# Generated by pormake.
# Topology wgu, (5)-cn, num edge types: 1
# Building blocks:
#     Node 0, Type 0, BuildingBlock: XOMCOT_clean_sbu_0, # of connection points: 5
#     Node 1, Type 0, BuildingBlock: XOMCOT_clean_sbu_0, # of connection points: 5
#     Node 2, Type 0, BuildingBlock: XOMCOT_clean_sbu_0, # of connection points: 5
#     Node 3, Type 0, BuildingBlock: XOMCOT_clean_sbu_0, # of connection points: 5
#     Node 4, Type 0, BuildingBlock: XOMCOT_clean_sbu_0, # of connection points: 5
#     Node 5, Type 0, BuildingBlock: XOMCOT_clean_sbu_0, # of connection points: 5
#     Node 6, Type 0, BuildingBlock: XOMCOT_clean_sbu_0, # of connection points: 5
#     Node 7, Type 0, BuildingBlock: XOMCOT_clean_sbu_0, # of connection points: 5
#     Edge 8, Type (0, 0), BuildingBlock: XIVTED_clean_linker_0, # of connection points: 2
#     Edge 9, Type (0, 0), BuildingBlock: XIVTED_clean_linker_0, # of connection points: 2
#     Edge 10, Type (0, 0), BuildingBlock: XIVTED_clean_linker_0, # of connection points: 2
#     Edge 11, Type (0, 0), BuildingBlock: XIVTED_clean_linker_0, # of connection points: 2
#     Edge 12, Type (0, 0), BuildingBlock: XIVTED_clean_linker_0, # of connection points: 2
#     Edge 13, Type (0, 0), BuildingBlock: XIVTED_clean_linker_0, # of connection points: 2
#     Edge 14, Type (0, 0), BuildingBlock: XIVTED_clean_linker_0, # of connection points: 2
#     Edge 15, Type (0, 0), BuildingBlock: XIVTED_clean_linker_0, # of connection points: 2
#     Edge 16, Type (0, 0), BuildingBlock: XIVTED_clean_linker_0, # of connection points: 2
#     Edge 17, Type (0, 0), BuildingBlock: XIVTED_clean_linker_0, # of connection points: 2
#     Edge 18, Type (0, 0), BuildingBlock: XIVTED_clean_linker_0, # of connection points: 2
#     Edge 19, Type (0, 0), BuildingBlock: XIVTED_clean_linker_0, # of connection points: 2
#     Edge 20, Type (0, 0), BuildingBlock: XIVTED_clean_linker_0, # of connection points: 2
#     Edge 21, Type (0, 0), BuildingBlock: XIVTED_clean_linker_0, # of connection points: 2
#     Edge 22, Type (0, 0), BuildingBlock: XIVTED_clean_linker_0, # of connection points: 2
#     Edge 23, Type (0, 0), BuildingBlock: XIVTED_clean_linker_0, # of connection points: 2
#     Edge 24, Type (0, 0), BuildingBlock: XIVTED_clean_linker_0, # of connection points: 2
#     Edge 25, Type (0, 0), BuildingBlock: XIVTED_clean_linker_0, # of connection points: 2
#     Edge 26, Type (0, 0), BuildingBlock: XIVTED_clean_linker_0, # of connection points: 2
#     Edge 27, Type (0, 0), BuildingBlock: XIVTED_clean_linker_0, # of connection points: 2
# Relax obj value: 0.158
# Max RMSD: 0.151
# Mean RMSD: 0.151
data_MOF--net-wgu--node1-XOMCOT_clean_sbu_0--edge1-XIVTED_clean_linker_0
_symmetry_space_group_name_H-M    P1
_symmetry_Int_Tables_number       1
_symmetry_cell_setting            triclinic
loop_
_symmetry_equiv_pos_as_xyz
'x, y, z'
_cell_length_a     32.912365
_cell_length_b     32.961802
_cell_length_c     29.823051
_cell_angle_alpha  89.918234
_cell_angle_beta   90.099374
_cell_angle_gamma 90.014239
loop_
_atom_site_label
_atom_site_type_symbol
_atom_site_fract_x
_atom_site_fract_y
_atom_site_fract_z
_atom_type_partial_charge
Co0 Co 0.31489 0.36715 0.07677 0.0
C1 C 0.32864 0.2853 0.04396 0.0
C2 C 0.37618 0.30292 0.08902 0.0
C3 C 0.37943 0.26186 0.08116 0.0
N4 N 0.34474 0.31778 0.06491 0.0
N5 N 0.34907 0.25087 0.05334 0.0
H6 H 0.30031 0.28623 0.02554 0.0
H7 H 0.3935 0.32009 0.11333 0.0
C8 C 0.39882 0.39659 0.04647 0.0
O9 O 0.40837 0.36029 0.03199 0.0
N10 N 0.28348 0.41572 0.08942 0.0
C11 C 0.25579 0.42113 0.1223 0.0
C12 C 0.23729 0.45803 0.11654 0.0
C13 C 0.2815 0.44985 0.06428 0.0
N14 N 0.25328 0.47597 0.08005 0.0
C15 C 0.25264 0.36245 0.01124 0.0
C16 C 0.30128 0.35886 0.93596 0.0
C17 C 0.25951 0.35122 0.93147 0.0
C18 C 0.23502 0.35409 0.96966 0.0
C19 C 0.31784 0.36661 0.97846 0.0
N20 N 0.29367 0.36725 0.01564 0.0
H21 H 0.23336 0.36339 0.0405 0.0
H22 H 0.35015 0.37011 0.98128 0.0
H23 H 0.24825 0.39968 0.14831 0.0
H24 H 0.29901 0.45465 0.03405 0.0
O25 O 0.27362 0.33329 0.1036 0.0
O26 O 0.32569 0.3599 0.1404 0.0
O27 O 0.36306 0.40393 0.06159 0.0
C28 C 0.29362 0.33664 0.14101 0.0
H29 H 0.40008 0.24116 0.0978 0.0
H30 H 0.21355 0.4706 0.13742 0.0
H31 H 0.3213 0.35689 0.90726 0.0
H32 H 0.20254 0.34913 0.96759 0.0
Co33 Co 0.63752 0.3135 0.57376 0.0
C34 C 0.7208 0.32539 0.54264 0.0
C35 C 0.70405 0.37133 0.58984 0.0
C36 C 0.74521 0.37395 0.58237 0.0
N37 N 0.68853 0.3414 0.56411 0.0
N38 N 0.75571 0.34468 0.55309 0.0
H39 H 0.71924 0.29812 0.52261 0.0
H40 H 0.68708 0.38822 0.6146 0.0
C41 C 0.61262 0.39917 0.5446 0.0
O42 O 0.65 0.4074 0.5325 0.0
N43 N 0.58711 0.28408 0.58486 0.0
C44 C 0.57502 0.26766 0.62421 0.0
C45 C 0.53986 0.24622 0.61755 0.0
C46 C 0.55813 0.27307 0.55498 0.0
N47 N 0.5294 0.24936 0.57407 0.0
C48 C 0.64333 0.2532 0.50622 0.0
C49 C 0.65109 0.30447 0.4335 0.0
C50 C 0.6596 0.26302 0.42776 0.0
C51 C 0.65412 0.23714 0.46461 0.0
C52 C 0.64057 0.31935 0.47586 0.0
N53 N 0.63827 0.29399 0.51199 0.0
H54 H 0.64108 0.2329 0.53458 0.0
H55 H 0.63655 0.35144 0.47956 0.0
H56 H 0.59045 0.27034 0.656 0.0
H57 H 0.55859 0.28116 0.5198 0.0
O58 O 0.66868 0.26998 0.60004 0.0
O59 O 0.64435 0.32233 0.6379 0.0
O60 O 0.60309 0.36351 0.55856 0.0
C61 C 0.6657 0.28893 0.63798 0.0
H62 H 0.76621 0.39357 0.59999 0.0
H63 H 0.5231 0.22971 0.6429 0.0
H64 H 0.65381 0.3256 0.40583 0.0
H65 H 0.66035 0.20497 0.46221 0.0
Co66 Co 0.70809 0.63287 0.0848 0.0
C67 C 0.69281 0.71694 0.0579 0.0
C68 C 0.65033 0.69773 0.10793 0.0
C69 C 0.64644 0.73897 0.10214 0.0
N70 N 0.67884 0.68369 0.07942 0.0
N71 N 0.67352 0.75107 0.07097 0.0
H72 H 0.71866 0.71652 0.03559 0.0
H73 H 0.63529 0.67966 0.13326 0.0
C74 C 0.62138 0.60719 0.05992 0.0
O75 O 0.61123 0.64491 0.05153 0.0
N76 N 0.739 0.58275 0.09124 0.0
C77 C 0.7606 0.57059 0.12745 0.0
C78 C 0.78145 0.53588 0.11708 0.0
C79 C 0.74645 0.5543 0.05959 0.0
N80 N 0.77282 0.52581 0.07442 0.0
C81 C 0.76496 0.6413 0.01385 0.0
C82 C 0.70973 0.65208 0.94503 0.0
C83 C 0.75104 0.65955 0.93666 0.0
C84 C 0.7789 0.65269 0.97147 0.0
C85 C 0.69705 0.64063 0.98798 0.0
N86 N 0.72443 0.63665 0.02214 0.0
H87 H 0.78671 0.63801 0.0408 0.0
H88 H 0.66509 0.63734 0.9939 0.0
H89 H 0.76199 0.58574 0.15944 0.0
H90 H 0.73403 0.55517 0.02598 0.0
O91 O 0.75223 0.66376 0.11048 0.0
O92 O 0.70205 0.63629 0.14954 0.0
O93 O 0.65812 0.59809 0.07054 0.0
C94 C 0.73486 0.65854 0.14915 0.0
H95 H 0.62744 0.75885 0.12193 0.0
H96 H 0.80143 0.51921 0.13933 0.0
H97 H 0.68715 0.65625 0.91898 0.0
H98 H 0.81105 0.65822 0.96683 0.0
Co99 Co 0.37774 0.70864 0.55367 0.0
C100 C 0.29575 0.69665 0.51811 0.0
C101 C 0.31091 0.64995 0.5653 0.0
C102 C 0.2703 0.64663 0.55475 0.0
N103 N 0.32714 0.68075 0.54141 0.0
N104 N 0.26081 0.67633 0.52542 0.0
H105 H 0.29775 0.72439 0.49885 0.0
H106 H 0.32692 0.6327 0.59066 0.0
C107 C 0.4042 0.62333 0.52515 0.0
O108 O 0.36758 0.6148 0.51056 0.0
N109 N 0.42781 0.73805 0.56699 0.0
C110 C 0.44005 0.75182 0.60748 0.0
C111 C 0.47519 0.77371 0.60245 0.0
C112 C 0.45667 0.75112 0.53802 0.0
N113 N 0.4855 0.77357 0.55879 0.0
C114 C 0.3728 0.76993 0.48657 0.0
C115 C 0.36924 0.71938 0.41286 0.0
C116 C 0.36076 0.76081 0.40699 0.0
C117 C 0.364 0.78633 0.44443 0.0
C118 C 0.37801 0.70419 0.45569 0.0
N119 N 0.3784 0.72918 0.49218 0.0
H120 H 0.37356 0.7899 0.51526 0.0
H121 H 0.3821 0.67209 0.45937 0.0
H122 H 0.42469 0.74692 0.63898 0.0
H123 H 0.45612 0.74532 0.50233 0.0
O124 O 0.34558 0.75137 0.58059 0.0
O125 O 0.36966 0.69801 0.61712 0.0
O126 O 0.41285 0.65914 0.53917 0.0
C127 C 0.34809 0.73117 0.61796 0.0
H128 H 0.24878 0.62614 0.57026 0.0
H129 H 0.492 0.78847 0.62906 0.0
H130 H 0.36696 0.69839 0.38508 0.0
H131 H 0.35872 0.81865 0.4415 0.0
Co132 Co 0.81058 0.14212 0.98292 0.0
C133 C 0.83507 0.22618 0.99687 0.0
C134 C 0.88054 0.1946 0.95957 0.0
C135 C 0.88939 0.23566 0.95858 0.0
N136 N 0.84661 0.1887 0.98422 0.0
N137 N 0.86025 0.25516 0.98166 0.0
H138 H 0.80664 0.233 0.01299 0.0
H139 H 0.89579 0.17121 0.94056 0.0
C140 C 0.89151 0.10936 0.01529 0.0
O141 O 0.89818 0.14361 0.03653 0.0
N142 N 0.77295 0.09675 0.98099 0.0
C143 C 0.73368 0.09866 0.96792 0.0
C144 C 0.71557 0.06189 0.97537 0.0
C145 C 0.77799 0.0585 0.99659 0.0
N146 N 0.74325 0.03668 0.99356 0.0
C147 C 0.76686 0.17724 0.05571 0.0
C148 C 0.80191 0.13476 0.1255 0.0
C149 C 0.77427 0.16592 0.13512 0.0
C150 C 0.7561 0.18654 0.09952 0.0
C151 C 0.81253 0.12684 0.08065 0.0
N152 N 0.79659 0.14955 0.04636 0.0
H153 H 0.75136 0.1934 0.0294 0.0
H154 H 0.83304 0.10215 0.07407 0.0
H155 H 0.71836 0.12512 0.95484 0.0
H156 H 0.80579 0.04729 0.01151 0.0
O157 O 0.77004 0.17727 0.95659 0.0
O158 O 0.81451 0.14175 0.91766 0.0
O159 O 0.85744 0.1033 0.99549 0.0
C160 C 0.78469 0.16769 0.91773 0.0
H161 H 0.91304 0.25024 0.93918 0.0
H162 H 0.6842 0.05439 0.96822 0.0
H163 H 0.81561 0.11723 0.15228 0.0
H164 H 0.73346 0.20978 0.1055 0.0
Co165 Co 0.86704 0.81768 0.49271 0.0
C166 C 0.78207 0.84202 0.47621 0.0
C167 C 0.81767 0.89518 0.48757 0.0
C168 C 0.77739 0.90648 0.48271 0.0
N169 N 0.82045 0.85429 0.48521 0.0
N170 N 0.75529 0.87277 0.47539 0.0
H171 H 0.77298 0.8107 0.47262 0.0
H172 H 0.84258 0.91591 0.49238 0.0
C173 C 0.90628 0.89174 0.53568 0.0
O174 O 0.87822 0.89175 0.56694 0.0
N175 N 0.91162 0.78006 0.49893 0.0
C176 C 0.90734 0.74177 0.51402 0.0
C177 C 0.94414 0.72256 0.51166 0.0
C178 C 0.95111 0.78379 0.48744 0.0
N179 N 0.97163 0.7488 0.49484 0.0
C180 C 0.81639 0.79757 0.56764 0.0
C181 C 0.8765 0.79716 0.63238 0.0
C182 C 0.8369 0.78577 0.64444 0.0
C183 C 0.80673 0.78634 0.61136 0.0
C184 C 0.88481 0.80878 0.58806 0.0
N185 N 0.8547 0.80958 0.55629 0.0
H186 H 0.7932 0.79428 0.54263 0.0
H187 H 0.91573 0.8162 0.57898 0.0
H188 H 0.87919 0.72872 0.52592 0.0
H189 H 0.96427 0.81104 0.47331 0.0
O190 O 0.83504 0.77362 0.4688 0.0
O191 O 0.87248 0.81554 0.428 0.0
O192 O 0.90544 0.86513 0.50439 0.0
C193 C 0.84766 0.78474 0.42938 0.0
H194 H 0.76528 0.93694 0.48492 0.0
H195 H 0.95033 0.69173 0.5222 0.0
H196 H 0.9009 0.79667 0.65679 0.0
H197 H 0.77611 0.77624 0.61862 0.0
Co198 Co 0.19478 0.86818 0.96215 0.0
C199 C 0.18281 0.78548 0.99442 0.0
C200 C 0.13571 0.80203 0.94828 0.0
C201 C 0.13302 0.76097 0.95651 0.0
N202 N 0.16639 0.81762 0.97297 0.0
N203 N 0.16305 0.75064 0.98509 0.0
H204 H 0.21071 0.78703 0.01357 0.0
H205 H 0.11831 0.81882 0.92367 0.0
C206 C 0.11003 0.89518 0.99286 0.0
O207 O 0.1005 0.8579 1.00402 0.0
N208 N 0.22479 0.9179 0.95033 0.0
C209 C 0.25001 0.92563 0.9156 0.0
C210 C 0.26859 0.96231 0.9223 0.0
C211 C 0.22812 0.95061 0.97741 0.0
N212 N 0.25504 0.97786 0.96116 0.0
C213 C 0.25676 0.86629 0.02856 0.0
C214 C 0.20745 0.85697 0.10276 0.0
C215 C 0.24971 0.8533 0.10821 0.0
C216 C 0.27441 0.85916 0.07047 0.0
C217 C 0.19099 0.86422 0.06012 0.0
N218 N 0.21557 0.86785 0.02347 0.0
H219 H 0.27628 0.86923 0.99963 0.0
H220 H 0.15853 0.86466 0.05658 0.0
H221 H 0.25579 0.90602 0.88744 0.0
H222 H 0.21259 0.95356 1.00921 0.0
O223 O 0.23713 0.83606 0.93486 0.0
O224 O 0.18447 0.86176 0.89824 0.0
O225 O 0.14581 0.90363 0.97849 0.0
C226 C 0.21733 0.83962 0.89731 0.0
H227 H 0.1128 0.73988 0.93989 0.0
H228 H 0.29072 0.97638 0.90041 0.0
H229 H 0.18707 0.85232 0.13076 0.0
H230 H 0.30719 0.85748 0.07302 0.0
Co231 Co 0.14442 0.19717 0.48551 0.0
C232 C 0.22771 0.17588 0.50883 0.0
C233 C 0.19741 0.12486 0.47979 0.0
C234 C 0.23851 0.11629 0.48256 0.0
N235 N 0.1907 0.16224 0.49676 0.0
N236 N 0.25727 0.14887 0.50023 0.0
H237 H 0.23386 0.2065 0.5194 0.0
H238 H 0.17474 0.10666 0.46289 0.0
C239 C 0.10842 0.1219 0.52818 0.0
O240 O 0.13947 0.12032 0.55588 0.0
N241 N 0.09906 0.2333 0.47345 0.0
C242 C 0.1002 0.26779 0.4489 0.0
C243 C 0.06349 0.28708 0.452 0.0
C244 C 0.0613 0.23229 0.49122 0.0
N245 N 0.03913 0.26499 0.47876 0.0
C246 C 0.17446 0.24921 0.55459 0.0
C247 C 0.12687 0.22275 0.62471 0.0
C248 C 0.15718 0.25179 0.63333 0.0
C249 C 0.18057 0.26529 0.59716 0.0
C250 C 0.12178 0.20722 0.58112 0.0
N251 N 0.14702 0.21883 0.54696 0.0
H252 H 0.19286 0.26125 0.52795 0.0
H253 H 0.09711 0.18648 0.57533 0.0
H254 H 0.12605 0.27932 0.43068 0.0
H255 H 0.05076 0.20914 0.51416 0.0
O256 O 0.18129 0.23485 0.45703 0.0
O257 O 0.14933 0.18548 0.42159 0.0
O258 O 0.10493 0.15158 0.50064 0.0
C259 C 0.17498 0.21552 0.41985 0.0
H260 H 0.25375 0.09 0.46886 0.0
H261 H 0.0555 0.31553 0.43609 0.0
H262 H 0.10691 0.21243 0.6512 0.0
H263 H 0.20435 0.28764 0.60157 0.0
H264 H 0.20999 0.03252 1.00725 0.0
H265 H 0.39708 0.1857 0.03873 0.0
H266 H 0.3313 0.00766 0.96063 0.0
H267 H 0.27175 0.22307 0.04651 0.0
H268 H 0.37453 0.11643 0.02185 0.0
H269 H 0.23334 0.09901 0.03449 0.0
C270 C 0.24158 0.04094 1.00331 0.0
C271 C 0.2687 0.01502 0.98128 0.0
C272 C 0.35199 0.13985 0.02724 0.0
C273 C 0.29557 0.09038 0.01207 0.0
C274 C 0.36486 0.17923 0.03691 0.0
C275 C 0.33628 0.21016 0.04331 0.0
C276 C 0.31022 0.13129 0.02457 0.0
C277 C 0.29481 0.2003 0.04075 0.0
C278 C 0.25484 0.07883 0.0185 0.0
C279 C 0.30934 0.0272 0.97675 0.0
N280 N 0.283 0.1617 0.0316 0.0
N281 N 0.32154 0.06402 0.99192 0.0
H282 H 0.01039 0.34081 0.49155 0.0
H283 H 0.78234 0.26819 0.53543 0.0
H284 H 0.97597 0.2147 0.49775 0.0
H285 H 0.82218 0.39252 0.54615 0.0
H286 H 0.8521 0.24779 0.51905 0.0
H287 H 0.94102 0.35999 0.50998 0.0
C288 C 0.98811 0.31711 0.4967 0.0
C289 C 0.99881 0.27609 0.49263 0.0
C290 C 0.84557 0.27953 0.52496 0.0
C291 C 0.91911 0.29784 0.51404 0.0
C292 C 0.80565 0.29129 0.53387 0.0
C293 C 0.79637 0.33225 0.5419 0.0
C294 C 0.87639 0.30893 0.52384 0.0
C295 C 0.82804 0.36065 0.54043 0.0
C296 C 0.94851 0.32808 0.50747 0.0
C297 C 0.96892 0.24664 0.50068 0.0
N298 N 0.86659 0.34848 0.53147 0.0
N299 N 0.93026 0.2581 0.5107 0.0
H300 H 0.79617 0.97329 0.99428 0.0
H301 H 0.6242 0.81675 0.07432 0.0
H302 H 0.67287 1.00659 0.02615 0.0
H303 H 0.74658 0.78013 0.04195 0.0
H304 H 0.64259 0.88687 0.05814 0.0
H305 H 0.78014 0.90261 0.01394 0.0
C306 C 0.7659 0.96577 1.00577 0.0
C307 C 0.73568 0.9957 1.00809 0.0
C308 C 0.66546 0.86351 0.05448 0.0
C309 C 0.71702 0.91528 0.03027 0.0
C310 C 0.65495 0.82343 0.06387 0.0
C311 C 0.68377 0.79236 0.05951 0.0
C312 C 0.70518 0.87283 0.04062 0.0
C313 C 0.72312 0.80287 0.04521 0.0
C314 C 0.75667 0.92548 0.0167 0.0
C315 C 0.69685 0.98436 0.02294 0.0
N316 N 0.73267 0.84222 0.03636 0.0
N317 N 0.68866 0.94516 0.03332 0.0
H318 H 1.00496 0.67669 0.4728 0.0
H319 H 0.23295 0.75289 0.51067 0.0
H320 H 0.03522 0.80125 0.50161 0.0
H321 H 0.1966 0.62717 0.50991 0.0
H322 H 0.16284 0.77251 0.49397 0.0
H323 H 0.077 0.65984 0.47235 0.0
C324 C 0.02686 0.70057 0.47885 0.0
C325 C 0.01408 0.74029 0.48814 0.0
C326 C 0.1703 0.74063 0.49705 0.0
C327 C 0.09682 0.72122 0.48752 0.0
C328 C 0.21037 0.72936 0.50625 0.0
C329 C 0.22056 0.68826 0.51182 0.0
C330 C 0.14031 0.71057 0.49309 0.0
C331 C 0.18991 0.65916 0.5064 0.0
C332 C 0.06801 0.69094 0.47849 0.0
C333 C 0.04382 0.77026 0.49445 0.0
N334 N 0.15117 0.67087 0.49748 0.0
N335 N 0.08391 0.76002 0.49455 0.0
H336 H 0.84876 0.4955 0.08183 0.0
H337 H 0.78956 0.2908 0.95938 0.0
H338 H 0.73498 0.47861 0.01263 0.0
H339 H 0.9108 0.31612 1.00593 0.0
H340 H 0.771 0.36164 0.97214 0.0
H341 H 0.87417 0.43273 0.04872 0.0
C342 C 0.82923 0.4786 0.05936 0.0
C343 C 0.78948 0.49181 0.05048 0.0
C344 C 0.80186 0.35205 0.97901 0.0
C345 C 0.81829 0.41986 0.01248 0.0
C346 C 0.81237 0.31165 0.97183 0.0
C347 C 0.85157 0.29783 0.98225 0.0
C348 C 0.83059 0.37872 0.99747 0.0
C349 C 0.88028 0.32584 0.99767 0.0
C350 C 0.84383 0.44291 0.04025 0.0
C351 C 0.76574 0.46935 0.02039 0.0
N352 N 0.86904 0.36494 1.00558 0.0
N353 N 0.78028 0.43408 1.003 0.0
H354 H 0.52026 0.84337 0.58743 0.0
H355 H 0.71163 0.81904 0.42689 0.0
H356 H 0.52893 0.75137 0.48526 0.0
H357 H 0.70017 0.91392 0.52524 0.0
H358 H 0.64087 0.79987 0.44007 0.0
H359 H 0.58203 0.87477 0.55865 0.0
C360 C 0.53518 0.82978 0.55884 0.0
C361 C 0.5198 0.79423 0.53921 0.0
C362 C 0.65351 0.82533 0.45827 0.0
C363 C 0.59063 0.83031 0.50575 0.0
C364 C 0.69385 0.83632 0.45067 0.0
C365 C 0.71182 0.8678 0.4754 0.0
C366 C 0.631 0.84572 0.49123 0.0
C367 C 0.68743 0.88954 0.50544 0.0
C368 C 0.57033 0.84793 0.54219 0.0
C369 C 0.53979 0.77864 0.50147 0.0
N370 N 0.64844 0.87766 0.51307 0.0
N371 N 0.57448 0.79649 0.48631 0.0
H372 H 0.30058 0.53242 0.03928 0.0
H373 H 0.1148 0.68539 0.99876 0.0
H374 H 0.1772 0.5065 0.0782 0.0
H375 H 0.24018 0.72335 0.99704 0.0
H376 H 0.13683 0.61647 0.01788 0.0
H377 H 0.27861 0.59968 0.01289 0.0
C378 C 0.26887 0.5408 0.04182 0.0
C379 C 0.24072 0.5142 0.0613 0.0
C380 C 0.15951 0.63993 0.01338 0.0
C381 C 0.21539 0.59055 0.03139 0.0
C382 C 0.14693 0.67914 1.00237 0.0
C383 C 0.17563 0.71015 0.99681 0.0
C384 C 0.20115 0.63155 0.0183 0.0
C385 C 0.21698 0.70053 1.00192 0.0
C386 C 0.25638 0.57915 0.02711 0.0
C387 C 0.19996 0.52644 0.06408 0.0
N388 N 0.22851 0.66205 0.01228 0.0
N389 N 0.18852 0.56369 0.04932 0.0
H390 H 0.31813 0.10086 0.53068 0.0
H391 H 0.48248 0.2795 0.50699 0.0
H392 H 0.29335 0.21721 0.47067 0.0
H393 H 0.49738 0.17609 0.5941 0.0
H394 H 0.41868 0.25011 0.47922 0.0
H395 H 0.3897 0.1211 0.54017 0.0
C396 C 0.32803 0.13036 0.51897 0.0
C397 C 0.3 0.15774 0.50075 0.0
C398 C 0.43617 0.23366 0.50409 0.0
C399 C 0.38105 0.18109 0.51119 0.0
C400 C 0.4726 0.25034 0.51969 0.0
C401 C 0.49473 0.23049 0.55336 0.0
C402 C 0.42211 0.19675 0.52208 0.0
C403 C 0.48065 0.19277 0.56884 0.0
C404 C 0.36863 0.142 0.5245 0.0
C405 C 0.31402 0.19564 0.48585 0.0
N406 N 0.44511 0.17725 0.55333 0.0
N407 N 0.35348 0.20632 0.49167 0.0
H408 H 0.63017 0.5238 0.05974 0.0
H409 H 0.39041 0.47881 0.0616 0.0
H410 H 0.5392 0.61793 0.0533 0.0
H411 H 0.48044 0.38746 0.03226 0.0
H412 H 0.44465 0.5299 0.06417 0.0
H413 H 0.5759 0.47279 0.05538 0.0
C414 C 0.59888 0.53378 0.0574 0.0
C415 C 0.58939 0.57531 0.05677 0.0
C416 C 0.45246 0.49866 0.05702 0.0
C417 C 0.52701 0.51705 0.05216 0.0
C418 C 0.42148 0.46947 0.05558 0.0
C419 C 0.43072 0.42869 0.04658 0.0
C420 C 0.49311 0.487 0.04999 0.0
C421 C 0.47169 0.41849 0.03909 0.0
C422 C 0.56789 0.50464 0.05481 0.0
C423 C 0.54815 0.58634 0.05367 0.0
N424 N 0.50126 0.4473 0.04121 0.0
N425 N 0.51862 0.55749 0.05171 0.0
H426 H 0.62598 0.48036 0.53375 0.0
H427 H 0.39187 0.54184 0.51408 0.0
H428 H 0.52878 0.39346 0.54842 0.0
H429 H 0.48692 0.629 0.53994 0.0
H430 H 0.44184 0.48725 0.51905 0.0
H431 H 0.5759 0.53473 0.52872 0.0
C432 C 0.59406 0.47259 0.53578 0.0
C433 C 0.58168 0.43205 0.54144 0.0
C434 C 0.4518 0.51829 0.52361 0.0
C435 C 0.52389 0.49469 0.53549 0.0
C436 C 0.42331 0.54963 0.52053 0.0
C437 C 0.43511 0.59031 0.52648 0.0
C438 C 0.4927 0.52745 0.53219 0.0
C439 C 0.47634 0.59821 0.5351 0.0
C440 C 0.56546 0.50381 0.53308 0.0
C441 C 0.5398 0.42417 0.54413 0.0
N442 N 0.50362 0.56713 0.5375 0.0
N443 N 0.51243 0.45515 0.54088 0.0
H444 H 0.02813 0.88459 1.0011 0.0
H445 H 0.97273 0.11862 0.03349 0.0
H446 H 0.11896 0.97877 0.99344 0.0
H447 H 0.88495 0.02867 0.99264 0.0
H448 H 0.02646 0.06738 0.02798 0.0
H449 H 0.97549 0.93637 1.00701 0.0
C450 C 0.03713 0.9162 1.00083 0.0
C451 C 0.07824 0.92721 0.99678 0.0
C452 C 0.99545 0.05888 0.02025 0.0
C453 C 0.01758 0.987 1.00383 0.0
C454 C 0.96464 0.08805 0.02364 0.0
C455 C 0.92409 0.07801 0.0136 0.0
C456 C 0.9857 0.01908 1.00741 0.0
C457 C 0.91568 0.0379 1.00067 0.0
C458 C 1.0069 0.94579 1.00401 0.0
C459 C 0.08773 0.96881 0.99637 0.0
N460 N 0.94611 0.00994 0.9982 0.0
N461 N 0.05767 0.99717 1.00013 0.0
H462 H 0.93445 0.93641 0.60643 0.0
H463 H 0.05628 0.09846 0.46096 0.0
H464 H 0.94775 0.92306 0.46338 0.0
H465 H 0.09014 0.06997 0.59718 0.0
H466 H 0.00776 0.04174 0.46219 0.0
H467 H 0.98335 0.99256 0.60473 0.0
C468 C 0.94765 0.94527 0.57464 0.0
C469 C 0.93704 0.92486 0.535 0.0
C470 C 0.02582 0.04801 0.49178 0.0
C471 C 0.99248 0.98975 0.53275 0.0
C472 C 0.0533 0.08052 0.49123 0.0
C473 C 0.07738 0.08902 0.52903 0.0
C474 C 0.02164 0.02435 0.53073 0.0
C475 C 0.07236 0.06449 0.56722 0.0
C476 C 0.97562 0.97726 0.57374 0.0
C477 C 0.95524 0.93771 0.49479 0.0
N478 N 0.04489 0.03354 0.56722 0.0
N479 N 0.98173 0.96957 0.49461 0.0
H480 H 0.32261 0.34465 0.22686 0.0
H481 H 0.1584 0.19223 0.33317 0.0
H482 H 0.23198 0.28173 0.14868 0.0
H483 H 0.23703 0.26944 0.41146 0.0
H484 H 0.18975 0.21901 0.26459 0.0
H485 H 0.29624 0.31183 0.29456 0.0
C486 C 0.29728 0.32383 0.22393 0.0
C487 C 0.27929 0.31613 0.18218 0.0
C488 C 0.20022 0.22994 0.29683 0.0
C489 C 0.24898 0.27839 0.25936 0.0
C490 C 0.18242 0.21456 0.33592 0.0
C491 C 0.19491 0.22886 0.37798 0.0
C492 C 0.23086 0.2596 0.29998 0.0
C493 C 0.22618 0.25782 0.37968 0.0
C494 C 0.28219 0.30513 0.26256 0.0
C495 C 0.24659 0.28878 0.18028 0.0
N496 N 0.24298 0.27228 0.3413 0.0
N497 N 0.23244 0.27097 0.2183 0.0
H498 H 0.72939 0.22881 0.91159 0.0
H499 H 0.71773 0.2249 0.64395 0.0
H500 H 0.80253 0.14932 0.83 0.0
H501 H 0.65732 0.3148 0.72502 0.0
H502 H 0.74802 0.19601 0.71155 0.0
H503 H 0.70165 0.25959 0.84376 0.0
C504 C 0.73959 0.21774 0.87933 0.0
C505 C 0.7682 0.18627 0.87641 0.0
C506 C 0.72825 0.22211 0.71463 0.0
C507 C 0.73647 0.22154 0.79844 0.0
C508 C 0.71084 0.23861 0.67604 0.0
C509 C 0.68481 0.27224 0.67891 0.0
C510 C 0.71942 0.23917 0.75657 0.0
C511 C 0.67718 0.28885 0.72131 0.0
C512 C 0.72379 0.23547 0.84059 0.0
C513 C 0.78048 0.17343 0.83374 0.0
N514 N 0.69427 0.27202 0.75853 0.0
N515 N 0.76441 0.19102 0.79638 0.0
H516 H 0.79005 0.72543 0.42348 0.0
H517 H 0.79958 0.70994 0.15581 0.0
H518 H 0.86994 0.79844 0.34193 0.0
H519 H 0.70985 0.64822 0.23621 0.0
H520 H 0.82807 0.7399 0.22378 0.0
H521 H 0.76294 0.69404 0.35565 0.0
C522 C 0.80207 0.73473 0.39128 0.0
C523 C 0.83238 0.7646 0.38837 0.0
C524 C 0.80217 0.71981 0.22663 0.0
C525 C 0.80128 0.72876 0.31041 0.0
C526 C 0.7859 0.7026 0.18781 0.0
C527 C 0.75227 0.67649 0.19035 0.0
C528 C 0.78484 0.71075 0.26844 0.0
C529 C 0.73575 0.6682 0.23271 0.0
C530 C 0.78645 0.71685 0.35252 0.0
C531 C 0.84661 0.77553 0.34572 0.0
N532 N 0.75224 0.68523 0.2701 0.0
N533 N 0.83095 0.75761 0.30841 0.0
H534 H 0.19366 0.85472 0.81045 0.0
H535 H 0.35653 0.70194 0.70352 0.0
H536 H 0.27798 0.78384 0.88898 0.0
H537 H 0.29298 0.79282 0.62633 0.0
H538 H 0.32268 0.72655 0.77129 0.0
H539 H 0.2241 0.8271 0.74189 0.0
C540 C 0.21836 0.83315 0.81327 0.0
C541 C 0.23342 0.82169 0.85545 0.0
C542 C 0.31614 0.74112 0.73952 0.0
C543 C 0.26833 0.78997 0.77733 0.0
C544 C 0.33541 0.72703 0.70082 0.0
C545 C 0.32772 0.74549 0.65926 0.0
C546 C 0.28864 0.77367 0.73663 0.0
C547 C 0.30001 0.77787 0.65774 0.0
C548 C 0.23584 0.81754 0.77416 0.0
C549 C 0.26556 0.79371 0.85715 0.0
N550 N 0.28143 0.79088 0.69582 0.0
N551 N 0.2819 0.77882 0.81872 0.0
H552 H 0.82048 0.64266 0.88853 0.0
H553 H 0.77026 0.80417 0.69509 0.0
H554 H 0.71315 0.71788 0.88614 0.0
H555 H 0.88015 0.7329 0.69764 0.0
H556 H 0.75002 0.77376 0.76625 0.0
H557 H 0.84362 0.67554 0.81947 0.0
C558 C 0.80175 0.66604 0.87353 0.0
C559 C 0.76465 0.67731 0.89322 0.0
C560 C 0.77868 0.76486 0.75148 0.0
C561 C 0.79102 0.7151 0.81403 0.0
C562 C 0.79026 0.78223 0.71079 0.0
C563 C 0.82687 0.77092 0.69022 0.0
C564 C 0.80376 0.7357 0.7719 0.0
C565 C 0.85182 0.74273 0.71245 0.0
C566 C 0.81498 0.68477 0.83405 0.0
C567 C 0.74155 0.70757 0.8719 0.0
N568 N 0.83966 0.72585 0.75192 0.0
N569 N 0.75511 0.72536 0.83362 0.0
H570 H 0.30121 0.81746 0.39149 0.0
H571 H 0.31327 0.80118 0.12377 0.0
H572 H 0.38617 0.74035 0.32186 0.0
H573 H 0.22733 0.8773 0.19326 0.0
H574 H 0.34184 0.78052 0.1958 0.0
H575 H 0.2756 0.8416 0.31939 0.0
C576 C 0.31488 0.8059 0.36108 0.0
C577 C 0.34613 0.77685 0.36297 0.0
C578 C 0.31682 0.80184 0.19536 0.0
C579 C 0.31624 0.80404 0.27986 0.0
C580 C 0.30062 0.81394 0.15412 0.0
C581 C 0.26785 0.84127 0.15221 0.0
C582 C 0.30026 0.81706 0.2353 0.0
C583 C 0.25228 0.85593 0.19295 0.0
C584 C 0.29995 0.81951 0.31982 0.0
C585 C 0.36185 0.76243 0.32221 0.0
N586 N 0.26861 0.84367 0.23272 0.0
N587 N 0.34675 0.77614 0.28243 0.0
H588 H 0.15458 0.21098 0.71417 0.0
H589 H 0.27141 0.38463 0.84815 0.0
H590 H 0.17927 0.3292 0.65787 0.0
H591 H 0.20756 0.28799 0.91557 0.0
H592 H 0.24244 0.36174 0.7767 0.0
H593 H 0.17655 0.23616 0.78762 0.0
C594 C 0.16406 0.24231 0.71721 0.0
C595 C 0.16555 0.26772 0.67935 0.0
C596 C 0.23458 0.34569 0.80718 0.0
C597 C 0.19171 0.29641 0.76324 0.0
C598 C 0.2513 0.3586 0.84787 0.0
C599 C 0.24176 0.3383 0.88785 0.0
C600 C 0.20869 0.31174 0.80627 0.0
C601 C 0.21535 0.30481 0.88558 0.0
C602 C 0.17688 0.25658 0.75915 0.0
C603 C 0.1786 0.30801 0.6856 0.0
N604 N 0.19999 0.29239 0.84548 0.0
N605 N 0.19156 0.3209 0.72646 0.0
H606 H 0.78136 0.2406 0.17214 0.0
H607 H 0.64644 0.18894 0.38678 0.0
H608 H 0.74167 0.11906 0.20243 0.0
H609 H 0.71326 0.30084 0.37099 0.0
H610 H 0.67847 0.16309 0.31855 0.0
H611 H 0.75498 0.26341 0.24434 0.0
C612 C 0.76751 0.21863 0.19445 0.0
C613 C 0.76372 0.17793 0.18152 0.0
C614 C 0.68609 0.19328 0.33013 0.0
C615 C 0.73258 0.2039 0.2639 0.0
C616 C 0.66783 0.20812 0.36915 0.0
C617 C 0.67687 0.24735 0.38484 0.0
C618 C 0.71343 0.21787 0.30631 0.0
C619 C 0.7045 0.27082 0.35995 0.0
C620 C 0.75236 0.23164 0.23559 0.0
C621 C 0.74543 0.15065 0.21145 0.0
N622 N 0.72162 0.25578 0.32202 0.0
N623 N 0.73008 0.16421 0.25113 0.0
loop_
_geom_bond_atom_site_label_1
_geom_bond_atom_site_label_2
_geom_bond_distance
_geom_bond_site_symmetry_2
_ccdc_geom_bond_type
Co0 N4 2.148 . S
Co0 N10 2.128 . S
Co0 N20 2.194 1_554 S
Co0 O25 2.351 . S
Co0 O26 2.155 . S
Co0 O27 2.096 . S
C1 N4 1.301 . S
C1 N5 1.328 . S
C1 H6 0.930 . S
C2 C3 1.333 . S
C2 N4 1.317 . S
C2 H7 0.930 . S
C3 C2 1.333 . S
C3 N5 1.350 . S
C3 H29 0.931 . S
N4 Co0 2.148 . S
N4 C1 1.301 . S
N4 C2 1.317 . S
N5 C1 1.328 . S
N5 C3 1.350 . S
H6 C1 0.930 . S
H7 C2 0.930 . S
C8 O9 1.224 1_554 S
C8 O27 1.247 . S
O9 C8 1.224 1_556 S
N10 Co0 2.128 . S
N10 C11 1.355 . S
N10 C13 1.311 . S
C11 N10 1.355 . S
C11 C12 1.363 . S
C11 H23 0.929 . S
C12 C11 1.363 . S
C12 N14 1.375 . S
C12 H30 0.931 . S
C13 N10 1.311 . S
C13 N14 1.347 . S
C13 H24 0.929 . S
N14 C12 1.375 . S
N14 C13 1.347 . S
C15 C18 1.365 . S
C15 N20 1.328 . S
C15 H21 0.926 1_556 S
C16 C17 1.362 . S
C16 C19 1.378 . S
C16 H31 0.929 . S
C17 C16 1.362 . S
C17 C18 1.366 . S
C18 C15 1.365 . S
C18 C17 1.366 . S
C18 H32 0.930 . S
C19 C16 1.378 . S
C19 N20 1.315 . S
C19 H22 0.930 . S
N20 Co0 2.194 1_556 S
N20 C15 1.328 . S
N20 C19 1.315 . S
H21 C15 0.926 1_554 S
H22 C19 0.930 . S
H23 C11 0.929 . S
H24 C13 0.929 . S
O25 Co0 2.351 . S
O25 C28 1.244 . S
O26 Co0 2.155 . S
O26 C28 1.240 . S
O27 Co0 2.096 . S
O27 C8 1.247 . S
C28 O25 1.244 . S
C28 O26 1.240 . S
H29 C3 0.931 . S
H30 C12 0.931 . S
H31 C16 0.929 . S
H32 C18 0.930 . S
Co33 N37 2.148 . S
Co33 N43 2.128 . S
Co33 N53 2.194 . S
Co33 O58 2.351 . S
Co33 O59 2.155 . S
Co33 O60 2.096 . S
C34 N37 1.301 . S
C34 N38 1.328 . S
C34 H39 0.930 . S
C35 C36 1.333 . S
C35 N37 1.317 . S
C35 H40 0.930 . S
C36 C35 1.333 . S
C36 N38 1.350 . S
C36 H62 0.931 . S
N37 Co33 2.148 . S
N37 C34 1.301 . S
N37 C35 1.317 . S
N38 C34 1.328 . S
N38 C36 1.350 . S
H39 C34 0.930 . S
H40 C35 0.930 . S
C41 O42 1.224 . S
C41 O60 1.247 . S
O42 C41 1.224 . S
N43 Co33 2.128 . S
N43 C44 1.355 . S
N43 C46 1.311 . S
C44 N43 1.355 . S
C44 C45 1.363 . S
C44 H56 0.929 . S
C45 C44 1.363 . S
C45 N47 1.375 . S
C45 H63 0.931 . S
C46 N43 1.311 . S
C46 N47 1.347 . S
C46 H57 0.929 . S
N47 C45 1.375 . S
N47 C46 1.347 . S
C48 C51 1.365 . S
C48 N53 1.328 . S
C48 H54 0.929 . S
C49 C50 1.362 . S
C49 C52 1.378 . S
C49 H64 0.929 . S
C50 C49 1.362 . S
C50 C51 1.366 . S
C51 C48 1.365 . S
C51 C50 1.366 . S
C51 H65 0.930 . S
C52 C49 1.378 . S
C52 N53 1.315 . S
C52 H55 0.930 . S
N53 Co33 2.194 . S
N53 C48 1.328 . S
N53 C52 1.315 . S
H54 C48 0.929 . S
H55 C52 0.930 . S
H56 C44 0.929 . S
H57 C46 0.929 . S
O58 Co33 2.351 . S
O58 C61 1.244 . S
O59 Co33 2.155 . S
O59 C61 1.240 . S
O60 Co33 2.096 . S
O60 C41 1.247 . S
C61 O58 1.244 . S
C61 O59 1.240 . S
H62 C36 0.931 . S
H63 C45 0.931 . S
H64 C49 0.929 . S
H65 C51 0.930 . S
Co66 N70 2.148 . S
Co66 N76 2.128 . S
Co66 N86 2.194 1_554 S
Co66 O91 2.351 . S
Co66 O92 2.155 . S
Co66 O93 2.096 . S
C67 N70 1.301 . S
C67 N71 1.328 . S
C67 H72 0.930 . S
C68 C69 1.333 . S
C68 N70 1.317 . S
C68 H73 0.930 . S
C69 C68 1.333 . S
C69 N71 1.350 . S
C69 H95 0.931 . S
N70 Co66 2.148 . S
N70 C67 1.301 . S
N70 C68 1.317 . S
N71 C67 1.328 . S
N71 C69 1.350 . S
H72 C67 0.930 . S
H73 C68 0.930 . S
C74 O75 1.224 1_554 S
C74 O93 1.247 . S
O75 C74 1.224 1_556 S
N76 Co66 2.128 . S
N76 C77 1.355 . S
N76 C79 1.311 . S
C77 N76 1.355 . S
C77 C78 1.363 . S
C77 H89 0.929 . S
C78 C77 1.363 . S
C78 N80 1.375 . S
C78 H96 0.931 . S
C79 N76 1.311 . S
C79 N80 1.347 . S
C79 H90 0.929 . S
N80 C78 1.375 . S
N80 C79 1.347 . S
C81 C84 1.365 . S
C81 N86 1.328 . S
C81 H87 0.926 1_556 S
C82 C83 1.362 . S
C82 C85 1.378 . S
C82 H97 0.929 . S
C83 C82 1.362 . S
C83 C84 1.366 . S
C84 C81 1.365 . S
C84 C83 1.366 . S
C84 H98 0.930 . S
C85 C82 1.378 . S
C85 N86 1.315 . S
C85 H88 0.930 . S
N86 Co66 2.194 1_556 S
N86 C81 1.328 . S
N86 C85 1.315 . S
H87 C81 0.926 1_554 S
H88 C85 0.930 . S
H89 C77 0.929 . S
H90 C79 0.929 . S
O91 Co66 2.351 . S
O91 C94 1.244 . S
O92 Co66 2.155 . S
O92 C94 1.240 . S
O93 Co66 2.096 . S
O93 C74 1.247 . S
C94 O91 1.244 . S
C94 O92 1.240 . S
H95 C69 0.931 . S
H96 C78 0.931 . S
H97 C82 0.929 . S
H98 C84 0.930 . S
Co99 N103 2.148 . S
Co99 N109 2.128 . S
Co99 N119 2.194 . S
Co99 O124 2.351 . S
Co99 O125 2.155 . S
Co99 O126 2.096 . S
C100 N103 1.301 . S
C100 N104 1.328 . S
C100 H105 0.930 . S
C101 C102 1.333 . S
C101 N103 1.317 . S
C101 H106 0.930 . S
C102 C101 1.333 . S
C102 N104 1.350 . S
C102 H128 0.931 . S
N103 Co99 2.148 . S
N103 C100 1.301 . S
N103 C101 1.317 . S
N104 C100 1.328 . S
N104 C102 1.350 . S
H105 C100 0.930 . S
H106 C101 0.930 . S
C107 O108 1.224 . S
C107 O126 1.247 . S
O108 C107 1.224 . S
N109 Co99 2.128 . S
N109 C110 1.355 . S
N109 C112 1.311 . S
C110 N109 1.355 . S
C110 C111 1.363 . S
C110 H122 0.929 . S
C111 C110 1.363 . S
C111 N113 1.375 . S
C111 H129 0.931 . S
C112 N109 1.311 . S
C112 N113 1.347 . S
C112 H123 0.929 . S
N113 C111 1.375 . S
N113 C112 1.347 . S
C114 C117 1.365 . S
C114 N119 1.328 . S
C114 H120 0.929 . S
C115 C116 1.362 . S
C115 C118 1.378 . S
C115 H130 0.929 . S
C116 C115 1.362 . S
C116 C117 1.366 . S
C117 C114 1.365 . S
C117 C116 1.366 . S
C117 H131 0.930 . S
C118 C115 1.378 . S
C118 N119 1.315 . S
C118 H121 0.930 . S
N119 Co99 2.194 . S
N119 C114 1.328 . S
N119 C118 1.315 . S
H120 C114 0.929 . S
H121 C118 0.930 . S
H122 C110 0.929 . S
H123 C112 0.929 . S
O124 Co99 2.351 . S
O124 C127 1.244 . S
O125 Co99 2.155 . S
O125 C127 1.240 . S
O126 Co99 2.096 . S
O126 C107 1.247 . S
C127 O124 1.244 . S
C127 O125 1.240 . S
H128 C102 0.931 . S
H129 C111 0.931 . S
H130 C115 0.929 . S
H131 C117 0.930 . S
Co132 N136 2.148 . S
Co132 N142 2.128 . S
Co132 N152 2.194 1_556 S
Co132 O157 2.351 . S
Co132 O158 2.155 . S
Co132 O159 2.096 . S
C133 N136 1.301 . S
C133 N137 1.328 . S
C133 H138 0.930 . S
C134 C135 1.333 . S
C134 N136 1.317 . S
C134 H139 0.930 . S
C135 C134 1.333 . S
C135 N137 1.350 . S
C135 H161 0.931 . S
N136 Co132 2.148 . S
N136 C133 1.301 . S
N136 C134 1.317 . S
N137 C133 1.328 . S
N137 C135 1.350 . S
H138 C133 0.930 . S
H139 C134 0.930 . S
C140 O141 1.224 . S
C140 O159 1.247 1_554 S
O141 C140 1.224 . S
N142 Co132 2.128 . S
N142 C143 1.355 1_556 S
N142 C145 1.311 1_545 S
C143 N142 1.355 1_554 S
C143 C144 1.363 1_545 S
C143 H155 0.929 . S
C144 C143 1.363 1_565 S
C144 N146 1.370 1_554 S
C144 H162 0.931 . S
C145 N142 1.311 1_565 S
C145 N146 1.352 . S
C145 H156 0.929 . S
N146 C144 1.370 1_556 S
N146 C145 1.352 . S
C147 C150 1.365 . S
C147 N152 1.328 . S
C147 H153 0.929 . S
C148 C149 1.362 . S
C148 C151 1.378 . S
C148 H163 0.929 . S
C149 C148 1.362 . S
C149 C150 1.366 . S
C150 C147 1.365 . S
C150 C149 1.366 . S
C150 H164 0.930 . S
C151 C148 1.378 . S
C151 N152 1.315 . S
C151 H154 0.930 . S
N152 Co132 2.194 1_554 S
N152 C147 1.328 . S
N152 C151 1.315 . S
H153 C147 0.929 . S
H154 C151 0.930 . S
H155 C143 0.929 . S
H156 C145 0.929 . S
O157 Co132 2.351 . S
O157 C160 1.244 . S
O158 Co132 2.155 . S
O158 C160 1.240 . S
O159 Co132 2.096 . S
O159 C140 1.247 1_556 S
C160 O157 1.244 . S
C160 O158 1.240 . S
H161 C135 0.931 . S
H162 C144 0.931 . S
H163 C148 0.929 . S
H164 C150 0.930 . S
Co165 N169 2.148 . S
Co165 N175 2.128 . S
Co165 N185 2.194 . S
Co165 O190 2.351 . S
Co165 O191 2.155 . S
Co165 O192 2.096 . S
C166 N169 1.301 . S
C166 N170 1.328 . S
C166 H171 0.930 . S
C167 C168 1.333 . S
C167 N169 1.317 . S
C167 H172 0.930 . S
C168 C167 1.333 . S
C168 N170 1.350 . S
C168 H194 0.931 . S
N169 Co165 2.148 . S
N169 C166 1.301 . S
N169 C167 1.317 . S
N170 C166 1.328 . S
N170 C168 1.350 . S
H171 C166 0.930 . S
H172 C167 0.930 . S
C173 O174 1.224 . S
C173 O192 1.247 . S
O174 C173 1.224 . S
N175 Co165 2.128 . S
N175 C176 1.355 . S
N175 C178 1.311 1_655 S
C176 N175 1.355 . S
C176 C177 1.363 1_655 S
C176 H188 0.929 . S
C177 C176 1.363 1_455 S
C177 N179 1.375 . S
C177 H195 0.931 . S
C178 N175 1.311 1_455 S
C178 N179 1.347 . S
C178 H189 0.929 . S
N179 C177 1.375 . S
N179 C178 1.347 . S
C180 C183 1.365 . S
C180 N185 1.328 . S
C180 H186 0.929 . S
C181 C182 1.362 . S
C181 C184 1.378 . S
C181 H196 0.929 . S
C182 C181 1.362 . S
C182 C183 1.366 . S
C183 C180 1.365 . S
C183 C182 1.366 . S
C183 H197 0.930 . S
C184 C181 1.378 . S
C184 N185 1.315 . S
C184 H187 0.930 . S
N185 Co165 2.194 . S
N185 C180 1.328 . S
N185 C184 1.315 . S
H186 C180 0.929 . S
H187 C184 0.930 . S
H188 C176 0.929 . S
H189 C178 0.929 . S
O190 Co165 2.351 . S
O190 C193 1.244 . S
O191 Co165 2.155 . S
O191 C193 1.240 . S
O192 Co165 2.096 . S
O192 C173 1.247 . S
C193 O190 1.244 . S
C193 O191 1.240 . S
H194 C168 0.931 . S
H195 C177 0.931 . S
H196 C181 0.929 . S
H197 C183 0.930 . S
Co198 N202 2.148 . S
Co198 N208 2.128 . S
Co198 N218 2.194 1_556 S
Co198 O223 2.351 . S
Co198 O224 2.155 . S
Co198 O225 2.096 . S
C199 N202 1.301 . S
C199 N203 1.328 . S
C199 H204 0.930 . S
C200 C201 1.333 . S
C200 N202 1.317 . S
C200 H205 0.930 . S
C201 C200 1.333 . S
C201 N203 1.350 . S
C201 H227 0.931 . S
N202 Co198 2.148 . S
N202 C199 1.301 . S
N202 C200 1.317 . S
N203 C199 1.328 . S
N203 C201 1.350 . S
H204 C199 0.930 . S
H205 C200 0.930 . S
C206 O207 1.224 . S
C206 O225 1.247 1_554 S
O207 C206 1.224 . S
N208 Co198 2.128 . S
N208 C209 1.355 1_556 S
N208 C211 1.311 1_565 S
C209 N208 1.355 1_554 S
C209 C210 1.363 1_565 S
C209 H221 0.929 . S
C210 C209 1.363 1_545 S
C210 N212 1.370 1_554 S
C210 H228 0.931 . S
C211 N208 1.311 1_545 S
C211 N212 1.352 . S
C211 H222 0.929 . S
N212 C210 1.370 1_556 S
N212 C211 1.352 . S
C213 C216 1.365 . S
C213 N218 1.328 . S
C213 H219 0.929 . S
C214 C215 1.362 . S
C214 C217 1.378 . S
C214 H229 0.929 . S
C215 C214 1.362 . S
C215 C216 1.366 . S
C216 C213 1.365 . S
C216 C215 1.366 . S
C216 H230 0.930 . S
C217 C214 1.378 . S
C217 N218 1.315 . S
C217 H220 0.930 . S
N218 Co198 2.194 1_554 S
N218 C213 1.328 . S
N218 C217 1.315 . S
H219 C213 0.929 . S
H220 C217 0.930 . S
H221 C209 0.929 . S
H222 C211 0.929 . S
O223 Co198 2.351 . S
O223 C226 1.244 . S
O224 Co198 2.155 . S
O224 C226 1.240 . S
O225 Co198 2.096 . S
O225 C206 1.247 1_556 S
C226 O223 1.244 . S
C226 O224 1.240 . S
H227 C201 0.931 . S
H228 C210 0.931 . S
H229 C214 0.929 . S
H230 C216 0.930 . S
Co231 N235 2.148 . S
Co231 N241 2.128 . S
Co231 N251 2.194 . S
Co231 O256 2.351 . S
Co231 O257 2.155 . S
Co231 O258 2.096 . S
C232 N235 1.301 . S
C232 N236 1.328 . S
C232 H237 0.930 . S
C233 C234 1.333 . S
C233 N235 1.317 . S
C233 H238 0.930 . S
C234 C233 1.333 . S
C234 N236 1.350 . S
C234 H260 0.931 . S
N235 Co231 2.148 . S
N235 C232 1.301 . S
N235 C233 1.317 . S
N236 C232 1.328 . S
N236 C234 1.350 . S
H237 C232 0.930 . S
H238 C233 0.930 . S
C239 O240 1.224 . S
C239 O258 1.247 . S
O240 C239 1.224 . S
N241 Co231 2.128 . S
N241 C242 1.355 . S
N241 C244 1.311 1_455 S
C242 N241 1.355 . S
C242 C243 1.363 1_455 S
C242 H254 0.929 . S
C243 C242 1.363 1_655 S
C243 N245 1.375 . S
C243 H261 0.931 . S
C244 N241 1.311 1_655 S
C244 N245 1.347 . S
C244 H255 0.929 . S
N245 C243 1.375 . S
N245 C244 1.347 . S
C246 C249 1.365 . S
C246 N251 1.328 . S
C246 H252 0.929 . S
C247 C248 1.362 . S
C247 C250 1.378 . S
C247 H262 0.929 . S
C248 C247 1.362 . S
C248 C249 1.366 . S
C249 C246 1.365 . S
C249 C248 1.366 . S
C249 H263 0.930 . S
C250 C247 1.378 . S
C250 N251 1.315 . S
C250 H253 0.930 . S
N251 Co231 2.194 . S
N251 C246 1.328 . S
N251 C250 1.315 . S
H252 C246 0.929 . S
H253 C250 0.930 . S
H254 C242 0.929 . S
H255 C244 0.929 . S
O256 Co231 2.351 . S
O256 C259 1.244 . S
O257 Co231 2.155 . S
O257 C259 1.240 . S
O258 Co231 2.096 . S
O258 C239 1.247 . S
C259 O256 1.244 . S
C259 O257 1.240 . S
H260 C234 0.931 . S
H261 C243 0.931 . S
H262 C247 0.929 . S
H263 C249 0.930 . S
H264 C270 0.930 . S
H265 C274 0.930 . S
H266 C279 0.929 . S
H267 C277 0.929 . S
H268 C272 0.929 . S
H269 C278 0.929 . S
C270 H264 0.930 . S
C270 C271 1.372 . S
C270 C278 1.378 . S
C271 C270 1.372 . S
C271 C279 1.426 1_556 S
C272 H268 0.929 . S
C272 C274 1.378 . S
C272 C276 1.350 . S
C273 C276 1.463 . S
C273 C278 1.350 1_554 S
C273 N281 1.427 . S
C274 H265 0.930 . S
C274 C272 1.378 . S
C274 C275 1.367 . S
C275 C274 1.367 . S
C275 C277 1.433 . S
C276 C272 1.350 . S
C276 C273 1.463 . S
C276 N280 1.427 . S
C277 H267 0.929 . S
C277 C275 1.433 . S
C277 N280 1.384 . S
C278 H269 0.929 . S
C278 C270 1.378 . S
C278 C273 1.350 1_556 S
C279 H266 0.929 . S
C279 C271 1.426 1_554 S
C279 N281 1.384 . S
N280 C276 1.427 . S
N280 C277 1.384 . S
N281 C273 1.427 . S
N281 C279 1.384 . S
H282 C288 0.930 . S
H283 C292 0.930 . S
H284 C297 0.929 . S
H285 C295 0.929 . S
H286 C290 0.929 . S
H287 C296 0.929 . S
C288 H282 0.930 . S
C288 C289 1.367 . S
C288 C296 1.378 . S
C289 C288 1.367 . S
C289 C297 1.433 . S
C290 H286 0.929 . S
C290 C292 1.378 . S
C290 C294 1.350 . S
C291 C294 1.463 . S
C291 C296 1.350 . S
C291 N299 1.427 . S
C292 H283 0.930 . S
C292 C290 1.378 . S
C292 C293 1.367 . S
C293 C292 1.367 . S
C293 C295 1.433 . S
C294 C290 1.350 . S
C294 C291 1.463 . S
C294 N298 1.427 . S
C295 H285 0.929 . S
C295 C293 1.433 . S
C295 N298 1.384 . S
C296 H287 0.929 . S
C296 C288 1.378 . S
C296 C291 1.350 . S
C297 H284 0.929 . S
C297 C289 1.433 . S
C297 N299 1.384 . S
N298 C294 1.427 . S
N298 C295 1.384 . S
N299 C291 1.427 . S
N299 C297 1.384 . S
H300 C306 0.930 . S
H301 C310 0.930 . S
H302 C315 0.929 . S
H303 C313 0.929 1_556 S
H304 C308 0.929 . S
H305 C314 0.929 . S
C306 H300 0.930 . S
C306 C307 1.377 . S
C306 C314 1.378 . S
C307 C306 1.377 . S
C307 C315 1.420 1_556 S
C308 H304 0.929 . S
C308 C310 1.378 . S
C308 C312 1.350 . S
C309 C312 1.463 . S
C309 C314 1.350 1_554 S
C309 N317 1.427 . S
C310 H301 0.930 . S
C310 C308 1.378 . S
C310 C311 1.367 . S
C311 C310 1.367 . S
C311 C313 1.433 . S
C312 C308 1.350 . S
C312 C309 1.463 . S
C312 N316 1.427 . S
C313 H303 0.929 1_554 S
C313 C311 1.433 . S
C313 N316 1.384 . S
C314 H305 0.929 . S
C314 C306 1.378 . S
C314 C309 1.350 1_556 S
C315 H302 0.929 . S
C315 C307 1.420 1_554 S
C315 N317 1.384 . S
N316 C312 1.427 . S
N316 C313 1.384 . S
N317 C309 1.427 . S
N317 C315 1.384 . S
H318 C324 0.930 . S
H319 C328 0.930 . S
H320 C333 0.929 . S
H321 C331 0.929 . S
H322 C326 0.929 . S
H323 C332 0.929 . S
C324 H318 0.930 . S
C324 C325 1.367 . S
C324 C332 1.378 . S
C325 C324 1.367 . S
C325 C333 1.433 . S
C326 H322 0.929 . S
C326 C328 1.378 . S
C326 C330 1.350 . S
C327 C330 1.463 . S
C327 C332 1.350 . S
C327 N335 1.427 . S
C328 H319 0.930 . S
C328 C326 1.378 . S
C328 C329 1.367 . S
C329 C328 1.367 . S
C329 C331 1.433 . S
C330 C326 1.350 . S
C330 C327 1.463 . S
C330 N334 1.427 . S
C331 H321 0.929 . S
C331 C329 1.433 . S
C331 N334 1.384 . S
C332 H323 0.929 . S
C332 C324 1.378 . S
C332 C327 1.350 . S
C333 H320 0.929 . S
C333 C325 1.433 . S
C333 N335 1.384 . S
N334 C330 1.427 . S
N334 C331 1.384 . S
N335 C327 1.427 . S
N335 C333 1.384 . S
H336 C342 0.930 . S
H337 C346 0.930 . S
H338 C351 0.929 . S
H339 C349 0.929 . S
H340 C344 0.929 . S
H341 C350 0.929 . S
C342 H336 0.930 . S
C342 C343 1.367 . S
C342 C350 1.378 . S
C343 C342 1.367 . S
C343 C351 1.433 1_554 S
C344 H340 0.929 . S
C344 C346 1.378 . S
C344 C348 1.350 1_556 S
C345 C348 1.463 . S
C345 C350 1.350 . S
C345 N353 1.427 1_554 S
C346 H337 0.930 . S
C346 C344 1.378 . S
C346 C347 1.367 . S
C347 C346 1.367 . S
C347 C349 1.433 1_556 S
C348 C344 1.350 1_554 S
C348 C345 1.463 . S
C348 N352 1.427 . S
C349 H339 0.929 . S
C349 C347 1.433 1_554 S
C349 N352 1.384 . S
C350 H341 0.929 . S
C350 C342 1.378 . S
C350 C345 1.350 . S
C351 H338 0.929 . S
C351 C343 1.433 1_556 S
C351 N353 1.384 . S
N352 C348 1.427 . S
N352 C349 1.384 . S
N353 C345 1.427 1_556 S
N353 C351 1.384 . S
H354 C360 0.930 . S
H355 C364 0.930 . S
H356 C369 0.929 . S
H357 C367 0.929 . S
H358 C362 0.929 . S
H359 C368 0.929 . S
C360 H354 0.930 . S
C360 C361 1.367 . S
C360 C368 1.378 . S
C361 C360 1.367 . S
C361 C369 1.433 . S
C362 H358 0.929 . S
C362 C364 1.378 . S
C362 C366 1.350 . S
C363 C366 1.463 . S
C363 C368 1.350 . S
C363 N371 1.427 . S
C364 H355 0.930 . S
C364 C362 1.378 . S
C364 C365 1.367 . S
C365 C364 1.367 . S
C365 C367 1.433 . S
C366 C362 1.350 . S
C366 C363 1.463 . S
C366 N370 1.427 . S
C367 H357 0.929 . S
C367 C365 1.433 . S
C367 N370 1.384 . S
C368 H359 0.929 . S
C368 C360 1.378 . S
C368 C363 1.350 . S
C369 H356 0.929 . S
C369 C361 1.433 . S
C369 N371 1.384 . S
N370 C366 1.427 . S
N370 C367 1.384 . S
N371 C363 1.427 . S
N371 C369 1.384 . S
H372 C378 0.930 . S
H373 C382 0.930 . S
H374 C387 0.925 1_556 S
H375 C385 0.929 . S
H376 C380 0.929 . S
H377 C386 0.929 . S
C378 H372 0.930 . S
C378 C379 1.367 . S
C378 C386 1.378 . S
C379 C378 1.367 . S
C379 C387 1.439 . S
C380 H376 0.929 . S
C380 C382 1.378 . S
C380 C384 1.350 1_556 S
C381 C384 1.463 . S
C381 C386 1.350 . S
C381 N389 1.427 1_554 S
C382 H373 0.930 . S
C382 C380 1.378 . S
C382 C383 1.367 . S
C383 C382 1.367 . S
C383 C385 1.433 1_556 S
C384 C380 1.350 1_554 S
C384 C381 1.463 . S
C384 N388 1.427 . S
C385 H375 0.929 . S
C385 C383 1.433 1_554 S
C385 N388 1.384 . S
C386 H377 0.929 . S
C386 C378 1.378 . S
C386 C381 1.350 . S
C387 H374 0.925 1_554 S
C387 C379 1.439 . S
C387 N389 1.382 1_554 S
N388 C384 1.427 . S
N388 C385 1.384 . S
N389 C381 1.427 1_556 S
N389 C387 1.382 1_556 S
H390 C396 0.930 . S
H391 C400 0.930 . S
H392 C405 0.929 . S
H393 C403 0.929 . S
H394 C398 0.929 . S
H395 C404 0.929 . S
C396 H390 0.930 . S
C396 C397 1.367 . S
C396 C404 1.378 . S
C397 C396 1.367 . S
C397 C405 1.433 . S
C398 H394 0.929 . S
C398 C400 1.378 . S
C398 C402 1.350 . S
C399 C402 1.463 . S
C399 C404 1.350 . S
C399 N407 1.427 . S
C400 H391 0.930 . S
C400 C398 1.378 . S
C400 C401 1.367 . S
C401 C400 1.367 . S
C401 C403 1.433 . S
C402 C398 1.350 . S
C402 C399 1.463 . S
C402 N406 1.427 . S
C403 H393 0.929 . S
C403 C401 1.433 . S
C403 N406 1.384 . S
C404 H395 0.929 . S
C404 C396 1.378 . S
C404 C399 1.350 . S
C405 H392 0.929 . S
C405 C397 1.433 . S
C405 N407 1.384 . S
N406 C402 1.427 . S
N406 C403 1.384 . S
N407 C399 1.427 . S
N407 C405 1.384 . S
H408 C414 0.930 1_556 S
H409 C418 0.930 . S
H410 C423 0.929 . S
H411 C421 0.929 1_556 S
H412 C416 0.929 . S
H413 C422 0.929 1_556 S
C414 H408 0.930 1_554 S
C414 C415 1.367 . S
C414 C422 1.378 . S
C415 C414 1.367 . S
C415 C423 1.433 . S
C416 H412 0.929 . S
C416 C418 1.378 . S
C416 C420 1.350 . S
C417 C420 1.463 . S
C417 C422 1.350 . S
C417 N425 1.427 . S
C418 H409 0.930 . S
C418 C416 1.378 . S
C418 C419 1.367 . S
C419 C418 1.367 . S
C419 C421 1.433 . S
C420 C416 1.350 . S
C420 C417 1.463 . S
C420 N424 1.427 . S
C421 H411 0.929 1_554 S
C421 C419 1.433 . S
C421 N424 1.384 . S
C422 H413 0.929 1_554 S
C422 C414 1.378 . S
C422 C417 1.350 . S
C423 H410 0.929 . S
C423 C415 1.433 . S
C423 N425 1.384 . S
N424 C420 1.427 . S
N424 C421 1.384 . S
N425 C417 1.427 . S
N425 C423 1.384 . S
H426 C432 0.930 . S
H427 C436 0.930 . S
H428 C441 0.929 . S
H429 C439 0.929 . S
H430 C434 0.929 . S
H431 C440 0.929 . S
C432 H426 0.930 . S
C432 C433 1.367 . S
C432 C440 1.378 . S
C433 C432 1.367 . S
C433 C441 1.433 . S
C434 H430 0.929 . S
C434 C436 1.378 . S
C434 C438 1.350 . S
C435 C438 1.463 . S
C435 C440 1.350 . S
C435 N443 1.427 . S
C436 H427 0.930 . S
C436 C434 1.378 . S
C436 C437 1.367 . S
C437 C436 1.367 . S
C437 C439 1.433 . S
C438 C434 1.350 . S
C438 C435 1.463 . S
C438 N442 1.427 . S
C439 H429 0.929 . S
C439 C437 1.433 . S
C439 N442 1.384 . S
C440 H431 0.929 . S
C440 C432 1.378 . S
C440 C435 1.350 . S
C441 H428 0.929 . S
C441 C433 1.433 . S
C441 N443 1.384 . S
N442 C438 1.427 . S
N442 C439 1.384 . S
N443 C435 1.427 . S
N443 C441 1.384 . S
H444 C450 0.930 . S
H445 C454 0.930 . S
H446 C459 0.929 1_545 S
H447 C457 0.929 1_565 S
H448 C452 0.929 . S
H449 C458 0.929 . S
C450 H444 0.930 . S
C450 C451 1.367 1_556 S
C450 C458 1.378 . S
C451 C450 1.367 1_554 S
C451 C459 1.433 . S
C452 H448 0.929 . S
C452 C454 1.378 . S
C452 C456 1.350 . S
C453 C456 1.463 1_465 S
C453 C458 1.350 1_554 S
C453 N461 1.427 1_565 S
C454 H445 0.930 . S
C454 C452 1.378 . S
C454 C455 1.367 . S
C455 C454 1.367 . S
C455 C457 1.433 1_554 S
C456 C452 1.350 . S
C456 C453 1.463 1_645 S
C456 N460 1.427 1_544 S
C457 H447 0.929 1_545 S
C457 C455 1.433 1_556 S
C457 N460 1.384 1_545 S
C458 H449 0.929 . S
C458 C450 1.378 . S
C458 C453 1.350 1_556 S
C459 H446 0.929 1_565 S
C459 C451 1.433 . S
C459 N461 1.384 1_565 S
N460 C456 1.427 1_566 S
N460 C457 1.384 1_565 S
N461 C453 1.427 1_545 S
N461 C459 1.384 1_545 S
H462 C468 0.930 1_455 S
H463 C472 0.930 1_655 S
H464 C477 0.929 . S
H465 C475 0.929 . S
H466 C470 0.929 . S
H467 C476 0.929 . S
C468 H462 0.930 1_655 S
C468 C469 1.367 . S
C468 C476 1.378 1_655 S
C469 C468 1.367 . S
C469 C477 1.433 . S
C470 H466 0.929 . S
C470 C472 1.378 1_655 S
C470 C474 1.350 1_655 S
C471 C474 1.463 1_665 S
C471 C476 1.350 1_655 S
C471 N479 1.427 . S
C472 H463 0.930 1_455 S
C472 C470 1.378 1_455 S
C472 C473 1.367 . S
C473 C472 1.367 . S
C473 C475 1.433 . S
C474 C470 1.350 1_455 S
C474 C471 1.463 1_445 S
C474 N478 1.427 . S
C475 H465 0.929 . S
C475 C473 1.433 . S
C475 N478 1.384 . S
C476 H467 0.929 . S
C476 C468 1.378 1_455 S
C476 C471 1.350 1_455 S
C477 H464 0.929 . S
C477 C469 1.433 . S
C477 N479 1.384 . S
N478 C474 1.427 . S
N478 C475 1.384 . S
N479 C471 1.427 . S
N479 C477 1.384 . S
H480 C486 0.930 . S
H481 C490 0.930 . S
H482 C495 0.929 . S
H483 C493 0.929 . S
H484 C488 0.929 . S
H485 C494 0.929 . S
C486 H480 0.930 . S
C486 C487 1.367 . S
C486 C494 1.378 . S
C487 C486 1.367 . S
C487 C495 1.433 . S
C488 H484 0.929 . S
C488 C490 1.378 . S
C488 C492 1.350 . S
C489 C492 1.463 . S
C489 C494 1.350 . S
C489 N497 1.427 . S
C490 H481 0.930 . S
C490 C488 1.378 . S
C490 C491 1.367 . S
C491 C490 1.367 . S
C491 C493 1.433 . S
C492 C488 1.350 . S
C492 C489 1.463 . S
C492 N496 1.427 . S
C493 H483 0.929 . S
C493 C491 1.433 . S
C493 N496 1.384 . S
C494 H485 0.929 . S
C494 C486 1.378 . S
C494 C489 1.350 . S
C495 H482 0.929 . S
C495 C487 1.433 . S
C495 N497 1.384 . S
N496 C492 1.427 . S
N496 C493 1.384 . S
N497 C489 1.427 . S
N497 C495 1.384 . S
H498 C504 0.930 . S
H499 C508 0.930 . S
H500 C513 0.929 . S
H501 C511 0.929 . S
H502 C506 0.929 . S
H503 C512 0.929 . S
C504 H498 0.930 . S
C504 C505 1.367 . S
C504 C512 1.378 . S
C505 C504 1.367 . S
C505 C513 1.433 . S
C506 H502 0.929 . S
C506 C508 1.378 . S
C506 C510 1.350 . S
C507 C510 1.463 . S
C507 C512 1.350 . S
C507 N515 1.427 . S
C508 H499 0.930 . S
C508 C506 1.378 . S
C508 C509 1.367 . S
C509 C508 1.367 . S
C509 C511 1.433 . S
C510 C506 1.350 . S
C510 C507 1.463 . S
C510 N514 1.427 . S
C511 H501 0.929 . S
C511 C509 1.433 . S
C511 N514 1.384 . S
C512 H503 0.929 . S
C512 C504 1.378 . S
C512 C507 1.350 . S
C513 H500 0.929 . S
C513 C505 1.433 . S
C513 N515 1.384 . S
N514 C510 1.427 . S
N514 C511 1.384 . S
N515 C507 1.427 . S
N515 C513 1.384 . S
H516 C522 0.930 . S
H517 C526 0.930 . S
H518 C531 0.929 . S
H519 C529 0.929 . S
H520 C524 0.929 . S
H521 C530 0.929 . S
C522 H516 0.930 . S
C522 C523 1.367 . S
C522 C530 1.378 . S
C523 C522 1.367 . S
C523 C531 1.433 . S
C524 H520 0.929 . S
C524 C526 1.378 . S
C524 C528 1.350 . S
C525 C528 1.463 . S
C525 C530 1.350 . S
C525 N533 1.427 . S
C526 H517 0.930 . S
C526 C524 1.378 . S
C526 C527 1.367 . S
C527 C526 1.367 . S
C527 C529 1.433 . S
C528 C524 1.350 . S
C528 C525 1.463 . S
C528 N532 1.427 . S
C529 H519 0.929 . S
C529 C527 1.433 . S
C529 N532 1.384 . S
C530 H521 0.929 . S
C530 C522 1.378 . S
C530 C525 1.350 . S
C531 H518 0.929 . S
C531 C523 1.433 . S
C531 N533 1.384 . S
N532 C528 1.427 . S
N532 C529 1.384 . S
N533 C525 1.427 . S
N533 C531 1.384 . S
H534 C540 0.930 . S
H535 C544 0.930 . S
H536 C549 0.929 . S
H537 C547 0.929 . S
H538 C542 0.929 . S
H539 C548 0.929 . S
C540 H534 0.930 . S
C540 C541 1.367 . S
C540 C548 1.378 . S
C541 C540 1.367 . S
C541 C549 1.433 . S
C542 H538 0.929 . S
C542 C544 1.378 . S
C542 C546 1.350 . S
C543 C546 1.463 . S
C543 C548 1.350 . S
C543 N551 1.427 . S
C544 H535 0.930 . S
C544 C542 1.378 . S
C544 C545 1.367 . S
C545 C544 1.367 . S
C545 C547 1.433 . S
C546 C542 1.350 . S
C546 C543 1.463 . S
C546 N550 1.427 . S
C547 H537 0.929 . S
C547 C545 1.433 . S
C547 N550 1.384 . S
C548 H539 0.929 . S
C548 C540 1.378 . S
C548 C543 1.350 . S
C549 H536 0.929 . S
C549 C541 1.433 . S
C549 N551 1.384 . S
N550 C546 1.427 . S
N550 C547 1.384 . S
N551 C543 1.427 . S
N551 C549 1.384 . S
H552 C558 0.930 . S
H553 C562 0.930 . S
H554 C567 0.929 . S
H555 C565 0.929 . S
H556 C560 0.929 . S
H557 C566 0.929 . S
C558 H552 0.930 . S
C558 C559 1.367 . S
C558 C566 1.378 . S
C559 C558 1.367 . S
C559 C567 1.433 . S
C560 H556 0.929 . S
C560 C562 1.378 . S
C560 C564 1.350 . S
C561 C564 1.463 . S
C561 C566 1.350 . S
C561 N569 1.427 . S
C562 H553 0.930 . S
C562 C560 1.378 . S
C562 C563 1.367 . S
C563 C562 1.367 . S
C563 C565 1.433 . S
C564 C560 1.350 . S
C564 C561 1.463 . S
C564 N568 1.427 . S
C565 H555 0.929 . S
C565 C563 1.433 . S
C565 N568 1.384 . S
C566 H557 0.929 . S
C566 C558 1.378 . S
C566 C561 1.350 . S
C567 H554 0.929 . S
C567 C559 1.433 . S
C567 N569 1.384 . S
N568 C564 1.427 . S
N568 C565 1.384 . S
N569 C561 1.427 . S
N569 C567 1.384 . S
H570 C576 0.930 . S
H571 C580 0.930 . S
H572 C585 0.929 . S
H573 C583 0.929 . S
H574 C578 0.929 . S
H575 C584 0.929 . S
C576 H570 0.930 . S
C576 C577 1.367 . S
C576 C584 1.378 . S
C577 C576 1.367 . S
C577 C585 1.433 . S
C578 H574 0.929 . S
C578 C580 1.378 . S
C578 C582 1.350 . S
C579 C582 1.463 . S
C579 C584 1.350 . S
C579 N587 1.427 . S
C580 H571 0.930 . S
C580 C578 1.378 . S
C580 C581 1.367 . S
C581 C580 1.367 . S
C581 C583 1.433 . S
C582 C578 1.350 . S
C582 C579 1.463 . S
C582 N586 1.427 . S
C583 H573 0.929 . S
C583 C581 1.433 . S
C583 N586 1.384 . S
C584 H575 0.929 . S
C584 C576 1.378 . S
C584 C579 1.350 . S
C585 H572 0.929 . S
C585 C577 1.433 . S
C585 N587 1.384 . S
N586 C582 1.427 . S
N586 C583 1.384 . S
N587 C579 1.427 . S
N587 C585 1.384 . S
H588 C594 0.930 . S
H589 C598 0.930 . S
H590 C603 0.929 . S
H591 C601 0.929 . S
H592 C596 0.929 . S
H593 C602 0.929 . S
C594 H588 0.930 . S
C594 C595 1.367 . S
C594 C602 1.378 . S
C595 C594 1.367 . S
C595 C603 1.433 . S
C596 H592 0.929 . S
C596 C598 1.378 . S
C596 C600 1.350 . S
C597 C600 1.463 . S
C597 C602 1.350 . S
C597 N605 1.427 . S
C598 H589 0.930 . S
C598 C596 1.378 . S
C598 C599 1.367 . S
C599 C598 1.367 . S
C599 C601 1.433 . S
C600 C596 1.350 . S
C600 C597 1.463 . S
C600 N604 1.427 . S
C601 H591 0.929 . S
C601 C599 1.433 . S
C601 N604 1.384 . S
C602 H593 0.929 . S
C602 C594 1.378 . S
C602 C597 1.350 . S
C603 H590 0.929 . S
C603 C595 1.433 . S
C603 N605 1.384 . S
N604 C600 1.427 . S
N604 C601 1.384 . S
N605 C597 1.427 . S
N605 C603 1.384 . S
H606 C612 0.930 . S
H607 C616 0.930 . S
H608 C621 0.929 . S
H609 C619 0.929 . S
H610 C614 0.929 . S
H611 C620 0.929 . S
C612 H606 0.930 . S
C612 C613 1.367 . S
C612 C620 1.378 . S
C613 C612 1.367 . S
C613 C621 1.433 . S
C614 H610 0.929 . S
C614 C616 1.378 . S
C614 C618 1.350 . S
C615 C618 1.463 . S
C615 C620 1.350 . S
C615 N623 1.427 . S
C616 H607 0.930 . S
C616 C614 1.378 . S
C616 C617 1.367 . S
C617 C616 1.367 . S
C617 C619 1.433 . S
C618 C614 1.350 . S
C618 C615 1.463 . S
C618 N622 1.427 . S
C619 H609 0.929 . S
C619 C617 1.433 . S
C619 N622 1.384 . S
C620 H611 0.929 . S
C620 C612 1.378 . S
C620 C615 1.350 . S
C621 H608 0.929 . S
C621 C613 1.433 . S
C621 N623 1.384 . S
N622 C618 1.427 . S
N622 C619 1.384 . S
N623 C615 1.427 . S
N623 C621 1.384 . S
C271 N212 0.799 . S
C275 N5 0.787 . S
C289 N245 0.778 . S
C293 N38 0.794 . S
C307 N146 0.798 . S
C311 N71 0.789 . S
C325 N179 0.781 . S
C329 N104 0.797 . S
C343 N80 0.786 . S
C347 N137 0.798 . S
C361 N113 0.779 . S
C365 N170 0.796 . S
C379 N14 0.799 . S
C383 N203 0.789 . S
C397 N236 0.786 . S
C401 N47 0.799 . S
C415 C74 2.537 . S
C419 C8 2.537 . S
C433 C41 2.538 . S
C437 C107 2.538 . S
C451 C206 2.538 . S
C455 C140 2.537 . S
C469 C173 2.537 . S
C473 C239 2.537 . S
C487 C28 1.964 . S
C491 C259 1.960 . S
C505 C160 1.965 . S
C509 C61 1.961 . S
C523 C193 1.965 . S
C527 C94 1.961 . S
C541 C226 1.961 . S
C545 C127 1.963 . S
C559 C83 1.114 . S
C563 C182 1.104 . S
C577 C116 1.107 . S
C581 C215 1.109 . S
C595 C248 1.106 . S
C599 C17 1.117 . S
C613 C149 1.104 . S
C617 C50 1.116 . S
