# Generated by pormake.
# Topology sod, (4)-cn, num edge types: 1
# Building blocks:
#     Node 0, Type 0, BuildingBlock: AZAVOO_clean_sbu_0, # of connection points: 4
#     Node 1, Type 0, BuildingBlock: AZAVOO_clean_sbu_0, # of connection points: 4
#     Node 2, Type 0, BuildingBlock: AZAVOO_clean_sbu_0, # of connection points: 4
#     Node 3, Type 0, BuildingBlock: AZAVOO_clean_sbu_0, # of connection points: 4
#     Node 4, Type 0, BuildingBlock: AZAVOO_clean_sbu_0, # of connection points: 4
#     Node 5, Type 0, BuildingBlock: AZAVOO_clean_sbu_0, # of connection points: 4
#     Node 6, Type 0, BuildingBlock: AZAVOO_clean_sbu_0, # of connection points: 4
#     Node 7, Type 0, BuildingBlock: AZAVOO_clean_sbu_0, # of connection points: 4
#     Node 8, Type 0, BuildingBlock: AZAVOO_clean_sbu_0, # of connection points: 4
#     Node 9, Type 0, BuildingBlock: AZAVOO_clean_sbu_0, # of connection points: 4
#     Node 10, Type 0, BuildingBlock: AZAVOO_clean_sbu_0, # of connection points: 4
#     Node 11, Type 0, BuildingBlock: AZAVOO_clean_sbu_0, # of connection points: 4
#     Edge 12, Type (0, 0), BuildingBlock: EYOCIG_clean_linker_4, # of connection points: 2
#     Edge 13, Type (0, 0), BuildingBlock: EYOCIG_clean_linker_4, # of connection points: 2
#     Edge 14, Type (0, 0), BuildingBlock: EYOCIG_clean_linker_4, # of connection points: 2
#     Edge 15, Type (0, 0), BuildingBlock: EYOCIG_clean_linker_4, # of connection points: 2
#     Edge 16, Type (0, 0), BuildingBlock: EYOCIG_clean_linker_4, # of connection points: 2
#     Edge 17, Type (0, 0), BuildingBlock: EYOCIG_clean_linker_4, # of connection points: 2
#     Edge 18, Type (0, 0), BuildingBlock: EYOCIG_clean_linker_4, # of connection points: 2
#     Edge 19, Type (0, 0), BuildingBlock: EYOCIG_clean_linker_4, # of connection points: 2
#     Edge 20, Type (0, 0), BuildingBlock: EYOCIG_clean_linker_4, # of connection points: 2
#     Edge 21, Type (0, 0), BuildingBlock: EYOCIG_clean_linker_4, # of connection points: 2
#     Edge 22, Type (0, 0), BuildingBlock: EYOCIG_clean_linker_4, # of connection points: 2
#     Edge 23, Type (0, 0), BuildingBlock: EYOCIG_clean_linker_4, # of connection points: 2
#     Edge 24, Type (0, 0), BuildingBlock: EYOCIG_clean_linker_4, # of connection points: 2
#     Edge 25, Type (0, 0), BuildingBlock: EYOCIG_clean_linker_4, # of connection points: 2
#     Edge 26, Type (0, 0), BuildingBlock: EYOCIG_clean_linker_4, # of connection points: 2
#     Edge 27, Type (0, 0), BuildingBlock: EYOCIG_clean_linker_4, # of connection points: 2
#     Edge 28, Type (0, 0), BuildingBlock: EYOCIG_clean_linker_4, # of connection points: 2
#     Edge 29, Type (0, 0), BuildingBlock: EYOCIG_clean_linker_4, # of connection points: 2
#     Edge 30, Type (0, 0), BuildingBlock: EYOCIG_clean_linker_4, # of connection points: 2
#     Edge 31, Type (0, 0), BuildingBlock: EYOCIG_clean_linker_4, # of connection points: 2
#     Edge 32, Type (0, 0), BuildingBlock: EYOCIG_clean_linker_4, # of connection points: 2
#     Edge 33, Type (0, 0), BuildingBlock: EYOCIG_clean_linker_4, # of connection points: 2
#     Edge 34, Type (0, 0), BuildingBlock: EYOCIG_clean_linker_4, # of connection points: 2
#     Edge 35, Type (0, 0), BuildingBlock: EYOCIG_clean_linker_4, # of connection points: 2
# Relax obj value: 0.126
# Max RMSD: 0.159
# Mean RMSD: 0.154
data_MOF--net-sod--node1-AZAVOO_clean_sbu_0--edge1-EYOCIG_clean_linker_4
_symmetry_space_group_name_H-M    P1
_symmetry_Int_Tables_number       1
_symmetry_cell_setting            triclinic
loop_
_symmetry_equiv_pos_as_xyz
'x, y, z'
_cell_length_a     34.11438
_cell_length_b     34.136994
_cell_length_c     34.550309
_cell_angle_alpha  89.86795
_cell_angle_beta   93.363958
_cell_angle_gamma 97.9082655
loop_
_atom_site_label
_atom_site_type_symbol
_atom_site_fract_x
_atom_site_fract_y
_atom_site_fract_z
_atom_type_partial_charge
Mg0 Mg 0.03831 0.28289 0.52608 0.0
O1 O -0.01755 0.23804 0.52359 0.0
O2 O 0.93053 0.27142 0.52267 0.0
Mg3 Mg 0.95373 0.33743 0.53012 0.0
C4 C 0.94534 0.23921 0.52142 0.0
C5 C 0.10358 0.23052 0.52991 0.0
O6 O 0.11741 0.25901 0.55449 0.0
O7 O 0.0254 0.29987 0.46275 0.0
O8 O 0.97768 0.33816 0.46917 0.0
O9 O 0.04223 0.28333 0.59118 0.0
O10 O 0.01165 0.32502 0.55551 0.0
C11 C 0.00182 0.32303 0.44874 0.0
C12 C 0.02216 0.31283 0.5893 0.0
O13 O 0.07137 0.2323 0.51016 0.0
Mg14 Mg 0.7513 0.00224 0.49333 0.0
O15 O 0.79674 0.05743 0.49348 0.0
O16 O 0.76432 0.10996 0.49148 0.0
Mg17 Mg 0.69763 0.0878 0.48455 0.0
C18 C 0.79631 0.09455 0.4937 0.0
C19 C 0.80332 0.93562 0.49722 0.0
O20 O 0.77329 0.91936 0.4746 0.0
O21 O 0.73698 0.01453 0.55548 0.0
O22 O 0.69927 0.06319 0.54637 0.0
O23 O 0.74663 -0.00093 0.42827 0.0
O24 O 0.70778 0.02951 0.46341 0.0
C25 C 0.71463 0.03825 0.56795 0.0
C26 C 0.71724 0.01915 0.42995 0.0
O27 O 0.80264 0.9694 0.51201 0.0
Mg28 Mg -0.00088 0.75985 0.52163 0.0
O29 O 0.05548 0.80331 0.52744 0.0
O30 O 0.1066 0.76881 0.53351 0.0
Mg31 Mg 0.08185 0.70303 0.53459 0.0
C32 C 0.0924 0.80139 0.53107 0.0
C33 C 0.93322 0.81057 0.51293 0.0
O34 O 0.9169 0.78015 0.53236 0.0
O35 O 0.01203 0.74507 0.45985 0.0
O36 O 0.05918 0.70598 0.47048 0.0
O37 O -0.00513 0.75939 0.58581 0.0
O38 O 0.0247 0.71688 0.55392 0.0
C39 C 0.03555 0.72248 0.44776 0.0
C40 C 0.01498 0.72993 0.58645 0.0
O41 O 0.96784 0.81099 0.50154 0.0
Mg42 Mg 0.28542 0.03883 0.52618 0.0
O43 O 0.24077 0.98318 0.52493 0.0
O44 O 0.27352 0.93102 0.52297 0.0
Mg45 Mg 0.33934 0.95392 0.51731 0.0
C46 C 0.24157 0.94614 0.5247 0.0
C47 C 0.23273 0.10447 0.52897 0.0
O48 O 0.26089 0.12063 0.5074 0.0
O49 O 0.30657 0.02731 0.58873 0.0
O50 O 0.34455 0.97996 0.57877 0.0
O51 O 0.28268 0.04198 0.46134 0.0
O52 O 0.3262 0.01185 0.49572 0.0
C53 C 0.33144 0.00458 0.60073 0.0
C54 C 0.3123 0.02201 0.46242 0.0
O55 O 0.23501 0.07092 0.54404 0.0
Mg56 Mg 0.48489 0.00976 0.25317 0.0
O57 O 0.54296 0.01464 0.29176 0.0
O58 O 0.59221 0.01494 0.2516 0.0
Mg59 Mg 0.56651 0.00611 0.18918 0.0
C60 C 0.57973 0.01729 0.28543 0.0
C61 C 0.41456 0.00748 0.30469 0.0
O62 O 0.39931 0.98591 0.27469 0.0
O63 O 0.5016 0.07461 0.23482 0.0
O64 O 0.54736 0.06785 0.19204 0.0
O65 O 0.47668 0.94312 0.25305 0.0
O66 O 0.509 0.97996 0.20947 0.0
C67 C 0.52562 0.08879 0.20958 0.0
C68 C 0.49643 0.94536 0.22214 0.0
O69 O 0.45022 0.0244 0.3048 0.0
Mg70 Mg 0.05384 0.51546 0.28178 0.0
O71 O -0.00547 0.51135 0.24546 0.0
O72 O 0.94672 0.50402 0.28786 0.0
Mg73 Mg 0.97454 0.50171 0.34923 0.0
C74 C 0.95809 0.50764 0.25341 0.0
C75 C 0.12415 0.52579 0.23304 0.0
O76 O 0.1359 0.50722 0.26398 0.0
O77 O 0.0468 0.57843 0.29887 0.0
O78 O 0.00098 0.56724 0.34301 0.0
O79 O 0.05285 0.45002 0.27984 0.0
O80 O 0.02677 0.48185 0.32549 0.0
C81 C 0.0251 0.59058 0.32383 0.0
C82 C 0.03334 0.44889 0.31085 0.0
O83 O 0.0896 0.53586 0.23058 0.0
Mg84 Mg 0.55352 0.01454 0.78157 0.0
O85 O 0.49432 0.01194 0.74538 0.0
O86 O 0.4464 0.0048 0.78764 0.0
Mg87 Mg 0.47418 0.00121 0.84894 0.0
C88 C 0.45789 0.00874 0.75326 0.0
C89 C 0.62365 0.02463 0.73252 0.0
O90 O 0.63546 0.00577 0.76325 0.0
O91 O 0.54769 0.07754 0.7996 0.0
O92 O 0.50167 0.06651 0.84355 0.0
O93 O 0.55131 0.94898 0.77872 0.0
O94 O 0.52604 0.98074 0.82496 0.0
C95 C 0.5262 0.08975 0.82471 0.0
C96 C 0.53199 0.94778 0.80986 0.0
O97 O 0.58925 0.03502 0.73041 0.0
Mg98 Mg -0.01504 0.50972 0.75315 0.0
O99 O 0.04291 0.51462 0.79178 0.0
O100 O 0.09228 0.51467 0.75181 0.0
Mg101 Mg 0.06662 0.50561 0.68937 0.0
C102 C 0.0797 0.51716 0.78558 0.0
C103 C 0.91536 0.50705 0.80555 0.0
O104 O 0.90014 0.48456 0.77617 0.0
O105 O 0.0017 0.57446 0.73444 0.0
O106 O 0.04749 0.5674 0.69179 0.0
O107 O 0.97669 0.44309 0.75336 0.0
O108 O 0.00896 0.47963 0.70955 0.0
C109 C 0.02573 0.58847 0.70915 0.0
C110 C -0.00362 0.44513 0.72241 0.0
O111 O 0.95067 0.52472 0.80488 0.0
Mg112 Mg 0.25154 0.50258 -0.00623 0.0
O113 O 0.29619 0.55845 -0.00633 0.0
O114 O 0.26282 0.61035 -0.00826 0.0
Mg115 Mg 0.19634 0.58718 -0.01473 0.0
C116 C 0.29514 0.59549 -0.00613 0.0
C117 C 0.30385 0.43619 -0.00272 0.0
O118 O 0.27335 0.41969 0.9754 0.0
O119 O 0.23763 0.51484 0.05611 0.0
O120 O 0.19914 0.56288 0.04715 0.0
O121 O 0.24637 0.49929 0.92871 0.0
O122 O 0.20739 0.52924 0.96415 0.0
C123 C 0.21511 0.53833 0.06871 0.0
C124 C 0.21673 0.51901 0.93061 0.0
O125 O 0.30348 0.47016 0.01182 0.0
Mg126 Mg 0.49941 0.25987 0.02224 0.0
O127 O 0.55605 0.30296 0.02804 0.0
O128 O 0.60687 0.26809 0.03485 0.0
Mg129 Mg 0.5817 0.20245 0.03628 0.0
C130 C 0.59292 0.30079 0.03198 0.0
C131 C 0.43359 0.31078 0.0126 0.0
O132 O 0.41703 0.28045 0.03199 0.0
O133 O 0.51269 0.24452 0.96068 0.0
O134 O 0.55959 0.20524 0.97202 0.0
O135 O 0.49484 0.25986 0.08642 0.0
O136 O 0.52459 0.21697 0.05497 0.0
C137 C 0.53624 0.22174 0.94899 0.0
C138 C 0.51481 0.23028 0.08735 0.0
O139 O 0.46837 0.3111 0.00161 0.0
Mg140 Mg 0.78565 0.53838 0.02688 0.0
O141 O 0.74123 0.4825 0.02498 0.0
O142 O 0.77426 0.43051 0.02293 0.0
Mg143 Mg 0.84007 0.45365 0.01782 0.0
C144 C 0.74221 0.44548 0.02456 0.0
C145 C 0.73269 0.60408 0.02929 0.0
O146 O 0.76111 0.6204 0.00809 0.0
O147 O 0.8062 0.5262 0.08954 0.0
O148 O 0.84442 0.47906 0.0794 0.0
O149 O 0.78388 0.542 0.96199 0.0
O150 O 0.82685 0.51166 -0.00313 0.0
C151 C 0.83101 0.50335 0.10149 0.0
C152 C 0.81352 0.52206 0.96346 0.0
O153 O 0.73486 0.57045 0.04425 0.0
Mg154 Mg 0.53798 0.78276 0.02559 0.0
O155 O 0.48147 0.73867 0.02354 0.0
O156 O 0.43019 0.77296 0.02291 0.0
Mg157 Mg 0.45435 0.83878 0.02988 0.0
C158 C 0.44445 0.74044 0.02164 0.0
C159 C 0.60296 0.7299 0.02945 0.0
O160 O 0.61701 0.75858 0.05375 0.0
O161 O 0.52479 0.7995 0.96219 0.0
O162 O 0.47769 0.83852 0.96874 0.0
O163 O 0.54229 0.78363 0.09071 0.0
O164 O 0.51202 0.82546 0.05495 0.0
C165 C 0.50137 0.82284 0.9482 0.0
C166 C 0.52252 0.81335 0.08876 0.0
O167 O 0.5706 0.73161 0.0099 0.0
C168 C 0.00778 0.3551 0.37963 0.0
C169 C 0.00703 0.3385 0.41046 0.0
C170 C 0.01349 0.38344 0.34997 0.0
C171 C 0.02316 0.41234 0.33083 0.0
C172 C 0.66698 0.02826 0.37074 0.0
C173 C 0.69095 0.02341 0.39673 0.0
C174 C 0.6355 0.02752 0.34218 0.0
C175 C 0.60879 0.02288 0.31744 0.0
C176 C 0.03139 0.66361 0.34921 0.0
C177 C 0.03108 0.63157 0.33462 0.0
C178 C 0.03166 0.69354 0.37723 0.0
C179 C 0.03092 0.70954 0.40814 0.0
C180 C 0.34969 0.01122 0.39918 0.0
C181 C 0.33264 0.01614 0.42806 0.0
C182 C 0.37204 0.00949 0.36613 0.0
C183 C 0.39186 0.00889 0.33835 0.0
C184 C 0.02805 0.65911 0.67815 0.0
C185 C 0.02474 0.6279 0.69494 0.0
C186 C 0.02729 0.68921 0.65008 0.0
C187 C 0.02114 0.70866 0.62173 0.0
C188 C 0.40192 0.01128 0.6977 0.0
C189 C 0.42817 0.01023 0.72241 0.0
C190 C 0.37224 0.01164 0.66759 0.0
C191 C 0.35119 0.01108 0.63833 0.0
C192 C 0.0103 0.35499 0.65074 0.0
C193 C 0.01633 0.33483 0.62356 0.0
C194 C 0.00529 0.38317 0.6795 0.0
C195 C 0.00036 0.41024 0.70037 0.0
C196 C 0.66808 0.03218 0.67238 0.0
C197 C 0.64764 0.02883 0.69974 0.0
C198 C 0.68886 0.0337 0.63826 0.0
C199 C 0.70209 0.03404 0.60672 0.0
C200 C 0.39348 0.37099 0.00491 0.0
C201 C 0.41364 0.34474 0.00725 0.0
C202 C 0.3656 0.39777 0.00383 0.0
C203 C 0.33851 0.41695 0.00208 0.0
C204 C 0.36126 0.64519 0.00391 0.0
C205 C 0.33176 0.6215 -0.00065 0.0
C206 C 0.39306 0.67587 0.01047 0.0
C207 C 0.41764 0.70454 0.01559 0.0
C208 C 0.64453 0.36539 0.03081 0.0
C209 C 0.61997 0.3366 0.03122 0.0
C210 C 0.67632 0.39608 0.02891 0.0
C211 C 0.70578 0.41958 0.02696 0.0
C212 C 0.67086 0.64225 0.03156 0.0
C213 C 0.69781 0.62282 0.03211 0.0
C214 C 0.64311 0.66934 0.02886 0.0
C215 C 0.62307 0.6958 0.02742 0.0
C216 C 0.50653 0.85411 0.8787 0.0
C217 C 0.50616 0.83777 0.90966 0.0
C218 C 0.51198 0.88229 0.84885 0.0
C219 C 0.52172 0.91115 0.82967 0.0
C220 C 0.16641 0.52809 0.87142 0.0
C221 C 0.19035 0.5233 0.89746 0.0
C222 C 0.13513 0.52736 0.84266 0.0
C223 C 0.10862 0.52275 0.81772 0.0
C224 C 0.53311 0.16264 0.85061 0.0
C225 C 0.53256 0.13066 0.83582 0.0
C226 C 0.53318 0.19257 0.87861 0.0
C227 C 0.53208 0.20868 0.9094 0.0
C228 C 0.87344 0.50951 0.86732 0.0
C229 C 0.89305 0.50877 0.83942 0.0
C230 C 0.85124 0.51133 0.90045 0.0
C231 C 0.83423 0.51608 0.92937 0.0
C232 C 0.52795 0.15965 0.17909 0.0
C233 C 0.52464 0.12833 0.19567 0.0
C234 C 0.52713 0.18985 0.15115 0.0
C235 C 0.52092 0.20928 0.1228 0.0
C236 C 0.90163 0.50912 0.19818 0.0
C237 C 0.92819 0.50857 0.22265 0.0
C238 C 0.87162 0.50955 0.16839 0.0
C239 C 0.85051 0.50946 0.13923 0.0
C240 C 0.51066 0.85557 0.15017 0.0
C241 C 0.51668 0.8354 0.12299 0.0
C242 C 0.50557 0.88366 0.17898 0.0
C243 C 0.50053 0.91062 0.19994 0.0
C244 C 0.19008 0.53442 0.13929 0.0
C245 C 0.20313 0.53436 0.10769 0.0
C246 C 0.16914 0.53324 0.17331 0.0
C247 C 0.1484 0.52996 0.20045 0.0
C248 C 0.86513 0.89742 0.50453 0.0
C249 C 0.83797 0.91647 0.50246 0.0
C250 C 0.89306 0.87073 0.5057 0.0
C251 C 0.91318 0.84447 0.50785 0.0
C252 C 0.89478 0.1741 0.51012 0.0
C253 C 0.91908 0.20297 0.51531 0.0
C254 C 0.86299 0.14342 0.50362 0.0
C255 C 0.83328 0.12001 0.49912 0.0
C256 C 0.14366 0.86629 0.5305 0.0
C257 C 0.11921 0.8374 0.53065 0.0
C258 C 0.17548 0.897 0.5289 0.0
C259 C 0.20501 0.92041 0.52702 0.0
C260 C 0.14343 0.16981 0.52921 0.0
C261 C 0.1236 0.19641 0.52787 0.0
C262 C 0.17102 0.14263 0.53174 0.0
C263 C 0.19794 0.12321 0.53208 0.0
loop_
_geom_bond_atom_site_label_1
_geom_bond_atom_site_label_2
_geom_bond_distance
_geom_bond_site_symmetry_2
_ccdc_geom_bond_type
Mg0 O1 2.028 . S
Mg0 O7 1.986 . S
Mg0 O9 2.114 . S
Mg0 O10 2.251 . S
Mg0 O13 2.010 . S
O1 Mg0 2.028 . S
O1 C4 1.250 1_455 S
O2 Mg3 2.028 . S
O2 C4 1.248 . S
Mg3 O2 2.028 . S
Mg3 O8 2.032 . S
Mg3 O10 2.079 1_655 S
C4 O1 1.250 1_655 S
C4 O2 1.248 . S
C5 O6 1.264 . S
C5 O13 1.249 . S
O6 C5 1.264 . S
O7 Mg0 1.986 . S
O7 C11 1.246 . S
O8 Mg3 2.032 . S
O8 C11 1.259 1_655 S
O9 Mg0 2.114 . S
O9 C12 1.252 . S
O10 Mg0 2.251 . S
O10 Mg3 2.079 1_455 S
O10 C12 1.273 . S
C11 O7 1.246 . S
C11 O8 1.259 1_455 S
C12 O9 1.252 . S
C12 O10 1.273 . S
O13 Mg0 2.010 . S
O13 C5 1.249 . S
Mg14 O15 2.028 . S
Mg14 O21 1.986 . S
Mg14 O23 2.114 . S
Mg14 O24 2.251 . S
Mg14 O27 2.010 1_545 S
O15 Mg14 2.028 . S
O15 C18 1.250 . S
O16 Mg17 2.028 . S
O16 C18 1.248 . S
Mg17 O16 2.028 . S
Mg17 O22 2.032 . S
Mg17 O24 2.079 . S
C18 O15 1.250 . S
C18 O16 1.248 . S
C19 O20 1.264 . S
C19 O27 1.249 . S
O20 C19 1.264 . S
O21 Mg14 1.986 . S
O21 C25 1.246 . S
O22 Mg17 2.032 . S
O22 C25 1.259 . S
O23 Mg14 2.114 . S
O23 C26 1.252 . S
O24 Mg14 2.251 . S
O24 Mg17 2.079 . S
O24 C26 1.273 . S
C25 O21 1.246 . S
C25 O22 1.259 . S
C26 O23 1.252 . S
C26 O24 1.273 . S
O27 Mg14 2.010 1_565 S
O27 C19 1.249 . S
Mg28 O29 2.028 . S
Mg28 O35 1.986 . S
Mg28 O37 2.114 . S
Mg28 O38 2.251 . S
Mg28 O41 2.010 1_455 S
O29 Mg28 2.028 . S
O29 C32 1.250 . S
O30 Mg31 2.028 . S
O30 C32 1.248 . S
Mg31 O30 2.028 . S
Mg31 O36 2.032 . S
Mg31 O38 2.079 . S
C32 O29 1.250 . S
C32 O30 1.248 . S
C33 O34 1.264 . S
C33 O41 1.249 . S
O34 C33 1.264 . S
O35 Mg28 1.986 . S
O35 C39 1.246 . S
O36 Mg31 2.032 . S
O36 C39 1.259 . S
O37 Mg28 2.114 . S
O37 C40 1.252 . S
O38 Mg28 2.251 . S
O38 Mg31 2.079 . S
O38 C40 1.273 . S
C39 O35 1.246 . S
C39 O36 1.259 . S
C40 O37 1.252 . S
C40 O38 1.273 . S
O41 Mg28 2.010 1_655 S
O41 C33 1.249 . S
Mg42 O43 2.010 1_545 S
Mg42 O49 1.986 . S
Mg42 O51 2.114 . S
Mg42 O52 2.251 . S
Mg42 O55 2.010 . S
O43 Mg42 2.010 1_565 S
O43 C46 1.279 . S
O44 Mg45 2.028 . S
O44 C46 1.248 . S
Mg45 O44 2.028 . S
Mg45 O50 2.032 . S
Mg45 O52 2.079 1_565 S
C46 O43 1.279 . S
C46 O44 1.248 . S
C47 O48 1.264 . S
C47 O55 1.249 . S
O48 C47 1.264 . S
O49 Mg42 1.986 . S
O49 C53 1.246 . S
O50 Mg45 2.032 . S
O50 C53 1.259 1_565 S
O51 Mg42 2.114 . S
O51 C54 1.252 . S
O52 Mg42 2.251 . S
O52 Mg45 2.079 1_545 S
O52 C54 1.273 . S
C53 O49 1.246 . S
C53 O50 1.259 1_545 S
C54 O51 1.252 . S
C54 O52 1.273 . S
O55 Mg42 2.010 . S
O55 C47 1.249 . S
Mg56 O57 2.028 . S
Mg56 O63 1.986 . S
Mg56 O65 2.114 1_545 S
Mg56 O66 2.251 1_545 S
Mg56 O69 2.010 . S
O57 Mg56 2.028 . S
O57 C60 1.250 . S
O58 Mg59 2.028 . S
O58 C60 1.248 . S
Mg59 O58 2.028 . S
Mg59 O64 2.032 . S
Mg59 O66 2.079 1_545 S
C60 O57 1.250 . S
C60 O58 1.248 . S
C61 O62 1.264 . S
C61 O69 1.249 . S
O62 C61 1.264 . S
O63 Mg56 1.986 . S
O63 C67 1.246 . S
O64 Mg59 2.032 . S
O64 C67 1.259 . S
O65 Mg56 2.114 1_565 S
O65 C68 1.252 . S
O66 Mg56 2.251 1_565 S
O66 Mg59 2.079 1_565 S
O66 C68 1.273 . S
C67 O63 1.246 . S
C67 O64 1.259 . S
C68 O65 1.252 . S
C68 O66 1.273 . S
O69 Mg56 2.010 . S
O69 C61 1.249 . S
Mg70 O71 2.028 . S
Mg70 O77 1.986 . S
Mg70 O79 2.114 . S
Mg70 O80 2.251 . S
Mg70 O83 2.010 . S
O71 Mg70 2.028 . S
O71 C74 1.250 1_455 S
O72 Mg73 2.028 . S
O72 C74 1.248 . S
Mg73 O72 2.028 . S
Mg73 O78 2.032 1_655 S
Mg73 O80 2.079 1_655 S
C74 O71 1.250 1_655 S
C74 O72 1.248 . S
C75 O76 1.264 . S
C75 O83 1.249 . S
O76 C75 1.264 . S
O77 Mg70 1.986 . S
O77 C81 1.246 . S
O78 Mg73 2.032 1_455 S
O78 C81 1.259 . S
O79 Mg70 2.114 . S
O79 C82 1.252 . S
O80 Mg70 2.251 . S
O80 Mg73 2.079 1_455 S
O80 C82 1.273 . S
C81 O77 1.246 . S
C81 O78 1.259 . S
C82 O79 1.252 . S
C82 O80 1.273 . S
O83 Mg70 2.010 . S
O83 C75 1.249 . S
Mg84 O85 2.028 . S
Mg84 O91 1.986 . S
Mg84 O93 2.114 1_545 S
Mg84 O94 2.251 1_545 S
Mg84 O97 2.010 . S
O85 Mg84 2.028 . S
O85 C88 1.250 . S
O86 Mg87 2.028 . S
O86 C88 1.248 . S
Mg87 O86 2.028 . S
Mg87 O92 2.032 . S
Mg87 O94 2.079 1_545 S
C88 O85 1.250 . S
C88 O86 1.248 . S
C89 O90 1.264 . S
C89 O97 1.249 . S
O90 C89 1.264 . S
O91 Mg84 1.986 . S
O91 C95 1.246 . S
O92 Mg87 2.032 . S
O92 C95 1.259 . S
O93 Mg84 2.114 1_565 S
O93 C96 1.252 . S
O94 Mg84 2.251 1_565 S
O94 Mg87 2.079 1_565 S
O94 C96 1.273 . S
C95 O91 1.246 . S
C95 O92 1.259 . S
C96 O93 1.252 . S
C96 O94 1.273 . S
O97 Mg84 2.010 . S
O97 C89 1.249 . S
Mg98 O99 2.028 . S
Mg98 O105 1.986 . S
Mg98 O107 2.114 . S
Mg98 O108 2.251 . S
Mg98 O111 2.010 1_455 S
O99 Mg98 2.028 . S
O99 C102 1.250 . S
O100 Mg101 2.028 . S
O100 C102 1.248 . S
Mg101 O100 2.028 . S
Mg101 O106 2.032 . S
Mg101 O108 2.079 . S
C102 O99 1.250 . S
C102 O100 1.248 . S
C103 O104 1.264 . S
C103 O111 1.249 . S
O104 C103 1.264 . S
O105 Mg98 1.986 . S
O105 C109 1.246 . S
O106 Mg101 2.032 . S
O106 C109 1.259 . S
O107 Mg98 2.114 . S
O107 C110 1.252 . S
O108 Mg98 2.251 . S
O108 Mg101 2.079 . S
O108 C110 1.273 . S
C109 O105 1.246 . S
C109 O106 1.259 . S
C110 O107 1.252 . S
C110 O108 1.273 . S
O111 Mg98 2.010 1_655 S
O111 C103 1.249 . S
Mg112 O113 2.028 . S
Mg112 O119 1.986 . S
Mg112 O121 2.114 1_554 S
Mg112 O122 2.251 1_554 S
Mg112 O125 2.010 . S
O113 Mg112 2.028 . S
O113 C116 1.250 . S
O114 Mg115 2.028 . S
O114 C116 1.248 . S
Mg115 O114 2.028 . S
Mg115 O120 2.032 . S
Mg115 O122 2.079 1_554 S
C116 O113 1.250 . S
C116 O114 1.248 . S
C117 O118 1.264 . S
C117 O125 1.249 . S
O118 C117 1.264 . S
O119 Mg112 1.986 . S
O119 C123 1.246 . S
O120 Mg115 2.032 . S
O120 C123 1.259 . S
O121 Mg112 2.114 1_556 S
O121 C124 1.252 . S
O122 Mg112 2.251 1_556 S
O122 Mg115 2.079 1_556 S
O122 C124 1.273 . S
C123 O119 1.246 . S
C123 O120 1.259 . S
C124 O121 1.252 . S
C124 O122 1.273 . S
O125 Mg112 2.010 . S
O125 C117 1.249 . S
Mg126 O127 2.028 . S
Mg126 O133 1.986 1_554 S
Mg126 O135 2.114 . S
Mg126 O136 2.251 . S
Mg126 O139 2.010 . S
O127 Mg126 2.028 . S
O127 C130 1.250 . S
O128 Mg129 2.028 . S
O128 C130 1.248 . S
Mg129 O128 2.028 . S
Mg129 O134 2.032 1_554 S
Mg129 O136 2.079 . S
C130 O127 1.250 . S
C130 O128 1.248 . S
C131 O132 1.264 . S
C131 O139 1.249 . S
O132 C131 1.264 . S
O133 Mg126 1.986 1_556 S
O133 C137 1.246 . S
O134 Mg129 2.032 1_556 S
O134 C137 1.259 . S
O135 Mg126 2.114 . S
O135 C138 1.252 . S
O136 Mg126 2.251 . S
O136 Mg129 2.079 . S
O136 C138 1.273 . S
C137 O133 1.246 . S
C137 O134 1.259 . S
C138 O135 1.252 . S
C138 O136 1.273 . S
O139 Mg126 2.010 . S
O139 C131 1.249 . S
Mg140 O141 2.028 . S
Mg140 O147 1.986 . S
Mg140 O149 2.114 1_554 S
Mg140 O150 2.251 . S
Mg140 O153 2.010 . S
O141 Mg140 2.028 . S
O141 C144 1.250 . S
O142 Mg143 2.028 . S
O142 C144 1.248 . S
Mg143 O142 2.028 . S
Mg143 O148 2.032 . S
Mg143 O150 2.079 . S
C144 O141 1.250 . S
C144 O142 1.248 . S
C145 O146 1.264 . S
C145 O153 1.249 . S
O146 C145 1.264 . S
O147 Mg140 1.986 . S
O147 C151 1.246 . S
O148 Mg143 2.032 . S
O148 C151 1.259 . S
O149 Mg140 2.114 1_556 S
O149 C152 1.252 . S
O150 Mg140 2.251 . S
O150 Mg143 2.079 . S
O150 C152 1.273 1_554 S
C151 O147 1.246 . S
C151 O148 1.259 . S
C152 O149 1.252 . S
C152 O150 1.273 1_556 S
O153 Mg140 2.010 . S
O153 C145 1.249 . S
Mg154 O155 2.028 . S
Mg154 O161 1.986 1_554 S
Mg154 O163 2.114 . S
Mg154 O164 2.251 . S
Mg154 O167 2.010 . S
O155 Mg154 2.028 . S
O155 C158 1.250 . S
O156 Mg157 2.028 . S
O156 C158 1.248 . S
Mg157 O156 2.028 . S
Mg157 O162 2.032 1_554 S
Mg157 O164 2.079 . S
C158 O155 1.250 . S
C158 O156 1.248 . S
C159 O160 1.264 . S
C159 O167 1.249 . S
O160 C159 1.264 . S
O161 Mg154 1.986 1_556 S
O161 C165 1.246 . S
O162 Mg157 2.032 1_556 S
O162 C165 1.259 . S
O163 Mg154 2.114 . S
O163 C166 1.252 . S
O164 Mg154 2.251 . S
O164 Mg157 2.079 . S
O164 C166 1.273 . S
C165 O161 1.246 . S
C165 O162 1.259 . S
C166 O163 1.252 . S
C166 O164 1.273 . S
O167 Mg154 2.010 . S
O167 C159 1.249 . S
C168 C169 1.170 . S
C168 C170 1.380 . S
C169 C168 1.170 . S
C170 C168 1.380 . S
C170 C171 1.170 . S
C171 C170 1.170 . S
C172 C173 1.170 . S
C172 C174 1.380 . S
C173 C172 1.170 . S
C174 C172 1.380 . S
C174 C175 1.170 . S
C175 C174 1.170 . S
C176 C177 1.170 . S
C176 C178 1.380 . S
C177 C176 1.170 . S
C178 C176 1.380 . S
C178 C179 1.170 . S
C179 C178 1.170 . S
C180 C181 1.170 . S
C180 C182 1.380 . S
C181 C180 1.170 . S
C182 C180 1.380 . S
C182 C183 1.170 . S
C183 C182 1.170 . S
C184 C185 1.170 . S
C184 C186 1.380 . S
C185 C184 1.170 . S
C186 C184 1.380 . S
C186 C187 1.170 . S
C187 C186 1.170 . S
C188 C189 1.170 . S
C188 C190 1.380 . S
C189 C188 1.170 . S
C190 C188 1.380 . S
C190 C191 1.170 . S
C191 C190 1.170 . S
C192 C193 1.170 . S
C192 C194 1.380 . S
C193 C192 1.170 . S
C194 C192 1.380 . S
C194 C195 1.170 . S
C195 C194 1.170 . S
C196 C197 1.170 . S
C196 C198 1.380 . S
C197 C196 1.170 . S
C198 C196 1.380 . S
C198 C199 1.170 . S
C199 C198 1.170 . S
C200 C201 1.170 . S
C200 C202 1.380 . S
C201 C200 1.170 . S
C202 C200 1.380 . S
C202 C203 1.170 . S
C203 C202 1.170 . S
C204 C205 1.170 . S
C204 C206 1.380 . S
C205 C204 1.170 . S
C206 C204 1.380 . S
C206 C207 1.170 . S
C207 C206 1.170 . S
C208 C209 1.170 . S
C208 C210 1.380 . S
C209 C208 1.170 . S
C210 C208 1.380 . S
C210 C211 1.170 . S
C211 C210 1.170 . S
C212 C213 1.170 . S
C212 C214 1.380 . S
C213 C212 1.170 . S
C214 C212 1.380 . S
C214 C215 1.170 . S
C215 C214 1.170 . S
C216 C217 1.170 . S
C216 C218 1.380 . S
C217 C216 1.170 . S
C218 C216 1.380 . S
C218 C219 1.170 . S
C219 C218 1.170 . S
C220 C221 1.170 . S
C220 C222 1.380 . S
C221 C220 1.170 . S
C222 C220 1.380 . S
C222 C223 1.170 . S
C223 C222 1.170 . S
C224 C225 1.170 . S
C224 C226 1.380 . S
C225 C224 1.170 . S
C226 C224 1.380 . S
C226 C227 1.170 . S
C227 C226 1.170 . S
C228 C229 1.170 . S
C228 C230 1.380 . S
C229 C228 1.170 . S
C230 C228 1.380 . S
C230 C231 1.170 . S
C231 C230 1.170 . S
C232 C233 1.170 . S
C232 C234 1.380 . S
C233 C232 1.170 . S
C234 C232 1.380 . S
C234 C235 1.170 . S
C235 C234 1.170 . S
C236 C237 1.170 . S
C236 C238 1.380 . S
C237 C236 1.170 . S
C238 C236 1.380 . S
C238 C239 1.170 . S
C239 C238 1.170 . S
C240 C241 1.170 . S
C240 C242 1.380 . S
C241 C240 1.170 . S
C242 C240 1.380 . S
C242 C243 1.170 . S
C243 C242 1.170 . S
C244 C245 1.170 . S
C244 C246 1.380 . S
C245 C244 1.170 . S
C246 C244 1.380 . S
C246 C247 1.170 . S
C247 C246 1.170 . S
C248 C249 1.170 . S
C248 C250 1.380 . S
C249 C248 1.170 . S
C250 C248 1.380 . S
C250 C251 1.170 . S
C251 C250 1.170 . S
C252 C253 1.170 . S
C252 C254 1.380 . S
C253 C252 1.170 . S
C254 C252 1.380 . S
C254 C255 1.170 . S
C255 C254 1.170 . S
C256 C257 1.170 . S
C256 C258 1.380 . S
C257 C256 1.170 . S
C258 C256 1.380 . S
C258 C259 1.170 . S
C259 C258 1.170 . S
C260 C261 1.170 . S
C260 C262 1.380 . S
C261 C260 1.170 . S
C262 C260 1.380 . S
C262 C263 1.170 . S
C263 C262 1.170 . S
C169 C11 1.353 . S
C171 C82 1.360 . S
C173 C26 1.372 . S
C175 C60 1.352 . S
C177 C81 1.241 . S
C179 C39 1.278 . S
C181 C54 1.438 . S
C183 C61 1.229 . S
C185 C109 1.348 . S
C187 C40 1.390 . S
C189 C88 1.262 . S
C191 C53 1.274 . S
C193 C12 1.421 . S
C195 C110 1.431 . S
C197 C89 1.221 . S
C199 C25 1.309 . S
C201 C131 1.170 . S
C203 C117 1.179 . S
C205 C116 1.259 . S
C207 C158 1.260 . S
C209 C130 1.224 . S
C211 C144 1.235 . S
C213 C145 1.221 . S
C215 C159 1.238 . S
C217 C165 1.345 . S
C219 C96 1.367 . S
C221 C124 1.366 . S
C223 C102 1.362 . S
C225 C95 1.248 . S
C227 C137 1.249 . S
C229 C103 1.302 . S
C231 C152 1.432 . S
C233 C67 1.346 . S
C235 C138 1.395 . S
C237 C74 1.260 . S
C239 C151 1.247 . S
C241 C166 1.419 . S
C243 C68 1.428 . S
C245 C123 1.306 . S
C247 C75 1.192 . S
C249 C19 1.177 . S
C251 C33 1.175 . S
C253 C4 1.285 . S
C255 C18 1.285 . S
C257 C32 1.242 . S
C259 C46 1.248 . S
C261 C5 1.238 . S
C263 C47 1.220 . S
