# Generated by pormake.
# Topology sxc, (6)-cn, num edge types: 1
# Building blocks:
#     Node 0, Type 0, BuildingBlock: MIFKUJ_clean_sbu_0, # of connection points: 6
#     Node 1, Type 0, BuildingBlock: MIFKUJ_clean_sbu_0, # of connection points: 6
#     Node 2, Type 0, BuildingBlock: MIFKUJ_clean_sbu_0, # of connection points: 6
#     Edge 3, Type (0, 0), BuildingBlock: TEMPAE_clean_linker_10, # of connection points: 2
#     Edge 4, Type (0, 0), BuildingBlock: TEMPAE_clean_linker_10, # of connection points: 2
#     Edge 5, Type (0, 0), BuildingBlock: TEMPAE_clean_linker_10, # of connection points: 2
#     Edge 6, Type (0, 0), BuildingBlock: TEMPAE_clean_linker_10, # of connection points: 2
#     Edge 7, Type (0, 0), BuildingBlock: TEMPAE_clean_linker_10, # of connection points: 2
#     Edge 8, Type (0, 0), BuildingBlock: TEMPAE_clean_linker_10, # of connection points: 2
#     Edge 9, Type (0, 0), BuildingBlock: TEMPAE_clean_linker_10, # of connection points: 2
#     Edge 10, Type (0, 0), BuildingBlock: TEMPAE_clean_linker_10, # of connection points: 2
#     Edge 11, Type (0, 0), BuildingBlock: TEMPAE_clean_linker_10, # of connection points: 2
# Relax obj value: 0.015
# Max RMSD: 0.064
# Mean RMSD: 0.047
data_MOF--net-sxc--node1-MIFKUJ_clean_sbu_0--edge1-TEMPAE_clean_linker_10
_symmetry_space_group_name_H-M    P1
_symmetry_Int_Tables_number       1
_symmetry_cell_setting            triclinic
loop_
_symmetry_equiv_pos_as_xyz
'x, y, z'
_cell_length_a     18.574237
_cell_length_b     17.818594
_cell_length_c     42.956901
_cell_angle_alpha  92.859593
_cell_angle_beta   97.595881
_cell_angle_gamma 117.87872
loop_
_atom_site_label
_atom_site_type_symbol
_atom_site_fract_x
_atom_site_fract_y
_atom_site_fract_z
_atom_type_partial_charge
Zn0 Zn 0.94124 0.90077 -0.00813 0.0
Zn1 Zn 0.11628 0.13919 8e-05 0.0
C2 C -0.00868 0.7812 0.9828 0.0
O3 O 0.93751 0.76918 0.95735 0.0
C4 C 0.06016 0.26313 0.01968 0.0
O5 O 0.02399 0.21224 0.04029 0.0
O6 O 0.82561 0.8072 -0.00807 0.0
O7 O 0.96285 0.00211 0.02064 0.0
O8 O 0.0933 0.08456 0.04007 0.0
C9 C 0.81695 0.75298 0.01124 0.0
O10 O 0.88091 0.76422 0.03196 0.0
O11 O 0.01358 0.84577 0.00323 0.0
C12 C 0.26938 0.22338 0.97763 0.0
O13 O 0.21992 0.21205 0.95091 0.0
O14 O 0.23812 0.19136 0.00141 0.0
O15 O 0.05536 0.06559 0.95758 0.0
O16 O 0.95235 0.93155 0.94847 0.0
O17 O 0.09783 0.24223 0.00125 0.0
C18 C 0.02222 0.0282 0.04361 0.0
C19 C 0.00241 -0.00046 0.93861 0.0
Zn20 Zn 0.05594 0.96403 0.32885 0.0
Zn21 Zn 0.91242 0.05967 0.32284 0.0
C22 C 0.08007 0.83378 0.35691 0.0
O23 O 0.14947 0.90104 0.37052 0.0
C24 C -0.01255 0.23466 0.31447 0.0
O25 O 0.94851 0.19944 0.28548 0.0
O26 O 0.17419 0.01474 0.32467 0.0
O27 O -0.00069 0.95515 0.28492 0.0
O28 O 0.92175 0.01908 0.28034 0.0
C29 C 0.18908 0.96928 0.30553 0.0
O30 O 0.12727 0.89876 0.28949 0.0
O31 O 0.02566 0.84467 0.33942 0.0
C32 C 0.76866 0.05981 0.33879 0.0
O33 O 0.81064 0.07815 0.36774 0.0
O34 O 0.80005 0.04813 0.31578 0.0
O35 O 0.91493 -0.00665 0.35897 0.0
O36 O 0.04747 0.03272 0.36515 0.0
O37 O -0.01313 0.18629 0.33532 0.0
C38 C 0.95306 0.9776 0.26813 0.0
C39 C -0.0196 0.00215 0.37587 0.0
Zn40 Zn 0.10803 0.08242 0.65431 0.0
Zn41 Zn 0.8478 0.94786 0.65044 0.0
C42 C 0.26811 0.1052 0.6574 0.0
O43 O 0.28031 0.17069 0.67699 0.0
C44 C 0.7526 0.02526 0.62627 0.0
O45 O 0.74439 0.97788 0.60026 0.0
O46 O 0.15513 0.20872 0.65163 0.0
O47 O -0.00267 0.011 0.62854 0.0
O48 O 0.86988 0.93006 0.60649 0.0
C49 C 0.1963 0.23816 0.62965 0.0
O50 O 0.19218 0.18389 0.60673 0.0
O51 O 0.19453 0.05077 0.64453 0.0
C52 C 0.74403 0.77261 0.66938 0.0
O53 O 0.81035 0.76722 0.68091 0.0
O54 O 0.75156 0.839 0.65742 0.0
O55 O 0.95133 0.99257 0.68502 0.0
O56 O 0.08806 0.06001 0.69839 0.0
O57 O 0.80127 0.02912 0.65083 0.0
C58 C 0.94521 0.96983 0.6038 0.0
C59 C 0.01657 0.02091 0.70602 0.0
C60 C 0.11199 0.40734 0.0012 0.0
C61 C 0.05811 0.34498 0.01778 0.0
C62 C 0.10899 0.48383 -0.00203 0.0
C63 C 0.04992 0.49796 0.01125 0.0
C64 C -0.00312 0.4364 0.02877 0.0
C65 C 0.00199 0.36083 0.03201 0.0
C66 C 0.1671 0.54815 0.97935 0.0
C67 C 0.93239 0.44873 0.04297 0.0
C68 C 0.06673 0.72009 0.01697 0.0
C69 C 0.01206 0.71215 0.98959 0.0
C70 C 0.08057 0.65122 0.0243 0.0
C71 C 0.03792 0.57261 0.00398 0.0
C72 C -0.01681 0.56468 0.97626 0.0
C73 C 0.97145 0.63452 0.96933 0.0
C74 C 0.14002 0.66217 0.0539 0.0
C75 C 0.93576 0.48179 0.95411 0.0
H76 H 0.1563 0.39613 0.99046 0.0
H77 H 0.96034 0.31307 0.04492 0.0
H78 H 0.13134 0.55105 0.95704 0.0
H79 H 0.19868 0.61302 -0.00701 0.0
H80 H 0.21477 0.53167 0.97328 0.0
H81 H 0.90014 0.39813 0.05785 0.0
H82 H 0.96124 0.51201 0.05764 0.0
H83 H 0.88562 0.44777 0.02375 0.0
H84 H 0.09801 0.7797 0.03281 0.0
H85 H 0.92856 0.62728 0.94823 0.0
H86 H 0.18877 0.64763 0.0478 0.0
H87 H 0.10678 0.61626 0.07007 0.0
H88 H 0.1701 0.72804 0.06673 0.0
H89 H 0.97939 0.46346 0.9451 0.0
H90 H 0.89547 0.48621 0.93354 0.0
H91 H 0.89648 0.42958 0.96705 0.0
C92 C 0.29078 0.91824 0.30064 0.0
C93 C 0.27449 0.98656 0.30593 0.0
C94 C 0.37213 0.93185 0.30486 0.0
C95 C 0.43827 0.01603 0.31386 0.0
C96 C 0.42214 0.08573 0.31785 0.0
C97 C 0.34005 0.06995 0.31421 0.0
C98 C 0.38709 0.85581 0.30098 0.0
C99 C 0.49143 0.17649 0.3268 0.0
C100 C 0.64023 0.04031 0.35741 0.0
C101 C 0.68534 0.0517 0.33278 0.0
C102 C 0.55956 0.02896 0.35156 0.0
C103 C 0.5242 0.03051 0.32048 0.0
C104 C 0.57014 0.0439 0.29567 0.0
C105 C 0.65013 0.05376 0.30208 0.0
C106 C 0.51159 0.01368 0.37849 0.0
C107 C 0.53453 0.04704 0.26234 0.0
H108 H 0.23988 0.85353 0.29465 0.0
H109 H 0.32706 0.12265 0.31819 0.0
H110 H 0.429 0.86525 0.28367 0.0
H111 H 0.418 0.84966 0.3239 0.0
H112 H 0.32879 0.79492 0.29288 0.0
H113 H 0.4684 0.2239 0.32652 0.0
H114 H 0.52562 0.18333 0.35089 0.0
H115 H 0.53618 0.19199 0.31029 0.0
H116 H 0.66726 0.03839 0.38112 0.0
H117 H 0.68521 0.06331 0.28302 0.0
H118 H 0.45458 0.95074 0.37298 0.0
H119 H 0.49201 0.06326 0.38146 0.0
H120 H 0.54827 0.01467 0.40128 0.0
H121 H 0.47933 0.98462 0.25294 0.0
H122 H 0.57984 0.06174 0.24605 0.0
H123 H 0.51393 0.09631 0.26232 0.0
C124 C 0.64799 0.62012 0.67578 0.0
C125 C 0.65979 0.69967 0.66751 0.0
C126 C 0.56835 0.54905 0.671 0.0
C127 C 0.49915 0.55803 0.65775 0.0
C128 C 0.51033 0.63898 0.65067 0.0
C129 C 0.59039 0.70873 0.65563 0.0
C130 C 0.55838 0.46374 0.67929 0.0
C131 C 0.43813 0.65128 0.63668 0.0
C132 C 0.31739 0.35607 0.61223 0.0
C133 C 0.2654 0.32698 0.63475 0.0
C134 C 0.39245 0.43263 0.61912 0.0
C135 C 0.41601 0.48149 0.64923 0.0
C136 C 0.36168 0.45515 0.67141 0.0
C137 C 0.28684 0.37819 0.66388 0.0
C138 C 0.44848 0.45892 0.59473 0.0
C139 C 0.38434 0.50593 0.70366 0.0
H140 H 0.70109 0.61271 0.68517 0.0
H141 H 0.59862 0.77015 0.64944 0.0
H142 H 0.51841 0.44195 0.69753 0.0
H143 H 0.52714 0.41486 0.65815 0.0
H144 H 0.61856 0.46658 0.68838 0.0
H145 H 0.45632 0.71973 0.63515 0.0
H146 H 0.41177 0.61553 0.61251 0.0
H147 H 0.38836 0.62516 0.65106 0.0
H148 H 0.30124 0.31712 0.58963 0.0
H149 H 0.24713 0.35623 0.68147 0.0
H150 H 0.50584 0.45587 0.6036 0.0
H151 H 0.46697 0.52602 0.59066 0.0
H152 H 0.41863 0.41712 0.57173 0.0
H153 H 0.43651 0.50184 0.71786 0.0
H154 H 0.33173 0.48201 0.71677 0.0
H155 H 0.40532 0.57453 0.70147 0.0
C156 C 0.64309 0.05871 0.60161 0.0
C157 C 0.69259 0.05682 0.62889 0.0
C158 C 0.57642 0.07428 0.60385 0.0
C159 C 0.55805 0.08638 0.63403 0.0
C160 C 0.6106 0.08938 0.66165 0.0
C161 C 0.67771 0.07524 0.65875 0.0
C162 C 0.5243 0.07548 0.57398 0.0
C163 C 0.59372 0.10365 0.69425 0.0
C164 C 0.41337 0.17471 0.64829 0.0
C165 C 0.33987 0.09949 0.64903 0.0
C166 C 0.48382 0.17151 0.64166 0.0
C167 C 0.48144 0.09118 0.63689 0.0
C168 C 0.40667 0.01489 0.63694 0.0
C169 C 0.3362 0.01998 0.64252 0.0
C170 C 0.5609 0.25471 0.64093 0.0
C171 C 0.40202 0.92804 0.63233 0.0
H172 H 0.655 0.04563 0.57846 0.0
H173 H 0.71582 0.07414 0.67995 0.0
H174 H 0.46108 0.02027 0.57104 0.0
H175 H 0.51827 0.13461 0.57569 0.0
H176 H 0.55091 0.07236 0.55257 0.0
H177 H 0.64116 0.10525 0.71337 0.0
H178 H 0.59212 0.16501 0.69734 0.0
H179 H 0.53217 0.05178 0.69695 0.0
H180 H 0.41585 0.23641 0.65281 0.0
H181 H 0.27923 0.96193 0.64307 0.0
H182 H 0.60299 0.24665 0.62667 0.0
H183 H 0.59489 0.28156 0.66549 0.0
H184 H 0.54454 0.30225 0.63103 0.0
H185 H 0.42131 0.91928 0.60967 0.0
H186 H 0.33878 0.87494 0.63225 0.0
H187 H 0.4454 0.92358 0.65163 0.0
C188 C 0.66356 0.66908 0.00228 0.0
C189 C 0.74038 0.67124 0.00685 0.0
C190 C 0.59025 0.59074 -0.00233 0.0
C191 C 0.59449 0.51324 -0.00361 0.0
C192 C 0.67233 0.51544 0.00032 0.0
C193 C 0.74459 0.59475 0.00613 0.0
C194 C 0.50836 0.5909 -0.00558 0.0
C195 C 0.67937 0.43434 -0.00185 0.0
C196 C 0.40403 0.32096 0.01266 0.0
C197 C 0.35798 0.28724 0.982 0.0
C198 C 0.48292 0.39258 0.01766 0.0
C199 C 0.51705 0.43025 0.99132 0.0
C200 C 0.47359 0.39261 0.96024 0.0
C201 C 0.39409 0.32184 0.95594 0.0
C202 C 0.52712 0.43131 0.05118 0.0
C203 C 0.50928 0.42967 0.93157 0.0
H204 H 0.66099 0.72869 0.00289 0.0
H205 H 0.80453 0.59701 0.00923 0.0
H206 H 0.47041 0.55768 0.9709 0.0
H207 H 0.47329 0.55537 0.01258 0.0
H208 H 0.51606 0.65672 -0.00291 0.0
H209 H 0.74423 0.44745 -0.0013 0.0
H210 H 0.65596 0.3986 0.01818 0.0
H211 H 0.64072 0.39209 0.97598 0.0
H212 H 0.37667 0.2945 0.03296 0.0
H213 H 0.35914 0.29552 0.93218 0.0
H214 H 0.53047 0.49472 0.05609 0.0
H215 H 0.59153 0.44187 0.05433 0.0
H216 H 0.49529 0.39037 0.06893 0.0
H217 H 0.5102 0.49205 0.92995 0.0
H218 H 0.47276 0.38677 0.90924 0.0
H219 H 0.57413 0.44175 0.93374 0.0
C220 C 0.02467 0.38088 0.30015 0.0
C221 C 0.01824 0.32721 0.32361 0.0
C222 C 0.04191 0.4657 0.30797 0.0
C223 C 0.05214 0.49743 0.34003 0.0
C224 C 0.04958 0.44491 0.36399 0.0
C225 C 0.03305 0.36045 0.3555 0.0
C226 C 0.04565 0.52018 0.28176 0.0
C227 C 0.06011 0.47644 0.39841 0.0
C228 C 0.14425 0.7383 0.3592 0.0
C229 C 0.07281 0.7476 0.35653 0.0
C230 C 0.13874 0.65709 0.35469 0.0
C231 C 0.05989 0.58345 0.34802 0.0
C232 C -0.01233 0.59239 0.34682 0.0
C233 C -0.00501 0.67452 0.35069 0.0
C234 C 0.21711 0.65054 0.3555 0.0
C235 C 0.90249 0.51531 0.34034 0.0
H236 H 0.0139 0.35587 0.27548 0.0
H237 H 0.028 0.31935 0.37379 0.0
H238 H -0.00735 0.53349 0.27989 0.0
H239 H 0.10311 0.58271 0.28715 0.0
H240 H 0.04355 0.48862 0.25844 0.0
H241 H 0.06362 0.43057 0.41434 0.0
H242 H 0.11698 0.53906 0.40527 0.0
H243 H 0.00701 0.48634 0.40216 0.0
H244 H 0.20461 0.79479 0.36328 0.0
H245 H 0.93976 0.68166 0.34869 0.0
H246 H 0.21944 0.62685 0.33146 0.0
H247 H 0.21796 0.6038 0.37145 0.0
H248 H 0.27357 0.71315 0.36348 0.0
H249 H 0.88999 0.48335 0.31592 0.0
H250 H 0.85319 0.5327 0.34284 0.0
H251 H 0.89898 0.46814 0.3568 0.0
C252 C 0.96134 0.90345 0.2189 0.0
C253 C 0.94381 0.9639 0.23337 0.0
C254 C 0.96482 0.89888 0.18649 0.0
C255 C 0.95241 0.95752 0.16852 0.0
C256 C 0.92997 0.01525 0.18261 0.0
C257 C 0.92511 0.01713 0.21485 0.0
C258 C -0.01376 0.83463 0.17197 0.0
C259 C 0.91671 0.07915 0.1642 0.0
C260 C 0.06976 0.04049 0.10162 0.0
C261 C 0.00631 0.00237 0.07517 0.0
C262 C 0.05352 0.02332 0.13212 0.0
C263 C 0.97205 0.96593 0.13615 0.0
C264 C 0.90878 0.92331 0.10941 0.0
C265 C 0.92652 0.94268 0.0792 0.0
C266 C 0.12272 0.0699 0.16014 0.0
C267 C 0.82161 0.8603 0.11272 0.0
H268 H 0.97472 0.86133 0.23307 0.0
H269 H 0.91145 0.06393 0.2259 0.0
H270 H 0.9461 0.8032 0.14862 0.0
H271 H 0.05116 0.86799 0.168 0.0
H272 H 0.97982 0.78456 0.18747 0.0
H273 H 0.89383 0.11536 0.17802 0.0
H274 H 0.97595 0.1255 0.15753 0.0
H275 H 0.87167 0.04625 0.14197 0.0
H276 H 0.13169 0.08615 0.09865 0.0
H277 H 0.8772 0.9126 0.05883 0.0
H278 H 0.12804 0.02358 0.17533 0.0
H279 H 0.10876 0.11291 0.1748 0.0
H280 H 0.1834 0.10889 0.15284 0.0
H281 H 0.82184 0.81653 0.13018 0.0
H282 H 0.78416 0.82143 0.08977 0.0
H283 H 0.79092 0.89554 0.12153 0.0
C284 C 0.91688 0.98596 0.42438 0.0
C285 C -0.01882 0.98981 0.40959 0.0
C286 C 0.91905 0.97955 0.45677 0.0
C287 C -0.01362 0.97516 0.47468 0.0
C288 C 0.05013 0.97603 0.45972 0.0
C289 C 0.04717 0.98418 0.42732 0.0
C290 C 0.85011 0.97947 0.47197 0.0
C291 C 0.12177 0.96947 0.47799 0.0
C292 C 0.0171 0.04723 0.56181 0.0
C293 C 0.96927 0.96956 0.57273 0.0
C294 C 0.02793 0.04968 0.53015 0.0
C295 C -0.00975 0.97227 0.50924 0.0
C296 C 0.94664 0.89308 0.52084 0.0
C297 C 0.93548 0.8928 0.55247 0.0
C298 C 0.07376 0.13549 0.51859 0.0
C299 C 0.90732 0.80915 0.49944 0.0
H300 H 0.86569 0.99019 0.41081 0.0
H301 H 0.09659 0.98624 0.41588 0.0
H302 H 0.81944 0.92017 0.48311 0.0
H303 H 0.87588 0.03436 0.49097 0.0
H304 H 0.80253 0.98378 0.45467 0.0
H305 H 0.16296 0.96466 0.46236 0.0
H306 H 0.15892 0.02658 0.49594 0.0
H307 H 0.09855 0.91261 0.49091 0.0
H308 H 0.04065 0.10644 0.5774 0.0
H309 H 0.89822 0.83281 0.56114 0.0
H310 H 0.02899 0.14877 0.50333 0.0
H311 H 0.11865 0.13516 0.50401 0.0
H312 H 0.10749 0.1884 0.53844 0.0
H313 H 0.85183 0.8021 0.4835 0.0
H314 H 0.88798 0.75357 0.51308 0.0
H315 H 0.95074 0.80754 0.48432 0.0
C316 C 0.9375 -0.00212 0.75055 0.0
C317 C 0.01009 0.01186 0.73962 0.0
C318 C 0.933 -0.00504 0.78284 0.0
C319 C 0.00212 0.00448 0.80444 0.0
C320 C 0.07467 0.01619 0.79339 0.0
C321 C 0.07804 0.02054 0.76112 0.0
C322 C 0.8551 0.98361 0.79393 0.0
C323 C 0.14895 0.02471 0.81567 0.0
C324 C 0.02995 0.07875 0.89152 0.0
C325 C 0.00012 0.00099 0.90423 0.0
C326 C 0.02897 0.08062 0.85888 0.0
C327 C -0.00082 0.00305 0.83873 0.0
C328 C 0.96912 0.9244 0.85146 0.0
C329 C 0.96915 0.92425 0.88406 0.0
C330 C 0.06026 0.16556 0.846 0.0
C331 C 0.93872 0.84066 0.83077 0.0
H332 H 0.88499 0.99155 0.73399 0.0
H333 H 0.13404 0.03065 0.75272 0.0
H334 H 0.82945 0.9261 0.80641 0.0
H335 H 0.86966 0.03951 0.8111 0.0
H336 H 0.80677 0.97682 0.77406 0.0
H337 H 0.19924 0.02987 0.80303 0.0
H338 H 0.17378 0.0824 0.83331 0.0
H339 H 0.13054 0.96858 0.82894 0.0
H340 H 0.05338 0.1381 0.90705 0.0
H341 H 0.94673 0.86405 0.89388 0.0
H342 H 0.01221 0.16346 0.82709 0.0
H343 H 0.11534 0.17865 0.83518 0.0
H344 H 0.07744 0.21946 0.86464 0.0
H345 H 0.88742 0.83068 0.81172 0.0
H346 H 0.91664 0.78502 0.84439 0.0
H347 H -0.01067 0.84247 0.81915 0.0
loop_
_geom_bond_atom_site_label_1
_geom_bond_atom_site_label_2
_geom_bond_distance
_geom_bond_site_symmetry_2
_ccdc_geom_bond_type
Zn0 O6 1.969 . S
Zn0 O7 1.965 1_556 S
Zn0 O11 2.024 1_656 S
Zn0 O16 1.969 1_655 S
Zn1 O8 1.969 . S
Zn1 O14 1.969 . S
Zn1 O15 1.965 1_554 S
Zn1 O17 2.024 1_554 S
C2 O3 1.229 1_455 S
C2 O11 1.058 1_556 S
O3 C2 1.229 1_655 S
C4 O5 1.229 . S
C4 O17 1.058 1_554 S
O5 C4 1.229 . S
O6 Zn0 1.969 . S
O6 C9 1.267 1_556 S
O7 Zn0 1.965 1_554 S
O7 C18 1.260 1_665 S
O8 Zn1 1.969 . S
O8 C18 1.258 . S
C9 O6 1.267 1_554 S
C9 O10 1.228 . S
O10 C9 1.228 . S
O11 Zn0 2.024 1_454 S
O11 C2 1.058 1_554 S
C12 O13 1.228 . S
C12 O14 1.267 1_556 S
O13 C12 1.228 . S
O14 Zn1 1.969 . S
O14 C12 1.267 1_554 S
O15 Zn1 1.965 1_556 S
O15 C19 1.260 . S
O16 Zn0 1.969 1_455 S
O16 C19 1.258 1_565 S
O17 Zn1 2.024 1_556 S
O17 C4 1.058 1_556 S
C18 O7 1.260 1_445 S
C18 O8 1.258 . S
C19 O15 1.260 . S
C19 O16 1.258 1_545 S
Zn20 O26 1.969 1_565 S
Zn20 O27 1.965 1_565 S
Zn20 O31 2.024 . S
Zn20 O36 1.969 . S
Zn21 O28 1.969 . S
Zn21 O34 1.969 . S
Zn21 O35 1.965 . S
Zn21 O37 2.024 1_655 S
C22 O23 1.229 . S
C22 O31 1.058 . S
O23 C22 1.229 . S
C24 O25 1.229 . S
C24 O37 1.058 1_655 S
O25 C24 1.229 . S
O26 Zn20 1.969 1_545 S
O26 C29 1.267 . S
O27 Zn20 1.965 1_545 S
O27 C38 1.260 . S
O28 Zn21 1.969 . S
O28 C38 1.258 1_655 S
C29 O26 1.267 . S
C29 O30 1.228 1_545 S
O30 C29 1.228 1_565 S
O31 Zn20 2.024 . S
O31 C22 1.058 . S
C32 O33 1.228 . S
C32 O34 1.267 . S
O33 C32 1.228 . S
O34 Zn21 1.969 . S
O34 C32 1.267 . S
O35 Zn21 1.965 . S
O35 C39 1.260 1_655 S
O36 Zn20 1.969 . S
O36 C39 1.258 1_565 S
O37 Zn21 2.024 1_455 S
O37 C24 1.058 1_455 S
C38 O27 1.260 . S
C38 O28 1.258 1_455 S
C39 O35 1.260 1_455 S
C39 O36 1.258 1_545 S
Zn40 O46 1.969 . S
Zn40 O47 1.965 . S
Zn40 O51 2.024 . S
Zn40 O56 1.969 . S
Zn41 O48 1.969 . S
Zn41 O54 1.969 . S
Zn41 O55 1.965 . S
Zn41 O57 2.024 1_565 S
C42 O43 1.229 . S
C42 O51 1.058 . S
O43 C42 1.229 . S
C44 O45 1.229 1_545 S
C44 O57 1.058 . S
O45 C44 1.229 1_565 S
O46 Zn40 1.969 . S
O46 C49 1.267 . S
O47 Zn40 1.965 . S
O47 C58 1.260 . S
O48 Zn41 1.969 . S
O48 C58 1.258 1_665 S
C49 O46 1.267 . S
C49 O50 1.228 . S
O50 C49 1.228 . S
O51 Zn40 2.024 . S
O51 C42 1.058 . S
C52 O53 1.228 . S
C52 O54 1.267 . S
O53 C52 1.228 . S
O54 Zn41 1.969 . S
O54 C52 1.267 . S
O55 Zn41 1.965 . S
O55 C59 1.260 1_665 S
O56 Zn40 1.969 . S
O56 C59 1.258 . S
O57 Zn41 2.024 1_545 S
O57 C44 1.058 . S
C58 O47 1.260 . S
C58 O48 1.258 1_445 S
C59 O55 1.260 1_445 S
C59 O56 1.258 . S
C60 C61 1.385 1_556 S
C60 C62 1.394 . S
C60 H76 0.931 . S
C61 C60 1.385 1_554 S
C61 C65 1.380 1_455 S
C62 C60 1.394 . S
C62 C63 1.369 . S
C62 C66 1.531 . S
C63 C62 1.369 . S
C63 C64 1.410 1_456 S
C63 C71 1.503 . S
C64 C63 1.410 1_654 S
C64 C65 1.392 . S
C64 C67 1.511 . S
C65 C61 1.380 1_655 S
C65 C64 1.392 . S
C65 H77 0.929 . S
C66 C62 1.531 . S
C66 H78 0.960 . S
C66 H79 0.962 . S
C66 H80 0.960 . S
C67 C64 1.511 . S
C67 H81 0.961 . S
C67 H82 0.961 . S
C67 H83 0.961 1_554 S
C68 C69 1.370 1_554 S
C68 C70 1.363 . S
C68 H84 0.931 . S
C69 C68 1.370 1_556 S
C69 C73 1.408 . S
C70 C68 1.363 . S
C70 C71 1.370 1_554 S
C70 C74 1.524 . S
C71 C63 1.503 . S
C71 C70 1.370 1_556 S
C71 C72 1.403 . S
C72 C71 1.403 . S
C72 C73 1.404 . S
C72 C75 1.539 1_455 S
C73 C69 1.408 . S
C73 C72 1.404 . S
C73 H85 0.930 1_455 S
C74 C70 1.524 . S
C74 H86 0.956 . S
C74 H87 0.961 . S
C74 H88 0.961 . S
C75 C72 1.539 1_655 S
C75 H89 0.964 . S
C75 H90 0.961 . S
C75 H91 0.960 . S
H76 C60 0.931 . S
H77 C65 0.929 . S
H78 C66 0.960 . S
H79 C66 0.962 . S
H80 C66 0.960 . S
H81 C67 0.961 . S
H82 C67 0.961 . S
H83 C67 0.961 1_556 S
H84 C68 0.931 . S
H85 C73 0.930 1_655 S
H86 C74 0.956 . S
H87 C74 0.961 . S
H88 C74 0.961 . S
H89 C75 0.964 . S
H90 C75 0.961 . S
H91 C75 0.960 . S
C92 C93 1.391 1_565 S
C92 C94 1.394 . S
C92 H108 0.931 . S
C93 C92 1.391 1_545 S
C93 C97 1.376 . S
C94 C92 1.394 . S
C94 C95 1.369 1_565 S
C94 C98 1.531 . S
C95 C94 1.369 1_545 S
C95 C96 1.410 . S
C95 C103 1.503 . S
C96 C95 1.410 . S
C96 C97 1.392 . S
C96 C99 1.511 . S
C97 C93 1.376 . S
C97 C96 1.392 . S
C97 H109 0.929 . S
C98 C94 1.531 . S
C98 H110 0.960 . S
C98 H111 0.962 . S
C98 H112 0.960 . S
C99 C96 1.511 . S
C99 H113 0.961 . S
C99 H114 0.961 . S
C99 H115 0.961 . S
C100 C101 1.370 . S
C100 C102 1.363 . S
C100 H116 0.931 . S
C101 C100 1.370 . S
C101 C105 1.408 . S
C102 C100 1.363 . S
C102 C103 1.370 . S
C102 C106 1.524 . S
C103 C95 1.503 . S
C103 C102 1.370 . S
C103 C104 1.403 . S
C104 C103 1.403 . S
C104 C105 1.404 . S
C104 C107 1.539 . S
C105 C101 1.408 . S
C105 C104 1.404 . S
C105 H117 0.930 . S
C106 C102 1.524 . S
C106 H118 0.956 1_545 S
C106 H119 0.961 . S
C106 H120 0.961 . S
C107 C104 1.539 . S
C107 H121 0.958 1_545 S
C107 H122 0.961 . S
C107 H123 0.960 . S
H108 C92 0.931 . S
H109 C97 0.929 . S
H110 C98 0.960 . S
H111 C98 0.962 . S
H112 C98 0.960 . S
H113 C99 0.961 . S
H114 C99 0.961 . S
H115 C99 0.961 . S
H116 C100 0.931 . S
H117 C105 0.930 . S
H118 C106 0.956 1_565 S
H119 C106 0.961 . S
H120 C106 0.961 . S
H121 C107 0.958 1_565 S
H122 C107 0.961 . S
H123 C107 0.960 . S
C124 C125 1.391 . S
C124 C126 1.394 . S
C124 H140 0.931 . S
C125 C124 1.391 . S
C125 C129 1.376 . S
C126 C124 1.394 . S
C126 C127 1.369 . S
C126 C130 1.531 . S
C127 C126 1.369 . S
C127 C128 1.410 . S
C127 C135 1.503 . S
C128 C127 1.410 . S
C128 C129 1.392 . S
C128 C131 1.511 . S
C129 C125 1.376 . S
C129 C128 1.392 . S
C129 H141 0.929 . S
C130 C126 1.531 . S
C130 H142 0.960 . S
C130 H143 0.962 . S
C130 H144 0.960 . S
C131 C128 1.511 . S
C131 H145 0.961 . S
C131 H146 0.961 . S
C131 H147 0.961 . S
C132 C133 1.370 . S
C132 C134 1.363 . S
C132 H148 0.931 . S
C133 C132 1.370 . S
C133 C137 1.408 . S
C134 C132 1.363 . S
C134 C135 1.370 . S
C134 C138 1.524 . S
C135 C127 1.503 . S
C135 C134 1.370 . S
C135 C136 1.403 . S
C136 C135 1.403 . S
C136 C137 1.404 . S
C136 C139 1.539 . S
C137 C133 1.408 . S
C137 C136 1.404 . S
C137 H149 0.930 . S
C138 C134 1.524 . S
C138 H150 0.956 . S
C138 H151 0.961 . S
C138 H152 0.961 . S
C139 C136 1.539 . S
C139 H153 0.958 . S
C139 H154 0.961 . S
C139 H155 0.960 . S
H140 C124 0.931 . S
H141 C129 0.929 . S
H142 C130 0.960 . S
H143 C130 0.962 . S
H144 C130 0.960 . S
H145 C131 0.961 . S
H146 C131 0.961 . S
H147 C131 0.961 . S
H148 C132 0.931 . S
H149 C137 0.930 . S
H150 C138 0.956 . S
H151 C138 0.961 . S
H152 C138 0.961 . S
H153 C139 0.958 . S
H154 C139 0.961 . S
H155 C139 0.960 . S
C156 C157 1.391 . S
C156 C158 1.394 . S
C156 H172 0.931 . S
C157 C156 1.391 . S
C157 C161 1.376 . S
C158 C156 1.394 . S
C158 C159 1.369 . S
C158 C162 1.531 1_545 S
C159 C158 1.369 . S
C159 C160 1.410 . S
C159 C167 1.503 . S
C160 C159 1.410 . S
C160 C161 1.392 . S
C160 C163 1.511 . S
C161 C157 1.376 . S
C161 C160 1.392 . S
C161 H173 0.929 . S
C162 C158 1.531 1_565 S
C162 H174 0.960 . S
C162 H175 0.962 1_565 S
C162 H176 0.960 . S
C163 C160 1.511 . S
C163 H177 0.961 . S
C163 H178 0.961 . S
C163 H179 0.961 1_545 S
C164 C165 1.370 . S
C164 C166 1.363 . S
C164 H180 0.931 . S
C165 C164 1.370 . S
C165 C169 1.408 1_545 S
C166 C164 1.363 . S
C166 C167 1.370 . S
C166 C170 1.524 . S
C167 C159 1.503 . S
C167 C166 1.370 . S
C167 C168 1.403 1_545 S
C168 C167 1.403 1_565 S
C168 C169 1.404 . S
C168 C171 1.539 . S
C169 C165 1.408 1_565 S
C169 C168 1.404 . S
C169 H181 0.930 . S
C170 C166 1.524 . S
C170 H182 0.956 . S
C170 H183 0.961 . S
C170 H184 0.961 . S
C171 C168 1.539 . S
C171 H185 0.958 . S
C171 H186 0.961 . S
C171 H187 0.960 . S
H172 C156 0.931 . S
H173 C161 0.929 . S
H174 C162 0.960 . S
H175 C162 0.962 1_545 S
H176 C162 0.960 . S
H177 C163 0.961 . S
H178 C163 0.961 . S
H179 C163 0.961 1_565 S
H180 C164 0.931 . S
H181 C169 0.930 . S
H182 C170 0.956 . S
H183 C170 0.961 . S
H184 C170 0.961 . S
H185 C171 0.958 . S
H186 C171 0.961 . S
H187 C171 0.960 . S
C188 C189 1.384 1_554 S
C188 C190 1.397 1_554 S
C188 H204 0.935 . S
C189 C188 1.384 1_556 S
C189 C193 1.377 . S
C190 C188 1.397 1_556 S
C190 C191 1.369 . S
C190 C194 1.529 1_556 S
C191 C190 1.369 . S
C191 C192 1.410 . S
C191 C199 1.503 . S
C192 C191 1.410 . S
C192 C193 1.392 . S
C192 C195 1.511 . S
C193 C189 1.377 . S
C193 C192 1.392 . S
C193 H205 0.929 . S
C194 C190 1.529 1_554 S
C194 H206 0.957 1_554 S
C194 H207 0.970 . S
C194 H208 0.957 1_554 S
C195 C192 1.511 . S
C195 H209 0.961 . S
C195 H210 0.961 . S
C195 H211 0.961 . S
C196 C197 1.345 1_554 S
C196 C198 1.363 . S
C196 H212 0.931 . S
C197 C196 1.345 1_556 S
C197 C201 1.442 . S
C198 C196 1.363 . S
C198 C199 1.370 1_554 S
C198 C202 1.524 . S
C199 C191 1.503 . S
C199 C198 1.370 1_556 S
C199 C200 1.403 . S
C200 C199 1.403 . S
C200 C201 1.404 . S
C200 C203 1.539 . S
C201 C197 1.442 . S
C201 C200 1.404 . S
C201 H213 0.930 . S
C202 C198 1.524 . S
C202 H214 0.956 . S
C202 H215 0.961 . S
C202 H216 0.961 . S
C203 C200 1.539 . S
C203 H217 0.958 . S
C203 H218 0.961 . S
C203 H219 0.960 . S
H204 C188 0.935 . S
H205 C193 0.929 . S
H206 C194 0.957 1_556 S
H207 C194 0.970 . S
H208 C194 0.957 1_556 S
H209 C195 0.961 . S
H210 C195 0.961 . S
H211 C195 0.961 . S
H212 C196 0.931 . S
H213 C201 0.930 . S
H214 C202 0.956 . S
H215 C202 0.961 . S
H216 C202 0.961 . S
H217 C203 0.958 . S
H218 C203 0.961 . S
H219 C203 0.960 . S
C220 C221 1.391 1_655 S
C220 C222 1.394 . S
C220 H236 0.931 . S
C221 C220 1.391 1_455 S
C221 C225 1.376 . S
C222 C220 1.394 . S
C222 C223 1.369 . S
C222 C226 1.531 . S
C223 C222 1.369 . S
C223 C224 1.410 1_655 S
C223 C231 1.503 . S
C224 C223 1.410 1_455 S
C224 C225 1.392 . S
C224 C227 1.511 . S
C225 C221 1.376 . S
C225 C224 1.392 . S
C225 H237 0.929 . S
C226 C222 1.531 . S
C226 H238 0.960 . S
C226 H239 0.962 . S
C226 H240 0.960 . S
C227 C224 1.511 . S
C227 H241 0.961 . S
C227 H242 0.961 . S
C227 H243 0.961 . S
C228 C229 1.370 . S
C228 C230 1.363 . S
C228 H244 0.931 . S
C229 C228 1.370 . S
C229 C233 1.408 1_455 S
C230 C228 1.363 . S
C230 C231 1.370 1_455 S
C230 C234 1.524 . S
C231 C223 1.503 . S
C231 C230 1.370 1_655 S
C231 C232 1.403 . S
C232 C231 1.403 . S
C232 C233 1.404 . S
C232 C235 1.539 . S
C233 C229 1.408 1_655 S
C233 C232 1.404 . S
C233 H245 0.930 . S
C234 C230 1.524 . S
C234 H246 0.956 . S
C234 H247 0.961 . S
C234 H248 0.961 . S
C235 C232 1.539 . S
C235 H249 0.958 . S
C235 H250 0.961 . S
C235 H251 0.960 . S
H236 C220 0.931 . S
H237 C225 0.929 . S
H238 C226 0.960 . S
H239 C226 0.962 . S
H240 C226 0.960 . S
H241 C227 0.961 . S
H242 C227 0.961 . S
H243 C227 0.961 . S
H244 C228 0.931 . S
H245 C233 0.930 . S
H246 C234 0.956 . S
H247 C234 0.961 . S
H248 C234 0.961 . S
H249 C235 0.958 . S
H250 C235 0.961 . S
H251 C235 0.960 . S
C252 C253 1.391 1_565 S
C252 C254 1.394 . S
C252 H268 0.931 . S
C253 C252 1.391 1_545 S
C253 C257 1.376 1_455 S
C254 C252 1.394 . S
C254 C255 1.369 1_565 S
C254 C258 1.531 . S
C255 C254 1.369 1_545 S
C255 C256 1.410 1_455 S
C255 C263 1.503 . S
C256 C255 1.410 1_655 S
C256 C257 1.392 . S
C256 C259 1.511 . S
C257 C253 1.376 1_655 S
C257 C256 1.392 . S
C257 H269 0.929 . S
C258 C254 1.531 . S
C258 H270 0.960 . S
C258 H271 0.962 . S
C258 H272 0.960 . S
C259 C256 1.511 . S
C259 H273 0.961 . S
C259 H274 0.961 . S
C259 H275 0.961 . S
C260 C261 1.370 . S
C260 C262 1.363 . S
C260 H276 0.931 . S
C261 C260 1.370 . S
C261 C265 1.408 1_445 S
C262 C260 1.363 . S
C262 C263 1.370 . S
C262 C266 1.524 . S
C263 C255 1.503 . S
C263 C262 1.370 . S
C263 C264 1.403 1_445 S
C264 C263 1.403 1_665 S
C264 C265 1.404 . S
C264 C267 1.539 . S
C265 C261 1.408 1_665 S
C265 C264 1.404 . S
C265 H277 0.930 . S
C266 C262 1.524 . S
C266 H278 0.956 . S
C266 H279 0.961 . S
C266 H280 0.961 . S
C267 C264 1.539 . S
C267 H281 0.958 . S
C267 H282 0.961 . S
C267 H283 0.960 . S
H268 C252 0.931 . S
H269 C257 0.929 . S
H270 C258 0.960 . S
H271 C258 0.962 . S
H272 C258 0.960 . S
H273 C259 0.961 . S
H274 C259 0.961 . S
H275 C259 0.961 . S
H276 C260 0.931 . S
H277 C265 0.930 . S
H278 C266 0.956 . S
H279 C266 0.961 . S
H280 C266 0.961 . S
H281 C267 0.958 . S
H282 C267 0.961 . S
H283 C267 0.960 . S
C284 C285 1.391 1_665 S
C284 C286 1.394 . S
C284 H300 0.931 . S
C285 C284 1.391 1_445 S
C285 C289 1.376 . S
C286 C284 1.394 . S
C286 C287 1.369 1_665 S
C286 C290 1.531 . S
C287 C286 1.369 1_445 S
C287 C288 1.410 . S
C287 C295 1.503 . S
C288 C287 1.410 . S
C288 C289 1.392 . S
C288 C291 1.511 . S
C289 C285 1.376 . S
C289 C288 1.392 . S
C289 H301 0.929 . S
C290 C286 1.531 . S
C290 H302 0.960 . S
C290 H303 0.962 . S
C290 H304 0.960 . S
C291 C288 1.511 . S
C291 H305 0.961 . S
C291 H306 0.961 . S
C291 H307 0.961 . S
C292 C293 1.370 . S
C292 C294 1.363 . S
C292 H308 0.931 . S
C293 C292 1.370 . S
C293 C297 1.408 1_545 S
C294 C292 1.363 . S
C294 C295 1.370 . S
C294 C298 1.524 . S
C295 C287 1.503 . S
C295 C294 1.370 . S
C295 C296 1.403 1_545 S
C296 C295 1.403 1_565 S
C296 C297 1.404 . S
C296 C299 1.539 . S
C297 C293 1.408 1_565 S
C297 C296 1.404 . S
C297 H309 0.930 . S
C298 C294 1.524 . S
C298 H310 0.956 1_455 S
C298 H311 0.961 . S
C298 H312 0.961 . S
C299 C296 1.539 . S
C299 H313 0.958 1_455 S
C299 H314 0.961 . S
C299 H315 0.960 . S
H300 C284 0.931 . S
H301 C289 0.929 . S
H302 C290 0.960 . S
H303 C290 0.962 . S
H304 C290 0.960 . S
H305 C291 0.961 . S
H306 C291 0.961 . S
H307 C291 0.961 . S
H308 C292 0.931 . S
H309 C297 0.930 . S
H310 C298 0.956 1_655 S
H311 C298 0.961 . S
H312 C298 0.961 . S
H313 C299 0.958 1_655 S
H314 C299 0.961 . S
H315 C299 0.960 . S
C316 C317 1.391 1_665 S
C316 C318 1.394 . S
C316 H332 0.931 . S
C317 C316 1.391 1_445 S
C317 C321 1.376 . S
C318 C316 1.394 . S
C318 C319 1.369 1_665 S
C318 C322 1.531 . S
C319 C318 1.369 1_445 S
C319 C320 1.410 . S
C319 C327 1.503 . S
C320 C319 1.410 . S
C320 C321 1.392 . S
C320 C323 1.511 . S
C321 C317 1.376 . S
C321 C320 1.392 . S
C321 H333 0.929 . S
C322 C318 1.531 . S
C322 H334 0.960 . S
C322 H335 0.962 . S
C322 H336 0.960 . S
C323 C320 1.511 . S
C323 H337 0.961 . S
C323 H338 0.961 . S
C323 H339 0.961 . S
C324 C325 1.370 . S
C324 C326 1.363 . S
C324 H340 0.931 . S
C325 C324 1.370 . S
C325 C329 1.408 1_545 S
C326 C324 1.363 . S
C326 C327 1.370 . S
C326 C330 1.524 . S
C327 C319 1.503 . S
C327 C326 1.370 . S
C327 C328 1.403 1_545 S
C328 C327 1.403 1_565 S
C328 C329 1.404 . S
C328 C331 1.539 . S
C329 C325 1.408 1_565 S
C329 C328 1.404 . S
C329 H341 0.930 . S
C330 C326 1.524 . S
C330 H342 0.956 . S
C330 H343 0.961 . S
C330 H344 0.961 . S
C331 C328 1.539 . S
C331 H345 0.958 1_455 S
C331 H346 0.961 . S
C331 H347 0.960 . S
H332 C316 0.931 . S
H333 C321 0.929 . S
H334 C322 0.960 . S
H335 C322 0.962 . S
H336 C322 0.960 . S
H337 C323 0.961 . S
H338 C323 0.961 . S
H339 C323 0.961 . S
H340 C324 0.931 . S
H341 C329 0.930 . S
H342 C330 0.956 . S
H343 C330 0.961 . S
H344 C330 0.961 . S
H345 C331 0.958 1_655 S
H346 C331 0.961 . S
H347 C331 0.960 . S
C61 C4 1.430 . S
C69 C2 1.394 . S
C93 C29 1.096 . S
C101 C32 1.105 . S
C125 C52 1.234 . S
C133 C49 1.276 . S
C157 C44 1.525 . S
C165 C42 1.584 . S
C189 C9 1.268 1_556 S
C197 C12 1.250 . S
C221 C24 1.369 1_455 S
C229 C22 1.418 . S
C253 C38 1.494 . S
C261 C18 1.481 . S
C285 C39 1.457 . S
C293 C58 1.496 . S
C317 C59 1.474 . S
C325 C19 1.488 . S
