# Generated by pormake.
# Topology una, (4)-cn, num edge types: 1
# Building blocks:
#     Node 0, Type 0, BuildingBlock: NAHDIM_clean_sbu_0, # of connection points: 4
#     Node 1, Type 0, BuildingBlock: NAHDIM_clean_sbu_0, # of connection points: 4
#     Node 2, Type 0, BuildingBlock: NAHDIM_clean_sbu_0, # of connection points: 4
#     Node 3, Type 0, BuildingBlock: NAHDIM_clean_sbu_0, # of connection points: 4
#     Node 4, Type 0, BuildingBlock: NAHDIM_clean_sbu_0, # of connection points: 4
#     Node 5, Type 0, BuildingBlock: NAHDIM_clean_sbu_0, # of connection points: 4
#     Node 6, Type 0, BuildingBlock: NAHDIM_clean_sbu_0, # of connection points: 4
#     Node 7, Type 0, BuildingBlock: NAHDIM_clean_sbu_0, # of connection points: 4
#     Node 8, Type 0, BuildingBlock: NAHDIM_clean_sbu_0, # of connection points: 4
#     Node 9, Type 0, BuildingBlock: NAHDIM_clean_sbu_0, # of connection points: 4
#     Node 10, Type 0, BuildingBlock: NAHDIM_clean_sbu_0, # of connection points: 4
#     Node 11, Type 0, BuildingBlock: NAHDIM_clean_sbu_0, # of connection points: 4
#     Edge 12, Type (0, 0), BuildingBlock: MIFKUJ_clean_linker_0, # of connection points: 2
#     Edge 13, Type (0, 0), BuildingBlock: MIFKUJ_clean_linker_0, # of connection points: 2
#     Edge 14, Type (0, 0), BuildingBlock: MIFKUJ_clean_linker_0, # of connection points: 2
#     Edge 15, Type (0, 0), BuildingBlock: MIFKUJ_clean_linker_0, # of connection points: 2
#     Edge 16, Type (0, 0), BuildingBlock: MIFKUJ_clean_linker_0, # of connection points: 2
#     Edge 17, Type (0, 0), BuildingBlock: MIFKUJ_clean_linker_0, # of connection points: 2
#     Edge 18, Type (0, 0), BuildingBlock: MIFKUJ_clean_linker_0, # of connection points: 2
#     Edge 19, Type (0, 0), BuildingBlock: MIFKUJ_clean_linker_0, # of connection points: 2
#     Edge 20, Type (0, 0), BuildingBlock: MIFKUJ_clean_linker_0, # of connection points: 2
#     Edge 21, Type (0, 0), BuildingBlock: MIFKUJ_clean_linker_0, # of connection points: 2
#     Edge 22, Type (0, 0), BuildingBlock: MIFKUJ_clean_linker_0, # of connection points: 2
#     Edge 23, Type (0, 0), BuildingBlock: MIFKUJ_clean_linker_0, # of connection points: 2
#     Edge 24, Type (0, 0), BuildingBlock: MIFKUJ_clean_linker_0, # of connection points: 2
#     Edge 25, Type (0, 0), BuildingBlock: MIFKUJ_clean_linker_0, # of connection points: 2
#     Edge 26, Type (0, 0), BuildingBlock: MIFKUJ_clean_linker_0, # of connection points: 2
#     Edge 27, Type (0, 0), BuildingBlock: MIFKUJ_clean_linker_0, # of connection points: 2
#     Edge 28, Type (0, 0), BuildingBlock: MIFKUJ_clean_linker_0, # of connection points: 2
#     Edge 29, Type (0, 0), BuildingBlock: MIFKUJ_clean_linker_0, # of connection points: 2
#     Edge 30, Type (0, 0), BuildingBlock: MIFKUJ_clean_linker_0, # of connection points: 2
#     Edge 31, Type (0, 0), BuildingBlock: MIFKUJ_clean_linker_0, # of connection points: 2
#     Edge 32, Type (0, 0), BuildingBlock: MIFKUJ_clean_linker_0, # of connection points: 2
#     Edge 33, Type (0, 0), BuildingBlock: MIFKUJ_clean_linker_0, # of connection points: 2
#     Edge 34, Type (0, 0), BuildingBlock: MIFKUJ_clean_linker_0, # of connection points: 2
#     Edge 35, Type (0, 0), BuildingBlock: MIFKUJ_clean_linker_0, # of connection points: 2
# Relax obj value: 0.123
# Max RMSD: 0.175
# Mean RMSD: 0.173
data_MOF--net-una--node1-NAHDIM_clean_sbu_0--edge1-MIFKUJ_clean_linker_0
_symmetry_space_group_name_H-M    P1
_symmetry_Int_Tables_number       1
_symmetry_cell_setting            triclinic
loop_
_symmetry_equiv_pos_as_xyz
'x, y, z'
_cell_length_a     75.348019
_cell_length_b     74.298953
_cell_length_c     27.69297
_cell_angle_alpha  90.020747
_cell_angle_beta   89.959506
_cell_angle_gamma 120.44821
loop_
_atom_site_label
_atom_site_type_symbol
_atom_site_fract_x
_atom_site_fract_y
_atom_site_fract_z
_atom_type_partial_charge
C0 C 0.10564 0.43351 0.98876 0.0
O1 O 0.11955 0.45293 0.97859 0.0
O2 O 0.1591 0.44869 0.00957 0.0
Zn3 Zn 0.13611 0.44153 0.05677 0.0
O4 O 0.13754 0.46804 0.0787 0.0
C5 C 0.1439 0.41254 0.10694 0.0
O6 O 0.1462 0.40762 0.06273 0.0
O7 O 0.10921 0.42426 0.02267 0.0
C8 C 0.15273 0.48239 0.10162 0.0
O9 O 0.16821 0.47985 0.11328 0.0
C10 C 0.17718 0.45357 0.02253 0.0
O11 O 0.1814 0.45414 0.06871 0.0
O12 O 0.13876 0.42622 0.11337 0.0
C13 C 0.7263 0.15326 0.30171 0.0
O14 O 0.71819 0.16332 0.2809 0.0
O15 O 0.67651 0.12663 0.24913 0.0
Zn16 Zn 0.70195 0.126 0.2301 0.0
O17 O 0.71624 0.14666 0.17666 0.0
C18 C 0.67924 0.08137 0.2276 0.0
O19 O 0.67021 0.08394 0.26542 0.0
O20 O 0.7213 0.13519 0.28636 0.0
C21 C 0.71273 0.14233 0.13205 0.0
O22 O 0.69898 0.12326 0.11893 0.0
C23 C 0.66108 0.11981 0.22111 0.0
O24 O 0.66174 0.1121 0.17888 0.0
O25 O 0.69404 0.09728 0.20758 0.0
C26 C 0.58557 0.67806 0.357 0.0
O27 O 0.57204 0.67014 0.39217 0.0
O28 O 0.5634 0.71428 0.2791 0.0
Zn29 Zn 0.56665 0.70283 0.34222 0.0
O30 O 0.53936 0.67804 0.36053 0.0
C31 C 0.56716 0.73587 0.39344 0.0
O32 O 0.55141 0.73032 0.36456 0.0
O33 O 0.58675 0.693 0.33214 0.0
C34 C 0.53157 0.67401 0.4026 0.0
O35 O 0.54162 0.68679 0.43833 0.0
C36 C 0.54589 0.71037 0.26379 0.0
O37 O 0.52933 0.69807 0.28905 0.0
O38 O 0.57659 0.72573 0.39203 0.0
C39 C 0.90133 0.58177 0.53904 0.0
O40 O 0.89788 0.56649 0.56853 0.0
O41 O 0.83972 0.55857 0.49318 0.0
Zn42 Zn 0.85781 0.56524 0.55132 0.0
O43 O 0.85569 0.53866 0.57513 0.0
C44 C 0.82984 0.57248 0.60453 0.0
O45 O 0.81727 0.5592 0.5722 0.0
O46 O 0.8867 0.58495 0.52894 0.0
C47 C 0.83945 0.52097 0.57015 0.0
O48 O 0.82309 0.51991 0.55043 0.0
C49 C 0.84391 0.55259 0.45405 0.0
O50 O 0.8604 0.55085 0.45181 0.0
O51 O 0.84876 0.57786 0.60325 0.0
C52 C 0.29405 0.86316 0.82892 0.0
O53 O 0.31374 0.87014 0.83571 0.0
O54 O 0.33072 0.86841 0.74002 0.0
Zn55 Zn 0.30504 0.86949 0.727 0.0
O56 O 0.28805 0.84774 0.67778 0.0
C57 C 0.31823 0.9015 0.65696 0.0
O58 O 0.31743 0.88647 0.63032 0.0
O59 O 0.28747 0.86246 0.78637 0.0
C60 C 0.27231 0.84726 0.65989 0.0
O61 O 0.2678 0.86148 0.67303 0.0
C62 C 0.33098 0.8515 0.73613 0.0
O63 O 0.31393 0.83422 0.72481 0.0
O64 O 0.31325 0.89798 0.70127 0.0
C65 C 0.40771 0.31923 0.81778 0.0
O66 O 0.42576 0.32498 0.7985 0.0
O67 O 0.42651 0.28421 0.81721 0.0
Zn68 Zn 0.42156 0.29791 0.87425 0.0
O69 O 0.44812 0.32293 0.89537 0.0
C70 C 0.39953 0.25771 0.91877 0.0
O71 O 0.39411 0.25181 0.87384 0.0
O72 O 0.4018 0.30698 0.85385 0.0
C73 C 0.46122 0.32085 0.9199 0.0
O74 O 0.45717 0.30203 0.93184 0.0
C75 C 0.44368 0.29047 0.79627 0.0
O76 O 0.46012 0.30748 0.81153 0.0
O77 O 0.41042 0.27707 0.92823 0.0
C78 C 0.57837 0.88159 0.73056 0.0
O79 O 0.56498 0.88755 0.72179 0.0
O80 O 0.53985 0.8785 0.81038 0.0
Zn81 Zn 0.56659 0.88096 0.8309 0.0
O82 O 0.56114 0.85714 0.87448 0.0
C83 C 0.57346 0.91066 0.90222 0.0
O84 O 0.55359 0.89771 0.90711 0.0
O85 O 0.5821 0.87912 0.77399 0.0
C86 C 0.54527 0.84701 0.9008 0.0
O87 O 0.53073 0.85181 0.90006 0.0
C88 C 0.52537 0.86187 0.79186 0.0
O89 O 0.5281 0.84595 0.7846 0.0
O90 O 0.58313 0.90726 0.86919 0.0
C91 C 0.6619 0.56067 0.11764 0.0
O92 O 0.65732 0.5419 0.13165 0.0
O93 O 0.69897 0.54532 0.08814 0.0
Zn94 Zn 0.68093 0.55039 0.04359 0.0
O95 O 0.65576 0.52322 0.02451 0.0
C96 C 0.71521 0.58131 0.99029 0.0
O97 O 0.72164 0.58855 0.03401 0.0
O98 O 0.67216 0.5681 0.07899 0.0
C99 C 0.65259 0.50558 0.03893 0.0
O100 O 0.66623 0.50477 0.06693 0.0
C101 C 0.71243 0.54113 0.07315 0.0
O102 O 0.71454 0.53951 0.02652 0.0
O103 O 0.69747 0.56525 0.98499 0.0
C104 C 0.0839 0.65969 0.25553 0.0
O105 O 0.09542 0.65204 0.26949 0.0
O106 O 0.13449 0.69949 0.28775 0.0
Zn107 Zn 0.12258 0.6885 0.22218 0.0
O108 O 0.12828 0.66598 0.20129 0.0
C109 C 0.15399 0.72733 0.18548 0.0
O110 O 0.16228 0.7264 0.22639 0.0
O111 O 0.09207 0.67621 0.23005 0.0
C112 C 0.14626 0.66852 0.19914 0.0
O113 O 0.1622 0.68673 0.21053 0.0
C114 C 0.14159 0.69206 0.31842 0.0
O115 O 0.1411 0.67447 0.30931 0.0
O116 O 0.13599 0.71259 0.17477 0.0
C117 C 0.44247 0.14229 0.25923 0.0
O118 O 0.46085 0.14454 0.25477 0.0
O119 O 0.47131 0.13026 0.33829 0.0
Zn120 Zn 0.44606 0.13121 0.3573 0.0
O121 O 0.45319 0.15495 0.40295 0.0
C122 C 0.42616 0.10261 0.43571 0.0
O123 O 0.43925 0.11889 0.4612 0.0
O124 O 0.43297 0.13596 0.29915 0.0
C125 C 0.43823 0.15721 0.41565 0.0
O126 O 0.41985 0.14443 0.39796 0.0
C127 C 0.48562 0.13421 0.36813 0.0
O128 O 0.48407 0.13934 0.41269 0.0
O129 O 0.42613 0.10411 0.38996 0.0
C130 C 0.30534 0.41394 0.59341 0.0
O131 O 0.28817 0.41272 0.60797 0.0
O132 O 0.29717 0.4563 0.59668 0.0
Zn133 Zn 0.30963 0.44929 0.54126 0.0
O134 O 0.3354 0.47563 0.52251 0.0
C135 C 0.27012 0.42728 0.49718 0.0
O136 O 0.26449 0.4244 0.54274 0.0
O137 O 0.31686 0.42817 0.56374 0.0
C138 C 0.34295 0.4801 0.48024 0.0
O139 O 0.33355 0.46683 0.44486 0.0
C140 C 0.30652 0.46214 0.63684 0.0
O141 O 0.32471 0.46396 0.64137 0.0
O142 O 0.28918 0.43763 0.48682 0.0
C143 C 0.91435 0.34354 0.73119 0.0
O144 O 0.91183 0.35498 0.69883 0.0
O145 O 0.84909 0.29724 0.75829 0.0
Zn146 Zn 0.87147 0.3164 0.71304 0.0
O147 O 0.86832 0.34106 0.69805 0.0
C148 C 0.86764 0.28298 0.6548 0.0
O149 O 0.87204 0.27731 0.69591 0.0
O150 O 0.8991 0.32591 0.74275 0.0
C151 C 0.85187 0.33857 0.67915 0.0
O152 O 0.83678 0.31957 0.6698 0.0
C153 C 0.84912 0.30099 0.80301 0.0
O154 O 0.86436 0.31832 0.82104 0.0
O155 O 0.86767 0.30008 0.65282 0.0
H156 H 0.1726 0.40063 0.10642 0.0
H157 H 0.18952 0.39603 0.17633 0.0
H158 H 0.14835 0.40385 0.27107 0.0
H159 H 0.13215 0.40965 0.20098 0.0
H160 H 0.18453 0.42826 0.29857 0.0
H161 H 0.1491 0.35604 0.25936 0.0
H162 H 0.13637 0.32476 0.20811 0.0
H163 H 0.1985 0.34033 0.17841 0.0
H164 H 0.21163 0.37188 0.22895 0.0
H165 H 0.22902 0.41252 0.50738 0.0
H166 H 0.20353 0.40314 0.4433 0.0
H167 H 0.2499 0.41546 0.33622 0.0
H168 H 0.27568 0.42516 0.40011 0.0
H169 H 0.20843 0.37766 0.32051 0.0
H170 H 0.24241 0.45227 0.35371 0.0
H171 H 0.25402 0.48264 0.40758 0.0
H172 H 0.1916 0.46009 0.45185 0.0
H173 H 0.17966 0.4294 0.39872 0.0
C174 C 0.16683 0.40086 0.14213 0.0
C175 C 0.15116 0.40561 0.1484 0.0
C176 C 0.17645 0.3981 0.18218 0.0
C177 C 0.17016 0.39945 0.22917 0.0
C178 C 0.15356 0.40284 0.23524 0.0
C179 C 0.14427 0.40608 0.19523 0.0
C180 C 0.1825 0.4 0.27158 0.0
C181 C 0.18927 0.41683 0.30379 0.0
C182 C 0.18918 0.38542 0.27812 0.0
C183 C 0.18135 0.36643 0.24771 0.0
C184 C 0.16006 0.35289 0.24162 0.0
C185 C 0.15277 0.33509 0.21274 0.0
C186 C 0.16661 0.33058 0.18995 0.0
C187 C 0.18779 0.34385 0.19608 0.0
C188 C 0.19517 0.36168 0.22491 0.0
C189 C 0.23378 0.41299 0.47026 0.0
C190 C 0.25441 0.41978 0.45871 0.0
C191 C 0.21917 0.40758 0.43377 0.0
C192 C 0.22491 0.40867 0.38523 0.0
C193 C 0.24523 0.41445 0.3736 0.0
C194 C 0.25993 0.42012 0.41007 0.0
C195 C 0.21022 0.4058 0.34659 0.0
C196 C 0.20321 0.3887 0.31527 0.0
C197 C 0.20303 0.41992 0.34109 0.0
C198 C 0.21019 0.43843 0.37272 0.0
C199 C 0.23119 0.45369 0.37527 0.0
C200 C 0.23783 0.47098 0.4056 0.0
C201 C 0.22357 0.47326 0.43324 0.0
C202 C 0.20263 0.45829 0.43049 0.0
C203 C 0.19593 0.44095 0.40027 0.0
H204 H 0.22873 0.48666 0.45669 0.0
H205 H 0.16094 0.31679 0.1676 0.0
H206 H 0.85336 0.28859 0.56909 0.0
H207 H 0.83211 0.26171 0.51063 0.0
H208 H 0.84019 0.21648 0.58994 0.0
H209 H 0.8614 0.2433 0.64949 0.0
H210 H 0.83921 0.21687 0.4718 0.0
H211 H 0.80164 0.20933 0.62043 0.0
H212 H 0.79261 0.22397 0.68981 0.0
H213 H 0.76993 0.25293 0.59322 0.0
H214 H 0.77918 0.23874 0.52323 0.0
H215 H 0.7479 0.1381 0.34972 0.0
H216 H 0.77393 0.15579 0.41284 0.0
H217 H 0.7652 0.20878 0.40429 0.0
H218 H 0.73918 0.19126 0.3421 0.0
H219 H 0.76662 0.19851 0.4962 0.0
H220 H 0.80577 0.20878 0.34898 0.0
H221 H 0.81661 0.197 0.27741 0.0
H222 H 0.83707 0.16439 0.36875 0.0
H223 H 0.8261 0.17578 0.44087 0.0
C224 C 0.85109 0.27308 0.57365 0.0
C225 C 0.85878 0.26799 0.61441 0.0
C226 C 0.839 0.25777 0.54008 0.0
C227 C 0.83454 0.23719 0.5464 0.0
C228 C 0.84358 0.23235 0.58462 0.0
C229 C 0.8556 0.24768 0.61861 0.0
C230 C 0.81807 0.22057 0.51712 0.0
C231 C 0.82324 0.21235 0.47762 0.0
C232 C 0.79738 0.21505 0.52467 0.0
C233 C 0.79125 0.22311 0.56664 0.0
C234 C 0.79486 0.21894 0.614 0.0
C235 C 0.78969 0.22714 0.65343 0.0
C236 C 0.78074 0.23941 0.64592 0.0
C237 C 0.77687 0.24343 0.59897 0.0
C238 C 0.78205 0.23529 0.55942 0.0
C239 C 0.75149 0.15348 0.36152 0.0
C240 C 0.74152 0.16331 0.34087 0.0
C241 C 0.76639 0.16358 0.3974 0.0
C242 C 0.77156 0.18364 0.41298 0.0
C243 C 0.7614 0.19328 0.39288 0.0
C244 C 0.74656 0.18325 0.35718 0.0
C245 C 0.78768 0.19499 0.44985 0.0
C246 C 0.78244 0.20238 0.49091 0.0
C247 C 0.80826 0.1997 0.44352 0.0
C248 C 0.81488 0.1929 0.40022 0.0
C249 C 0.81242 0.19895 0.35376 0.0
C250 C 0.81862 0.19237 0.31311 0.0
C251 C 0.82746 0.17989 0.31852 0.0
C252 C 0.83018 0.17401 0.36461 0.0
C253 C 0.82398 0.18053 0.40538 0.0
H254 H 0.83226 0.17482 0.28701 0.0
H255 H 0.77678 0.24577 0.67648 0.0
H256 H 0.59716 0.75017 0.46321 0.0
H257 H 0.60749 0.77988 0.51776 0.0
H258 H 0.56275 0.79197 0.45162 0.0
H259 H 0.55246 0.76257 0.39711 0.0
H260 H 0.59967 0.82811 0.46764 0.0
H261 H 0.55173 0.76505 0.5553 0.0
H262 H 0.54008 0.7302 0.58981 0.0
H263 H 0.59526 0.75533 0.67469 0.0
H264 H 0.60735 0.79029 0.64015 0.0
H265 H 0.56617 0.87535 0.63615 0.0
H266 H 0.57334 0.85602 0.57576 0.0
H267 H 0.61472 0.85078 0.6747 0.0
H268 H 0.60724 0.86974 0.73582 0.0
H269 H 0.58751 0.814 0.64319 0.0
H270 H 0.6323 0.87856 0.56732 0.0
H271 H 0.64379 0.91348 0.53365 0.0
H272 H 0.59575 0.88655 0.4274 0.0
H273 H 0.58376 0.85148 0.46085 0.0
C274 C 0.5896 0.75923 0.46021 0.0
C275 C 0.57388 0.75392 0.4261 0.0
C276 C 0.59553 0.77618 0.49132 0.0
C277 C 0.58583 0.78806 0.48875 0.0
C278 C 0.57049 0.78307 0.45402 0.0
C279 C 0.56452 0.76614 0.42314 0.0
C280 C 0.59065 0.80502 0.5237 0.0
C281 C 0.59703 0.8251 0.50607 0.0
C282 C 0.58784 0.80119 0.57391 0.0
C283 C 0.58056 0.7802 0.5947 0.0
C284 C 0.56145 0.76309 0.58101 0.0
C285 C 0.55475 0.74333 0.60063 0.0
C286 C 0.56696 0.74054 0.6343 0.0
C287 C 0.58585 0.75751 0.64852 0.0
C288 C 0.59263 0.77729 0.62895 0.0
C289 C 0.5772 0.87056 0.6447 0.0
C290 C 0.58594 0.87386 0.69098 0.0
C291 C 0.58138 0.85957 0.60998 0.0
C292 C 0.59462 0.85196 0.62062 0.0
C293 C 0.60441 0.85645 0.66574 0.0
C294 C 0.60014 0.86731 0.7006 0.0
C295 C 0.59602 0.83713 0.58716 0.0
C296 C 0.59075 0.81733 0.60501 0.0
C297 C 0.59991 0.84129 0.53721 0.0
C298 C 0.60706 0.86237 0.51682 0.0
C299 C 0.62408 0.88009 0.537 0.0
C300 C 0.6307 0.89991 0.5179 0.0
C301 C 0.62049 0.90224 0.47845 0.0
C302 C 0.60365 0.88473 0.45796 0.0
C303 C 0.59696 0.86486 0.47692 0.0
H304 H 0.62564 0.9176 0.46373 0.0
H305 H 0.56174 0.72523 0.64946 0.0
H306 H 0.79095 0.56581 0.61262 0.0
H307 H 0.77676 0.57666 0.67784 0.0
H308 H 0.83597 0.60772 0.74833 0.0
H309 H 0.85035 0.59669 0.68302 0.0
H310 H 0.80559 0.58287 0.80974 0.0
H311 H 0.81728 0.63652 0.69927 0.0
H312 H 0.81677 0.65206 0.62103 0.0
H313 H 0.75068 0.61727 0.62131 0.0
H314 H 0.75077 0.60127 0.69923 0.0
H315 H 0.75674 0.60862 0.99229 0.0
H316 H 0.7811 0.61665 0.92595 0.0
H317 H 0.73066 0.57984 0.82903 0.0
H318 H 0.70622 0.57177 0.89495 0.0
H319 H 0.76292 0.61559 0.78504 0.0
H320 H 0.75222 0.55689 0.88459 0.0
H321 H 0.75189 0.54063 0.96243 0.0
H322 H 0.8162 0.58504 0.98159 0.0
H323 H 0.81681 0.60174 0.90401 0.0
C324 C 0.80105 0.57511 0.6417 0.0
C325 C 0.82177 0.58033 0.64272 0.0
C326 C 0.79294 0.58145 0.67882 0.0
C327 C 0.80538 0.59323 0.71763 0.0
C328 C 0.82616 0.59874 0.71852 0.0
C329 C 0.83433 0.59243 0.6812 0.0
C330 C 0.79604 0.59824 0.75879 0.0
C331 C 0.79675 0.59056 0.80459 0.0
C332 C 0.78423 0.60797 0.75191 0.0
C333 C 0.78405 0.61761 0.70506 0.0
C334 C 0.80263 0.63206 0.68251 0.0
C335 C 0.80242 0.64098 0.63823 0.0
C336 C 0.78371 0.63564 0.61619 0.0
C337 C 0.76516 0.6214 0.63844 0.0
C338 C 0.76529 0.61243 0.68272 0.0
C339 C 0.7508 0.60263 0.95661 0.0
C340 C 0.72958 0.5893 0.94897 0.0
C341 C 0.76475 0.60723 0.9188 0.0
C342 C 0.75766 0.59861 0.87285 0.0
C343 C 0.73642 0.58663 0.86429 0.0
C344 C 0.72248 0.58193 0.90207 0.0
C345 C 0.77215 0.59978 0.83527 0.0
C346 C 0.77231 0.6085 0.79028 0.0
C347 C 0.78475 0.59097 0.84275 0.0
C348 C 0.78451 0.5807 0.88886 0.0
C349 C 0.76626 0.56326 0.90557 0.0
C350 C 0.76602 0.55396 0.94962 0.0
C351 C 0.784 0.56185 0.97707 0.0
C352 C 0.80227 0.57898 0.96036 0.0
C353 C 0.80258 0.58836 0.91634 0.0
H354 H 0.78378 0.55464 0.01121 0.0
H355 H 0.78357 0.64255 0.58189 0.0
H356 H 0.25215 0.8446 0.82502 0.0
H357 H 0.22748 0.82495 0.88871 0.0
H358 H 0.27745 0.8404 0.98755 0.0
H359 H 0.30231 0.85981 0.92365 0.0
H360 H 0.25099 0.79976 0.98746 0.0
H361 H 0.2458 0.86113 -1e-05 0.0
H362 H 0.24088 0.88964 0.97076 0.0
H363 H 0.17997 0.84496 0.92247 0.0
H364 H 0.18463 0.81614 0.95082 0.0
H365 H 0.19317 0.75939 0.19817 0.0
H366 H 0.21538 0.7854 0.13918 0.0
H367 H 0.16574 0.76021 0.03588 0.0
H368 H 0.14318 0.73385 0.09505 0.0
H369 H 0.19115 0.80597 0.03853 0.0
H370 H 0.19726 0.74479 0.0237 0.0
H371 H 0.2022 0.71651 0.05454 0.0
H372 H 0.26196 0.76171 0.10814 0.0
H373 H 0.25723 0.79029 0.07828 0.0
C374 C 0.25793 0.8441 0.8605 0.0
C375 C 0.27922 0.85366 0.86918 0.0
C376 C 0.24377 0.83293 0.89698 0.0
C377 C 0.25061 0.83128 0.94298 0.0
C378 C 0.27185 0.84147 0.95227 0.0
C379 C 0.28603 0.85259 0.91574 0.0
C380 C 0.23568 0.81749 0.98004 0.0
C381 C 0.23813 0.80139 -0.00084 0.0
C382 C 0.21851 0.81917 0.99421 0.0
C383 C 0.21565 0.83647 0.97713 0.0
C384 C 0.23142 0.85737 0.98277 0.0
C385 C 0.22867 0.87359 0.96643 0.0
C386 C 0.21015 0.86912 0.94466 0.0
C387 C 0.19432 0.8484 0.93929 0.0
C388 C 0.197 0.83212 0.95554 0.0
C389 C 0.18681 0.75946 0.16317 0.0
C390 C 0.16645 0.74438 0.1511 0.0
C391 C 0.19955 0.77438 0.12954 0.0
C392 C 0.19223 0.77454 0.08316 0.0
C393 C 0.17162 0.76027 0.0716 0.0
C394 C 0.15881 0.7452 0.10532 0.0
C395 C 0.20671 0.78855 0.04593 0.0
C396 C 0.20411 0.80452 0.02675 0.0
C397 C 0.22381 0.78683 0.03163 0.0
C398 C 0.2268 0.76968 0.04918 0.0
C399 C 0.21138 0.7487 0.04242 0.0
C400 C 0.21415 0.73262 0.05967 0.0
C401 C 0.23236 0.73731 0.0834 0.0
C402 C 0.24786 0.7581 0.08981 0.0
C403 C 0.24514 0.77425 0.0727 0.0
H404 H 0.23448 0.72483 0.09673 0.0
H405 H 0.20804 0.8817 0.93204 0.0
H406 H 0.40753 0.14489 0.26159 0.0
H407 H 0.39606 0.16073 0.20123 0.0
H408 H 0.44674 0.17176 0.10885 0.0
H409 H 0.45856 0.1563 0.1694 0.0
H410 H 0.44517 0.20605 0.11837 0.0
H411 H 0.39687 0.13491 0.08061 0.0
H412 H 0.37001 0.09846 0.09687 0.0
H413 H 0.32936 0.11902 0.14779 0.0
H414 H 0.35609 0.15565 0.13246 0.0
H415 H 0.38674 0.21644 0.90581 0.0
H416 H 0.38927 0.19316 0.96407 0.0
H417 H 0.40813 0.24048 0.07416 0.0
H418 H 0.40618 0.26407 0.01584 0.0
H419 H 0.37458 0.17569 0.05172 0.0
H420 H 0.44875 0.2439 0.13331 0.0
H421 H 0.4761 0.27942 0.11066 0.0
H422 H 0.46664 0.26228 0.96078 0.0
H423 H 0.43951 0.22658 0.98259 0.0
C424 C 0.41608 0.15041 0.22813 0.0
C425 C 0.43404 0.14946 0.22041 0.0
C426 C 0.40944 0.15939 0.19357 0.0
C427 C 0.42051 0.16738 0.15047 0.0
C428 C 0.43801 0.16576 0.14195 0.0
C429 C 0.44471 0.15686 0.17655 0.0
C430 C 0.41477 0.17882 0.11593 0.0
C431 C 0.42973 0.19935 0.10379 0.0
C432 C 0.39468 0.17005 0.09653 0.0
C433 C 0.37856 0.14805 0.1058 0.0
C434 C 0.38226 0.13168 0.09565 0.0
C435 C 0.36705 0.11098 0.10463 0.0
C436 C 0.34801 0.10643 0.12346 0.0
C437 C 0.34413 0.12257 0.13326 0.0
C438 C 0.3593 0.1433 0.12438 0.0
C439 C 0.39099 0.22174 0.94268 0.0
C440 C 0.39666 0.24224 0.95602 0.0
C441 C 0.39237 0.20838 0.97597 0.0
C442 C 0.39933 0.21528 0.02307 0.0
C443 C 0.40312 0.23502 0.03766 0.0
C444 C 0.40197 0.24846 0.00432 0.0
C445 C 0.4049 0.20292 0.05497 0.0
C446 C 0.38996 0.1823 0.06654 0.0
C447 C 0.42516 0.21141 0.07306 0.0
C448 C 0.44196 0.23263 0.05961 0.0
C449 C 0.45261 0.24768 0.09556 0.0
C450 C 0.46806 0.26785 0.08285 0.0
C451 C 0.47306 0.27312 0.0343 0.0
C452 C 0.46272 0.25819 -0.00164 0.0
C453 C 0.44731 0.23799 0.01088 0.0
H454 H 0.48497 0.28876 0.02455 0.0
H455 H 0.33625 0.09039 0.13038 0.0
H456 H 0.18451 0.51795 0.14102 0.0
H457 H 0.18575 0.55097 0.15661 0.0
H458 H 0.12353 0.5244 0.10409 0.0
H459 H 0.12231 0.49154 0.08747 0.0
H460 H 0.14731 0.56209 0.06718 0.0
H461 H 0.135 0.5314 0.2257 0.0
H462 H 0.14197 0.51568 0.29624 0.0
H463 H 0.20088 0.57122 0.31492 0.0
H464 H 0.19437 0.58718 0.24406 0.0
H465 H 0.11727 0.63059 0.16375 0.0
H466 H 0.12128 0.60071 0.14541 0.0
H467 H 0.18511 0.63605 0.18766 0.0
H468 H 0.18127 0.66616 0.20612 0.0
H469 H 0.16394 0.59612 0.22814 0.0
H470 H 0.17459 0.62764 0.07231 0.0
H471 H 0.16668 0.64313 0.00287 0.0
H472 H 0.10989 0.58563 0.98002 0.0
H473 H 0.11731 0.56987 0.04982 0.0
C474 C 0.17106 0.51911 0.13301 0.0
C475 C 0.1533 0.50212 0.11306 0.0
C476 C 0.17177 0.53797 0.14206 0.0
C477 C 0.15467 0.5401 0.13185 0.0
C478 C 0.13692 0.52312 0.11214 0.0
C479 C 0.13623 0.50432 0.10284 0.0
C480 C 0.15528 0.56007 0.14089 0.0
C481 C 0.15074 0.56941 0.1025 0.0
C482 C 0.16035 0.56994 0.18664 0.0
C483 C 0.16429 0.56038 0.22925 0.0
C484 C 0.14951 0.54019 0.24461 0.0
C485 C 0.15337 0.53125 0.28469 0.0
C486 C 0.17189 0.54242 0.30996 0.0
C487 C 0.18656 0.56258 0.29526 0.0
C488 C 0.18279 0.57158 0.25516 0.0
C489 C 0.13221 0.63208 0.16894 0.0
C490 C 0.14897 0.65075 0.18634 0.0
C491 C 0.13448 0.61501 0.15829 0.0
C492 C 0.15353 0.61625 0.16488 0.0
C493 C 0.17031 0.63483 0.18227 0.0
C494 C 0.16809 0.65202 0.1926 0.0
C495 C 0.15562 0.59787 0.15464 0.0
C496 C 0.16068 0.58886 0.19275 0.0
C497 C 0.15092 0.58823 0.10872 0.0
C498 C 0.14644 0.59763 0.06657 0.0
C499 C 0.16033 0.61834 0.05273 0.0
C500 C 0.15596 0.62717 0.01325 0.0
C501 C 0.13778 0.61539 0.98711 0.0
C502 C 0.12396 0.59474 0.00033 0.0
C503 C 0.12826 0.58585 0.03982 0.0
H504 H 0.13442 0.62225 0.95655 0.0
H505 H 0.17484 0.53547 0.34099 0.0
H506 H 0.65432 0.1334 0.30709 0.0
H507 H 0.62401 0.13505 0.33126 0.0
H508 H 0.59576 0.1097 0.19336 0.0
H509 H 0.6261 0.10804 0.16868 0.0
H510 H 0.59261 0.14364 0.21973 0.0
H511 H 0.5796 0.07923 0.29074 0.0
H512 H 0.58762 0.05654 0.33964 0.0
H513 H 0.59393 0.09286 0.46594 0.0
H514 H 0.58623 0.11597 0.41763 0.0
H515 H 0.49224 0.12175 0.28045 0.0
H516 H 0.52181 0.11894 0.25546 0.0
H517 H 0.54953 0.14074 0.39555 0.0
H518 H 0.51976 0.1432 0.42125 0.0
H519 H 0.55273 0.10814 0.36721 0.0
H520 H 0.56641 0.17291 0.29662 0.0
H521 H 0.55875 0.19597 0.24806 0.0
H522 H 0.55162 0.15948 0.12152 0.0
H523 H 0.55897 0.13603 0.16948 0.0
C524 C 0.64166 0.12812 0.28188 0.0
C525 C 0.64262 0.12058 0.23594 0.0
C526 C 0.62432 0.12902 0.29585 0.0
C527 C 0.60759 0.12234 0.26424 0.0
C528 C 0.60852 0.11491 0.21827 0.0
C529 C 0.62584 0.11394 0.2043 0.0
C530 C 0.58925 0.12341 0.27904 0.0
C531 C 0.58368 0.13564 0.25157 0.0
C532 C 0.57797 0.11338 0.32125 0.0
C533 C 0.58253 0.09946 0.35045 0.0
C534 C 0.58286 0.08249 0.32886 0.0
C535 C 0.58732 0.06953 0.35649 0.0
C536 C 0.59133 0.07329 0.40584 0.0
C537 C 0.59084 0.08999 0.4277 0.0
C538 C 0.58641 0.10301 0.40021 0.0
C539 C 0.50463 0.12599 0.30598 0.0
C540 C 0.50368 0.13277 0.35283 0.0
C541 C 0.52157 0.12445 0.29154 0.0
C542 C 0.538 0.12988 0.32343 0.0
C543 C 0.53703 0.1365 0.37034 0.0
C544 C 0.52003 0.13796 0.38491 0.0
C545 C 0.55609 0.12844 0.30799 0.0
C546 C 0.56162 0.11614 0.33534 0.0
C547 C 0.56738 0.13846 0.26573 0.0
C548 C 0.56304 0.1526 0.23676 0.0
C549 C 0.56305 0.16971 0.25852 0.0
C550 C 0.55879 0.18287 0.23109 0.0
C551 C 0.55464 0.17916 0.18176 0.0
C552 C 0.55481 0.16232 0.15974 0.0
C553 C 0.55904 0.1491 0.18702 0.0
H554 H 0.55135 0.18936 0.16059 0.0
H555 H 0.59478 0.06323 0.42718 0.0
H556 H 0.36627 0.51006 0.5465 0.0
H557 H 0.398 0.54311 0.53264 0.0
H558 H 0.39501 0.52885 0.38081 0.0
H559 H 0.36328 0.49546 0.39445 0.0
H560 H 0.43355 0.544 0.41698 0.0
H561 H 0.3818 0.56367 0.42107 0.0
H562 H 0.35248 0.56534 0.45554 0.0
H563 H 0.38851 0.59695 0.58068 0.0
H564 H 0.41797 0.59522 0.54724 0.0
H565 H 0.50747 0.6446 0.33614 0.0
H566 H 0.47532 0.61197 0.35006 0.0
H567 H 0.47855 0.62649 0.50178 0.0
H568 H 0.51075 0.65943 0.48811 0.0
H569 H 0.43992 0.61129 0.46599 0.0
H570 H 0.49123 0.59163 0.46426 0.0
H571 H 0.52086 0.58987 0.4323 0.0
H572 H 0.48616 0.55818 0.30574 0.0
H573 H 0.45637 0.56 0.33666 0.0
C574 C 0.37231 0.51391 0.51008 0.0
C575 C 0.36219 0.50014 0.4715 0.0
C576 C 0.39042 0.53287 0.50223 0.0
C577 C 0.39871 0.53855 0.45561 0.0
C578 C 0.38881 0.52477 0.41706 0.0
C579 C 0.37067 0.50573 0.42489 0.0
C580 C 0.41783 0.55881 0.44736 0.0
C581 C 0.43485 0.55874 0.42697 0.0
C582 C 0.41969 0.57797 0.4618 0.0
C583 C 0.40203 0.57915 0.48183 0.0
C584 C 0.38342 0.57084 0.4561 0.0
C585 C 0.36679 0.57183 0.47542 0.0
C586 C 0.36861 0.5812 0.52032 0.0
C587 C 0.38711 0.58967 0.54593 0.0
C588 C 0.40378 0.58871 0.52678 0.0
C589 C 0.50137 0.64092 0.37252 0.0
C590 C 0.51174 0.65457 0.41111 0.0
C591 C 0.48301 0.62221 0.3804 0.0
C592 C 0.47471 0.61669 0.42704 0.0
C593 C 0.48476 0.63046 0.46552 0.0
C594 C 0.50317 0.64923 0.45767 0.0
C595 C 0.45559 0.59647 0.43545 0.0
C596 C 0.43859 0.59655 0.45589 0.0
C597 C 0.45378 0.5773 0.42134 0.0
C598 C 0.47163 0.57612 0.4026 0.0
C599 C 0.48997 0.58443 0.42943 0.0
C600 C 0.50678 0.5834 0.41155 0.0
C601 C 0.5054 0.57394 0.36701 0.0
C602 C 0.4872 0.5655 0.34024 0.0
C603 C 0.47034 0.56651 0.35795 0.0
H604 H 0.51841 0.5731 0.35337 0.0
H605 H 0.35572 0.58194 0.53523 0.0
H606 H 0.87071 0.51795 0.61165 0.0
H607 H 0.87154 0.48623 0.62958 0.0
H608 H 0.8095 0.44877 0.57613 0.0
H609 H 0.80839 0.48048 0.5587 0.0
H610 H 0.81516 0.43271 0.65847 0.0
H611 H 0.84977 0.45701 0.50678 0.0
H612 H 0.87516 0.48287 0.45017 0.0
H613 H 0.92452 0.48948 0.54005 0.0
H614 H 0.89943 0.46388 0.59761 0.0
H615 H 0.8187 0.33888 0.6399 0.0
H616 H 0.81562 0.36932 0.62069 0.0
H617 H 0.87729 0.41004 0.67309 0.0
H618 H 0.8806 0.37977 0.69191 0.0
H619 H 0.87073 0.42365 0.58811 0.0
H620 H 0.83596 0.40027 0.74105 0.0
H621 H 0.81051 0.3747 0.798 0.0
H622 H 0.7613 0.36633 0.70504 0.0
H623 H 0.78649 0.39167 0.64718 0.0
C624 C 0.85718 0.50298 0.60391 0.0
C625 C 0.83951 0.50174 0.58347 0.0
C626 C 0.85772 0.48486 0.61399 0.0
C627 C 0.8407 0.46517 0.60344 0.0
C628 C 0.82283 0.46383 0.58435 0.0
C629 C 0.82224 0.48197 0.57434 0.0
C630 C 0.84172 0.44602 0.61187 0.0
C631 C 0.82712 0.43057 0.64252 0.0
C632 C 0.85754 0.44343 0.59165 0.0
C633 C 0.8727 0.45865 0.55675 0.0
C634 C 0.86604 0.46408 0.51466 0.0
C635 C 0.88038 0.47868 0.48237 0.0
C636 C 0.90144 0.48785 0.49157 0.0
C637 C 0.9082 0.48238 0.533 0.0
C638 C 0.89393 0.46781 0.56545 0.0
C639 C 0.8316 0.35431 0.64737 0.0
C640 C 0.84987 0.3569 0.66758 0.0
C641 C 0.82979 0.37168 0.6365 0.0
C642 C 0.84617 0.39192 0.64587 0.0
C643 C 0.86447 0.39455 0.66559 0.0
C644 C 0.8663 0.37722 0.67647 0.0
C645 C 0.84429 0.41043 0.6351 0.0
C646 C 0.85872 0.42575 0.6039 0.0
C647 C 0.82829 0.41287 0.65473 0.0
C648 C 0.81312 0.3977 0.68955 0.0
C649 C 0.81972 0.39285 0.73256 0.0
C650 C 0.80534 0.37842 0.76504 0.0
C651 C 0.7843 0.36885 0.75508 0.0
C652 C 0.7776 0.37374 0.71267 0.0
C653 C 0.79192 0.38814 0.68004 0.0
H654 H 0.77319 0.35769 0.78027 0.0
H655 H 0.91252 0.49917 0.46655 0.0
H656 H 0.33765 0.81888 0.72329 0.0
H657 H 0.3703 0.81947 0.72983 0.0
H658 H 0.40102 0.88463 0.76902 0.0
H659 H 0.36856 0.88429 0.76178 0.0
H660 H 0.42253 0.87769 0.70244 0.0
H661 H 0.3896 0.84654 0.85343 0.0
H662 H 0.36164 0.82093 0.90559 0.0
H663 H 0.36631 0.77116 0.83971 0.0
H664 H 0.39413 0.79647 0.78667 0.0
H665 H 0.51525 0.89214 0.80133 0.0
H666 H 0.48178 0.88893 0.78772 0.0
H667 H 0.4566 0.82465 0.74526 0.0
H668 H 0.49009 0.82765 0.75925 0.0
H669 H 0.43176 0.82939 0.80903 0.0
H670 H 0.46617 0.86103 0.66106 0.0
H671 H 0.4944 0.88688 0.60991 0.0
H672 H 0.48715 0.93594 0.67073 0.0
H673 H 0.45905 0.91042 0.72279 0.0
C674 C 0.35133 0.83332 0.73354 0.0
C675 C 0.3505 0.85154 0.74206 0.0
C676 C 0.36997 0.83361 0.73738 0.0
C677 C 0.38806 0.85206 0.75026 0.0
C678 C 0.38725 0.87023 0.75896 0.0
C679 C 0.36866 0.86998 0.75497 0.0
C680 C 0.40795 0.85259 0.75393 0.0
C681 C 0.42461 0.86729 0.72616 0.0
C682 C 0.41049 0.8386 0.78381 0.0
C683 C 0.39379 0.82337 0.81572 0.0
C684 C 0.38455 0.83012 0.84979 0.0
C685 C 0.36875 0.81566 0.87956 0.0
C686 C 0.36216 0.79442 0.87587 0.0
C687 C 0.3714 0.78761 0.84247 0.0
C688 C 0.3872 0.802 0.81257 0.0
C689 C 0.50265 0.87734 0.7888 0.0
C690 C 0.50534 0.86015 0.78131 0.0
C691 C 0.48354 0.87556 0.78087 0.0
C692 C 0.46677 0.85661 0.76506 0.0
C693 C 0.46938 0.83942 0.75739 0.0
C694 C 0.48854 0.84119 0.76523 0.0
C695 C 0.44638 0.85466 0.75801 0.0
C696 C 0.42963 0.8397 0.78508 0.0
C697 C 0.44376 0.86843 0.72756 0.0
C698 C 0.46061 0.88382 0.69613 0.0
C699 C 0.47069 0.87735 0.66381 0.0
C700 C 0.48666 0.89194 0.6346 0.0
C701 C 0.4926 0.91305 0.63714 0.0
C702 C 0.48255 0.91959 0.66882 0.0
C703 C 0.46658 0.90507 0.69816 0.0
H704 H 0.50496 0.92432 0.61449 0.0
H705 H 0.34992 0.78325 0.89896 0.0
H706 H 0.47423 0.36172 0.90029 0.0
H707 H 0.50735 0.3923 0.92038 0.0
H708 H 0.5265 0.35273 0.98868 0.0
H709 H 0.49322 0.32198 0.96931 0.0
H710 H 0.53653 0.38688 0.04265 0.0
H711 H 0.54433 0.37286 0.87764 0.0
H712 H 0.53482 0.36598 0.79162 0.0
H713 H 0.53901 0.42561 0.77869 0.0
H714 H 0.54825 0.43272 0.86485 0.0
H715 H 0.64197 0.4654 0.05997 0.0
H716 H 0.61006 0.43343 0.0391 0.0
H717 H 0.58798 0.46983 0.96719 0.0
H718 H 0.62 0.50186 0.98713 0.0
H719 H 0.58017 0.43632 0.91462 0.0
H720 H 0.57105 0.44972 0.08023 0.0
H721 H 0.58037 0.45656 0.16637 0.0
H722 H 0.57862 0.39806 0.17807 0.0
H723 H 0.56956 0.391 0.09178 0.0
C724 C 0.48546 0.35949 0.91965 0.0
C725 C 0.48112 0.3394 0.93304 0.0
C726 C 0.50442 0.37699 0.9309 0.0
C727 C 0.51949 0.37475 0.9554 0.0
C728 C 0.5151 0.35477 0.9696 0.0
C729 C 0.49609 0.33723 0.95841 0.0
C730 C 0.53979 0.39333 0.96632 0.0
C731 C 0.54623 0.39753 0.0146 0.0
C732 C 0.55223 0.40741 0.92976 0.0
C733 C 0.54681 0.40324 0.87783 0.0
C734 C 0.54307 0.38444 0.85655 0.0
C735 C 0.53776 0.38051 0.80774 0.0
C736 C 0.53627 0.39533 0.77973 0.0
C737 C 0.54015 0.41413 0.80044 0.0
C738 C 0.54545 0.41813 0.84925 0.0
C739 C 0.63035 0.46662 0.03963 0.0
C740 C 0.63348 0.48619 0.0254 0.0
C741 C 0.61209 0.44833 0.0279 0.0
C742 C 0.59654 0.44927 0.00215 0.0
C743 C 0.59977 0.46875 0.98715 0.0
C744 C 0.61806 0.48705 -0.0013 0.0
C745 C 0.57683 0.42998 0.991 0.0
C746 C 0.57051 0.42563 0.94266 0.0
C747 C 0.5645 0.41576 0.02749 0.0
C748 C 0.56983 0.41993 0.07944 0.0
C749 C 0.5728 0.43839 0.10108 0.0
C750 C 0.57801 0.44229 0.14995 0.0
C751 C 0.58014 0.42778 0.17764 0.0
C752 C 0.577 0.4093 0.15656 0.0
C753 C 0.57181 0.40533 0.10769 0.0
H754 H 0.58418 0.43083 0.21546 0.0
H755 H 0.53215 0.39225 0.74195 0.0
H756 H 0.32021 0.47079 0.73021 0.0
H757 H 0.30195 0.47374 0.80014 0.0
H758 H 0.25152 0.46355 0.70802 0.0
H759 H 0.26968 0.46079 0.63804 0.0
H760 H 0.26065 0.49417 0.7743 0.0
H761 H 0.24892 0.42384 0.77149 0.0
H762 H 0.25987 0.39768 0.77025 0.0
H763 H 0.29145 0.42121 0.90499 0.0
H764 H 0.2809 0.44772 0.90671 0.0
H765 H 0.17358 0.45418 0.92455 0.0
H766 H 0.19939 0.45991 0.86383 0.0
H767 H 0.24253 0.46822 0.97621 0.0
H768 H 0.21665 0.46223 0.03744 0.0
H769 H 0.24133 0.44224 0.90609 0.0
H770 H 0.24892 0.50995 0.9132 0.0
H771 H 0.23745 0.53569 0.91335 0.0
H772 H 0.21336 0.51702 0.76998 0.0
H773 H 0.22442 0.49095 0.76921 0.0
C774 C 0.30532 0.46938 0.72479 0.0
C775 C 0.29632 0.46541 0.67867 0.0
C776 C 0.29491 0.47102 0.76477 0.0
C777 C 0.27532 0.46865 0.75922 0.0
C778 C 0.26664 0.46543 0.71301 0.0
C779 C 0.277 0.46376 0.6731 0.0
C780 C 0.26331 0.46851 0.80163 0.0
C781 C 0.25633 0.48278 0.80306 0.0
C782 C 0.25816 0.45396 0.83964 0.0
C783 C 0.2643 0.43789 0.83898 0.0
C784 C 0.25831 0.42352 0.80069 0.0
C785 C 0.26443 0.40862 0.79993 0.0
C786 C 0.27637 0.40781 0.83748 0.0
C787 C 0.28221 0.42188 0.87592 0.0
C788 C 0.27615 0.43683 0.87683 0.0
C789 C 0.18858 0.45733 0.93645 0.0
C790 C 0.19307 0.45777 0.98584 0.0
C791 C 0.20335 0.46071 0.90167 0.0
C792 C 0.22295 0.46474 0.91556 0.0
C793 C 0.22751 0.46521 0.9648 0.0
C794 C 0.21272 0.46183 -0.00031 0.0
C795 C 0.2383 0.46767 0.87836 0.0
C796 C 0.24591 0.45389 0.87785 0.0
C797 C 0.24398 0.48264 0.84111 0.0
C798 C 0.23738 0.49838 0.8413 0.0
C799 C 0.24104 0.51122 0.88183 0.0
C800 C 0.23463 0.52589 0.882 0.0
C801 C 0.22465 0.52796 0.84174 0.0
C802 C 0.22109 0.51539 0.80116 0.0
C803 C 0.22745 0.50069 0.80081 0.0
H804 H 0.21969 0.53932 0.84194 0.0
H805 H 0.28105 0.39624 0.83685 0.0
H806 H 0.74325 0.18256 0.14779 0.0
H807 H 0.7632 0.20927 0.08778 0.0
H808 H 0.72861 0.16609 0.97358 0.0
H809 H 0.70873 0.13902 0.03361 0.0
H810 H 0.76875 0.18599 0.95442 0.0
H811 H 0.72064 0.20623 0.00217 0.0
H812 H 0.70085 0.21502 0.05865 0.0
H813 H 0.75694 0.26707 0.11196 0.0
H814 H 0.7771 0.25842 0.05627 0.0
H815 H 0.8147 0.26477 0.77583 0.0
H816 H 0.78856 0.238 0.82811 0.0
H817 H 0.82014 0.27485 0.95348 0.0
H818 H 0.84622 0.30193 0.90137 0.0
H819 H 0.77863 0.25726 0.96156 0.0
H820 H 0.82644 0.2345 0.91794 0.0
H821 H 0.84584 0.22566 0.8603 0.0
H822 H 0.78921 0.17807 0.79764 0.0
H823 H 0.76947 0.1868 0.85459 0.0
C824 C 0.73978 0.17872 0.10994 0.0
C825 C 0.72438 0.15865 0.09547 0.0
C826 C 0.75113 0.19408 0.07565 0.0
C827 C 0.7472 0.18977 0.02621 0.0
C828 C 0.73184 0.16976 0.01158 0.0
C829 C 0.72048 0.15433 0.04592 0.0
C830 C 0.75979 0.20598 0.98998 0.0
C831 C 0.77059 0.20145 0.95541 0.0
C832 C 0.76246 0.22626 0.99178 0.0
C833 C 0.75039 0.23157 0.02527 0.0
C834 C 0.72877 0.21946 0.02619 0.0
C835 C 0.71748 0.22443 0.05803 0.0
C836 C 0.72764 0.24156 0.08895 0.0
C837 C 0.7491 0.25379 0.08801 0.0
C838 C 0.76046 0.24887 0.05627 0.0
C839 C 0.81604 0.26727 0.81452 0.0
C840 C 0.83265 0.2854 0.83452 0.0
C841 C 0.8011 0.25192 0.84433 0.0
C842 C 0.80259 0.25431 0.89468 0.0
C843 C 0.81874 0.2727 0.91468 0.0
C844 C 0.83367 0.28812 0.88487 0.0
C845 C 0.78777 0.23732 0.92665 0.0
C846 C 0.77658 0.24172 0.96037 0.0
C847 C 0.78466 0.21689 0.92396 0.0
C848 C 0.7965 0.21143 0.8902 0.0
C849 C 0.81814 0.22223 0.89168 0.0
C850 C 0.82919 0.21723 0.85917 0.0
C851 C 0.81877 0.20135 0.82524 0.0
C852 C 0.79726 0.19038 0.82389 0.0
C853 C 0.78613 0.19533 0.85631 0.0
H854 H 0.82735 0.19752 0.80007 0.0
H855 H 0.71887 0.24539 0.11357 0.0
H856 H 0.51311 0.7138 0.23491 0.0
H857 H 0.51195 0.73474 0.16846 0.0
H858 H 0.57409 0.75235 0.12866 0.0
H859 H 0.57559 0.73198 0.19614 0.0
H860 H 0.57062 0.78527 0.13186 0.0
H861 H 0.53107 0.71772 0.05984 0.0
H862 H 0.50344 0.68085 0.05471 0.0
H863 H 0.45786 0.69907 0.06606 0.0
H864 H 0.48523 0.73605 0.07192 0.0
H865 H 0.57317 0.83422 0.912 0.0
H866 H 0.57188 0.80872 0.96948 0.0
H867 H 0.51314 0.79738 0.02175 0.0
H868 H 0.51418 0.82282 0.96391 0.0
H869 H 0.5147 0.76094 0.01048 0.0
H870 H 0.5554 0.82888 0.08362 0.0
H871 H 0.58367 0.86554 0.08692 0.0
H872 H 0.62798 0.84584 0.07094 0.0
H873 H 0.59996 0.80908 0.06681 0.0
C874 C 0.52644 0.72192 0.21165 0.0
C875 C 0.54447 0.72131 0.22081 0.0
C876 C 0.52572 0.73382 0.17351 0.0
C877 C 0.54287 0.74497 0.14326 0.0
C878 C 0.56069 0.7439 0.15159 0.0
C879 C 0.56151 0.73222 0.19008 0.0
C880 C 0.54273 0.75883 0.10494 0.0
C881 C 0.55857 0.77982 0.10484 0.0
C882 C 0.52672 0.75188 0.07041 0.0
C883 C 0.51021 0.72965 0.06676 0.0
C884 C 0.51516 0.71386 0.06162 0.0
C885 C 0.49954 0.69294 0.05851 0.0
C886 C 0.47891 0.68761 0.06018 0.0
C887 C 0.47385 0.70321 0.06483 0.0
C888 C 0.48941 0.72416 0.06799 0.0
C889 C 0.5599 0.82624 0.93548 0.0
C890 C 0.54385 0.83068 0.93369 0.0
C891 C 0.55922 0.8117 0.96836 0.0
C892 C 0.54255 0.80141 0.0002 0.0
C893 C 0.52616 0.80524 0.99748 0.0
C894 C 0.52682 0.81982 0.96456 0.0
C895 C 0.54263 0.7872 0.03744 0.0
C896 C 0.52677 0.76625 0.03744 0.0
C897 C 0.55871 0.79411 0.07168 0.0
C898 C 0.57557 0.81623 0.07445 0.0
C899 C 0.57117 0.83238 0.08043 0.0
C900 C 0.58715 0.85318 0.0825 0.0
C901 C 0.60761 0.85802 0.07903 0.0
C902 C 0.61213 0.84207 0.07357 0.0
C903 C 0.5962 0.82125 0.07139 0.0
H904 H 0.61997 0.87411 0.08068 0.0
H905 H 0.46684 0.67141 0.05777 0.0
H906 H 0.84994 0.54281 0.36239 0.0
H907 H 0.82793 0.53625 0.2917 0.0
H908 H 0.78569 0.54542 0.37893 0.0
H909 H 0.8074 0.55181 0.44956 0.0
H910 H 0.76571 0.51165 0.31925 0.0
H911 H 0.82067 0.58411 0.30815 0.0
H912 H 0.85698 0.61229 0.30316 0.0
H913 H 0.86473 0.58533 0.17342 0.0
H914 H 0.8285 0.55682 0.17803 0.0
H915 H 0.71074 0.54213 0.17131 0.0
H916 H 0.73346 0.5393 0.22933 0.0
H917 H 0.76715 0.53162 0.11292 0.0
H918 H 0.7445 0.5347 0.0542 0.0
H919 H 0.79268 0.5596 0.17872 0.0
H920 H 0.73593 0.49022 0.18289 0.0
H921 H 0.69947 0.46243 0.18748 0.0
H922 H 0.69483 0.48308 0.3293 0.0
H923 H 0.73119 0.5112 0.3253 0.0
C924 C 0.83591 0.54332 0.36653 0.0
C925 C 0.83047 0.54795 0.41149 0.0
C926 C 0.82339 0.53961 0.32612 0.0
C927 C 0.80528 0.54049 0.3301 0.0
C928 C 0.7996 0.54463 0.37515 0.0
C929 C 0.81209 0.54839 0.41542 0.0
C930 C 0.79239 0.53778 0.28734 0.0
C931 C 0.77155 0.52214 0.28854 0.0
C932 C 0.80024 0.55104 0.24661 0.0
C933 C 0.82197 0.56821 0.24377 0.0
C934 C 0.83017 0.5841 0.27879 0.0
C935 C 0.85072 0.60015 0.27599 0.0
C936 C 0.86318 0.60056 0.23809 0.0
C937 C 0.85508 0.58496 0.20282 0.0
C938 C 0.83454 0.56886 0.2055 0.0
C939 C 0.72289 0.53971 0.15791 0.0
C940 C 0.7258 0.5386 0.10811 0.0
C941 C 0.7358 0.53797 0.19119 0.0
C942 C 0.75179 0.53493 0.17546 0.0
C943 C 0.7548 0.53383 0.12577 0.0
C944 C 0.74184 0.53556 0.09233 0.0
C945 C 0.7658 0.53388 0.21133 0.0
C946 C 0.78687 0.54878 0.20886 0.0
C947 C 0.75816 0.51991 0.25088 0.0
C948 C 0.73629 0.5029 0.25366 0.0
C949 C 0.72711 0.48893 0.21494 0.0
C950 C 0.70646 0.4731 0.21745 0.0
C951 C 0.69483 0.47101 0.25863 0.0
C952 C 0.70386 0.48471 0.29742 0.0
C953 C 0.7245 0.50058 0.29508 0.0
H954 H 0.67885 0.45875 0.2605 0.0
H955 H 0.87909 0.613 0.23597 0.0
H956 H 0.14002 0.72529 0.3541 0.0
H957 H 0.16188 0.74967 0.41622 0.0
H958 H 0.19039 0.71267 0.44042 0.0
H959 H 0.16824 0.68787 0.37835 0.0
H960 H 0.18438 0.72884 0.5253 0.0
H961 H 0.21376 0.75351 0.36916 0.0
H962 H 0.21369 0.76266 0.28362 0.0
H963 H 0.19951 0.80968 0.32495 0.0
H964 H 0.19912 0.80054 0.41075 0.0
H965 H 0.27394 0.81243 0.63621 0.0
H966 H 0.25129 0.78442 0.58105 0.0
H967 H 0.21799 0.81627 0.55123 0.0
H968 H 0.24053 0.84437 0.6064 0.0
H969 H 0.22798 0.80191 0.46858 0.0
H970 H 0.19743 0.77598 0.62486 0.0
H971 H 0.19732 0.76637 0.71011 0.0
H972 H 0.21452 0.72167 0.66778 0.0
H973 H 0.21502 0.73125 0.58226 0.0
C974 C 0.15073 0.72214 0.37304 0.0
C975 C 0.15264 0.70483 0.36089 0.0
C976 C 0.16323 0.73611 0.40846 0.0
C977 C 0.17803 0.73318 0.43204 0.0
C978 C 0.17912 0.71523 0.42229 0.0
C979 C 0.16648 0.70111 0.38688 0.0
C980 C 0.19315 0.74964 0.46439 0.0
C981 C 0.19415 0.74475 0.51281 0.0
C982 C 0.2057 0.77043 0.44799 0.0
C983 C 0.20625 0.77621 0.39641 0.0
C984 C 0.21049 0.7657 0.36001 0.0
C985 C 0.21054 0.77089 0.31147 0.0
C986 C 0.20656 0.78672 0.29885 0.0
C987 C 0.20257 0.79741 0.33478 0.0
C988 C 0.20244 0.79224 0.38338 0.0
C989 C 0.26182 0.81351 0.61784 0.0
C990 C 0.25897 0.83058 0.62572 0.0
C991 C 0.24887 0.79746 0.58652 0.0
C992 C 0.2329 0.79824 0.56247 0.0
C993 C 0.23022 0.81541 0.5696 0.0
C994 C 0.24307 0.8314 0.6012 0.0
C995 C 0.21899 0.78119 0.52968 0.0
C996 C 0.21828 0.78598 0.48103 0.0
C997 C 0.20685 0.76032 0.54584 0.0
C998 C 0.20649 0.7545 0.59721 0.0
C999 C 0.20137 0.76424 0.63376 0.0
C1000 C 0.2012 0.75877 0.68212 0.0
C1001 C 0.20597 0.74346 0.69437 0.0
C1002 C 0.21086 0.73355 0.65824 0.0
C1003 C 0.21108 0.73898 0.60982 0.0
H1004 H 0.20583 0.73924 0.73183 0.0
H1005 H 0.20661 0.79072 0.26126 0.0
H1006 H 0.47822 0.29699 0.74796 0.0
H1007 H 0.48015 0.27595 0.68234 0.0
H1008 H 0.41414 0.23573 0.68682 0.0
H1009 H 0.41211 0.25633 0.75278 0.0
H1010 H 0.43233 0.21332 0.68314 0.0
H1011 H 0.43834 0.27262 0.59756 0.0
H1012 H 0.45349 0.31001 0.57867 0.0
H1013 H 0.51135 0.31456 0.54595 0.0
H1014 H 0.4966 0.27723 0.56527 0.0
H1015 H 0.40831 0.16128 0.46062 0.0
H1016 H 0.41253 0.18576 0.52449 0.0
H1017 H 0.47844 0.21316 0.51767 0.0
H1018 H 0.47438 0.18852 0.45362 0.0
H1019 H 0.46415 0.24274 0.52398 0.0
H1020 H 0.4564 0.18201 0.60427 0.0
H1021 H 0.43997 0.14426 0.62033 0.0
H1022 H 0.38404 0.14227 0.66142 0.0
H1023 H 0.40003 0.17997 0.6448 0.0
C1024 C 0.46412 0.2837 0.73484 0.0
C1025 C 0.44501 0.27832 0.7556 0.0
C1026 C 0.46524 0.27174 0.69724 0.0
C1027 C 0.44727 0.25435 0.67949 0.0
C1028 C 0.42821 0.24905 0.70005 0.0
C1029 C 0.42708 0.26089 0.73769 0.0
C1030 C 0.44816 0.24129 0.64016 0.0
C1031 C 0.43915 0.21976 0.64824 0.0
C1032 C 0.45756 0.24977 0.59505 0.0
C1033 C 0.46644 0.2722 0.58342 0.0
C1034 C 0.45435 0.28164 0.58674 0.0
C1035 C 0.46285 0.30281 0.57588 0.0
C1036 C 0.48339 0.31467 0.56127 0.0
C1037 C 0.49545 0.30537 0.55737 0.0
C1038 C 0.48703 0.2842 0.56824 0.0
C1039 C 0.42373 0.17257 0.47238 0.0
C1040 C 0.44101 0.17289 0.45227 0.0
C1041 C 0.4261 0.18652 0.50893 0.0
C1042 C 0.44577 0.2011 0.52593 0.0
C1043 C 0.46314 0.20197 0.50495 0.0
C1044 C 0.46077 0.18785 0.46858 0.0
C1045 C 0.44793 0.21483 0.56685 0.0
C1046 C 0.45754 0.23642 0.55911 0.0
C1047 C 0.43896 0.20642 0.61223 0.0
C1048 C 0.42937 0.18379 0.6229 0.0
C1049 C 0.44055 0.1735 0.61638 0.0
C1050 C 0.43132 0.15211 0.62563 0.0
C1051 C 0.41096 0.14087 0.64179 0.0
C1052 C 0.3998 0.151 0.64886 0.0
C1053 C 0.40895 0.17238 0.63957 0.0
H1054 H 0.40384 0.12431 0.64892 0.0
H1055 H 0.48994 0.33106 0.55286 0.0
H1056 H 0.09244 0.45032 0.92014 0.0
H1057 H 0.05961 0.43338 0.87746 0.0
H1058 H 0.04136 0.37601 0.95394 0.0
H1059 H 0.07434 0.39286 0.99688 0.0
H1060 H 0.03226 0.36973 0.8565 0.0
H1061 H 0.02175 0.40476 0.98826 0.0
H1062 H 0.0296 0.43435 0.04199 0.0
H1063 H 0.02543 0.46862 0.92205 0.0
H1064 H 0.01785 0.43934 0.86741 0.0
H1065 H 0.92555 0.32289 0.79476 0.0
H1066 H 0.95818 0.33687 0.83819 0.0
H1067 H 0.98088 0.39622 0.76708 0.0
H1068 H 0.94834 0.38242 0.72356 0.0
H1069 H 0.98687 0.40004 0.86532 0.0
H1070 H 0.99826 0.36498 0.73331 0.0
H1071 H 0.99021 0.33512 0.68031 0.0
H1072 H 0.99222 0.30043 0.80206 0.0
H1073 H -0.0 0.32999 0.85594 0.0
C1074 C 0.0815 0.43408 0.92787 0.0
C1075 C 0.08595 0.42295 0.96207 0.0
C1076 C 0.06271 0.42445 0.90355 0.0
C1077 C 0.048 0.40353 0.91299 0.0
C1078 C 0.05253 0.3922 0.9463 0.0
C1079 C 0.07133 0.40186 0.97086 0.0
C1080 C 0.02784 0.39366 0.88819 0.0
C1081 C 0.02216 0.37613 0.85897 0.0
C1082 C 0.01489 0.40227 0.89091 0.0
C1083 C 0.01943 0.41992 0.92365 0.0
C1084 C 0.02269 0.41868 0.97325 0.0
C1085 C 0.02705 0.43538 0.00389 0.0
C1086 C 0.02807 0.45338 0.98542 0.0
C1087 C 0.02467 0.45468 0.93628 0.0
C1088 C 0.02032 0.43803 0.90547 0.0
C1089 C 0.93753 0.33888 0.78813 0.0
C1090 C 0.93437 0.35156 0.75574 0.0
C1091 C 0.95617 0.34681 0.81287 0.0
C1092 C 0.97193 0.36753 0.80564 0.0
C1093 C 0.96887 0.38018 0.77312 0.0
C1094 C 0.9503 0.37224 0.74818 0.0
C1095 C 0.99141 0.37629 0.83307 0.0
C1096 C 0.99693 0.39358 0.86294 0.0
C1097 C 0.00415 0.3674 0.83106 0.0
C1098 C -0.00052 0.34961 0.79873 0.0
C1099 C 0.9968 0.35091 0.74886 0.0
C1100 C 0.99233 0.33406 0.71864 0.0
C1101 C 0.99064 0.31586 0.73782 0.0
C1102 C 0.99349 0.31451 0.78726 0.0
C1103 C 0.99795 0.33132 0.81765 0.0
H1104 H 0.98719 0.30283 0.71436 0.0
H1105 H 0.03144 0.46629 0.00921 0.0
H1106 H 0.6148 0.93898 0.90623 0.0
H1107 H 0.63301 0.96629 0.9667 0.0
H1108 H 0.5754 0.94838 0.03771 0.0
H1109 H 0.55707 0.92127 0.97716 0.0
H1110 H 0.59855 0.98976 0.03161 0.0
H1111 H 0.60754 0.93402 0.08446 0.0
H1112 H 0.61652 0.90654 0.07738 0.0
H1113 H 0.67922 0.95282 0.04568 0.0
H1114 H 0.67051 0.9806 0.05184 0.0
H1115 H 0.64175 0.04678 0.24493 0.0
H1116 H 0.62429 0.01528 0.19528 0.0
H1117 H 0.67838 0.0381 0.10592 0.0
H1118 H 0.69595 0.06976 0.15511 0.0
H1119 H 0.65635 0.99314 0.12526 0.0
H1120 H 0.64506 0.04864 0.06971 0.0
H1121 H 0.63491 0.07504 0.08288 0.0
H1122 H 0.57444 0.02694 0.12585 0.0
H1123 H 0.58438 0.00029 0.11381 0.0
C1124 C 0.606 0.94093 0.93456 0.0
C1125 C 0.5845 0.92792 0.93699 0.0
C1126 C 0.61643 0.95645 0.96923 0.0
C1127 C 0.60557 0.95915 0.00705 0.0
C1128 C 0.58407 0.94651 0.0089 0.0
C1129 C 0.57364 0.93101 0.97427 0.0
C1130 C 0.61661 0.97519 0.04468 0.0
C1131 C 0.611 0.9903 0.05248 0.0
C1132 C 0.63295 0.97599 0.07172 0.0
C1133 C 0.63832 0.95938 0.06812 0.0
C1134 C 0.62321 0.93833 0.07557 0.0
C1135 C 0.62826 0.9227 0.0718 0.0
C1136 C 0.64842 0.92792 0.06096 0.0
C1137 C 0.66359 0.9488 0.054 0.0
C1138 C 0.65861 0.9645 0.05766 0.0
C1139 C 0.65011 0.04491 0.21541 0.0
C1140 C 0.67013 0.06086 0.2035 0.0
C1141 C 0.64011 0.02691 0.18711 0.0
C1142 C 0.65002 0.02456 0.14677 0.0
C1143 C 0.67052 0.0397 0.13695 0.0
C1144 C 0.68048 0.0578 0.16494 0.0
C1145 C 0.63832 0.00763 0.11171 0.0
C1146 C 0.64384 0.99244 0.10438 0.0
C1147 C 0.6217 0.00657 0.08554 0.0
C1148 C 0.61552 0.0225 0.09132 0.0
C1149 C 0.62964 0.04371 0.08225 0.0
C1150 C 0.62393 0.05872 0.0895 0.0
C1151 C 0.60406 0.05268 0.10531 0.0
C1152 C 0.58984 0.0316 0.11368 0.0
C1153 C 0.5955 0.01654 0.10663 0.0
H1154 H 0.59968 0.06432 0.11099 0.0
H1155 H 0.6523 0.91578 0.05807 0.0
H1156 H 0.67163 0.60108 0.1032 0.0
H1157 H 0.66075 0.62135 0.15147 0.0
H1158 H 0.62679 0.56863 0.24618 0.0
H1159 H 0.6375 0.54818 0.19798 0.0
H1160 H 0.60427 0.5862 0.21885 0.0
H1161 H 0.67128 0.60934 0.28372 0.0
H1162 H 0.70875 0.62338 0.28085 0.0
H1163 H 0.7177 0.68002 0.21676 0.0
H1164 H 0.68024 0.66619 0.2186 0.0
H1165 H 0.58121 0.64146 0.39072 0.0
H1166 H 0.59657 0.62202 0.35729 0.0
H1167 H 0.63084 0.67153 0.25494 0.0
H1168 H 0.61564 0.69114 0.28821 0.0
H1169 H 0.65364 0.65483 0.29128 0.0
H1170 H 0.587 0.63103 0.22099 0.0
H1171 H 0.54955 0.61717 0.22181 0.0
H1172 H 0.53998 0.56183 0.29409 0.0
H1173 H 0.57744 0.57553 0.29448 0.0
C1174 C 0.66187 0.59379 0.13434 0.0
C1175 C 0.65542 0.57302 0.14678 0.0
C1176 C 0.65577 0.60544 0.16203 0.0
C1177 C 0.64315 0.59654 0.20267 0.0
C1178 C 0.63659 0.57578 0.21502 0.0
C1179 C 0.64275 0.56415 0.18747 0.0
C1180 C 0.63626 0.6087 0.23134 0.0
C1181 C 0.61506 0.60102 0.23546 0.0
C1182 C 0.65038 0.62826 0.25199 0.0
C1183 C 0.67293 0.63665 0.2509 0.0
C1184 C 0.68122 0.62472 0.26864 0.0
C1185 C 0.70246 0.63266 0.26727 0.0
C1186 C 0.71559 0.65256 0.24853 0.0
C1187 C 0.70751 0.66459 0.23122 0.0
C1188 C 0.68627 0.65672 0.23246 0.0
C1189 C 0.59228 0.64839 0.36166 0.0
C1190 C 0.59704 0.66774 0.34174 0.0
C1191 C 0.60099 0.63723 0.34252 0.0
C1192 C 0.61459 0.64523 0.30323 0.0
C1193 C 0.62032 0.66508 0.28519 0.0
C1194 C 0.61156 0.67622 0.30414 0.0
C1195 C 0.62169 0.63232 0.27864 0.0
C1196 C 0.64289 0.63989 0.27513 0.0
C1197 C 0.60758 0.61268 0.25835 0.0
C1198 C 0.58505 0.60442 0.25829 0.0
C1199 C 0.57693 0.616 0.2375 0.0
C1200 C 0.5557 0.60816 0.23768 0.0
C1201 C 0.5424 0.58866 0.2581 0.0
C1202 C 0.55031 0.57695 0.27836 0.0
C1203 C 0.57154 0.58475 0.27841 0.0
H1204 H 0.52596 0.5826 0.25811 0.0
H1205 H 0.73203 0.65868 0.24751 0.0
H1206 H 0.05699 0.67405 0.24388 0.0
H1207 H 0.02404 0.66147 0.28544 0.0
H1208 H 0.03077 0.61312 0.354 0.0
H1209 H 0.06324 0.62519 0.31198 0.0
H1210 H 0.99201 0.59836 0.33 0.0
H1211 H 0.04494 0.65978 0.41095 0.0
H1212 H 0.07259 0.69664 0.41663 0.0
H1213 H 0.03025 0.7163 0.37388 0.0
H1214 H 0.0024 0.67951 0.36731 0.0
H1215 H 0.93342 0.57457 0.54151 0.0
H1216 H 0.96338 0.58933 0.48825 0.0
H1217 H 0.94341 0.62844 0.42117 0.0
H1218 H 0.91332 0.61378 0.4744 0.0
H1219 H 0.98649 0.64872 0.43779 0.0
H1220 H 0.93258 0.58581 0.36532 0.0
H1221 H 0.90552 0.54863 0.36595 0.0
H1222 H 0.95069 0.5314 0.3981 0.0
H1223 H 0.978 0.56853 0.39833 0.0
C1224 C 0.05126 0.66053 0.26719 0.0
C1225 C 0.06283 0.65076 0.27504 0.0
C1226 C 0.0325 0.65343 0.29111 0.0
C1227 C 0.02514 0.63659 0.3235 0.0
C1228 C 0.03616 0.62618 0.32931 0.0
C1229 C 0.0548 0.63317 0.30534 0.0
C1230 C 0.00665 0.63039 0.35363 0.0
C1231 C 0.99086 0.60937 0.35365 0.0
C1232 C 0.00497 0.64481 0.38401 0.0
C1233 C 0.02167 0.66691 0.38806 0.0
C1234 C 0.04157 0.67196 0.40239 0.0
C1235 C 0.05727 0.69284 0.40583 0.0
C1236 C 0.0532 0.7088 0.39547 0.0
C1237 C 0.0334 0.70392 0.38178 0.0
C1238 C 0.01765 0.68306 0.37821 0.0
C1239 C 0.93553 0.58654 0.51598 0.0
C1240 C 0.92088 0.59285 0.51187 0.0
C1241 C 0.95261 0.59489 0.48546 0.0
C1242 C 0.95536 0.60969 0.45034 0.0
C1243 C 0.94145 0.61694 0.44793 0.0
C1244 C 0.92428 0.60852 0.47833 0.0
C1245 C 0.97217 0.61671 0.41461 0.0
C1246 C 0.98756 0.63782 0.41356 0.0
C1247 C 0.97361 0.60235 0.38367 0.0
C1248 C 0.95731 0.57997 0.38215 0.0
C1249 C 0.93673 0.5741 0.37273 0.0
C1250 C 0.92135 0.55303 0.37292 0.0
C1251 C 0.92638 0.53766 0.38214 0.0
C1252 C 0.94682 0.54333 0.39097 0.0
C1253 C 0.96226 0.56438 0.39087 0.0
H1254 H 0.91444 0.52136 0.38239 0.0
H1255 H 0.06537 0.72495 0.39816 0.0
H1256 H 0.40261 0.0642 0.39431 0.0
H1257 H 0.38112 0.03094 0.43528 0.0
H1258 H 0.39615 0.06261 0.57284 0.0
H1259 H 0.41816 0.09586 0.53218 0.0
H1260 H 0.4001 0.02994 0.57838 0.0
H1261 H 0.34756 0.04214 0.52049 0.0
H1262 H 0.32853 0.0505 0.46087 0.0
H1263 H 0.31515 0.99601 0.37879 0.0
H1264 H 0.33436 0.98746 0.43758 0.0
H1265 H 0.32873 0.93787 0.70457 0.0
H1266 H 0.3439 0.97292 0.6698 0.0
H1267 H 0.34026 0.94755 0.52764 0.0
H1268 H 0.32513 0.91252 0.56195 0.0
H1269 H 0.32867 0.97797 0.5299 0.0
H1270 H 0.38419 0.96824 0.5855 0.0
H1271 H 0.40303 0.9601 0.64623 0.0
H1272 H 0.41009 0.0108 0.7347 0.0
H1273 H 0.39103 0.01905 0.67474 0.0
C1274 C 0.40121 0.06411 0.43324 0.0
C1275 C 0.41213 0.08264 0.46003 0.0
C1276 C 0.38881 0.04509 0.45663 0.0
C1277 C 0.38681 0.04429 0.50714 0.0
C1278 C 0.39745 0.06284 0.53385 0.0
C1279 C 0.41001 0.08183 0.51054 0.0
C1280 C 0.37463 0.02396 0.53225 0.0
C1281 C 0.38433 0.01878 0.56839 0.0
C1282 C 0.35417 0.0092 0.51871 0.0
C1283 C 0.34255 0.01425 0.48328 0.0
C1284 C 0.3407 0.03202 0.48954 0.0
C1285 C 0.32985 0.03678 0.45592 0.0
C1286 C 0.32067 0.02382 0.41601 0.0
C1287 C 0.32228 0.00604 0.4097 0.0
C1288 C 0.33313 0.00122 0.4432 0.0
C1289 C 0.33097 0.93973 0.66586 0.0
C1290 C 0.3259 0.92246 0.63602 0.0
C1291 C 0.33966 0.95975 0.6461 0.0
C1292 C 0.34333 0.96279 0.59625 0.0
C1293 C 0.33753 0.94549 0.56621 0.0
C1294 C 0.329 0.92552 0.58593 0.0
C1295 C 0.35424 0.98407 0.5755 0.0
C1296 C 0.34433 0.98934 0.54018 0.0
C1297 C 0.37445 0.999 0.58999 0.0
C1298 C 0.38598 0.9941 0.62593 0.0
C1299 C 0.38961 0.97753 0.6181 0.0
C1300 C 0.40036 0.97292 0.65234 0.0
C1301 C 0.4077 0.98488 0.69437 0.0
C1302 C 0.40436 0.00152 0.70218 0.0
C1303 C 0.39359 0.00618 0.66807 0.0
H1304 H 0.41602 0.9813 0.72083 0.0
H1305 H 0.31228 0.02753 0.39002 0.0
H1306 H 0.2865 0.38468 0.6645 0.0
H1307 H 0.29933 0.36394 0.70344 0.0
H1308 H 0.35232 0.39148 0.60942 0.0
H1309 H 0.33954 0.41206 0.56997 0.0
H1310 H 0.33688 0.3498 0.62133 0.0
H1311 H 0.35518 0.41017 0.72222 0.0
H1312 H 0.34732 0.43319 0.77044 0.0
H1313 H 0.30862 0.38196 0.8639 0.0
H1314 H 0.31604 0.35855 0.81577 0.0
H1315 H 0.41577 0.34415 0.73908 0.0
H1316 H 0.39378 0.35568 0.70279 0.0
H1317 H 0.34753 0.3223 0.81161 0.0
H1318 H 0.36963 0.31075 0.84869 0.0
H1319 H 0.35404 0.36167 0.79579 0.0
H1320 H 0.33972 0.30241 0.7008 0.0
H1321 H 0.3478 0.27964 0.65229 0.0
H1322 H 0.37878 0.32847 0.54757 0.0
H1323 H 0.37116 0.35166 0.59581 0.0
C1324 C 0.30077 0.38616 0.65176 0.0
C1325 C 0.31209 0.40013 0.61438 0.0
C1326 C 0.3081 0.37434 0.67415 0.0
C1327 C 0.32688 0.37637 0.65963 0.0
C1328 C 0.33779 0.3897 0.62115 0.0
C1329 C 0.3305 0.40151 0.59878 0.0
C1330 C 0.3358 0.36545 0.68573 0.0
C1331 C 0.34072 0.35243 0.65942 0.0
C1332 C 0.3402 0.36844 0.73575 0.0
C1333 C 0.33598 0.38257 0.7651 0.0
C1334 C 0.34489 0.40379 0.75287 0.0
C1335 C 0.34053 0.41691 0.7802 0.0
C1336 C 0.32744 0.40903 0.82014 0.0
C1337 C 0.31874 0.38803 0.83292 0.0
C1338 C 0.32302 0.37483 0.80564 0.0
C1339 C 0.40094 0.33923 0.75542 0.0
C1340 C 0.39441 0.32646 0.79666 0.0
C1341 C 0.38834 0.34576 0.73445 0.0
C1342 C 0.36891 0.33957 0.7541 0.0
C1343 C 0.36244 0.32714 0.7958 0.0
C1344 C 0.37506 0.32054 0.81684 0.0
C1345 C 0.35564 0.34646 0.73104 0.0
C1346 C 0.34988 0.35871 0.75791 0.0
C1347 C 0.35045 0.34276 0.68149 0.0
C1348 C 0.35497 0.32882 0.65213 0.0
C1349 C 0.34838 0.30835 0.6676 0.0
C1350 C 0.35286 0.29535 0.64012 0.0
C1351 C 0.36382 0.30261 0.59691 0.0
C1352 C 0.37029 0.32287 0.58105 0.0
C1353 C 0.36587 0.33593 0.60842 0.0
H1354 H 0.36728 0.29253 0.57569 0.0
H1355 H 0.32409 0.41922 0.84125 0.0
loop_
_geom_bond_atom_site_label_1
_geom_bond_atom_site_label_2
_geom_bond_distance
_geom_bond_site_symmetry_2
_ccdc_geom_bond_type
C0 O1 1.160 1_554 S
C0 O7 1.185 . S
O1 C0 1.160 1_556 S
O2 Zn3 1.899 1_556 S
O2 C10 1.284 . S
Zn3 O2 1.899 1_554 S
Zn3 O4 2.032 . S
Zn3 O7 2.086 . S
Zn3 O12 1.977 . S
O4 Zn3 2.032 . S
O4 C8 1.278 . S
C5 O6 1.203 . S
C5 O12 1.267 . S
O6 C5 1.203 . S
O7 C0 1.185 . S
O7 Zn3 2.086 . S
C8 O4 1.278 . S
C8 O9 1.211 . S
O9 C8 1.211 . S
C10 O2 1.284 . S
C10 O11 1.273 . S
O11 C10 1.273 . S
O12 Zn3 1.977 . S
O12 C5 1.267 . S
C13 O14 1.160 . S
C13 O20 1.185 . S
O14 C13 1.160 . S
O15 Zn16 1.899 . S
O15 C23 1.284 . S
Zn16 O15 1.899 . S
Zn16 O17 2.032 . S
Zn16 O20 2.086 . S
Zn16 O25 1.977 . S
O17 Zn16 2.032 . S
O17 C21 1.278 . S
C18 O19 1.203 . S
C18 O25 1.267 . S
O19 C18 1.203 . S
O20 C13 1.185 . S
O20 Zn16 2.086 . S
C21 O17 1.278 . S
C21 O22 1.211 . S
O22 C21 1.211 . S
C23 O15 1.284 . S
C23 O24 1.273 . S
O24 C23 1.273 . S
O25 Zn16 1.977 . S
O25 C18 1.267 . S
C26 O27 1.160 . S
C26 O33 1.185 . S
O27 C26 1.160 . S
O28 Zn29 1.899 . S
O28 C36 1.284 . S
Zn29 O28 1.899 . S
Zn29 O30 2.032 . S
Zn29 O33 2.086 . S
Zn29 O38 1.977 . S
O30 Zn29 2.032 . S
O30 C34 1.278 . S
C31 O32 1.203 . S
C31 O38 1.267 . S
O32 C31 1.203 . S
O33 C26 1.185 . S
O33 Zn29 2.086 . S
C34 O30 1.278 . S
C34 O35 1.211 . S
O35 C34 1.211 . S
C36 O28 1.284 . S
C36 O37 1.273 . S
O37 C36 1.273 . S
O38 Zn29 1.977 . S
O38 C31 1.267 . S
C39 O40 1.160 . S
C39 O46 1.185 . S
O40 C39 1.160 . S
O41 Zn42 1.899 . S
O41 C49 1.284 . S
Zn42 O41 1.899 . S
Zn42 O43 2.032 . S
Zn42 O46 2.086 . S
Zn42 O51 1.977 . S
O43 Zn42 2.032 . S
O43 C47 1.278 . S
C44 O45 1.203 . S
C44 O51 1.267 . S
O45 C44 1.203 . S
O46 C39 1.185 . S
O46 Zn42 2.086 . S
C47 O43 1.278 . S
C47 O48 1.211 . S
O48 C47 1.211 . S
C49 O41 1.284 . S
C49 O50 1.273 . S
O50 C49 1.273 . S
O51 Zn42 1.977 . S
O51 C44 1.267 . S
C52 O53 1.160 . S
C52 O59 1.185 . S
O53 C52 1.160 . S
O54 Zn55 1.899 . S
O54 C62 1.284 . S
Zn55 O54 1.899 . S
Zn55 O56 2.032 . S
Zn55 O59 2.086 . S
Zn55 O64 1.977 . S
O56 Zn55 2.032 . S
O56 C60 1.278 . S
C57 O58 1.203 . S
C57 O64 1.267 . S
O58 C57 1.203 . S
O59 C52 1.185 . S
O59 Zn55 2.086 . S
C60 O56 1.278 . S
C60 O61 1.211 . S
O61 C60 1.211 . S
C62 O54 1.284 . S
C62 O63 1.273 . S
O63 C62 1.273 . S
O64 Zn55 1.977 . S
O64 C57 1.267 . S
C65 O66 1.160 . S
C65 O72 1.185 . S
O66 C65 1.160 . S
O67 Zn68 1.899 . S
O67 C75 1.284 . S
Zn68 O67 1.899 . S
Zn68 O69 2.032 . S
Zn68 O72 2.086 . S
Zn68 O77 1.977 . S
O69 Zn68 2.032 . S
O69 C73 1.278 . S
C70 O71 1.203 . S
C70 O77 1.267 . S
O71 C70 1.203 . S
O72 C65 1.185 . S
O72 Zn68 2.086 . S
C73 O69 1.278 . S
C73 O74 1.211 . S
O74 C73 1.211 . S
C75 O67 1.284 . S
C75 O76 1.273 . S
O76 C75 1.273 . S
O77 Zn68 1.977 . S
O77 C70 1.267 . S
C78 O79 1.160 . S
C78 O85 1.185 . S
O79 C78 1.160 . S
O80 Zn81 1.899 . S
O80 C88 1.284 . S
Zn81 O80 1.899 . S
Zn81 O82 2.032 . S
Zn81 O85 2.086 . S
Zn81 O90 1.977 . S
O82 Zn81 2.032 . S
O82 C86 1.278 . S
C83 O84 1.203 . S
C83 O90 1.267 . S
O84 C83 1.203 . S
O85 C78 1.185 . S
O85 Zn81 2.086 . S
C86 O82 1.278 . S
C86 O87 1.211 . S
O87 C86 1.211 . S
C88 O80 1.284 . S
C88 O89 1.273 . S
O89 C88 1.273 . S
O90 Zn81 1.977 . S
O90 C83 1.267 . S
C91 O92 1.160 . S
C91 O98 1.185 . S
O92 C91 1.160 . S
O93 Zn94 1.899 . S
O93 C101 1.284 . S
Zn94 O93 1.899 . S
Zn94 O95 2.032 . S
Zn94 O98 2.086 . S
Zn94 O103 1.977 1_554 S
O95 Zn94 2.032 . S
O95 C99 1.278 . S
C96 O97 1.203 . S
C96 O103 1.267 . S
O97 C96 1.203 . S
O98 C91 1.185 . S
O98 Zn94 2.086 . S
C99 O95 1.278 . S
C99 O100 1.211 . S
O100 C99 1.211 . S
C101 O93 1.284 . S
C101 O102 1.273 . S
O102 C101 1.273 . S
O103 Zn94 1.977 1_556 S
O103 C96 1.267 . S
C104 O105 1.160 . S
C104 O111 1.185 . S
O105 C104 1.160 . S
O106 Zn107 1.899 . S
O106 C114 1.284 . S
Zn107 O106 1.899 . S
Zn107 O108 2.032 . S
Zn107 O111 2.086 . S
Zn107 O116 1.977 . S
O108 Zn107 2.032 . S
O108 C112 1.278 . S
C109 O110 1.203 . S
C109 O116 1.267 . S
O110 C109 1.203 . S
O111 C104 1.185 . S
O111 Zn107 2.086 . S
C112 O108 1.278 . S
C112 O113 1.211 . S
O113 C112 1.211 . S
C114 O106 1.284 . S
C114 O115 1.273 . S
O115 C114 1.273 . S
O116 Zn107 1.977 . S
O116 C109 1.267 . S
C117 O118 1.160 . S
C117 O124 1.185 . S
O118 C117 1.160 . S
O119 Zn120 1.899 . S
O119 C127 1.284 . S
Zn120 O119 1.899 . S
Zn120 O121 2.032 . S
Zn120 O124 2.086 . S
Zn120 O129 1.977 . S
O121 Zn120 2.032 . S
O121 C125 1.278 . S
C122 O123 1.203 . S
C122 O129 1.267 . S
O123 C122 1.203 . S
O124 C117 1.185 . S
O124 Zn120 2.086 . S
C125 O121 1.278 . S
C125 O126 1.211 . S
O126 C125 1.211 . S
C127 O119 1.284 . S
C127 O128 1.273 . S
O128 C127 1.273 . S
O129 Zn120 1.977 . S
O129 C122 1.267 . S
C130 O131 1.160 . S
C130 O137 1.185 . S
O131 C130 1.160 . S
O132 Zn133 1.899 . S
O132 C140 1.284 . S
Zn133 O132 1.899 . S
Zn133 O134 2.032 . S
Zn133 O137 2.086 . S
Zn133 O142 1.977 . S
O134 Zn133 2.032 . S
O134 C138 1.278 . S
C135 O136 1.203 . S
C135 O142 1.267 . S
O136 C135 1.203 . S
O137 C130 1.185 . S
O137 Zn133 2.086 . S
C138 O134 1.278 . S
C138 O139 1.211 . S
O139 C138 1.211 . S
C140 O132 1.284 . S
C140 O141 1.273 . S
O141 C140 1.273 . S
O142 Zn133 1.977 . S
O142 C135 1.267 . S
C143 O144 1.160 . S
C143 O150 1.185 . S
O144 C143 1.160 . S
O145 Zn146 1.899 . S
O145 C153 1.284 . S
Zn146 O145 1.899 . S
Zn146 O147 2.032 . S
Zn146 O150 2.086 . S
Zn146 O155 1.977 . S
O147 Zn146 2.032 . S
O147 C151 1.278 . S
C148 O149 1.203 . S
C148 O155 1.267 . S
O149 C148 1.203 . S
O150 C143 1.185 . S
O150 Zn146 2.086 . S
C151 O147 1.278 . S
C151 O152 1.211 . S
O152 C151 1.211 . S
C153 O145 1.284 . S
C153 O154 1.273 . S
O154 C153 1.273 . S
O155 Zn146 1.977 . S
O155 C148 1.267 . S
H156 C174 0.951 . S
H157 C176 0.951 . S
H158 C178 0.950 . S
H159 C179 0.950 . S
H160 C181 0.950 . S
H161 C184 0.950 . S
H162 C185 0.950 . S
H163 C187 0.950 . S
H164 C188 0.950 . S
H165 C189 0.951 . S
H166 C191 0.951 . S
H167 C193 0.950 . S
H168 C194 0.950 . S
H169 C196 0.950 . S
H170 C199 0.950 . S
H171 C200 0.950 . S
H172 C202 0.950 . S
H173 C203 0.950 . S
C174 H156 0.951 . S
C174 C175 1.366 . S
C174 C176 1.388 . S
C175 C174 1.366 . S
C175 C179 1.385 . S
C176 H157 0.951 . S
C176 C174 1.388 . S
C176 C177 1.366 . S
C177 C176 1.366 . S
C177 C178 1.414 . S
C177 C180 1.499 . S
C178 H158 0.950 . S
C178 C177 1.414 . S
C178 C179 1.374 . S
C179 H159 0.950 . S
C179 C175 1.385 . S
C179 C178 1.374 . S
C180 C177 1.499 . S
C180 C181 1.373 . S
C180 C182 1.389 . S
C181 H160 0.950 . S
C181 C180 1.373 . S
C181 C197 1.377 . S
C182 C180 1.389 . S
C182 C183 1.524 . S
C182 C196 1.377 . S
C183 C182 1.524 . S
C183 C184 1.397 . S
C183 C188 1.363 . S
C184 H161 0.950 . S
C184 C183 1.397 . S
C184 C185 1.334 . S
C185 H162 0.950 . S
C185 C184 1.334 . S
C185 C186 1.287 . S
C186 C185 1.287 . S
C186 C187 1.524 . S
C186 H205 0.913 . S
C187 H163 0.950 . S
C187 C186 1.524 . S
C187 C188 1.415 . S
C188 H164 0.950 . S
C188 C183 1.363 . S
C188 C187 1.415 . S
C189 H165 0.951 . S
C189 C190 1.366 . S
C189 C191 1.388 . S
C190 C189 1.366 . S
C190 C194 1.385 . S
C191 H166 0.951 . S
C191 C189 1.388 . S
C191 C192 1.366 . S
C192 C191 1.366 . S
C192 C193 1.414 . S
C192 C195 1.499 . S
C193 H167 0.950 . S
C193 C192 1.414 . S
C193 C194 1.374 . S
C194 H168 0.950 . S
C194 C190 1.385 . S
C194 C193 1.374 . S
C195 C192 1.499 . S
C195 C196 1.373 . S
C195 C197 1.389 . S
C196 H169 0.950 . S
C196 C182 1.377 . S
C196 C195 1.373 . S
C197 C181 1.377 . S
C197 C195 1.389 . S
C197 C198 1.524 . S
C198 C197 1.524 . S
C198 C199 1.397 . S
C198 C203 1.363 . S
C199 H170 0.950 . S
C199 C198 1.397 . S
C199 C200 1.334 . S
C200 H171 0.950 . S
C200 C199 1.334 . S
C200 C201 1.287 . S
C201 C200 1.287 . S
C201 C202 1.524 . S
C201 H204 0.999 . S
C202 H172 0.950 . S
C202 C201 1.524 . S
C202 C203 1.415 . S
C203 H173 0.950 . S
C203 C198 1.363 . S
C203 C202 1.415 . S
H204 C201 0.999 . S
H205 C186 0.913 . S
H206 C224 0.951 . S
H207 C226 0.951 . S
H208 C228 0.950 . S
H209 C229 0.950 . S
H210 C231 0.950 . S
H211 C234 0.950 . S
H212 C235 0.950 . S
H213 C237 0.950 . S
H214 C238 0.950 . S
H215 C239 0.951 . S
H216 C241 0.951 . S
H217 C243 0.950 . S
H218 C244 0.950 . S
H219 C246 0.950 . S
H220 C249 0.950 . S
H221 C250 0.950 . S
H222 C252 0.950 . S
H223 C253 0.950 . S
C224 H206 0.951 . S
C224 C225 1.366 . S
C224 C226 1.388 . S
C225 C224 1.366 . S
C225 C229 1.385 . S
C226 H207 0.951 . S
C226 C224 1.388 . S
C226 C227 1.366 . S
C227 C226 1.366 . S
C227 C228 1.414 . S
C227 C230 1.499 . S
C228 H208 0.950 . S
C228 C227 1.414 . S
C228 C229 1.374 . S
C229 H209 0.950 . S
C229 C225 1.385 . S
C229 C228 1.374 . S
C230 C227 1.499 . S
C230 C231 1.373 . S
C230 C232 1.389 . S
C231 H210 0.950 . S
C231 C230 1.373 . S
C231 C247 1.377 . S
C232 C230 1.389 . S
C232 C233 1.524 . S
C232 C246 1.377 . S
C233 C232 1.524 . S
C233 C234 1.397 . S
C233 C238 1.363 . S
C234 H211 0.950 . S
C234 C233 1.397 . S
C234 C235 1.334 . S
C235 H212 0.950 . S
C235 C234 1.334 . S
C235 C236 1.287 . S
C236 C235 1.287 . S
C236 C237 1.524 . S
C236 H255 0.913 . S
C237 H213 0.950 . S
C237 C236 1.524 . S
C237 C238 1.415 . S
C238 H214 0.950 . S
C238 C233 1.363 . S
C238 C237 1.415 . S
C239 H215 0.951 . S
C239 C240 1.366 . S
C239 C241 1.388 . S
C240 C239 1.366 . S
C240 C244 1.385 . S
C241 H216 0.951 . S
C241 C239 1.388 . S
C241 C242 1.366 . S
C242 C241 1.366 . S
C242 C243 1.414 . S
C242 C245 1.499 . S
C243 H217 0.950 . S
C243 C242 1.414 . S
C243 C244 1.374 . S
C244 H218 0.950 . S
C244 C240 1.385 . S
C244 C243 1.374 . S
C245 C242 1.499 . S
C245 C246 1.373 . S
C245 C247 1.389 . S
C246 H219 0.950 . S
C246 C232 1.377 . S
C246 C245 1.373 . S
C247 C231 1.377 . S
C247 C245 1.389 . S
C247 C248 1.524 . S
C248 C247 1.524 . S
C248 C249 1.397 . S
C248 C253 1.363 . S
C249 H220 0.950 . S
C249 C248 1.397 . S
C249 C250 1.334 . S
C250 H221 0.950 . S
C250 C249 1.334 . S
C250 C251 1.287 . S
C251 C250 1.287 . S
C251 C252 1.524 . S
C251 H254 0.999 . S
C252 H222 0.950 . S
C252 C251 1.524 . S
C252 C253 1.415 . S
C253 H223 0.950 . S
C253 C248 1.363 . S
C253 C252 1.415 . S
H254 C251 0.999 . S
H255 C236 0.913 . S
H256 C274 0.951 . S
H257 C276 0.951 . S
H258 C278 0.950 . S
H259 C279 0.950 . S
H260 C281 0.950 . S
H261 C284 0.950 . S
H262 C285 0.950 . S
H263 C287 0.950 . S
H264 C288 0.950 . S
H265 C289 0.951 . S
H266 C291 0.951 . S
H267 C293 0.950 . S
H268 C294 0.950 . S
H269 C296 0.950 . S
H270 C299 0.950 . S
H271 C300 0.950 . S
H272 C302 0.950 . S
H273 C303 0.950 . S
C274 H256 0.951 . S
C274 C275 1.366 . S
C274 C276 1.388 . S
C275 C274 1.366 . S
C275 C279 1.385 . S
C276 H257 0.951 . S
C276 C274 1.388 . S
C276 C277 1.366 . S
C277 C276 1.366 . S
C277 C278 1.414 . S
C277 C280 1.499 . S
C278 H258 0.950 . S
C278 C277 1.414 . S
C278 C279 1.374 . S
C279 H259 0.950 . S
C279 C275 1.385 . S
C279 C278 1.374 . S
C280 C277 1.499 . S
C280 C281 1.373 . S
C280 C282 1.389 . S
C281 H260 0.950 . S
C281 C280 1.373 . S
C281 C297 1.377 . S
C282 C280 1.389 . S
C282 C283 1.524 . S
C282 C296 1.377 . S
C283 C282 1.524 . S
C283 C284 1.397 . S
C283 C288 1.363 . S
C284 H261 0.950 . S
C284 C283 1.397 . S
C284 C285 1.334 . S
C285 H262 0.950 . S
C285 C284 1.334 . S
C285 C286 1.287 . S
C286 C285 1.287 . S
C286 C287 1.524 . S
C286 H305 0.913 . S
C287 H263 0.950 . S
C287 C286 1.524 . S
C287 C288 1.415 . S
C288 H264 0.950 . S
C288 C283 1.363 . S
C288 C287 1.415 . S
C289 H265 0.951 . S
C289 C290 1.366 . S
C289 C291 1.388 . S
C290 C289 1.366 . S
C290 C294 1.385 . S
C291 H266 0.951 . S
C291 C289 1.388 . S
C291 C292 1.366 . S
C292 C291 1.366 . S
C292 C293 1.414 . S
C292 C295 1.499 . S
C293 H267 0.950 . S
C293 C292 1.414 . S
C293 C294 1.374 . S
C294 H268 0.950 . S
C294 C290 1.385 . S
C294 C293 1.374 . S
C295 C292 1.499 . S
C295 C296 1.373 . S
C295 C297 1.389 . S
C296 H269 0.950 . S
C296 C282 1.377 . S
C296 C295 1.373 . S
C297 C281 1.377 . S
C297 C295 1.389 . S
C297 C298 1.524 . S
C298 C297 1.524 . S
C298 C299 1.397 . S
C298 C303 1.363 . S
C299 H270 0.950 . S
C299 C298 1.397 . S
C299 C300 1.334 . S
C300 H271 0.950 . S
C300 C299 1.334 . S
C300 C301 1.287 . S
C301 C300 1.287 . S
C301 C302 1.524 . S
C301 H304 0.999 . S
C302 H272 0.950 . S
C302 C301 1.524 . S
C302 C303 1.415 . S
C303 H273 0.950 . S
C303 C298 1.363 . S
C303 C302 1.415 . S
H304 C301 0.999 . S
H305 C286 0.913 . S
H306 C324 0.951 . S
H307 C326 0.951 . S
H308 C328 0.950 . S
H309 C329 0.950 . S
H310 C331 0.950 . S
H311 C334 0.950 . S
H312 C335 0.950 . S
H313 C337 0.950 . S
H314 C338 0.950 . S
H315 C339 0.951 . S
H316 C341 0.951 . S
H317 C343 0.950 . S
H318 C344 0.950 . S
H319 C346 0.950 . S
H320 C349 0.950 . S
H321 C350 0.950 . S
H322 C352 0.950 . S
H323 C353 0.950 . S
C324 H306 0.951 . S
C324 C325 1.366 . S
C324 C326 1.388 . S
C325 C324 1.366 . S
C325 C329 1.385 . S
C326 H307 0.951 . S
C326 C324 1.388 . S
C326 C327 1.366 . S
C327 C326 1.366 . S
C327 C328 1.414 . S
C327 C330 1.499 . S
C328 H308 0.950 . S
C328 C327 1.414 . S
C328 C329 1.374 . S
C329 H309 0.950 . S
C329 C325 1.385 . S
C329 C328 1.374 . S
C330 C327 1.499 . S
C330 C331 1.373 . S
C330 C332 1.389 . S
C331 H310 0.950 . S
C331 C330 1.373 . S
C331 C347 1.377 . S
C332 C330 1.389 . S
C332 C333 1.524 . S
C332 C346 1.377 . S
C333 C332 1.524 . S
C333 C334 1.397 . S
C333 C338 1.363 . S
C334 H311 0.950 . S
C334 C333 1.397 . S
C334 C335 1.334 . S
C335 H312 0.950 . S
C335 C334 1.334 . S
C335 C336 1.287 . S
C336 C335 1.287 . S
C336 C337 1.524 . S
C336 H355 0.913 . S
C337 H313 0.950 . S
C337 C336 1.524 . S
C337 C338 1.415 . S
C338 H314 0.950 . S
C338 C333 1.363 . S
C338 C337 1.415 . S
C339 H315 0.951 . S
C339 C340 1.366 . S
C339 C341 1.388 . S
C340 C339 1.366 . S
C340 C344 1.385 . S
C341 H316 0.951 . S
C341 C339 1.388 . S
C341 C342 1.366 . S
C342 C341 1.366 . S
C342 C343 1.414 . S
C342 C345 1.499 . S
C343 H317 0.950 . S
C343 C342 1.414 . S
C343 C344 1.374 . S
C344 H318 0.950 . S
C344 C340 1.385 . S
C344 C343 1.374 . S
C345 C342 1.499 . S
C345 C346 1.373 . S
C345 C347 1.389 . S
C346 H319 0.950 . S
C346 C332 1.377 . S
C346 C345 1.373 . S
C347 C331 1.377 . S
C347 C345 1.389 . S
C347 C348 1.524 . S
C348 C347 1.524 . S
C348 C349 1.397 . S
C348 C353 1.363 . S
C349 H320 0.950 . S
C349 C348 1.397 . S
C349 C350 1.334 . S
C350 H321 0.950 . S
C350 C349 1.334 . S
C350 C351 1.287 . S
C351 C350 1.287 . S
C351 C352 1.524 . S
C351 H354 0.999 1_556 S
C352 H322 0.950 . S
C352 C351 1.524 . S
C352 C353 1.415 . S
C353 H323 0.950 . S
C353 C348 1.363 . S
C353 C352 1.415 . S
H354 C351 0.999 1_554 S
H355 C336 0.913 . S
H356 C374 0.951 . S
H357 C376 0.951 . S
H358 C378 0.950 . S
H359 C379 0.950 . S
H360 C381 0.950 . S
H361 C384 0.950 . S
H362 C385 0.950 . S
H363 C387 0.950 . S
H364 C388 0.950 . S
H365 C389 0.951 . S
H366 C391 0.951 . S
H367 C393 0.950 . S
H368 C394 0.950 . S
H369 C396 0.950 . S
H370 C399 0.950 . S
H371 C400 0.950 . S
H372 C402 0.950 . S
H373 C403 0.950 . S
C374 H356 0.951 . S
C374 C375 1.366 . S
C374 C376 1.388 . S
C375 C374 1.366 . S
C375 C379 1.385 . S
C376 H357 0.951 . S
C376 C374 1.388 . S
C376 C377 1.366 . S
C377 C376 1.366 . S
C377 C378 1.414 . S
C377 C380 1.499 . S
C378 H358 0.950 . S
C378 C377 1.414 . S
C378 C379 1.374 . S
C379 H359 0.950 . S
C379 C375 1.385 . S
C379 C378 1.374 . S
C380 C377 1.499 . S
C380 C381 1.373 . S
C380 C382 1.389 . S
C381 H360 0.950 . S
C381 C380 1.373 . S
C381 C397 1.377 . S
C382 C380 1.389 . S
C382 C383 1.524 . S
C382 C396 1.377 1_556 S
C383 C382 1.524 . S
C383 C384 1.397 . S
C383 C388 1.363 . S
C384 H361 0.950 . S
C384 C383 1.397 . S
C384 C385 1.334 . S
C385 H362 0.950 . S
C385 C384 1.334 . S
C385 C386 1.287 . S
C386 C385 1.287 . S
C386 C387 1.524 . S
C386 H405 0.913 . S
C387 H363 0.950 . S
C387 C386 1.524 . S
C387 C388 1.415 . S
C388 H364 0.950 . S
C388 C383 1.363 . S
C388 C387 1.415 . S
C389 H365 0.951 . S
C389 C390 1.366 . S
C389 C391 1.388 . S
C390 C389 1.366 . S
C390 C394 1.385 . S
C391 H366 0.951 . S
C391 C389 1.388 . S
C391 C392 1.366 . S
C392 C391 1.366 . S
C392 C393 1.414 . S
C392 C395 1.499 . S
C393 H367 0.950 . S
C393 C392 1.414 . S
C393 C394 1.374 . S
C394 H368 0.950 . S
C394 C390 1.385 . S
C394 C393 1.374 . S
C395 C392 1.499 . S
C395 C396 1.373 . S
C395 C397 1.389 1_554 S
C396 H369 0.950 . S
C396 C382 1.377 1_554 S
C396 C395 1.373 . S
C397 C381 1.377 . S
C397 C395 1.389 1_556 S
C397 C398 1.524 . S
C398 C397 1.524 . S
C398 C399 1.397 . S
C398 C403 1.363 . S
C399 H370 0.950 . S
C399 C398 1.397 . S
C399 C400 1.334 . S
C400 H371 0.950 . S
C400 C399 1.334 . S
C400 C401 1.287 . S
C401 C400 1.287 . S
C401 C402 1.524 . S
C401 H404 0.999 . S
C402 H372 0.950 . S
C402 C401 1.524 . S
C402 C403 1.415 . S
C403 H373 0.950 . S
C403 C398 1.363 . S
C403 C402 1.415 . S
H404 C401 0.999 . S
H405 C386 0.913 . S
H406 C424 0.951 . S
H407 C426 0.951 . S
H408 C428 0.950 . S
H409 C429 0.950 . S
H410 C431 0.950 . S
H411 C434 0.950 . S
H412 C435 0.950 . S
H413 C437 0.950 . S
H414 C438 0.950 . S
H415 C439 0.951 . S
H416 C441 0.951 . S
H417 C443 0.950 . S
H418 C444 0.950 . S
H419 C446 0.950 . S
H420 C449 0.950 . S
H421 C450 0.950 . S
H422 C452 0.950 . S
H423 C453 0.950 . S
C424 H406 0.951 . S
C424 C425 1.366 . S
C424 C426 1.388 . S
C425 C424 1.366 . S
C425 C429 1.385 . S
C426 H407 0.951 . S
C426 C424 1.388 . S
C426 C427 1.366 . S
C427 C426 1.366 . S
C427 C428 1.414 . S
C427 C430 1.499 . S
C428 H408 0.950 . S
C428 C427 1.414 . S
C428 C429 1.374 . S
C429 H409 0.950 . S
C429 C425 1.385 . S
C429 C428 1.374 . S
C430 C427 1.499 . S
C430 C431 1.373 . S
C430 C432 1.389 . S
C431 H410 0.950 . S
C431 C430 1.373 . S
C431 C447 1.377 . S
C432 C430 1.389 . S
C432 C433 1.524 . S
C432 C446 1.377 . S
C433 C432 1.524 . S
C433 C434 1.397 . S
C433 C438 1.363 . S
C434 H411 0.950 . S
C434 C433 1.397 . S
C434 C435 1.334 . S
C435 H412 0.950 . S
C435 C434 1.334 . S
C435 C436 1.287 . S
C436 C435 1.287 . S
C436 C437 1.524 . S
C436 H455 0.913 . S
C437 H413 0.950 . S
C437 C436 1.524 . S
C437 C438 1.415 . S
C438 H414 0.950 . S
C438 C433 1.363 . S
C438 C437 1.415 . S
C439 H415 0.951 . S
C439 C440 1.366 . S
C439 C441 1.388 1_556 S
C440 C439 1.366 . S
C440 C444 1.385 . S
C441 H416 0.951 . S
C441 C439 1.388 1_554 S
C441 C442 1.366 . S
C442 C441 1.366 . S
C442 C443 1.414 . S
C442 C445 1.499 . S
C443 H417 0.950 . S
C443 C442 1.414 . S
C443 C444 1.374 1_554 S
C444 H418 0.950 . S
C444 C440 1.385 . S
C444 C443 1.374 1_556 S
C445 C442 1.499 . S
C445 C446 1.373 . S
C445 C447 1.389 . S
C446 H419 0.950 . S
C446 C432 1.377 . S
C446 C445 1.373 . S
C447 C431 1.377 . S
C447 C445 1.389 . S
C447 C448 1.524 . S
C448 C447 1.524 . S
C448 C449 1.397 . S
C448 C453 1.363 . S
C449 H420 0.950 . S
C449 C448 1.397 . S
C449 C450 1.334 . S
C450 H421 0.950 . S
C450 C449 1.334 . S
C450 C451 1.287 . S
C451 C450 1.287 . S
C451 C452 1.524 . S
C451 H454 0.999 . S
C452 H422 0.950 . S
C452 C451 1.524 . S
C452 C453 1.415 . S
C453 H423 0.950 . S
C453 C448 1.363 . S
C453 C452 1.415 . S
H454 C451 0.999 . S
H455 C436 0.913 . S
H456 C474 0.951 . S
H457 C476 0.951 . S
H458 C478 0.950 . S
H459 C479 0.950 . S
H460 C481 0.950 . S
H461 C484 0.950 . S
H462 C485 0.950 . S
H463 C487 0.950 . S
H464 C488 0.950 . S
H465 C489 0.951 . S
H466 C491 0.951 . S
H467 C493 0.950 . S
H468 C494 0.950 . S
H469 C496 0.950 . S
H470 C499 0.950 . S
H471 C500 0.950 . S
H472 C502 0.950 . S
H473 C503 0.950 . S
C474 H456 0.951 . S
C474 C475 1.366 . S
C474 C476 1.388 . S
C475 C474 1.366 . S
C475 C479 1.385 . S
C476 H457 0.951 . S
C476 C474 1.388 . S
C476 C477 1.366 . S
C477 C476 1.366 . S
C477 C478 1.414 . S
C477 C480 1.499 . S
C478 H458 0.950 . S
C478 C477 1.414 . S
C478 C479 1.374 . S
C479 H459 0.950 . S
C479 C475 1.385 . S
C479 C478 1.374 . S
C480 C477 1.499 . S
C480 C481 1.373 . S
C480 C482 1.389 . S
C481 H460 0.950 . S
C481 C480 1.373 . S
C481 C497 1.377 . S
C482 C480 1.389 . S
C482 C483 1.524 . S
C482 C496 1.377 . S
C483 C482 1.524 . S
C483 C484 1.397 . S
C483 C488 1.363 . S
C484 H461 0.950 . S
C484 C483 1.397 . S
C484 C485 1.334 . S
C485 H462 0.950 . S
C485 C484 1.334 . S
C485 C486 1.287 . S
C486 C485 1.287 . S
C486 C487 1.524 . S
C486 H505 0.913 . S
C487 H463 0.950 . S
C487 C486 1.524 . S
C487 C488 1.415 . S
C488 H464 0.950 . S
C488 C483 1.363 . S
C488 C487 1.415 . S
C489 H465 0.951 . S
C489 C490 1.366 . S
C489 C491 1.388 . S
C490 C489 1.366 . S
C490 C494 1.385 . S
C491 H466 0.951 . S
C491 C489 1.388 . S
C491 C492 1.366 . S
C492 C491 1.366 . S
C492 C493 1.414 . S
C492 C495 1.499 . S
C493 H467 0.950 . S
C493 C492 1.414 . S
C493 C494 1.374 . S
C494 H468 0.950 . S
C494 C490 1.385 . S
C494 C493 1.374 . S
C495 C492 1.499 . S
C495 C496 1.373 . S
C495 C497 1.389 . S
C496 H469 0.950 . S
C496 C482 1.377 . S
C496 C495 1.373 . S
C497 C481 1.377 . S
C497 C495 1.389 . S
C497 C498 1.524 . S
C498 C497 1.524 . S
C498 C499 1.397 . S
C498 C503 1.363 . S
C499 H470 0.950 . S
C499 C498 1.397 . S
C499 C500 1.334 . S
C500 H471 0.950 . S
C500 C499 1.334 . S
C500 C501 1.287 . S
C501 C500 1.287 . S
C501 C502 1.524 . S
C501 H504 0.999 1_554 S
C502 H472 0.950 . S
C502 C501 1.524 . S
C502 C503 1.415 . S
C503 H473 0.950 . S
C503 C498 1.363 . S
C503 C502 1.415 . S
H504 C501 0.999 1_556 S
H505 C486 0.913 . S
H506 C524 0.951 . S
H507 C526 0.951 . S
H508 C528 0.950 . S
H509 C529 0.950 . S
H510 C531 0.950 . S
H511 C534 0.950 . S
H512 C535 0.950 . S
H513 C537 0.950 . S
H514 C538 0.950 . S
H515 C539 0.951 . S
H516 C541 0.951 . S
H517 C543 0.950 . S
H518 C544 0.950 . S
H519 C546 0.950 . S
H520 C549 0.950 . S
H521 C550 0.950 . S
H522 C552 0.950 . S
H523 C553 0.950 . S
C524 H506 0.951 . S
C524 C525 1.366 . S
C524 C526 1.388 . S
C525 C524 1.366 . S
C525 C529 1.385 . S
C526 H507 0.951 . S
C526 C524 1.388 . S
C526 C527 1.366 . S
C527 C526 1.366 . S
C527 C528 1.414 . S
C527 C530 1.499 . S
C528 H508 0.950 . S
C528 C527 1.414 . S
C528 C529 1.374 . S
C529 H509 0.950 . S
C529 C525 1.385 . S
C529 C528 1.374 . S
C530 C527 1.499 . S
C530 C531 1.373 . S
C530 C532 1.389 . S
C531 H510 0.950 . S
C531 C530 1.373 . S
C531 C547 1.377 . S
C532 C530 1.389 . S
C532 C533 1.524 . S
C532 C546 1.377 . S
C533 C532 1.524 . S
C533 C534 1.397 . S
C533 C538 1.363 . S
C534 H511 0.950 . S
C534 C533 1.397 . S
C534 C535 1.334 . S
C535 H512 0.950 . S
C535 C534 1.334 . S
C535 C536 1.287 . S
C536 C535 1.287 . S
C536 C537 1.524 . S
C536 H555 0.913 . S
C537 H513 0.950 . S
C537 C536 1.524 . S
C537 C538 1.415 . S
C538 H514 0.950 . S
C538 C533 1.363 . S
C538 C537 1.415 . S
C539 H515 0.951 . S
C539 C540 1.366 . S
C539 C541 1.388 . S
C540 C539 1.366 . S
C540 C544 1.385 . S
C541 H516 0.951 . S
C541 C539 1.388 . S
C541 C542 1.366 . S
C542 C541 1.366 . S
C542 C543 1.414 . S
C542 C545 1.499 . S
C543 H517 0.950 . S
C543 C542 1.414 . S
C543 C544 1.374 . S
C544 H518 0.950 . S
C544 C540 1.385 . S
C544 C543 1.374 . S
C545 C542 1.499 . S
C545 C546 1.373 . S
C545 C547 1.389 . S
C546 H519 0.950 . S
C546 C532 1.377 . S
C546 C545 1.373 . S
C547 C531 1.377 . S
C547 C545 1.389 . S
C547 C548 1.524 . S
C548 C547 1.524 . S
C548 C549 1.397 . S
C548 C553 1.363 . S
C549 H520 0.950 . S
C549 C548 1.397 . S
C549 C550 1.334 . S
C550 H521 0.950 . S
C550 C549 1.334 . S
C550 C551 1.287 . S
C551 C550 1.287 . S
C551 C552 1.524 . S
C551 H554 0.999 . S
C552 H522 0.950 . S
C552 C551 1.524 . S
C552 C553 1.415 . S
C553 H523 0.950 . S
C553 C548 1.363 . S
C553 C552 1.415 . S
H554 C551 0.999 . S
H555 C536 0.913 . S
H556 C574 0.951 . S
H557 C576 0.951 . S
H558 C578 0.950 . S
H559 C579 0.950 . S
H560 C581 0.950 . S
H561 C584 0.950 . S
H562 C585 0.950 . S
H563 C587 0.950 . S
H564 C588 0.950 . S
H565 C589 0.951 . S
H566 C591 0.951 . S
H567 C593 0.950 . S
H568 C594 0.950 . S
H569 C596 0.950 . S
H570 C599 0.950 . S
H571 C600 0.950 . S
H572 C602 0.950 . S
H573 C603 0.950 . S
C574 H556 0.951 . S
C574 C575 1.366 . S
C574 C576 1.388 . S
C575 C574 1.366 . S
C575 C579 1.385 . S
C576 H557 0.951 . S
C576 C574 1.388 . S
C576 C577 1.366 . S
C577 C576 1.366 . S
C577 C578 1.414 . S
C577 C580 1.499 . S
C578 H558 0.950 . S
C578 C577 1.414 . S
C578 C579 1.374 . S
C579 H559 0.950 . S
C579 C575 1.385 . S
C579 C578 1.374 . S
C580 C577 1.499 . S
C580 C581 1.373 . S
C580 C582 1.389 . S
C581 H560 0.950 . S
C581 C580 1.373 . S
C581 C597 1.377 . S
C582 C580 1.389 . S
C582 C583 1.524 . S
C582 C596 1.377 . S
C583 C582 1.524 . S
C583 C584 1.397 . S
C583 C588 1.363 . S
C584 H561 0.950 . S
C584 C583 1.397 . S
C584 C585 1.334 . S
C585 H562 0.950 . S
C585 C584 1.334 . S
C585 C586 1.287 . S
C586 C585 1.287 . S
C586 C587 1.524 . S
C586 H605 0.913 . S
C587 H563 0.950 . S
C587 C586 1.524 . S
C587 C588 1.415 . S
C588 H564 0.950 . S
C588 C583 1.363 . S
C588 C587 1.415 . S
C589 H565 0.951 . S
C589 C590 1.366 . S
C589 C591 1.388 . S
C590 C589 1.366 . S
C590 C594 1.385 . S
C591 H566 0.951 . S
C591 C589 1.388 . S
C591 C592 1.366 . S
C592 C591 1.366 . S
C592 C593 1.414 . S
C592 C595 1.499 . S
C593 H567 0.950 . S
C593 C592 1.414 . S
C593 C594 1.374 . S
C594 H568 0.950 . S
C594 C590 1.385 . S
C594 C593 1.374 . S
C595 C592 1.499 . S
C595 C596 1.373 . S
C595 C597 1.389 . S
C596 H569 0.950 . S
C596 C582 1.377 . S
C596 C595 1.373 . S
C597 C581 1.377 . S
C597 C595 1.389 . S
C597 C598 1.524 . S
C598 C597 1.524 . S
C598 C599 1.397 . S
C598 C603 1.363 . S
C599 H570 0.950 . S
C599 C598 1.397 . S
C599 C600 1.334 . S
C600 H571 0.950 . S
C600 C599 1.334 . S
C600 C601 1.287 . S
C601 C600 1.287 . S
C601 C602 1.524 . S
C601 H604 0.999 . S
C602 H572 0.950 . S
C602 C601 1.524 . S
C602 C603 1.415 . S
C603 H573 0.950 . S
C603 C598 1.363 . S
C603 C602 1.415 . S
H604 C601 0.999 . S
H605 C586 0.913 . S
H606 C624 0.951 . S
H607 C626 0.951 . S
H608 C628 0.950 . S
H609 C629 0.950 . S
H610 C631 0.950 . S
H611 C634 0.950 . S
H612 C635 0.950 . S
H613 C637 0.950 . S
H614 C638 0.950 . S
H615 C639 0.951 . S
H616 C641 0.951 . S
H617 C643 0.950 . S
H618 C644 0.950 . S
H619 C646 0.950 . S
H620 C649 0.950 . S
H621 C650 0.950 . S
H622 C652 0.950 . S
H623 C653 0.950 . S
C624 H606 0.951 . S
C624 C625 1.366 . S
C624 C626 1.388 . S
C625 C624 1.366 . S
C625 C629 1.385 . S
C626 H607 0.951 . S
C626 C624 1.388 . S
C626 C627 1.366 . S
C627 C626 1.366 . S
C627 C628 1.414 . S
C627 C630 1.499 . S
C628 H608 0.950 . S
C628 C627 1.414 . S
C628 C629 1.374 . S
C629 H609 0.950 . S
C629 C625 1.385 . S
C629 C628 1.374 . S
C630 C627 1.499 . S
C630 C631 1.373 . S
C630 C632 1.389 . S
C631 H610 0.950 . S
C631 C630 1.373 . S
C631 C647 1.377 . S
C632 C630 1.389 . S
C632 C633 1.524 . S
C632 C646 1.377 . S
C633 C632 1.524 . S
C633 C634 1.397 . S
C633 C638 1.363 . S
C634 H611 0.950 . S
C634 C633 1.397 . S
C634 C635 1.334 . S
C635 H612 0.950 . S
C635 C634 1.334 . S
C635 C636 1.287 . S
C636 C635 1.287 . S
C636 C637 1.524 . S
C636 H655 0.913 . S
C637 H613 0.950 . S
C637 C636 1.524 . S
C637 C638 1.415 . S
C638 H614 0.950 . S
C638 C633 1.363 . S
C638 C637 1.415 . S
C639 H615 0.951 . S
C639 C640 1.366 . S
C639 C641 1.388 . S
C640 C639 1.366 . S
C640 C644 1.385 . S
C641 H616 0.951 . S
C641 C639 1.388 . S
C641 C642 1.366 . S
C642 C641 1.366 . S
C642 C643 1.414 . S
C642 C645 1.499 . S
C643 H617 0.950 . S
C643 C642 1.414 . S
C643 C644 1.374 . S
C644 H618 0.950 . S
C644 C640 1.385 . S
C644 C643 1.374 . S
C645 C642 1.499 . S
C645 C646 1.373 . S
C645 C647 1.389 . S
C646 H619 0.950 . S
C646 C632 1.377 . S
C646 C645 1.373 . S
C647 C631 1.377 . S
C647 C645 1.389 . S
C647 C648 1.524 . S
C648 C647 1.524 . S
C648 C649 1.397 . S
C648 C653 1.363 . S
C649 H620 0.950 . S
C649 C648 1.397 . S
C649 C650 1.334 . S
C650 H621 0.950 . S
C650 C649 1.334 . S
C650 C651 1.287 . S
C651 C650 1.287 . S
C651 C652 1.524 . S
C651 H654 0.999 . S
C652 H622 0.950 . S
C652 C651 1.524 . S
C652 C653 1.415 . S
C653 H623 0.950 . S
C653 C648 1.363 . S
C653 C652 1.415 . S
H654 C651 0.999 . S
H655 C636 0.913 . S
H656 C674 0.951 . S
H657 C676 0.951 . S
H658 C678 0.950 . S
H659 C679 0.950 . S
H660 C681 0.950 . S
H661 C684 0.950 . S
H662 C685 0.950 . S
H663 C687 0.950 . S
H664 C688 0.950 . S
H665 C689 0.951 . S
H666 C691 0.951 . S
H667 C693 0.950 . S
H668 C694 0.950 . S
H669 C696 0.950 . S
H670 C699 0.950 . S
H671 C700 0.950 . S
H672 C702 0.950 . S
H673 C703 0.950 . S
C674 H656 0.951 . S
C674 C675 1.366 . S
C674 C676 1.388 . S
C675 C674 1.366 . S
C675 C679 1.385 . S
C676 H657 0.951 . S
C676 C674 1.388 . S
C676 C677 1.366 . S
C677 C676 1.366 . S
C677 C678 1.414 . S
C677 C680 1.499 . S
C678 H658 0.950 . S
C678 C677 1.414 . S
C678 C679 1.374 . S
C679 H659 0.950 . S
C679 C675 1.385 . S
C679 C678 1.374 . S
C680 C677 1.499 . S
C680 C681 1.373 . S
C680 C682 1.389 . S
C681 H660 0.950 . S
C681 C680 1.373 . S
C681 C697 1.377 . S
C682 C680 1.389 . S
C682 C683 1.524 . S
C682 C696 1.377 . S
C683 C682 1.524 . S
C683 C684 1.397 . S
C683 C688 1.363 . S
C684 H661 0.950 . S
C684 C683 1.397 . S
C684 C685 1.334 . S
C685 H662 0.950 . S
C685 C684 1.334 . S
C685 C686 1.287 . S
C686 C685 1.287 . S
C686 C687 1.524 . S
C686 H705 0.913 . S
C687 H663 0.950 . S
C687 C686 1.524 . S
C687 C688 1.415 . S
C688 H664 0.950 . S
C688 C683 1.363 . S
C688 C687 1.415 . S
C689 H665 0.951 . S
C689 C690 1.366 . S
C689 C691 1.388 . S
C690 C689 1.366 . S
C690 C694 1.385 . S
C691 H666 0.951 . S
C691 C689 1.388 . S
C691 C692 1.366 . S
C692 C691 1.366 . S
C692 C693 1.414 . S
C692 C695 1.499 . S
C693 H667 0.950 . S
C693 C692 1.414 . S
C693 C694 1.374 . S
C694 H668 0.950 . S
C694 C690 1.385 . S
C694 C693 1.374 . S
C695 C692 1.499 . S
C695 C696 1.373 . S
C695 C697 1.389 . S
C696 H669 0.950 . S
C696 C682 1.377 . S
C696 C695 1.373 . S
C697 C681 1.377 . S
C697 C695 1.389 . S
C697 C698 1.524 . S
C698 C697 1.524 . S
C698 C699 1.397 . S
C698 C703 1.363 . S
C699 H670 0.950 . S
C699 C698 1.397 . S
C699 C700 1.334 . S
C700 H671 0.950 . S
C700 C699 1.334 . S
C700 C701 1.287 . S
C701 C700 1.287 . S
C701 C702 1.524 . S
C701 H704 0.999 . S
C702 H672 0.950 . S
C702 C701 1.524 . S
C702 C703 1.415 . S
C703 H673 0.950 . S
C703 C698 1.363 . S
C703 C702 1.415 . S
H704 C701 0.999 . S
H705 C686 0.913 . S
H706 C724 0.951 . S
H707 C726 0.951 . S
H708 C728 0.950 . S
H709 C729 0.950 . S
H710 C731 0.950 1_554 S
H711 C734 0.950 . S
H712 C735 0.950 . S
H713 C737 0.950 . S
H714 C738 0.950 . S
H715 C739 0.951 . S
H716 C741 0.951 . S
H717 C743 0.950 . S
H718 C744 0.950 . S
H719 C746 0.950 . S
H720 C749 0.950 . S
H721 C750 0.950 . S
H722 C752 0.950 . S
H723 C753 0.950 . S
C724 H706 0.951 . S
C724 C725 1.366 . S
C724 C726 1.388 . S
C725 C724 1.366 . S
C725 C729 1.385 . S
C726 H707 0.951 . S
C726 C724 1.388 . S
C726 C727 1.366 . S
C727 C726 1.366 . S
C727 C728 1.414 . S
C727 C730 1.499 . S
C728 H708 0.950 . S
C728 C727 1.414 . S
C728 C729 1.374 . S
C729 H709 0.950 . S
C729 C725 1.385 . S
C729 C728 1.374 . S
C730 C727 1.499 . S
C730 C731 1.373 . S
C730 C732 1.389 . S
C731 H710 0.950 1_556 S
C731 C730 1.373 . S
C731 C747 1.377 1_556 S
C732 C730 1.389 . S
C732 C733 1.524 . S
C732 C746 1.377 . S
C733 C732 1.524 . S
C733 C734 1.397 . S
C733 C738 1.363 . S
C734 H711 0.950 . S
C734 C733 1.397 . S
C734 C735 1.334 . S
C735 H712 0.950 . S
C735 C734 1.334 . S
C735 C736 1.287 . S
C736 C735 1.287 . S
C736 C737 1.524 . S
C736 H755 0.913 . S
C737 H713 0.950 . S
C737 C736 1.524 . S
C737 C738 1.415 . S
C738 H714 0.950 . S
C738 C733 1.363 . S
C738 C737 1.415 . S
C739 H715 0.951 . S
C739 C740 1.366 . S
C739 C741 1.388 . S
C740 C739 1.366 . S
C740 C744 1.385 1_554 S
C741 H716 0.951 . S
C741 C739 1.388 . S
C741 C742 1.366 1_554 S
C742 C741 1.366 1_556 S
C742 C743 1.414 . S
C742 C745 1.499 . S
C743 H717 0.950 . S
C743 C742 1.414 . S
C743 C744 1.374 . S
C744 H718 0.950 . S
C744 C740 1.385 1_556 S
C744 C743 1.374 . S
C745 C742 1.499 . S
C745 C746 1.373 . S
C745 C747 1.389 1_556 S
C746 H719 0.950 . S
C746 C732 1.377 . S
C746 C745 1.373 . S
C747 C731 1.377 1_554 S
C747 C745 1.389 1_554 S
C747 C748 1.524 . S
C748 C747 1.524 . S
C748 C749 1.397 . S
C748 C753 1.363 . S
C749 H720 0.950 . S
C749 C748 1.397 . S
C749 C750 1.334 . S
C750 H721 0.950 . S
C750 C749 1.334 . S
C750 C751 1.287 . S
C751 C750 1.287 . S
C751 C752 1.524 . S
C751 H754 0.999 . S
C752 H722 0.950 . S
C752 C751 1.524 . S
C752 C753 1.415 . S
C753 H723 0.950 . S
C753 C748 1.363 . S
C753 C752 1.415 . S
H754 C751 0.999 . S
H755 C736 0.913 . S
H756 C774 0.951 . S
H757 C776 0.951 . S
H758 C778 0.950 . S
H759 C779 0.950 . S
H760 C781 0.950 . S
H761 C784 0.950 . S
H762 C785 0.950 . S
H763 C787 0.950 . S
H764 C788 0.950 . S
H765 C789 0.951 . S
H766 C791 0.951 . S
H767 C793 0.950 . S
H768 C794 0.950 . S
H769 C796 0.950 . S
H770 C799 0.950 . S
H771 C800 0.950 . S
H772 C802 0.950 . S
H773 C803 0.950 . S
C774 H756 0.951 . S
C774 C775 1.366 . S
C774 C776 1.388 . S
C775 C774 1.366 . S
C775 C779 1.385 . S
C776 H757 0.951 . S
C776 C774 1.388 . S
C776 C777 1.366 . S
C777 C776 1.366 . S
C777 C778 1.414 . S
C777 C780 1.499 . S
C778 H758 0.950 . S
C778 C777 1.414 . S
C778 C779 1.374 . S
C779 H759 0.950 . S
C779 C775 1.385 . S
C779 C778 1.374 . S
C780 C777 1.499 . S
C780 C781 1.373 . S
C780 C782 1.389 . S
C781 H760 0.950 . S
C781 C780 1.373 . S
C781 C797 1.377 . S
C782 C780 1.389 . S
C782 C783 1.524 . S
C782 C796 1.377 . S
C783 C782 1.524 . S
C783 C784 1.397 . S
C783 C788 1.363 . S
C784 H761 0.950 . S
C784 C783 1.397 . S
C784 C785 1.334 . S
C785 H762 0.950 . S
C785 C784 1.334 . S
C785 C786 1.287 . S
C786 C785 1.287 . S
C786 C787 1.524 . S
C786 H805 0.913 . S
C787 H763 0.950 . S
C787 C786 1.524 . S
C787 C788 1.415 . S
C788 H764 0.950 . S
C788 C783 1.363 . S
C788 C787 1.415 . S
C789 H765 0.951 . S
C789 C790 1.366 . S
C789 C791 1.388 . S
C790 C789 1.366 . S
C790 C794 1.385 . S
C791 H766 0.951 . S
C791 C789 1.388 . S
C791 C792 1.366 . S
C792 C791 1.366 . S
C792 C793 1.414 . S
C792 C795 1.499 . S
C793 H767 0.950 . S
C793 C792 1.414 . S
C793 C794 1.374 . S
C794 H768 0.950 . S
C794 C790 1.385 . S
C794 C793 1.374 . S
C795 C792 1.499 . S
C795 C796 1.373 . S
C795 C797 1.389 . S
C796 H769 0.950 . S
C796 C782 1.377 . S
C796 C795 1.373 . S
C797 C781 1.377 . S
C797 C795 1.389 . S
C797 C798 1.524 . S
C798 C797 1.524 . S
C798 C799 1.397 . S
C798 C803 1.363 . S
C799 H770 0.950 . S
C799 C798 1.397 . S
C799 C800 1.334 . S
C800 H771 0.950 . S
C800 C799 1.334 . S
C800 C801 1.287 . S
C801 C800 1.287 . S
C801 C802 1.524 . S
C801 H804 0.999 . S
C802 H772 0.950 . S
C802 C801 1.524 . S
C802 C803 1.415 . S
C803 H773 0.950 . S
C803 C798 1.363 . S
C803 C802 1.415 . S
H804 C801 0.999 . S
H805 C786 0.913 . S
H806 C824 0.951 . S
H807 C826 0.951 . S
H808 C828 0.950 . S
H809 C829 0.950 . S
H810 C831 0.950 . S
H811 C834 0.950 . S
H812 C835 0.950 . S
H813 C837 0.950 . S
H814 C838 0.950 . S
H815 C839 0.951 . S
H816 C841 0.951 . S
H817 C843 0.950 . S
H818 C844 0.950 . S
H819 C846 0.950 . S
H820 C849 0.950 . S
H821 C850 0.950 . S
H822 C852 0.950 . S
H823 C853 0.950 . S
C824 H806 0.951 . S
C824 C825 1.366 . S
C824 C826 1.388 . S
C825 C824 1.366 . S
C825 C829 1.385 . S
C826 H807 0.951 . S
C826 C824 1.388 . S
C826 C827 1.366 . S
C827 C826 1.366 . S
C827 C828 1.414 . S
C827 C830 1.499 . S
C828 H808 0.950 . S
C828 C827 1.414 . S
C828 C829 1.374 . S
C829 H809 0.950 . S
C829 C825 1.385 . S
C829 C828 1.374 . S
C830 C827 1.499 . S
C830 C831 1.373 1_554 S
C830 C832 1.389 . S
C831 H810 0.950 . S
C831 C830 1.373 1_556 S
C831 C847 1.377 . S
C832 C830 1.389 . S
C832 C833 1.524 . S
C832 C846 1.377 1_554 S
C833 C832 1.524 . S
C833 C834 1.397 . S
C833 C838 1.363 . S
C834 H811 0.950 . S
C834 C833 1.397 . S
C834 C835 1.334 . S
C835 H812 0.950 . S
C835 C834 1.334 . S
C835 C836 1.287 . S
C836 C835 1.287 . S
C836 C837 1.524 . S
C836 H855 0.913 . S
C837 H813 0.950 . S
C837 C836 1.524 . S
C837 C838 1.415 . S
C838 H814 0.950 . S
C838 C833 1.363 . S
C838 C837 1.415 . S
C839 H815 0.951 . S
C839 C840 1.366 . S
C839 C841 1.388 . S
C840 C839 1.366 . S
C840 C844 1.385 . S
C841 H816 0.951 . S
C841 C839 1.388 . S
C841 C842 1.366 . S
C842 C841 1.366 . S
C842 C843 1.414 . S
C842 C845 1.499 . S
C843 H817 0.950 . S
C843 C842 1.414 . S
C843 C844 1.374 . S
C844 H818 0.950 . S
C844 C840 1.385 . S
C844 C843 1.374 . S
C845 C842 1.499 . S
C845 C846 1.373 . S
C845 C847 1.389 . S
C846 H819 0.950 . S
C846 C832 1.377 1_556 S
C846 C845 1.373 . S
C847 C831 1.377 . S
C847 C845 1.389 . S
C847 C848 1.524 . S
C848 C847 1.524 . S
C848 C849 1.397 . S
C848 C853 1.363 . S
C849 H820 0.950 . S
C849 C848 1.397 . S
C849 C850 1.334 . S
C850 H821 0.950 . S
C850 C849 1.334 . S
C850 C851 1.287 . S
C851 C850 1.287 . S
C851 C852 1.524 . S
C851 H854 0.999 . S
C852 H822 0.950 . S
C852 C851 1.524 . S
C852 C853 1.415 . S
C853 H823 0.950 . S
C853 C848 1.363 . S
C853 C852 1.415 . S
H854 C851 0.999 . S
H855 C836 0.913 . S
H856 C874 0.951 . S
H857 C876 0.951 . S
H858 C878 0.950 . S
H859 C879 0.950 . S
H860 C881 0.950 . S
H861 C884 0.950 . S
H862 C885 0.950 . S
H863 C887 0.950 . S
H864 C888 0.950 . S
H865 C889 0.951 . S
H866 C891 0.951 . S
H867 C893 0.950 . S
H868 C894 0.950 . S
H869 C896 0.950 . S
H870 C899 0.950 . S
H871 C900 0.950 . S
H872 C902 0.950 1_556 S
H873 C903 0.950 . S
C874 H856 0.951 . S
C874 C875 1.366 . S
C874 C876 1.388 . S
C875 C874 1.366 . S
C875 C879 1.385 . S
C876 H857 0.951 . S
C876 C874 1.388 . S
C876 C877 1.366 . S
C877 C876 1.366 . S
C877 C878 1.414 . S
C877 C880 1.499 . S
C878 H858 0.950 . S
C878 C877 1.414 . S
C878 C879 1.374 . S
C879 H859 0.950 . S
C879 C875 1.385 . S
C879 C878 1.374 . S
C880 C877 1.499 . S
C880 C881 1.373 . S
C880 C882 1.389 . S
C881 H860 0.950 . S
C881 C880 1.373 . S
C881 C897 1.377 . S
C882 C880 1.389 . S
C882 C883 1.524 . S
C882 C896 1.377 . S
C883 C882 1.524 . S
C883 C884 1.397 . S
C883 C888 1.363 . S
C884 H861 0.950 . S
C884 C883 1.397 . S
C884 C885 1.334 . S
C885 H862 0.950 . S
C885 C884 1.334 . S
C885 C886 1.287 . S
C886 C885 1.287 . S
C886 C887 1.524 . S
C886 H905 0.913 . S
C887 H863 0.950 . S
C887 C886 1.524 . S
C887 C888 1.415 . S
C888 H864 0.950 . S
C888 C883 1.363 . S
C888 C887 1.415 . S
C889 H865 0.951 . S
C889 C890 1.366 . S
C889 C891 1.388 . S
C890 C889 1.366 . S
C890 C894 1.385 1_556 S
C891 H866 0.951 . S
C891 C889 1.388 . S
C891 C892 1.366 1_556 S
C892 C891 1.366 1_554 S
C892 C893 1.414 . S
C892 C895 1.499 . S
C893 H867 0.950 . S
C893 C892 1.414 . S
C893 C894 1.374 . S
C894 H868 0.950 . S
C894 C890 1.385 1_554 S
C894 C893 1.374 . S
C895 C892 1.499 . S
C895 C896 1.373 . S
C895 C897 1.389 . S
C896 H869 0.950 . S
C896 C882 1.377 . S
C896 C895 1.373 . S
C897 C881 1.377 . S
C897 C895 1.389 . S
C897 C898 1.524 . S
C898 C897 1.524 . S
C898 C899 1.397 . S
C898 C903 1.363 . S
C899 H870 0.950 . S
C899 C898 1.397 . S
C899 C900 1.334 . S
C900 H871 0.950 . S
C900 C899 1.334 . S
C900 C901 1.287 . S
C901 C900 1.287 . S
C901 C902 1.524 . S
C901 H904 0.999 1_554 S
C902 H872 0.950 1_554 S
C902 C901 1.524 . S
C902 C903 1.415 . S
C903 H873 0.950 . S
C903 C898 1.363 . S
C903 C902 1.415 . S
H904 C901 0.999 1_556 S
H905 C886 0.913 . S
H906 C924 0.951 . S
H907 C926 0.951 . S
H908 C928 0.950 . S
H909 C929 0.950 . S
H910 C931 0.950 . S
H911 C934 0.950 . S
H912 C935 0.950 . S
H913 C937 0.950 . S
H914 C938 0.950 . S
H915 C939 0.951 . S
H916 C941 0.951 . S
H917 C943 0.950 . S
H918 C944 0.950 . S
H919 C946 0.950 . S
H920 C949 0.950 . S
H921 C950 0.950 . S
H922 C952 0.950 . S
H923 C953 0.950 . S
C924 H906 0.951 . S
C924 C925 1.366 . S
C924 C926 1.388 . S
C925 C924 1.366 . S
C925 C929 1.385 . S
C926 H907 0.951 . S
C926 C924 1.388 . S
C926 C927 1.366 . S
C927 C926 1.366 . S
C927 C928 1.414 . S
C927 C930 1.499 . S
C928 H908 0.950 . S
C928 C927 1.414 . S
C928 C929 1.374 . S
C929 H909 0.950 . S
C929 C925 1.385 . S
C929 C928 1.374 . S
C930 C927 1.499 . S
C930 C931 1.373 . S
C930 C932 1.389 . S
C931 H910 0.950 . S
C931 C930 1.373 . S
C931 C947 1.377 . S
C932 C930 1.389 . S
C932 C933 1.524 . S
C932 C946 1.377 . S
C933 C932 1.524 . S
C933 C934 1.397 . S
C933 C938 1.363 . S
C934 H911 0.950 . S
C934 C933 1.397 . S
C934 C935 1.334 . S
C935 H912 0.950 . S
C935 C934 1.334 . S
C935 C936 1.287 . S
C936 C935 1.287 . S
C936 C937 1.524 . S
C936 H955 0.913 . S
C937 H913 0.950 . S
C937 C936 1.524 . S
C937 C938 1.415 . S
C938 H914 0.950 . S
C938 C933 1.363 . S
C938 C937 1.415 . S
C939 H915 0.951 . S
C939 C940 1.366 . S
C939 C941 1.388 . S
C940 C939 1.366 . S
C940 C944 1.385 . S
C941 H916 0.951 . S
C941 C939 1.388 . S
C941 C942 1.366 . S
C942 C941 1.366 . S
C942 C943 1.414 . S
C942 C945 1.499 . S
C943 H917 0.950 . S
C943 C942 1.414 . S
C943 C944 1.374 . S
C944 H918 0.950 . S
C944 C940 1.385 . S
C944 C943 1.374 . S
C945 C942 1.499 . S
C945 C946 1.373 . S
C945 C947 1.389 . S
C946 H919 0.950 . S
C946 C932 1.377 . S
C946 C945 1.373 . S
C947 C931 1.377 . S
C947 C945 1.389 . S
C947 C948 1.524 . S
C948 C947 1.524 . S
C948 C949 1.397 . S
C948 C953 1.363 . S
C949 H920 0.950 . S
C949 C948 1.397 . S
C949 C950 1.334 . S
C950 H921 0.950 . S
C950 C949 1.334 . S
C950 C951 1.287 . S
C951 C950 1.287 . S
C951 C952 1.524 . S
C951 H954 0.999 . S
C952 H922 0.950 . S
C952 C951 1.524 . S
C952 C953 1.415 . S
C953 H923 0.950 . S
C953 C948 1.363 . S
C953 C952 1.415 . S
H954 C951 0.999 . S
H955 C936 0.913 . S
H956 C974 0.951 . S
H957 C976 0.951 . S
H958 C978 0.950 . S
H959 C979 0.950 . S
H960 C981 0.950 . S
H961 C984 0.950 . S
H962 C985 0.950 . S
H963 C987 0.950 . S
H964 C988 0.950 . S
H965 C989 0.951 . S
H966 C991 0.951 . S
H967 C993 0.950 . S
H968 C994 0.950 . S
H969 C996 0.950 . S
H970 C999 0.950 . S
H971 C1000 0.950 . S
H972 C1002 0.950 . S
H973 C1003 0.950 . S
C974 H956 0.951 . S
C974 C975 1.366 . S
C974 C976 1.388 . S
C975 C974 1.366 . S
C975 C979 1.385 . S
C976 H957 0.951 . S
C976 C974 1.388 . S
C976 C977 1.366 . S
C977 C976 1.366 . S
C977 C978 1.414 . S
C977 C980 1.499 . S
C978 H958 0.950 . S
C978 C977 1.414 . S
C978 C979 1.374 . S
C979 H959 0.950 . S
C979 C975 1.385 . S
C979 C978 1.374 . S
C980 C977 1.499 . S
C980 C981 1.373 . S
C980 C982 1.389 . S
C981 H960 0.950 . S
C981 C980 1.373 . S
C981 C997 1.377 . S
C982 C980 1.389 . S
C982 C983 1.524 . S
C982 C996 1.377 . S
C983 C982 1.524 . S
C983 C984 1.397 . S
C983 C988 1.363 . S
C984 H961 0.950 . S
C984 C983 1.397 . S
C984 C985 1.334 . S
C985 H962 0.950 . S
C985 C984 1.334 . S
C985 C986 1.287 . S
C986 C985 1.287 . S
C986 C987 1.524 . S
C986 H1005 0.913 . S
C987 H963 0.950 . S
C987 C986 1.524 . S
C987 C988 1.415 . S
C988 H964 0.950 . S
C988 C983 1.363 . S
C988 C987 1.415 . S
C989 H965 0.951 . S
C989 C990 1.366 . S
C989 C991 1.388 . S
C990 C989 1.366 . S
C990 C994 1.385 . S
C991 H966 0.951 . S
C991 C989 1.388 . S
C991 C992 1.366 . S
C992 C991 1.366 . S
C992 C993 1.414 . S
C992 C995 1.499 . S
C993 H967 0.950 . S
C993 C992 1.414 . S
C993 C994 1.374 . S
C994 H968 0.950 . S
C994 C990 1.385 . S
C994 C993 1.374 . S
C995 C992 1.499 . S
C995 C996 1.373 . S
C995 C997 1.389 . S
C996 H969 0.950 . S
C996 C982 1.377 . S
C996 C995 1.373 . S
C997 C981 1.377 . S
C997 C995 1.389 . S
C997 C998 1.524 . S
C998 C997 1.524 . S
C998 C999 1.397 . S
C998 C1003 1.363 . S
C999 H970 0.950 . S
C999 C998 1.397 . S
C999 C1000 1.334 . S
C1000 H971 0.950 . S
C1000 C999 1.334 . S
C1000 C1001 1.287 . S
C1001 C1000 1.287 . S
C1001 C1002 1.524 . S
C1001 H1004 0.999 . S
C1002 H972 0.950 . S
C1002 C1001 1.524 . S
C1002 C1003 1.415 . S
C1003 H973 0.950 . S
C1003 C998 1.363 . S
C1003 C1002 1.415 . S
H1004 C1001 0.999 . S
H1005 C986 0.913 . S
H1006 C1024 0.951 . S
H1007 C1026 0.951 . S
H1008 C1028 0.950 . S
H1009 C1029 0.950 . S
H1010 C1031 0.950 . S
H1011 C1034 0.950 . S
H1012 C1035 0.950 . S
H1013 C1037 0.950 . S
H1014 C1038 0.950 . S
H1015 C1039 0.951 . S
H1016 C1041 0.951 . S
H1017 C1043 0.950 . S
H1018 C1044 0.950 . S
H1019 C1046 0.950 . S
H1020 C1049 0.950 . S
H1021 C1050 0.950 . S
H1022 C1052 0.950 . S
H1023 C1053 0.950 . S
C1024 H1006 0.951 . S
C1024 C1025 1.366 . S
C1024 C1026 1.388 . S
C1025 C1024 1.366 . S
C1025 C1029 1.385 . S
C1026 H1007 0.951 . S
C1026 C1024 1.388 . S
C1026 C1027 1.366 . S
C1027 C1026 1.366 . S
C1027 C1028 1.414 . S
C1027 C1030 1.499 . S
C1028 H1008 0.950 . S
C1028 C1027 1.414 . S
C1028 C1029 1.374 . S
C1029 H1009 0.950 . S
C1029 C1025 1.385 . S
C1029 C1028 1.374 . S
C1030 C1027 1.499 . S
C1030 C1031 1.373 . S
C1030 C1032 1.389 . S
C1031 H1010 0.950 . S
C1031 C1030 1.373 . S
C1031 C1047 1.377 . S
C1032 C1030 1.389 . S
C1032 C1033 1.524 . S
C1032 C1046 1.377 . S
C1033 C1032 1.524 . S
C1033 C1034 1.397 . S
C1033 C1038 1.363 . S
C1034 H1011 0.950 . S
C1034 C1033 1.397 . S
C1034 C1035 1.334 . S
C1035 H1012 0.950 . S
C1035 C1034 1.334 . S
C1035 C1036 1.287 . S
C1036 C1035 1.287 . S
C1036 C1037 1.524 . S
C1036 H1055 0.913 . S
C1037 H1013 0.950 . S
C1037 C1036 1.524 . S
C1037 C1038 1.415 . S
C1038 H1014 0.950 . S
C1038 C1033 1.363 . S
C1038 C1037 1.415 . S
C1039 H1015 0.951 . S
C1039 C1040 1.366 . S
C1039 C1041 1.388 . S
C1040 C1039 1.366 . S
C1040 C1044 1.385 . S
C1041 H1016 0.951 . S
C1041 C1039 1.388 . S
C1041 C1042 1.366 . S
C1042 C1041 1.366 . S
C1042 C1043 1.414 . S
C1042 C1045 1.499 . S
C1043 H1017 0.950 . S
C1043 C1042 1.414 . S
C1043 C1044 1.374 . S
C1044 H1018 0.950 . S
C1044 C1040 1.385 . S
C1044 C1043 1.374 . S
C1045 C1042 1.499 . S
C1045 C1046 1.373 . S
C1045 C1047 1.389 . S
C1046 H1019 0.950 . S
C1046 C1032 1.377 . S
C1046 C1045 1.373 . S
C1047 C1031 1.377 . S
C1047 C1045 1.389 . S
C1047 C1048 1.524 . S
C1048 C1047 1.524 . S
C1048 C1049 1.397 . S
C1048 C1053 1.363 . S
C1049 H1020 0.950 . S
C1049 C1048 1.397 . S
C1049 C1050 1.334 . S
C1050 H1021 0.950 . S
C1050 C1049 1.334 . S
C1050 C1051 1.287 . S
C1051 C1050 1.287 . S
C1051 C1052 1.524 . S
C1051 H1054 0.999 . S
C1052 H1022 0.950 . S
C1052 C1051 1.524 . S
C1052 C1053 1.415 . S
C1053 H1023 0.950 . S
C1053 C1048 1.363 . S
C1053 C1052 1.415 . S
H1054 C1051 0.999 . S
H1055 C1036 0.913 . S
H1056 C1074 0.951 . S
H1057 C1076 0.951 . S
H1058 C1078 0.950 . S
H1059 C1079 0.950 . S
H1060 C1081 0.950 . S
H1061 C1084 0.950 . S
H1062 C1085 0.950 . S
H1063 C1087 0.950 . S
H1064 C1088 0.950 . S
H1065 C1089 0.951 . S
H1066 C1091 0.951 . S
H1067 C1093 0.950 . S
H1068 C1094 0.950 . S
H1069 C1096 0.950 . S
H1070 C1099 0.950 . S
H1071 C1100 0.950 . S
H1072 C1102 0.950 . S
H1073 C1103 0.950 . S
C1074 H1056 0.951 . S
C1074 C1075 1.366 . S
C1074 C1076 1.388 . S
C1075 C1074 1.366 . S
C1075 C1079 1.385 . S
C1076 H1057 0.951 . S
C1076 C1074 1.388 . S
C1076 C1077 1.366 . S
C1077 C1076 1.366 . S
C1077 C1078 1.414 . S
C1077 C1080 1.499 . S
C1078 H1058 0.950 . S
C1078 C1077 1.414 . S
C1078 C1079 1.374 . S
C1079 H1059 0.950 . S
C1079 C1075 1.385 . S
C1079 C1078 1.374 . S
C1080 C1077 1.499 . S
C1080 C1081 1.373 . S
C1080 C1082 1.389 . S
C1081 H1060 0.950 . S
C1081 C1080 1.373 . S
C1081 C1097 1.363 1_455 S
C1082 C1080 1.389 . S
C1082 C1083 1.527 . S
C1082 C1096 1.377 1_455 S
C1083 C1082 1.527 . S
C1083 C1084 1.400 1_556 S
C1083 C1088 1.357 1_455 S
C1084 H1061 0.950 . S
C1084 C1083 1.400 1_554 S
C1084 C1085 1.334 . S
C1085 H1062 0.950 . S
C1085 C1084 1.334 . S
C1085 C1086 1.287 1_455 S
C1086 C1085 1.287 1_655 S
C1086 C1087 1.524 . S
C1086 H1105 0.913 . S
C1087 H1063 0.950 . S
C1087 C1086 1.524 . S
C1087 C1088 1.415 1_554 S
C1088 H1064 0.950 . S
C1088 C1083 1.357 1_655 S
C1088 C1087 1.415 1_556 S
C1089 H1065 0.951 . S
C1089 C1090 1.366 . S
C1089 C1091 1.388 . S
C1090 C1089 1.366 . S
C1090 C1094 1.385 . S
C1091 H1066 0.951 . S
C1091 C1089 1.388 . S
C1091 C1092 1.366 . S
C1092 C1091 1.366 . S
C1092 C1093 1.414 . S
C1092 C1095 1.499 . S
C1093 H1067 0.950 . S
C1093 C1092 1.414 . S
C1093 C1094 1.374 . S
C1094 H1068 0.950 . S
C1094 C1090 1.385 . S
C1094 C1093 1.374 . S
C1095 C1092 1.499 . S
C1095 C1096 1.373 . S
C1095 C1097 1.407 . S
C1096 H1069 0.950 . S
C1096 C1082 1.377 1_655 S
C1096 C1095 1.373 . S
C1097 C1081 1.363 1_655 S
C1097 C1095 1.407 . S
C1097 C1098 1.505 1_655 S
C1098 C1097 1.505 1_455 S
C1098 C1099 1.376 1_455 S
C1098 C1103 1.401 . S
C1099 H1070 0.950 . S
C1099 C1098 1.376 1_655 S
C1099 C1100 1.334 . S
C1100 H1071 0.950 . S
C1100 C1099 1.334 . S
C1100 C1101 1.287 1_655 S
C1101 C1100 1.287 1_455 S
C1101 C1102 1.524 . S
C1101 H1104 0.999 . S
C1102 H1072 0.950 . S
C1102 C1101 1.524 . S
C1102 C1103 1.415 . S
C1103 H1073 0.950 . S
C1103 C1098 1.401 . S
C1103 C1102 1.415 . S
H1104 C1101 0.999 . S
H1105 C1086 0.913 . S
H1106 C1124 0.951 . S
H1107 C1126 0.951 . S
H1108 C1128 0.949 . S
H1109 C1129 0.950 . S
H1110 C1131 0.950 . S
H1111 C1134 0.950 . S
H1112 C1135 0.950 . S
H1113 C1137 0.950 . S
H1114 C1138 0.950 1_545 S
H1115 C1139 0.951 . S
H1116 C1141 0.951 . S
H1117 C1143 0.950 . S
H1118 C1144 0.950 . S
H1119 C1146 0.950 . S
H1120 C1149 0.950 . S
H1121 C1150 0.950 . S
H1122 C1152 0.950 . S
H1123 C1153 0.950 1_565 S
C1124 H1106 0.951 . S
C1124 C1125 1.366 . S
C1124 C1126 1.388 . S
C1125 C1124 1.366 . S
C1125 C1129 1.385 . S
C1126 H1107 0.951 . S
C1126 C1124 1.388 . S
C1126 C1127 1.366 . S
C1127 C1126 1.366 . S
C1127 C1128 1.414 1_556 S
C1127 C1130 1.499 1_556 S
C1128 H1108 0.949 . S
C1128 C1127 1.414 1_554 S
C1128 C1129 1.374 1_554 S
C1129 H1109 0.950 . S
C1129 C1125 1.385 . S
C1129 C1128 1.374 1_556 S
C1130 C1127 1.499 1_554 S
C1130 C1131 1.373 . S
C1130 C1132 1.389 . S
C1131 H1110 0.950 . S
C1131 C1130 1.373 . S
C1131 C1147 1.377 1_565 S
C1132 C1130 1.389 . S
C1132 C1133 1.524 . S
C1132 C1146 1.377 1_565 S
C1133 C1132 1.524 . S
C1133 C1134 1.397 . S
C1133 C1138 1.363 1_554 S
C1134 H1111 0.950 . S
C1134 C1133 1.397 . S
C1134 C1135 1.334 . S
C1135 H1112 0.950 . S
C1135 C1134 1.334 . S
C1135 C1136 1.287 . S
C1136 C1135 1.287 . S
C1136 C1137 1.524 1_554 S
C1136 H1155 0.913 1_554 S
C1137 H1113 0.950 . S
C1137 C1136 1.524 1_556 S
C1137 C1138 1.415 . S
C1138 H1114 0.950 1_565 S
C1138 C1133 1.363 1_556 S
C1138 C1137 1.415 . S
C1139 H1115 0.951 . S
C1139 C1140 1.366 . S
C1139 C1141 1.388 . S
C1140 C1139 1.366 . S
C1140 C1144 1.385 . S
C1141 H1116 0.951 . S
C1141 C1139 1.388 . S
C1141 C1142 1.366 . S
C1142 C1141 1.366 . S
C1142 C1143 1.414 . S
C1142 C1145 1.499 . S
C1143 H1117 0.950 . S
C1143 C1142 1.414 . S
C1143 C1144 1.374 . S
C1144 H1118 0.950 . S
C1144 C1140 1.385 . S
C1144 C1143 1.374 . S
C1145 C1142 1.499 . S
C1145 C1146 1.373 . S
C1145 C1147 1.389 . S
C1146 H1119 0.950 . S
C1146 C1132 1.377 1_545 S
C1146 C1145 1.373 . S
C1147 C1131 1.377 1_545 S
C1147 C1145 1.389 . S
C1147 C1148 1.524 . S
C1148 C1147 1.524 . S
C1148 C1149 1.397 . S
C1148 C1153 1.363 . S
C1149 H1120 0.950 . S
C1149 C1148 1.397 . S
C1149 C1150 1.334 . S
C1150 H1121 0.950 . S
C1150 C1149 1.334 . S
C1150 C1151 1.287 . S
C1151 C1150 1.287 . S
C1151 C1152 1.524 . S
C1151 H1154 0.999 . S
C1152 H1122 0.950 . S
C1152 C1151 1.524 . S
C1152 C1153 1.415 . S
C1153 H1123 0.950 1_545 S
C1153 C1148 1.363 . S
C1153 C1152 1.415 . S
H1154 C1151 0.999 . S
H1155 C1136 0.913 1_556 S
H1156 C1174 0.951 . S
H1157 C1176 0.951 . S
H1158 C1178 0.950 . S
H1159 C1179 0.950 . S
H1160 C1181 0.950 . S
H1161 C1184 0.950 . S
H1162 C1185 0.950 . S
H1163 C1187 0.950 . S
H1164 C1188 0.950 . S
H1165 C1189 0.951 . S
H1166 C1191 0.951 . S
H1167 C1193 0.950 . S
H1168 C1194 0.950 . S
H1169 C1196 0.950 . S
H1170 C1199 0.950 . S
H1171 C1200 0.950 . S
H1172 C1202 0.950 . S
H1173 C1203 0.950 . S
C1174 H1156 0.951 . S
C1174 C1175 1.366 . S
C1174 C1176 1.388 . S
C1175 C1174 1.366 . S
C1175 C1179 1.385 . S
C1176 H1157 0.951 . S
C1176 C1174 1.388 . S
C1176 C1177 1.366 . S
C1177 C1176 1.366 . S
C1177 C1178 1.414 . S
C1177 C1180 1.499 . S
C1178 H1158 0.950 . S
C1178 C1177 1.414 . S
C1178 C1179 1.374 . S
C1179 H1159 0.950 . S
C1179 C1175 1.385 . S
C1179 C1178 1.374 . S
C1180 C1177 1.499 . S
C1180 C1181 1.373 . S
C1180 C1182 1.389 . S
C1181 H1160 0.950 . S
C1181 C1180 1.373 . S
C1181 C1197 1.377 . S
C1182 C1180 1.389 . S
C1182 C1183 1.524 . S
C1182 C1196 1.377 . S
C1183 C1182 1.524 . S
C1183 C1184 1.397 . S
C1183 C1188 1.363 . S
C1184 H1161 0.950 . S
C1184 C1183 1.397 . S
C1184 C1185 1.334 . S
C1185 H1162 0.950 . S
C1185 C1184 1.334 . S
C1185 C1186 1.287 . S
C1186 C1185 1.287 . S
C1186 C1187 1.524 . S
C1186 H1205 0.913 . S
C1187 H1163 0.950 . S
C1187 C1186 1.524 . S
C1187 C1188 1.415 . S
C1188 H1164 0.950 . S
C1188 C1183 1.363 . S
C1188 C1187 1.415 . S
C1189 H1165 0.951 . S
C1189 C1190 1.366 . S
C1189 C1191 1.388 . S
C1190 C1189 1.366 . S
C1190 C1194 1.385 . S
C1191 H1166 0.951 . S
C1191 C1189 1.388 . S
C1191 C1192 1.366 . S
C1192 C1191 1.366 . S
C1192 C1193 1.414 . S
C1192 C1195 1.499 . S
C1193 H1167 0.950 . S
C1193 C1192 1.414 . S
C1193 C1194 1.374 . S
C1194 H1168 0.950 . S
C1194 C1190 1.385 . S
C1194 C1193 1.374 . S
C1195 C1192 1.499 . S
C1195 C1196 1.373 . S
C1195 C1197 1.389 . S
C1196 H1169 0.950 . S
C1196 C1182 1.377 . S
C1196 C1195 1.373 . S
C1197 C1181 1.377 . S
C1197 C1195 1.389 . S
C1197 C1198 1.524 . S
C1198 C1197 1.524 . S
C1198 C1199 1.397 . S
C1198 C1203 1.363 . S
C1199 H1170 0.950 . S
C1199 C1198 1.397 . S
C1199 C1200 1.334 . S
C1200 H1171 0.950 . S
C1200 C1199 1.334 . S
C1200 C1201 1.287 . S
C1201 C1200 1.287 . S
C1201 C1202 1.524 . S
C1201 H1204 0.999 . S
C1202 H1172 0.950 . S
C1202 C1201 1.524 . S
C1202 C1203 1.415 . S
C1203 H1173 0.950 . S
C1203 C1198 1.363 . S
C1203 C1202 1.415 . S
H1204 C1201 0.999 . S
H1205 C1186 0.913 . S
H1206 C1224 0.951 . S
H1207 C1226 0.951 . S
H1208 C1228 0.950 . S
H1209 C1229 0.950 . S
H1210 C1231 0.950 . S
H1211 C1234 0.950 . S
H1212 C1235 0.950 . S
H1213 C1237 0.950 . S
H1214 C1238 0.950 . S
H1215 C1239 0.951 . S
H1216 C1241 0.951 . S
H1217 C1243 0.950 . S
H1218 C1244 0.950 . S
H1219 C1246 0.950 . S
H1220 C1249 0.950 . S
H1221 C1250 0.950 . S
H1222 C1252 0.950 . S
H1223 C1253 0.950 . S
C1224 H1206 0.951 . S
C1224 C1225 1.366 . S
C1224 C1226 1.388 . S
C1225 C1224 1.366 . S
C1225 C1229 1.385 . S
C1226 H1207 0.951 . S
C1226 C1224 1.388 . S
C1226 C1227 1.366 . S
C1227 C1226 1.366 . S
C1227 C1228 1.414 . S
C1227 C1230 1.499 . S
C1228 H1208 0.950 . S
C1228 C1227 1.414 . S
C1228 C1229 1.374 . S
C1229 H1209 0.950 . S
C1229 C1225 1.385 . S
C1229 C1228 1.374 . S
C1230 C1227 1.499 . S
C1230 C1231 1.373 . S
C1230 C1232 1.389 . S
C1231 H1210 0.950 . S
C1231 C1230 1.373 . S
C1231 C1247 1.377 1_455 S
C1232 C1230 1.389 . S
C1232 C1233 1.524 . S
C1232 C1246 1.377 1_455 S
C1233 C1232 1.524 . S
C1233 C1234 1.397 . S
C1233 C1238 1.363 . S
C1234 H1211 0.950 . S
C1234 C1233 1.397 . S
C1234 C1235 1.334 . S
C1235 H1212 0.950 . S
C1235 C1234 1.334 . S
C1235 C1236 1.287 . S
C1236 C1235 1.287 . S
C1236 C1237 1.524 . S
C1236 H1255 0.913 . S
C1237 H1213 0.950 . S
C1237 C1236 1.524 . S
C1237 C1238 1.415 . S
C1238 H1214 0.950 . S
C1238 C1233 1.363 . S
C1238 C1237 1.415 . S
C1239 H1215 0.951 . S
C1239 C1240 1.366 . S
C1239 C1241 1.388 . S
C1240 C1239 1.366 . S
C1240 C1244 1.385 . S
C1241 H1216 0.951 . S
C1241 C1239 1.388 . S
C1241 C1242 1.366 . S
C1242 C1241 1.366 . S
C1242 C1243 1.414 . S
C1242 C1245 1.499 . S
C1243 H1217 0.950 . S
C1243 C1242 1.414 . S
C1243 C1244 1.374 . S
C1244 H1218 0.950 . S
C1244 C1240 1.385 . S
C1244 C1243 1.374 . S
C1245 C1242 1.499 . S
C1245 C1246 1.373 . S
C1245 C1247 1.389 . S
C1246 H1219 0.950 . S
C1246 C1232 1.377 1_655 S
C1246 C1245 1.373 . S
C1247 C1231 1.377 1_655 S
C1247 C1245 1.389 . S
C1247 C1248 1.524 . S
C1248 C1247 1.524 . S
C1248 C1249 1.397 . S
C1248 C1253 1.363 . S
C1249 H1220 0.950 . S
C1249 C1248 1.397 . S
C1249 C1250 1.334 . S
C1250 H1221 0.950 . S
C1250 C1249 1.334 . S
C1250 C1251 1.287 . S
C1251 C1250 1.287 . S
C1251 C1252 1.524 . S
C1251 H1254 0.999 . S
C1252 H1222 0.950 . S
C1252 C1251 1.524 . S
C1252 C1253 1.415 . S
C1253 H1223 0.950 . S
C1253 C1248 1.363 . S
C1253 C1252 1.415 . S
H1254 C1251 0.999 . S
H1255 C1236 0.913 . S
H1256 C1274 0.951 . S
H1257 C1276 0.951 . S
H1258 C1278 0.950 . S
H1259 C1279 0.950 . S
H1260 C1281 0.950 . S
H1261 C1284 0.950 . S
H1262 C1285 0.950 . S
H1263 C1287 0.950 . S
H1264 C1288 0.950 . S
H1265 C1289 0.951 . S
H1266 C1291 0.951 . S
H1267 C1293 0.950 . S
H1268 C1294 0.950 . S
H1269 C1296 0.950 . S
H1270 C1299 0.950 . S
H1271 C1300 0.950 . S
H1272 C1302 0.950 . S
H1273 C1303 0.950 . S
C1274 H1256 0.951 . S
C1274 C1275 1.366 . S
C1274 C1276 1.388 . S
C1275 C1274 1.366 . S
C1275 C1279 1.385 . S
C1276 H1257 0.951 . S
C1276 C1274 1.388 . S
C1276 C1277 1.366 . S
C1277 C1276 1.366 . S
C1277 C1278 1.414 . S
C1277 C1280 1.499 . S
C1278 H1258 0.950 . S
C1278 C1277 1.414 . S
C1278 C1279 1.374 . S
C1279 H1259 0.950 . S
C1279 C1275 1.385 . S
C1279 C1278 1.374 . S
C1280 C1277 1.499 . S
C1280 C1281 1.373 . S
C1280 C1282 1.389 . S
C1281 H1260 0.950 . S
C1281 C1280 1.373 . S
C1281 C1297 1.377 1_545 S
C1282 C1280 1.389 . S
C1282 C1283 1.524 . S
C1282 C1296 1.377 1_545 S
C1283 C1282 1.524 . S
C1283 C1284 1.397 . S
C1283 C1288 1.363 1_545 S
C1284 H1261 0.950 . S
C1284 C1283 1.397 . S
C1284 C1285 1.334 . S
C1285 H1262 0.950 . S
C1285 C1284 1.334 . S
C1285 C1286 1.287 . S
C1286 C1285 1.287 . S
C1286 C1287 1.524 1_545 S
C1286 H1305 0.913 . S
C1287 H1263 0.950 . S
C1287 C1286 1.524 1_565 S
C1287 C1288 1.415 . S
C1288 H1264 0.950 . S
C1288 C1283 1.363 1_565 S
C1288 C1287 1.415 . S
C1289 H1265 0.951 . S
C1289 C1290 1.366 . S
C1289 C1291 1.388 . S
C1290 C1289 1.366 . S
C1290 C1294 1.385 . S
C1291 H1266 0.951 . S
C1291 C1289 1.388 . S
C1291 C1292 1.366 . S
C1292 C1291 1.366 . S
C1292 C1293 1.414 . S
C1292 C1295 1.499 . S
C1293 H1267 0.950 . S
C1293 C1292 1.414 . S
C1293 C1294 1.374 . S
C1294 H1268 0.950 . S
C1294 C1290 1.385 . S
C1294 C1293 1.374 . S
C1295 C1292 1.499 . S
C1295 C1296 1.373 . S
C1295 C1297 1.389 . S
C1296 H1269 0.950 . S
C1296 C1282 1.377 1_565 S
C1296 C1295 1.373 . S
C1297 C1281 1.377 1_565 S
C1297 C1295 1.389 . S
C1297 C1298 1.524 . S
C1298 C1297 1.524 . S
C1298 C1299 1.397 . S
C1298 C1303 1.363 1_565 S
C1299 H1270 0.950 . S
C1299 C1298 1.397 . S
C1299 C1300 1.334 . S
C1300 H1271 0.950 . S
C1300 C1299 1.334 . S
C1300 C1301 1.287 . S
C1301 C1300 1.287 . S
C1301 C1302 1.524 1_565 S
C1301 H1304 0.999 . S
C1302 H1272 0.950 . S
C1302 C1301 1.524 1_545 S
C1302 C1303 1.415 . S
C1303 H1273 0.950 . S
C1303 C1298 1.363 1_545 S
C1303 C1302 1.415 . S
H1304 C1301 0.999 . S
H1305 C1286 0.913 . S
H1306 C1324 0.951 . S
H1307 C1326 0.951 . S
H1308 C1328 0.950 . S
H1309 C1329 0.950 . S
H1310 C1331 0.950 . S
H1311 C1334 0.950 . S
H1312 C1335 0.950 . S
H1313 C1337 0.950 . S
H1314 C1338 0.950 . S
H1315 C1339 0.951 . S
H1316 C1341 0.951 . S
H1317 C1343 0.950 . S
H1318 C1344 0.950 . S
H1319 C1346 0.950 . S
H1320 C1349 0.950 . S
H1321 C1350 0.950 . S
H1322 C1352 0.950 . S
H1323 C1353 0.950 . S
C1324 H1306 0.951 . S
C1324 C1325 1.366 . S
C1324 C1326 1.388 . S
C1325 C1324 1.366 . S
C1325 C1329 1.385 . S
C1326 H1307 0.951 . S
C1326 C1324 1.388 . S
C1326 C1327 1.366 . S
C1327 C1326 1.366 . S
C1327 C1328 1.414 . S
C1327 C1330 1.499 . S
C1328 H1308 0.950 . S
C1328 C1327 1.414 . S
C1328 C1329 1.374 . S
C1329 H1309 0.950 . S
C1329 C1325 1.385 . S
C1329 C1328 1.374 . S
C1330 C1327 1.499 . S
C1330 C1331 1.373 . S
C1330 C1332 1.389 . S
C1331 H1310 0.950 . S
C1331 C1330 1.373 . S
C1331 C1347 1.377 . S
C1332 C1330 1.389 . S
C1332 C1333 1.524 . S
C1332 C1346 1.377 . S
C1333 C1332 1.524 . S
C1333 C1334 1.397 . S
C1333 C1338 1.363 . S
C1334 H1311 0.950 . S
C1334 C1333 1.397 . S
C1334 C1335 1.334 . S
C1335 H1312 0.950 . S
C1335 C1334 1.334 . S
C1335 C1336 1.287 . S
C1336 C1335 1.287 . S
C1336 C1337 1.524 . S
C1336 H1355 0.913 . S
C1337 H1313 0.950 . S
C1337 C1336 1.524 . S
C1337 C1338 1.415 . S
C1338 H1314 0.950 . S
C1338 C1333 1.363 . S
C1338 C1337 1.415 . S
C1339 H1315 0.951 . S
C1339 C1340 1.366 . S
C1339 C1341 1.388 . S
C1340 C1339 1.366 . S
C1340 C1344 1.385 . S
C1341 H1316 0.951 . S
C1341 C1339 1.388 . S
C1341 C1342 1.366 . S
C1342 C1341 1.366 . S
C1342 C1343 1.414 . S
C1342 C1345 1.499 . S
C1343 H1317 0.950 . S
C1343 C1342 1.414 . S
C1343 C1344 1.374 . S
C1344 H1318 0.950 . S
C1344 C1340 1.385 . S
C1344 C1343 1.374 . S
C1345 C1342 1.499 . S
C1345 C1346 1.373 . S
C1345 C1347 1.389 . S
C1346 H1319 0.950 . S
C1346 C1332 1.377 . S
C1346 C1345 1.373 . S
C1347 C1331 1.377 . S
C1347 C1345 1.389 . S
C1347 C1348 1.524 . S
C1348 C1347 1.524 . S
C1348 C1349 1.397 . S
C1348 C1353 1.363 . S
C1349 H1320 0.950 . S
C1349 C1348 1.397 . S
C1349 C1350 1.334 . S
C1350 H1321 0.950 . S
C1350 C1349 1.334 . S
C1350 C1351 1.287 . S
C1351 C1350 1.287 . S
C1351 C1352 1.524 . S
C1351 H1354 0.999 . S
C1352 H1322 0.950 . S
C1352 C1351 1.524 . S
C1352 C1353 1.415 . S
C1353 H1323 0.950 . S
C1353 C1348 1.363 . S
C1353 C1352 1.415 . S
H1354 C1351 0.999 . S
H1355 C1336 0.913 . S
C175 C5 1.062 . S
C190 C135 1.063 . S
C225 C148 1.009 . S
C240 C13 1.017 . S
C275 C31 1.008 . S
C290 C78 1.017 . S
C325 C44 1.062 . S
C340 C96 1.063 . S
C375 C52 1.017 . S
C390 C109 1.008 . S
C425 C117 1.017 . S
C440 C70 1.007 . S
C475 C8 1.547 . S
C490 C112 1.546 . S
C525 C23 1.568 . S
C540 C127 1.568 . S
C575 C138 1.546 . S
C590 C34 1.545 . S
C625 C47 1.546 . S
C640 C151 1.545 . S
C675 C62 1.568 . S
C690 C88 1.567 . S
C725 C73 1.545 . S
C740 C99 1.546 . S
C775 C140 0.981 . S
C790 C10 0.982 . S
C825 C21 0.949 . S
C840 C153 0.959 . S
C875 C36 0.960 . S
C890 C86 0.950 . S
C925 C49 0.981 . S
C940 C101 0.982 . S
C975 C114 0.960 . S
C990 C60 0.950 . S
C1025 C75 0.959 . S
C1040 C125 0.950 . S
C1075 C0 1.347 1_556 S
C1090 C143 1.347 . S
C1125 C83 1.316 . S
C1140 C18 1.317 . S
C1175 C91 1.348 . S
C1190 C26 1.348 . S
C1225 C104 1.348 . S
C1240 C39 1.348 . S
C1275 C122 1.316 . S
C1290 C57 1.317 . S
C1325 C130 1.349 . S
C1340 C65 1.349 . S
