# Generated by pormake.
# Topology uom, (4)-cn, num edge types: 1
# Building blocks:
#     Node 0, Type 0, BuildingBlock: NAWXER_clean_sbu_0, # of connection points: 4
#     Node 1, Type 0, BuildingBlock: NAWXER_clean_sbu_0, # of connection points: 4
#     Node 2, Type 0, BuildingBlock: NAWXER_clean_sbu_0, # of connection points: 4
#     Node 3, Type 0, BuildingBlock: NAWXER_clean_sbu_0, # of connection points: 4
#     Node 4, Type 0, BuildingBlock: NAWXER_clean_sbu_0, # of connection points: 4
#     Node 5, Type 0, BuildingBlock: NAWXER_clean_sbu_0, # of connection points: 4
#     Edge 6, Type (0, 0), BuildingBlock: XIVTED_clean_linker_0, # of connection points: 2
#     Edge 7, Type (0, 0), BuildingBlock: XIVTED_clean_linker_0, # of connection points: 2
#     Edge 8, Type (0, 0), BuildingBlock: XIVTED_clean_linker_0, # of connection points: 2
#     Edge 9, Type (0, 0), BuildingBlock: XIVTED_clean_linker_0, # of connection points: 2
#     Edge 10, Type (0, 0), BuildingBlock: XIVTED_clean_linker_0, # of connection points: 2
#     Edge 11, Type (0, 0), BuildingBlock: XIVTED_clean_linker_0, # of connection points: 2
#     Edge 12, Type (0, 0), BuildingBlock: XIVTED_clean_linker_0, # of connection points: 2
#     Edge 13, Type (0, 0), BuildingBlock: XIVTED_clean_linker_0, # of connection points: 2
#     Edge 14, Type (0, 0), BuildingBlock: XIVTED_clean_linker_0, # of connection points: 2
#     Edge 15, Type (0, 0), BuildingBlock: XIVTED_clean_linker_0, # of connection points: 2
#     Edge 16, Type (0, 0), BuildingBlock: XIVTED_clean_linker_0, # of connection points: 2
#     Edge 17, Type (0, 0), BuildingBlock: XIVTED_clean_linker_0, # of connection points: 2
# Relax obj value: 0.104
# Max RMSD: 0.115
# Mean RMSD: 0.115
data_MOF--net-uom--node1-NAWXER_clean_sbu_0--edge1-XIVTED_clean_linker_0
_symmetry_space_group_name_H-M    P1
_symmetry_Int_Tables_number       1
_symmetry_cell_setting            triclinic
loop_
_symmetry_equiv_pos_as_xyz
'x, y, z'
_cell_length_a     29.59373
_cell_length_b     29.519584
_cell_length_c     38.089165
_cell_angle_alpha  90.034537
_cell_angle_beta   89.888876
_cell_angle_gamma 120.08783
loop_
_atom_site_label
_atom_site_type_symbol
_atom_site_fract_x
_atom_site_fract_y
_atom_site_fract_z
_atom_type_partial_charge
C0 C 0.20301 0.91107 1.01325 0.0
C1 C 0.27241 0.01227 0.1232 0.0
O2 O 0.23189 0.96055 1.00885 0.0
Zn3 Zn 0.27422 0.02998 0.03946 0.0
O4 O 0.19584 0.89206 0.04411 0.0
Zn5 Zn 0.23894 0.95872 0.0691 0.0
O6 O 0.19194 -0.00596 0.06136 0.0
O7 O 0.23549 0.06497 1.0286 0.0
O8 O 0.2463 0.96257 0.12058 0.0
O9 O 0.28448 0.04008 0.0952 0.0
O10 O 0.34465 0.05943 1.02265 0.0
O11 O 0.31741 0.98499 0.05113 0.0
C12 C 0.1944 0.03336 0.04537 0.0
C13 C 0.35328 0.02404 1.03405 0.0
C14 C 0.37232 0.36253 0.36829 0.0
C15 C 0.2023 0.20632 0.38093 0.0
O16 O 0.37469 0.32629 0.3854 0.0
Zn17 Zn 0.32121 0.24815 0.40372 0.0
O18 O 0.32856 0.35477 0.35718 0.0
Zn19 Zn 0.28648 0.28478 0.37436 0.0
O20 O 0.28806 0.29583 0.43003 0.0
O21 O 0.32545 0.25587 0.45526 0.0
O22 O 0.21265 0.24765 0.36416 0.0
O23 O 0.23871 0.20283 0.39656 0.0
O24 O 0.34242 0.20342 0.37831 0.0
O25 O 0.31103 0.2407 0.34351 0.0
C26 C 0.30338 0.28331 0.45796 0.0
C27 C 0.33038 0.21079 0.34759 0.0
C28 C 0.16236 0.3365 0.68311 0.0
C29 C 0.05907 0.30747 0.79182 0.0
O30 O 0.11319 0.3163 0.67818 0.0
Zn31 Zn 0.04337 0.29047 0.70802 0.0
O32 O 0.1806 0.34881 0.7141 0.0
Zn33 Zn 0.11365 0.32639 0.73832 0.0
O34 O 0.07767 0.24367 0.73126 0.0
O35 O 0.00789 0.21659 0.69763 0.0
O36 O 0.10869 0.33069 0.78966 0.0
O37 O 0.03197 0.29155 0.76359 0.0
O38 O 0.01498 0.33148 0.69003 0.0
O39 O 0.08853 0.37897 0.71915 0.0
C40 C 0.03855 0.20683 0.71513 0.0
C41 C 0.05013 0.37569 0.7014 0.0
C42 C 0.70435 0.05237 1.03404 0.0
C43 C 0.8614 0.0401 0.04612 0.0
O44 O 0.74018 0.09098 0.0514 0.0
Zn45 Zn 0.81823 0.11606 0.06964 0.0
O46 O 0.71271 0.01687 1.02246 0.0
Zn47 Zn 0.78268 0.04518 0.03963 0.0
O48 O 0.77149 0.03457 0.09533 0.0
O49 O 0.81018 0.11178 0.12111 0.0
O50 O 0.82061 0.00927 1.02889 0.0
O51 O 0.86423 0.07954 0.0622 0.0
O52 O 0.8627 0.18277 0.04493 0.0
O53 O 0.82651 0.11469 1.00939 0.0
C54 C 0.78351 0.06206 0.12347 0.0
C55 C 0.85595 0.16403 1.01401 0.0
C56 C 0.86222 0.87307 0.38044 0.0
C57 C 0.69273 0.71621 0.36781 0.0
O58 O 0.82572 0.87583 0.39662 0.0
Zn59 Zn 0.74331 0.82989 0.40403 0.0
O60 O 0.85212 0.83239 0.36291 0.0
Zn61 Zn 0.77836 0.7944 0.37364 0.0
O62 O 0.75289 0.83853 0.34377 0.0
O63 O 0.72129 0.87459 0.3796 0.0
O64 O 0.73648 0.72446 0.35618 0.0
O65 O 0.69025 0.75202 0.38541 0.0
O66 O 0.73952 0.82123 0.45545 0.0
O67 O 0.77776 0.78273 0.42923 0.0
C68 C 0.73314 0.86796 0.3486 0.0
C69 C 0.76243 0.79452 0.45752 0.0
C70 C 0.01979 0.69747 0.69925 0.0
C71 C 0.03115 0.86639 0.71209 0.0
O72 O -0.01915 0.69416 0.71644 0.0
Zn73 Zn 0.95516 0.74668 0.73482 0.0
O74 O 0.05524 0.74168 0.68804 0.0
Zn75 Zn 0.02632 0.7827 0.70532 0.0
O76 O 0.036 0.78153 0.76108 0.0
O77 O 0.95845 0.74226 0.78624 0.0
O78 O 0.06231 0.85667 0.69506 0.0
O79 O -0.00852 0.82946 0.72781 0.0
O80 O 0.88897 0.72443 0.70986 0.0
O81 O 0.9574 0.75721 0.67465 0.0
C82 C 0.00799 0.76555 0.78899 0.0
C83 C 0.90809 0.73701 0.67906 0.0
H84 H 0.25164 0.96954 0.19033 0.0
H85 H 0.35354 0.24787 0.28112 0.0
H86 H 0.32822 0.11733 0.13536 0.0
H87 H 0.31343 0.10998 0.34236 0.0
H88 H 0.34533 0.19902 0.22771 0.0
H89 H 0.27369 0.01767 0.2464 0.0
C90 C 0.27333 0.01193 0.18998 0.0
C91 C 0.28768 0.03927 0.1579 0.0
C92 C 0.33893 0.17931 0.25274 0.0
C93 C 0.31284 0.09447 0.22189 0.0
C94 C 0.3438 0.20736 0.28332 0.0
C95 C 0.3344 0.18307 0.31626 0.0
C96 C 0.32338 0.12591 0.25474 0.0
C97 C 0.32159 0.13034 0.31748 0.0
C98 C 0.28599 0.03936 0.222 0.0
C99 C 0.31587 0.09428 0.1592 0.0
N100 N 0.3157 0.10322 0.2871 0.0
N101 N 0.32707 0.11979 0.19045 0.0
H102 H 0.26204 0.34613 0.46996 0.0
H103 H 0.24614 0.31976 0.67979 0.0
H104 H 0.31971 0.25778 0.52526 0.0
H105 H 0.15172 0.36096 0.61628 0.0
H106 H 0.28841 0.31228 0.62584 0.0
H107 H 0.23706 0.36739 0.52561 0.0
C108 C 0.26979 0.3313 0.49383 0.0
C109 C 0.29259 0.29948 0.49266 0.0
C110 C 0.25895 0.32367 0.62388 0.0
C111 C 0.26364 0.32403 0.55719 0.0
C112 C 0.23527 0.3285 0.65463 0.0
C113 C 0.19546 0.34114 0.65246 0.0
C114 C 0.24319 0.33242 0.59096 0.0
C115 C 0.18217 0.35108 0.61917 0.0
C116 C 0.25537 0.34352 0.52574 0.0
C117 C 0.30198 0.28214 0.5248 0.0
N118 N 0.20584 0.34648 0.5899 0.0
N119 N 0.28716 0.29436 0.55578 0.0
H120 H 0.82016 0.15205 0.94734 0.0
H121 H 0.10009 0.32823 0.85931 0.0
H122 H 0.95662 0.24796 1.00992 0.0
H123 H 0.95409 0.2601 0.803 0.0
H124 H 0.05073 0.30187 0.91491 0.0
H125 H 0.8701 0.19402 0.89447 0.0
C126 C 0.86058 0.1827 0.94995 0.0
C127 C 0.88417 0.19666 0.9831 0.0
C128 C 0.0297 0.29325 0.89032 0.0
C129 C 0.94256 0.24425 0.92223 0.0
C130 C 0.05784 0.30821 0.85857 0.0
C131 C 0.03135 0.29607 0.82625 0.0
C132 C 0.97474 0.26567 0.8897 0.0
C133 C 0.97649 0.27009 0.82705 0.0
C134 C 0.88924 0.20663 0.91968 0.0
C135 C 0.9368 0.23647 0.98487 0.0
N136 N 0.95026 0.25553 0.85805 0.0
N137 N 0.96453 0.25837 0.9548 0.0
H138 H 0.72503 0.95702 0.13498 0.0
H139 H 0.74678 0.96763 0.34506 0.0
H140 H 0.80604 0.10369 0.19092 0.0
H141 H 0.71125 0.83288 0.28158 0.0
H142 H 0.75357 0.01692 0.29104 0.0
H143 H 0.70459 0.91043 0.19049 0.0
C144 C 0.73839 0.97965 0.15896 0.0
C145 C 0.76789 0.03461 0.15802 0.0
C146 C 0.74362 0.97636 0.2891 0.0
C147 C 0.74429 0.98072 0.22239 0.0
C148 C 0.73921 0.9481 0.31989 0.0
C149 C 0.72837 0.89605 0.31778 0.0
C150 C 0.73631 0.952 0.25617 0.0
C151 C 0.71979 0.87291 0.28446 0.0
C152 C 0.72666 0.95282 0.1908 0.0
C153 C 0.78349 0.06136 0.19028 0.0
N154 N 0.72399 0.90093 0.25514 0.0
N155 N 0.77176 0.03416 0.22118 0.0
H156 H 0.92175 0.71557 0.61202 0.0
H157 H 0.74255 0.81557 0.52516 0.0
H158 H 0.82319 0.75191 0.67529 0.0
H159 H 0.81014 0.73723 0.46844 0.0
H160 H 0.76989 0.79343 0.58059 0.0
H161 H 0.87952 0.72326 0.55935 0.0
C162 C 0.89051 0.72438 0.61482 0.0
C163 C 0.87583 0.73286 0.64811 0.0
C164 C 0.77817 0.78073 0.55595 0.0
C165 C 0.82789 0.74329 0.5875 0.0
C166 C 0.76265 0.79342 0.5243 0.0
C167 C 0.77434 0.77868 0.49191 0.0
C168 C 0.80591 0.75351 0.55514 0.0
C169 C 0.80047 0.74992 0.49255 0.0
C170 C 0.86642 0.72894 0.58468 0.0
C171 C 0.83527 0.74449 0.65012 0.0
N172 N 0.8156 0.73878 0.52344 0.0
N173 N 0.81317 0.75015 0.62018 0.0
H174 H 0.24086 0.92425 0.94699 0.0
H175 H 0.96473 0.7447 0.85594 0.0
H176 H 0.10322 0.82591 1.00822 0.0
H177 H 0.11263 0.81355 0.80154 0.0
H178 H 0.01221 0.77171 0.91211 0.0
H179 H 0.19295 0.88178 0.89368 0.0
C180 C 0.20062 0.89298 0.94921 0.0
C181 C 0.17609 0.87846 0.98211 0.0
C182 C 0.03406 0.78034 0.88782 0.0
C183 C 0.12004 0.83026 0.92072 0.0
C184 C 0.00701 0.765 0.85574 0.0
C185 C 0.03458 0.77718 0.82379 0.0
C186 C 0.08903 0.80835 0.88789 0.0
C187 C 0.08942 0.80353 0.82528 0.0
C188 C 0.17313 0.86876 0.9187 0.0
C189 C 0.12374 0.83786 0.98338 0.0
N190 N 0.11459 0.81848 0.85658 0.0
N191 N 0.09714 0.81566 0.95305 0.0
H192 H 0.1565 0.06706 0.99206 0.0
H193 H 0.92343 0.05382 0.10178 0.0
H194 H 0.12615 0.0109 0.09887 0.0
H195 H 0.90429 0.01364 0.99183 0.0
H196 H 0.00616 0.05383 0.10154 0.0
H197 H 0.07238 0.06535 0.99163 0.0
C198 C 0.13253 0.05528 1.01552 0.0
C199 C 0.14799 0.03926 0.04559 0.0
C200 C -0.01639 0.04458 0.07756 0.0
C201 C 0.05286 0.0372 0.04525 0.0
C202 C 0.93653 0.04441 0.0777 0.0
C203 C 0.90713 0.03319 0.04686 0.0
C204 C 0.00204 0.03498 0.04612 0.0
C205 C 0.92574 0.02171 1.01621 0.0
C206 C 0.08451 0.05369 1.01511 0.0
C207 C 0.11541 0.02351 0.0752 0.0
N208 N 0.97262 0.02357 1.01645 0.0
N209 N 0.06946 0.02319 0.07438 0.0
H210 H 0.91059 0.93393 0.43661 0.0
H211 H 0.13069 0.16929 0.32774 0.0
H212 H 0.93149 0.9171 0.32625 0.0
H213 H 0.15566 0.1385 0.43454 0.0
H214 H 0.04795 0.08514 0.32709 0.0
H215 H -0.00685 0.01718 0.43686 0.0
C216 C 0.93307 0.94764 0.41255 0.0
C217 C 0.9149 0.91879 0.38144 0.0
C218 C 0.0716 0.09721 0.35064 0.0
C219 C 0.00777 0.01423 0.38125 0.0
C220 C 0.11819 0.14525 0.35118 0.0
C221 C 0.14955 0.16051 0.38128 0.0
C222 C 0.05622 0.06534 0.38067 0.0
C223 C 0.13237 0.12787 0.41085 0.0
C224 C -0.02014 -0.00499 0.41268 0.0
C225 C 0.94489 0.93813 0.35081 0.0
N226 N 0.08664 0.08184 0.40988 0.0
N227 N -0.01018 0.98528 0.35134 0.0
H228 H 0.05431 0.15904 0.7704 0.0
H229 H 0.06461 0.93859 0.65909 0.0
H230 H 0.01097 0.13716 0.66103 0.0
H231 H 0.01087 0.91237 0.7665 0.0
H232 H 0.06364 0.02156 0.65944 0.0
H233 H 0.05482 0.07635 0.76974 0.0
C234 C 0.04435 0.13637 0.74637 0.0
C235 C 0.03209 0.15428 0.7158 0.0
C236 C 0.0524 -0.00243 0.68289 0.0
C237 C 0.03441 0.0613 0.71457 0.0
C238 C 0.05357 0.95085 0.68285 0.0
C239 C 0.03792 0.91909 0.71285 0.0
C240 C 0.03669 0.0127 0.71339 0.0
C241 C 0.02314 0.93597 0.74287 0.0
C242 C 0.0448 0.08951 0.74599 0.0
C243 C 0.01987 0.124 0.68521 0.0
N244 N 0.02316 0.98188 0.74247 0.0
N245 N 0.02199 0.07904 0.6852 0.0
H246 H 0.61164 0.96543 1.01663 0.0
H247 H 0.44624 0.11186 1.01804 0.0
H248 H 0.67978 0.1299 0.04026 0.0
H249 H 0.37803 0.94662 0.03899 0.0
H250 H 0.5324 0.11929 1.01406 0.0
H251 H 0.52572 0.95839 1.01265 0.0
C252 C 0.60863 0.00016 1.02063 0.0
C253 C 0.65287 0.04828 1.02901 0.0
C254 C 0.49846 0.08141 1.01934 0.0
C255 C 0.55491 0.04047 1.02426 0.0
C256 C 0.4493 0.07707 1.02145 0.0
C257 C 0.40497 0.02859 1.02907 0.0
C258 C 0.50314 0.03682 1.0243 0.0
C259 C 0.41124 0.98482 1.03335 0.0
C260 C 0.55959 -0.00397 1.01851 0.0
C261 C 0.64663 0.09196 1.03402 0.0
N262 N 0.45941 -0.01005 1.03086 0.0
N263 N 0.59855 0.08704 1.03153 0.0
H264 H 0.59121 0.69277 0.37326 0.0
H265 H 0.47387 0.38577 0.37339 0.0
H266 H 0.68588 0.62275 0.35106 0.0
H267 H 0.3794 0.45608 0.35173 0.0
H268 H 0.55229 0.4722 0.36875 0.0
H269 H 0.51291 0.6063 0.3689 0.0
C270 C 0.59549 0.65923 0.36728 0.0
C271 C 0.64511 0.66487 0.36264 0.0
C272 C 0.5144 0.46858 0.36469 0.0
C273 C 0.55582 0.56591 0.35804 0.0
C274 C 0.46965 0.41935 0.36747 0.0
C275 C 0.42006 0.4138 0.36307 0.0
C276 C 0.50945 0.51267 0.35812 0.0
C277 C 0.41688 0.45859 0.35526 0.0
C278 C 0.5508 0.60997 0.36466 0.0
C279 C 0.64837 0.62014 0.35477 0.0
N280 N 0.46097 0.50628 0.35345 0.0
N281 N 0.60432 0.57238 0.35313 0.0
H282 H 0.10748 0.69282 0.68291 0.0
H283 H 0.96325 0.38045 0.68305 0.0
H284 H 0.94275 0.59491 0.70419 0.0
H285 H 0.12697 0.47824 0.70704 0.0
H286 H 0.95561 0.45908 0.6781 0.0
H287 H 0.11537 0.61422 0.67907 0.0
C288 C 0.07288 0.65479 0.6864 0.0
C289 C 0.02443 0.65035 0.69411 0.0
C290 C -0.00678 0.46321 0.68424 0.0
C291 C 0.03321 0.56059 0.68952 0.0
C292 C -0.00231 0.41846 0.68691 0.0
C293 C 0.04576 0.42285 0.69571 0.0
C294 C 0.03729 0.51266 0.68985 0.0
C295 C 0.08909 0.47308 0.70051 0.0
C296 C 0.0775 0.61006 0.68437 0.0
C297 C -0.01908 0.6001 0.69848 0.0
N298 N 0.08384 0.51609 0.6975 0.0
N299 N -0.01367 0.55713 0.6961 0.0
loop_
_geom_bond_atom_site_label_1
_geom_bond_atom_site_label_2
_geom_bond_distance
_geom_bond_site_symmetry_2
_ccdc_geom_bond_type
C0 O2 1.247 . S
C0 O4 1.258 . S
C1 O8 1.247 . S
C1 O9 1.258 . S
O2 C0 1.247 . S
O2 Zn3 2.028 1_556 S
Zn3 O2 2.028 1_554 S
Zn3 O7 2.035 . S
Zn3 O9 2.035 . S
Zn3 O10 2.028 . S
O4 C0 1.258 . S
O4 Zn5 2.035 1_556 S
Zn5 O4 2.035 1_554 S
Zn5 O6 2.028 . S
Zn5 O8 2.028 . S
Zn5 O11 2.035 . S
O6 Zn5 2.028 . S
O6 C12 1.247 . S
O7 Zn3 2.035 . S
O7 C12 1.258 . S
O8 C1 1.247 . S
O8 Zn5 2.028 . S
O9 C1 1.258 . S
O9 Zn3 2.035 . S
O10 Zn3 2.028 . S
O10 C13 1.247 . S
O11 Zn5 2.035 . S
O11 C13 1.258 . S
C12 O6 1.247 . S
C12 O7 1.258 . S
C13 O10 1.247 . S
C13 O11 1.258 . S
C14 O16 1.247 . S
C14 O18 1.258 . S
C15 O22 1.247 . S
C15 O23 1.258 . S
O16 C14 1.247 . S
O16 Zn17 2.028 . S
Zn17 O16 2.028 . S
Zn17 O21 2.035 . S
Zn17 O23 2.035 . S
Zn17 O24 2.028 . S
O18 C14 1.258 . S
O18 Zn19 2.035 . S
Zn19 O18 2.035 . S
Zn19 O20 2.028 . S
Zn19 O22 2.028 . S
Zn19 O25 2.035 . S
O20 Zn19 2.028 . S
O20 C26 1.247 . S
O21 Zn17 2.035 . S
O21 C26 1.258 . S
O22 C15 1.247 . S
O22 Zn19 2.028 . S
O23 C15 1.258 . S
O23 Zn17 2.035 . S
O24 Zn17 2.028 . S
O24 C27 1.247 . S
O25 Zn19 2.035 . S
O25 C27 1.258 . S
C26 O20 1.247 . S
C26 O21 1.258 . S
C27 O24 1.247 . S
C27 O25 1.258 . S
C28 O30 1.247 1_455 S
C28 O32 1.258 . S
C29 O36 1.247 1_655 S
C29 O37 1.258 . S
O30 C28 1.247 1_655 S
O30 Zn31 2.028 . S
Zn31 O30 2.028 . S
Zn31 O35 2.035 . S
Zn31 O37 2.035 . S
Zn31 O38 2.028 . S
O32 C28 1.258 . S
O32 Zn33 2.035 . S
Zn33 O32 2.035 . S
Zn33 O34 2.028 . S
Zn33 O36 2.028 . S
Zn33 O39 2.035 . S
O34 Zn33 2.028 . S
O34 C40 1.247 . S
O35 Zn31 2.035 . S
O35 C40 1.258 1_655 S
O36 C29 1.247 1_455 S
O36 Zn33 2.028 . S
O37 C29 1.258 . S
O37 Zn31 2.035 . S
O38 Zn31 2.028 . S
O38 C41 1.247 1_655 S
O39 Zn33 2.035 . S
O39 C41 1.258 . S
C40 O34 1.247 . S
C40 O35 1.258 1_455 S
C41 O38 1.247 1_455 S
C41 O39 1.258 . S
C42 O44 1.247 . S
C42 O46 1.258 1_545 S
C43 O50 1.247 1_545 S
C43 O51 1.258 . S
O44 C42 1.247 . S
O44 Zn45 2.028 . S
Zn45 O44 2.028 . S
Zn45 O49 2.035 . S
Zn45 O51 2.035 . S
Zn45 O52 2.028 1_554 S
O46 C42 1.258 1_565 S
O46 Zn47 2.035 . S
Zn47 O46 2.035 . S
Zn47 O48 2.028 . S
Zn47 O50 2.028 . S
Zn47 O53 2.035 1_554 S
O48 Zn47 2.028 . S
O48 C54 1.247 . S
O49 Zn45 2.035 . S
O49 C54 1.258 1_545 S
O50 C43 1.247 1_565 S
O50 Zn47 2.028 . S
O51 C43 1.258 . S
O51 Zn45 2.035 . S
O52 Zn45 2.028 1_556 S
O52 C55 1.247 . S
O53 Zn47 2.035 1_556 S
O53 C55 1.258 1_565 S
C54 O48 1.247 . S
C54 O49 1.258 1_565 S
C55 O52 1.247 . S
C55 O53 1.258 1_545 S
C56 O58 1.247 . S
C56 O60 1.258 . S
C57 O64 1.247 . S
C57 O65 1.258 . S
O58 C56 1.247 . S
O58 Zn59 2.028 . S
Zn59 O58 2.028 . S
Zn59 O63 2.035 . S
Zn59 O65 2.035 . S
Zn59 O66 2.028 . S
O60 C56 1.258 . S
O60 Zn61 2.035 . S
Zn61 O60 2.035 . S
Zn61 O62 2.028 . S
Zn61 O64 2.028 . S
Zn61 O67 2.035 . S
O62 Zn61 2.028 . S
O62 C68 1.247 . S
O63 Zn59 2.035 . S
O63 C68 1.258 . S
O64 C57 1.247 . S
O64 Zn61 2.028 . S
O65 C57 1.258 . S
O65 Zn59 2.035 . S
O66 Zn59 2.028 . S
O66 C69 1.247 . S
O67 Zn61 2.035 . S
O67 C69 1.258 . S
C68 O62 1.247 . S
C68 O63 1.258 . S
C69 O66 1.247 . S
C69 O67 1.258 . S
C70 O72 1.247 . S
C70 O74 1.258 . S
C71 O78 1.247 . S
C71 O79 1.258 . S
O72 C70 1.247 . S
O72 Zn73 2.028 . S
Zn73 O72 2.028 . S
Zn73 O77 2.035 . S
Zn73 O79 2.035 . S
Zn73 O80 2.028 . S
O74 C70 1.258 . S
O74 Zn75 2.035 . S
Zn75 O74 2.035 . S
Zn75 O76 2.028 . S
Zn75 O78 2.028 . S
Zn75 O81 2.035 . S
O76 Zn75 2.028 . S
O76 C82 1.247 . S
O77 Zn73 2.035 . S
O77 C82 1.258 . S
O78 C71 1.247 . S
O78 Zn75 2.028 . S
O79 C71 1.258 . S
O79 Zn73 2.035 . S
O80 Zn73 2.028 . S
O80 C83 1.247 . S
O81 Zn75 2.035 . S
O81 C83 1.258 . S
C82 O76 1.247 . S
C82 O77 1.258 . S
C83 O80 1.247 . S
C83 O81 1.258 . S
H84 C90 0.930 . S
H85 C94 0.930 . S
H86 C99 0.929 . S
H87 C97 0.929 . S
H88 C92 0.929 . S
H89 C98 0.929 . S
C90 H84 0.930 . S
C90 C91 1.367 . S
C90 C98 1.378 . S
C91 C90 1.367 . S
C91 C99 1.433 . S
C92 H88 0.929 . S
C92 C94 1.378 . S
C92 C96 1.350 . S
C93 C96 1.463 . S
C93 C98 1.350 . S
C93 N101 1.427 . S
C94 H85 0.930 . S
C94 C92 1.378 . S
C94 C95 1.367 . S
C95 C94 1.367 . S
C95 C97 1.433 . S
C96 C92 1.350 . S
C96 C93 1.463 . S
C96 N100 1.427 . S
C97 H87 0.929 . S
C97 C95 1.433 . S
C97 N100 1.384 . S
C98 H89 0.929 . S
C98 C90 1.378 . S
C98 C93 1.350 . S
C99 H86 0.929 . S
C99 C91 1.433 . S
C99 N101 1.384 . S
N100 C96 1.427 . S
N100 C97 1.384 . S
N101 C93 1.427 . S
N101 C99 1.384 . S
H102 C108 0.930 . S
H103 C112 0.930 . S
H104 C117 0.929 . S
H105 C115 0.929 . S
H106 C110 0.929 . S
H107 C116 0.929 . S
C108 H102 0.930 . S
C108 C109 1.367 . S
C108 C116 1.378 . S
C109 C108 1.367 . S
C109 C117 1.433 . S
C110 H106 0.929 . S
C110 C112 1.378 . S
C110 C114 1.350 . S
C111 C114 1.463 . S
C111 C116 1.350 . S
C111 N119 1.427 . S
C112 H103 0.930 . S
C112 C110 1.378 . S
C112 C113 1.367 . S
C113 C112 1.367 . S
C113 C115 1.433 . S
C114 C110 1.350 . S
C114 C111 1.463 . S
C114 N118 1.427 . S
C115 H105 0.929 . S
C115 C113 1.433 . S
C115 N118 1.384 . S
C116 H107 0.929 . S
C116 C108 1.378 . S
C116 C111 1.350 . S
C117 H104 0.929 . S
C117 C109 1.433 . S
C117 N119 1.384 . S
N118 C114 1.427 . S
N118 C115 1.384 . S
N119 C111 1.427 . S
N119 C117 1.384 . S
H120 C126 0.930 . S
H121 C130 0.930 1_455 S
H122 C135 0.929 . S
H123 C133 0.929 . S
H124 C128 0.929 . S
H125 C134 0.929 . S
C126 H120 0.930 . S
C126 C127 1.367 . S
C126 C134 1.378 . S
C127 C126 1.367 . S
C127 C135 1.433 . S
C128 H124 0.929 . S
C128 C130 1.378 . S
C128 C132 1.350 . S
C129 C132 1.463 . S
C129 C134 1.350 . S
C129 N137 1.427 . S
C130 H121 0.930 1_655 S
C130 C128 1.378 . S
C130 C131 1.367 . S
C131 C130 1.367 . S
C131 C133 1.433 . S
C132 C128 1.350 . S
C132 C129 1.463 . S
C132 N136 1.427 . S
C133 H123 0.929 . S
C133 C131 1.433 . S
C133 N136 1.384 . S
C134 H125 0.929 . S
C134 C126 1.378 . S
C134 C129 1.350 . S
C135 H122 0.929 . S
C135 C127 1.433 . S
C135 N137 1.384 . S
N136 C132 1.427 . S
N136 C133 1.384 . S
N137 C129 1.427 . S
N137 C135 1.384 . S
H138 C144 0.930 . S
H139 C148 0.930 . S
H140 C153 0.929 . S
H141 C151 0.929 . S
H142 C146 0.929 . S
H143 C152 0.929 . S
C144 H138 0.930 . S
C144 C145 1.367 . S
C144 C152 1.378 . S
C145 C144 1.367 . S
C145 C153 1.433 . S
C146 H142 0.929 . S
C146 C148 1.378 . S
C146 C150 1.350 . S
C147 C150 1.463 . S
C147 C152 1.350 . S
C147 N155 1.427 . S
C148 H139 0.930 . S
C148 C146 1.378 . S
C148 C149 1.367 . S
C149 C148 1.367 . S
C149 C151 1.433 . S
C150 C146 1.350 . S
C150 C147 1.463 . S
C150 N154 1.427 . S
C151 H141 0.929 . S
C151 C149 1.433 . S
C151 N154 1.384 . S
C152 H143 0.929 . S
C152 C144 1.378 . S
C152 C147 1.350 . S
C153 H140 0.929 . S
C153 C145 1.433 . S
C153 N155 1.384 . S
N154 C150 1.427 . S
N154 C151 1.384 . S
N155 C147 1.427 . S
N155 C153 1.384 . S
H156 C162 0.930 . S
H157 C166 0.930 . S
H158 C171 0.929 . S
H159 C169 0.929 . S
H160 C164 0.929 . S
H161 C170 0.929 . S
C162 H156 0.930 . S
C162 C163 1.367 . S
C162 C170 1.378 1_455 S
C163 C162 1.367 . S
C163 C171 1.433 . S
C164 H160 0.929 . S
C164 C166 1.378 . S
C164 C168 1.350 . S
C165 C168 1.463 . S
C165 C170 1.350 . S
C165 N173 1.427 1_655 S
C166 H157 0.930 . S
C166 C164 1.378 . S
C166 C167 1.367 . S
C167 C166 1.367 . S
C167 C169 1.433 . S
C168 C164 1.350 . S
C168 C165 1.463 . S
C168 N172 1.427 . S
C169 H159 0.929 . S
C169 C167 1.433 . S
C169 N172 1.384 . S
C170 H161 0.929 . S
C170 C162 1.378 1_655 S
C170 C165 1.350 . S
C171 H158 0.929 . S
C171 C163 1.433 . S
C171 N173 1.384 . S
N172 C168 1.427 . S
N172 C169 1.384 . S
N173 C165 1.427 1_455 S
N173 C171 1.384 . S
H174 C180 0.930 . S
H175 C184 0.930 . S
H176 C189 0.929 . S
H177 C187 0.929 . S
H178 C182 0.929 . S
H179 C188 0.929 . S
C180 H174 0.930 . S
C180 C181 1.367 . S
C180 C188 1.378 . S
C181 C180 1.367 . S
C181 C189 1.433 1_545 S
C182 H178 0.929 . S
C182 C184 1.378 . S
C182 C186 1.350 . S
C183 C186 1.463 . S
C183 C188 1.350 1_565 S
C183 N191 1.427 . S
C184 H175 0.930 . S
C184 C182 1.378 . S
C184 C185 1.367 . S
C185 C184 1.367 . S
C185 C187 1.433 . S
C186 C182 1.350 . S
C186 C183 1.463 . S
C186 N190 1.427 . S
C187 H177 0.929 . S
C187 C185 1.433 . S
C187 N190 1.384 . S
C188 H179 0.929 . S
C188 C180 1.378 . S
C188 C183 1.350 1_545 S
C189 H176 0.929 . S
C189 C181 1.433 1_565 S
C189 N191 1.384 . S
N190 C186 1.427 . S
N190 C187 1.384 . S
N191 C183 1.427 . S
N191 C189 1.384 . S
H192 C198 0.930 . S
H193 C202 0.930 . S
H194 C207 0.929 . S
H195 C205 0.929 1_565 S
H196 C200 0.929 . S
H197 C206 0.929 . S
C198 H192 0.930 . S
C198 C199 1.367 1_556 S
C198 C206 1.378 . S
C199 C198 1.367 1_554 S
C199 C207 1.433 . S
C200 H196 0.929 . S
C200 C202 1.378 1_455 S
C200 C204 1.350 . S
C201 C204 1.463 . S
C201 C206 1.350 1_554 S
C201 N209 1.427 . S
C202 H193 0.930 . S
C202 C200 1.378 1_655 S
C202 C203 1.367 . S
C203 C202 1.367 . S
C203 C205 1.433 1_554 S
C204 C200 1.350 . S
C204 C201 1.463 . S
C204 N208 1.427 1_454 S
C205 H195 0.929 1_545 S
C205 C203 1.433 1_556 S
C205 N208 1.384 . S
C206 H197 0.929 . S
C206 C198 1.378 . S
C206 C201 1.350 1_556 S
C207 H194 0.929 . S
C207 C199 1.433 . S
C207 N209 1.384 . S
N208 C204 1.427 1_656 S
N208 C205 1.384 . S
N209 C201 1.427 . S
N209 C207 1.384 . S
H210 C216 0.930 . S
H211 C220 0.930 . S
H212 C225 0.929 . S
H213 C223 0.929 . S
H214 C218 0.929 . S
H215 C224 0.929 . S
C216 H210 0.930 . S
C216 C217 1.367 . S
C216 C224 1.378 1_565 S
C217 C216 1.367 . S
C217 C225 1.433 1_655 S
C218 H214 0.929 . S
C218 C220 1.378 . S
C218 C222 1.350 . S
C219 C222 1.463 . S
C219 C224 1.350 1_455 S
C219 N227 1.427 1_545 S
C220 H211 0.930 . S
C220 C218 1.378 . S
C220 C221 1.367 . S
C221 C220 1.367 . S
C221 C223 1.433 . S
C222 C218 1.350 . S
C222 C219 1.463 . S
C222 N226 1.427 . S
C223 H213 0.929 . S
C223 C221 1.433 . S
C223 N226 1.384 . S
C224 H215 0.929 . S
C224 C216 1.378 1_545 S
C224 C219 1.350 1_655 S
C225 H212 0.929 . S
C225 C217 1.433 1_455 S
C225 N227 1.384 . S
N226 C222 1.427 . S
N226 C223 1.384 . S
N227 C219 1.427 1_565 S
N227 C225 1.384 . S
H228 C234 0.930 . S
H229 C238 0.930 . S
H230 C243 0.929 . S
H231 C241 0.929 . S
H232 C236 0.929 . S
H233 C242 0.929 . S
C234 H228 0.930 . S
C234 C235 1.367 1_655 S
C234 C242 1.378 1_655 S
C235 C234 1.367 1_455 S
C235 C243 1.433 . S
C236 H232 0.929 . S
C236 C238 1.378 1_545 S
C236 C240 1.350 . S
C237 C240 1.463 . S
C237 C242 1.350 . S
C237 N245 1.427 . S
C238 H229 0.930 . S
C238 C236 1.378 1_565 S
C238 C239 1.367 . S
C239 C238 1.367 . S
C239 C241 1.433 . S
C240 C236 1.350 . S
C240 C237 1.463 . S
C240 N244 1.427 1_545 S
C241 H231 0.929 . S
C241 C239 1.433 . S
C241 N244 1.384 . S
C242 H233 0.929 . S
C242 C234 1.378 1_455 S
C242 C237 1.350 . S
C243 H230 0.929 . S
C243 C235 1.433 . S
C243 N245 1.384 . S
N244 C240 1.427 1_565 S
N244 C241 1.384 . S
N245 C237 1.427 . S
N245 C243 1.384 . S
H246 C252 0.930 . S
H247 C256 0.930 . S
H248 C261 0.929 . S
H249 C259 0.929 . S
H250 C254 0.929 . S
H251 C260 0.929 . S
C252 H246 0.930 . S
C252 C253 1.367 1_565 S
C252 C260 1.378 . S
C253 C252 1.367 1_545 S
C253 C261 1.433 . S
C254 H250 0.929 . S
C254 C256 1.378 . S
C254 C258 1.350 . S
C255 C258 1.463 . S
C255 C260 1.350 1_545 S
C255 N263 1.427 . S
C256 H247 0.930 . S
C256 C254 1.378 . S
C256 C257 1.367 . S
C257 C256 1.367 . S
C257 C259 1.433 . S
C258 C254 1.350 . S
C258 C255 1.463 . S
C258 N262 1.427 . S
C259 H249 0.929 . S
C259 C257 1.433 . S
C259 N262 1.384 . S
C260 H251 0.929 . S
C260 C252 1.378 . S
C260 C255 1.350 1_565 S
C261 H248 0.929 . S
C261 C253 1.433 . S
C261 N263 1.384 . S
N262 C258 1.427 . S
N262 C259 1.384 . S
N263 C255 1.427 . S
N263 C261 1.384 . S
H264 C270 0.930 . S
H265 C274 0.930 . S
H266 C279 0.929 . S
H267 C277 0.929 . S
H268 C272 0.929 . S
H269 C278 0.929 . S
C270 H264 0.930 . S
C270 C271 1.367 . S
C270 C278 1.378 . S
C271 C270 1.367 . S
C271 C279 1.433 . S
C272 H268 0.929 . S
C272 C274 1.378 . S
C272 C276 1.350 . S
C273 C276 1.463 . S
C273 C278 1.350 . S
C273 N281 1.427 . S
C274 H265 0.930 . S
C274 C272 1.378 . S
C274 C275 1.367 . S
C275 C274 1.367 . S
C275 C277 1.433 . S
C276 C272 1.350 . S
C276 C273 1.463 . S
C276 N280 1.427 . S
C277 H267 0.929 . S
C277 C275 1.433 . S
C277 N280 1.384 . S
C278 H269 0.929 . S
C278 C270 1.378 . S
C278 C273 1.350 . S
C279 H266 0.929 . S
C279 C271 1.433 . S
C279 N281 1.384 . S
N280 C276 1.427 . S
N280 C277 1.384 . S
N281 C273 1.427 . S
N281 C279 1.384 . S
H282 C288 0.930 . S
H283 C292 0.930 . S
H284 C297 0.929 . S
H285 C295 0.929 . S
H286 C290 0.929 . S
H287 C296 0.929 . S
C288 H282 0.930 . S
C288 C289 1.367 . S
C288 C296 1.378 . S
C289 C288 1.367 . S
C289 C297 1.433 . S
C290 H286 0.929 . S
C290 C292 1.378 . S
C290 C294 1.350 1_655 S
C291 C294 1.463 . S
C291 C296 1.350 . S
C291 N299 1.427 . S
C292 H283 0.930 . S
C292 C290 1.378 . S
C292 C293 1.367 1_655 S
C293 C292 1.367 1_455 S
C293 C295 1.433 . S
C294 C290 1.350 1_455 S
C294 C291 1.463 . S
C294 N298 1.427 . S
C295 H285 0.929 . S
C295 C293 1.433 . S
C295 N298 1.384 . S
C296 H287 0.929 . S
C296 C288 1.378 . S
C296 C291 1.350 . S
C297 H284 0.929 . S
C297 C289 1.433 . S
C297 N299 1.384 . S
N298 C294 1.427 . S
N298 C295 1.384 . S
N299 C291 1.427 . S
N299 C297 1.384 . S
C91 C1 1.736 . S
C95 C27 1.710 . S
C109 C26 1.738 . S
C113 C28 1.702 . S
C127 C55 1.710 . S
C131 C29 1.737 . S
C145 C54 1.735 . S
C149 C68 1.702 . S
C163 C83 1.710 . S
C167 C69 1.736 . S
C181 C0 1.710 . S
C185 C82 1.737 . S
C199 C12 1.116 . S
C203 C43 1.121 . S
C217 C56 1.114 . S
C221 C15 1.114 . S
C235 C40 1.124 . S
C239 C71 1.121 . S
C253 C42 1.564 . S
C257 C13 1.564 . S
C271 C57 1.561 . S
C275 C14 1.557 . S
C289 C70 1.564 . S
C293 C41 1.563 . S
