# Generated by pormake.
# Topology vmg, (6)-cn, num edge types: 1
# Building blocks:
#     Node 0, Type 0, BuildingBlock: VOLQOD_clean_sbu_1, # of connection points: 6
#     Node 1, Type 0, BuildingBlock: VOLQOD_clean_sbu_1, # of connection points: 6
#     Node 2, Type 0, BuildingBlock: VOLQOD_clean_sbu_1, # of connection points: 6
#     Node 3, Type 0, BuildingBlock: VOLQOD_clean_sbu_1, # of connection points: 6
#     Node 4, Type 0, BuildingBlock: VOLQOD_clean_sbu_1, # of connection points: 6
#     Node 5, Type 0, BuildingBlock: VOLQOD_clean_sbu_1, # of connection points: 6
#     Node 6, Type 0, BuildingBlock: VOLQOD_clean_sbu_1, # of connection points: 6
#     Node 7, Type 0, BuildingBlock: VOLQOD_clean_sbu_1, # of connection points: 6
#     Edge 8, Type (0, 0), BuildingBlock: KIFKEQ_clean_linker_1, # of connection points: 2
#     Edge 9, Type (0, 0), BuildingBlock: KIFKEQ_clean_linker_1, # of connection points: 2
#     Edge 10, Type (0, 0), BuildingBlock: KIFKEQ_clean_linker_1, # of connection points: 2
#     Edge 11, Type (0, 0), BuildingBlock: KIFKEQ_clean_linker_1, # of connection points: 2
#     Edge 12, Type (0, 0), BuildingBlock: KIFKEQ_clean_linker_1, # of connection points: 2
#     Edge 13, Type (0, 0), BuildingBlock: KIFKEQ_clean_linker_1, # of connection points: 2
#     Edge 14, Type (0, 0), BuildingBlock: KIFKEQ_clean_linker_1, # of connection points: 2
#     Edge 15, Type (0, 0), BuildingBlock: KIFKEQ_clean_linker_1, # of connection points: 2
#     Edge 16, Type (0, 0), BuildingBlock: KIFKEQ_clean_linker_1, # of connection points: 2
#     Edge 17, Type (0, 0), BuildingBlock: KIFKEQ_clean_linker_1, # of connection points: 2
#     Edge 18, Type (0, 0), BuildingBlock: KIFKEQ_clean_linker_1, # of connection points: 2
#     Edge 19, Type (0, 0), BuildingBlock: KIFKEQ_clean_linker_1, # of connection points: 2
#     Edge 20, Type (0, 0), BuildingBlock: KIFKEQ_clean_linker_1, # of connection points: 2
#     Edge 21, Type (0, 0), BuildingBlock: KIFKEQ_clean_linker_1, # of connection points: 2
#     Edge 22, Type (0, 0), BuildingBlock: KIFKEQ_clean_linker_1, # of connection points: 2
#     Edge 23, Type (0, 0), BuildingBlock: KIFKEQ_clean_linker_1, # of connection points: 2
#     Edge 24, Type (0, 0), BuildingBlock: KIFKEQ_clean_linker_1, # of connection points: 2
#     Edge 25, Type (0, 0), BuildingBlock: KIFKEQ_clean_linker_1, # of connection points: 2
#     Edge 26, Type (0, 0), BuildingBlock: KIFKEQ_clean_linker_1, # of connection points: 2
#     Edge 27, Type (0, 0), BuildingBlock: KIFKEQ_clean_linker_1, # of connection points: 2
#     Edge 28, Type (0, 0), BuildingBlock: KIFKEQ_clean_linker_1, # of connection points: 2
#     Edge 29, Type (0, 0), BuildingBlock: KIFKEQ_clean_linker_1, # of connection points: 2
#     Edge 30, Type (0, 0), BuildingBlock: KIFKEQ_clean_linker_1, # of connection points: 2
#     Edge 31, Type (0, 0), BuildingBlock: KIFKEQ_clean_linker_1, # of connection points: 2
# Relax obj value: 0.364
# Max RMSD: 0.272
# Mean RMSD: 0.272
data_MOF--net-vmg--node1-VOLQOD_clean_sbu_1--edge1-KIFKEQ_clean_linker_1
_symmetry_space_group_name_H-M    P1
_symmetry_Int_Tables_number       1
_symmetry_cell_setting            triclinic
loop_
_symmetry_equiv_pos_as_xyz
'x, y, z'
_cell_length_a     29.181673
_cell_length_b     48.683158
_cell_length_c     28.130277
_cell_angle_alpha  89.972228
_cell_angle_beta   96.90278
_cell_angle_gamma 90.018113
loop_
_atom_site_label
_atom_site_type_symbol
_atom_site_fract_x
_atom_site_fract_y
_atom_site_fract_z
_atom_type_partial_charge
O0 O 0.16192 0.44779 0.10604 0.0
Zn1 Zn 0.22804 0.43707 0.12645 0.0
O2 O 0.23278 0.39751 0.12616 0.0
Zn3 Zn 0.2428 0.38327 0.19059 0.0
Zn4 Zn 0.17688 0.38275 0.09306 0.0
Zn5 Zn 0.28222 0.38659 0.09097 0.0
O6 O 0.30146 0.36073 0.1991 0.0
O7 O 0.33616 0.37479 0.13677 0.0
O8 O 0.25036 0.4529 0.19249 0.0
O9 O 0.25642 0.41464 0.23598 0.0
O10 O 0.18529 0.36359 0.20876 0.0
O11 O 0.13899 0.36713 0.1403 0.0
O12 O 0.18898 0.35071 0.05169 0.0
O13 O 0.26223 0.45268 0.07405 0.0
O14 O 0.26502 0.35268 0.05347 0.0
O15 O 0.29634 0.41651 0.04531 0.0
C16 C 0.13321 0.4369 0.07368 0.0
C17 C 0.3369 0.36213 0.17658 0.0
C18 C 0.14617 0.35982 0.18392 0.0
C19 C 0.25946 0.44064 0.2327 0.0
C20 C 0.22673 0.3408 0.04096 0.0
C21 C 0.28573 0.44193 0.04341 0.0
O22 O 0.13867 0.41251 0.0588 0.0
O23 O 0.83196 0.44293 0.39158 0.0
Zn24 Zn 0.76591 0.43201 0.37119 0.0
O25 O 0.76147 0.39247 0.3728 0.0
Zn26 Zn 0.75202 0.37752 0.30894 0.0
Zn27 Zn 0.81724 0.37813 0.40671 0.0
Zn28 Zn 0.71183 0.38184 0.40781 0.0
O29 O 0.69341 0.35489 0.30048 0.0
O30 O 0.65819 0.37003 0.36173 0.0
O31 O 0.74334 0.44714 0.30456 0.0
O32 O 0.73818 0.40835 0.26264 0.0
O33 O 0.81011 0.35824 0.29155 0.0
O34 O 0.85595 0.3626 0.36015 0.0
O35 O 0.80485 0.34635 0.44862 0.0
O36 O 0.73164 0.44806 0.42313 0.0
O37 O 0.72871 0.34818 0.44613 0.0
O38 O 0.69759 0.4121 0.45267 0.0
C39 C 0.86035 0.43249 0.42475 0.0
C40 C 0.65764 0.35694 0.32238 0.0
C41 C 0.84926 0.35505 0.31664 0.0
C42 C 0.73459 0.43436 0.26482 0.0
C43 C 0.76702 0.33646 0.45926 0.0
C44 C 0.70815 0.43753 0.454 0.0
O45 O 0.85475 0.40831 0.44058 0.0
O46 O 0.82599 0.53176 0.89939 0.0
Zn47 Zn 0.76081 0.5417 0.87383 0.0
O48 O 0.75483 0.58114 0.87505 0.0
Zn49 Zn 0.74794 0.59662 0.81132 0.0
Zn50 Zn 0.80777 0.59671 0.9128 0.0
Zn51 Zn 0.70212 0.59013 0.906 0.0
O52 O 0.68841 0.61862 0.80028 0.0
O53 O 0.6502 0.60126 0.85769 0.0
O54 O 0.74326 0.52678 0.80614 0.0
O55 O 0.73789 0.56568 0.7643 0.0
O56 O 0.80678 0.61712 0.79805 0.0
O57 O 0.84871 0.61256 0.86887 0.0
O58 O 0.79065 0.62828 0.95396 0.0
O59 O 0.72385 0.52458 0.92259 0.0
O60 O 0.71459 0.62389 0.94401 0.0
O61 O 0.68709 0.55993 0.95035 0.0
C62 C 0.85291 0.54289 0.93309 0.0
C63 C 0.65138 0.61551 0.81981 0.0
C64 C 0.84475 0.62019 0.82539 0.0
C65 C 0.73579 0.53957 0.76625 0.0
C66 C 0.75068 0.63692 0.9605 0.0
C67 C 0.69854 0.53467 0.95218 0.0
O68 O 0.84597 0.56716 0.94779 0.0
O69 O 0.16238 0.53369 0.59944 0.0
Zn70 Zn 0.22668 0.54632 0.62397 0.0
O71 O 0.22826 0.58605 0.62383 0.0
Zn72 Zn 0.23658 0.60088 0.68818 0.0
Zn73 Zn 0.17188 0.59965 0.59032 0.0
Zn74 Zn 0.27701 0.59825 0.58892 0.0
O75 O 0.29537 0.62362 0.6978 0.0
O76 O 0.33015 0.61034 0.63508 0.0
O77 O 0.24699 0.53109 0.69101 0.0
O78 O 0.25001 0.56957 0.73391 0.0
O79 O 0.17758 0.61996 0.70535 0.0
O80 O 0.13227 0.6129 0.63733 0.0
O81 O 0.18216 0.63275 0.55035 0.0
O82 O 0.26461 0.53156 0.57393 0.0
O83 O 0.25824 0.63206 0.55193 0.0
O84 O 0.29341 0.56898 0.54339 0.0
C85 C 0.13276 0.54451 0.56784 0.0
C86 C 0.33088 0.62253 0.67527 0.0
C87 C 0.13796 0.62116 0.68043 0.0
C88 C 0.25421 0.54359 0.73117 0.0
C89 C 0.21944 0.64342 0.53978 0.0
C90 C 0.28643 0.54313 0.5427 0.0
O91 O 0.13585 0.56951 0.55508 0.0
O92 O 0.66531 0.94461 0.10855 0.0
Zn93 Zn 0.72914 0.93089 0.13185 0.0
O94 O 0.729 0.89126 0.12927 0.0
Zn95 Zn 0.73766 0.87466 0.19242 0.0
Zn96 Zn 0.67239 0.87869 0.09509 0.0
Zn97 Zn 0.7769 0.88009 0.09289 0.0
O98 O 0.79839 0.85302 0.20033 0.0
O99 O 0.83087 0.86858 0.13768 0.0
O100 O 0.74958 0.94418 0.19981 0.0
O101 O 0.7472 0.90514 0.24088 0.0
O102 O 0.67932 0.85374 0.20714 0.0
O103 O 0.63287 0.86413 0.14125 0.0
O104 O 0.6821 0.84652 0.05273 0.0
O105 O 0.76682 0.94691 0.08252 0.0
O106 O 0.75829 0.84659 0.05532 0.0
O107 O 0.79197 0.90982 0.04787 0.0
C108 C 0.63531 0.93474 0.07631 0.0
C109 C 0.8334 0.85554 0.1772 0.0
C110 C 0.63927 0.85375 0.18293 0.0
C111 C 0.75295 0.93107 0.23945 0.0
C112 C 0.71927 0.83573 0.04217 0.0
C113 C 0.78652 0.93575 0.04932 0.0
O114 O 0.63729 0.90992 0.0622 0.0
O115 O 0.33554 0.94442 0.39348 0.0
Zn116 Zn 0.26926 0.93575 0.37061 0.0
O117 O 0.26061 0.89682 0.37509 0.0
Zn118 Zn 0.25128 0.87916 0.31334 0.0
Zn119 Zn 0.31254 0.8816 0.41408 0.0
Zn120 Zn 0.2085 0.89029 0.40754 0.0
O121 O 0.18966 0.85836 0.30662 0.0
O122 O 0.15483 0.88167 0.3603 0.0
O123 O 0.25175 0.94873 0.30194 0.0
O124 O 0.24318 0.90885 0.26316 0.0
O125 O 0.30926 0.85701 0.30185 0.0
O126 O 0.35305 0.86461 0.37085 0.0
O127 O 0.29397 0.8508 0.45597 0.0
O128 O 0.23502 0.95543 0.41929 0.0
O129 O 0.21808 0.85616 0.44555 0.0
O130 O 0.19799 0.92153 0.45119 0.0
C131 C 0.35992 0.93468 0.43035 0.0
C132 C 0.15324 0.86496 0.32527 0.0
C133 C 0.34794 0.85507 0.32849 0.0
C134 C 0.24326 0.93505 0.26308 0.0
C135 C 0.25364 0.8427 0.46233 0.0
C136 C 0.21067 0.94656 0.45082 0.0
O137 O 0.35019 0.91168 0.44856 0.0
O138 O 0.34662 0.0409 0.89026 0.0
Zn139 Zn 0.27968 0.04887 0.86972 0.0
O140 O 0.27078 0.08789 0.87366 0.0
Zn141 Zn 0.25905 0.10465 0.81131 0.0
Zn142 Zn 0.32376 0.1042 0.90986 0.0
Zn143 Zn 0.21954 0.09442 0.90768 0.0
O144 O 0.19809 0.12571 0.80575 0.0
O145 O 0.16489 0.10335 0.86177 0.0
O146 O 0.25941 0.03503 0.80185 0.0
O147 O 0.24818 0.07462 0.76268 0.0
O148 O 0.31603 0.12598 0.7956 0.0
O149 O 0.36168 0.12194 0.86446 0.0
O150 O 0.30591 0.13469 0.95276 0.0
O151 O 0.24726 0.02937 0.92016 0.0
O152 O 0.23024 0.12839 0.94582 0.0
O153 O 0.2092 0.06304 0.95133 0.0
C154 C 0.37281 0.05141 0.92517 0.0
C155 C 0.16237 0.1195 0.82588 0.0
C156 C 0.35481 0.12987 0.82112 0.0
C157 C 0.24852 0.04846 0.76306 0.0
C158 C 0.26584 0.14224 0.96106 0.0
C159 C 0.22249 0.03812 0.95139 0.0
O160 O 0.36391 0.07468 0.94288 0.0
O161 O 0.66239 0.03241 0.61038 0.0
Zn162 Zn 0.72821 0.04223 0.63299 0.0
O163 O 0.73341 0.0818 0.63216 0.0
Zn164 Zn 0.74602 0.09721 0.69565 0.0
Zn165 Zn 0.67909 0.09833 0.5982 0.0
Zn166 Zn 0.78357 0.09051 0.59781 0.0
O167 O 0.80635 0.11889 0.70141 0.0
O168 O 0.83915 0.09879 0.64293 0.0
O169 O 0.7482 0.02732 0.70021 0.0
O170 O 0.75801 0.06608 0.74216 0.0
O171 O 0.68979 0.11846 0.71373 0.0
O172 O 0.64318 0.11609 0.64527 0.0
O173 O 0.69456 0.12937 0.55476 0.0
O174 O 0.76312 0.0248 0.58216 0.0
O175 O 0.77065 0.12524 0.56296 0.0
O176 O 0.79377 0.06121 0.55053 0.0
C177 C 0.63275 0.04412 0.5799 0.0
C178 C 0.84179 0.11397 0.68004 0.0
C179 C 0.65101 0.12335 0.68889 0.0
C180 C 0.75855 0.03994 0.73991 0.0
C181 C 0.73423 0.13827 0.54759 0.0
C182 C 0.78448 0.03567 0.54988 0.0
O183 O 0.63765 0.06893 0.56664 0.0
H184 H 0.58902 0.33363 0.3659 0.0
H185 H 0.62593 0.3575 0.22777 0.0
H186 H 0.51027 0.32438 0.33016 0.0
H187 H 0.54688 0.35044 0.19239 0.0
H188 H 0.40376 0.3379 0.13172 0.0
H189 H 0.48164 0.3259 0.16671 0.0
H190 H 0.44796 0.35166 0.30573 0.0
H191 H 0.36958 0.3615 0.27101 0.0
C192 C 0.5802 0.33659 0.32771 0.0
C193 C 0.61313 0.34651 0.29955 0.0
C194 C 0.53502 0.33155 0.30723 0.0
C195 C 0.52154 0.33727 0.25849 0.0
C196 C 0.55563 0.34544 0.22986 0.0
C197 C 0.6011 0.34969 0.25014 0.0
C198 C 0.413 0.3403 0.16997 0.0
C199 C 0.38109 0.35087 0.1987 0.0
C200 C 0.4577 0.33365 0.19004 0.0
C201 C 0.47179 0.33832 0.239 0.0
C202 C 0.43866 0.34736 0.26807 0.0
C203 C 0.39362 0.35325 0.24818 0.0
H204 H 0.61903 0.61634 0.72516 0.0
H205 H 0.58576 0.64079 0.8643 0.0
H206 H 0.54058 0.62676 0.69053 0.0
H207 H 0.50806 0.65329 0.82954 0.0
H208 H 0.36327 0.62175 0.76986 0.0
H209 H 0.44264 0.62846 0.80456 0.0
H210 H 0.47835 0.6547 0.66657 0.0
H211 H 0.39919 0.64602 0.63152 0.0
C212 C 0.59521 0.62493 0.74791 0.0
C213 C 0.60787 0.62739 0.79732 0.0
C214 C 0.55019 0.63111 0.72813 0.0
C215 C 0.51735 0.64048 0.75734 0.0
C216 C 0.53175 0.64529 0.80616 0.0
C217 C 0.57634 0.63837 0.82608 0.0
C218 C 0.38793 0.62958 0.74731 0.0
C219 C 0.37547 0.63298 0.69801 0.0
C220 C 0.4336 0.6336 0.76718 0.0
C221 C 0.4675 0.6417 0.73826 0.0
C222 C 0.45368 0.64761 0.68969 0.0
C223 C 0.40827 0.64291 0.66963 0.0
H224 H 0.13015 0.834 0.24389 0.0
H225 H 0.0728 0.87033 0.36392 0.0
H226 H 0.05246 0.82055 0.20918 0.0
H227 H 0.99614 0.85797 0.32889 0.0
H228 H 0.85909 0.8338 0.26677 0.0
H229 H 0.93783 0.8254 0.30403 0.0
H230 H 0.98976 0.84676 0.1712 0.0
H231 H 0.9118 0.8539 0.1338 0.0
C232 C 0.10116 0.83885 0.26308 0.0
C233 C 0.1076 0.85377 0.30609 0.0
C234 C 0.05666 0.8312 0.24322 0.0
C235 C 0.01791 0.83838 0.266 0.0
C236 C 0.02497 0.85173 0.3105 0.0
C237 C 0.06915 0.85924 0.3303 0.0
C238 C 0.88729 0.83598 0.24529 0.0
C239 C 0.87925 0.84525 0.19774 0.0
C240 C 0.93243 0.83129 0.26664 0.0
C241 C 0.97026 0.83599 0.24092 0.0
C242 C 0.96169 0.84281 0.19218 0.0
C243 C 0.91675 0.84728 0.17083 0.0
H244 H 0.13645 0.14479 0.73936 0.0
H245 H 0.08384 0.11745 0.86864 0.0
H246 H 0.05754 0.15415 0.70323 0.0
H247 H 0.00581 0.12579 0.83236 0.0
H248 H 0.86603 0.14227 0.76392 0.0
H249 H 0.94403 0.15464 0.79891 0.0
H250 H -0.00154 0.1222 0.6741 0.0
H251 H 0.92125 0.11082 0.63879 0.0
C252 C 0.10821 0.14122 0.76032 0.0
C253 C 0.11627 0.12973 0.80635 0.0
C254 C 0.06304 0.14649 0.73962 0.0
C255 C 0.02529 0.14031 0.76462 0.0
C256 C 0.03388 0.131 0.81209 0.0
C257 C 0.07879 0.12583 0.8327 0.0
C258 C 0.89463 0.13831 0.74365 0.0
C259 C 0.88755 0.12496 0.69912 0.0
C260 C 0.93929 0.14536 0.76368 0.0
C261 C 0.97758 0.13911 0.73957 0.0
C262 C 0.96991 0.1276 0.69356 0.0
C263 C 0.92548 0.12068 0.67356 0.0
H264 H 0.2929 0.31711 0.99376 0.0
H265 H 0.16369 0.30048 0.04875 0.0
H266 H 0.30153 0.26837 0.97738 0.0
H267 H 0.17339 0.25177 0.03507 0.0
H268 H 0.18435 0.16889 0.96384 0.0
H269 H 0.17305 0.21703 0.97904 0.0
H270 H 0.32001 0.22692 0.01862 0.0
H271 H 0.33168 0.17862 1.00046 0.0
C272 C 0.2661 0.30304 0.00179 0.0
C273 C 0.22754 0.31258 0.02229 0.0
C274 C 0.27139 0.27506 0.9932 0.0
C275 C 0.23863 0.256 0.00575 0.0
C276 C 0.19914 0.26579 0.02448 0.0
C277 C 0.19344 0.29379 0.0322 0.0
C278 C 0.21434 0.18114 0.9765 0.0
C279 C 0.25905 0.1699 0.98059 0.0
C280 C 0.20777 0.20889 0.98532 0.0
C281 C 0.24563 0.22606 0.99942 0.0
C282 C 0.29015 0.21446 0.00645 0.0
C283 C 0.29684 0.18669 0.99678 0.0
H284 H 0.83068 0.2963 0.45386 0.0
H285 H 0.70045 0.31311 0.50653 0.0
H286 H 0.82194 0.24785 0.47028 0.0
H287 H 0.69279 0.26463 0.52577 0.0
H288 H 0.66648 0.17357 0.50809 0.0
H289 H 0.67601 0.2219 0.48809 0.0
H290 H 0.82325 0.21467 0.52883 0.0
H291 H 0.81414 0.1666 0.5457 0.0
C292 C 0.80088 0.28973 0.47047 0.0
C293 C 0.76629 0.30848 0.47902 0.0
C294 C 0.79574 0.26187 0.47981 0.0
C295 C 0.75637 0.25217 0.49892 0.0
C296 C 0.72293 0.27122 0.50983 0.0
C297 C 0.72765 0.29906 0.49958 0.0
C298 C 0.7009 0.18225 0.5117 0.0
C299 C 0.73945 0.1662 0.52843 0.0
C300 C 0.70636 0.21004 0.50096 0.0
C301 C 0.75038 0.22234 0.50742 0.0
C302 C 0.78891 0.20595 0.52272 0.0
C303 C 0.78358 0.17823 0.53256 0.0
H304 H 0.65457 0.79636 0.04985 0.0
H305 H 0.78352 0.81144 0.99336 0.0
H306 H 0.66225 0.74753 0.03533 0.0
H307 H 0.79017 0.76265 0.97629 0.0
H308 H 0.81779 0.67262 0.99965 0.0
H309 H 0.8077 0.72106 0.01791 0.0
H310 H 0.66042 0.71287 0.97859 0.0
H311 H 0.67012 0.6646 0.9632 0.0
C312 C 0.68378 0.78932 0.03277 0.0
C313 C 0.71846 0.80766 0.02273 0.0
C314 C 0.68835 0.76126 0.02461 0.0
C315 C 0.72727 0.75103 0.00535 0.0
C316 C 0.76049 0.76969 0.99254 0.0
C317 C 0.75632 0.79769 0.00152 0.0
C318 C 0.78322 0.68108 0.99602 0.0
C319 C 0.74488 0.66474 0.97982 0.0
C320 C 0.77744 0.70894 0.00575 0.0
C321 C 0.73329 0.72104 0.99885 0.0
C322 C 0.69487 0.70432 0.98473 0.0
C323 C 0.70054 0.67651 0.97579 0.0
H324 H 0.15466 0.6828 0.54762 0.0
H325 H 0.28472 0.6683 0.49302 0.0
H326 H 0.16266 0.73178 0.53437 0.0
H327 H 0.29176 0.71722 0.4774 0.0
H328 H 0.31954 0.80684 0.50316 0.0
H329 H 0.30867 0.75839 0.5207 0.0
H330 H 0.16196 0.76697 0.47813 0.0
H331 H 0.17242 0.81532 0.46322 0.0
C332 C 0.18425 0.69001 0.5313 0.0
C333 C 0.21911 0.67175 0.5214 0.0
C334 C 0.18897 0.71815 0.52387 0.0
C335 C 0.22829 0.72856 0.50558 0.0
C336 C 0.26174 0.71003 0.49294 0.0
C337 C 0.25737 0.68194 0.50112 0.0
C338 C 0.2849 0.79847 0.49864 0.0
C339 C 0.24696 0.81494 0.48159 0.0
C340 C 0.27869 0.77061 0.50798 0.0
C341 C 0.23452 0.75861 0.49986 0.0
C342 C 0.19641 0.77545 0.48511 0.0
C343 C 0.20251 0.8033 0.47649 0.0
H344 H 0.8664 0.48753 0.93183 0.0
H345 H 0.93106 0.56344 0.98354 0.0
H346 H 0.93373 0.46202 0.96704 0.0
H347 H -0.00068 0.53811 0.01698 0.0
H348 H 0.09594 0.48211 0.11157 0.0
H349 H 0.02743 0.50747 0.07892 0.0
H350 H 0.01133 0.45348 0.95596 0.0
H351 H 0.07857 0.42745 0.98973 0.0
C352 C 0.89519 0.49877 0.95045 0.0
C353 C 0.8935 0.52746 0.95496 0.0
C354 C 0.93393 0.48418 0.97038 0.0
C355 C 0.97211 0.49801 0.99466 0.0
C356 C 0.97028 0.52674 0.99921 0.0
C357 C 0.93125 0.54129 0.97985 0.0
C358 C 0.07773 0.4757 0.07755 0.0
C359 C 0.09249 0.45275 0.05328 0.0
C360 C 0.03859 0.49031 0.05869 0.0
C361 C 0.01376 0.48251 0.01482 0.0
C362 C 0.02901 0.45974 0.9903 0.0
C363 C 0.06775 0.4449 0.00949 0.0
H364 H 0.05237 0.56287 0.51882 0.0
H365 H 0.12443 0.48863 0.56775 0.0
H366 H 0.98671 0.53569 0.48457 0.0
H367 H 0.05941 0.4613 0.5318 0.0
H368 H 0.91618 0.42299 0.50809 0.0
H369 H 0.98201 0.45009 0.54243 0.0
H370 H 0.96259 0.50508 0.4209 0.0
H371 H 0.89564 0.47859 0.38757 0.0
C372 C 0.05437 0.54071 0.5218 0.0
C373 C 0.09352 0.52788 0.54603 0.0
C374 C 0.01681 0.5251 0.50193 0.0
C375 C 0.01778 0.49629 0.50535 0.0
C376 C 0.05719 0.48347 0.52922 0.0
C377 C 0.09456 0.49911 0.5496 0.0
C378 C 0.92599 0.44086 0.48872 0.0
C379 C 0.90066 0.44871 0.4452 0.0
C380 C 0.96392 0.45631 0.50825 0.0
C381 C 0.97765 0.47975 0.48441 0.0
C382 C 0.95249 0.48742 0.44064 0.0
C383 C 0.91424 0.47216 0.42139 0.0
H384 H 0.55577 0.91882 0.02269 0.0
H385 H 0.62955 -0.00931 0.08066 0.0
H386 H 0.49351 0.94789 0.98635 0.0
H387 H 0.56782 0.01992 0.04284 0.0
H388 H 0.42484 0.06002 0.01134 0.0
H389 H 0.4889 0.03219 0.04815 0.0
H390 H 0.4775 0.98018 0.92273 0.0
H391 H 0.41258 0.00736 0.88673 0.0
C392 C 0.55885 0.94086 0.02736 0.0
C393 C 0.59755 0.95247 0.0545 0.0
C394 C 0.52328 0.95755 0.00628 0.0
C395 C 0.52585 0.98624 0.01143 0.0
C396 C 0.56455 -0.00214 0.03868 0.0
C397 C 0.59998 0.98113 0.06018 0.0
C398 C 0.4362 0.04272 0.99157 0.0
C399 C 0.41347 0.03575 0.94631 0.0
C400 C 0.47303 0.02684 0.01257 0.0
C401 C 0.48808 0.00385 0.9885 0.0
C402 C 0.4661 -0.0026 0.94266 0.0
C403 C 0.42906 0.01308 0.92191 0.0
H404 H 0.40949 0.92646 0.51792 0.0
H405 H 0.40048 0.97899 0.39316 0.0
H406 H 0.47433 0.95343 0.5552 0.0
H407 H 0.46624 0.00534 0.42972 0.0
H408 H 0.55427 0.06363 0.52804 0.0
H409 H 0.48764 0.03728 0.49315 0.0
H410 H 0.55376 0.96236 0.54804 0.0
H411 H 0.61959 0.98874 0.58424 0.0
C412 C 0.4216 0.94362 0.49829 0.0
C413 C 0.39986 0.9506 0.45262 0.0
C414 C 0.45888 0.95901 0.51957 0.0
C415 C 0.47546 0.98154 0.49543 0.0
C416 C 0.45383 0.9884 0.44963 0.0
C417 C 0.41631 0.97317 0.42854 0.0
C418 C 0.55452 0.04154 0.53272 0.0
C419 C 0.59217 0.02827 0.55891 0.0
C420 C 0.51645 0.02642 0.51252 0.0
C421 C 0.51543 -0.0023 0.51773 0.0
C422 C 0.55311 0.98448 0.544 0.0
C423 C 0.59097 -0.00039 0.56454 0.0
H424 H 0.0715 0.33299 0.13925 0.0
H425 H 0.13022 0.36297 0.27774 0.0
H426 H -0.00103 0.32352 0.17066 0.0
H427 H 0.05712 0.35435 0.30899 0.0
H428 H 0.86468 0.35833 0.22273 0.0
H429 H 0.93844 0.35222 0.19161 0.0
H430 H -0.00051 0.3235 0.33039 0.0
H431 H 0.92613 0.33046 0.36167 0.0
C432 C 0.06907 0.33718 0.17669 0.0
C433 C 0.10636 0.34901 0.20597 0.0
C434 C 0.02737 0.33192 0.19459 0.0
C435 C 0.02179 0.33862 0.24209 0.0
C436 C 0.06019 0.34871 0.27229 0.0
C437 C 0.10218 0.35371 0.25444 0.0
C438 C 0.89353 0.35001 0.24616 0.0
C439 C 0.8898 0.34522 0.29471 0.0
C440 C 0.93593 0.34647 0.22839 0.0
C441 C 0.97525 0.33777 0.25875 0.0
C442 C 0.97031 0.33087 0.30634 0.0
C443 C 0.92814 0.33467 0.32415 0.0
H444 H 0.04942 0.62008 0.63776 0.0
H445 H 0.1311 0.64214 0.77073 0.0
H446 H 0.97971 0.62732 0.6734 0.0
H447 H 0.06014 0.65124 0.80625 0.0
H448 H 0.93276 0.61794 0.86966 0.0
H449 H 0.00338 0.6256 0.83539 0.0
H450 H 0.9249 0.65347 0.70392 0.0
H451 H 0.8533 0.64389 0.73772 0.0
C452 C 0.05262 0.62715 0.67451 0.0
C453 C 0.09616 0.63002 0.70163 0.0
C454 C 0.01216 0.63169 0.69494 0.0
C455 C 0.01373 0.63972 0.74305 0.0
C456 C 0.05737 0.64442 0.7694 0.0
C457 C 0.09817 0.6394 0.74902 0.0
C458 C 0.9303 0.62604 0.83357 0.0
C459 C 0.88713 0.62978 0.8061 0.0
C460 C 0.97122 0.63075 0.81395 0.0
C461 C 0.97036 0.63983 0.76645 0.0
C462 C 0.92712 0.64568 0.74017 0.0
C463 C 0.88593 0.64041 0.75958 0.0
H464 H 0.35521 0.83052 0.24116 0.0
H465 H 0.43617 0.85593 0.37256 0.0
H466 H 0.42627 0.82006 0.20697 0.0
H467 H 0.50623 0.84743 0.3379 0.0
H468 H 0.6331 0.83158 0.27259 0.0
H469 H 0.56244 0.82179 0.30822 0.0
H470 H 0.48126 0.84572 0.17578 0.0
H471 H 0.55074 0.85358 0.13998 0.0
C472 C 0.38803 0.83365 0.26287 0.0
C473 C 0.38979 0.84452 0.30927 0.0
C474 C 0.42893 0.82789 0.24321 0.0
C475 C 0.47247 0.83342 0.26914 0.0
C476 C 0.47385 0.84255 0.31665 0.0
C477 C 0.43321 0.84777 0.3365 0.0
C478 C 0.60009 0.8341 0.25094 0.0
C479 C 0.59779 0.84384 0.20372 0.0
C480 C 0.55943 0.82872 0.27141 0.0
C481 C 0.51565 0.83338 0.24532 0.0
C482 C 0.51382 0.84147 0.1972 0.0
C483 C 0.55415 0.84638 0.17668 0.0
H484 H 0.63506 0.12063 0.78281 0.0
H485 H 0.57774 0.15169 0.64457 0.0
H486 H 0.56232 0.13021 0.81407 0.0
H487 H 0.50556 0.16211 0.67601 0.0
H488 H 0.37012 0.12796 0.72704 0.0
H489 H 0.44398 0.13408 0.69626 0.0
H490 H 0.50525 0.16127 0.83586 0.0
H491 H 0.43169 0.15433 0.86682 0.0
C492 C 0.60746 0.13036 0.75958 0.0
C493 C 0.61191 0.13505 0.71113 0.0
C494 C 0.56565 0.13591 0.77744 0.0
C495 C 0.52763 0.14654 0.74731 0.0
C496 C 0.5336 0.1533 0.6999 0.0
C497 C 0.57514 0.14751 0.68199 0.0
C498 C 0.399 0.13601 0.75076 0.0
C499 C 0.39521 0.14031 0.79945 0.0
C500 C 0.44151 0.13955 0.73316 0.0
C501 C 0.48097 0.14773 0.76382 0.0
C502 C 0.47598 0.15429 0.81154 0.0
C503 C 0.43367 0.15052 0.82918 0.0
H504 H 0.26548 0.49605 0.0253 0.0
H505 H 0.32312 0.42451 0.96355 0.0
H506 H 0.26429 0.52005 0.94958 0.0
H507 H 0.32289 0.44892 0.88773 0.0
H508 H 0.24828 0.48797 0.74732 0.0
H509 H 0.26464 0.46393 0.82385 0.0
H510 H 0.30853 0.54039 0.89286 0.0
H511 H 0.29109 0.56437 0.8172 0.0
C512 C 0.27898 0.48562 0.99594 0.0
C513 C 0.29407 0.45823 1.00061 0.0
C514 C 0.2784 0.49946 0.95237 0.0
C515 C 0.29307 0.48634 0.91227 0.0
C516 C 0.31057 0.45946 0.91762 0.0
C517 C 0.31116 0.44558 0.96131 0.0
C518 C 0.26177 0.49956 0.77878 0.0
C519 C 0.26766 0.52815 0.7762 0.0
C520 C 0.27144 0.48577 0.82263 0.0
C521 C 0.28751 0.50027 0.86471 0.0
C522 C 0.29528 0.52865 0.86149 0.0
C523 C 0.28534 0.5424 0.81794 0.0
H524 H 0.66933 0.42081 0.53342 0.0
H525 H 0.72994 0.49149 0.4719 0.0
H526 H 0.66951 0.44547 0.60893 0.0
H527 H 0.73108 0.51573 0.54737 0.0
H528 H 0.70239 0.56062 0.67915 0.0
H529 H 0.68656 0.53671 0.60329 0.0
H530 H 0.72757 0.46005 0.6733 0.0
H531 H 0.74236 0.484 0.74999 0.0
C532 C 0.68196 0.44175 0.53564 0.0
C533 C 0.69986 0.45408 0.4965 0.0
C534 C 0.68253 0.45577 0.57917 0.0
C535 C 0.70084 0.48246 0.58452 0.0
C536 C 0.71636 0.49529 0.54456 0.0
C537 C 0.71579 0.48132 0.50113 0.0
C538 C 0.70792 0.53862 0.67859 0.0
C539 C 0.7242 0.52428 0.72072 0.0
C540 C 0.6989 0.52492 0.63491 0.0
C541 C 0.70615 0.49648 0.63196 0.0
C542 C 0.72114 0.48193 0.67431 0.0
C543 C 0.72994 0.49568 0.71825 0.0
H544 H 0.69716 0.41276 0.17965 0.0
H545 H 0.73867 0.48996 0.24746 0.0
H546 H 0.67812 0.43612 0.10363 0.0
H547 H 0.72046 0.51339 0.17055 0.0
H548 H 0.72019 0.48071 0.97026 0.0
H549 H 0.72204 0.45681 0.0462 0.0
H550 H 0.65996 0.52707 0.10701 0.0
H551 H 0.65886 0.55135 0.03098 0.0
C552 C 0.70224 0.43478 0.17841 0.0
C553 C 0.72008 0.44944 0.21965 0.0
C554 C 0.69135 0.44816 0.13465 0.0
C555 C 0.69818 0.47658 0.13077 0.0
C556 C 0.71437 0.49149 0.17235 0.0
C557 C 0.7251 0.47806 0.2164 0.0
C558 C 0.70596 0.49092 0.99939 0.0
C559 C 0.68974 0.51808 0.99445 0.0
C560 C 0.70696 0.47716 0.04309 0.0
C561 C 0.69166 0.49015 0.08298 0.0
C562 C 0.6728 0.51668 0.07726 0.0
C563 C 0.6717 0.53046 0.03344 0.0
H564 H 0.3003 0.42086 0.31797 0.0
H565 H 0.25039 0.49606 0.24835 0.0
H566 H 0.3176 0.44527 0.39323 0.0
H567 H 0.2666 0.52049 0.32444 0.0
H568 H 0.27178 0.48832 0.52593 0.0
H569 H 0.27261 0.46421 0.45061 0.0
H570 H 0.32433 0.53708 0.38732 0.0
H571 H 0.3225 0.56156 0.46272 0.0
C572 C 0.29303 0.44267 0.31868 0.0
C573 C 0.27333 0.45644 0.27719 0.0
C574 C 0.30289 0.45665 0.36198 0.0
C575 C 0.29301 0.48478 0.36516 0.0
C576 C 0.27506 0.49886 0.32324 0.0
C577 C 0.26548 0.48485 0.27964 0.0
C578 C 0.28426 0.49912 0.49636 0.0
C579 C 0.29666 0.527 0.50044 0.0
C580 C 0.28486 0.48522 0.45301 0.0
C581 C 0.29805 0.49878 0.4126 0.0
C582 C 0.31315 0.52617 0.41746 0.0
C583 C 0.31255 0.54012 0.4609 0.0
H584 H 0.76898 -0.00954 0.03383 0.0
H585 H 0.82338 0.9189 0.96896 0.0
H586 H 0.76852 0.01534 0.95896 0.0
H587 H 0.82389 0.94414 0.89415 0.0
H588 H 0.74979 0.98452 0.75569 0.0
H589 H 0.76535 0.96009 0.83176 0.0
H590 H 0.81257 0.03567 0.90177 0.0
H591 H 0.79597 0.06013 0.82641 0.0
C592 C 0.78201 0.98022 0.00402 0.0
C593 C 0.79582 0.95255 0.00746 0.0
C594 C 0.7818 -0.00545 0.96094 0.0
C595 C 0.79561 0.98164 0.92023 0.0
C596 C 0.81213 0.95452 0.9245 0.0
C597 C 0.81228 0.94015 0.96761 0.0
C598 C 0.7638 -0.00414 0.78725 0.0
C599 C 0.77106 0.02434 0.78496 0.0
C600 C 0.77305 0.98183 0.83085 0.0
C601 C 0.78998 -0.00405 0.87305 0.0
C602 C 0.79876 0.02423 0.87025 0.0
C603 C 0.78932 0.03824 0.82687 0.0
H604 H 0.21908 0.07107 0.67589 0.0
H605 H 0.24963 -0.00714 0.74544 0.0
H606 H 0.20142 0.04795 0.59941 0.0
H607 H 0.23262 0.96972 0.66828 0.0
H608 H 0.24067 -0.00065 0.46815 0.0
H609 H 0.24453 0.02423 0.54346 0.0
H610 H 0.17072 0.95855 0.60418 0.0
H611 H 0.16737 0.93336 0.529 0.0
C612 C 0.22205 0.0489 0.67498 0.0
C613 C 0.23617 0.03384 0.71696 0.0
C614 C 0.212 0.03567 0.63095 0.0
C615 C 0.21577 0.00701 0.62761 0.0
C616 C 0.22884 -0.00818 0.66969 0.0
C617 C 0.23892 0.00509 0.71389 0.0
C618 C 0.22434 -0.00958 0.49713 0.0
C619 C 0.20406 0.9642 0.49249 0.0
C620 C 0.22656 0.00473 0.54043 0.0
C621 C 0.20852 -0.00681 0.58012 0.0
C622 C 0.18578 0.96774 0.5746 0.0
C623 C 0.18345 0.95345 0.53126 0.0
H624 H 0.24334 -0.00937 0.2459 0.0
H625 H 0.22186 0.91231 0.17428 0.0
H626 H 0.23146 0.01391 0.16857 0.0
H627 H 0.20921 0.93562 0.09734 0.0
H628 H 0.17437 0.05028 0.02656 0.0
H629 H 0.17387 0.0246 0.10085 0.0
H630 H 0.25498 0.96058 0.04528 0.0
H631 H 0.25489 0.98596 0.97072 0.0
C632 C 0.2357 0.97838 0.21379 0.0
C633 C 0.2339 0.94957 0.21645 0.0
C634 C 0.22855 -0.00826 0.16943 0.0
C635 C 0.21943 0.97662 0.12668 0.0
C636 C 0.21674 0.94787 0.12945 0.0
C637 C 0.22386 0.93453 0.17372 0.0
C638 C 0.19138 0.03048 0.02976 0.0
C639 C 0.21496 0.02031 0.99264 0.0
C640 C 0.19144 0.01588 0.0726 0.0
C641 C 0.21495 -0.00927 0.07935 0.0
C642 C 0.2363 0.97982 0.04125 0.0
C643 C 0.23628 -0.00558 0.99841 0.0
H644 H 0.78897 0.97963 0.54052 0.0
H645 H 0.79465 0.05526 0.46121 0.0
H646 H 0.78899 0.95359 0.46654 0.0
H647 H 0.79125 0.02969 0.38722 0.0
H648 H 0.80377 0.97805 0.25748 0.0
H649 H 0.82137 0.00166 0.33396 0.0
H650 H 0.73948 0.94189 0.40048 0.0
H651 H 0.72507 0.91751 0.32506 0.0
C652 C 0.79055 -0.00933 0.50731 0.0
C653 C 0.79172 0.01949 0.5068 0.0
C654 C 0.78994 0.97578 0.46464 0.0
C655 C 0.78919 0.98939 0.42024 0.0
C656 C 0.7924 0.01824 0.42032 0.0
C657 C 0.79417 0.03303 0.46302 0.0
C658 C 0.7898 0.97001 0.28866 0.0
C659 C 0.76302 0.946 0.28532 0.0
C660 C 0.79967 0.98358 0.33261 0.0
C661 C 0.78192 0.97386 0.374 0.0
C662 C 0.75495 0.94979 0.37017 0.0
C663 C 0.74614 0.93589 0.32662 0.0
loop_
_geom_bond_atom_site_label_1
_geom_bond_atom_site_label_2
_geom_bond_distance
_geom_bond_site_symmetry_2
_ccdc_geom_bond_type
O0 Zn1 1.953 . S
O0 C16 1.225 . S
Zn1 O0 1.953 . S
Zn1 O2 1.949 . S
Zn1 O8 1.919 . S
Zn1 O13 1.924 . S
O2 Zn1 1.949 . S
O2 Zn3 1.923 . S
O2 Zn4 1.950 . S
O2 Zn5 1.945 . S
Zn3 O2 1.923 . S
Zn3 O6 1.933 . S
Zn3 O9 1.941 . S
Zn3 O10 1.965 . S
Zn4 O2 1.950 . S
Zn4 O11 1.938 . S
Zn4 O12 1.906 . S
Zn4 O22 1.953 . S
Zn5 O2 1.945 . S
Zn5 O7 1.932 . S
Zn5 O14 1.977 . S
Zn5 O15 1.910 . S
O6 Zn3 1.933 . S
O6 C17 1.226 . S
O7 Zn5 1.932 . S
O7 C17 1.307 . S
O8 Zn1 1.919 . S
O8 C19 1.253 . S
O9 Zn3 1.941 . S
O9 C19 1.283 . S
O10 Zn3 1.965 . S
O10 C18 1.303 . S
O11 Zn4 1.938 . S
O11 C18 1.247 . S
O12 Zn4 1.906 . S
O12 C20 1.304 . S
O13 Zn1 1.924 . S
O13 C21 1.311 . S
O14 Zn5 1.977 . S
O14 C20 1.272 . S
O15 Zn5 1.910 . S
O15 C21 1.231 . S
C16 O0 1.225 . S
C16 O22 1.298 . S
C17 O6 1.226 . S
C17 O7 1.307 . S
C18 O10 1.303 . S
C18 O11 1.247 . S
C19 O8 1.253 . S
C19 O9 1.283 . S
C20 O12 1.304 . S
C20 O14 1.272 . S
C21 O13 1.311 . S
C21 O15 1.231 . S
O22 Zn4 1.953 . S
O22 C16 1.298 . S
O23 Zn24 1.953 . S
O23 C39 1.225 . S
Zn24 O23 1.953 . S
Zn24 O25 1.949 . S
Zn24 O31 1.919 . S
Zn24 O36 1.924 . S
O25 Zn24 1.949 . S
O25 Zn26 1.923 . S
O25 Zn27 1.950 . S
O25 Zn28 1.945 . S
Zn26 O25 1.923 . S
Zn26 O29 1.933 . S
Zn26 O32 1.941 . S
Zn26 O33 1.965 . S
Zn27 O25 1.950 . S
Zn27 O34 1.938 . S
Zn27 O35 1.906 . S
Zn27 O45 1.953 . S
Zn28 O25 1.945 . S
Zn28 O30 1.932 . S
Zn28 O37 1.977 . S
Zn28 O38 1.910 . S
O29 Zn26 1.933 . S
O29 C40 1.226 . S
O30 Zn28 1.932 . S
O30 C40 1.307 . S
O31 Zn24 1.919 . S
O31 C42 1.253 . S
O32 Zn26 1.941 . S
O32 C42 1.283 . S
O33 Zn26 1.965 . S
O33 C41 1.303 . S
O34 Zn27 1.938 . S
O34 C41 1.247 . S
O35 Zn27 1.906 . S
O35 C43 1.304 . S
O36 Zn24 1.924 . S
O36 C44 1.311 . S
O37 Zn28 1.977 . S
O37 C43 1.272 . S
O38 Zn28 1.910 . S
O38 C44 1.231 . S
C39 O23 1.225 . S
C39 O45 1.298 . S
C40 O29 1.226 . S
C40 O30 1.307 . S
C41 O33 1.303 . S
C41 O34 1.247 . S
C42 O31 1.253 . S
C42 O32 1.283 . S
C43 O35 1.304 . S
C43 O37 1.272 . S
C44 O36 1.311 . S
C44 O38 1.231 . S
O45 Zn27 1.953 . S
O45 C39 1.298 . S
O46 Zn47 1.953 . S
O46 C62 1.225 . S
Zn47 O46 1.953 . S
Zn47 O48 1.949 . S
Zn47 O54 1.919 . S
Zn47 O59 1.924 . S
O48 Zn47 1.949 . S
O48 Zn49 1.923 . S
O48 Zn50 1.950 . S
O48 Zn51 1.945 . S
Zn49 O48 1.923 . S
Zn49 O52 1.933 . S
Zn49 O55 1.941 . S
Zn49 O56 1.965 . S
Zn50 O48 1.950 . S
Zn50 O57 1.938 . S
Zn50 O58 1.906 . S
Zn50 O68 1.953 . S
Zn51 O48 1.945 . S
Zn51 O53 1.932 . S
Zn51 O60 1.977 . S
Zn51 O61 1.910 . S
O52 Zn49 1.933 . S
O52 C63 1.226 . S
O53 Zn51 1.932 . S
O53 C63 1.307 . S
O54 Zn47 1.919 . S
O54 C65 1.253 . S
O55 Zn49 1.941 . S
O55 C65 1.283 . S
O56 Zn49 1.965 . S
O56 C64 1.303 . S
O57 Zn50 1.938 . S
O57 C64 1.247 . S
O58 Zn50 1.906 . S
O58 C66 1.304 . S
O59 Zn47 1.924 . S
O59 C67 1.311 . S
O60 Zn51 1.977 . S
O60 C66 1.272 . S
O61 Zn51 1.910 . S
O61 C67 1.231 . S
C62 O46 1.225 . S
C62 O68 1.298 . S
C63 O52 1.226 . S
C63 O53 1.307 . S
C64 O56 1.303 . S
C64 O57 1.247 . S
C65 O54 1.253 . S
C65 O55 1.283 . S
C66 O58 1.304 . S
C66 O60 1.272 . S
C67 O59 1.311 . S
C67 O61 1.231 . S
O68 Zn50 1.953 . S
O68 C62 1.298 . S
O69 Zn70 1.953 . S
O69 C85 1.225 . S
Zn70 O69 1.953 . S
Zn70 O71 1.949 . S
Zn70 O77 1.919 . S
Zn70 O82 1.924 . S
O71 Zn70 1.949 . S
O71 Zn72 1.923 . S
O71 Zn73 1.950 . S
O71 Zn74 1.945 . S
Zn72 O71 1.923 . S
Zn72 O75 1.933 . S
Zn72 O78 1.941 . S
Zn72 O79 1.965 . S
Zn73 O71 1.950 . S
Zn73 O80 1.938 . S
Zn73 O81 1.906 . S
Zn73 O91 1.953 . S
Zn74 O71 1.945 . S
Zn74 O76 1.932 . S
Zn74 O83 1.977 . S
Zn74 O84 1.910 . S
O75 Zn72 1.933 . S
O75 C86 1.226 . S
O76 Zn74 1.932 . S
O76 C86 1.307 . S
O77 Zn70 1.919 . S
O77 C88 1.253 . S
O78 Zn72 1.941 . S
O78 C88 1.283 . S
O79 Zn72 1.965 . S
O79 C87 1.303 . S
O80 Zn73 1.938 . S
O80 C87 1.247 . S
O81 Zn73 1.906 . S
O81 C89 1.304 . S
O82 Zn70 1.924 . S
O82 C90 1.311 . S
O83 Zn74 1.977 . S
O83 C89 1.272 . S
O84 Zn74 1.910 . S
O84 C90 1.231 . S
C85 O69 1.225 . S
C85 O91 1.298 . S
C86 O75 1.226 . S
C86 O76 1.307 . S
C87 O79 1.303 . S
C87 O80 1.247 . S
C88 O77 1.253 . S
C88 O78 1.283 . S
C89 O81 1.304 . S
C89 O83 1.272 . S
C90 O82 1.311 . S
C90 O84 1.231 . S
O91 Zn73 1.953 . S
O91 C85 1.298 . S
O92 Zn93 1.953 . S
O92 C108 1.225 . S
Zn93 O92 1.953 . S
Zn93 O94 1.949 . S
Zn93 O100 1.919 . S
Zn93 O105 1.924 . S
O94 Zn93 1.949 . S
O94 Zn95 1.923 . S
O94 Zn96 1.950 . S
O94 Zn97 1.945 . S
Zn95 O94 1.923 . S
Zn95 O98 1.933 . S
Zn95 O101 1.941 . S
Zn95 O102 1.965 . S
Zn96 O94 1.950 . S
Zn96 O103 1.938 . S
Zn96 O104 1.906 . S
Zn96 O114 1.953 . S
Zn97 O94 1.945 . S
Zn97 O99 1.932 . S
Zn97 O106 1.977 . S
Zn97 O107 1.910 . S
O98 Zn95 1.933 . S
O98 C109 1.226 . S
O99 Zn97 1.932 . S
O99 C109 1.307 . S
O100 Zn93 1.919 . S
O100 C111 1.253 . S
O101 Zn95 1.941 . S
O101 C111 1.283 . S
O102 Zn95 1.965 . S
O102 C110 1.303 . S
O103 Zn96 1.938 . S
O103 C110 1.247 . S
O104 Zn96 1.906 . S
O104 C112 1.304 . S
O105 Zn93 1.924 . S
O105 C113 1.311 . S
O106 Zn97 1.977 . S
O106 C112 1.272 . S
O107 Zn97 1.910 . S
O107 C113 1.231 . S
C108 O92 1.225 . S
C108 O114 1.298 . S
C109 O98 1.226 . S
C109 O99 1.307 . S
C110 O102 1.303 . S
C110 O103 1.247 . S
C111 O100 1.253 . S
C111 O101 1.283 . S
C112 O104 1.304 . S
C112 O106 1.272 . S
C113 O105 1.311 . S
C113 O107 1.231 . S
O114 Zn96 1.953 . S
O114 C108 1.298 . S
O115 Zn116 1.953 . S
O115 C131 1.225 . S
Zn116 O115 1.953 . S
Zn116 O117 1.949 . S
Zn116 O123 1.919 . S
Zn116 O128 1.924 . S
O117 Zn116 1.949 . S
O117 Zn118 1.923 . S
O117 Zn119 1.950 . S
O117 Zn120 1.945 . S
Zn118 O117 1.923 . S
Zn118 O121 1.933 . S
Zn118 O124 1.941 . S
Zn118 O125 1.965 . S
Zn119 O117 1.950 . S
Zn119 O126 1.938 . S
Zn119 O127 1.906 . S
Zn119 O137 1.953 . S
Zn120 O117 1.945 . S
Zn120 O122 1.932 . S
Zn120 O129 1.977 . S
Zn120 O130 1.910 . S
O121 Zn118 1.933 . S
O121 C132 1.226 . S
O122 Zn120 1.932 . S
O122 C132 1.307 . S
O123 Zn116 1.919 . S
O123 C134 1.253 . S
O124 Zn118 1.941 . S
O124 C134 1.283 . S
O125 Zn118 1.965 . S
O125 C133 1.303 . S
O126 Zn119 1.938 . S
O126 C133 1.247 . S
O127 Zn119 1.906 . S
O127 C135 1.304 . S
O128 Zn116 1.924 . S
O128 C136 1.311 . S
O129 Zn120 1.977 . S
O129 C135 1.272 . S
O130 Zn120 1.910 . S
O130 C136 1.231 . S
C131 O115 1.225 . S
C131 O137 1.298 . S
C132 O121 1.226 . S
C132 O122 1.307 . S
C133 O125 1.303 . S
C133 O126 1.247 . S
C134 O123 1.253 . S
C134 O124 1.283 . S
C135 O127 1.304 . S
C135 O129 1.272 . S
C136 O128 1.311 . S
C136 O130 1.231 . S
O137 Zn119 1.953 . S
O137 C131 1.298 . S
O138 Zn139 1.953 . S
O138 C154 1.225 . S
Zn139 O138 1.953 . S
Zn139 O140 1.949 . S
Zn139 O146 1.919 . S
Zn139 O151 1.924 . S
O140 Zn139 1.949 . S
O140 Zn141 1.923 . S
O140 Zn142 1.950 . S
O140 Zn143 1.945 . S
Zn141 O140 1.923 . S
Zn141 O144 1.933 . S
Zn141 O147 1.941 . S
Zn141 O148 1.965 . S
Zn142 O140 1.950 . S
Zn142 O149 1.938 . S
Zn142 O150 1.906 . S
Zn142 O160 1.953 . S
Zn143 O140 1.945 . S
Zn143 O145 1.932 . S
Zn143 O152 1.977 . S
Zn143 O153 1.910 . S
O144 Zn141 1.933 . S
O144 C155 1.226 . S
O145 Zn143 1.932 . S
O145 C155 1.307 . S
O146 Zn139 1.919 . S
O146 C157 1.253 . S
O147 Zn141 1.941 . S
O147 C157 1.283 . S
O148 Zn141 1.965 . S
O148 C156 1.303 . S
O149 Zn142 1.938 . S
O149 C156 1.247 . S
O150 Zn142 1.906 . S
O150 C158 1.304 . S
O151 Zn139 1.924 . S
O151 C159 1.311 . S
O152 Zn143 1.977 . S
O152 C158 1.272 . S
O153 Zn143 1.910 . S
O153 C159 1.231 . S
C154 O138 1.225 . S
C154 O160 1.298 . S
C155 O144 1.226 . S
C155 O145 1.307 . S
C156 O148 1.303 . S
C156 O149 1.247 . S
C157 O146 1.253 . S
C157 O147 1.283 . S
C158 O150 1.304 . S
C158 O152 1.272 . S
C159 O151 1.311 . S
C159 O153 1.231 . S
O160 Zn142 1.953 . S
O160 C154 1.298 . S
O161 Zn162 1.953 . S
O161 C177 1.225 . S
Zn162 O161 1.953 . S
Zn162 O163 1.949 . S
Zn162 O169 1.919 . S
Zn162 O174 1.924 . S
O163 Zn162 1.949 . S
O163 Zn164 1.923 . S
O163 Zn165 1.950 . S
O163 Zn166 1.945 . S
Zn164 O163 1.923 . S
Zn164 O167 1.933 . S
Zn164 O170 1.941 . S
Zn164 O171 1.965 . S
Zn165 O163 1.950 . S
Zn165 O172 1.938 . S
Zn165 O173 1.906 . S
Zn165 O183 1.953 . S
Zn166 O163 1.945 . S
Zn166 O168 1.932 . S
Zn166 O175 1.977 . S
Zn166 O176 1.910 . S
O167 Zn164 1.933 . S
O167 C178 1.226 . S
O168 Zn166 1.932 . S
O168 C178 1.307 . S
O169 Zn162 1.919 . S
O169 C180 1.253 . S
O170 Zn164 1.941 . S
O170 C180 1.283 . S
O171 Zn164 1.965 . S
O171 C179 1.303 . S
O172 Zn165 1.938 . S
O172 C179 1.247 . S
O173 Zn165 1.906 . S
O173 C181 1.304 . S
O174 Zn162 1.924 . S
O174 C182 1.311 . S
O175 Zn166 1.977 . S
O175 C181 1.272 . S
O176 Zn166 1.910 . S
O176 C182 1.231 . S
C177 O161 1.225 . S
C177 O183 1.298 . S
C178 O167 1.226 . S
C178 O168 1.307 . S
C179 O171 1.303 . S
C179 O172 1.247 . S
C180 O169 1.253 . S
C180 O170 1.283 . S
C181 O173 1.304 . S
C181 O175 1.272 . S
C182 O174 1.311 . S
C182 O176 1.231 . S
O183 Zn165 1.953 . S
O183 C177 1.298 . S
H184 C192 0.950 . S
H185 C197 0.950 . S
H186 C194 0.950 . S
H187 C196 0.950 . S
H188 C198 0.950 . S
H189 C200 0.950 . S
H190 C202 0.950 . S
H191 C203 0.950 . S
C192 H184 0.950 . S
C192 C193 1.386 . S
C192 C194 1.391 . S
C193 C192 1.386 . S
C193 C197 1.393 . S
C194 H186 0.950 . S
C194 C192 1.391 . S
C194 C195 1.400 . S
C195 C194 1.400 . S
C195 C196 1.398 . S
C195 C201 1.491 . S
C196 H187 0.950 . S
C196 C195 1.398 . S
C196 C197 1.391 . S
C197 H185 0.950 . S
C197 C193 1.393 . S
C197 C196 1.391 . S
C198 H188 0.950 . S
C198 C199 1.386 . S
C198 C200 1.391 . S
C199 C198 1.386 . S
C199 C203 1.393 . S
C200 H189 0.950 . S
C200 C198 1.391 . S
C200 C201 1.400 . S
C201 C195 1.491 . S
C201 C200 1.400 . S
C201 C202 1.398 . S
C202 H190 0.950 . S
C202 C201 1.398 . S
C202 C203 1.391 . S
C203 H191 0.950 . S
C203 C199 1.393 . S
C203 C202 1.391 . S
H204 C212 0.950 . S
H205 C217 0.950 . S
H206 C214 0.950 . S
H207 C216 0.950 . S
H208 C218 0.950 . S
H209 C220 0.950 . S
H210 C222 0.950 . S
H211 C223 0.950 . S
C212 H204 0.950 . S
C212 C213 1.386 . S
C212 C214 1.391 . S
C213 C212 1.386 . S
C213 C217 1.393 . S
C214 H206 0.950 . S
C214 C212 1.391 . S
C214 C215 1.400 . S
C215 C214 1.400 . S
C215 C216 1.398 . S
C215 C221 1.491 . S
C216 H207 0.950 . S
C216 C215 1.398 . S
C216 C217 1.391 . S
C217 H205 0.950 . S
C217 C213 1.393 . S
C217 C216 1.391 . S
C218 H208 0.950 . S
C218 C219 1.386 . S
C218 C220 1.391 . S
C219 C218 1.386 . S
C219 C223 1.393 . S
C220 H209 0.950 . S
C220 C218 1.391 . S
C220 C221 1.400 . S
C221 C215 1.491 . S
C221 C220 1.400 . S
C221 C222 1.398 . S
C222 H210 0.950 . S
C222 C221 1.398 . S
C222 C223 1.391 . S
C223 H211 0.950 . S
C223 C219 1.393 . S
C223 C222 1.391 . S
H224 C232 0.950 . S
H225 C237 0.950 . S
H226 C234 0.950 . S
H227 C236 0.950 . S
H228 C238 0.950 . S
H229 C240 0.950 . S
H230 C242 0.950 . S
H231 C243 0.950 . S
C232 H224 0.950 . S
C232 C233 1.386 . S
C232 C234 1.391 . S
C233 C232 1.386 . S
C233 C237 1.393 . S
C234 H226 0.950 . S
C234 C232 1.391 . S
C234 C235 1.400 . S
C235 C234 1.400 . S
C235 C236 1.398 . S
C235 C241 1.491 1_455 S
C236 H227 0.950 . S
C236 C235 1.398 . S
C236 C237 1.391 . S
C237 H225 0.950 . S
C237 C233 1.393 . S
C237 C236 1.391 . S
C238 H228 0.950 . S
C238 C239 1.386 . S
C238 C240 1.391 . S
C239 C238 1.386 . S
C239 C243 1.393 . S
C240 H229 0.950 . S
C240 C238 1.391 . S
C240 C241 1.400 . S
C241 C235 1.491 1_655 S
C241 C240 1.400 . S
C241 C242 1.398 . S
C242 H230 0.950 . S
C242 C241 1.398 . S
C242 C243 1.391 . S
C243 H231 0.950 . S
C243 C239 1.393 . S
C243 C242 1.391 . S
H244 C252 0.950 . S
H245 C257 0.950 . S
H246 C254 0.950 . S
H247 C256 0.950 . S
H248 C258 0.950 . S
H249 C260 0.950 . S
H250 C262 0.950 . S
H251 C263 0.950 . S
C252 H244 0.950 . S
C252 C253 1.386 . S
C252 C254 1.391 . S
C253 C252 1.386 . S
C253 C257 1.393 . S
C254 H246 0.950 . S
C254 C252 1.391 . S
C254 C255 1.400 . S
C255 C254 1.400 . S
C255 C256 1.398 . S
C255 C261 1.491 1_455 S
C256 H247 0.950 . S
C256 C255 1.398 . S
C256 C257 1.391 . S
C257 H245 0.950 . S
C257 C253 1.393 . S
C257 C256 1.391 . S
C258 H248 0.950 . S
C258 C259 1.386 . S
C258 C260 1.391 . S
C259 C258 1.386 . S
C259 C263 1.393 . S
C260 H249 0.950 . S
C260 C258 1.391 . S
C260 C261 1.400 . S
C261 C255 1.491 1_655 S
C261 C260 1.400 . S
C261 C262 1.398 . S
C262 H250 0.950 . S
C262 C261 1.398 . S
C262 C263 1.391 . S
C263 H251 0.950 . S
C263 C259 1.393 . S
C263 C262 1.391 . S
H264 C272 0.950 . S
H265 C277 0.950 . S
H266 C274 0.950 . S
H267 C276 0.950 1_556 S
H268 C278 0.950 . S
H269 C280 0.950 . S
H270 C282 0.950 1_554 S
H271 C283 0.950 . S
C272 H264 0.950 . S
C272 C273 1.386 . S
C272 C274 1.391 . S
C273 C272 1.386 . S
C273 C277 1.393 . S
C274 H266 0.950 . S
C274 C272 1.391 . S
C274 C275 1.400 . S
C275 C274 1.400 . S
C275 C276 1.398 . S
C275 C281 1.491 1_554 S
C276 H267 0.950 1_554 S
C276 C275 1.398 . S
C276 C277 1.391 . S
C277 H265 0.950 . S
C277 C273 1.393 . S
C277 C276 1.391 . S
C278 H268 0.950 . S
C278 C279 1.386 . S
C278 C280 1.391 . S
C279 C278 1.386 . S
C279 C283 1.393 . S
C280 H269 0.950 . S
C280 C278 1.391 . S
C280 C281 1.400 . S
C281 C275 1.491 1_556 S
C281 C280 1.400 . S
C281 C282 1.398 . S
C282 H270 0.950 1_556 S
C282 C281 1.398 . S
C282 C283 1.391 . S
C283 H271 0.950 . S
C283 C279 1.393 . S
C283 C282 1.391 . S
H284 C292 0.950 . S
H285 C297 0.950 . S
H286 C294 0.950 . S
H287 C296 0.950 . S
H288 C298 0.950 . S
H289 C300 0.950 . S
H290 C302 0.950 . S
H291 C303 0.950 . S
C292 H284 0.950 . S
C292 C293 1.386 . S
C292 C294 1.391 . S
C293 C292 1.386 . S
C293 C297 1.393 . S
C294 H286 0.950 . S
C294 C292 1.391 . S
C294 C295 1.400 . S
C295 C294 1.400 . S
C295 C296 1.398 . S
C295 C301 1.491 . S
C296 H287 0.950 . S
C296 C295 1.398 . S
C296 C297 1.391 . S
C297 H285 0.950 . S
C297 C293 1.393 . S
C297 C296 1.391 . S
C298 H288 0.950 . S
C298 C299 1.386 . S
C298 C300 1.391 . S
C299 C298 1.386 . S
C299 C303 1.393 . S
C300 H289 0.950 . S
C300 C298 1.391 . S
C300 C301 1.400 . S
C301 C295 1.491 . S
C301 C300 1.400 . S
C301 C302 1.398 . S
C302 H290 0.950 . S
C302 C301 1.398 . S
C302 C303 1.391 . S
C303 H291 0.950 . S
C303 C299 1.393 . S
C303 C302 1.391 . S
H304 C312 0.950 . S
H305 C317 0.950 . S
H306 C314 0.950 . S
H307 C316 0.950 . S
H308 C318 0.950 . S
H309 C320 0.950 . S
H310 C322 0.950 . S
H311 C323 0.950 . S
C312 H304 0.950 . S
C312 C313 1.386 . S
C312 C314 1.391 1_554 S
C313 C312 1.386 . S
C313 C317 1.393 . S
C314 H306 0.950 . S
C314 C312 1.391 1_556 S
C314 C315 1.400 1_556 S
C315 C314 1.400 1_554 S
C315 C316 1.398 . S
C315 C321 1.491 1_554 S
C316 H307 0.950 . S
C316 C315 1.398 . S
C316 C317 1.391 . S
C317 H305 0.950 . S
C317 C313 1.393 . S
C317 C316 1.391 . S
C318 H308 0.950 . S
C318 C319 1.386 . S
C318 C320 1.391 1_556 S
C319 C318 1.386 . S
C319 C323 1.393 . S
C320 H309 0.950 . S
C320 C318 1.391 1_554 S
C320 C321 1.400 1_554 S
C321 C315 1.491 1_556 S
C321 C320 1.400 1_556 S
C321 C322 1.398 . S
C322 H310 0.950 . S
C322 C321 1.398 . S
C322 C323 1.391 . S
C323 H311 0.950 . S
C323 C319 1.393 . S
C323 C322 1.391 . S
H324 C332 0.950 . S
H325 C337 0.950 . S
H326 C334 0.950 . S
H327 C336 0.950 . S
H328 C338 0.950 . S
H329 C340 0.950 . S
H330 C342 0.950 . S
H331 C343 0.950 . S
C332 H324 0.950 . S
C332 C333 1.386 . S
C332 C334 1.391 . S
C333 C332 1.386 . S
C333 C337 1.393 . S
C334 H326 0.950 . S
C334 C332 1.391 . S
C334 C335 1.400 . S
C335 C334 1.400 . S
C335 C336 1.398 . S
C335 C341 1.491 . S
C336 H327 0.950 . S
C336 C335 1.398 . S
C336 C337 1.391 . S
C337 H325 0.950 . S
C337 C333 1.393 . S
C337 C336 1.391 . S
C338 H328 0.950 . S
C338 C339 1.386 . S
C338 C340 1.391 . S
C339 C338 1.386 . S
C339 C343 1.393 . S
C340 H329 0.950 . S
C340 C338 1.391 . S
C340 C341 1.400 . S
C341 C335 1.491 . S
C341 C340 1.400 . S
C341 C342 1.398 . S
C342 H330 0.950 . S
C342 C341 1.398 . S
C342 C343 1.391 . S
C343 H331 0.950 . S
C343 C339 1.393 . S
C343 C342 1.391 . S
H344 C352 0.950 . S
H345 C357 0.950 1_554 S
H346 C354 0.950 . S
H347 C356 0.950 1_455 S
H348 C358 0.950 . S
H349 C360 0.950 . S
H350 C362 0.950 1_655 S
H351 C363 0.950 1_556 S
C352 H344 0.950 . S
C352 C353 1.386 . S
C352 C354 1.391 . S
C353 C352 1.386 . S
C353 C357 1.393 . S
C354 H346 0.950 . S
C354 C352 1.391 . S
C354 C355 1.400 . S
C355 C354 1.400 . S
C355 C356 1.398 1_556 S
C355 C361 1.491 1_656 S
C356 H347 0.950 1_655 S
C356 C355 1.398 1_554 S
C356 C357 1.391 1_554 S
C357 H345 0.950 1_556 S
C357 C353 1.393 . S
C357 C356 1.391 1_556 S
C358 H348 0.950 . S
C358 C359 1.386 . S
C358 C360 1.391 . S
C359 C358 1.386 . S
C359 C363 1.393 . S
C360 H349 0.950 . S
C360 C358 1.391 . S
C360 C361 1.400 . S
C361 C355 1.491 1_454 S
C361 C360 1.400 . S
C361 C362 1.398 1_554 S
C362 H350 0.950 1_455 S
C362 C361 1.398 1_556 S
C362 C363 1.391 1_556 S
C363 H351 0.950 1_554 S
C363 C359 1.393 . S
C363 C362 1.391 1_554 S
H364 C372 0.950 . S
H365 C377 0.950 . S
H366 C374 0.950 1_655 S
H367 C376 0.950 . S
H368 C378 0.950 . S
H369 C380 0.950 1_455 S
H370 C382 0.950 . S
H371 C383 0.950 . S
C372 H364 0.950 . S
C372 C373 1.386 . S
C372 C374 1.391 . S
C373 C372 1.386 . S
C373 C377 1.393 . S
C374 H366 0.950 1_455 S
C374 C372 1.391 . S
C374 C375 1.400 . S
C375 C374 1.400 . S
C375 C376 1.398 . S
C375 C381 1.491 1_455 S
C376 H367 0.950 . S
C376 C375 1.398 . S
C376 C377 1.391 . S
C377 H365 0.950 . S
C377 C373 1.393 . S
C377 C376 1.391 . S
C378 H368 0.950 . S
C378 C379 1.386 . S
C378 C380 1.391 . S
C379 C378 1.386 . S
C379 C383 1.393 . S
C380 H369 0.950 1_655 S
C380 C378 1.391 . S
C380 C381 1.400 . S
C381 C375 1.491 1_655 S
C381 C380 1.400 . S
C381 C382 1.398 . S
C382 H370 0.950 . S
C382 C381 1.398 . S
C382 C383 1.391 . S
C383 H371 0.950 . S
C383 C379 1.393 . S
C383 C382 1.391 . S
H384 C392 0.950 1_556 S
H385 C397 0.950 . S
H386 C394 0.950 . S
H387 C396 0.950 1_545 S
H388 C398 0.950 1_554 S
H389 C400 0.950 . S
H390 C402 0.950 1_565 S
H391 C403 0.950 . S
C392 H384 0.950 1_554 S
C392 C393 1.386 . S
C392 C394 1.391 1_554 S
C393 C392 1.386 . S
C393 C397 1.393 . S
C394 H386 0.950 . S
C394 C392 1.391 1_556 S
C394 C395 1.400 1_556 S
C395 C394 1.400 1_554 S
C395 C396 1.398 . S
C395 C401 1.491 1_564 S
C396 H387 0.950 1_565 S
C396 C395 1.398 . S
C396 C397 1.391 . S
C397 H385 0.950 . S
C397 C393 1.393 . S
C397 C396 1.391 . S
C398 H388 0.950 1_556 S
C398 C399 1.386 . S
C398 C400 1.391 1_556 S
C399 C398 1.386 . S
C399 C403 1.393 . S
C400 H389 0.950 . S
C400 C398 1.391 1_554 S
C400 C401 1.400 1_554 S
C401 C395 1.491 1_546 S
C401 C400 1.400 1_556 S
C401 C402 1.398 . S
C402 H390 0.950 1_545 S
C402 C401 1.398 . S
C402 C403 1.391 . S
C403 H391 0.950 . S
C403 C399 1.393 . S
C403 C402 1.391 . S
H404 C412 0.950 . S
H405 C417 0.950 . S
H406 C414 0.950 . S
H407 C416 0.950 . S
H408 C418 0.950 . S
H409 C420 0.950 . S
H410 C422 0.950 . S
H411 C423 0.950 . S
C412 H404 0.950 . S
C412 C413 1.386 . S
C412 C414 1.391 . S
C413 C412 1.386 . S
C413 C417 1.393 . S
C414 H406 0.950 . S
C414 C412 1.391 . S
C414 C415 1.400 . S
C415 C414 1.400 . S
C415 C416 1.398 . S
C415 C421 1.491 1_565 S
C416 H407 0.950 . S
C416 C415 1.398 . S
C416 C417 1.391 . S
C417 H405 0.950 . S
C417 C413 1.393 . S
C417 C416 1.391 . S
C418 H408 0.950 . S
C418 C419 1.386 . S
C418 C420 1.391 . S
C419 C418 1.386 . S
C419 C423 1.393 . S
C420 H409 0.950 . S
C420 C418 1.391 . S
C420 C421 1.400 . S
C421 C415 1.491 1_545 S
C421 C420 1.400 . S
C421 C422 1.398 . S
C422 H410 0.950 . S
C422 C421 1.398 . S
C422 C423 1.391 . S
C423 H411 0.950 . S
C423 C419 1.393 . S
C423 C422 1.391 . S
H424 C432 0.950 . S
H425 C437 0.950 . S
H426 C434 0.950 . S
H427 C436 0.950 . S
H428 C438 0.950 . S
H429 C440 0.950 . S
H430 C442 0.950 . S
H431 C443 0.950 . S
C432 H424 0.950 . S
C432 C433 1.386 . S
C432 C434 1.391 . S
C433 C432 1.386 . S
C433 C437 1.393 . S
C434 H426 0.950 . S
C434 C432 1.391 . S
C434 C435 1.400 . S
C435 C434 1.400 . S
C435 C436 1.398 . S
C435 C441 1.491 1_455 S
C436 H427 0.950 . S
C436 C435 1.398 . S
C436 C437 1.391 . S
C437 H425 0.950 . S
C437 C433 1.393 . S
C437 C436 1.391 . S
C438 H428 0.950 . S
C438 C439 1.386 . S
C438 C440 1.391 . S
C439 C438 1.386 . S
C439 C443 1.393 . S
C440 H429 0.950 . S
C440 C438 1.391 . S
C440 C441 1.400 . S
C441 C435 1.491 1_655 S
C441 C440 1.400 . S
C441 C442 1.398 . S
C442 H430 0.950 . S
C442 C441 1.398 . S
C442 C443 1.391 . S
C443 H431 0.950 . S
C443 C439 1.393 . S
C443 C442 1.391 . S
H444 C452 0.950 . S
H445 C457 0.950 . S
H446 C454 0.950 . S
H447 C456 0.950 . S
H448 C458 0.950 . S
H449 C460 0.950 . S
H450 C462 0.950 . S
H451 C463 0.950 . S
C452 H444 0.950 . S
C452 C453 1.386 . S
C452 C454 1.391 . S
C453 C452 1.386 . S
C453 C457 1.393 . S
C454 H446 0.950 . S
C454 C452 1.391 . S
C454 C455 1.400 . S
C455 C454 1.400 . S
C455 C456 1.398 . S
C455 C461 1.491 1_455 S
C456 H447 0.950 . S
C456 C455 1.398 . S
C456 C457 1.391 . S
C457 H445 0.950 . S
C457 C453 1.393 . S
C457 C456 1.391 . S
C458 H448 0.950 . S
C458 C459 1.386 . S
C458 C460 1.391 . S
C459 C458 1.386 . S
C459 C463 1.393 . S
C460 H449 0.950 . S
C460 C458 1.391 . S
C460 C461 1.400 . S
C461 C455 1.491 1_655 S
C461 C460 1.400 . S
C461 C462 1.398 . S
C462 H450 0.950 . S
C462 C461 1.398 . S
C462 C463 1.391 . S
C463 H451 0.950 . S
C463 C459 1.393 . S
C463 C462 1.391 . S
H464 C472 0.950 . S
H465 C477 0.950 . S
H466 C474 0.950 . S
H467 C476 0.950 . S
H468 C478 0.950 . S
H469 C480 0.950 . S
H470 C482 0.950 . S
H471 C483 0.950 . S
C472 H464 0.950 . S
C472 C473 1.386 . S
C472 C474 1.391 . S
C473 C472 1.386 . S
C473 C477 1.393 . S
C474 H466 0.950 . S
C474 C472 1.391 . S
C474 C475 1.400 . S
C475 C474 1.400 . S
C475 C476 1.398 . S
C475 C481 1.491 . S
C476 H467 0.950 . S
C476 C475 1.398 . S
C476 C477 1.391 . S
C477 H465 0.950 . S
C477 C473 1.393 . S
C477 C476 1.391 . S
C478 H468 0.950 . S
C478 C479 1.386 . S
C478 C480 1.391 . S
C479 C478 1.386 . S
C479 C483 1.393 . S
C480 H469 0.950 . S
C480 C478 1.391 . S
C480 C481 1.400 . S
C481 C475 1.491 . S
C481 C480 1.400 . S
C481 C482 1.398 . S
C482 H470 0.950 . S
C482 C481 1.398 . S
C482 C483 1.391 . S
C483 H471 0.950 . S
C483 C479 1.393 . S
C483 C482 1.391 . S
H484 C492 0.950 . S
H485 C497 0.950 . S
H486 C494 0.950 . S
H487 C496 0.950 . S
H488 C498 0.950 . S
H489 C500 0.950 . S
H490 C502 0.950 . S
H491 C503 0.950 . S
C492 H484 0.950 . S
C492 C493 1.386 . S
C492 C494 1.391 . S
C493 C492 1.386 . S
C493 C497 1.393 . S
C494 H486 0.950 . S
C494 C492 1.391 . S
C494 C495 1.400 . S
C495 C494 1.400 . S
C495 C496 1.398 . S
C495 C501 1.491 . S
C496 H487 0.950 . S
C496 C495 1.398 . S
C496 C497 1.391 . S
C497 H485 0.950 . S
C497 C493 1.393 . S
C497 C496 1.391 . S
C498 H488 0.950 . S
C498 C499 1.386 . S
C498 C500 1.391 . S
C499 C498 1.386 . S
C499 C503 1.393 . S
C500 H489 0.950 . S
C500 C498 1.391 . S
C500 C501 1.400 . S
C501 C495 1.491 . S
C501 C500 1.400 . S
C501 C502 1.398 . S
C502 H490 0.950 . S
C502 C501 1.398 . S
C502 C503 1.391 . S
C503 H491 0.950 . S
C503 C499 1.393 . S
C503 C502 1.391 . S
H504 C512 0.950 . S
H505 C517 0.950 . S
H506 C514 0.950 . S
H507 C516 0.950 . S
H508 C518 0.950 . S
H509 C520 0.950 . S
H510 C522 0.950 . S
H511 C523 0.950 . S
C512 H504 0.950 . S
C512 C513 1.386 . S
C512 C514 1.391 . S
C513 C512 1.386 . S
C513 C517 1.393 . S
C514 H506 0.950 . S
C514 C512 1.391 . S
C514 C515 1.400 . S
C515 C514 1.400 . S
C515 C516 1.398 . S
C515 C521 1.491 . S
C516 H507 0.950 . S
C516 C515 1.398 . S
C516 C517 1.391 . S
C517 H505 0.950 . S
C517 C513 1.393 . S
C517 C516 1.391 . S
C518 H508 0.950 . S
C518 C519 1.386 . S
C518 C520 1.391 . S
C519 C518 1.386 . S
C519 C523 1.393 . S
C520 H509 0.950 . S
C520 C518 1.391 . S
C520 C521 1.400 . S
C521 C515 1.491 . S
C521 C520 1.400 . S
C521 C522 1.398 . S
C522 H510 0.950 . S
C522 C521 1.398 . S
C522 C523 1.391 . S
C523 H511 0.950 . S
C523 C519 1.393 . S
C523 C522 1.391 . S
H524 C532 0.950 . S
H525 C537 0.950 . S
H526 C534 0.950 . S
H527 C536 0.950 . S
H528 C538 0.950 . S
H529 C540 0.950 . S
H530 C542 0.950 . S
H531 C543 0.950 . S
C532 H524 0.950 . S
C532 C533 1.386 . S
C532 C534 1.391 . S
C533 C532 1.386 . S
C533 C537 1.393 . S
C534 H526 0.950 . S
C534 C532 1.391 . S
C534 C535 1.400 . S
C535 C534 1.400 . S
C535 C536 1.398 . S
C535 C541 1.491 . S
C536 H527 0.950 . S
C536 C535 1.398 . S
C536 C537 1.391 . S
C537 H525 0.950 . S
C537 C533 1.393 . S
C537 C536 1.391 . S
C538 H528 0.950 . S
C538 C539 1.386 . S
C538 C540 1.391 . S
C539 C538 1.386 . S
C539 C543 1.393 . S
C540 H529 0.950 . S
C540 C538 1.391 . S
C540 C541 1.400 . S
C541 C535 1.491 . S
C541 C540 1.400 . S
C541 C542 1.398 . S
C542 H530 0.950 . S
C542 C541 1.398 . S
C542 C543 1.391 . S
C543 H531 0.950 . S
C543 C539 1.393 . S
C543 C542 1.391 . S
H544 C552 0.950 . S
H545 C557 0.950 . S
H546 C554 0.950 . S
H547 C556 0.950 . S
H548 C558 0.950 . S
H549 C560 0.950 . S
H550 C562 0.950 . S
H551 C563 0.950 . S
C552 H544 0.950 . S
C552 C553 1.386 . S
C552 C554 1.391 . S
C553 C552 1.386 . S
C553 C557 1.393 . S
C554 H546 0.950 . S
C554 C552 1.391 . S
C554 C555 1.400 . S
C555 C554 1.400 . S
C555 C556 1.398 . S
C555 C561 1.491 . S
C556 H547 0.950 . S
C556 C555 1.398 . S
C556 C557 1.391 . S
C557 H545 0.950 . S
C557 C553 1.393 . S
C557 C556 1.391 . S
C558 H548 0.950 . S
C558 C559 1.386 . S
C558 C560 1.391 . S
C559 C558 1.386 . S
C559 C563 1.393 . S
C560 H549 0.950 . S
C560 C558 1.391 . S
C560 C561 1.400 . S
C561 C555 1.491 . S
C561 C560 1.400 . S
C561 C562 1.398 . S
C562 H550 0.950 . S
C562 C561 1.398 . S
C562 C563 1.391 . S
C563 H551 0.950 . S
C563 C559 1.393 . S
C563 C562 1.391 . S
H564 C572 0.950 . S
H565 C577 0.950 . S
H566 C574 0.950 . S
H567 C576 0.950 . S
H568 C578 0.950 . S
H569 C580 0.950 . S
H570 C582 0.950 . S
H571 C583 0.950 . S
C572 H564 0.950 . S
C572 C573 1.386 . S
C572 C574 1.391 . S
C573 C572 1.386 . S
C573 C577 1.393 . S
C574 H566 0.950 . S
C574 C572 1.391 . S
C574 C575 1.400 . S
C575 C574 1.400 . S
C575 C576 1.398 . S
C575 C581 1.491 . S
C576 H567 0.950 . S
C576 C575 1.398 . S
C576 C577 1.391 . S
C577 H565 0.950 . S
C577 C573 1.393 . S
C577 C576 1.391 . S
C578 H568 0.950 . S
C578 C579 1.386 . S
C578 C580 1.391 . S
C579 C578 1.386 . S
C579 C583 1.393 . S
C580 H569 0.950 . S
C580 C578 1.391 . S
C580 C581 1.400 . S
C581 C575 1.491 . S
C581 C580 1.400 . S
C581 C582 1.398 . S
C582 H570 0.950 . S
C582 C581 1.398 . S
C582 C583 1.391 . S
C583 H571 0.950 . S
C583 C579 1.393 . S
C583 C582 1.391 . S
H584 C592 0.950 . S
H585 C597 0.950 . S
H586 C594 0.950 1_545 S
H587 C596 0.950 . S
H588 C598 0.950 . S
H589 C600 0.950 . S
H590 C602 0.950 . S
H591 C603 0.950 . S
C592 H584 0.950 . S
C592 C593 1.386 . S
C592 C594 1.391 . S
C593 C592 1.386 . S
C593 C597 1.393 . S
C594 H586 0.950 1_565 S
C594 C592 1.391 . S
C594 C595 1.400 . S
C595 C594 1.400 . S
C595 C596 1.398 . S
C595 C601 1.491 . S
C596 H587 0.950 . S
C596 C595 1.398 . S
C596 C597 1.391 . S
C597 H585 0.950 . S
C597 C593 1.393 . S
C597 C596 1.391 . S
C598 H588 0.950 . S
C598 C599 1.386 1_565 S
C598 C600 1.391 . S
C599 C598 1.386 1_545 S
C599 C603 1.393 . S
C600 H589 0.950 . S
C600 C598 1.391 . S
C600 C601 1.400 . S
C601 C595 1.491 . S
C601 C600 1.400 . S
C601 C602 1.398 1_565 S
C602 H590 0.950 . S
C602 C601 1.398 1_545 S
C602 C603 1.391 . S
C603 H591 0.950 . S
C603 C599 1.393 . S
C603 C602 1.391 . S
H604 C612 0.950 1_565 S
H605 C617 0.950 . S
H606 C614 0.950 . S
H607 C616 0.950 . S
H608 C618 0.950 . S
H609 C620 0.950 1_545 S
H610 C622 0.950 . S
H611 C623 0.950 . S
C612 H604 0.950 1_545 S
C612 C613 1.386 . S
C612 C614 1.391 1_545 S
C613 C612 1.386 . S
C613 C617 1.393 . S
C614 H606 0.950 . S
C614 C612 1.391 1_565 S
C614 C615 1.400 . S
C615 C614 1.400 . S
C615 C616 1.398 1_565 S
C615 C621 1.491 . S
C616 H607 0.950 . S
C616 C615 1.398 1_545 S
C616 C617 1.391 . S
C617 H605 0.950 . S
C617 C613 1.393 . S
C617 C616 1.391 . S
C618 H608 0.950 . S
C618 C619 1.386 . S
C618 C620 1.391 . S
C619 C618 1.386 . S
C619 C623 1.393 . S
C620 H609 0.950 1_565 S
C620 C618 1.391 . S
C620 C621 1.400 . S
C621 C615 1.491 . S
C621 C620 1.400 . S
C621 C622 1.398 . S
C622 H610 0.950 . S
C622 C621 1.398 . S
C622 C623 1.391 . S
C623 H611 0.950 . S
C623 C619 1.393 . S
C623 C622 1.391 . S
H624 C632 0.950 . S
H625 C637 0.950 . S
H626 C634 0.950 . S
H627 C636 0.950 . S
H628 C638 0.950 . S
H629 C640 0.950 . S
H630 C642 0.950 . S
H631 C643 0.950 . S
C632 H624 0.950 . S
C632 C633 1.386 . S
C632 C634 1.391 1_565 S
C633 C632 1.386 . S
C633 C637 1.393 . S
C634 H626 0.950 . S
C634 C632 1.391 1_545 S
C634 C635 1.400 . S
C635 C634 1.400 . S
C635 C636 1.398 1_545 S
C635 C641 1.491 . S
C636 H627 0.950 . S
C636 C635 1.398 1_565 S
C636 C637 1.391 . S
C637 H625 0.950 . S
C637 C633 1.393 . S
C637 C636 1.391 . S
C638 H628 0.950 . S
C638 C639 1.386 . S
C638 C640 1.391 . S
C639 C638 1.386 . S
C639 C643 1.393 . S
C640 H629 0.950 . S
C640 C638 1.391 . S
C640 C641 1.400 . S
C641 C635 1.491 . S
C641 C640 1.400 . S
C641 C642 1.398 . S
C642 H630 0.950 . S
C642 C641 1.398 . S
C642 C643 1.391 . S
C643 H631 0.950 . S
C643 C639 1.393 . S
C643 C642 1.391 . S
H644 C652 0.950 . S
H645 C657 0.950 . S
H646 C654 0.950 1_565 S
H647 C656 0.950 . S
H648 C658 0.950 . S
H649 C660 0.950 . S
H650 C662 0.950 . S
H651 C663 0.950 . S
C652 H644 0.950 . S
C652 C653 1.386 . S
C652 C654 1.391 . S
C653 C652 1.386 . S
C653 C657 1.393 . S
C654 H646 0.950 1_545 S
C654 C652 1.391 . S
C654 C655 1.400 . S
C655 C654 1.400 . S
C655 C656 1.398 . S
C655 C661 1.491 . S
C656 H647 0.950 . S
C656 C655 1.398 . S
C656 C657 1.391 . S
C657 H645 0.950 . S
C657 C653 1.393 . S
C657 C656 1.391 . S
C658 H648 0.950 . S
C658 C659 1.386 1_545 S
C658 C660 1.391 . S
C659 C658 1.386 1_565 S
C659 C663 1.393 . S
C660 H649 0.950 . S
C660 C658 1.391 . S
C660 C661 1.400 . S
C661 C655 1.491 . S
C661 C660 1.400 . S
C661 C662 1.398 1_545 S
C662 H650 0.950 . S
C662 C661 1.398 1_565 S
C662 C663 1.391 . S
C663 H651 0.950 . S
C663 C659 1.393 . S
C663 C662 1.391 . S
C193 C40 1.421 . S
C199 C17 1.434 . S
C213 C63 1.420 . S
C219 C86 1.431 . S
C233 C132 1.435 . S
C239 C109 1.424 . S
C253 C155 1.422 . S
C259 C178 1.427 . S
C273 C20 1.368 . S
C279 C158 1.368 . S
C293 C43 1.365 . S
C299 C181 1.365 . S
C313 C112 1.365 . S
C319 C66 1.365 . S
C333 C89 1.367 . S
C339 C135 1.367 . S
C353 C62 1.164 . S
C359 C16 1.164 . S
C373 C85 1.158 . S
C379 C39 1.158 . S
C393 C108 1.157 . S
C399 C154 1.157 . S
C413 C131 1.171 . S
C419 C177 1.171 . S
C433 C18 1.309 . S
C439 C41 1.309 . S
C453 C87 1.304 . S
C459 C64 1.306 . S
C473 C133 1.305 . S
C479 C110 1.307 . S
C493 C179 1.301 . S
C499 C156 1.299 . S
C513 C21 1.540 1_556 S
C519 C88 1.450 . S
C533 C44 1.538 . S
C539 C65 1.479 . S
C553 C42 1.467 . S
C559 C67 1.542 1_554 S
C573 C19 1.474 . S
C579 C90 1.541 . S
C593 C113 1.541 1_556 S
C599 C180 1.450 . S
C613 C157 1.460 . S
C619 C136 1.536 . S
C633 C134 1.454 . S
C639 C159 1.538 1_554 S
C653 C182 1.535 . S
C659 C111 1.467 . S
