# Generated by pormake.
# Topology umf, (4)-cn, num edge types: 1
# Building blocks:
#     Node 0, Type 0, BuildingBlock: CEKHIL_clean_sbu_0, # of connection points: 4
#     Node 1, Type 0, BuildingBlock: CEKHIL_clean_sbu_0, # of connection points: 4
#     Node 2, Type 0, BuildingBlock: CEKHIL_clean_sbu_0, # of connection points: 4
#     Node 3, Type 0, BuildingBlock: CEKHIL_clean_sbu_0, # of connection points: 4
#     Node 4, Type 0, BuildingBlock: CEKHIL_clean_sbu_0, # of connection points: 4
#     Node 5, Type 0, BuildingBlock: CEKHIL_clean_sbu_0, # of connection points: 4
#     Node 6, Type 0, BuildingBlock: CEKHIL_clean_sbu_0, # of connection points: 4
#     Node 7, Type 0, BuildingBlock: CEKHIL_clean_sbu_0, # of connection points: 4
#     Edge 8, Type (0, 0), BuildingBlock: UVAHIK_clean_linker_0, # of connection points: 2
#     Edge 9, Type (0, 0), BuildingBlock: UVAHIK_clean_linker_0, # of connection points: 2
#     Edge 10, Type (0, 0), BuildingBlock: UVAHIK_clean_linker_0, # of connection points: 2
#     Edge 11, Type (0, 0), BuildingBlock: UVAHIK_clean_linker_0, # of connection points: 2
#     Edge 12, Type (0, 0), BuildingBlock: UVAHIK_clean_linker_0, # of connection points: 2
#     Edge 13, Type (0, 0), BuildingBlock: UVAHIK_clean_linker_0, # of connection points: 2
#     Edge 14, Type (0, 0), BuildingBlock: UVAHIK_clean_linker_0, # of connection points: 2
#     Edge 15, Type (0, 0), BuildingBlock: UVAHIK_clean_linker_0, # of connection points: 2
#     Edge 16, Type (0, 0), BuildingBlock: UVAHIK_clean_linker_0, # of connection points: 2
#     Edge 17, Type (0, 0), BuildingBlock: UVAHIK_clean_linker_0, # of connection points: 2
#     Edge 18, Type (0, 0), BuildingBlock: UVAHIK_clean_linker_0, # of connection points: 2
#     Edge 19, Type (0, 0), BuildingBlock: UVAHIK_clean_linker_0, # of connection points: 2
#     Edge 20, Type (0, 0), BuildingBlock: UVAHIK_clean_linker_0, # of connection points: 2
#     Edge 21, Type (0, 0), BuildingBlock: UVAHIK_clean_linker_0, # of connection points: 2
#     Edge 22, Type (0, 0), BuildingBlock: UVAHIK_clean_linker_0, # of connection points: 2
#     Edge 23, Type (0, 0), BuildingBlock: UVAHIK_clean_linker_0, # of connection points: 2
# Relax obj value: 0.166
# Max RMSD: 0.287
# Mean RMSD: 0.281
data_MOF--net-umf--node1-CEKHIL_clean_sbu_0--edge1-UVAHIK_clean_linker_0
_symmetry_space_group_name_H-M    P1
_symmetry_Int_Tables_number       1
_symmetry_cell_setting            triclinic
loop_
_symmetry_equiv_pos_as_xyz
'x, y, z'
_cell_length_a     35.832399
_cell_length_b     34.298864
_cell_length_c     68.165195
_cell_angle_alpha  89.998105
_cell_angle_beta   89.998701
_cell_angle_gamma 89.992131
loop_
_atom_site_label
_atom_site_type_symbol
_atom_site_fract_x
_atom_site_fract_y
_atom_site_fract_z
_atom_type_partial_charge
Co0 Co 0.07637 0.24611 0.14225 0.0
O1 O 0.09496 0.26467 0.16677 0.0
O2 O 0.12346 0.22044 0.14839 0.0
C3 C 0.06134 0.30458 0.13002 0.0
O4 O 0.06451 0.22271 0.11534 0.0
Co5 Co 0.99162 0.25811 0.13501 0.0
O6 O 0.00517 0.2403 0.10831 0.0
C7 C 0.01536 0.19563 0.16118 0.0
C8 C 0.12296 0.24138 0.16437 0.0
C9 C 0.03624 0.22476 0.10365 0.0
O10 O 0.04916 0.20283 0.15604 0.0
O11 O 0.98776 0.21659 0.15569 0.0
O12 O 0.0955 0.29204 0.12903 0.0
O13 O 0.03882 0.28366 0.14048 0.0
Co14 Co 0.72719 0.09608 0.63085 0.0
O15 O 0.67643 0.10648 0.62395 0.0
O16 O 0.70143 0.04749 0.62579 0.0
C17 C 0.72912 0.135 0.65727 0.0
O18 O 0.77883 0.07515 0.6383 0.0
Co19 Co 0.78452 0.16196 0.62723 0.0
O20 O 0.81406 0.12783 0.64465 0.0
C21 C 0.7648 0.11808 0.59192 0.0
C22 C 0.67217 0.06908 0.6225 0.0
C23 C 0.8087 0.09117 0.64516 0.0
O24 O 0.74189 0.09867 0.60252 0.0
O25 O 0.78514 0.1456 0.59872 0.0
O26 O 0.71508 0.10024 0.6582 0.0
O27 O 0.73759 0.14734 0.63975 0.0
Co28 Co 0.91796 0.74264 0.14337 0.0
O29 O 0.90132 0.72438 0.16837 0.0
O30 O 0.86842 0.76309 0.14888 0.0
C31 C 0.93964 0.68549 0.13253 0.0
O32 O 0.92709 0.76475 0.11588 0.0
Co33 Co 0.00346 0.74072 0.13581 0.0
O34 O 0.98764 0.75291 0.10866 0.0
C35 C 0.97288 0.80191 0.16087 0.0
C36 C 0.87107 0.74409 0.1654 0.0
C37 C 0.95503 0.76435 0.10392 0.0
O38 O 0.9401 0.79015 0.15611 0.0
O39 O 0.00267 0.78432 0.15548 0.0
O40 O 0.90423 0.69337 0.13138 0.0
O41 O 0.95962 0.7101 0.14236 0.0
Co42 Co 0.24148 0.89505 0.62829 0.0
O43 O 0.29388 0.88584 0.627 0.0
O44 O 0.26772 0.94427 0.62533 0.0
C45 C 0.2295 0.85741 0.65427 0.0
O46 O 0.18738 0.91416 0.63008 0.0
Co47 Co 0.19055 0.82579 0.61861 0.0
O48 O 0.15212 0.85982 0.63022 0.0
C49 C 0.2209 0.87087 0.5861 0.0
C50 C 0.298 0.92317 0.62525 0.0
C51 C 0.15576 0.89656 0.63215 0.0
O52 O 0.23805 0.89139 0.59895 0.0
O53 O 0.2 0.84201 0.59059 0.0
O54 O 0.24242 0.89243 0.65641 0.0
O55 O 0.22953 0.84369 0.63647 0.0
Co56 Co 0.08235 0.7424 0.86469 0.0
O57 O 0.10859 0.72834 0.84141 0.0
O58 O 0.12831 0.77251 0.86277 0.0
C59 C 0.06809 0.68192 0.87403 0.0
O60 O 0.0613 0.76136 0.89105 0.0
Co61 Co 0.99753 0.72414 0.86503 0.0
O62 O 0.00616 0.73 0.8936 0.0
C63 C 0.02348 0.79173 0.84307 0.0
C64 C 0.13334 0.75399 0.84625 0.0
C65 C 0.03298 0.74933 0.90113 0.0
O66 O 0.05618 0.7851 0.84997 0.0
O67 O 0.99546 0.76963 0.84647 0.0
O68 O 0.10082 0.69622 0.87804 0.0
O69 O 0.04747 0.70262 0.86244 0.0
Co70 Co 0.26447 0.10171 0.37351 0.0
O71 O 0.31527 0.1123 0.38015 0.0
O72 O 0.29248 0.05335 0.37444 0.0
C73 C 0.25929 0.14798 0.35045 0.0
O74 O 0.21302 0.08098 0.36549 0.0
Co75 Co 0.2058 0.16387 0.38342 0.0
O76 O 0.17488 0.13305 0.36517 0.0
C77 C 0.23052 0.11157 0.41468 0.0
C78 C 0.32112 0.07515 0.37874 0.0
C79 C 0.18175 0.09754 0.36113 0.0
O80 O 0.25198 0.09535 0.40205 0.0
O81 O 0.20954 0.14064 0.41057 0.0
O82 O 0.27432 0.11454 0.34653 0.0
O83 O 0.25174 0.15457 0.36882 0.0
Co84 Co 0.93334 0.24745 0.86052 0.0
O85 O 0.91634 0.26367 0.83533 0.0
O86 O 0.88382 0.22603 0.85539 0.0
C87 C 0.9538 0.30562 0.87044 0.0
O88 O 0.94387 0.2276 0.88836 0.0
Co89 Co 0.01907 0.25271 0.86709 0.0
O90 O 0.00209 0.24949 0.89474 0.0
C91 C 0.98935 0.18861 0.84364 0.0
C92 C 0.8862 0.244 0.83855 0.0
C93 C 0.97089 0.23537 0.9003 0.0
O94 O 0.95637 0.19965 0.84849 0.0
O95 O 0.01876 0.20763 0.8483 0.0
O96 O 0.91862 0.29697 0.87193 0.0
O97 O 0.97402 0.28122 0.86064 0.0
Co98 Co 0.75288 0.90128 0.3772 0.0
O99 O 0.70062 0.89231 0.38001 0.0
O100 O 0.7268 0.95079 0.37914 0.0
C101 C 0.76249 0.86053 0.35214 0.0
O102 O 0.80671 0.92014 0.37344 0.0
Co103 Co 0.80502 0.83399 0.38774 0.0
O104 O 0.84154 0.86561 0.37307 0.0
C105 C 0.77716 0.88253 0.41955 0.0
C106 C 0.69656 0.92979 0.38049 0.0
C107 C 0.83784 0.90214 0.37036 0.0
O108 O 0.75883 0.90129 0.40648 0.0
O109 O 0.79792 0.8533 0.41547 0.0
O110 O 0.74943 0.89531 0.34934 0.0
O111 O 0.76412 0.84886 0.37031 0.0
C112 C 0.01309 0.35463 0.12195 0.0
C113 C 0.05035 0.34212 0.12135 0.0
C114 C 0.00376 0.39229 0.11591 0.0
C115 C 0.04398 0.48739 0.11738 0.0
H116 H 0.9566 0.51943 0.08799 0.0
C117 C 0.99382 0.64525 0.12159 0.0
C118 C 0.95523 0.64957 0.12415 0.0
C119 C 0.00848 0.6098 0.11509 0.0
C120 C 0.98104 0.51097 0.0963 0.0
H121 H 0.1067 0.35795 0.11277 0.0
H122 H 0.09041 0.42402 0.10266 0.0
H123 H 0.9758 0.45105 0.08769 0.0
H124 H 0.90148 0.62117 0.12125 0.0
H125 H 0.92689 0.55897 0.11099 0.0
H126 H 0.0479 0.54603 0.12736 0.0
C127 C 0.06852 0.40471 0.10774 0.0
C128 C 0.99208 0.47192 0.096 0.0
C129 C 0.07776 0.36697 0.11356 0.0
C130 C 0.93141 0.61856 0.1194 0.0
C131 C 0.94603 0.58295 0.11329 0.0
C132 C 0.03261 0.52619 0.11799 0.0
C133 C 0.03164 0.41799 0.10937 0.0
C134 C 0.02312 0.45974 0.10692 0.0
C135 C 0.98482 0.57782 0.11145 0.0
C136 C 0.00037 0.53829 0.10792 0.0
H137 H 0.9914 0.33589 0.12775 0.0
H138 H 0.97515 0.40206 0.11744 0.0
H139 H 0.06778 0.47857 0.12612 0.0
H140 H 0.01271 0.66902 0.12487 0.0
H141 H 0.03842 0.6072 0.11341 0.0
C142 C 0.34182 0.97985 0.6206 0.0
C143 C 0.33582 0.93973 0.62328 0.0
C144 C 0.37825 0.9944 0.61894 0.0
C145 C 0.47499 0.96941 0.632 0.0
H146 H 0.50288 0.04418 0.59196 0.0
C147 C 0.62824 0.01239 0.62023 0.0
C148 C 0.63492 0.05255 0.61858 0.0
C149 C 0.59185 -0.0021 0.61878 0.0
C150 C 0.49544 0.02345 0.60329 0.0
H151 H 0.36314 0.88341 0.62603 0.0
H152 H 0.42594 0.90866 0.6231 0.0
H153 H 0.43809 0.02223 0.5943 0.0
H154 H 0.60918 0.10883 0.61309 0.0
H155 H 0.54603 0.08369 0.61079 0.0
H156 H 0.53196 0.97079 0.64119 0.0
C157 C 0.40282 0.92899 0.62252 0.0
C158 C 0.45836 0.01105 0.60466 0.0
C159 C 0.36671 0.91454 0.6241 0.0
C160 C 0.60491 0.07769 0.61452 0.0
C161 C 0.56868 0.06327 0.61306 0.0
C162 C 0.51193 0.98183 0.63066 0.0
C163 C 0.40907 0.96903 0.62008 0.0
C164 C 0.44785 0.98376 0.61899 0.0
C165 C 0.56161 0.02335 0.61561 0.0
C166 C 0.52262 0.00891 0.61627 0.0
H167 H 0.31851 -0.00011 0.61986 0.0
H168 H 0.38235 0.02548 0.61714 0.0
H169 H 0.46757 0.94879 0.64339 0.0
H170 H 0.65086 0.99233 0.62328 0.0
H171 H 0.58731 0.96687 0.62049 0.0
C172 C 0.94963 0.35849 0.89529 0.0
C173 C 0.96953 0.34001 0.88019 0.0
C174 C 0.96269 0.39326 0.90334 0.0
C175 C 0.04286 0.46311 0.9022 0.0
H176 H 0.9637 0.54012 0.90377 0.0
C177 C 0.0764 0.62591 0.89694 0.0
C178 C 0.05501 0.64515 0.88265 0.0
C179 C 0.06518 0.58965 0.90412 0.0
C180 C 0.98614 0.51896 0.90351 0.0
H181 H 0.01963 0.34158 0.86247 0.0
H182 H 0.04165 0.40323 0.87573 0.0
H183 H 0.94793 0.47147 0.90264 0.0
H184 H 0.00435 0.64281 0.86534 0.0
H185 H 0.98537 0.57916 0.87725 0.0
H186 H 0.08093 0.51088 0.90112 0.0
C187 C 0.01648 0.39064 0.88183 0.0
C188 C 0.97714 0.47946 0.90315 0.0
C189 C 0.00371 0.35552 0.87403 0.0
C190 C 0.02144 0.62848 0.87628 0.0
C191 C 0.01037 0.59217 0.88332 0.0
C192 C 0.05184 0.50267 0.90228 0.0
C193 C 0.99556 0.41051 0.89619 0.0
C194 C 0.00537 0.45115 0.90152 0.0
C195 C 0.0325 0.57197 0.89702 0.0
C196 C 0.02347 0.53098 0.90194 0.0
H197 H 0.92354 0.34652 0.9006 0.0
H198 H 0.94635 0.40732 0.91468 0.0
H199 H 0.06528 0.44198 0.90149 0.0
H200 H 0.10218 0.63849 0.90231 0.0
H201 H 0.08255 0.57506 0.91485 0.0
C202 C 0.36671 0.01946 0.37958 0.0
C203 C 0.35919 0.0595 0.38121 0.0
C204 C 0.40344 0.00577 0.38097 0.0
C205 C 0.50009 0.03815 0.37389 0.0
H206 H 0.52598 0.94738 0.40488 0.0
C207 C 0.65305 0.9871 0.38345 0.0
C208 C 0.65883 0.9467 0.38218 0.0
C209 C 0.61673 0.00207 0.38468 0.0
C210 C 0.51916 0.9726 0.39602 0.0
H211 H 0.38407 0.11648 0.38603 0.0
H212 H 0.44767 0.09262 0.38841 0.0
H213 H 0.46139 0.96984 0.40402 0.0
H214 H 0.63119 0.89034 0.38121 0.0
H215 H 0.56854 0.91629 0.38293 0.0
H216 H 0.55758 0.04055 0.36552 0.0
C217 C 0.42541 0.07185 0.38587 0.0
C218 C 0.48217 0.98538 0.39553 0.0
C219 C 0.38889 0.08543 0.38461 0.0
C220 C 0.62779 0.92165 0.38227 0.0
C221 C 0.59174 0.93652 0.38341 0.0
C222 C 0.53702 0.02523 0.37426 0.0
C223 C 0.43315 0.03199 0.38387 0.0
C224 C 0.47228 0.01821 0.38442 0.0
C225 C 0.58569 0.97685 0.38462 0.0
C226 C 0.54695 0.99215 0.38523 0.0
H227 H 0.34437 -0.00116 0.37696 0.0
H228 H 0.40872 0.97486 0.37929 0.0
H229 H 0.49314 0.06334 0.36502 0.0
H230 H 0.67647 0.00705 0.38346 0.0
H231 H 0.61297 0.03332 0.38576 0.0
C232 C 0.97839 0.26127 0.93374 0.0
C233 C 0.9663 0.23072 0.92164 0.0
C234 C 0.9821 0.25591 0.95387 0.0
C235 C -0.00056 0.17877 0.99025 0.0
H236 H 0.98729 0.2654 0.02626 0.0
C237 C 0.01725 0.18149 0.07627 0.0
C238 C 0.03962 0.21221 0.08315 0.0
C239 C 0.00983 0.17761 0.0562 0.0
C240 C 0.99096 0.24103 0.01633 0.0
H241 H 0.94692 0.17102 0.92106 0.0
H242 H 0.95289 0.16146 0.95675 0.0
H243 H 0.96385 0.27093 0.99286 0.0
H244 H 0.07284 0.26207 0.07468 0.0
H245 H 0.05946 0.25571 0.03956 0.0
H246 H 0.02591 0.14877 0.01425 0.0
C247 C 0.95987 0.18956 0.95052 0.0
C248 C 0.97753 0.24412 0.99719 0.0
C249 C 0.95595 0.1951 0.93018 0.0
C250 C 0.05634 0.23756 0.06963 0.0
C251 C 0.04833 0.23419 0.04962 0.0
C252 C 0.01232 0.17544 0.00962 0.0
C253 C 0.97384 0.21973 0.96253 0.0
C254 C 0.98257 0.21353 0.98369 0.0
C255 C 0.02388 0.20509 0.04286 0.0
C256 C 0.00908 0.20701 0.02261 0.0
H257 H 0.98665 0.28901 0.92746 0.0
H258 H 0.99345 0.27968 0.96245 0.0
H259 H 0.00408 0.15475 0.98024 0.0
H260 H 0.00334 0.16225 0.08654 0.0
H261 H 0.99072 0.15514 0.05132 0.0
C262 C 0.73777 0.09235 0.56095 0.0
C263 C 0.76935 0.1046 0.57148 0.0
C264 C 0.74162 0.07122 0.54356 0.0
C265 C 0.80314 0.00064 0.5207 0.0
H266 H 0.74195 0.01828 0.47468 0.0
C267 C 0.80957 0.90303 0.45051 0.0
C268 C 0.77653 0.89907 0.43959 0.0
C269 C 0.81065 0.92753 0.467 0.0
C270 C 0.75885 0.01246 0.48752 0.0
H271 H 0.82976 0.10529 0.57185 0.0
H272 H 0.83659 0.0676 0.54138 0.0
H273 H 0.74142 0.06561 0.50127 0.0
H274 H 0.71811 0.91499 0.43822 0.0
H275 H 0.71936 0.95574 0.46739 0.0
H276 H 0.8196 0.94678 0.50729 0.0
C277 C 0.80887 0.07481 0.54656 0.0
C278 C 0.75879 0.0399 0.50267 0.0
C279 C 0.80498 0.09677 0.56382 0.0
C280 C 0.74402 0.91764 0.44631 0.0
C281 C 0.74493 0.94152 0.46288 0.0
C282 C 0.8029 0.97286 0.5056 0.0
C283 C 0.77717 0.06111 0.5365 0.0
C284 C 0.78055 0.0341 0.51953 0.0
C285 C 0.77859 0.94819 0.47298 0.0
C286 C 0.78025 0.9781 0.48892 0.0
H287 H 0.71 0.09764 0.56665 0.0
H288 H 0.71669 0.06089 0.53623 0.0
H289 H 0.81988 0.99518 0.53364 0.0
H290 H 0.83517 0.88949 0.4455 0.0
H291 H 0.8371 0.9319 0.47436 0.0
C292 C 0.93645 0.74674 0.07014 0.0
C293 C 0.94986 0.7749 0.08323 0.0
C294 C 0.94201 0.75112 0.04995 0.0
C295 C 0.00745 0.79976 0.01575 0.0
H296 H 0.94273 0.75333 0.97669 0.0
C297 C 0.03862 0.79267 0.93096 0.0
C298 C 0.03042 0.75635 0.92247 0.0
C299 C 0.02904 0.80003 0.95064 0.0
C300 C 0.96114 0.76641 0.98744 0.0
H301 H 0.97814 0.83033 0.08578 0.0
H302 H 0.98616 0.83926 0.05041 0.0
H303 H 0.92113 0.75918 0.01041 0.0
H304 H 0.00882 0.69838 0.92816 0.0
H305 H 0.9928 0.71095 0.96218 0.0
H306 H 0.04753 0.80664 0.99256 0.0
C307 C 0.97208 0.81333 0.05563 0.0
C308 C 0.94878 0.76968 0.0068 0.0
C309 C 0.96693 0.80863 0.07585 0.0
C310 C 0.01488 0.7269 0.93424 0.0
C311 C 0.00546 0.73415 0.95369 0.0
C312 C 0.0197 0.79678 0.99627 0.0
C313 C 0.961 0.78392 0.04246 0.0
C314 C 0.97212 0.78543 0.02136 0.0
C315 C 0.01119 0.77112 0.96195 0.0
C316 C 0.99705 0.77903 0.98206 0.0
H317 H 0.92425 0.71993 0.0756 0.0
H318 H 0.93357 0.72751 0.04039 0.0
H319 H 0.02646 0.81165 0.02654 0.0
H320 H 0.05047 0.81587 0.92216 0.0
H321 H 0.03399 0.82875 0.95671 0.0
C322 C 0.19445 0.08753 0.44385 0.0
C323 C 0.22879 0.0932 0.4343 0.0
C324 C 0.19227 0.06355 0.46049 0.0
C325 C 0.24684 0.02157 0.50071 0.0
H326 H 0.17885 0.93375 0.49821 0.0
C327 C 0.25602 0.90112 0.55856 0.0
C328 C 0.22256 0.88527 0.56569 0.0
C329 C 0.25628 0.92385 0.54156 0.0
C330 C 0.19765 0.95834 0.49934 0.0
H331 H 0.28789 0.07991 0.43514 0.0
H332 H 0.2843 0.03952 0.46457 0.0
H333 H 0.17859 0.98251 0.47205 0.0
H334 H 0.16335 0.8794 0.56024 0.0
H335 H 0.16336 0.92008 0.53085 0.0
H336 H 0.26537 -0.00137 0.52811 0.0
C337 C 0.25904 0.05306 0.45909 0.0
C338 C 0.19745 0.98628 0.48432 0.0
C339 C 0.26109 0.0762 0.44227 0.0
C340 C 0.18965 0.89073 0.55486 0.0
C341 C 0.18972 0.91426 0.53803 0.0
C342 C 0.24664 0.99411 0.51586 0.0
C343 C 0.22451 0.04566 0.46808 0.0
C344 C 0.22236 0.01791 0.48477 0.0
C345 C 0.22287 0.9323 0.53153 0.0
C346 C 0.22246 0.9617 0.51529 0.0
H347 H 0.16906 0.09986 0.43785 0.0
H348 H 0.16533 0.05845 0.46723 0.0
H349 H 0.26611 0.04586 0.5015 0.0
H350 H 0.2818 0.89734 0.56665 0.0
H351 H 0.28262 0.93593 0.5367 0.0
C352 C 0.15888 0.27087 0.19156 0.0
C353 C 0.15068 0.23784 0.1802 0.0
C354 C 0.1777 0.26723 0.20937 0.0
C355 C 0.22976 0.19818 0.2414 0.0
H356 H 0.18605 0.26054 0.283 0.0
C357 C 0.28067 0.17938 0.31999 0.0
C358 C 0.25277 0.17557 0.3343 0.0
C359 C 0.27241 0.19489 0.3016 0.0
C360 C 0.19853 0.24286 0.27159 0.0
H361 H 0.1573 0.17534 0.17788 0.0
H362 H 0.18967 0.16856 0.20933 0.0
H363 H 0.16537 0.26967 0.24933 0.0
H364 H 0.19507 0.18779 0.34128 0.0
H365 H 0.18 0.2139 0.30887 0.0
H366 H 0.26137 0.16982 0.26377 0.0
C367 C 0.18219 0.19749 0.20434 0.0
C368 C 0.18705 0.24843 0.25219 0.0
C369 C 0.16375 0.20127 0.18629 0.0
C370 C 0.2171 0.19055 0.33052 0.0
C371 C 0.20854 0.20549 0.3119 0.0
C372 C 0.24107 0.19245 0.26081 0.0
C373 C 0.18814 0.23032 0.21642 0.0
C374 C 0.2023 0.22594 0.23685 0.0
C375 C 0.23577 0.20612 0.29694 0.0
C376 C 0.22543 0.21452 0.27619 0.0
H377 H 0.14923 0.29946 0.18708 0.0
H378 H 0.18277 0.29325 0.21796 0.0
H379 H 0.24233 0.18057 0.22999 0.0
H380 H 0.30848 0.1681 0.32263 0.0
H381 H 0.29437 0.19613 0.2907 0.0
C382 C 0.86157 0.26513 0.80625 0.0
C383 C 0.85808 0.24084 0.82276 0.0
C384 C 0.83985 0.25899 0.78961 0.0
C385 C 0.79011 0.17935 0.76477 0.0
H386 H 0.76559 0.26096 0.72746 0.0
C387 C 0.71729 0.14417 0.6927 0.0
C388 C 0.73568 0.15681 0.67562 0.0
C389 C 0.72672 0.15927 0.71096 0.0
C390 C 0.77243 0.23797 0.73774 0.0
H391 H 0.82707 0.19281 0.83534 0.0
H392 H 0.78801 0.18251 0.80627 0.0
H393 H 0.78837 0.27837 0.76014 0.0
H394 H 0.77669 0.19712 0.66411 0.0
H395 H 0.79335 0.22405 0.69647 0.0
H396 H 0.77391 0.13904 0.74242 0.0
C397 C 0.80842 0.20577 0.80606 0.0
C398 C 0.78546 0.24781 0.75646 0.0
C399 C 0.83048 0.21184 0.82279 0.0
C400 C 0.76212 0.18689 0.67704 0.0
C401 C 0.7716 0.20222 0.6955 0.0
C402 C 0.77663 0.16959 0.74622 0.0
C403 C 0.81371 0.22855 0.78902 0.0
C404 C 0.7951 0.21858 0.77012 0.0
C405 C 0.75475 0.18751 0.71266 0.0
C406 C 0.76808 0.19874 0.73244 0.0
H407 H 0.88238 0.28803 0.80578 0.0
H408 H 0.8452 0.27689 0.77683 0.0
H409 H 0.79797 0.15598 0.77462 0.0
H410 H 0.69633 0.12144 0.69209 0.0
H411 H 0.71282 0.14796 0.72388 0.0
C412 C 0.76866 0.79758 0.3332 0.0
C413 C 0.77482 0.83788 0.33497 0.0
C414 C 0.77319 0.77924 0.31488 0.0
C415 C 0.76472 0.80266 0.26318 0.0
H416 H 0.83624 0.7215 0.2512 0.0
C417 C 0.82897 0.78363 0.18667 0.0
C418 C 0.84358 0.74725 0.18134 0.0
C419 C 0.81175 0.78844 0.20495 0.0
C420 C 0.81533 0.74346 0.25425 0.0
H421 H 0.79347 0.88985 0.31971 0.0
H422 H 0.80124 0.85811 0.28817 0.0
H423 H 0.82495 0.7396 0.28531 0.0
H424 H 0.84873 0.68667 0.18982 0.0
H425 H 0.81695 0.69446 0.22118 0.0
H426 H 0.75542 0.80737 0.23229 0.0
C427 C 0.79224 0.84079 0.3006 0.0
C428 C 0.80904 0.7538 0.27383 0.0
C429 C 0.78798 0.85884 0.31868 0.0
C430 C 0.83776 0.71509 0.1937 0.0
C431 C 0.81997 0.71968 0.21176 0.0
C432 C 0.77063 0.79207 0.24365 0.0
C433 C 0.78365 0.80124 0.29833 0.0
C434 C 0.78469 0.78443 0.27837 0.0
C435 C 0.80839 0.75678 0.21806 0.0
C436 C 0.79704 0.76331 0.23886 0.0
H437 H 0.75831 0.78092 0.34555 0.0
H438 H 0.76681 0.74852 0.31343 0.0
H439 H 0.74553 0.82622 0.2664 0.0
H440 H 0.83366 0.80895 0.17749 0.0
H441 H 0.80353 0.81756 0.20929 0.0
C442 C 0.22526 0.80038 0.67725 0.0
C443 C 0.21352 0.83764 0.67145 0.0
C444 C 0.21777 0.78711 0.69636 0.0
C445 C 0.16243 0.81126 0.74146 0.0
H446 H 0.24517 0.76332 0.7691 0.0
C447 C 0.16155 0.80418 0.82476 0.0
C448 C 0.16089 0.76548 0.83137 0.0
C449 C 0.17411 0.81268 0.80579 0.0
C450 C 0.22197 0.77683 0.76152 0.0
H451 H 0.18297 0.88918 0.68025 0.0
H452 H 0.17002 0.86661 0.71313 0.0
H453 H 0.24952 0.7742 0.73363 0.0
H454 H 0.17645 0.70606 0.82446 0.0
H455 H 0.20002 0.72118 0.7917 0.0
H456 H 0.13541 0.81496 0.76937 0.0
C457 C 0.1846 0.84709 0.70328 0.0
C458 C 0.22417 0.78257 0.74118 0.0
C459 C 0.1921 0.86018 0.68439 0.0
C460 C 0.17715 0.73623 0.81973 0.0
C461 C 0.1904 0.74482 0.80095 0.0
C462 C 0.16057 0.80619 0.76173 0.0
C463 C 0.19831 0.81095 0.7098 0.0
C464 C 0.19455 0.80034 0.73093 0.0
C465 C 0.18685 0.78267 0.7934 0.0
C466 C 0.19043 0.78936 0.772 0.0
H467 H 0.24228 0.78276 0.66756 0.0
H468 H 0.22828 0.75887 0.70081 0.0
H469 H 0.13869 0.82412 0.73406 0.0
H470 H 0.14854 0.82709 0.83332 0.0
H471 H 0.17137 0.84219 0.80031 0.0
C472 C 0.03779 0.13329 0.17609 0.0
C473 C 0.00822 0.1591 0.17217 0.0
C474 C 0.0308 0.09581 0.18309 0.0
C475 C 0.95618 0.02329 0.18016 0.0
H476 H 0.02861 0.95938 0.20763 0.0
C477 C 0.94346 0.8578 0.17868 0.0
C478 C 0.97585 0.83938 0.17156 0.0
C479 C 0.94494 0.89593 0.18575 0.0
C480 C 0.00802 0.97693 0.20006 0.0
H481 H 0.94833 0.16701 0.17451 0.0
H482 H 0.93612 0.10181 0.18723 0.0
H483 H 0.03455 0.03037 0.20834 0.0
H484 H 0.03571 0.84552 0.16787 0.0
H485 H 0.03817 0.91229 0.18004 0.0
H486 H 0.93034 0.97005 0.17136 0.0
C487 C 0.96473 0.11022 0.18426 0.0
C488 C 0.01141 0.01755 0.20041 0.0
C489 C 0.97169 0.1477 0.17706 0.0
C490 C 0.01022 0.85889 0.17312 0.0
C491 C 0.01167 0.89711 0.18021 0.0
C492 C 0.9526 0.98283 0.17997 0.0
C493 C 0.99404 0.08328 0.18656 0.0
C494 C 0.98631 0.04116 0.18985 0.0
C495 C 0.97881 0.91648 0.1859 0.0
C496 C 0.97918 0.95916 0.18934 0.0
H497 H 0.06641 0.14114 0.17271 0.0
H498 H 0.05411 0.07596 0.1845 0.0
H499 H 0.93663 0.04028 0.17159 0.0
H500 H 0.91657 0.84341 0.17803 0.0
H501 H 0.91928 0.90993 0.19034 0.0
C502 C 0.08659 0.90145 0.63237 0.0
C503 C 0.12131 0.91874 0.63648 0.0
C504 C 0.05347 0.9202 0.63719 0.0
C505 C 0.01291 0.01605 0.64794 0.0
H506 H 0.92922 0.95279 0.66519 0.0
C507 C 0.86987 0.08435 0.6622 0.0
C508 C 0.8406 0.06694 0.65158 0.0
C509 C 0.90377 0.06506 0.66466 0.0
C510 C 0.95235 0.97078 0.66041 0.0
H511 H 0.14842 0.96975 0.64864 0.0
H512 H 0.0899 0.00284 0.65733 0.0
H513 H 0.99068 0.92308 0.66134 0.0
H514 H 0.8229 0.01427 0.63667 0.0
H515 H 0.88235 0.98029 0.6411 0.0
H516 H 0.97439 0.06365 0.64684 0.0
C517 C 0.08861 0.97464 0.65022 0.0
C518 C 0.98753 0.95384 0.65814 0.0
C519 C 0.12209 0.95579 0.64524 0.0
C520 C 0.84488 0.02844 0.64493 0.0
C521 C 0.87894 0.00903 0.64745 0.0
C522 C 0.97779 0.03306 0.65038 0.0
C523 C 0.05393 0.95675 0.64642 0.0
C524 C 0.018 0.97603 0.65137 0.0
C525 C 0.90914 0.02783 0.65666 0.0
C526 C 0.94699 0.01041 0.65623 0.0
H527 H 0.08485 0.87319 0.62533 0.0
H528 H 0.02738 0.90608 0.63346 0.0
H529 H 0.03561 0.03389 0.64252 0.0
H530 H 0.86727 0.11378 0.66782 0.0
H531 H 0.92631 0.0799 0.67218 0.0
C532 C 0.02828 0.13712 0.82724 0.0
C533 C 0.99327 0.15046 0.83366 0.0
C534 C 0.03249 0.099 0.82033 0.0
C535 C 0.9797 0.00832 0.80705 0.0
H536 H 0.06465 0.95779 0.83137 0.0
C537 C 0.98369 0.84777 0.83208 0.0
C538 C 0.01826 0.82848 0.83211 0.0
C539 C 0.98113 0.88624 0.82537 0.0
C540 C 0.04118 0.9714 0.82406 0.0
H541 H 0.93471 0.13498 0.83651 0.0
H542 H 0.9423 0.06859 0.8252 0.0
H543 H 0.06006 0.02811 0.83202 0.0
H544 H 0.07623 0.83253 0.8231 0.0
H545 H 0.07161 0.89925 0.81122 0.0
H546 H 0.95992 0.95086 0.8002 0.0
C547 C 0.96647 0.08752 0.82513 0.0
C548 C 0.03858 0.01192 0.82439 0.0
C549 C 0.96219 0.12567 0.83183 0.0
C550 C 0.04935 0.84697 0.82364 0.0
C551 C 0.04674 0.88518 0.81684 0.0
C552 C 0.98219 0.9676 0.80686 0.0
C553 C 0.00187 0.0733 0.81988 0.0
C554 C 0.00734 0.03089 0.81636 0.0
C555 C 0.01305 0.90583 0.81848 0.0
C556 C 0.01256 0.94873 0.81578 0.0
H557 H 0.0527 0.15564 0.82816 0.0
H558 H 0.06002 0.08925 0.81598 0.0
H559 H 0.95557 0.02203 0.80044 0.0
H560 H 0.95926 0.83422 0.8385 0.0
H561 H 0.9548 0.90145 0.82689 0.0
C562 C 0.90628 0.90436 0.36401 0.0
C563 C 0.87166 0.92375 0.36413 0.0
C564 C 0.93882 0.92375 0.35871 0.0
C565 C 0.97928 0.02196 0.3556 0.0
H566 H 0.06091 0.96549 0.33115 0.0
C567 C 0.12069 0.09451 0.34386 0.0
C568 C 0.15033 0.07469 0.35304 0.0
C569 C 0.08695 0.07569 0.34025 0.0
C570 C 0.03831 0.98158 0.33793 0.0
H571 H 0.84417 0.97883 0.35829 0.0
H572 H 0.90143 0.01291 0.34862 0.0
H573 H -0.00055 0.93508 0.33365 0.0
H574 H 0.16902 0.01865 0.36393 0.0
H575 H 0.10973 0.98541 0.3574 0.0
H576 H 0.01827 0.06837 0.3599 0.0
C577 C 0.90321 0.98261 0.35297 0.0
C578 C 0.00314 0.96422 0.33945 0.0
C579 C 0.87039 0.96312 0.35847 0.0
C580 C 0.1467 0.03463 0.35685 0.0
C581 C 0.11277 0.01567 0.35314 0.0
C582 C 0.01428 0.03948 0.35383 0.0
C583 C 0.93787 0.96311 0.35315 0.0
C584 C 0.97346 0.98376 0.34882 0.0
C585 C 0.08214 0.03656 0.34559 0.0
C586 C 0.04433 0.01914 0.34538 0.0
H587 H 0.90861 0.8741 0.3684 0.0
H588 H 0.96494 0.90796 0.35956 0.0
H589 H 0.95736 0.03771 0.36313 0.0
H590 H 0.12285 0.12526 0.34041 0.0
H591 H 0.06403 0.09224 0.33407 0.0
loop_
_geom_bond_atom_site_label_1
_geom_bond_atom_site_label_2
_geom_bond_distance
_geom_bond_site_symmetry_2
_ccdc_geom_bond_type
Co0 O1 2.216 . S
Co0 O2 2.091 . S
Co0 O4 2.004 . S
Co0 O10 2.021 . S
Co0 O12 2.137 . S
Co0 O13 2.244 . S
O1 Co0 2.216 . S
O1 C8 1.247 . S
O2 Co0 2.091 . S
O2 C8 1.261 . S
C3 O12 1.247 . S
C3 O13 1.272 . S
O4 Co0 2.004 . S
O4 C9 1.259 . S
Co5 O6 2.061 . S
Co5 O11 2.052 . S
Co5 O13 2.135 . S
O6 Co5 2.061 . S
O6 C9 1.235 . S
C7 O10 1.238 . S
C7 O11 1.241 . S
C8 O1 1.247 . S
C8 O2 1.261 . S
C9 O4 1.259 . S
C9 O6 1.235 . S
O10 Co0 2.021 . S
O10 C7 1.238 . S
O11 Co5 2.052 . S
O11 C7 1.241 . S
O12 Co0 2.137 . S
O12 C3 1.247 . S
O13 Co0 2.244 . S
O13 C3 1.272 . S
O13 Co5 2.135 . S
Co14 O15 2.216 . S
Co14 O16 2.091 . S
Co14 O18 2.004 . S
Co14 O24 2.021 . S
Co14 O26 2.137 . S
Co14 O27 2.244 . S
O15 Co14 2.216 . S
O15 C22 1.247 . S
O16 Co14 2.091 . S
O16 C22 1.261 . S
C17 O26 1.247 . S
C17 O27 1.272 . S
O18 Co14 2.004 . S
O18 C23 1.259 . S
Co19 O20 2.061 . S
Co19 O25 2.052 . S
Co19 O27 2.135 . S
O20 Co19 2.061 . S
O20 C23 1.235 . S
C21 O24 1.238 . S
C21 O25 1.241 . S
C22 O15 1.247 . S
C22 O16 1.261 . S
C23 O18 1.259 . S
C23 O20 1.235 . S
O24 Co14 2.021 . S
O24 C21 1.238 . S
O25 Co19 2.052 . S
O25 C21 1.241 . S
O26 Co14 2.137 . S
O26 C17 1.247 . S
O27 Co14 2.244 . S
O27 C17 1.272 . S
O27 Co19 2.135 . S
Co28 O29 2.216 . S
Co28 O30 2.091 . S
Co28 O32 2.004 . S
Co28 O38 2.021 . S
Co28 O40 2.137 . S
Co28 O41 2.244 . S
O29 Co28 2.216 . S
O29 C36 1.247 . S
O30 Co28 2.091 . S
O30 C36 1.261 . S
C31 O40 1.247 . S
C31 O41 1.272 . S
O32 Co28 2.004 . S
O32 C37 1.259 . S
Co33 O34 2.061 . S
Co33 O39 2.052 . S
Co33 O41 2.135 . S
O34 Co33 2.061 . S
O34 C37 1.235 . S
C35 O38 1.238 . S
C35 O39 1.241 . S
C36 O29 1.247 . S
C36 O30 1.261 . S
C37 O32 1.259 . S
C37 O34 1.235 . S
O38 Co28 2.021 . S
O38 C35 1.238 . S
O39 Co33 2.052 . S
O39 C35 1.241 . S
O40 Co28 2.137 . S
O40 C31 1.247 . S
O41 Co28 2.244 . S
O41 C31 1.272 . S
O41 Co33 2.135 . S
Co42 O43 2.216 . S
Co42 O44 2.091 . S
Co42 O46 2.004 . S
Co42 O52 2.021 . S
Co42 O54 2.137 . S
Co42 O55 2.244 . S
O43 Co42 2.216 . S
O43 C50 1.247 . S
O44 Co42 2.091 . S
O44 C50 1.261 . S
C45 O54 1.247 . S
C45 O55 1.272 . S
O46 Co42 2.004 . S
O46 C51 1.259 . S
Co47 O48 2.061 . S
Co47 O53 2.052 . S
Co47 O55 2.135 . S
O48 Co47 2.061 . S
O48 C51 1.235 . S
C49 O52 1.238 . S
C49 O53 1.241 . S
C50 O43 1.247 . S
C50 O44 1.261 . S
C51 O46 1.259 . S
C51 O48 1.235 . S
O52 Co42 2.021 . S
O52 C49 1.238 . S
O53 Co47 2.052 . S
O53 C49 1.241 . S
O54 Co42 2.137 . S
O54 C45 1.247 . S
O55 Co42 2.244 . S
O55 C45 1.272 . S
O55 Co47 2.135 . S
Co56 O57 2.216 . S
Co56 O58 2.091 . S
Co56 O60 2.004 . S
Co56 O66 2.021 . S
Co56 O68 2.137 . S
Co56 O69 2.244 . S
O57 Co56 2.216 . S
O57 C64 1.247 . S
O58 Co56 2.091 . S
O58 C64 1.261 . S
C59 O68 1.247 . S
C59 O69 1.272 . S
O60 Co56 2.004 . S
O60 C65 1.259 . S
Co61 O62 2.061 . S
Co61 O67 2.052 . S
Co61 O69 2.135 . S
O62 Co61 2.061 . S
O62 C65 1.235 . S
C63 O66 1.238 . S
C63 O67 1.241 . S
C64 O57 1.247 . S
C64 O58 1.261 . S
C65 O60 1.259 . S
C65 O62 1.235 . S
O66 Co56 2.021 . S
O66 C63 1.238 . S
O67 Co61 2.052 . S
O67 C63 1.241 . S
O68 Co56 2.137 . S
O68 C59 1.247 . S
O69 Co56 2.244 . S
O69 C59 1.272 . S
O69 Co61 2.135 . S
Co70 O71 2.216 . S
Co70 O72 2.091 . S
Co70 O74 2.004 . S
Co70 O80 2.021 . S
Co70 O82 2.137 . S
Co70 O83 2.244 . S
O71 Co70 2.216 . S
O71 C78 1.247 . S
O72 Co70 2.091 . S
O72 C78 1.261 . S
C73 O82 1.247 . S
C73 O83 1.272 . S
O74 Co70 2.004 . S
O74 C79 1.259 . S
Co75 O76 2.061 . S
Co75 O81 2.052 . S
Co75 O83 2.135 . S
O76 Co75 2.061 . S
O76 C79 1.235 . S
C77 O80 1.238 . S
C77 O81 1.241 . S
C78 O71 1.247 . S
C78 O72 1.261 . S
C79 O74 1.259 . S
C79 O76 1.235 . S
O80 Co70 2.021 . S
O80 C77 1.238 . S
O81 Co75 2.052 . S
O81 C77 1.241 . S
O82 Co70 2.137 . S
O82 C73 1.247 . S
O83 Co70 2.244 . S
O83 C73 1.272 . S
O83 Co75 2.135 . S
Co84 O85 2.216 . S
Co84 O86 2.091 . S
Co84 O88 2.004 . S
Co84 O94 2.021 . S
Co84 O96 2.137 . S
Co84 O97 2.244 . S
O85 Co84 2.216 . S
O85 C92 1.247 . S
O86 Co84 2.091 . S
O86 C92 1.261 . S
C87 O96 1.247 . S
C87 O97 1.272 . S
O88 Co84 2.004 . S
O88 C93 1.259 . S
Co89 O90 2.061 . S
Co89 O95 2.052 . S
Co89 O97 2.135 . S
O90 Co89 2.061 . S
O90 C93 1.235 . S
C91 O94 1.238 . S
C91 O95 1.241 . S
C92 O85 1.247 . S
C92 O86 1.261 . S
C93 O88 1.259 . S
C93 O90 1.235 . S
O94 Co84 2.021 . S
O94 C91 1.238 . S
O95 Co89 2.052 . S
O95 C91 1.241 . S
O96 Co84 2.137 . S
O96 C87 1.247 . S
O97 Co84 2.244 . S
O97 C87 1.272 . S
O97 Co89 2.135 . S
Co98 O99 2.216 . S
Co98 O100 2.091 . S
Co98 O102 2.004 . S
Co98 O108 2.021 . S
Co98 O110 2.137 . S
Co98 O111 2.244 . S
O99 Co98 2.216 . S
O99 C106 1.247 . S
O100 Co98 2.091 . S
O100 C106 1.261 . S
C101 O110 1.247 . S
C101 O111 1.272 . S
O102 Co98 2.004 . S
O102 C107 1.259 . S
Co103 O104 2.061 . S
Co103 O109 2.052 . S
Co103 O111 2.135 . S
O104 Co103 2.061 . S
O104 C107 1.235 . S
C105 O108 1.238 . S
C105 O109 1.241 . S
C106 O99 1.247 . S
C106 O100 1.261 . S
C107 O102 1.259 . S
C107 O104 1.235 . S
O108 Co98 2.021 . S
O108 C105 1.238 . S
O109 Co103 2.052 . S
O109 C105 1.241 . S
O110 Co98 2.137 . S
O110 C101 1.247 . S
O111 Co98 2.244 . S
O111 C101 1.272 . S
O111 Co103 2.135 . S
C112 C113 1.349 . S
C112 C114 1.327 . S
C112 H137 0.950 . S
C113 C112 1.349 . S
C113 C129 1.349 . S
C114 C112 1.327 . S
C114 C133 1.429 . S
C114 H138 0.950 1_455 S
C115 C132 1.574 . S
C115 C134 1.368 . S
C115 H139 0.949 . S
H116 C120 0.949 . S
C117 C118 1.349 . S
C117 C119 1.327 . S
C117 H140 0.950 . S
C118 C117 1.349 . S
C118 C130 1.349 . S
C119 C117 1.327 . S
C119 C135 1.429 . S
C119 H141 0.950 1_655 S
C120 H116 0.949 . S
C120 C128 1.574 . S
C120 C136 1.368 . S
H121 C129 0.950 . S
H122 C127 0.950 . S
H123 C128 0.949 . S
H124 C130 0.950 . S
H125 C131 0.950 . S
H126 C132 0.949 . S
C127 H122 0.950 . S
C127 C129 1.327 . S
C127 C133 1.429 . S
C128 C120 1.574 . S
C128 H123 0.949 . S
C128 C134 1.368 1_655 S
C129 C113 1.349 . S
C129 H121 0.950 . S
C129 C127 1.327 . S
C130 C118 1.349 . S
C130 H124 0.950 . S
C130 C131 1.327 . S
C131 H125 0.950 . S
C131 C130 1.327 . S
C131 C135 1.429 . S
C132 C115 1.574 . S
C132 H126 0.949 . S
C132 C136 1.368 1_455 S
C133 C114 1.429 . S
C133 C127 1.429 . S
C133 C134 1.523 . S
C134 C115 1.368 . S
C134 C128 1.368 1_455 S
C134 C133 1.523 . S
C135 C119 1.429 . S
C135 C131 1.429 . S
C135 C136 1.523 . S
C136 C120 1.368 . S
C136 C132 1.368 1_655 S
C136 C135 1.523 . S
H137 C112 0.950 . S
H138 C114 0.950 1_655 S
H139 C115 0.949 . S
H140 C117 0.950 . S
H141 C119 0.950 1_455 S
C142 C143 1.349 . S
C142 C144 1.327 . S
C142 H167 0.950 . S
C143 C142 1.349 . S
C143 C159 1.349 . S
C144 C142 1.327 . S
C144 C163 1.429 . S
C144 H168 0.950 1_565 S
C145 C162 1.574 . S
C145 C164 1.368 . S
C145 H169 0.949 . S
H146 C150 0.949 . S
C147 C148 1.349 . S
C147 C149 1.327 . S
C147 H170 0.950 . S
C148 C147 1.349 . S
C148 C160 1.349 . S
C149 C147 1.327 . S
C149 C165 1.429 . S
C149 H171 0.950 1_545 S
C150 H146 0.949 . S
C150 C158 1.574 . S
C150 C166 1.368 . S
H151 C159 0.950 . S
H152 C157 0.950 . S
H153 C158 0.949 . S
H154 C160 0.950 . S
H155 C161 0.950 . S
H156 C162 0.949 . S
C157 H152 0.950 . S
C157 C159 1.327 . S
C157 C163 1.429 . S
C158 C150 1.574 . S
C158 H153 0.949 . S
C158 C164 1.368 1_545 S
C159 C143 1.349 . S
C159 H151 0.950 . S
C159 C157 1.327 . S
C160 C148 1.349 . S
C160 H154 0.950 . S
C160 C161 1.327 . S
C161 H155 0.950 . S
C161 C160 1.327 . S
C161 C165 1.429 . S
C162 C145 1.574 . S
C162 H156 0.949 . S
C162 C166 1.368 1_565 S
C163 C144 1.429 . S
C163 C157 1.429 . S
C163 C164 1.523 . S
C164 C145 1.368 . S
C164 C158 1.368 1_565 S
C164 C163 1.523 . S
C165 C149 1.429 . S
C165 C161 1.429 . S
C165 C166 1.523 . S
C166 C150 1.368 . S
C166 C162 1.368 1_545 S
C166 C165 1.523 . S
H167 C142 0.950 . S
H168 C144 0.950 1_545 S
H169 C145 0.949 . S
H170 C147 0.950 . S
H171 C149 0.950 1_565 S
C172 C173 1.349 . S
C172 C174 1.327 . S
C172 H197 0.950 . S
C173 C172 1.349 . S
C173 C189 1.349 . S
C174 C172 1.327 . S
C174 C193 1.429 . S
C174 H198 0.950 . S
C175 C192 1.574 . S
C175 C194 1.368 1_455 S
C175 H199 0.949 . S
H176 C180 0.949 . S
C177 C178 1.349 . S
C177 C179 1.327 . S
C177 H200 0.950 . S
C178 C177 1.349 . S
C178 C190 1.349 . S
C179 C177 1.327 . S
C179 C195 1.429 . S
C179 H201 0.950 . S
C180 H176 0.949 . S
C180 C188 1.574 . S
C180 C196 1.368 1_655 S
H181 C189 0.950 . S
H182 C187 0.950 1_455 S
H183 C188 0.949 . S
H184 C190 0.950 . S
H185 C191 0.950 1_655 S
H186 C192 0.949 . S
C187 H182 0.950 1_655 S
C187 C189 1.327 . S
C187 C193 1.429 . S
C188 C180 1.574 . S
C188 H183 0.949 . S
C188 C194 1.368 . S
C189 C173 1.349 . S
C189 H181 0.950 . S
C189 C187 1.327 . S
C190 C178 1.349 . S
C190 H184 0.950 . S
C190 C191 1.327 . S
C191 H185 0.950 1_455 S
C191 C190 1.327 . S
C191 C195 1.429 . S
C192 C175 1.574 . S
C192 H186 0.949 . S
C192 C196 1.368 . S
C193 C174 1.429 . S
C193 C187 1.429 . S
C193 C194 1.523 . S
C194 C175 1.368 1_655 S
C194 C188 1.368 . S
C194 C193 1.523 . S
C195 C179 1.429 . S
C195 C191 1.429 . S
C195 C196 1.523 . S
C196 C180 1.368 1_455 S
C196 C192 1.368 . S
C196 C195 1.523 . S
H197 C172 0.950 . S
H198 C174 0.950 . S
H199 C175 0.949 . S
H200 C177 0.950 . S
H201 C179 0.950 . S
C202 C203 1.349 . S
C202 C204 1.327 . S
C202 H227 0.950 . S
C203 C202 1.349 . S
C203 C219 1.349 . S
C204 C202 1.327 . S
C204 C223 1.429 . S
C204 H228 0.950 1_545 S
C205 C222 1.574 . S
C205 C224 1.368 . S
C205 H229 0.949 . S
H206 C210 0.949 . S
C207 C208 1.349 . S
C207 C209 1.327 . S
C207 H230 0.950 . S
C208 C207 1.349 . S
C208 C220 1.349 . S
C209 C207 1.327 . S
C209 C225 1.429 . S
C209 H231 0.950 1_565 S
C210 H206 0.949 . S
C210 C218 1.574 . S
C210 C226 1.368 . S
H211 C219 0.950 . S
H212 C217 0.950 . S
H213 C218 0.949 . S
H214 C220 0.950 . S
H215 C221 0.950 . S
H216 C222 0.949 . S
C217 H212 0.950 . S
C217 C219 1.327 . S
C217 C223 1.429 . S
C218 C210 1.574 . S
C218 H213 0.949 . S
C218 C224 1.368 1_565 S
C219 C203 1.349 . S
C219 H211 0.950 . S
C219 C217 1.327 . S
C220 C208 1.349 . S
C220 H214 0.950 . S
C220 C221 1.327 . S
C221 H215 0.950 . S
C221 C220 1.327 . S
C221 C225 1.429 . S
C222 C205 1.574 . S
C222 H216 0.949 . S
C222 C226 1.368 1_545 S
C223 C204 1.429 . S
C223 C217 1.429 . S
C223 C224 1.523 . S
C224 C205 1.368 . S
C224 C218 1.368 1_545 S
C224 C223 1.523 . S
C225 C209 1.429 . S
C225 C221 1.429 . S
C225 C226 1.523 . S
C226 C210 1.368 . S
C226 C222 1.368 1_565 S
C226 C225 1.523 . S
H227 C202 0.950 . S
H228 C204 0.950 1_565 S
H229 C205 0.949 . S
H230 C207 0.950 . S
H231 C209 0.950 1_545 S
C232 C233 1.349 . S
C232 C234 1.327 . S
C232 H257 0.950 . S
C233 C232 1.349 . S
C233 C249 1.349 . S
C234 C232 1.327 . S
C234 C253 1.429 . S
C234 H258 0.950 . S
C235 C252 1.574 1_556 S
C235 C254 1.368 1_455 S
C235 H259 0.949 . S
H236 C240 0.949 . S
C237 C238 1.349 . S
C237 C239 1.327 . S
C237 H260 0.950 . S
C238 C237 1.349 . S
C238 C250 1.349 . S
C239 C237 1.327 . S
C239 C255 1.429 . S
C239 H261 0.950 . S
C240 H236 0.949 . S
C240 C248 1.574 1_554 S
C240 C256 1.368 1_655 S
H241 C249 0.950 . S
H242 C247 0.950 . S
H243 C248 0.949 . S
H244 C250 0.950 . S
H245 C251 0.950 . S
H246 C252 0.949 . S
C247 H242 0.950 . S
C247 C249 1.327 . S
C247 C253 1.429 . S
C248 C240 1.574 1_556 S
C248 H243 0.949 . S
C248 C254 1.368 . S
C249 C233 1.349 . S
C249 H241 0.950 . S
C249 C247 1.327 . S
C250 C238 1.349 . S
C250 H244 0.950 . S
C250 C251 1.327 . S
C251 H245 0.950 . S
C251 C250 1.327 . S
C251 C255 1.429 . S
C252 C235 1.574 1_554 S
C252 H246 0.949 . S
C252 C256 1.368 . S
C253 C234 1.429 . S
C253 C247 1.429 . S
C253 C254 1.523 . S
C254 C235 1.368 1_655 S
C254 C248 1.368 . S
C254 C253 1.523 . S
C255 C239 1.429 . S
C255 C251 1.429 . S
C255 C256 1.523 . S
C256 C240 1.368 1_455 S
C256 C252 1.368 . S
C256 C255 1.523 . S
H257 C232 0.950 . S
H258 C234 0.950 . S
H259 C235 0.949 . S
H260 C237 0.950 . S
H261 C239 0.950 . S
C262 C263 1.349 . S
C262 C264 1.327 . S
C262 H287 0.950 . S
C263 C262 1.349 . S
C263 C279 1.349 . S
C264 C262 1.327 . S
C264 C283 1.429 . S
C264 H288 0.950 . S
C265 C282 1.574 . S
C265 C284 1.368 1_565 S
C265 H289 0.949 . S
H266 C270 0.949 . S
C267 C268 1.349 . S
C267 C269 1.327 . S
C267 H290 0.950 . S
C268 C267 1.349 . S
C268 C280 1.349 . S
C269 C267 1.327 . S
C269 C285 1.429 . S
C269 H291 0.950 . S
C270 H266 0.949 . S
C270 C278 1.574 . S
C270 C286 1.368 1_545 S
H271 C279 0.950 . S
H272 C277 0.950 . S
H273 C278 0.949 . S
H274 C280 0.950 . S
H275 C281 0.950 . S
H276 C282 0.949 . S
C277 H272 0.950 . S
C277 C279 1.327 . S
C277 C283 1.429 . S
C278 C270 1.574 . S
C278 H273 0.949 . S
C278 C284 1.368 . S
C279 C263 1.349 . S
C279 H271 0.950 . S
C279 C277 1.327 . S
C280 C268 1.349 . S
C280 H274 0.950 . S
C280 C281 1.327 . S
C281 H275 0.950 . S
C281 C280 1.327 . S
C281 C285 1.429 . S
C282 C265 1.574 . S
C282 H276 0.949 . S
C282 C286 1.368 . S
C283 C264 1.429 . S
C283 C277 1.429 . S
C283 C284 1.523 . S
C284 C265 1.368 1_545 S
C284 C278 1.368 . S
C284 C283 1.523 . S
C285 C269 1.429 . S
C285 C281 1.429 . S
C285 C286 1.523 . S
C286 C270 1.368 1_565 S
C286 C282 1.368 . S
C286 C285 1.523 . S
H287 C262 0.950 . S
H288 C264 0.950 . S
H289 C265 0.949 . S
H290 C267 0.950 . S
H291 C269 0.950 . S
C292 C293 1.349 . S
C292 C294 1.327 . S
C292 H317 0.950 . S
C293 C292 1.349 . S
C293 C309 1.349 . S
C294 C292 1.327 . S
C294 C313 1.429 . S
C294 H318 0.950 . S
C295 C312 1.574 1_554 S
C295 C314 1.368 1_455 S
C295 H319 0.949 . S
H296 C300 0.949 . S
C297 C298 1.349 . S
C297 C299 1.327 . S
C297 H320 0.950 . S
C298 C297 1.349 . S
C298 C310 1.349 . S
C299 C297 1.327 . S
C299 C315 1.429 . S
C299 H321 0.950 . S
C300 H296 0.949 . S
C300 C308 1.574 1_556 S
C300 C316 1.368 1_655 S
H301 C309 0.950 . S
H302 C307 0.950 . S
H303 C308 0.949 . S
H304 C310 0.950 . S
H305 C311 0.950 . S
H306 C312 0.949 . S
C307 H302 0.950 . S
C307 C309 1.327 . S
C307 C313 1.429 . S
C308 C300 1.574 1_554 S
C308 H303 0.949 . S
C308 C314 1.368 . S
C309 C293 1.349 . S
C309 H301 0.950 . S
C309 C307 1.327 . S
C310 C298 1.349 . S
C310 H304 0.950 . S
C310 C311 1.327 . S
C311 H305 0.950 . S
C311 C310 1.327 . S
C311 C315 1.429 . S
C312 C295 1.574 1_556 S
C312 H306 0.949 . S
C312 C316 1.368 . S
C313 C294 1.429 . S
C313 C307 1.429 . S
C313 C314 1.523 . S
C314 C295 1.368 1_655 S
C314 C308 1.368 . S
C314 C313 1.523 . S
C315 C299 1.429 . S
C315 C311 1.429 . S
C315 C316 1.523 . S
C316 C300 1.368 1_455 S
C316 C312 1.368 . S
C316 C315 1.523 . S
H317 C292 0.950 . S
H318 C294 0.950 . S
H319 C295 0.949 . S
H320 C297 0.950 . S
H321 C299 0.950 . S
C322 C323 1.349 . S
C322 C324 1.327 . S
C322 H347 0.950 . S
C323 C322 1.349 . S
C323 C339 1.349 . S
C324 C322 1.327 . S
C324 C343 1.429 . S
C324 H348 0.950 . S
C325 C342 1.574 . S
C325 C344 1.368 . S
C325 H349 0.949 . S
H326 C330 0.949 . S
C327 C328 1.349 . S
C327 C329 1.327 . S
C327 H350 0.950 . S
C328 C327 1.349 . S
C328 C340 1.349 . S
C329 C327 1.327 . S
C329 C345 1.429 . S
C329 H351 0.950 . S
C330 H326 0.949 . S
C330 C338 1.574 . S
C330 C346 1.368 . S
H331 C339 0.950 . S
H332 C337 0.950 . S
H333 C338 0.949 . S
H334 C340 0.950 . S
H335 C341 0.950 . S
H336 C342 0.949 . S
C337 H332 0.950 . S
C337 C339 1.327 . S
C337 C343 1.429 . S
C338 C330 1.574 . S
C338 H333 0.949 . S
C338 C344 1.368 1_565 S
C339 C323 1.349 . S
C339 H331 0.950 . S
C339 C337 1.327 . S
C340 C328 1.349 . S
C340 H334 0.950 . S
C340 C341 1.327 . S
C341 H335 0.950 . S
C341 C340 1.327 . S
C341 C345 1.429 . S
C342 C325 1.574 . S
C342 H336 0.949 . S
C342 C346 1.368 1_545 S
C343 C324 1.429 . S
C343 C337 1.429 . S
C343 C344 1.523 . S
C344 C325 1.368 . S
C344 C338 1.368 1_545 S
C344 C343 1.523 . S
C345 C329 1.429 . S
C345 C341 1.429 . S
C345 C346 1.523 . S
C346 C330 1.368 . S
C346 C342 1.368 1_565 S
C346 C345 1.523 . S
H347 C322 0.950 . S
H348 C324 0.950 . S
H349 C325 0.949 . S
H350 C327 0.950 . S
H351 C329 0.950 . S
C352 C353 1.349 . S
C352 C354 1.327 . S
C352 H377 0.950 . S
C353 C352 1.349 . S
C353 C369 1.349 . S
C354 C352 1.327 . S
C354 C373 1.429 . S
C354 H378 0.950 . S
C355 C372 1.574 . S
C355 C374 1.368 . S
C355 H379 0.949 . S
H356 C360 0.949 . S
C357 C358 1.349 . S
C357 C359 1.327 . S
C357 H380 0.950 . S
C358 C357 1.349 . S
C358 C370 1.349 . S
C359 C357 1.327 . S
C359 C375 1.429 . S
C359 H381 0.950 . S
C360 H356 0.949 . S
C360 C368 1.574 . S
C360 C376 1.368 . S
H361 C369 0.950 . S
H362 C367 0.950 . S
H363 C368 0.949 . S
H364 C370 0.950 . S
H365 C371 0.950 . S
H366 C372 0.949 . S
C367 H362 0.950 . S
C367 C369 1.327 . S
C367 C373 1.429 . S
C368 C360 1.574 . S
C368 H363 0.949 . S
C368 C374 1.368 . S
C369 C353 1.349 . S
C369 H361 0.950 . S
C369 C367 1.327 . S
C370 C358 1.349 . S
C370 H364 0.950 . S
C370 C371 1.327 . S
C371 H365 0.950 . S
C371 C370 1.327 . S
C371 C375 1.429 . S
C372 C355 1.574 . S
C372 H366 0.949 . S
C372 C376 1.368 . S
C373 C354 1.429 . S
C373 C367 1.429 . S
C373 C374 1.523 . S
C374 C355 1.368 . S
C374 C368 1.368 . S
C374 C373 1.523 . S
C375 C359 1.429 . S
C375 C371 1.429 . S
C375 C376 1.523 . S
C376 C360 1.368 . S
C376 C372 1.368 . S
C376 C375 1.523 . S
H377 C352 0.950 . S
H378 C354 0.950 . S
H379 C355 0.949 . S
H380 C357 0.950 . S
H381 C359 0.950 . S
C382 C383 1.349 . S
C382 C384 1.327 . S
C382 H407 0.950 . S
C383 C382 1.349 . S
C383 C399 1.349 . S
C384 C382 1.327 . S
C384 C403 1.429 . S
C384 H408 0.950 . S
C385 C402 1.574 . S
C385 C404 1.368 . S
C385 H409 0.949 . S
H386 C390 0.949 . S
C387 C388 1.349 . S
C387 C389 1.327 . S
C387 H410 0.950 . S
C388 C387 1.349 . S
C388 C400 1.349 . S
C389 C387 1.327 . S
C389 C405 1.429 . S
C389 H411 0.950 . S
C390 H386 0.949 . S
C390 C398 1.574 . S
C390 C406 1.368 . S
H391 C399 0.950 . S
H392 C397 0.950 . S
H393 C398 0.949 . S
H394 C400 0.950 . S
H395 C401 0.950 . S
H396 C402 0.949 . S
C397 H392 0.950 . S
C397 C399 1.327 . S
C397 C403 1.429 . S
C398 C390 1.574 . S
C398 H393 0.949 . S
C398 C404 1.368 . S
C399 C383 1.349 . S
C399 H391 0.950 . S
C399 C397 1.327 . S
C400 C388 1.349 . S
C400 H394 0.950 . S
C400 C401 1.327 . S
C401 H395 0.950 . S
C401 C400 1.327 . S
C401 C405 1.429 . S
C402 C385 1.574 . S
C402 H396 0.949 . S
C402 C406 1.368 . S
C403 C384 1.429 . S
C403 C397 1.429 . S
C403 C404 1.523 . S
C404 C385 1.368 . S
C404 C398 1.368 . S
C404 C403 1.523 . S
C405 C389 1.429 . S
C405 C401 1.429 . S
C405 C406 1.523 . S
C406 C390 1.368 . S
C406 C402 1.368 . S
C406 C405 1.523 . S
H407 C382 0.950 . S
H408 C384 0.950 . S
H409 C385 0.949 . S
H410 C387 0.950 . S
H411 C389 0.950 . S
C412 C413 1.349 . S
C412 C414 1.327 . S
C412 H437 0.950 . S
C413 C412 1.349 . S
C413 C429 1.349 . S
C414 C412 1.327 . S
C414 C433 1.429 . S
C414 H438 0.950 . S
C415 C432 1.574 . S
C415 C434 1.368 . S
C415 H439 0.949 . S
H416 C420 0.949 . S
C417 C418 1.349 . S
C417 C419 1.327 . S
C417 H440 0.950 . S
C418 C417 1.349 . S
C418 C430 1.349 . S
C419 C417 1.327 . S
C419 C435 1.429 . S
C419 H441 0.950 . S
C420 H416 0.949 . S
C420 C428 1.574 . S
C420 C436 1.368 . S
H421 C429 0.950 . S
H422 C427 0.950 . S
H423 C428 0.949 . S
H424 C430 0.950 . S
H425 C431 0.950 . S
H426 C432 0.949 . S
C427 H422 0.950 . S
C427 C429 1.327 . S
C427 C433 1.429 . S
C428 C420 1.574 . S
C428 H423 0.949 . S
C428 C434 1.368 . S
C429 C413 1.349 . S
C429 H421 0.950 . S
C429 C427 1.327 . S
C430 C418 1.349 . S
C430 H424 0.950 . S
C430 C431 1.327 . S
C431 H425 0.950 . S
C431 C430 1.327 . S
C431 C435 1.429 . S
C432 C415 1.574 . S
C432 H426 0.949 . S
C432 C436 1.368 . S
C433 C414 1.429 . S
C433 C427 1.429 . S
C433 C434 1.523 . S
C434 C415 1.368 . S
C434 C428 1.368 . S
C434 C433 1.523 . S
C435 C419 1.429 . S
C435 C431 1.429 . S
C435 C436 1.523 . S
C436 C420 1.368 . S
C436 C432 1.368 . S
C436 C435 1.523 . S
H437 C412 0.950 . S
H438 C414 0.950 . S
H439 C415 0.949 . S
H440 C417 0.950 . S
H441 C419 0.950 . S
C442 C443 1.349 . S
C442 C444 1.327 . S
C442 H467 0.950 . S
C443 C442 1.349 . S
C443 C459 1.349 . S
C444 C442 1.327 . S
C444 C463 1.429 . S
C444 H468 0.950 . S
C445 C462 1.574 . S
C445 C464 1.368 . S
C445 H469 0.949 . S
H446 C450 0.949 . S
C447 C448 1.349 . S
C447 C449 1.327 . S
C447 H470 0.950 . S
C448 C447 1.349 . S
C448 C460 1.349 . S
C449 C447 1.327 . S
C449 C465 1.429 . S
C449 H471 0.950 . S
C450 H446 0.949 . S
C450 C458 1.574 . S
C450 C466 1.368 . S
H451 C459 0.950 . S
H452 C457 0.950 . S
H453 C458 0.949 . S
H454 C460 0.950 . S
H455 C461 0.950 . S
H456 C462 0.949 . S
C457 H452 0.950 . S
C457 C459 1.327 . S
C457 C463 1.429 . S
C458 C450 1.574 . S
C458 H453 0.949 . S
C458 C464 1.368 . S
C459 C443 1.349 . S
C459 H451 0.950 . S
C459 C457 1.327 . S
C460 C448 1.349 . S
C460 H454 0.950 . S
C460 C461 1.327 . S
C461 H455 0.950 . S
C461 C460 1.327 . S
C461 C465 1.429 . S
C462 C445 1.574 . S
C462 H456 0.949 . S
C462 C466 1.368 . S
C463 C444 1.429 . S
C463 C457 1.429 . S
C463 C464 1.523 . S
C464 C445 1.368 . S
C464 C458 1.368 . S
C464 C463 1.523 . S
C465 C449 1.429 . S
C465 C461 1.429 . S
C465 C466 1.523 . S
C466 C450 1.368 . S
C466 C462 1.368 . S
C466 C465 1.523 . S
H467 C442 0.950 . S
H468 C444 0.950 . S
H469 C445 0.949 . S
H470 C447 0.950 . S
H471 C449 0.950 . S
C472 C473 1.349 . S
C472 C474 1.327 . S
C472 H497 0.950 . S
C473 C472 1.349 . S
C473 C489 1.349 . S
C474 C472 1.327 . S
C474 C493 1.429 . S
C474 H498 0.950 . S
C475 C492 1.574 1_545 S
C475 C494 1.368 1_655 S
C475 H499 0.949 . S
H476 C480 0.949 . S
C477 C478 1.349 . S
C477 C479 1.327 . S
C477 H500 0.950 . S
C478 C477 1.349 . S
C478 C490 1.349 . S
C479 C477 1.327 . S
C479 C495 1.429 . S
C479 H501 0.950 . S
C480 H476 0.949 . S
C480 C488 1.574 1_565 S
C480 C496 1.368 1_455 S
H481 C489 0.950 . S
H482 C487 0.950 1_655 S
H483 C488 0.949 . S
H484 C490 0.950 . S
H485 C491 0.950 1_455 S
H486 C492 0.949 . S
C487 H482 0.950 1_455 S
C487 C489 1.327 . S
C487 C493 1.429 . S
C488 C480 1.574 1_545 S
C488 H483 0.949 . S
C488 C494 1.368 . S
C489 C473 1.349 . S
C489 H481 0.950 . S
C489 C487 1.327 . S
C490 C478 1.349 . S
C490 H484 0.950 . S
C490 C491 1.327 . S
C491 H485 0.950 1_655 S
C491 C490 1.327 . S
C491 C495 1.429 . S
C492 C475 1.574 1_565 S
C492 H486 0.949 . S
C492 C496 1.368 . S
C493 C474 1.429 . S
C493 C487 1.429 . S
C493 C494 1.523 . S
C494 C475 1.368 1_455 S
C494 C488 1.368 . S
C494 C493 1.523 . S
C495 C479 1.429 . S
C495 C491 1.429 . S
C495 C496 1.523 . S
C496 C480 1.368 1_655 S
C496 C492 1.368 . S
C496 C495 1.523 . S
H497 C472 0.950 . S
H498 C474 0.950 . S
H499 C475 0.949 . S
H500 C477 0.950 . S
H501 C479 0.950 . S
C502 C503 1.349 . S
C502 C504 1.327 . S
C502 H527 0.950 . S
C503 C502 1.349 . S
C503 C519 1.349 . S
C504 C502 1.327 . S
C504 C523 1.429 . S
C504 H528 0.950 . S
C505 C522 1.574 1_455 S
C505 C524 1.368 1_545 S
C505 H529 0.949 . S
H506 C510 0.949 . S
C507 C508 1.349 . S
C507 C509 1.327 . S
C507 H530 0.950 . S
C508 C507 1.349 . S
C508 C520 1.349 . S
C509 C507 1.327 . S
C509 C525 1.429 . S
C509 H531 0.950 . S
C510 H506 0.949 . S
C510 C518 1.574 1_655 S
C510 C526 1.368 1_565 S
H511 C519 0.950 . S
H512 C517 0.950 1_545 S
H513 C518 0.949 . S
H514 C520 0.950 . S
H515 C521 0.950 1_565 S
H516 C522 0.949 . S
C517 H512 0.950 1_565 S
C517 C519 1.327 . S
C517 C523 1.429 . S
C518 C510 1.574 1_455 S
C518 H513 0.949 . S
C518 C524 1.368 . S
C519 C503 1.349 . S
C519 H511 0.950 . S
C519 C517 1.327 . S
C520 C508 1.349 . S
C520 H514 0.950 . S
C520 C521 1.327 . S
C521 H515 0.950 1_545 S
C521 C520 1.327 . S
C521 C525 1.429 . S
C522 C505 1.574 1_655 S
C522 H516 0.949 . S
C522 C526 1.368 . S
C523 C504 1.429 . S
C523 C517 1.429 . S
C523 C524 1.523 . S
C524 C505 1.368 1_565 S
C524 C518 1.368 . S
C524 C523 1.523 . S
C525 C509 1.429 . S
C525 C521 1.429 . S
C525 C526 1.523 . S
C526 C510 1.368 1_545 S
C526 C522 1.368 . S
C526 C525 1.523 . S
H527 C502 0.950 . S
H528 C504 0.950 . S
H529 C505 0.949 . S
H530 C507 0.950 . S
H531 C509 0.950 . S
C532 C533 1.349 . S
C532 C534 1.327 . S
C532 H557 0.950 . S
C533 C532 1.349 . S
C533 C549 1.349 . S
C534 C532 1.327 . S
C534 C553 1.429 . S
C534 H558 0.950 1_655 S
C535 C552 1.574 1_545 S
C535 C554 1.368 . S
C535 H559 0.949 . S
H536 C540 0.949 . S
C537 C538 1.349 . S
C537 C539 1.327 . S
C537 H560 0.950 . S
C538 C537 1.349 . S
C538 C550 1.349 . S
C539 C537 1.327 . S
C539 C555 1.429 . S
C539 H561 0.950 1_455 S
C540 H536 0.949 . S
C540 C548 1.574 1_565 S
C540 C556 1.368 . S
H541 C549 0.950 . S
H542 C547 0.950 . S
H543 C548 0.949 . S
H544 C550 0.950 . S
H545 C551 0.950 . S
H546 C552 0.949 . S
C547 H542 0.950 . S
C547 C549 1.327 . S
C547 C553 1.429 . S
C548 C540 1.574 1_545 S
C548 H543 0.949 . S
C548 C554 1.368 1_455 S
C549 C533 1.349 . S
C549 H541 0.950 . S
C549 C547 1.327 . S
C550 C538 1.349 . S
C550 H544 0.950 . S
C550 C551 1.327 . S
C551 H545 0.950 . S
C551 C550 1.327 . S
C551 C555 1.429 . S
C552 C535 1.574 1_565 S
C552 H546 0.949 . S
C552 C556 1.368 1_655 S
C553 C534 1.429 . S
C553 C547 1.429 . S
C553 C554 1.523 . S
C554 C535 1.368 . S
C554 C548 1.368 1_655 S
C554 C553 1.523 . S
C555 C539 1.429 . S
C555 C551 1.429 . S
C555 C556 1.523 . S
C556 C540 1.368 . S
C556 C552 1.368 1_455 S
C556 C555 1.523 . S
H557 C532 0.950 . S
H558 C534 0.950 1_455 S
H559 C535 0.949 . S
H560 C537 0.950 . S
H561 C539 0.950 1_655 S
C562 C563 1.349 . S
C562 C564 1.327 . S
C562 H587 0.950 . S
C563 C562 1.349 . S
C563 C579 1.349 . S
C564 C562 1.327 . S
C564 C583 1.429 . S
C564 H588 0.950 . S
C565 C582 1.574 1_655 S
C565 C584 1.368 1_545 S
C565 H589 0.949 . S
H566 C570 0.949 . S
C567 C568 1.349 . S
C567 C569 1.327 . S
C567 H590 0.950 . S
C568 C567 1.349 . S
C568 C580 1.349 . S
C569 C567 1.327 . S
C569 C585 1.429 . S
C569 H591 0.950 . S
C570 H566 0.949 . S
C570 C578 1.574 1_455 S
C570 C586 1.368 1_565 S
H571 C579 0.950 . S
H572 C577 0.950 1_545 S
H573 C578 0.949 . S
H574 C580 0.950 . S
H575 C581 0.950 1_565 S
H576 C582 0.949 . S
C577 H572 0.950 1_565 S
C577 C579 1.327 . S
C577 C583 1.429 . S
C578 C570 1.574 1_655 S
C578 H573 0.949 . S
C578 C584 1.368 . S
C579 C563 1.349 . S
C579 H571 0.950 . S
C579 C577 1.327 . S
C580 C568 1.349 . S
C580 H574 0.950 . S
C580 C581 1.327 . S
C581 H575 0.950 1_545 S
C581 C580 1.327 . S
C581 C585 1.429 . S
C582 C565 1.574 1_455 S
C582 H576 0.949 . S
C582 C586 1.368 . S
C583 C564 1.429 . S
C583 C577 1.429 . S
C583 C584 1.523 . S
C584 C565 1.368 1_565 S
C584 C578 1.368 . S
C584 C583 1.523 . S
C585 C569 1.429 . S
C585 C581 1.429 . S
C585 C586 1.523 . S
C586 C570 1.368 1_545 S
C586 C582 1.368 . S
C586 C585 1.523 . S
H587 C562 0.950 . S
H588 C564 0.950 . S
H589 C565 0.949 . S
H590 C567 0.950 . S
H591 C569 0.950 . S
C113 C3 1.331 . S
C118 C31 1.331 . S
C143 C50 1.364 . S
C148 C22 1.364 . S
C173 C87 1.331 . S
C178 C59 1.331 . S
C203 C78 1.364 . S
C208 C106 1.364 . S
C233 C93 1.409 . S
C238 C9 1.409 . S
C263 C21 1.425 . S
C268 C105 1.425 . S
C293 C37 1.409 . S
C298 C65 1.409 . S
C323 C77 1.425 . S
C328 C49 1.425 . S
C353 C8 1.337 . S
C358 C73 1.303 . S
C383 C92 1.337 . S
C388 C17 1.303 . S
C413 C101 1.303 . S
C418 C36 1.337 . S
C443 C45 1.303 . S
C448 C64 1.337 . S
C473 C7 0.768 . S
C478 C35 0.768 . S
C503 C51 0.803 . S
C508 C23 0.803 . S
C533 C91 0.768 . S
C538 C63 0.768 . S
C563 C107 0.803 . S
C568 C79 0.803 . S
