# Generated by pormake.
# Topology rkf, (6)-cn, num edge types: 1
# Building blocks:
#     Node 0, Type 0, BuildingBlock: BETFAJ_clean_sbu_0, # of connection points: 6
#     Node 1, Type 0, BuildingBlock: BETFAJ_clean_sbu_0, # of connection points: 6
#     Node 2, Type 0, BuildingBlock: BETFAJ_clean_sbu_0, # of connection points: 6
#     Node 3, Type 0, BuildingBlock: BETFAJ_clean_sbu_0, # of connection points: 6
#     Node 4, Type 0, BuildingBlock: BETFAJ_clean_sbu_0, # of connection points: 6
#     Node 5, Type 0, BuildingBlock: BETFAJ_clean_sbu_0, # of connection points: 6
#     Edge 6, Type (0, 0), BuildingBlock: KIFKEQ_clean_linker_1, # of connection points: 2
#     Edge 7, Type (0, 0), BuildingBlock: KIFKEQ_clean_linker_1, # of connection points: 2
#     Edge 8, Type (0, 0), BuildingBlock: KIFKEQ_clean_linker_1, # of connection points: 2
#     Edge 9, Type (0, 0), BuildingBlock: KIFKEQ_clean_linker_1, # of connection points: 2
#     Edge 10, Type (0, 0), BuildingBlock: KIFKEQ_clean_linker_1, # of connection points: 2
#     Edge 11, Type (0, 0), BuildingBlock: KIFKEQ_clean_linker_1, # of connection points: 2
#     Edge 12, Type (0, 0), BuildingBlock: KIFKEQ_clean_linker_1, # of connection points: 2
#     Edge 13, Type (0, 0), BuildingBlock: KIFKEQ_clean_linker_1, # of connection points: 2
#     Edge 14, Type (0, 0), BuildingBlock: KIFKEQ_clean_linker_1, # of connection points: 2
#     Edge 15, Type (0, 0), BuildingBlock: KIFKEQ_clean_linker_1, # of connection points: 2
#     Edge 16, Type (0, 0), BuildingBlock: KIFKEQ_clean_linker_1, # of connection points: 2
#     Edge 17, Type (0, 0), BuildingBlock: KIFKEQ_clean_linker_1, # of connection points: 2
#     Edge 18, Type (0, 0), BuildingBlock: KIFKEQ_clean_linker_1, # of connection points: 2
#     Edge 19, Type (0, 0), BuildingBlock: KIFKEQ_clean_linker_1, # of connection points: 2
#     Edge 20, Type (0, 0), BuildingBlock: KIFKEQ_clean_linker_1, # of connection points: 2
#     Edge 21, Type (0, 0), BuildingBlock: KIFKEQ_clean_linker_1, # of connection points: 2
#     Edge 22, Type (0, 0), BuildingBlock: KIFKEQ_clean_linker_1, # of connection points: 2
#     Edge 23, Type (0, 0), BuildingBlock: KIFKEQ_clean_linker_1, # of connection points: 2
# Relax obj value: 0.702
# Max RMSD: 0.248
# Mean RMSD: 0.248
data_MOF--net-rkf--node1-BETFAJ_clean_sbu_0--edge1-KIFKEQ_clean_linker_1
_symmetry_space_group_name_H-M    P1
_symmetry_Int_Tables_number       1
_symmetry_cell_setting            triclinic
loop_
_symmetry_equiv_pos_as_xyz
'x, y, z'
_cell_length_a     25.754811
_cell_length_b     25.727435
_cell_length_c     45.413961
_cell_angle_alpha  90.169711
_cell_angle_beta   89.287183
_cell_angle_gamma 119.93127
loop_
_atom_site_label
_atom_site_type_symbol
_atom_site_fract_x
_atom_site_fract_y
_atom_site_fract_z
_atom_type_partial_charge
Sm0 Sm 0.25768 0.02509 0.15564 0.0
Sm1 Sm 0.35207 0.15119 1.13636 0.0
C2 C 0.20472 0.91333 0.1752 0.0
C3 C 0.2085 0.88008 0.20042 0.0
C4 C 0.19729 0.82129 0.19651 0.0
C5 C 0.20135 0.78911 0.22026 0.0
C6 C 0.2167 0.81539 0.24831 0.0
C7 C 0.2292 0.87503 0.25181 0.0
C8 C 0.22551 0.90715 0.22806 0.0
C9 C 0.21565 0.09983 1.14097 0.0
C10 C 0.31812 0.13146 0.20758 0.0
C11 C 0.42688 0.26152 1.11729 0.0
C12 C 0.44212 0.30364 1.0928 0.0
C13 C 0.40912 0.28659 1.0668 0.0
C14 C 0.42164 0.32903 1.0447 0.0
C15 C 0.4672 0.38912 1.04836 0.0
C16 C 0.50128 0.40535 1.07414 0.0
C17 C 0.4888 0.36282 1.09617 0.0
C18 C 0.39533 0.0776 0.15322 0.0
C19 C 0.26436 0.05072 1.08487 0.0
O20 O 0.25146 0.93627 0.15756 0.0
O21 O 0.18337 0.94946 0.18012 0.0
O22 O 0.26142 0.11314 0.15544 0.0
O23 O 0.1851 0.04248 1.13567 0.0
O24 O 0.29138 0.07279 0.20188 0.0
O25 O 0.34052 0.17084 0.18557 0.0
O26 O 0.37698 0.24661 1.13159 0.0
O27 O 0.43633 0.21653 1.1134 0.0
O28 O 0.35098 0.06288 1.13698 0.0
O29 O 0.41819 0.13287 0.16148 0.0
O30 O 0.30167 0.10847 1.09127 0.0
O31 O 0.24574 0.00933 1.10573 0.0
H32 H 0.18502 0.80016 0.17509 0.0
H33 H 0.19179 0.74354 0.21675 0.0
H34 H 0.2397 0.89646 0.27316 0.0
H35 H 0.23512 0.95281 0.23141 0.0
H36 H 0.37277 0.24101 1.06398 0.0
H37 H 0.39389 0.31535 1.02531 0.0
H38 H 0.53676 0.45113 1.07749 0.0
H39 H 0.51471 0.37649 1.1162 0.0
Sm40 Sm 0.33483 0.27686 0.49016 0.0
Sm41 Sm 0.28353 0.35672 0.4726 0.0
C42 C 0.4037 0.23415 0.50776 0.0
C43 C 0.43976 0.23225 0.53197 0.0
C44 C 0.49011 0.22677 0.52533 0.0
C45 C 0.52099 0.21714 0.54775 0.0
C46 C 0.50176 0.2127 0.57719 0.0
C47 C 0.45344 0.22212 0.58383 0.0
C48 C 0.42275 0.23192 0.56139 0.0
C49 C 0.22223 0.21796 0.46766 0.0
C50 C 0.26787 0.31693 0.54246 0.0
C51 C 0.23226 0.41701 0.45295 0.0
C52 C 0.1878 0.41312 0.432 0.0
C53 C 0.16729 0.37073 0.4093 0.0
C54 C 0.12394 0.36735 0.38996 0.0
C55 C 0.10034 0.40605 0.39322 0.0
C56 C 0.12092 0.44814 0.41614 0.0
C57 C 0.16444 0.45168 0.43534 0.0
C58 C 0.39876 0.4161 0.49372 0.0
C59 C 0.32078 0.28951 0.41902 0.0
O60 O 0.42452 0.28532 0.49385 0.0
O61 O 0.34528 0.20531 0.51138 0.0
O62 O 0.24193 0.26113 0.48523 0.0
O63 O 0.25986 0.19866 0.46415 0.0
O64 O 0.30864 0.30041 0.53677 0.0
O65 O 0.24538 0.33322 0.52053 0.0
O66 O 0.21147 0.37994 0.47525 0.0
O67 O 0.28242 0.42343 0.44208 0.0
O68 O 0.37812 0.3731 0.47597 0.0
O69 O 0.35873 0.43083 0.50001 0.0
O70 O 0.28863 0.31542 0.42644 0.0
O71 O 0.34953 0.27744 0.43952 0.0
H72 H 0.5041 0.22753 0.50265 0.0
H73 H 0.55832 0.21071 0.54195 0.0
H74 H 0.43671 0.2181 0.60619 0.0
H75 H 0.38422 0.23657 0.56693 0.0
H76 H 0.18453 0.3402 0.40667 0.0
H77 H 0.10825 0.33392 0.37271 0.0
H78 H 0.10385 0.47874 0.41901 0.0
H79 H 0.17979 0.48449 0.45289 0.0
Sm80 Sm 0.1083 0.36361 0.82184 0.0
Sm81 Sm -0.00025 0.24155 0.80547 0.0
C82 C 0.17851 0.47516 0.83983 0.0
C83 C 0.22034 0.5029 0.86427 0.0
C84 C 0.27809 0.55102 0.85845 0.0
C85 C 0.32241 0.57015 0.87986 0.0
C86 C 0.3094 0.5416 0.90748 0.0
C87 C 0.25035 0.49611 0.91385 0.0
C88 C 0.2063 0.47671 0.8924 0.0
C89 C 0.13396 0.27339 0.82009 0.0
C90 C 0.01878 0.26851 0.87593 0.0
C91 C 0.91345 0.13635 0.78697 0.0
C92 C 0.85658 0.11488 0.77101 0.0
C93 C 0.85571 0.11113 0.74017 0.0
C94 C 0.80215 0.09044 0.72508 0.0
C95 C 0.74798 0.07271 0.74042 0.0
C96 C 0.74879 0.07665 0.77127 0.0
C97 C 0.80253 0.09748 0.78642 0.0
C98 C -0.01871 0.3386 0.80516 0.0
C99 C 0.10307 0.31532 0.75327 0.0
O100 O 0.12127 0.44408 0.84644 0.0
O101 O 0.19503 0.44872 0.82032 0.0
O102 O 0.0856 0.2691 0.82924 0.0
O103 O 0.17488 0.32929 0.81706 0.0
O104 O 0.05687 0.32548 0.86809 0.0
O105 O -0.00091 0.226 0.85565 0.0
O106 O 0.96335 0.16878 0.77212 0.0
O107 O 0.91532 0.15621 0.81366 0.0
O108 O 0.02639 0.33742 0.79557 0.0
O109 O 0.94125 0.28582 0.81411 0.0
O110 O 0.05935 0.26277 0.763 0.0
O111 O 0.12408 0.36378 0.77042 0.0
H112 H 0.28978 0.57159 0.8368 0.0
H113 H 0.36743 0.60542 0.87441 0.0
H114 H 0.23908 0.4725 0.93474 0.0
H115 H 0.16227 0.43902 0.89734 0.0
H116 H 0.89633 0.12349 0.72764 0.0
H117 H 0.80299 0.08639 0.70136 0.0
H118 H 0.70785 0.06319 0.78371 0.0
H119 H 0.80158 0.09949 0.81023 0.0
Sm120 Sm 0.8131 0.12241 0.15807 0.0
Sm121 Sm 0.84411 0.02868 1.14352 0.0
C122 C 0.76126 0.18794 0.16632 0.0
C123 C 0.7554 0.21614 0.19337 0.0
C124 C 0.7696 0.2763 0.19257 0.0
C125 C 0.78593 0.31038 0.21836 0.0
C126 C 0.78872 0.28472 0.2452 0.0
C127 C 0.76715 0.22257 0.24636 0.0
C128 C 0.75081 0.18863 0.22065 0.0
C129 C 0.93197 0.16491 0.16443 0.0
C130 C 0.8359 0.05567 0.21382 0.0
C131 C 0.86742 0.9398 1.13909 0.0
C132 C 0.83351 0.88013 1.12555 0.0
C133 C 0.80735 0.87369 1.09792 0.0
C134 C 0.77173 0.81695 1.08599 0.0
C135 C 0.76042 0.76497 1.10156 0.0
C136 C 0.78627 0.77149 1.12942 0.0
C137 C 0.82251 0.82866 1.1413 0.0
C138 C 0.72433 -0.00625 1.13966 0.0
C139 C 0.85897 0.11475 1.08831 0.0
O140 O 0.73093 0.12926 0.16524 0.0
O141 O 0.81653 0.21012 0.15709 0.0
O142 O 0.90026 0.13003 1.14426 0.0
O143 O 0.90101 0.1785 0.18246 0.0
O144 O 0.80577 0.08253 0.20548 0.0
O145 O 0.86526 0.04252 0.19372 0.0
O146 O 0.89081 -0.01389 1.12129 0.0
O147 O 0.84186 0.94791 0.16222 0.0
O148 O 0.75933 0.02293 0.15974 0.0
O149 O 0.75221 -0.01761 1.11901 0.0
O150 O 0.8765 0.0784 1.09909 0.0
O151 O 0.82708 0.13139 1.1055 0.0
H152 H 0.77355 0.29834 0.17169 0.0
H153 H 0.80128 0.3579 0.21684 0.0
H154 H 0.76899 0.20117 0.26651 0.0
H155 H 0.74036 0.14234 0.22185 0.0
H156 H 0.81423 0.91253 1.08547 0.0
H157 H 0.75426 0.81418 1.06412 0.0
H158 H 0.77846 0.73256 1.14205 0.0
H159 H 0.84145 0.83269 0.16293 0.0
Sm160 Sm 0.77573 0.85782 0.49382 0.0
Sm161 Sm 0.90163 0.87777 0.47923 0.0
C162 C 0.6617 0.8113 0.50971 0.0
C163 C 0.62899 0.81225 0.53627 0.0
C164 C 0.57853 0.81914 0.53356 0.0
C165 C 0.55273 0.82983 0.55848 0.0
C166 C 0.57699 0.8335 0.58648 0.0
C167 C 0.62567 0.82336 0.58914 0.0
C168 C 0.65153 0.81307 0.56429 0.0
C169 C 0.86375 0.97488 0.49498 0.0
C170 C 0.86625 0.86075 0.54857 0.0
C171 C 0.01031 0.90152 0.46328 0.0
C172 C 0.033 0.86616 0.44783 0.0
C173 C 0.01905 0.84998 0.41825 0.0
C174 C 0.03696 0.81294 0.40449 0.0
C175 C 0.06887 0.7907 0.41998 0.0
C176 C 0.08333 0.80734 0.44953 0.0
C177 C 0.06562 0.84482 0.4633 0.0
C178 C 0.80789 0.76131 0.4747 0.0
C179 C 0.83033 0.90562 0.42661 0.0
O180 O 0.69086 0.78178 0.51137 0.0
O181 O 0.69232 0.86288 0.49619 0.0
O182 O 0.86778 0.93083 0.50404 0.0
O183 O 0.80832 0.95848 0.48948 0.0
O184 O 0.80983 0.84115 0.54002 0.0
O185 O 0.91075 0.88766 0.52936 0.0
O186 O -0.02092 0.91921 0.448 0.0
O187 O -0.01257 0.88177 0.48943 0.0
O188 O 0.80863 0.80788 0.46637 0.0
O189 O 0.8595 0.77443 0.48504 0.0
O190 O 0.88292 0.91852 0.43763 0.0
O191 O 0.7801 0.87371 0.44244 0.0
H192 H 0.56073 0.8189 0.51204 0.0
H193 H 0.51528 0.83734 0.55573 0.0
H194 H 0.64646 0.82719 0.61022 0.0
H195 H 0.69091 0.80863 0.5669 0.0
H196 H -0.00598 0.8656 0.40565 0.0
H197 H 0.02671 0.80277 0.38141 0.0
H198 H 0.10803 0.79122 0.46204 0.0
H199 H 0.07676 0.85653 0.4862 0.0
Sm200 Sm -0.02286 0.81734 0.82927 0.0
Sm201 Sm 0.1054 0.85624 0.81065 0.0
C202 C 0.86691 0.75559 0.851 0.0
C203 C 0.83711 0.72011 0.87746 0.0
C204 C 0.779 0.67067 0.87558 0.0
C205 C 0.75059 0.63554 0.9005 0.0
C206 C 0.78005 0.6494 0.92768 0.0
C207 C 0.83878 0.69875 0.92918 0.0
C208 C 0.86713 0.73345 0.9043 0.0
C209 C 0.03732 0.92736 0.80349 0.0
C210 C 0.08714 0.8853 0.87891 0.0
C211 C 0.21616 0.88996 0.79328 0.0
C212 C 0.26546 0.91418 0.77181 0.0
C213 C 0.25654 0.92196 0.74221 0.0
C214 C 0.30504 0.94555 0.72245 0.0
C215 C 0.36302 0.9616 0.73208 0.0
C216 C 0.37126 0.9528 0.76175 0.0
C217 C 0.32277 0.92919 0.78143 0.0
C218 C 0.0415 0.74427 0.83665 0.0
C219 C 0.00301 0.82418 0.75796 0.0
O220 O 0.89082 0.73243 0.8336 0.0
O221 O 0.90078 0.81377 0.85427 0.0
O222 O 0.05874 0.90666 0.82164 0.0
O223 O -0.02037 0.89299 0.80124 0.0
O224 O 0.02884 0.84735 0.87471 0.0
O225 O 0.12528 0.90156 0.8564 0.0
O226 O 0.2011 0.92672 0.80552 0.0
O227 O 0.17079 0.83623 0.78874 0.0
O228 O 0.02254 0.76514 0.81728 0.0
O229 O 0.09577 0.78365 0.84335 0.0
O230 O 0.06115 0.85179 0.76458 0.0
O231 O 0.96155 0.79987 0.77905 0.0
H232 H 0.75559 0.65929 0.85483 0.0
H233 H 0.70561 0.59782 0.8985 0.0
H234 H 0.86249 0.71193 0.94982 0.0
H235 H 0.91229 0.77103 0.90612 0.0
H236 H 0.21244 0.91054 0.73453 0.0
H237 H 0.29746 0.953 0.69984 0.0
H238 H 0.41521 0.96455 0.76976 0.0
H239 H 0.33009 0.92298 0.80429 0.0
H240 H 0.0235 0.20192 0.20276 0.0
H241 H -0.01817 0.22121 1.11314 0.0
H242 H 0.12619 0.2342 0.18769 0.0
H243 H 0.08446 0.25348 1.09796 0.0
H244 H 0.26863 0.21468 0.15978 0.0
H245 H 0.22668 0.2809 0.15801 0.0
H246 H 0.08343 0.15202 1.10355 0.0
H247 H 0.12499 0.0856 1.10567 0.0
C248 C 0.03738 0.21631 0.18022 0.0
C249 C -0.00482 0.20636 0.15874 0.0
C250 C 0.09634 0.23566 0.17153 0.0
C251 C 0.11197 0.24342 1.14135 0.0
C252 C 0.07281 0.24632 1.12118 0.0
C253 C 0.01398 0.22679 1.1298 0.0
C254 C 0.22928 0.2015 1.14658 0.0
C255 C 0.19823 0.1442 1.13379 0.0
C256 C 0.20601 0.23992 1.14526 0.0
C257 C 0.15166 0.2213 1.13107 0.0
C258 C 0.12567 0.16772 1.11464 0.0
C259 C 0.14856 0.12898 1.11628 0.0
H260 H -0.02137 0.00264 0.4957 0.0
H261 H 0.85869 0.05343 0.45589 0.0
H262 H 0.05813 0.06994 0.46318 0.0
H263 H 0.94096 0.12445 0.42347 0.0
H264 H 0.18467 0.14083 0.42093 0.0
H265 H 0.08388 0.09373 0.40078 0.0
H266 H 0.04942 0.21898 0.44789 0.0
H267 H 0.14853 0.26488 0.46879 0.0
C268 C -0.03056 0.02854 0.47997 0.0
C269 C 0.91289 0.02319 0.47835 0.0
C270 C 0.01451 0.06599 0.46073 0.0
C271 C 0.0047 0.10037 0.43985 0.0
C272 C 0.94859 0.09661 0.43865 0.0
C273 C 0.90245 0.05748 0.45765 0.0
C274 C 0.15611 0.15942 0.42622 0.0
C275 C 0.17169 0.20275 0.4483 0.0
C276 C 0.09936 0.1341 0.41376 0.0
C277 C 0.0579 0.1493 0.42549 0.0
C278 C 0.07984 0.20406 0.44022 0.0
C279 C 0.13607 0.22925 0.45295 0.0
H280 H 0.00341 0.95338 0.75132 0.0
H281 H 0.1568 0.00529 0.80658 0.0
H282 H 0.05687 0.05003 0.72623 0.0
H283 H 0.20919 0.10144 0.78162 0.0
H284 H 0.04197 0.16229 0.8115 0.0
H285 H 0.03897 0.0862 0.77985 0.0
H286 H 0.2257 0.2017 0.75619 0.0
H287 H 0.2274 0.28087 0.7873 0.0
C288 C 0.04913 -0.01527 0.75746 0.0
C289 C 0.07439 0.97501 0.78257 0.0
C290 C 0.08068 0.03909 0.74232 0.0
C291 C 0.1336 0.08488 0.75475 0.0
C292 C 0.16588 0.06809 0.77336 0.0
C293 C 0.13517 0.01369 0.78838 0.0
C294 C 0.0821 0.1721 0.79913 0.0
C295 C 0.13501 0.22681 0.80212 0.0
C296 C 0.0802 0.12896 0.78031 0.0
C297 C 0.13202 0.13846 0.76485 0.0
C298 C 0.18493 0.19396 0.76725 0.0
C299 C 0.18623 0.23828 0.78561 0.0
H300 H 0.48196 0.50021 1.05934 0.0
H301 H 0.46829 0.38207 0.98837 0.0
H302 H 0.46965 0.56498 1.02442 0.0
H303 H 0.45415 0.44551 0.95368 0.0
H304 H 0.41745 0.55142 0.8939 0.0
H305 H 0.48327 0.53922 0.92781 0.0
H306 H 0.37467 0.5391 1.00114 0.0
H307 H 0.31023 0.55322 0.96735 0.0
C308 C 0.47818 0.48903 1.03617 0.0
C309 C 0.47453 0.43525 1.02663 0.0
C310 C 0.4708 0.52599 1.0162 0.0
C311 C 0.45971 0.5098 0.9864 0.0
C312 C 0.46268 0.45949 0.97646 0.0
C313 C 0.46996 0.42256 0.9964 0.0
C314 C 0.40918 0.55145 0.91734 0.0
C315 C 0.35796 0.55202 0.92799 0.0
C316 C 0.44666 0.54397 0.93674 0.0
C317 C 0.43348 0.5369 0.96707 0.0
C318 C 0.38627 0.54447 0.97791 0.0
C319 C 0.34885 0.55193 0.95854 0.0
H320 H 0.10034 0.39772 0.33349 0.0
H321 H -0.00342 0.40612 0.4069 0.0
H322 H 0.02185 0.38468 0.29993 0.0
H323 H 0.91802 0.39415 0.37309 0.0
H324 H 0.76844 0.26536 0.30485 0.0
H325 H 0.84486 0.30871 0.34266 0.0
H326 H -0.02996 0.43437 0.27893 0.0
H327 H 0.89499 0.38974 0.24097 0.0
C328 C 0.06087 0.39724 0.34239 0.0
C329 C 0.05427 0.40232 0.37278 0.0
C330 C 0.01627 0.39067 0.32315 0.0
C331 C 0.96388 0.38878 0.33388 0.0
C332 C 0.95788 0.39541 0.36423 0.0
C333 C 0.00287 0.40246 0.38351 0.0
C334 C 0.81178 0.30327 0.2991 0.0
C335 C 0.82589 0.32306 0.26973 0.0
C336 C 0.85547 0.32839 0.32082 0.0
C337 C 0.91386 0.37389 0.31351 0.0
C338 C 0.92574 0.39842 0.285 0.0
C339 C 0.88225 0.37325 0.26331 0.0
H340 H 0.72495 0.10831 0.6879 0.0
H341 H 0.64103 0.97374 0.75594 0.0
H342 H 0.64676 0.04531 0.65419 0.0
H343 H 0.55996 0.91175 0.72273 0.0
H344 H 0.55121 0.92487 0.58797 0.0
H345 H 0.55647 -0.01667 0.63119 0.0
H346 H 0.57095 0.85438 0.68629 0.0
H347 H 0.56141 0.79446 0.64353 0.0
C348 C 0.68852 0.06599 0.69595 0.0
C349 C 0.69077 0.0447 0.72405 0.0
C350 C 0.64276 0.02993 0.6767 0.0
C351 C 0.59809 0.97184 0.68526 0.0
C352 C 0.59497 0.95516 0.71501 0.0
C353 C 0.64131 -0.009 0.73419 0.0
C354 C 0.55246 0.90749 0.60947 0.0
C355 C 0.55849 0.85633 0.61229 0.0
C356 C 0.55612 0.94144 0.63429 0.0
C357 C 0.56722 0.92544 0.66216 0.0
C358 C 0.56337 0.86915 0.66531 0.0
C359 C 0.55875 0.83485 0.64062 0.0
H360 H 0.78022 0.66918 1.1045 0.0
H361 H 0.66219 0.72368 1.06621 0.0
H362 H 0.74954 0.59056 1.06811 0.0
H363 H 0.63691 0.65066 1.02797 0.0
H364 H 0.6616 0.60451 0.94383 0.0
H365 H 0.62182 0.58318 0.99376 0.0
H366 H 0.79036 0.60422 1.02369 0.0
H367 H 0.82645 0.61846 0.97382 0.0
C368 C 0.74679 0.66379 1.08869 0.0
C369 C 0.72683 0.7055 1.08697 0.0
C370 C 0.7298 0.61906 1.06735 0.0
C371 C 0.69524 0.61748 1.04314 0.0
C372 C 0.666 0.65141 1.0451 0.0
C373 C 0.68136 0.69461 1.06697 0.0
C374 C 0.68908 0.60191 0.96097 0.0
C375 C 0.74878 0.61708 0.95518 0.0
C376 C 0.66656 0.59058 0.98987 0.0
C377 C 0.70436 0.59712 1.01352 0.0
C378 C 0.75983 0.60101 1.00675 0.0
C379 C 0.78148 0.61042 0.97787 0.0
H380 H 0.17779 0.79594 0.42501 0.0
H381 H 0.00968 0.7026 0.37936 0.0
H382 H 0.22409 0.76332 0.38802 0.0
H383 H 0.05648 0.67523 0.34105 0.0
H384 H 0.28989 0.85183 0.29622 0.0
H385 H 0.25971 0.811 0.34496 0.0
H386 H 0.10864 0.6522 0.309 0.0
H387 H 0.13585 0.69681 0.2603 0.0
C388 C 0.15022 0.76723 0.40746 0.0
C389 C 0.091 0.7549 0.40406 0.0
C390 C 0.17704 0.74905 0.38592 0.0
C391 C 0.14579 0.72066 0.3601 0.0
C392 C 0.08352 0.69885 0.3598 0.0
C393 C 0.05642 0.71554 0.38168 0.0
C394 C 0.25059 0.80781 0.29867 0.0
C395 C 0.21297 0.77966 0.27471 0.0
C396 C 0.23348 0.78343 0.32685 0.0
C397 C 0.17873 0.72979 0.33149 0.0
C398 C 0.14876 0.69556 0.3066 0.0
C399 C 0.16492 0.72087 0.27844 0.0
H400 H 0.47264 0.05954 0.74308 0.0
H401 H 0.37125 0.93307 0.67495 0.0
H402 H 0.54562 0.12515 0.70639 0.0
H403 H 0.44208 -0.00069 0.63823 0.0
H404 H 0.52526 0.24752 0.63481 0.0
H405 H 0.5239 0.18491 0.67479 0.0
H406 H 0.53196 0.06233 0.61205 0.0
H407 H 0.52963 0.12334 0.57198 0.0
C408 C 0.46692 0.0448 0.72039 0.0
C409 C 0.415 -0.00768 0.71164 0.0
C410 C 0.50868 0.08257 0.69934 0.0
C411 C 0.49866 0.06879 0.66923 0.0
C412 C 0.45131 0.01207 0.66112 0.0
C413 C 0.40986 0.97427 0.68215 0.0
C414 C 0.5284 0.20807 0.62956 0.0
C415 C 0.52474 0.189 0.6003 0.0
C416 C 0.52855 0.17237 0.65256 0.0
C417 C 0.52543 0.11712 0.64662 0.0
C418 C 0.5324 0.10362 0.61734 0.0
C419 C 0.53151 0.139 0.59431 0.0
H420 H 0.48659 0.10003 0.1893 0.0
H421 H 0.38233 -0.01467 1.11803 0.0
H422 H 0.55457 0.06042 0.18566 0.0
H423 H 0.45099 0.94526 1.11427 0.0
H424 H 0.6547 -0.01007 1.09352 0.0
H425 H 0.56114 -0.0069 1.0981 0.0
H426 H 0.56049 0.9683 0.19217 0.0
H427 H 0.65398 0.96691 0.18763 0.0
C428 C 0.47762 0.06539 0.17324 0.0
C429 C 0.4296 0.04595 0.15387 0.0
C430 C 0.51632 0.04241 0.17122 0.0
C431 C 0.50801 -0.00034 0.14966 0.0
C432 C 0.45847 -0.02167 1.13099 0.0
C433 C 0.41914 0.00095 1.13327 0.0
C434 C 0.63319 -0.01691 1.11493 0.0
C435 C 0.66149 -0.02099 1.14027 0.0
C436 C 0.57977 -0.01515 1.1176 0.0
C437 C 0.55431 -0.01791 1.1456 0.0
C438 C 0.57975 0.9717 0.17042 0.0
C439 C 0.63306 0.97067 0.1678 0.0
H440 H 0.49217 0.4047 0.47223 0.0
H441 H 0.45028 0.52062 0.52395 0.0
H442 H 0.59796 0.48343 0.47054 0.0
H443 H 0.55546 0.59901 0.5218 0.0
H444 H 0.69955 0.73263 0.45365 0.0
H445 H 0.60431 0.64205 0.46351 0.0
H446 H 0.69502 0.56735 0.51191 0.0
H447 H 0.79152 0.65962 0.50264 0.0
C448 C 0.50583 0.44625 0.48389 0.0
C449 C 0.46315 0.4572 0.49778 0.0
C450 C 0.56617 0.49095 0.483 0.0
C451 C 0.58404 0.54685 0.49588 0.0
C452 C 0.54222 0.556 0.51172 0.0
C453 C 0.48221 0.51132 0.51283 0.0
C454 C 0.69943 0.69684 0.46623 0.0
C455 C 0.75257 0.70322 0.47774 0.0
C456 C 0.64502 0.64527 0.47191 0.0
C457 C 0.64286 0.5987 0.48875 0.0
C458 C 0.69612 0.60325 0.49901 0.0
C459 C 0.75093 0.65564 0.49365 0.0
H460 H 0.89209 0.35132 0.83166 0.0
H461 H 0.06901 0.45139 0.79248 0.0
H462 H 0.89623 0.44616 0.84506 0.0
H463 H 0.07363 0.54496 0.8066 0.0
H464 H 0.93807 0.65154 0.815 0.0
H465 H 0.91398 0.54678 0.811 0.0
H466 H 0.06984 0.58727 0.86202 0.0
H467 H 0.09362 0.69136 0.86645 0.0
C468 C 0.93157 0.39345 0.82587 0.0
C469 C -0.01951 0.3943 0.81132 0.0
C470 C 0.93394 0.44733 0.83359 0.0
C471 C -0.01434 0.50227 0.82728 0.0
C472 C 0.03374 0.50291 0.81212 0.0
C473 C 0.03093 0.44946 0.80395 0.0
C474 C -0.03399 0.63752 0.82615 0.0
C475 C 0.01836 0.6796 0.84051 0.0
C476 C 0.95212 0.57773 0.82391 0.0
C477 C -0.00933 0.55977 0.83586 0.0
C478 C 0.03987 0.60057 0.85246 0.0
C479 C 0.05337 0.65999 0.85497 0.0
H480 H 0.34367 0.24456 0.22541 0.0
H481 H 0.29379 0.07071 0.26132 0.0
H482 H 0.34306 0.28184 0.27491 0.0
H483 H 0.2938 0.10832 0.31109 0.0
H484 H 0.28028 0.31453 0.36696 0.0
H485 H 0.2793 0.27685 0.31704 0.0
H486 H 0.35851 0.17544 0.3497 0.0
H487 H 0.36011 0.21338 0.39918 0.0
C488 C 0.33282 0.21404 0.24382 0.0
C489 C 0.31914 0.15424 0.23879 0.0
C490 C 0.33199 0.23557 0.27248 0.0
C491 C 0.31837 0.19865 0.29765 0.0
C492 C 0.30511 0.13887 0.29267 0.0
C493 C 0.30494 0.117 0.26388 0.0
C494 C 0.29786 0.28449 0.36356 0.0
C495 C 0.32076 0.2679 0.38764 0.0
C496 C 0.29744 0.26275 0.33468 0.0
C497 C 0.31877 0.2225 0.32871 0.0
C498 C 0.34105 0.20561 0.35292 0.0
C499 C 0.34241 0.22806 0.38157 0.0
H500 H 0.32291 0.32579 0.59652 0.0
H501 H 0.16089 0.30785 0.56042 0.0
H502 H 0.2859 0.32822 0.64657 0.0
H503 H 0.12338 0.30828 0.61013 0.0
H504 H 0.04836 0.24149 0.70584 0.0
H505 H 0.08845 0.24256 0.65655 0.0
H506 H 0.25772 0.39432 0.68057 0.0
H507 H 0.21672 0.39451 0.72991 0.0
C508 C 0.27927 0.32195 0.59909 0.0
C509 C 0.24531 0.31658 0.57385 0.0
C510 C 0.25803 0.32371 0.62799 0.0
C511 C 0.20117 0.31843 0.63296 0.0
C512 C 0.16707 0.31219 0.6077 0.0
C513 C 0.18891 0.3121 0.5789 0.0
C514 C 0.09406 0.27562 0.70074 0.0
C515 C 0.12864 0.3183 0.72233 0.0
C516 C 0.11723 0.27623 0.67218 0.0
C517 C 0.17679 0.31847 0.66398 0.0
C518 C 0.21184 0.36075 0.6857 0.0
C519 C 0.18804 0.36117 0.71412 0.0
H520 H 0.95622 0.15442 0.89889 0.0
H521 H 0.03015 0.33841 0.92598 0.0
H522 H 0.91724 0.12056 0.94831 0.0
H523 H -0.0093 0.30401 0.97627 0.0
H524 H 0.86127 0.21242 1.0592 0.0
H525 H 0.90068 0.25213 1.00951 0.0
H526 H 0.94506 0.11261 0.9969 0.0
H527 H 0.90602 0.07345 1.04576 0.0
C528 C 0.96469 0.18815 0.91538 0.0
C529 C -0.00277 0.24969 0.90776 0.0
C530 C 0.9422 0.16839 0.94419 0.0
C531 C 0.95045 0.20894 0.96713 0.0
C532 C -0.0174 0.27075 0.95959 0.0
C533 C 0.00587 0.29073 0.93057 0.0
C534 C 0.87891 0.18984 1.04574 0.0
C535 C 0.87944 0.13891 1.05702 0.0
C536 C 0.90227 0.21312 1.01711 0.0
C537 C 0.92639 0.18595 0.9984 0.0
C538 C 0.92644 0.13495 1.00984 0.0
C539 C 0.90391 0.1123 1.03833 0.0
H540 H 0.76738 0.05646 0.26185 0.0
H541 H 0.90294 0.0113 0.2389 0.0
H542 H 0.76437 0.02122 0.31244 0.0
H543 H 0.89986 0.97614 0.28896 0.0
H544 H 0.73412 0.89678 0.39449 0.0
H545 H 0.73508 0.93436 0.34466 0.0
H546 H 0.926 0.0053 0.33873 0.0
H547 H 0.92495 0.96787 0.38798 0.0
C548 C 0.79692 0.03946 0.26748 0.0
C549 C 0.8357 0.03746 0.24578 0.0
C550 C 0.79483 0.01858 0.29667 0.0
C551 C 0.83193 -0.00456 0.30549 0.0
C552 C 0.87099 -0.00588 0.28374 0.0
C553 C 0.87263 0.01433 0.25464 0.0
C554 C 0.77635 0.92028 0.38258 0.0
C555 C 0.82931 0.92834 0.39574 0.0
C556 C 0.77703 0.94238 0.35383 0.0
C557 C 0.8306 0.97302 0.3369 0.0
C558 C 0.88342 -0.01871 0.3503 0.0
C559 C 0.88282 0.95974 0.37897 0.0
H560 H 0.79723 0.82572 0.60102 0.0
H561 H -0.02581 0.87846 0.56761 0.0
H562 H 0.82916 0.81697 0.65068 0.0
H563 H 0.00509 0.86758 0.61603 0.0
H564 H 0.06988 0.89395 0.71041 0.0
H565 H 0.0357 0.90356 0.66201 0.0
H566 H 0.85499 0.76861 0.68581 0.0
H567 H 0.88925 0.7612 0.73464 0.0
C568 C 0.84277 0.83523 0.60407 0.0
C569 C 0.88282 0.85346 0.57979 0.0
C570 C 0.86135 0.82986 0.63276 0.0
C571 C 0.92059 0.84198 0.63829 0.0
C572 C 0.95982 0.85926 0.61371 0.0
C573 C 0.94157 0.86513 0.58539 0.0
C574 C 0.02293 0.86575 0.7053 0.0
C575 C -0.01711 0.82629 0.72684 0.0
C576 C 0.00289 0.8711 0.67716 0.0
C577 C 0.94186 0.83669 0.66903 0.0
C578 C 0.902 0.79687 0.69065 0.0
C579 C 0.92199 0.79204 0.71889 0.0
H580 H 0.20151 0.97345 0.89334 0.0
H581 H 0.02928 0.85733 0.9338 0.0
H582 H 0.24306 0.01486 0.94138 0.0
H583 H 0.07084 0.89925 0.98209 0.0
H584 H 0.17748 0.93818 1.06785 0.0
H585 H 0.13518 0.90124 1.01973 0.0
H586 H 0.24927 0.07705 0.98256 0.0
H587 H 0.29246 0.11442 1.03137 0.0
C588 C 0.17209 0.9566 0.91244 0.0
C589 C 0.11154 0.91131 0.90915 0.0
C590 C 0.19615 -0.01899 0.94028 0.0
C591 C 0.16103 0.96099 0.9663 0.0
C592 C 0.10024 0.91587 0.963 0.0
C593 C 0.07598 0.89176 0.93504 0.0
C594 C 0.19403 0.96955 1.0496 0.0
C595 C 0.23919 0.02983 1.05412 0.0
C596 C 0.16897 0.94807 1.02166 0.0
C597 C 0.1879 -0.01445 0.99658 0.0
C598 C 0.23329 0.04602 1.00095 0.0
C599 C 0.25818 0.06781 1.02917 0.0
loop_
_geom_bond_atom_site_label_1
_geom_bond_atom_site_label_2
_geom_bond_distance
_geom_bond_site_symmetry_2
_ccdc_geom_bond_type
Sm0 C2 2.846 . S
Sm0 O20 2.543 . S
Sm0 O21 2.450 . S
Sm0 O22 2.681 1_554 S
Sm0 O23 2.464 . S
Sm0 O24 2.396 . S
Sm0 O28 2.386 . S
Sm0 O31 2.408 1_554 S
Sm1 C11 2.846 . S
Sm1 O22 2.386 . S
Sm1 O25 2.408 1_556 S
Sm1 O26 2.543 . S
Sm1 O27 2.450 . S
Sm1 O28 2.681 1_556 S
Sm1 O29 2.464 . S
Sm1 O30 2.396 . S
C2 Sm0 2.846 . S
C2 C3 1.506 . S
C2 O20 1.261 . S
C2 O21 1.242 . S
C3 C2 1.506 . S
C3 C4 1.358 . S
C3 C8 1.382 . S
C4 C3 1.358 . S
C4 C5 1.385 . S
C4 H32 0.930 . S
C5 C4 1.385 . S
C5 C6 1.395 . S
C5 H33 0.929 . S
C6 C5 1.395 . S
C6 C7 1.335 1_545 S
C7 C6 1.335 1_565 S
C7 C8 1.398 1_565 S
C7 H34 0.930 . S
C8 C3 1.382 . S
C8 C7 1.398 1_545 S
C8 H35 0.929 . S
C9 O22 1.271 1_554 S
C9 O23 1.251 . S
C10 O24 1.252 . S
C10 O25 1.272 . S
C11 Sm1 2.846 . S
C11 C12 1.506 . S
C11 O26 1.261 . S
C11 O27 1.242 . S
C12 C11 1.506 . S
C12 C13 1.358 . S
C12 C17 1.382 . S
C13 C12 1.358 . S
C13 C14 1.385 . S
C13 H36 0.930 . S
C14 C13 1.385 . S
C14 C15 1.395 . S
C14 H37 0.929 . S
C15 C14 1.395 . S
C15 C16 1.335 . S
C16 C15 1.335 . S
C16 C17 1.398 . S
C16 H38 0.930 . S
C17 C12 1.382 . S
C17 C16 1.398 . S
C17 H39 0.929 . S
C18 O28 1.271 . S
C18 O29 1.251 1_554 S
C19 O30 1.252 . S
C19 O31 1.272 . S
O20 Sm0 2.543 . S
O20 C2 1.261 . S
O21 Sm0 2.450 . S
O21 C2 1.242 . S
O22 Sm0 2.681 1_556 S
O22 Sm1 2.386 . S
O22 C9 1.271 1_556 S
O23 Sm0 2.464 . S
O23 C9 1.251 . S
O24 Sm0 2.396 . S
O24 C10 1.252 . S
O25 Sm1 2.408 1_554 S
O25 C10 1.272 . S
O26 Sm1 2.543 . S
O26 C11 1.261 . S
O27 Sm1 2.450 . S
O27 C11 1.242 . S
O28 Sm0 2.386 . S
O28 Sm1 2.681 1_554 S
O28 C18 1.271 . S
O29 Sm1 2.464 . S
O29 C18 1.251 1_556 S
O30 Sm1 2.396 . S
O30 C19 1.252 . S
O31 Sm0 2.408 1_556 S
O31 C19 1.272 . S
H32 C4 0.930 . S
H33 C5 0.929 . S
H34 C7 0.930 . S
H35 C8 0.929 . S
H36 C13 0.930 . S
H37 C14 0.929 . S
H38 C16 0.930 . S
H39 C17 0.929 . S
Sm40 C42 2.846 . S
Sm40 O60 2.543 . S
Sm40 O61 2.450 . S
Sm40 O62 2.681 . S
Sm40 O63 2.464 . S
Sm40 O64 2.396 . S
Sm40 O68 2.386 . S
Sm40 O71 2.408 . S
Sm41 C51 2.846 . S
Sm41 O62 2.386 . S
Sm41 O65 2.408 . S
Sm41 O66 2.543 . S
Sm41 O67 2.450 . S
Sm41 O68 2.681 . S
Sm41 O69 2.464 . S
Sm41 O70 2.396 . S
C42 Sm40 2.846 . S
C42 C43 1.506 . S
C42 O60 1.261 . S
C42 O61 1.242 . S
C43 C42 1.506 . S
C43 C44 1.358 . S
C43 C48 1.382 . S
C44 C43 1.358 . S
C44 C45 1.385 . S
C44 H72 0.930 . S
C45 C44 1.385 . S
C45 C46 1.395 . S
C45 H73 0.929 . S
C46 C45 1.395 . S
C46 C47 1.335 . S
C47 C46 1.335 . S
C47 C48 1.398 . S
C47 H74 0.930 . S
C48 C43 1.382 . S
C48 C47 1.398 . S
C48 H75 0.929 . S
C49 O62 1.271 . S
C49 O63 1.251 . S
C50 O64 1.252 . S
C50 O65 1.272 . S
C51 Sm41 2.846 . S
C51 C52 1.506 . S
C51 O66 1.261 . S
C51 O67 1.242 . S
C52 C51 1.506 . S
C52 C53 1.358 . S
C52 C57 1.382 . S
C53 C52 1.358 . S
C53 C54 1.385 . S
C53 H76 0.930 . S
C54 C53 1.385 . S
C54 C55 1.395 . S
C54 H77 0.929 . S
C55 C54 1.395 . S
C55 C56 1.335 . S
C56 C55 1.335 . S
C56 C57 1.398 . S
C56 H78 0.930 . S
C57 C52 1.382 . S
C57 C56 1.398 . S
C57 H79 0.929 . S
C58 O68 1.271 . S
C58 O69 1.251 . S
C59 O70 1.252 . S
C59 O71 1.272 . S
O60 Sm40 2.543 . S
O60 C42 1.261 . S
O61 Sm40 2.450 . S
O61 C42 1.242 . S
O62 Sm40 2.681 . S
O62 Sm41 2.386 . S
O62 C49 1.271 . S
O63 Sm40 2.464 . S
O63 C49 1.251 . S
O64 Sm40 2.396 . S
O64 C50 1.252 . S
O65 Sm41 2.408 . S
O65 C50 1.272 . S
O66 Sm41 2.543 . S
O66 C51 1.261 . S
O67 Sm41 2.450 . S
O67 C51 1.242 . S
O68 Sm40 2.386 . S
O68 Sm41 2.681 . S
O68 C58 1.271 . S
O69 Sm41 2.464 . S
O69 C58 1.251 . S
O70 Sm41 2.396 . S
O70 C59 1.252 . S
O71 Sm40 2.408 . S
O71 C59 1.272 . S
H72 C44 0.930 . S
H73 C45 0.929 . S
H74 C47 0.930 . S
H75 C48 0.929 . S
H76 C53 0.930 . S
H77 C54 0.929 . S
H78 C56 0.930 . S
H79 C57 0.929 . S
Sm80 C82 2.846 . S
Sm80 O100 2.543 . S
Sm80 O101 2.450 . S
Sm80 O102 2.675 1_455 S
Sm80 O103 2.464 . S
Sm80 O104 2.396 1_455 S
Sm80 O108 2.386 . S
Sm80 O111 2.408 . S
Sm81 C91 2.846 . S
Sm81 O102 2.406 . S
Sm81 O105 2.408 . S
Sm81 O106 2.543 . S
Sm81 O107 2.450 . S
Sm81 O108 2.681 1_655 S
Sm81 O109 2.464 . S
Sm81 O110 2.396 1_655 S
C82 Sm80 2.846 . S
C82 C83 1.506 . S
C82 O100 1.261 . S
C82 O101 1.242 . S
C83 C82 1.506 . S
C83 C84 1.358 . S
C83 C88 1.382 . S
C84 C83 1.358 . S
C84 C85 1.385 . S
C84 H112 0.930 . S
C85 C84 1.385 . S
C85 C86 1.395 . S
C85 H113 0.929 . S
C86 C85 1.395 . S
C86 C87 1.335 . S
C87 C86 1.335 . S
C87 C88 1.398 . S
C87 H114 0.930 . S
C88 C83 1.382 . S
C88 C87 1.398 . S
C88 H115 0.929 . S
C89 O102 1.255 1_455 S
C89 O103 1.251 . S
C90 O104 1.252 . S
C90 O105 1.272 . S
C91 Sm81 2.846 . S
C91 C92 1.506 . S
C91 O106 1.261 . S
C91 O107 1.242 . S
C92 C91 1.506 . S
C92 C93 1.358 . S
C92 C97 1.382 . S
C93 C92 1.358 . S
C93 C94 1.385 . S
C93 H116 0.930 . S
C94 C93 1.385 . S
C94 C95 1.395 . S
C94 H117 0.929 . S
C95 C94 1.395 . S
C95 C96 1.335 . S
C96 C95 1.335 . S
C96 C97 1.398 . S
C96 H118 0.930 . S
C97 C92 1.382 . S
C97 C96 1.398 . S
C97 H119 0.929 . S
C98 O108 1.271 1_655 S
C98 O109 1.251 . S
C99 O110 1.252 . S
C99 O111 1.272 . S
O100 Sm80 2.543 . S
O100 C82 1.261 . S
O101 Sm80 2.450 . S
O101 C82 1.242 . S
O102 Sm80 2.675 1_655 S
O102 Sm81 2.406 . S
O102 C89 1.255 1_655 S
O103 Sm80 2.464 . S
O103 C89 1.251 . S
O104 Sm80 2.396 1_655 S
O104 C90 1.252 . S
O105 Sm81 2.408 . S
O105 C90 1.272 . S
O106 Sm81 2.543 . S
O106 C91 1.261 . S
O107 Sm81 2.450 . S
O107 C91 1.242 . S
O108 Sm80 2.386 . S
O108 Sm81 2.681 1_455 S
O108 C98 1.271 1_455 S
O109 Sm81 2.464 . S
O109 C98 1.251 . S
O110 Sm81 2.396 1_455 S
O110 C99 1.252 . S
O111 Sm80 2.408 . S
O111 C99 1.272 . S
H112 C84 0.930 . S
H113 C85 0.929 . S
H114 C87 0.930 . S
H115 C88 0.929 . S
H116 C93 0.930 . S
H117 C94 0.929 . S
H118 C96 0.930 . S
H119 C97 0.929 . S
Sm120 C122 2.846 . S
Sm120 O140 2.543 . S
Sm120 O141 2.450 . S
Sm120 O142 2.662 1_544 S
Sm120 O143 2.464 . S
Sm120 O144 2.396 1_545 S
Sm120 O148 2.386 . S
Sm120 O151 2.408 1_554 S
Sm121 C131 2.846 . S
Sm121 O142 2.393 . S
Sm121 O145 2.408 1_556 S
Sm121 O146 2.543 . S
Sm121 O147 2.450 . S
Sm121 O148 2.681 1_566 S
Sm121 O149 2.464 . S
Sm121 O150 2.396 1_565 S
C122 Sm120 2.846 . S
C122 C123 1.506 . S
C122 O140 1.261 . S
C122 O141 1.242 . S
C123 C122 1.506 . S
C123 C124 1.358 . S
C123 C128 1.382 . S
C124 C123 1.358 . S
C124 C125 1.385 . S
C124 H152 0.930 . S
C125 C124 1.385 . S
C125 C126 1.395 . S
C125 H153 0.929 . S
C126 C125 1.395 . S
C126 C127 1.335 . S
C127 C126 1.335 . S
C127 C128 1.398 . S
C127 H154 0.930 . S
C128 C123 1.382 . S
C128 C127 1.398 . S
C128 H155 0.929 . S
C129 O142 1.272 1_544 S
C129 O143 1.251 . S
C130 O144 1.252 . S
C130 O145 1.272 . S
C131 Sm121 2.846 . S
C131 C132 1.506 . S
C131 O146 1.261 . S
C131 O147 1.242 . S
C132 C131 1.506 . S
C132 C133 1.358 . S
C132 C137 1.382 . S
C133 C132 1.358 . S
C133 C134 1.385 . S
C133 H156 0.930 . S
C134 C133 1.385 . S
C134 C135 1.395 . S
C134 H157 0.929 . S
C135 C134 1.395 . S
C135 C136 1.335 . S
C136 C135 1.335 . S
C136 C137 1.398 . S
C136 H158 0.930 . S
C137 C132 1.382 . S
C137 C136 1.398 . S
C137 H159 0.929 . S
C138 O148 1.271 1_565 S
C138 O149 1.251 1_554 S
C139 O150 1.252 . S
C139 O151 1.272 . S
O140 Sm120 2.543 . S
O140 C122 1.261 . S
O141 Sm120 2.450 . S
O141 C122 1.242 . S
O142 Sm120 2.662 1_566 S
O142 Sm121 2.393 . S
O142 C129 1.272 1_566 S
O143 Sm120 2.464 . S
O143 C129 1.251 . S
O144 Sm120 2.396 1_565 S
O144 C130 1.252 . S
O145 Sm121 2.408 1_554 S
O145 C130 1.272 . S
O146 Sm121 2.543 . S
O146 C131 1.261 . S
O147 Sm121 2.450 . S
O147 C131 1.242 . S
O148 Sm120 2.386 . S
O148 Sm121 2.681 1_544 S
O148 C138 1.271 1_545 S
O149 Sm121 2.464 . S
O149 C138 1.251 1_556 S
O150 Sm121 2.396 1_545 S
O150 C139 1.252 . S
O151 Sm120 2.408 1_556 S
O151 C139 1.272 . S
H152 C124 0.930 . S
H153 C125 0.929 . S
H154 C127 0.930 . S
H155 C128 0.929 . S
H156 C133 0.930 . S
H157 C134 0.929 . S
H158 C136 0.930 . S
H159 C137 0.929 . S
Sm160 C162 2.846 . S
Sm160 O180 2.543 . S
Sm160 O181 2.450 . S
Sm160 O182 2.681 . S
Sm160 O183 2.464 . S
Sm160 O184 2.396 . S
Sm160 O188 2.386 . S
Sm160 O191 2.408 . S
Sm161 C171 2.846 . S
Sm161 O182 2.386 . S
Sm161 O185 2.408 . S
Sm161 O186 2.543 1_655 S
Sm161 O187 2.450 . S
Sm161 O188 2.681 . S
Sm161 O189 2.464 . S
Sm161 O190 2.396 . S
C162 Sm160 2.846 . S
C162 C163 1.506 . S
C162 O180 1.261 . S
C162 O181 1.242 . S
C163 C162 1.506 . S
C163 C164 1.358 . S
C163 C168 1.382 . S
C164 C163 1.358 . S
C164 C165 1.385 . S
C164 H192 0.930 . S
C165 C164 1.385 . S
C165 C166 1.395 . S
C165 H193 0.929 . S
C166 C165 1.395 . S
C166 C167 1.335 . S
C167 C166 1.335 . S
C167 C168 1.398 . S
C167 H194 0.930 . S
C168 C163 1.382 . S
C168 C167 1.398 . S
C168 H195 0.929 . S
C169 O182 1.271 1_455 S
C169 O183 1.246 1_455 S
C170 O184 1.252 . S
C170 O185 1.272 . S
C171 Sm161 2.846 . S
C171 C172 1.506 1_655 S
C171 O186 1.261 1_655 S
C171 O187 1.242 . S
C172 C171 1.506 1_455 S
C172 C173 1.358 . S
C172 C177 1.382 1_455 S
C173 C172 1.358 . S
C173 C174 1.385 . S
C173 H196 0.930 . S
C174 C173 1.385 . S
C174 C175 1.395 . S
C174 H197 0.929 . S
C175 C174 1.395 . S
C175 C176 1.335 1_455 S
C176 C175 1.335 1_655 S
C176 C177 1.398 . S
C176 H198 0.930 . S
C177 C172 1.382 1_655 S
C177 C176 1.398 . S
C177 H199 0.929 . S
C178 O188 1.271 . S
C178 O189 1.251 . S
C179 O190 1.252 . S
C179 O191 1.272 . S
O180 Sm160 2.543 . S
O180 C162 1.261 . S
O181 Sm160 2.450 . S
O181 C162 1.242 . S
O182 Sm160 2.681 . S
O182 Sm161 2.386 . S
O182 C169 1.271 1_655 S
O183 Sm160 2.464 . S
O183 C169 1.246 1_655 S
O184 Sm160 2.396 . S
O184 C170 1.252 . S
O185 Sm161 2.408 . S
O185 C170 1.272 . S
O186 Sm161 2.543 1_455 S
O186 C171 1.261 1_455 S
O187 Sm161 2.450 . S
O187 C171 1.242 . S
O188 Sm160 2.386 . S
O188 Sm161 2.681 . S
O188 C178 1.271 . S
O189 Sm161 2.464 . S
O189 C178 1.251 . S
O190 Sm161 2.396 . S
O190 C179 1.252 . S
O191 Sm160 2.408 . S
O191 C179 1.272 . S
H192 C164 0.930 . S
H193 C165 0.929 . S
H194 C167 0.930 . S
H195 C168 0.929 . S
H196 C173 0.930 . S
H197 C174 0.929 . S
H198 C176 0.930 . S
H199 C177 0.929 . S
Sm200 C202 2.846 . S
Sm200 O220 2.543 . S
Sm200 O221 2.450 . S
Sm200 O222 2.681 . S
Sm200 O223 2.464 . S
Sm200 O224 2.396 . S
Sm200 O228 2.386 . S
Sm200 O231 2.408 . S
Sm201 C211 2.846 . S
Sm201 O222 2.386 . S
Sm201 O225 2.408 . S
Sm201 O226 2.543 1_565 S
Sm201 O227 2.450 . S
Sm201 O228 2.681 . S
Sm201 O229 2.464 . S
Sm201 O230 2.396 . S
C202 Sm200 2.846 . S
C202 C203 1.506 . S
C202 O220 1.261 . S
C202 O221 1.242 . S
C203 C202 1.506 . S
C203 C204 1.358 . S
C203 C208 1.382 . S
C204 C203 1.358 . S
C204 C205 1.385 . S
C204 H232 0.930 . S
C205 C204 1.385 . S
C205 C206 1.395 . S
C205 H233 0.929 . S
C206 C205 1.395 . S
C206 C207 1.335 1_455 S
C207 C206 1.335 1_655 S
C207 C208 1.398 1_655 S
C207 H234 0.930 . S
C208 C203 1.382 . S
C208 C207 1.398 1_455 S
C208 H235 0.929 . S
C209 O222 1.269 1_545 S
C209 O223 1.251 1_545 S
C210 O224 1.252 . S
C210 O225 1.272 . S
C211 Sm201 2.846 . S
C211 C212 1.506 1_565 S
C211 O226 1.261 1_565 S
C211 O227 1.242 . S
C212 C211 1.506 1_545 S
C212 C213 1.358 . S
C212 C217 1.382 1_545 S
C213 C212 1.358 . S
C213 C214 1.385 . S
C213 H236 0.930 . S
C214 C213 1.385 . S
C214 C215 1.395 . S
C214 H237 0.929 . S
C215 C214 1.395 . S
C215 C216 1.335 1_545 S
C216 C215 1.335 1_565 S
C216 C217 1.398 . S
C216 H238 0.930 . S
C217 C212 1.382 1_565 S
C217 C216 1.398 . S
C217 H239 0.929 . S
C218 O228 1.271 . S
C218 O229 1.251 . S
C219 O230 1.252 . S
C219 O231 1.272 . S
O220 Sm200 2.543 . S
O220 C202 1.261 . S
O221 Sm200 2.450 . S
O221 C202 1.242 . S
O222 Sm200 2.681 . S
O222 Sm201 2.386 . S
O222 C209 1.269 1_565 S
O223 Sm200 2.464 . S
O223 C209 1.251 1_565 S
O224 Sm200 2.396 . S
O224 C210 1.252 . S
O225 Sm201 2.408 . S
O225 C210 1.272 . S
O226 Sm201 2.543 1_545 S
O226 C211 1.261 1_545 S
O227 Sm201 2.450 . S
O227 C211 1.242 . S
O228 Sm200 2.386 . S
O228 Sm201 2.681 . S
O228 C218 1.271 . S
O229 Sm201 2.464 . S
O229 C218 1.251 . S
O230 Sm201 2.396 . S
O230 C219 1.252 . S
O231 Sm200 2.408 . S
O231 C219 1.272 . S
H232 C204 0.930 . S
H233 C205 0.929 . S
H234 C207 0.930 . S
H235 C208 0.929 . S
H236 C213 0.930 . S
H237 C214 0.929 . S
H238 C216 0.930 . S
H239 C217 0.929 . S
H240 C248 0.950 . S
H241 C253 0.950 . S
H242 C250 0.952 . S
H243 C252 0.950 . S
H244 C254 0.950 . S
H245 C256 0.950 . S
H246 C258 0.950 . S
H247 C259 0.950 . S
C248 H240 0.950 . S
C248 C249 1.379 1_566 S
C248 C250 1.391 1_665 S
C249 C248 1.379 1_544 S
C249 C253 1.399 . S
C250 H242 0.952 . S
C250 C248 1.391 1_445 S
C250 C251 1.387 1_556 S
C251 C250 1.387 1_554 S
C251 C252 1.411 . S
C251 C257 1.492 . S
C252 H243 0.950 . S
C252 C251 1.411 . S
C252 C253 1.391 1_455 S
C253 H241 0.950 . S
C253 C249 1.399 . S
C253 C252 1.391 1_655 S
C254 H244 0.950 . S
C254 C255 1.386 . S
C254 C256 1.391 . S
C255 C254 1.386 . S
C255 C259 1.393 1_554 S
C256 H245 0.950 . S
C256 C254 1.391 . S
C256 C257 1.400 . S
C257 C251 1.492 . S
C257 C256 1.400 . S
C257 C258 1.398 1_554 S
C258 H246 0.950 . S
C258 C257 1.398 1_556 S
C258 C259 1.391 . S
C259 H247 0.950 . S
C259 C255 1.393 1_556 S
C259 C258 1.391 . S
H260 C268 0.950 . S
H261 C273 0.950 1_655 S
H262 C270 0.950 . S
H263 C272 0.950 . S
H264 C274 0.950 . S
H265 C276 0.950 . S
H266 C278 0.950 . S
H267 C279 0.950 . S
C268 H260 0.950 . S
C268 C269 1.386 . S
C268 C270 1.391 1_565 S
C269 C268 1.386 . S
C269 C273 1.393 . S
C270 H262 0.950 . S
C270 C268 1.391 1_545 S
C270 C271 1.400 . S
C271 C270 1.400 . S
C271 C272 1.398 . S
C271 C277 1.491 . S
C272 H263 0.950 . S
C272 C271 1.398 . S
C272 C273 1.391 1_545 S
C273 H261 0.950 1_455 S
C273 C269 1.393 . S
C273 C272 1.391 1_565 S
C274 H264 0.950 . S
C274 C275 1.386 . S
C274 C276 1.391 . S
C275 C274 1.386 . S
C275 C279 1.393 . S
C276 H265 0.950 . S
C276 C274 1.391 . S
C276 C277 1.400 . S
C277 C271 1.491 . S
C277 C276 1.400 . S
C277 C278 1.398 . S
C278 H266 0.950 . S
C278 C277 1.398 . S
C278 C279 1.391 . S
C279 H267 0.950 . S
C279 C275 1.393 . S
C279 C278 1.391 . S
H280 C288 0.950 . S
H281 C293 0.950 1_565 S
H282 C290 0.950 . S
H283 C292 0.950 . S
H284 C294 0.950 . S
H285 C296 0.950 . S
H286 C298 0.950 . S
H287 C299 0.950 . S
C288 H280 0.950 . S
C288 C289 1.386 . S
C288 C290 1.391 . S
C289 C288 1.386 . S
C289 C293 1.393 . S
C290 H282 0.950 . S
C290 C288 1.391 . S
C290 C291 1.400 . S
C291 C290 1.400 . S
C291 C292 1.398 . S
C291 C297 1.491 . S
C292 H283 0.950 . S
C292 C291 1.398 . S
C292 C293 1.391 . S
C293 H281 0.950 1_545 S
C293 C289 1.393 . S
C293 C292 1.391 . S
C294 H284 0.950 . S
C294 C295 1.386 1_655 S
C294 C296 1.391 1_655 S
C295 C294 1.386 1_455 S
C295 C299 1.393 . S
C296 H285 0.950 . S
C296 C294 1.391 1_455 S
C296 C297 1.400 . S
C297 C291 1.491 . S
C297 C296 1.400 . S
C297 C298 1.398 . S
C298 H286 0.950 . S
C298 C297 1.398 . S
C298 C299 1.391 . S
C299 H287 0.950 . S
C299 C295 1.393 . S
C299 C298 1.391 . S
H300 C308 0.950 . S
H301 C313 0.950 . S
H302 C310 0.950 . S
H303 C312 0.950 . S
H304 C314 0.950 . S
H305 C316 0.950 . S
H306 C318 0.950 . S
H307 C319 0.950 . S
C308 H300 0.950 . S
C308 C309 1.386 . S
C308 C310 1.391 . S
C309 C308 1.386 . S
C309 C313 1.393 . S
C310 H302 0.950 . S
C310 C308 1.391 . S
C310 C311 1.400 . S
C311 C310 1.400 . S
C311 C312 1.398 . S
C311 C317 1.491 . S
C312 H303 0.950 . S
C312 C311 1.398 . S
C312 C313 1.391 . S
C313 H301 0.950 . S
C313 C309 1.393 . S
C313 C312 1.391 . S
C314 H304 0.950 . S
C314 C315 1.386 . S
C314 C316 1.391 . S
C315 C314 1.386 . S
C315 C319 1.393 . S
C316 H305 0.950 . S
C316 C314 1.391 . S
C316 C317 1.400 . S
C317 C311 1.491 . S
C317 C316 1.400 . S
C317 C318 1.398 . S
C318 H306 0.950 . S
C318 C317 1.398 . S
C318 C319 1.391 . S
C319 H307 0.950 . S
C319 C315 1.393 . S
C319 C318 1.391 . S
H320 C328 0.950 . S
H321 C333 0.950 . S
H322 C330 0.950 . S
H323 C332 0.950 . S
H324 C334 0.950 . S
H325 C336 0.950 . S
H326 C338 0.950 . S
H327 C339 0.950 . S
C328 H320 0.950 . S
C328 C329 1.386 . S
C328 C330 1.391 . S
C329 C328 1.386 . S
C329 C333 1.393 . S
C330 H322 0.950 . S
C330 C328 1.391 . S
C330 C331 1.400 . S
C331 C330 1.400 . S
C331 C332 1.398 . S
C331 C337 1.491 1_455 S
C332 H323 0.950 . S
C332 C331 1.398 . S
C332 C333 1.391 . S
C333 H321 0.950 . S
C333 C329 1.393 . S
C333 C332 1.391 . S
C334 H324 0.950 . S
C334 C335 1.386 . S
C334 C336 1.391 . S
C335 C334 1.386 . S
C335 C339 1.393 . S
C336 H325 0.950 . S
C336 C334 1.391 . S
C336 C337 1.400 . S
C337 C331 1.491 1_655 S
C337 C336 1.400 . S
C337 C338 1.398 . S
C338 H326 0.950 . S
C338 C337 1.398 . S
C338 C339 1.391 . S
C339 H327 0.950 . S
C339 C335 1.393 . S
C339 C338 1.391 . S
H340 C348 0.950 . S
H341 C353 0.950 . S
H342 C350 0.950 . S
H343 C352 0.950 . S
H344 C354 0.950 . S
H345 C356 0.950 . S
H346 C358 0.950 . S
H347 C359 0.950 . S
C348 H340 0.950 . S
C348 C349 1.386 . S
C348 C350 1.391 . S
C349 C348 1.386 . S
C349 C353 1.393 . S
C350 H342 0.950 . S
C350 C348 1.391 . S
C350 C351 1.400 . S
C351 C350 1.400 . S
C351 C352 1.398 . S
C351 C357 1.491 1_545 S
C352 H343 0.950 . S
C352 C351 1.398 . S
C352 C353 1.391 . S
C353 H341 0.950 . S
C353 C349 1.393 . S
C353 C352 1.391 . S
C354 H344 0.950 . S
C354 C355 1.386 . S
C354 C356 1.391 . S
C355 C354 1.386 . S
C355 C359 1.393 . S
C356 H345 0.950 . S
C356 C354 1.391 . S
C356 C357 1.400 . S
C357 C351 1.491 1_565 S
C357 C356 1.400 . S
C357 C358 1.398 . S
C358 H346 0.950 . S
C358 C357 1.398 . S
C358 C359 1.391 . S
C359 H347 0.950 . S
C359 C355 1.393 . S
C359 C358 1.391 . S
H360 C368 0.950 . S
H361 C373 0.950 . S
H362 C370 0.950 . S
H363 C372 0.950 . S
H364 C374 0.950 . S
H365 C376 0.950 . S
H366 C378 0.950 . S
H367 C379 0.950 1_455 S
C368 H360 0.950 . S
C368 C369 1.386 . S
C368 C370 1.391 . S
C369 C368 1.386 . S
C369 C373 1.393 . S
C370 H362 0.950 . S
C370 C368 1.391 . S
C370 C371 1.400 . S
C371 C370 1.400 . S
C371 C372 1.398 . S
C371 C377 1.491 . S
C372 H363 0.950 . S
C372 C371 1.398 . S
C372 C373 1.391 . S
C373 H361 0.950 . S
C373 C369 1.393 . S
C373 C372 1.391 . S
C374 H364 0.950 . S
C374 C375 1.386 . S
C374 C376 1.391 . S
C375 C374 1.386 . S
C375 C379 1.393 . S
C376 H365 0.950 . S
C376 C374 1.391 . S
C376 C377 1.400 . S
C377 C371 1.491 . S
C377 C376 1.400 . S
C377 C378 1.398 . S
C378 H366 0.950 . S
C378 C377 1.398 . S
C378 C379 1.391 . S
C379 H367 0.950 1_655 S
C379 C375 1.393 . S
C379 C378 1.391 . S
H380 C388 0.950 . S
H381 C393 0.950 . S
H382 C390 0.950 . S
H383 C392 0.950 . S
H384 C394 0.950 . S
H385 C396 0.950 . S
H386 C398 0.950 . S
H387 C399 0.950 . S
C388 H380 0.950 . S
C388 C389 1.386 . S
C388 C390 1.391 . S
C389 C388 1.386 . S
C389 C393 1.393 . S
C390 H382 0.950 . S
C390 C388 1.391 . S
C390 C391 1.400 . S
C391 C390 1.400 . S
C391 C392 1.398 . S
C391 C397 1.491 . S
C392 H383 0.950 . S
C392 C391 1.398 . S
C392 C393 1.391 . S
C393 H381 0.950 . S
C393 C389 1.393 . S
C393 C392 1.391 . S
C394 H384 0.950 . S
C394 C395 1.386 1_545 S
C394 C396 1.391 1_545 S
C395 C394 1.386 1_565 S
C395 C399 1.393 . S
C396 H385 0.950 . S
C396 C394 1.391 1_565 S
C396 C397 1.400 . S
C397 C391 1.491 . S
C397 C396 1.400 . S
C397 C398 1.398 . S
C398 H386 0.950 . S
C398 C397 1.398 . S
C398 C399 1.391 . S
C399 H387 0.950 . S
C399 C395 1.393 . S
C399 C398 1.391 . S
H400 C408 0.950 . S
H401 C413 0.950 1_565 S
H402 C410 0.950 . S
H403 C412 0.950 . S
H404 C414 0.950 . S
H405 C416 0.950 . S
H406 C418 0.950 . S
H407 C419 0.950 . S
C408 H400 0.950 . S
C408 C409 1.386 . S
C408 C410 1.391 . S
C409 C408 1.386 . S
C409 C413 1.393 . S
C410 H402 0.950 . S
C410 C408 1.391 . S
C410 C411 1.400 . S
C411 C410 1.400 . S
C411 C412 1.398 . S
C411 C417 1.491 . S
C412 H403 0.950 . S
C412 C411 1.398 . S
C412 C413 1.391 . S
C413 H401 0.950 1_545 S
C413 C409 1.393 . S
C413 C412 1.391 . S
C414 H404 0.950 . S
C414 C415 1.386 . S
C414 C416 1.391 . S
C415 C414 1.386 . S
C415 C419 1.393 . S
C416 H405 0.950 . S
C416 C414 1.391 . S
C416 C417 1.400 . S
C417 C411 1.491 . S
C417 C416 1.400 . S
C417 C418 1.398 . S
C418 H406 0.950 . S
C418 C417 1.398 . S
C418 C419 1.391 . S
C419 H407 0.950 . S
C419 C415 1.393 . S
C419 C418 1.391 . S
H420 C428 0.950 . S
H421 C433 0.950 . S
H422 C430 0.950 . S
H423 C432 0.950 . S
H424 C434 0.950 . S
H425 C436 0.950 . S
H426 C438 0.950 . S
H427 C439 0.950 . S
C428 H420 0.950 . S
C428 C429 1.386 . S
C428 C430 1.391 . S
C429 C428 1.386 . S
C429 C433 1.393 1_554 S
C430 H422 0.950 . S
C430 C428 1.391 . S
C430 C431 1.400 . S
C431 C430 1.400 . S
C431 C432 1.398 1_554 S
C431 C437 1.491 . S
C432 H423 0.950 . S
C432 C431 1.398 1_556 S
C432 C433 1.391 . S
C433 H421 0.950 . S
C433 C429 1.393 1_556 S
C433 C432 1.391 . S
C434 H424 0.950 . S
C434 C435 1.391 1_566 S
C434 C436 1.391 1_565 S
C435 C434 1.391 1_544 S
C435 C439 1.406 . S
C436 H425 0.950 . S
C436 C434 1.391 1_545 S
C436 C437 1.400 1_556 S
C437 C431 1.491 . S
C437 C436 1.400 1_554 S
C437 C438 1.398 . S
C438 H426 0.950 . S
C438 C437 1.398 . S
C438 C439 1.391 . S
C439 H427 0.950 . S
C439 C435 1.406 . S
C439 C438 1.391 . S
H440 C448 0.950 . S
H441 C453 0.950 . S
H442 C450 0.950 . S
H443 C452 0.950 . S
H444 C454 0.950 . S
H445 C456 0.950 . S
H446 C458 0.950 . S
H447 C459 0.950 . S
C448 H440 0.950 . S
C448 C449 1.386 . S
C448 C450 1.391 . S
C449 C448 1.386 . S
C449 C453 1.393 . S
C450 H442 0.950 . S
C450 C448 1.391 . S
C450 C451 1.400 . S
C451 C450 1.400 . S
C451 C452 1.398 . S
C451 C457 1.491 . S
C452 H443 0.950 . S
C452 C451 1.398 . S
C452 C453 1.391 . S
C453 H441 0.950 . S
C453 C449 1.393 . S
C453 C452 1.391 . S
C454 H444 0.950 . S
C454 C455 1.386 . S
C454 C456 1.391 . S
C455 C454 1.386 . S
C455 C459 1.393 . S
C456 H445 0.950 . S
C456 C454 1.391 . S
C456 C457 1.400 . S
C457 C451 1.491 . S
C457 C456 1.400 . S
C457 C458 1.398 . S
C458 H446 0.950 . S
C458 C457 1.398 . S
C458 C459 1.391 . S
C459 H447 0.950 . S
C459 C455 1.393 . S
C459 C458 1.391 . S
H460 C468 0.950 . S
H461 C473 0.950 1_655 S
H462 C470 0.950 . S
H463 C472 0.950 . S
H464 C474 0.950 . S
H465 C476 0.950 . S
H466 C478 0.950 . S
H467 C479 0.950 . S
C468 H460 0.950 . S
C468 C469 1.386 . S
C468 C470 1.391 . S
C469 C468 1.386 . S
C469 C473 1.393 . S
C470 H462 0.950 . S
C470 C468 1.391 . S
C470 C471 1.400 . S
C471 C470 1.400 . S
C471 C472 1.398 . S
C471 C477 1.491 . S
C472 H463 0.950 . S
C472 C471 1.398 . S
C472 C473 1.391 . S
C473 H461 0.950 1_455 S
C473 C469 1.393 . S
C473 C472 1.391 . S
C474 H464 0.950 . S
C474 C475 1.386 . S
C474 C476 1.391 . S
C475 C474 1.386 . S
C475 C479 1.393 . S
C476 H465 0.950 . S
C476 C474 1.391 . S
C476 C477 1.400 . S
C477 C471 1.491 . S
C477 C476 1.400 . S
C477 C478 1.398 . S
C478 H466 0.950 . S
C478 C477 1.398 . S
C478 C479 1.391 . S
C479 H467 0.950 . S
C479 C475 1.393 . S
C479 C478 1.391 . S
H480 C488 0.950 . S
H481 C493 0.950 . S
H482 C490 0.950 . S
H483 C492 0.950 . S
H484 C494 0.950 . S
H485 C496 0.950 . S
H486 C498 0.950 . S
H487 C499 0.950 . S
C488 H480 0.950 . S
C488 C489 1.386 . S
C488 C490 1.391 . S
C489 C488 1.386 . S
C489 C493 1.393 . S
C490 H482 0.950 . S
C490 C488 1.391 . S
C490 C491 1.400 . S
C491 C490 1.400 . S
C491 C492 1.398 . S
C491 C497 1.491 . S
C492 H483 0.950 . S
C492 C491 1.398 . S
C492 C493 1.391 . S
C493 H481 0.950 . S
C493 C489 1.393 . S
C493 C492 1.391 . S
C494 H484 0.950 . S
C494 C495 1.386 . S
C494 C496 1.391 . S
C495 C494 1.386 . S
C495 C499 1.393 . S
C496 H485 0.950 . S
C496 C494 1.391 . S
C496 C497 1.400 . S
C497 C491 1.491 . S
C497 C496 1.400 . S
C497 C498 1.398 . S
C498 H486 0.950 . S
C498 C497 1.398 . S
C498 C499 1.391 . S
C499 H487 0.950 . S
C499 C495 1.393 . S
C499 C498 1.391 . S
H500 C508 0.950 . S
H501 C513 0.950 . S
H502 C510 0.950 . S
H503 C512 0.950 . S
H504 C514 0.950 . S
H505 C516 0.950 . S
H506 C518 0.950 . S
H507 C519 0.950 . S
C508 H500 0.950 . S
C508 C509 1.386 . S
C508 C510 1.391 . S
C509 C508 1.386 . S
C509 C513 1.393 . S
C510 H502 0.950 . S
C510 C508 1.391 . S
C510 C511 1.400 . S
C511 C510 1.400 . S
C511 C512 1.398 . S
C511 C517 1.491 . S
C512 H503 0.950 . S
C512 C511 1.398 . S
C512 C513 1.391 . S
C513 H501 0.950 . S
C513 C509 1.393 . S
C513 C512 1.391 . S
C514 H504 0.950 . S
C514 C515 1.386 . S
C514 C516 1.391 . S
C515 C514 1.386 . S
C515 C519 1.393 . S
C516 H505 0.950 . S
C516 C514 1.391 . S
C516 C517 1.400 . S
C517 C511 1.491 . S
C517 C516 1.400 . S
C517 C518 1.398 . S
C518 H506 0.950 . S
C518 C517 1.398 . S
C518 C519 1.391 . S
C519 H507 0.950 . S
C519 C515 1.393 . S
C519 C518 1.391 . S
H520 C528 0.950 . S
H521 C533 0.950 . S
H522 C530 0.950 . S
H523 C532 0.950 . S
H524 C534 0.950 . S
H525 C536 0.950 . S
H526 C538 0.950 . S
H527 C539 0.950 . S
C528 H520 0.950 . S
C528 C529 1.386 . S
C528 C530 1.391 . S
C529 C528 1.386 . S
C529 C533 1.393 . S
C530 H522 0.950 . S
C530 C528 1.391 . S
C530 C531 1.400 . S
C531 C530 1.400 . S
C531 C532 1.398 . S
C531 C537 1.491 . S
C532 H523 0.950 . S
C532 C531 1.398 . S
C532 C533 1.391 . S
C533 H521 0.950 . S
C533 C529 1.393 . S
C533 C532 1.391 . S
C534 H524 0.950 . S
C534 C535 1.386 . S
C534 C536 1.391 . S
C535 C534 1.386 . S
C535 C539 1.393 . S
C536 H525 0.950 . S
C536 C534 1.391 . S
C536 C537 1.400 . S
C537 C531 1.491 . S
C537 C536 1.400 . S
C537 C538 1.398 . S
C538 H526 0.950 . S
C538 C537 1.398 . S
C538 C539 1.391 . S
C539 H527 0.950 . S
C539 C535 1.393 . S
C539 C538 1.391 . S
H540 C548 0.950 . S
H541 C553 0.950 . S
H542 C550 0.950 . S
H543 C552 0.950 . S
H544 C554 0.950 . S
H545 C556 0.950 . S
H546 C558 0.950 . S
H547 C559 0.950 . S
C548 H540 0.950 . S
C548 C549 1.386 . S
C548 C550 1.391 . S
C549 C548 1.386 . S
C549 C553 1.393 . S
C550 H542 0.950 . S
C550 C548 1.391 . S
C550 C551 1.400 . S
C551 C550 1.400 . S
C551 C552 1.398 . S
C551 C557 1.491 . S
C552 H543 0.950 . S
C552 C551 1.398 . S
C552 C553 1.391 . S
C553 H541 0.950 . S
C553 C549 1.393 . S
C553 C552 1.391 . S
C554 H544 0.950 . S
C554 C555 1.386 . S
C554 C556 1.391 . S
C555 C554 1.386 . S
C555 C559 1.393 . S
C556 H545 0.950 . S
C556 C554 1.391 . S
C556 C557 1.400 . S
C557 C551 1.491 . S
C557 C556 1.400 . S
C557 C558 1.398 . S
C558 H546 0.950 . S
C558 C557 1.398 . S
C558 C559 1.391 . S
C559 H547 0.950 . S
C559 C555 1.393 . S
C559 C558 1.391 . S
H560 C568 0.950 . S
H561 C573 0.950 . S
H562 C570 0.950 . S
H563 C572 0.950 . S
H564 C574 0.950 . S
H565 C576 0.950 . S
H566 C578 0.950 1_655 S
H567 C579 0.950 1_655 S
C568 H560 0.950 . S
C568 C569 1.386 . S
C568 C570 1.391 . S
C569 C568 1.386 . S
C569 C573 1.393 1_655 S
C570 H562 0.950 . S
C570 C568 1.391 . S
C570 C571 1.400 1_655 S
C571 C570 1.400 1_455 S
C571 C572 1.398 . S
C571 C577 1.491 . S
C572 H563 0.950 . S
C572 C571 1.398 . S
C572 C573 1.391 . S
C573 H561 0.950 . S
C573 C569 1.393 1_455 S
C573 C572 1.391 . S
C574 H564 0.950 . S
C574 C575 1.386 . S
C574 C576 1.391 . S
C575 C574 1.386 . S
C575 C579 1.393 . S
C576 H565 0.950 . S
C576 C574 1.391 . S
C576 C577 1.400 . S
C577 C571 1.491 . S
C577 C576 1.400 . S
C577 C578 1.398 . S
C578 H566 0.950 1_455 S
C578 C577 1.398 . S
C578 C579 1.391 . S
C579 H567 0.950 1_455 S
C579 C575 1.393 . S
C579 C578 1.391 . S
H580 C588 0.950 . S
H581 C593 0.950 . S
H582 C590 0.950 . S
H583 C592 0.950 . S
H584 C594 0.950 . S
H585 C596 0.950 . S
H586 C598 0.950 . S
H587 C599 0.950 . S
C588 H580 0.950 . S
C588 C589 1.386 1_545 S
C588 C590 1.391 . S
C589 C588 1.386 1_565 S
C589 C593 1.393 . S
C590 H582 0.950 . S
C590 C588 1.391 . S
C590 C591 1.400 . S
C591 C590 1.400 . S
C591 C592 1.398 . S
C591 C597 1.491 . S
C592 H583 0.950 . S
C592 C591 1.398 . S
C592 C593 1.391 1_545 S
C593 H581 0.950 . S
C593 C589 1.393 . S
C593 C592 1.391 1_565 S
C594 H584 0.950 . S
C594 C595 1.386 . S
C594 C596 1.391 . S
C595 C594 1.386 . S
C595 C599 1.393 . S
C596 H585 0.950 . S
C596 C594 1.391 . S
C596 C597 1.400 . S
C597 C591 1.491 . S
C597 C596 1.400 . S
C597 C598 1.398 . S
C598 H586 0.950 . S
C598 C597 1.398 . S
C598 C599 1.391 . S
C599 H587 0.950 . S
C599 C595 1.393 . S
C599 C598 1.391 . S
C249 C129 0.625 . S
C255 C9 0.591 . S
C269 C169 0.677 . S
C275 C49 0.650 . S
C289 C209 0.594 . S
C295 C89 0.577 . S
C309 C15 0.768 . S
C315 C86 0.733 . S
C329 C55 0.742 . S
C335 C126 0.770 . S
C349 C95 0.728 . S
C355 C166 0.705 . S
C369 C135 0.775 . S
C375 C206 0.741 1_655 S
C389 C175 0.752 . S
C395 C6 0.776 1_565 S
C409 C215 0.786 . S
C415 C46 0.772 . S
C429 C18 1.215 . S
C435 C138 1.189 1_545 S
C449 C58 1.208 . S
C455 C178 1.224 . S
C469 C98 1.208 1_455 S
C475 C218 1.214 . S
C489 C10 4.048 . S
C495 C59 4.108 . S
C509 C50 4.051 . S
C515 C99 4.106 . S
C529 C90 4.043 . S
C535 C139 4.103 . S
C549 C130 4.049 . S
C555 C179 4.105 . S
C569 C170 4.051 . S
C575 C219 4.107 . S
C589 C210 4.044 . S
C595 C19 4.106 . S
