# Generated by pormake.
# Topology wga, (5)-cn, num edge types: 1
# Building blocks:
#     Node 0, Type 0, BuildingBlock: BEQFEK_clean_sbu_0, # of connection points: 5
#     Node 1, Type 0, BuildingBlock: BEQFEK_clean_sbu_0, # of connection points: 5
#     Node 2, Type 0, BuildingBlock: BEQFEK_clean_sbu_0, # of connection points: 5
#     Node 3, Type 0, BuildingBlock: BEQFEK_clean_sbu_0, # of connection points: 5
#     Node 4, Type 0, BuildingBlock: BEQFEK_clean_sbu_0, # of connection points: 5
#     Node 5, Type 0, BuildingBlock: BEQFEK_clean_sbu_0, # of connection points: 5
#     Node 6, Type 0, BuildingBlock: BEQFEK_clean_sbu_0, # of connection points: 5
#     Node 7, Type 0, BuildingBlock: BEQFEK_clean_sbu_0, # of connection points: 5
#     Node 8, Type 0, BuildingBlock: BEQFEK_clean_sbu_0, # of connection points: 5
#     Node 9, Type 0, BuildingBlock: BEQFEK_clean_sbu_0, # of connection points: 5
#     Node 10, Type 0, BuildingBlock: BEQFEK_clean_sbu_0, # of connection points: 5
#     Node 11, Type 0, BuildingBlock: BEQFEK_clean_sbu_0, # of connection points: 5
#     Node 12, Type 0, BuildingBlock: BEQFEK_clean_sbu_0, # of connection points: 5
#     Node 13, Type 0, BuildingBlock: BEQFEK_clean_sbu_0, # of connection points: 5
#     Node 14, Type 0, BuildingBlock: BEQFEK_clean_sbu_0, # of connection points: 5
#     Node 15, Type 0, BuildingBlock: BEQFEK_clean_sbu_0, # of connection points: 5
#     Node 16, Type 0, BuildingBlock: BEQFEK_clean_sbu_0, # of connection points: 5
#     Node 17, Type 0, BuildingBlock: BEQFEK_clean_sbu_0, # of connection points: 5
#     Node 18, Type 0, BuildingBlock: BEQFEK_clean_sbu_0, # of connection points: 5
#     Node 19, Type 0, BuildingBlock: BEQFEK_clean_sbu_0, # of connection points: 5
#     Node 20, Type 0, BuildingBlock: BEQFEK_clean_sbu_0, # of connection points: 5
#     Node 21, Type 0, BuildingBlock: BEQFEK_clean_sbu_0, # of connection points: 5
#     Node 22, Type 0, BuildingBlock: BEQFEK_clean_sbu_0, # of connection points: 5
#     Node 23, Type 0, BuildingBlock: BEQFEK_clean_sbu_0, # of connection points: 5
#     Node 24, Type 0, BuildingBlock: BEQFEK_clean_sbu_0, # of connection points: 5
#     Node 25, Type 0, BuildingBlock: BEQFEK_clean_sbu_0, # of connection points: 5
#     Node 26, Type 0, BuildingBlock: BEQFEK_clean_sbu_0, # of connection points: 5
#     Node 27, Type 0, BuildingBlock: BEQFEK_clean_sbu_0, # of connection points: 5
#     Node 28, Type 0, BuildingBlock: BEQFEK_clean_sbu_0, # of connection points: 5
#     Node 29, Type 0, BuildingBlock: BEQFEK_clean_sbu_0, # of connection points: 5
#     Node 30, Type 0, BuildingBlock: BEQFEK_clean_sbu_0, # of connection points: 5
#     Node 31, Type 0, BuildingBlock: BEQFEK_clean_sbu_0, # of connection points: 5
#     Edge 32, Type (0, 0), BuildingBlock: XUDNAN_clean_linker_2, # of connection points: 2
#     Edge 33, Type (0, 0), BuildingBlock: XUDNAN_clean_linker_2, # of connection points: 2
#     Edge 34, Type (0, 0), BuildingBlock: XUDNAN_clean_linker_2, # of connection points: 2
#     Edge 35, Type (0, 0), BuildingBlock: XUDNAN_clean_linker_2, # of connection points: 2
#     Edge 36, Type (0, 0), BuildingBlock: XUDNAN_clean_linker_2, # of connection points: 2
#     Edge 37, Type (0, 0), BuildingBlock: XUDNAN_clean_linker_2, # of connection points: 2
#     Edge 38, Type (0, 0), BuildingBlock: XUDNAN_clean_linker_2, # of connection points: 2
#     Edge 39, Type (0, 0), BuildingBlock: XUDNAN_clean_linker_2, # of connection points: 2
#     Edge 40, Type (0, 0), BuildingBlock: XUDNAN_clean_linker_2, # of connection points: 2
#     Edge 41, Type (0, 0), BuildingBlock: XUDNAN_clean_linker_2, # of connection points: 2
#     Edge 42, Type (0, 0), BuildingBlock: XUDNAN_clean_linker_2, # of connection points: 2
#     Edge 43, Type (0, 0), BuildingBlock: XUDNAN_clean_linker_2, # of connection points: 2
#     Edge 44, Type (0, 0), BuildingBlock: XUDNAN_clean_linker_2, # of connection points: 2
#     Edge 45, Type (0, 0), BuildingBlock: XUDNAN_clean_linker_2, # of connection points: 2
#     Edge 46, Type (0, 0), BuildingBlock: XUDNAN_clean_linker_2, # of connection points: 2
#     Edge 47, Type (0, 0), BuildingBlock: XUDNAN_clean_linker_2, # of connection points: 2
#     Edge 48, Type (0, 0), BuildingBlock: XUDNAN_clean_linker_2, # of connection points: 2
#     Edge 49, Type (0, 0), BuildingBlock: XUDNAN_clean_linker_2, # of connection points: 2
#     Edge 50, Type (0, 0), BuildingBlock: XUDNAN_clean_linker_2, # of connection points: 2
#     Edge 51, Type (0, 0), BuildingBlock: XUDNAN_clean_linker_2, # of connection points: 2
#     Edge 52, Type (0, 0), BuildingBlock: XUDNAN_clean_linker_2, # of connection points: 2
#     Edge 53, Type (0, 0), BuildingBlock: XUDNAN_clean_linker_2, # of connection points: 2
#     Edge 54, Type (0, 0), BuildingBlock: XUDNAN_clean_linker_2, # of connection points: 2
#     Edge 55, Type (0, 0), BuildingBlock: XUDNAN_clean_linker_2, # of connection points: 2
#     Edge 56, Type (0, 0), BuildingBlock: XUDNAN_clean_linker_2, # of connection points: 2
#     Edge 57, Type (0, 0), BuildingBlock: XUDNAN_clean_linker_2, # of connection points: 2
#     Edge 58, Type (0, 0), BuildingBlock: XUDNAN_clean_linker_2, # of connection points: 2
#     Edge 59, Type (0, 0), BuildingBlock: XUDNAN_clean_linker_2, # of connection points: 2
#     Edge 60, Type (0, 0), BuildingBlock: XUDNAN_clean_linker_2, # of connection points: 2
#     Edge 61, Type (0, 0), BuildingBlock: XUDNAN_clean_linker_2, # of connection points: 2
#     Edge 62, Type (0, 0), BuildingBlock: XUDNAN_clean_linker_2, # of connection points: 2
#     Edge 63, Type (0, 0), BuildingBlock: XUDNAN_clean_linker_2, # of connection points: 2
#     Edge 64, Type (0, 0), BuildingBlock: XUDNAN_clean_linker_2, # of connection points: 2
#     Edge 65, Type (0, 0), BuildingBlock: XUDNAN_clean_linker_2, # of connection points: 2
#     Edge 66, Type (0, 0), BuildingBlock: XUDNAN_clean_linker_2, # of connection points: 2
#     Edge 67, Type (0, 0), BuildingBlock: XUDNAN_clean_linker_2, # of connection points: 2
#     Edge 68, Type (0, 0), BuildingBlock: XUDNAN_clean_linker_2, # of connection points: 2
#     Edge 69, Type (0, 0), BuildingBlock: XUDNAN_clean_linker_2, # of connection points: 2
#     Edge 70, Type (0, 0), BuildingBlock: XUDNAN_clean_linker_2, # of connection points: 2
#     Edge 71, Type (0, 0), BuildingBlock: XUDNAN_clean_linker_2, # of connection points: 2
#     Edge 72, Type (0, 0), BuildingBlock: XUDNAN_clean_linker_2, # of connection points: 2
#     Edge 73, Type (0, 0), BuildingBlock: XUDNAN_clean_linker_2, # of connection points: 2
#     Edge 74, Type (0, 0), BuildingBlock: XUDNAN_clean_linker_2, # of connection points: 2
#     Edge 75, Type (0, 0), BuildingBlock: XUDNAN_clean_linker_2, # of connection points: 2
#     Edge 76, Type (0, 0), BuildingBlock: XUDNAN_clean_linker_2, # of connection points: 2
#     Edge 77, Type (0, 0), BuildingBlock: XUDNAN_clean_linker_2, # of connection points: 2
#     Edge 78, Type (0, 0), BuildingBlock: XUDNAN_clean_linker_2, # of connection points: 2
#     Edge 79, Type (0, 0), BuildingBlock: XUDNAN_clean_linker_2, # of connection points: 2
#     Edge 80, Type (0, 0), BuildingBlock: XUDNAN_clean_linker_2, # of connection points: 2
#     Edge 81, Type (0, 0), BuildingBlock: XUDNAN_clean_linker_2, # of connection points: 2
#     Edge 82, Type (0, 0), BuildingBlock: XUDNAN_clean_linker_2, # of connection points: 2
#     Edge 83, Type (0, 0), BuildingBlock: XUDNAN_clean_linker_2, # of connection points: 2
#     Edge 84, Type (0, 0), BuildingBlock: XUDNAN_clean_linker_2, # of connection points: 2
#     Edge 85, Type (0, 0), BuildingBlock: XUDNAN_clean_linker_2, # of connection points: 2
#     Edge 86, Type (0, 0), BuildingBlock: XUDNAN_clean_linker_2, # of connection points: 2
#     Edge 87, Type (0, 0), BuildingBlock: XUDNAN_clean_linker_2, # of connection points: 2
#     Edge 88, Type (0, 0), BuildingBlock: XUDNAN_clean_linker_2, # of connection points: 2
#     Edge 89, Type (0, 0), BuildingBlock: XUDNAN_clean_linker_2, # of connection points: 2
#     Edge 90, Type (0, 0), BuildingBlock: XUDNAN_clean_linker_2, # of connection points: 2
#     Edge 91, Type (0, 0), BuildingBlock: XUDNAN_clean_linker_2, # of connection points: 2
#     Edge 92, Type (0, 0), BuildingBlock: XUDNAN_clean_linker_2, # of connection points: 2
#     Edge 93, Type (0, 0), BuildingBlock: XUDNAN_clean_linker_2, # of connection points: 2
#     Edge 94, Type (0, 0), BuildingBlock: XUDNAN_clean_linker_2, # of connection points: 2
#     Edge 95, Type (0, 0), BuildingBlock: XUDNAN_clean_linker_2, # of connection points: 2
#     Edge 96, Type (0, 0), BuildingBlock: XUDNAN_clean_linker_2, # of connection points: 2
#     Edge 97, Type (0, 0), BuildingBlock: XUDNAN_clean_linker_2, # of connection points: 2
#     Edge 98, Type (0, 0), BuildingBlock: XUDNAN_clean_linker_2, # of connection points: 2
#     Edge 99, Type (0, 0), BuildingBlock: XUDNAN_clean_linker_2, # of connection points: 2
#     Edge 100, Type (0, 0), BuildingBlock: XUDNAN_clean_linker_2, # of connection points: 2
#     Edge 101, Type (0, 0), BuildingBlock: XUDNAN_clean_linker_2, # of connection points: 2
#     Edge 102, Type (0, 0), BuildingBlock: XUDNAN_clean_linker_2, # of connection points: 2
#     Edge 103, Type (0, 0), BuildingBlock: XUDNAN_clean_linker_2, # of connection points: 2
#     Edge 104, Type (0, 0), BuildingBlock: XUDNAN_clean_linker_2, # of connection points: 2
#     Edge 105, Type (0, 0), BuildingBlock: XUDNAN_clean_linker_2, # of connection points: 2
#     Edge 106, Type (0, 0), BuildingBlock: XUDNAN_clean_linker_2, # of connection points: 2
#     Edge 107, Type (0, 0), BuildingBlock: XUDNAN_clean_linker_2, # of connection points: 2
#     Edge 108, Type (0, 0), BuildingBlock: XUDNAN_clean_linker_2, # of connection points: 2
#     Edge 109, Type (0, 0), BuildingBlock: XUDNAN_clean_linker_2, # of connection points: 2
#     Edge 110, Type (0, 0), BuildingBlock: XUDNAN_clean_linker_2, # of connection points: 2
#     Edge 111, Type (0, 0), BuildingBlock: XUDNAN_clean_linker_2, # of connection points: 2
# Relax obj value: 0.052
# Max RMSD: 0.132
# Mean RMSD: 0.132
data_MOF--net-wga--node1-BEQFEK_clean_sbu_0--edge1-XUDNAN_clean_linker_2
_symmetry_space_group_name_H-M    P1
_symmetry_Int_Tables_number       1
_symmetry_cell_setting            triclinic
loop_
_symmetry_equiv_pos_as_xyz
'x, y, z'
_cell_length_a     107.19339
_cell_length_b     107.23143
_cell_length_c     19.411209
_cell_angle_alpha  89.999048
_cell_angle_beta   90.014912
_cell_angle_gamma 89.999942
loop_
_atom_site_label
_atom_site_type_symbol
_atom_site_fract_x
_atom_site_fract_y
_atom_site_fract_z
_atom_type_partial_charge
Co0 Co 0.06801 0.57213 0.01659 0.0
Co1 Co 0.07026 0.56406 0.17137 0.0
C2 C 0.0461 0.57379 0.11084 0.0
O3 O 0.05087 0.57556 0.05135 0.0
O4 O 0.05256 0.56941 0.1606 0.0
C5 C 0.06758 0.58272 0.86689 0.0
O6 O 0.06142 0.59318 0.87596 0.0
C7 C 0.07022 0.56497 0.32579 0.0
C8 C 0.08566 0.55184 0.34624 0.0
C9 C 0.07723 0.55967 0.37875 0.0
N10 N 0.07451 0.56057 0.26519 0.0
N11 N 0.08368 0.55268 0.27814 0.0
C12 C 0.05954 0.57386 0.33222 0.0
H13 H 0.05369 0.57362 0.28551 0.0
H14 H 0.0632 0.58347 0.33825 0.0
H15 H 0.05374 0.57153 0.3778 0.0
C16 C 0.08946 0.58826 0.05679 0.0
N17 N 0.08047 0.57985 0.07107 0.0
N18 N 0.0812 0.57665 0.13641 0.0
C19 C 0.09048 0.58319 0.16626 0.0
C20 C 0.09617 0.59065 0.11676 0.0
C21 C 0.09202 0.59317 0.98604 0.0
H22 H 0.09181 0.58538 0.94846 0.0
H23 H 0.08457 0.59986 0.97161 0.0
H24 H 0.10122 0.59788 0.98301 0.0
O25 O 0.07079 0.5541 0.01507 0.0
O26 O 0.07272 0.54779 0.12273 0.0
H27 H 0.09792 0.57408 0.25526 0.0
H28 H 0.09933 0.59087 0.25755 0.0
C29 C 0.09327 0.58299 0.24185 0.0
H30 H 0.08444 0.58368 0.27113 0.0
H31 H 0.08872 0.54797 0.24018 0.0
O32 O 0.06982 0.5756 0.91762 0.0
C33 C 0.07261 0.54547 0.05851 0.0
Co34 Co 0.68193 0.81759 0.26774 0.0
Co35 Co 0.68403 0.81968 0.42877 0.0
C36 C 0.67662 0.79573 0.35968 0.0
O37 O 0.67753 0.80051 0.29978 0.0
O38 O 0.67879 0.80213 0.41371 0.0
C39 C 0.67006 0.81332 0.13628 0.0
O40 O 0.66152 0.80743 0.17238 0.0
C41 C 0.67839 0.81786 0.57758 0.0
C42 C 0.6894 0.83358 0.61913 0.0
C43 C 0.68127 0.82415 0.63819 0.0
N44 N 0.68435 0.82351 0.52516 0.0
N45 N 0.69099 0.83282 0.55051 0.0
C46 C 0.67136 0.8059 0.56966 0.0
H47 H 0.67766 0.79892 0.54601 0.0
H48 H 0.66335 0.80734 0.53427 0.0
H49 H 0.66808 0.80207 0.61941 0.0
C50 C 0.66458 0.83897 0.29136 0.0
N51 N 0.67234 0.82998 0.3143 0.0
N52 N 0.67305 0.83068 0.38192 0.0
C53 C 0.66562 0.83999 0.4042 0.0
C54 C 0.66002 0.84558 0.34759 0.0
C55 C 0.66141 0.84096 0.21708 0.0
H56 H 0.65611 0.83278 0.19804 0.0
H57 H 0.65563 0.84941 0.20916 0.0
H58 H 0.67012 0.84169 0.18646 0.0
O59 O 0.70002 0.82041 0.28173 0.0
O60 O 0.70135 0.82192 0.3954 0.0
H61 H 0.65764 0.85148 0.48539 0.0
H62 H 0.66213 0.83589 0.51037 0.0
C63 C 0.66464 0.84401 0.47788 0.0
H64 H 0.67381 0.8476 0.49513 0.0
H65 H 0.69657 0.83871 0.52078 0.0
O66 O 0.6792 0.81839 0.16707 0.0
C67 C 0.70645 0.82198 0.33616 0.0
Co68 Co 0.43259 0.43122 0.50961 0.0
Co69 Co 0.43043 0.4334 0.67053 0.0
C70 C 0.45452 0.42643 0.60163 0.0
O71 O 0.44977 0.42693 0.54148 0.0
O72 O 0.44802 0.42875 0.65495 0.0
C73 C 0.43565 0.41857 0.37929 0.0
O74 O 0.4401 0.40934 0.41642 0.0
C75 C 0.43111 0.42619 0.81851 0.0
C76 C 0.41903 0.44076 0.86342 0.0
C77 C 0.42615 0.43043 0.88057 0.0
N78 N 0.42698 0.43364 0.76742 0.0
N79 N 0.41976 0.4423 0.79482 0.0
C80 C 0.43989 0.4155 0.80796 0.0
H81 H 0.44442 0.416 0.75703 0.0
H82 H 0.4346 0.40662 0.80998 0.0
H83 H 0.44708 0.41536 0.84911 0.0
C84 C 0.41071 0.41428 0.53373 0.0
N85 N 0.42011 0.42163 0.55621 0.0
N86 N 0.41945 0.42247 0.62382 0.0
C87 C 0.4097 0.41568 0.64639 0.0
C88 C 0.40381 0.4103 0.59019 0.0
C89 C 0.40773 0.412 0.4595 0.0
H90 H 0.4089 0.42074 0.42966 0.0
H91 H 0.4143 0.40495 0.43876 0.0
H92 H 0.39806 0.40849 0.45293 0.0
O93 O 0.42964 0.44937 0.52343 0.0
O94 O 0.42779 0.45062 0.63707 0.0
H95 H 0.40322 0.42361 0.74096 0.0
H96 H 0.39842 0.40761 0.72801 0.0
C97 C 0.4061 0.41439 0.72056 0.0
H98 H 0.41427 0.41113 0.7504 0.0
H99 H 0.41539 0.44934 0.76663 0.0
O100 O 0.43188 0.42842 0.40908 0.0
C101 C 0.42779 0.45573 0.57787 0.0
Co102 Co 0.82338 0.18242 0.72098 0.0
Co103 Co 0.8151 0.18179 0.87645 0.0
C104 C 0.82448 0.20527 0.81004 0.0
O105 O 0.82624 0.1996 0.75315 0.0
O106 O 0.82002 0.19967 0.86262 0.0
C107 C 0.82556 0.18813 0.5787 0.0
O108 O 0.81876 0.19775 0.59737 0.0
C109 C 0.81721 0.18349 0.02831 0.0
C110 C 0.80534 0.16764 0.05979 0.0
C111 C 0.81331 0.17669 0.08515 0.0
N112 N 0.81185 0.17859 0.97173 0.0
N113 N 0.80456 0.16929 0.99122 0.0
C114 C 0.82685 0.19359 0.02684 0.0
H115 H 0.83228 0.19313 0.97824 0.0
H116 H 0.83322 0.19287 0.07173 0.0
H117 H 0.82208 0.20276 0.02881 0.0
C118 C 0.84133 0.1637 0.7699 0.0
N119 N 0.83148 0.17123 0.78042 0.0
N120 N 0.82824 0.17085 0.8458 0.0
C121 C 0.83602 0.16294 0.87902 0.0
C122 C 0.84458 0.1582 0.832 0.0
C123 C 0.84759 0.16207 0.70159 0.0
H124 H 0.84048 0.15983 0.66195 0.0
H125 H 0.85213 0.17096 0.68657 0.0
H126 H 0.85465 0.15451 0.70286 0.0
O127 O 0.80548 0.17882 0.71746 0.0
O128 O 0.7991 0.17844 0.826 0.0
H129 H 0.82685 0.15726 0.97167 0.0
H130 H 0.8434 0.15424 0.97152 0.0
C131 C 0.83606 0.16089 0.95529 0.0
H132 H 0.83773 0.16989 0.98165 0.0
H133 H 0.79956 0.16365 0.95721 0.0
O134 O 0.82926 0.18051 0.62458 0.0
C135 C 0.79686 0.17749 0.76174 0.0
Co136 Co 0.06921 0.43136 0.01626 0.0
Co137 Co 0.06767 0.43415 0.85564 0.0
C138 C 0.0453 0.42707 0.9371 0.0
O139 O 0.05169 0.42744 0.99238 0.0
O140 O 0.05017 0.42958 0.87886 0.0
C141 C 0.06587 0.41887 0.14576 0.0
O142 O 0.0595 0.41077 0.10916 0.0
C143 C 0.06438 0.42913 0.70579 0.0
C144 C 0.07983 0.44047 0.66378 0.0
C145 C 0.07048 0.43224 0.64484 0.0
N146 N 0.07013 0.43503 0.75822 0.0
N147 N 0.07924 0.44189 0.73247 0.0
C148 C 0.05297 0.42122 0.71406 0.0
H149 H 0.04688 0.4251 0.75479 0.0
H150 H 0.05576 0.41167 0.72961 0.0
H151 H 0.04755 0.42074 0.66544 0.0
C152 C 0.08832 0.41242 0.97715 0.0
N153 N 0.08012 0.42155 0.9616 0.0
N154 N 0.07909 0.4224 0.89413 0.0
C155 C 0.08647 0.41371 0.86482 0.0
C156 C 0.09255 0.40713 0.91631 0.0
C157 C 0.09118 0.40812 0.0487 0.0
H158 H 0.09217 0.41628 0.08339 0.0
H159 H 0.08334 0.4023 0.06762 0.0
H160 H 0.09984 0.40247 0.05011 0.0
O161 O 0.0723 0.44945 0.00384 0.0
O162 O 0.07117 0.4512 0.89029 0.0
H163 H 0.09395 0.40373 0.77674 0.0
H164 H 0.07805 0.40912 0.76826 0.0
C165 C 0.08741 0.41143 0.78893 0.0
H166 H 0.09076 0.42001 0.76314 0.0
H167 H 0.08524 0.44736 0.76213 0.0
O168 O 0.07116 0.42797 0.11569 0.0
C169 C 0.07275 0.45605 0.94948 0.0
Co170 Co 0.82304 0.81942 0.26537 0.0
Co171 Co 0.8141 0.81826 0.11054 0.0
C172 C 0.82565 0.79613 0.1799 0.0
O173 O 0.82728 0.80232 0.23526 0.0
O174 O 0.82052 0.80102 0.12708 0.0
C175 C 0.82556 0.81415 0.40682 0.0
O176 O 0.81951 0.80413 0.38678 0.0
C177 C 0.81583 0.81608 0.95822 0.0
C178 C 0.8022 0.83043 0.92654 0.0
C179 C 0.81107 0.82226 0.90112 0.0
N180 N 0.81012 0.82054 0.01495 0.0
N181 N 0.80176 0.82888 0.99528 0.0
C182 C 0.82663 0.80724 0.95968 0.0
H183 H 0.83184 0.8082 0.00878 0.0
H184 H 0.83296 0.80888 0.91538 0.0
H185 H 0.82303 0.79756 0.95631 0.0
C186 C 0.83746 0.84088 0.21187 0.0
N187 N 0.82957 0.83124 0.20314 0.0
N188 N 0.82619 0.83059 0.13799 0.0
C189 C 0.83207 0.83974 0.10291 0.0
C190 C 0.83931 0.84664 0.14857 0.0
C191 C 0.84248 0.84485 0.28041 0.0
H192 H 0.83496 0.84445 0.31956 0.0
H193 H 0.84992 0.83826 0.2964 0.0
H194 H 0.84634 0.85444 0.27865 0.0
O195 O 0.8049 0.82128 0.27046 0.0
O196 O 0.79809 0.82058 0.16272 0.0
H197 H 0.82204 0.84456 0.01142 0.0
H198 H 0.83851 0.84803 0.00708 0.0
C199 C 0.83148 0.84131 0.02634 0.0
H200 H 0.83331 0.83225 0.00128 0.0
H201 H 0.79627 0.83405 0.02924 0.0
O202 O 0.82887 0.8221 0.36165 0.0
C203 C 0.79602 0.82164 0.22713 0.0
Co204 Co 0.43126 0.57207 0.54162 0.0
Co205 Co 0.43333 0.56564 0.38277 0.0
C206 C 0.45522 0.57529 0.46393 0.0
O207 O 0.44867 0.5763 0.51834 0.0
O208 O 0.45058 0.5711 0.40802 0.0
C209 C 0.43301 0.5851 0.67372 0.0
O210 O 0.43915 0.59376 0.63996 0.0
C211 C 0.43715 0.57029 0.2325 0.0
C212 C 0.42345 0.55719 0.18798 0.0
C213 C 0.43175 0.56658 0.17036 0.0
N214 N 0.43192 0.56369 0.28416 0.0
N215 N 0.42392 0.55573 0.25678 0.0
C216 C 0.44722 0.57978 0.24299 0.0
H217 H 0.45354 0.57681 0.28496 0.0
H218 H 0.44295 0.58881 0.25797 0.0
H219 H 0.45281 0.58108 0.19544 0.0
C220 C 0.41038 0.58775 0.49112 0.0
N221 N 0.4201 0.58002 0.48061 0.0
N222 N 0.42108 0.57754 0.41428 0.0
C223 C 0.41205 0.58384 0.38049 0.0
C224 C 0.4049 0.5904 0.42796 0.0
C225 C 0.40597 0.59172 0.56087 0.0
H226 H 0.4064 0.58372 0.59697 0.0
H227 H 0.41226 0.59911 0.58075 0.0
H228 H 0.39629 0.59538 0.55913 0.0
O229 O 0.42882 0.55403 0.53535 0.0
O230 O 0.43008 0.54881 0.42501 0.0
H231 H 0.40747 0.57474 0.28577 0.0
H232 H 0.40386 0.5912 0.28652 0.0
C233 C 0.41062 0.58403 0.30378 0.0
H234 H 0.41972 0.58618 0.27984 0.0
H235 H 0.41843 0.54959 0.28542 0.0
O236 O 0.42847 0.5759 0.64089 0.0
C237 C 0.42845 0.54586 0.48802 0.0
Co238 Co 0.68274 0.18216 0.71006 0.0
Co239 Co 0.68617 0.18056 0.54927 0.0
C240 C 0.67902 0.20448 0.61864 0.0
O241 O 0.67919 0.19955 0.67836 0.0
O242 O 0.68147 0.1981 0.56507 0.0
C243 C 0.67209 0.18904 0.84079 0.0
O244 O 0.66674 0.1979 0.80458 0.0
C245 C 0.67984 0.18304 0.40264 0.0
C246 C 0.69418 0.17129 0.35313 0.0
C247 C 0.68418 0.17909 0.33856 0.0
N248 N 0.68699 0.17789 0.45195 0.0
N249 N 0.69554 0.17087 0.42201 0.0
C250 C 0.66861 0.19085 0.41811 0.0
H251 H 0.6653 0.1891 0.4714 0.0
H252 H 0.66099 0.1888 0.3811 0.0
H253 H 0.67114 0.20084 0.41383 0.0
C254 C 0.66536 0.16107 0.67926 0.0
N255 N 0.67327 0.17017 0.65933 0.0
N256 N 0.67468 0.16962 0.59201 0.0
C257 C 0.66771 0.16022 0.56692 0.0
C258 C 0.66161 0.15441 0.62131 0.0
C259 C 0.66227 0.15831 0.75286 0.0
H260 H 0.671 0.1579 0.78353 0.0
H261 H 0.6565 0.16601 0.77385 0.0
H262 H 0.65716 0.14937 0.75835 0.0
O263 O 0.70093 0.17882 0.69995 0.0
O264 O 0.70309 0.17758 0.58641 0.0
H265 H 0.676 0.15381 0.47312 0.0
H266 H 0.65965 0.1498 0.48163 0.0
C267 C 0.66678 0.15704 0.49194 0.0
H268 H 0.66417 0.16549 0.46261 0.0
H269 H 0.70237 0.16587 0.44861 0.0
O270 O 0.67897 0.18111 0.81033 0.0
C271 C 0.70771 0.17717 0.64681 0.0
Co272 Co 0.93059 0.43193 0.01148 0.0
Co273 Co 0.93177 0.43371 0.85233 0.0
C274 C 0.95422 0.42655 0.93137 0.0
O275 O 0.94793 0.42748 0.98684 0.0
O276 O 0.94931 0.42874 0.87273 0.0
C277 C 0.93463 0.42274 0.15083 0.0
O278 O 0.94123 0.41357 0.12485 0.0
C279 C 0.93523 0.43092 0.70197 0.0
C280 C 0.91927 0.44227 0.66575 0.0
C281 C 0.9295 0.43556 0.64334 0.0
N282 N 0.92861 0.43476 0.75679 0.0
N283 N 0.91903 0.44141 0.73468 0.0
C284 C 0.94738 0.42413 0.7067 0.0
H285 H 0.94664 0.41656 0.74549 0.0
H286 H 0.95017 0.4202 0.65613 0.0
H287 H 0.9547 0.4307 0.72445 0.0
C288 C 0.91127 0.41283 0.97828 0.0
N289 N 0.91935 0.42193 0.96074 0.0
N290 N 0.92022 0.42246 0.89319 0.0
C291 C 0.91281 0.41365 0.86551 0.0
C292 C 0.90688 0.40725 0.91838 0.0
C293 C 0.90896 0.40872 0.05075 0.0
H294 H 0.90738 0.41699 0.08396 0.0
H295 H 0.91736 0.40381 0.0702 0.0
H296 H 0.90084 0.40233 0.05408 0.0
O297 O 0.92778 0.44997 0.99657 0.0
O298 O 0.92903 0.45103 0.88332 0.0
H299 H 0.90771 0.41944 0.7641 0.0
H300 H 0.90573 0.40302 0.77847 0.0
C301 C 0.91177 0.41115 0.7898 0.0
H302 H 0.92121 0.40956 0.76803 0.0
H303 H 0.91255 0.44571 0.76701 0.0
O304 O 0.92889 0.43022 0.1113 0.0
C305 C 0.92755 0.45629 0.94132 0.0
Co306 Co 0.31986 0.18161 0.73876 0.0
Co307 Co 0.31555 0.18227 0.57993 0.0
C308 C 0.32373 0.20503 0.65431 0.0
O309 O 0.32382 0.19891 0.71063 0.0
O310 O 0.3206 0.1999 0.59758 0.0
C311 C 0.32421 0.18787 0.88029 0.0
O312 O 0.32014 0.19895 0.86211 0.0
C313 C 0.31962 0.18356 0.42971 0.0
C314 C 0.30669 0.16877 0.39486 0.0
C315 C 0.31566 0.17707 0.37208 0.0
N316 N 0.31333 0.17918 0.4845 0.0
N317 N 0.30547 0.17052 0.46306 0.0
C318 C 0.33002 0.19283 0.43385 0.0
H319 H 0.33441 0.19257 0.48562 0.0
H320 H 0.33712 0.19099 0.3935 0.0
H321 H 0.32616 0.20231 0.42536 0.0
C322 C 0.33652 0.1608 0.69928 0.0
N323 N 0.3287 0.17018 0.68312 0.0
N324 N 0.32743 0.17075 0.61579 0.0
C325 C 0.33459 0.1618 0.58689 0.0
C326 C 0.34055 0.15522 0.63886 0.0
C327 C 0.33992 0.15721 0.77136 0.0
H328 H 0.34446 0.16526 0.79713 0.0
H329 H 0.34635 0.14911 0.77251 0.0
H330 H 0.33131 0.15495 0.80056 0.0
O331 O 0.30162 0.17857 0.73426 0.0
O332 O 0.29896 0.179 0.62111 0.0
H333 H 0.34178 0.15141 0.49966 0.0
H334 H 0.33786 0.16749 0.48294 0.0
C335 C 0.33507 0.15899 0.51144 0.0
H336 H 0.32568 0.15612 0.49354 0.0
H337 H 0.29965 0.1654 0.49558 0.0
O338 O 0.32492 0.17929 0.83538 0.0
C339 C 0.2946 0.17771 0.68165 0.0
Co340 Co 0.57043 0.57198 0.53995 0.0
Co341 Co 0.56818 0.56568 0.38099 0.0
C342 C 0.54638 0.57526 0.46247 0.0
O343 O 0.55299 0.57619 0.51677 0.0
O344 O 0.55096 0.57115 0.40624 0.0
C345 C 0.56852 0.58497 0.6719 0.0
O346 O 0.56222 0.5935 0.63801 0.0
C347 C 0.56416 0.57001 0.23051 0.0
C348 C 0.57841 0.55745 0.18655 0.0
C349 C 0.56975 0.56648 0.16856 0.0
N350 N 0.56964 0.56368 0.28243 0.0
N351 N 0.57796 0.55603 0.25538 0.0
C352 C 0.5537 0.57909 0.2406 0.0
H353 H 0.54739 0.57577 0.28182 0.0
H354 H 0.55757 0.58824 0.25654 0.0
H355 H 0.54819 0.58025 0.19265 0.0
C356 C 0.59122 0.58778 0.4889 0.0
N357 N 0.58155 0.57995 0.47874 0.0
N358 N 0.5804 0.57763 0.41234 0.0
C359 C 0.58919 0.58417 0.37813 0.0
C360 C 0.59644 0.59068 0.42539 0.0
C361 C 0.59577 0.59167 0.55851 0.0
H362 H 0.59507 0.58374 0.59497 0.0
H363 H 0.58976 0.59932 0.57803 0.0
H364 H 0.60558 0.59498 0.55651 0.0
O365 O 0.57286 0.55394 0.53385 0.0
O366 O 0.57143 0.54887 0.42337 0.0
H367 H 0.59373 0.57579 0.28133 0.0
H368 H 0.59641 0.59242 0.28404 0.0
C369 C 0.59016 0.5848 0.30127 0.0
H370 H 0.58082 0.58655 0.27916 0.0
H371 H 0.58369 0.55015 0.28427 0.0
O372 O 0.57323 0.57584 0.63918 0.0
C373 C 0.57313 0.54582 0.4862 0.0
Co374 Co 0.1814 0.82015 0.22198 0.0
Co375 Co 0.18902 0.82034 0.06602 0.0
C376 C 0.17989 0.7971 0.1309 0.0
O377 O 0.1784 0.80256 0.18885 0.0
O378 O 0.18404 0.8029 0.07842 0.0
C379 C 0.17982 0.81449 0.36357 0.0
O380 O 0.18736 0.80549 0.34424 0.0
C381 C 0.18833 0.8187 0.91283 0.0
C382 C 0.19673 0.83692 0.88664 0.0
C383 C 0.19098 0.82659 0.85804 0.0
N384 N 0.19221 0.82424 0.97136 0.0
N385 N 0.19748 0.83498 0.95493 0.0
C386 C 0.18097 0.80684 0.91054 0.0
H387 H 0.1746 0.80629 0.9554 0.0
H388 H 0.1755 0.80607 0.86219 0.0
H389 H 0.1875 0.79883 0.91363 0.0
C390 C 0.16585 0.84167 0.17379 0.0
N391 N 0.17387 0.83216 0.16341 0.0
N392 N 0.17583 0.83088 0.09716 0.0
C393 C 0.16811 0.83855 0.0626 0.0
C394 C 0.16174 0.84616 0.10965 0.0
C395 C 0.16314 0.84679 0.24394 0.0
H396 H 0.17062 0.84412 0.28055 0.0
H397 H 0.15418 0.84291 0.26293 0.0
H398 H 0.16255 0.85712 0.24241 0.0
O399 O 0.19923 0.82339 0.22614 0.0
O400 O 0.20516 0.8236 0.11675 0.0
H401 H 0.17176 0.84268 0.95635 0.0
H402 H 0.15555 0.83926 0.97524 0.0
C403 C 0.16536 0.83683 0.98749 0.0
H404 H 0.16674 0.82696 0.97305 0.0
H405 H 0.20094 0.84132 0.99093 0.0
O406 O 0.17541 0.8218 0.31809 0.0
C407 C 0.20767 0.8246 0.18076 0.0
Co408 Co 0.93394 0.57278 0.99626 0.0
Co409 Co 0.93029 0.56491 0.15056 0.0
C410 C 0.95493 0.57442 0.09657 0.0
O411 O 0.95073 0.57621 0.03592 0.0
O412 O 0.94801 0.57008 0.14424 0.0
C413 C 0.93457 0.58384 0.84654 0.0
O414 O 0.93507 0.59587 0.85867 0.0
C415 C 0.93051 0.56744 0.30238 0.0
C416 C 0.91822 0.5518 0.33224 0.0
C417 C 0.92558 0.56124 0.35895 0.0
N418 N 0.92619 0.56191 0.24485 0.0
N419 N 0.91876 0.55265 0.26319 0.0
C420 C 0.93991 0.57775 0.30273 0.0
H421 H 0.94075 0.582 0.25089 0.0
H422 H 0.93724 0.58508 0.34008 0.0
H423 H 0.94909 0.57395 0.31883 0.0
C424 C 0.91181 0.5888 0.03054 0.0
N425 N 0.92091 0.58063 0.04706 0.0
N426 N 0.91958 0.57733 0.11207 0.0
C427 C 0.90976 0.58344 0.13913 0.0
C428 C 0.90442 0.59083 0.08836 0.0
C429 C 0.90968 0.5938 0.95961 0.0
H430 H 0.91138 0.58637 0.92105 0.0
H431 H 0.91636 0.6015 0.94997 0.0
H432 H 0.90005 0.59742 0.95347 0.0
O433 O 0.93104 0.5547 0.99539 0.0
O434 O 0.92809 0.54858 0.10287 0.0
H435 H 0.90251 0.57301 0.22411 0.0
H436 H 0.89856 0.58942 0.22648 0.0
C437 C 0.90592 0.58257 0.21314 0.0
H438 H 0.91411 0.58442 0.24634 0.0
H439 H 0.9143 0.5467 0.22848 0.0
O440 O 0.93408 0.57611 0.89607 0.0
C441 C 0.92877 0.54615 0.03887 0.0
Co442 Co 0.18004 0.18324 0.74586 0.0
Co443 Co 0.1866 0.17973 0.90403 0.0
C444 C 0.18023 0.20489 0.84161 0.0
O445 O 0.17836 0.20059 0.78131 0.0
O446 O 0.18344 0.19778 0.89108 0.0
C447 C 0.17193 0.19202 0.61164 0.0
O448 O 0.16978 0.20249 0.64467 0.0
C449 C 0.1809 0.18275 0.05094 0.0
C450 C 0.19467 0.17047 0.10143 0.0
C451 C 0.1851 0.17882 0.11541 0.0
N452 N 0.18775 0.17709 0.00189 0.0
N453 N 0.19595 0.16975 0.03246 0.0
C454 C 0.17004 0.19104 0.03512 0.0
H455 H 0.16649 0.18921 0.98238 0.0
H456 H 0.16244 0.18959 0.07309 0.0
H457 H 0.17307 0.20091 0.03761 0.0
C458 C 0.16061 0.16476 0.78272 0.0
N459 N 0.17046 0.17194 0.79925 0.0
N460 N 0.17329 0.17022 0.86464 0.0
C461 C 0.16529 0.16182 0.89177 0.0
C462 C 0.15694 0.15811 0.84077 0.0
C463 C 0.15515 0.16407 0.71184 0.0
H464 H 0.16272 0.16251 0.67388 0.0
H465 H 0.15066 0.17312 0.69928 0.0
H466 H 0.14821 0.15645 0.70716 0.0
O467 O 0.1977 0.17828 0.75 0.0
O468 O 0.20296 0.17555 0.85973 0.0
H469 H 0.1747 0.15533 0.9823 0.0
H470 H 0.15856 0.15051 0.9773 0.0
C471 C 0.16518 0.15817 0.96626 0.0
H472 H 0.16238 0.16631 0.99766 0.0
H473 H 0.20249 0.16432 0.00627 0.0
O474 O 0.17571 0.18258 0.64538 0.0
C475 C 0.20573 0.1755 0.79581 0.0
Co476 Co 0.56657 0.43184 0.49356 0.0
Co477 Co 0.5708 0.4321 0.6508 0.0
C478 C 0.54572 0.42631 0.59214 0.0
O479 O 0.54975 0.42757 0.53063 0.0
O480 O 0.5529 0.42775 0.64399 0.0
C481 C 0.5616 0.42475 0.34728 0.0
O482 O 0.55474 0.41507 0.36417 0.0
C483 C 0.57058 0.4304 0.80193 0.0
C484 C 0.59015 0.43557 0.82451 0.0
C485 C 0.57888 0.43265 0.85519 0.0
N486 N 0.57675 0.43182 0.74229 0.0
N487 N 0.58844 0.43483 0.75612 0.0
C488 C 0.55678 0.42846 0.80673 0.0
H489 H 0.55195 0.43528 0.77301 0.0
H490 H 0.5545 0.41897 0.78775 0.0
H491 H 0.55329 0.42954 0.86015 0.0
C492 C 0.58674 0.41253 0.50217 0.0
N493 N 0.57911 0.42116 0.53015 0.0
N494 N 0.5803 0.42085 0.59748 0.0
C495 C 0.58832 0.41171 0.6149 0.0
C496 C 0.59287 0.40624 0.55511 0.0
C497 C 0.5882 0.41053 0.42633 0.0
H498 H 0.58795 0.41962 0.39913 0.0
H499 H 0.58032 0.40477 0.40731 0.0
H500 H 0.59711 0.40573 0.41432 0.0
O501 O 0.57021 0.44958 0.51101 0.0
O502 O 0.57346 0.44966 0.62312 0.0
H503 H 0.59806 0.41244 0.71103 0.0
H504 H 0.59266 0.39711 0.68802 0.0
C505 C 0.59027 0.40718 0.68716 0.0
H506 H 0.58171 0.40861 0.71818 0.0
H507 H 0.59513 0.43683 0.71866 0.0
O508 O 0.56661 0.43142 0.39351 0.0
C509 C 0.57286 0.45539 0.56597 0.0
Co510 Co 0.32199 0.81846 0.25039 0.0
Co511 Co 0.31615 0.81676 0.40798 0.0
C512 C 0.32451 0.79438 0.32995 0.0
O513 O 0.32524 0.80091 0.27528 0.0
O514 O 0.32096 0.79913 0.38697 0.0
C515 C 0.32568 0.81264 0.1098 0.0
O516 O 0.32058 0.80207 0.12914 0.0
C517 C 0.31954 0.81461 0.55871 0.0
C518 C 0.30587 0.82865 0.59433 0.0
C519 C 0.31512 0.82064 0.61687 0.0
N520 N 0.31324 0.81898 0.50386 0.0
N521 N 0.30491 0.82716 0.5258 0.0
C522 C 0.33036 0.80585 0.55452 0.0
H523 H 0.33426 0.8057 0.50157 0.0
H524 H 0.3377 0.80855 0.59203 0.0
H525 H 0.32713 0.79632 0.5679 0.0
C526 C 0.34065 0.83675 0.30076 0.0
N527 N 0.33099 0.82893 0.3112 0.0
N528 N 0.32863 0.82821 0.37764 0.0
C529 C 0.33661 0.83578 0.41146 0.0
C530 C 0.34457 0.84132 0.36412 0.0
C531 C 0.34667 0.83878 0.23213 0.0
H532 H 0.34911 0.82962 0.20915 0.0
H533 H 0.35521 0.84457 0.23616 0.0
H534 H 0.33991 0.84338 0.19712 0.0
O535 O 0.30375 0.82197 0.25196 0.0
O536 O 0.30005 0.82072 0.364 0.0
H537 H 0.34222 0.84618 0.50204 0.0
H538 H 0.34039 0.82962 0.51405 0.0
C539 C 0.33654 0.83793 0.48767 0.0
H540 H 0.32687 0.8395 0.50559 0.0
H541 H 0.299 0.83222 0.49347 0.0
O542 O 0.32749 0.82112 0.15442 0.0
C543 C 0.29628 0.82256 0.30276 0.0
Co544 Co 0.56687 0.07254 0.48895 0.0
Co545 Co 0.57012 0.06591 0.64701 0.0
C546 C 0.54524 0.07334 0.58565 0.0
O547 O 0.54968 0.07495 0.52547 0.0
O548 O 0.55215 0.06987 0.6355 0.0
C549 C 0.55753 0.0777 0.35353 0.0
O550 O 0.54676 0.07636 0.38492 0.0
C551 C 0.568 0.07158 0.79408 0.0
C552 C 0.57964 0.05708 0.84292 0.0
C553 C 0.57185 0.06706 0.85779 0.0
N554 N 0.57312 0.06453 0.74426 0.0
N555 N 0.58013 0.05591 0.77379 0.0
C556 C 0.56023 0.08288 0.78 0.0
H557 H 0.56242 0.08672 0.72828 0.0
H558 H 0.56184 0.09011 0.81996 0.0
H559 H 0.55024 0.08025 0.7809 0.0
C560 C 0.58731 0.09002 0.5236 0.0
N561 N 0.57871 0.0815 0.54187 0.0
N562 N 0.58013 0.07876 0.60759 0.0
C563 C 0.58964 0.08557 0.63323 0.0
C564 C 0.59447 0.09294 0.58093 0.0
C565 C 0.58901 0.09474 0.45172 0.0
H566 H 0.57987 0.0978 0.43082 0.0
H567 H 0.59573 0.10262 0.44985 0.0
H568 H 0.59246 0.08703 0.4187 0.0
O569 O 0.57109 0.05471 0.49226 0.0
O570 O 0.57366 0.04946 0.60208 0.0
H571 H 0.59645 0.07416 0.71552 0.0
H572 H 0.60357 0.08944 0.7114 0.0
C573 C 0.59475 0.08417 0.70456 0.0
H574 H 0.58778 0.08765 0.74213 0.0
H575 H 0.58512 0.04913 0.74682 0.0
O576 O 0.56752 0.077 0.38871 0.0
C577 C 0.5736 0.04663 0.53823 0.0
Co578 Co 0.17872 0.31786 0.74258 0.0
Co579 Co 0.18655 0.32176 0.89772 0.0
C580 C 0.17946 0.29647 0.84069 0.0
O581 O 0.17726 0.30066 0.78035 0.0
O582 O 0.18306 0.30363 0.88931 0.0
C583 C 0.17798 0.31214 0.59825 0.0
O584 O 0.18629 0.30369 0.61527 0.0
C585 C 0.18451 0.32086 0.04992 0.0
C586 C 0.19453 0.33807 0.079 0.0
C587 C 0.18774 0.32823 0.10579 0.0
N588 N 0.18916 0.32613 0.99242 0.0
N589 N 0.19531 0.33631 0.01047 0.0
C590 C 0.17606 0.30976 0.05048 0.0
H591 H 0.17074 0.3092 0.00157 0.0
H592 H 0.1695 0.31017 0.09467 0.0
H593 H 0.18181 0.30121 0.05576 0.0
C594 C 0.1595 0.33624 0.78245 0.0
N595 N 0.16965 0.32933 0.79702 0.0
N596 N 0.1728 0.33106 0.86185 0.0
C597 C 0.16461 0.33907 0.89085 0.0
C598 C 0.15591 0.34262 0.84144 0.0
C599 C 0.15358 0.33684 0.71267 0.0
H600 H 0.16081 0.33914 0.67382 0.0
H601 H 0.14968 0.32756 0.69946 0.0
H602 H 0.14611 0.34397 0.71014 0.0
O603 O 0.19641 0.32261 0.73911 0.0
O604 O 0.2024 0.32548 0.84732 0.0
H605 H 0.17298 0.34757 0.97907 0.0
H606 H 0.15614 0.34796 0.97997 0.0
C607 C 0.16441 0.34231 0.96586 0.0
H608 H 0.16425 0.33362 0.99669 0.0
H609 H 0.19962 0.34233 0.97557 0.0
O610 O 0.17298 0.3187 0.64539 0.0
C611 C 0.20477 0.32535 0.78302 0.0
Co612 Co 0.93198 0.92983 0.97508 0.0
Co613 Co 0.92928 0.93549 0.13402 0.0
C614 C 0.95371 0.9274 0.06862 0.0
O615 O 0.9492 0.92639 0.00815 0.0
O616 O 0.947 0.93088 0.11926 0.0
C617 C 0.93546 0.91722 0.84189 0.0
O618 O 0.94128 0.90837 0.87585 0.0
C619 C 0.9299 0.92812 0.28094 0.0
C620 C 0.92 0.94382 0.33009 0.0
C621 C 0.9259 0.93261 0.34479 0.0
N622 N 0.92642 0.93627 0.23169 0.0
N623 N 0.9205 0.94562 0.26156 0.0
C624 C 0.93726 0.91655 0.26639 0.0
H625 H 0.94109 0.91668 0.21356 0.0
H626 H 0.93108 0.90829 0.27025 0.0
H627 H 0.94496 0.91554 0.30425 0.0
C628 C 0.91098 0.91264 0.00777 0.0
N629 N 0.91982 0.92092 0.02658 0.0
N630 N 0.91857 0.92342 0.09273 0.0
C631 C 0.90893 0.91674 0.11796 0.0
C632 C 0.90389 0.90966 0.06518 0.0
C633 C 0.90927 0.90788 0.93596 0.0
H634 H 0.91767 0.90254 0.92065 0.0
H635 H 0.90099 0.90172 0.9316 0.0
H636 H 0.90827 0.91587 0.90005 0.0
O637 O 0.92849 0.94778 0.98272 0.0
O638 O 0.92625 0.95239 0.09352 0.0
H639 H 0.89434 0.91397 0.19367 0.0
H640 H 0.91005 0.9129 0.2257 0.0
C641 C 0.90387 0.91795 0.18952 0.0
H642 H 0.90358 0.92791 0.20472 0.0
H643 H 0.91684 0.95327 0.23514 0.0
O644 O 0.93087 0.92642 0.87454 0.0
C645 C 0.92632 0.95564 0.03033 0.0
Co646 Co 0.32186 0.68001 0.22872 0.0
Co647 Co 0.31509 0.68061 0.38776 0.0
C648 C 0.32446 0.70333 0.31281 0.0
O649 O 0.32553 0.69729 0.25666 0.0
O650 O 0.3204 0.69813 0.36746 0.0
C651 C 0.33325 0.68547 0.09691 0.0
O652 O 0.33878 0.69438 0.13186 0.0
C653 C 0.3213 0.68319 0.53482 0.0
C654 C 0.30526 0.67414 0.58561 0.0
C655 C 0.31647 0.68012 0.59949 0.0
N656 N 0.31331 0.67921 0.48602 0.0
N657 N 0.30372 0.67385 0.51677 0.0
C658 C 0.33363 0.68899 0.51819 0.0
H659 H 0.33643 0.68669 0.46462 0.0
H660 H 0.34092 0.68571 0.55457 0.0
H661 H 0.33282 0.69928 0.52223 0.0
C662 C 0.33824 0.65959 0.2753 0.0
N663 N 0.33001 0.66876 0.2882 0.0
N664 N 0.32721 0.6688 0.35437 0.0
C665 C 0.33362 0.65953 0.3855 0.0
C666 C 0.34084 0.65346 0.3365 0.0
C667 C 0.34336 0.65677 0.20535 0.0
H668 H 0.34668 0.66553 0.18105 0.0
H669 H 0.35116 0.64998 0.20787 0.0
H670 H 0.3358 0.65294 0.17253 0.0
O671 O 0.30381 0.67703 0.23361 0.0
O672 O 0.2984 0.67746 0.34403 0.0
H673 H 0.33574 0.64628 0.46883 0.0
H674 H 0.33731 0.66243 0.49242 0.0
C675 C 0.33209 0.65581 0.45933 0.0
H676 H 0.3221 0.65614 0.47386 0.0
H677 H 0.29617 0.66991 0.49075 0.0
O678 O 0.32628 0.6778 0.1289 0.0
C679 C 0.29558 0.6762 0.28054 0.0
Co680 Co 0.57134 0.93218 0.5102 0.0
Co681 Co 0.56875 0.93486 0.34966 0.0
C682 C 0.54709 0.92721 0.43515 0.0
O683 O 0.55383 0.92781 0.48907 0.0
O684 O 0.55152 0.92976 0.37588 0.0
C685 C 0.56954 0.91911 0.63909 0.0
O686 O 0.56412 0.9104 0.60208 0.0
C687 C 0.56536 0.92967 0.19966 0.0
C688 C 0.57961 0.94239 0.15681 0.0
C689 C 0.57099 0.93336 0.13827 0.0
N690 N 0.57069 0.93603 0.25184 0.0
N691 N 0.57906 0.94371 0.22555 0.0
C692 C 0.55492 0.92055 0.2088 0.0
H693 H 0.54899 0.92327 0.25296 0.0
H694 H 0.55884 0.91118 0.21954 0.0
H695 H 0.54905 0.92006 0.16177 0.0
C696 C 0.59197 0.91518 0.46748 0.0
N697 N 0.58232 0.92285 0.45351 0.0
N698 N 0.58095 0.92372 0.38623 0.0
C699 C 0.58966 0.91657 0.3554 0.0
C700 C 0.59697 0.911 0.40568 0.0
C701 C 0.59671 0.91251 0.53843 0.0
H702 H 0.59635 0.9211 0.57019 0.0
H703 H 0.59061 0.90542 0.56287 0.0
H704 H 0.60641 0.90888 0.53715 0.0
O705 O 0.5739 0.95034 0.4975 0.0
O706 O 0.57197 0.95196 0.38414 0.0
H707 H 0.59431 0.92349 0.25538 0.0
H708 H 0.59714 0.907 0.26601 0.0
C709 C 0.59076 0.91479 0.27917 0.0
H710 H 0.58145 0.9127 0.25738 0.0
H711 H 0.58464 0.94966 0.25487 0.0
O712 O 0.5738 0.92877 0.60939 0.0
C713 C 0.57387 0.95689 0.44285 0.0
Co714 Co 0.31897 0.31954 0.73026 0.0
Co715 Co 0.31519 0.31854 0.57119 0.0
C716 C 0.32347 0.29604 0.64742 0.0
O717 O 0.32323 0.30227 0.70329 0.0
O718 O 0.3205 0.301 0.58996 0.0
C719 C 0.32357 0.31334 0.87171 0.0
O720 O 0.32007 0.30209 0.85326 0.0
C721 C 0.31967 0.31731 0.42131 0.0
C722 C 0.30631 0.33163 0.38539 0.0
C723 C 0.3156 0.32364 0.36336 0.0
N724 N 0.31312 0.32149 0.47561 0.0
N725 N 0.305 0.32987 0.45353 0.0
C726 C 0.33035 0.30838 0.42619 0.0
H727 H 0.33445 0.3086 0.47867 0.0
H728 H 0.33759 0.31063 0.38722 0.0
H729 H 0.32687 0.29882 0.4159 0.0
C730 C 0.33555 0.34043 0.69148 0.0
N731 N 0.32785 0.33098 0.67493 0.0
N732 N 0.32673 0.33036 0.60754 0.0
C733 C 0.33382 0.3394 0.57896 0.0
C734 C 0.3396 0.34608 0.63127 0.0
C735 C 0.33897 0.34388 0.76377 0.0
H736 H 0.34316 0.33568 0.78976 0.0
H737 H 0.3457 0.35173 0.76541 0.0
H738 H 0.3304 0.34646 0.7925 0.0
O739 O 0.3007 0.32237 0.724 0.0
O740 O 0.29843 0.3215 0.61071 0.0
H741 H 0.34067 0.35012 0.492 0.0
H742 H 0.33761 0.33385 0.47534 0.0
C743 C 0.33434 0.34221 0.50351 0.0
H744 H 0.32487 0.3446 0.4849 0.0
H745 H 0.29894 0.3348 0.48558 0.0
O746 O 0.32378 0.32201 0.82713 0.0
C747 C 0.29384 0.32291 0.67062 0.0
Co748 Co 0.93121 0.07021 0.02194 0.0
Co749 Co 0.93337 0.06808 0.86133 0.0
C750 C 0.9555 0.07451 0.94563 0.0
O751 O 0.94883 0.07397 0.99984 0.0
O752 O 0.9509 0.07231 0.88633 0.0
C753 C 0.93443 0.08274 0.15074 0.0
O754 O 0.94065 0.09086 0.11341 0.0
C755 C 0.93677 0.07325 0.71143 0.0
C756 C 0.92139 0.06182 0.66937 0.0
C757 C 0.93072 0.07006 0.65042 0.0
N758 N 0.93103 0.06735 0.76386 0.0
N759 N 0.92195 0.06045 0.73807 0.0
C760 C 0.94811 0.08126 0.71972 0.0
H761 H 0.9539 0.0779 0.76311 0.0
H762 H 0.9452 0.09097 0.73111 0.0
H763 H 0.95385 0.08123 0.67214 0.0
C764 C 0.91234 0.08942 0.98279 0.0
N765 N 0.92062 0.08037 0.96723 0.0
N766 N 0.92197 0.07983 0.89984 0.0
C767 C 0.91472 0.08863 0.87062 0.0
C768 C 0.9084 0.09498 0.92207 0.0
C769 C 0.90906 0.09335 0.05444 0.0
H770 H 0.91664 0.09932 0.07507 0.0
H771 H 0.90024 0.09876 0.05533 0.0
H772 H 0.90816 0.08503 0.08804 0.0
O773 O 0.92781 0.0522 0.00778 0.0
O774 O 0.92945 0.05106 0.89418 0.0
H775 H 0.90755 0.09888 0.78265 0.0
H776 H 0.92346 0.09346 0.77533 0.0
C777 C 0.91403 0.09113 0.79485 0.0
H778 H 0.91073 0.08264 0.768 0.0
H779 H 0.91596 0.05496 0.7677 0.0
O780 O 0.9292 0.07353 0.12134 0.0
C781 C 0.92747 0.04592 0.95222 0.0
Co782 Co 0.18142 0.68437 0.24399 0.0
Co783 Co 0.18414 0.68115 0.08348 0.0
C784 C 0.17798 0.70594 0.1478 0.0
O785 O 0.17819 0.70163 0.20901 0.0
O786 O 0.18007 0.69894 0.09609 0.0
C787 C 0.17156 0.69195 0.37623 0.0
O788 O 0.16647 0.70107 0.3409 0.0
C789 C 0.17676 0.68255 0.93814 0.0
C790 C 0.19164 0.67173 0.88708 0.0
C791 C 0.18114 0.67891 0.87354 0.0
N792 N 0.18441 0.6779 0.98664 0.0
N793 N 0.19324 0.67137 0.95581 0.0
C794 C 0.16524 0.68982 0.95494 0.0
H795 H 0.1622 0.68786 0.00851 0.0
H796 H 0.15762 0.68749 0.91846 0.0
H797 H 0.1673 0.69992 0.95099 0.0
C798 C 0.16321 0.66377 0.22086 0.0
N799 N 0.17135 0.67234 0.19722 0.0
N800 N 0.17242 0.67106 0.12998 0.0
C801 C 0.16496 0.66171 0.10872 0.0
C802 C 0.15884 0.65681 0.16554 0.0
C803 C 0.15989 0.66219 0.2952 0.0
H804 H 0.15635 0.67117 0.31573 0.0
H805 H 0.1527 0.65487 0.30262 0.0
H806 H 0.1684 0.65971 0.32476 0.0
O807 O 0.19946 0.68039 0.2324 0.0
O808 O 0.20109 0.67781 0.11928 0.0
H809 H 0.15952 0.64782 0.03316 0.0
H810 H 0.15988 0.66372 0.0029 0.0
C811 C 0.1646 0.65682 0.03651 0.0
H812 H 0.17424 0.65551 0.01723 0.0
H813 H 0.20051 0.66689 0.98162 0.0
O814 O 0.17806 0.68382 0.34487 0.0
C815 C 0.20594 0.6779 0.17917 0.0
Co816 Co 0.43235 0.93039 0.53128 0.0
Co817 Co 0.433 0.93173 0.37021 0.0
C818 C 0.45596 0.92598 0.44918 0.0
O819 O 0.44982 0.92679 0.50516 0.0
O820 O 0.45076 0.92773 0.39095 0.0
C821 C 0.43658 0.91832 0.66045 0.0
O822 O 0.44278 0.91026 0.62269 0.0
C823 C 0.43631 0.92706 0.22049 0.0
C824 C 0.41883 0.93527 0.18042 0.0
C825 C 0.42951 0.92898 0.16039 0.0
N826 N 0.42977 0.9318 0.27358 0.0
N827 N 0.4194 0.93678 0.24907 0.0
C828 C 0.44906 0.9215 0.22751 0.0
H829 H 0.45474 0.92723 0.26312 0.0
H830 H 0.44824 0.912 0.24971 0.0
H831 H 0.45395 0.92101 0.17726 0.0
C832 C 0.41334 0.91097 0.50065 0.0
N833 N 0.42145 0.91989 0.48103 0.0
N834 N 0.42216 0.92002 0.41335 0.0
C835 C 0.41468 0.91101 0.3878 0.0
C836 C 0.40879 0.90502 0.44225 0.0
C837 C 0.40994 0.9083 0.57393 0.0
H838 H 0.40966 0.91709 0.60393 0.0
H839 H 0.41711 0.9021 0.59687 0.0
H840 H 0.40073 0.9036 0.5773 0.0
O841 O 0.42861 0.94822 0.51554 0.0
O842 O 0.42921 0.94896 0.4015 0.0
H843 H 0.40822 0.91413 0.28512 0.0
H844 H 0.41031 0.89789 0.30634 0.0
C845 C 0.41418 0.90739 0.31336 0.0
H846 H 0.42368 0.90767 0.29099 0.0
H847 H 0.41263 0.94107 0.27952 0.0
O848 O 0.43109 0.92741 0.63133 0.0
C849 C 0.42771 0.9543 0.4595 0.0
Co850 Co 0.82032 0.68196 0.25097 0.0
Co851 Co 0.81632 0.68295 0.09207 0.0
C852 C 0.8251 0.70532 0.16748 0.0
O853 O 0.82492 0.69915 0.22356 0.0
O854 O 0.82187 0.70039 0.1104 0.0
C855 C 0.82472 0.68809 0.39229 0.0
O856 O 0.82093 0.69925 0.3738 0.0
C857 C 0.82052 0.68422 0.94197 0.0
C858 C 0.80723 0.66977 0.90672 0.0
C859 C 0.81642 0.67785 0.88423 0.0
N860 N 0.81409 0.67998 0.99659 0.0
N861 N 0.80602 0.67153 0.97492 0.0
C862 C 0.83113 0.69323 0.94633 0.0
H863 H 0.83547 0.69288 0.99821 0.0
H864 H 0.83822 0.6912 0.90618 0.0
H865 H 0.82751 0.7028 0.93764 0.0
C866 C 0.83663 0.66086 0.21145 0.0
N867 N 0.82893 0.67034 0.19537 0.0
N868 N 0.82779 0.67104 0.12801 0.0
C869 C 0.8349 0.66207 0.099 0.0
C870 C 0.84071 0.65533 0.15094 0.0
C871 C 0.84007 0.65729 0.28351 0.0
H872 H 0.84461 0.66535 0.3092 0.0
H873 H 0.84653 0.64921 0.28468 0.0
H874 H 0.83148 0.65502 0.31282 0.0
O875 O 0.80197 0.67954 0.24573 0.0
O876 O 0.7996 0.68023 0.13246 0.0
H877 H 0.84203 0.65169 0.01148 0.0
H878 H 0.83869 0.66794 0.99589 0.0
C879 C 0.83554 0.65945 0.02336 0.0
H880 H 0.82613 0.65694 0.00431 0.0
H881 H 0.80005 0.66654 0.00729 0.0
O882 O 0.82522 0.67945 0.34762 0.0
C883 C 0.79504 0.67902 0.19258 0.0
Co884 Co 0.07008 0.07337 0.05242 0.0
Co885 Co 0.06921 0.06529 0.89659 0.0
C886 C 0.04659 0.07537 0.96806 0.0
O887 O 0.05275 0.07682 0.02369 0.0
O888 O 0.05167 0.0709 0.91393 0.0
C889 C 0.06464 0.07661 0.19402 0.0
O890 O 0.05426 0.07104 0.17512 0.0
C891 C 0.06739 0.0677 0.74467 0.0
C892 C 0.08164 0.05401 0.71231 0.0
C893 C 0.07361 0.06305 0.68748 0.0
N894 N 0.07168 0.06173 0.80096 0.0
N895 N 0.07998 0.05337 0.7809 0.0
C896 C 0.05854 0.07848 0.74655 0.0
H897 H 0.05863 0.08295 0.7981 0.0
H898 H 0.06097 0.08542 0.7063 0.0
H899 H 0.04898 0.07502 0.73601 0.0
C900 C 0.08929 0.09055 0.99922 0.0
N901 N 0.08123 0.08105 0.99061 0.0
N902 N 0.0809 0.07786 0.92509 0.0
C903 C 0.08884 0.08531 0.89007 0.0
C904 C 0.09438 0.09355 0.9358 0.0
C905 C 0.09119 0.09728 0.06589 0.0
H906 H 0.08211 0.101 0.08408 0.0
H907 H 0.09797 0.10504 0.06055 0.0
H908 H 0.09459 0.09059 0.10528 0.0
O909 O 0.07284 0.05524 0.0558 0.0
O910 O 0.07212 0.04926 0.94664 0.0
H911 H 0.09276 0.07535 0.79701 0.0
H912 H 0.09873 0.09106 0.79819 0.0
C913 C 0.09081 0.08502 0.8138 0.0
H914 H 0.08226 0.08837 0.78761 0.0
H915 H 0.08502 0.04769 0.81455 0.0
O916 O 0.07275 0.0792 0.1484 0.0
C917 C 0.07337 0.04672 0.0104 0.0
Co918 Co 0.67814 0.31754 0.73294 0.0
Co919 Co 0.68751 0.32011 0.57891 0.0
C920 C 0.67827 0.29565 0.6387 0.0
O921 O 0.67597 0.30017 0.69823 0.0
O922 O 0.68266 0.30236 0.59014 0.0
C923 C 0.67622 0.31221 0.87675 0.0
O924 O 0.68329 0.30272 0.85922 0.0
C925 C 0.68499 0.319 0.42693 0.0
C926 C 0.69849 0.3334 0.39447 0.0
C927 C 0.68958 0.32521 0.36964 0.0
N928 N 0.6909 0.32335 0.48331 0.0
N929 N 0.69912 0.33179 0.46321 0.0
C930 C 0.67433 0.31002 0.42863 0.0
H931 H 0.66985 0.31 0.48017 0.0
H932 H 0.66734 0.3124 0.38853 0.0
H933 H 0.67791 0.30052 0.41754 0.0
C934 C 0.65995 0.33635 0.68284 0.0
N935 N 0.67009 0.32909 0.67361 0.0
N936 N 0.67413 0.3304 0.60991 0.0
C937 C 0.66667 0.33857 0.57679 0.0
C938 C 0.65743 0.34253 0.62161 0.0
C939 C 0.6524 0.3366 0.7476 0.0
H940 H 0.65039 0.32691 0.76432 0.0
H941 H 0.64353 0.34177 0.74056 0.0
H942 H 0.65794 0.34112 0.78893 0.0
O943 O 0.69607 0.32136 0.73888 0.0
O944 O 0.70314 0.32335 0.63212 0.0
H945 H 0.67817 0.34468 0.49311 0.0
H946 H 0.66259 0.35096 0.49169 0.0
C947 C 0.66824 0.34255 0.50342 0.0
H948 H 0.66521 0.33489 0.46894 0.0
H949 H 0.70478 0.33686 0.49682 0.0
O950 O 0.67215 0.31943 0.82975 0.0
C951 C 0.70494 0.32346 0.697 0.0
Co952 Co 0.43196 0.07051 0.48929 0.0
Co953 Co 0.42934 0.0642 0.64775 0.0
C954 C 0.45381 0.0723 0.58211 0.0
O955 O 0.44925 0.07388 0.5221 0.0
O956 O 0.44706 0.06852 0.63187 0.0
C957 C 0.43482 0.08338 0.35581 0.0
O958 O 0.44006 0.09261 0.38954 0.0
C959 C 0.43068 0.07108 0.79575 0.0
C960 C 0.41976 0.05596 0.84387 0.0
C961 C 0.4263 0.06678 0.85914 0.0
N962 N 0.42671 0.06326 0.74587 0.0
N963 N 0.42023 0.05423 0.77523 0.0
C964 C 0.4387 0.08226 0.78252 0.0
H965 H 0.44317 0.08175 0.7314 0.0
H966 H 0.43285 0.09079 0.78306 0.0
H967 H 0.44596 0.08314 0.82301 0.0
C968 C 0.41074 0.08741 0.52421 0.0
N969 N 0.41976 0.07923 0.54184 0.0
N970 N 0.41855 0.07638 0.60756 0.0
C971 C 0.40872 0.08262 0.63364 0.0
C972 C 0.40343 0.08982 0.5818 0.0
C973 C 0.4085 0.09192 0.45232 0.0
H974 H 0.40875 0.08391 0.41619 0.0
H975 H 0.41607 0.09846 0.43767 0.0
H976 H 0.39939 0.09675 0.44747 0.0
O977 O 0.42853 0.05249 0.49594 0.0
O978 O 0.42615 0.04746 0.60613 0.0
H979 H 0.40276 0.07183 0.72044 0.0
H980 H 0.39602 0.0873 0.71739 0.0
C981 C 0.40452 0.08173 0.70706 0.0
H982 H 0.41199 0.0853 0.74098 0.0
H983 H 0.41609 0.04689 0.74832 0.0
O984 O 0.43079 0.07396 0.38874 0.0
C985 C 0.42631 0.04445 0.54258 0.0
Co986 Co 0.67929 0.68292 0.24946 0.0
Co987 Co 0.68608 0.68054 0.40795 0.0
C988 C 0.67707 0.70469 0.34356 0.0
O989 O 0.67599 0.70012 0.28328 0.0
O990 O 0.6808 0.6981 0.39414 0.0
C991 C 0.6694 0.68996 0.1155 0.0
O992 O 0.66524 0.6998 0.14854 0.0
C993 C 0.67948 0.68213 0.55438 0.0
C994 C 0.69551 0.6732 0.60583 0.0
C995 C 0.6843 0.67922 0.61917 0.0
N996 N 0.68751 0.67816 0.50585 0.0
N997 N 0.69707 0.6728 0.53697 0.0
C998 C 0.66714 0.68792 0.53764 0.0
H999 H 0.66427 0.68549 0.48434 0.0
H1000 H 0.6599 0.68476 0.57464 0.0
H1001 H 0.66796 0.69819 0.54097 0.0
C1002 C 0.66242 0.66213 0.2869 0.0
N1003 N 0.6709 0.67087 0.30385 0.0
N1004 N 0.67388 0.66961 0.36939 0.0
C1005 C 0.66734 0.66001 0.3961 0.0
C1006 C 0.65984 0.65501 0.34483 0.0
C1007 C 0.65706 0.66061 0.21625 0.0
H1008 H 0.65411 0.66984 0.19618 0.0
H1009 H 0.64897 0.65416 0.21626 0.0
H1010 H 0.66438 0.65693 0.18135 0.0
O1011 O 0.69729 0.67962 0.25382 0.0
O1012 O 0.7028 0.67783 0.36369 0.0
H1013 H 0.6653 0.64543 0.47241 0.0
H1014 H 0.66377 0.66113 0.50414 0.0
C1015 C 0.66895 0.65508 0.46769 0.0
H1016 H 0.67895 0.65519 0.48208 0.0
H1017 H 0.70471 0.66897 0.51125 0.0
O1018 O 0.67505 0.68148 0.14916 0.0
C1019 C 0.70555 0.67775 0.29973 0.0
Co1020 Co 0.06707 0.93339 0.00108 0.0
Co1021 Co 0.06876 0.93173 0.16192 0.0
C1022 C 0.04484 0.92675 0.0917 0.0
O1023 O 0.04978 0.9288 0.03295 0.0
O1024 O 0.0512 0.9275 0.14691 0.0
C1025 C 0.0625 0.92194 0.87122 0.0
O1026 O 0.05713 0.91346 0.91007 0.0
C1027 C 0.06632 0.927 0.31177 0.0
C1028 C 0.08553 0.93078 0.34737 0.0
C1029 C 0.07383 0.92719 0.37009 0.0
N1030 N 0.07332 0.93016 0.25697 0.0
N1031 N 0.08478 0.93244 0.27875 0.0
C1032 C 0.05254 0.92488 0.30854 0.0
H1033 H 0.04818 0.93201 0.27489 0.0
H1034 H 0.05073 0.91556 0.2858 0.0
H1035 H 0.04816 0.92541 0.3602 0.0
C1036 C 0.08877 0.91628 0.01483 0.0
N1037 N 0.07946 0.9231 0.04195 0.0
N1038 N 0.07878 0.92092 0.10812 0.0
C1039 C 0.08661 0.91157 0.12454 0.0
C1040 C 0.09366 0.90833 0.06602 0.0
C1041 C 0.09355 0.91874 0.94358 0.0
H1042 H 0.09064 0.92815 0.92608 0.0
H1043 H 0.08958 0.91178 0.90735 0.0
H1044 H 0.10388 0.91834 0.94225 0.0
O1045 O 0.0703 0.95089 0.02314 0.0
O1046 O 0.07164 0.94972 0.13705 0.0
H1047 H 0.09331 0.90859 0.22728 0.0
H1048 H 0.08687 0.89482 0.18605 0.0
C1049 C 0.08587 0.90505 0.19267 0.0
H1050 H 0.07673 0.90685 0.21741 0.0
H1051 H 0.0921 0.93515 0.24664 0.0
O1052 O 0.06745 0.93141 0.89959 0.0
C1053 C 0.07195 0.95606 0.08137 0.0
Co1054 Co 0.81867 0.31963 0.75547 0.0
Co1055 Co 0.81534 0.31867 0.91649 0.0
C1056 C 0.82295 0.29609 0.83746 0.0
O1057 O 0.82264 0.30231 0.78167 0.0
O1058 O 0.82021 0.30107 0.89511 0.0
C1059 C 0.83058 0.31445 0.62648 0.0
O1060 O 0.83717 0.30673 0.66433 0.0
C1061 C 0.8215 0.31564 0.06366 0.0
C1062 C 0.80696 0.32725 0.11252 0.0
C1063 C 0.81712 0.3197 0.12762 0.0
N1064 N 0.81425 0.32059 0.01413 0.0
N1065 N 0.80556 0.32748 0.04373 0.0
C1066 C 0.83274 0.30784 0.04829 0.0
H1067 H 0.83575 0.30919 0.9941 0.0
H1068 H 0.84053 0.31029 0.08341 0.0
H1069 H 0.83036 0.29785 0.05534 0.0
C1070 C 0.83739 0.3387 0.79403 0.0
N1071 N 0.82823 0.33065 0.81049 0.0
N1072 N 0.82692 0.33035 0.87797 0.0
C1073 C 0.83511 0.33843 0.90641 0.0
C1074 C 0.84209 0.34388 0.85415 0.0
C1075 C 0.84178 0.34107 0.72207 0.0
H1076 H 0.83364 0.34236 0.68759 0.0
H1077 H 0.8471 0.33284 0.70367 0.0
H1078 H 0.84785 0.34944 0.71936 0.0
O1079 O 0.80052 0.32268 0.7667 0.0
O1080 O 0.79835 0.32189 0.88025 0.0
H1081 H 0.82775 0.34154 0.00755 0.0
H1082 H 0.84302 0.34819 0.99412 0.0
C1083 C 0.83691 0.34014 0.9823 0.0
H1084 H 0.84128 0.33165 0.00402 0.0
H1085 H 0.79871 0.3324 0.01688 0.0
O1086 O 0.82249 0.32136 0.65543 0.0
C1087 C 0.79371 0.32328 0.82032 0.0
H1088 H 0.06341 0.5939 0.73969 0.0
H1089 H 0.07909 0.56082 0.8364 0.0
H1090 H 0.08308 0.55175 0.72292 0.0
H1091 H 0.04821 0.57835 0.60111 0.0
H1092 H 0.05182 0.58993 0.53685 0.0
H1093 H 0.05043 0.5944 0.62598 0.0
H1094 H 0.07264 0.60391 0.62311 0.0
H1095 H 0.07403 0.59962 0.53369 0.0
H1096 H 0.08557 0.59444 0.59491 0.0
H1097 H 0.08427 0.54545 0.60167 0.0
H1098 H 0.0842 0.54295 0.47591 0.0
H1099 H 0.06924 0.58044 0.45423 0.0
C1100 C 0.0678 0.58482 0.73687 0.0
C1101 C 0.07084 0.57809 0.79728 0.0
C1102 C 0.07659 0.5662 0.79124 0.0
C1103 C 0.07891 0.56091 0.72686 0.0
C1104 C 0.07557 0.56763 0.66859 0.0
C1105 C 0.07032 0.57938 0.67251 0.0
C1106 C 0.06773 0.58449 0.60098 0.0
C1107 C 0.05371 0.58693 0.59065 0.0
C1108 C 0.07546 0.59631 0.58737 0.0
C1109 C 0.07217 0.57367 0.55688 0.0
C1110 C 0.07659 0.56405 0.59729 0.0
C1111 C 0.08093 0.55294 0.56923 0.0
C1112 C 0.08084 0.55163 0.49762 0.0
C1113 C 0.0765 0.56138 0.45452 0.0
C1114 C 0.0722 0.57259 0.48493 0.0
H1115 H 0.69487 0.82618 0.75602 0.0
H1116 H 0.65773 0.81756 0.68125 0.0
H1117 H 0.65084 0.81335 0.80054 0.0
H1118 H 0.69619 0.80359 0.89182 0.0
H1119 H 0.70425 0.81379 0.95071 0.0
H1120 H 0.70629 0.81567 0.85923 0.0
H1121 H 0.69941 0.83878 0.86874 0.0
H1122 H 0.69735 0.83697 0.96027 0.0
H1123 H 0.68462 0.8425 0.90786 0.0
H1124 H 0.6482 0.80972 0.9286 0.0
H1125 H 0.6497 0.80813 0.05552 0.0
H1126 H 0.68825 0.8204 0.04576 0.0
C1127 C 0.6853 0.82335 0.76477 0.0
C1128 C 0.67696 0.8217 0.70927 0.0
C1129 C 0.66444 0.81827 0.72278 0.0
C1130 C 0.6604 0.81602 0.79041 0.0
C1131 C 0.66894 0.81749 0.84392 0.0
C1132 C 0.6811 0.8212 0.83187 0.0
C1133 C 0.68835 0.82245 0.89836 0.0
C1134 C 0.69942 0.81333 0.90011 0.0
C1135 C 0.69268 0.83598 0.90945 0.0
C1136 C 0.6784 0.8188 0.94977 0.0
C1137 C 0.66729 0.81591 0.91746 0.0
C1138 C 0.65684 0.81203 0.95449 0.0
C1139 C 0.65778 0.81113 0.02647 0.0
C1140 C 0.66906 0.81419 0.0605 0.0
C1141 C 0.67946 0.81809 0.02135 0.0
H1142 H 0.42618 0.4442 0.99816 0.0
H1143 H 0.42987 0.40611 0.92532 0.0
H1144 H 0.43342 0.399 0.04427 0.0
H1145 H 0.44901 0.44279 0.13301 0.0
H1146 H 0.43999 0.45221 0.19162 0.0
H1147 H 0.43833 0.45432 0.10005 0.0
H1148 H 0.41451 0.45055 0.11031 0.0
H1149 H 0.4161 0.44843 0.2019 0.0
H1150 H 0.40892 0.43644 0.15028 0.0
H1151 H 0.43666 0.39609 0.17269 0.0
H1152 H 0.4383 0.39757 0.29964 0.0
H1153 H 0.43124 0.43737 0.28758 0.0
C1154 C 0.42777 0.43436 0.00703 0.0
C1155 C 0.42818 0.4258 0.95173 0.0
C1156 C 0.43011 0.41298 0.96591 0.0
C1157 C 0.43197 0.40881 0.0337 0.0
C1158 C 0.43169 0.41754 0.0868 0.0
C1159 C 0.42953 0.43003 0.0742 0.0
C1160 C 0.42928 0.4375 0.14028 0.0
C1161 C 0.43978 0.44728 0.14127 0.0
C1162 C 0.41644 0.44358 0.15132 0.0
C1163 C 0.43164 0.42725 0.19215 0.0
C1164 C 0.43308 0.41581 0.16044 0.0
C1165 C 0.43551 0.405 0.19809 0.0
C1166 C 0.43644 0.40593 0.27009 0.0
C1167 C 0.43485 0.41757 0.30348 0.0
C1168 C 0.43242 0.42832 0.26368 0.0
H1169 H 0.81222 0.19608 0.17686 0.0
H1170 H 0.82489 0.15796 0.15304 0.0
H1171 H 0.83182 0.1577 0.2746 0.0
H1172 H 0.83642 0.20643 0.30169 0.0
H1173 H 0.82547 0.21558 0.3507 0.0
H1174 H 0.82318 0.21344 0.25945 0.0
H1175 H 0.80103 0.20471 0.28241 0.0
H1176 H 0.80324 0.20683 0.37351 0.0
H1177 H 0.79914 0.19168 0.34022 0.0
H1178 H 0.83597 0.16099 0.39978 0.0
H1179 H 0.83559 0.16696 0.52245 0.0
H1180 H 0.81921 0.20264 0.46741 0.0
C1181 C 0.81673 0.18782 0.19718 0.0
C1182 C 0.81822 0.17709 0.15601 0.0
C1183 C 0.82378 0.16628 0.18417 0.0
C1184 C 0.82779 0.16607 0.25286 0.0
C1185 C 0.82604 0.17673 0.29277 0.0
C1186 C 0.82058 0.18739 0.26621 0.0
C1187 C 0.81861 0.19707 0.32203 0.0
C1188 C 0.82639 0.20883 0.30759 0.0
C1189 C 0.80468 0.20025 0.33 0.0
C1190 C 0.82353 0.19008 0.38427 0.0
C1191 C 0.82801 0.17847 0.36594 0.0
C1192 C 0.83258 0.1701 0.41475 0.0
C1193 C 0.83233 0.17359 0.48436 0.0
C1194 C 0.82737 0.18527 0.50467 0.0
C1195 C 0.82313 0.19368 0.45359 0.0
H1196 H 0.07442 0.44506 0.52612 0.0
H1197 H 0.06281 0.40886 0.60261 0.0
H1198 H 0.06011 0.40146 0.48313 0.0
H1199 H 0.05415 0.4465 0.37878 0.0
H1200 H 0.06572 0.45375 0.32456 0.0
H1201 H 0.06604 0.45627 0.41624 0.0
H1202 H 0.0889 0.4484 0.42038 0.0
H1203 H 0.08862 0.44578 0.32877 0.0
H1204 H 0.09262 0.43321 0.38634 0.0
H1205 H 0.05868 0.39811 0.35398 0.0
H1206 H 0.0591 0.39899 0.22655 0.0
H1207 H 0.07299 0.43697 0.23655 0.0
C1208 C 0.07121 0.4356 0.51781 0.0
C1209 C 0.06837 0.42769 0.57379 0.0
C1210 C 0.06445 0.4153 0.56073 0.0
C1211 C 0.06307 0.41095 0.49293 0.0
C1212 C 0.06586 0.41904 0.43893 0.0
C1213 C 0.06992 0.43109 0.45073 0.0
C1214 C 0.07268 0.43784 0.38407 0.0
C1215 C 0.06414 0.44926 0.37542 0.0
C1216 C 0.08653 0.44152 0.37966 0.0
C1217 C 0.06951 0.42772 0.33275 0.0
C1218 C 0.06554 0.41696 0.36521 0.0
C1219 C 0.06183 0.40647 0.32803 0.0
C1220 C 0.0621 0.40705 0.25576 0.0
C1221 C 0.06615 0.41801 0.22169 0.0
C1222 C 0.06998 0.4284 0.26101 0.0
H1223 H 0.81182 0.8033 0.80636 0.0
H1224 H 0.82121 0.8422 0.83688 0.0
H1225 H 0.82831 0.84367 0.71591 0.0
H1226 H 0.83709 0.79567 0.68235 0.0
H1227 H 0.82709 0.78586 0.63102 0.0
H1228 H 0.82439 0.78737 0.7223 0.0
H1229 H 0.80163 0.7943 0.6984 0.0
H1230 H 0.80427 0.79281 0.60725 0.0
H1231 H 0.79879 0.80739 0.64223 0.0
H1232 H 0.83298 0.84137 0.59021 0.0
H1233 H 0.83349 0.83592 0.46667 0.0
H1234 H 0.82016 0.79873 0.5157 0.0
C1235 C 0.81564 0.81201 0.78762 0.0
C1236 C 0.81614 0.82261 0.83054 0.0
C1237 C 0.82085 0.83399 0.80441 0.0
C1238 C 0.82495 0.83488 0.73604 0.0
C1239 C 0.82418 0.82434 0.69435 0.0
C1240 C 0.81958 0.81312 0.71894 0.0
C1241 C 0.8186 0.80358 0.66157 0.0
C1242 C 0.82731 0.79246 0.67514 0.0
C1243 C 0.80502 0.79927 0.65179 0.0
C1244 C 0.82308 0.81126 0.60078 0.0
C1245 C 0.82647 0.82313 0.62107 0.0
C1246 C 0.83045 0.83207 0.57374 0.0
C1247 C 0.83072 0.82888 0.50363 0.0
C1248 C 0.82688 0.8169 0.48136 0.0
C1249 C 0.82323 0.80794 0.53099 0.0
H1250 H 0.42799 0.56548 0.75973 0.0
H1251 H 0.43759 0.60479 0.76045 0.0
H1252 H 0.4383 0.60447 0.88792 0.0
H1253 H 0.40867 0.56552 0.9128 0.0
H1254 H 0.4142 0.55052 0.94145 0.0
H1255 H 0.41381 0.5541 0.85083 0.0
H1256 H 0.43735 0.54885 0.84154 0.0
H1257 H 0.43784 0.54535 0.93223 0.0
H1258 H 0.44832 0.5568 0.89656 0.0
H1259 H 0.43771 0.59977 0.01603 0.0
H1260 H 0.43641 0.59107 0.13323 0.0
H1261 H 0.42882 0.55446 0.04771 0.0
C1262 C 0.43008 0.57408 0.78662 0.0
C1263 C 0.43263 0.5852 0.75009 0.0
C1264 C 0.43555 0.59618 0.78733 0.0
C1265 C 0.43598 0.59608 0.85972 0.0
C1266 C 0.43359 0.5849 0.89404 0.0
C1267 C 0.43072 0.5741 0.85864 0.0
C1268 C 0.42898 0.5632 0.90739 0.0
C1269 C 0.41562 0.55803 0.90284 0.0
C1270 C 0.4387 0.55295 0.89359 0.0
C1271 C 0.4313 0.56955 0.97589 0.0
C1272 C 0.43387 0.58208 0.9672 0.0
C1273 C 0.43595 0.58992 0.0233 0.0
C1274 C 0.43541 0.58482 0.08991 0.0
C1275 C 0.43306 0.57194 0.10001 0.0
C1276 C 0.43089 0.56429 0.04186 0.0
H1277 H 0.68019 0.17101 0.93087 0.0
H1278 H 0.66196 0.20714 0.92285 0.0
H1279 H 0.66197 0.20804 0.04984 0.0
H1280 H 0.66385 0.1597 0.08573 0.0
H1281 H 0.67747 0.15173 0.11787 0.0
H1282 H 0.67522 0.15354 0.02639 0.0
H1283 H 0.69689 0.16411 0.01663 0.0
H1284 H 0.69917 0.1624 0.108 0.0
H1285 H 0.70028 0.1776 0.06881 0.0
H1286 H 0.66605 0.20606 0.17659 0.0
H1287 H 0.67257 0.20078 0.29413 0.0
H1288 H 0.68691 0.16528 0.2213 0.0
C1289 C 0.67605 0.17903 0.95581 0.0
C1290 C 0.67109 0.18901 0.91686 0.0
C1291 C 0.66578 0.19936 0.95151 0.0
C1292 C 0.66575 0.19997 0.02368 0.0
C1293 C 0.67092 0.19009 0.06048 0.0
C1294 C 0.67584 0.17975 0.02782 0.0
C1295 C 0.68116 0.17057 0.0794 0.0
C1296 C 0.67399 0.15815 0.07721 0.0
C1297 C 0.69521 0.16856 0.06748 0.0
C1298 C 0.67873 0.17751 0.14602 0.0
C1299 C 0.6728 0.18873 0.13397 0.0
C1300 C 0.67034 0.19712 0.18697 0.0
C1301 C 0.67395 0.19393 0.25415 0.0
C1302 C 0.6798 0.18235 0.26814 0.0
C1303 C 0.68223 0.1741 0.21285 0.0
H1304 H 0.93555 0.40768 0.26597 0.0
H1305 H 0.93709 0.44621 0.19806 0.0
H1306 H 0.93921 0.45318 0.31801 0.0
H1307 H 0.9163 0.41351 0.40807 0.0
H1308 H 0.92342 0.40225 0.46468 0.0
H1309 H 0.92397 0.39997 0.37293 0.0
H1310 H 0.94808 0.39847 0.3785 0.0
H1311 H 0.9476 0.40083 0.47044 0.0
H1312 H 0.95688 0.41098 0.41706 0.0
H1313 H 0.93898 0.45637 0.44191 0.0
H1314 H 0.93497 0.45571 0.5669 0.0
H1315 H 0.93313 0.41536 0.55937 0.0
C1316 C 0.93657 0.41753 0.27673 0.0
C1317 C 0.93619 0.42642 0.22318 0.0
C1318 C 0.93728 0.43927 0.23864 0.0
C1319 C 0.93863 0.44332 0.30647 0.0
C1320 C 0.9388 0.4344 0.35838 0.0
C1321 C 0.93771 0.42178 0.3448 0.0
C1322 C 0.93674 0.41438 0.41119 0.0
C1323 C 0.92437 0.40711 0.41438 0.0
C1324 C 0.948 0.40565 0.41979 0.0
C1325 C 0.93705 0.42487 0.46364 0.0
C1326 C 0.93851 0.4363 0.4317 0.0
C1327 C 0.93808 0.44749 0.46788 0.0
C1328 C 0.93578 0.44704 0.53858 0.0
C1329 C 0.93398 0.43549 0.57208 0.0
C1330 C 0.93486 0.42425 0.53469 0.0
H1331 H 0.32102 0.20309 0.99267 0.0
H1332 H 0.33292 0.16591 0.93296 0.0
H1333 H 0.33478 0.16009 0.05514 0.0
H1334 H 0.34082 0.20526 0.15232 0.0
H1335 H 0.32879 0.21348 0.19858 0.0
H1336 H 0.33028 0.21543 0.10667 0.0
H1337 H 0.30718 0.20892 0.09101 0.0
H1338 H 0.30562 0.2069 0.18253 0.0
H1339 H 0.30195 0.19418 0.12527 0.0
H1340 H 0.332 0.15715 0.18036 0.0
H1341 H 0.32566 0.15767 0.30273 0.0
H1342 H 0.31645 0.19685 0.28387 0.0
C1343 C 0.32434 0.19384 0.00531 0.0
C1344 C 0.32682 0.18496 0.95326 0.0
C1345 C 0.33096 0.17288 0.97189 0.0
C1346 C 0.33211 0.16949 0.0412 0.0
C1347 C 0.32923 0.17833 0.09125 0.0
C1348 C 0.32558 0.19031 0.07438 0.0
C1349 C 0.322 0.19765 0.13808 0.0
C1350 C 0.33101 0.2086 0.14958 0.0
C1351 C 0.30838 0.20217 0.13394 0.0
C1352 C 0.32364 0.18774 0.19291 0.0
C1353 C 0.32796 0.17671 0.16474 0.0
C1354 C 0.32895 0.16581 0.20345 0.0
C1355 C 0.32528 0.16617 0.27258 0.0
C1356 C 0.32081 0.17734 0.30213 0.0
C1357 C 0.3202 0.18832 0.26239 0.0
H1358 H 0.57403 0.5655 0.75811 0.0
H1359 H 0.56331 0.60452 0.75849 0.0
H1360 H 0.56243 0.60417 0.88591 0.0
H1361 H 0.55379 0.55622 0.89399 0.0
H1362 H 0.56456 0.54508 0.93013 0.0
H1363 H 0.56508 0.5486 0.83947 0.0
H1364 H 0.58843 0.55454 0.84984 0.0
H1365 H 0.58802 0.55094 0.94044 0.0
H1366 H 0.59315 0.5661 0.91209 0.0
H1367 H 0.56294 0.59947 0.01401 0.0
H1368 H 0.56433 0.5908 0.13127 0.0
H1369 H 0.57317 0.55445 0.04606 0.0
C1370 C 0.57167 0.57403 0.78491 0.0
C1371 C 0.56884 0.58509 0.74829 0.0
C1372 C 0.56556 0.59597 0.78544 0.0
C1373 C 0.56503 0.59585 0.8578 0.0
C1374 C 0.5677 0.58475 0.8922 0.0
C1375 C 0.57093 0.57403 0.85691 0.0
C1376 C 0.57292 0.56319 0.90573 0.0
C1377 C 0.56353 0.55265 0.89146 0.0
C1378 C 0.58643 0.55842 0.90179 0.0
C1379 C 0.57032 0.56946 0.97413 0.0
C1380 C 0.56739 0.58191 0.96534 0.0
C1381 C 0.56499 0.58967 0.02135 0.0
C1382 C 0.56558 0.58459 0.08798 0.0
C1383 C 0.56832 0.57178 0.09816 0.0
C1384 C 0.5708 0.56421 0.04012 0.0
H1385 H 0.19469 0.80777 0.76446 0.0
H1386 H 0.17741 0.844 0.79062 0.0
H1387 H 0.17058 0.84371 0.669 0.0
H1388 H 0.20704 0.81395 0.60042 0.0
H1389 H 0.2047 0.79846 0.56678 0.0
H1390 H 0.2068 0.80074 0.65786 0.0
H1391 H 0.18588 0.78941 0.68153 0.0
H1392 H 0.18371 0.78711 0.59031 0.0
H1393 H 0.17183 0.79485 0.64021 0.0
H1394 H 0.1668 0.84017 0.54379 0.0
H1395 H 0.16762 0.83438 0.42092 0.0
H1396 H 0.18808 0.80076 0.47395 0.0
C1397 C 0.18925 0.81549 0.7446 0.0
C1398 C 0.18642 0.82585 0.78654 0.0
C1399 C 0.1796 0.83597 0.75893 0.0
C1400 C 0.17563 0.83585 0.6902 0.0
C1401 C 0.17866 0.82557 0.64968 0.0
C1402 C 0.18537 0.8156 0.6756 0.0
C1403 C 0.18838 0.80627 0.61935 0.0
C1404 C 0.20257 0.80478 0.6106 0.0
C1405 C 0.18207 0.79366 0.63372 0.0
C1406 C 0.18255 0.8127 0.55765 0.0
C1407 C 0.1768 0.8237 0.57658 0.0
C1408 C 0.17119 0.83153 0.52833 0.0
C1409 C 0.1717 0.82815 0.45862 0.0
C1410 C 0.17791 0.81712 0.43771 0.0
C1411 C 0.18319 0.80921 0.48825 0.0
H1412 H 0.93046 0.59621 0.72303 0.0
H1413 H 0.93923 0.55987 0.80964 0.0
H1414 H 0.93893 0.55068 0.694 0.0
H1415 H 0.90908 0.58504 0.59692 0.0
H1416 H 0.91368 0.59591 0.53077 0.0
H1417 H 0.91539 0.60005 0.62016 0.0
H1418 H 0.93888 0.60446 0.6004 0.0
H1419 H 0.93724 0.6003 0.51088 0.0
H1420 H 0.94864 0.59248 0.56373 0.0
H1421 H 0.93658 0.54495 0.57206 0.0
H1422 H 0.93241 0.54308 0.44746 0.0
H1423 H 0.92486 0.58278 0.43688 0.0
C1424 C 0.93247 0.58636 0.71741 0.0
C1425 C 0.93488 0.57879 0.77556 0.0
C1426 C 0.93732 0.56589 0.76612 0.0
C1427 C 0.93722 0.56056 0.70051 0.0
C1428 C 0.93467 0.5682 0.64449 0.0
C1429 C 0.93234 0.58081 0.65184 0.0
C1430 C 0.92932 0.5867 0.58269 0.0
C1431 C 0.91608 0.59225 0.58266 0.0
C1432 C 0.9391 0.59657 0.56329 0.0
C1433 C 0.93018 0.57539 0.53594 0.0
C1434 C 0.93334 0.56485 0.57292 0.0
C1435 C 0.93423 0.55315 0.54224 0.0
C1436 C 0.93182 0.55217 0.47165 0.0
C1437 C 0.92862 0.56282 0.43252 0.0
C1438 C 0.92776 0.57457 0.4651 0.0
H1439 H 0.17834 0.1727 0.52462 0.0
H1440 H 0.16441 0.21073 0.52534 0.0
H1441 H 0.16522 0.21108 0.39845 0.0
H1442 H 0.19991 0.17662 0.38966 0.0
H1443 H 0.19742 0.16149 0.35161 0.0
H1444 H 0.1948 0.16375 0.44234 0.0
H1445 H 0.1722 0.1555 0.42933 0.0
H1446 H 0.17478 0.15314 0.33851 0.0
H1447 H 0.16191 0.16262 0.36726 0.0
H1448 H 0.16942 0.2081 0.27269 0.0
H1449 H 0.17572 0.20167 0.15649 0.0
H1450 H 0.18613 0.16522 0.23494 0.0
C1451 C 0.17526 0.18103 0.49809 0.0
C1452 C 0.17128 0.19168 0.5352 0.0
C1453 C 0.16746 0.20244 0.49832 0.0
C1454 C 0.16789 0.20274 0.42612 0.0
C1455 C 0.17209 0.19219 0.39125 0.0
C1456 C 0.17561 0.18149 0.42587 0.0
C1457 C 0.18022 0.17161 0.37598 0.0
C1458 C 0.1939 0.16817 0.3908 0.0
C1459 C 0.17177 0.16003 0.37789 0.0
C1460 C 0.17896 0.17852 0.30813 0.0
C1461 C 0.17421 0.19035 0.31818 0.0
C1462 C 0.17282 0.19873 0.2639 0.0
C1463 C 0.17629 0.1949 0.19752 0.0
C1464 C 0.18095 0.18273 0.18543 0.0
C1465 C 0.18237 0.1745 0.24199 0.0
H1466 H 0.56692 0.41593 0.93911 0.0
H1467 H 0.58525 0.452 0.93662 0.0
H1468 H 0.58144 0.45427 0.06128 0.0
H1469 H 0.54308 0.42363 0.06819 0.0
H1470 H 0.54386 0.40855 0.10897 0.0
H1471 H 0.54719 0.41006 0.01834 0.0
H1472 H 0.56872 0.3996 0.03702 0.0
H1473 H 0.56547 0.39808 0.12762 0.0
H1474 H 0.57936 0.40607 0.09949 0.0
H1475 H 0.57653 0.45249 0.18359 0.0
H1476 H 0.57158 0.44648 0.30207 0.0
H1477 H 0.55656 0.41118 0.22919 0.0
C1478 C 0.56992 0.42437 0.96498 0.0
C1479 C 0.57621 0.43389 0.92887 0.0
C1480 C 0.58037 0.44466 0.96392 0.0
C1481 C 0.57819 0.44606 0.03437 0.0
C1482 C 0.57194 0.43654 0.0687 0.0
C1483 C 0.5679 0.42587 0.03564 0.0
C1484 C 0.56208 0.41677 0.0861 0.0
C1485 C 0.54823 0.41463 0.0694 0.0
C1486 C 0.56935 0.4044 0.08764 0.0
C1487 C 0.56366 0.42397 0.15272 0.0
C1488 C 0.56926 0.43538 0.14089 0.0
C1489 C 0.57209 0.44361 0.19372 0.0
C1490 C 0.56927 0.44006 0.26093 0.0
C1491 C 0.56371 0.42832 0.27495 0.0
C1492 C 0.56073 0.42023 0.21996 0.0
H1493 H 0.32155 0.79697 0.00062 0.0
H1494 H 0.33467 0.83414 0.05214 0.0
H1495 H 0.33597 0.83924 0.92853 0.0
H1496 H 0.34038 0.79335 0.83902 0.0
H1497 H 0.32791 0.78515 0.79619 0.0
H1498 H 0.32982 0.78376 0.88816 0.0
H1499 H 0.30697 0.79097 0.90583 0.0
H1500 H 0.30501 0.79245 0.81422 0.0
H1501 H 0.30196 0.80561 0.86948 0.0
H1502 H 0.33268 0.84145 0.80251 0.0
H1503 H 0.32588 0.84023 0.68093 0.0
H1504 H 0.3157 0.80148 0.7093 0.0
C1505 C 0.325 0.80608 0.98592 0.0
C1506 C 0.328 0.81516 0.03605 0.0
C1507 C 0.33234 0.82702 0.01468 0.0
C1508 C 0.33314 0.83 0.94456 0.0
C1509 C 0.32976 0.82096 0.89651 0.0
C1510 C 0.32592 0.80919 0.91612 0.0
C1511 C 0.32184 0.80153 0.85446 0.0
C1512 C 0.33051 0.79028 0.84384 0.0
C1513 C 0.30813 0.79741 0.86145 0.0
C1514 C 0.32345 0.81104 0.7975 0.0
C1515 C 0.32816 0.82215 0.82286 0.0
C1516 C 0.3293 0.83272 0.78167 0.0
C1517 C 0.32538 0.83197 0.713 0.0
C1518 C 0.32049 0.82072 0.68638 0.0
C1519 C 0.31973 0.81007 0.72856 0.0
H1520 H 0.58576 0.06739 0.97643 0.0
H1521 H 0.54853 0.07458 0.89829 0.0
H1522 H 0.54147 0.07992 0.01515 0.0
H1523 H 0.5763 0.05257 0.12981 0.0
H1524 H 0.5885 0.05904 0.18287 0.0
H1525 H 0.59102 0.05696 0.09194 0.0
H1526 H 0.59658 0.08037 0.07987 0.0
H1527 H 0.59407 0.08253 0.17092 0.0
H1528 H 0.5857 0.09199 0.10968 0.0
H1529 H 0.53793 0.08284 0.14094 0.0
H1530 H 0.53812 0.08313 0.26788 0.0
H1531 H 0.57761 0.07413 0.2668 0.0
C1532 C 0.57618 0.07029 0.98389 0.0
C1533 C 0.5678 0.07096 0.92766 0.0
C1534 C 0.55527 0.07453 0.93969 0.0
C1535 C 0.55113 0.07746 0.00621 0.0
C1536 C 0.55962 0.07678 0.0604 0.0
C1537 C 0.57189 0.07332 0.05012 0.0
C1538 C 0.57892 0.07275 0.11795 0.0
C1539 C 0.58398 0.05955 0.13142 0.0
C1540 C 0.58944 0.08249 0.11969 0.0
C1541 C 0.56858 0.0761 0.16803 0.0
C1542 C 0.55756 0.07847 0.13354 0.0
C1543 C 0.54654 0.08116 0.16852 0.0
C1544 C 0.54674 0.08128 0.2407 0.0
C1545 C 0.55789 0.07874 0.27739 0.0
C1546 C 0.56899 0.0763 0.24029 0.0
H1547 H 0.19142 0.30866 0.19404 0.0
H1548 H 0.17499 0.34547 0.17949 0.0
H1549 H 0.16858 0.34425 0.30178 0.0
H1550 H 0.16899 0.29507 0.31744 0.0
H1551 H 0.18093 0.28675 0.36397 0.0
H1552 H 0.18281 0.28981 0.27325 0.0
H1553 H 0.20398 0.30064 0.29755 0.0
H1554 H 0.20216 0.29759 0.38814 0.0
H1555 H 0.20461 0.31332 0.35843 0.0
H1556 H 0.16478 0.33946 0.42597 0.0
H1557 H 0.16574 0.33251 0.54685 0.0
H1558 H 0.18589 0.2993 0.48358 0.0
C1559 C 0.18627 0.31632 0.21661 0.0
C1560 C 0.18351 0.32709 0.17775 0.0
C1561 C 0.17709 0.33713 0.20882 0.0
C1562 C 0.17336 0.33648 0.27793 0.0
C1563 C 0.17629 0.32578 0.31534 0.0
C1564 C 0.18271 0.31592 0.28608 0.0
C1565 C 0.18578 0.30607 0.33951 0.0
C1566 C 0.17923 0.29369 0.32251 0.0
C1567 C 0.19997 0.30431 0.3463 0.0
C1568 C 0.18027 0.31203 0.4035 0.0
C1569 C 0.17461 0.32327 0.38803 0.0
C1570 C 0.16914 0.33065 0.43872 0.0
C1571 C 0.16971 0.3266 0.50731 0.0
C1572 C 0.17591 0.31537 0.52486 0.0
C1573 C 0.18105 0.30791 0.47188 0.0
H1574 H 0.92602 0.94553 0.46587 0.0
H1575 H 0.92889 0.90782 0.38591 0.0
H1576 H 0.93229 0.89994 0.50303 0.0
H1577 H 0.94858 0.9429 0.60091 0.0
H1578 H 0.93965 0.95202 0.66133 0.0
H1579 H 0.93805 0.95478 0.57024 0.0
H1580 H 0.91419 0.95124 0.57935 0.0
H1581 H 0.91571 0.94847 0.67047 0.0
H1582 H 0.9084 0.93694 0.61628 0.0
H1583 H 0.93586 0.89616 0.63062 0.0
H1584 H 0.93778 0.89679 0.75775 0.0
H1585 H 0.9308 0.93664 0.75434 0.0
C1586 C 0.92739 0.9356 0.47263 0.0
C1587 C 0.92768 0.92743 0.41542 0.0
C1588 C 0.92929 0.91447 0.42742 0.0
C1589 C 0.93105 0.90983 0.49439 0.0
C1590 C 0.93092 0.91821 0.54923 0.0
C1591 C 0.92897 0.9308 0.53908 0.0
C1592 C 0.92878 0.93781 0.60679 0.0
C1593 C 0.9394 0.94744 0.60998 0.0
C1594 C 0.91601 0.94397 0.61892 0.0
C1595 C 0.93099 0.92718 0.65667 0.0
C1596 C 0.9323 0.91595 0.62255 0.0
C1597 C 0.93476 0.90489 0.6579 0.0
C1598 C 0.93586 0.90534 0.73002 0.0
C1599 C 0.93435 0.91673 0.76593 0.0
C1600 C 0.93186 0.92776 0.72846 0.0
H1601 H 0.31175 0.66666 0.71644 0.0
H1602 H 0.33214 0.6991 0.64412 0.0
H1603 H 0.34019 0.70257 0.76102 0.0
H1604 H 0.30195 0.68049 0.87323 0.0
H1605 H 0.30305 0.66633 0.92293 0.0
H1606 H 0.29995 0.66556 0.83191 0.0
H1607 H 0.3191 0.65113 0.81551 0.0
H1608 H 0.32229 0.65188 0.90658 0.0
H1609 H 0.3342 0.65618 0.84547 0.0
H1610 H 0.34534 0.70315 0.88732 0.0
H1611 H 0.34608 0.70162 0.01397 0.0
H1612 H 0.32148 0.66948 0.00633 0.0
C1613 C 0.31803 0.67442 0.72485 0.0
C1614 C 0.32167 0.68229 0.66976 0.0
C1615 C 0.32968 0.6925 0.68382 0.0
C1616 C 0.33421 0.69466 0.75066 0.0
C1617 C 0.33053 0.68664 0.80338 0.0
C1618 C 0.32254 0.67678 0.79138 0.0
C1619 C 0.31934 0.67006 0.85788 0.0
C1620 C 0.30524 0.67065 0.87232 0.0
C1621 C 0.32402 0.65651 0.85624 0.0
C1622 C 0.32665 0.67779 0.90933 0.0
C1623 C 0.33315 0.68722 0.87666 0.0
C1624 C 0.34033 0.69577 0.91341 0.0
C1625 C 0.3407 0.69481 0.98548 0.0
C1626 C 0.33386 0.68542 0.0204 0.0
C1627 C 0.32689 0.67671 0.98137 0.0
H1628 H 0.5741 0.94635 0.01938 0.0
H1629 H 0.56515 0.9094 0.09598 0.0
H1630 H 0.56355 0.9017 0.9766 0.0
H1631 H 0.55442 0.94591 0.86879 0.0
H1632 H 0.56563 0.95404 0.81612 0.0
H1633 H 0.56524 0.95669 0.90769 0.0
H1634 H 0.58865 0.9508 0.91583 0.0
H1635 H 0.58908 0.94802 0.82438 0.0
H1636 H 0.59381 0.93592 0.88331 0.0
H1637 H 0.56316 0.89804 0.84729 0.0
H1638 H 0.5642 0.89878 0.71994 0.0
H1639 H 0.57475 0.93782 0.73019 0.0
C1640 C 0.57167 0.93665 0.01115 0.0
C1641 C 0.5693 0.9286 0.0672 0.0
C1642 C 0.56641 0.91592 0.05414 0.0
C1643 C 0.56567 0.9114 0.98635 0.0
C1644 C 0.56804 0.91963 0.93232 0.0
C1645 C 0.57103 0.93198 0.94411 0.0
C1646 C 0.57357 0.93885 0.87754 0.0
C1647 C 0.56415 0.9495 0.86692 0.0
C1648 C 0.58708 0.94368 0.87515 0.0
C1649 C 0.57154 0.92844 0.82626 0.0
C1650 C 0.56831 0.91743 0.85865 0.0
C1651 C 0.56573 0.90661 0.82142 0.0
C1652 C 0.56635 0.90711 0.74918 0.0
C1653 C 0.56963 0.91833 0.71515 0.0
C1654 C 0.57235 0.92906 0.75457 0.0
H1655 H 0.31688 0.30389 0.27531 0.0
H1656 H 0.32528 0.34324 0.29446 0.0
H1657 H 0.33147 0.34395 0.17191 0.0
H1658 H 0.34127 0.29609 0.14154 0.0
H1659 H 0.33079 0.28569 0.09703 0.0
H1660 H 0.32958 0.2876 0.18908 0.0
H1661 H 0.30629 0.2936 0.17567 0.0
H1662 H 0.30744 0.2918 0.08385 0.0
H1663 H 0.30207 0.30634 0.1197 0.0
H1664 H 0.33394 0.34121 0.0465 0.0
H1665 H 0.33183 0.33547 0.92431 0.0
H1666 H 0.32099 0.29796 0.98389 0.0
C1667 C 0.32046 0.3125 0.25387 0.0
C1668 C 0.32086 0.32347 0.29368 0.0
C1669 C 0.32509 0.33474 0.26424 0.0
C1670 C 0.32867 0.33521 0.19502 0.0
C1671 C 0.32786 0.32432 0.15615 0.0
C1672 C 0.32387 0.31316 0.18435 0.0
C1673 C 0.32225 0.30328 0.12924 0.0
C1674 C 0.33153 0.29253 0.13986 0.0
C1675 C 0.30871 0.29848 0.127 0.0
C1676 C 0.32544 0.31079 0.06555 0.0
C1677 C 0.32892 0.32281 0.0825 0.0
C1678 C 0.33143 0.33177 0.0325 0.0
C1679 C 0.33014 0.32843 0.9632 0.0
C1680 C 0.32624 0.31626 0.94456 0.0
C1681 C 0.32412 0.30728 0.99652 0.0
H1682 H 0.92659 0.05711 0.53247 0.0
H1683 H 0.93869 0.09331 0.60687 0.0
H1684 H 0.94122 0.10051 0.48697 0.0
H1685 H 0.94655 0.05533 0.38381 0.0
H1686 H 0.9348 0.04809 0.33076 0.0
H1687 H 0.9347 0.04568 0.42256 0.0
H1688 H 0.9119 0.05371 0.42807 0.0
H1689 H 0.91197 0.05623 0.33637 0.0
H1690 H 0.90821 0.06889 0.39379 0.0
H1691 H 0.94228 0.10372 0.35755 0.0
H1692 H 0.9415 0.1027 0.23022 0.0
H1693 H 0.9274 0.06481 0.24273 0.0
C1694 C 0.92988 0.06653 0.52364 0.0
C1695 C 0.93286 0.07449 0.57917 0.0
C1696 C 0.93691 0.08682 0.5654 0.0
C1697 C 0.9382 0.09106 0.49734 0.0
C1698 C 0.93521 0.08293 0.44382 0.0
C1699 C 0.93109 0.07093 0.45634 0.0
C1700 C 0.92811 0.06412 0.39017 0.0
C1701 C 0.93655 0.05263 0.38132 0.0
C1702 C 0.91422 0.06053 0.38694 0.0
C1703 C 0.93122 0.07415 0.33827 0.0
C1704 C 0.93535 0.08492 0.37001 0.0
C1705 C 0.93901 0.09535 0.33217 0.0
C1706 C 0.93853 0.09469 0.25996 0.0
C1707 C 0.93432 0.08371 0.22663 0.0
C1708 C 0.93054 0.07339 0.26661 0.0
H1709 H 0.17969 0.67359 0.46421 0.0
H1710 H 0.16073 0.70937 0.46028 0.0
H1711 H 0.1598 0.70929 0.58732 0.0
H1712 H 0.16264 0.6607 0.61216 0.0
H1713 H 0.17621 0.65285 0.64564 0.0
H1714 H 0.17462 0.65531 0.55422 0.0
H1715 H 0.19602 0.66655 0.55199 0.0
H1716 H 0.19767 0.66414 0.64329 0.0
H1717 H 0.19864 0.67968 0.60822 0.0
H1718 H 0.16275 0.70628 0.71452 0.0
H1719 H 0.16866 0.70031 0.83197 0.0
H1720 H 0.18468 0.66589 0.75422 0.0
C1721 C 0.17521 0.68134 0.48997 0.0
C1722 C 0.17029 0.69149 0.45219 0.0
C1723 C 0.16454 0.70147 0.488 0.0
C1724 C 0.16396 0.70151 0.5602 0.0
C1725 C 0.16905 0.69145 0.59586 0.0
C1726 C 0.17448 0.6815 0.56198 0.0
C1727 C 0.17966 0.67206 0.61255 0.0
C1728 C 0.17287 0.65949 0.60572 0.0
C1729 C 0.19384 0.67052 0.60346 0.0
C1730 C 0.17654 0.67839 0.68014 0.0
C1731 C 0.17037 0.68953 0.66938 0.0
C1732 C 0.16725 0.69741 0.72374 0.0
C1733 C 0.17052 0.69382 0.79087 0.0
C1734 C 0.17672 0.68236 0.80341 0.0
C1735 C 0.17972 0.67459 0.74684 0.0
H1736 H 0.42412 0.94169 0.04324 0.0
H1737 H 0.44031 0.90707 0.11638 0.0
H1738 H 0.44412 0.90054 0.99608 0.0
H1739 H 0.408 0.92834 0.89998 0.0
H1740 H 0.41054 0.94157 0.84451 0.0
H1741 H 0.40967 0.94371 0.93639 0.0
H1742 H 0.43137 0.9544 0.93568 0.0
H1743 H 0.43227 0.95236 0.84374 0.0
H1744 H 0.4445 0.94637 0.89826 0.0
H1745 H 0.44598 0.89783 0.86679 0.0
H1746 H 0.44561 0.89912 0.73956 0.0
H1747 H 0.42734 0.93518 0.75289 0.0
C1748 C 0.42855 0.93277 0.03394 0.0
C1749 C 0.43229 0.92506 0.08907 0.0
C1750 C 0.43786 0.91336 0.07496 0.0
C1751 C 0.43991 0.90951 0.00678 0.0
C1752 C 0.43619 0.9174 0.95356 0.0
C1753 C 0.43059 0.92878 0.96647 0.0
C1754 C 0.4272 0.93543 0.90044 0.0
C1755 C 0.41301 0.93737 0.89504 0.0
C1756 C 0.43426 0.94787 0.89418 0.0
C1757 C 0.43176 0.92604 0.84819 0.0
C1758 C 0.43694 0.9157 0.87967 0.0
C1759 C 0.44192 0.90587 0.84159 0.0
C1760 C 0.44167 0.90668 0.76941 0.0
C1761 C 0.43642 0.91723 0.73631 0.0
C1762 C 0.43136 0.92696 0.77654 0.0
H1763 H 0.81738 0.69754 0.79566 0.0
H1764 H 0.8263 0.65832 0.81557 0.0
H1765 H 0.83256 0.65762 0.6931 0.0
H1766 H 0.80272 0.69479 0.6393 0.0
H1767 H 0.80792 0.70941 0.6036 0.0
H1768 H 0.80667 0.7076 0.69539 0.0
H1769 H 0.82985 0.71395 0.70967 0.0
H1770 H 0.83116 0.71586 0.61766 0.0
H1771 H 0.84173 0.70563 0.6627 0.0
H1772 H 0.83519 0.66038 0.56768 0.0
H1773 H 0.83322 0.66608 0.44535 0.0
H1774 H 0.82174 0.70344 0.50427 0.0
C1775 C 0.82107 0.68897 0.77438 0.0
C1776 C 0.82161 0.67803 0.8144 0.0
C1777 C 0.82599 0.66679 0.78518 0.0
C1778 C 0.82962 0.66634 0.71601 0.0
C1779 C 0.82869 0.6772 0.67697 0.0
C1780 C 0.82452 0.68831 0.70492 0.0
C1781 C 0.82283 0.69815 0.64968 0.0
C1782 C 0.80923 0.70275 0.64684 0.0
C1783 C 0.83194 0.70904 0.66059 0.0
C1784 C 0.82622 0.69067 0.58618 0.0
C1785 C 0.82983 0.6787 0.60336 0.0
C1786 C 0.83256 0.66978 0.55351 0.0
C1787 C 0.83136 0.6731 0.48413 0.0
C1788 C 0.82732 0.68521 0.46526 0.0
C1789 C 0.82497 0.69416 0.51708 0.0
H1790 H 0.05433 0.06457 0.59514 0.0
H1791 H 0.09369 0.07241 0.62107 0.0
H1792 H 0.095 0.07937 0.49983 0.0
H1793 H 0.0573 0.05115 0.43222 0.0
H1794 H 0.04285 0.05711 0.39803 0.0
H1795 H 0.0445 0.05467 0.48925 0.0
H1796 H 0.03858 0.07775 0.51175 0.0
H1797 H 0.0369 0.08026 0.42037 0.0
H1798 H 0.04727 0.08999 0.46993 0.0
H1799 H 0.09249 0.08383 0.37447 0.0
H1800 H 0.08677 0.08403 0.25138 0.0
H1801 H 0.04921 0.07231 0.30443 0.0
C1802 C 0.06311 0.06806 0.57538 0.0
C1803 C 0.07388 0.06814 0.61703 0.0
C1804 C 0.08534 0.07238 0.58958 0.0
C1805 C 0.08615 0.0764 0.52106 0.0
C1806 C 0.07542 0.07602 0.4806 0.0
C1807 C 0.06412 0.0719 0.50652 0.0
C1808 C 0.05436 0.07114 0.45012 0.0
C1809 C 0.04947 0.05772 0.44193 0.0
C1810 C 0.04365 0.08033 0.46388 0.0
C1811 C 0.06203 0.07513 0.38831 0.0
C1812 C 0.07408 0.07816 0.40732 0.0
C1813 C 0.08305 0.0816 0.35897 0.0
C1814 C 0.07971 0.08169 0.28911 0.0
C1815 C 0.06755 0.07818 0.26814 0.0
C1816 C 0.05856 0.07511 0.31876 0.0
H1817 H 0.68202 0.29797 0.99013 0.0
H1818 H 0.66744 0.33416 0.93034 0.0
H1819 H 0.66777 0.34083 0.05199 0.0
H1820 H 0.66492 0.29605 0.15711 0.0
H1821 H 0.6778 0.28843 0.19951 0.0
H1822 H 0.67522 0.28606 0.10866 0.0
H1823 H 0.69782 0.29332 0.08356 0.0
H1824 H 0.70044 0.29581 0.17407 0.0
H1825 H 0.70291 0.30837 0.11395 0.0
H1826 H 0.67247 0.34457 0.17686 0.0
H1827 H 0.67936 0.3444 0.29862 0.0
H1828 H 0.68961 0.30548 0.27992 0.0
C1829 C 0.67864 0.30721 0.00276 0.0
C1830 C 0.6747 0.31554 0.95053 0.0
C1831 C 0.67043 0.32757 0.9693 0.0
C1832 C 0.67061 0.33146 0.03834 0.0
C1833 C 0.67487 0.32314 0.08827 0.0
C1834 C 0.67859 0.31118 0.0716 0.0
C1835 C 0.68322 0.30425 0.13481 0.0
C1836 C 0.67479 0.29303 0.15097 0.0
C1837 C 0.69691 0.30021 0.12604 0.0
C1838 C 0.68193 0.31432 0.18916 0.0
C1839 C 0.67709 0.32515 0.16115 0.0
C1840 C 0.676 0.33607 0.1997 0.0
C1841 C 0.67998 0.33591 0.26855 0.0
C1842 C 0.68482 0.3249 0.29832 0.0
C1843 C 0.68568 0.31393 0.25842 0.0
H1844 H 0.43063 0.06366 0.26935 0.0
H1845 H 0.43687 0.10365 0.27014 0.0
H1846 H 0.43522 0.10391 0.14291 0.0
H1847 H 0.44877 0.0573 0.11796 0.0
H1848 H 0.43851 0.04517 0.08764 0.0
H1849 H 0.43982 0.04824 0.17856 0.0
H1850 H 0.4159 0.05146 0.18605 0.0
H1851 H 0.41451 0.0484 0.09515 0.0
H1852 H 0.40849 0.06273 0.13051 0.0
H1853 H 0.43208 0.09978 0.01549 0.0
H1854 H 0.429 0.09158 0.89862 0.0
H1855 H 0.42643 0.05402 0.9809 0.0
C1856 C 0.43158 0.0725 0.24288 0.0
C1857 C 0.4338 0.08366 0.2797 0.0
C1858 C 0.43517 0.09499 0.24298 0.0
C1859 C 0.43422 0.09523 0.17077 0.0
C1860 C 0.43204 0.08404 0.1361 0.0
C1861 C 0.43084 0.07288 0.17096 0.0
C1862 C 0.42888 0.0621 0.12164 0.0
C1863 C 0.43964 0.05265 0.12677 0.0
C1864 C 0.41619 0.0558 0.13409 0.0
C1865 C 0.42911 0.06895 0.05345 0.0
C1866 C 0.43086 0.0816 0.06286 0.0
C1867 C 0.43099 0.08985 0.00746 0.0
C1868 C 0.42942 0.08504 0.94074 0.0
C1869 C 0.428 0.07204 0.92956 0.0
C1870 C 0.4277 0.06398 0.98722 0.0
H1871 H 0.67964 0.67237 0.02862 0.0
H1872 H 0.65781 0.70648 0.02919 0.0
H1873 H 0.65818 0.70676 0.90217 0.0
H1874 H 0.69951 0.68067 0.89194 0.0
H1875 H 0.70031 0.66529 0.85474 0.0
H1876 H 0.69745 0.6671 0.94555 0.0
H1877 H 0.67719 0.65407 0.93458 0.0
H1878 H 0.68002 0.65217 0.84367 0.0
H1879 H 0.66545 0.65866 0.87306 0.0
H1880 H 0.66257 0.70447 0.77594 0.0
H1881 H 0.66995 0.6994 0.65965 0.0
H1882 H 0.68832 0.66631 0.73898 0.0
C1883 C 0.67475 0.67978 0.00207 0.0
C1884 C 0.66866 0.68939 0.03913 0.0
C1885 C 0.66251 0.69899 0.00219 0.0
C1886 C 0.66267 0.69924 0.92992 0.0
C1887 C 0.66895 0.68977 0.89508 0.0
C1888 C 0.67481 0.68017 0.92982 0.0
C1889 C 0.68137 0.67145 0.87999 0.0
C1890 C 0.6955 0.67112 0.8939 0.0
C1891 C 0.67566 0.65831 0.88301 0.0
C1892 C 0.67847 0.67779 0.81199 0.0
C1893 C 0.67125 0.68831 0.82189 0.0
C1894 C 0.66794 0.69607 0.76733 0.0
C1895 C 0.67207 0.69299 0.70087 0.0
C1896 C 0.67933 0.68215 0.68903 0.0
C1897 C 0.68259 0.67453 0.74583 0.0
H1898 H 0.08128 0.93961 0.48539 0.0
H1899 H 0.05932 0.90796 0.41735 0.0
H1900 H 0.05396 0.90315 0.53841 0.0
H1901 H 0.09378 0.92519 0.63783 0.0
H1902 H 0.09309 0.93925 0.68861 0.0
H1903 H 0.09509 0.94021 0.59664 0.0
H1904 H 0.07559 0.95441 0.58782 0.0
H1905 H 0.07354 0.95351 0.67976 0.0
H1906 H 0.06096 0.94912 0.62308 0.0
H1907 H 0.05119 0.90174 0.66712 0.0
H1908 H 0.05092 0.90399 0.79375 0.0
H1909 H 0.0747 0.93664 0.77722 0.0
C1910 C 0.07533 0.93168 0.4961 0.0
C1911 C 0.07049 0.9243 0.44218 0.0
C1912 C 0.06282 0.91394 0.45794 0.0
C1913 C 0.05982 0.91108 0.5265 0.0
C1914 C 0.06462 0.91865 0.57852 0.0
C1915 C 0.07221 0.92874 0.56413 0.0
C1916 C 0.07612 0.93542 0.62937 0.0
C1917 C 0.09036 0.93498 0.63864 0.0
C1918 C 0.07126 0.94891 0.63002 0.0
C1919 C 0.06956 0.9275 0.68277 0.0
C1920 C 0.06301 0.91785 0.65245 0.0
C1921 C 0.05627 0.90927 0.69144 0.0
C1922 C 0.05619 0.91062 0.76333 0.0
C1923 C 0.06276 0.9205 0.79543 0.0
C1924 C 0.06954 0.92901 0.75431 0.0
H1925 H 0.8207 0.33095 0.53294 0.0
H1926 H 0.84252 0.29695 0.54813 0.0
H1927 H 0.84244 0.29506 0.42146 0.0
H1928 H 0.80125 0.32142 0.39783 0.0
H1929 H 0.80083 0.33634 0.35512 0.0
H1930 H 0.80337 0.33556 0.44666 0.0
H1931 H 0.8239 0.3481 0.43327 0.0
H1932 H 0.82138 0.34898 0.34161 0.0
H1933 H 0.83575 0.34262 0.37469 0.0
H1934 H 0.83784 0.29555 0.29439 0.0
H1935 H 0.83067 0.29932 0.17617 0.0
H1936 H 0.81327 0.33389 0.24226 0.0
C1937 C 0.82562 0.3232 0.50959 0.0
C1938 C 0.8316 0.31409 0.55047 0.0
C1939 C 0.83791 0.30408 0.51791 0.0
C1940 C 0.8379 0.30291 0.44595 0.0
C1941 C 0.8317 0.31191 0.40722 0.0
C1942 C 0.82583 0.32197 0.4378 0.0
C1943 C 0.81959 0.33019 0.38452 0.0
C1944 C 0.80542 0.33091 0.39678 0.0
C1945 C 0.82551 0.34324 0.38347 0.0
C1946 C 0.8226 0.32301 0.31943 0.0
C1947 C 0.82958 0.3125 0.33358 0.0
C1948 C 0.83272 0.30397 0.2823 0.0
C1949 C 0.82871 0.3063 0.21465 0.0
C1950 C 0.82182 0.3172 0.19848 0.0
C1951 C 0.81873 0.32558 0.25216 0.0
H1952 H 0.1362 0.65365 0.10359 0.0
H1953 H 0.16371 0.63488 0.23005 0.0
H1954 H 0.15099 0.61559 0.22727 0.0
H1955 H 0.10923 0.63953 0.18448 0.0
H1956 H 0.10046 0.6385 0.10544 0.0
H1957 H 0.11188 0.65066 0.11641 0.0
H1958 H 0.12295 0.64352 0.00449 0.0
H1959 H 0.11163 0.63125 0.99355 0.0
H1960 H 0.12803 0.62756 0.99646 0.0
H1961 H 0.13576 0.59826 0.2068 0.0
H1962 H 0.11789 0.5845 0.18079 0.0
H1963 H 0.09945 0.6149 0.07427 0.0
C1964 C 0.13946 0.64546 0.13083 0.0
C1965 C 0.15085 0.64563 0.16715 0.0
C1966 C 0.15492 0.63485 0.20241 0.0
C1967 C 0.14781 0.62388 0.20073 0.0
C1968 C 0.13663 0.62394 0.16402 0.0
C1969 C 0.13237 0.63449 0.13048 0.0
C1970 C 0.11982 0.63217 0.09678 0.0
C1971 C 0.10975 0.64072 0.12764 0.0
C1972 C 0.12067 0.63372 0.01815 0.0
C1973 C 0.1177 0.61867 0.11652 0.0
C1974 C 0.12759 0.61407 0.15455 0.0
C1975 C 0.1279 0.60179 0.17776 0.0
C1976 C 0.11771 0.59407 0.16293 0.0
C1977 C 0.10726 0.5987 0.12635 0.0
C1978 C 0.10735 0.61112 0.10212 0.0
H1979 H 0.60143 0.88745 0.4544 0.0
H1980 H 0.61744 0.91702 0.33064 0.0
H1981 H 0.63547 0.90352 0.30275 0.0
H1982 H 0.63093 0.87533 0.52247 0.0
H1983 H 0.62587 0.85932 0.51854 0.0
H1984 H 0.61463 0.87157 0.53179 0.0
H1985 H 0.60216 0.86385 0.42564 0.0
H1986 H 0.61342 0.85165 0.4117 0.0
H1987 H 0.6099 0.86251 0.34352 0.0
H1988 H 0.6513 0.88665 0.28513 0.0
H1989 H 0.6643 0.86755 0.28172 0.0
H1990 H 0.6378 0.84872 0.41432 0.0
C1991 C 0.60885 0.89109 0.42236 0.0
C1992 C 0.60815 0.90321 0.39452 0.0
C1993 C 0.61789 0.9077 0.3521 0.0
C1994 C 0.62812 0.90012 0.33608 0.0
C1995 C 0.62846 0.88809 0.36304 0.0
C1996 C 0.61913 0.8836 0.40556 0.0
C1997 C 0.6216 0.87019 0.42599 0.0
C1998 C 0.62336 0.86904 0.50435 0.0
C1999 C 0.61114 0.86154 0.40015 0.0
C2000 C 0.6337 0.86783 0.3879 0.0
C2001 C 0.63752 0.87829 0.3521 0.0
C2002 C 0.64842 0.87839 0.31295 0.0
C2003 C 0.65568 0.86752 0.3109 0.0
C2004 C 0.65196 0.85674 0.34745 0.0
C2005 C 0.64081 0.85689 0.38605 0.0
H2006 H 0.36224 0.34875 0.56804 0.0
H2007 H 0.33387 0.369 0.6809 0.0
H2008 H 0.34654 0.38826 0.67307 0.0
H2009 H 0.38814 0.36312 0.64881 0.0
H2010 H 0.39774 0.3635 0.57263 0.0
H2011 H 0.38598 0.35164 0.58194 0.0
H2012 H 0.37618 0.35833 0.46561 0.0
H2013 H 0.3879 0.37026 0.45609 0.0
H2014 H 0.3716 0.37435 0.453 0.0
H2015 H 0.36257 0.40488 0.65812 0.0
H2016 H 0.38157 0.41766 0.64281 0.0
H2017 H 0.39987 0.38669 0.54116 0.0
C2018 C 0.35869 0.35732 0.59022 0.0
C2019 C 0.34712 0.35754 0.62478 0.0
C2020 C 0.34274 0.36876 0.65425 0.0
C2021 C 0.34983 0.37971 0.64972 0.0
C2022 C 0.36126 0.37922 0.61555 0.0
C2023 C 0.3657 0.36832 0.58651 0.0
C2024 C 0.37863 0.37017 0.55656 0.0
C2025 C 0.38818 0.3616 0.59213 0.0
C2026 C 0.37857 0.36816 0.47815 0.0
C2027 C 0.38086 0.38374 0.57446 0.0
C2028 C 0.37063 0.38881 0.6077 0.0
C2029 C 0.3706 0.40105 0.63179 0.0
C2030 C 0.3814 0.40822 0.62299 0.0
C2031 C 0.39208 0.40309 0.591 0.0
C2032 C 0.39173 0.39081 0.56514 0.0
H2033 H 0.88345 0.09801 0.94665 0.0
H2034 H 0.91654 0.11737 0.87631 0.0
H2035 H 0.90389 0.13615 0.85129 0.0
H2036 H 0.86323 0.10972 0.81889 0.0
H2037 H 0.84981 0.11118 0.8742 0.0
H2038 H 0.86157 0.09969 0.8929 0.0
H2039 H 0.86441 0.10894 0.01524 0.0
H2040 H 0.85259 0.12042 0.99707 0.0
H2041 H 0.86787 0.1253 0.02494 0.0
H2042 H 0.8876 0.15216 0.82691 0.0
H2043 H 0.86859 0.16468 0.80592 0.0
H2044 H 0.84586 0.13495 0.89024 0.0
C2045 C 0.888 0.10633 0.92732 0.0
C2046 C 0.90092 0.10642 0.91379 0.0
C2047 C 0.90663 0.11727 0.88724 0.0
C2048 C 0.89953 0.12793 0.87296 0.0
C2049 C 0.88675 0.12753 0.88564 0.0
C2050 C 0.88101 0.11705 0.91248 0.0
C2051 C 0.86702 0.11888 0.91776 0.0
C2052 C 0.86 0.1093 0.87327 0.0
C2053 C 0.86272 0.11835 0.99325 0.0
C2054 C 0.86578 0.13194 0.88865 0.0
C2055 C 0.87729 0.13677 0.87088 0.0
C2056 C 0.87854 0.14852 0.84104 0.0
C2057 C 0.86773 0.15552 0.82901 0.0
C2058 C 0.85586 0.15073 0.84655 0.0
C2059 C 0.85488 0.13883 0.877 0.0
H2060 H 0.15468 0.36629 0.89411 0.0
H2061 H 0.13192 0.33647 0.81097 0.0
H2062 H 0.11304 0.34948 0.82566 0.0
H2063 H 0.13228 0.37663 0.02346 0.0
H2064 H 0.13609 0.3929 0.01311 0.0
H2065 H 0.14776 0.38115 0.99723 0.0
H2066 H 0.15128 0.38998 0.87449 0.0
H2067 H 0.13964 0.40176 0.89003 0.0
H2068 H 0.13817 0.39152 0.81684 0.0
H2069 H 0.09687 0.36593 0.84524 0.0
H2070 H 0.08435 0.38488 0.86859 0.0
H2071 H 0.1174 0.40385 0.94263 0.0
C2072 C 0.14569 0.36251 0.8796 0.0
C2073 C 0.14468 0.35043 0.85119 0.0
C2074 C 0.13283 0.34577 0.83218 0.0
C2075 C 0.12209 0.35305 0.84071 0.0
C2076 C 0.12337 0.36494 0.8688 0.0
C2077 C 0.13486 0.36964 0.88817 0.0
C2078 C 0.13367 0.3828 0.916 0.0
C2079 C 0.13769 0.3834 0.99197 0.0
C2080 C 0.14113 0.39206 0.87168 0.0
C2081 C 0.11975 0.38482 0.90839 0.0
C2082 C 0.11399 0.37437 0.88123 0.0
C2083 C 0.10125 0.37412 0.86709 0.0
C2084 C 0.09422 0.38487 0.88045 0.0
C2085 C 0.09996 0.39566 0.90776 0.0
C2086 C 0.11284 0.39561 0.92257 0.0
H2087 H 0.90127 0.88814 0.13813 0.0
H2088 H 0.88161 0.91329 0.00139 0.0
H2089 H 0.86255 0.90031 0.01184 0.0
H2090 H 0.88763 0.85988 0.07091 0.0
H2091 H 0.88698 0.85225 0.15359 0.0
H2092 H 0.89883 0.86376 0.13681 0.0
H2093 H 0.89165 0.87625 0.24402 0.0
H2094 H 0.87969 0.86483 0.26079 0.0
H2095 H 0.87557 0.88103 0.25101 0.0
H2096 H 0.84561 0.88496 0.04017 0.0
H2097 H 0.83239 0.86715 0.07501 0.0
H2098 H 0.86353 0.85115 0.18688 0.0
C2099 C 0.89293 0.89083 0.1104 0.0
C2100 C 0.89277 0.90161 0.06888 0.0
C2101 C 0.8818 0.90497 0.03305 0.0
C2102 C 0.87098 0.89771 0.03901 0.0
C2103 C 0.87137 0.88711 0.0806 0.0
C2104 C 0.8821 0.88358 0.11503 0.0
C2105 C 0.88018 0.87152 0.15425 0.0
C2106 C 0.88892 0.86125 0.12725 0.0
C2107 C 0.88187 0.87353 0.23214 0.0
C2108 C 0.8667 0.8688 0.1365 0.0
C2109 C 0.86175 0.878 0.09469 0.0
C2110 C 0.84942 0.87764 0.07228 0.0
C2111 C 0.842 0.86749 0.09208 0.0
C2112 C 0.84701 0.85774 0.13276 0.0
C2113 C 0.85947 0.85851 0.15589 0.0
H2114 H 0.36149 0.65105 0.41782 0.0
H2115 H 0.33766 0.63084 0.27625 0.0
H2116 H 0.35074 0.61198 0.29101 0.0
H2117 H 0.39007 0.63813 0.35684 0.0
H2118 H 0.39739 0.63753 0.4404 0.0
H2119 H 0.38562 0.64908 0.42288 0.0
H2120 H 0.37286 0.64135 0.5279 0.0
H2121 H 0.38458 0.62973 0.5456 0.0
H2122 H 0.36855 0.62513 0.53356 0.0
H2123 H 0.36643 0.59556 0.31983 0.0
H2124 H 0.38477 0.58298 0.35325 0.0
H2125 H 0.39924 0.61414 0.47103 0.0
C2126 C 0.35902 0.64258 0.3906 0.0
C2127 C 0.34861 0.64225 0.3462 0.0
C2128 C 0.34565 0.63117 0.31043 0.0
C2129 C 0.35297 0.62044 0.31878 0.0
C2130 C 0.36324 0.62104 0.36274 0.0
C2131 C 0.36634 0.63184 0.39764 0.0
C2132 C 0.37831 0.63019 0.43829 0.0
C2133 C 0.38844 0.63927 0.41307 0.0
C2134 C 0.37593 0.63169 0.51595 0.0
C2135 C 0.38151 0.61682 0.42026 0.0
C2136 C 0.37258 0.61168 0.37739 0.0
C2137 C 0.37351 0.59949 0.35314 0.0
C2138 C 0.38396 0.59245 0.37212 0.0
C2139 C 0.39343 0.59767 0.41392 0.0
C2140 C 0.39208 0.60994 0.43921 0.0
H2141 H 0.59846 0.11502 0.64755 0.0
H2142 H 0.61635 0.08735 0.51852 0.0
H2143 H 0.63609 0.09936 0.52297 0.0
H2144 H 0.61293 0.14142 0.56806 0.0
H2145 H 0.61439 0.15021 0.64682 0.0
H2146 H 0.60201 0.13899 0.63743 0.0
H2147 H 0.6094 0.12784 0.74863 0.0
H2148 H 0.62188 0.13898 0.75803 0.0
H2149 H 0.62532 0.12253 0.75502 0.0
H2150 H 0.65366 0.11429 0.54101 0.0
H2151 H 0.66753 0.13234 0.56096 0.0
H2152 H 0.63797 0.15112 0.67253 0.0
C2153 C 0.60659 0.11153 0.62066 0.0
C2154 C 0.60605 0.10031 0.58289 0.0
C2155 C 0.61672 0.09597 0.54759 0.0
C2156 C 0.62793 0.10268 0.5502 0.0
C2157 C 0.62822 0.11373 0.58795 0.0
C2158 C 0.61781 0.11823 0.62192 0.0
C2159 C 0.62045 0.13076 0.65511 0.0
C2160 C 0.61194 0.14095 0.62503 0.0
C2161 C 0.61919 0.12997 0.73388 0.0
C2162 C 0.63392 0.13266 0.63388 0.0
C2163 C 0.63826 0.12262 0.59615 0.0
C2164 C 0.65036 0.12222 0.57023 0.0
C2165 C 0.65815 0.1325 0.58166 0.0
C2166 C 0.65374 0.1431 0.61755 0.0
C2167 C 0.64156 0.14308 0.64519 0.0
H2168 H 0.84424 0.36695 0.91379 0.0
H2169 H 0.86538 0.33806 0.81028 0.0
H2170 H 0.88459 0.35069 0.82182 0.0
H2171 H 0.85993 0.39279 0.83678 0.0
H2172 H 0.85958 0.40235 0.91312 0.0
H2173 H 0.84764 0.39081 0.89926 0.0
H2174 H 0.85275 0.38085 0.01762 0.0
H2175 H 0.86475 0.39235 0.03171 0.0
H2176 H 0.8685 0.37598 0.03593 0.0
H2177 H 0.90126 0.36653 0.84187 0.0
H2178 H 0.91428 0.38514 0.8646 0.0
H2179 H 0.88248 0.40389 0.95533 0.0
C2180 C 0.85297 0.3633 0.89421 0.0
C2181 C 0.85345 0.35156 0.86143 0.0
C2182 C 0.86491 0.34707 0.83539 0.0
C2183 C 0.87584 0.35413 0.84206 0.0
C2184 C 0.8751 0.36566 0.8749 0.0
C2185 C 0.86397 0.37025 0.90038 0.0
C2186 C 0.86569 0.38313 0.93121 0.0
C2187 C 0.85774 0.39284 0.89278 0.0
C2188 C 0.86275 0.38307 0.00873 0.0
C2189 C 0.87949 0.38512 0.91832 0.0
C2190 C 0.88475 0.37486 0.88626 0.0
C2191 C 0.89727 0.37459 0.86724 0.0
C2192 C 0.90458 0.38515 0.8803 0.0
C2193 C 0.89932 0.39582 0.91169 0.0
C2194 C 0.88669 0.39575 0.93189 0.0
H2195 H 0.40082 0.11454 0.54971 0.0
H2196 H 0.38045 0.08235 0.62421 0.0
H2197 H 0.36186 0.09555 0.64397 0.0
H2198 H 0.3888 0.13639 0.66725 0.0
H2199 H 0.38769 0.14909 0.60671 0.0
H2200 H 0.39914 0.13703 0.59408 0.0
H2201 H 0.39038 0.13268 0.472 0.0
H2202 H 0.37896 0.14483 0.48398 0.0
H2203 H 0.37401 0.12928 0.46154 0.0
H2204 H 0.34627 0.11246 0.6654 0.0
H2205 H 0.33392 0.13188 0.67782 0.0
H2206 H 0.36393 0.15299 0.5844 0.0
C2207 C 0.39235 0.11028 0.56903 0.0
C2208 C 0.39202 0.09751 0.58633 0.0
C2209 C 0.38086 0.09219 0.61166 0.0
C2210 C 0.37028 0.09959 0.62282 0.0
C2211 C 0.37099 0.11224 0.60724 0.0
C2212 C 0.38166 0.11754 0.5799 0.0
C2213 C 0.38 0.13144 0.56895 0.0
C2214 C 0.38947 0.13892 0.61182 0.0
C2215 C 0.38089 0.13475 0.49204 0.0
C2216 C 0.36684 0.13316 0.59579 0.0
C2217 C 0.36182 0.12196 0.61771 0.0
C2218 C 0.35002 0.12126 0.64756 0.0
C2219 C 0.34311 0.13228 0.65471 0.0
C2220 C 0.34803 0.14377 0.63174 0.0
C2221 C 0.36 0.14423 0.60176 0.0
H2222 H 0.60212 0.6141 0.47381 0.0
H2223 H 0.61608 0.58431 0.34391 0.0
H2224 H 0.63393 0.5975 0.30973 0.0
H2225 H 0.61018 0.63934 0.36597 0.0
H2226 H 0.61502 0.64959 0.43452 0.0
H2227 H 0.60352 0.63772 0.45077 0.0
H2228 H 0.61707 0.62883 0.54986 0.0
H2229 H 0.62857 0.64076 0.53433 0.0
H2230 H 0.63305 0.62456 0.53308 0.0
H2231 H 0.64925 0.61441 0.28262 0.0
H2232 H 0.66234 0.63339 0.27337 0.0
H2233 H 0.63943 0.6517 0.42684 0.0
C2234 C 0.60906 0.61031 0.4391 0.0
C2235 C 0.60767 0.59828 0.41061 0.0
C2236 C 0.61688 0.59362 0.36515 0.0
C2237 C 0.62706 0.60101 0.3457 0.0
C2238 C 0.62802 0.61295 0.37328 0.0
C2239 C 0.6194 0.61752 0.4199 0.0
C2240 C 0.62265 0.63069 0.4418 0.0
C2241 C 0.61222 0.63987 0.42206 0.0
C2242 C 0.62551 0.63124 0.51938 0.0
C2243 C 0.6343 0.63288 0.39927 0.0
C2244 C 0.63719 0.62254 0.35979 0.0
C2245 C 0.64719 0.62251 0.3139 0.0
C2246 C 0.65452 0.6333 0.30868 0.0
C2247 C 0.65184 0.64386 0.34957 0.0
C2248 C 0.64166 0.64364 0.39552 0.0
H2249 H 0.1431 0.85707 0.19261 0.0
H2250 H 0.16042 0.86038 0.99088 0.0
H2251 H 0.14371 0.8744 0.95467 0.0
H2252 H 0.11186 0.8624 0.15953 0.0
H2253 H 0.10928 0.87357 0.22742 0.0
H2254 H 0.12131 0.86196 0.23635 0.0
H2255 H 0.13791 0.87915 0.25643 0.0
H2256 H 0.12586 0.8908 0.24961 0.0
H2257 H 0.13942 0.89165 0.1949 0.0
H2258 H 0.12211 0.88439 0.93692 0.0
H2259 H 0.10346 0.89716 0.94757 0.0
H2260 H 0.10765 0.89651 0.17062 0.0
C2261 C 0.14379 0.86083 0.14135 0.0
C2262 C 0.15276 0.85651 0.09312 0.0
C2263 C 0.15302 0.86223 0.02704 0.0
C2264 C 0.14367 0.87052 0.00613 0.0
C2265 C 0.13473 0.87403 0.05398 0.0
C2266 C 0.1353 0.87012 0.12154 0.0
C2267 C 0.12597 0.87718 0.1655 0.0
C2268 C 0.11655 0.86824 0.19917 0.0
C2269 C 0.13269 0.88517 0.21981 0.0
C2270 C 0.11976 0.88522 0.11103 0.0
C2271 C 0.12456 0.88276 0.04675 0.0
C2272 C 0.11886 0.8872 0.98738 0.0
C2273 C 0.10831 0.89482 0.99425 0.0
C2274 C 0.10411 0.89895 0.05991 0.0
C2275 C 0.1101 0.89389 0.11903 0.0
H2276 H 0.90112 0.61542 0.0536 0.0
H2277 H 0.88191 0.58321 0.1369 0.0
H2278 H 0.86325 0.59613 0.15899 0.0
H2279 H 0.88953 0.63753 0.17101 0.0
H2280 H 0.88773 0.64995 0.10924 0.0
H2281 H 0.89932 0.63806 0.09555 0.0
H2282 H 0.88977 0.63305 0.97607 0.0
H2283 H 0.87821 0.64502 0.98911 0.0
H2284 H 0.87341 0.6293 0.96967 0.0
H2285 H 0.84747 0.6128 0.1813 0.0
H2286 H 0.83483 0.63201 0.19392 0.0
H2287 H 0.86375 0.65332 0.09184 0.0
C2288 C 0.89288 0.61108 0.07526 0.0
C2289 C 0.89292 0.59838 0.09428 0.0
C2290 C 0.88206 0.59299 0.12291 0.0
C2291 C 0.87143 0.60023 0.13541 0.0
C2292 C 0.87177 0.61282 0.11798 0.0
C2293 C 0.88214 0.61819 0.08762 0.0
C2294 C 0.88012 0.63201 0.07537 0.0
C2295 C 0.88975 0.63984 0.11518 0.0
C2296 C 0.88039 0.63502 0.99794 0.0
C2297 C 0.86713 0.6336 0.1049 0.0
C2298 C 0.8625 0.6224 0.12925 0.0
C2299 C 0.85092 0.62159 0.16164 0.0
C2300 C 0.84385 0.63251 0.16889 0.0
C2301 C 0.84837 0.644 0.14355 0.0
C2302 C 0.86012 0.64456 0.11103 0.0
H2303 H 0.1562 0.13433 0.8927 0.0
H2304 H 0.13295 0.16339 0.80538 0.0
H2305 H 0.11437 0.14991 0.8192 0.0
H2306 H 0.13996 0.10801 0.82081 0.0
H2307 H 0.14162 0.09852 0.89691 0.0
H2308 H 0.15311 0.11025 0.87739 0.0
H2309 H 0.14966 0.12025 0.99745 0.0
H2310 H 0.13815 0.10855 0.01733 0.0
H2311 H 0.13416 0.12485 0.02288 0.0
H2312 H 0.09842 0.13327 0.84208 0.0
H2313 H 0.08604 0.11471 0.87545 0.0
H2314 H 0.11938 0.09703 0.95508 0.0
C2315 C 0.14717 0.13786 0.87699 0.0
C2316 C 0.14594 0.14988 0.84809 0.0
C2317 C 0.13405 0.15415 0.82709 0.0
C2318 C 0.12347 0.1466 0.83503 0.0
C2319 C 0.12495 0.13484 0.86457 0.0
C2320 C 0.13649 0.13051 0.88554 0.0
C2321 C 0.13549 0.11764 0.91737 0.0
C2322 C 0.14299 0.10804 0.87561 0.0
C2323 C 0.13961 0.11784 0.99327 0.0
C2324 C 0.12159 0.1154 0.91089 0.0
C2325 C 0.1157 0.12542 0.87986 0.0
C2326 C 0.10291 0.12542 0.86679 0.0
C2327 C 0.09597 0.11489 0.88586 0.0
C2328 C 0.10182 0.10463 0.91811 0.0
C2329 C 0.11475 0.10488 0.93102 0.0
H2330 H 0.61435 0.40309 0.62852 0.0
H2331 H 0.59117 0.38536 0.47384 0.0
H2332 H 0.60533 0.36713 0.47324 0.0
H2333 H 0.64419 0.39174 0.56974 0.0
H2334 H 0.65013 0.38936 0.65562 0.0
H2335 H 0.63866 0.40129 0.63981 0.0
H2336 H 0.62431 0.39154 0.73281 0.0
H2337 H 0.63571 0.37953 0.7486 0.0
H2338 H 0.61994 0.37535 0.72595 0.0
H2339 H 0.62191 0.35076 0.4911 0.0
H2340 H 0.63963 0.33737 0.52653 0.0
H2341 H 0.65098 0.36514 0.67602 0.0
C2342 C 0.61226 0.39537 0.59448 0.0
C2343 C 0.60173 0.39565 0.55078 0.0
C2344 C 0.59934 0.38543 0.50662 0.0
C2345 C 0.60726 0.375 0.50645 0.0
C2346 C 0.61744 0.37493 0.55125 0.0
C2347 C 0.61993 0.38483 0.59457 0.0
C2348 C 0.63119 0.38227 0.6396 0.0
C2349 C 0.64166 0.39173 0.6253 0.0
C2350 C 0.62757 0.38216 0.71628 0.0
C2351 C 0.63468 0.36936 0.61479 0.0
C2352 C 0.62667 0.36532 0.5635 0.0
C2353 C 0.6282 0.3538 0.53138 0.0
C2354 C 0.63823 0.34627 0.55178 0.0
C2355 C 0.6465 0.35026 0.60413 0.0
C2356 C 0.64465 0.36188 0.63643 0.0
H2357 H 0.38794 0.90198 0.36258 0.0
H2358 H 0.41111 0.88328 0.51373 0.0
H2359 H 0.3975 0.86469 0.50724 0.0
H2360 H 0.35859 0.89009 0.42231 0.0
H2361 H 0.35205 0.88838 0.33727 0.0
H2362 H 0.3637 0.90013 0.35335 0.0
H2363 H 0.37736 0.89102 0.25539 0.0
H2364 H 0.36577 0.8792 0.2392 0.0
H2365 H 0.38164 0.87477 0.25755 0.0
H2366 H 0.38146 0.84827 0.48474 0.0
H2367 H 0.36348 0.83523 0.45069 0.0
H2368 H 0.35063 0.86445 0.31371 0.0
C2369 C 0.39014 0.89393 0.39401 0.0
C2370 C 0.40051 0.89401 0.43889 0.0
C2371 C 0.4031 0.8834 0.47973 0.0
C2372 C 0.39549 0.8728 0.47597 0.0
C2373 C 0.38535 0.87297 0.43102 0.0
C2374 C 0.38263 0.88326 0.39086 0.0
C2375 C 0.37105 0.88109 0.34767 0.0
C2376 C 0.36074 0.89048 0.3663 0.0
C2377 C 0.37414 0.88154 0.27037 0.0
C2378 C 0.36763 0.868 0.37019 0.0
C2379 C 0.37606 0.86348 0.41805 0.0
C2380 C 0.37481 0.8517 0.44732 0.0
C2381 C 0.36458 0.84438 0.42783 0.0
C2382 C 0.35573 0.84889 0.37984 0.0
C2383 C 0.35735 0.86079 0.3501 0.0
H2384 H 0.07163 0.4708 0.06573 0.0
H2385 H 0.07808 0.47223 0.8449 0.0
H2386 H 0.08008 0.49508 0.85135 0.0
H2387 H 0.05279 0.49774 0.07458 0.0
H2388 H 0.05879 0.50308 0.15617 0.0
H2389 H 0.05891 0.4867 0.13596 0.0
H2390 H 0.08272 0.48588 0.15825 0.0
H2391 H 0.08267 0.50228 0.17873 0.0
H2392 H 0.09289 0.4964 0.1125 0.0
H2393 H 0.08003 0.51759 0.87918 0.0
H2394 H 0.07795 0.53872 0.92664 0.0
H2395 H 0.0715 0.52317 0.1303 0.0
C2396 C 0.07366 0.4759 0.01891 0.0
C2397 C 0.07474 0.46969 0.95478 0.0
C2398 C 0.07721 0.47675 0.89459 0.0
C2399 C 0.0784 0.48974 0.89772 0.0
C2400 C 0.07711 0.49556 0.96142 0.0
C2401 C 0.07483 0.48891 0.02103 0.0
C2402 C 0.07321 0.4976 0.08218 0.0
C2403 C 0.06015 0.49619 0.11407 0.0
C2404 C 0.08349 0.49541 0.1361 0.0
C2405 C 0.07473 0.51016 0.04725 0.0
C2406 C 0.07706 0.50871 0.97767 0.0
C2407 C 0.07832 0.51886 0.93367 0.0
C2408 C 0.07707 0.53084 0.96124 0.0
C2409 C 0.07457 0.53263 0.03232 0.0
C2410 C 0.07353 0.52212 0.07596 0.0
H2411 H 0.72132 0.81948 0.22104 0.0
H2412 H 0.72265 0.82792 0.43991 0.0
H2413 H 0.74552 0.82967 0.43346 0.0
H2414 H 0.74844 0.80053 0.21735 0.0
H2415 H 0.75373 0.80589 0.13434 0.0
H2416 H 0.73733 0.80604 0.15454 0.0
H2417 H 0.73632 0.82962 0.12628 0.0
H2418 H 0.75271 0.82955 0.10584 0.0
H2419 H 0.74675 0.84024 0.16947 0.0
H2420 H 0.76806 0.82954 0.40569 0.0
H2421 H 0.78921 0.8276 0.35831 0.0
H2422 H 0.77368 0.81926 0.15661 0.0
C2423 C 0.7264 0.82184 0.26747 0.0
C2424 C 0.72015 0.82358 0.33102 0.0
C2425 C 0.72719 0.82653 0.39066 0.0
C2426 C 0.74019 0.82758 0.38753 0.0
C2427 C 0.74605 0.82567 0.3244 0.0
C2428 C 0.73942 0.82289 0.26535 0.0
C2429 C 0.74812 0.82086 0.20466 0.0
C2430 C 0.74682 0.80754 0.17607 0.0
C2431 C 0.74584 0.83066 0.14823 0.0
C2432 C 0.76066 0.82277 0.23919 0.0
C2433 C 0.7592 0.8256 0.30818 0.0
C2434 C 0.76934 0.82741 0.35165 0.0
C2435 C 0.78134 0.82625 0.32411 0.0
C2436 C 0.78315 0.82328 0.25358 0.0
C2437 C 0.77263 0.82162 0.21053 0.0
H2438 H 0.43272 0.52418 0.4136 0.0
H2439 H 0.41892 0.53791 0.60998 0.0
H2440 H 0.41615 0.5164 0.65029 0.0
H2441 H 0.41213 0.49656 0.4043 0.0
H2442 H 0.42406 0.48678 0.36743 0.0
H2443 H 0.4241 0.50332 0.3508 0.0
H2444 H 0.44673 0.50479 0.39691 0.0
H2445 H 0.44674 0.48829 0.41388 0.0
H2446 H 0.45021 0.49912 0.48223 0.0
H2447 H 0.41619 0.49385 0.6737 0.0
H2448 H 0.41877 0.47107 0.67815 0.0
H2449 H 0.43238 0.47128 0.4673 0.0
C2450 C 0.42892 0.52263 0.46459 0.0
C2451 C 0.42605 0.53276 0.50854 0.0
C2452 C 0.42126 0.53034 0.57533 0.0
C2453 C 0.41959 0.51814 0.59877 0.0
C2454 C 0.42271 0.50839 0.55493 0.0
C2455 C 0.42723 0.51042 0.48918 0.0
C2456 C 0.43041 0.49816 0.45425 0.0
C2457 C 0.42218 0.49608 0.39041 0.0
C2458 C 0.44435 0.49756 0.43575 0.0
C2459 C 0.42718 0.48901 0.51124 0.0
C2460 C 0.42269 0.49516 0.56859 0.0
C2461 C 0.41957 0.48888 0.62892 0.0
C2462 C 0.42112 0.47594 0.63099 0.0
C2463 C 0.42574 0.46936 0.57306 0.0
C2464 C 0.4287 0.47602 0.51218 0.0
H2465 H 0.7745 0.18034 0.83119 0.0
H2466 H 0.79025 0.16935 0.63413 0.0
H2467 H 0.76915 0.16674 0.58685 0.0
H2468 H 0.74711 0.15938 0.82491 0.0
H2469 H 0.73688 0.17074 0.86355 0.0
H2470 H 0.75325 0.17068 0.88472 0.0
H2471 H 0.75489 0.19385 0.84797 0.0
H2472 H 0.73856 0.19396 0.82649 0.0
H2473 H 0.74996 0.19837 0.76275 0.0
H2474 H 0.74673 0.16679 0.55743 0.0
H2475 H 0.72398 0.16935 0.54772 0.0
H2476 H 0.72224 0.18032 0.76302 0.0
C2477 C 0.77349 0.17716 0.77853 0.0
C2478 C 0.78405 0.17502 0.73648 0.0
C2479 C 0.78233 0.17107 0.66741 0.0
C2480 C 0.77036 0.16952 0.64002 0.0
C2481 C 0.76017 0.17192 0.68224 0.0
C2482 C 0.76155 0.17562 0.75003 0.0
C2483 C 0.74895 0.17826 0.78267 0.0
C2484 C 0.7464 0.16922 0.84251 0.0
C2485 C 0.74804 0.19192 0.80634 0.0
C2486 C 0.74036 0.17569 0.72214 0.0
C2487 C 0.74706 0.17197 0.66498 0.0
C2488 C 0.74134 0.16958 0.60198 0.0
C2489 C 0.72841 0.1711 0.59696 0.0
C2490 C 0.72129 0.175 0.65461 0.0
C2491 C 0.72738 0.1772 0.7182 0.0
H2492 H 0.92791 0.47155 0.05569 0.0
H2493 H 0.9239 0.47212 0.83294 0.0
H2494 H 0.92259 0.49503 0.83553 0.0
H2495 H 0.90693 0.49789 0.09127 0.0
H2496 H 0.91652 0.5038 0.16023 0.0
H2497 H 0.91627 0.48733 0.14193 0.0
H2498 H 0.9403 0.48744 0.12808 0.0
H2499 H 0.94063 0.5039 0.14612 0.0
H2500 H 0.94741 0.49803 0.06757 0.0
H2501 H 0.92306 0.51768 0.86028 0.0
H2502 H 0.92505 0.53897 0.90583 0.0
H2503 H 0.92864 0.52415 0.11326 0.0
C2504 C 0.92657 0.47648 0.00756 0.0
C2505 C 0.92598 0.47 0.94408 0.0
C2506 C 0.92438 0.47684 0.8822 0.0
C2507 C 0.9236 0.48987 0.88311 0.0
C2508 C 0.9244 0.49596 0.94628 0.0
C2509 C 0.9258 0.48953 0.00746 0.0
C2510 C 0.92694 0.49844 0.06789 0.0
C2511 C 0.91601 0.49676 0.1183 0.0
C2512 C 0.93957 0.49685 0.10455 0.0
C2513 C 0.92617 0.51087 0.03082 0.0
C2514 C 0.92463 0.50917 0.96075 0.0
C2515 C 0.92415 0.51915 0.91511 0.0
C2516 C 0.92533 0.53122 0.9416 0.0
C2517 C 0.92698 0.53326 0.01323 0.0
C2518 C 0.92728 0.52291 0.05841 0.0
H2519 H 0.22786 0.17847 0.86701 0.0
H2520 H 0.21254 0.16654 0.6707 0.0
H2521 H 0.23374 0.16427 0.62411 0.0
H2522 H 0.25155 0.19699 0.79839 0.0
H2523 H 0.26322 0.1932 0.86188 0.0
H2524 H 0.24694 0.19237 0.88399 0.0
H2525 H 0.24963 0.16934 0.92146 0.0
H2526 H 0.26597 0.17013 0.9 0.0
H2527 H 0.25626 0.15826 0.86199 0.0
H2528 H 0.25603 0.16545 0.59405 0.0
H2529 H 0.27858 0.16925 0.58327 0.0
H2530 H 0.2801 0.18032 0.79841 0.0
C2531 C 0.22901 0.17505 0.81491 0.0
C2532 C 0.21855 0.17263 0.77257 0.0
C2533 C 0.22041 0.16846 0.70406 0.0
C2534 C 0.23242 0.1671 0.67712 0.0
C2535 C 0.24253 0.16991 0.71928 0.0
C2536 C 0.24102 0.1737 0.78684 0.0
C2537 C 0.25351 0.17697 0.81906 0.0
C2538 C 0.25382 0.1907 0.84217 0.0
C2539 C 0.25652 0.16814 0.87919 0.0
C2540 C 0.26217 0.17472 0.75844 0.0
C2541 C 0.2556 0.17057 0.70168 0.0
C2542 C 0.26133 0.16852 0.63836 0.0
C2543 C 0.27414 0.17078 0.63269 0.0
C2544 C 0.28113 0.17504 0.69002 0.0
C2545 C 0.27504 0.17692 0.75391 0.0
H2546 H 0.56868 0.47148 0.45775 0.0
H2547 H 0.58167 0.47022 0.66969 0.0
H2548 H 0.5844 0.49304 0.66846 0.0
H2549 H 0.5893 0.49668 0.39986 0.0
H2550 H 0.57754 0.50365 0.34574 0.0
H2551 H 0.57741 0.48707 0.36113 0.0
H2552 H 0.55466 0.48855 0.40531 0.0
H2553 H 0.55472 0.50511 0.39012 0.0
H2554 H 0.55099 0.49916 0.47448 0.0
H2555 H 0.58465 0.5158 0.64741 0.0
H2556 H 0.58219 0.53746 0.6087 0.0
H2557 H 0.56894 0.5244 0.40977 0.0
C2558 C 0.57225 0.47598 0.50364 0.0
C2559 C 0.575 0.46903 0.56382 0.0
C2560 C 0.5795 0.47531 0.62301 0.0
C2561 C 0.58112 0.48827 0.62276 0.0
C2562 C 0.57821 0.49483 0.56295 0.0
C2563 C 0.57388 0.48894 0.50441 0.0
C2564 C 0.57087 0.49831 0.44816 0.0
C2565 C 0.57928 0.49631 0.38498 0.0
C2566 C 0.55698 0.49775 0.42839 0.0
C2567 C 0.57402 0.51041 0.48475 0.0
C2568 C 0.57831 0.50812 0.55072 0.0
C2569 C 0.58138 0.51772 0.59573 0.0
C2570 C 0.5799 0.53001 0.57317 0.0
C2571 C 0.57536 0.53266 0.50608 0.0
C2572 C 0.57254 0.52269 0.46103 0.0
H2573 H 0.28219 0.81909 0.1851 0.0
H2574 H 0.28017 0.83233 0.39624 0.0
H2575 H 0.25767 0.83605 0.38269 0.0
H2576 H 0.25832 0.84043 0.11284 0.0
H2577 H 0.25193 0.82867 0.05662 0.0
H2578 H 0.26822 0.82825 0.07961 0.0
H2579 H 0.26558 0.80567 0.12464 0.0
H2580 H 0.24931 0.80602 0.1019 0.0
H2581 H 0.2539 0.80241 0.18899 0.0
H2582 H 0.23552 0.83687 0.35125 0.0
H2583 H 0.21441 0.83432 0.30423 0.0
H2584 H 0.22999 0.82032 0.11262 0.0
C2585 C 0.27703 0.823 0.22791 0.0
C2586 C 0.28295 0.82548 0.29166 0.0
C2587 C 0.27585 0.83034 0.34701 0.0
C2588 C 0.26306 0.83255 0.33973 0.0
C2589 C 0.25747 0.82984 0.27681 0.0
C2590 C 0.26416 0.82516 0.22175 0.0
C2591 C 0.25558 0.82219 0.16163 0.0
C2592 C 0.2587 0.83038 0.09896 0.0
C2593 C 0.25613 0.80825 0.14324 0.0
C2594 C 0.24302 0.82569 0.19228 0.0
C2595 C 0.24443 0.83021 0.25852 0.0
C2596 C 0.23428 0.83347 0.2992 0.0
C2597 C 0.22231 0.83193 0.272 0.0
C2598 C 0.22053 0.82713 0.20467 0.0
C2599 C 0.23106 0.82417 0.16385 0.0
H2600 H 0.57208 0.97212 0.55691 0.0
H2601 H 0.58017 0.9725 0.33765 0.0
H2602 H 0.58273 0.99531 0.34177 0.0
H2603 H 0.55379 0.99947 0.55734 0.0
H2604 H 0.55918 0.00505 0.63971 0.0
H2605 H 0.55915 0.98859 0.62166 0.0
H2606 H 0.58272 0.98744 0.65038 0.0
H2607 H 0.58283 0.00393 0.66852 0.0
H2608 H 0.59348 0.99755 0.60589 0.0
H2609 H 0.58306 0.01787 0.36659 0.0
H2610 H 0.58061 0.03925 0.41003 0.0
H2611 H 0.57215 0.0248 0.61382 0.0
C2612 C 0.57459 0.97699 0.51004 0.0
C2613 C 0.57597 0.97051 0.44696 0.0
C2614 C 0.57904 0.97725 0.38652 0.0
C2615 C 0.58058 0.9902 0.38838 0.0
C2616 C 0.57901 0.99631 0.45103 0.0
C2617 C 0.57607 0.98998 0.51083 0.0
C2618 C 0.57411 0.99897 0.57029 0.0
C2619 C 0.56076 0.99796 0.59891 0.0
C2620 C 0.58387 0.99684 0.62713 0.0
C2621 C 0.57619 0.01134 0.53409 0.0
C2622 C 0.57912 0.00952 0.46548 0.0
C2623 C 0.58088 0.01943 0.42033 0.0
C2624 C 0.57942 0.03155 0.44556 0.0
C2625 C 0.5762 0.03372 0.5154 0.0
C2626 C 0.57477 0.02345 0.56047 0.0
H2627 H 0.22698 0.32361 0.85449 0.0
H2628 H 0.21147 0.33212 0.65317 0.0
H2629 H 0.23266 0.33386 0.60551 0.0
H2630 H 0.25491 0.34401 0.84 0.0
H2631 H 0.26483 0.33296 0.88362 0.0
H2632 H 0.24846 0.33375 0.90439 0.0
H2633 H 0.24624 0.31019 0.87785 0.0
H2634 H 0.26256 0.30934 0.85652 0.0
H2635 H 0.25102 0.30435 0.79484 0.0
H2636 H 0.25506 0.33277 0.57652 0.0
H2637 H 0.27771 0.32946 0.5682 0.0
H2638 H 0.27923 0.32163 0.78768 0.0
C2639 C 0.22807 0.32614 0.80082 0.0
C2640 C 0.21756 0.32778 0.75763 0.0
C2641 C 0.21937 0.33082 0.68728 0.0
C2642 C 0.23137 0.33186 0.65969 0.0
C2643 C 0.24151 0.32987 0.70304 0.0
C2644 C 0.24004 0.32715 0.77216 0.0
C2645 C 0.25256 0.32465 0.80602 0.0
C2646 C 0.25535 0.33443 0.86181 0.0
C2647 C 0.25312 0.31134 0.83552 0.0
C2648 C 0.26122 0.32612 0.7447 0.0
C2649 C 0.25461 0.32922 0.68604 0.0
C2650 C 0.26038 0.33049 0.62221 0.0
C2651 C 0.27326 0.32852 0.61801 0.0
C2652 C 0.28028 0.32531 0.67729 0.0
C2653 C 0.27415 0.3242 0.74159 0.0
H2654 H 0.92839 0.97695 0.11005 0.0
H2655 H 0.91926 0.96399 0.90406 0.0
H2656 H 0.917 0.98567 0.86519 0.0
H2657 H 0.90744 0.00449 0.10923 0.0
H2658 H 0.91844 0.0141 0.15517 0.0
H2659 H 0.91815 0.9975 0.16953 0.0
H2660 H 0.94164 0.99621 0.13898 0.0
H2661 H 0.94199 0.01278 0.1243 0.0
H2662 H 0.94697 0.00223 0.05742 0.0
H2663 H 0.91746 0.00836 0.84502 0.0
H2664 H 0.9204 0.03112 0.84505 0.0
H2665 H 0.92914 0.02998 0.06351 0.0
C2666 C 0.92567 0.97869 0.05719 0.0
C2667 C 0.92399 0.96875 0.01017 0.0
C2668 C 0.92065 0.97143 0.94105 0.0
C2669 C 0.91928 0.98372 0.91843 0.0
C2670 C 0.92126 0.9933 0.96545 0.0
C2671 C 0.92433 0.99099 0.03344 0.0
C2672 C 0.92669 0.0031 0.07186 0.0
C2673 C 0.9171 0.0049 0.12988 0.0
C2674 C 0.94012 0.0036 0.09976 0.0
C2675 C 0.92472 0.01249 0.01435 0.0
C2676 C 0.92151 0.00659 0.95364 0.0
C2677 C 0.91983 0.01312 0.89238 0.0
C2678 C 0.92157 0.02605 0.8929 0.0
C2679 C 0.92495 0.03235 0.95429 0.0
C2680 C 0.9264 0.02546 0.01599 0.0
H2681 H 0.27376 0.68102 0.35212 0.0
H2682 H 0.28793 0.6662 0.15913 0.0
H2683 H 0.26649 0.66371 0.11658 0.0
H2684 H 0.24543 0.66121 0.3603 0.0
H2685 H 0.2359 0.6736 0.39451 0.0
H2686 H 0.25236 0.67315 0.41337 0.0
H2687 H 0.25479 0.69553 0.36505 0.0
H2688 H 0.23838 0.69603 0.34579 0.0
H2689 H 0.24963 0.69888 0.2786 0.0
H2690 H 0.244 0.66433 0.09026 0.0
H2691 H 0.22135 0.66781 0.08222 0.0
H2692 H 0.22117 0.6822 0.29148 0.0
C2693 C 0.27231 0.67702 0.30152 0.0
C2694 C 0.28254 0.67379 0.25904 0.0
C2695 C 0.28027 0.66879 0.19259 0.0
C2696 C 0.26811 0.66728 0.16794 0.0
C2697 C 0.25826 0.67079 0.21026 0.0
C2698 C 0.26016 0.67551 0.27571 0.0
C2699 C 0.24786 0.67923 0.30859 0.0
C2700 C 0.24523 0.67132 0.37301 0.0
C2701 C 0.24766 0.69325 0.32547 0.0
C2702 C 0.23885 0.6761 0.25075 0.0
C2703 C 0.24509 0.67116 0.19482 0.0
C2704 C 0.23896 0.66806 0.13395 0.0
C2705 C 0.22609 0.67012 0.12983 0.0
C2706 C 0.21945 0.67524 0.18623 0.0
C2707 C 0.22594 0.67814 0.24774 0.0
H2708 H 0.42804 0.02296 0.62072 0.0
H2709 H 0.41983 0.03641 0.41456 0.0
H2710 H 0.41778 0.01481 0.37376 0.0
H2711 H 0.44689 0.99783 0.56882 0.0
H2712 H 0.44163 0.98715 0.63436 0.0
H2713 H 0.4412 0.00369 0.65001 0.0
H2714 H 0.41759 0.00233 0.67737 0.0
H2715 H 0.41795 0.98576 0.66203 0.0
H2716 H 0.40714 0.99546 0.61523 0.0
H2717 H 0.41828 0.99207 0.35222 0.0
H2718 H 0.42114 0.96928 0.35162 0.0
H2719 H 0.42901 0.97013 0.57115 0.0
C2720 C 0.42557 0.02134 0.56737 0.0
C2721 C 0.42407 0.03139 0.52093 0.0
C2722 C 0.42106 0.02888 0.45116 0.0
C2723 C 0.41982 0.01663 0.42743 0.0
C2724 C 0.4216 0.00695 0.474 0.0
C2725 C 0.42436 0.00911 0.54255 0.0
C2726 C 0.42656 0.99693 0.58051 0.0
C2727 C 0.43986 0.99637 0.61014 0.0
C2728 C 0.41672 0.99501 0.63714 0.0
C2729 C 0.42484 0.98767 0.52219 0.0
C2730 C 0.4219 0.99367 0.46139 0.0
C2731 C 0.42045 0.98722 0.39964 0.0
C2732 C 0.42214 0.97428 0.39981 0.0
C2733 C 0.42526 0.96789 0.46133 0.0
C2734 C 0.42648 0.97471 0.52342 0.0
H2735 H 0.72764 0.68082 0.37234 0.0
H2736 H 0.71276 0.66989 0.17307 0.0
H2737 H 0.73403 0.66782 0.12774 0.0
H2738 H 0.75208 0.69945 0.30741 0.0
H2739 H 0.76342 0.69511 0.37168 0.0
H2740 H 0.74704 0.69463 0.39192 0.0
H2741 H 0.74903 0.67141 0.4271 0.0
H2742 H 0.76545 0.67184 0.40729 0.0
H2743 H 0.75555 0.66038 0.367 0.0
H2744 H 0.75636 0.66853 0.10004 0.0
H2745 H 0.77905 0.67148 0.09203 0.0
H2746 H 0.78024 0.68182 0.30839 0.0
C2747 C 0.72889 0.67776 0.31964 0.0
C2748 C 0.71851 0.67551 0.27632 0.0
C2749 C 0.72054 0.67172 0.20725 0.0
C2750 C 0.7326 0.67046 0.18095 0.0
C2751 C 0.74261 0.673 0.22425 0.0
C2752 C 0.74096 0.67651 0.29217 0.0
C2753 C 0.75344 0.67931 0.32598 0.0
C2754 C 0.75402 0.69293 0.35069 0.0
C2755 C 0.75602 0.67019 0.38536 0.0
C2756 C 0.76224 0.67707 0.26593 0.0
C2757 C 0.75574 0.67337 0.20802 0.0
C2758 C 0.76161 0.67128 0.14517 0.0
C2759 C 0.77451 0.67305 0.14112 0.0
C2760 C 0.78145 0.67685 0.19958 0.0
C2761 C 0.77522 0.67877 0.26301 0.0
H2762 H 0.07111 0.97266 0.97385 0.0
H2763 H 0.07686 0.97051 0.19508 0.0
H2764 H 0.07903 0.99343 0.19964 0.0
H2765 H 0.09274 0.99823 0.94105 0.0
H2766 H 0.08287 0.00519 0.87645 0.0
H2767 H 0.08254 0.98857 0.89 0.0
H2768 H 0.05866 0.98954 0.91029 0.0
H2769 H 0.05892 0.00615 0.89688 0.0
H2770 H 0.05254 0.99985 0.97544 0.0
H2771 H 0.07951 0.0166 0.18096 0.0
H2772 H 0.07813 0.03836 0.14102 0.0
H2773 H 0.07202 0.02537 0.9317 0.0
C2774 C 0.07297 0.97696 0.02327 0.0
C2775 C 0.07385 0.96974 0.08415 0.0
C2776 C 0.07617 0.97581 0.14773 0.0
C2777 C 0.07744 0.98883 0.15083 0.0
C2778 C 0.07639 0.99564 0.08991 0.0
C2779 C 0.07423 0.98991 0.02732 0.0
C2780 C 0.07299 0.9994 0.96984 0.0
C2781 C 0.0834 0.99774 0.91617 0.0
C2782 C 0.06001 0.99869 0.93617 0.0
C2783 C 0.07462 0.01138 0.01004 0.0
C2784 C 0.07664 0.009 0.07913 0.0
C2785 C 0.07802 0.01858 0.12691 0.0
C2786 C 0.0772 0.03092 0.10362 0.0
C2787 C 0.07499 0.03362 0.03309 0.0
C2788 C 0.07381 0.02366 0.98578 0.0
H2789 H 0.72759 0.32265 0.6292 0.0
H2790 H 0.7109 0.3289 0.83019 0.0
H2791 H 0.73179 0.3309 0.88137 0.0
H2792 H 0.7523 0.30378 0.68787 0.0
H2793 H 0.76377 0.3098 0.62868 0.0
H2794 H 0.7475 0.31002 0.60577 0.0
H2795 H 0.74867 0.33385 0.5848 0.0
H2796 H 0.76498 0.3337 0.60743 0.0
H2797 H 0.75437 0.3439 0.65228 0.0
H2798 H 0.75423 0.33069 0.91299 0.0
H2799 H 0.77703 0.32848 0.92288 0.0
H2800 H 0.77951 0.32237 0.70203 0.0
C2801 C 0.72834 0.32467 0.6837 0.0
C2802 C 0.71758 0.32565 0.72555 0.0
C2803 C 0.71898 0.32809 0.79695 0.0
C2804 C 0.73081 0.32928 0.8266 0.0
C2805 C 0.74121 0.32804 0.78429 0.0
C2806 C 0.74013 0.32583 0.71438 0.0
C2807 C 0.75287 0.3242 0.68152 0.0
C2808 C 0.75418 0.31118 0.64907 0.0
C2809 C 0.75537 0.33453 0.62836 0.0
C2810 C 0.76121 0.32562 0.74415 0.0
C2811 C 0.75428 0.32791 0.80274 0.0
C2812 C 0.75979 0.32903 0.8674 0.0
C2813 C 0.77276 0.32772 0.87248 0.0
C2814 C 0.78009 0.32529 0.81325 0.0
C2815 C 0.7742 0.32435 0.74819 0.0
H2816 H 0.02774 0.57687 0.01303 0.0
H2817 H 0.03389 0.57587 0.23406 0.0
H2818 H 0.01134 0.57805 0.2536 0.0
H2819 H 0.00116 0.59907 0.01549 0.0
H2820 H 0.99307 0.59097 0.94746 0.0
H2821 H 0.00988 0.59083 0.95039 0.0
H2822 H 0.00971 0.56668 0.94909 0.0
H2823 H 0.99293 0.56673 0.94636 0.0
H2824 H 0.00094 0.55838 0.01375 0.0
H2825 H 0.98819 0.57829 0.24998 0.0
H2826 H 0.96581 0.57646 0.22327 0.0
H2827 H 0.97429 0.57727 0.00456 0.0
C2828 C 0.02437 0.57739 0.06555 0.0
C2829 C 0.03264 0.57626 0.12203 0.0
C2830 C 0.0278 0.57673 0.18991 0.0
C2831 C 0.01498 0.57802 0.2016 0.0
C2832 C 0.00707 0.57885 0.14491 0.0
C2833 C 0.01155 0.5786 0.07818 0.0
C2834 C 0.00093 0.57871 0.02652 0.0
C2835 C 0.00129 0.59061 0.98236 0.0
C2836 C 0.00114 0.56692 0.9813 0.0
C2837 C 0.9898 0.57874 0.07476 0.0
C2838 C 0.99359 0.57896 0.1428 0.0
C2839 C 0.9851 0.57829 0.19691 0.0
C2840 C 0.97239 0.57721 0.18117 0.0
C2841 C 0.96827 0.57678 0.11184 0.0
C2842 C 0.97712 0.57777 0.05805 0.0
H2843 H 0.67801 0.72401 0.25045 0.0
H2844 H 0.67016 0.7155 0.4646 0.0
H2845 H 0.66696 0.73782 0.48838 0.0
H2846 H 0.69591 0.75059 0.2841 0.0
H2847 H 0.6906 0.7594 0.21065 0.0
H2848 H 0.69061 0.74263 0.2077 0.0
H2849 H 0.66705 0.74271 0.17776 0.0
H2850 H 0.66698 0.75952 0.18052 0.0
H2851 H 0.65626 0.75078 0.23334 0.0
H2852 H 0.66617 0.76092 0.49166 0.0
H2853 H 0.6688 0.78352 0.47555 0.0
H2854 H 0.67793 0.77746 0.26025 0.0
C2855 C 0.67533 0.72684 0.30192 0.0
C2856 C 0.67422 0.71801 0.35564 0.0
C2857 C 0.67103 0.72209 0.42272 0.0
C2858 C 0.66913 0.73475 0.43665 0.0
C2859 C 0.67051 0.74325 0.38299 0.0
C2860 C 0.67357 0.73951 0.31697 0.0
C2861 C 0.6756 0.75067 0.27032 0.0
C2862 C 0.68897 0.75083 0.24154 0.0
C2863 C 0.66589 0.75093 0.21204 0.0
C2864 C 0.67349 0.76124 0.32093 0.0
C2865 C 0.67038 0.75672 0.38531 0.0
C2866 C 0.66854 0.76459 0.4414 0.0
C2867 C 0.67014 0.77743 0.43184 0.0
C2868 C 0.67367 0.78229 0.36688 0.0
C2869 C 0.67512 0.77406 0.31044 0.0
H2870 H 0.47306 0.42728 0.50357 0.0
H2871 H 0.46645 0.41972 0.72032 0.0
H2872 H 0.48899 0.41694 0.73844 0.0
H2873 H 0.49978 0.40565 0.48172 0.0
H2874 H 0.50794 0.41623 0.42537 0.0
H2875 H 0.49113 0.41617 0.42724 0.0
H2876 H 0.49113 0.43982 0.45445 0.0
H2877 H 0.50791 0.43995 0.45293 0.0
H2878 H 0.49971 0.44547 0.52803 0.0
H2879 H 0.51216 0.41687 0.73611 0.0
H2880 H 0.53459 0.41958 0.71339 0.0
H2881 H 0.52647 0.42736 0.49838 0.0
C2882 C 0.47633 0.42476 0.55449 0.0
C2883 C 0.46795 0.42364 0.61042 0.0
C2884 C 0.47265 0.4206 0.67659 0.0
C2885 C 0.48546 0.41896 0.68743 0.0
C2886 C 0.49348 0.42038 0.63162 0.0
C2887 C 0.48913 0.42317 0.56637 0.0
C2888 C 0.49984 0.42511 0.51652 0.0
C2889 C 0.49966 0.4152 0.45933 0.0
C2890 C 0.49963 0.43838 0.48624 0.0
C2891 C 0.51086 0.42327 0.56441 0.0
C2892 C 0.50696 0.42042 0.63037 0.0
C2893 C 0.51536 0.41895 0.6845 0.0
C2894 C 0.52809 0.42056 0.67108 0.0
C2895 C 0.53233 0.42366 0.60408 0.0
C2896 C 0.52357 0.42485 0.54997 0.0
H2897 H 0.81508 0.27655 0.91924 0.0
H2898 H 0.83881 0.2857 0.74531 0.0
H2899 H 0.84348 0.26345 0.7286 0.0
H2900 H 0.83362 0.24917 0.98178 0.0
H2901 H 0.81983 0.24039 0.0035 0.0
H2902 H 0.81967 0.25718 0.00882 0.0
H2903 H 0.80052 0.25784 0.92747 0.0
H2904 H 0.80065 0.2411 0.92168 0.0
H2905 H 0.80143 0.25038 0.84438 0.0
H2906 H 0.84387 0.24062 0.72162 0.0
H2907 H 0.83991 0.21806 0.72431 0.0
H2908 H 0.81581 0.22292 0.9022 0.0
C2909 C 0.82151 0.27385 0.8789 0.0
C2910 C 0.82663 0.28284 0.83367 0.0
C2911 C 0.83476 0.27896 0.78036 0.0
C2912 C 0.83754 0.26635 0.7707 0.0
C2913 C 0.83211 0.25769 0.81478 0.0
C2914 C 0.8243 0.2612 0.868 0.0
C2915 C 0.81884 0.24983 0.90369 0.0
C2916 C 0.82325 0.2491 0.97892 0.0
C2917 C 0.80451 0.24979 0.89898 0.0
C2918 C 0.82452 0.23945 0.8607 0.0
C2919 C 0.83227 0.24426 0.81036 0.0
C2920 C 0.83797 0.23671 0.76137 0.0
C2921 C 0.83561 0.2239 0.76316 0.0
C2922 C 0.82758 0.21871 0.81354 0.0
C2923 C 0.82214 0.22659 0.8637 0.0
H2924 H 0.97308 0.43134 0.83833 0.0
H2925 H 0.96561 0.41473 0.03813 0.0
H2926 H 0.98807 0.41119 0.05504 0.0
H2927 H 1.00029 0.41116 0.793 0.0
H2928 H 0.00861 0.42387 0.75323 0.0
H2929 H 0.99179 0.42363 0.75202 0.0
H2930 H 0.99134 0.44549 0.80874 0.0
H2931 H 0.00812 0.44578 0.81046 0.0
H2932 H 0.99944 0.44793 0.88906 0.0
H2933 H 0.01106 0.41151 0.0571 0.0
H2934 H 0.03353 0.41543 0.04353 0.0
H2935 H 0.02669 0.43183 0.8424 0.0
C2936 C 0.97617 0.42667 0.88478 0.0
C2937 C 0.96759 0.42326 0.93681 0.0
C2938 C 0.972 0.41743 0.99759 0.0
C2939 C 0.98475 0.41532 0.00759 0.0
C2940 C 0.993 0.41908 0.95631 0.0
C2941 C 0.98894 0.42457 0.89589 0.0
C2942 C 0.99991 0.42862 0.85179 0.0
C2943 C 1.00016 0.42139 0.78346 0.0
C2944 C 0.99968 0.44279 0.83932 0.0
C2945 C 0.01071 0.42488 0.89792 0.0
C2946 C 0.00647 0.41927 0.95756 0.0
C2947 C 0.01453 0.41572 0.01021 0.0
C2948 C 0.02728 0.41805 0.00212 0.0
C2949 C 0.03189 0.4239 0.94182 0.0
C2950 C 0.02348 0.42718 0.88862 0.0
H2951 H 0.81835 0.77788 0.08823 0.0
H2952 H 0.84077 0.78413 0.27145 0.0
H2953 H 0.84497 0.76163 0.27924 0.0
H2954 H 0.80376 0.75105 0.14658 0.0
H2955 H 0.80357 0.743 0.06507 0.0
H2956 H 0.80373 0.75977 0.06715 0.0
H2957 H 0.82361 0.76001 0.99129 0.0
H2958 H 0.82348 0.7432 0.9887 0.0
H2959 H 0.83717 0.75135 0.01833 0.0
H2960 H 0.84464 0.73862 0.27683 0.0
H2961 H 0.84007 0.71626 0.26301 0.0
H2962 H 0.81814 0.72438 0.08041 0.0
C2963 C 0.82441 0.77454 0.1289 0.0
C2964 C 0.82927 0.7828 0.1791 0.0
C2965 C 0.83694 0.77802 0.23237 0.0
C2966 C 0.83944 0.76524 0.23711 0.0
C2967 C 0.83425 0.75733 0.18801 0.0
C2968 C 0.82697 0.76176 0.1346 0.0
C2969 C 0.8217 0.75109 0.09221 0.0
C2970 C 0.80734 0.75124 0.09284 0.0
C2971 C 0.8268 0.75144 0.01824 0.0
C2972 C 0.82682 0.74 0.13167 0.0
C2973 C 0.83414 0.74386 0.18628 0.0
C2974 C 0.83912 0.73546 0.23355 0.0
C2975 C 0.83642 0.72278 0.22542 0.0
C2976 C 0.82883 0.71858 0.17036 0.0
C2977 C 0.82417 0.7273 0.12215 0.0
H2978 H 0.47399 0.56867 0.37391 0.0
H2979 H 0.46683 0.58909 0.56308 0.0
H2980 H 0.48932 0.59304 0.57608 0.0
H2981 H 0.50066 0.55335 0.43213 0.0
H2982 H 0.50904 0.55402 0.35173 0.0
H2983 H 0.49226 0.55411 0.35175 0.0
H2984 H 0.49226 0.57471 0.28208 0.0
H2985 H 0.50908 0.57467 0.28164 0.0
H2986 H 0.50073 0.588 0.31439 0.0
H2987 H 0.51242 0.59302 0.57578 0.0
H2988 H 0.5349 0.58904 0.56211 0.0
H2989 H 0.52751 0.56866 0.37307 0.0
C2990 C 0.47713 0.57422 0.41719 0.0
C2991 C 0.46862 0.57861 0.46736 0.0
C2992 C 0.47315 0.58562 0.52399 0.0
C2993 C 0.48591 0.58797 0.53172 0.0
C2994 C 0.49407 0.58328 0.48232 0.0
C2995 C 0.4899 0.5766 0.42597 0.0
C2996 C 0.50076 0.57181 0.38339 0.0
C2997 C 0.50067 0.55747 0.37957 0.0
C2998 C 0.5007 0.57765 0.31108 0.0
C2999 C 0.51166 0.57655 0.42581 0.0
C3000 C 0.50756 0.58326 0.48219 0.0
C3001 C 0.51577 0.58794 0.53134 0.0
C3002 C 0.52853 0.58558 0.52322 0.0
C3003 C 0.53299 0.57858 0.4664 0.0
C3004 C 0.52442 0.57419 0.4165 0.0
H3005 H 0.67835 0.22261 0.71964 0.0
H3006 H 0.67421 0.21699 0.49923 0.0
H3007 H 0.67168 0.23957 0.48292 0.0
H3008 H 0.65624 0.24912 0.7341 0.0
H3009 H 0.66577 0.25712 0.79657 0.0
H3010 H 0.66591 0.24033 0.79256 0.0
H3011 H 0.68991 0.24064 0.77739 0.0
H3012 H 0.68984 0.25741 0.78109 0.0
H3013 H 0.69666 0.24957 0.70808 0.0
H3014 H 0.6717 0.26256 0.4878 0.0
H3015 H 0.67392 0.2849 0.51415 0.0
H3016 H 0.67781 0.27619 0.7315 0.0
C3017 C 0.67666 0.22611 0.66815 0.0
C3018 C 0.67644 0.21798 0.61071 0.0
C3019 C 0.67441 0.22298 0.54405 0.0
C3020 C 0.67292 0.23581 0.53422 0.0
C3021 C 0.67344 0.24357 0.59154 0.0
C3022 C 0.67519 0.23896 0.6573 0.0
C3023 C 0.67619 0.24949 0.70929 0.0
C3024 C 0.66538 0.24898 0.7612 0.0
C3025 C 0.68891 0.24926 0.7461 0.0
C3026 C 0.67504 0.26071 0.66206 0.0
C3027 C 0.67337 0.25703 0.59445 0.0
C3028 C 0.67284 0.26558 0.54062 0.0
C3029 C 0.67417 0.27825 0.55608 0.0
C3030 C 0.67598 0.28229 0.62483 0.0
C3031 C 0.67623 0.27339 0.6786 0.0
H3032 H 0.31743 0.27712 0.55683 0.0
H3033 H 0.33701 0.28477 0.74807 0.0
H3034 H 0.34108 0.26236 0.76296 0.0
H3035 H 0.30201 0.25057 0.61518 0.0
H3036 H 0.30301 0.24191 0.53576 0.0
H3037 H 0.30308 0.25869 0.53405 0.0
H3038 H 0.32396 0.25849 0.46697 0.0
H3039 H 0.32393 0.24167 0.46822 0.0
H3040 H 0.33713 0.25013 0.50175 0.0
H3041 H 0.34108 0.2394 0.76498 0.0
H3042 H 0.33709 0.21691 0.75375 0.0
H3043 H 0.31753 0.22348 0.56119 0.0
C3044 C 0.32285 0.27408 0.60082 0.0
C3045 C 0.32696 0.28271 0.65112 0.0
C3046 C 0.33377 0.27835 0.70888 0.0
C3047 C 0.33618 0.26563 0.71768 0.0
C3048 C 0.33175 0.25735 0.66825 0.0
C3049 C 0.32527 0.26134 0.61076 0.0
C3050 C 0.32066 0.25032 0.56873 0.0
C3051 C 0.30634 0.25038 0.56314 0.0
C3052 C 0.32679 0.25015 0.49717 0.0
C3053 C 0.32524 0.23956 0.61281 0.0
C3054 C 0.33174 0.24388 0.6695 0.0
C3055 C 0.33618 0.23588 0.7203 0.0
C3056 C 0.33382 0.22311 0.71357 0.0
C3057 C 0.32705 0.21842 0.65645 0.0
C3058 C 0.3229 0.22677 0.60482 0.0
H3059 H 0.17869 0.72532 0.24171 0.0
H3060 H 0.1724 0.71705 0.02545 0.0
H3061 H 0.17024 0.7394 0.00099 0.0
H3062 H 0.1574 0.75263 0.25157 0.0
H3063 H 0.1677 0.76115 0.30791 0.0
H3064 H 0.16737 0.74435 0.31072 0.0
H3065 H 0.1912 0.74375 0.28888 0.0
H3066 H 0.1916 0.76052 0.28579 0.0
H3067 H 0.19752 0.75156 0.21437 0.0
H3068 H 0.17083 0.76233 0.99658 0.0
H3069 H 0.17393 0.78486 0.0128 0.0
H3070 H 0.17969 0.77897 0.23183 0.0
C3071 C 0.1766 0.72821 0.18952 0.0
C3072 C 0.17566 0.71938 0.13553 0.0
C3073 C 0.17314 0.72358 0.06771 0.0
C3074 C 0.17186 0.73628 0.05325 0.0
C3075 C 0.17308 0.74474 0.10715 0.0
C3076 C 0.17534 0.74093 0.17401 0.0
C3077 C 0.17709 0.75209 0.22123 0.0
C3078 C 0.16677 0.75258 0.2761 0.0
C3079 C 0.19013 0.75197 0.2545 0.0
C3080 C 0.17579 0.7627 0.16994 0.0
C3081 C 0.17336 0.75819 0.10461 0.0
C3082 C 0.17255 0.76601 0.04761 0.0
C3083 C 0.17438 0.7788 0.05733 0.0
C3084 C 0.17699 0.78369 0.12359 0.0
C3085 C 0.1775 0.77552 0.1808 0.0
H3086 H 0.17572 0.27742 0.74731 0.0
H3087 H 0.18079 0.28481 0.9656 0.0
H3088 H 0.18025 0.26229 0.98928 0.0
H3089 H 0.15484 0.25041 0.76764 0.0
H3090 H 0.16165 0.24211 0.69619 0.0
H3091 H 0.16146 0.25891 0.69637 0.0
H3092 H 0.18544 0.2592 0.67979 0.0
H3093 H 0.1857 0.24242 0.67979 0.0
H3094 H 0.19522 0.25096 0.74008 0.0
H3095 H 0.18074 0.23921 0.98922 0.0
H3096 H 0.18188 0.21674 0.96582 0.0
H3097 H 0.1762 0.22385 0.74769 0.0
C3098 C 0.17652 0.27431 0.80022 0.0
C3099 C 0.17826 0.28293 0.85463 0.0
C3100 C 0.17944 0.27844 0.92301 0.0
C3101 C 0.17912 0.26565 0.93707 0.0
C3102 C 0.17758 0.25742 0.88229 0.0
C3103 C 0.17625 0.26153 0.81525 0.0
C3104 C 0.17529 0.25063 0.76567 0.0
C3105 C 0.16255 0.25051 0.72934 0.0
C3106 C 0.18606 0.25082 0.71326 0.0
C3107 C 0.17653 0.23978 0.81535 0.0
C3108 C 0.17777 0.24396 0.88233 0.0
C3109 C 0.17961 0.2358 0.93712 0.0
C3110 C 0.18024 0.22302 0.9232 0.0
C3111 C 0.17899 0.21845 0.855 0.0
C3112 C 0.17703 0.227 0.80048 0.0
H3113 H 0.31692 0.7215 0.40448 0.0
H3114 H 0.33914 0.71552 0.22037 0.0
H3115 H 0.3432 0.73805 0.21282 0.0
H3116 H 0.30217 0.7486 0.34689 0.0
H3117 H 0.30209 0.75651 0.42884 0.0
H3118 H 0.30215 0.73974 0.42582 0.0
H3119 H 0.32207 0.73926 0.5014 0.0
H3120 H 0.32204 0.75607 0.50486 0.0
H3121 H 0.33566 0.74788 0.47458 0.0
H3122 H 0.34316 0.76098 0.21707 0.0
H3123 H 0.33909 0.78336 0.23311 0.0
H3124 H 0.31696 0.77513 0.41491 0.0
C3125 C 0.32287 0.72492 0.36354 0.0
C3126 C 0.32774 0.71673 0.31308 0.0
C3127 C 0.33528 0.72159 0.2595 0.0
C3128 C 0.3377 0.73438 0.25494 0.0
C3129 C 0.33254 0.74222 0.30442 0.0
C3130 C 0.32533 0.73773 0.35792 0.0
C3131 C 0.32015 0.74837 0.40098 0.0
C3132 C 0.30579 0.7483 0.40056 0.0
C3133 C 0.32529 0.74786 0.47484 0.0
C3134 C 0.3253 0.7595 0.362 0.0
C3135 C 0.33253 0.75568 0.30696 0.0
C3136 C 0.33767 0.76411 0.26053 0.0
C3137 C 0.33526 0.77681 0.26995 0.0
C3138 C 0.32775 0.781 0.32542 0.0
C3139 C 0.32289 0.77222 0.37272 0.0
H3140 H 0.52642 0.07562 0.48945 0.0
H3141 H 0.53332 0.07446 0.70982 0.0
H3142 H 0.5108 0.076 0.73168 0.0
H3143 H 0.49943 0.097 0.49476 0.0
H3144 H 0.49123 0.08876 0.42764 0.0
H3145 H 0.50805 0.08891 0.42867 0.0
H3146 H 0.5083 0.06476 0.42744 0.0
H3147 H 0.49151 0.06453 0.42652 0.0
H3148 H 0.4999 0.05632 0.493 0.0
H3149 H 0.48775 0.07603 0.73065 0.0
H3150 H 0.46532 0.07416 0.70696 0.0
H3151 H 0.47281 0.07501 0.48702 0.0
C3152 C 0.52321 0.07594 0.54231 0.0
C3153 C 0.5317 0.07507 0.59798 0.0
C3154 C 0.52707 0.07523 0.66633 0.0
C3155 C 0.51426 0.07612 0.67933 0.0
C3156 C 0.50616 0.0768 0.62346 0.0
C3157 C 0.5104 0.07671 0.55628 0.0
C3158 C 0.49958 0.07664 0.50578 0.0
C3159 C 0.49957 0.08854 0.46161 0.0
C3160 C 0.49984 0.06486 0.46054 0.0
C3161 C 0.48863 0.07647 0.55526 0.0
C3162 C 0.49268 0.07668 0.62283 0.0
C3163 C 0.48444 0.07599 0.67799 0.0
C3164 C 0.47169 0.07489 0.66389 0.0
C3165 C 0.46726 0.07448 0.59509 0.0
C3166 C 0.47587 0.07546 0.54012 0.0
H3167 H 0.0268 0.92881 0.99072 0.0
H3168 H 0.0322 0.91869 0.20536 0.0
H3169 H 0.00958 0.91609 0.21913 0.0
H3170 H 1.00001 0.94679 0.0154 0.0
H3171 H 0.99217 0.94195 0.93771 0.0
H3172 H 0.00894 0.94176 0.94177 0.0
H3173 H 0.00905 0.91837 0.9084 0.0
H3174 H 0.99225 0.9185 0.90391 0.0
H3175 H 1.00011 0.90742 0.95868 0.0
H3176 H 0.98656 0.91683 0.21428 0.0
H3177 H 0.96426 0.92003 0.18942 0.0
H3178 H 0.97325 0.92897 0.97703 0.0
C3179 C 0.02324 0.9258 0.04021 0.0
C3180 C 0.03132 0.924 0.09702 0.0
C3181 C 0.02625 0.92021 0.16114 0.0
C3182 C 0.01339 0.91864 0.16948 0.0
C3183 C 0.00567 0.92078 0.11309 0.0
C3184 C 0.01037 0.92416 0.04948 0.0
C3185 C 0.9999 0.92656 0.99852 0.0
C3186 C 1.00028 0.94007 0.97181 0.0
C3187 C 1.00036 0.91715 0.93884 0.0
C3188 C 0.98862 0.92434 0.04413 0.0
C3189 C 0.99221 0.92096 0.1099 0.0
C3190 C 0.9836 0.91926 0.1627 0.0
C3191 C 0.97096 0.92116 0.14813 0.0
C3192 C 0.96702 0.92464 0.08119 0.0
C3193 C 0.97598 0.92608 0.02832 0.0
H3194 H 0.52779 0.93138 0.34393 0.0
H3195 H 0.53621 0.91587 0.54534 0.0
H3196 H 0.51387 0.91208 0.56501 0.0
H3197 H 0.50117 0.94773 0.39468 0.0
H3198 H 0.49235 0.94499 0.31704 0.0
H3199 H 0.50913 0.94509 0.31418 0.0
H3200 H 0.50907 0.92297 0.26063 0.0
H3201 H 0.49226 0.92281 0.26309 0.0
H3202 H 0.50098 0.9105 0.30407 0.0
H3203 H 0.49087 0.9119 0.56889 0.0
H3204 H 0.46826 0.91517 0.5563 0.0
H3205 H 0.47419 0.93071 0.35227 0.0
C3206 C 0.52494 0.92693 0.39146 0.0
C3207 C 0.53376 0.92389 0.44302 0.0
C3208 C 0.52964 0.91829 0.50511 0.0
C3209 C 0.51696 0.91605 0.5167 0.0
C3210 C 0.50849 0.91941 0.46568 0.0
C3211 C 0.51225 0.92467 0.40412 0.0
C3212 C 0.50108 0.92824 0.36026 0.0
C3213 C 0.50093 0.94235 0.34572 0.0
C3214 C 0.50084 0.92068 0.29302 0.0
C3215 C 0.49049 0.92447 0.40772 0.0
C3216 C 0.49502 0.91929 0.46791 0.0
C3217 C 0.48718 0.91578 0.52163 0.0
C3218 C 0.47435 0.91774 0.51406 0.0
C3219 C 0.46945 0.92315 0.4532 0.0
C3220 C 0.47764 0.92638 0.39893 0.0
H3221 H 0.0286 0.06883 0.87265 0.0
H3222 H 0.03404 0.0887 0.0654 0.0
H3223 H 0.01144 0.09225 0.07371 0.0
H3224 H 0.00205 0.08815 0.80947 0.0
H3225 H 0.99411 0.07488 0.77304 0.0
H3226 H 0.01091 0.0751 0.77733 0.0
H3227 H 0.01062 0.05418 0.84408 0.0
H3228 H 0.99385 0.05393 0.8403 0.0
H3229 H 0.00165 0.05298 0.92239 0.0
H3230 H 0.98848 0.09172 0.06913 0.0
H3231 H 0.96616 0.08758 0.05007 0.0
H3232 H 0.975 0.06839 0.85923 0.0
C3233 C 0.02506 0.07416 0.91576 0.0
C3234 C 0.03313 0.0785 0.96832 0.0
C3235 C 0.02808 0.08527 0.02451 0.0
C3236 C 0.01524 0.08738 0.02963 0.0
C3237 C 0.00753 0.08275 0.97801 0.0
C3238 C 0.0122 0.07635 0.92184 0.0
C3239 C 0.0017 0.07165 0.87618 0.0
C3240 C 0.00222 0.07782 0.80476 0.0
C3241 C 0.00197 0.05734 0.87044 0.0
C3242 C 0.99044 0.07608 0.91672 0.0
C3243 C 0.99407 0.08255 0.97496 0.0
C3244 C 0.98549 0.08685 0.02318 0.0
C3245 C 0.97283 0.08439 0.01204 0.0
C3246 C 0.96884 0.07772 0.95302 0.0
C3247 C 0.97777 0.07369 0.9042 0.0
loop_
_geom_bond_atom_site_label_1
_geom_bond_atom_site_label_2
_geom_bond_distance
_geom_bond_site_symmetry_2
_ccdc_geom_bond_type
Co0 O3 1.970 . S
Co0 N17 1.989 . S
Co0 O25 1.967 . S
Co0 O32 1.920 1_554 S
Co1 O4 1.966 . S
Co1 N10 2.022 . S
Co1 N18 1.993 . S
Co1 O26 1.941 . S
C2 O3 1.258 . S
C2 O4 1.263 . S
O3 Co0 1.970 . S
O3 C2 1.258 . S
O4 Co1 1.966 . S
O4 C2 1.263 . S
C5 O6 1.235 . S
C5 O32 1.289 . S
O6 C5 1.235 . S
C7 C9 1.400 . S
C7 N10 1.351 . S
C7 C12 1.501 . S
C8 C9 1.387 . S
C8 N11 1.341 . S
C9 C7 1.400 . S
C9 C8 1.387 . S
N10 Co1 2.022 . S
N10 C7 1.351 . S
N10 N11 1.365 . S
N11 C8 1.341 . S
N11 N10 1.365 . S
N11 H31 0.862 . S
C12 C7 1.501 . S
C12 H13 0.961 . S
C12 H14 0.961 . S
C12 H15 0.960 . S
H13 C12 0.961 . S
H14 C12 0.961 . S
H15 C12 0.960 . S
C16 N17 1.342 . S
C16 C20 1.401 . S
C16 C21 1.499 1_554 S
N17 Co0 1.989 . S
N17 C16 1.342 . S
N17 N18 1.388 . S
N18 Co1 1.993 . S
N18 N17 1.388 . S
N18 C19 1.346 . S
C19 N18 1.346 . S
C19 C20 1.396 . S
C19 C29 1.510 . S
C20 C16 1.401 . S
C20 C19 1.396 . S
C21 C16 1.499 1_556 S
C21 H22 0.959 . S
C21 H23 0.960 . S
C21 H24 0.961 . S
H22 C21 0.959 . S
H23 C21 0.960 . S
H24 C21 0.961 . S
O25 Co0 1.967 . S
O25 C33 1.258 . S
O26 Co1 1.941 . S
O26 C33 1.266 . S
H27 C29 0.959 . S
H28 C29 0.961 . S
C29 C19 1.510 . S
C29 H27 0.959 . S
C29 H28 0.961 . S
C29 H30 0.960 . S
H30 C29 0.960 . S
H31 N11 0.862 . S
O32 Co0 1.920 1_556 S
O32 C5 1.289 . S
C33 O25 1.258 . S
C33 O26 1.266 . S
Co34 O37 1.970 . S
Co34 N51 1.989 . S
Co34 O59 1.967 . S
Co34 O66 1.920 . S
Co35 O38 1.966 . S
Co35 N44 2.022 . S
Co35 N52 1.993 . S
Co35 O60 1.941 . S
C36 O37 1.258 . S
C36 O38 1.263 . S
O37 Co34 1.970 . S
O37 C36 1.258 . S
O38 Co35 1.966 . S
O38 C36 1.263 . S
C39 O40 1.235 . S
C39 O66 1.289 . S
O40 C39 1.235 . S
C41 C43 1.400 . S
C41 N44 1.351 . S
C41 C46 1.501 . S
C42 C43 1.387 . S
C42 N45 1.341 . S
C43 C41 1.400 . S
C43 C42 1.387 . S
N44 Co35 2.022 . S
N44 C41 1.351 . S
N44 N45 1.365 . S
N45 C42 1.341 . S
N45 N44 1.365 . S
N45 H65 0.862 . S
C46 C41 1.501 . S
C46 H47 0.961 . S
C46 H48 0.961 . S
C46 H49 0.960 . S
H47 C46 0.961 . S
H48 C46 0.961 . S
H49 C46 0.960 . S
C50 N51 1.342 . S
C50 C54 1.401 . S
C50 C55 1.499 . S
N51 Co34 1.989 . S
N51 C50 1.342 . S
N51 N52 1.388 . S
N52 Co35 1.993 . S
N52 N51 1.388 . S
N52 C53 1.346 . S
C53 N52 1.346 . S
C53 C54 1.396 . S
C53 C63 1.510 . S
C54 C50 1.401 . S
C54 C53 1.396 . S
C55 C50 1.499 . S
C55 H56 0.959 . S
C55 H57 0.960 . S
C55 H58 0.961 . S
H56 C55 0.959 . S
H57 C55 0.960 . S
H58 C55 0.961 . S
O59 Co34 1.967 . S
O59 C67 1.258 . S
O60 Co35 1.941 . S
O60 C67 1.266 . S
H61 C63 0.959 . S
H62 C63 0.961 . S
C63 C53 1.510 . S
C63 H61 0.959 . S
C63 H62 0.961 . S
C63 H64 0.960 . S
H64 C63 0.960 . S
H65 N45 0.862 . S
O66 Co34 1.920 . S
O66 C39 1.289 . S
C67 O59 1.258 . S
C67 O60 1.266 . S
Co68 O71 1.970 . S
Co68 N85 1.989 . S
Co68 O93 1.967 . S
Co68 O100 1.920 . S
Co69 O72 1.966 . S
Co69 N78 2.022 . S
Co69 N86 1.993 . S
Co69 O94 1.941 . S
C70 O71 1.258 . S
C70 O72 1.263 . S
O71 Co68 1.970 . S
O71 C70 1.258 . S
O72 Co69 1.966 . S
O72 C70 1.263 . S
C73 O74 1.235 . S
C73 O100 1.289 . S
O74 C73 1.235 . S
C75 C77 1.400 . S
C75 N78 1.351 . S
C75 C80 1.501 . S
C76 C77 1.387 . S
C76 N79 1.341 . S
C77 C75 1.400 . S
C77 C76 1.387 . S
N78 Co69 2.022 . S
N78 C75 1.351 . S
N78 N79 1.365 . S
N79 C76 1.341 . S
N79 N78 1.365 . S
N79 H99 0.862 . S
C80 C75 1.501 . S
C80 H81 0.961 . S
C80 H82 0.961 . S
C80 H83 0.960 . S
H81 C80 0.961 . S
H82 C80 0.961 . S
H83 C80 0.960 . S
C84 N85 1.342 . S
C84 C88 1.401 . S
C84 C89 1.499 . S
N85 Co68 1.989 . S
N85 C84 1.342 . S
N85 N86 1.388 . S
N86 Co69 1.993 . S
N86 N85 1.388 . S
N86 C87 1.346 . S
C87 N86 1.346 . S
C87 C88 1.396 . S
C87 C97 1.510 . S
C88 C84 1.401 . S
C88 C87 1.396 . S
C89 C84 1.499 . S
C89 H90 0.959 . S
C89 H91 0.960 . S
C89 H92 0.961 . S
H90 C89 0.959 . S
H91 C89 0.960 . S
H92 C89 0.961 . S
O93 Co68 1.967 . S
O93 C101 1.258 . S
O94 Co69 1.941 . S
O94 C101 1.266 . S
H95 C97 0.959 . S
H96 C97 0.961 . S
C97 C87 1.510 . S
C97 H95 0.959 . S
C97 H96 0.961 . S
C97 H98 0.960 . S
H98 C97 0.960 . S
H99 N79 0.862 . S
O100 Co68 1.920 . S
O100 C73 1.289 . S
C101 O93 1.258 . S
C101 O94 1.266 . S
Co102 O105 1.970 . S
Co102 N119 1.989 . S
Co102 O127 1.967 . S
Co102 O134 1.920 . S
Co103 O106 1.966 . S
Co103 N112 2.022 1_556 S
Co103 N120 1.993 . S
Co103 O128 1.941 . S
C104 O105 1.258 . S
C104 O106 1.263 . S
O105 Co102 1.970 . S
O105 C104 1.258 . S
O106 Co103 1.966 . S
O106 C104 1.263 . S
C107 O108 1.235 . S
C107 O134 1.289 . S
O108 C107 1.235 . S
C109 C111 1.400 . S
C109 N112 1.351 . S
C109 C114 1.501 . S
C110 C111 1.387 . S
C110 N113 1.341 . S
C111 C109 1.400 . S
C111 C110 1.387 . S
N112 Co103 2.022 1_554 S
N112 C109 1.351 . S
N112 N113 1.365 . S
N113 C110 1.341 . S
N113 N112 1.365 . S
N113 H133 0.862 . S
C114 C109 1.501 . S
C114 H115 0.959 . S
C114 H116 0.961 . S
C114 H117 0.960 . S
H115 C114 0.959 . S
H116 C114 0.961 . S
H117 C114 0.960 . S
C118 N119 1.342 . S
C118 C122 1.401 . S
C118 C123 1.499 . S
N119 Co102 1.989 . S
N119 C118 1.342 . S
N119 N120 1.388 . S
N120 Co103 1.993 . S
N120 N119 1.388 . S
N120 C121 1.346 . S
C121 N120 1.346 . S
C121 C122 1.396 . S
C121 C131 1.510 . S
C122 C118 1.401 . S
C122 C121 1.396 . S
C123 C118 1.499 . S
C123 H124 0.959 . S
C123 H125 0.960 . S
C123 H126 0.961 . S
H124 C123 0.959 . S
H125 C123 0.960 . S
H126 C123 0.961 . S
O127 Co102 1.967 . S
O127 C135 1.258 . S
O128 Co103 1.941 . S
O128 C135 1.266 . S
H129 C131 0.959 . S
H130 C131 0.961 . S
C131 C121 1.510 . S
C131 H129 0.959 . S
C131 H130 0.961 . S
C131 H132 0.960 1_556 S
H132 C131 0.960 1_554 S
H133 N113 0.862 . S
O134 Co102 1.920 . S
O134 C107 1.289 . S
C135 O127 1.258 . S
C135 O128 1.266 . S
Co136 O139 1.970 . S
Co136 N153 1.989 . S
Co136 O161 1.967 . S
Co136 O168 1.920 1_556 S
Co137 O140 1.966 . S
Co137 N146 2.022 . S
Co137 N154 1.993 . S
Co137 O162 1.941 . S
C138 O139 1.258 . S
C138 O140 1.263 . S
O139 Co136 1.970 . S
O139 C138 1.258 . S
O140 Co137 1.966 . S
O140 C138 1.263 . S
C141 O142 1.235 . S
C141 O168 1.289 . S
O142 C141 1.235 . S
C143 C145 1.400 . S
C143 N146 1.351 . S
C143 C148 1.501 . S
C144 C145 1.387 . S
C144 N147 1.341 . S
C145 C143 1.400 . S
C145 C144 1.387 . S
N146 Co137 2.022 . S
N146 C143 1.351 . S
N146 N147 1.365 . S
N147 C144 1.341 . S
N147 N146 1.365 . S
N147 H167 0.862 . S
C148 C143 1.501 . S
C148 H149 0.961 . S
C148 H150 0.961 . S
C148 H151 0.960 . S
H149 C148 0.961 . S
H150 C148 0.961 . S
H151 C148 0.960 . S
C152 N153 1.342 . S
C152 C156 1.401 . S
C152 C157 1.499 1_556 S
N153 Co136 1.989 . S
N153 C152 1.342 . S
N153 N154 1.388 . S
N154 Co137 1.993 . S
N154 N153 1.388 . S
N154 C155 1.346 . S
C155 N154 1.346 . S
C155 C156 1.396 . S
C155 C165 1.510 . S
C156 C152 1.401 . S
C156 C155 1.396 . S
C157 C152 1.499 1_554 S
C157 H158 0.959 . S
C157 H159 0.960 . S
C157 H160 0.961 . S
H158 C157 0.959 . S
H159 C157 0.960 . S
H160 C157 0.961 . S
O161 Co136 1.967 . S
O161 C169 1.258 . S
O162 Co137 1.941 . S
O162 C169 1.266 . S
H163 C165 0.959 . S
H164 C165 0.961 . S
C165 C155 1.510 . S
C165 H163 0.959 . S
C165 H164 0.961 . S
C165 H166 0.960 . S
H166 C165 0.960 . S
H167 N147 0.862 . S
O168 Co136 1.920 1_554 S
O168 C141 1.289 . S
C169 O161 1.258 . S
C169 O162 1.266 . S
Co170 O173 1.970 . S
Co170 N187 1.989 . S
Co170 O195 1.967 . S
Co170 O202 1.920 . S
Co171 O174 1.966 . S
Co171 N180 2.022 1_554 S
Co171 N188 1.993 . S
Co171 O196 1.941 . S
C172 O173 1.258 . S
C172 O174 1.263 . S
O173 Co170 1.970 . S
O173 C172 1.258 . S
O174 Co171 1.966 . S
O174 C172 1.263 . S
C175 O176 1.235 . S
C175 O202 1.289 . S
O176 C175 1.235 . S
C177 C179 1.400 . S
C177 N180 1.351 . S
C177 C182 1.501 . S
C178 C179 1.387 . S
C178 N181 1.341 . S
C179 C177 1.400 . S
C179 C178 1.387 . S
N180 Co171 2.022 1_556 S
N180 C177 1.351 . S
N180 N181 1.365 . S
N181 C178 1.341 . S
N181 N180 1.365 . S
N181 H201 0.862 . S
C182 C177 1.501 . S
C182 H183 0.959 . S
C182 H184 0.961 . S
C182 H185 0.960 . S
H183 C182 0.959 . S
H184 C182 0.961 . S
H185 C182 0.960 . S
C186 N187 1.342 . S
C186 C190 1.401 . S
C186 C191 1.499 . S
N187 Co170 1.989 . S
N187 C186 1.342 . S
N187 N188 1.388 . S
N188 Co171 1.993 . S
N188 N187 1.388 . S
N188 C189 1.346 . S
C189 N188 1.346 . S
C189 C190 1.396 . S
C189 C199 1.510 . S
C190 C186 1.401 . S
C190 C189 1.396 . S
C191 C186 1.499 . S
C191 H192 0.959 . S
C191 H193 0.960 . S
C191 H194 0.961 . S
H192 C191 0.959 . S
H193 C191 0.960 . S
H194 C191 0.961 . S
O195 Co170 1.967 . S
O195 C203 1.258 . S
O196 Co171 1.941 . S
O196 C203 1.266 . S
H197 C199 0.959 . S
H198 C199 0.961 . S
C199 C189 1.510 . S
C199 H197 0.959 . S
C199 H198 0.961 . S
C199 H200 0.960 1_554 S
H200 C199 0.960 1_556 S
H201 N181 0.862 . S
O202 Co170 1.920 . S
O202 C175 1.289 . S
C203 O195 1.258 . S
C203 O196 1.266 . S
Co204 O207 1.970 . S
Co204 N221 1.989 . S
Co204 O229 1.967 . S
Co204 O236 1.920 . S
Co205 O208 1.966 . S
Co205 N214 2.022 . S
Co205 N222 1.993 . S
Co205 O230 1.941 . S
C206 O207 1.258 . S
C206 O208 1.263 . S
O207 Co204 1.970 . S
O207 C206 1.258 . S
O208 Co205 1.966 . S
O208 C206 1.263 . S
C209 O210 1.235 . S
C209 O236 1.289 . S
O210 C209 1.235 . S
C211 C213 1.400 . S
C211 N214 1.351 . S
C211 C216 1.501 . S
C212 C213 1.387 . S
C212 N215 1.341 . S
C213 C211 1.400 . S
C213 C212 1.387 . S
N214 Co205 2.022 . S
N214 C211 1.351 . S
N214 N215 1.365 . S
N215 C212 1.341 . S
N215 N214 1.365 . S
N215 H235 0.862 . S
C216 C211 1.501 . S
C216 H217 0.961 . S
C216 H218 0.961 . S
C216 H219 0.960 . S
H217 C216 0.961 . S
H218 C216 0.961 . S
H219 C216 0.960 . S
C220 N221 1.342 . S
C220 C224 1.401 . S
C220 C225 1.499 . S
N221 Co204 1.989 . S
N221 C220 1.342 . S
N221 N222 1.388 . S
N222 Co205 1.993 . S
N222 N221 1.388 . S
N222 C223 1.346 . S
C223 N222 1.346 . S
C223 C224 1.396 . S
C223 C233 1.510 . S
C224 C220 1.401 . S
C224 C223 1.396 . S
C225 C220 1.499 . S
C225 H226 0.959 . S
C225 H227 0.960 . S
C225 H228 0.961 . S
H226 C225 0.959 . S
H227 C225 0.960 . S
H228 C225 0.961 . S
O229 Co204 1.967 . S
O229 C237 1.258 . S
O230 Co205 1.941 . S
O230 C237 1.266 . S
H231 C233 0.959 . S
H232 C233 0.961 . S
C233 C223 1.510 . S
C233 H231 0.959 . S
C233 H232 0.961 . S
C233 H234 0.960 . S
H234 C233 0.960 . S
H235 N215 0.862 . S
O236 Co204 1.920 . S
O236 C209 1.289 . S
C237 O229 1.258 . S
C237 O230 1.266 . S
Co238 O241 1.970 . S
Co238 N255 1.989 . S
Co238 O263 1.967 . S
Co238 O270 1.920 . S
Co239 O242 1.966 . S
Co239 N248 2.022 . S
Co239 N256 1.993 . S
Co239 O264 1.941 . S
C240 O241 1.258 . S
C240 O242 1.263 . S
O241 Co238 1.970 . S
O241 C240 1.258 . S
O242 Co239 1.966 . S
O242 C240 1.263 . S
C243 O244 1.235 . S
C243 O270 1.289 . S
O244 C243 1.235 . S
C245 C247 1.400 . S
C245 N248 1.351 . S
C245 C250 1.501 . S
C246 C247 1.387 . S
C246 N249 1.341 . S
C247 C245 1.400 . S
C247 C246 1.387 . S
N248 Co239 2.022 . S
N248 C245 1.351 . S
N248 N249 1.365 . S
N249 C246 1.341 . S
N249 N248 1.365 . S
N249 H269 0.862 . S
C250 C245 1.501 . S
C250 H251 0.961 . S
C250 H252 0.961 . S
C250 H253 0.960 . S
H251 C250 0.961 . S
H252 C250 0.961 . S
H253 C250 0.960 . S
C254 N255 1.342 . S
C254 C258 1.401 . S
C254 C259 1.499 . S
N255 Co238 1.989 . S
N255 C254 1.342 . S
N255 N256 1.388 . S
N256 Co239 1.993 . S
N256 N255 1.388 . S
N256 C257 1.346 . S
C257 N256 1.346 . S
C257 C258 1.396 . S
C257 C267 1.510 . S
C258 C254 1.401 . S
C258 C257 1.396 . S
C259 C254 1.499 . S
C259 H260 0.959 . S
C259 H261 0.960 . S
C259 H262 0.961 . S
H260 C259 0.959 . S
H261 C259 0.960 . S
H262 C259 0.961 . S
O263 Co238 1.967 . S
O263 C271 1.258 . S
O264 Co239 1.941 . S
O264 C271 1.266 . S
H265 C267 0.959 . S
H266 C267 0.961 . S
C267 C257 1.510 . S
C267 H265 0.959 . S
C267 H266 0.961 . S
C267 H268 0.960 . S
H268 C267 0.960 . S
H269 N249 0.862 . S
O270 Co238 1.920 . S
O270 C243 1.289 . S
C271 O263 1.258 . S
C271 O264 1.266 . S
Co272 O275 1.970 . S
Co272 N289 1.989 . S
Co272 O297 1.967 . S
Co272 O304 1.920 1_556 S
Co273 O276 1.966 . S
Co273 N282 2.022 . S
Co273 N290 1.993 . S
Co273 O298 1.941 . S
C274 O275 1.258 . S
C274 O276 1.263 . S
O275 Co272 1.970 . S
O275 C274 1.258 . S
O276 Co273 1.966 . S
O276 C274 1.263 . S
C277 O278 1.235 . S
C277 O304 1.289 . S
O278 C277 1.235 . S
C279 C281 1.400 . S
C279 N282 1.351 . S
C279 C284 1.501 . S
C280 C281 1.387 . S
C280 N283 1.341 . S
C281 C279 1.400 . S
C281 C280 1.387 . S
N282 Co273 2.022 . S
N282 C279 1.351 . S
N282 N283 1.365 . S
N283 C280 1.341 . S
N283 N282 1.365 . S
N283 H303 0.862 . S
C284 C279 1.501 . S
C284 H285 0.961 . S
C284 H286 0.961 . S
C284 H287 0.960 . S
H285 C284 0.961 . S
H286 C284 0.961 . S
H287 C284 0.960 . S
C288 N289 1.342 . S
C288 C292 1.401 . S
C288 C293 1.499 1_556 S
N289 Co272 1.989 . S
N289 C288 1.342 . S
N289 N290 1.388 . S
N290 Co273 1.993 . S
N290 N289 1.388 . S
N290 C291 1.346 . S
C291 N290 1.346 . S
C291 C292 1.396 . S
C291 C301 1.510 . S
C292 C288 1.401 . S
C292 C291 1.396 . S
C293 C288 1.499 1_554 S
C293 H294 0.959 . S
C293 H295 0.960 . S
C293 H296 0.961 . S
H294 C293 0.959 . S
H295 C293 0.960 . S
H296 C293 0.961 . S
O297 Co272 1.967 . S
O297 C305 1.258 . S
O298 Co273 1.941 . S
O298 C305 1.266 . S
H299 C301 0.959 . S
H300 C301 0.961 . S
C301 C291 1.510 . S
C301 H299 0.959 . S
C301 H300 0.961 . S
C301 H302 0.960 . S
H302 C301 0.960 . S
H303 N283 0.862 . S
O304 Co272 1.920 1_554 S
O304 C277 1.289 . S
C305 O297 1.258 . S
C305 O298 1.266 . S
Co306 O309 1.970 . S
Co306 N323 1.989 . S
Co306 O331 1.967 . S
Co306 O338 1.920 . S
Co307 O310 1.966 . S
Co307 N316 2.022 . S
Co307 N324 1.993 . S
Co307 O332 1.941 . S
C308 O309 1.258 . S
C308 O310 1.263 . S
O309 Co306 1.970 . S
O309 C308 1.258 . S
O310 Co307 1.966 . S
O310 C308 1.263 . S
C311 O312 1.235 . S
C311 O338 1.289 . S
O312 C311 1.235 . S
C313 C315 1.400 . S
C313 N316 1.351 . S
C313 C318 1.501 . S
C314 C315 1.387 . S
C314 N317 1.341 . S
C315 C313 1.400 . S
C315 C314 1.387 . S
N316 Co307 2.022 . S
N316 C313 1.351 . S
N316 N317 1.365 . S
N317 C314 1.341 . S
N317 N316 1.365 . S
N317 H337 0.862 . S
C318 C313 1.501 . S
C318 H319 0.961 . S
C318 H320 0.961 . S
C318 H321 0.960 . S
H319 C318 0.961 . S
H320 C318 0.961 . S
H321 C318 0.960 . S
C322 N323 1.342 . S
C322 C326 1.401 . S
C322 C327 1.499 . S
N323 Co306 1.989 . S
N323 C322 1.342 . S
N323 N324 1.388 . S
N324 Co307 1.993 . S
N324 N323 1.388 . S
N324 C325 1.346 . S
C325 N324 1.346 . S
C325 C326 1.396 . S
C325 C335 1.510 . S
C326 C322 1.401 . S
C326 C325 1.396 . S
C327 C322 1.499 . S
C327 H328 0.959 . S
C327 H329 0.960 . S
C327 H330 0.961 . S
H328 C327 0.959 . S
H329 C327 0.960 . S
H330 C327 0.961 . S
O331 Co306 1.967 . S
O331 C339 1.258 . S
O332 Co307 1.941 . S
O332 C339 1.266 . S
H333 C335 0.959 . S
H334 C335 0.961 . S
C335 C325 1.510 . S
C335 H333 0.959 . S
C335 H334 0.961 . S
C335 H336 0.960 . S
H336 C335 0.960 . S
H337 N317 0.862 . S
O338 Co306 1.920 . S
O338 C311 1.289 . S
C339 O331 1.258 . S
C339 O332 1.266 . S
Co340 O343 1.970 . S
Co340 N357 1.989 . S
Co340 O365 1.967 . S
Co340 O372 1.920 . S
Co341 O344 1.966 . S
Co341 N350 2.022 . S
Co341 N358 1.993 . S
Co341 O366 1.941 . S
C342 O343 1.258 . S
C342 O344 1.263 . S
O343 Co340 1.970 . S
O343 C342 1.258 . S
O344 Co341 1.966 . S
O344 C342 1.263 . S
C345 O346 1.235 . S
C345 O372 1.289 . S
O346 C345 1.235 . S
C347 C349 1.400 . S
C347 N350 1.351 . S
C347 C352 1.501 . S
C348 C349 1.387 . S
C348 N351 1.341 . S
C349 C347 1.400 . S
C349 C348 1.387 . S
N350 Co341 2.022 . S
N350 C347 1.351 . S
N350 N351 1.365 . S
N351 C348 1.341 . S
N351 N350 1.365 . S
N351 H371 0.862 . S
C352 C347 1.501 . S
C352 H353 0.961 . S
C352 H354 0.961 . S
C352 H355 0.960 . S
H353 C352 0.961 . S
H354 C352 0.961 . S
H355 C352 0.960 . S
C356 N357 1.342 . S
C356 C360 1.401 . S
C356 C361 1.499 . S
N357 Co340 1.989 . S
N357 C356 1.342 . S
N357 N358 1.388 . S
N358 Co341 1.993 . S
N358 N357 1.388 . S
N358 C359 1.346 . S
C359 N358 1.346 . S
C359 C360 1.396 . S
C359 C369 1.510 . S
C360 C356 1.401 . S
C360 C359 1.396 . S
C361 C356 1.499 . S
C361 H362 0.959 . S
C361 H363 0.960 . S
C361 H364 0.961 . S
H362 C361 0.959 . S
H363 C361 0.960 . S
H364 C361 0.961 . S
O365 Co340 1.967 . S
O365 C373 1.258 . S
O366 Co341 1.941 . S
O366 C373 1.266 . S
H367 C369 0.959 . S
H368 C369 0.961 . S
C369 C359 1.510 . S
C369 H367 0.959 . S
C369 H368 0.961 . S
C369 H370 0.960 . S
H370 C369 0.960 . S
H371 N351 0.862 . S
O372 Co340 1.920 . S
O372 C345 1.289 . S
C373 O365 1.258 . S
C373 O366 1.266 . S
Co374 O377 1.970 . S
Co374 N391 1.989 . S
Co374 O399 1.967 . S
Co374 O406 1.920 . S
Co375 O378 1.966 . S
Co375 N384 2.022 1_554 S
Co375 N392 1.993 . S
Co375 O400 1.941 . S
C376 O377 1.258 . S
C376 O378 1.263 . S
O377 Co374 1.970 . S
O377 C376 1.258 . S
O378 Co375 1.966 . S
O378 C376 1.263 . S
C379 O380 1.235 . S
C379 O406 1.289 . S
O380 C379 1.235 . S
C381 C383 1.400 . S
C381 N384 1.351 . S
C381 C386 1.501 . S
C382 C383 1.387 . S
C382 N385 1.341 . S
C383 C381 1.400 . S
C383 C382 1.387 . S
N384 Co375 2.022 1_556 S
N384 C381 1.351 . S
N384 N385 1.365 . S
N385 C382 1.341 . S
N385 N384 1.365 . S
N385 H405 0.862 . S
C386 C381 1.501 . S
C386 H387 0.959 . S
C386 H388 0.961 . S
C386 H389 0.960 . S
H387 C386 0.959 . S
H388 C386 0.961 . S
H389 C386 0.960 . S
C390 N391 1.342 . S
C390 C394 1.401 . S
C390 C395 1.499 . S
N391 Co374 1.989 . S
N391 C390 1.342 . S
N391 N392 1.388 . S
N392 Co375 1.993 . S
N392 N391 1.388 . S
N392 C393 1.346 . S
C393 N392 1.346 . S
C393 C394 1.396 . S
C393 C403 1.510 . S
C394 C390 1.401 . S
C394 C393 1.396 . S
C395 C390 1.499 . S
C395 H396 0.959 . S
C395 H397 0.960 . S
C395 H398 0.961 . S
H396 C395 0.959 . S
H397 C395 0.960 . S
H398 C395 0.961 . S
O399 Co374 1.967 . S
O399 C407 1.258 . S
O400 Co375 1.941 . S
O400 C407 1.266 . S
H401 C403 0.959 . S
H402 C403 0.961 . S
C403 C393 1.510 . S
C403 H401 0.959 . S
C403 H402 0.961 . S
C403 H404 0.960 1_554 S
H404 C403 0.960 1_556 S
H405 N385 0.862 . S
O406 Co374 1.920 . S
O406 C379 1.289 . S
C407 O399 1.258 . S
C407 O400 1.266 . S
Co408 O411 1.970 . S
Co408 N425 1.989 . S
Co408 O433 1.967 . S
Co408 O440 1.920 1_554 S
Co409 O412 1.966 . S
Co409 N418 2.022 . S
Co409 N426 1.993 . S
Co409 O434 1.941 . S
C410 O411 1.258 . S
C410 O412 1.263 . S
O411 Co408 1.970 . S
O411 C410 1.258 . S
O412 Co409 1.966 . S
O412 C410 1.263 . S
C413 O414 1.235 . S
C413 O440 1.289 . S
O414 C413 1.235 . S
C415 C417 1.400 . S
C415 N418 1.351 . S
C415 C420 1.501 . S
C416 C417 1.387 . S
C416 N419 1.341 . S
C417 C415 1.400 . S
C417 C416 1.387 . S
N418 Co409 2.022 . S
N418 C415 1.351 . S
N418 N419 1.365 . S
N419 C416 1.341 . S
N419 N418 1.365 . S
N419 H439 0.862 . S
C420 C415 1.501 . S
C420 H421 0.961 . S
C420 H422 0.961 . S
C420 H423 0.960 . S
H421 C420 0.961 . S
H422 C420 0.961 . S
H423 C420 0.960 . S
C424 N425 1.342 . S
C424 C428 1.401 . S
C424 C429 1.499 1_554 S
N425 Co408 1.989 . S
N425 C424 1.342 . S
N425 N426 1.388 . S
N426 Co409 1.993 . S
N426 N425 1.388 . S
N426 C427 1.346 . S
C427 N426 1.346 . S
C427 C428 1.396 . S
C427 C437 1.510 . S
C428 C424 1.401 . S
C428 C427 1.396 . S
C429 C424 1.499 1_556 S
C429 H430 0.959 . S
C429 H431 0.960 . S
C429 H432 0.961 . S
H430 C429 0.959 . S
H431 C429 0.960 . S
H432 C429 0.961 . S
O433 Co408 1.967 . S
O433 C441 1.258 . S
O434 Co409 1.941 . S
O434 C441 1.266 . S
H435 C437 0.959 . S
H436 C437 0.961 . S
C437 C427 1.510 . S
C437 H435 0.959 . S
C437 H436 0.961 . S
C437 H438 0.960 . S
H438 C437 0.960 . S
H439 N419 0.862 . S
O440 Co408 1.920 1_556 S
O440 C413 1.289 . S
C441 O433 1.258 . S
C441 O434 1.266 . S
Co442 O445 1.970 . S
Co442 N459 1.989 . S
Co442 O467 1.967 . S
Co442 O474 1.920 . S
Co443 O446 1.966 . S
Co443 N452 2.022 1_556 S
Co443 N460 1.993 . S
Co443 O468 1.941 . S
C444 O445 1.258 . S
C444 O446 1.263 . S
O445 Co442 1.970 . S
O445 C444 1.258 . S
O446 Co443 1.966 . S
O446 C444 1.263 . S
C447 O448 1.235 . S
C447 O474 1.289 . S
O448 C447 1.235 . S
C449 C451 1.400 . S
C449 N452 1.351 . S
C449 C454 1.501 . S
C450 C451 1.387 . S
C450 N453 1.341 . S
C451 C449 1.400 . S
C451 C450 1.387 . S
N452 Co443 2.022 1_554 S
N452 C449 1.351 . S
N452 N453 1.365 . S
N453 C450 1.341 . S
N453 N452 1.365 . S
N453 H473 0.862 . S
C454 C449 1.501 . S
C454 H455 0.959 . S
C454 H456 0.961 . S
C454 H457 0.960 . S
H455 C454 0.959 . S
H456 C454 0.961 . S
H457 C454 0.960 . S
C458 N459 1.342 . S
C458 C462 1.401 . S
C458 C463 1.499 . S
N459 Co442 1.989 . S
N459 C458 1.342 . S
N459 N460 1.388 . S
N460 Co443 1.993 . S
N460 N459 1.388 . S
N460 C461 1.346 . S
C461 N460 1.346 . S
C461 C462 1.396 . S
C461 C471 1.510 . S
C462 C458 1.401 . S
C462 C461 1.396 . S
C463 C458 1.499 . S
C463 H464 0.959 . S
C463 H465 0.960 . S
C463 H466 0.961 . S
H464 C463 0.959 . S
H465 C463 0.960 . S
H466 C463 0.961 . S
O467 Co442 1.967 . S
O467 C475 1.258 . S
O468 Co443 1.941 . S
O468 C475 1.266 . S
H469 C471 0.959 . S
H470 C471 0.961 . S
C471 C461 1.510 . S
C471 H469 0.959 . S
C471 H470 0.961 . S
C471 H472 0.960 1_556 S
H472 C471 0.960 1_554 S
H473 N453 0.862 . S
O474 Co442 1.920 . S
O474 C447 1.289 . S
C475 O467 1.258 . S
C475 O468 1.266 . S
Co476 O479 1.970 . S
Co476 N493 1.989 . S
Co476 O501 1.967 . S
Co476 O508 1.920 . S
Co477 O480 1.966 . S
Co477 N486 2.022 . S
Co477 N494 1.993 . S
Co477 O502 1.941 . S
C478 O479 1.258 . S
C478 O480 1.263 . S
O479 Co476 1.970 . S
O479 C478 1.258 . S
O480 Co477 1.966 . S
O480 C478 1.263 . S
C481 O482 1.235 . S
C481 O508 1.289 . S
O482 C481 1.235 . S
C483 C485 1.400 . S
C483 N486 1.351 . S
C483 C488 1.501 . S
C484 C485 1.387 . S
C484 N487 1.341 . S
C485 C483 1.400 . S
C485 C484 1.387 . S
N486 Co477 2.022 . S
N486 C483 1.351 . S
N486 N487 1.365 . S
N487 C484 1.341 . S
N487 N486 1.365 . S
N487 H507 0.862 . S
C488 C483 1.501 . S
C488 H489 0.961 . S
C488 H490 0.961 . S
C488 H491 0.960 . S
H489 C488 0.961 . S
H490 C488 0.961 . S
H491 C488 0.960 . S
C492 N493 1.342 . S
C492 C496 1.401 . S
C492 C497 1.499 . S
N493 Co476 1.989 . S
N493 C492 1.342 . S
N493 N494 1.388 . S
N494 Co477 1.993 . S
N494 N493 1.388 . S
N494 C495 1.346 . S
C495 N494 1.346 . S
C495 C496 1.396 . S
C495 C505 1.510 . S
C496 C492 1.401 . S
C496 C495 1.396 . S
C497 C492 1.499 . S
C497 H498 0.959 . S
C497 H499 0.960 . S
C497 H500 0.961 . S
H498 C497 0.959 . S
H499 C497 0.960 . S
H500 C497 0.961 . S
O501 Co476 1.967 . S
O501 C509 1.258 . S
O502 Co477 1.941 . S
O502 C509 1.266 . S
H503 C505 0.959 . S
H504 C505 0.961 . S
C505 C495 1.510 . S
C505 H503 0.959 . S
C505 H504 0.961 . S
C505 H506 0.960 . S
H506 C505 0.960 . S
H507 N487 0.862 . S
O508 Co476 1.920 . S
O508 C481 1.289 . S
C509 O501 1.258 . S
C509 O502 1.266 . S
Co510 O513 1.970 . S
Co510 N527 1.989 . S
Co510 O535 1.967 . S
Co510 O542 1.920 . S
Co511 O514 1.966 . S
Co511 N520 2.022 . S
Co511 N528 1.993 . S
Co511 O536 1.941 . S
C512 O513 1.258 . S
C512 O514 1.263 . S
O513 Co510 1.970 . S
O513 C512 1.258 . S
O514 Co511 1.966 . S
O514 C512 1.263 . S
C515 O516 1.235 . S
C515 O542 1.289 . S
O516 C515 1.235 . S
C517 C519 1.400 . S
C517 N520 1.351 . S
C517 C522 1.501 . S
C518 C519 1.387 . S
C518 N521 1.341 . S
C519 C517 1.400 . S
C519 C518 1.387 . S
N520 Co511 2.022 . S
N520 C517 1.351 . S
N520 N521 1.365 . S
N521 C518 1.341 . S
N521 N520 1.365 . S
N521 H541 0.862 . S
C522 C517 1.501 . S
C522 H523 0.961 . S
C522 H524 0.961 . S
C522 H525 0.960 . S
H523 C522 0.961 . S
H524 C522 0.961 . S
H525 C522 0.960 . S
C526 N527 1.342 . S
C526 C530 1.401 . S
C526 C531 1.499 . S
N527 Co510 1.989 . S
N527 C526 1.342 . S
N527 N528 1.388 . S
N528 Co511 1.993 . S
N528 N527 1.388 . S
N528 C529 1.346 . S
C529 N528 1.346 . S
C529 C530 1.396 . S
C529 C539 1.510 . S
C530 C526 1.401 . S
C530 C529 1.396 . S
C531 C526 1.499 . S
C531 H532 0.959 . S
C531 H533 0.960 . S
C531 H534 0.961 . S
H532 C531 0.959 . S
H533 C531 0.960 . S
H534 C531 0.961 . S
O535 Co510 1.967 . S
O535 C543 1.258 . S
O536 Co511 1.941 . S
O536 C543 1.266 . S
H537 C539 0.959 . S
H538 C539 0.961 . S
C539 C529 1.510 . S
C539 H537 0.959 . S
C539 H538 0.961 . S
C539 H540 0.960 . S
H540 C539 0.960 . S
H541 N521 0.862 . S
O542 Co510 1.920 . S
O542 C515 1.289 . S
C543 O535 1.258 . S
C543 O536 1.266 . S
Co544 O547 1.970 . S
Co544 N561 1.989 . S
Co544 O569 1.967 . S
Co544 O576 1.920 . S
Co545 O548 1.966 . S
Co545 N554 2.022 . S
Co545 N562 1.993 . S
Co545 O570 1.941 . S
C546 O547 1.258 . S
C546 O548 1.263 . S
O547 Co544 1.970 . S
O547 C546 1.258 . S
O548 Co545 1.966 . S
O548 C546 1.263 . S
C549 O550 1.235 . S
C549 O576 1.289 . S
O550 C549 1.235 . S
C551 C553 1.400 . S
C551 N554 1.351 . S
C551 C556 1.501 . S
C552 C553 1.387 . S
C552 N555 1.341 . S
C553 C551 1.400 . S
C553 C552 1.387 . S
N554 Co545 2.022 . S
N554 C551 1.351 . S
N554 N555 1.365 . S
N555 C552 1.341 . S
N555 N554 1.365 . S
N555 H575 0.862 . S
C556 C551 1.501 . S
C556 H557 0.961 . S
C556 H558 0.961 . S
C556 H559 0.960 . S
H557 C556 0.961 . S
H558 C556 0.961 . S
H559 C556 0.960 . S
C560 N561 1.342 . S
C560 C564 1.401 . S
C560 C565 1.499 . S
N561 Co544 1.989 . S
N561 C560 1.342 . S
N561 N562 1.388 . S
N562 Co545 1.993 . S
N562 N561 1.388 . S
N562 C563 1.346 . S
C563 N562 1.346 . S
C563 C564 1.396 . S
C563 C573 1.510 . S
C564 C560 1.401 . S
C564 C563 1.396 . S
C565 C560 1.499 . S
C565 H566 0.959 . S
C565 H567 0.960 . S
C565 H568 0.961 . S
H566 C565 0.959 . S
H567 C565 0.960 . S
H568 C565 0.961 . S
O569 Co544 1.967 . S
O569 C577 1.258 . S
O570 Co545 1.941 . S
O570 C577 1.266 . S
H571 C573 0.959 . S
H572 C573 0.961 . S
C573 C563 1.510 . S
C573 H571 0.959 . S
C573 H572 0.961 . S
C573 H574 0.960 . S
H574 C573 0.960 . S
H575 N555 0.862 . S
O576 Co544 1.920 . S
O576 C549 1.289 . S
C577 O569 1.258 . S
C577 O570 1.266 . S
Co578 O581 1.970 . S
Co578 N595 1.989 . S
Co578 O603 1.967 . S
Co578 O610 1.920 . S
Co579 O582 1.966 . S
Co579 N588 2.022 1_556 S
Co579 N596 1.993 . S
Co579 O604 1.941 . S
C580 O581 1.258 . S
C580 O582 1.263 . S
O581 Co578 1.970 . S
O581 C580 1.258 . S
O582 Co579 1.966 . S
O582 C580 1.263 . S
C583 O584 1.235 . S
C583 O610 1.289 . S
O584 C583 1.235 . S
C585 C587 1.400 . S
C585 N588 1.351 . S
C585 C590 1.501 . S
C586 C587 1.387 . S
C586 N589 1.341 . S
C587 C585 1.400 . S
C587 C586 1.387 . S
N588 Co579 2.022 1_554 S
N588 C585 1.351 . S
N588 N589 1.365 . S
N589 C586 1.341 . S
N589 N588 1.365 . S
N589 H609 0.862 . S
C590 C585 1.501 . S
C590 H591 0.959 . S
C590 H592 0.961 . S
C590 H593 0.960 . S
H591 C590 0.959 . S
H592 C590 0.961 . S
H593 C590 0.960 . S
C594 N595 1.342 . S
C594 C598 1.401 . S
C594 C599 1.499 . S
N595 Co578 1.989 . S
N595 C594 1.342 . S
N595 N596 1.388 . S
N596 Co579 1.993 . S
N596 N595 1.388 . S
N596 C597 1.346 . S
C597 N596 1.346 . S
C597 C598 1.396 . S
C597 C607 1.510 . S
C598 C594 1.401 . S
C598 C597 1.396 . S
C599 C594 1.499 . S
C599 H600 0.959 . S
C599 H601 0.960 . S
C599 H602 0.961 . S
H600 C599 0.959 . S
H601 C599 0.960 . S
H602 C599 0.961 . S
O603 Co578 1.967 . S
O603 C611 1.258 . S
O604 Co579 1.941 . S
O604 C611 1.266 . S
H605 C607 0.959 . S
H606 C607 0.961 . S
C607 C597 1.510 . S
C607 H605 0.959 . S
C607 H606 0.961 . S
C607 H608 0.960 1_556 S
H608 C607 0.960 1_554 S
H609 N589 0.862 . S
O610 Co578 1.920 . S
O610 C583 1.289 . S
C611 O603 1.258 . S
C611 O604 1.266 . S
Co612 O615 1.970 . S
Co612 N629 1.989 . S
Co612 O637 1.967 . S
Co612 O644 1.920 1_554 S
Co613 O616 1.966 . S
Co613 N622 2.022 . S
Co613 N630 1.993 . S
Co613 O638 1.941 . S
C614 O615 1.258 . S
C614 O616 1.263 . S
O615 Co612 1.970 . S
O615 C614 1.258 . S
O616 Co613 1.966 . S
O616 C614 1.263 . S
C617 O618 1.235 . S
C617 O644 1.289 . S
O618 C617 1.235 . S
C619 C621 1.400 . S
C619 N622 1.351 . S
C619 C624 1.501 . S
C620 C621 1.387 . S
C620 N623 1.341 . S
C621 C619 1.400 . S
C621 C620 1.387 . S
N622 Co613 2.022 . S
N622 C619 1.351 . S
N622 N623 1.365 . S
N623 C620 1.341 . S
N623 N622 1.365 . S
N623 H643 0.862 . S
C624 C619 1.501 . S
C624 H625 0.961 . S
C624 H626 0.961 . S
C624 H627 0.960 . S
H625 C624 0.961 . S
H626 C624 0.961 . S
H627 C624 0.960 . S
C628 N629 1.342 . S
C628 C632 1.401 . S
C628 C633 1.499 1_554 S
N629 Co612 1.989 . S
N629 C628 1.342 . S
N629 N630 1.388 . S
N630 Co613 1.993 . S
N630 N629 1.388 . S
N630 C631 1.346 . S
C631 N630 1.346 . S
C631 C632 1.396 . S
C631 C641 1.510 . S
C632 C628 1.401 . S
C632 C631 1.396 . S
C633 C628 1.499 1_556 S
C633 H634 0.959 . S
C633 H635 0.960 . S
C633 H636 0.961 . S
H634 C633 0.959 . S
H635 C633 0.960 . S
H636 C633 0.961 . S
O637 Co612 1.967 . S
O637 C645 1.258 . S
O638 Co613 1.941 . S
O638 C645 1.266 . S
H639 C641 0.959 . S
H640 C641 0.961 . S
C641 C631 1.510 . S
C641 H639 0.959 . S
C641 H640 0.961 . S
C641 H642 0.960 . S
H642 C641 0.960 . S
H643 N623 0.862 . S
O644 Co612 1.920 1_556 S
O644 C617 1.289 . S
C645 O637 1.258 . S
C645 O638 1.266 . S
Co646 O649 1.970 . S
Co646 N663 1.989 . S
Co646 O671 1.967 . S
Co646 O678 1.920 . S
Co647 O650 1.966 . S
Co647 N656 2.022 . S
Co647 N664 1.993 . S
Co647 O672 1.941 . S
C648 O649 1.258 . S
C648 O650 1.263 . S
O649 Co646 1.970 . S
O649 C648 1.258 . S
O650 Co647 1.966 . S
O650 C648 1.263 . S
C651 O652 1.235 . S
C651 O678 1.289 . S
O652 C651 1.235 . S
C653 C655 1.400 . S
C653 N656 1.351 . S
C653 C658 1.501 . S
C654 C655 1.387 . S
C654 N657 1.341 . S
C655 C653 1.400 . S
C655 C654 1.387 . S
N656 Co647 2.022 . S
N656 C653 1.351 . S
N656 N657 1.365 . S
N657 C654 1.341 . S
N657 N656 1.365 . S
N657 H677 0.862 . S
C658 C653 1.501 . S
C658 H659 0.961 . S
C658 H660 0.961 . S
C658 H661 0.960 . S
H659 C658 0.961 . S
H660 C658 0.961 . S
H661 C658 0.960 . S
C662 N663 1.342 . S
C662 C666 1.401 . S
C662 C667 1.499 . S
N663 Co646 1.989 . S
N663 C662 1.342 . S
N663 N664 1.388 . S
N664 Co647 1.993 . S
N664 N663 1.388 . S
N664 C665 1.346 . S
C665 N664 1.346 . S
C665 C666 1.396 . S
C665 C675 1.510 . S
C666 C662 1.401 . S
C666 C665 1.396 . S
C667 C662 1.499 . S
C667 H668 0.959 . S
C667 H669 0.960 . S
C667 H670 0.961 . S
H668 C667 0.959 . S
H669 C667 0.960 . S
H670 C667 0.961 . S
O671 Co646 1.967 . S
O671 C679 1.258 . S
O672 Co647 1.941 . S
O672 C679 1.266 . S
H673 C675 0.959 . S
H674 C675 0.961 . S
C675 C665 1.510 . S
C675 H673 0.959 . S
C675 H674 0.961 . S
C675 H676 0.960 . S
H676 C675 0.960 . S
H677 N657 0.862 . S
O678 Co646 1.920 . S
O678 C651 1.289 . S
C679 O671 1.258 . S
C679 O672 1.266 . S
Co680 O683 1.970 . S
Co680 N697 1.989 . S
Co680 O705 1.967 . S
Co680 O712 1.920 . S
Co681 O684 1.966 . S
Co681 N690 2.022 . S
Co681 N698 1.993 . S
Co681 O706 1.941 . S
C682 O683 1.258 . S
C682 O684 1.263 . S
O683 Co680 1.970 . S
O683 C682 1.258 . S
O684 Co681 1.966 . S
O684 C682 1.263 . S
C685 O686 1.235 . S
C685 O712 1.289 . S
O686 C685 1.235 . S
C687 C689 1.400 . S
C687 N690 1.351 . S
C687 C692 1.501 . S
C688 C689 1.387 . S
C688 N691 1.341 . S
C689 C687 1.400 . S
C689 C688 1.387 . S
N690 Co681 2.022 . S
N690 C687 1.351 . S
N690 N691 1.365 . S
N691 C688 1.341 . S
N691 N690 1.365 . S
N691 H711 0.862 . S
C692 C687 1.501 . S
C692 H693 0.961 . S
C692 H694 0.961 . S
C692 H695 0.960 . S
H693 C692 0.961 . S
H694 C692 0.961 . S
H695 C692 0.960 . S
C696 N697 1.342 . S
C696 C700 1.401 . S
C696 C701 1.499 . S
N697 Co680 1.989 . S
N697 C696 1.342 . S
N697 N698 1.388 . S
N698 Co681 1.993 . S
N698 N697 1.388 . S
N698 C699 1.346 . S
C699 N698 1.346 . S
C699 C700 1.396 . S
C699 C709 1.510 . S
C700 C696 1.401 . S
C700 C699 1.396 . S
C701 C696 1.499 . S
C701 H702 0.959 . S
C701 H703 0.960 . S
C701 H704 0.961 . S
H702 C701 0.959 . S
H703 C701 0.960 . S
H704 C701 0.961 . S
O705 Co680 1.967 . S
O705 C713 1.258 . S
O706 Co681 1.941 . S
O706 C713 1.266 . S
H707 C709 0.959 . S
H708 C709 0.961 . S
C709 C699 1.510 . S
C709 H707 0.959 . S
C709 H708 0.961 . S
C709 H710 0.960 . S
H710 C709 0.960 . S
H711 N691 0.862 . S
O712 Co680 1.920 . S
O712 C685 1.289 . S
C713 O705 1.258 . S
C713 O706 1.266 . S
Co714 O717 1.970 . S
Co714 N731 1.989 . S
Co714 O739 1.967 . S
Co714 O746 1.920 . S
Co715 O718 1.966 . S
Co715 N724 2.022 . S
Co715 N732 1.993 . S
Co715 O740 1.941 . S
C716 O717 1.258 . S
C716 O718 1.263 . S
O717 Co714 1.970 . S
O717 C716 1.258 . S
O718 Co715 1.966 . S
O718 C716 1.263 . S
C719 O720 1.235 . S
C719 O746 1.289 . S
O720 C719 1.235 . S
C721 C723 1.400 . S
C721 N724 1.351 . S
C721 C726 1.501 . S
C722 C723 1.387 . S
C722 N725 1.341 . S
C723 C721 1.400 . S
C723 C722 1.387 . S
N724 Co715 2.022 . S
N724 C721 1.351 . S
N724 N725 1.365 . S
N725 C722 1.341 . S
N725 N724 1.365 . S
N725 H745 0.862 . S
C726 C721 1.501 . S
C726 H727 0.961 . S
C726 H728 0.961 . S
C726 H729 0.960 . S
H727 C726 0.961 . S
H728 C726 0.961 . S
H729 C726 0.960 . S
C730 N731 1.342 . S
C730 C734 1.401 . S
C730 C735 1.499 . S
N731 Co714 1.989 . S
N731 C730 1.342 . S
N731 N732 1.388 . S
N732 Co715 1.993 . S
N732 N731 1.388 . S
N732 C733 1.346 . S
C733 N732 1.346 . S
C733 C734 1.396 . S
C733 C743 1.510 . S
C734 C730 1.401 . S
C734 C733 1.396 . S
C735 C730 1.499 . S
C735 H736 0.959 . S
C735 H737 0.960 . S
C735 H738 0.961 . S
H736 C735 0.959 . S
H737 C735 0.960 . S
H738 C735 0.961 . S
O739 Co714 1.967 . S
O739 C747 1.258 . S
O740 Co715 1.941 . S
O740 C747 1.266 . S
H741 C743 0.959 . S
H742 C743 0.961 . S
C743 C733 1.510 . S
C743 H741 0.959 . S
C743 H742 0.961 . S
C743 H744 0.960 . S
H744 C743 0.960 . S
H745 N725 0.862 . S
O746 Co714 1.920 . S
O746 C719 1.289 . S
C747 O739 1.258 . S
C747 O740 1.266 . S
Co748 O751 1.970 . S
Co748 N765 1.989 . S
Co748 O773 1.967 . S
Co748 O780 1.920 1_556 S
Co749 O752 1.966 . S
Co749 N758 2.022 . S
Co749 N766 1.993 . S
Co749 O774 1.941 . S
C750 O751 1.258 . S
C750 O752 1.263 . S
O751 Co748 1.970 . S
O751 C750 1.258 . S
O752 Co749 1.966 . S
O752 C750 1.263 . S
C753 O754 1.235 . S
C753 O780 1.289 . S
O754 C753 1.235 . S
C755 C757 1.400 . S
C755 N758 1.351 . S
C755 C760 1.501 . S
C756 C757 1.387 . S
C756 N759 1.341 . S
C757 C755 1.400 . S
C757 C756 1.387 . S
N758 Co749 2.022 . S
N758 C755 1.351 . S
N758 N759 1.365 . S
N759 C756 1.341 . S
N759 N758 1.365 . S
N759 H779 0.862 . S
C760 C755 1.501 . S
C760 H761 0.961 . S
C760 H762 0.961 . S
C760 H763 0.960 . S
H761 C760 0.961 . S
H762 C760 0.961 . S
H763 C760 0.960 . S
C764 N765 1.342 . S
C764 C768 1.401 . S
C764 C769 1.499 1_556 S
N765 Co748 1.989 . S
N765 C764 1.342 . S
N765 N766 1.388 . S
N766 Co749 1.993 . S
N766 N765 1.388 . S
N766 C767 1.346 . S
C767 N766 1.346 . S
C767 C768 1.396 . S
C767 C777 1.510 . S
C768 C764 1.401 . S
C768 C767 1.396 . S
C769 C764 1.499 1_554 S
C769 H770 0.959 . S
C769 H771 0.960 . S
C769 H772 0.961 . S
H770 C769 0.959 . S
H771 C769 0.960 . S
H772 C769 0.961 . S
O773 Co748 1.967 . S
O773 C781 1.258 . S
O774 Co749 1.941 . S
O774 C781 1.266 . S
H775 C777 0.959 . S
H776 C777 0.961 . S
C777 C767 1.510 . S
C777 H775 0.959 . S
C777 H776 0.961 . S
C777 H778 0.960 . S
H778 C777 0.960 . S
H779 N759 0.862 . S
O780 Co748 1.920 1_554 S
O780 C753 1.289 . S
C781 O773 1.258 . S
C781 O774 1.266 . S
Co782 O785 1.970 . S
Co782 N799 1.989 . S
Co782 O807 1.967 . S
Co782 O814 1.920 . S
Co783 O786 1.966 . S
Co783 N792 2.022 1_554 S
Co783 N800 1.993 . S
Co783 O808 1.941 . S
C784 O785 1.258 . S
C784 O786 1.263 . S
O785 Co782 1.970 . S
O785 C784 1.258 . S
O786 Co783 1.966 . S
O786 C784 1.263 . S
C787 O788 1.235 . S
C787 O814 1.289 . S
O788 C787 1.235 . S
C789 C791 1.400 . S
C789 N792 1.351 . S
C789 C794 1.501 . S
C790 C791 1.387 . S
C790 N793 1.341 . S
C791 C789 1.400 . S
C791 C790 1.387 . S
N792 Co783 2.022 1_556 S
N792 C789 1.351 . S
N792 N793 1.365 . S
N793 C790 1.341 . S
N793 N792 1.365 . S
N793 H813 0.862 . S
C794 C789 1.501 . S
C794 H795 0.959 . S
C794 H796 0.961 . S
C794 H797 0.960 . S
H795 C794 0.959 . S
H796 C794 0.961 . S
H797 C794 0.960 . S
C798 N799 1.342 . S
C798 C802 1.401 . S
C798 C803 1.499 . S
N799 Co782 1.989 . S
N799 C798 1.342 . S
N799 N800 1.388 . S
N800 Co783 1.993 . S
N800 N799 1.388 . S
N800 C801 1.346 . S
C801 N800 1.346 . S
C801 C802 1.396 . S
C801 C811 1.510 . S
C802 C798 1.401 . S
C802 C801 1.396 . S
C803 C798 1.499 . S
C803 H804 0.959 . S
C803 H805 0.960 . S
C803 H806 0.961 . S
H804 C803 0.959 . S
H805 C803 0.960 . S
H806 C803 0.961 . S
O807 Co782 1.967 . S
O807 C815 1.258 . S
O808 Co783 1.941 . S
O808 C815 1.266 . S
H809 C811 0.959 . S
H810 C811 0.961 . S
C811 C801 1.510 . S
C811 H809 0.959 . S
C811 H810 0.961 . S
C811 H812 0.960 1_554 S
H812 C811 0.960 1_556 S
H813 N793 0.862 . S
O814 Co782 1.920 . S
O814 C787 1.289 . S
C815 O807 1.258 . S
C815 O808 1.266 . S
Co816 O819 1.970 . S
Co816 N833 1.989 . S
Co816 O841 1.967 . S
Co816 O848 1.920 . S
Co817 O820 1.966 . S
Co817 N826 2.022 . S
Co817 N834 1.993 . S
Co817 O842 1.941 . S
C818 O819 1.258 . S
C818 O820 1.263 . S
O819 Co816 1.970 . S
O819 C818 1.258 . S
O820 Co817 1.966 . S
O820 C818 1.263 . S
C821 O822 1.235 . S
C821 O848 1.289 . S
O822 C821 1.235 . S
C823 C825 1.400 . S
C823 N826 1.351 . S
C823 C828 1.501 . S
C824 C825 1.387 . S
C824 N827 1.341 . S
C825 C823 1.400 . S
C825 C824 1.387 . S
N826 Co817 2.022 . S
N826 C823 1.351 . S
N826 N827 1.365 . S
N827 C824 1.341 . S
N827 N826 1.365 . S
N827 H847 0.862 . S
C828 C823 1.501 . S
C828 H829 0.961 . S
C828 H830 0.961 . S
C828 H831 0.960 . S
H829 C828 0.961 . S
H830 C828 0.961 . S
H831 C828 0.960 . S
C832 N833 1.342 . S
C832 C836 1.401 . S
C832 C837 1.499 . S
N833 Co816 1.989 . S
N833 C832 1.342 . S
N833 N834 1.388 . S
N834 Co817 1.993 . S
N834 N833 1.388 . S
N834 C835 1.346 . S
C835 N834 1.346 . S
C835 C836 1.396 . S
C835 C845 1.510 . S
C836 C832 1.401 . S
C836 C835 1.396 . S
C837 C832 1.499 . S
C837 H838 0.959 . S
C837 H839 0.960 . S
C837 H840 0.961 . S
H838 C837 0.959 . S
H839 C837 0.960 . S
H840 C837 0.961 . S
O841 Co816 1.967 . S
O841 C849 1.258 . S
O842 Co817 1.941 . S
O842 C849 1.266 . S
H843 C845 0.959 . S
H844 C845 0.961 . S
C845 C835 1.510 . S
C845 H843 0.959 . S
C845 H844 0.961 . S
C845 H846 0.960 . S
H846 C845 0.960 . S
H847 N827 0.862 . S
O848 Co816 1.920 . S
O848 C821 1.289 . S
C849 O841 1.258 . S
C849 O842 1.266 . S
Co850 O853 1.970 . S
Co850 N867 1.989 . S
Co850 O875 1.967 . S
Co850 O882 1.920 . S
Co851 O854 1.966 . S
Co851 N860 2.022 1_554 S
Co851 N868 1.993 . S
Co851 O876 1.941 . S
C852 O853 1.258 . S
C852 O854 1.263 . S
O853 Co850 1.970 . S
O853 C852 1.258 . S
O854 Co851 1.966 . S
O854 C852 1.263 . S
C855 O856 1.235 . S
C855 O882 1.289 . S
O856 C855 1.235 . S
C857 C859 1.400 . S
C857 N860 1.351 . S
C857 C862 1.501 . S
C858 C859 1.387 . S
C858 N861 1.341 . S
C859 C857 1.400 . S
C859 C858 1.387 . S
N860 Co851 2.022 1_556 S
N860 C857 1.351 . S
N860 N861 1.365 . S
N861 C858 1.341 . S
N861 N860 1.365 . S
N861 H881 0.862 . S
C862 C857 1.501 . S
C862 H863 0.959 . S
C862 H864 0.961 . S
C862 H865 0.960 . S
H863 C862 0.959 . S
H864 C862 0.961 . S
H865 C862 0.960 . S
C866 N867 1.342 . S
C866 C870 1.401 . S
C866 C871 1.499 . S
N867 Co850 1.989 . S
N867 C866 1.342 . S
N867 N868 1.388 . S
N868 Co851 1.993 . S
N868 N867 1.388 . S
N868 C869 1.346 . S
C869 N868 1.346 . S
C869 C870 1.396 . S
C869 C879 1.510 . S
C870 C866 1.401 . S
C870 C869 1.396 . S
C871 C866 1.499 . S
C871 H872 0.959 . S
C871 H873 0.960 . S
C871 H874 0.961 . S
H872 C871 0.959 . S
H873 C871 0.960 . S
H874 C871 0.961 . S
O875 Co850 1.967 . S
O875 C883 1.258 . S
O876 Co851 1.941 . S
O876 C883 1.266 . S
H877 C879 0.959 . S
H878 C879 0.961 . S
C879 C869 1.510 . S
C879 H877 0.959 . S
C879 H878 0.961 . S
C879 H880 0.960 1_554 S
H880 C879 0.960 1_556 S
H881 N861 0.862 . S
O882 Co850 1.920 . S
O882 C855 1.289 . S
C883 O875 1.258 . S
C883 O876 1.266 . S
Co884 O887 1.970 . S
Co884 N901 1.989 . S
Co884 O909 1.967 . S
Co884 O916 1.920 1_556 S
Co885 O888 1.966 . S
Co885 N894 2.022 . S
Co885 N902 1.993 . S
Co885 O910 1.941 . S
C886 O887 1.258 . S
C886 O888 1.263 . S
O887 Co884 1.970 . S
O887 C886 1.258 . S
O888 Co885 1.966 . S
O888 C886 1.263 . S
C889 O890 1.235 . S
C889 O916 1.289 . S
O890 C889 1.235 . S
C891 C893 1.400 . S
C891 N894 1.351 . S
C891 C896 1.501 . S
C892 C893 1.387 . S
C892 N895 1.341 . S
C893 C891 1.400 . S
C893 C892 1.387 . S
N894 Co885 2.022 . S
N894 C891 1.351 . S
N894 N895 1.365 . S
N895 C892 1.341 . S
N895 N894 1.365 . S
N895 H915 0.862 . S
C896 C891 1.501 . S
C896 H897 0.961 . S
C896 H898 0.961 . S
C896 H899 0.960 . S
H897 C896 0.961 . S
H898 C896 0.961 . S
H899 C896 0.960 . S
C900 N901 1.342 . S
C900 C904 1.401 . S
C900 C905 1.499 1_556 S
N901 Co884 1.989 . S
N901 C900 1.342 . S
N901 N902 1.388 . S
N902 Co885 1.993 . S
N902 N901 1.388 . S
N902 C903 1.346 . S
C903 N902 1.346 . S
C903 C904 1.396 . S
C903 C913 1.510 . S
C904 C900 1.401 . S
C904 C903 1.396 . S
C905 C900 1.499 1_554 S
C905 H906 0.959 . S
C905 H907 0.960 . S
C905 H908 0.961 . S
H906 C905 0.959 . S
H907 C905 0.960 . S
H908 C905 0.961 . S
O909 Co884 1.967 . S
O909 C917 1.258 . S
O910 Co885 1.941 . S
O910 C917 1.266 . S
H911 C913 0.959 . S
H912 C913 0.961 . S
C913 C903 1.510 . S
C913 H911 0.959 . S
C913 H912 0.961 . S
C913 H914 0.960 . S
H914 C913 0.960 . S
H915 N895 0.862 . S
O916 Co884 1.920 1_554 S
O916 C889 1.289 . S
C917 O909 1.258 . S
C917 O910 1.266 . S
Co918 O921 1.970 . S
Co918 N935 1.989 . S
Co918 O943 1.967 . S
Co918 O950 1.920 . S
Co919 O922 1.966 . S
Co919 N928 2.022 . S
Co919 N936 1.993 . S
Co919 O944 1.941 . S
C920 O921 1.258 . S
C920 O922 1.263 . S
O921 Co918 1.970 . S
O921 C920 1.258 . S
O922 Co919 1.966 . S
O922 C920 1.263 . S
C923 O924 1.235 . S
C923 O950 1.289 . S
O924 C923 1.235 . S
C925 C927 1.400 . S
C925 N928 1.351 . S
C925 C930 1.501 . S
C926 C927 1.387 . S
C926 N929 1.341 . S
C927 C925 1.400 . S
C927 C926 1.387 . S
N928 Co919 2.022 . S
N928 C925 1.351 . S
N928 N929 1.365 . S
N929 C926 1.341 . S
N929 N928 1.365 . S
N929 H949 0.862 . S
C930 C925 1.501 . S
C930 H931 0.961 . S
C930 H932 0.961 . S
C930 H933 0.960 . S
H931 C930 0.961 . S
H932 C930 0.961 . S
H933 C930 0.960 . S
C934 N935 1.342 . S
C934 C938 1.401 . S
C934 C939 1.499 . S
N935 Co918 1.989 . S
N935 C934 1.342 . S
N935 N936 1.388 . S
N936 Co919 1.993 . S
N936 N935 1.388 . S
N936 C937 1.346 . S
C937 N936 1.346 . S
C937 C938 1.396 . S
C937 C947 1.510 . S
C938 C934 1.401 . S
C938 C937 1.396 . S
C939 C934 1.499 . S
C939 H940 0.959 . S
C939 H941 0.960 . S
C939 H942 0.961 . S
H940 C939 0.959 . S
H941 C939 0.960 . S
H942 C939 0.961 . S
O943 Co918 1.967 . S
O943 C951 1.258 . S
O944 Co919 1.941 . S
O944 C951 1.266 . S
H945 C947 0.959 . S
H946 C947 0.961 . S
C947 C937 1.510 . S
C947 H945 0.959 . S
C947 H946 0.961 . S
C947 H948 0.960 . S
H948 C947 0.960 . S
H949 N929 0.862 . S
O950 Co918 1.920 . S
O950 C923 1.289 . S
C951 O943 1.258 . S
C951 O944 1.266 . S
Co952 O955 1.970 . S
Co952 N969 1.989 . S
Co952 O977 1.967 . S
Co952 O984 1.920 . S
Co953 O956 1.966 . S
Co953 N962 2.022 . S
Co953 N970 1.993 . S
Co953 O978 1.941 . S
C954 O955 1.258 . S
C954 O956 1.263 . S
O955 Co952 1.970 . S
O955 C954 1.258 . S
O956 Co953 1.966 . S
O956 C954 1.263 . S
C957 O958 1.235 . S
C957 O984 1.289 . S
O958 C957 1.235 . S
C959 C961 1.400 . S
C959 N962 1.351 . S
C959 C964 1.501 . S
C960 C961 1.387 . S
C960 N963 1.341 . S
C961 C959 1.400 . S
C961 C960 1.387 . S
N962 Co953 2.022 . S
N962 C959 1.351 . S
N962 N963 1.365 . S
N963 C960 1.341 . S
N963 N962 1.365 . S
N963 H983 0.862 . S
C964 C959 1.501 . S
C964 H965 0.961 . S
C964 H966 0.961 . S
C964 H967 0.960 . S
H965 C964 0.961 . S
H966 C964 0.961 . S
H967 C964 0.960 . S
C968 N969 1.342 . S
C968 C972 1.401 . S
C968 C973 1.499 . S
N969 Co952 1.989 . S
N969 C968 1.342 . S
N969 N970 1.388 . S
N970 Co953 1.993 . S
N970 N969 1.388 . S
N970 C971 1.346 . S
C971 N970 1.346 . S
C971 C972 1.396 . S
C971 C981 1.510 . S
C972 C968 1.401 . S
C972 C971 1.396 . S
C973 C968 1.499 . S
C973 H974 0.959 . S
C973 H975 0.960 . S
C973 H976 0.961 . S
H974 C973 0.959 . S
H975 C973 0.960 . S
H976 C973 0.961 . S
O977 Co952 1.967 . S
O977 C985 1.258 . S
O978 Co953 1.941 . S
O978 C985 1.266 . S
H979 C981 0.959 . S
H980 C981 0.961 . S
C981 C971 1.510 . S
C981 H979 0.959 . S
C981 H980 0.961 . S
C981 H982 0.960 . S
H982 C981 0.960 . S
H983 N963 0.862 . S
O984 Co952 1.920 . S
O984 C957 1.289 . S
C985 O977 1.258 . S
C985 O978 1.266 . S
Co986 O989 1.970 . S
Co986 N1003 1.989 . S
Co986 O1011 1.967 . S
Co986 O1018 1.920 . S
Co987 O990 1.966 . S
Co987 N996 2.022 . S
Co987 N1004 1.993 . S
Co987 O1012 1.941 . S
C988 O989 1.258 . S
C988 O990 1.263 . S
O989 Co986 1.970 . S
O989 C988 1.258 . S
O990 Co987 1.966 . S
O990 C988 1.263 . S
C991 O992 1.235 . S
C991 O1018 1.289 . S
O992 C991 1.235 . S
C993 C995 1.400 . S
C993 N996 1.351 . S
C993 C998 1.501 . S
C994 C995 1.387 . S
C994 N997 1.341 . S
C995 C993 1.400 . S
C995 C994 1.387 . S
N996 Co987 2.022 . S
N996 C993 1.351 . S
N996 N997 1.365 . S
N997 C994 1.341 . S
N997 N996 1.365 . S
N997 H1017 0.862 . S
C998 C993 1.501 . S
C998 H999 0.961 . S
C998 H1000 0.961 . S
C998 H1001 0.960 . S
H999 C998 0.961 . S
H1000 C998 0.961 . S
H1001 C998 0.960 . S
C1002 N1003 1.342 . S
C1002 C1006 1.401 . S
C1002 C1007 1.499 . S
N1003 Co986 1.989 . S
N1003 C1002 1.342 . S
N1003 N1004 1.388 . S
N1004 Co987 1.993 . S
N1004 N1003 1.388 . S
N1004 C1005 1.346 . S
C1005 N1004 1.346 . S
C1005 C1006 1.396 . S
C1005 C1015 1.510 . S
C1006 C1002 1.401 . S
C1006 C1005 1.396 . S
C1007 C1002 1.499 . S
C1007 H1008 0.959 . S
C1007 H1009 0.960 . S
C1007 H1010 0.961 . S
H1008 C1007 0.959 . S
H1009 C1007 0.960 . S
H1010 C1007 0.961 . S
O1011 Co986 1.967 . S
O1011 C1019 1.258 . S
O1012 Co987 1.941 . S
O1012 C1019 1.266 . S
H1013 C1015 0.959 . S
H1014 C1015 0.961 . S
C1015 C1005 1.510 . S
C1015 H1013 0.959 . S
C1015 H1014 0.961 . S
C1015 H1016 0.960 . S
H1016 C1015 0.960 . S
H1017 N997 0.862 . S
O1018 Co986 1.920 . S
O1018 C991 1.289 . S
C1019 O1011 1.258 . S
C1019 O1012 1.266 . S
Co1020 O1023 1.970 . S
Co1020 N1037 1.989 . S
Co1020 O1045 1.967 . S
Co1020 O1052 1.920 1_554 S
Co1021 O1024 1.966 . S
Co1021 N1030 2.022 . S
Co1021 N1038 1.993 . S
Co1021 O1046 1.941 . S
C1022 O1023 1.258 . S
C1022 O1024 1.263 . S
O1023 Co1020 1.970 . S
O1023 C1022 1.258 . S
O1024 Co1021 1.966 . S
O1024 C1022 1.263 . S
C1025 O1026 1.235 . S
C1025 O1052 1.289 . S
O1026 C1025 1.235 . S
C1027 C1029 1.400 . S
C1027 N1030 1.351 . S
C1027 C1032 1.501 . S
C1028 C1029 1.387 . S
C1028 N1031 1.341 . S
C1029 C1027 1.400 . S
C1029 C1028 1.387 . S
N1030 Co1021 2.022 . S
N1030 C1027 1.351 . S
N1030 N1031 1.365 . S
N1031 C1028 1.341 . S
N1031 N1030 1.365 . S
N1031 H1051 0.862 . S
C1032 C1027 1.501 . S
C1032 H1033 0.961 . S
C1032 H1034 0.961 . S
C1032 H1035 0.960 . S
H1033 C1032 0.961 . S
H1034 C1032 0.961 . S
H1035 C1032 0.960 . S
C1036 N1037 1.342 . S
C1036 C1040 1.401 . S
C1036 C1041 1.499 1_554 S
N1037 Co1020 1.989 . S
N1037 C1036 1.342 . S
N1037 N1038 1.388 . S
N1038 Co1021 1.993 . S
N1038 N1037 1.388 . S
N1038 C1039 1.346 . S
C1039 N1038 1.346 . S
C1039 C1040 1.396 . S
C1039 C1049 1.510 . S
C1040 C1036 1.401 . S
C1040 C1039 1.396 . S
C1041 C1036 1.499 1_556 S
C1041 H1042 0.959 . S
C1041 H1043 0.960 . S
C1041 H1044 0.961 . S
H1042 C1041 0.959 . S
H1043 C1041 0.960 . S
H1044 C1041 0.961 . S
O1045 Co1020 1.967 . S
O1045 C1053 1.258 . S
O1046 Co1021 1.941 . S
O1046 C1053 1.266 . S
H1047 C1049 0.959 . S
H1048 C1049 0.961 . S
C1049 C1039 1.510 . S
C1049 H1047 0.959 . S
C1049 H1048 0.961 . S
C1049 H1050 0.960 . S
H1050 C1049 0.960 . S
H1051 N1031 0.862 . S
O1052 Co1020 1.920 1_556 S
O1052 C1025 1.289 . S
C1053 O1045 1.258 . S
C1053 O1046 1.266 . S
Co1054 O1057 1.970 . S
Co1054 N1071 1.989 . S
Co1054 O1079 1.967 . S
Co1054 O1086 1.920 . S
Co1055 O1058 1.966 . S
Co1055 N1064 2.022 1_556 S
Co1055 N1072 1.993 . S
Co1055 O1080 1.941 . S
C1056 O1057 1.258 . S
C1056 O1058 1.263 . S
O1057 Co1054 1.970 . S
O1057 C1056 1.258 . S
O1058 Co1055 1.966 . S
O1058 C1056 1.263 . S
C1059 O1060 1.235 . S
C1059 O1086 1.289 . S
O1060 C1059 1.235 . S
C1061 C1063 1.400 . S
C1061 N1064 1.351 . S
C1061 C1066 1.501 . S
C1062 C1063 1.387 . S
C1062 N1065 1.341 . S
C1063 C1061 1.400 . S
C1063 C1062 1.387 . S
N1064 Co1055 2.022 1_554 S
N1064 C1061 1.351 . S
N1064 N1065 1.365 . S
N1065 C1062 1.341 . S
N1065 N1064 1.365 . S
N1065 H1085 0.862 . S
C1066 C1061 1.501 . S
C1066 H1067 0.959 . S
C1066 H1068 0.961 . S
C1066 H1069 0.960 . S
H1067 C1066 0.959 . S
H1068 C1066 0.961 . S
H1069 C1066 0.960 . S
C1070 N1071 1.342 . S
C1070 C1074 1.401 . S
C1070 C1075 1.499 . S
N1071 Co1054 1.989 . S
N1071 C1070 1.342 . S
N1071 N1072 1.388 . S
N1072 Co1055 1.993 . S
N1072 N1071 1.388 . S
N1072 C1073 1.346 . S
C1073 N1072 1.346 . S
C1073 C1074 1.396 . S
C1073 C1083 1.510 . S
C1074 C1070 1.401 . S
C1074 C1073 1.396 . S
C1075 C1070 1.499 . S
C1075 H1076 0.959 . S
C1075 H1077 0.960 . S
C1075 H1078 0.961 . S
H1076 C1075 0.959 . S
H1077 C1075 0.960 . S
H1078 C1075 0.961 . S
O1079 Co1054 1.967 . S
O1079 C1087 1.258 . S
O1080 Co1055 1.941 . S
O1080 C1087 1.266 . S
H1081 C1083 0.959 . S
H1082 C1083 0.961 . S
C1083 C1073 1.510 . S
C1083 H1081 0.959 . S
C1083 H1082 0.961 . S
C1083 H1084 0.960 1_556 S
H1084 C1083 0.960 1_554 S
H1085 N1065 0.862 . S
O1086 Co1054 1.920 . S
O1086 C1059 1.289 . S
C1087 O1079 1.258 . S
C1087 O1080 1.266 . S
H1088 C1100 0.930 . S
H1089 C1102 0.930 . S
H1090 C1103 0.930 . S
H1091 C1107 0.959 . S
H1092 C1107 0.959 . S
H1093 C1107 0.961 . S
H1094 C1108 0.960 . S
H1095 C1108 0.961 . S
H1096 C1108 0.959 . S
H1097 C1111 0.929 . S
H1098 C1112 0.931 . S
H1099 C1114 0.930 . S
C1100 H1088 0.930 . S
C1100 C1101 1.399 . S
C1100 C1105 1.399 . S
C1101 C1100 1.399 . S
C1101 C1102 1.376 . S
C1102 H1089 0.930 . S
C1102 C1101 1.376 . S
C1102 C1103 1.388 . S
C1103 H1090 0.930 . S
C1103 C1102 1.388 . S
C1103 C1104 1.390 . S
C1104 C1103 1.390 . S
C1104 C1105 1.394 . S
C1104 C1110 1.465 . S
C1105 C1100 1.399 . S
C1105 C1104 1.394 . S
C1105 C1106 1.516 . S
C1106 C1105 1.516 . S
C1106 C1107 1.502 . S
C1106 C1108 1.561 . S
C1106 C1109 1.526 . S
C1107 H1091 0.959 . S
C1107 H1092 0.959 . S
C1107 H1093 0.961 . S
C1107 C1106 1.502 . S
C1108 H1094 0.960 . S
C1108 H1095 0.961 . S
C1108 H1096 0.959 . S
C1108 C1106 1.561 . S
C1109 C1106 1.526 . S
C1109 C1110 1.396 . S
C1109 C1114 1.390 . S
C1110 C1104 1.465 . S
C1110 C1109 1.396 . S
C1110 C1111 1.399 . S
C1111 H1097 0.929 . S
C1111 C1110 1.399 . S
C1111 C1112 1.385 . S
C1112 H1098 0.931 . S
C1112 C1111 1.385 . S
C1112 C1113 1.389 . S
C1113 C1112 1.389 . S
C1113 C1114 1.387 . S
C1114 H1099 0.930 . S
C1114 C1109 1.390 . S
C1114 C1113 1.387 . S
H1115 C1127 0.930 . S
H1116 C1129 0.930 . S
H1117 C1130 0.930 . S
H1118 C1134 0.959 . S
H1119 C1134 0.959 . S
H1120 C1134 0.961 . S
H1121 C1135 0.960 . S
H1122 C1135 0.961 . S
H1123 C1135 0.959 . S
H1124 C1138 0.929 . S
H1125 C1139 0.931 . S
H1126 C1141 0.930 . S
C1127 H1115 0.930 . S
C1127 C1128 1.399 . S
C1127 C1132 1.399 . S
C1128 C1127 1.399 . S
C1128 C1129 1.376 . S
C1129 H1116 0.930 . S
C1129 C1128 1.376 . S
C1129 C1130 1.388 . S
C1130 H1117 0.930 . S
C1130 C1129 1.388 . S
C1130 C1131 1.390 . S
C1131 C1130 1.390 . S
C1131 C1132 1.394 . S
C1131 C1137 1.465 . S
C1132 C1127 1.399 . S
C1132 C1131 1.394 . S
C1132 C1133 1.516 . S
C1133 C1132 1.516 . S
C1133 C1134 1.502 . S
C1133 C1135 1.561 . S
C1133 C1136 1.526 . S
C1134 H1118 0.959 . S
C1134 H1119 0.959 . S
C1134 H1120 0.961 . S
C1134 C1133 1.502 . S
C1135 H1121 0.960 . S
C1135 H1122 0.961 . S
C1135 H1123 0.959 . S
C1135 C1133 1.561 . S
C1136 C1133 1.526 . S
C1136 C1137 1.396 . S
C1136 C1141 1.390 1_556 S
C1137 C1131 1.465 . S
C1137 C1136 1.396 . S
C1137 C1138 1.399 . S
C1138 H1124 0.929 . S
C1138 C1137 1.399 . S
C1138 C1139 1.385 1_556 S
C1139 H1125 0.931 . S
C1139 C1138 1.385 1_554 S
C1139 C1140 1.389 . S
C1140 C1139 1.389 . S
C1140 C1141 1.387 . S
C1141 H1126 0.930 . S
C1141 C1136 1.390 1_554 S
C1141 C1140 1.387 . S
H1142 C1154 0.930 . S
H1143 C1156 0.930 . S
H1144 C1157 0.930 . S
H1145 C1161 0.959 . S
H1146 C1161 0.959 . S
H1147 C1161 0.961 . S
H1148 C1162 0.960 . S
H1149 C1162 0.961 . S
H1150 C1162 0.959 . S
H1151 C1165 0.929 . S
H1152 C1166 0.931 . S
H1153 C1168 0.930 . S
C1154 H1142 0.930 . S
C1154 C1155 1.399 . S
C1154 C1159 1.399 1_556 S
C1155 C1154 1.399 . S
C1155 C1156 1.376 . S
C1156 H1143 0.930 . S
C1156 C1155 1.376 . S
C1156 C1157 1.388 1_556 S
C1157 H1144 0.930 . S
C1157 C1156 1.388 1_554 S
C1157 C1158 1.390 . S
C1158 C1157 1.390 . S
C1158 C1159 1.394 . S
C1158 C1164 1.465 . S
C1159 C1154 1.399 1_554 S
C1159 C1158 1.394 . S
C1159 C1160 1.516 . S
C1160 C1159 1.516 . S
C1160 C1161 1.502 . S
C1160 C1162 1.561 . S
C1160 C1163 1.526 . S
C1161 H1145 0.959 . S
C1161 H1146 0.959 . S
C1161 H1147 0.961 . S
C1161 C1160 1.502 . S
C1162 H1148 0.960 . S
C1162 H1149 0.961 . S
C1162 H1150 0.959 . S
C1162 C1160 1.561 . S
C1163 C1160 1.526 . S
C1163 C1164 1.396 . S
C1163 C1168 1.390 . S
C1164 C1158 1.465 . S
C1164 C1163 1.396 . S
C1164 C1165 1.399 . S
C1165 H1151 0.929 . S
C1165 C1164 1.399 . S
C1165 C1166 1.385 . S
C1166 H1152 0.931 . S
C1166 C1165 1.385 . S
C1166 C1167 1.389 . S
C1167 C1166 1.389 . S
C1167 C1168 1.387 . S
C1168 H1153 0.930 . S
C1168 C1163 1.390 . S
C1168 C1167 1.387 . S
H1169 C1181 0.930 . S
H1170 C1183 0.930 . S
H1171 C1184 0.930 . S
H1172 C1188 0.959 . S
H1173 C1188 0.959 . S
H1174 C1188 0.961 . S
H1175 C1189 0.960 . S
H1176 C1189 0.961 . S
H1177 C1189 0.959 . S
H1178 C1192 0.929 . S
H1179 C1193 0.931 . S
H1180 C1195 0.930 . S
C1181 H1169 0.930 . S
C1181 C1182 1.399 . S
C1181 C1186 1.399 . S
C1182 C1181 1.399 . S
C1182 C1183 1.376 . S
C1183 H1170 0.930 . S
C1183 C1182 1.376 . S
C1183 C1184 1.388 . S
C1184 H1171 0.930 . S
C1184 C1183 1.388 . S
C1184 C1185 1.390 . S
C1185 C1184 1.390 . S
C1185 C1186 1.394 . S
C1185 C1191 1.465 . S
C1186 C1181 1.399 . S
C1186 C1185 1.394 . S
C1186 C1187 1.516 . S
C1187 C1186 1.516 . S
C1187 C1188 1.502 . S
C1187 C1189 1.561 . S
C1187 C1190 1.526 . S
C1188 H1172 0.959 . S
C1188 H1173 0.959 . S
C1188 H1174 0.961 . S
C1188 C1187 1.502 . S
C1189 H1175 0.960 . S
C1189 H1176 0.961 . S
C1189 H1177 0.959 . S
C1189 C1187 1.561 . S
C1190 C1187 1.526 . S
C1190 C1191 1.396 . S
C1190 C1195 1.390 . S
C1191 C1185 1.465 . S
C1191 C1190 1.396 . S
C1191 C1192 1.399 . S
C1192 H1178 0.929 . S
C1192 C1191 1.399 . S
C1192 C1193 1.385 . S
C1193 H1179 0.931 . S
C1193 C1192 1.385 . S
C1193 C1194 1.389 . S
C1194 C1193 1.389 . S
C1194 C1195 1.387 . S
C1195 H1180 0.930 . S
C1195 C1190 1.390 . S
C1195 C1194 1.387 . S
H1196 C1208 0.930 . S
H1197 C1210 0.930 . S
H1198 C1211 0.930 . S
H1199 C1215 0.959 . S
H1200 C1215 0.959 . S
H1201 C1215 0.961 . S
H1202 C1216 0.960 . S
H1203 C1216 0.961 . S
H1204 C1216 0.959 . S
H1205 C1219 0.929 . S
H1206 C1220 0.931 . S
H1207 C1222 0.930 . S
C1208 H1196 0.930 . S
C1208 C1209 1.399 . S
C1208 C1213 1.399 . S
C1209 C1208 1.399 . S
C1209 C1210 1.376 . S
C1210 H1197 0.930 . S
C1210 C1209 1.376 . S
C1210 C1211 1.388 . S
C1211 H1198 0.930 . S
C1211 C1210 1.388 . S
C1211 C1212 1.390 . S
C1212 C1211 1.390 . S
C1212 C1213 1.394 . S
C1212 C1218 1.465 . S
C1213 C1208 1.399 . S
C1213 C1212 1.394 . S
C1213 C1214 1.516 . S
C1214 C1213 1.516 . S
C1214 C1215 1.502 . S
C1214 C1216 1.561 . S
C1214 C1217 1.526 . S
C1215 H1199 0.959 . S
C1215 H1200 0.959 . S
C1215 H1201 0.961 . S
C1215 C1214 1.502 . S
C1216 H1202 0.960 . S
C1216 H1203 0.961 . S
C1216 H1204 0.959 . S
C1216 C1214 1.561 . S
C1217 C1214 1.526 . S
C1217 C1218 1.396 . S
C1217 C1222 1.390 . S
C1218 C1212 1.465 . S
C1218 C1217 1.396 . S
C1218 C1219 1.399 . S
C1219 H1205 0.929 . S
C1219 C1218 1.399 . S
C1219 C1220 1.385 . S
C1220 H1206 0.931 . S
C1220 C1219 1.385 . S
C1220 C1221 1.389 . S
C1221 C1220 1.389 . S
C1221 C1222 1.387 . S
C1222 H1207 0.930 . S
C1222 C1217 1.390 . S
C1222 C1221 1.387 . S
H1223 C1235 0.930 . S
H1224 C1237 0.930 . S
H1225 C1238 0.930 . S
H1226 C1242 0.959 . S
H1227 C1242 0.959 . S
H1228 C1242 0.961 . S
H1229 C1243 0.960 . S
H1230 C1243 0.961 . S
H1231 C1243 0.959 . S
H1232 C1246 0.929 . S
H1233 C1247 0.931 . S
H1234 C1249 0.930 . S
C1235 H1223 0.930 . S
C1235 C1236 1.399 . S
C1235 C1240 1.399 . S
C1236 C1235 1.399 . S
C1236 C1237 1.376 . S
C1237 H1224 0.930 . S
C1237 C1236 1.376 . S
C1237 C1238 1.388 . S
C1238 H1225 0.930 . S
C1238 C1237 1.388 . S
C1238 C1239 1.390 . S
C1239 C1238 1.390 . S
C1239 C1240 1.394 . S
C1239 C1245 1.465 . S
C1240 C1235 1.399 . S
C1240 C1239 1.394 . S
C1240 C1241 1.516 . S
C1241 C1240 1.516 . S
C1241 C1242 1.502 . S
C1241 C1243 1.561 . S
C1241 C1244 1.526 . S
C1242 H1226 0.959 . S
C1242 H1227 0.959 . S
C1242 H1228 0.961 . S
C1242 C1241 1.502 . S
C1243 H1229 0.960 . S
C1243 H1230 0.961 . S
C1243 H1231 0.959 . S
C1243 C1241 1.561 . S
C1244 C1241 1.526 . S
C1244 C1245 1.396 . S
C1244 C1249 1.390 . S
C1245 C1239 1.465 . S
C1245 C1244 1.396 . S
C1245 C1246 1.399 . S
C1246 H1232 0.929 . S
C1246 C1245 1.399 . S
C1246 C1247 1.385 . S
C1247 H1233 0.931 . S
C1247 C1246 1.385 . S
C1247 C1248 1.389 . S
C1248 C1247 1.389 . S
C1248 C1249 1.387 . S
C1249 H1234 0.930 . S
C1249 C1244 1.390 . S
C1249 C1248 1.387 . S
H1250 C1262 0.930 . S
H1251 C1264 0.930 . S
H1252 C1265 0.930 . S
H1253 C1269 0.959 . S
H1254 C1269 0.959 . S
H1255 C1269 0.961 . S
H1256 C1270 0.960 . S
H1257 C1270 0.961 . S
H1258 C1270 0.959 . S
H1259 C1273 0.929 . S
H1260 C1274 0.931 . S
H1261 C1276 0.930 . S
C1262 H1250 0.930 . S
C1262 C1263 1.399 . S
C1262 C1267 1.399 . S
C1263 C1262 1.399 . S
C1263 C1264 1.376 . S
C1264 H1251 0.930 . S
C1264 C1263 1.376 . S
C1264 C1265 1.388 . S
C1265 H1252 0.930 . S
C1265 C1264 1.388 . S
C1265 C1266 1.390 . S
C1266 C1265 1.390 . S
C1266 C1267 1.394 . S
C1266 C1272 1.465 . S
C1267 C1262 1.399 . S
C1267 C1266 1.394 . S
C1267 C1268 1.516 . S
C1268 C1267 1.516 . S
C1268 C1269 1.502 . S
C1268 C1270 1.561 . S
C1268 C1271 1.526 . S
C1269 H1253 0.959 . S
C1269 H1254 0.959 . S
C1269 H1255 0.961 . S
C1269 C1268 1.502 . S
C1270 H1256 0.960 . S
C1270 H1257 0.961 . S
C1270 H1258 0.959 . S
C1270 C1268 1.561 . S
C1271 C1268 1.526 . S
C1271 C1272 1.396 . S
C1271 C1276 1.390 1_556 S
C1272 C1266 1.465 . S
C1272 C1271 1.396 . S
C1272 C1273 1.399 . S
C1273 H1259 0.929 . S
C1273 C1272 1.399 . S
C1273 C1274 1.385 1_556 S
C1274 H1260 0.931 . S
C1274 C1273 1.385 1_554 S
C1274 C1275 1.389 . S
C1275 C1274 1.389 . S
C1275 C1276 1.387 . S
C1276 H1261 0.930 . S
C1276 C1271 1.390 1_554 S
C1276 C1275 1.387 . S
H1277 C1289 0.930 1_556 S
H1278 C1291 0.930 . S
H1279 C1292 0.930 . S
H1280 C1296 0.959 . S
H1281 C1296 0.959 . S
H1282 C1296 0.961 . S
H1283 C1297 0.960 . S
H1284 C1297 0.961 . S
H1285 C1297 0.959 . S
H1286 C1300 0.929 . S
H1287 C1301 0.931 . S
H1288 C1303 0.930 . S
C1289 H1277 0.930 1_554 S
C1289 C1290 1.399 1_554 S
C1289 C1294 1.399 . S
C1290 C1289 1.399 1_556 S
C1290 C1291 1.376 . S
C1291 H1278 0.930 . S
C1291 C1290 1.376 . S
C1291 C1292 1.388 1_556 S
C1292 H1279 0.930 . S
C1292 C1291 1.388 1_554 S
C1292 C1293 1.390 . S
C1293 C1292 1.390 . S
C1293 C1294 1.394 . S
C1293 C1299 1.465 . S
C1294 C1289 1.399 . S
C1294 C1293 1.394 . S
C1294 C1295 1.516 . S
C1295 C1294 1.516 . S
C1295 C1296 1.502 . S
C1295 C1297 1.561 . S
C1295 C1298 1.526 . S
C1296 H1280 0.959 . S
C1296 H1281 0.959 . S
C1296 H1282 0.961 . S
C1296 C1295 1.502 . S
C1297 H1283 0.960 . S
C1297 H1284 0.961 . S
C1297 H1285 0.959 . S
C1297 C1295 1.561 . S
C1298 C1295 1.526 . S
C1298 C1299 1.396 . S
C1298 C1303 1.390 . S
C1299 C1293 1.465 . S
C1299 C1298 1.396 . S
C1299 C1300 1.399 . S
C1300 H1286 0.929 . S
C1300 C1299 1.399 . S
C1300 C1301 1.385 . S
C1301 H1287 0.931 . S
C1301 C1300 1.385 . S
C1301 C1302 1.389 . S
C1302 C1301 1.389 . S
C1302 C1303 1.387 . S
C1303 H1288 0.930 . S
C1303 C1298 1.390 . S
C1303 C1302 1.387 . S
H1304 C1316 0.930 . S
H1305 C1318 0.930 . S
H1306 C1319 0.930 . S
H1307 C1323 0.959 . S
H1308 C1323 0.959 . S
H1309 C1323 0.961 . S
H1310 C1324 0.960 . S
H1311 C1324 0.961 . S
H1312 C1324 0.959 . S
H1313 C1327 0.929 . S
H1314 C1328 0.931 . S
H1315 C1330 0.930 . S
C1316 H1304 0.930 . S
C1316 C1317 1.399 . S
C1316 C1321 1.399 . S
C1317 C1316 1.399 . S
C1317 C1318 1.376 . S
C1318 H1305 0.930 . S
C1318 C1317 1.376 . S
C1318 C1319 1.388 . S
C1319 H1306 0.930 . S
C1319 C1318 1.388 . S
C1319 C1320 1.390 . S
C1320 C1319 1.390 . S
C1320 C1321 1.394 . S
C1320 C1326 1.465 . S
C1321 C1316 1.399 . S
C1321 C1320 1.394 . S
C1321 C1322 1.516 . S
C1322 C1321 1.516 . S
C1322 C1323 1.502 . S
C1322 C1324 1.561 . S
C1322 C1325 1.526 . S
C1323 H1307 0.959 . S
C1323 H1308 0.959 . S
C1323 H1309 0.961 . S
C1323 C1322 1.502 . S
C1324 H1310 0.960 . S
C1324 H1311 0.961 . S
C1324 H1312 0.959 . S
C1324 C1322 1.561 . S
C1325 C1322 1.526 . S
C1325 C1326 1.396 . S
C1325 C1330 1.390 . S
C1326 C1320 1.465 . S
C1326 C1325 1.396 . S
C1326 C1327 1.399 . S
C1327 H1313 0.929 . S
C1327 C1326 1.399 . S
C1327 C1328 1.385 . S
C1328 H1314 0.931 . S
C1328 C1327 1.385 . S
C1328 C1329 1.389 . S
C1329 C1328 1.389 . S
C1329 C1330 1.387 . S
C1330 H1315 0.930 . S
C1330 C1325 1.390 . S
C1330 C1329 1.387 . S
H1331 C1343 0.930 1_556 S
H1332 C1345 0.930 . S
H1333 C1346 0.930 . S
H1334 C1350 0.959 . S
H1335 C1350 0.959 . S
H1336 C1350 0.961 . S
H1337 C1351 0.960 . S
H1338 C1351 0.961 . S
H1339 C1351 0.959 . S
H1340 C1354 0.929 . S
H1341 C1355 0.931 . S
H1342 C1357 0.930 . S
C1343 H1331 0.930 1_554 S
C1343 C1344 1.399 1_554 S
C1343 C1348 1.399 . S
C1344 C1343 1.399 1_556 S
C1344 C1345 1.376 . S
C1345 H1332 0.930 . S
C1345 C1344 1.376 . S
C1345 C1346 1.388 1_556 S
C1346 H1333 0.930 . S
C1346 C1345 1.388 1_554 S
C1346 C1347 1.390 . S
C1347 C1346 1.390 . S
C1347 C1348 1.394 . S
C1347 C1353 1.465 . S
C1348 C1343 1.399 . S
C1348 C1347 1.394 . S
C1348 C1349 1.516 . S
C1349 C1348 1.516 . S
C1349 C1350 1.502 . S
C1349 C1351 1.561 . S
C1349 C1352 1.526 . S
C1350 H1334 0.959 . S
C1350 H1335 0.959 . S
C1350 H1336 0.961 . S
C1350 C1349 1.502 . S
C1351 H1337 0.960 . S
C1351 H1338 0.961 . S
C1351 H1339 0.959 . S
C1351 C1349 1.561 . S
C1352 C1349 1.526 . S
C1352 C1353 1.396 . S
C1352 C1357 1.390 . S
C1353 C1347 1.465 . S
C1353 C1352 1.396 . S
C1353 C1354 1.399 . S
C1354 H1340 0.929 . S
C1354 C1353 1.399 . S
C1354 C1355 1.385 . S
C1355 H1341 0.931 . S
C1355 C1354 1.385 . S
C1355 C1356 1.389 . S
C1356 C1355 1.389 . S
C1356 C1357 1.387 . S
C1357 H1342 0.930 . S
C1357 C1352 1.390 . S
C1357 C1356 1.387 . S
H1358 C1370 0.930 . S
H1359 C1372 0.930 . S
H1360 C1373 0.930 . S
H1361 C1377 0.959 . S
H1362 C1377 0.959 . S
H1363 C1377 0.961 . S
H1364 C1378 0.960 . S
H1365 C1378 0.961 . S
H1366 C1378 0.959 . S
H1367 C1381 0.929 . S
H1368 C1382 0.931 . S
H1369 C1384 0.930 . S
C1370 H1358 0.930 . S
C1370 C1371 1.399 . S
C1370 C1375 1.399 . S
C1371 C1370 1.399 . S
C1371 C1372 1.376 . S
C1372 H1359 0.930 . S
C1372 C1371 1.376 . S
C1372 C1373 1.388 . S
C1373 H1360 0.930 . S
C1373 C1372 1.388 . S
C1373 C1374 1.390 . S
C1374 C1373 1.390 . S
C1374 C1375 1.394 . S
C1374 C1380 1.465 . S
C1375 C1370 1.399 . S
C1375 C1374 1.394 . S
C1375 C1376 1.516 . S
C1376 C1375 1.516 . S
C1376 C1377 1.502 . S
C1376 C1378 1.561 . S
C1376 C1379 1.526 . S
C1377 H1361 0.959 . S
C1377 H1362 0.959 . S
C1377 H1363 0.961 . S
C1377 C1376 1.502 . S
C1378 H1364 0.960 . S
C1378 H1365 0.961 . S
C1378 H1366 0.959 . S
C1378 C1376 1.561 . S
C1379 C1376 1.526 . S
C1379 C1380 1.396 . S
C1379 C1384 1.390 1_556 S
C1380 C1374 1.465 . S
C1380 C1379 1.396 . S
C1380 C1381 1.399 . S
C1381 H1367 0.929 . S
C1381 C1380 1.399 . S
C1381 C1382 1.385 1_556 S
C1382 H1368 0.931 . S
C1382 C1381 1.385 1_554 S
C1382 C1383 1.389 . S
C1383 C1382 1.389 . S
C1383 C1384 1.387 . S
C1384 H1369 0.930 . S
C1384 C1379 1.390 1_554 S
C1384 C1383 1.387 . S
H1385 C1397 0.930 . S
H1386 C1399 0.930 . S
H1387 C1400 0.930 . S
H1388 C1404 0.959 . S
H1389 C1404 0.959 . S
H1390 C1404 0.961 . S
H1391 C1405 0.960 . S
H1392 C1405 0.961 . S
H1393 C1405 0.959 . S
H1394 C1408 0.929 . S
H1395 C1409 0.931 . S
H1396 C1411 0.930 . S
C1397 H1385 0.930 . S
C1397 C1398 1.399 . S
C1397 C1402 1.399 . S
C1398 C1397 1.399 . S
C1398 C1399 1.376 . S
C1399 H1386 0.930 . S
C1399 C1398 1.376 . S
C1399 C1400 1.388 . S
C1400 H1387 0.930 . S
C1400 C1399 1.388 . S
C1400 C1401 1.390 . S
C1401 C1400 1.390 . S
C1401 C1402 1.394 . S
C1401 C1407 1.465 . S
C1402 C1397 1.399 . S
C1402 C1401 1.394 . S
C1402 C1403 1.516 . S
C1403 C1402 1.516 . S
C1403 C1404 1.502 . S
C1403 C1405 1.561 . S
C1403 C1406 1.526 . S
C1404 H1388 0.959 . S
C1404 H1389 0.959 . S
C1404 H1390 0.961 . S
C1404 C1403 1.502 . S
C1405 H1391 0.960 . S
C1405 H1392 0.961 . S
C1405 H1393 0.959 . S
C1405 C1403 1.561 . S
C1406 C1403 1.526 . S
C1406 C1407 1.396 . S
C1406 C1411 1.390 . S
C1407 C1401 1.465 . S
C1407 C1406 1.396 . S
C1407 C1408 1.399 . S
C1408 H1394 0.929 . S
C1408 C1407 1.399 . S
C1408 C1409 1.385 . S
C1409 H1395 0.931 . S
C1409 C1408 1.385 . S
C1409 C1410 1.389 . S
C1410 C1409 1.389 . S
C1410 C1411 1.387 . S
C1411 H1396 0.930 . S
C1411 C1406 1.390 . S
C1411 C1410 1.387 . S
H1412 C1424 0.930 . S
H1413 C1426 0.930 . S
H1414 C1427 0.930 . S
H1415 C1431 0.959 . S
H1416 C1431 0.959 . S
H1417 C1431 0.961 . S
H1418 C1432 0.960 . S
H1419 C1432 0.961 . S
H1420 C1432 0.959 . S
H1421 C1435 0.929 . S
H1422 C1436 0.931 . S
H1423 C1438 0.930 . S
C1424 H1412 0.930 . S
C1424 C1425 1.399 . S
C1424 C1429 1.399 . S
C1425 C1424 1.399 . S
C1425 C1426 1.376 . S
C1426 H1413 0.930 . S
C1426 C1425 1.376 . S
C1426 C1427 1.388 . S
C1427 H1414 0.930 . S
C1427 C1426 1.388 . S
C1427 C1428 1.390 . S
C1428 C1427 1.390 . S
C1428 C1429 1.394 . S
C1428 C1434 1.465 . S
C1429 C1424 1.399 . S
C1429 C1428 1.394 . S
C1429 C1430 1.516 . S
C1430 C1429 1.516 . S
C1430 C1431 1.502 . S
C1430 C1432 1.561 . S
C1430 C1433 1.526 . S
C1431 H1415 0.959 . S
C1431 H1416 0.959 . S
C1431 H1417 0.961 . S
C1431 C1430 1.502 . S
C1432 H1418 0.960 . S
C1432 H1419 0.961 . S
C1432 H1420 0.959 . S
C1432 C1430 1.561 . S
C1433 C1430 1.526 . S
C1433 C1434 1.396 . S
C1433 C1438 1.390 . S
C1434 C1428 1.465 . S
C1434 C1433 1.396 . S
C1434 C1435 1.399 . S
C1435 H1421 0.929 . S
C1435 C1434 1.399 . S
C1435 C1436 1.385 . S
C1436 H1422 0.931 . S
C1436 C1435 1.385 . S
C1436 C1437 1.389 . S
C1437 C1436 1.389 . S
C1437 C1438 1.387 . S
C1438 H1423 0.930 . S
C1438 C1433 1.390 . S
C1438 C1437 1.387 . S
H1439 C1451 0.930 . S
H1440 C1453 0.930 . S
H1441 C1454 0.930 . S
H1442 C1458 0.959 . S
H1443 C1458 0.959 . S
H1444 C1458 0.961 . S
H1445 C1459 0.960 . S
H1446 C1459 0.961 . S
H1447 C1459 0.959 . S
H1448 C1462 0.929 . S
H1449 C1463 0.931 . S
H1450 C1465 0.930 . S
C1451 H1439 0.930 . S
C1451 C1452 1.399 . S
C1451 C1456 1.399 . S
C1452 C1451 1.399 . S
C1452 C1453 1.376 . S
C1453 H1440 0.930 . S
C1453 C1452 1.376 . S
C1453 C1454 1.388 . S
C1454 H1441 0.930 . S
C1454 C1453 1.388 . S
C1454 C1455 1.390 . S
C1455 C1454 1.390 . S
C1455 C1456 1.394 . S
C1455 C1461 1.465 . S
C1456 C1451 1.399 . S
C1456 C1455 1.394 . S
C1456 C1457 1.516 . S
C1457 C1456 1.516 . S
C1457 C1458 1.502 . S
C1457 C1459 1.561 . S
C1457 C1460 1.526 . S
C1458 H1442 0.959 . S
C1458 H1443 0.959 . S
C1458 H1444 0.961 . S
C1458 C1457 1.502 . S
C1459 H1445 0.960 . S
C1459 H1446 0.961 . S
C1459 H1447 0.959 . S
C1459 C1457 1.561 . S
C1460 C1457 1.526 . S
C1460 C1461 1.396 . S
C1460 C1465 1.390 . S
C1461 C1455 1.465 . S
C1461 C1460 1.396 . S
C1461 C1462 1.399 . S
C1462 H1448 0.929 . S
C1462 C1461 1.399 . S
C1462 C1463 1.385 . S
C1463 H1449 0.931 . S
C1463 C1462 1.385 . S
C1463 C1464 1.389 . S
C1464 C1463 1.389 . S
C1464 C1465 1.387 . S
C1465 H1450 0.930 . S
C1465 C1460 1.390 . S
C1465 C1464 1.387 . S
H1466 C1478 0.930 . S
H1467 C1480 0.930 . S
H1468 C1481 0.930 . S
H1469 C1485 0.959 . S
H1470 C1485 0.959 . S
H1471 C1485 0.961 . S
H1472 C1486 0.960 . S
H1473 C1486 0.961 . S
H1474 C1486 0.959 . S
H1475 C1489 0.929 . S
H1476 C1490 0.931 . S
H1477 C1492 0.930 . S
C1478 H1466 0.930 . S
C1478 C1479 1.399 . S
C1478 C1483 1.399 1_556 S
C1479 C1478 1.399 . S
C1479 C1480 1.376 . S
C1480 H1467 0.930 . S
C1480 C1479 1.376 . S
C1480 C1481 1.388 1_556 S
C1481 H1468 0.930 . S
C1481 C1480 1.388 1_554 S
C1481 C1482 1.390 . S
C1482 C1481 1.390 . S
C1482 C1483 1.394 . S
C1482 C1488 1.465 . S
C1483 C1478 1.399 1_554 S
C1483 C1482 1.394 . S
C1483 C1484 1.516 . S
C1484 C1483 1.516 . S
C1484 C1485 1.502 . S
C1484 C1486 1.561 . S
C1484 C1487 1.526 . S
C1485 H1469 0.959 . S
C1485 H1470 0.959 . S
C1485 H1471 0.961 . S
C1485 C1484 1.502 . S
C1486 H1472 0.960 . S
C1486 H1473 0.961 . S
C1486 H1474 0.959 . S
C1486 C1484 1.561 . S
C1487 C1484 1.526 . S
C1487 C1488 1.396 . S
C1487 C1492 1.390 . S
C1488 C1482 1.465 . S
C1488 C1487 1.396 . S
C1488 C1489 1.399 . S
C1489 H1475 0.929 . S
C1489 C1488 1.399 . S
C1489 C1490 1.385 . S
C1490 H1476 0.931 . S
C1490 C1489 1.385 . S
C1490 C1491 1.389 . S
C1491 C1490 1.389 . S
C1491 C1492 1.387 . S
C1492 H1477 0.930 . S
C1492 C1487 1.390 . S
C1492 C1491 1.387 . S
H1493 C1505 0.930 1_554 S
H1494 C1507 0.930 . S
H1495 C1508 0.930 . S
H1496 C1512 0.959 . S
H1497 C1512 0.959 . S
H1498 C1512 0.961 . S
H1499 C1513 0.960 . S
H1500 C1513 0.961 . S
H1501 C1513 0.959 . S
H1502 C1516 0.929 . S
H1503 C1517 0.931 . S
H1504 C1519 0.930 . S
C1505 H1493 0.930 1_556 S
C1505 C1506 1.399 1_556 S
C1505 C1510 1.399 . S
C1506 C1505 1.399 1_554 S
C1506 C1507 1.376 . S
C1507 H1494 0.930 . S
C1507 C1506 1.376 . S
C1507 C1508 1.388 1_554 S
C1508 H1495 0.930 . S
C1508 C1507 1.388 1_556 S
C1508 C1509 1.390 . S
C1509 C1508 1.390 . S
C1509 C1510 1.394 . S
C1509 C1515 1.465 . S
C1510 C1505 1.399 . S
C1510 C1509 1.394 . S
C1510 C1511 1.516 . S
C1511 C1510 1.516 . S
C1511 C1512 1.502 . S
C1511 C1513 1.561 . S
C1511 C1514 1.526 . S
C1512 H1496 0.959 . S
C1512 H1497 0.959 . S
C1512 H1498 0.961 . S
C1512 C1511 1.502 . S
C1513 H1499 0.960 . S
C1513 H1500 0.961 . S
C1513 H1501 0.959 . S
C1513 C1511 1.561 . S
C1514 C1511 1.526 . S
C1514 C1515 1.396 . S
C1514 C1519 1.390 . S
C1515 C1509 1.465 . S
C1515 C1514 1.396 . S
C1515 C1516 1.399 . S
C1516 H1502 0.929 . S
C1516 C1515 1.399 . S
C1516 C1517 1.385 . S
C1517 H1503 0.931 . S
C1517 C1516 1.385 . S
C1517 C1518 1.389 . S
C1518 C1517 1.389 . S
C1518 C1519 1.387 . S
C1519 H1504 0.930 . S
C1519 C1514 1.390 . S
C1519 C1518 1.387 . S
H1520 C1532 0.930 . S
H1521 C1534 0.930 . S
H1522 C1535 0.930 . S
H1523 C1539 0.959 . S
H1524 C1539 0.959 . S
H1525 C1539 0.961 . S
H1526 C1540 0.960 . S
H1527 C1540 0.961 . S
H1528 C1540 0.959 . S
H1529 C1543 0.929 . S
H1530 C1544 0.931 . S
H1531 C1546 0.930 . S
C1532 H1520 0.930 . S
C1532 C1533 1.399 . S
C1532 C1537 1.399 1_556 S
C1533 C1532 1.399 . S
C1533 C1534 1.376 . S
C1534 H1521 0.930 . S
C1534 C1533 1.376 . S
C1534 C1535 1.388 1_556 S
C1535 H1522 0.930 . S
C1535 C1534 1.388 1_554 S
C1535 C1536 1.390 . S
C1536 C1535 1.390 . S
C1536 C1537 1.394 . S
C1536 C1542 1.465 . S
C1537 C1532 1.399 1_554 S
C1537 C1536 1.394 . S
C1537 C1538 1.516 . S
C1538 C1537 1.516 . S
C1538 C1539 1.502 . S
C1538 C1540 1.561 . S
C1538 C1541 1.526 . S
C1539 H1523 0.959 . S
C1539 H1524 0.959 . S
C1539 H1525 0.961 . S
C1539 C1538 1.502 . S
C1540 H1526 0.960 . S
C1540 H1527 0.961 . S
C1540 H1528 0.959 . S
C1540 C1538 1.561 . S
C1541 C1538 1.526 . S
C1541 C1542 1.396 . S
C1541 C1546 1.390 . S
C1542 C1536 1.465 . S
C1542 C1541 1.396 . S
C1542 C1543 1.399 . S
C1543 H1529 0.929 . S
C1543 C1542 1.399 . S
C1543 C1544 1.385 . S
C1544 H1530 0.931 . S
C1544 C1543 1.385 . S
C1544 C1545 1.389 . S
C1545 C1544 1.389 . S
C1545 C1546 1.387 . S
C1546 H1531 0.930 . S
C1546 C1541 1.390 . S
C1546 C1545 1.387 . S
H1547 C1559 0.930 . S
H1548 C1561 0.930 . S
H1549 C1562 0.930 . S
H1550 C1566 0.959 . S
H1551 C1566 0.959 . S
H1552 C1566 0.961 . S
H1553 C1567 0.960 . S
H1554 C1567 0.961 . S
H1555 C1567 0.959 . S
H1556 C1570 0.929 . S
H1557 C1571 0.931 . S
H1558 C1573 0.930 . S
C1559 H1547 0.930 . S
C1559 C1560 1.399 . S
C1559 C1564 1.399 . S
C1560 C1559 1.399 . S
C1560 C1561 1.376 . S
C1561 H1548 0.930 . S
C1561 C1560 1.376 . S
C1561 C1562 1.388 . S
C1562 H1549 0.930 . S
C1562 C1561 1.388 . S
C1562 C1563 1.390 . S
C1563 C1562 1.390 . S
C1563 C1564 1.394 . S
C1563 C1569 1.465 . S
C1564 C1559 1.399 . S
C1564 C1563 1.394 . S
C1564 C1565 1.516 . S
C1565 C1564 1.516 . S
C1565 C1566 1.502 . S
C1565 C1567 1.561 . S
C1565 C1568 1.526 . S
C1566 H1550 0.959 . S
C1566 H1551 0.959 . S
C1566 H1552 0.961 . S
C1566 C1565 1.502 . S
C1567 H1553 0.960 . S
C1567 H1554 0.961 . S
C1567 H1555 0.959 . S
C1567 C1565 1.561 . S
C1568 C1565 1.526 . S
C1568 C1569 1.396 . S
C1568 C1573 1.390 . S
C1569 C1563 1.465 . S
C1569 C1568 1.396 . S
C1569 C1570 1.399 . S
C1570 H1556 0.929 . S
C1570 C1569 1.399 . S
C1570 C1571 1.385 . S
C1571 H1557 0.931 . S
C1571 C1570 1.385 . S
C1571 C1572 1.389 . S
C1572 C1571 1.389 . S
C1572 C1573 1.387 . S
C1573 H1558 0.930 . S
C1573 C1568 1.390 . S
C1573 C1572 1.387 . S
H1574 C1586 0.930 . S
H1575 C1588 0.930 . S
H1576 C1589 0.930 . S
H1577 C1593 0.959 . S
H1578 C1593 0.959 . S
H1579 C1593 0.961 . S
H1580 C1594 0.960 . S
H1581 C1594 0.961 . S
H1582 C1594 0.959 . S
H1583 C1597 0.929 . S
H1584 C1598 0.931 . S
H1585 C1600 0.930 . S
C1586 H1574 0.930 . S
C1586 C1587 1.399 . S
C1586 C1591 1.399 . S
C1587 C1586 1.399 . S
C1587 C1588 1.376 . S
C1588 H1575 0.930 . S
C1588 C1587 1.376 . S
C1588 C1589 1.388 . S
C1589 H1576 0.930 . S
C1589 C1588 1.388 . S
C1589 C1590 1.390 . S
C1590 C1589 1.390 . S
C1590 C1591 1.394 . S
C1590 C1596 1.465 . S
C1591 C1586 1.399 . S
C1591 C1590 1.394 . S
C1591 C1592 1.516 . S
C1592 C1591 1.516 . S
C1592 C1593 1.502 . S
C1592 C1594 1.561 . S
C1592 C1595 1.526 . S
C1593 H1577 0.959 . S
C1593 H1578 0.959 . S
C1593 H1579 0.961 . S
C1593 C1592 1.502 . S
C1594 H1580 0.960 . S
C1594 H1581 0.961 . S
C1594 H1582 0.959 . S
C1594 C1592 1.561 . S
C1595 C1592 1.526 . S
C1595 C1596 1.396 . S
C1595 C1600 1.390 . S
C1596 C1590 1.465 . S
C1596 C1595 1.396 . S
C1596 C1597 1.399 . S
C1597 H1583 0.929 . S
C1597 C1596 1.399 . S
C1597 C1598 1.385 . S
C1598 H1584 0.931 . S
C1598 C1597 1.385 . S
C1598 C1599 1.389 . S
C1599 C1598 1.389 . S
C1599 C1600 1.387 . S
C1600 H1585 0.930 . S
C1600 C1595 1.390 . S
C1600 C1599 1.387 . S
H1601 C1613 0.930 . S
H1602 C1615 0.930 . S
H1603 C1616 0.930 . S
H1604 C1620 0.959 . S
H1605 C1620 0.959 . S
H1606 C1620 0.961 . S
H1607 C1621 0.960 . S
H1608 C1621 0.961 . S
H1609 C1621 0.959 . S
H1610 C1624 0.929 . S
H1611 C1625 0.931 . S
H1612 C1627 0.930 . S
C1613 H1601 0.930 . S
C1613 C1614 1.399 . S
C1613 C1618 1.399 . S
C1614 C1613 1.399 . S
C1614 C1615 1.376 . S
C1615 H1602 0.930 . S
C1615 C1614 1.376 . S
C1615 C1616 1.388 . S
C1616 H1603 0.930 . S
C1616 C1615 1.388 . S
C1616 C1617 1.390 . S
C1617 C1616 1.390 . S
C1617 C1618 1.394 . S
C1617 C1623 1.465 . S
C1618 C1613 1.399 . S
C1618 C1617 1.394 . S
C1618 C1619 1.516 . S
C1619 C1618 1.516 . S
C1619 C1620 1.502 . S
C1619 C1621 1.561 . S
C1619 C1622 1.526 . S
C1620 H1604 0.959 . S
C1620 H1605 0.959 . S
C1620 H1606 0.961 . S
C1620 C1619 1.502 . S
C1621 H1607 0.960 . S
C1621 H1608 0.961 . S
C1621 H1609 0.959 . S
C1621 C1619 1.561 . S
C1622 C1619 1.526 . S
C1622 C1623 1.396 . S
C1622 C1627 1.390 1_556 S
C1623 C1617 1.465 . S
C1623 C1622 1.396 . S
C1623 C1624 1.399 . S
C1624 H1610 0.929 . S
C1624 C1623 1.399 . S
C1624 C1625 1.385 1_556 S
C1625 H1611 0.931 . S
C1625 C1624 1.385 1_554 S
C1625 C1626 1.389 . S
C1626 C1625 1.389 . S
C1626 C1627 1.387 . S
C1627 H1612 0.930 . S
C1627 C1622 1.390 1_554 S
C1627 C1626 1.387 . S
H1628 C1640 0.930 . S
H1629 C1642 0.930 . S
H1630 C1643 0.930 . S
H1631 C1647 0.959 . S
H1632 C1647 0.959 . S
H1633 C1647 0.961 . S
H1634 C1648 0.960 . S
H1635 C1648 0.961 . S
H1636 C1648 0.959 . S
H1637 C1651 0.929 . S
H1638 C1652 0.931 . S
H1639 C1654 0.930 . S
C1640 H1628 0.930 . S
C1640 C1641 1.399 . S
C1640 C1645 1.399 1_554 S
C1641 C1640 1.399 . S
C1641 C1642 1.376 . S
C1642 H1629 0.930 . S
C1642 C1641 1.376 . S
C1642 C1643 1.388 1_554 S
C1643 H1630 0.930 . S
C1643 C1642 1.388 1_556 S
C1643 C1644 1.390 . S
C1644 C1643 1.390 . S
C1644 C1645 1.394 . S
C1644 C1650 1.465 . S
C1645 C1640 1.399 1_556 S
C1645 C1644 1.394 . S
C1645 C1646 1.516 . S
C1646 C1645 1.516 . S
C1646 C1647 1.502 . S
C1646 C1648 1.561 . S
C1646 C1649 1.526 . S
C1647 H1631 0.959 . S
C1647 H1632 0.959 . S
C1647 H1633 0.961 . S
C1647 C1646 1.502 . S
C1648 H1634 0.960 . S
C1648 H1635 0.961 . S
C1648 H1636 0.959 . S
C1648 C1646 1.561 . S
C1649 C1646 1.526 . S
C1649 C1650 1.396 . S
C1649 C1654 1.390 . S
C1650 C1644 1.465 . S
C1650 C1649 1.396 . S
C1650 C1651 1.399 . S
C1651 H1637 0.929 . S
C1651 C1650 1.399 . S
C1651 C1652 1.385 . S
C1652 H1638 0.931 . S
C1652 C1651 1.385 . S
C1652 C1653 1.389 . S
C1653 C1652 1.389 . S
C1653 C1654 1.387 . S
C1654 H1639 0.930 . S
C1654 C1649 1.390 . S
C1654 C1653 1.387 . S
H1655 C1667 0.930 . S
H1656 C1669 0.930 . S
H1657 C1670 0.930 . S
H1658 C1674 0.959 . S
H1659 C1674 0.959 . S
H1660 C1674 0.961 . S
H1661 C1675 0.960 . S
H1662 C1675 0.961 . S
H1663 C1675 0.959 . S
H1664 C1678 0.929 . S
H1665 C1679 0.931 . S
H1666 C1681 0.928 1_556 S
C1667 H1655 0.930 . S
C1667 C1668 1.399 . S
C1667 C1672 1.399 . S
C1668 C1667 1.399 . S
C1668 C1669 1.376 . S
C1669 H1656 0.930 . S
C1669 C1668 1.376 . S
C1669 C1670 1.388 . S
C1670 H1657 0.930 . S
C1670 C1669 1.388 . S
C1670 C1671 1.390 . S
C1671 C1670 1.390 . S
C1671 C1672 1.394 . S
C1671 C1677 1.465 . S
C1672 C1667 1.399 . S
C1672 C1671 1.394 . S
C1672 C1673 1.516 . S
C1673 C1672 1.516 . S
C1673 C1674 1.502 . S
C1673 C1675 1.561 . S
C1673 C1676 1.526 . S
C1674 H1658 0.959 . S
C1674 H1659 0.959 . S
C1674 H1660 0.961 . S
C1674 C1673 1.502 . S
C1675 H1661 0.960 . S
C1675 H1662 0.961 . S
C1675 H1663 0.959 . S
C1675 C1673 1.561 . S
C1676 C1673 1.526 . S
C1676 C1677 1.396 . S
C1676 C1681 1.396 . S
C1677 C1671 1.465 . S
C1677 C1676 1.396 . S
C1677 C1678 1.399 . S
C1678 H1664 0.929 . S
C1678 C1677 1.399 . S
C1678 C1679 1.385 1_554 S
C1679 H1665 0.931 . S
C1679 C1678 1.385 1_556 S
C1679 C1680 1.389 . S
C1680 C1679 1.389 . S
C1680 C1681 1.382 1_556 S
C1681 H1666 0.928 1_554 S
C1681 C1676 1.396 . S
C1681 C1680 1.382 1_554 S
H1682 C1694 0.930 . S
H1683 C1696 0.930 . S
H1684 C1697 0.930 . S
H1685 C1701 0.959 . S
H1686 C1701 0.959 . S
H1687 C1701 0.961 . S
H1688 C1702 0.960 . S
H1689 C1702 0.961 . S
H1690 C1702 0.959 . S
H1691 C1705 0.929 . S
H1692 C1706 0.931 . S
H1693 C1708 0.930 . S
C1694 H1682 0.930 . S
C1694 C1695 1.399 . S
C1694 C1699 1.399 . S
C1695 C1694 1.399 . S
C1695 C1696 1.376 . S
C1696 H1683 0.930 . S
C1696 C1695 1.376 . S
C1696 C1697 1.388 . S
C1697 H1684 0.930 . S
C1697 C1696 1.388 . S
C1697 C1698 1.390 . S
C1698 C1697 1.390 . S
C1698 C1699 1.394 . S
C1698 C1704 1.465 . S
C1699 C1694 1.399 . S
C1699 C1698 1.394 . S
C1699 C1700 1.516 . S
C1700 C1699 1.516 . S
C1700 C1701 1.502 . S
C1700 C1702 1.561 . S
C1700 C1703 1.526 . S
C1701 H1685 0.959 . S
C1701 H1686 0.959 . S
C1701 H1687 0.961 . S
C1701 C1700 1.502 . S
C1702 H1688 0.960 . S
C1702 H1689 0.961 . S
C1702 H1690 0.959 . S
C1702 C1700 1.561 . S
C1703 C1700 1.526 . S
C1703 C1704 1.396 . S
C1703 C1708 1.390 . S
C1704 C1698 1.465 . S
C1704 C1703 1.396 . S
C1704 C1705 1.399 . S
C1705 H1691 0.929 . S
C1705 C1704 1.399 . S
C1705 C1706 1.385 . S
C1706 H1692 0.931 . S
C1706 C1705 1.385 . S
C1706 C1707 1.389 . S
C1707 C1706 1.389 . S
C1707 C1708 1.387 . S
C1708 H1693 0.930 . S
C1708 C1703 1.390 . S
C1708 C1707 1.387 . S
H1709 C1721 0.930 . S
H1710 C1723 0.930 . S
H1711 C1724 0.930 . S
H1712 C1728 0.959 . S
H1713 C1728 0.959 . S
H1714 C1728 0.961 . S
H1715 C1729 0.960 . S
H1716 C1729 0.961 . S
H1717 C1729 0.959 . S
H1718 C1732 0.929 . S
H1719 C1733 0.931 . S
H1720 C1735 0.930 . S
C1721 H1709 0.930 . S
C1721 C1722 1.399 . S
C1721 C1726 1.399 . S
C1722 C1721 1.399 . S
C1722 C1723 1.376 . S
C1723 H1710 0.930 . S
C1723 C1722 1.376 . S
C1723 C1724 1.388 . S
C1724 H1711 0.930 . S
C1724 C1723 1.388 . S
C1724 C1725 1.390 . S
C1725 C1724 1.390 . S
C1725 C1726 1.394 . S
C1725 C1731 1.465 . S
C1726 C1721 1.399 . S
C1726 C1725 1.394 . S
C1726 C1727 1.516 . S
C1727 C1726 1.516 . S
C1727 C1728 1.502 . S
C1727 C1729 1.561 . S
C1727 C1730 1.526 . S
C1728 H1712 0.959 . S
C1728 H1713 0.959 . S
C1728 H1714 0.961 . S
C1728 C1727 1.502 . S
C1729 H1715 0.960 . S
C1729 H1716 0.961 . S
C1729 H1717 0.959 . S
C1729 C1727 1.561 . S
C1730 C1727 1.526 . S
C1730 C1731 1.396 . S
C1730 C1735 1.390 . S
C1731 C1725 1.465 . S
C1731 C1730 1.396 . S
C1731 C1732 1.399 . S
C1732 H1718 0.929 . S
C1732 C1731 1.399 . S
C1732 C1733 1.385 . S
C1733 H1719 0.931 . S
C1733 C1732 1.385 . S
C1733 C1734 1.389 . S
C1734 C1733 1.389 . S
C1734 C1735 1.387 . S
C1735 H1720 0.930 . S
C1735 C1730 1.390 . S
C1735 C1734 1.387 . S
H1736 C1748 0.930 . S
H1737 C1750 0.930 . S
H1738 C1751 0.930 . S
H1739 C1755 0.959 . S
H1740 C1755 0.959 . S
H1741 C1755 0.961 . S
H1742 C1756 0.960 . S
H1743 C1756 0.961 . S
H1744 C1756 0.959 . S
H1745 C1759 0.929 . S
H1746 C1760 0.931 . S
H1747 C1762 0.930 . S
C1748 H1736 0.930 . S
C1748 C1749 1.399 . S
C1748 C1753 1.399 1_554 S
C1749 C1748 1.399 . S
C1749 C1750 1.376 . S
C1750 H1737 0.930 . S
C1750 C1749 1.376 . S
C1750 C1751 1.388 1_554 S
C1751 H1738 0.930 . S
C1751 C1750 1.388 1_556 S
C1751 C1752 1.390 . S
C1752 C1751 1.390 . S
C1752 C1753 1.394 . S
C1752 C1758 1.465 . S
C1753 C1748 1.399 1_556 S
C1753 C1752 1.394 . S
C1753 C1754 1.516 . S
C1754 C1753 1.516 . S
C1754 C1755 1.502 . S
C1754 C1756 1.561 . S
C1754 C1757 1.526 . S
C1755 H1739 0.959 . S
C1755 H1740 0.959 . S
C1755 H1741 0.961 . S
C1755 C1754 1.502 . S
C1756 H1742 0.960 . S
C1756 H1743 0.961 . S
C1756 H1744 0.959 . S
C1756 C1754 1.561 . S
C1757 C1754 1.526 . S
C1757 C1758 1.396 . S
C1757 C1762 1.390 . S
C1758 C1752 1.465 . S
C1758 C1757 1.396 . S
C1758 C1759 1.399 . S
C1759 H1745 0.929 . S
C1759 C1758 1.399 . S
C1759 C1760 1.385 . S
C1760 H1746 0.931 . S
C1760 C1759 1.385 . S
C1760 C1761 1.389 . S
C1761 C1760 1.389 . S
C1761 C1762 1.387 . S
C1762 H1747 0.930 . S
C1762 C1757 1.390 . S
C1762 C1761 1.387 . S
H1763 C1775 0.930 . S
H1764 C1777 0.930 . S
H1765 C1778 0.930 . S
H1766 C1782 0.959 . S
H1767 C1782 0.959 . S
H1768 C1782 0.961 . S
H1769 C1783 0.960 . S
H1770 C1783 0.961 . S
H1771 C1783 0.959 . S
H1772 C1786 0.929 . S
H1773 C1787 0.931 . S
H1774 C1789 0.930 . S
C1775 H1763 0.930 . S
C1775 C1776 1.399 . S
C1775 C1780 1.399 . S
C1776 C1775 1.399 . S
C1776 C1777 1.376 . S
C1777 H1764 0.930 . S
C1777 C1776 1.376 . S
C1777 C1778 1.388 . S
C1778 H1765 0.930 . S
C1778 C1777 1.388 . S
C1778 C1779 1.390 . S
C1779 C1778 1.390 . S
C1779 C1780 1.394 . S
C1779 C1785 1.465 . S
C1780 C1775 1.399 . S
C1780 C1779 1.394 . S
C1780 C1781 1.516 . S
C1781 C1780 1.516 . S
C1781 C1782 1.502 . S
C1781 C1783 1.561 . S
C1781 C1784 1.526 . S
C1782 H1766 0.959 . S
C1782 H1767 0.959 . S
C1782 H1768 0.961 . S
C1782 C1781 1.502 . S
C1783 H1769 0.960 . S
C1783 H1770 0.961 . S
C1783 H1771 0.959 . S
C1783 C1781 1.561 . S
C1784 C1781 1.526 . S
C1784 C1785 1.396 . S
C1784 C1789 1.390 . S
C1785 C1779 1.465 . S
C1785 C1784 1.396 . S
C1785 C1786 1.399 . S
C1786 H1772 0.929 . S
C1786 C1785 1.399 . S
C1786 C1787 1.385 . S
C1787 H1773 0.931 . S
C1787 C1786 1.385 . S
C1787 C1788 1.389 . S
C1788 C1787 1.389 . S
C1788 C1789 1.387 . S
C1789 H1774 0.930 . S
C1789 C1784 1.390 . S
C1789 C1788 1.387 . S
H1790 C1802 0.930 . S
H1791 C1804 0.930 . S
H1792 C1805 0.930 . S
H1793 C1809 0.959 . S
H1794 C1809 0.959 . S
H1795 C1809 0.961 . S
H1796 C1810 0.960 . S
H1797 C1810 0.961 . S
H1798 C1810 0.959 . S
H1799 C1813 0.929 . S
H1800 C1814 0.931 . S
H1801 C1816 0.930 . S
C1802 H1790 0.930 . S
C1802 C1803 1.399 . S
C1802 C1807 1.399 . S
C1803 C1802 1.399 . S
C1803 C1804 1.376 . S
C1804 H1791 0.930 . S
C1804 C1803 1.376 . S
C1804 C1805 1.388 . S
C1805 H1792 0.930 . S
C1805 C1804 1.388 . S
C1805 C1806 1.390 . S
C1806 C1805 1.390 . S
C1806 C1807 1.394 . S
C1806 C1812 1.465 . S
C1807 C1802 1.399 . S
C1807 C1806 1.394 . S
C1807 C1808 1.516 . S
C1808 C1807 1.516 . S
C1808 C1809 1.502 . S
C1808 C1810 1.561 . S
C1808 C1811 1.526 . S
C1809 H1793 0.959 . S
C1809 H1794 0.959 . S
C1809 H1795 0.961 . S
C1809 C1808 1.502 . S
C1810 H1796 0.960 . S
C1810 H1797 0.961 . S
C1810 H1798 0.959 . S
C1810 C1808 1.561 . S
C1811 C1808 1.526 . S
C1811 C1812 1.396 . S
C1811 C1816 1.390 . S
C1812 C1806 1.465 . S
C1812 C1811 1.396 . S
C1812 C1813 1.399 . S
C1813 H1799 0.929 . S
C1813 C1812 1.399 . S
C1813 C1814 1.385 . S
C1814 H1800 0.931 . S
C1814 C1813 1.385 . S
C1814 C1815 1.389 . S
C1815 C1814 1.389 . S
C1815 C1816 1.387 . S
C1816 H1801 0.930 . S
C1816 C1811 1.390 . S
C1816 C1815 1.387 . S
H1817 C1829 0.930 1_556 S
H1818 C1831 0.930 . S
H1819 C1832 0.930 . S
H1820 C1836 0.959 . S
H1821 C1836 0.959 . S
H1822 C1836 0.961 . S
H1823 C1837 0.960 . S
H1824 C1837 0.961 . S
H1825 C1837 0.959 . S
H1826 C1840 0.929 . S
H1827 C1841 0.931 . S
H1828 C1843 0.930 . S
C1829 H1817 0.930 1_554 S
C1829 C1830 1.399 1_554 S
C1829 C1834 1.399 . S
C1830 C1829 1.399 1_556 S
C1830 C1831 1.376 . S
C1831 H1818 0.930 . S
C1831 C1830 1.376 . S
C1831 C1832 1.388 1_556 S
C1832 H1819 0.930 . S
C1832 C1831 1.388 1_554 S
C1832 C1833 1.390 . S
C1833 C1832 1.390 . S
C1833 C1834 1.394 . S
C1833 C1839 1.465 . S
C1834 C1829 1.399 . S
C1834 C1833 1.394 . S
C1834 C1835 1.516 . S
C1835 C1834 1.516 . S
C1835 C1836 1.502 . S
C1835 C1837 1.561 . S
C1835 C1838 1.526 . S
C1836 H1820 0.959 . S
C1836 H1821 0.959 . S
C1836 H1822 0.961 . S
C1836 C1835 1.502 . S
C1837 H1823 0.960 . S
C1837 H1824 0.961 . S
C1837 H1825 0.959 . S
C1837 C1835 1.561 . S
C1838 C1835 1.526 . S
C1838 C1839 1.396 . S
C1838 C1843 1.390 . S
C1839 C1833 1.465 . S
C1839 C1838 1.396 . S
C1839 C1840 1.399 . S
C1840 H1826 0.929 . S
C1840 C1839 1.399 . S
C1840 C1841 1.385 . S
C1841 H1827 0.931 . S
C1841 C1840 1.385 . S
C1841 C1842 1.389 . S
C1842 C1841 1.389 . S
C1842 C1843 1.387 . S
C1843 H1828 0.930 . S
C1843 C1838 1.390 . S
C1843 C1842 1.387 . S
H1844 C1856 0.930 . S
H1845 C1858 0.930 . S
H1846 C1859 0.930 . S
H1847 C1863 0.959 . S
H1848 C1863 0.959 . S
H1849 C1863 0.961 . S
H1850 C1864 0.960 . S
H1851 C1864 0.961 . S
H1852 C1864 0.959 . S
H1853 C1867 0.929 . S
H1854 C1868 0.931 . S
H1855 C1870 0.930 . S
C1856 H1844 0.930 . S
C1856 C1857 1.399 . S
C1856 C1861 1.399 . S
C1857 C1856 1.399 . S
C1857 C1858 1.376 . S
C1858 H1845 0.930 . S
C1858 C1857 1.376 . S
C1858 C1859 1.388 . S
C1859 H1846 0.930 . S
C1859 C1858 1.388 . S
C1859 C1860 1.390 . S
C1860 C1859 1.390 . S
C1860 C1861 1.394 . S
C1860 C1866 1.465 . S
C1861 C1856 1.399 . S
C1861 C1860 1.394 . S
C1861 C1862 1.516 . S
C1862 C1861 1.516 . S
C1862 C1863 1.502 . S
C1862 C1864 1.561 . S
C1862 C1865 1.526 . S
C1863 H1847 0.959 . S
C1863 H1848 0.959 . S
C1863 H1849 0.961 . S
C1863 C1862 1.502 . S
C1864 H1850 0.960 . S
C1864 H1851 0.961 . S
C1864 H1852 0.959 . S
C1864 C1862 1.561 . S
C1865 C1862 1.526 . S
C1865 C1866 1.396 . S
C1865 C1870 1.390 1_554 S
C1866 C1860 1.465 . S
C1866 C1865 1.396 . S
C1866 C1867 1.399 . S
C1867 H1853 0.929 . S
C1867 C1866 1.399 . S
C1867 C1868 1.385 1_554 S
C1868 H1854 0.931 . S
C1868 C1867 1.385 1_556 S
C1868 C1869 1.389 . S
C1869 C1868 1.389 . S
C1869 C1870 1.387 . S
C1870 H1855 0.930 . S
C1870 C1865 1.390 1_556 S
C1870 C1869 1.387 . S
H1871 C1883 0.930 . S
H1872 C1885 0.930 . S
H1873 C1886 0.930 . S
H1874 C1890 0.959 . S
H1875 C1890 0.959 . S
H1876 C1890 0.961 . S
H1877 C1891 0.960 . S
H1878 C1891 0.961 . S
H1879 C1891 0.959 . S
H1880 C1894 0.929 . S
H1881 C1895 0.931 . S
H1882 C1897 0.930 . S
C1883 H1871 0.930 . S
C1883 C1884 1.399 . S
C1883 C1888 1.399 1_554 S
C1884 C1883 1.399 . S
C1884 C1885 1.376 . S
C1885 H1872 0.930 . S
C1885 C1884 1.376 . S
C1885 C1886 1.388 1_554 S
C1886 H1873 0.930 . S
C1886 C1885 1.388 1_556 S
C1886 C1887 1.390 . S
C1887 C1886 1.390 . S
C1887 C1888 1.394 . S
C1887 C1893 1.465 . S
C1888 C1883 1.399 1_556 S
C1888 C1887 1.394 . S
C1888 C1889 1.516 . S
C1889 C1888 1.516 . S
C1889 C1890 1.502 . S
C1889 C1891 1.561 . S
C1889 C1892 1.526 . S
C1890 H1874 0.959 . S
C1890 H1875 0.959 . S
C1890 H1876 0.961 . S
C1890 C1889 1.502 . S
C1891 H1877 0.960 . S
C1891 H1878 0.961 . S
C1891 H1879 0.959 . S
C1891 C1889 1.561 . S
C1892 C1889 1.526 . S
C1892 C1893 1.396 . S
C1892 C1897 1.390 . S
C1893 C1887 1.465 . S
C1893 C1892 1.396 . S
C1893 C1894 1.399 . S
C1894 H1880 0.929 . S
C1894 C1893 1.399 . S
C1894 C1895 1.385 . S
C1895 H1881 0.931 . S
C1895 C1894 1.385 . S
C1895 C1896 1.389 . S
C1896 C1895 1.389 . S
C1896 C1897 1.387 . S
C1897 H1882 0.930 . S
C1897 C1892 1.390 . S
C1897 C1896 1.387 . S
H1898 C1910 0.930 . S
H1899 C1912 0.930 . S
H1900 C1913 0.930 . S
H1901 C1917 0.959 . S
H1902 C1917 0.959 . S
H1903 C1917 0.961 . S
H1904 C1918 0.960 . S
H1905 C1918 0.961 . S
H1906 C1918 0.959 . S
H1907 C1921 0.929 . S
H1908 C1922 0.931 . S
H1909 C1924 0.930 . S
C1910 H1898 0.930 . S
C1910 C1911 1.399 . S
C1910 C1915 1.399 . S
C1911 C1910 1.399 . S
C1911 C1912 1.376 . S
C1912 H1899 0.930 . S
C1912 C1911 1.376 . S
C1912 C1913 1.388 . S
C1913 H1900 0.930 . S
C1913 C1912 1.388 . S
C1913 C1914 1.390 . S
C1914 C1913 1.390 . S
C1914 C1915 1.394 . S
C1914 C1920 1.465 . S
C1915 C1910 1.399 . S
C1915 C1914 1.394 . S
C1915 C1916 1.516 . S
C1916 C1915 1.516 . S
C1916 C1917 1.502 . S
C1916 C1918 1.561 . S
C1916 C1919 1.526 . S
C1917 H1901 0.959 . S
C1917 H1902 0.959 . S
C1917 H1903 0.961 . S
C1917 C1916 1.502 . S
C1918 H1904 0.960 . S
C1918 H1905 0.961 . S
C1918 H1906 0.959 . S
C1918 C1916 1.561 . S
C1919 C1916 1.526 . S
C1919 C1920 1.396 . S
C1919 C1924 1.390 . S
C1920 C1914 1.465 . S
C1920 C1919 1.396 . S
C1920 C1921 1.399 . S
C1921 H1907 0.929 . S
C1921 C1920 1.399 . S
C1921 C1922 1.385 . S
C1922 H1908 0.931 . S
C1922 C1921 1.385 . S
C1922 C1923 1.389 . S
C1923 C1922 1.389 . S
C1923 C1924 1.387 . S
C1924 H1909 0.930 . S
C1924 C1919 1.390 . S
C1924 C1923 1.387 . S
H1925 C1937 0.930 . S
H1926 C1939 0.930 . S
H1927 C1940 0.930 . S
H1928 C1944 0.959 . S
H1929 C1944 0.959 . S
H1930 C1944 0.961 . S
H1931 C1945 0.960 . S
H1932 C1945 0.961 . S
H1933 C1945 0.959 . S
H1934 C1948 0.929 . S
H1935 C1949 0.931 . S
H1936 C1951 0.930 . S
C1937 H1925 0.930 . S
C1937 C1938 1.399 . S
C1937 C1942 1.399 . S
C1938 C1937 1.399 . S
C1938 C1939 1.376 . S
C1939 H1926 0.930 . S
C1939 C1938 1.376 . S
C1939 C1940 1.388 . S
C1940 H1927 0.930 . S
C1940 C1939 1.388 . S
C1940 C1941 1.390 . S
C1941 C1940 1.390 . S
C1941 C1942 1.394 . S
C1941 C1947 1.465 . S
C1942 C1937 1.399 . S
C1942 C1941 1.394 . S
C1942 C1943 1.516 . S
C1943 C1942 1.516 . S
C1943 C1944 1.502 . S
C1943 C1945 1.561 . S
C1943 C1946 1.526 . S
C1944 H1928 0.959 . S
C1944 H1929 0.959 . S
C1944 H1930 0.961 . S
C1944 C1943 1.502 . S
C1945 H1931 0.960 . S
C1945 H1932 0.961 . S
C1945 H1933 0.959 . S
C1945 C1943 1.561 . S
C1946 C1943 1.526 . S
C1946 C1947 1.396 . S
C1946 C1951 1.390 . S
C1947 C1941 1.465 . S
C1947 C1946 1.396 . S
C1947 C1948 1.399 . S
C1948 H1934 0.929 . S
C1948 C1947 1.399 . S
C1948 C1949 1.385 . S
C1949 H1935 0.931 . S
C1949 C1948 1.385 . S
C1949 C1950 1.389 . S
C1950 C1949 1.389 . S
C1950 C1951 1.387 . S
C1951 H1936 0.930 . S
C1951 C1946 1.390 . S
C1951 C1950 1.387 . S
H1952 C1964 0.930 . S
H1953 C1966 0.930 . S
H1954 C1967 0.930 . S
H1955 C1971 0.959 . S
H1956 C1971 0.959 1_556 S
H1957 C1971 0.961 1_556 S
H1958 C1972 0.960 . S
H1959 C1972 0.961 . S
H1960 C1972 0.959 1_554 S
H1961 C1975 0.929 . S
H1962 C1976 0.931 . S
H1963 C1978 0.930 . S
C1964 H1952 0.930 . S
C1964 C1965 1.399 . S
C1964 C1969 1.399 . S
C1965 C1964 1.399 . S
C1965 C1966 1.376 . S
C1966 H1953 0.930 . S
C1966 C1965 1.376 . S
C1966 C1967 1.388 . S
C1967 H1954 0.930 . S
C1967 C1966 1.388 . S
C1967 C1968 1.390 . S
C1968 C1967 1.390 . S
C1968 C1969 1.394 . S
C1968 C1974 1.465 . S
C1969 C1964 1.399 . S
C1969 C1968 1.394 . S
C1969 C1970 1.516 . S
C1970 C1969 1.516 . S
C1970 C1971 1.502 . S
C1970 C1972 1.561 1_554 S
C1970 C1973 1.526 . S
C1971 H1955 0.959 . S
C1971 H1956 0.959 1_554 S
C1971 H1957 0.961 1_554 S
C1971 C1970 1.502 . S
C1972 H1958 0.960 . S
C1972 H1959 0.961 . S
C1972 H1960 0.959 1_556 S
C1972 C1970 1.561 1_556 S
C1973 C1970 1.526 . S
C1973 C1974 1.396 . S
C1973 C1978 1.390 . S
C1974 C1968 1.465 . S
C1974 C1973 1.396 . S
C1974 C1975 1.399 . S
C1975 H1961 0.929 . S
C1975 C1974 1.399 . S
C1975 C1976 1.385 . S
C1976 H1962 0.931 . S
C1976 C1975 1.385 . S
C1976 C1977 1.389 . S
C1977 C1976 1.389 . S
C1977 C1978 1.387 . S
C1978 H1963 0.930 . S
C1978 C1973 1.390 . S
C1978 C1977 1.387 . S
H1979 C1991 0.930 . S
H1980 C1993 0.930 . S
H1981 C1994 0.930 . S
H1982 C1998 0.959 . S
H1983 C1998 0.959 . S
H1984 C1998 0.961 . S
H1985 C1999 0.960 . S
H1986 C1999 0.961 . S
H1987 C1999 0.959 . S
H1988 C2002 0.929 . S
H1989 C2003 0.931 . S
H1990 C2005 0.930 . S
C1991 H1979 0.930 . S
C1991 C1992 1.399 . S
C1991 C1996 1.399 . S
C1992 C1991 1.399 . S
C1992 C1993 1.376 . S
C1993 H1980 0.930 . S
C1993 C1992 1.376 . S
C1993 C1994 1.388 . S
C1994 H1981 0.930 . S
C1994 C1993 1.388 . S
C1994 C1995 1.390 . S
C1995 C1994 1.390 . S
C1995 C1996 1.394 . S
C1995 C2001 1.465 . S
C1996 C1991 1.399 . S
C1996 C1995 1.394 . S
C1996 C1997 1.516 . S
C1997 C1996 1.516 . S
C1997 C1998 1.502 . S
C1997 C1999 1.561 . S
C1997 C2000 1.526 . S
C1998 H1982 0.959 . S
C1998 H1983 0.959 . S
C1998 H1984 0.961 . S
C1998 C1997 1.502 . S
C1999 H1985 0.960 . S
C1999 H1986 0.961 . S
C1999 H1987 0.959 . S
C1999 C1997 1.561 . S
C2000 C1997 1.526 . S
C2000 C2001 1.396 . S
C2000 C2005 1.390 . S
C2001 C1995 1.465 . S
C2001 C2000 1.396 . S
C2001 C2002 1.399 . S
C2002 H1988 0.929 . S
C2002 C2001 1.399 . S
C2002 C2003 1.385 . S
C2003 H1989 0.931 . S
C2003 C2002 1.385 . S
C2003 C2004 1.389 . S
C2004 C2003 1.389 . S
C2004 C2005 1.387 . S
C2005 H1990 0.930 . S
C2005 C2000 1.390 . S
C2005 C2004 1.387 . S
H2006 C2018 0.930 . S
H2007 C2020 0.930 . S
H2008 C2021 0.930 . S
H2009 C2025 0.959 . S
H2010 C2025 0.959 . S
H2011 C2025 0.961 . S
H2012 C2026 0.960 . S
H2013 C2026 0.961 . S
H2014 C2026 0.959 . S
H2015 C2029 0.929 . S
H2016 C2030 0.931 . S
H2017 C2032 0.930 . S
C2018 H2006 0.930 . S
C2018 C2019 1.399 . S
C2018 C2023 1.399 . S
C2019 C2018 1.399 . S
C2019 C2020 1.376 . S
C2020 H2007 0.930 . S
C2020 C2019 1.376 . S
C2020 C2021 1.388 . S
C2021 H2008 0.930 . S
C2021 C2020 1.388 . S
C2021 C2022 1.390 . S
C2022 C2021 1.390 . S
C2022 C2023 1.394 . S
C2022 C2028 1.465 . S
C2023 C2018 1.399 . S
C2023 C2022 1.394 . S
C2023 C2024 1.516 . S
C2024 C2023 1.516 . S
C2024 C2025 1.502 . S
C2024 C2026 1.561 . S
C2024 C2027 1.526 . S
C2025 H2009 0.959 . S
C2025 H2010 0.959 . S
C2025 H2011 0.961 . S
C2025 C2024 1.502 . S
C2026 H2012 0.960 . S
C2026 H2013 0.961 . S
C2026 H2014 0.959 . S
C2026 C2024 1.561 . S
C2027 C2024 1.526 . S
C2027 C2028 1.396 . S
C2027 C2032 1.390 . S
C2028 C2022 1.465 . S
C2028 C2027 1.396 . S
C2028 C2029 1.399 . S
C2029 H2015 0.929 . S
C2029 C2028 1.399 . S
C2029 C2030 1.385 . S
C2030 H2016 0.931 . S
C2030 C2029 1.385 . S
C2030 C2031 1.389 . S
C2031 C2030 1.389 . S
C2031 C2032 1.387 . S
C2032 H2017 0.930 . S
C2032 C2027 1.390 . S
C2032 C2031 1.387 . S
H2033 C2045 0.930 . S
H2034 C2047 0.930 . S
H2035 C2048 0.930 . S
H2036 C2052 0.959 . S
H2037 C2052 0.959 1_554 S
H2038 C2052 0.961 1_554 S
H2039 C2053 0.960 . S
H2040 C2053 0.961 . S
H2041 C2053 0.959 1_556 S
H2042 C2056 0.929 . S
H2043 C2057 0.931 . S
H2044 C2059 0.930 . S
C2045 H2033 0.930 . S
C2045 C2046 1.399 . S
C2045 C2050 1.399 . S
C2046 C2045 1.399 . S
C2046 C2047 1.376 . S
C2047 H2034 0.930 . S
C2047 C2046 1.376 . S
C2047 C2048 1.388 . S
C2048 H2035 0.930 . S
C2048 C2047 1.388 . S
C2048 C2049 1.390 . S
C2049 C2048 1.390 . S
C2049 C2050 1.394 . S
C2049 C2055 1.465 . S
C2050 C2045 1.399 . S
C2050 C2049 1.394 . S
C2050 C2051 1.516 . S
C2051 C2050 1.516 . S
C2051 C2052 1.502 . S
C2051 C2053 1.561 1_556 S
C2051 C2054 1.526 . S
C2052 H2036 0.959 . S
C2052 H2037 0.959 1_556 S
C2052 H2038 0.961 1_556 S
C2052 C2051 1.502 . S
C2053 H2039 0.960 . S
C2053 H2040 0.961 . S
C2053 H2041 0.959 1_554 S
C2053 C2051 1.561 1_554 S
C2054 C2051 1.526 . S
C2054 C2055 1.396 . S
C2054 C2059 1.390 . S
C2055 C2049 1.465 . S
C2055 C2054 1.396 . S
C2055 C2056 1.399 . S
C2056 H2042 0.929 . S
C2056 C2055 1.399 . S
C2056 C2057 1.385 . S
C2057 H2043 0.931 . S
C2057 C2056 1.385 . S
C2057 C2058 1.389 . S
C2058 C2057 1.389 . S
C2058 C2059 1.387 . S
C2059 H2044 0.930 . S
C2059 C2054 1.390 . S
C2059 C2058 1.387 . S
H2060 C2072 0.930 . S
H2061 C2074 0.930 . S
H2062 C2075 0.930 . S
H2063 C2079 0.959 . S
H2064 C2079 0.959 . S
H2065 C2079 0.961 . S
H2066 C2080 0.960 . S
H2067 C2080 0.961 . S
H2068 C2080 0.959 . S
H2069 C2083 0.929 . S
H2070 C2084 0.931 . S
H2071 C2086 0.930 . S
C2072 H2060 0.930 . S
C2072 C2073 1.399 . S
C2072 C2077 1.399 . S
C2073 C2072 1.399 . S
C2073 C2074 1.376 . S
C2074 H2061 0.930 . S
C2074 C2073 1.376 . S
C2074 C2075 1.388 . S
C2075 H2062 0.930 . S
C2075 C2074 1.388 . S
C2075 C2076 1.390 . S
C2076 C2075 1.390 . S
C2076 C2077 1.394 . S
C2076 C2082 1.465 . S
C2077 C2072 1.399 . S
C2077 C2076 1.394 . S
C2077 C2078 1.516 . S
C2078 C2077 1.516 . S
C2078 C2079 1.502 1_556 S
C2078 C2080 1.561 . S
C2078 C2081 1.526 . S
C2079 H2063 0.959 . S
C2079 H2064 0.959 . S
C2079 H2065 0.961 . S
C2079 C2078 1.502 1_554 S
C2080 H2066 0.960 . S
C2080 H2067 0.961 . S
C2080 H2068 0.959 . S
C2080 C2078 1.561 . S
C2081 C2078 1.526 . S
C2081 C2082 1.396 . S
C2081 C2086 1.390 . S
C2082 C2076 1.465 . S
C2082 C2081 1.396 . S
C2082 C2083 1.399 . S
C2083 H2069 0.929 . S
C2083 C2082 1.399 . S
C2083 C2084 1.385 . S
C2084 H2070 0.931 . S
C2084 C2083 1.385 . S
C2084 C2085 1.389 . S
C2085 C2084 1.389 . S
C2085 C2086 1.387 . S
C2086 H2071 0.930 . S
C2086 C2081 1.390 . S
C2086 C2085 1.387 . S
H2087 C2099 0.930 . S
H2088 C2101 0.930 1_556 S
H2089 C2102 0.930 1_556 S
H2090 C2106 0.959 . S
H2091 C2106 0.959 . S
H2092 C2106 0.961 . S
H2093 C2107 0.960 . S
H2094 C2107 0.961 . S
H2095 C2107 0.959 . S
H2096 C2110 0.930 . S
H2097 C2111 0.931 . S
H2098 C2113 0.930 . S
C2099 H2087 0.930 . S
C2099 C2100 1.399 . S
C2099 C2104 1.399 . S
C2100 C2099 1.399 . S
C2100 C2101 1.376 . S
C2101 H2088 0.930 1_554 S
C2101 C2100 1.376 . S
C2101 C2102 1.388 . S
C2102 H2089 0.930 1_554 S
C2102 C2101 1.388 . S
C2102 C2103 1.390 . S
C2103 C2102 1.390 . S
C2103 C2104 1.394 . S
C2103 C2109 1.465 . S
C2104 C2099 1.399 . S
C2104 C2103 1.394 . S
C2104 C2105 1.516 . S
C2105 C2104 1.516 . S
C2105 C2106 1.502 . S
C2105 C2107 1.561 . S
C2105 C2108 1.526 . S
C2106 H2090 0.959 . S
C2106 H2091 0.959 . S
C2106 H2092 0.961 . S
C2106 C2105 1.502 . S
C2107 H2093 0.960 . S
C2107 H2094 0.961 . S
C2107 H2095 0.959 . S
C2107 C2105 1.561 . S
C2108 C2105 1.526 . S
C2108 C2109 1.396 . S
C2108 C2113 1.390 . S
C2109 C2103 1.465 . S
C2109 C2108 1.396 . S
C2109 C2110 1.399 . S
C2110 H2096 0.930 . S
C2110 C2109 1.399 . S
C2110 C2111 1.385 . S
C2111 H2097 0.931 . S
C2111 C2110 1.385 . S
C2111 C2112 1.389 . S
C2112 C2111 1.389 . S
C2112 C2113 1.387 . S
C2113 H2098 0.930 . S
C2113 C2108 1.390 . S
C2113 C2112 1.387 . S
H2114 C2126 0.930 . S
H2115 C2128 0.930 . S
H2116 C2129 0.930 . S
H2117 C2133 0.959 . S
H2118 C2133 0.959 . S
H2119 C2133 0.961 . S
H2120 C2134 0.960 . S
H2121 C2134 0.961 . S
H2122 C2134 0.959 . S
H2123 C2137 0.929 . S
H2124 C2138 0.931 . S
H2125 C2140 0.930 . S
C2126 H2114 0.930 . S
C2126 C2127 1.399 . S
C2126 C2131 1.399 . S
C2127 C2126 1.399 . S
C2127 C2128 1.376 . S
C2128 H2115 0.930 . S
C2128 C2127 1.376 . S
C2128 C2129 1.388 . S
C2129 H2116 0.930 . S
C2129 C2128 1.388 . S
C2129 C2130 1.390 . S
C2130 C2129 1.390 . S
C2130 C2131 1.394 . S
C2130 C2136 1.465 . S
C2131 C2126 1.399 . S
C2131 C2130 1.394 . S
C2131 C2132 1.516 . S
C2132 C2131 1.516 . S
C2132 C2133 1.502 . S
C2132 C2134 1.561 . S
C2132 C2135 1.526 . S
C2133 H2117 0.959 . S
C2133 H2118 0.959 . S
C2133 H2119 0.961 . S
C2133 C2132 1.502 . S
C2134 H2120 0.960 . S
C2134 H2121 0.961 . S
C2134 H2122 0.959 . S
C2134 C2132 1.561 . S
C2135 C2132 1.526 . S
C2135 C2136 1.396 . S
C2135 C2140 1.390 . S
C2136 C2130 1.465 . S
C2136 C2135 1.396 . S
C2136 C2137 1.399 . S
C2137 H2123 0.929 . S
C2137 C2136 1.399 . S
C2137 C2138 1.385 . S
C2138 H2124 0.931 . S
C2138 C2137 1.385 . S
C2138 C2139 1.389 . S
C2139 C2138 1.389 . S
C2139 C2140 1.387 . S
C2140 H2125 0.930 . S
C2140 C2135 1.390 . S
C2140 C2139 1.387 . S
H2141 C2153 0.930 . S
H2142 C2155 0.930 . S
H2143 C2156 0.930 . S
H2144 C2160 0.959 . S
H2145 C2160 0.959 . S
H2146 C2160 0.961 . S
H2147 C2161 0.960 . S
H2148 C2161 0.961 . S
H2149 C2161 0.959 . S
H2150 C2164 0.929 . S
H2151 C2165 0.931 . S
H2152 C2167 0.930 . S
C2153 H2141 0.930 . S
C2153 C2154 1.399 . S
C2153 C2158 1.399 . S
C2154 C2153 1.399 . S
C2154 C2155 1.376 . S
C2155 H2142 0.930 . S
C2155 C2154 1.376 . S
C2155 C2156 1.388 . S
C2156 H2143 0.930 . S
C2156 C2155 1.388 . S
C2156 C2157 1.390 . S
C2157 C2156 1.390 . S
C2157 C2158 1.394 . S
C2157 C2163 1.465 . S
C2158 C2153 1.399 . S
C2158 C2157 1.394 . S
C2158 C2159 1.516 . S
C2159 C2158 1.516 . S
C2159 C2160 1.502 . S
C2159 C2161 1.561 . S
C2159 C2162 1.526 . S
C2160 H2144 0.959 . S
C2160 H2145 0.959 . S
C2160 H2146 0.961 . S
C2160 C2159 1.502 . S
C2161 H2147 0.960 . S
C2161 H2148 0.961 . S
C2161 H2149 0.959 . S
C2161 C2159 1.561 . S
C2162 C2159 1.526 . S
C2162 C2163 1.396 . S
C2162 C2167 1.390 . S
C2163 C2157 1.465 . S
C2163 C2162 1.396 . S
C2163 C2164 1.399 . S
C2164 H2150 0.929 . S
C2164 C2163 1.399 . S
C2164 C2165 1.385 . S
C2165 H2151 0.931 . S
C2165 C2164 1.385 . S
C2165 C2166 1.389 . S
C2166 C2165 1.389 . S
C2166 C2167 1.387 . S
C2167 H2152 0.930 . S
C2167 C2162 1.390 . S
C2167 C2166 1.387 . S
H2168 C2180 0.930 . S
H2169 C2182 0.930 . S
H2170 C2183 0.930 . S
H2171 C2187 0.959 . S
H2172 C2187 0.959 . S
H2173 C2187 0.961 . S
H2174 C2188 0.960 . S
H2175 C2188 0.961 . S
H2176 C2188 0.959 . S
H2177 C2191 0.929 . S
H2178 C2192 0.931 . S
H2179 C2194 0.930 . S
C2180 H2168 0.930 . S
C2180 C2181 1.399 . S
C2180 C2185 1.399 . S
C2181 C2180 1.399 . S
C2181 C2182 1.376 . S
C2182 H2169 0.930 . S
C2182 C2181 1.376 . S
C2182 C2183 1.388 . S
C2183 H2170 0.930 . S
C2183 C2182 1.388 . S
C2183 C2184 1.390 . S
C2184 C2183 1.390 . S
C2184 C2185 1.394 . S
C2184 C2190 1.465 . S
C2185 C2180 1.399 . S
C2185 C2184 1.394 . S
C2185 C2186 1.516 . S
C2186 C2185 1.516 . S
C2186 C2187 1.502 . S
C2186 C2188 1.561 1_556 S
C2186 C2189 1.526 . S
C2187 H2171 0.959 . S
C2187 H2172 0.959 . S
C2187 H2173 0.961 . S
C2187 C2186 1.502 . S
C2188 H2174 0.960 . S
C2188 H2175 0.961 . S
C2188 H2176 0.959 . S
C2188 C2186 1.561 1_554 S
C2189 C2186 1.526 . S
C2189 C2190 1.396 . S
C2189 C2194 1.390 . S
C2190 C2184 1.465 . S
C2190 C2189 1.396 . S
C2190 C2191 1.399 . S
C2191 H2177 0.929 . S
C2191 C2190 1.399 . S
C2191 C2192 1.385 . S
C2192 H2178 0.931 . S
C2192 C2191 1.385 . S
C2192 C2193 1.389 . S
C2193 C2192 1.389 . S
C2193 C2194 1.387 . S
C2194 H2179 0.930 . S
C2194 C2189 1.390 . S
C2194 C2193 1.387 . S
H2195 C2207 0.930 . S
H2196 C2209 0.930 . S
H2197 C2210 0.930 . S
H2198 C2214 0.959 . S
H2199 C2214 0.959 . S
H2200 C2214 0.961 . S
H2201 C2215 0.960 . S
H2202 C2215 0.961 . S
H2203 C2215 0.959 . S
H2204 C2218 0.929 . S
H2205 C2219 0.931 . S
H2206 C2221 0.930 . S
C2207 H2195 0.930 . S
C2207 C2208 1.399 . S
C2207 C2212 1.399 . S
C2208 C2207 1.399 . S
C2208 C2209 1.376 . S
C2209 H2196 0.930 . S
C2209 C2208 1.376 . S
C2209 C2210 1.388 . S
C2210 H2197 0.930 . S
C2210 C2209 1.388 . S
C2210 C2211 1.390 . S
C2211 C2210 1.390 . S
C2211 C2212 1.394 . S
C2211 C2217 1.465 . S
C2212 C2207 1.399 . S
C2212 C2211 1.394 . S
C2212 C2213 1.516 . S
C2213 C2212 1.516 . S
C2213 C2214 1.502 . S
C2213 C2215 1.561 . S
C2213 C2216 1.526 . S
C2214 H2198 0.959 . S
C2214 H2199 0.959 . S
C2214 H2200 0.961 . S
C2214 C2213 1.502 . S
C2215 H2201 0.960 . S
C2215 H2202 0.961 . S
C2215 H2203 0.959 . S
C2215 C2213 1.561 . S
C2216 C2213 1.526 . S
C2216 C2217 1.396 . S
C2216 C2221 1.390 . S
C2217 C2211 1.465 . S
C2217 C2216 1.396 . S
C2217 C2218 1.399 . S
C2218 H2204 0.929 . S
C2218 C2217 1.399 . S
C2218 C2219 1.385 . S
C2219 H2205 0.931 . S
C2219 C2218 1.385 . S
C2219 C2220 1.389 . S
C2220 C2219 1.389 . S
C2220 C2221 1.387 . S
C2221 H2206 0.930 . S
C2221 C2216 1.390 . S
C2221 C2220 1.387 . S
H2222 C2234 0.930 . S
H2223 C2236 0.930 . S
H2224 C2237 0.930 . S
H2225 C2241 0.959 . S
H2226 C2241 0.959 . S
H2227 C2241 0.961 . S
H2228 C2242 0.960 . S
H2229 C2242 0.961 . S
H2230 C2242 0.959 . S
H2231 C2245 0.929 . S
H2232 C2246 0.931 . S
H2233 C2248 0.930 . S
C2234 H2222 0.930 . S
C2234 C2235 1.399 . S
C2234 C2239 1.399 . S
C2235 C2234 1.399 . S
C2235 C2236 1.376 . S
C2236 H2223 0.930 . S
C2236 C2235 1.376 . S
C2236 C2237 1.388 . S
C2237 H2224 0.930 . S
C2237 C2236 1.388 . S
C2237 C2238 1.390 . S
C2238 C2237 1.390 . S
C2238 C2239 1.394 . S
C2238 C2244 1.465 . S
C2239 C2234 1.399 . S
C2239 C2238 1.394 . S
C2239 C2240 1.516 . S
C2240 C2239 1.516 . S
C2240 C2241 1.502 . S
C2240 C2242 1.561 . S
C2240 C2243 1.526 . S
C2241 H2225 0.959 . S
C2241 H2226 0.959 . S
C2241 H2227 0.961 . S
C2241 C2240 1.502 . S
C2242 H2228 0.960 . S
C2242 H2229 0.961 . S
C2242 H2230 0.959 . S
C2242 C2240 1.561 . S
C2243 C2240 1.526 . S
C2243 C2244 1.396 . S
C2243 C2248 1.390 . S
C2244 C2238 1.465 . S
C2244 C2243 1.396 . S
C2244 C2245 1.399 . S
C2245 H2231 0.929 . S
C2245 C2244 1.399 . S
C2245 C2246 1.385 . S
C2246 H2232 0.931 . S
C2246 C2245 1.385 . S
C2246 C2247 1.389 . S
C2247 C2246 1.389 . S
C2247 C2248 1.387 . S
C2248 H2233 0.930 . S
C2248 C2243 1.390 . S
C2248 C2247 1.387 . S
H2249 C2261 0.930 . S
H2250 C2263 0.930 . S
H2251 C2264 0.928 1_556 S
H2252 C2268 0.959 . S
H2253 C2268 0.959 . S
H2254 C2268 0.961 . S
H2255 C2269 0.960 . S
H2256 C2269 0.961 . S
H2257 C2269 0.959 . S
H2258 C2272 0.929 1_556 S
H2259 C2273 0.931 1_556 S
H2260 C2275 0.930 . S
C2261 H2249 0.930 . S
C2261 C2262 1.399 . S
C2261 C2266 1.399 . S
C2262 C2261 1.399 . S
C2262 C2263 1.376 . S
C2263 H2250 0.930 . S
C2263 C2262 1.376 . S
C2263 C2264 1.388 . S
C2264 H2251 0.928 1_554 S
C2264 C2263 1.388 . S
C2264 C2265 1.390 . S
C2265 C2264 1.390 . S
C2265 C2266 1.394 . S
C2265 C2271 1.465 . S
C2266 C2261 1.399 . S
C2266 C2265 1.394 . S
C2266 C2267 1.516 . S
C2267 C2266 1.516 . S
C2267 C2268 1.502 . S
C2267 C2269 1.561 . S
C2267 C2270 1.526 . S
C2268 H2252 0.959 . S
C2268 H2253 0.959 . S
C2268 H2254 0.961 . S
C2268 C2267 1.502 . S
C2269 H2255 0.960 . S
C2269 H2256 0.961 . S
C2269 H2257 0.959 . S
C2269 C2267 1.561 . S
C2270 C2267 1.526 . S
C2270 C2271 1.396 . S
C2270 C2275 1.390 . S
C2271 C2265 1.465 . S
C2271 C2270 1.396 . S
C2271 C2272 1.399 . S
C2272 H2258 0.929 1_554 S
C2272 C2271 1.399 . S
C2272 C2273 1.385 . S
C2273 H2259 0.931 1_554 S
C2273 C2272 1.385 . S
C2273 C2274 1.389 . S
C2274 C2273 1.389 . S
C2274 C2275 1.387 . S
C2275 H2260 0.930 . S
C2275 C2270 1.390 . S
C2275 C2274 1.387 . S
H2276 C2288 0.930 . S
H2277 C2290 0.930 . S
H2278 C2291 0.930 . S
H2279 C2295 0.959 . S
H2280 C2295 0.959 . S
H2281 C2295 0.961 . S
H2282 C2296 0.960 . S
H2283 C2296 0.961 . S
H2284 C2296 0.959 . S
H2285 C2299 0.929 . S
H2286 C2300 0.931 . S
H2287 C2302 0.930 . S
C2288 H2276 0.930 . S
C2288 C2289 1.399 . S
C2288 C2293 1.399 . S
C2289 C2288 1.399 . S
C2289 C2290 1.376 . S
C2290 H2277 0.930 . S
C2290 C2289 1.376 . S
C2290 C2291 1.388 . S
C2291 H2278 0.930 . S
C2291 C2290 1.388 . S
C2291 C2292 1.390 . S
C2292 C2291 1.390 . S
C2292 C2293 1.394 . S
C2292 C2298 1.465 . S
C2293 C2288 1.399 . S
C2293 C2292 1.394 . S
C2293 C2294 1.516 . S
C2294 C2293 1.516 . S
C2294 C2295 1.502 . S
C2294 C2296 1.561 1_554 S
C2294 C2297 1.526 . S
C2295 H2279 0.959 . S
C2295 H2280 0.959 . S
C2295 H2281 0.961 . S
C2295 C2294 1.502 . S
C2296 H2282 0.960 . S
C2296 H2283 0.961 . S
C2296 H2284 0.959 . S
C2296 C2294 1.561 1_556 S
C2297 C2294 1.526 . S
C2297 C2298 1.396 . S
C2297 C2302 1.390 . S
C2298 C2292 1.465 . S
C2298 C2297 1.396 . S
C2298 C2299 1.399 . S
C2299 H2285 0.929 . S
C2299 C2298 1.399 . S
C2299 C2300 1.385 . S
C2300 H2286 0.931 . S
C2300 C2299 1.385 . S
C2300 C2301 1.389 . S
C2301 C2300 1.389 . S
C2301 C2302 1.387 . S
C2302 H2287 0.930 . S
C2302 C2297 1.390 . S
C2302 C2301 1.387 . S
H2303 C2315 0.930 . S
H2304 C2317 0.930 . S
H2305 C2318 0.930 . S
H2306 C2322 0.959 . S
H2307 C2322 0.959 1_554 S
H2308 C2322 0.961 . S
H2309 C2323 0.960 . S
H2310 C2323 0.961 . S
H2311 C2323 0.959 . S
H2312 C2326 0.929 . S
H2313 C2327 0.931 . S
H2314 C2329 0.930 . S
C2315 H2303 0.930 . S
C2315 C2316 1.399 . S
C2315 C2320 1.399 . S
C2316 C2315 1.399 . S
C2316 C2317 1.376 . S
C2317 H2304 0.930 . S
C2317 C2316 1.376 . S
C2317 C2318 1.388 . S
C2318 H2305 0.930 . S
C2318 C2317 1.388 . S
C2318 C2319 1.390 . S
C2319 C2318 1.390 . S
C2319 C2320 1.394 . S
C2319 C2325 1.465 . S
C2320 C2315 1.399 . S
C2320 C2319 1.394 . S
C2320 C2321 1.516 . S
C2321 C2320 1.516 . S
C2321 C2322 1.502 . S
C2321 C2323 1.561 1_556 S
C2321 C2324 1.526 . S
C2322 H2306 0.959 . S
C2322 H2307 0.959 1_556 S
C2322 H2308 0.961 . S
C2322 C2321 1.502 . S
C2323 H2309 0.960 . S
C2323 H2310 0.961 . S
C2323 H2311 0.959 . S
C2323 C2321 1.561 1_554 S
C2324 C2321 1.526 . S
C2324 C2325 1.396 . S
C2324 C2329 1.390 . S
C2325 C2319 1.465 . S
C2325 C2324 1.396 . S
C2325 C2326 1.399 . S
C2326 H2312 0.929 . S
C2326 C2325 1.399 . S
C2326 C2327 1.385 . S
C2327 H2313 0.931 . S
C2327 C2326 1.385 . S
C2327 C2328 1.389 . S
C2328 C2327 1.389 . S
C2328 C2329 1.387 . S
C2329 H2314 0.930 . S
C2329 C2324 1.390 . S
C2329 C2328 1.387 . S
H2330 C2342 0.930 . S
H2331 C2344 0.930 . S
H2332 C2345 0.930 . S
H2333 C2349 0.959 . S
H2334 C2349 0.959 . S
H2335 C2349 0.961 . S
H2336 C2350 0.960 . S
H2337 C2350 0.961 . S
H2338 C2350 0.959 . S
H2339 C2353 0.929 . S
H2340 C2354 0.931 . S
H2341 C2356 0.930 . S
C2342 H2330 0.930 . S
C2342 C2343 1.399 . S
C2342 C2347 1.399 . S
C2343 C2342 1.399 . S
C2343 C2344 1.376 . S
C2344 H2331 0.930 . S
C2344 C2343 1.376 . S
C2344 C2345 1.388 . S
C2345 H2332 0.930 . S
C2345 C2344 1.388 . S
C2345 C2346 1.390 . S
C2346 C2345 1.390 . S
C2346 C2347 1.394 . S
C2346 C2352 1.465 . S
C2347 C2342 1.399 . S
C2347 C2346 1.394 . S
C2347 C2348 1.516 . S
C2348 C2347 1.516 . S
C2348 C2349 1.502 . S
C2348 C2350 1.561 . S
C2348 C2351 1.526 . S
C2349 H2333 0.959 . S
C2349 H2334 0.959 . S
C2349 H2335 0.961 . S
C2349 C2348 1.502 . S
C2350 H2336 0.960 . S
C2350 H2337 0.961 . S
C2350 H2338 0.959 . S
C2350 C2348 1.561 . S
C2351 C2348 1.526 . S
C2351 C2352 1.396 . S
C2351 C2356 1.390 . S
C2352 C2346 1.465 . S
C2352 C2351 1.396 . S
C2352 C2353 1.399 . S
C2353 H2339 0.929 . S
C2353 C2352 1.399 . S
C2353 C2354 1.385 . S
C2354 H2340 0.931 . S
C2354 C2353 1.385 . S
C2354 C2355 1.389 . S
C2355 C2354 1.389 . S
C2355 C2356 1.387 . S
C2356 H2341 0.930 . S
C2356 C2351 1.390 . S
C2356 C2355 1.387 . S
H2357 C2369 0.930 . S
H2358 C2371 0.930 . S
H2359 C2372 0.930 . S
H2360 C2376 0.959 . S
H2361 C2376 0.959 . S
H2362 C2376 0.961 . S
H2363 C2377 0.960 . S
H2364 C2377 0.961 . S
H2365 C2377 0.959 . S
H2366 C2380 0.929 . S
H2367 C2381 0.931 . S
H2368 C2383 0.930 . S
C2369 H2357 0.930 . S
C2369 C2370 1.399 . S
C2369 C2374 1.399 . S
C2370 C2369 1.399 . S
C2370 C2371 1.376 . S
C2371 H2358 0.930 . S
C2371 C2370 1.376 . S
C2371 C2372 1.388 . S
C2372 H2359 0.930 . S
C2372 C2371 1.388 . S
C2372 C2373 1.390 . S
C2373 C2372 1.390 . S
C2373 C2374 1.394 . S
C2373 C2379 1.465 . S
C2374 C2369 1.399 . S
C2374 C2373 1.394 . S
C2374 C2375 1.516 . S
C2375 C2374 1.516 . S
C2375 C2376 1.502 . S
C2375 C2377 1.561 . S
C2375 C2378 1.526 . S
C2376 H2360 0.959 . S
C2376 H2361 0.959 . S
C2376 H2362 0.961 . S
C2376 C2375 1.502 . S
C2377 H2363 0.960 . S
C2377 H2364 0.961 . S
C2377 H2365 0.959 . S
C2377 C2375 1.561 . S
C2378 C2375 1.526 . S
C2378 C2379 1.396 . S
C2378 C2383 1.390 . S
C2379 C2373 1.465 . S
C2379 C2378 1.396 . S
C2379 C2380 1.399 . S
C2380 H2366 0.929 . S
C2380 C2379 1.399 . S
C2380 C2381 1.385 . S
C2381 H2367 0.931 . S
C2381 C2380 1.385 . S
C2381 C2382 1.389 . S
C2382 C2381 1.389 . S
C2382 C2383 1.387 . S
C2383 H2368 0.930 . S
C2383 C2378 1.390 . S
C2383 C2382 1.387 . S
H2384 C2396 0.930 . S
H2385 C2398 0.930 . S
H2386 C2399 0.930 . S
H2387 C2403 0.959 . S
H2388 C2403 0.959 . S
H2389 C2403 0.961 . S
H2390 C2404 0.960 . S
H2391 C2404 0.961 . S
H2392 C2404 0.959 . S
H2393 C2407 0.929 . S
H2394 C2408 0.931 . S
H2395 C2410 0.930 . S
C2396 H2384 0.930 . S
C2396 C2397 1.399 1_554 S
C2396 C2401 1.399 . S
C2397 C2396 1.399 1_556 S
C2397 C2398 1.376 . S
C2398 H2385 0.930 . S
C2398 C2397 1.376 . S
C2398 C2399 1.388 . S
C2399 H2386 0.930 . S
C2399 C2398 1.388 . S
C2399 C2400 1.390 . S
C2400 C2399 1.390 . S
C2400 C2401 1.394 1_556 S
C2400 C2406 1.465 . S
C2401 C2396 1.399 . S
C2401 C2400 1.394 1_554 S
C2401 C2402 1.516 . S
C2402 C2401 1.516 . S
C2402 C2403 1.502 . S
C2402 C2404 1.561 . S
C2402 C2405 1.526 . S
C2403 H2387 0.959 . S
C2403 H2388 0.959 . S
C2403 H2389 0.961 . S
C2403 C2402 1.502 . S
C2404 H2390 0.960 . S
C2404 H2391 0.961 . S
C2404 H2392 0.959 . S
C2404 C2402 1.561 . S
C2405 C2402 1.526 . S
C2405 C2406 1.396 1_554 S
C2405 C2410 1.390 . S
C2406 C2400 1.465 . S
C2406 C2405 1.396 1_556 S
C2406 C2407 1.399 . S
C2407 H2393 0.929 . S
C2407 C2406 1.399 . S
C2407 C2408 1.385 . S
C2408 H2394 0.931 . S
C2408 C2407 1.385 . S
C2408 C2409 1.389 1_556 S
C2409 C2408 1.389 1_554 S
C2409 C2410 1.387 . S
C2410 H2395 0.930 . S
C2410 C2405 1.390 . S
C2410 C2409 1.387 . S
H2411 C2423 0.930 . S
H2412 C2425 0.930 . S
H2413 C2426 0.930 . S
H2414 C2430 0.959 . S
H2415 C2430 0.959 . S
H2416 C2430 0.961 . S
H2417 C2431 0.960 . S
H2418 C2431 0.961 . S
H2419 C2431 0.959 . S
H2420 C2434 0.929 . S
H2421 C2435 0.931 . S
H2422 C2437 0.930 . S
C2423 H2411 0.930 . S
C2423 C2424 1.399 . S
C2423 C2428 1.399 . S
C2424 C2423 1.399 . S
C2424 C2425 1.376 . S
C2425 H2412 0.930 . S
C2425 C2424 1.376 . S
C2425 C2426 1.388 . S
C2426 H2413 0.930 . S
C2426 C2425 1.388 . S
C2426 C2427 1.390 . S
C2427 C2426 1.390 . S
C2427 C2428 1.394 . S
C2427 C2433 1.465 . S
C2428 C2423 1.399 . S
C2428 C2427 1.394 . S
C2428 C2429 1.516 . S
C2429 C2428 1.516 . S
C2429 C2430 1.502 . S
C2429 C2431 1.561 . S
C2429 C2432 1.526 . S
C2430 H2414 0.959 . S
C2430 H2415 0.959 . S
C2430 H2416 0.961 . S
C2430 C2429 1.502 . S
C2431 H2417 0.960 . S
C2431 H2418 0.961 . S
C2431 H2419 0.959 . S
C2431 C2429 1.561 . S
C2432 C2429 1.526 . S
C2432 C2433 1.396 . S
C2432 C2437 1.390 . S
C2433 C2427 1.465 . S
C2433 C2432 1.396 . S
C2433 C2434 1.399 . S
C2434 H2420 0.929 . S
C2434 C2433 1.399 . S
C2434 C2435 1.385 . S
C2435 H2421 0.931 . S
C2435 C2434 1.385 . S
C2435 C2436 1.389 . S
C2436 C2435 1.389 . S
C2436 C2437 1.387 . S
C2437 H2422 0.930 . S
C2437 C2432 1.390 . S
C2437 C2436 1.387 . S
H2438 C2450 0.930 . S
H2439 C2452 0.930 . S
H2440 C2453 0.930 . S
H2441 C2457 0.959 . S
H2442 C2457 0.959 . S
H2443 C2457 0.961 . S
H2444 C2458 0.960 . S
H2445 C2458 0.961 . S
H2446 C2458 0.959 . S
H2447 C2461 0.929 . S
H2448 C2462 0.931 . S
H2449 C2464 0.930 . S
C2450 H2438 0.930 . S
C2450 C2451 1.399 . S
C2450 C2455 1.399 . S
C2451 C2450 1.399 . S
C2451 C2452 1.376 . S
C2452 H2439 0.930 . S
C2452 C2451 1.376 . S
C2452 C2453 1.388 . S
C2453 H2440 0.930 . S
C2453 C2452 1.388 . S
C2453 C2454 1.390 . S
C2454 C2453 1.390 . S
C2454 C2455 1.394 . S
C2454 C2460 1.465 . S
C2455 C2450 1.399 . S
C2455 C2454 1.394 . S
C2455 C2456 1.516 . S
C2456 C2455 1.516 . S
C2456 C2457 1.502 . S
C2456 C2458 1.561 . S
C2456 C2459 1.526 . S
C2457 H2441 0.959 . S
C2457 H2442 0.959 . S
C2457 H2443 0.961 . S
C2457 C2456 1.502 . S
C2458 H2444 0.960 . S
C2458 H2445 0.961 . S
C2458 H2446 0.959 . S
C2458 C2456 1.561 . S
C2459 C2456 1.526 . S
C2459 C2460 1.396 . S
C2459 C2464 1.390 . S
C2460 C2454 1.465 . S
C2460 C2459 1.396 . S
C2460 C2461 1.399 . S
C2461 H2447 0.929 . S
C2461 C2460 1.399 . S
C2461 C2462 1.385 . S
C2462 H2448 0.931 . S
C2462 C2461 1.385 . S
C2462 C2463 1.389 . S
C2463 C2462 1.389 . S
C2463 C2464 1.387 . S
C2464 H2449 0.930 . S
C2464 C2459 1.390 . S
C2464 C2463 1.387 . S
H2465 C2477 0.930 . S
H2466 C2479 0.930 . S
H2467 C2480 0.930 . S
H2468 C2484 0.959 . S
H2469 C2484 0.959 . S
H2470 C2484 0.961 . S
H2471 C2485 0.960 . S
H2472 C2485 0.961 . S
H2473 C2485 0.959 . S
H2474 C2488 0.929 . S
H2475 C2489 0.931 . S
H2476 C2491 0.930 . S
C2477 H2465 0.930 . S
C2477 C2478 1.399 . S
C2477 C2482 1.399 . S
C2478 C2477 1.399 . S
C2478 C2479 1.376 . S
C2479 H2466 0.930 . S
C2479 C2478 1.376 . S
C2479 C2480 1.388 . S
C2480 H2467 0.930 . S
C2480 C2479 1.388 . S
C2480 C2481 1.390 . S
C2481 C2480 1.390 . S
C2481 C2482 1.394 . S
C2481 C2487 1.465 . S
C2482 C2477 1.399 . S
C2482 C2481 1.394 . S
C2482 C2483 1.516 . S
C2483 C2482 1.516 . S
C2483 C2484 1.502 . S
C2483 C2485 1.561 . S
C2483 C2486 1.526 . S
C2484 H2468 0.959 . S
C2484 H2469 0.959 . S
C2484 H2470 0.961 . S
C2484 C2483 1.502 . S
C2485 H2471 0.960 . S
C2485 H2472 0.961 . S
C2485 H2473 0.959 . S
C2485 C2483 1.561 . S
C2486 C2483 1.526 . S
C2486 C2487 1.396 . S
C2486 C2491 1.390 . S
C2487 C2481 1.465 . S
C2487 C2486 1.396 . S
C2487 C2488 1.399 . S
C2488 H2474 0.929 . S
C2488 C2487 1.399 . S
C2488 C2489 1.385 . S
C2489 H2475 0.931 . S
C2489 C2488 1.385 . S
C2489 C2490 1.389 . S
C2490 C2489 1.389 . S
C2490 C2491 1.387 . S
C2491 H2476 0.930 . S
C2491 C2486 1.390 . S
C2491 C2490 1.387 . S
H2492 C2504 0.930 . S
H2493 C2506 0.930 . S
H2494 C2507 0.930 . S
H2495 C2511 0.959 . S
H2496 C2511 0.959 1_554 S
H2497 C2511 0.961 . S
H2498 C2512 0.960 . S
H2499 C2512 0.961 . S
H2500 C2512 0.959 . S
H2501 C2515 0.934 . S
H2502 C2516 0.931 . S
H2503 C2518 0.930 . S
C2504 H2492 0.930 . S
C2504 C2505 1.399 . S
C2504 C2509 1.399 . S
C2505 C2504 1.399 . S
C2505 C2506 1.376 . S
C2506 H2493 0.930 . S
C2506 C2505 1.376 . S
C2506 C2507 1.388 . S
C2507 H2494 0.930 . S
C2507 C2506 1.388 . S
C2507 C2508 1.390 . S
C2508 C2507 1.390 . S
C2508 C2509 1.394 . S
C2508 C2514 1.465 1_556 S
C2509 C2504 1.399 . S
C2509 C2508 1.394 . S
C2509 C2510 1.516 1_556 S
C2510 C2509 1.516 1_554 S
C2510 C2511 1.502 1_554 S
C2510 C2512 1.561 . S
C2510 C2513 1.526 . S
C2511 H2495 0.959 . S
C2511 H2496 0.959 1_556 S
C2511 H2497 0.961 . S
C2511 C2510 1.502 1_556 S
C2512 H2498 0.960 . S
C2512 H2499 0.961 . S
C2512 H2500 0.959 . S
C2512 C2510 1.561 . S
C2513 C2510 1.526 . S
C2513 C2514 1.396 . S
C2513 C2518 1.390 . S
C2514 C2508 1.465 1_554 S
C2514 C2513 1.396 . S
C2514 C2515 1.399 . S
C2515 H2501 0.934 . S
C2515 C2514 1.399 . S
C2515 C2516 1.385 . S
C2516 H2502 0.931 . S
C2516 C2515 1.385 . S
C2516 C2517 1.389 . S
C2517 C2516 1.389 . S
C2517 C2518 1.387 . S
C2518 H2503 0.930 . S
C2518 C2513 1.390 . S
C2518 C2517 1.387 . S
H2519 C2531 0.930 . S
H2520 C2533 0.930 . S
H2521 C2534 0.930 . S
H2522 C2538 0.959 . S
H2523 C2538 0.959 . S
H2524 C2538 0.961 . S
H2525 C2539 0.960 . S
H2526 C2539 0.961 . S
H2527 C2539 0.959 . S
H2528 C2542 0.929 . S
H2529 C2543 0.931 . S
H2530 C2545 0.930 . S
C2531 H2519 0.930 . S
C2531 C2532 1.399 . S
C2531 C2536 1.399 . S
C2532 C2531 1.399 . S
C2532 C2533 1.376 . S
C2533 H2520 0.930 . S
C2533 C2532 1.376 . S
C2533 C2534 1.388 . S
C2534 H2521 0.930 . S
C2534 C2533 1.388 . S
C2534 C2535 1.390 . S
C2535 C2534 1.390 . S
C2535 C2536 1.394 . S
C2535 C2541 1.465 . S
C2536 C2531 1.399 . S
C2536 C2535 1.394 . S
C2536 C2537 1.516 . S
C2537 C2536 1.516 . S
C2537 C2538 1.502 . S
C2537 C2539 1.561 . S
C2537 C2540 1.526 . S
C2538 H2522 0.959 . S
C2538 H2523 0.959 . S
C2538 H2524 0.961 . S
C2538 C2537 1.502 . S
C2539 H2525 0.960 . S
C2539 H2526 0.961 . S
C2539 H2527 0.959 . S
C2539 C2537 1.561 . S
C2540 C2537 1.526 . S
C2540 C2541 1.396 . S
C2540 C2545 1.390 . S
C2541 C2535 1.465 . S
C2541 C2540 1.396 . S
C2541 C2542 1.399 . S
C2542 H2528 0.929 . S
C2542 C2541 1.399 . S
C2542 C2543 1.385 . S
C2543 H2529 0.931 . S
C2543 C2542 1.385 . S
C2543 C2544 1.389 . S
C2544 C2543 1.389 . S
C2544 C2545 1.387 . S
C2545 H2530 0.930 . S
C2545 C2540 1.390 . S
C2545 C2544 1.387 . S
H2546 C2558 0.930 . S
H2547 C2560 0.930 . S
H2548 C2561 0.930 . S
H2549 C2565 0.959 . S
H2550 C2565 0.959 . S
H2551 C2565 0.961 . S
H2552 C2566 0.960 . S
H2553 C2566 0.961 . S
H2554 C2566 0.959 . S
H2555 C2569 0.929 . S
H2556 C2570 0.931 . S
H2557 C2572 0.930 . S
C2558 H2546 0.930 . S
C2558 C2559 1.399 . S
C2558 C2563 1.399 . S
C2559 C2558 1.399 . S
C2559 C2560 1.376 . S
C2560 H2547 0.930 . S
C2560 C2559 1.376 . S
C2560 C2561 1.388 . S
C2561 H2548 0.930 . S
C2561 C2560 1.388 . S
C2561 C2562 1.390 . S
C2562 C2561 1.390 . S
C2562 C2563 1.394 . S
C2562 C2568 1.465 . S
C2563 C2558 1.399 . S
C2563 C2562 1.394 . S
C2563 C2564 1.516 . S
C2564 C2563 1.516 . S
C2564 C2565 1.502 . S
C2564 C2566 1.561 . S
C2564 C2567 1.526 . S
C2565 H2549 0.959 . S
C2565 H2550 0.959 . S
C2565 H2551 0.961 . S
C2565 C2564 1.502 . S
C2566 H2552 0.960 . S
C2566 H2553 0.961 . S
C2566 H2554 0.959 . S
C2566 C2564 1.561 . S
C2567 C2564 1.526 . S
C2567 C2568 1.396 . S
C2567 C2572 1.390 . S
C2568 C2562 1.465 . S
C2568 C2567 1.396 . S
C2568 C2569 1.399 . S
C2569 H2555 0.929 . S
C2569 C2568 1.399 . S
C2569 C2570 1.385 . S
C2570 H2556 0.931 . S
C2570 C2569 1.385 . S
C2570 C2571 1.389 . S
C2571 C2570 1.389 . S
C2571 C2572 1.387 . S
C2572 H2557 0.930 . S
C2572 C2567 1.390 . S
C2572 C2571 1.387 . S
H2573 C2585 0.930 . S
H2574 C2587 0.930 . S
H2575 C2588 0.930 . S
H2576 C2592 0.959 . S
H2577 C2592 0.959 . S
H2578 C2592 0.961 . S
H2579 C2593 0.960 . S
H2580 C2593 0.961 . S
H2581 C2593 0.959 . S
H2582 C2596 0.929 . S
H2583 C2597 0.931 . S
H2584 C2599 0.930 . S
C2585 H2573 0.930 . S
C2585 C2586 1.399 . S
C2585 C2590 1.399 . S
C2586 C2585 1.399 . S
C2586 C2587 1.376 . S
C2587 H2574 0.930 . S
C2587 C2586 1.376 . S
C2587 C2588 1.388 . S
C2588 H2575 0.930 . S
C2588 C2587 1.388 . S
C2588 C2589 1.390 . S
C2589 C2588 1.390 . S
C2589 C2590 1.394 . S
C2589 C2595 1.465 . S
C2590 C2585 1.399 . S
C2590 C2589 1.394 . S
C2590 C2591 1.516 . S
C2591 C2590 1.516 . S
C2591 C2592 1.502 . S
C2591 C2593 1.561 . S
C2591 C2594 1.526 . S
C2592 H2576 0.959 . S
C2592 H2577 0.959 . S
C2592 H2578 0.961 . S
C2592 C2591 1.502 . S
C2593 H2579 0.960 . S
C2593 H2580 0.961 . S
C2593 H2581 0.959 . S
C2593 C2591 1.561 . S
C2594 C2591 1.526 . S
C2594 C2595 1.396 . S
C2594 C2599 1.390 . S
C2595 C2589 1.465 . S
C2595 C2594 1.396 . S
C2595 C2596 1.399 . S
C2596 H2582 0.929 . S
C2596 C2595 1.399 . S
C2596 C2597 1.385 . S
C2597 H2583 0.931 . S
C2597 C2596 1.385 . S
C2597 C2598 1.389 . S
C2598 C2597 1.389 . S
C2598 C2599 1.387 . S
C2599 H2584 0.930 . S
C2599 C2594 1.390 . S
C2599 C2598 1.387 . S
H2600 C2612 0.930 . S
H2601 C2614 0.930 . S
H2602 C2615 0.930 . S
H2603 C2619 0.959 . S
H2604 C2619 0.948 1_545 S
H2605 C2619 0.961 . S
H2606 C2620 0.960 . S
H2607 C2620 0.961 . S
H2608 C2620 0.959 . S
H2609 C2623 0.929 . S
H2610 C2624 0.931 . S
H2611 C2626 0.930 . S
C2612 H2600 0.930 . S
C2612 C2613 1.399 . S
C2612 C2617 1.399 . S
C2613 C2612 1.399 . S
C2613 C2614 1.376 . S
C2614 H2601 0.930 . S
C2614 C2613 1.376 . S
C2614 C2615 1.388 . S
C2615 H2602 0.930 . S
C2615 C2614 1.388 . S
C2615 C2616 1.390 . S
C2616 C2615 1.390 . S
C2616 C2617 1.394 . S
C2616 C2622 1.465 1_565 S
C2617 C2612 1.399 . S
C2617 C2616 1.394 . S
C2617 C2618 1.516 . S
C2618 C2617 1.516 . S
C2618 C2619 1.502 . S
C2618 C2620 1.561 . S
C2618 C2621 1.526 1_565 S
C2619 H2603 0.959 . S
C2619 H2604 0.948 1_565 S
C2619 H2605 0.961 . S
C2619 C2618 1.502 . S
C2620 H2606 0.960 . S
C2620 H2607 0.961 . S
C2620 H2608 0.959 . S
C2620 C2618 1.561 . S
C2621 C2618 1.526 1_545 S
C2621 C2622 1.396 . S
C2621 C2626 1.390 . S
C2622 C2616 1.465 1_545 S
C2622 C2621 1.396 . S
C2622 C2623 1.399 . S
C2623 H2609 0.929 . S
C2623 C2622 1.399 . S
C2623 C2624 1.385 . S
C2624 H2610 0.931 . S
C2624 C2623 1.385 . S
C2624 C2625 1.389 . S
C2625 C2624 1.389 . S
C2625 C2626 1.387 . S
C2626 H2611 0.930 . S
C2626 C2621 1.390 . S
C2626 C2625 1.387 . S
H2627 C2639 0.930 . S
H2628 C2641 0.930 . S
H2629 C2642 0.930 . S
H2630 C2646 0.959 . S
H2631 C2646 0.959 . S
H2632 C2646 0.961 . S
H2633 C2647 0.960 . S
H2634 C2647 0.961 . S
H2635 C2647 0.959 . S
H2636 C2650 0.929 . S
H2637 C2651 0.931 . S
H2638 C2653 0.930 . S
C2639 H2627 0.930 . S
C2639 C2640 1.399 . S
C2639 C2644 1.399 . S
C2640 C2639 1.399 . S
C2640 C2641 1.376 . S
C2641 H2628 0.930 . S
C2641 C2640 1.376 . S
C2641 C2642 1.388 . S
C2642 H2629 0.930 . S
C2642 C2641 1.388 . S
C2642 C2643 1.390 . S
C2643 C2642 1.390 . S
C2643 C2644 1.394 . S
C2643 C2649 1.465 . S
C2644 C2639 1.399 . S
C2644 C2643 1.394 . S
C2644 C2645 1.516 . S
C2645 C2644 1.516 . S
C2645 C2646 1.502 . S
C2645 C2647 1.561 . S
C2645 C2648 1.526 . S
C2646 H2630 0.959 . S
C2646 H2631 0.959 . S
C2646 H2632 0.961 . S
C2646 C2645 1.502 . S
C2647 H2633 0.960 . S
C2647 H2634 0.961 . S
C2647 H2635 0.959 . S
C2647 C2645 1.561 . S
C2648 C2645 1.526 . S
C2648 C2649 1.396 . S
C2648 C2653 1.390 . S
C2649 C2643 1.465 . S
C2649 C2648 1.396 . S
C2649 C2650 1.399 . S
C2650 H2636 0.929 . S
C2650 C2649 1.399 . S
C2650 C2651 1.385 . S
C2651 H2637 0.931 . S
C2651 C2650 1.385 . S
C2651 C2652 1.389 . S
C2652 C2651 1.389 . S
C2652 C2653 1.387 . S
C2653 H2638 0.930 . S
C2653 C2648 1.390 . S
C2653 C2652 1.387 . S
H2654 C2666 0.930 . S
H2655 C2668 0.930 . S
H2656 C2669 0.930 . S
H2657 C2673 0.959 . S
H2658 C2673 0.959 . S
H2659 C2673 0.961 1_565 S
H2660 C2674 0.960 . S
H2661 C2674 0.961 . S
H2662 C2674 0.959 . S
H2663 C2677 0.929 . S
H2664 C2678 0.931 . S
H2665 C2680 0.930 1_554 S
C2666 H2654 0.930 . S
C2666 C2667 1.399 . S
C2666 C2671 1.399 . S
C2667 C2666 1.399 . S
C2667 C2668 1.376 1_554 S
C2668 H2655 0.930 . S
C2668 C2667 1.376 1_556 S
C2668 C2669 1.388 . S
C2669 H2656 0.930 . S
C2669 C2668 1.388 . S
C2669 C2670 1.390 . S
C2670 C2669 1.390 . S
C2670 C2671 1.394 1_556 S
C2670 C2676 1.465 1_565 S
C2671 C2666 1.399 . S
C2671 C2670 1.394 1_554 S
C2671 C2672 1.516 1_565 S
C2672 C2671 1.516 1_545 S
C2672 C2673 1.502 . S
C2672 C2674 1.561 . S
C2672 C2675 1.526 . S
C2673 H2657 0.959 . S
C2673 H2658 0.959 . S
C2673 H2659 0.961 1_545 S
C2673 C2672 1.502 . S
C2674 H2660 0.960 . S
C2674 H2661 0.961 . S
C2674 H2662 0.959 . S
C2674 C2672 1.561 . S
C2675 C2672 1.526 . S
C2675 C2676 1.396 1_554 S
C2675 C2680 1.390 1_554 S
C2676 C2670 1.465 1_545 S
C2676 C2675 1.396 1_556 S
C2676 C2677 1.399 . S
C2677 H2663 0.929 . S
C2677 C2676 1.399 . S
C2677 C2678 1.385 . S
C2678 H2664 0.931 . S
C2678 C2677 1.385 . S
C2678 C2679 1.389 . S
C2679 C2678 1.389 . S
C2679 C2680 1.387 . S
C2680 H2665 0.930 1_556 S
C2680 C2675 1.390 1_556 S
C2680 C2679 1.387 . S
H2681 C2693 0.930 . S
H2682 C2695 0.930 . S
H2683 C2696 0.930 . S
H2684 C2700 0.959 . S
H2685 C2700 0.959 . S
H2686 C2700 0.961 . S
H2687 C2701 0.960 . S
H2688 C2701 0.961 . S
H2689 C2701 0.959 . S
H2690 C2704 0.929 . S
H2691 C2705 0.931 . S
H2692 C2707 0.930 . S
C2693 H2681 0.930 . S
C2693 C2694 1.399 . S
C2693 C2698 1.399 . S
C2694 C2693 1.399 . S
C2694 C2695 1.376 . S
C2695 H2682 0.930 . S
C2695 C2694 1.376 . S
C2695 C2696 1.388 . S
C2696 H2683 0.930 . S
C2696 C2695 1.388 . S
C2696 C2697 1.390 . S
C2697 C2696 1.390 . S
C2697 C2698 1.394 . S
C2697 C2703 1.465 . S
C2698 C2693 1.399 . S
C2698 C2697 1.394 . S
C2698 C2699 1.516 . S
C2699 C2698 1.516 . S
C2699 C2700 1.502 . S
C2699 C2701 1.561 . S
C2699 C2702 1.526 . S
C2700 H2684 0.959 . S
C2700 H2685 0.959 . S
C2700 H2686 0.961 . S
C2700 C2699 1.502 . S
C2701 H2687 0.960 . S
C2701 H2688 0.961 . S
C2701 H2689 0.959 . S
C2701 C2699 1.561 . S
C2702 C2699 1.526 . S
C2702 C2703 1.396 . S
C2702 C2707 1.390 . S
C2703 C2697 1.465 . S
C2703 C2702 1.396 . S
C2703 C2704 1.399 . S
C2704 H2690 0.929 . S
C2704 C2703 1.399 . S
C2704 C2705 1.385 . S
C2705 H2691 0.931 . S
C2705 C2704 1.385 . S
C2705 C2706 1.389 . S
C2706 C2705 1.389 . S
C2706 C2707 1.387 . S
C2707 H2692 0.930 . S
C2707 C2702 1.390 . S
C2707 C2706 1.387 . S
H2708 C2720 0.930 . S
H2709 C2722 0.930 . S
H2710 C2723 0.930 . S
H2711 C2727 0.959 . S
H2712 C2727 0.959 . S
H2713 C2727 0.961 . S
H2714 C2728 0.960 . S
H2715 C2728 0.961 . S
H2716 C2728 0.959 . S
H2717 C2731 0.929 . S
H2718 C2732 0.931 . S
H2719 C2734 0.930 . S
C2720 H2708 0.930 . S
C2720 C2721 1.399 . S
C2720 C2725 1.399 . S
C2721 C2720 1.399 . S
C2721 C2722 1.376 . S
C2722 H2709 0.930 . S
C2722 C2721 1.376 . S
C2722 C2723 1.388 . S
C2723 H2710 0.930 . S
C2723 C2722 1.388 . S
C2723 C2724 1.390 . S
C2724 C2723 1.390 . S
C2724 C2725 1.394 . S
C2724 C2730 1.465 1_545 S
C2725 C2720 1.399 . S
C2725 C2724 1.394 . S
C2725 C2726 1.516 1_545 S
C2726 C2725 1.516 1_565 S
C2726 C2727 1.502 . S
C2726 C2728 1.561 . S
C2726 C2729 1.526 . S
C2727 H2711 0.959 . S
C2727 H2712 0.959 . S
C2727 H2713 0.961 . S
C2727 C2726 1.502 . S
C2728 H2714 0.960 . S
C2728 H2715 0.961 . S
C2728 H2716 0.959 . S
C2728 C2726 1.561 . S
C2729 C2726 1.526 . S
C2729 C2730 1.396 . S
C2729 C2734 1.390 . S
C2730 C2724 1.465 1_565 S
C2730 C2729 1.396 . S
C2730 C2731 1.399 . S
C2731 H2717 0.929 . S
C2731 C2730 1.399 . S
C2731 C2732 1.385 . S
C2732 H2718 0.931 . S
C2732 C2731 1.385 . S
C2732 C2733 1.389 . S
C2733 C2732 1.389 . S
C2733 C2734 1.387 . S
C2734 H2719 0.930 . S
C2734 C2729 1.390 . S
C2734 C2733 1.387 . S
H2735 C2747 0.930 . S
H2736 C2749 0.930 . S
H2737 C2750 0.930 . S
H2738 C2754 0.959 . S
H2739 C2754 0.959 . S
H2740 C2754 0.961 . S
H2741 C2755 0.960 . S
H2742 C2755 0.961 . S
H2743 C2755 0.959 . S
H2744 C2758 0.929 . S
H2745 C2759 0.931 . S
H2746 C2761 0.930 . S
C2747 H2735 0.930 . S
C2747 C2748 1.399 . S
C2747 C2752 1.399 . S
C2748 C2747 1.399 . S
C2748 C2749 1.376 . S
C2749 H2736 0.930 . S
C2749 C2748 1.376 . S
C2749 C2750 1.388 . S
C2750 H2737 0.930 . S
C2750 C2749 1.388 . S
C2750 C2751 1.390 . S
C2751 C2750 1.390 . S
C2751 C2752 1.394 . S
C2751 C2757 1.465 . S
C2752 C2747 1.399 . S
C2752 C2751 1.394 . S
C2752 C2753 1.516 . S
C2753 C2752 1.516 . S
C2753 C2754 1.502 . S
C2753 C2755 1.561 . S
C2753 C2756 1.526 . S
C2754 H2738 0.959 . S
C2754 H2739 0.959 . S
C2754 H2740 0.961 . S
C2754 C2753 1.502 . S
C2755 H2741 0.960 . S
C2755 H2742 0.961 . S
C2755 H2743 0.959 . S
C2755 C2753 1.561 . S
C2756 C2753 1.526 . S
C2756 C2757 1.396 . S
C2756 C2761 1.390 . S
C2757 C2751 1.465 . S
C2757 C2756 1.396 . S
C2757 C2758 1.399 . S
C2758 H2744 0.929 . S
C2758 C2757 1.399 . S
C2758 C2759 1.385 . S
C2759 H2745 0.931 . S
C2759 C2758 1.385 . S
C2759 C2760 1.389 . S
C2760 C2759 1.389 . S
C2760 C2761 1.387 . S
C2761 H2746 0.930 . S
C2761 C2756 1.390 . S
C2761 C2760 1.387 . S
H2762 C2774 0.930 . S
H2763 C2776 0.930 . S
H2764 C2777 0.930 . S
H2765 C2781 0.959 . S
H2766 C2781 0.959 . S
H2767 C2781 0.961 . S
H2768 C2782 0.960 . S
H2769 C2782 0.961 . S
H2770 C2782 0.959 . S
H2771 C2785 0.929 . S
H2772 C2786 0.931 . S
H2773 C2788 0.930 . S
C2774 H2762 0.930 . S
C2774 C2775 1.399 1_556 S
C2774 C2779 1.399 . S
C2775 C2774 1.399 1_554 S
C2775 C2776 1.376 . S
C2776 H2763 0.930 . S
C2776 C2775 1.376 . S
C2776 C2777 1.388 . S
C2777 H2764 0.930 . S
C2777 C2776 1.388 . S
C2777 C2778 1.390 . S
C2778 C2777 1.390 . S
C2778 C2779 1.394 1_554 S
C2778 C2784 1.465 1_565 S
C2779 C2774 1.399 . S
C2779 C2778 1.394 1_556 S
C2779 C2780 1.516 . S
C2780 C2779 1.516 . S
C2780 C2781 1.502 . S
C2780 C2782 1.561 . S
C2780 C2783 1.526 1_565 S
C2781 H2765 0.959 . S
C2781 H2766 0.959 . S
C2781 H2767 0.961 . S
C2781 C2780 1.502 . S
C2782 H2768 0.960 . S
C2782 H2769 0.961 . S
C2782 H2770 0.959 . S
C2782 C2780 1.561 . S
C2783 C2780 1.526 1_545 S
C2783 C2784 1.396 1_556 S
C2783 C2788 1.390 . S
C2784 C2778 1.465 1_545 S
C2784 C2783 1.396 1_554 S
C2784 C2785 1.399 . S
C2785 H2771 0.929 . S
C2785 C2784 1.399 . S
C2785 C2786 1.385 . S
C2786 H2772 0.931 . S
C2786 C2785 1.385 . S
C2786 C2787 1.389 1_554 S
C2787 C2786 1.389 1_556 S
C2787 C2788 1.387 . S
C2788 H2773 0.930 . S
C2788 C2783 1.390 . S
C2788 C2787 1.387 . S
H2789 C2801 0.930 . S
H2790 C2803 0.930 . S
H2791 C2804 0.930 . S
H2792 C2808 0.959 . S
H2793 C2808 0.959 . S
H2794 C2808 0.961 . S
H2795 C2809 0.960 . S
H2796 C2809 0.961 . S
H2797 C2809 0.959 . S
H2798 C2812 0.929 . S
H2799 C2813 0.931 . S
H2800 C2815 0.930 . S
C2801 H2789 0.930 . S
C2801 C2802 1.399 . S
C2801 C2806 1.399 . S
C2802 C2801 1.399 . S
C2802 C2803 1.376 . S
C2803 H2790 0.930 . S
C2803 C2802 1.376 . S
C2803 C2804 1.388 . S
C2804 H2791 0.930 . S
C2804 C2803 1.388 . S
C2804 C2805 1.390 . S
C2805 C2804 1.390 . S
C2805 C2806 1.394 . S
C2805 C2811 1.465 . S
C2806 C2801 1.399 . S
C2806 C2805 1.394 . S
C2806 C2807 1.516 . S
C2807 C2806 1.516 . S
C2807 C2808 1.502 . S
C2807 C2809 1.561 . S
C2807 C2810 1.526 . S
C2808 H2792 0.959 . S
C2808 H2793 0.959 . S
C2808 H2794 0.961 . S
C2808 C2807 1.502 . S
C2809 H2795 0.960 . S
C2809 H2796 0.961 . S
C2809 H2797 0.959 . S
C2809 C2807 1.561 . S
C2810 C2807 1.526 . S
C2810 C2811 1.396 . S
C2810 C2815 1.390 . S
C2811 C2805 1.465 . S
C2811 C2810 1.396 . S
C2811 C2812 1.399 . S
C2812 H2798 0.929 . S
C2812 C2811 1.399 . S
C2812 C2813 1.385 . S
C2813 H2799 0.931 . S
C2813 C2812 1.385 . S
C2813 C2814 1.389 . S
C2814 C2813 1.389 . S
C2814 C2815 1.387 . S
C2815 H2800 0.930 . S
C2815 C2810 1.390 . S
C2815 C2814 1.387 . S
H2816 C2828 0.927 1_556 S
H2817 C2830 0.930 . S
H2818 C2831 0.930 . S
H2819 C2835 0.961 1_554 S
H2820 C2835 0.975 . S
H2821 C2835 0.944 1_455 S
H2822 C2836 0.962 1_455 S
H2823 C2836 0.959 . S
H2824 C2836 0.955 . S
H2825 C2839 0.929 . S
H2826 C2840 0.931 . S
H2827 C2842 0.931 . S
C2828 H2816 0.927 1_554 S
C2828 C2829 1.399 . S
C2828 C2833 1.399 . S
C2829 C2828 1.399 . S
C2829 C2830 1.376 . S
C2830 H2817 0.930 . S
C2830 C2829 1.376 . S
C2830 C2831 1.388 . S
C2831 H2818 0.930 . S
C2831 C2830 1.388 . S
C2831 C2832 1.390 . S
C2832 C2831 1.390 . S
C2832 C2833 1.394 . S
C2832 C2838 1.465 1_455 S
C2833 C2828 1.399 . S
C2833 C2832 1.394 . S
C2833 C2834 1.521 1_455 S
C2834 C2833 1.521 1_655 S
C2834 C2835 1.502 1_554 S
C2834 C2836 1.561 1_554 S
C2834 C2837 1.521 . S
C2835 H2819 0.961 1_556 S
C2835 H2820 0.975 . S
C2835 H2821 0.944 1_655 S
C2835 C2834 1.502 1_556 S
C2836 H2822 0.962 1_655 S
C2836 H2823 0.959 . S
C2836 H2824 0.955 . S
C2836 C2834 1.561 1_556 S
C2837 C2834 1.521 . S
C2837 C2838 1.396 . S
C2837 C2842 1.390 . S
C2838 C2832 1.465 1_655 S
C2838 C2837 1.396 . S
C2838 C2839 1.399 . S
C2839 H2825 0.929 . S
C2839 C2838 1.399 . S
C2839 C2840 1.385 . S
C2840 H2826 0.931 . S
C2840 C2839 1.385 . S
C2840 C2841 1.389 . S
C2841 C2840 1.389 . S
C2841 C2842 1.387 . S
C2842 H2827 0.931 . S
C2842 C2837 1.390 . S
C2842 C2841 1.387 . S
H2843 C2855 0.930 . S
H2844 C2857 0.930 . S
H2845 C2858 0.930 . S
H2846 C2862 0.959 . S
H2847 C2862 0.959 . S
H2848 C2862 0.961 . S
H2849 C2863 0.960 . S
H2850 C2863 0.961 . S
H2851 C2863 0.959 . S
H2852 C2866 0.929 . S
H2853 C2867 0.931 . S
H2854 C2869 0.930 . S
C2855 H2843 0.930 . S
C2855 C2856 1.399 . S
C2855 C2860 1.399 . S
C2856 C2855 1.399 . S
C2856 C2857 1.376 . S
C2857 H2844 0.930 . S
C2857 C2856 1.376 . S
C2857 C2858 1.388 . S
C2858 H2845 0.930 . S
C2858 C2857 1.388 . S
C2858 C2859 1.390 . S
C2859 C2858 1.390 . S
C2859 C2860 1.394 . S
C2859 C2865 1.465 . S
C2860 C2855 1.399 . S
C2860 C2859 1.394 . S
C2860 C2861 1.516 . S
C2861 C2860 1.516 . S
C2861 C2862 1.502 . S
C2861 C2863 1.561 . S
C2861 C2864 1.526 . S
C2862 H2846 0.959 . S
C2862 H2847 0.959 . S
C2862 H2848 0.961 . S
C2862 C2861 1.502 . S
C2863 H2849 0.960 . S
C2863 H2850 0.961 . S
C2863 H2851 0.959 . S
C2863 C2861 1.561 . S
C2864 C2861 1.526 . S
C2864 C2865 1.396 . S
C2864 C2869 1.390 . S
C2865 C2859 1.465 . S
C2865 C2864 1.396 . S
C2865 C2866 1.399 . S
C2866 H2852 0.929 . S
C2866 C2865 1.399 . S
C2866 C2867 1.385 . S
C2867 H2853 0.931 . S
C2867 C2866 1.385 . S
C2867 C2868 1.389 . S
C2868 C2867 1.389 . S
C2868 C2869 1.387 . S
C2869 H2854 0.930 . S
C2869 C2864 1.390 . S
C2869 C2868 1.387 . S
H2870 C2882 0.930 . S
H2871 C2884 0.930 . S
H2872 C2885 0.930 . S
H2873 C2889 0.959 . S
H2874 C2889 0.959 . S
H2875 C2889 0.961 . S
H2876 C2890 0.960 . S
H2877 C2890 0.961 . S
H2878 C2890 0.959 . S
H2879 C2893 0.929 . S
H2880 C2894 0.931 . S
H2881 C2896 0.930 . S
C2882 H2870 0.930 . S
C2882 C2883 1.399 . S
C2882 C2887 1.399 . S
C2883 C2882 1.399 . S
C2883 C2884 1.376 . S
C2884 H2871 0.930 . S
C2884 C2883 1.376 . S
C2884 C2885 1.388 . S
C2885 H2872 0.930 . S
C2885 C2884 1.388 . S
C2885 C2886 1.390 . S
C2886 C2885 1.390 . S
C2886 C2887 1.394 . S
C2886 C2892 1.465 . S
C2887 C2882 1.399 . S
C2887 C2886 1.394 . S
C2887 C2888 1.516 . S
C2888 C2887 1.516 . S
C2888 C2889 1.502 . S
C2888 C2890 1.561 . S
C2888 C2891 1.526 . S
C2889 H2873 0.959 . S
C2889 H2874 0.959 . S
C2889 H2875 0.961 . S
C2889 C2888 1.502 . S
C2890 H2876 0.960 . S
C2890 H2877 0.961 . S
C2890 H2878 0.959 . S
C2890 C2888 1.561 . S
C2891 C2888 1.526 . S
C2891 C2892 1.396 . S
C2891 C2896 1.390 . S
C2892 C2886 1.465 . S
C2892 C2891 1.396 . S
C2892 C2893 1.399 . S
C2893 H2879 0.929 . S
C2893 C2892 1.399 . S
C2893 C2894 1.385 . S
C2894 H2880 0.931 . S
C2894 C2893 1.385 . S
C2894 C2895 1.389 . S
C2895 C2894 1.389 . S
C2895 C2896 1.387 . S
C2896 H2881 0.930 . S
C2896 C2891 1.390 . S
C2896 C2895 1.387 . S
H2897 C2909 0.930 . S
H2898 C2911 0.930 . S
H2899 C2912 0.930 . S
H2900 C2916 0.959 . S
H2901 C2916 0.959 . S
H2902 C2916 0.961 . S
H2903 C2917 0.960 1_554 S
H2904 C2917 0.961 1_554 S
H2905 C2917 0.959 . S
H2906 C2920 0.929 . S
H2907 C2921 0.931 . S
H2908 C2923 0.930 . S
C2909 H2897 0.930 . S
C2909 C2910 1.399 . S
C2909 C2914 1.399 . S
C2910 C2909 1.399 . S
C2910 C2911 1.376 . S
C2911 H2898 0.930 . S
C2911 C2910 1.376 . S
C2911 C2912 1.388 . S
C2912 H2899 0.930 . S
C2912 C2911 1.388 . S
C2912 C2913 1.390 . S
C2913 C2912 1.390 . S
C2913 C2914 1.394 . S
C2913 C2919 1.465 . S
C2914 C2909 1.399 . S
C2914 C2913 1.394 . S
C2914 C2915 1.516 . S
C2915 C2914 1.516 . S
C2915 C2916 1.502 . S
C2915 C2917 1.561 . S
C2915 C2918 1.526 . S
C2916 H2900 0.959 . S
C2916 H2901 0.959 . S
C2916 H2902 0.961 . S
C2916 C2915 1.502 . S
C2917 H2903 0.960 1_556 S
C2917 H2904 0.961 1_556 S
C2917 H2905 0.959 . S
C2917 C2915 1.561 . S
C2918 C2915 1.526 . S
C2918 C2919 1.396 . S
C2918 C2923 1.390 . S
C2919 C2913 1.465 . S
C2919 C2918 1.396 . S
C2919 C2920 1.399 . S
C2920 H2906 0.929 . S
C2920 C2919 1.399 . S
C2920 C2921 1.385 . S
C2921 H2907 0.931 . S
C2921 C2920 1.385 . S
C2921 C2922 1.389 . S
C2922 C2921 1.389 . S
C2922 C2923 1.387 . S
C2923 H2908 0.930 . S
C2923 C2918 1.390 . S
C2923 C2922 1.387 . S
H2924 C2936 0.930 . S
H2925 C2938 0.930 1_554 S
H2926 C2939 0.930 1_554 S
H2927 C2943 0.961 . S
H2928 C2943 0.975 . S
H2929 C2943 0.944 1_655 S
H2930 C2944 0.962 1_655 S
H2931 C2944 0.959 . S
H2932 C2944 0.955 . S
H2933 C2947 0.929 1_554 S
H2934 C2948 0.931 1_554 S
H2935 C2950 0.930 . S
C2936 H2924 0.930 . S
C2936 C2937 1.399 . S
C2936 C2941 1.399 . S
C2937 C2936 1.399 . S
C2937 C2938 1.376 . S
C2938 H2925 0.930 1_556 S
C2938 C2937 1.376 . S
C2938 C2939 1.388 . S
C2939 H2926 0.930 1_556 S
C2939 C2938 1.388 . S
C2939 C2940 1.390 . S
C2940 C2939 1.390 . S
C2940 C2941 1.394 . S
C2940 C2946 1.465 1_655 S
C2941 C2936 1.399 . S
C2941 C2940 1.394 . S
C2941 C2942 1.521 1_655 S
C2942 C2941 1.521 1_455 S
C2942 C2943 1.502 . S
C2942 C2944 1.561 . S
C2942 C2945 1.521 . S
C2943 H2927 0.961 . S
C2943 H2928 0.975 . S
C2943 H2929 0.944 1_455 S
C2943 C2942 1.502 . S
C2944 H2930 0.962 1_455 S
C2944 H2931 0.959 . S
C2944 H2932 0.955 . S
C2944 C2942 1.561 . S
C2945 C2942 1.521 . S
C2945 C2946 1.396 . S
C2945 C2950 1.390 . S
C2946 C2940 1.465 1_455 S
C2946 C2945 1.396 . S
C2946 C2947 1.399 . S
C2947 H2933 0.929 1_556 S
C2947 C2946 1.399 . S
C2947 C2948 1.385 . S
C2948 H2934 0.931 1_556 S
C2948 C2947 1.385 . S
C2948 C2949 1.389 . S
C2949 C2948 1.389 . S
C2949 C2950 1.387 . S
C2950 H2935 0.930 . S
C2950 C2945 1.390 . S
C2950 C2949 1.387 . S
H2951 C2963 0.930 . S
H2952 C2965 0.930 . S
H2953 C2966 0.930 . S
H2954 C2970 0.959 . S
H2955 C2970 0.959 . S
H2956 C2970 0.961 . S
H2957 C2971 0.960 1_556 S
H2958 C2971 0.961 1_556 S
H2959 C2971 0.959 . S
H2960 C2974 0.929 . S
H2961 C2975 0.931 . S
H2962 C2977 0.930 . S
C2963 H2951 0.930 . S
C2963 C2964 1.399 . S
C2963 C2968 1.399 . S
C2964 C2963 1.399 . S
C2964 C2965 1.376 . S
C2965 H2952 0.930 . S
C2965 C2964 1.376 . S
C2965 C2966 1.388 . S
C2966 H2953 0.930 . S
C2966 C2965 1.388 . S
C2966 C2967 1.390 . S
C2967 C2966 1.390 . S
C2967 C2968 1.394 . S
C2967 C2973 1.465 . S
C2968 C2963 1.399 . S
C2968 C2967 1.394 . S
C2968 C2969 1.516 . S
C2969 C2968 1.516 . S
C2969 C2970 1.502 . S
C2969 C2971 1.561 . S
C2969 C2972 1.526 . S
C2970 H2954 0.959 . S
C2970 H2955 0.959 . S
C2970 H2956 0.961 . S
C2970 C2969 1.502 . S
C2971 H2957 0.960 1_554 S
C2971 H2958 0.961 1_554 S
C2971 H2959 0.959 . S
C2971 C2969 1.561 . S
C2972 C2969 1.526 . S
C2972 C2973 1.396 . S
C2972 C2977 1.390 . S
C2973 C2967 1.465 . S
C2973 C2972 1.396 . S
C2973 C2974 1.399 . S
C2974 H2960 0.929 . S
C2974 C2973 1.399 . S
C2974 C2975 1.385 . S
C2975 H2961 0.931 . S
C2975 C2974 1.385 . S
C2975 C2976 1.389 . S
C2976 C2975 1.389 . S
C2976 C2977 1.387 . S
C2977 H2962 0.930 . S
C2977 C2972 1.390 . S
C2977 C2976 1.387 . S
H2978 C2990 0.930 . S
H2979 C2992 0.930 . S
H2980 C2993 0.930 . S
H2981 C2997 0.959 . S
H2982 C2997 0.959 . S
H2983 C2997 0.961 . S
H2984 C2998 0.960 . S
H2985 C2998 0.961 . S
H2986 C2998 0.959 . S
H2987 C3001 0.929 . S
H2988 C3002 0.931 . S
H2989 C3004 0.930 . S
C2990 H2978 0.930 . S
C2990 C2991 1.399 . S
C2990 C2995 1.399 . S
C2991 C2990 1.399 . S
C2991 C2992 1.376 . S
C2992 H2979 0.930 . S
C2992 C2991 1.376 . S
C2992 C2993 1.388 . S
C2993 H2980 0.930 . S
C2993 C2992 1.388 . S
C2993 C2994 1.390 . S
C2994 C2993 1.390 . S
C2994 C2995 1.394 . S
C2994 C3000 1.465 . S
C2995 C2990 1.399 . S
C2995 C2994 1.394 . S
C2995 C2996 1.516 . S
C2996 C2995 1.516 . S
C2996 C2997 1.502 . S
C2996 C2998 1.561 . S
C2996 C2999 1.526 . S
C2997 H2981 0.959 . S
C2997 H2982 0.959 . S
C2997 H2983 0.961 . S
C2997 C2996 1.502 . S
C2998 H2984 0.960 . S
C2998 H2985 0.961 . S
C2998 H2986 0.959 . S
C2998 C2996 1.561 . S
C2999 C2996 1.526 . S
C2999 C3000 1.396 . S
C2999 C3004 1.390 . S
C3000 C2994 1.465 . S
C3000 C2999 1.396 . S
C3000 C3001 1.399 . S
C3001 H2987 0.929 . S
C3001 C3000 1.399 . S
C3001 C3002 1.385 . S
C3002 H2988 0.931 . S
C3002 C3001 1.385 . S
C3002 C3003 1.389 . S
C3003 C3002 1.389 . S
C3003 C3004 1.387 . S
C3004 H2989 0.930 . S
C3004 C2999 1.390 . S
C3004 C3003 1.387 . S
H3005 C3017 0.930 . S
H3006 C3019 0.930 . S
H3007 C3020 0.930 . S
H3008 C3024 0.959 . S
H3009 C3024 0.959 . S
H3010 C3024 0.961 . S
H3011 C3025 0.960 . S
H3012 C3025 0.961 . S
H3013 C3025 0.959 . S
H3014 C3028 0.929 . S
H3015 C3029 0.931 . S
H3016 C3031 0.930 . S
C3017 H3005 0.930 . S
C3017 C3018 1.399 . S
C3017 C3022 1.399 . S
C3018 C3017 1.399 . S
C3018 C3019 1.376 . S
C3019 H3006 0.930 . S
C3019 C3018 1.376 . S
C3019 C3020 1.388 . S
C3020 H3007 0.930 . S
C3020 C3019 1.388 . S
C3020 C3021 1.390 . S
C3021 C3020 1.390 . S
C3021 C3022 1.394 . S
C3021 C3027 1.465 . S
C3022 C3017 1.399 . S
C3022 C3021 1.394 . S
C3022 C3023 1.516 . S
C3023 C3022 1.516 . S
C3023 C3024 1.502 . S
C3023 C3025 1.561 . S
C3023 C3026 1.526 . S
C3024 H3008 0.959 . S
C3024 H3009 0.959 . S
C3024 H3010 0.961 . S
C3024 C3023 1.502 . S
C3025 H3011 0.960 . S
C3025 H3012 0.961 . S
C3025 H3013 0.959 . S
C3025 C3023 1.561 . S
C3026 C3023 1.526 . S
C3026 C3027 1.396 . S
C3026 C3031 1.390 . S
C3027 C3021 1.465 . S
C3027 C3026 1.396 . S
C3027 C3028 1.399 . S
C3028 H3014 0.929 . S
C3028 C3027 1.399 . S
C3028 C3029 1.385 . S
C3029 H3015 0.931 . S
C3029 C3028 1.385 . S
C3029 C3030 1.389 . S
C3030 C3029 1.389 . S
C3030 C3031 1.387 . S
C3031 H3016 0.930 . S
C3031 C3026 1.390 . S
C3031 C3030 1.387 . S
H3032 C3044 0.930 . S
H3033 C3046 0.930 . S
H3034 C3047 0.930 . S
H3035 C3051 0.959 . S
H3036 C3051 0.959 . S
H3037 C3051 0.961 . S
H3038 C3052 0.960 . S
H3039 C3052 0.961 . S
H3040 C3052 0.959 . S
H3041 C3055 0.929 . S
H3042 C3056 0.931 . S
H3043 C3058 0.930 . S
C3044 H3032 0.930 . S
C3044 C3045 1.399 . S
C3044 C3049 1.399 . S
C3045 C3044 1.399 . S
C3045 C3046 1.376 . S
C3046 H3033 0.930 . S
C3046 C3045 1.376 . S
C3046 C3047 1.388 . S
C3047 H3034 0.930 . S
C3047 C3046 1.388 . S
C3047 C3048 1.390 . S
C3048 C3047 1.390 . S
C3048 C3049 1.394 . S
C3048 C3054 1.465 . S
C3049 C3044 1.399 . S
C3049 C3048 1.394 . S
C3049 C3050 1.516 . S
C3050 C3049 1.516 . S
C3050 C3051 1.502 . S
C3050 C3052 1.561 . S
C3050 C3053 1.526 . S
C3051 H3035 0.959 . S
C3051 H3036 0.959 . S
C3051 H3037 0.961 . S
C3051 C3050 1.502 . S
C3052 H3038 0.960 . S
C3052 H3039 0.961 . S
C3052 H3040 0.959 . S
C3052 C3050 1.561 . S
C3053 C3050 1.526 . S
C3053 C3054 1.396 . S
C3053 C3058 1.390 . S
C3054 C3048 1.465 . S
C3054 C3053 1.396 . S
C3054 C3055 1.399 . S
C3055 H3041 0.929 . S
C3055 C3054 1.399 . S
C3055 C3056 1.385 . S
C3056 H3042 0.931 . S
C3056 C3055 1.385 . S
C3056 C3057 1.389 . S
C3057 C3056 1.389 . S
C3057 C3058 1.387 . S
C3058 H3043 0.930 . S
C3058 C3053 1.390 . S
C3058 C3057 1.387 . S
H3059 C3071 0.930 . S
H3060 C3073 0.930 . S
H3061 C3074 0.930 . S
H3062 C3078 0.959 . S
H3063 C3078 0.959 . S
H3064 C3078 0.961 . S
H3065 C3079 0.960 . S
H3066 C3079 0.961 . S
H3067 C3079 0.959 . S
H3068 C3082 0.929 . S
H3069 C3083 0.931 . S
H3070 C3085 0.930 . S
C3071 H3059 0.930 . S
C3071 C3072 1.399 . S
C3071 C3076 1.399 . S
C3072 C3071 1.399 . S
C3072 C3073 1.376 . S
C3073 H3060 0.930 . S
C3073 C3072 1.376 . S
C3073 C3074 1.388 . S
C3074 H3061 0.930 . S
C3074 C3073 1.388 . S
C3074 C3075 1.390 . S
C3075 C3074 1.390 . S
C3075 C3076 1.394 . S
C3075 C3081 1.465 . S
C3076 C3071 1.399 . S
C3076 C3075 1.394 . S
C3076 C3077 1.516 . S
C3077 C3076 1.516 . S
C3077 C3078 1.502 . S
C3077 C3079 1.561 . S
C3077 C3080 1.526 . S
C3078 H3062 0.959 . S
C3078 H3063 0.959 . S
C3078 H3064 0.961 . S
C3078 C3077 1.502 . S
C3079 H3065 0.960 . S
C3079 H3066 0.961 . S
C3079 H3067 0.959 . S
C3079 C3077 1.561 . S
C3080 C3077 1.526 . S
C3080 C3081 1.396 . S
C3080 C3085 1.390 . S
C3081 C3075 1.465 . S
C3081 C3080 1.396 . S
C3081 C3082 1.399 . S
C3082 H3068 0.929 . S
C3082 C3081 1.399 . S
C3082 C3083 1.385 . S
C3083 H3069 0.931 . S
C3083 C3082 1.385 . S
C3083 C3084 1.389 . S
C3084 C3083 1.389 . S
C3084 C3085 1.387 . S
C3085 H3070 0.930 . S
C3085 C3080 1.390 . S
C3085 C3084 1.387 . S
H3086 C3098 0.930 . S
H3087 C3100 0.930 . S
H3088 C3101 0.930 . S
H3089 C3105 0.959 . S
H3090 C3105 0.959 . S
H3091 C3105 0.961 . S
H3092 C3106 0.960 . S
H3093 C3106 0.961 . S
H3094 C3106 0.959 . S
H3095 C3109 0.929 . S
H3096 C3110 0.931 . S
H3097 C3112 0.930 . S
C3098 H3086 0.930 . S
C3098 C3099 1.399 . S
C3098 C3103 1.399 . S
C3099 C3098 1.399 . S
C3099 C3100 1.376 . S
C3100 H3087 0.930 . S
C3100 C3099 1.376 . S
C3100 C3101 1.388 . S
C3101 H3088 0.930 . S
C3101 C3100 1.388 . S
C3101 C3102 1.390 . S
C3102 C3101 1.390 . S
C3102 C3103 1.394 . S
C3102 C3108 1.465 . S
C3103 C3098 1.399 . S
C3103 C3102 1.394 . S
C3103 C3104 1.516 . S
C3104 C3103 1.516 . S
C3104 C3105 1.502 . S
C3104 C3106 1.561 . S
C3104 C3107 1.526 . S
C3105 H3089 0.959 . S
C3105 H3090 0.959 . S
C3105 H3091 0.961 . S
C3105 C3104 1.502 . S
C3106 H3092 0.960 . S
C3106 H3093 0.961 . S
C3106 H3094 0.959 . S
C3106 C3104 1.561 . S
C3107 C3104 1.526 . S
C3107 C3108 1.396 . S
C3107 C3112 1.390 . S
C3108 C3102 1.465 . S
C3108 C3107 1.396 . S
C3108 C3109 1.399 . S
C3109 H3095 0.929 . S
C3109 C3108 1.399 . S
C3109 C3110 1.385 . S
C3110 H3096 0.931 . S
C3110 C3109 1.385 . S
C3110 C3111 1.389 . S
C3111 C3110 1.389 . S
C3111 C3112 1.387 . S
C3112 H3097 0.930 . S
C3112 C3107 1.390 . S
C3112 C3111 1.387 . S
H3113 C3125 0.930 . S
H3114 C3127 0.930 . S
H3115 C3128 0.930 . S
H3116 C3132 0.959 . S
H3117 C3132 0.959 . S
H3118 C3132 0.961 . S
H3119 C3133 0.960 . S
H3120 C3133 0.961 . S
H3121 C3133 0.959 . S
H3122 C3136 0.929 . S
H3123 C3137 0.931 . S
H3124 C3139 0.930 . S
C3125 H3113 0.930 . S
C3125 C3126 1.399 . S
C3125 C3130 1.399 . S
C3126 C3125 1.399 . S
C3126 C3127 1.376 . S
C3127 H3114 0.930 . S
C3127 C3126 1.376 . S
C3127 C3128 1.388 . S
C3128 H3115 0.930 . S
C3128 C3127 1.388 . S
C3128 C3129 1.390 . S
C3129 C3128 1.390 . S
C3129 C3130 1.394 . S
C3129 C3135 1.465 . S
C3130 C3125 1.399 . S
C3130 C3129 1.394 . S
C3130 C3131 1.516 . S
C3131 C3130 1.516 . S
C3131 C3132 1.502 . S
C3131 C3133 1.561 . S
C3131 C3134 1.526 . S
C3132 H3116 0.959 . S
C3132 H3117 0.959 . S
C3132 H3118 0.961 . S
C3132 C3131 1.502 . S
C3133 H3119 0.960 . S
C3133 H3120 0.961 . S
C3133 H3121 0.959 . S
C3133 C3131 1.561 . S
C3134 C3131 1.526 . S
C3134 C3135 1.396 . S
C3134 C3139 1.390 . S
C3135 C3129 1.465 . S
C3135 C3134 1.396 . S
C3135 C3136 1.399 . S
C3136 H3122 0.929 . S
C3136 C3135 1.399 . S
C3136 C3137 1.385 . S
C3137 H3123 0.931 . S
C3137 C3136 1.385 . S
C3137 C3138 1.389 . S
C3138 C3137 1.389 . S
C3138 C3139 1.387 . S
C3139 H3124 0.930 . S
C3139 C3134 1.390 . S
C3139 C3138 1.387 . S
H3140 C3152 0.930 . S
H3141 C3154 0.930 . S
H3142 C3155 0.930 . S
H3143 C3159 0.959 . S
H3144 C3159 0.959 . S
H3145 C3159 0.961 . S
H3146 C3160 0.960 . S
H3147 C3160 0.961 . S
H3148 C3160 0.959 . S
H3149 C3163 0.929 . S
H3150 C3164 0.931 . S
H3151 C3166 0.930 . S
C3152 H3140 0.930 . S
C3152 C3153 1.399 . S
C3152 C3157 1.399 . S
C3153 C3152 1.399 . S
C3153 C3154 1.376 . S
C3154 H3141 0.930 . S
C3154 C3153 1.376 . S
C3154 C3155 1.388 . S
C3155 H3142 0.930 . S
C3155 C3154 1.388 . S
C3155 C3156 1.390 . S
C3156 C3155 1.390 . S
C3156 C3157 1.394 . S
C3156 C3162 1.465 . S
C3157 C3152 1.399 . S
C3157 C3156 1.394 . S
C3157 C3158 1.516 . S
C3158 C3157 1.516 . S
C3158 C3159 1.502 . S
C3158 C3160 1.561 . S
C3158 C3161 1.526 . S
C3159 H3143 0.959 . S
C3159 H3144 0.959 . S
C3159 H3145 0.961 . S
C3159 C3158 1.502 . S
C3160 H3146 0.960 . S
C3160 H3147 0.961 . S
C3160 H3148 0.959 . S
C3160 C3158 1.561 . S
C3161 C3158 1.526 . S
C3161 C3162 1.396 . S
C3161 C3166 1.390 . S
C3162 C3156 1.465 . S
C3162 C3161 1.396 . S
C3162 C3163 1.399 . S
C3163 H3149 0.929 . S
C3163 C3162 1.399 . S
C3163 C3164 1.385 . S
C3164 H3150 0.931 . S
C3164 C3163 1.385 . S
C3164 C3165 1.389 . S
C3165 C3164 1.389 . S
C3165 C3166 1.387 . S
C3166 H3151 0.930 . S
C3166 C3161 1.390 . S
C3166 C3165 1.387 . S
H3167 C3179 0.929 1_556 S
H3168 C3181 0.930 . S
H3169 C3182 0.930 . S
H3170 C3186 0.961 1_554 S
H3171 C3186 0.975 . S
H3172 C3186 0.944 1_455 S
H3173 C3187 0.962 1_455 S
H3174 C3187 0.959 . S
H3175 C3187 0.955 . S
H3176 C3190 0.929 . S
H3177 C3191 0.931 . S
H3178 C3193 0.933 . S
C3179 H3167 0.929 1_554 S
C3179 C3180 1.399 . S
C3179 C3184 1.399 . S
C3180 C3179 1.399 . S
C3180 C3181 1.376 . S
C3181 H3168 0.930 . S
C3181 C3180 1.376 . S
C3181 C3182 1.388 . S
C3182 H3169 0.930 . S
C3182 C3181 1.388 . S
C3182 C3183 1.390 . S
C3183 C3182 1.390 . S
C3183 C3184 1.394 . S
C3183 C3189 1.465 1_455 S
C3184 C3179 1.399 . S
C3184 C3183 1.394 . S
C3184 C3185 1.521 1_455 S
C3185 C3184 1.521 1_655 S
C3185 C3186 1.502 1_554 S
C3185 C3187 1.561 1_554 S
C3185 C3188 1.521 . S
C3186 H3170 0.961 1_556 S
C3186 H3171 0.975 . S
C3186 H3172 0.944 1_655 S
C3186 C3185 1.502 1_556 S
C3187 H3173 0.962 1_655 S
C3187 H3174 0.959 . S
C3187 H3175 0.955 . S
C3187 C3185 1.561 1_556 S
C3188 C3185 1.521 . S
C3188 C3189 1.396 . S
C3188 C3193 1.390 . S
C3189 C3183 1.465 1_655 S
C3189 C3188 1.396 . S
C3189 C3190 1.399 . S
C3190 H3176 0.929 . S
C3190 C3189 1.399 . S
C3190 C3191 1.385 . S
C3191 H3177 0.931 . S
C3191 C3190 1.385 . S
C3191 C3192 1.389 . S
C3192 C3191 1.389 . S
C3192 C3193 1.387 . S
C3193 H3178 0.933 . S
C3193 C3188 1.390 . S
C3193 C3192 1.387 . S
H3194 C3206 0.930 . S
H3195 C3208 0.930 . S
H3196 C3209 0.930 . S
H3197 C3213 0.959 . S
H3198 C3213 0.959 . S
H3199 C3213 0.961 . S
H3200 C3214 0.960 . S
H3201 C3214 0.961 . S
H3202 C3214 0.959 . S
H3203 C3217 0.929 . S
H3204 C3218 0.931 . S
H3205 C3220 0.930 . S
C3206 H3194 0.930 . S
C3206 C3207 1.399 . S
C3206 C3211 1.399 . S
C3207 C3206 1.399 . S
C3207 C3208 1.376 . S
C3208 H3195 0.930 . S
C3208 C3207 1.376 . S
C3208 C3209 1.388 . S
C3209 H3196 0.930 . S
C3209 C3208 1.388 . S
C3209 C3210 1.390 . S
C3210 C3209 1.390 . S
C3210 C3211 1.394 . S
C3210 C3216 1.465 . S
C3211 C3206 1.399 . S
C3211 C3210 1.394 . S
C3211 C3212 1.516 . S
C3212 C3211 1.516 . S
C3212 C3213 1.502 . S
C3212 C3214 1.561 . S
C3212 C3215 1.526 . S
C3213 H3197 0.959 . S
C3213 H3198 0.959 . S
C3213 H3199 0.961 . S
C3213 C3212 1.502 . S
C3214 H3200 0.960 . S
C3214 H3201 0.961 . S
C3214 H3202 0.959 . S
C3214 C3212 1.561 . S
C3215 C3212 1.526 . S
C3215 C3216 1.396 . S
C3215 C3220 1.390 . S
C3216 C3210 1.465 . S
C3216 C3215 1.396 . S
C3216 C3217 1.399 . S
C3217 H3203 0.929 . S
C3217 C3216 1.399 . S
C3217 C3218 1.385 . S
C3218 H3204 0.931 . S
C3218 C3217 1.385 . S
C3218 C3219 1.389 . S
C3219 C3218 1.389 . S
C3219 C3220 1.387 . S
C3220 H3205 0.930 . S
C3220 C3215 1.390 . S
C3220 C3219 1.387 . S
H3221 C3233 0.930 . S
H3222 C3235 0.930 1_554 S
H3223 C3236 0.930 1_554 S
H3224 C3240 0.961 . S
H3225 C3240 0.975 . S
H3226 C3240 0.944 1_455 S
H3227 C3241 0.962 1_455 S
H3228 C3241 0.959 . S
H3229 C3241 0.955 . S
H3230 C3244 0.929 1_554 S
H3231 C3245 0.931 1_554 S
H3232 C3247 0.930 . S
C3233 H3221 0.930 . S
C3233 C3234 1.399 . S
C3233 C3238 1.399 . S
C3234 C3233 1.399 . S
C3234 C3235 1.376 . S
C3235 H3222 0.930 1_556 S
C3235 C3234 1.376 . S
C3235 C3236 1.388 . S
C3236 H3223 0.930 1_556 S
C3236 C3235 1.388 . S
C3236 C3237 1.390 . S
C3237 C3236 1.390 . S
C3237 C3238 1.394 . S
C3237 C3243 1.465 1_455 S
C3238 C3233 1.399 . S
C3238 C3237 1.394 . S
C3238 C3239 1.521 1_455 S
C3239 C3238 1.521 1_655 S
C3239 C3240 1.502 . S
C3239 C3241 1.561 . S
C3239 C3242 1.521 . S
C3240 H3224 0.961 . S
C3240 H3225 0.975 . S
C3240 H3226 0.944 1_655 S
C3240 C3239 1.502 . S
C3241 H3227 0.962 1_655 S
C3241 H3228 0.959 . S
C3241 H3229 0.955 . S
C3241 C3239 1.561 . S
C3242 C3239 1.521 . S
C3242 C3243 1.396 . S
C3242 C3247 1.390 . S
C3243 C3237 1.465 1_655 S
C3243 C3242 1.396 . S
C3243 C3244 1.399 . S
C3244 H3230 0.929 1_556 S
C3244 C3243 1.399 . S
C3244 C3245 1.385 . S
C3245 H3231 0.931 1_556 S
C3245 C3244 1.385 . S
C3245 C3246 1.389 . S
C3246 C3245 1.389 . S
C3246 C3247 1.387 . S
C3247 H3232 0.930 . S
C3247 C3242 1.390 . S
C3247 C3246 1.387 . S
C1101 C5 1.438 . S
C1113 C9 1.332 . S
C1128 C43 1.415 . S
C1140 C39 1.430 . S
C1155 C77 1.380 . S
C1167 C73 1.435 . S
C1182 C111 1.330 . S
C1194 C107 1.438 . S
C1209 C145 1.375 . S
C1221 C141 1.436 . S
C1236 C179 1.330 . S
C1248 C175 1.439 . S
C1263 C209 1.429 . S
C1275 C213 1.417 . S
C1290 C243 1.434 . S
C1302 C247 1.358 . S
C1317 C277 1.430 . S
C1329 C281 1.359 . S
C1344 C311 1.438 . S
C1356 C315 1.336 . S
C1371 C345 1.436 . S
C1383 C349 1.395 . S
C1398 C383 1.389 . S
C1410 C379 1.437 . S
C1425 C413 1.431 . S
C1437 C417 1.353 . S
C1452 C447 1.429 . S
C1464 C451 1.411 . S
C1479 C485 1.331 . S
C1491 C481 1.437 . S
C1506 C515 1.437 . S
C1518 C519 1.333 . S
C1533 C553 1.385 . S
C1545 C549 1.431 . S
C1560 C587 1.331 . S
C1572 C583 1.439 . S
C1587 C621 1.380 . S
C1599 C617 1.435 . S
C1614 C655 1.418 . S
C1626 C651 1.429 . S
C1641 C689 1.380 . S
C1653 C685 1.435 . S
C1668 C723 1.333 . S
C1680 C719 1.439 . S
C1695 C757 1.376 . S
C1707 C753 1.435 . S
C1722 C787 1.431 . S
C1734 C791 1.381 . S
C1749 C825 1.418 . S
C1761 C821 1.431 . S
C1776 C859 1.380 . S
C1788 C855 1.438 . S
C1803 C893 1.332 . S
C1815 C889 1.438 . S
C1830 C923 1.438 . S
C1842 C927 1.335 . S
C1857 C957 1.435 . S
C1869 C961 1.403 . S
C1884 C991 1.429 . S
C1896 C995 1.412 . S
C1911 C1029 1.416 . S
C1923 C1025 1.430 . S
C1938 C1059 1.429 . S
C1950 C1063 1.415 . S
C1965 C802 1.500 . S
C1977 C20 1.492 . S
C1992 C700 1.485 . S
C2004 C54 1.495 . S
C2019 C734 1.501 . S
C2031 C88 1.494 . S
C2046 C768 1.473 . S
C2058 C122 1.482 . S
C2073 C598 1.490 . S
C2085 C156 1.480 . S
C2100 C632 1.497 . S
C2112 C190 1.487 . S
C2127 C666 1.500 . S
C2139 C224 1.492 . S
C2154 C564 1.496 . S
C2166 C258 1.486 . S
C2181 C1074 1.471 . S
C2193 C292 1.472 . S
C2208 C972 1.495 . S
C2220 C326 1.495 . S
C2235 C360 1.499 . S
C2247 C1006 1.499 . S
C2262 C394 1.491 . S
C2274 C1040 1.492 . S
C2289 C428 1.499 . S
C2301 C870 1.499 . S
C2316 C462 1.475 . S
C2328 C904 1.475 . S
C2343 C496 1.472 . S
C2355 C938 1.472 . S
C2370 C836 1.478 . S
C2382 C530 1.478 . S
C2397 C169 1.224 . S
C2409 C33 1.203 . S
C2424 C67 1.204 . S
C2436 C203 1.194 . S
C2451 C237 1.193 . S
C2463 C101 1.206 . S
C2478 C135 1.197 . S
C2490 C271 1.196 . S
C2505 C305 1.193 . S
C2517 C441 1.195 . S
C2532 C475 1.196 . S
C2544 C339 1.207 . S
C2559 C509 1.201 . S
C2571 C373 1.194 . S
C2586 C543 1.226 . S
C2598 C407 1.217 . S
C2613 C713 1.228 . S
C2625 C577 1.214 . S
C2640 C611 1.209 . S
C2652 C747 1.227 . S
C2667 C645 1.193 . S
C2679 C781 1.205 . S
C2694 C679 1.216 . S
C2706 C815 1.228 . S
C2721 C985 1.211 . S
C2733 C849 1.223 . S
C2748 C1019 1.214 . S
C2760 C883 1.224 . S
C2775 C1053 1.207 . S
C2787 C917 1.197 . S
C2802 C951 1.195 . S
C2814 C1087 1.204 . S
C2829 C2 1.702 . S
C2841 C410 1.703 . S
C2856 C988 1.699 . S
C2868 C36 1.701 . S
C2883 C70 1.702 . S
C2895 C478 1.701 . S
C2910 C1056 1.695 . S
C2922 C104 1.694 . S
C2937 C274 1.695 . S
C2949 C138 1.694 . S
C2964 C172 1.694 . S
C2976 C852 1.694 . S
C2991 C206 1.695 . S
C3003 C342 1.695 . S
C3018 C240 1.701 . S
C3030 C920 1.702 . S
C3045 C716 1.694 . S
C3057 C308 1.694 . S
C3072 C784 1.702 . S
C3084 C376 1.702 . S
C3099 C580 1.701 . S
C3111 C444 1.702 . S
C3126 C648 1.694 . S
C3138 C512 1.694 . S
C3153 C546 1.701 . S
C3165 C954 1.702 . S
C3180 C1022 1.701 . S
C3192 C614 1.702 . S
C3207 C682 1.694 . S
C3219 C818 1.694 . S
C3234 C886 1.693 . S
C3246 C750 1.694 . S
