# Generated by pormake.
# Topology umo, (4)-cn, num edge types: 1
# Building blocks:
#     Node 0, Type 0, BuildingBlock: QUQFOY_clean_sbu_3, # of connection points: 4
#     Node 1, Type 0, BuildingBlock: QUQFOY_clean_sbu_3, # of connection points: 4
#     Node 2, Type 0, BuildingBlock: QUQFOY_clean_sbu_3, # of connection points: 4
#     Node 3, Type 0, BuildingBlock: QUQFOY_clean_sbu_3, # of connection points: 4
#     Node 4, Type 0, BuildingBlock: QUQFOY_clean_sbu_3, # of connection points: 4
#     Node 5, Type 0, BuildingBlock: QUQFOY_clean_sbu_3, # of connection points: 4
#     Node 6, Type 0, BuildingBlock: QUQFOY_clean_sbu_3, # of connection points: 4
#     Node 7, Type 0, BuildingBlock: QUQFOY_clean_sbu_3, # of connection points: 4
#     Node 8, Type 0, BuildingBlock: QUQFOY_clean_sbu_3, # of connection points: 4
#     Node 9, Type 0, BuildingBlock: QUQFOY_clean_sbu_3, # of connection points: 4
#     Node 10, Type 0, BuildingBlock: QUQFOY_clean_sbu_3, # of connection points: 4
#     Node 11, Type 0, BuildingBlock: QUQFOY_clean_sbu_3, # of connection points: 4
#     Edge 12, Type (0, 0), BuildingBlock: ZUJKAS_clean_linker_0, # of connection points: 2
#     Edge 13, Type (0, 0), BuildingBlock: ZUJKAS_clean_linker_0, # of connection points: 2
#     Edge 14, Type (0, 0), BuildingBlock: ZUJKAS_clean_linker_0, # of connection points: 2
#     Edge 15, Type (0, 0), BuildingBlock: ZUJKAS_clean_linker_0, # of connection points: 2
#     Edge 16, Type (0, 0), BuildingBlock: ZUJKAS_clean_linker_0, # of connection points: 2
#     Edge 17, Type (0, 0), BuildingBlock: ZUJKAS_clean_linker_0, # of connection points: 2
#     Edge 18, Type (0, 0), BuildingBlock: ZUJKAS_clean_linker_0, # of connection points: 2
#     Edge 19, Type (0, 0), BuildingBlock: ZUJKAS_clean_linker_0, # of connection points: 2
#     Edge 20, Type (0, 0), BuildingBlock: ZUJKAS_clean_linker_0, # of connection points: 2
#     Edge 21, Type (0, 0), BuildingBlock: ZUJKAS_clean_linker_0, # of connection points: 2
#     Edge 22, Type (0, 0), BuildingBlock: ZUJKAS_clean_linker_0, # of connection points: 2
#     Edge 23, Type (0, 0), BuildingBlock: ZUJKAS_clean_linker_0, # of connection points: 2
#     Edge 24, Type (0, 0), BuildingBlock: ZUJKAS_clean_linker_0, # of connection points: 2
#     Edge 25, Type (0, 0), BuildingBlock: ZUJKAS_clean_linker_0, # of connection points: 2
#     Edge 26, Type (0, 0), BuildingBlock: ZUJKAS_clean_linker_0, # of connection points: 2
#     Edge 27, Type (0, 0), BuildingBlock: ZUJKAS_clean_linker_0, # of connection points: 2
#     Edge 28, Type (0, 0), BuildingBlock: ZUJKAS_clean_linker_0, # of connection points: 2
#     Edge 29, Type (0, 0), BuildingBlock: ZUJKAS_clean_linker_0, # of connection points: 2
#     Edge 30, Type (0, 0), BuildingBlock: ZUJKAS_clean_linker_0, # of connection points: 2
#     Edge 31, Type (0, 0), BuildingBlock: ZUJKAS_clean_linker_0, # of connection points: 2
#     Edge 32, Type (0, 0), BuildingBlock: ZUJKAS_clean_linker_0, # of connection points: 2
#     Edge 33, Type (0, 0), BuildingBlock: ZUJKAS_clean_linker_0, # of connection points: 2
#     Edge 34, Type (0, 0), BuildingBlock: ZUJKAS_clean_linker_0, # of connection points: 2
#     Edge 35, Type (0, 0), BuildingBlock: ZUJKAS_clean_linker_0, # of connection points: 2
# Relax obj value: 0.166
# Max RMSD: 0.246
# Mean RMSD: 0.245
data_MOF--net-umo--node1-QUQFOY_clean_sbu_3--edge1-ZUJKAS_clean_linker_0
_symmetry_space_group_name_H-M    P1
_symmetry_Int_Tables_number       1
_symmetry_cell_setting            triclinic
loop_
_symmetry_equiv_pos_as_xyz
'x, y, z'
_cell_length_a     67.279694
_cell_length_b     67.370213
_cell_length_c     49.803754
_cell_angle_alpha  89.755412
_cell_angle_beta   89.984632
_cell_angle_gamma 120.11278
loop_
_atom_site_label
_atom_site_type_symbol
_atom_site_fract_x
_atom_site_fract_y
_atom_site_fract_z
_atom_type_partial_charge
C0 C 0.15385 0.49936 0.34911 0.0
O1 O 0.16403 0.50296 0.37151 0.0
Cd2 Cd 0.15757 0.52331 0.40689 0.0
O3 O 0.13755 0.50364 0.34626 0.0
Cd4 Cd 0.11552 0.51611 0.37522 0.0
C5 C 0.16009 0.5692 0.37291 0.0
O6 O 0.11888 0.507 0.42311 0.0
O7 O 0.11022 0.53326 0.41434 0.0
O8 O 0.07871 0.48194 0.36626 0.0
C9 C 0.11298 0.52111 0.43175 0.0
O10 O 0.16913 0.56114 0.38884 0.0
C11 C 0.06956 0.49259 0.35565 0.0
O12 O 0.14017 0.55644 0.3631 0.0
O13 O 0.08213 0.51422 0.35325 0.0
C14 C 0.62451 0.16496 0.52013 0.0
O15 O 0.63216 0.17174 0.54363 0.0
Cd16 Cd 0.60714 0.16199 0.58252 0.0
O17 O 0.6033 0.15055 0.51672 0.0
Cd18 Cd 0.5684 0.12767 0.54455 0.0
C19 C 0.56713 0.17536 0.55847 0.0
O20 O 0.5799 0.12233 0.59044 0.0
O21 O 0.54612 0.11817 0.58445 0.0
O22 O 0.56257 0.09211 0.52577 0.0
C23 C 0.56041 0.11737 0.60032 0.0
O24 O 0.58358 0.1791 0.57419 0.0
C25 C 0.54273 0.08572 0.51634 0.0
O26 O 0.55859 0.15818 0.54267 0.0
O27 O 0.53503 0.0994 0.51909 0.0
C28 C 0.4152 0.63503 0.68145 0.0
O29 O 0.41169 0.64097 0.70429 0.0
Cd30 Cd 0.39137 0.61303 0.73906 0.0
O31 O 0.41049 0.61444 0.67763 0.0
Cd32 Cd 0.39675 0.57863 0.70451 0.0
C33 C 0.34438 0.57188 0.70454 0.0
O34 O 0.40667 0.58912 0.75263 0.0
O35 O 0.37931 0.55492 0.74283 0.0
O36 O 0.43025 0.57548 0.69377 0.0
C37 C 0.39216 0.56888 0.76054 0.0
O38 O 0.35314 0.58825 0.72136 0.0
C39 C 0.41912 0.55591 0.68282 0.0
O40 O 0.3565 0.56462 0.69328 0.0
O41 O 0.39751 0.54728 0.68082 0.0
C42 C 0.74828 0.44201 0.85403 0.0
O43 O 0.73803 0.43815 0.87649 0.0
Cd44 Cd 0.74566 0.41929 0.91314 0.0
O45 O 0.76501 0.43837 0.85123 0.0
Cd46 Cd 0.78781 0.42613 0.87892 0.0
C47 C 0.74239 0.37303 0.8798 0.0
O48 O 0.78507 0.43581 0.92658 0.0
O49 O 0.79679 0.4118 0.9181 0.0
O50 O 0.82396 0.4599 0.86631 0.0
C51 C 0.79256 0.42296 0.93532 0.0
O52 O 0.73392 0.38145 0.89595 0.0
C53 C 0.83244 0.44876 0.85544 0.0
O54 O 0.76206 0.38546 0.86906 0.0
O55 O 0.81979 0.42706 0.85474 0.0
C56 C 0.28031 0.76679 0.0237 0.0
O57 O 0.27448 0.75907 0.04747 0.0
Cd58 Cd 0.29977 0.77228 0.08632 0.0
O59 O 0.30049 0.78334 0.01894 0.0
Cd60 Cd 0.33608 0.80842 0.04403 0.0
C61 C 0.34337 0.76457 0.06233 0.0
O62 O 0.32284 0.81285 0.08885 0.0
O63 O 0.35857 0.82277 0.08386 0.0
O64 O 0.34003 0.84242 0.02212 0.0
C65 C 0.34273 0.82095 0.0992 0.0
O66 O 0.32793 0.76036 0.07984 0.0
C67 C 0.36006 0.84927 0.01294 0.0
O68 O 0.34833 0.77958 0.04392 0.0
O69 O 0.36857 0.83642 0.01709 0.0
C70 C 0.47863 0.29768 0.18559 0.0
O71 O 0.4744 0.2893 0.20913 0.0
Cd72 Cd 0.49381 0.31547 0.24585 0.0
O73 O 0.48838 0.3193 0.18229 0.0
Cd74 Cd 0.49877 0.35322 0.21105 0.0
C75 C 0.54741 0.3539 0.22021 0.0
O76 O 0.48347 0.34348 0.25808 0.0
O77 O 0.51517 0.37532 0.25017 0.0
O78 O 0.46753 0.35769 0.19437 0.0
C79 C 0.49964 0.36264 0.26679 0.0
O80 O 0.53467 0.33707 0.23559 0.0
C81 C 0.48006 0.37775 0.18487 0.0
O82 O 0.53887 0.36357 0.20603 0.0
O83 O 0.5017 0.38628 0.18653 0.0
C84 C 0.4157 0.76431 0.45477 0.0
O85 O 0.41258 0.75525 0.43175 0.0
Cd86 Cd 0.39169 0.76237 0.39757 0.0
O87 O 0.41055 0.77984 0.45893 0.0
Cd88 Cd 0.39685 0.80189 0.43184 0.0
C89 C 0.34458 0.75609 0.43237 0.0
O90 O 0.40716 0.80158 0.38378 0.0
O91 O 0.3794 0.80786 0.39329 0.0
O92 O 0.43015 0.83876 0.44244 0.0
C93 C 0.39262 0.80714 0.37572 0.0
O94 O 0.35333 0.74842 0.41559 0.0
C95 C 0.41887 0.84707 0.45333 0.0
O96 O 0.35666 0.77562 0.44329 0.0
O97 O 0.39727 0.8339 0.45538 0.0
C98 C 0.62538 0.44419 0.62118 0.0
O99 O 0.63268 0.44482 0.59752 0.0
Cd100 Cd 0.60623 0.42699 0.56054 0.0
O101 O 0.60409 0.4367 0.62517 0.0
Cd102 Cd 0.56876 0.42323 0.59801 0.0
C103 C 0.56814 0.3743 0.58805 0.0
O104 O 0.57821 0.43813 0.55089 0.0
O105 O 0.5457 0.40738 0.55938 0.0
O106 O 0.56305 0.45363 0.61471 0.0
C107 C 0.55864 0.42246 0.54249 0.0
O108 O 0.58417 0.38656 0.57152 0.0
C109 C 0.54339 0.44054 0.62494 0.0
O110 O 0.55941 0.38326 0.60304 0.0
O111 O 0.53574 0.41905 0.62365 0.0
C112 C 0.157 0.63887 0.79274 0.0
O113 O 0.16723 0.64591 0.77035 0.0
Cd114 Cd 0.15926 0.62002 0.73335 0.0
O115 O 0.14022 0.61844 0.79502 0.0
Cd116 Cd 0.11711 0.58462 0.7658 0.0
C117 C 0.16107 0.5751 0.76444 0.0
O118 O 0.12003 0.59865 0.71871 0.0
O119 O 0.1095 0.56293 0.72558 0.0
O120 O 0.08155 0.58344 0.77791 0.0
C121 C 0.11299 0.5787 0.70906 0.0
O122 O 0.17003 0.59257 0.74899 0.0
C123 C 0.07195 0.56335 0.78787 0.0
O124 O 0.14146 0.56803 0.7752 0.0
O125 O 0.08368 0.55331 0.78827 0.0
C126 C 0.482 0.16778 0.96107 0.0
O127 O 0.47866 0.17302 0.93772 0.0
Cd128 Cd 0.50183 0.16931 0.90328 0.0
O129 O 0.49203 0.15614 0.96385 0.0
Cd130 Cd 0.50336 0.13435 0.93294 0.0
C131 C 0.55296 0.18144 0.93288 0.0
O132 O 0.4916 0.13257 0.88468 0.0
O133 O 0.52338 0.13324 0.8941 0.0
O134 O 0.47087 0.09717 0.9444 0.0
C135 C 0.50857 0.13061 0.87665 0.0
O136 O 0.5418 0.18778 0.91788 0.0
C137 C 0.48272 0.08879 0.95354 0.0
O138 O 0.54306 0.16157 0.9436 0.0
O139 O 0.50438 0.10201 0.95416 0.0
C140 C 0.27266 0.49028 0.11573 0.0
O141 O 0.26588 0.49203 0.09251 0.0
Cd142 Cd 0.29101 0.50685 0.05361 0.0
O143 O 0.2933 0.49491 0.1192 0.0
Cd144 Cd 0.32833 0.50704 0.09186 0.0
C145 C 0.33304 0.55814 0.0795 0.0
O146 O 0.31538 0.49109 0.04613 0.0
O147 O 0.35035 0.51882 0.05151 0.0
O148 O 0.33369 0.47653 0.10969 0.0
C149 C 0.33514 0.50435 0.03596 0.0
O150 O 0.31701 0.54708 0.06264 0.0
C151 C 0.35374 0.48964 0.11877 0.0
O152 O 0.33965 0.54772 0.09543 0.0
O153 O 0.36161 0.51112 0.1166 0.0
C154 C 0.74841 0.2884 0.28454 0.0
O155 O 0.73972 0.28113 0.26151 0.0
Cd156 Cd 0.74983 0.30484 0.22123 0.0
O157 O 0.76469 0.309 0.28736 0.0
Cd158 Cd 0.78858 0.34368 0.25959 0.0
C159 C 0.74247 0.34882 0.2453 0.0
O160 O 0.79006 0.32921 0.21437 0.0
O161 O 0.80192 0.36542 0.21901 0.0
O162 O 0.82354 0.34775 0.27878 0.0
C163 C 0.79813 0.349 0.2036 0.0
O164 O 0.73688 0.33173 0.22997 0.0
C165 C 0.83075 0.36776 0.28802 0.0
O166 O 0.75995 0.3563 0.26065 0.0
O167 O 0.81779 0.37631 0.28498 0.0
H168 H 0.14237 0.59721 0.37998 0.0
H169 H 0.16486 0.63867 0.38862 0.0
H170 H 0.22695 0.6384 0.36775 0.0
H171 H 0.20472 0.5971 0.36002 0.0
H172 H 0.19984 0.65157 0.43051 0.0
H173 H 0.23639 0.70041 0.33639 0.0
H174 H 0.20957 0.67337 0.33749 0.0
H175 H 0.23655 0.67383 0.33731 0.0
C176 C 0.16069 0.60629 0.37608 0.0
C177 C 0.17193 0.59417 0.36925 0.0
C178 C 0.17348 0.62987 0.38112 0.0
C179 C 0.19749 0.64156 0.37859 0.0
C180 C 0.20839 0.62976 0.36934 0.0
H181 H 0.31838 0.71073 0.44252 0.0
H182 H 0.277 0.68733 0.43548 0.0
C183 C 0.19573 0.6062 0.36496 0.0
C184 C 0.21185 0.66445 0.39054 0.0
H185 H 0.26046 0.71493 0.37626 0.0
C186 C 0.21258 0.66589 0.41868 0.0
C187 C 0.22829 0.68311 0.37511 0.0
C188 C 0.22756 0.68274 0.34486 0.0
C189 C 0.23105 0.68429 0.43173 0.0
C190 C 0.24897 0.70155 0.41619 0.0
C191 C 0.24671 0.70156 0.38816 0.0
C192 C 0.27209 0.71621 0.42755 0.0
C193 C 0.23231 0.68416 0.46194 0.0
C194 C 0.28283 0.74022 0.42638 0.0
C195 C 0.30647 0.75365 0.43103 0.0
C196 C 0.31958 0.74309 0.43608 0.0
C197 C 0.30853 0.71919 0.43893 0.0
C198 C 0.28491 0.70586 0.43495 0.0
H199 H 0.2149 0.67445 0.47104 0.0
H200 H 0.24212 0.67569 0.46813 0.0
H201 H 0.24125 0.70191 0.46995 0.0
H202 H 0.27322 0.74844 0.42032 0.0
H203 H 0.31478 0.77207 0.42827 0.0
H204 H 0.58408 0.21476 0.58692 0.0
H205 H 0.56763 0.2392 0.59267 0.0
H206 H 0.51141 0.19563 0.54049 0.0
H207 H 0.52804 0.17067 0.53436 0.0
H208 H 0.53059 0.2414 0.52831 0.0
H209 H 0.51299 0.23009 0.63667 0.0
H210 H 0.54136 0.23496 0.63072 0.0
H211 H 0.51692 0.2098 0.61701 0.0
C212 C 0.56814 0.21015 0.57669 0.0
C213 C 0.55733 0.19065 0.56025 0.0
C214 C 0.55858 0.22404 0.58031 0.0
C215 C 0.53786 0.21877 0.5678 0.0
C216 C 0.52717 0.19966 0.55079 0.0
H217 H 0.52707 0.34013 0.6089 0.0
H218 H 0.51048 0.29847 0.60312 0.0
C219 C 0.53678 0.18558 0.54714 0.0
C220 C 0.52925 0.23496 0.57088 0.0
H221 H 0.5273 0.26966 0.61915 0.0
C222 C 0.52893 0.24707 0.54811 0.0
C223 C 0.5263 0.24198 0.59661 0.0
C224 C 0.52413 0.22828 0.62157 0.0
C225 C 0.52917 0.26789 0.55072 0.0
C226 C 0.53025 0.27683 0.57668 0.0
C227 C 0.52711 0.26308 0.59925 0.0
C228 C 0.5395 0.30165 0.58069 0.0
C229 C 0.53017 0.28104 0.52568 0.0
C230 C 0.56162 0.31697 0.57109 0.0
C231 C 0.57111 0.34046 0.5745 0.0
C232 C 0.55878 0.34923 0.58782 0.0
C233 C 0.53697 0.33385 0.59855 0.0
C234 C 0.5274 0.31013 0.59507 0.0
H235 H 0.5205 0.26912 0.50906 0.0
H236 H 0.52306 0.29253 0.52928 0.0
H237 H 0.54832 0.29163 0.51909 0.0
H238 H 0.5716 0.31073 0.56082 0.0
H239 H 0.58807 0.35177 0.56629 0.0
H240 H 0.20649 0.592 0.77137 0.0
H241 H 0.22755 0.57199 0.76235 0.0
H242 H 0.16365 0.50859 0.75167 0.0
H243 H 0.14233 0.52865 0.76127 0.0
H244 H 0.22455 0.52738 0.78213 0.0
H245 H 0.1992 0.52947 0.67596 0.0
H246 H 0.19701 0.54787 0.70056 0.0
H247 H 0.1779 0.51745 0.70229 0.0
C248 C 0.19693 0.57362 0.76815 0.0
C249 C 0.17288 0.56183 0.76694 0.0
C250 C 0.20894 0.5622 0.76301 0.0
C251 C 0.19711 0.5389 0.75613 0.0
C252 C 0.17301 0.52658 0.75699 0.0
H253 H 0.31459 0.52567 0.70388 0.0
H254 H 0.27288 0.50683 0.71188 0.0
C255 C 0.1609 0.538 0.76261 0.0
C256 C 0.21049 0.52928 0.74411 0.0
H257 H 0.23423 0.5305 0.68319 0.0
C258 C 0.22608 0.52687 0.7605 0.0
C259 C 0.21235 0.5287 0.71586 0.0
C260 C 0.19577 0.53096 0.69747 0.0
C261 C 0.24511 0.52663 0.74936 0.0
C262 C 0.24851 0.529 0.72123 0.0
C263 C 0.23147 0.52863 0.70473 0.0
C264 C 0.27183 0.53837 0.70998 0.0
C265 C 0.26289 0.52667 0.76785 0.0
C266 C 0.28461 0.56205 0.70503 0.0
C267 C 0.30821 0.57276 0.70079 0.0
C268 C 0.31935 0.5599 0.70098 0.0
C269 C 0.30625 0.53587 0.70334 0.0
C270 C 0.28254 0.52513 0.70806 0.0
H271 H 0.25725 0.52394 0.78918 0.0
H272 H 0.2665 0.51293 0.76191 0.0
H273 H 0.27919 0.54332 0.76612 0.0
H274 H 0.27662 0.57253 0.70652 0.0
H275 H 0.31799 0.5913 0.69909 0.0
H276 H 0.69706 0.34659 0.87056 0.0
H277 H 0.67404 0.30518 0.87728 0.0
H278 H 0.73571 0.30178 0.88976 0.0
H279 H 0.75902 0.34354 0.88245 0.0
H280 H 0.67561 0.26323 0.8558 0.0
H281 H 0.69732 0.2853 0.96377 0.0
H282 H 0.70137 0.30733 0.94003 0.0
H283 H 0.71959 0.29503 0.93859 0.0
C284 C 0.70573 0.33688 0.87367 0.0
C285 C 0.7297 0.34809 0.87603 0.0
C286 C 0.69262 0.31327 0.8775 0.0
C287 C 0.70323 0.30057 0.88421 0.0
C288 C 0.7273 0.31139 0.88453 0.0
H289 H 0.58543 0.16856 0.93799 0.0
H290 H 0.62689 0.19303 0.92942 0.0
C291 C 0.74053 0.33512 0.88022 0.0
C292 C 0.68856 0.27716 0.89489 0.0
H293 H 0.66199 0.25229 0.95405 0.0
C294 C 0.67321 0.26024 0.87728 0.0
C295 C 0.6855 0.27347 0.92295 0.0
C296 C 0.70176 0.29115 0.9426 0.0
C297 C 0.65345 0.24081 0.88704 0.0
C298 C 0.64901 0.23857 0.91495 0.0
C299 C 0.66559 0.25415 0.93267 0.0
C300 C 0.62535 0.22415 0.92491 0.0
C301 C 0.63612 0.22413 0.8674 0.0
C302 C 0.61121 0.23387 0.92611 0.0
C303 C 0.58774 0.22008 0.93073 0.0
C304 C 0.57807 0.19635 0.93452 0.0
C305 C 0.59254 0.18687 0.93538 0.0
C306 C 0.61612 0.20072 0.93037 0.0
H307 H 0.64338 0.22647 0.84683 0.0
H308 H 0.62994 0.20622 0.87409 0.0
H309 H 0.62105 0.22667 0.86665 0.0
H310 H 0.61815 0.25197 0.92192 0.0
H311 H 0.57698 0.22781 0.93001 0.0
H312 H 0.36256 0.75833 0.10661 0.0
H313 H 0.37567 0.73074 0.11275 0.0
H314 H 0.36243 0.71247 0.029 0.0
H315 H 0.35054 0.7411 0.02261 0.0
H316 H 0.34687 0.6879 0.10855 0.0
H317 H 0.41789 0.70658 0.03893 0.0
H318 H 0.40962 0.72761 0.04668 0.0
H319 H 0.39473 0.70643 0.02103 0.0
C320 C 0.36327 0.74896 0.08935 0.0
C321 C 0.35553 0.75163 0.06417 0.0
C322 C 0.37077 0.73325 0.09285 0.0
C323 C 0.37016 0.71955 0.07136 0.0
C324 C 0.36368 0.72322 0.04576 0.0
H325 H 0.3304 0.58534 0.04102 0.0
H326 H 0.3457 0.62656 0.04236 0.0
C327 C 0.3567 0.73943 0.04211 0.0
C328 C 0.37204 0.69888 0.07675 0.0
H329 H 0.39301 0.66609 0.05116 0.0
C330 C 0.35753 0.68348 0.09655 0.0
C331 C 0.38593 0.69306 0.06115 0.0
C332 C 0.40308 0.70946 0.04098 0.0
C333 C 0.35522 0.66177 0.09978 0.0
C334 C 0.36781 0.65533 0.0828 0.0
C335 C 0.38339 0.67117 0.06414 0.0
C336 C 0.36191 0.63113 0.08109 0.0
C337 C 0.33804 0.64523 0.11991 0.0
C338 C 0.36637 0.62014 0.10231 0.0
C339 C 0.35754 0.59638 0.10168 0.0
C340 C 0.34401 0.5834 0.07991 0.0
C341 C 0.34046 0.59475 0.05829 0.0
C342 C 0.34938 0.61836 0.05885 0.0
H343 H 0.32831 0.65238 0.13005 0.0
H344 H 0.32562 0.629 0.10984 0.0
H345 H 0.34715 0.641 0.13548 0.0
H346 H 0.37607 0.62983 0.11962 0.0
H347 H 0.36068 0.58812 0.11853 0.0
H348 H 0.70481 0.3364 0.21458 0.0
H349 H 0.68197 0.35475 0.21084 0.0
H350 H 0.72542 0.40589 0.26838 0.0
H351 H 0.74875 0.38723 0.27254 0.0
H352 H 0.67989 0.38738 0.27974 0.0
H353 H 0.69256 0.41247 0.17345 0.0
H354 H 0.68701 0.38361 0.17594 0.0
H355 H 0.7123 0.40652 0.19158 0.0
C356 C 0.7098 0.35166 0.22638 0.0
C357 C 0.72869 0.36034 0.24388 0.0
C358 C 0.69684 0.36236 0.22389 0.0
C359 C 0.70245 0.38216 0.2386 0.0
C360 C 0.72113 0.39089 0.2564 0.0
H361 H 0.58202 0.39567 0.20171 0.0
H362 H 0.62359 0.41182 0.20815 0.0
C363 C 0.7343 0.38013 0.25889 0.0
C364 C 0.68671 0.39148 0.23718 0.0
H365 H 0.65245 0.39665 0.19063 0.0
C366 C 0.67442 0.39037 0.2604 0.0
C367 C 0.67996 0.39619 0.21215 0.0
C368 C 0.69391 0.40004 0.18697 0.0
C369 C 0.65361 0.39032 0.25859 0.0
C370 C 0.64484 0.39085 0.23294 0.0
C371 C 0.65885 0.39552 0.21024 0.0
C372 C 0.62001 0.38191 0.2289 0.0
C373 C 0.64034 0.38785 0.28399 0.0
C374 C 0.60447 0.35946 0.23734 0.0
C375 C 0.581 0.35021 0.23356 0.0
C376 C 0.57248 0.36311 0.22098 0.0
C377 C 0.5881 0.38531 0.21146 0.0
C378 C 0.61178 0.39463 0.21533 0.0
H379 H 0.65221 0.39675 0.30094 0.0
H380 H 0.62865 0.39491 0.28148 0.0
H381 H 0.62992 0.3694 0.28942 0.0
H382 H 0.61052 0.34899 0.24689 0.0
H383 H 0.5695 0.33297 0.24085 0.0
H384 H 0.12946 0.60934 0.66673 0.0
H385 H 0.12831 0.60004 0.61878 0.0
H386 H 0.09108 0.52786 0.63817 0.0
H387 H 0.09201 0.53687 0.68559 0.0
H388 H 0.14642 0.573 0.59547 0.0
H389 H 0.05284 0.53445 0.57768 0.0
H390 H 0.06719 0.55271 0.60603 0.0
H391 H 0.05986 0.52312 0.60656 0.0
C392 C 0.12074 0.59152 0.66066 0.0
C393 C 0.11079 0.57386 0.67992 0.0
C394 C 0.1202 0.58624 0.63334 0.0
C395 C 0.10942 0.56325 0.62496 0.0
C396 C 0.09917 0.54569 0.64415 0.0
H397 H 0.12596 0.50501 0.47547 0.0
H398 H 0.12527 0.51475 0.52291 0.0
C399 C 0.09982 0.55091 0.67129 0.0
C400 C 0.10958 0.55731 0.59638 0.0
H401 H 0.07418 0.52798 0.54421 0.0
C402 C 0.13067 0.5633 0.58415 0.0
C403 C 0.08899 0.54467 0.58172 0.0
C404 C 0.06593 0.53851 0.59354 0.0
C405 C 0.13167 0.55665 0.5577 0.0
C406 C 0.11101 0.54344 0.54331 0.0
C407 C 0.08997 0.5378 0.55543 0.0
C408 C 0.1109 0.53664 0.51501 0.0
C409 C 0.15481 0.5641 0.5452 0.0
C410 C 0.10245 0.54514 0.49507 0.0
C411 C 0.10271 0.53955 0.46822 0.0
C412 C 0.11134 0.5252 0.46064 0.0
C413 C 0.11924 0.51612 0.4807 0.0
C414 C 0.11903 0.52182 0.50773 0.0
H415 H 0.16904 0.57802 0.55682 0.0
H416 H 0.15767 0.54926 0.5446 0.0
H417 H 0.15552 0.57017 0.52427 0.0
H418 H 0.09599 0.55649 0.50025 0.0
H419 H 0.09638 0.54678 0.45333 0.0
H420 H 0.5191 0.1034 0.62378 0.0
H421 H 0.51066 0.10331 0.67123 0.0
H422 H 0.58072 0.12342 0.69076 0.0
H423 H 0.58959 0.12423 0.64272 0.0
H424 H 0.51251 0.08053 0.71484 0.0
H425 H 0.57372 0.17398 0.72532 0.0
H426 H 0.56609 0.15997 0.69313 0.0
H427 H 0.58659 0.15768 0.71414 0.0
C428 C 0.53277 0.10767 0.6381 0.0
C429 C 0.55514 0.11414 0.62943 0.0
C430 C 0.52785 0.10754 0.66529 0.0
C431 C 0.54514 0.11383 0.68455 0.0
C432 C 0.56724 0.11905 0.67617 0.0
H433 H 0.5455 0.12993 0.85596 0.0
H434 H 0.55306 0.12493 0.80946 0.0
C435 C 0.57224 0.11928 0.64877 0.0
C436 C 0.53991 0.11574 0.71309 0.0
H437 H 0.55407 0.15386 0.76455 0.0
C438 C 0.52161 0.09656 0.72572 0.0
C439 C 0.55158 0.13677 0.72714 0.0
C440 C 0.57044 0.15835 0.71422 0.0
C441 C 0.51489 0.09778 0.7521 0.0
C442 C 0.52669 0.11872 0.76613 0.0
C443 C 0.54502 0.13785 0.75361 0.0
C444 C 0.52115 0.1209 0.79435 0.0
C445 C 0.49547 0.07662 0.765 0.0
C446 C 0.50061 0.12033 0.80128 0.0
C447 C 0.49619 0.12333 0.82807 0.0
C448 C 0.51227 0.12687 0.84822 0.0
C449 C 0.53269 0.12722 0.84103 0.0
C450 C 0.5371 0.12438 0.81442 0.0
H451 H 0.49033 0.06096 0.75292 0.0
H452 H 0.50047 0.07401 0.7854 0.0
H453 H 0.48033 0.07892 0.76718 0.0
H454 H 0.48818 0.11789 0.78594 0.0
H455 H 0.48035 0.12302 0.83296 0.0
H456 H 0.30445 0.48939 -0.00595 0.0
H457 H 0.31383 0.49746 0.94602 0.0
H458 H 0.38608 0.5313 0.96475 0.0
H459 H 0.37694 0.52328 0.01229 0.0
H460 H 0.34084 0.5429 0.92449 0.0
H461 H 0.37967 0.48911 0.90185 0.0
H462 H 0.36149 0.48412 0.93075 0.0
H463 H 0.39113 0.50648 0.9313 0.0
C464 C 0.32228 0.49805 -0.01222 0.0
C465 C 0.33996 0.50571 0.00687 0.0
C466 C 0.32762 0.50277 0.96043 0.0
C467 C 0.35065 0.51483 0.95187 0.0
C468 C 0.36821 0.52168 0.97086 0.0
H469 H 0.40908 0.59595 0.80557 0.0
H470 H 0.39978 0.58334 0.85265 0.0
C471 C 0.36293 0.51715 -0.00195 0.0
C472 C 0.35664 0.52194 0.92348 0.0
H473 H 0.3864 0.51837 0.86998 0.0
C474 C 0.35064 0.53742 0.91245 0.0
C475 C 0.36946 0.51476 0.90791 0.0
C476 C 0.37566 0.49754 0.91842 0.0
C477 C 0.35743 0.54621 0.88634 0.0
C478 C 0.37082 0.53954 0.87107 0.0
C479 C 0.37647 0.52375 0.88193 0.0
C480 C 0.37769 0.54745 0.84303 0.0
C481 C 0.34996 0.56228 0.87515 0.0
C482 C 0.36894 0.53138 0.82225 0.0
C483 C 0.37424 0.53848 0.79561 0.0
C484 C 0.38855 0.56181 0.78911 0.0
C485 C 0.39799 0.57788 0.80998 0.0
C486 C 0.39256 0.57072 0.8368 0.0
H487 H 0.33601 0.56206 0.88733 0.0
H488 H 0.36482 0.58005 0.87508 0.0
H489 H 0.3439 0.55768 0.85415 0.0
H490 H 0.35754 0.51335 0.82663 0.0
H491 H 0.36679 0.52561 0.78004 0.0
H492 H 0.83016 0.38611 0.17657 0.0
H493 H 0.82779 0.39727 0.1305 0.0
H494 H 0.76491 0.33298 0.11911 0.0
H495 H 0.76779 0.32134 0.16519 0.0
H496 H 0.7904 0.34564 0.07427 0.0
H497 H 0.7845 0.41971 0.1112 0.0
H498 H 0.8104 0.42098 0.1225 0.0
H499 H 0.78294 0.39774 0.13339 0.0
C500 C 0.81614 0.37412 0.164 0.0
C501 C 0.79916 0.35288 0.17436 0.0
C502 C 0.81461 0.38065 0.13781 0.0
C503 C 0.79571 0.36636 0.12168 0.0
C504 C 0.77949 0.34443 0.13135 0.0
H505 H 0.76538 0.42224 0.97696 0.0
H506 H 0.76424 0.40778 0.02274 0.0
C507 C 0.78124 0.33769 0.15754 0.0
C508 C 0.7928 0.37469 0.09508 0.0
H509 H 0.7929 0.4202 0.06425 0.0
C510 C 0.79073 0.36183 0.07211 0.0
C511 C 0.79251 0.39551 0.09224 0.0
C512 C 0.79243 0.40913 0.11619 0.0
C513 C 0.78953 0.36973 0.04635 0.0
C514 C 0.79121 0.39148 0.04338 0.0
C515 C 0.79211 0.40379 0.06643 0.0
C516 C 0.79279 0.40196 0.01654 0.0
C517 C 0.78629 0.35455 0.02261 0.0
C518 C 0.80986 0.40457 -0.00167 0.0
C519 C 0.81036 0.41256 0.97233 0.0
C520 C 0.7942 0.41872 0.96413 0.0
C521 C 0.77812 0.41774 0.98285 0.0
C522 C 0.77737 0.40932 0.0089 0.0
H523 H 0.77751 0.33616 0.02861 0.0
H524 H 0.77609 0.35671 0.00653 0.0
H525 H 0.80336 0.35905 0.01429 0.0
H526 H 0.82251 0.3999 0.00403 0.0
H527 H 0.8231 0.41336 0.95835 0.0
H528 H 0.38395 0.84365 0.12408 0.0
H529 H 0.39198 0.84299 0.17166 0.0
H530 H 0.3193 0.80364 0.18839 0.0
H531 H 0.31106 0.80396 0.14033 0.0
H532 H 0.37929 0.85736 0.21764 0.0
H533 H 0.34442 0.76302 0.21745 0.0
H534 H 0.35015 0.77957 0.18692 0.0
H535 H 0.3249 0.77225 0.20641 0.0
C536 C 0.36961 0.83508 0.13788 0.0
C537 C 0.34686 0.82367 0.12845 0.0
C538 C 0.37426 0.83474 0.16509 0.0
C539 C 0.35627 0.82289 0.18345 0.0
C540 C 0.33344 0.81252 0.1744 0.0
H541 H 0.36704 0.82462 0.35588 0.0
H542 H 0.35952 0.8291 0.30908 0.0
C543 C 0.32874 0.81291 0.14704 0.0
C544 C 0.36178 0.8208 0.21175 0.0
H545 H 0.35823 0.7821 0.25883 0.0
C546 C 0.37461 0.84091 0.22669 0.0
C547 C 0.3561 0.79934 0.22328 0.0
C548 C 0.34331 0.77729 0.20769 0.0
C549 C 0.38166 0.84012 0.253 0.0
C550 C 0.3755 0.81863 0.26473 0.0
C551 C 0.36291 0.79854 0.24972 0.0
C552 C 0.38103 0.8166 0.29301 0.0
C553 C 0.39589 0.86229 0.26795 0.0
C554 C 0.39552 0.80786 0.2995 0.0
C555 C 0.39994 0.80528 0.32643 0.0
C556 C 0.38965 0.81112 0.34714 0.0
C557 C 0.37527 0.81997 0.34042 0.0
C558 C 0.37101 0.82266 0.31367 0.0
H559 H 0.40401 0.87728 0.25409 0.0
H560 H 0.38467 0.86492 0.28206 0.0
H561 H 0.40957 0.86173 0.27983 0.0
H562 H 0.40331 0.80298 0.28375 0.0
H563 H 0.41097 0.7983 0.331 0.0
H564 H 0.53257 0.40272 0.28805 0.0
H565 H 0.53997 0.41337 0.33502 0.0
H566 H 0.48002 0.34949 0.35773 0.0
H567 H 0.47277 0.33825 0.31023 0.0
H568 H 0.51601 0.41993 0.37372 0.0
H569 H 0.52994 0.34784 0.40149 0.0
H570 H 0.52758 0.3548 0.36706 0.0
H571 H 0.50221 0.33911 0.38738 0.0
C572 C 0.52083 0.39086 0.30293 0.0
C573 C 0.50219 0.36947 0.29538 0.0
C574 C 0.52509 0.39706 0.32985 0.0
C575 C 0.51083 0.3821 0.34996 0.0
C576 C 0.49157 0.36109 0.34255 0.0
H577 H 0.517 0.39179 0.52229 0.0
H578 H 0.50566 0.38374 0.47546 0.0
C579 C 0.48733 0.35476 0.31543 0.0
C580 C 0.51683 0.38854 0.37853 0.0
H581 H 0.5321 0.3724 0.4365 0.0
C582 C 0.51951 0.40952 0.38745 0.0
C583 C 0.52168 0.37509 0.39634 0.0
C584 C 0.52044 0.35307 0.3876 0.0
C585 C 0.52669 0.41729 0.41375 0.0
C586 C 0.53135 0.40375 0.43149 0.0
C587 C 0.52856 0.38274 0.4227 0.0
C588 C 0.53812 0.41045 0.45973 0.0
C589 C 0.52898 0.43971 0.42259 0.0
C590 C 0.56015 0.42844 0.4664 0.0
C591 C 0.56685 0.43312 0.4934 0.0
C592 C 0.55156 0.41981 0.51396 0.0
C593 C 0.52929 0.40234 0.50701 0.0
C594 C 0.52271 0.39767 0.48023 0.0
H595 H 0.52195 0.44677 0.40752 0.0
H596 H 0.51992 0.43742 0.442 0.0
H597 H 0.5474 0.45245 0.42576 0.0
H598 H 0.57234 0.43838 0.45074 0.0
H599 H 0.58411 0.44662 0.49811 0.0
H600 H 0.85394 0.41328 0.30119 0.0
H601 H 0.89418 0.43615 0.31516 0.0
H602 H 0.90032 0.37547 0.31472 0.0
H603 H 0.86022 0.35247 0.30071 0.0
H604 H 0.92056 0.40762 0.36157 0.0
H605 H 0.94775 0.44845 0.26056 0.0
H606 H 0.9238 0.4487 0.27634 0.0
H607 H 0.92102 0.42198 0.26591 0.0
C608 C 0.86377 0.40475 0.30443 0.0
C609 C 0.85398 0.3811 0.29969 0.0
C610 C 0.88674 0.41785 0.31228 0.0
C611 C 0.90018 0.40748 0.31561 0.0
C612 C 0.89018 0.38374 0.31211 0.0
H613 H 0.03986 0.44638 0.35492 0.0
H614 H -0.0013 0.42647 0.34542 0.0
C615 C 0.86729 0.37066 0.30411 0.0
C616 C 0.92495 0.42142 0.32158 0.0
H617 H -0.02342 0.45923 0.2932 0.0
C618 C 0.93285 0.419 0.34673 0.0
C619 C 0.9408 0.43624 0.30212 0.0
C620 C 0.93308 0.43902 0.27461 0.0
C621 C -0.04366 0.43108 0.35298 0.0
C622 C -0.02769 0.44544 0.33323 0.0
C623 C -0.03569 0.44815 0.30824 0.0
C624 C -0.00257 0.45749 0.33795 0.0
C625 C -0.03623 0.42857 0.38077 0.0
C626 C 0.01056 0.48147 0.33568 0.0
C627 C 0.03417 0.49289 0.34069 0.0
C628 C 0.04504 0.48049 0.34805 0.0
C629 C 0.03195 0.45642 0.34951 0.0
C630 C 0.00839 0.44503 0.34432 0.0
H631 H 0.9495 0.42281 0.39552 0.0
H632 H -0.03085 0.41547 0.38038 0.0
H633 H -0.0215 0.44499 0.38781 0.0
H634 H 0.00245 0.49139 0.33053 0.0
H635 H 0.0438 0.51144 0.3394 0.0
H636 H 0.39854 0.87139 0.46975 0.0
H637 H 0.4173 0.91276 0.4778 0.0
H638 H 0.4834 0.91911 0.46281 0.0
H639 H 0.46481 0.87796 0.45422 0.0
H640 H 0.45002 0.94053 0.51431 0.0
H641 H 0.48354 0.96574 0.41068 0.0
H642 H 0.46216 0.93673 0.41961 0.0
H643 H 0.4921 0.94709 0.42608 0.0
C644 C 0.41708 0.88158 0.46836 0.0
C645 C 0.43019 0.87146 0.46115 0.0
C646 C 0.42775 0.9052 0.47287 0.0
C647 C 0.45166 0.91905 0.47022 0.0
C648 C 0.46486 0.90882 0.46419 0.0
H649 H 0.55678 0.05554 0.50294 0.0
H650 H 0.53274 0.01552 0.48953 0.0
C651 C 0.45422 0.88527 0.45953 0.0
C652 C 0.46295 0.94419 0.47396 0.0
H653 H 0.49947 -0.00456 0.44374 0.0
C654 C 0.46057 0.95257 0.49878 0.0
C655 C 0.47656 0.95983 0.45354 0.0
C656 C 0.47857 0.95192 0.42589 0.0
C657 C 0.47234 -0.02382 0.50416 0.0
C658 C 0.48664 -0.0083 0.48411 0.0
C659 C 0.4885 -0.0166 0.45904 0.0
C660 C 0.50109 0.01646 0.48957 0.0
C661 C 0.47014 -0.01564 0.53157 0.0
C662 C 0.49124 0.03033 0.49321 0.0
C663 C 0.50496 0.05329 0.50071 0.0
C664 C 0.52867 0.06259 0.50482 0.0
C665 C 0.53855 0.04884 0.50005 0.0
C666 C 0.52487 0.02599 0.49238 0.0
H667 H 0.46075 -0.03007 0.54595 0.0
H668 H 0.48741 -0.00369 0.53988 0.0
H669 H 0.46069 -0.00613 0.52982 0.0
H670 H 0.4729 0.02324 0.49086 0.0
H671 H 0.49687 0.06347 0.50426 0.0
H672 H 0.39914 0.5111 0.6671 0.0
H673 H 0.41824 0.4888 0.65944 0.0
H674 H 0.48409 0.54932 0.67291 0.0
H675 H 0.46516 0.5716 0.68114 0.0
H676 H 0.45103 0.49338 0.62302 0.0
H677 H 0.48472 0.5041 0.72666 0.0
H678 H 0.46317 0.51129 0.71725 0.0
H679 H 0.49306 0.53095 0.71032 0.0
C680 C 0.4177 0.51969 0.66821 0.0
C681 C 0.43065 0.54305 0.67496 0.0
C682 C 0.42857 0.50691 0.66392 0.0
C683 C 0.45251 0.51729 0.66631 0.0
C684 C 0.46554 0.54085 0.67175 0.0
H685 H 0.55761 0.48528 0.63575 0.0
H686 H 0.53373 0.50175 0.64788 0.0
C687 C 0.4547 0.55359 0.67621 0.0
C688 C 0.46397 0.50356 0.66315 0.0
H689 H 0.50056 0.48964 0.69437 0.0
C690 C 0.46162 0.4923 0.63872 0.0
C691 C 0.47762 0.50204 0.68379 0.0
C692 C 0.47963 0.51254 0.71108 0.0
C693 C 0.47339 0.48038 0.63396 0.0
C694 C 0.4877 0.47963 0.65423 0.0
C695 C 0.48958 0.49034 0.6789 0.0
C696 C 0.50206 0.46914 0.64942 0.0
C697 C 0.47118 0.46937 0.60697 0.0
C698 C 0.49214 0.44528 0.64709 0.0
C699 C 0.50577 0.43577 0.64035 0.0
C700 C 0.52945 0.45003 0.63569 0.0
C701 C 0.5394 0.47385 0.63911 0.0
C702 C 0.52581 0.4833 0.64604 0.0
H703 H 0.46166 0.47393 0.59231 0.0
H704 H 0.48845 0.47466 0.59861 0.0
H705 H 0.46188 0.45043 0.60941 0.0
H706 H 0.47382 0.43412 0.64989 0.0
H707 H 0.49763 0.41736 0.63781 0.0
H708 H 0.04462 0.5822 0.79411 0.0
H709 H 0.00392 0.56252 0.80635 0.0
H710 H 0.00378 0.49861 0.81342 0.0
H711 H 0.04464 0.51828 0.80189 0.0
H712 H -0.03144 0.52826 0.77936 0.0
H713 H -0.02762 0.49878 0.88239 0.0
H714 H -0.00235 0.51988 0.86465 0.0
H715 H -0.01437 0.48982 0.85768 0.0
C716 C 0.036 0.56401 0.79864 0.0
C717 C 0.04784 0.5518 0.79715 0.0
C718 C 0.01274 0.55279 0.80556 0.0
C719 C 0.00089 0.52916 0.81111 0.0
C720 C 0.01271 0.51695 0.80984 0.0
H721 H 0.8573 0.42905 0.83911 0.0
H722 H 0.89807 0.44859 0.82678 0.0
C723 C 0.03604 0.5282 0.80313 0.0
C724 C -0.0241 0.51715 0.81682 0.0
H725 H 0.93521 0.48318 0.86289 0.0
C726 C -0.03871 0.51852 0.7977 0.0
C727 C -0.03354 0.50443 0.84075 0.0
C728 C -0.01865 0.50329 0.86266 0.0
C729 C 0.93744 0.50728 0.80173 0.0
C730 C 0.92805 0.49443 0.82549 0.0
C731 C 0.94258 0.49298 0.8446 0.0
C732 C 0.90318 0.48275 0.83122 0.0
C733 C 0.92237 0.50895 0.78048 0.0
C734 C 0.89268 0.49559 0.83762 0.0
C735 C 0.86947 0.48453 0.8448 0.0
C736 C 0.85641 0.46043 0.84562 0.0
C737 C 0.86689 0.44763 0.83856 0.0
C738 C 0.89015 0.45873 0.83159 0.0
H739 H 0.93179 0.51615 0.76133 0.0
H740 H 0.90722 0.49179 0.77654 0.0
H741 H 0.91595 0.52028 0.78772 0.0
H742 H 0.90258 0.51417 0.83766 0.0
H743 H 0.86189 0.49485 0.85018 0.0
H744 H 0.43693 0.05808 0.95808 0.0
H745 H 0.41863 0.01685 0.96644 0.0
H746 H 0.48525 0.02262 0.97328 0.0
H747 H 0.50374 0.06406 0.96547 0.0
H748 H 0.42299 -0.01441 0.93517 0.0
H749 H 0.45196 -0.01501 0.03955 0.0
H750 H 0.45414 0.01033 0.02421 0.0
H751 H 0.47463 0.00158 0.01604 0.0
C752 C 0.44771 0.05065 0.96175 0.0
C753 C 0.47178 0.06432 0.9612 0.0
C754 C 0.43722 0.02708 0.96643 0.0
C755 C 0.45057 0.01672 0.97065 0.0
C756 C 0.47462 0.03035 0.97056 0.0
H757 H 0.4059 0.87225 0.0007 0.0
H758 H 0.42924 0.91249 -0.01317 0.0
C759 C 0.48516 0.054 0.96603 0.0
C760 C 0.43917 -0.0085 0.97394 0.0
H761 H 0.43112 0.94912 0.01797 0.0
C762 C 0.42481 -0.0224 0.95325 0.0
C763 C 0.44171 -0.01884 -0.00253 0.0
C764 C 0.45628 -0.00476 0.02071 0.0
C765 C 0.41266 0.95362 0.9556 0.0
C766 C 0.4148 0.94332 0.97935 0.0
C767 C 0.42964 0.95714 -0.00027 0.0
C768 C 0.40052 0.91839 0.9844 0.0
C769 C 0.39756 0.93947 0.93274 0.0
C770 C 0.37665 0.9084 -0.01279 0.0
C771 C 0.36331 0.88551 -0.00481 0.0
C772 C 0.37363 0.87223 0.00054 0.0
C773 C 0.39744 0.88201 -0.0034 0.0
C774 C 0.41081 0.90499 -0.01122 0.0
H775 H 0.40252 0.94925 0.91353 0.0
H776 H 0.3984 0.92354 0.93012 0.0
H777 H 0.37948 0.93447 0.93723 0.0
H778 H 0.36845 0.91857 0.98431 0.0
H779 H 0.34503 0.87848 -0.00189 0.0
H780 H 0.39941 0.51313 0.13183 0.0
H781 H 0.42393 0.49678 0.14197 0.0
H782 H 0.3649 0.42864 0.13841 0.0
H783 H 0.34037 0.44473 0.12791 0.0
H784 H 0.42274 0.46712 0.18283 0.0
H785 H 0.40881 0.42705 0.08246 0.0
H786 H 0.40116 0.44854 0.09014 0.0
H787 H 0.38256 0.41914 0.10006 0.0
C788 C 0.39161 0.49468 0.13355 0.0
C789 C 0.368 0.4802 0.12881 0.0
C790 C 0.40565 0.48538 0.13926 0.0
C791 C 0.39629 0.46151 0.14025 0.0
C792 C 0.37253 0.4471 0.13704 0.0
H793 H 0.43488 0.36196 0.17437 0.0
H794 H 0.41692 0.38441 0.16185 0.0
C795 C 0.35852 0.45633 0.13124 0.0
C796 C 0.41129 0.45151 0.14406 0.0
H797 H 0.42615 0.41479 0.1155 0.0
C798 C 0.42376 0.45591 0.16801 0.0
C799 C 0.4127 0.43708 0.12452 0.0
C800 C 0.40078 0.43283 0.09773 0.0
C801 C 0.43674 0.44531 0.1735 0.0
C802 C 0.43739 0.43019 0.15438 0.0
C803 C 0.42553 0.42637 0.1301 0.0
C804 C 0.44883 0.4168 0.16011 0.0
C805 C 0.44889 0.44958 0.20012 0.0
C806 C 0.4728 0.42756 0.16253 0.0
C807 C 0.48318 0.41474 0.16954 0.0
C808 C 0.46968 0.391 0.17431 0.0
C809 C 0.44575 0.38022 0.17092 0.0
C810 C 0.43544 0.393 0.16378 0.0
H811 H 0.44388 0.45905 0.21424 0.0
H812 H 0.44506 0.43309 0.20961 0.0
H813 H 0.46772 0.45987 0.19681 0.0
H814 H 0.48341 0.4459 0.1594 0.0
H815 H 0.50165 0.42351 0.17201 0.0
H816 H 0.18793 0.48839 0.34813 0.0
H817 H 0.2053 0.48156 0.30875 0.0
H818 H 0.15718 0.4879 0.25743 0.0
H819 H 0.13944 0.49448 0.29675 0.0
H820 H 0.16603 0.45198 0.2424 0.0
H821 H 0.24632 0.5352 0.25802 0.0
H822 H 0.23722 0.51615 0.28647 0.0
H823 H 0.2198 0.52779 0.27507 0.0
C824 C 0.18081 0.48806 0.32853 0.0
C825 C 0.16242 0.49226 0.32563 0.0
C826 C 0.19085 0.48425 0.30601 0.0
C827 C 0.18283 0.48468 0.28013 0.0
C828 C 0.16373 0.48763 0.27722 0.0
H829 H 0.22945 0.48495 0.1173 0.0
H830 H 0.20646 0.48107 0.1571 0.0
C831 C 0.15362 0.49141 0.29975 0.0
C832 C 0.19518 0.48336 0.25608 0.0
H833 H 0.24674 0.51167 0.22335 0.0
C834 C 0.18368 0.465 0.23818 0.0
C835 C 0.21817 0.50044 0.25058 0.0
C836 C 0.23109 0.52113 0.26837 0.0
C837 C 0.19472 0.46307 0.21516 0.0
C838 C 0.21772 0.48016 0.2097 0.0
C839 C 0.22917 0.49849 0.22763 0.0
C840 C 0.2303 0.47985 0.18529 0.0
C841 C 0.18181 0.44255 0.19716 0.0
C842 C 0.2514 0.4805 0.18781 0.0
C843 C 0.26469 0.48291 0.16512 0.0
C844 C 0.25723 0.48484 0.13935 0.0
C845 C 0.2357 0.4834 0.13679 0.0
C846 C 0.22243 0.48104 0.15955 0.0
H847 H 0.16715 0.42811 0.20784 0.0
H848 H 0.17482 0.44745 0.1798 0.0
H849 H 0.19331 0.43651 0.18933 0.0
H850 H 0.25786 0.47969 0.20747 0.0
H851 H 0.28115 0.48393 0.16789 0.0
H852 H 0.76405 0.29756 0.33634 0.0
H853 H 0.74591 0.27453 0.37651 0.0
H854 H 0.69182 0.22283 0.3279 0.0
H855 H 0.71008 0.24553 0.28754 0.0
H856 H 0.70384 0.26279 0.39574 0.0
H857 H 0.70719 0.18372 0.37563 0.0
H858 H 0.72395 0.20988 0.35669 0.0
H859 H 0.69409 0.19107 0.34896 0.0
C860 C 0.74848 0.28112 0.33409 0.0
C861 C 0.73856 0.27342 0.30862 0.0
C862 C 0.73811 0.26797 0.35713 0.0
C863 C 0.71763 0.24679 0.35527 0.0
C864 C 0.7079 0.23884 0.32984 0.0
H865 H 0.61401 0.15393 0.46712 0.0
H866 H 0.6379 0.17343 0.4279 0.0
C867 C 0.71831 0.25194 0.30675 0.0
C868 C 0.70558 0.23396 0.38008 0.0
H869 H 0.68251 0.18171 0.41139 0.0
C870 C 0.69941 0.24514 0.39927 0.0
C871 C 0.6997 0.21088 0.38469 0.0
C872 C 0.70676 0.19823 0.36553 0.0
C873 C 0.68706 0.23377 0.42254 0.0
C874 C 0.68094 0.21063 0.42699 0.0
C875 C 0.68723 0.19945 0.40795 0.0
C876 C 0.66735 0.19763 0.45092 0.0
C877 C 0.68003 0.24641 0.44179 0.0
C878 C 0.67621 0.20434 0.47692 0.0
C879 C 0.66261 0.19321 0.49944 0.0
C880 C 0.63985 0.17512 0.4964 0.0
C881 C 0.63139 0.16785 0.47027 0.0
C882 C 0.64504 0.17896 0.44778 0.0
H883 H 0.68167 0.26224 0.43264 0.0
H884 H 0.662 0.23526 0.44857 0.0
H885 H 0.69126 0.25144 0.45975 0.0
H886 H 0.69354 0.21848 0.47979 0.0
H887 H 0.66975 0.19922 0.51922 0.0
H888 H 0.42037 0.67805 0.68041 0.0
H889 H 0.42671 0.70239 0.64108 0.0
H890 H 0.43317 0.65373 0.59127 0.0
H891 H 0.42636 0.62901 0.63037 0.0
H892 H 0.46131 0.72344 0.60216 0.0
H893 H 0.37939 0.65641 0.55735 0.0
H894 H 0.3871 0.65502 0.5917 0.0
H895 H 0.39949 0.64703 0.56481 0.0
C896 C 0.42343 0.67262 0.66116 0.0
C897 C 0.42252 0.65138 0.65851 0.0
C898 C 0.42707 0.68659 0.63869 0.0
C899 C 0.42991 0.67964 0.61315 0.0
C900 C 0.43048 0.65918 0.61069 0.0
H901 H 0.42701 0.73053 0.45323 0.0
H902 H 0.43397 0.71183 0.49127 0.0
C903 C 0.4267 0.64512 0.63311 0.0
C904 C 0.43077 0.69304 0.58897 0.0
H905 H 0.40173 0.68964 0.53135 0.0
C906 C 0.44834 0.71606 0.58662 0.0
C907 C 0.41374 0.68342 0.56878 0.0
C908 C 0.39373 0.65919 0.5708 0.0
C909 C 0.44942 0.72964 0.56449 0.0
C910 C 0.43232 0.72 0.54441 0.0
C911 C 0.41492 0.69695 0.54667 0.0
C912 C 0.43143 0.73355 0.52132 0.0
C913 C 0.46894 0.75408 0.56266 0.0
C914 C 0.42805 0.75225 0.52551 0.0
C915 C 0.42406 0.76302 0.50377 0.0
C916 C 0.42319 0.75518 0.4774 0.0
C917 C 0.42751 0.73703 0.47323 0.0
C918 C 0.4315 0.72629 0.49497 0.0
H919 H 0.48375 0.75686 0.57525 0.0
H920 H 0.47489 0.75887 0.54159 0.0
H921 H 0.46294 0.76574 0.56994 0.0
H922 H 0.42748 0.75788 0.54569 0.0
H923 H 0.42073 0.77688 0.50776 0.0
H924 H 0.70924 0.44512 0.85065 0.0
H925 H 0.69202 0.45075 0.8102 0.0
H926 H 0.74978 0.45956 0.76327 0.0
H927 H 0.76695 0.4535 0.80349 0.0
H928 H 0.70614 0.48566 0.77214 0.0
H929 H 0.69573 0.40607 0.72601 0.0
H930 H 0.70335 0.41308 0.7608 0.0
H931 H 0.72475 0.42663 0.73496 0.0
C932 C 0.71845 0.44851 0.8318 0.0
C933 C 0.73938 0.44857 0.83031 0.0
C934 C 0.70855 0.45172 0.80867 0.0
C935 C 0.71935 0.45507 0.78359 0.0
C936 C 0.74085 0.45644 0.78229 0.0
H937 H 0.67076 0.45581 0.62106 0.0
H938 H 0.69523 0.46146 0.65999 0.0
C939 C 0.75071 0.45311 0.80536 0.0
C940 C 0.70759 0.45606 0.75875 0.0
H941 H 0.68501 0.4283 0.69961 0.0
C942 C 0.70157 0.47316 0.75624 0.0
C943 C 0.70155 0.43969 0.73803 0.0
C944 C 0.70646 0.42019 0.74009 0.0
C945 C 0.68978 0.47438 0.73353 0.0
C946 C 0.6836 0.4579 0.71296 0.0
C947 C 0.68989 0.44101 0.71531 0.0
C948 C 0.66964 0.45704 0.68938 0.0
C949 C 0.68419 0.49341 0.73165 0.0
C950 C 0.64716 0.45287 0.69294 0.0
C951 C 0.6331 0.4496 0.67075 0.0
C952 C 0.64119 0.45033 0.64448 0.0
C953 C 0.66397 0.4552 0.64096 0.0
C954 C 0.67799 0.45839 0.6632 0.0
H955 H 0.6955 0.50805 0.74482 0.0
H956 H 0.68593 0.49976 0.71069 0.0
H957 H 0.66617 0.48676 0.7382 0.0
H958 H 0.64017 0.45129 0.71294 0.0
H959 H 0.61565 0.44581 0.67426 0.0
H960 H 0.28721 0.77893 0.97053 0.0
H961 H 0.2623 0.75846 0.93276 0.0
H962 H 0.212 0.70875 -0.01271 0.0
H963 H 0.23697 0.72898 0.02532 0.0
H964 H 0.22313 0.68908 0.94575 0.0
H965 H 0.20304 0.75377 0.90544 0.0
H966 H 0.23326 0.76465 0.90972 0.0
H967 H 0.21468 0.75578 0.93864 0.0
C968 C 0.27072 0.76383 0.97461 0.0
C969 C 0.26415 0.75561 0.00104 0.0
C970 C 0.25641 0.75222 0.95294 0.0
C971 C 0.23513 0.73224 0.95719 0.0
C972 C 0.22829 0.72423 0.98355 0.0
H973 H 0.13945 0.62942 0.8439 0.0
H974 H 0.15639 0.65222 0.88432 0.0
C975 C 0.24259 0.73584 0.00528 0.0
C976 C 0.221 0.71873 0.93398 0.0
H977 H 0.19498 0.72226 0.87665 0.0
C978 C 0.2167 0.69622 0.93083 0.0
C979 C 0.21274 0.72812 0.91444 0.0
C980 C 0.21596 0.75183 0.9173 0.0
C981 C 0.20509 0.68312 0.90824 0.0
C982 C 0.19713 0.69262 0.88847 0.0
C983 C 0.20108 0.715 0.89182 0.0
C984 C 0.18551 0.67985 0.8637 0.0
C985 C 0.20224 0.65953 0.90523 0.0
C986 C 0.19568 0.68829 0.8385 0.0
C987 C 0.18595 0.67538 0.81528 0.0
C988 C 0.1658 0.65377 0.81681 0.0
C989 C 0.15508 0.64588 0.84197 0.0
C990 C 0.1648 0.65884 0.86515 0.0
H991 H 0.21392 0.65699 0.91874 0.0
H992 H 0.18431 0.6464 0.91042 0.0
H993 H 0.2056 0.65657 0.88422 0.0
H994 H 0.2116 0.70453 0.83689 0.0
H995 H 0.19464 0.68205 0.79627 0.0
H996 H 0.50085 0.30908 0.1375 0.0
H997 H 0.49562 0.28395 0.09988 0.0
H998 H 0.43996 0.22713 0.14206 0.0
H999 H 0.44625 0.25207 0.18066 0.0
H1000 H 0.46407 0.21252 0.12105 0.0
H1001 H 0.45153 0.26145 0.04079 0.0
H1002 H 0.47846 0.27965 0.05677 0.0
H1003 H 0.45206 0.26868 0.07568 0.0
C1004 C 0.48729 0.29129 0.13864 0.0
C1005 C 0.47385 0.2826 0.16199 0.0
C1006 C 0.48416 0.27693 0.11694 0.0
C1007 C 0.46694 0.25366 0.1176 0.0
C1008 C 0.45328 0.24501 0.14085 0.0
H1009 H 0.44883 0.17984 0.96599 0.0
H1010 H 0.44131 0.19731 0.00487 0.0
C1011 C 0.45682 0.25928 0.16291 0.0
C1012 C 0.46436 0.2382 0.09479 0.0
H1013 H 0.46474 0.2357 0.02632 0.0
C1014 C 0.46382 0.21746 0.10035 0.0
C1015 C 0.46334 0.24407 0.06765 0.0
C1016 C 0.46109 0.26454 0.05994 0.0
C1017 C 0.46344 0.20311 0.07968 0.0
C1018 C 0.46482 0.2102 0.05256 0.0
C1019 C 0.46419 0.23035 0.047 0.0
C1020 C 0.46789 0.19761 0.02975 0.0
C1021 C 0.46128 0.18041 0.08735 0.0
C1022 C 0.48521 0.19175 0.03059 0.0
C1023 C 0.48903 0.18115 0.0087 0.0
C1024 C 0.47618 0.17688 0.98502 0.0
C1025 C 0.45895 0.18285 0.984 0.0
C1026 C 0.45471 0.19291 0.00622 0.0
H1027 H 0.4514 0.17369 0.10633 0.0
H1028 H 0.45262 0.16734 0.07146 0.0
H1029 H 0.47866 0.18285 0.09083 0.0
H1030 H 0.49632 0.19596 0.04789 0.0
H1031 H 0.50273 0.17716 0.00993 0.0
loop_
_geom_bond_atom_site_label_1
_geom_bond_atom_site_label_2
_geom_bond_distance
_geom_bond_site_symmetry_2
_ccdc_geom_bond_type
C0 O1 1.306 . S
C0 O3 1.160 . S
O1 C0 1.306 . S
O1 Cd2 2.228 . S
Cd2 O1 2.228 . S
Cd2 O6 2.273 . S
Cd2 O10 2.277 . S
O3 C0 1.160 . S
O3 Cd4 2.203 . S
Cd4 O3 2.203 . S
Cd4 O6 2.411 . S
Cd4 O7 2.333 . S
Cd4 O8 2.352 . S
Cd4 O12 2.277 . S
Cd4 O13 2.356 . S
C5 O10 1.209 . S
C5 O12 1.226 . S
O6 Cd2 2.273 . S
O6 Cd4 2.411 . S
O6 C9 1.320 . S
O7 Cd4 2.333 . S
O7 C9 1.214 . S
O8 Cd4 2.352 . S
O8 C11 1.258 . S
C9 O6 1.320 . S
C9 O7 1.214 . S
O10 Cd2 2.277 . S
O10 C5 1.209 . S
C11 O8 1.258 . S
C11 O13 1.282 . S
O12 Cd4 2.277 . S
O12 C5 1.226 . S
O13 Cd4 2.356 . S
O13 C11 1.282 . S
C14 O15 1.306 . S
C14 O17 1.160 . S
O15 C14 1.306 . S
O15 Cd16 2.228 . S
Cd16 O15 2.228 . S
Cd16 O20 2.273 . S
Cd16 O24 2.277 . S
O17 C14 1.160 . S
O17 Cd18 2.203 . S
Cd18 O17 2.203 . S
Cd18 O20 2.411 . S
Cd18 O21 2.333 . S
Cd18 O22 2.352 . S
Cd18 O26 2.277 . S
Cd18 O27 2.356 . S
C19 O24 1.209 . S
C19 O26 1.226 . S
O20 Cd16 2.273 . S
O20 Cd18 2.411 . S
O20 C23 1.320 . S
O21 Cd18 2.333 . S
O21 C23 1.214 . S
O22 Cd18 2.352 . S
O22 C25 1.258 . S
C23 O20 1.320 . S
C23 O21 1.214 . S
O24 Cd16 2.277 . S
O24 C19 1.209 . S
C25 O22 1.258 . S
C25 O27 1.282 . S
O26 Cd18 2.277 . S
O26 C19 1.226 . S
O27 Cd18 2.356 . S
O27 C25 1.282 . S
C28 O29 1.306 . S
C28 O31 1.160 . S
O29 C28 1.306 . S
O29 Cd30 2.228 . S
Cd30 O29 2.228 . S
Cd30 O34 2.273 . S
Cd30 O38 2.277 . S
O31 C28 1.160 . S
O31 Cd32 2.203 . S
Cd32 O31 2.203 . S
Cd32 O34 2.411 . S
Cd32 O35 2.333 . S
Cd32 O36 2.352 . S
Cd32 O40 2.277 . S
Cd32 O41 2.356 . S
C33 O38 1.209 . S
C33 O40 1.226 . S
O34 Cd30 2.273 . S
O34 Cd32 2.411 . S
O34 C37 1.320 . S
O35 Cd32 2.333 . S
O35 C37 1.214 . S
O36 Cd32 2.352 . S
O36 C39 1.258 . S
C37 O34 1.320 . S
C37 O35 1.214 . S
O38 Cd30 2.277 . S
O38 C33 1.209 . S
C39 O36 1.258 . S
C39 O41 1.282 . S
O40 Cd32 2.277 . S
O40 C33 1.226 . S
O41 Cd32 2.356 . S
O41 C39 1.282 . S
C42 O43 1.306 . S
C42 O45 1.160 . S
O43 C42 1.306 . S
O43 Cd44 2.228 . S
Cd44 O43 2.228 . S
Cd44 O48 2.273 . S
Cd44 O52 2.277 . S
O45 C42 1.160 . S
O45 Cd46 2.203 . S
Cd46 O45 2.203 . S
Cd46 O48 2.411 . S
Cd46 O49 2.333 . S
Cd46 O50 2.352 . S
Cd46 O54 2.277 . S
Cd46 O55 2.356 . S
C47 O52 1.209 . S
C47 O54 1.226 . S
O48 Cd44 2.273 . S
O48 Cd46 2.411 . S
O48 C51 1.320 . S
O49 Cd46 2.333 . S
O49 C51 1.214 . S
O50 Cd46 2.352 . S
O50 C53 1.258 . S
C51 O48 1.320 . S
C51 O49 1.214 . S
O52 Cd44 2.277 . S
O52 C47 1.209 . S
C53 O50 1.258 . S
C53 O55 1.282 . S
O54 Cd46 2.277 . S
O54 C47 1.226 . S
O55 Cd46 2.356 . S
O55 C53 1.282 . S
C56 O57 1.306 . S
C56 O59 1.160 . S
O57 C56 1.306 . S
O57 Cd58 2.228 . S
Cd58 O57 2.228 . S
Cd58 O62 2.273 . S
Cd58 O66 2.277 . S
O59 C56 1.160 . S
O59 Cd60 2.203 . S
Cd60 O59 2.203 . S
Cd60 O62 2.411 . S
Cd60 O63 2.333 . S
Cd60 O64 2.352 . S
Cd60 O68 2.277 . S
Cd60 O69 2.356 . S
C61 O66 1.209 . S
C61 O68 1.226 . S
O62 Cd58 2.273 . S
O62 Cd60 2.411 . S
O62 C65 1.320 . S
O63 Cd60 2.333 . S
O63 C65 1.214 . S
O64 Cd60 2.352 . S
O64 C67 1.258 . S
C65 O62 1.320 . S
C65 O63 1.214 . S
O66 Cd58 2.277 . S
O66 C61 1.209 . S
C67 O64 1.258 . S
C67 O69 1.282 . S
O68 Cd60 2.277 . S
O68 C61 1.226 . S
O69 Cd60 2.356 . S
O69 C67 1.282 . S
C70 O71 1.306 . S
C70 O73 1.160 . S
O71 C70 1.306 . S
O71 Cd72 2.228 . S
Cd72 O71 2.228 . S
Cd72 O76 2.273 . S
Cd72 O80 2.277 . S
O73 C70 1.160 . S
O73 Cd74 2.203 . S
Cd74 O73 2.203 . S
Cd74 O76 2.411 . S
Cd74 O77 2.333 . S
Cd74 O78 2.352 . S
Cd74 O82 2.277 . S
Cd74 O83 2.356 . S
C75 O80 1.209 . S
C75 O82 1.226 . S
O76 Cd72 2.273 . S
O76 Cd74 2.411 . S
O76 C79 1.320 . S
O77 Cd74 2.333 . S
O77 C79 1.214 . S
O78 Cd74 2.352 . S
O78 C81 1.258 . S
C79 O76 1.320 . S
C79 O77 1.214 . S
O80 Cd72 2.277 . S
O80 C75 1.209 . S
C81 O78 1.258 . S
C81 O83 1.282 . S
O82 Cd74 2.277 . S
O82 C75 1.226 . S
O83 Cd74 2.356 . S
O83 C81 1.282 . S
C84 O85 1.306 . S
C84 O87 1.160 . S
O85 C84 1.306 . S
O85 Cd86 2.228 . S
Cd86 O85 2.228 . S
Cd86 O90 2.273 . S
Cd86 O94 2.277 . S
O87 C84 1.160 . S
O87 Cd88 2.203 . S
Cd88 O87 2.203 . S
Cd88 O90 2.411 . S
Cd88 O91 2.333 . S
Cd88 O92 2.352 . S
Cd88 O96 2.277 . S
Cd88 O97 2.356 . S
C89 O94 1.209 . S
C89 O96 1.226 . S
O90 Cd86 2.273 . S
O90 Cd88 2.411 . S
O90 C93 1.320 . S
O91 Cd88 2.333 . S
O91 C93 1.214 . S
O92 Cd88 2.352 . S
O92 C95 1.258 . S
C93 O90 1.320 . S
C93 O91 1.214 . S
O94 Cd86 2.277 . S
O94 C89 1.209 . S
C95 O92 1.258 . S
C95 O97 1.282 . S
O96 Cd88 2.277 . S
O96 C89 1.226 . S
O97 Cd88 2.356 . S
O97 C95 1.282 . S
C98 O99 1.306 . S
C98 O101 1.160 . S
O99 C98 1.306 . S
O99 Cd100 2.228 . S
Cd100 O99 2.228 . S
Cd100 O104 2.273 . S
Cd100 O108 2.277 . S
O101 C98 1.160 . S
O101 Cd102 2.203 . S
Cd102 O101 2.203 . S
Cd102 O104 2.411 . S
Cd102 O105 2.333 . S
Cd102 O106 2.352 . S
Cd102 O110 2.277 . S
Cd102 O111 2.356 . S
C103 O108 1.209 . S
C103 O110 1.226 . S
O104 Cd100 2.273 . S
O104 Cd102 2.411 . S
O104 C107 1.320 . S
O105 Cd102 2.333 . S
O105 C107 1.214 . S
O106 Cd102 2.352 . S
O106 C109 1.258 . S
C107 O104 1.320 . S
C107 O105 1.214 . S
O108 Cd100 2.277 . S
O108 C103 1.209 . S
C109 O106 1.258 . S
C109 O111 1.282 . S
O110 Cd102 2.277 . S
O110 C103 1.226 . S
O111 Cd102 2.356 . S
O111 C109 1.282 . S
C112 O113 1.306 . S
C112 O115 1.160 . S
O113 C112 1.306 . S
O113 Cd114 2.228 . S
Cd114 O113 2.228 . S
Cd114 O118 2.273 . S
Cd114 O122 2.277 . S
O115 C112 1.160 . S
O115 Cd116 2.203 . S
Cd116 O115 2.203 . S
Cd116 O118 2.411 . S
Cd116 O119 2.333 . S
Cd116 O120 2.352 . S
Cd116 O124 2.277 . S
Cd116 O125 2.356 . S
C117 O122 1.209 . S
C117 O124 1.226 . S
O118 Cd114 2.273 . S
O118 Cd116 2.411 . S
O118 C121 1.320 . S
O119 Cd116 2.333 . S
O119 C121 1.214 . S
O120 Cd116 2.352 . S
O120 C123 1.258 . S
C121 O118 1.320 . S
C121 O119 1.214 . S
O122 Cd114 2.277 . S
O122 C117 1.209 . S
C123 O120 1.258 . S
C123 O125 1.282 . S
O124 Cd116 2.277 . S
O124 C117 1.226 . S
O125 Cd116 2.356 . S
O125 C123 1.282 . S
C126 O127 1.306 . S
C126 O129 1.160 . S
O127 C126 1.306 . S
O127 Cd128 2.228 . S
Cd128 O127 2.228 . S
Cd128 O132 2.273 . S
Cd128 O136 2.277 . S
O129 C126 1.160 . S
O129 Cd130 2.203 . S
Cd130 O129 2.203 . S
Cd130 O132 2.411 . S
Cd130 O133 2.333 . S
Cd130 O134 2.352 . S
Cd130 O138 2.277 . S
Cd130 O139 2.356 . S
C131 O136 1.209 . S
C131 O138 1.226 . S
O132 Cd128 2.273 . S
O132 Cd130 2.411 . S
O132 C135 1.320 . S
O133 Cd130 2.333 . S
O133 C135 1.214 . S
O134 Cd130 2.352 . S
O134 C137 1.258 . S
C135 O132 1.320 . S
C135 O133 1.214 . S
O136 Cd128 2.277 . S
O136 C131 1.209 . S
C137 O134 1.258 . S
C137 O139 1.282 . S
O138 Cd130 2.277 . S
O138 C131 1.226 . S
O139 Cd130 2.356 . S
O139 C137 1.282 . S
C140 O141 1.306 . S
C140 O143 1.160 . S
O141 C140 1.306 . S
O141 Cd142 2.228 . S
Cd142 O141 2.228 . S
Cd142 O146 2.273 . S
Cd142 O150 2.277 . S
O143 C140 1.160 . S
O143 Cd144 2.203 . S
Cd144 O143 2.203 . S
Cd144 O146 2.411 . S
Cd144 O147 2.333 . S
Cd144 O148 2.352 . S
Cd144 O152 2.277 . S
Cd144 O153 2.356 . S
C145 O150 1.209 . S
C145 O152 1.226 . S
O146 Cd142 2.273 . S
O146 Cd144 2.411 . S
O146 C149 1.320 . S
O147 Cd144 2.333 . S
O147 C149 1.214 . S
O148 Cd144 2.352 . S
O148 C151 1.258 . S
C149 O146 1.320 . S
C149 O147 1.214 . S
O150 Cd142 2.277 . S
O150 C145 1.209 . S
C151 O148 1.258 . S
C151 O153 1.282 . S
O152 Cd144 2.277 . S
O152 C145 1.226 . S
O153 Cd144 2.356 . S
O153 C151 1.282 . S
C154 O155 1.306 . S
C154 O157 1.160 . S
O155 C154 1.306 . S
O155 Cd156 2.228 . S
Cd156 O155 2.228 . S
Cd156 O160 2.273 . S
Cd156 O164 2.277 . S
O157 C154 1.160 . S
O157 Cd158 2.203 . S
Cd158 O157 2.203 . S
Cd158 O160 2.411 . S
Cd158 O161 2.333 . S
Cd158 O162 2.352 . S
Cd158 O166 2.277 . S
Cd158 O167 2.356 . S
C159 O164 1.209 . S
C159 O166 1.226 . S
O160 Cd156 2.273 . S
O160 Cd158 2.411 . S
O160 C163 1.320 . S
O161 Cd158 2.333 . S
O161 C163 1.214 . S
O162 Cd158 2.352 . S
O162 C165 1.258 . S
C163 O160 1.320 . S
C163 O161 1.214 . S
O164 Cd156 2.277 . S
O164 C159 1.209 . S
C165 O162 1.258 . S
C165 O167 1.282 . S
O166 Cd158 2.277 . S
O166 C159 1.226 . S
O167 Cd158 2.356 . S
O167 C165 1.282 . S
H168 C176 0.929 . S
H169 C178 0.930 . S
H170 C180 0.930 . S
H171 C183 0.929 . S
H172 C186 0.930 . S
H173 C188 0.960 . S
H174 C188 0.960 . S
H175 C188 0.960 . S
C176 H168 0.929 . S
C176 C177 1.377 . S
C176 C178 1.384 . S
C177 C176 1.377 . S
C177 C183 1.390 . S
C178 H169 0.930 . S
C178 C176 1.384 . S
C178 C179 1.372 . S
C179 C178 1.372 . S
C179 C180 1.400 . S
C179 C184 1.490 . S
C180 H170 0.930 . S
C180 C179 1.400 . S
C180 C183 1.386 . S
H181 C197 0.930 . S
H182 C198 0.931 . S
C183 H171 0.929 . S
C183 C177 1.390 . S
C183 C180 1.386 . S
C184 C179 1.490 . S
C184 C186 1.395 . S
C184 C187 1.403 . S
H185 C191 0.930 . S
C186 H172 0.930 . S
C186 C184 1.395 . S
C186 C189 1.403 . S
C187 C184 1.403 . S
C187 C188 1.524 . S
C187 C191 1.400 . S
C188 H173 0.960 . S
C188 H174 0.960 . S
C188 H175 0.960 . S
C188 C187 1.524 . S
C189 C186 1.403 . S
C189 C190 1.392 . S
C189 C193 1.495 . S
C190 C189 1.392 . S
C190 C191 1.385 . S
C190 C192 1.478 . S
C191 H185 0.930 . S
C191 C187 1.400 . S
C191 C190 1.385 . S
C192 C190 1.478 . S
C192 C194 1.381 . S
C192 C198 1.383 . S
C193 C189 1.495 . S
C193 H199 0.959 . S
C193 H200 0.961 . S
C193 H201 0.960 . S
C194 C192 1.381 . S
C194 C195 1.394 . S
C194 H202 0.930 . S
C195 C194 1.394 . S
C195 C196 1.383 . S
C195 H203 0.929 . S
C196 C195 1.383 . S
C196 C197 1.377 . S
C197 H181 0.930 . S
C197 C196 1.377 . S
C197 C198 1.379 . S
C198 H182 0.931 . S
C198 C192 1.383 . S
C198 C197 1.379 . S
H199 C193 0.959 . S
H200 C193 0.961 . S
H201 C193 0.960 . S
H202 C194 0.930 . S
H203 C195 0.929 . S
H204 C212 0.929 . S
H205 C214 0.930 . S
H206 C216 0.930 . S
H207 C219 0.929 . S
H208 C222 0.930 . S
H209 C224 0.960 . S
H210 C224 0.960 . S
H211 C224 0.960 . S
C212 H204 0.929 . S
C212 C213 1.377 . S
C212 C214 1.384 . S
C213 C212 1.377 . S
C213 C219 1.390 . S
C214 H205 0.930 . S
C214 C212 1.384 . S
C214 C215 1.372 . S
C215 C214 1.372 . S
C215 C216 1.400 . S
C215 C220 1.490 . S
C216 H206 0.930 . S
C216 C215 1.400 . S
C216 C219 1.386 . S
H217 C233 0.930 . S
H218 C234 0.931 . S
C219 H207 0.929 . S
C219 C213 1.390 . S
C219 C216 1.386 . S
C220 C215 1.490 . S
C220 C222 1.395 . S
C220 C223 1.403 . S
H221 C227 0.930 . S
C222 H208 0.930 . S
C222 C220 1.395 . S
C222 C225 1.403 . S
C223 C220 1.403 . S
C223 C224 1.524 . S
C223 C227 1.400 . S
C224 H209 0.960 . S
C224 H210 0.960 . S
C224 H211 0.960 . S
C224 C223 1.524 . S
C225 C222 1.403 . S
C225 C226 1.392 . S
C225 C229 1.495 . S
C226 C225 1.392 . S
C226 C227 1.385 . S
C226 C228 1.478 . S
C227 H221 0.930 . S
C227 C223 1.400 . S
C227 C226 1.385 . S
C228 C226 1.478 . S
C228 C230 1.381 . S
C228 C234 1.383 . S
C229 C225 1.495 . S
C229 H235 0.959 . S
C229 H236 0.961 . S
C229 H237 0.960 . S
C230 C228 1.381 . S
C230 C231 1.394 . S
C230 H238 0.930 . S
C231 C230 1.394 . S
C231 C232 1.383 . S
C231 H239 0.929 . S
C232 C231 1.383 . S
C232 C233 1.377 . S
C233 H217 0.930 . S
C233 C232 1.377 . S
C233 C234 1.379 . S
C234 H218 0.931 . S
C234 C228 1.383 . S
C234 C233 1.379 . S
H235 C229 0.959 . S
H236 C229 0.961 . S
H237 C229 0.960 . S
H238 C230 0.930 . S
H239 C231 0.929 . S
H240 C248 0.929 . S
H241 C250 0.930 . S
H242 C252 0.930 . S
H243 C255 0.929 . S
H244 C258 0.930 . S
H245 C260 0.960 . S
H246 C260 0.960 . S
H247 C260 0.960 . S
C248 H240 0.929 . S
C248 C249 1.377 . S
C248 C250 1.384 . S
C249 C248 1.377 . S
C249 C255 1.390 . S
C250 H241 0.930 . S
C250 C248 1.384 . S
C250 C251 1.372 . S
C251 C250 1.372 . S
C251 C252 1.400 . S
C251 C256 1.490 . S
C252 H242 0.930 . S
C252 C251 1.400 . S
C252 C255 1.386 . S
H253 C269 0.930 . S
H254 C270 0.931 . S
C255 H243 0.929 . S
C255 C249 1.390 . S
C255 C252 1.386 . S
C256 C251 1.490 . S
C256 C258 1.395 . S
C256 C259 1.403 . S
H257 C263 0.930 . S
C258 H244 0.930 . S
C258 C256 1.395 . S
C258 C261 1.403 . S
C259 C256 1.403 . S
C259 C260 1.524 . S
C259 C263 1.400 . S
C260 H245 0.960 . S
C260 H246 0.960 . S
C260 H247 0.960 . S
C260 C259 1.524 . S
C261 C258 1.403 . S
C261 C262 1.392 . S
C261 C265 1.495 . S
C262 C261 1.392 . S
C262 C263 1.385 . S
C262 C264 1.478 . S
C263 H257 0.930 . S
C263 C259 1.400 . S
C263 C262 1.385 . S
C264 C262 1.478 . S
C264 C266 1.381 . S
C264 C270 1.383 . S
C265 C261 1.495 . S
C265 H271 0.959 . S
C265 H272 0.961 . S
C265 H273 0.960 . S
C266 C264 1.381 . S
C266 C267 1.394 . S
C266 H274 0.930 . S
C267 C266 1.394 . S
C267 C268 1.383 . S
C267 H275 0.929 . S
C268 C267 1.383 . S
C268 C269 1.377 . S
C269 H253 0.930 . S
C269 C268 1.377 . S
C269 C270 1.379 . S
C270 H254 0.931 . S
C270 C264 1.383 . S
C270 C269 1.379 . S
H271 C265 0.959 . S
H272 C265 0.961 . S
H273 C265 0.960 . S
H274 C266 0.930 . S
H275 C267 0.929 . S
H276 C284 0.929 . S
H277 C286 0.930 . S
H278 C288 0.930 . S
H279 C291 0.929 . S
H280 C294 0.930 . S
H281 C296 0.960 . S
H282 C296 0.960 . S
H283 C296 0.960 . S
C284 H276 0.929 . S
C284 C285 1.377 . S
C284 C286 1.384 . S
C285 C284 1.377 . S
C285 C291 1.390 . S
C286 H277 0.930 . S
C286 C284 1.384 . S
C286 C287 1.372 . S
C287 C286 1.372 . S
C287 C288 1.400 . S
C287 C292 1.490 . S
C288 H278 0.930 . S
C288 C287 1.400 . S
C288 C291 1.386 . S
H289 C305 0.930 . S
H290 C306 0.931 . S
C291 H279 0.929 . S
C291 C285 1.390 . S
C291 C288 1.386 . S
C292 C287 1.490 . S
C292 C294 1.395 . S
C292 C295 1.403 . S
H293 C299 0.930 . S
C294 H280 0.930 . S
C294 C292 1.395 . S
C294 C297 1.403 . S
C295 C292 1.403 . S
C295 C296 1.524 . S
C295 C299 1.400 . S
C296 H281 0.960 . S
C296 H282 0.960 . S
C296 H283 0.960 . S
C296 C295 1.524 . S
C297 C294 1.403 . S
C297 C298 1.392 . S
C297 C301 1.495 . S
C298 C297 1.392 . S
C298 C299 1.385 . S
C298 C300 1.478 . S
C299 H293 0.930 . S
C299 C295 1.400 . S
C299 C298 1.385 . S
C300 C298 1.478 . S
C300 C302 1.381 . S
C300 C306 1.383 . S
C301 C297 1.495 . S
C301 H307 0.959 . S
C301 H308 0.961 . S
C301 H309 0.960 . S
C302 C300 1.381 . S
C302 C303 1.394 . S
C302 H310 0.930 . S
C303 C302 1.394 . S
C303 C304 1.383 . S
C303 H311 0.929 . S
C304 C303 1.383 . S
C304 C305 1.377 . S
C305 H289 0.930 . S
C305 C304 1.377 . S
C305 C306 1.379 . S
C306 H290 0.931 . S
C306 C300 1.383 . S
C306 C305 1.379 . S
H307 C301 0.959 . S
H308 C301 0.961 . S
H309 C301 0.960 . S
H310 C302 0.930 . S
H311 C303 0.929 . S
H312 C320 0.929 . S
H313 C322 0.930 . S
H314 C324 0.930 . S
H315 C327 0.929 . S
H316 C330 0.930 . S
H317 C332 0.960 . S
H318 C332 0.960 . S
H319 C332 0.960 . S
C320 H312 0.929 . S
C320 C321 1.377 . S
C320 C322 1.384 . S
C321 C320 1.377 . S
C321 C327 1.390 . S
C322 H313 0.930 . S
C322 C320 1.384 . S
C322 C323 1.372 . S
C323 C322 1.372 . S
C323 C324 1.400 . S
C323 C328 1.490 . S
C324 H314 0.930 . S
C324 C323 1.400 . S
C324 C327 1.386 . S
H325 C341 0.930 . S
H326 C342 0.931 . S
C327 H315 0.929 . S
C327 C321 1.390 . S
C327 C324 1.386 . S
C328 C323 1.490 . S
C328 C330 1.395 . S
C328 C331 1.403 . S
H329 C335 0.930 . S
C330 H316 0.930 . S
C330 C328 1.395 . S
C330 C333 1.403 . S
C331 C328 1.403 . S
C331 C332 1.524 . S
C331 C335 1.400 . S
C332 H317 0.960 . S
C332 H318 0.960 . S
C332 H319 0.960 . S
C332 C331 1.524 . S
C333 C330 1.403 . S
C333 C334 1.392 . S
C333 C337 1.495 . S
C334 C333 1.392 . S
C334 C335 1.385 . S
C334 C336 1.478 . S
C335 H329 0.930 . S
C335 C331 1.400 . S
C335 C334 1.385 . S
C336 C334 1.478 . S
C336 C338 1.381 . S
C336 C342 1.383 . S
C337 C333 1.495 . S
C337 H343 0.959 . S
C337 H344 0.961 . S
C337 H345 0.960 . S
C338 C336 1.381 . S
C338 C339 1.394 . S
C338 H346 0.930 . S
C339 C338 1.394 . S
C339 C340 1.383 . S
C339 H347 0.929 . S
C340 C339 1.383 . S
C340 C341 1.377 . S
C341 H325 0.930 . S
C341 C340 1.377 . S
C341 C342 1.379 . S
C342 H326 0.931 . S
C342 C336 1.383 . S
C342 C341 1.379 . S
H343 C337 0.959 . S
H344 C337 0.961 . S
H345 C337 0.960 . S
H346 C338 0.930 . S
H347 C339 0.929 . S
H348 C356 0.929 . S
H349 C358 0.930 . S
H350 C360 0.930 . S
H351 C363 0.929 . S
H352 C366 0.930 . S
H353 C368 0.960 . S
H354 C368 0.960 . S
H355 C368 0.960 . S
C356 H348 0.929 . S
C356 C357 1.377 . S
C356 C358 1.384 . S
C357 C356 1.377 . S
C357 C363 1.390 . S
C358 H349 0.930 . S
C358 C356 1.384 . S
C358 C359 1.372 . S
C359 C358 1.372 . S
C359 C360 1.400 . S
C359 C364 1.490 . S
C360 H350 0.930 . S
C360 C359 1.400 . S
C360 C363 1.386 . S
H361 C377 0.930 . S
H362 C378 0.931 . S
C363 H351 0.929 . S
C363 C357 1.390 . S
C363 C360 1.386 . S
C364 C359 1.490 . S
C364 C366 1.395 . S
C364 C367 1.403 . S
H365 C371 0.930 . S
C366 H352 0.930 . S
C366 C364 1.395 . S
C366 C369 1.403 . S
C367 C364 1.403 . S
C367 C368 1.524 . S
C367 C371 1.400 . S
C368 H353 0.960 . S
C368 H354 0.960 . S
C368 H355 0.960 . S
C368 C367 1.524 . S
C369 C366 1.403 . S
C369 C370 1.392 . S
C369 C373 1.495 . S
C370 C369 1.392 . S
C370 C371 1.385 . S
C370 C372 1.478 . S
C371 H365 0.930 . S
C371 C367 1.400 . S
C371 C370 1.385 . S
C372 C370 1.478 . S
C372 C374 1.381 . S
C372 C378 1.383 . S
C373 C369 1.495 . S
C373 H379 0.959 . S
C373 H380 0.961 . S
C373 H381 0.960 . S
C374 C372 1.381 . S
C374 C375 1.394 . S
C374 H382 0.930 . S
C375 C374 1.394 . S
C375 C376 1.383 . S
C375 H383 0.929 . S
C376 C375 1.383 . S
C376 C377 1.377 . S
C377 H361 0.930 . S
C377 C376 1.377 . S
C377 C378 1.379 . S
C378 H362 0.931 . S
C378 C372 1.383 . S
C378 C377 1.379 . S
H379 C373 0.959 . S
H380 C373 0.961 . S
H381 C373 0.960 . S
H382 C374 0.930 . S
H383 C375 0.929 . S
H384 C392 0.929 . S
H385 C394 0.930 . S
H386 C396 0.930 . S
H387 C399 0.929 . S
H388 C402 0.930 . S
H389 C404 0.960 . S
H390 C404 0.960 . S
H391 C404 0.960 . S
C392 H384 0.929 . S
C392 C393 1.377 . S
C392 C394 1.384 . S
C393 C392 1.377 . S
C393 C399 1.390 . S
C394 H385 0.930 . S
C394 C392 1.384 . S
C394 C395 1.372 . S
C395 C394 1.372 . S
C395 C396 1.400 . S
C395 C400 1.490 . S
C396 H386 0.930 . S
C396 C395 1.400 . S
C396 C399 1.386 . S
H397 C413 0.930 . S
H398 C414 0.931 . S
C399 H387 0.929 . S
C399 C393 1.390 . S
C399 C396 1.386 . S
C400 C395 1.490 . S
C400 C402 1.395 . S
C400 C403 1.403 . S
H401 C407 0.930 . S
C402 H388 0.930 . S
C402 C400 1.395 . S
C402 C405 1.403 . S
C403 C400 1.403 . S
C403 C404 1.524 . S
C403 C407 1.400 . S
C404 H389 0.960 . S
C404 H390 0.960 . S
C404 H391 0.960 . S
C404 C403 1.524 . S
C405 C402 1.403 . S
C405 C406 1.392 . S
C405 C409 1.495 . S
C406 C405 1.392 . S
C406 C407 1.385 . S
C406 C408 1.478 . S
C407 H401 0.930 . S
C407 C403 1.400 . S
C407 C406 1.385 . S
C408 C406 1.478 . S
C408 C410 1.381 . S
C408 C414 1.383 . S
C409 C405 1.495 . S
C409 H415 0.959 . S
C409 H416 0.961 . S
C409 H417 0.960 . S
C410 C408 1.381 . S
C410 C411 1.394 . S
C410 H418 0.930 . S
C411 C410 1.394 . S
C411 C412 1.383 . S
C411 H419 0.929 . S
C412 C411 1.383 . S
C412 C413 1.377 . S
C413 H397 0.930 . S
C413 C412 1.377 . S
C413 C414 1.379 . S
C414 H398 0.931 . S
C414 C408 1.383 . S
C414 C413 1.379 . S
H415 C409 0.959 . S
H416 C409 0.961 . S
H417 C409 0.960 . S
H418 C410 0.930 . S
H419 C411 0.929 . S
H420 C428 0.929 . S
H421 C430 0.930 . S
H422 C432 0.930 . S
H423 C435 0.929 . S
H424 C438 0.930 . S
H425 C440 0.960 . S
H426 C440 0.960 . S
H427 C440 0.960 . S
C428 H420 0.929 . S
C428 C429 1.377 . S
C428 C430 1.384 . S
C429 C428 1.377 . S
C429 C435 1.390 . S
C430 H421 0.930 . S
C430 C428 1.384 . S
C430 C431 1.372 . S
C431 C430 1.372 . S
C431 C432 1.400 . S
C431 C436 1.490 . S
C432 H422 0.930 . S
C432 C431 1.400 . S
C432 C435 1.386 . S
H433 C449 0.930 . S
H434 C450 0.931 . S
C435 H423 0.929 . S
C435 C429 1.390 . S
C435 C432 1.386 . S
C436 C431 1.490 . S
C436 C438 1.395 . S
C436 C439 1.403 . S
H437 C443 0.930 . S
C438 H424 0.930 . S
C438 C436 1.395 . S
C438 C441 1.403 . S
C439 C436 1.403 . S
C439 C440 1.524 . S
C439 C443 1.400 . S
C440 H425 0.960 . S
C440 H426 0.960 . S
C440 H427 0.960 . S
C440 C439 1.524 . S
C441 C438 1.403 . S
C441 C442 1.392 . S
C441 C445 1.495 . S
C442 C441 1.392 . S
C442 C443 1.385 . S
C442 C444 1.478 . S
C443 H437 0.930 . S
C443 C439 1.400 . S
C443 C442 1.385 . S
C444 C442 1.478 . S
C444 C446 1.381 . S
C444 C450 1.383 . S
C445 C441 1.495 . S
C445 H451 0.959 . S
C445 H452 0.961 . S
C445 H453 0.960 . S
C446 C444 1.381 . S
C446 C447 1.394 . S
C446 H454 0.930 . S
C447 C446 1.394 . S
C447 C448 1.383 . S
C447 H455 0.929 . S
C448 C447 1.383 . S
C448 C449 1.377 . S
C449 H433 0.930 . S
C449 C448 1.377 . S
C449 C450 1.379 . S
C450 H434 0.931 . S
C450 C444 1.383 . S
C450 C449 1.379 . S
H451 C445 0.959 . S
H452 C445 0.961 . S
H453 C445 0.960 . S
H454 C446 0.930 . S
H455 C447 0.929 . S
H456 C464 0.929 . S
H457 C466 0.930 . S
H458 C468 0.930 . S
H459 C471 0.929 . S
H460 C474 0.930 . S
H461 C476 0.960 . S
H462 C476 0.960 . S
H463 C476 0.960 . S
C464 H456 0.929 . S
C464 C465 1.377 . S
C464 C466 1.384 1_554 S
C465 C464 1.377 . S
C465 C471 1.390 . S
C466 H457 0.930 . S
C466 C464 1.384 1_556 S
C466 C467 1.372 . S
C467 C466 1.372 . S
C467 C468 1.400 . S
C467 C472 1.490 . S
C468 H458 0.930 . S
C468 C467 1.400 . S
C468 C471 1.386 1_556 S
H469 C485 0.930 . S
H470 C486 0.931 . S
C471 H459 0.929 . S
C471 C465 1.390 . S
C471 C468 1.386 1_554 S
C472 C467 1.490 . S
C472 C474 1.395 . S
C472 C475 1.403 . S
H473 C479 0.930 . S
C474 H460 0.930 . S
C474 C472 1.395 . S
C474 C477 1.403 . S
C475 C472 1.403 . S
C475 C476 1.524 . S
C475 C479 1.400 . S
C476 H461 0.960 . S
C476 H462 0.960 . S
C476 H463 0.960 . S
C476 C475 1.524 . S
C477 C474 1.403 . S
C477 C478 1.392 . S
C477 C481 1.495 . S
C478 C477 1.392 . S
C478 C479 1.385 . S
C478 C480 1.478 . S
C479 H473 0.930 . S
C479 C475 1.400 . S
C479 C478 1.385 . S
C480 C478 1.478 . S
C480 C482 1.381 . S
C480 C486 1.383 . S
C481 C477 1.495 . S
C481 H487 0.959 . S
C481 H488 0.961 . S
C481 H489 0.960 . S
C482 C480 1.381 . S
C482 C483 1.394 . S
C482 H490 0.930 . S
C483 C482 1.394 . S
C483 C484 1.383 . S
C483 H491 0.929 . S
C484 C483 1.383 . S
C484 C485 1.377 . S
C485 H469 0.930 . S
C485 C484 1.377 . S
C485 C486 1.379 . S
C486 H470 0.931 . S
C486 C480 1.383 . S
C486 C485 1.379 . S
H487 C481 0.959 . S
H488 C481 0.961 . S
H489 C481 0.960 . S
H490 C482 0.930 . S
H491 C483 0.929 . S
H492 C500 0.929 . S
H493 C502 0.930 . S
H494 C504 0.930 . S
H495 C507 0.929 . S
H496 C510 0.930 . S
H497 C512 0.960 . S
H498 C512 0.960 . S
H499 C512 0.960 . S
C500 H492 0.929 . S
C500 C501 1.377 . S
C500 C502 1.384 . S
C501 C500 1.377 . S
C501 C507 1.390 . S
C502 H493 0.930 . S
C502 C500 1.384 . S
C502 C503 1.372 . S
C503 C502 1.372 . S
C503 C504 1.400 . S
C503 C508 1.490 . S
C504 H494 0.930 . S
C504 C503 1.400 . S
C504 C507 1.386 . S
H505 C521 0.930 . S
H506 C522 0.931 . S
C507 H495 0.929 . S
C507 C501 1.390 . S
C507 C504 1.386 . S
C508 C503 1.490 . S
C508 C510 1.395 . S
C508 C511 1.403 . S
H509 C515 0.930 . S
C510 H496 0.930 . S
C510 C508 1.395 . S
C510 C513 1.403 . S
C511 C508 1.403 . S
C511 C512 1.524 . S
C511 C515 1.400 . S
C512 H497 0.960 . S
C512 H498 0.960 . S
C512 H499 0.960 . S
C512 C511 1.524 . S
C513 C510 1.403 . S
C513 C514 1.392 . S
C513 C517 1.495 . S
C514 C513 1.392 . S
C514 C515 1.385 . S
C514 C516 1.478 . S
C515 H509 0.930 . S
C515 C511 1.400 . S
C515 C514 1.385 . S
C516 C514 1.478 . S
C516 C518 1.381 . S
C516 C522 1.383 . S
C517 C513 1.495 . S
C517 H523 0.959 . S
C517 H524 0.961 . S
C517 H525 0.960 . S
C518 C516 1.381 . S
C518 C519 1.394 1_554 S
C518 H526 0.930 . S
C519 C518 1.394 1_556 S
C519 C520 1.383 . S
C519 H527 0.929 . S
C520 C519 1.383 . S
C520 C521 1.377 . S
C521 H505 0.930 . S
C521 C520 1.377 . S
C521 C522 1.379 1_556 S
C522 H506 0.931 . S
C522 C516 1.383 . S
C522 C521 1.379 1_554 S
H523 C517 0.959 . S
H524 C517 0.961 . S
H525 C517 0.960 . S
H526 C518 0.930 . S
H527 C519 0.929 . S
H528 C536 0.929 . S
H529 C538 0.930 . S
H530 C540 0.930 . S
H531 C543 0.929 . S
H532 C546 0.930 . S
H533 C548 0.960 . S
H534 C548 0.960 . S
H535 C548 0.960 . S
C536 H528 0.929 . S
C536 C537 1.377 . S
C536 C538 1.384 . S
C537 C536 1.377 . S
C537 C543 1.390 . S
C538 H529 0.930 . S
C538 C536 1.384 . S
C538 C539 1.372 . S
C539 C538 1.372 . S
C539 C540 1.400 . S
C539 C544 1.490 . S
C540 H530 0.930 . S
C540 C539 1.400 . S
C540 C543 1.386 . S
H541 C557 0.930 . S
H542 C558 0.931 . S
C543 H531 0.929 . S
C543 C537 1.390 . S
C543 C540 1.386 . S
C544 C539 1.490 . S
C544 C546 1.395 . S
C544 C547 1.403 . S
H545 C551 0.930 . S
C546 H532 0.930 . S
C546 C544 1.395 . S
C546 C549 1.403 . S
C547 C544 1.403 . S
C547 C548 1.524 . S
C547 C551 1.400 . S
C548 H533 0.960 . S
C548 H534 0.960 . S
C548 H535 0.960 . S
C548 C547 1.524 . S
C549 C546 1.403 . S
C549 C550 1.392 . S
C549 C553 1.495 . S
C550 C549 1.392 . S
C550 C551 1.385 . S
C550 C552 1.478 . S
C551 H545 0.930 . S
C551 C547 1.400 . S
C551 C550 1.385 . S
C552 C550 1.478 . S
C552 C554 1.381 . S
C552 C558 1.383 . S
C553 C549 1.495 . S
C553 H559 0.959 . S
C553 H560 0.961 . S
C553 H561 0.960 . S
C554 C552 1.381 . S
C554 C555 1.394 . S
C554 H562 0.930 . S
C555 C554 1.394 . S
C555 C556 1.383 . S
C555 H563 0.929 . S
C556 C555 1.383 . S
C556 C557 1.377 . S
C557 H541 0.930 . S
C557 C556 1.377 . S
C557 C558 1.379 . S
C558 H542 0.931 . S
C558 C552 1.383 . S
C558 C557 1.379 . S
H559 C553 0.959 . S
H560 C553 0.961 . S
H561 C553 0.960 . S
H562 C554 0.930 . S
H563 C555 0.929 . S
H564 C572 0.929 . S
H565 C574 0.930 . S
H566 C576 0.930 . S
H567 C579 0.929 . S
H568 C582 0.930 . S
H569 C584 0.960 . S
H570 C584 0.960 . S
H571 C584 0.960 . S
C572 H564 0.929 . S
C572 C573 1.377 . S
C572 C574 1.384 . S
C573 C572 1.377 . S
C573 C579 1.390 . S
C574 H565 0.930 . S
C574 C572 1.384 . S
C574 C575 1.372 . S
C575 C574 1.372 . S
C575 C576 1.400 . S
C575 C580 1.490 . S
C576 H566 0.930 . S
C576 C575 1.400 . S
C576 C579 1.386 . S
H577 C593 0.930 . S
H578 C594 0.931 . S
C579 H567 0.929 . S
C579 C573 1.390 . S
C579 C576 1.386 . S
C580 C575 1.490 . S
C580 C582 1.395 . S
C580 C583 1.403 . S
H581 C587 0.930 . S
C582 H568 0.930 . S
C582 C580 1.395 . S
C582 C585 1.403 . S
C583 C580 1.403 . S
C583 C584 1.524 . S
C583 C587 1.400 . S
C584 H569 0.960 . S
C584 H570 0.960 . S
C584 H571 0.960 . S
C584 C583 1.524 . S
C585 C582 1.403 . S
C585 C586 1.392 . S
C585 C589 1.495 . S
C586 C585 1.392 . S
C586 C587 1.385 . S
C586 C588 1.478 . S
C587 H581 0.930 . S
C587 C583 1.400 . S
C587 C586 1.385 . S
C588 C586 1.478 . S
C588 C590 1.381 . S
C588 C594 1.383 . S
C589 C585 1.495 . S
C589 H595 0.959 . S
C589 H596 0.961 . S
C589 H597 0.960 . S
C590 C588 1.381 . S
C590 C591 1.394 . S
C590 H598 0.930 . S
C591 C590 1.394 . S
C591 C592 1.383 . S
C591 H599 0.929 . S
C592 C591 1.383 . S
C592 C593 1.377 . S
C593 H577 0.930 . S
C593 C592 1.377 . S
C593 C594 1.379 . S
C594 H578 0.931 . S
C594 C588 1.383 . S
C594 C593 1.379 . S
H595 C589 0.959 . S
H596 C589 0.961 . S
H597 C589 0.960 . S
H598 C590 0.930 . S
H599 C591 0.929 . S
H600 C608 0.929 . S
H601 C610 0.930 . S
H602 C612 0.930 . S
H603 C615 0.929 . S
H604 C618 0.930 . S
H605 C620 0.960 1_455 S
H606 C620 0.960 . S
H607 C620 0.960 . S
C608 H600 0.929 . S
C608 C609 1.377 . S
C608 C610 1.384 . S
C609 C608 1.377 . S
C609 C615 1.390 . S
C610 H601 0.930 . S
C610 C608 1.384 . S
C610 C611 1.372 . S
C611 C610 1.372 . S
C611 C612 1.400 . S
C611 C616 1.490 . S
C612 H602 0.930 . S
C612 C611 1.400 . S
C612 C615 1.386 . S
H613 C629 0.930 . S
H614 C630 0.931 . S
C615 H603 0.929 . S
C615 C609 1.390 . S
C615 C612 1.386 . S
C616 C611 1.490 . S
C616 C618 1.395 . S
C616 C619 1.403 . S
H617 C623 0.930 . S
C618 H604 0.930 . S
C618 C616 1.395 . S
C618 C621 1.403 1_655 S
C619 C616 1.403 . S
C619 C620 1.524 . S
C619 C623 1.400 1_655 S
C620 H605 0.960 1_655 S
C620 H606 0.960 . S
C620 H607 0.960 . S
C620 C619 1.524 . S
C621 C618 1.403 1_455 S
C621 C622 1.392 . S
C621 C625 1.495 . S
C622 C621 1.392 . S
C622 C623 1.385 . S
C622 C624 1.478 . S
C623 H617 0.930 . S
C623 C619 1.400 1_455 S
C623 C622 1.385 . S
C624 C622 1.478 . S
C624 C626 1.381 . S
C624 C630 1.383 . S
C625 C621 1.495 . S
C625 H631 0.959 1_455 S
C625 H632 0.961 . S
C625 H633 0.960 . S
C626 C624 1.381 . S
C626 C627 1.394 . S
C626 H634 0.930 . S
C627 C626 1.394 . S
C627 C628 1.383 . S
C627 H635 0.929 . S
C628 C627 1.383 . S
C628 C629 1.377 . S
C629 H613 0.930 . S
C629 C628 1.377 . S
C629 C630 1.379 . S
C630 H614 0.931 . S
C630 C624 1.383 . S
C630 C629 1.379 . S
H631 C625 0.959 1_655 S
H632 C625 0.961 . S
H633 C625 0.960 . S
H634 C626 0.930 . S
H635 C627 0.929 . S
H636 C644 0.929 . S
H637 C646 0.930 . S
H638 C648 0.930 . S
H639 C651 0.929 . S
H640 C654 0.930 . S
H641 C656 0.960 1_545 S
H642 C656 0.960 . S
H643 C656 0.960 . S
C644 H636 0.929 . S
C644 C645 1.377 . S
C644 C646 1.384 . S
C645 C644 1.377 . S
C645 C651 1.390 . S
C646 H637 0.930 . S
C646 C644 1.384 . S
C646 C647 1.372 . S
C647 C646 1.372 . S
C647 C648 1.400 . S
C647 C652 1.490 . S
C648 H638 0.930 . S
C648 C647 1.400 . S
C648 C651 1.386 . S
H649 C665 0.930 . S
H650 C666 0.931 . S
C651 H639 0.929 . S
C651 C645 1.390 . S
C651 C648 1.386 . S
C652 C647 1.490 . S
C652 C654 1.395 . S
C652 C655 1.403 . S
H653 C659 0.930 . S
C654 H640 0.930 . S
C654 C652 1.395 . S
C654 C657 1.403 1_565 S
C655 C652 1.403 . S
C655 C656 1.524 . S
C655 C659 1.400 1_565 S
C656 H641 0.960 1_565 S
C656 H642 0.960 . S
C656 H643 0.960 . S
C656 C655 1.524 . S
C657 C654 1.403 1_545 S
C657 C658 1.392 . S
C657 C661 1.495 . S
C658 C657 1.392 . S
C658 C659 1.385 . S
C658 C660 1.478 . S
C659 H653 0.930 . S
C659 C655 1.400 1_545 S
C659 C658 1.385 . S
C660 C658 1.478 . S
C660 C662 1.381 . S
C660 C666 1.383 . S
C661 C657 1.495 . S
C661 H667 0.959 1_545 S
C661 H668 0.961 . S
C661 H669 0.960 . S
C662 C660 1.381 . S
C662 C663 1.394 . S
C662 H670 0.930 . S
C663 C662 1.394 . S
C663 C664 1.383 . S
C663 H671 0.929 . S
C664 C663 1.383 . S
C664 C665 1.377 . S
C665 H649 0.930 . S
C665 C664 1.377 . S
C665 C666 1.379 . S
C666 H650 0.931 . S
C666 C660 1.383 . S
C666 C665 1.379 . S
H667 C661 0.959 1_565 S
H668 C661 0.961 . S
H669 C661 0.960 . S
H670 C662 0.930 . S
H671 C663 0.929 . S
H672 C680 0.929 . S
H673 C682 0.930 . S
H674 C684 0.930 . S
H675 C687 0.929 . S
H676 C690 0.930 . S
H677 C692 0.960 . S
H678 C692 0.960 . S
H679 C692 0.960 . S
C680 H672 0.929 . S
C680 C681 1.377 . S
C680 C682 1.384 . S
C681 C680 1.377 . S
C681 C687 1.390 . S
C682 H673 0.930 . S
C682 C680 1.384 . S
C682 C683 1.372 . S
C683 C682 1.372 . S
C683 C684 1.400 . S
C683 C688 1.490 . S
C684 H674 0.930 . S
C684 C683 1.400 . S
C684 C687 1.386 . S
H685 C701 0.930 . S
H686 C702 0.931 . S
C687 H675 0.929 . S
C687 C681 1.390 . S
C687 C684 1.386 . S
C688 C683 1.490 . S
C688 C690 1.395 . S
C688 C691 1.403 . S
H689 C695 0.930 . S
C690 H676 0.930 . S
C690 C688 1.395 . S
C690 C693 1.403 . S
C691 C688 1.403 . S
C691 C692 1.524 . S
C691 C695 1.400 . S
C692 H677 0.960 . S
C692 H678 0.960 . S
C692 H679 0.960 . S
C692 C691 1.524 . S
C693 C690 1.403 . S
C693 C694 1.392 . S
C693 C697 1.495 . S
C694 C693 1.392 . S
C694 C695 1.385 . S
C694 C696 1.478 . S
C695 H689 0.930 . S
C695 C691 1.400 . S
C695 C694 1.385 . S
C696 C694 1.478 . S
C696 C698 1.381 . S
C696 C702 1.383 . S
C697 C693 1.495 . S
C697 H703 0.959 . S
C697 H704 0.961 . S
C697 H705 0.960 . S
C698 C696 1.381 . S
C698 C699 1.394 . S
C698 H706 0.930 . S
C699 C698 1.394 . S
C699 C700 1.383 . S
C699 H707 0.929 . S
C700 C699 1.383 . S
C700 C701 1.377 . S
C701 H685 0.930 . S
C701 C700 1.377 . S
C701 C702 1.379 . S
C702 H686 0.931 . S
C702 C696 1.383 . S
C702 C701 1.379 . S
H703 C697 0.959 . S
H704 C697 0.961 . S
H705 C697 0.960 . S
H706 C698 0.930 . S
H707 C699 0.929 . S
H708 C716 0.929 . S
H709 C718 0.930 . S
H710 C720 0.930 . S
H711 C723 0.929 . S
H712 C726 0.930 . S
H713 C728 0.960 . S
H714 C728 0.960 . S
H715 C728 0.960 . S
C716 H708 0.929 . S
C716 C717 1.377 . S
C716 C718 1.384 . S
C717 C716 1.377 . S
C717 C723 1.390 . S
C718 H709 0.930 . S
C718 C716 1.384 . S
C718 C719 1.372 . S
C719 C718 1.372 . S
C719 C720 1.400 . S
C719 C724 1.490 . S
C720 H710 0.930 . S
C720 C719 1.400 . S
C720 C723 1.386 . S
H721 C737 0.930 . S
H722 C738 0.931 . S
C723 H711 0.929 . S
C723 C717 1.390 . S
C723 C720 1.386 . S
C724 C719 1.490 . S
C724 C726 1.395 . S
C724 C727 1.403 . S
H725 C731 0.930 . S
C726 H712 0.930 . S
C726 C724 1.395 . S
C726 C729 1.403 1_455 S
C727 C724 1.403 . S
C727 C728 1.524 . S
C727 C731 1.400 1_455 S
C728 H713 0.960 . S
C728 H714 0.960 . S
C728 H715 0.960 . S
C728 C727 1.524 . S
C729 C726 1.403 1_655 S
C729 C730 1.392 . S
C729 C733 1.495 . S
C730 C729 1.392 . S
C730 C731 1.385 . S
C730 C732 1.478 . S
C731 H725 0.930 . S
C731 C727 1.400 1_655 S
C731 C730 1.385 . S
C732 C730 1.478 . S
C732 C734 1.381 . S
C732 C738 1.383 . S
C733 C729 1.495 . S
C733 H739 0.959 . S
C733 H740 0.961 . S
C733 H741 0.960 . S
C734 C732 1.381 . S
C734 C735 1.394 . S
C734 H742 0.930 . S
C735 C734 1.394 . S
C735 C736 1.383 . S
C735 H743 0.929 . S
C736 C735 1.383 . S
C736 C737 1.377 . S
C737 H721 0.930 . S
C737 C736 1.377 . S
C737 C738 1.379 . S
C738 H722 0.931 . S
C738 C732 1.383 . S
C738 C737 1.379 . S
H739 C733 0.959 . S
H740 C733 0.961 . S
H741 C733 0.960 . S
H742 C734 0.930 . S
H743 C735 0.929 . S
H744 C752 0.929 . S
H745 C754 0.930 . S
H746 C756 0.930 . S
H747 C759 0.929 . S
H748 C762 0.930 . S
H749 C764 0.960 . S
H750 C764 0.960 . S
H751 C764 0.960 . S
C752 H744 0.929 . S
C752 C753 1.377 . S
C752 C754 1.384 . S
C753 C752 1.377 . S
C753 C759 1.390 . S
C754 H745 0.930 . S
C754 C752 1.384 . S
C754 C755 1.372 . S
C755 C754 1.372 . S
C755 C756 1.400 . S
C755 C760 1.490 . S
C756 H746 0.930 . S
C756 C755 1.400 . S
C756 C759 1.386 . S
H757 C773 0.930 . S
H758 C774 0.931 1_556 S
C759 H747 0.929 . S
C759 C753 1.390 . S
C759 C756 1.386 . S
C760 C755 1.490 . S
C760 C762 1.395 . S
C760 C763 1.403 1_556 S
H761 C767 0.930 . S
C762 H748 0.930 . S
C762 C760 1.395 . S
C762 C765 1.403 1_545 S
C763 C760 1.403 1_554 S
C763 C764 1.524 . S
C763 C767 1.400 1_545 S
C764 H749 0.960 . S
C764 H750 0.960 . S
C764 H751 0.960 . S
C764 C763 1.524 . S
C765 C762 1.403 1_565 S
C765 C766 1.392 1_556 S
C765 C769 1.495 . S
C766 C765 1.392 1_554 S
C766 C767 1.385 . S
C766 C768 1.478 . S
C767 H761 0.930 . S
C767 C763 1.400 1_565 S
C767 C766 1.385 . S
C768 C766 1.478 . S
C768 C770 1.381 . S
C768 C774 1.383 . S
C769 C765 1.495 . S
C769 H775 0.959 . S
C769 H776 0.961 . S
C769 H777 0.960 . S
C770 C768 1.381 . S
C770 C771 1.394 . S
C770 H778 0.930 . S
C771 C770 1.394 . S
C771 C772 1.383 . S
C771 H779 0.929 . S
C772 C771 1.383 . S
C772 C773 1.377 . S
C773 H757 0.930 . S
C773 C772 1.377 . S
C773 C774 1.379 . S
C774 H758 0.931 1_554 S
C774 C768 1.383 . S
C774 C773 1.379 . S
H775 C769 0.959 . S
H776 C769 0.961 . S
H777 C769 0.960 . S
H778 C770 0.930 . S
H779 C771 0.929 . S
H780 C788 0.929 . S
H781 C790 0.930 . S
H782 C792 0.930 . S
H783 C795 0.929 . S
H784 C798 0.930 . S
H785 C800 0.960 . S
H786 C800 0.960 . S
H787 C800 0.960 . S
C788 H780 0.929 . S
C788 C789 1.377 . S
C788 C790 1.384 . S
C789 C788 1.377 . S
C789 C795 1.390 . S
C790 H781 0.930 . S
C790 C788 1.384 . S
C790 C791 1.372 . S
C791 C790 1.372 . S
C791 C792 1.400 . S
C791 C796 1.490 . S
C792 H782 0.930 . S
C792 C791 1.400 . S
C792 C795 1.386 . S
H793 C809 0.930 . S
H794 C810 0.931 . S
C795 H783 0.929 . S
C795 C789 1.390 . S
C795 C792 1.386 . S
C796 C791 1.490 . S
C796 C798 1.395 . S
C796 C799 1.403 . S
H797 C803 0.930 . S
C798 H784 0.930 . S
C798 C796 1.395 . S
C798 C801 1.403 . S
C799 C796 1.403 . S
C799 C800 1.524 . S
C799 C803 1.400 . S
C800 H785 0.960 . S
C800 H786 0.960 . S
C800 H787 0.960 . S
C800 C799 1.524 . S
C801 C798 1.403 . S
C801 C802 1.392 . S
C801 C805 1.495 . S
C802 C801 1.392 . S
C802 C803 1.385 . S
C802 C804 1.478 . S
C803 H797 0.930 . S
C803 C799 1.400 . S
C803 C802 1.385 . S
C804 C802 1.478 . S
C804 C806 1.381 . S
C804 C810 1.383 . S
C805 C801 1.495 . S
C805 H811 0.959 . S
C805 H812 0.961 . S
C805 H813 0.960 . S
C806 C804 1.381 . S
C806 C807 1.394 . S
C806 H814 0.930 . S
C807 C806 1.394 . S
C807 C808 1.383 . S
C807 H815 0.929 . S
C808 C807 1.383 . S
C808 C809 1.377 . S
C809 H793 0.930 . S
C809 C808 1.377 . S
C809 C810 1.379 . S
C810 H794 0.931 . S
C810 C804 1.383 . S
C810 C809 1.379 . S
H811 C805 0.959 . S
H812 C805 0.961 . S
H813 C805 0.960 . S
H814 C806 0.930 . S
H815 C807 0.929 . S
H816 C824 0.929 . S
H817 C826 0.930 . S
H818 C828 0.930 . S
H819 C831 0.929 . S
H820 C834 0.930 . S
H821 C836 0.960 . S
H822 C836 0.960 . S
H823 C836 0.960 . S
C824 H816 0.929 . S
C824 C825 1.377 . S
C824 C826 1.384 . S
C825 C824 1.377 . S
C825 C831 1.390 . S
C826 H817 0.930 . S
C826 C824 1.384 . S
C826 C827 1.372 . S
C827 C826 1.372 . S
C827 C828 1.400 . S
C827 C832 1.490 . S
C828 H818 0.930 . S
C828 C827 1.400 . S
C828 C831 1.386 . S
H829 C845 0.930 . S
H830 C846 0.931 . S
C831 H819 0.929 . S
C831 C825 1.390 . S
C831 C828 1.386 . S
C832 C827 1.490 . S
C832 C834 1.395 . S
C832 C835 1.403 . S
H833 C839 0.930 . S
C834 H820 0.930 . S
C834 C832 1.395 . S
C834 C837 1.403 . S
C835 C832 1.403 . S
C835 C836 1.524 . S
C835 C839 1.400 . S
C836 H821 0.960 . S
C836 H822 0.960 . S
C836 H823 0.960 . S
C836 C835 1.524 . S
C837 C834 1.403 . S
C837 C838 1.392 . S
C837 C841 1.495 . S
C838 C837 1.392 . S
C838 C839 1.385 . S
C838 C840 1.478 . S
C839 H833 0.930 . S
C839 C835 1.400 . S
C839 C838 1.385 . S
C840 C838 1.478 . S
C840 C842 1.381 . S
C840 C846 1.383 . S
C841 C837 1.495 . S
C841 H847 0.959 . S
C841 H848 0.961 . S
C841 H849 0.960 . S
C842 C840 1.381 . S
C842 C843 1.394 . S
C842 H850 0.930 . S
C843 C842 1.394 . S
C843 C844 1.383 . S
C843 H851 0.929 . S
C844 C843 1.383 . S
C844 C845 1.377 . S
C845 H829 0.930 . S
C845 C844 1.377 . S
C845 C846 1.379 . S
C846 H830 0.931 . S
C846 C840 1.383 . S
C846 C845 1.379 . S
H847 C841 0.959 . S
H848 C841 0.961 . S
H849 C841 0.960 . S
H850 C842 0.930 . S
H851 C843 0.929 . S
H852 C860 0.929 . S
H853 C862 0.930 . S
H854 C864 0.930 . S
H855 C867 0.929 . S
H856 C870 0.930 . S
H857 C872 0.960 . S
H858 C872 0.960 . S
H859 C872 0.960 . S
C860 H852 0.929 . S
C860 C861 1.377 . S
C860 C862 1.384 . S
C861 C860 1.377 . S
C861 C867 1.390 . S
C862 H853 0.930 . S
C862 C860 1.384 . S
C862 C863 1.372 . S
C863 C862 1.372 . S
C863 C864 1.400 . S
C863 C868 1.490 . S
C864 H854 0.930 . S
C864 C863 1.400 . S
C864 C867 1.386 . S
H865 C881 0.930 . S
H866 C882 0.931 . S
C867 H855 0.929 . S
C867 C861 1.390 . S
C867 C864 1.386 . S
C868 C863 1.490 . S
C868 C870 1.395 . S
C868 C871 1.403 . S
H869 C875 0.930 . S
C870 H856 0.930 . S
C870 C868 1.395 . S
C870 C873 1.403 . S
C871 C868 1.403 . S
C871 C872 1.524 . S
C871 C875 1.400 . S
C872 H857 0.960 . S
C872 H858 0.960 . S
C872 H859 0.960 . S
C872 C871 1.524 . S
C873 C870 1.403 . S
C873 C874 1.392 . S
C873 C877 1.495 . S
C874 C873 1.392 . S
C874 C875 1.385 . S
C874 C876 1.478 . S
C875 H869 0.930 . S
C875 C871 1.400 . S
C875 C874 1.385 . S
C876 C874 1.478 . S
C876 C878 1.381 . S
C876 C882 1.383 . S
C877 C873 1.495 . S
C877 H883 0.959 . S
C877 H884 0.961 . S
C877 H885 0.960 . S
C878 C876 1.381 . S
C878 C879 1.394 . S
C878 H886 0.930 . S
C879 C878 1.394 . S
C879 C880 1.383 . S
C879 H887 0.929 . S
C880 C879 1.383 . S
C880 C881 1.377 . S
C881 H865 0.930 . S
C881 C880 1.377 . S
C881 C882 1.379 . S
C882 H866 0.931 . S
C882 C876 1.383 . S
C882 C881 1.379 . S
H883 C877 0.959 . S
H884 C877 0.961 . S
H885 C877 0.960 . S
H886 C878 0.930 . S
H887 C879 0.929 . S
H888 C896 0.929 . S
H889 C898 0.930 . S
H890 C900 0.930 . S
H891 C903 0.929 . S
H892 C906 0.930 . S
H893 C908 0.960 . S
H894 C908 0.960 . S
H895 C908 0.960 . S
C896 H888 0.929 . S
C896 C897 1.377 . S
C896 C898 1.384 . S
C897 C896 1.377 . S
C897 C903 1.390 . S
C898 H889 0.930 . S
C898 C896 1.384 . S
C898 C899 1.372 . S
C899 C898 1.372 . S
C899 C900 1.400 . S
C899 C904 1.490 . S
C900 H890 0.930 . S
C900 C899 1.400 . S
C900 C903 1.386 . S
H901 C917 0.930 . S
H902 C918 0.931 . S
C903 H891 0.929 . S
C903 C897 1.390 . S
C903 C900 1.386 . S
C904 C899 1.490 . S
C904 C906 1.395 . S
C904 C907 1.403 . S
H905 C911 0.930 . S
C906 H892 0.930 . S
C906 C904 1.395 . S
C906 C909 1.403 . S
C907 C904 1.403 . S
C907 C908 1.524 . S
C907 C911 1.400 . S
C908 H893 0.960 . S
C908 H894 0.960 . S
C908 H895 0.960 . S
C908 C907 1.524 . S
C909 C906 1.403 . S
C909 C910 1.392 . S
C909 C913 1.495 . S
C910 C909 1.392 . S
C910 C911 1.385 . S
C910 C912 1.478 . S
C911 H905 0.930 . S
C911 C907 1.400 . S
C911 C910 1.385 . S
C912 C910 1.478 . S
C912 C914 1.381 . S
C912 C918 1.383 . S
C913 C909 1.495 . S
C913 H919 0.959 . S
C913 H920 0.961 . S
C913 H921 0.960 . S
C914 C912 1.381 . S
C914 C915 1.394 . S
C914 H922 0.930 . S
C915 C914 1.394 . S
C915 C916 1.383 . S
C915 H923 0.929 . S
C916 C915 1.383 . S
C916 C917 1.377 . S
C917 H901 0.930 . S
C917 C916 1.377 . S
C917 C918 1.379 . S
C918 H902 0.931 . S
C918 C912 1.383 . S
C918 C917 1.379 . S
H919 C913 0.959 . S
H920 C913 0.961 . S
H921 C913 0.960 . S
H922 C914 0.930 . S
H923 C915 0.929 . S
H924 C932 0.929 . S
H925 C934 0.930 . S
H926 C936 0.930 . S
H927 C939 0.929 . S
H928 C942 0.930 . S
H929 C944 0.960 . S
H930 C944 0.960 . S
H931 C944 0.960 . S
C932 H924 0.929 . S
C932 C933 1.377 . S
C932 C934 1.384 . S
C933 C932 1.377 . S
C933 C939 1.390 . S
C934 H925 0.930 . S
C934 C932 1.384 . S
C934 C935 1.372 . S
C935 C934 1.372 . S
C935 C936 1.400 . S
C935 C940 1.490 . S
C936 H926 0.930 . S
C936 C935 1.400 . S
C936 C939 1.386 . S
H937 C953 0.930 . S
H938 C954 0.931 . S
C939 H927 0.929 . S
C939 C933 1.390 . S
C939 C936 1.386 . S
C940 C935 1.490 . S
C940 C942 1.395 . S
C940 C943 1.403 . S
H941 C947 0.930 . S
C942 H928 0.930 . S
C942 C940 1.395 . S
C942 C945 1.403 . S
C943 C940 1.403 . S
C943 C944 1.524 . S
C943 C947 1.400 . S
C944 H929 0.960 . S
C944 H930 0.960 . S
C944 H931 0.960 . S
C944 C943 1.524 . S
C945 C942 1.403 . S
C945 C946 1.392 . S
C945 C949 1.495 . S
C946 C945 1.392 . S
C946 C947 1.385 . S
C946 C948 1.478 . S
C947 H941 0.930 . S
C947 C943 1.400 . S
C947 C946 1.385 . S
C948 C946 1.478 . S
C948 C950 1.381 . S
C948 C954 1.383 . S
C949 C945 1.495 . S
C949 H955 0.959 . S
C949 H956 0.961 . S
C949 H957 0.960 . S
C950 C948 1.381 . S
C950 C951 1.394 . S
C950 H958 0.930 . S
C951 C950 1.394 . S
C951 C952 1.383 . S
C951 H959 0.929 . S
C952 C951 1.383 . S
C952 C953 1.377 . S
C953 H937 0.930 . S
C953 C952 1.377 . S
C953 C954 1.379 . S
C954 H938 0.931 . S
C954 C948 1.383 . S
C954 C953 1.379 . S
H955 C949 0.959 . S
H956 C949 0.961 . S
H957 C949 0.960 . S
H958 C950 0.930 . S
H959 C951 0.929 . S
H960 C968 0.929 . S
H961 C970 0.930 . S
H962 C972 0.930 . S
H963 C975 0.929 . S
H964 C978 0.930 . S
H965 C980 0.960 . S
H966 C980 0.960 . S
H967 C980 0.960 . S
C968 H960 0.929 . S
C968 C969 1.377 1_556 S
C968 C970 1.384 . S
C969 C968 1.377 1_554 S
C969 C975 1.390 . S
C970 H961 0.930 . S
C970 C968 1.384 . S
C970 C971 1.372 . S
C971 C970 1.372 . S
C971 C972 1.400 . S
C971 C976 1.490 . S
C972 H962 0.930 . S
C972 C971 1.400 . S
C972 C975 1.386 1_556 S
H973 C989 0.930 . S
H974 C990 0.931 . S
C975 H963 0.929 . S
C975 C969 1.390 . S
C975 C972 1.386 1_554 S
C976 C971 1.490 . S
C976 C978 1.395 . S
C976 C979 1.403 . S
H977 C983 0.930 . S
C978 H964 0.930 . S
C978 C976 1.395 . S
C978 C981 1.403 . S
C979 C976 1.403 . S
C979 C980 1.524 . S
C979 C983 1.400 . S
C980 H965 0.960 . S
C980 H966 0.960 . S
C980 H967 0.960 . S
C980 C979 1.524 . S
C981 C978 1.403 . S
C981 C982 1.392 . S
C981 C985 1.495 . S
C982 C981 1.392 . S
C982 C983 1.385 . S
C982 C984 1.478 . S
C983 H977 0.930 . S
C983 C979 1.400 . S
C983 C982 1.385 . S
C984 C982 1.478 . S
C984 C986 1.381 . S
C984 C990 1.383 . S
C985 C981 1.495 . S
C985 H991 0.959 . S
C985 H992 0.961 . S
C985 H993 0.960 . S
C986 C984 1.381 . S
C986 C987 1.394 . S
C986 H994 0.930 . S
C987 C986 1.394 . S
C987 C988 1.383 . S
C987 H995 0.929 . S
C988 C987 1.383 . S
C988 C989 1.377 . S
C989 H973 0.930 . S
C989 C988 1.377 . S
C989 C990 1.379 . S
C990 H974 0.931 . S
C990 C984 1.383 . S
C990 C989 1.379 . S
H991 C985 0.959 . S
H992 C985 0.961 . S
H993 C985 0.960 . S
H994 C986 0.930 . S
H995 C987 0.929 . S
H996 C1004 0.929 . S
H997 C1006 0.930 . S
H998 C1008 0.930 . S
H999 C1011 0.929 . S
H1000 C1014 0.930 . S
H1001 C1016 0.960 . S
H1002 C1016 0.960 . S
H1003 C1016 0.960 . S
C1004 H996 0.929 . S
C1004 C1005 1.377 . S
C1004 C1006 1.384 . S
C1005 C1004 1.377 . S
C1005 C1011 1.390 . S
C1006 H997 0.930 . S
C1006 C1004 1.384 . S
C1006 C1007 1.372 . S
C1007 C1006 1.372 . S
C1007 C1008 1.400 . S
C1007 C1012 1.490 . S
C1008 H998 0.930 . S
C1008 C1007 1.400 . S
C1008 C1011 1.386 . S
H1009 C1025 0.921 1_556 S
H1010 C1026 0.931 . S
C1011 H999 0.929 . S
C1011 C1005 1.390 . S
C1011 C1008 1.386 . S
C1012 C1007 1.490 . S
C1012 C1014 1.395 . S
C1012 C1015 1.403 . S
H1013 C1019 0.930 . S
C1014 H1000 0.930 . S
C1014 C1012 1.395 . S
C1014 C1017 1.403 . S
C1015 C1012 1.403 . S
C1015 C1016 1.524 . S
C1015 C1019 1.400 . S
C1016 H1001 0.960 . S
C1016 H1002 0.960 . S
C1016 H1003 0.960 . S
C1016 C1015 1.524 . S
C1017 C1014 1.403 . S
C1017 C1018 1.392 . S
C1017 C1021 1.495 . S
C1018 C1017 1.392 . S
C1018 C1019 1.385 . S
C1018 C1020 1.478 . S
C1019 H1013 0.930 . S
C1019 C1015 1.400 . S
C1019 C1018 1.385 . S
C1020 C1018 1.478 . S
C1020 C1022 1.381 . S
C1020 C1026 1.383 . S
C1021 C1017 1.495 . S
C1021 H1027 0.959 . S
C1021 H1028 0.961 . S
C1021 H1029 0.960 . S
C1022 C1020 1.381 . S
C1022 C1023 1.394 . S
C1022 H1030 0.930 . S
C1023 C1022 1.394 . S
C1023 C1024 1.383 1_554 S
C1023 H1031 0.929 1_554 S
C1024 C1023 1.383 1_556 S
C1024 C1025 1.377 1_556 S
C1025 H1009 0.921 1_554 S
C1025 C1024 1.377 1_554 S
C1025 C1026 1.379 . S
C1026 H1010 0.931 . S
C1026 C1020 1.383 . S
C1026 C1025 1.379 . S
H1027 C1021 0.959 . S
H1028 C1021 0.961 . S
H1029 C1021 0.960 . S
H1030 C1022 0.930 . S
H1031 C1023 0.929 1_556 S
C177 C5 0.545 . S
C196 C89 0.580 . S
C213 C19 0.536 . S
C232 C103 0.503 . S
C249 C117 0.531 . S
C268 C33 0.519 . S
C285 C47 0.537 . S
C304 C131 0.565 . S
C321 C61 0.539 . S
C340 C145 0.508 . S
C357 C159 0.532 . S
C376 C75 0.504 . S
C393 C121 1.322 . S
C412 C9 1.340 . S
C429 C23 1.308 . S
C448 C135 1.311 . S
C465 C149 1.322 . S
C484 C37 1.331 . S
C501 C163 1.308 . S
C520 C51 1.287 . S
C537 C65 1.309 . S
C556 C93 1.316 . S
C573 C79 1.308 . S
C592 C107 1.299 . S
C609 C165 1.293 . S
C628 C11 1.292 . S
C645 C95 1.293 . S
C664 C25 1.289 . S
C681 C39 1.293 . S
C700 C109 1.289 . S
C717 C123 1.294 . S
C736 C53 1.294 . S
C753 C137 1.294 . S
C772 C67 1.294 . S
C789 C151 1.293 . S
C808 C81 1.289 . S
C825 C0 1.453 . S
C844 C140 1.458 . S
C861 C154 1.454 . S
C880 C14 1.446 . S
C897 C28 1.446 . S
C916 C84 1.451 . S
C933 C42 1.447 . S
C952 C98 1.444 . S
C969 C56 1.450 . S
C988 C112 1.430 . S
C1005 C70 1.447 . S
C1024 C126 1.439 . S
