# Generated by pormake.
# Topology qtz-f, (3)-cn, num edge types: 1
# Building blocks:
#     Node 0, Type 0, BuildingBlock: OLANEW_clean_sbu_2, # of connection points: 3
#     Node 1, Type 0, BuildingBlock: OLANEW_clean_sbu_2, # of connection points: 3
#     Node 2, Type 0, BuildingBlock: OLANEW_clean_sbu_2, # of connection points: 3
#     Node 3, Type 0, BuildingBlock: OLANEW_clean_sbu_2, # of connection points: 3
#     Node 4, Type 0, BuildingBlock: OLANEW_clean_sbu_2, # of connection points: 3
#     Node 5, Type 0, BuildingBlock: OLANEW_clean_sbu_2, # of connection points: 3
#     Node 6, Type 0, BuildingBlock: OLANEW_clean_sbu_2, # of connection points: 3
#     Node 7, Type 0, BuildingBlock: OLANEW_clean_sbu_2, # of connection points: 3
#     Node 8, Type 0, BuildingBlock: OLANEW_clean_sbu_2, # of connection points: 3
#     Node 9, Type 0, BuildingBlock: OLANEW_clean_sbu_2, # of connection points: 3
#     Node 10, Type 0, BuildingBlock: OLANEW_clean_sbu_2, # of connection points: 3
#     Node 11, Type 0, BuildingBlock: OLANEW_clean_sbu_2, # of connection points: 3
#     Edge 12, Type (0, 0), BuildingBlock: ZUJKAS_clean_linker_0, # of connection points: 2
#     Edge 13, Type (0, 0), BuildingBlock: ZUJKAS_clean_linker_0, # of connection points: 2
#     Edge 14, Type (0, 0), BuildingBlock: ZUJKAS_clean_linker_0, # of connection points: 2
#     Edge 15, Type (0, 0), BuildingBlock: ZUJKAS_clean_linker_0, # of connection points: 2
#     Edge 16, Type (0, 0), BuildingBlock: ZUJKAS_clean_linker_0, # of connection points: 2
#     Edge 17, Type (0, 0), BuildingBlock: ZUJKAS_clean_linker_0, # of connection points: 2
#     Edge 18, Type (0, 0), BuildingBlock: ZUJKAS_clean_linker_0, # of connection points: 2
#     Edge 19, Type (0, 0), BuildingBlock: ZUJKAS_clean_linker_0, # of connection points: 2
#     Edge 20, Type (0, 0), BuildingBlock: ZUJKAS_clean_linker_0, # of connection points: 2
#     Edge 21, Type (0, 0), BuildingBlock: ZUJKAS_clean_linker_0, # of connection points: 2
#     Edge 22, Type (0, 0), BuildingBlock: ZUJKAS_clean_linker_0, # of connection points: 2
#     Edge 23, Type (0, 0), BuildingBlock: ZUJKAS_clean_linker_0, # of connection points: 2
#     Edge 24, Type (0, 0), BuildingBlock: ZUJKAS_clean_linker_0, # of connection points: 2
#     Edge 25, Type (0, 0), BuildingBlock: ZUJKAS_clean_linker_0, # of connection points: 2
#     Edge 26, Type (0, 0), BuildingBlock: ZUJKAS_clean_linker_0, # of connection points: 2
#     Edge 27, Type (0, 0), BuildingBlock: ZUJKAS_clean_linker_0, # of connection points: 2
#     Edge 28, Type (0, 0), BuildingBlock: ZUJKAS_clean_linker_0, # of connection points: 2
#     Edge 29, Type (0, 0), BuildingBlock: ZUJKAS_clean_linker_0, # of connection points: 2
# Relax obj value: 0.008
# Max RMSD: 0.030
# Mean RMSD: 0.030
data_MOF--net-qtz-f--node1-OLANEW_clean_sbu_2--edge1-ZUJKAS_clean_linker_0
_symmetry_space_group_name_H-M    P1
_symmetry_Int_Tables_number       1
_symmetry_cell_setting            triclinic
loop_
_symmetry_equiv_pos_as_xyz
'x, y, z'
_cell_length_a     96.401726
_cell_length_b     96.398939
_cell_length_c     29.487083
_cell_angle_alpha  90.117286
_cell_angle_beta   90.010105
_cell_angle_gamma 120.18721
loop_
_atom_site_label
_atom_site_type_symbol
_atom_site_fract_x
_atom_site_fract_y
_atom_site_fract_z
_atom_type_partial_charge
O0 O 0.12969 0.48325 0.13391 0.0
Cd1 Cd 0.123 0.45536 0.12425 0.0
O2 O 0.10747 0.47642 0.17162 0.0
Cd3 Cd 0.09623 0.45039 0.16504 0.0
O4 O 0.07348 0.42767 0.16402 0.0
C5 C 0.06649 0.42175 0.20147 0.0
O6 O 0.07384 0.42877 0.23943 0.0
C7 C 0.12077 0.48722 0.15537 0.0
C8 C 0.14954 0.4536 0.09431 0.0
O9 O 0.13971 0.45413 0.06605 0.0
O10 O 0.14676 0.45382 0.13674 0.0
O11 O 0.63963 0.13466 0.4715 0.0
Cd12 Cd 0.66051 0.12782 0.45803 0.0
O13 O 0.62358 0.11148 0.50412 0.0
Cd14 Cd 0.63803 0.10007 0.4946 0.0
O15 O 0.63766 0.07721 0.49339 0.0
C16 C 0.63653 0.07029 0.53097 0.0
O17 O 0.63701 0.07776 0.56876 0.0
C18 C 0.62649 0.12528 0.49135 0.0
C19 C 0.68853 0.15427 0.42568 0.0
O20 O 0.67766 0.14445 0.39834 0.0
O21 O 0.68618 0.15152 0.46832 0.0
O22 O 0.49941 0.64029 0.77875 0.0
Cd23 Cd 0.52721 0.66066 0.76238 0.0
O24 O 0.50512 0.63606 0.84776 0.0
Cd25 Cd 0.5311 0.64943 0.83791 0.0
O26 O 0.5533 0.64854 0.83571 0.0
C27 C 0.55874 0.64655 0.87289 0.0
O28 O 0.55153 0.6464 0.91086 0.0
C29 C 0.49482 0.63339 0.81699 0.0
C30 C 0.52928 0.68941 0.73558 0.0
O31 O 0.52731 0.6787 0.70635 0.0
O32 O 0.53037 0.68655 0.77747 0.0
O33 O 0.84862 0.50358 0.09911 0.0
Cd34 Cd 0.85681 0.53173 0.08615 0.0
O35 O 0.85157 0.50657 0.17309 0.0
Cd36 Cd 0.86503 0.53275 0.16897 0.0
O37 O 0.88834 0.55488 0.17075 0.0
C38 C 0.89546 0.55948 0.20875 0.0
O39 O 0.88802 0.55147 0.24542 0.0
C40 C 0.84718 0.49751 0.13831 0.0
C41 C 0.8305 0.5346 0.06033 0.0
O42 O 0.83924 0.53287 0.03066 0.0
O43 O 0.8343 0.53511 0.10221 0.0
O44 O 0.33799 0.85229 0.46521 0.0
Cd45 Cd 0.31773 0.85999 0.45223 0.0
O46 O 0.33983 0.85761 0.53826 0.0
Cd47 Cd 0.32715 0.871 0.5325 0.0
O48 O 0.32844 0.89429 0.52902 0.0
C49 C 0.33109 0.90142 0.49109 0.0
O50 O 0.33178 0.89404 0.45438 0.0
C51 C 0.3436 0.85211 0.50412 0.0
C52 C 0.28947 0.8342 0.41819 0.0
O53 O 0.30054 0.84404 0.39149 0.0
O54 O 0.29173 0.83664 0.46099 0.0
O55 O 0.47613 0.34432 0.79882 0.0
Cd56 Cd 0.44807 0.3237 0.78702 0.0
O57 O 0.47341 0.34538 0.8726 0.0
Cd58 Cd 0.44724 0.33194 0.86858 0.0
O59 O 0.42454 0.33184 0.8646 0.0
C60 C 0.42206 0.33791 0.82947 0.0
O61 O 0.43265 0.34288 0.7965 0.0
C62 C 0.48232 0.34968 0.8376 0.0
C63 C 0.44585 0.29519 0.75697 0.0
O64 O 0.44687 0.30576 0.72877 0.0
O65 O 0.44574 0.29804 0.7994 0.0
O66 O 0.49607 0.84996 0.56411 0.0
Cd67 Cd 0.52432 0.85752 0.57007 0.0
O68 O 0.49791 0.85652 0.49207 0.0
Cd69 Cd 0.52413 0.86955 0.49273 0.0
O70 O 0.54652 0.89261 0.49456 0.0
C71 C 0.55126 0.89998 0.53221 0.0
O72 O 0.54318 0.89291 0.56916 0.0
C73 C 0.48942 0.85047 0.52739 0.0
C74 C 0.52714 0.83134 0.59743 0.0
O75 O 0.52683 0.84107 0.62657 0.0
O76 O 0.52625 0.83409 0.55532 0.0
O77 O 0.63715 0.50367 0.89222 0.0
Cd78 Cd 0.65808 0.53189 0.89825 0.0
O79 O 0.63068 0.50605 0.8223 0.0
Cd80 Cd 0.64416 0.53226 0.82374 0.0
O81 O 0.64353 0.5546 0.82602 0.0
C82 C 0.64211 0.55997 0.86409 0.0
O83 O 0.64233 0.5526 0.90127 0.0
C84 C 0.62905 0.4973 0.85639 0.0
C85 C 0.68707 0.53451 0.92525 0.0
O86 O 0.67709 0.53422 0.95453 0.0
O87 O 0.68339 0.53372 0.88318 0.0
O88 O 0.12953 0.64657 0.19374 0.0
Cd89 Cd 0.12303 0.6678 0.20493 0.0
O90 O 0.10664 0.63064 0.15927 0.0
Cd91 Cd 0.09542 0.64533 0.16719 0.0
O92 O 0.0727 0.64518 0.17129 0.0
C93 C 0.06581 0.64308 0.20945 0.0
O94 O 0.07321 0.64242 0.24609 0.0
C95 C 0.12025 0.63343 0.17358 0.0
C96 C 0.14928 0.69542 0.24035 0.0
O97 O 0.14723 0.69322 0.19742 0.0
O98 O 0.13885 0.6846 0.26652 0.0
O99 O 0.47761 0.13567 0.5529 0.0
Cd100 Cd 0.44982 0.12881 0.56581 0.0
O101 O 0.47028 0.11331 0.51512 0.0
Cd102 Cd 0.44435 0.10199 0.52419 0.0
O103 O 0.42168 0.07918 0.52477 0.0
C104 C 0.41662 0.07182 0.48722 0.0
O105 O 0.42448 0.07886 0.44997 0.0
C106 C 0.48129 0.12669 0.53054 0.0
C107 C 0.44811 0.15517 0.59793 0.0
O108 O 0.4491 0.1454 0.62538 0.0
O109 O 0.44788 0.15243 0.55531 0.0
O110 O 0.33885 0.4812 0.89016 0.0
Cd111 Cd 0.31782 0.45345 0.90396 0.0
O112 O 0.34817 0.47468 0.83073 0.0
Cd113 Cd 0.33362 0.44873 0.83997 0.0
O114 O 0.33278 0.4257 0.84444 0.0
C115 C 0.33721 0.42115 0.80961 0.0
O116 O 0.34082 0.42984 0.77256 0.0
C117 C 0.34857 0.48534 0.85704 0.0
C118 C 0.28977 0.45194 0.93528 0.0
O119 O 0.30055 0.4531 0.96299 0.0
O120 O 0.29223 0.45142 0.89275 0.0
O121 O 0.84556 0.34379 0.21131 0.0
Cd122 Cd 0.85344 0.32353 0.22164 0.0
O123 O 0.85469 0.34939 0.14144 0.0
Cd124 Cd 0.86745 0.33606 0.14625 0.0
O125 O 0.89006 0.33605 0.15141 0.0
C126 C 0.89665 0.33792 0.19001 0.0
O127 O 0.88905 0.33859 0.22619 0.0
C128 C 0.84735 0.35134 0.17445 0.0
C129 C 0.82787 0.29504 0.25501 0.0
O130 O 0.83007 0.29755 0.21225 0.0
O131 O 0.83784 0.30597 0.28197 0.0
H132 H 0.28101 0.45244 0.02323 0.0
H133 H 0.25672 0.4518 0.05046 0.0
H134 H 0.24103 0.44989 0.91245 0.0
H135 H 0.26516 0.4503 0.8849 0.0
H136 H 0.24657 0.47362 0.0325 0.0
H137 H 0.20166 0.41268 0.97205 0.0
H138 H 0.22284 0.41946 0.97528 0.0
H139 H 0.21502 0.42549 0.92872 0.0
C140 C 0.27235 0.45178 0.99865 0.0
C141 C 0.27499 0.45135 0.95189 0.0
C142 C 0.25849 0.45143 0.01428 0.0
C143 C 0.24697 0.45056 0.98351 0.0
C144 C 0.2496 0.45021 0.93682 0.0
H145 H 0.15844 0.45265 1.00679 0.0
H146 H 0.18221 0.45202 0.98072 0.0
C147 C 0.26345 0.45054 0.92113 0.0
C148 C 0.23249 0.45059 1.00024 0.0
H149 H 0.19152 0.42901 0.99979 0.0
C150 C 0.23453 0.46383 0.02561 0.0
C151 C 0.2168 0.43781 0.99108 0.0
C152 C 0.21389 0.42298 0.96565 0.0
C153 C 0.22129 0.46478 0.04136 0.0
C154 C 0.20562 0.45203 0.03206 0.0
C155 C 0.20356 0.43877 1.00678 0.0
C156 C 0.19117 0.45226 0.04814 0.0
C157 C 0.22419 0.47958 0.06692 0.0
C158 C 0.18824 0.45237 0.0947 0.0
C159 C 0.17467 0.45273 0.10973 0.0
C160 C 0.16375 0.45292 0.07843 0.0
C161 C 0.16663 0.45257 0.03178 0.0
C162 C 0.18019 0.45219 0.01681 0.0
H163 H 0.23656 0.48978 0.06164 0.0
H164 H 0.21551 0.48334 0.05635 0.0
H165 H 0.22256 0.47689 0.10374 0.0
H166 H 0.19642 0.45212 0.11944 0.0
H167 H 0.17277 0.45291 0.14588 0.0
H168 H 0.71343 0.17748 0.47519 0.0
H169 H 0.73755 0.20113 0.44676 0.0
H170 H 0.72114 0.18692 0.30936 0.0
H171 H 0.69703 0.16314 0.3374 0.0
H172 H 0.75384 0.19635 0.3238 0.0
H173 H 0.73914 0.24118 0.39216 0.0
H174 H 0.73869 0.2272 0.43314 0.0
H175 H 0.7244 0.22011 0.38744 0.0
C176 C 0.71493 0.17938 0.43892 0.0
C177 C 0.70327 0.16846 0.40856 0.0
C178 C 0.72869 0.19294 0.42276 0.0
C179 C 0.731 0.19588 0.37601 0.0
C180 C 0.71953 0.18489 0.34559 0.0
H181 H 0.80423 0.27015 0.20652 0.0
H182 H 0.78108 0.24584 0.23603 0.0
C183 C 0.70576 0.17133 0.36169 0.0
C184 C 0.74545 0.21036 0.35877 0.0
H185 H 0.76487 0.25131 0.35949 0.0
C186 C 0.75625 0.20838 0.33145 0.0
C187 C 0.74854 0.22601 0.36893 0.0
C188 C 0.73704 0.22883 0.39669 0.0
C189 C 0.77022 0.22166 0.31453 0.0
C190 C 0.77329 0.23732 0.32454 0.0
C191 C 0.7625 0.23929 0.35196 0.0
C192 C 0.78754 0.25185 0.30658 0.0
C193 C 0.78174 0.21883 0.28686 0.0
C194 C 0.79867 0.26346 0.33647 0.0
C195 C 0.81186 0.27742 0.31973 0.0
C196 C 0.81411 0.28008 0.27274 0.0
C197 C 0.80291 0.26843 0.24288 0.0
C198 C 0.78971 0.25448 0.25967 0.0
H199 H 0.77993 0.20664 0.29258 0.0
H200 H 0.77971 0.2199 0.2503 0.0
H201 H 0.79438 0.22784 0.29506 0.0
H202 H 0.79716 0.2617 0.37281 0.0
H203 H 0.82024 0.28617 0.34365 0.0
H204 H 0.52684 0.80796 0.54399 0.0
H205 H 0.52778 0.78421 0.56845 0.0
H206 H 0.53111 0.79914 0.70791 0.0
H207 H 0.52993 0.82279 0.68388 0.0
H208 H 0.55131 0.78198 0.61781 0.0
H209 H 0.4932 0.75317 0.70977 0.0
H210 H 0.49897 0.76966 0.67106 0.0
H211 H 0.50702 0.77334 0.72765 0.0
C212 C 0.52776 0.8062 0.57988 0.0
C213 C 0.5282 0.81722 0.61202 0.0
C214 C 0.52831 0.79262 0.59378 0.0
C215 C 0.52925 0.78978 0.64002 0.0
C216 C 0.53003 0.80092 0.67212 0.0
H217 H 0.53234 0.71387 0.78975 0.0
H218 H 0.53308 0.73857 0.76628 0.0
C219 C 0.52945 0.81448 0.65828 0.0
C220 C 0.52953 0.77522 0.65458 0.0
H221 H 0.50923 0.74105 0.7175 0.0
C222 C 0.54209 0.77299 0.63948 0.0
C223 C 0.51748 0.76353 0.68286 0.0
C224 C 0.50331 0.76492 0.6985 0.0
C225 C 0.54305 0.75949 0.65247 0.0
C226 C 0.531 0.74782 0.68074 0.0
C227 C 0.51847 0.75006 0.69593 0.0
C228 C 0.53104 0.73308 0.69458 0.0
C229 C 0.5571 0.75798 0.63651 0.0
C230 C 0.52952 0.72175 0.66204 0.0
C231 C 0.52908 0.70762 0.67531 0.0
C232 C 0.53008 0.70452 0.72143 0.0
C233 C 0.53159 0.7159 0.75395 0.0
C234 C 0.532 0.73002 0.74063 0.0
H235 H 0.56722 0.76967 0.62496 0.0
H236 H 0.56146 0.75323 0.66389 0.0
H237 H 0.55325 0.74947 0.60752 0.0
H238 H 0.52845 0.72374 0.62639 0.0
H239 H 0.52783 0.69908 0.64943 0.0
H240 H 0.71011 0.53437 0.87143 0.0
H241 H 0.73474 0.53506 0.89553 0.0
H242 H 0.72316 0.53774 0.03533 0.0
H243 H 0.6984 0.53684 1.01164 0.0
H244 H 0.7607 0.55829 0.946 0.0
H245 H 0.73069 0.49958 0.03472 0.0
H246 H 0.72013 0.50566 0.99642 0.0
H247 H 0.72448 0.51336 0.0534 0.0
C248 C 0.71279 0.5351 0.90732 0.0
C249 C 0.70224 0.53545 0.93964 0.0
C250 C 0.72687 0.5355 0.92101 0.0
C251 C 0.73064 0.53619 0.96723 0.0
C252 C 0.72031 0.53687 0.99953 0.0
H253 H 0.80917 0.53739 0.11535 0.0
H254 H 0.78538 0.53859 0.09261 0.0
C255 C 0.70621 0.53644 0.9859 0.0
C256 C 0.74543 0.53629 0.98156 0.0
H257 H 0.75893 0.51538 0.04276 0.0
C258 C 0.76033 0.5489 0.96704 0.0
C259 C 0.74489 0.52401 1.00903 0.0
C260 C 0.7292 0.5098 0.02402 0.0
C261 C 0.77474 0.54968 0.97981 0.0
C262 C 0.77419 0.53739 1.00722 0.0
C263 C 0.7593 0.52481 0.02185 0.0
C264 C 0.78891 0.53721 0.02066 0.0
C265 C 0.79044 0.56379 0.96453 0.0
C266 C 0.79871 0.53591 0.98773 0.0
C267 C 0.81231 0.53522 1.00058 0.0
C268 C 0.81631 0.53573 0.04666 0.0
C269 C 0.80646 0.53702 0.07957 0.0
C270 C 0.79285 0.53769 0.06667 0.0
H271 H 0.78901 0.57406 0.95395 0.0
H272 H 0.79957 0.56787 0.99194 0.0
H273 H 0.79502 0.56014 0.93502 0.0
H274 H 0.7957 0.5352 0.95208 0.0
H275 H 0.81959 0.53415 0.97439 0.0
H276 H 0.17376 0.72005 0.19363 0.0
H277 H 0.19729 0.74372 0.22488 0.0
H278 H 0.1801 0.7275 0.36045 0.0
H279 H 0.15664 0.70369 0.32959 0.0
H280 H 0.19883 0.7678 0.28148 0.0
H281 H 0.22593 0.73532 0.36425 0.0
H282 H 0.21009 0.72599 0.32266 0.0
H283 H 0.2055 0.72838 0.38022 0.0
C284 C 0.17499 0.72149 0.23011 0.0
C285 C 0.16336 0.70993 0.25914 0.0
C286 C 0.18844 0.73503 0.24789 0.0
C287 C 0.19056 0.73723 0.29496 0.0
C288 C 0.17886 0.72586 0.32402 0.0
H289 H 0.26425 0.81086 0.46613 0.0
H290 H 0.23994 0.78772 0.43607 0.0
C291 C 0.16541 0.7123 0.3063 0.0
C292 C 0.20493 0.75153 0.31359 0.0
H293 H 0.23805 0.76315 0.37986 0.0
C294 C 0.20745 0.76681 0.30286 0.0
C295 C 0.21612 0.75017 0.3415 0.0
C296 C 0.2144 0.7341 0.35258 0.0
C297 C 0.22076 0.78078 0.31987 0.0
C298 C 0.23195 0.77941 0.34775 0.0
C299 C 0.22941 0.76414 0.35857 0.0
C300 C 0.2465 0.79369 0.36568 0.0
C301 C 0.22258 0.79687 0.30857 0.0
C302 C 0.25829 0.80464 0.33603 0.0
C303 C 0.2722 0.81787 0.35306 0.0
C304 C 0.2746 0.82035 0.40011 0.0
C305 C 0.26276 0.80933 0.42973 0.0
C306 C 0.24887 0.79609 0.41264 0.0
H307 H 0.21108 0.79571 0.29687 0.0
H308 H 0.22696 0.80503 0.3384 0.0
H309 H 0.23149 0.80251 0.2809 0.0
H310 H 0.25684 0.80283 0.29968 0.0
H311 H 0.28112 0.82608 0.32934 0.0
H312 H 0.44538 0.28555 0.66939 0.0
H313 H 0.44491 0.26123 0.6432 0.0
H314 H 0.44419 0.24672 0.78181 0.0
H315 H 0.44479 0.27109 0.80841 0.0
H316 H 0.46721 0.24498 0.72658 0.0
H317 H 0.40701 0.21482 0.64559 0.0
H318 H 0.42007 0.2351 0.62738 0.0
H319 H 0.41333 0.23122 0.68521 0.0
C320 C 0.44502 0.27715 0.69435 0.0
C321 C 0.44508 0.28024 0.74101 0.0
C322 C 0.44466 0.26321 0.67929 0.0
C323 C 0.44429 0.25208 0.71057 0.0
C324 C 0.44438 0.25513 0.75714 0.0
H325 H 0.44764 0.16374 0.68618 0.0
H326 H 0.44662 0.18712 0.71408 0.0
C327 C 0.44471 0.26905 0.77225 0.0
C328 C 0.44444 0.23756 0.69471 0.0
H329 H 0.42336 0.20327 0.63232 0.0
C330 C 0.45759 0.23579 0.70621 0.0
C331 C 0.43188 0.22566 0.66802 0.0
C332 C 0.41719 0.22666 0.65608 0.0
C333 C 0.45869 0.22258 0.69093 0.0
C334 C 0.44615 0.21068 0.66417 0.0
C335 C 0.43296 0.21243 0.65281 0.0
C336 C 0.44652 0.19638 0.64736 0.0
C337 C 0.47348 0.2217 0.70257 0.0
C338 C 0.44636 0.19359 0.60059 0.0
C339 C 0.44682 0.18017 0.5845 0.0
C340 C 0.44739 0.16925 0.61495 0.0
C341 C 0.44732 0.17197 0.66182 0.0
C342 C 0.44683 0.18538 0.67785 0.0
H343 H 0.48363 0.23358 0.71294 0.0
H344 H 0.47072 0.21329 0.7313 0.0
H345 H 0.47735 0.21719 0.67334 0.0
H346 H 0.44604 0.2019 0.5765 0.0
H347 H 0.44682 0.17842 0.54821 0.0
H348 H 0.10269 0.60395 0.13427 0.0
H349 H 0.10894 0.58245 0.13083 0.0
H350 H 0.15436 0.61286 0.19669 0.0
H351 H 0.14805 0.63451 0.20117 0.0
H352 H 0.13403 0.58055 0.09153 0.0
H353 H 0.13318 0.57344 0.27907 0.0
H354 H 0.12586 0.58527 0.25193 0.0
H355 H 0.14706 0.59299 0.25717 0.0
C356 C 0.11406 0.60616 0.14789 0.0
C357 C 0.1248 0.62093 0.16843 0.0
C358 C 0.11764 0.59384 0.14575 0.0
C359 C 0.13201 0.59597 0.16404 0.0
C360 C 0.14306 0.61087 0.1831 0.0
H361 H 0.14771 0.51386 0.12269 0.0
H362 H 0.15387 0.54182 0.12604 0.0
C363 C 0.13947 0.62325 0.18542 0.0
C364 C 0.13486 0.58223 0.16435 0.0
H365 H 0.13607 0.55481 0.23488 0.0
C366 C 0.13474 0.57503 0.12281 0.0
C367 C 0.13568 0.57504 0.2053 0.0
C368 C 0.13534 0.58196 0.25099 0.0
C369 C 0.13466 0.56043 0.12109 0.0
C370 C 0.135 0.55301 0.16209 0.0
C371 C 0.13589 0.5606 0.20355 0.0
C372 C 0.13234 0.53647 0.16294 0.0
C373 C 0.13321 0.55261 0.07559 0.0
C374 C 0.11851 0.52431 0.18393 0.0
C375 C 0.11503 0.50842 0.18241 0.0
C376 C 0.12531 0.50431 0.15981 0.0
C377 C 0.13948 0.5166 0.14009 0.0
C378 C 0.14298 0.53257 0.14177 0.0
H379 H 0.13025 0.55854 0.048 0.0
H380 H 0.14478 0.55336 0.0671 0.0
H381 H 0.12379 0.53973 0.07654 0.0
H382 H 0.11014 0.52706 0.20052 0.0
H383 H 0.10406 0.49931 0.19816 0.0
H384 H 0.49277 0.10997 0.48481 0.0
H385 H 0.52046 0.11611 0.47876 0.0
H386 H 0.5363 0.15992 0.55421 0.0
H387 H 0.50839 0.15371 0.56127 0.0
H388 H 0.5477 0.14211 0.44227 0.0
H389 H 0.55414 0.13634 0.62795 0.0
H390 H 0.53492 0.12981 0.60168 0.0
H391 H 0.54865 0.15081 0.61067 0.0
C392 C 0.50209 0.12097 0.5 0.0
C393 C 0.49831 0.13127 0.52395 0.0
C394 C 0.51795 0.12448 0.49635 0.0
C395 C 0.53041 0.13835 0.51652 0.0
C396 C 0.52682 0.14901 0.53906 0.0
H397 H 0.62763 0.15332 0.46618 0.0
H398 H 0.60627 0.15995 0.47403 0.0
C399 C 0.51088 0.14548 0.54286 0.0
C400 C 0.54695 0.14102 0.51516 0.0
H401 H 0.57536 0.13982 0.58146 0.0
C402 C 0.55392 0.14189 0.47269 0.0
C403 C 0.55494 0.14064 0.55498 0.0
C404 C 0.5478 0.13924 0.60147 0.0
C405 C 0.56827 0.14157 0.46879 0.0
C406 C 0.57598 0.14065 0.50855 0.0
C407 C 0.56943 0.1406 0.55111 0.0
C408 C 0.58956 0.13757 0.50657 0.0
C409 C 0.57451 0.14122 0.42212 0.0
C410 C 0.58743 0.12305 0.52356 0.0
C411 C 0.59956 0.11928 0.51944 0.0
C412 C 0.61416 0.12998 0.49822 0.0
C413 C 0.61649 0.14477 0.48243 0.0
C414 C 0.60429 0.14855 0.48669 0.0
H415 H 0.56569 0.13929 0.39507 0.0
H416 H 0.58561 0.15283 0.41557 0.0
H417 H 0.57756 0.13156 0.41975 0.0
H418 H 0.57616 0.11441 0.53906 0.0
H419 H 0.59735 0.10782 0.53219 0.0
H420 H 0.47014 0.62141 0.75541 0.0
H421 H 0.44308 0.59853 0.76546 0.0
H422 H 0.45376 0.59476 0.90538 0.0
H423 H 0.48089 0.61745 0.89555 0.0
H424 H 0.44301 0.56681 0.85814 0.0
H425 H 0.40233 0.59105 0.82984 0.0
H426 H 0.41696 0.59606 0.78581 0.0
H427 H 0.42344 0.60374 0.84219 0.0
C428 C 0.46664 0.61594 0.78859 0.0
C429 C 0.47774 0.62119 0.82458 0.0
C430 C 0.45111 0.60291 0.79435 0.0
C431 C 0.44636 0.59502 0.83627 0.0
C432 C 0.45717 0.60071 0.87278 0.0
H433 H 0.35473 0.51122 0.91035 0.0
H434 H 0.37774 0.53857 0.90501 0.0
C435 C 0.47269 0.61368 0.86705 0.0
C436 C 0.43092 0.57974 0.84064 0.0
H437 H 0.39029 0.56242 0.82811 0.0
C438 C 0.43148 0.5659 0.85198 0.0
C439 C 0.41589 0.57858 0.83278 0.0
C440 C 0.41455 0.59317 0.82239 0.0
C441 C 0.41748 0.55087 0.85461 0.0
C442 C 0.40252 0.5496 0.84506 0.0
C443 C 0.40184 0.56346 0.83492 0.0
C444 C 0.38757 0.53382 0.84499 0.0
C445 C 0.41878 0.53642 0.86754 0.0
C446 C 0.38529 0.52232 0.81218 0.0
C447 C 0.37223 0.50673 0.8151 0.0
C448 C 0.36118 0.50236 0.85093 0.0
C449 C 0.36306 0.51417 0.88246 0.0
C450 C 0.37616 0.5298 0.87944 0.0
H451 H 0.43056 0.53992 0.88336 0.0
H452 H 0.4091 0.52863 0.89151 0.0
H453 H 0.41749 0.52927 0.83664 0.0
H454 H 0.39392 0.52527 0.78509 0.0
H455 H 0.37111 0.498 0.79002 0.0
H456 H 0.84837 0.36873 0.10001 0.0
H457 H 0.84312 0.39103 0.09723 0.0
H458 H 0.82944 0.3837 0.23813 0.0
H459 H 0.83468 0.36137 0.24144 0.0
H460 H 0.81441 0.39358 0.12324 0.0
H461 H 0.8692 0.4305 0.2274 0.0
H462 H 0.86563 0.41247 0.19852 0.0
H463 H 0.85478 0.41112 0.24933 0.0
C464 C 0.84403 0.37169 0.1303 0.0
C465 C 0.84213 0.36338 0.17111 0.0
C466 C 0.84099 0.38441 0.12856 0.0
C467 C 0.83608 0.38908 0.16759 0.0
C468 C 0.83337 0.38033 0.20777 0.0
H469 H 0.84004 0.48011 0.21671 0.0
H470 H 0.83435 0.45253 0.22545 0.0
C471 C 0.83635 0.36756 0.20953 0.0
C472 C 0.8351 0.40391 0.16702 0.0
H473 H 0.85483 0.4428 0.20322 0.0
C474 C 0.82315 0.40434 0.14096 0.0
C475 C 0.84652 0.41786 0.19025 0.0
C476 C 0.85985 0.41812 0.21778 0.0
C477 C 0.82236 0.41846 0.13736 0.0
C478 C 0.83408 0.43257 0.15954 0.0
C479 C 0.84581 0.43198 0.18636 0.0
C480 C 0.83512 0.44835 0.15359 0.0
C481 C 0.80893 0.41809 0.11011 0.0
C482 C 0.83719 0.45511 0.11023 0.0
C483 C 0.84032 0.47084 0.10509 0.0
C484 C 0.84171 0.48022 0.14329 0.0
C485 C 0.8391 0.47325 0.18658 0.0
C486 C 0.83584 0.45747 0.19165 0.0
H487 H 0.79832 0.40578 0.10861 0.0
H488 H 0.80516 0.42633 0.12455 0.0
H489 H 0.8131 0.4219 0.07483 0.0
H490 H 0.8371 0.44849 0.08043 0.0
H491 H 0.84236 0.47587 0.07129 0.0
H492 H 0.46877 0.84174 0.59932 0.0
H493 H 0.44125 0.83676 0.59893 0.0
H494 H 0.44349 0.84288 0.45383 0.0
H495 H 0.47098 0.84787 0.45376 0.0
H496 H 0.43439 0.86055 0.56558 0.0
H497 H 0.39886 0.80238 0.47572 0.0
H498 H 0.41798 0.80839 0.5022 0.0
H499 H 0.41722 0.81654 0.44815 0.0
C500 C 0.46331 0.84171 0.56718 0.0
C501 C 0.47212 0.84529 0.52658 0.0
C502 C 0.44759 0.83886 0.56706 0.0
C503 C 0.44031 0.83931 0.52633 0.0
C504 C 0.4488 0.84221 0.48553 0.0
H505 H 0.35958 0.84632 0.43686 0.0
H506 H 0.38199 0.84146 0.44551 0.0
C507 C 0.46456 0.84516 0.48562 0.0
C508 C 0.42465 0.83866 0.52696 0.0
H509 H 0.38645 0.81826 0.48511 0.0
C510 C 0.42382 0.85119 0.54857 0.0
C511 C 0.41099 0.82652 0.50431 0.0
C512 C 0.41119 0.8126 0.48155 0.0
C513 C 0.40985 0.85227 0.54673 0.0
C514 C 0.39617 0.84019 0.52374 0.0
C515 C 0.39691 0.82746 0.50288 0.0
C516 C 0.38136 0.84115 0.51888 0.0
C517 C 0.41018 0.86675 0.56762 0.0
C518 C 0.37318 0.84197 0.55722 0.0
C519 C 0.36048 0.84496 0.55242 0.0
C520 C 0.35556 0.84688 0.50912 0.0
C521 C 0.3631 0.84497 0.4707 0.0
C522 C 0.37591 0.84217 0.47557 0.0
H523 H 0.42264 0.87672 0.57346 0.0
H524 H 0.4039 0.87122 0.54567 0.0
H525 H 0.404 0.86337 0.60091 0.0
H526 H 0.37691 0.84079 0.59093 0.0
H527 H 0.35479 0.84615 0.58268 0.0
H528 H 0.6108 0.47961 0.78433 0.0
H529 H 0.58833 0.45201 0.78527 0.0
H530 H 0.59691 0.44817 0.92691 0.0
H531 H 0.61944 0.47581 0.92648 0.0
H532 H 0.58604 0.42116 0.81602 0.0
H533 H 0.54999 0.44086 0.9163 0.0
H534 H 0.56773 0.45484 0.88538 0.0
H535 H 0.5696 0.44639 0.93759 0.0
C536 C 0.60807 0.47285 0.81558 0.0
C537 C 0.61682 0.47999 0.85547 0.0
C538 C 0.59526 0.45707 0.81598 0.0
C539 C 0.5909 0.44817 0.85625 0.0
C540 C 0.60005 0.45494 0.89559 0.0
H541 H 0.50004 0.36162 0.91523 0.0
H542 H 0.52763 0.38387 0.92187 0.0
C543 C 0.61292 0.47071 0.89522 0.0
C544 C 0.57606 0.43232 0.85772 0.0
H545 H 0.53741 0.41374 0.89547 0.0
C546 C 0.57542 0.41944 0.83364 0.0
C547 C 0.56228 0.43018 0.88085 0.0
C548 C 0.56228 0.44378 0.90633 0.0
C549 C 0.56124 0.40442 0.83189 0.0
C550 C 0.54729 0.40243 0.85385 0.0
C551 C 0.54811 0.41525 0.87875 0.0
C552 C 0.53145 0.38754 0.84952 0.0
C553 C 0.5614 0.39086 0.80678 0.0
C554 C 0.52448 0.38204 0.80663 0.0
C555 C 0.50875 0.36924 0.8027 0.0
C556 C 0.49958 0.36185 0.84164 0.0
C557 C 0.50675 0.36707 0.88454 0.0
C558 C 0.52253 0.37979 0.88842 0.0
H559 H 0.57368 0.39254 0.80561 0.0
H560 H 0.5532 0.37909 0.82272 0.0
H561 H 0.55742 0.39058 0.7713 0.0
H562 H 0.53094 0.38808 0.77615 0.0
H563 H 0.50357 0.3656 0.76915 0.0
H564 H 0.04653 0.40712 0.12904 0.0
H565 H 0.0175 0.38874 0.13102 0.0
H566 H 0.01886 0.38854 0.27714 0.0
H567 H 0.04784 0.40705 0.27564 0.0
H568 H -0.003 0.35778 0.1721 0.0
H569 H -0.01098 0.40646 0.24595 0.0
H570 H 0.00766 0.41022 0.22086 0.0
H571 H 0.00227 0.40186 0.27683 0.0
C572 C 0.04071 0.40299 0.16162 0.0
C573 C 0.04947 0.40875 0.20222 0.0
C574 C 0.02412 0.39246 0.16265 0.0
C575 C 0.01603 0.38753 0.20423 0.0
C576 C 0.02487 0.39244 0.24472 0.0
H577 H 0.91443 0.3432 0.26703 0.0
H578 H 0.94317 0.35283 0.27226 0.0
C579 C 0.04144 0.40298 0.24376 0.0
C580 C -0.00174 0.37831 0.20523 0.0
H581 H 0.96574 0.38133 0.23568 0.0
C582 C -0.00987 0.36287 0.18615 0.0
C583 C -0.01063 0.38503 0.22344 0.0
C584 C -0.00253 0.40185 0.24261 0.0
C585 C 0.97327 0.3539 0.18507 0.0
C586 C 0.96439 0.36071 0.20285 0.0
C587 C 0.97256 0.37608 0.22236 0.0
C588 C 0.94665 0.35258 0.19984 0.0
C589 C 0.96512 0.3372 0.16529 0.0
C590 C 0.939 0.34899 0.15741 0.0
C591 C 0.92255 0.34344 0.15428 0.0
C592 C 0.91348 0.34156 0.19355 0.0
C593 C 0.92106 0.34456 0.23611 0.0
C594 C 0.93749 0.35006 0.23919 0.0
H595 H 0.97314 0.33202 0.16587 0.0
H596 H 0.95394 0.32907 0.18404 0.0
H597 H 0.9619 0.33768 0.12943 0.0
H598 H 0.94587 0.35117 0.12654 0.0
H599 H 0.91711 0.34129 0.12097 0.0
H600 H 0.63095 0.05007 0.45899 0.0
H601 H 0.62016 0.02104 0.46169 0.0
H602 H 0.62182 0.02288 0.60778 0.0
H603 H 0.63245 0.05184 0.60557 0.0
H604 H 0.63078 0.00078 0.50441 0.0
H605 H 0.57382 -0.00724 0.57584 0.0
H606 H 0.58873 0.01129 0.55014 0.0
H607 H 0.59165 0.00633 0.6067 0.0
C608 C 0.62925 0.04435 0.49171 0.0
C609 C 0.63235 0.05325 0.5321 0.0
C610 C 0.62311 0.02777 0.49315 0.0
C611 C 0.61995 0.01982 0.53493 0.0
C612 C 0.62394 0.02878 0.57521 0.0
H613 H 0.56392 0.91914 0.60687 0.0
H614 H 0.58262 0.94805 0.60854 0.0
C615 C 0.63006 0.04535 0.57384 0.0
C616 C 0.61139 0.00206 0.53645 0.0
H617 H 0.57589 0.96956 0.56831 0.0
C618 C 0.6188 -0.00608 0.51845 0.0
C619 C 0.59573 -0.00682 0.55461 0.0
C620 C 0.58691 0.00128 0.5726 0.0
C621 C 0.61099 0.97706 0.51868 0.0
C622 C 0.5953 0.96819 0.53669 0.0
C623 C 0.58797 0.97638 0.55483 0.0
C624 C 0.58589 0.9504 0.53581 0.0
C625 C 0.61967 0.9689 0.5002 0.0
C626 C 0.58172 0.94206 0.49439 0.0
C627 C 0.57105 0.9255 0.4933 0.0
C628 C 0.56422 0.91701 0.53363 0.0
C629 C 0.56891 0.9253 0.57518 0.0
C630 C 0.57961 0.94184 0.57622 0.0
H631 H 0.63288 0.97712 0.49998 0.0
H632 H 0.6169 0.9581 0.52039 0.0
H633 H 0.61574 0.96505 0.46475 0.0
H634 H 0.58615 0.94846 0.46271 0.0
H635 H 0.56765 0.9195 0.46071 0.0
H636 H 0.57223 0.64064 0.94638 0.0
H637 H 0.59051 0.63002 0.94651 0.0
H638 H 0.59197 0.63149 0.80037 0.0
H639 H 0.57383 0.64231 0.79986 0.0
H640 H 0.58249 0.60095 0.90655 0.0
H641 H 0.63925 0.64967 0.8339 0.0
H642 H 0.6238 0.65314 0.85631 0.0
H643 H 0.62171 0.64464 0.80068 0.0
C644 C 0.57668 0.63902 0.91425 0.0
C645 C 0.5715 0.64225 0.87308 0.0
C646 C 0.58713 0.63294 0.91442 0.0
C647 C 0.59271 0.63009 0.8735 0.0
C648 C 0.58807 0.63389 0.83238 0.0
H649 H 0.63676 0.57505 0.79324 0.0
H650 H 0.62619 0.59338 0.79723 0.0
C651 C 0.57762 0.63999 0.83216 0.0
C652 C 0.60186 0.6215 0.87374 0.0
H653 H 0.63683 0.62383 0.83947 0.0
C654 C 0.59445 0.60603 0.89236 0.0
C655 C 0.61738 0.6281 0.85478 0.0
C656 C 0.62609 0.64486 0.83562 0.0
C657 C 0.60197 0.59681 0.89168 0.0
C658 C 0.61749 0.60337 0.87268 0.0
C659 C 0.62496 0.61888 0.8542 0.0
C660 C 0.62581 0.59398 0.87053 0.0
C661 C 0.59301 0.57991 0.91 0.0
C662 C 0.62964 0.58873 0.91044 0.0
C663 C 0.63561 0.5782 0.90832 0.0
C664 C 0.63796 0.57282 0.8662 0.0
C665 C 0.63502 0.57889 0.82624 0.0
C666 C 0.62899 0.58938 0.82842 0.0
H667 H 0.57995 0.57543 0.91336 0.0
H668 H 0.59466 0.57155 0.8877 0.0
H669 H 0.59775 0.57968 0.94412 0.0
H670 H 0.62755 0.59239 0.94328 0.0
H671 H 0.6379 0.57388 0.93973 0.0
H672 H 0.91428 0.57136 0.2843 0.0
H673 H 0.94325 0.58971 0.28739 0.0
H674 H 0.94453 0.59437 0.14182 0.0
H675 H 0.91551 0.57617 0.13838 0.0
H676 H 0.96477 0.58283 0.24598 0.0
H677 H 0.97332 0.64084 0.18335 0.0
H678 H 0.95417 0.62485 0.20305 0.0
H679 H 0.96113 0.62404 0.14708 0.0
C680 C 0.92065 0.57652 0.25297 0.0
C681 C 0.91257 0.57223 0.21106 0.0
C682 C 0.93721 0.58702 0.25483 0.0
C683 C 0.94603 0.59352 0.2149 0.0
C684 C 0.93793 0.58975 0.17314 0.0
H685 H 0.04566 0.63929 0.13898 0.0
H686 H 0.0167 0.62871 0.14266 0.0
C687 C 0.92134 0.57925 0.17123 0.0
C688 C 0.96381 0.60275 0.21656 0.0
H689 H -0.00323 0.63842 0.18757 0.0
C690 C 0.97177 0.59506 0.23372 0.0
C691 C 0.97289 0.61864 0.20014 0.0
C692 C 0.96496 0.62766 0.18272 0.0
C693 C -0.01144 0.60265 0.23392 0.0
C694 C -0.00233 0.61851 0.21734 0.0
C695 C -0.01026 0.62629 0.20045 0.0
C696 C 0.01543 0.62689 0.2158 0.0
C697 C -0.00362 0.59339 0.25043 0.0
C698 C 0.02439 0.62992 0.25584 0.0
C699 C 0.04093 0.63589 0.25388 0.0
C700 C 0.04882 0.63903 0.21183 0.0
C701 C 0.03995 0.63692 0.17192 0.0
C702 C 0.0234 0.63089 0.17393 0.0
H703 H -0.01226 0.58028 0.25187 0.0
H704 H 0.00653 0.59548 0.22811 0.0
H705 H 0.00118 0.59749 0.28512 0.0
H706 H 0.0185 0.6272 0.28855 0.0
H707 H 0.04742 0.63753 0.28528 0.0
H708 H 0.40395 0.05251 0.41289 0.0
H709 H 0.38534 0.02358 0.41167 0.0
H710 H 0.38165 0.02348 0.55741 0.0
H711 H 0.40014 0.05248 0.559 0.0
H712 H 0.39255 0.00237 0.4547 0.0
H713 H 0.3348 -0.00548 0.5178 0.0
H714 H 0.35069 0.01343 0.4964 0.0
H715 H 0.35186 0.00707 0.55281 0.0
C716 C 0.39894 0.04642 0.44466 0.0
C717 C 0.40361 0.05481 0.48608 0.0
C718 C 0.3883 0.02987 0.44386 0.0
C719 C 0.38202 0.0214 0.48439 0.0
C720 C 0.38611 0.02982 0.52566 0.0
H721 H 0.33521 0.92161 0.56192 0.0
H722 H 0.34623 0.95066 0.55863 0.0
C723 C 0.39676 0.0464 0.52651 0.0
C724 C 0.37273 0.00362 0.48378 0.0
H725 H 0.33696 0.97096 0.5136 0.0
C726 C 0.38033 -0.00451 0.46712 0.0
C727 C 0.35687 -0.00528 0.50047 0.0
C728 C 0.34799 0.00285 0.51755 0.0
C729 C 0.37264 0.9787 0.46748 0.0
C730 C 0.35675 0.96976 0.48409 0.0
C731 C 0.3491 0.97786 0.50069 0.0
C732 C 0.34819 0.95199 0.4855 0.0
C733 C 0.38178 0.97069 0.45138 0.0
C734 C 0.3451 0.94306 0.44536 0.0
C735 C 0.33889 0.92649 0.4471 0.0
C736 C 0.33553 0.91852 0.48904 0.0
C737 C 0.33773 0.92738 0.52907 0.0
C738 C 0.34401 0.94398 0.52728 0.0
H739 H 0.39492 0.97923 0.45019 0.0
H740 H 0.37951 0.96052 0.4738 0.0
H741 H 0.37775 0.9659 0.41664 0.0
H742 H 0.34796 0.949 0.41272 0.0
H743 H 0.33718 0.92001 0.41561 0.0
H744 H 0.41393 0.35108 0.75986 0.0
H745 H 0.39422 0.35991 0.76089 0.0
H746 H 0.38009 0.34125 0.89625 0.0
H747 H 0.39995 0.3325 0.89582 0.0
H748 H 0.36015 0.34362 0.77718 0.0
H749 H 0.39563 0.38968 0.90838 0.0
H750 H 0.40374 0.37929 0.87698 0.0
H751 H 0.38967 0.36927 0.922 0.0
C752 C 0.40652 0.34867 0.78971 0.0
C753 C 0.40866 0.34127 0.828 0.0
C754 C 0.39522 0.35369 0.79016 0.0
C755 C 0.38589 0.35145 0.82889 0.0
C756 C 0.38736 0.3433 0.86629 0.0
H757 H 0.33352 0.40214 0.88299 0.0
H758 H 0.34213 0.38227 0.88955 0.0
C759 C 0.39867 0.33826 0.86589 0.0
C760 C 0.37551 0.35869 0.83086 0.0
H761 H 0.37288 0.38943 0.87952 0.0
C762 C 0.36279 0.35352 0.79988 0.0
C763 C 0.37898 0.37157 0.86062 0.0
C764 C 0.3928 0.37792 0.89373 0.0
C765 C 0.35364 0.36113 0.79721 0.0
C766 C 0.35756 0.37445 0.82563 0.0
C767 C 0.36987 0.37919 0.85782 0.0
C768 C 0.35015 0.38462 0.81999 0.0
C769 C 0.33996 0.3549 0.76373 0.0
C770 C 0.35161 0.39239 0.77858 0.0
C771 C 0.34668 0.4037 0.7747 0.0
C772 C 0.34035 0.40762 0.81232 0.0
C773 C 0.33835 0.39941 0.85336 0.0
C774 C 0.34326 0.38805 0.85718 0.0
H775 H 0.33506 0.34194 0.75657 0.0
H776 H 0.33009 0.35666 0.77634 0.0
H777 H 0.3444 0.36147 0.73126 0.0
H778 H 0.35725 0.39025 0.74973 0.0
H779 H 0.34844 0.40982 0.74262 0.0
loop_
_geom_bond_atom_site_label_1
_geom_bond_atom_site_label_2
_geom_bond_distance
_geom_bond_site_symmetry_2
_ccdc_geom_bond_type
O0 Cd1 2.300 . S
O0 C7 1.275 . S
Cd1 O0 2.300 . S
Cd1 O9 2.381 . S
Cd1 O10 2.378 . S
O2 Cd3 2.385 . S
O2 C7 1.255 . S
Cd3 O2 2.385 . S
Cd3 O4 2.317 . S
O4 Cd3 2.317 . S
O4 C5 1.232 . S
C5 O4 1.232 . S
C5 O6 1.218 . S
O6 C5 1.218 . S
C7 O0 1.275 . S
C7 O2 1.255 . S
C8 O9 1.258 . S
C8 O10 1.256 . S
O9 Cd1 2.381 . S
O9 C8 1.258 . S
O10 Cd1 2.378 . S
O10 C8 1.256 . S
O11 Cd12 2.300 . S
O11 C18 1.275 . S
Cd12 O11 2.300 . S
Cd12 O20 2.381 . S
Cd12 O21 2.378 . S
O13 Cd14 2.385 . S
O13 C18 1.255 . S
Cd14 O13 2.385 . S
Cd14 O15 2.317 . S
O15 Cd14 2.317 . S
O15 C16 1.232 . S
C16 O15 1.232 . S
C16 O17 1.218 . S
O17 C16 1.218 . S
C18 O11 1.275 . S
C18 O13 1.255 . S
C19 O20 1.258 . S
C19 O21 1.256 . S
O20 Cd12 2.381 . S
O20 C19 1.258 . S
O21 Cd12 2.378 . S
O21 C19 1.256 . S
O22 Cd23 2.300 . S
O22 C29 1.275 . S
Cd23 O22 2.300 . S
Cd23 O31 2.381 . S
Cd23 O32 2.378 . S
O24 Cd25 2.385 . S
O24 C29 1.255 . S
Cd25 O24 2.385 . S
Cd25 O26 2.317 . S
O26 Cd25 2.317 . S
O26 C27 1.232 . S
C27 O26 1.232 . S
C27 O28 1.218 . S
O28 C27 1.218 . S
C29 O22 1.275 . S
C29 O24 1.255 . S
C30 O31 1.258 . S
C30 O32 1.256 . S
O31 Cd23 2.381 . S
O31 C30 1.258 . S
O32 Cd23 2.378 . S
O32 C30 1.256 . S
O33 Cd34 2.300 . S
O33 C40 1.275 . S
Cd34 O33 2.300 . S
Cd34 O42 2.381 . S
Cd34 O43 2.378 . S
O35 Cd36 2.385 . S
O35 C40 1.255 . S
Cd36 O35 2.385 . S
Cd36 O37 2.317 . S
O37 Cd36 2.317 . S
O37 C38 1.232 . S
C38 O37 1.232 . S
C38 O39 1.218 . S
O39 C38 1.218 . S
C40 O33 1.275 . S
C40 O35 1.255 . S
C41 O42 1.258 . S
C41 O43 1.256 . S
O42 Cd34 2.381 . S
O42 C41 1.258 . S
O43 Cd34 2.378 . S
O43 C41 1.256 . S
O44 Cd45 2.300 . S
O44 C51 1.275 . S
Cd45 O44 2.300 . S
Cd45 O53 2.381 . S
Cd45 O54 2.378 . S
O46 Cd47 2.385 . S
O46 C51 1.255 . S
Cd47 O46 2.385 . S
Cd47 O48 2.317 . S
O48 Cd47 2.317 . S
O48 C49 1.232 . S
C49 O48 1.232 . S
C49 O50 1.218 . S
O50 C49 1.218 . S
C51 O44 1.275 . S
C51 O46 1.255 . S
C52 O53 1.258 . S
C52 O54 1.256 . S
O53 Cd45 2.381 . S
O53 C52 1.258 . S
O54 Cd45 2.378 . S
O54 C52 1.256 . S
O55 Cd56 2.300 . S
O55 C62 1.275 . S
Cd56 O55 2.300 . S
Cd56 O64 2.381 . S
Cd56 O65 2.378 . S
O57 Cd58 2.385 . S
O57 C62 1.255 . S
Cd58 O57 2.385 . S
Cd58 O59 2.317 . S
O59 Cd58 2.317 . S
O59 C60 1.232 . S
C60 O59 1.232 . S
C60 O61 1.218 . S
O61 C60 1.218 . S
C62 O55 1.275 . S
C62 O57 1.255 . S
C63 O64 1.258 . S
C63 O65 1.256 . S
O64 Cd56 2.381 . S
O64 C63 1.258 . S
O65 Cd56 2.378 . S
O65 C63 1.256 . S
O66 Cd67 2.300 . S
O66 C73 1.275 . S
Cd67 O66 2.300 . S
Cd67 O75 2.381 . S
Cd67 O76 2.378 . S
O68 Cd69 2.385 . S
O68 C73 1.255 . S
Cd69 O68 2.385 . S
Cd69 O70 2.317 . S
O70 Cd69 2.317 . S
O70 C71 1.232 . S
C71 O70 1.232 . S
C71 O72 1.218 . S
O72 C71 1.218 . S
C73 O66 1.275 . S
C73 O68 1.255 . S
C74 O75 1.258 . S
C74 O76 1.256 . S
O75 Cd67 2.381 . S
O75 C74 1.258 . S
O76 Cd67 2.378 . S
O76 C74 1.256 . S
O77 Cd78 2.300 . S
O77 C84 1.275 . S
Cd78 O77 2.300 . S
Cd78 O86 2.381 . S
Cd78 O87 2.378 . S
O79 Cd80 2.385 . S
O79 C84 1.255 . S
Cd80 O79 2.385 . S
Cd80 O81 2.317 . S
O81 Cd80 2.317 . S
O81 C82 1.232 . S
C82 O81 1.232 . S
C82 O83 1.218 . S
O83 C82 1.218 . S
C84 O77 1.275 . S
C84 O79 1.255 . S
C85 O86 1.258 . S
C85 O87 1.256 . S
O86 Cd78 2.381 . S
O86 C85 1.258 . S
O87 Cd78 2.378 . S
O87 C85 1.256 . S
O88 Cd89 2.300 . S
O88 C95 1.275 . S
Cd89 O88 2.300 . S
Cd89 O97 2.381 . S
Cd89 O98 2.378 . S
O90 Cd91 2.385 . S
O90 C95 1.255 . S
Cd91 O90 2.385 . S
Cd91 O92 2.317 . S
O92 Cd91 2.317 . S
O92 C93 1.232 . S
C93 O92 1.232 . S
C93 O94 1.218 . S
O94 C93 1.218 . S
C95 O88 1.275 . S
C95 O90 1.255 . S
C96 O97 1.258 . S
C96 O98 1.256 . S
O97 Cd89 2.381 . S
O97 C96 1.258 . S
O98 Cd89 2.378 . S
O98 C96 1.256 . S
O99 Cd100 2.300 . S
O99 C106 1.275 . S
Cd100 O99 2.300 . S
Cd100 O108 2.381 . S
Cd100 O109 2.378 . S
O101 Cd102 2.385 . S
O101 C106 1.255 . S
Cd102 O101 2.385 . S
Cd102 O103 2.317 . S
O103 Cd102 2.317 . S
O103 C104 1.232 . S
C104 O103 1.232 . S
C104 O105 1.218 . S
O105 C104 1.218 . S
C106 O99 1.275 . S
C106 O101 1.255 . S
C107 O108 1.258 . S
C107 O109 1.256 . S
O108 Cd100 2.381 . S
O108 C107 1.258 . S
O109 Cd100 2.378 . S
O109 C107 1.256 . S
O110 Cd111 2.300 . S
O110 C117 1.275 . S
Cd111 O110 2.300 . S
Cd111 O119 2.381 . S
Cd111 O120 2.378 . S
O112 Cd113 2.385 . S
O112 C117 1.255 . S
Cd113 O112 2.385 . S
Cd113 O114 2.317 . S
O114 Cd113 2.317 . S
O114 C115 1.232 . S
C115 O114 1.232 . S
C115 O116 1.218 . S
O116 C115 1.218 . S
C117 O110 1.275 . S
C117 O112 1.255 . S
C118 O119 1.258 . S
C118 O120 1.256 . S
O119 Cd111 2.381 . S
O119 C118 1.258 . S
O120 Cd111 2.378 . S
O120 C118 1.256 . S
O121 Cd122 2.300 . S
O121 C128 1.275 . S
Cd122 O121 2.300 . S
Cd122 O130 2.381 . S
Cd122 O131 2.378 . S
O123 Cd124 2.385 . S
O123 C128 1.255 . S
Cd124 O123 2.385 . S
Cd124 O125 2.317 . S
O125 Cd124 2.317 . S
O125 C126 1.232 . S
C126 O125 1.232 . S
C126 O127 1.218 . S
O127 C126 1.218 . S
C128 O121 1.275 . S
C128 O123 1.255 . S
C129 O130 1.258 . S
C129 O131 1.256 . S
O130 Cd122 2.381 . S
O130 C129 1.258 . S
O131 Cd122 2.378 . S
O131 C129 1.256 . S
H132 C140 0.929 . S
H133 C142 0.930 . S
H134 C144 0.930 . S
H135 C147 0.929 . S
H136 C150 0.930 . S
H137 C152 0.960 1_554 S
H138 C152 0.960 1_554 S
H139 C152 0.960 . S
C140 H132 0.929 . S
C140 C141 1.377 . S
C140 C142 1.384 . S
C141 C140 1.377 . S
C141 C147 1.390 . S
C142 H133 0.930 . S
C142 C140 1.384 . S
C142 C143 1.372 . S
C143 C142 1.372 . S
C143 C144 1.400 . S
C143 C148 1.490 . S
C144 H134 0.930 . S
C144 C143 1.400 . S
C144 C147 1.386 . S
H145 C161 0.930 . S
H146 C162 0.931 . S
C147 H135 0.929 . S
C147 C141 1.390 . S
C147 C144 1.386 . S
C148 C143 1.490 . S
C148 C150 1.395 . S
C148 C151 1.403 . S
H149 C155 0.930 . S
C150 H136 0.930 . S
C150 C148 1.395 . S
C150 C153 1.403 1_556 S
C151 C148 1.403 . S
C151 C152 1.524 . S
C151 C155 1.400 1_556 S
C152 H137 0.960 1_556 S
C152 H138 0.960 1_556 S
C152 H139 0.960 . S
C152 C151 1.524 . S
C153 C150 1.403 1_554 S
C153 C154 1.392 . S
C153 C157 1.495 . S
C154 C153 1.392 . S
C154 C155 1.385 . S
C154 C156 1.478 . S
C155 H149 0.930 . S
C155 C151 1.400 1_554 S
C155 C154 1.385 . S
C156 C154 1.478 . S
C156 C158 1.381 . S
C156 C162 1.383 . S
C157 C153 1.495 . S
C157 H163 0.959 1_554 S
C157 H164 0.961 1_554 S
C157 H165 0.960 . S
C158 C156 1.381 . S
C158 C159 1.394 . S
C158 H166 0.930 . S
C159 C158 1.394 . S
C159 C160 1.383 . S
C159 H167 0.929 . S
C160 C159 1.383 . S
C160 C161 1.377 . S
C161 H145 0.930 . S
C161 C160 1.377 . S
C161 C162 1.379 . S
C162 H146 0.931 . S
C162 C156 1.383 . S
C162 C161 1.379 . S
H163 C157 0.959 1_556 S
H164 C157 0.961 1_556 S
H165 C157 0.960 . S
H166 C158 0.930 . S
H167 C159 0.929 . S
H168 C176 0.929 . S
H169 C178 0.930 . S
H170 C180 0.930 . S
H171 C183 0.929 . S
H172 C186 0.930 . S
H173 C188 0.960 . S
H174 C188 0.960 . S
H175 C188 0.960 . S
C176 H168 0.929 . S
C176 C177 1.377 . S
C176 C178 1.384 . S
C177 C176 1.377 . S
C177 C183 1.390 . S
C178 H169 0.930 . S
C178 C176 1.384 . S
C178 C179 1.372 . S
C179 C178 1.372 . S
C179 C180 1.400 . S
C179 C184 1.490 . S
C180 H170 0.930 . S
C180 C179 1.400 . S
C180 C183 1.386 . S
H181 C197 0.930 . S
H182 C198 0.931 . S
C183 H171 0.929 . S
C183 C177 1.390 . S
C183 C180 1.386 . S
C184 C179 1.490 . S
C184 C186 1.395 . S
C184 C187 1.403 . S
H185 C191 0.930 . S
C186 H172 0.930 . S
C186 C184 1.395 . S
C186 C189 1.403 . S
C187 C184 1.403 . S
C187 C188 1.524 . S
C187 C191 1.400 . S
C188 H173 0.960 . S
C188 H174 0.960 . S
C188 H175 0.960 . S
C188 C187 1.524 . S
C189 C186 1.403 . S
C189 C190 1.392 . S
C189 C193 1.495 . S
C190 C189 1.392 . S
C190 C191 1.385 . S
C190 C192 1.478 . S
C191 H185 0.930 . S
C191 C187 1.400 . S
C191 C190 1.385 . S
C192 C190 1.478 . S
C192 C194 1.381 . S
C192 C198 1.383 . S
C193 C189 1.495 . S
C193 H199 0.959 . S
C193 H200 0.961 . S
C193 H201 0.960 . S
C194 C192 1.381 . S
C194 C195 1.394 . S
C194 H202 0.930 . S
C195 C194 1.394 . S
C195 C196 1.383 . S
C195 H203 0.929 . S
C196 C195 1.383 . S
C196 C197 1.377 . S
C197 H181 0.930 . S
C197 C196 1.377 . S
C197 C198 1.379 . S
C198 H182 0.931 . S
C198 C192 1.383 . S
C198 C197 1.379 . S
H199 C193 0.959 . S
H200 C193 0.961 . S
H201 C193 0.960 . S
H202 C194 0.930 . S
H203 C195 0.929 . S
H204 C212 0.929 . S
H205 C214 0.930 . S
H206 C216 0.930 . S
H207 C219 0.929 . S
H208 C222 0.930 . S
H209 C224 0.960 . S
H210 C224 0.960 . S
H211 C224 0.960 . S
C212 H204 0.929 . S
C212 C213 1.377 . S
C212 C214 1.384 . S
C213 C212 1.377 . S
C213 C219 1.390 . S
C214 H205 0.930 . S
C214 C212 1.384 . S
C214 C215 1.372 . S
C215 C214 1.372 . S
C215 C216 1.400 . S
C215 C220 1.490 . S
C216 H206 0.930 . S
C216 C215 1.400 . S
C216 C219 1.386 . S
H217 C233 0.930 . S
H218 C234 0.931 . S
C219 H207 0.929 . S
C219 C213 1.390 . S
C219 C216 1.386 . S
C220 C215 1.490 . S
C220 C222 1.395 . S
C220 C223 1.403 . S
H221 C227 0.930 . S
C222 H208 0.930 . S
C222 C220 1.395 . S
C222 C225 1.403 . S
C223 C220 1.403 . S
C223 C224 1.524 . S
C223 C227 1.400 . S
C224 H209 0.960 . S
C224 H210 0.960 . S
C224 H211 0.960 . S
C224 C223 1.524 . S
C225 C222 1.403 . S
C225 C226 1.392 . S
C225 C229 1.495 . S
C226 C225 1.392 . S
C226 C227 1.385 . S
C226 C228 1.478 . S
C227 H221 0.930 . S
C227 C223 1.400 . S
C227 C226 1.385 . S
C228 C226 1.478 . S
C228 C230 1.381 . S
C228 C234 1.383 . S
C229 C225 1.495 . S
C229 H235 0.959 . S
C229 H236 0.961 . S
C229 H237 0.960 . S
C230 C228 1.381 . S
C230 C231 1.394 . S
C230 H238 0.930 . S
C231 C230 1.394 . S
C231 C232 1.383 . S
C231 H239 0.929 . S
C232 C231 1.383 . S
C232 C233 1.377 . S
C233 H217 0.930 . S
C233 C232 1.377 . S
C233 C234 1.379 . S
C234 H218 0.931 . S
C234 C228 1.383 . S
C234 C233 1.379 . S
H235 C229 0.959 . S
H236 C229 0.961 . S
H237 C229 0.960 . S
H238 C230 0.930 . S
H239 C231 0.929 . S
H240 C248 0.929 . S
H241 C250 0.930 . S
H242 C252 0.930 . S
H243 C255 0.929 . S
H244 C258 0.930 . S
H245 C260 0.960 . S
H246 C260 0.960 . S
H247 C260 0.960 . S
C248 H240 0.929 . S
C248 C249 1.377 . S
C248 C250 1.384 . S
C249 C248 1.377 . S
C249 C255 1.390 . S
C250 H241 0.930 . S
C250 C248 1.384 . S
C250 C251 1.372 . S
C251 C250 1.372 . S
C251 C252 1.400 . S
C251 C256 1.490 . S
C252 H242 0.930 . S
C252 C251 1.400 . S
C252 C255 1.386 . S
H253 C269 0.930 . S
H254 C270 0.931 . S
C255 H243 0.929 . S
C255 C249 1.390 . S
C255 C252 1.386 . S
C256 C251 1.490 . S
C256 C258 1.395 . S
C256 C259 1.403 1_556 S
H257 C263 0.930 . S
C258 H244 0.930 . S
C258 C256 1.395 . S
C258 C261 1.403 . S
C259 C256 1.403 1_554 S
C259 C260 1.524 . S
C259 C263 1.400 . S
C260 H245 0.960 . S
C260 H246 0.960 . S
C260 H247 0.960 . S
C260 C259 1.524 . S
C261 C258 1.403 . S
C261 C262 1.392 1_556 S
C261 C265 1.495 . S
C262 C261 1.392 1_554 S
C262 C263 1.385 . S
C262 C264 1.478 . S
C263 H257 0.930 . S
C263 C259 1.400 . S
C263 C262 1.385 . S
C264 C262 1.478 . S
C264 C266 1.381 . S
C264 C270 1.383 . S
C265 C261 1.495 . S
C265 H271 0.959 . S
C265 H272 0.961 . S
C265 H273 0.960 . S
C266 C264 1.381 . S
C266 C267 1.394 . S
C266 H274 0.939 . S
C267 C266 1.394 . S
C267 C268 1.383 . S
C267 H275 0.929 . S
C268 C267 1.383 . S
C268 C269 1.377 . S
C269 H253 0.930 . S
C269 C268 1.377 . S
C269 C270 1.379 . S
C270 H254 0.931 . S
C270 C264 1.383 . S
C270 C269 1.379 . S
H271 C265 0.959 . S
H272 C265 0.961 . S
H273 C265 0.960 . S
H274 C266 0.939 . S
H275 C267 0.929 . S
H276 C284 0.929 . S
H277 C286 0.930 . S
H278 C288 0.930 . S
H279 C291 0.929 . S
H280 C294 0.930 . S
H281 C296 0.960 . S
H282 C296 0.960 . S
H283 C296 0.960 . S
C284 H276 0.929 . S
C284 C285 1.377 . S
C284 C286 1.384 . S
C285 C284 1.377 . S
C285 C291 1.390 . S
C286 H277 0.930 . S
C286 C284 1.384 . S
C286 C287 1.372 . S
C287 C286 1.372 . S
C287 C288 1.400 . S
C287 C292 1.490 . S
C288 H278 0.930 . S
C288 C287 1.400 . S
C288 C291 1.386 . S
H289 C305 0.930 . S
H290 C306 0.931 . S
C291 H279 0.929 . S
C291 C285 1.390 . S
C291 C288 1.386 . S
C292 C287 1.490 . S
C292 C294 1.395 . S
C292 C295 1.403 . S
H293 C299 0.930 . S
C294 H280 0.930 . S
C294 C292 1.395 . S
C294 C297 1.403 . S
C295 C292 1.403 . S
C295 C296 1.524 . S
C295 C299 1.400 . S
C296 H281 0.960 . S
C296 H282 0.960 . S
C296 H283 0.960 . S
C296 C295 1.524 . S
C297 C294 1.403 . S
C297 C298 1.392 . S
C297 C301 1.495 . S
C298 C297 1.392 . S
C298 C299 1.385 . S
C298 C300 1.478 . S
C299 H293 0.930 . S
C299 C295 1.400 . S
C299 C298 1.385 . S
C300 C298 1.478 . S
C300 C302 1.381 . S
C300 C306 1.383 . S
C301 C297 1.495 . S
C301 H307 0.959 . S
C301 H308 0.961 . S
C301 H309 0.960 . S
C302 C300 1.381 . S
C302 C303 1.394 . S
C302 H310 0.930 . S
C303 C302 1.394 . S
C303 C304 1.383 . S
C303 H311 0.929 . S
C304 C303 1.383 . S
C304 C305 1.377 . S
C305 H289 0.930 . S
C305 C304 1.377 . S
C305 C306 1.379 . S
C306 H290 0.931 . S
C306 C300 1.383 . S
C306 C305 1.379 . S
H307 C301 0.959 . S
H308 C301 0.961 . S
H309 C301 0.960 . S
H310 C302 0.930 . S
H311 C303 0.929 . S
H312 C320 0.929 . S
H313 C322 0.930 . S
H314 C324 0.930 . S
H315 C327 0.929 . S
H316 C330 0.930 . S
H317 C332 0.960 . S
H318 C332 0.960 . S
H319 C332 0.960 . S
C320 H312 0.929 . S
C320 C321 1.377 . S
C320 C322 1.384 . S
C321 C320 1.377 . S
C321 C327 1.390 . S
C322 H313 0.930 . S
C322 C320 1.384 . S
C322 C323 1.372 . S
C323 C322 1.372 . S
C323 C324 1.400 . S
C323 C328 1.490 . S
C324 H314 0.930 . S
C324 C323 1.400 . S
C324 C327 1.386 . S
H325 C341 0.930 . S
H326 C342 0.931 . S
C327 H315 0.929 . S
C327 C321 1.390 . S
C327 C324 1.386 . S
C328 C323 1.490 . S
C328 C330 1.395 . S
C328 C331 1.403 . S
H329 C335 0.930 . S
C330 H316 0.930 . S
C330 C328 1.395 . S
C330 C333 1.403 . S
C331 C328 1.403 . S
C331 C332 1.524 . S
C331 C335 1.400 . S
C332 H317 0.960 . S
C332 H318 0.960 . S
C332 H319 0.960 . S
C332 C331 1.524 . S
C333 C330 1.403 . S
C333 C334 1.392 . S
C333 C337 1.495 . S
C334 C333 1.392 . S
C334 C335 1.385 . S
C334 C336 1.478 . S
C335 H329 0.930 . S
C335 C331 1.400 . S
C335 C334 1.385 . S
C336 C334 1.478 . S
C336 C338 1.381 . S
C336 C342 1.383 . S
C337 C333 1.495 . S
C337 H343 0.959 . S
C337 H344 0.961 . S
C337 H345 0.960 . S
C338 C336 1.381 . S
C338 C339 1.394 . S
C338 H346 0.930 . S
C339 C338 1.394 . S
C339 C340 1.383 . S
C339 H347 0.929 . S
C340 C339 1.383 . S
C340 C341 1.377 . S
C341 H325 0.930 . S
C341 C340 1.377 . S
C341 C342 1.379 . S
C342 H326 0.931 . S
C342 C336 1.383 . S
C342 C341 1.379 . S
H343 C337 0.959 . S
H344 C337 0.961 . S
H345 C337 0.960 . S
H346 C338 0.930 . S
H347 C339 0.929 . S
H348 C356 0.929 . S
H349 C358 0.930 . S
H350 C360 0.930 . S
H351 C363 0.929 . S
H352 C366 0.930 . S
H353 C368 0.960 . S
H354 C368 0.960 . S
H355 C368 0.960 . S
C356 H348 0.929 . S
C356 C357 1.377 . S
C356 C358 1.384 . S
C357 C356 1.377 . S
C357 C363 1.390 . S
C358 H349 0.930 . S
C358 C356 1.384 . S
C358 C359 1.372 . S
C359 C358 1.372 . S
C359 C360 1.400 . S
C359 C364 1.490 . S
C360 H350 0.930 . S
C360 C359 1.400 . S
C360 C363 1.386 . S
H361 C377 0.930 . S
H362 C378 0.931 . S
C363 H351 0.929 . S
C363 C357 1.390 . S
C363 C360 1.386 . S
C364 C359 1.490 . S
C364 C366 1.395 . S
C364 C367 1.403 . S
H365 C371 0.930 . S
C366 H352 0.930 . S
C366 C364 1.395 . S
C366 C369 1.403 . S
C367 C364 1.403 . S
C367 C368 1.524 . S
C367 C371 1.400 . S
C368 H353 0.960 . S
C368 H354 0.960 . S
C368 H355 0.960 . S
C368 C367 1.524 . S
C369 C366 1.403 . S
C369 C370 1.392 . S
C369 C373 1.495 . S
C370 C369 1.392 . S
C370 C371 1.385 . S
C370 C372 1.478 . S
C371 H365 0.930 . S
C371 C367 1.400 . S
C371 C370 1.385 . S
C372 C370 1.478 . S
C372 C374 1.381 . S
C372 C378 1.383 . S
C373 C369 1.495 . S
C373 H379 0.959 . S
C373 H380 0.961 . S
C373 H381 0.960 . S
C374 C372 1.381 . S
C374 C375 1.394 . S
C374 H382 0.930 . S
C375 C374 1.394 . S
C375 C376 1.383 . S
C375 H383 0.929 . S
C376 C375 1.383 . S
C376 C377 1.377 . S
C377 H361 0.930 . S
C377 C376 1.377 . S
C377 C378 1.379 . S
C378 H362 0.931 . S
C378 C372 1.383 . S
C378 C377 1.379 . S
H379 C373 0.959 . S
H380 C373 0.961 . S
H381 C373 0.960 . S
H382 C374 0.930 . S
H383 C375 0.929 . S
H384 C392 0.929 . S
H385 C394 0.930 . S
H386 C396 0.930 . S
H387 C399 0.929 . S
H388 C402 0.930 . S
H389 C404 0.960 . S
H390 C404 0.960 . S
H391 C404 0.960 . S
C392 H384 0.929 . S
C392 C393 1.377 . S
C392 C394 1.384 . S
C393 C392 1.377 . S
C393 C399 1.390 . S
C394 H385 0.930 . S
C394 C392 1.384 . S
C394 C395 1.372 . S
C395 C394 1.372 . S
C395 C396 1.400 . S
C395 C400 1.490 . S
C396 H386 0.930 . S
C396 C395 1.400 . S
C396 C399 1.386 . S
H397 C413 0.930 . S
H398 C414 0.931 . S
C399 H387 0.929 . S
C399 C393 1.390 . S
C399 C396 1.386 . S
C400 C395 1.490 . S
C400 C402 1.395 . S
C400 C403 1.403 . S
H401 C407 0.930 . S
C402 H388 0.930 . S
C402 C400 1.395 . S
C402 C405 1.403 . S
C403 C400 1.403 . S
C403 C404 1.524 . S
C403 C407 1.400 . S
C404 H389 0.960 . S
C404 H390 0.960 . S
C404 H391 0.960 . S
C404 C403 1.524 . S
C405 C402 1.403 . S
C405 C406 1.392 . S
C405 C409 1.495 . S
C406 C405 1.392 . S
C406 C407 1.385 . S
C406 C408 1.478 . S
C407 H401 0.930 . S
C407 C403 1.400 . S
C407 C406 1.385 . S
C408 C406 1.478 . S
C408 C410 1.381 . S
C408 C414 1.383 . S
C409 C405 1.495 . S
C409 H415 0.959 . S
C409 H416 0.961 . S
C409 H417 0.960 . S
C410 C408 1.381 . S
C410 C411 1.394 . S
C410 H418 0.930 . S
C411 C410 1.394 . S
C411 C412 1.383 . S
C411 H419 0.929 . S
C412 C411 1.383 . S
C412 C413 1.377 . S
C413 H397 0.930 . S
C413 C412 1.377 . S
C413 C414 1.379 . S
C414 H398 0.931 . S
C414 C408 1.383 . S
C414 C413 1.379 . S
H415 C409 0.959 . S
H416 C409 0.961 . S
H417 C409 0.960 . S
H418 C410 0.930 . S
H419 C411 0.929 . S
H420 C428 0.929 . S
H421 C430 0.930 . S
H422 C432 0.930 . S
H423 C435 0.929 . S
H424 C438 0.930 . S
H425 C440 0.960 . S
H426 C440 0.960 . S
H427 C440 0.960 . S
C428 H420 0.929 . S
C428 C429 1.377 . S
C428 C430 1.384 . S
C429 C428 1.377 . S
C429 C435 1.390 . S
C430 H421 0.930 . S
C430 C428 1.384 . S
C430 C431 1.372 . S
C431 C430 1.372 . S
C431 C432 1.400 . S
C431 C436 1.490 . S
C432 H422 0.930 . S
C432 C431 1.400 . S
C432 C435 1.386 . S
H433 C449 0.930 . S
H434 C450 0.931 . S
C435 H423 0.929 . S
C435 C429 1.390 . S
C435 C432 1.386 . S
C436 C431 1.490 . S
C436 C438 1.395 . S
C436 C439 1.403 . S
H437 C443 0.930 . S
C438 H424 0.930 . S
C438 C436 1.395 . S
C438 C441 1.403 . S
C439 C436 1.403 . S
C439 C440 1.524 . S
C439 C443 1.400 . S
C440 H425 0.960 . S
C440 H426 0.960 . S
C440 H427 0.960 . S
C440 C439 1.524 . S
C441 C438 1.403 . S
C441 C442 1.392 . S
C441 C445 1.495 . S
C442 C441 1.392 . S
C442 C443 1.385 . S
C442 C444 1.478 . S
C443 H437 0.930 . S
C443 C439 1.400 . S
C443 C442 1.385 . S
C444 C442 1.478 . S
C444 C446 1.381 . S
C444 C450 1.383 . S
C445 C441 1.495 . S
C445 H451 0.959 . S
C445 H452 0.961 . S
C445 H453 0.960 . S
C446 C444 1.381 . S
C446 C447 1.394 . S
C446 H454 0.930 . S
C447 C446 1.394 . S
C447 C448 1.383 . S
C447 H455 0.929 . S
C448 C447 1.383 . S
C448 C449 1.377 . S
C449 H433 0.930 . S
C449 C448 1.377 . S
C449 C450 1.379 . S
C450 H434 0.931 . S
C450 C444 1.383 . S
C450 C449 1.379 . S
H451 C445 0.959 . S
H452 C445 0.961 . S
H453 C445 0.960 . S
H454 C446 0.930 . S
H455 C447 0.929 . S
H456 C464 0.929 . S
H457 C466 0.930 . S
H458 C468 0.930 . S
H459 C471 0.929 . S
H460 C474 0.930 . S
H461 C476 0.960 . S
H462 C476 0.960 . S
H463 C476 0.960 . S
C464 H456 0.929 . S
C464 C465 1.377 . S
C464 C466 1.384 . S
C465 C464 1.377 . S
C465 C471 1.390 . S
C466 H457 0.930 . S
C466 C464 1.384 . S
C466 C467 1.372 . S
C467 C466 1.372 . S
C467 C468 1.400 . S
C467 C472 1.490 . S
C468 H458 0.930 . S
C468 C467 1.400 . S
C468 C471 1.386 . S
H469 C485 0.930 . S
H470 C486 0.931 . S
C471 H459 0.929 . S
C471 C465 1.390 . S
C471 C468 1.386 . S
C472 C467 1.490 . S
C472 C474 1.395 . S
C472 C475 1.403 . S
H473 C479 0.930 . S
C474 H460 0.930 . S
C474 C472 1.395 . S
C474 C477 1.403 . S
C475 C472 1.403 . S
C475 C476 1.524 . S
C475 C479 1.400 . S
C476 H461 0.960 . S
C476 H462 0.960 . S
C476 H463 0.960 . S
C476 C475 1.524 . S
C477 C474 1.403 . S
C477 C478 1.392 . S
C477 C481 1.495 . S
C478 C477 1.392 . S
C478 C479 1.385 . S
C478 C480 1.478 . S
C479 H473 0.930 . S
C479 C475 1.400 . S
C479 C478 1.385 . S
C480 C478 1.478 . S
C480 C482 1.381 . S
C480 C486 1.383 . S
C481 C477 1.495 . S
C481 H487 0.959 . S
C481 H488 0.961 . S
C481 H489 0.960 . S
C482 C480 1.381 . S
C482 C483 1.394 . S
C482 H490 0.930 . S
C483 C482 1.394 . S
C483 C484 1.383 . S
C483 H491 0.929 . S
C484 C483 1.383 . S
C484 C485 1.377 . S
C485 H469 0.930 . S
C485 C484 1.377 . S
C485 C486 1.379 . S
C486 H470 0.931 . S
C486 C480 1.383 . S
C486 C485 1.379 . S
H487 C481 0.959 . S
H488 C481 0.961 . S
H489 C481 0.960 . S
H490 C482 0.930 . S
H491 C483 0.929 . S
H492 C500 0.929 . S
H493 C502 0.930 . S
H494 C504 0.930 . S
H495 C507 0.929 . S
H496 C510 0.930 . S
H497 C512 0.960 . S
H498 C512 0.960 . S
H499 C512 0.960 . S
C500 H492 0.929 . S
C500 C501 1.377 . S
C500 C502 1.384 . S
C501 C500 1.377 . S
C501 C507 1.390 . S
C502 H493 0.930 . S
C502 C500 1.384 . S
C502 C503 1.372 . S
C503 C502 1.372 . S
C503 C504 1.400 . S
C503 C508 1.490 . S
C504 H494 0.930 . S
C504 C503 1.400 . S
C504 C507 1.386 . S
H505 C521 0.930 . S
H506 C522 0.931 . S
C507 H495 0.929 . S
C507 C501 1.390 . S
C507 C504 1.386 . S
C508 C503 1.490 . S
C508 C510 1.395 . S
C508 C511 1.403 . S
H509 C515 0.930 . S
C510 H496 0.930 . S
C510 C508 1.395 . S
C510 C513 1.403 . S
C511 C508 1.403 . S
C511 C512 1.524 . S
C511 C515 1.400 . S
C512 H497 0.960 . S
C512 H498 0.960 . S
C512 H499 0.960 . S
C512 C511 1.524 . S
C513 C510 1.403 . S
C513 C514 1.392 . S
C513 C517 1.495 . S
C514 C513 1.392 . S
C514 C515 1.385 . S
C514 C516 1.478 . S
C515 H509 0.930 . S
C515 C511 1.400 . S
C515 C514 1.385 . S
C516 C514 1.478 . S
C516 C518 1.381 . S
C516 C522 1.383 . S
C517 C513 1.495 . S
C517 H523 0.959 . S
C517 H524 0.961 . S
C517 H525 0.960 . S
C518 C516 1.381 . S
C518 C519 1.394 . S
C518 H526 0.930 . S
C519 C518 1.394 . S
C519 C520 1.383 . S
C519 H527 0.929 . S
C520 C519 1.383 . S
C520 C521 1.377 . S
C521 H505 0.930 . S
C521 C520 1.377 . S
C521 C522 1.379 . S
C522 H506 0.931 . S
C522 C516 1.383 . S
C522 C521 1.379 . S
H523 C517 0.959 . S
H524 C517 0.961 . S
H525 C517 0.960 . S
H526 C518 0.930 . S
H527 C519 0.929 . S
H528 C536 0.929 . S
H529 C538 0.930 . S
H530 C540 0.930 . S
H531 C543 0.929 . S
H532 C546 0.930 . S
H533 C548 0.960 . S
H534 C548 0.960 . S
H535 C548 0.960 . S
C536 H528 0.929 . S
C536 C537 1.377 . S
C536 C538 1.384 . S
C537 C536 1.377 . S
C537 C543 1.390 . S
C538 H529 0.930 . S
C538 C536 1.384 . S
C538 C539 1.372 . S
C539 C538 1.372 . S
C539 C540 1.400 . S
C539 C544 1.490 . S
C540 H530 0.930 . S
C540 C539 1.400 . S
C540 C543 1.386 . S
H541 C557 0.930 . S
H542 C558 0.931 . S
C543 H531 0.929 . S
C543 C537 1.390 . S
C543 C540 1.386 . S
C544 C539 1.490 . S
C544 C546 1.395 . S
C544 C547 1.403 . S
H545 C551 0.930 . S
C546 H532 0.930 . S
C546 C544 1.395 . S
C546 C549 1.403 . S
C547 C544 1.403 . S
C547 C548 1.524 . S
C547 C551 1.400 . S
C548 H533 0.960 . S
C548 H534 0.960 . S
C548 H535 0.960 . S
C548 C547 1.524 . S
C549 C546 1.403 . S
C549 C550 1.392 . S
C549 C553 1.495 . S
C550 C549 1.392 . S
C550 C551 1.385 . S
C550 C552 1.478 . S
C551 H545 0.930 . S
C551 C547 1.400 . S
C551 C550 1.385 . S
C552 C550 1.478 . S
C552 C554 1.381 . S
C552 C558 1.383 . S
C553 C549 1.495 . S
C553 H559 0.959 . S
C553 H560 0.961 . S
C553 H561 0.960 . S
C554 C552 1.381 . S
C554 C555 1.394 . S
C554 H562 0.930 . S
C555 C554 1.394 . S
C555 C556 1.383 . S
C555 H563 0.929 . S
C556 C555 1.383 . S
C556 C557 1.377 . S
C557 H541 0.930 . S
C557 C556 1.377 . S
C557 C558 1.379 . S
C558 H542 0.931 . S
C558 C552 1.383 . S
C558 C557 1.379 . S
H559 C553 0.959 . S
H560 C553 0.961 . S
H561 C553 0.960 . S
H562 C554 0.930 . S
H563 C555 0.929 . S
H564 C572 0.929 . S
H565 C574 0.930 . S
H566 C576 0.930 . S
H567 C579 0.929 . S
H568 C582 0.930 . S
H569 C584 0.960 . S
H570 C584 0.960 . S
H571 C584 0.960 . S
C572 H564 0.929 . S
C572 C573 1.377 . S
C572 C574 1.384 . S
C573 C572 1.377 . S
C573 C579 1.390 . S
C574 H565 0.930 . S
C574 C572 1.384 . S
C574 C575 1.372 . S
C575 C574 1.372 . S
C575 C576 1.400 . S
C575 C580 1.490 . S
C576 H566 0.930 . S
C576 C575 1.400 . S
C576 C579 1.386 . S
H577 C593 0.930 . S
H578 C594 0.931 . S
C579 H567 0.929 . S
C579 C573 1.390 . S
C579 C576 1.386 . S
C580 C575 1.490 . S
C580 C582 1.395 . S
C580 C583 1.403 . S
H581 C587 0.930 . S
C582 H568 0.930 . S
C582 C580 1.395 . S
C582 C585 1.403 1_455 S
C583 C580 1.403 . S
C583 C584 1.524 . S
C583 C587 1.400 1_455 S
C584 H569 0.960 . S
C584 H570 0.960 . S
C584 H571 0.960 . S
C584 C583 1.524 . S
C585 C582 1.403 1_655 S
C585 C586 1.392 . S
C585 C589 1.495 . S
C586 C585 1.392 . S
C586 C587 1.385 . S
C586 C588 1.478 . S
C587 H581 0.930 . S
C587 C583 1.400 1_655 S
C587 C586 1.385 . S
C588 C586 1.478 . S
C588 C590 1.381 . S
C588 C594 1.383 . S
C589 C585 1.495 . S
C589 H595 0.959 . S
C589 H596 0.961 . S
C589 H597 0.960 . S
C590 C588 1.381 . S
C590 C591 1.394 . S
C590 H598 0.930 . S
C591 C590 1.394 . S
C591 C592 1.383 . S
C591 H599 0.929 . S
C592 C591 1.383 . S
C592 C593 1.377 . S
C593 H577 0.930 . S
C593 C592 1.377 . S
C593 C594 1.379 . S
C594 H578 0.931 . S
C594 C588 1.383 . S
C594 C593 1.379 . S
H595 C589 0.959 . S
H596 C589 0.961 . S
H597 C589 0.960 . S
H598 C590 0.930 . S
H599 C591 0.929 . S
H600 C608 0.929 . S
H601 C610 0.930 . S
H602 C612 0.930 . S
H603 C615 0.929 . S
H604 C618 0.930 . S
H605 C620 0.960 . S
H606 C620 0.960 . S
H607 C620 0.960 . S
C608 H600 0.929 . S
C608 C609 1.377 . S
C608 C610 1.384 . S
C609 C608 1.377 . S
C609 C615 1.390 . S
C610 H601 0.930 . S
C610 C608 1.384 . S
C610 C611 1.372 . S
C611 C610 1.372 . S
C611 C612 1.400 . S
C611 C616 1.490 . S
C612 H602 0.930 . S
C612 C611 1.400 . S
C612 C615 1.386 . S
H613 C629 0.930 . S
H614 C630 0.931 . S
C615 H603 0.929 . S
C615 C609 1.390 . S
C615 C612 1.386 . S
C616 C611 1.490 . S
C616 C618 1.395 . S
C616 C619 1.403 . S
H617 C623 0.930 . S
C618 H604 0.930 . S
C618 C616 1.395 . S
C618 C621 1.403 1_545 S
C619 C616 1.403 . S
C619 C620 1.524 . S
C619 C623 1.400 1_545 S
C620 H605 0.960 . S
C620 H606 0.960 . S
C620 H607 0.960 . S
C620 C619 1.524 . S
C621 C618 1.403 1_565 S
C621 C622 1.392 . S
C621 C625 1.495 . S
C622 C621 1.392 . S
C622 C623 1.385 . S
C622 C624 1.478 . S
C623 H617 0.930 . S
C623 C619 1.400 1_565 S
C623 C622 1.385 . S
C624 C622 1.478 . S
C624 C626 1.381 . S
C624 C630 1.383 . S
C625 C621 1.495 . S
C625 H631 0.959 . S
C625 H632 0.961 . S
C625 H633 0.960 . S
C626 C624 1.381 . S
C626 C627 1.394 . S
C626 H634 0.930 . S
C627 C626 1.394 . S
C627 C628 1.383 . S
C627 H635 0.929 . S
C628 C627 1.383 . S
C628 C629 1.377 . S
C629 H613 0.930 . S
C629 C628 1.377 . S
C629 C630 1.379 . S
C630 H614 0.931 . S
C630 C624 1.383 . S
C630 C629 1.379 . S
H631 C625 0.959 . S
H632 C625 0.961 . S
H633 C625 0.960 . S
H634 C626 0.930 . S
H635 C627 0.929 . S
H636 C644 0.929 . S
H637 C646 0.930 . S
H638 C648 0.930 . S
H639 C651 0.929 . S
H640 C654 0.930 . S
H641 C656 0.960 . S
H642 C656 0.960 . S
H643 C656 0.960 . S
C644 H636 0.929 . S
C644 C645 1.377 . S
C644 C646 1.384 . S
C645 C644 1.377 . S
C645 C651 1.390 . S
C646 H637 0.930 . S
C646 C644 1.384 . S
C646 C647 1.372 . S
C647 C646 1.372 . S
C647 C648 1.400 . S
C647 C652 1.490 . S
C648 H638 0.930 . S
C648 C647 1.400 . S
C648 C651 1.386 . S
H649 C665 0.930 . S
H650 C666 0.931 . S
C651 H639 0.929 . S
C651 C645 1.390 . S
C651 C648 1.386 . S
C652 C647 1.490 . S
C652 C654 1.395 . S
C652 C655 1.403 . S
H653 C659 0.930 . S
C654 H640 0.930 . S
C654 C652 1.395 . S
C654 C657 1.403 . S
C655 C652 1.403 . S
C655 C656 1.524 . S
C655 C659 1.400 . S
C656 H641 0.960 . S
C656 H642 0.960 . S
C656 H643 0.960 . S
C656 C655 1.524 . S
C657 C654 1.403 . S
C657 C658 1.392 . S
C657 C661 1.495 . S
C658 C657 1.392 . S
C658 C659 1.385 . S
C658 C660 1.478 . S
C659 H653 0.930 . S
C659 C655 1.400 . S
C659 C658 1.385 . S
C660 C658 1.478 . S
C660 C662 1.381 . S
C660 C666 1.383 . S
C661 C657 1.495 . S
C661 H667 0.959 . S
C661 H668 0.961 . S
C661 H669 0.960 . S
C662 C660 1.381 . S
C662 C663 1.394 . S
C662 H670 0.930 . S
C663 C662 1.394 . S
C663 C664 1.383 . S
C663 H671 0.929 . S
C664 C663 1.383 . S
C664 C665 1.377 . S
C665 H649 0.930 . S
C665 C664 1.377 . S
C665 C666 1.379 . S
C666 H650 0.931 . S
C666 C660 1.383 . S
C666 C665 1.379 . S
H667 C661 0.959 . S
H668 C661 0.961 . S
H669 C661 0.960 . S
H670 C662 0.930 . S
H671 C663 0.929 . S
H672 C680 0.929 . S
H673 C682 0.930 . S
H674 C684 0.930 . S
H675 C687 0.929 . S
H676 C690 0.930 . S
H677 C692 0.960 . S
H678 C692 0.960 . S
H679 C692 0.960 . S
C680 H672 0.929 . S
C680 C681 1.377 . S
C680 C682 1.384 . S
C681 C680 1.377 . S
C681 C687 1.390 . S
C682 H673 0.930 . S
C682 C680 1.384 . S
C682 C683 1.372 . S
C683 C682 1.372 . S
C683 C684 1.400 . S
C683 C688 1.490 . S
C684 H674 0.930 . S
C684 C683 1.400 . S
C684 C687 1.386 . S
H685 C701 0.930 . S
H686 C702 0.931 . S
C687 H675 0.929 . S
C687 C681 1.390 . S
C687 C684 1.386 . S
C688 C683 1.490 . S
C688 C690 1.395 . S
C688 C691 1.403 . S
H689 C695 0.930 . S
C690 H676 0.930 . S
C690 C688 1.395 . S
C690 C693 1.403 1_655 S
C691 C688 1.403 . S
C691 C692 1.524 . S
C691 C695 1.400 1_655 S
C692 H677 0.960 . S
C692 H678 0.960 . S
C692 H679 0.960 . S
C692 C691 1.524 . S
C693 C690 1.403 1_455 S
C693 C694 1.392 . S
C693 C697 1.495 . S
C694 C693 1.392 . S
C694 C695 1.385 . S
C694 C696 1.478 . S
C695 H689 0.930 . S
C695 C691 1.400 1_455 S
C695 C694 1.385 . S
C696 C694 1.478 . S
C696 C698 1.381 . S
C696 C702 1.383 . S
C697 C693 1.495 . S
C697 H703 0.959 . S
C697 H704 0.961 . S
C697 H705 0.960 . S
C698 C696 1.381 . S
C698 C699 1.394 . S
C698 H706 0.930 . S
C699 C698 1.394 . S
C699 C700 1.383 . S
C699 H707 0.929 . S
C700 C699 1.383 . S
C700 C701 1.377 . S
C701 H685 0.930 . S
C701 C700 1.377 . S
C701 C702 1.379 . S
C702 H686 0.931 . S
C702 C696 1.383 . S
C702 C701 1.379 . S
H703 C697 0.959 . S
H704 C697 0.961 . S
H705 C697 0.960 . S
H706 C698 0.930 . S
H707 C699 0.929 . S
H708 C716 0.929 . S
H709 C718 0.930 . S
H710 C720 0.930 . S
H711 C723 0.929 . S
H712 C726 0.930 . S
H713 C728 0.960 . S
H714 C728 0.960 . S
H715 C728 0.960 . S
C716 H708 0.929 . S
C716 C717 1.377 . S
C716 C718 1.384 . S
C717 C716 1.377 . S
C717 C723 1.390 . S
C718 H709 0.930 . S
C718 C716 1.384 . S
C718 C719 1.372 . S
C719 C718 1.372 . S
C719 C720 1.400 . S
C719 C724 1.490 . S
C720 H710 0.930 . S
C720 C719 1.400 . S
C720 C723 1.386 . S
H721 C737 0.930 . S
H722 C738 0.931 . S
C723 H711 0.929 . S
C723 C717 1.390 . S
C723 C720 1.386 . S
C724 C719 1.490 . S
C724 C726 1.395 . S
C724 C727 1.403 . S
H725 C731 0.930 . S
C726 H712 0.930 . S
C726 C724 1.395 . S
C726 C729 1.403 1_545 S
C727 C724 1.403 . S
C727 C728 1.524 . S
C727 C731 1.400 1_545 S
C728 H713 0.960 . S
C728 H714 0.960 . S
C728 H715 0.960 . S
C728 C727 1.524 . S
C729 C726 1.403 1_565 S
C729 C730 1.392 . S
C729 C733 1.495 . S
C730 C729 1.392 . S
C730 C731 1.385 . S
C730 C732 1.478 . S
C731 H725 0.930 . S
C731 C727 1.400 1_565 S
C731 C730 1.385 . S
C732 C730 1.478 . S
C732 C734 1.381 . S
C732 C738 1.383 . S
C733 C729 1.495 . S
C733 H739 0.959 . S
C733 H740 0.961 . S
C733 H741 0.960 . S
C734 C732 1.381 . S
C734 C735 1.394 . S
C734 H742 0.930 . S
C735 C734 1.394 . S
C735 C736 1.383 . S
C735 H743 0.929 . S
C736 C735 1.383 . S
C736 C737 1.377 . S
C737 H721 0.930 . S
C737 C736 1.377 . S
C737 C738 1.379 . S
C738 H722 0.931 . S
C738 C732 1.383 . S
C738 C737 1.379 . S
H739 C733 0.959 . S
H740 C733 0.961 . S
H741 C733 0.960 . S
H742 C734 0.930 . S
H743 C735 0.929 . S
H744 C752 0.929 . S
H745 C754 0.930 . S
H746 C756 0.930 . S
H747 C759 0.929 . S
H748 C762 0.930 . S
H749 C764 0.960 . S
H750 C764 0.960 . S
H751 C764 0.960 . S
C752 H744 0.929 . S
C752 C753 1.377 . S
C752 C754 1.384 . S
C753 C752 1.377 . S
C753 C759 1.390 . S
C754 H745 0.930 . S
C754 C752 1.384 . S
C754 C755 1.372 . S
C755 C754 1.372 . S
C755 C756 1.400 . S
C755 C760 1.490 . S
C756 H746 0.930 . S
C756 C755 1.400 . S
C756 C759 1.386 . S
H757 C773 0.930 . S
H758 C774 0.931 . S
C759 H747 0.929 . S
C759 C753 1.390 . S
C759 C756 1.386 . S
C760 C755 1.490 . S
C760 C762 1.395 . S
C760 C763 1.403 . S
H761 C767 0.930 . S
C762 H748 0.930 . S
C762 C760 1.395 . S
C762 C765 1.403 . S
C763 C760 1.403 . S
C763 C764 1.524 . S
C763 C767 1.400 . S
C764 H749 0.960 . S
C764 H750 0.960 . S
C764 H751 0.960 . S
C764 C763 1.524 . S
C765 C762 1.403 . S
C765 C766 1.392 . S
C765 C769 1.495 . S
C766 C765 1.392 . S
C766 C767 1.385 . S
C766 C768 1.478 . S
C767 H761 0.930 . S
C767 C763 1.400 . S
C767 C766 1.385 . S
C768 C766 1.478 . S
C768 C770 1.381 . S
C768 C774 1.383 . S
C769 C765 1.495 . S
C769 H775 0.959 . S
C769 H776 0.961 . S
C769 H777 0.960 . S
C770 C768 1.381 . S
C770 C771 1.394 . S
C770 H778 0.930 . S
C771 C770 1.394 . S
C771 C772 1.383 . S
C771 H779 0.929 . S
C772 C771 1.383 . S
C772 C773 1.377 . S
C773 H757 0.930 . S
C773 C772 1.377 . S
C773 C774 1.379 . S
C774 H758 0.931 . S
C774 C768 1.383 . S
C774 C773 1.379 . S
H775 C769 0.959 . S
H776 C769 0.961 . S
H777 C769 0.960 . S
H778 C770 0.930 . S
H779 C771 0.929 . S
C141 C118 1.589 . S
C160 C8 1.580 . S
C177 C19 1.590 . S
C196 C129 1.591 . S
C213 C74 1.588 . S
C232 C30 1.589 . S
C249 C85 1.588 . S
C268 C41 1.588 . S
C285 C96 1.588 . S
C304 C52 1.584 . S
C321 C63 1.589 . S
C340 C107 1.580 . S
C357 C95 1.606 . S
C376 C7 1.614 . S
C393 C106 1.608 . S
C412 C18 1.602 . S
C429 C29 1.605 . S
C448 C117 1.616 . S
C465 C128 1.607 . S
C484 C40 1.588 . S
C501 C73 1.602 . S
C520 C51 1.613 . S
C537 C84 1.607 . S
C556 C62 1.587 . S
C573 C5 1.412 . S
C592 C126 1.428 . S
C609 C16 1.412 . S
C628 C71 1.433 . S
C645 C27 1.396 . S
C664 C82 1.383 . S
C681 C38 1.396 . S
C700 C93 1.383 . S
C717 C104 1.395 . S
C736 C49 1.375 . S
C753 C60 1.402 . S
C772 C115 1.372 . S
