# Generated by pormake.
# Topology neb, (4)-cn, num edge types: 1
# Building blocks:
#     Node 0, Type 0, BuildingBlock: CEKHIL_clean_sbu_0, # of connection points: 4
#     Node 1, Type 0, BuildingBlock: CEKHIL_clean_sbu_0, # of connection points: 4
#     Node 2, Type 0, BuildingBlock: CEKHIL_clean_sbu_0, # of connection points: 4
#     Node 3, Type 0, BuildingBlock: CEKHIL_clean_sbu_0, # of connection points: 4
#     Node 4, Type 0, BuildingBlock: CEKHIL_clean_sbu_0, # of connection points: 4
#     Node 5, Type 0, BuildingBlock: CEKHIL_clean_sbu_0, # of connection points: 4
#     Node 6, Type 0, BuildingBlock: CEKHIL_clean_sbu_0, # of connection points: 4
#     Node 7, Type 0, BuildingBlock: CEKHIL_clean_sbu_0, # of connection points: 4
#     Node 8, Type 0, BuildingBlock: CEKHIL_clean_sbu_0, # of connection points: 4
#     Node 9, Type 0, BuildingBlock: CEKHIL_clean_sbu_0, # of connection points: 4
#     Node 10, Type 0, BuildingBlock: CEKHIL_clean_sbu_0, # of connection points: 4
#     Node 11, Type 0, BuildingBlock: CEKHIL_clean_sbu_0, # of connection points: 4
#     Node 12, Type 0, BuildingBlock: CEKHIL_clean_sbu_0, # of connection points: 4
#     Node 13, Type 0, BuildingBlock: CEKHIL_clean_sbu_0, # of connection points: 4
#     Node 14, Type 0, BuildingBlock: CEKHIL_clean_sbu_0, # of connection points: 4
#     Node 15, Type 0, BuildingBlock: CEKHIL_clean_sbu_0, # of connection points: 4
#     Edge 16, Type (0, 0), BuildingBlock: OJICUG_clean_linker_0, # of connection points: 2
#     Edge 17, Type (0, 0), BuildingBlock: OJICUG_clean_linker_0, # of connection points: 2
#     Edge 18, Type (0, 0), BuildingBlock: OJICUG_clean_linker_0, # of connection points: 2
#     Edge 19, Type (0, 0), BuildingBlock: OJICUG_clean_linker_0, # of connection points: 2
#     Edge 20, Type (0, 0), BuildingBlock: OJICUG_clean_linker_0, # of connection points: 2
#     Edge 21, Type (0, 0), BuildingBlock: OJICUG_clean_linker_0, # of connection points: 2
#     Edge 22, Type (0, 0), BuildingBlock: OJICUG_clean_linker_0, # of connection points: 2
#     Edge 23, Type (0, 0), BuildingBlock: OJICUG_clean_linker_0, # of connection points: 2
#     Edge 24, Type (0, 0), BuildingBlock: OJICUG_clean_linker_0, # of connection points: 2
#     Edge 25, Type (0, 0), BuildingBlock: OJICUG_clean_linker_0, # of connection points: 2
#     Edge 26, Type (0, 0), BuildingBlock: OJICUG_clean_linker_0, # of connection points: 2
#     Edge 27, Type (0, 0), BuildingBlock: OJICUG_clean_linker_0, # of connection points: 2
#     Edge 28, Type (0, 0), BuildingBlock: OJICUG_clean_linker_0, # of connection points: 2
#     Edge 29, Type (0, 0), BuildingBlock: OJICUG_clean_linker_0, # of connection points: 2
#     Edge 30, Type (0, 0), BuildingBlock: OJICUG_clean_linker_0, # of connection points: 2
#     Edge 31, Type (0, 0), BuildingBlock: OJICUG_clean_linker_0, # of connection points: 2
#     Edge 32, Type (0, 0), BuildingBlock: OJICUG_clean_linker_0, # of connection points: 2
#     Edge 33, Type (0, 0), BuildingBlock: OJICUG_clean_linker_0, # of connection points: 2
#     Edge 34, Type (0, 0), BuildingBlock: OJICUG_clean_linker_0, # of connection points: 2
#     Edge 35, Type (0, 0), BuildingBlock: OJICUG_clean_linker_0, # of connection points: 2
#     Edge 36, Type (0, 0), BuildingBlock: OJICUG_clean_linker_0, # of connection points: 2
#     Edge 37, Type (0, 0), BuildingBlock: OJICUG_clean_linker_0, # of connection points: 2
#     Edge 38, Type (0, 0), BuildingBlock: OJICUG_clean_linker_0, # of connection points: 2
#     Edge 39, Type (0, 0), BuildingBlock: OJICUG_clean_linker_0, # of connection points: 2
#     Edge 40, Type (0, 0), BuildingBlock: OJICUG_clean_linker_0, # of connection points: 2
#     Edge 41, Type (0, 0), BuildingBlock: OJICUG_clean_linker_0, # of connection points: 2
#     Edge 42, Type (0, 0), BuildingBlock: OJICUG_clean_linker_0, # of connection points: 2
#     Edge 43, Type (0, 0), BuildingBlock: OJICUG_clean_linker_0, # of connection points: 2
#     Edge 44, Type (0, 0), BuildingBlock: OJICUG_clean_linker_0, # of connection points: 2
#     Edge 45, Type (0, 0), BuildingBlock: OJICUG_clean_linker_0, # of connection points: 2
#     Edge 46, Type (0, 0), BuildingBlock: OJICUG_clean_linker_0, # of connection points: 2
#     Edge 47, Type (0, 0), BuildingBlock: OJICUG_clean_linker_0, # of connection points: 2
# Relax obj value: 0.002
# Max RMSD: 0.026
# Mean RMSD: 0.026
data_MOF--net-neb--node1-CEKHIL_clean_sbu_0--edge1-OJICUG_clean_linker_0
_symmetry_space_group_name_H-M    P1
_symmetry_Int_Tables_number       1
_symmetry_cell_setting            triclinic
loop_
_symmetry_equiv_pos_as_xyz
'x, y, z'
_cell_length_a     30.219788
_cell_length_b     16.526822
_cell_length_c     54.420406
_cell_angle_alpha  90.000024
_cell_angle_beta   93.466401
_cell_angle_gamma 90.011973
loop_
_atom_site_label
_atom_site_type_symbol
_atom_site_fract_x
_atom_site_fract_y
_atom_site_fract_z
_atom_type_partial_charge
Co0 Co 0.12832 0.10862 0.46403 0.0
O1 O 0.11361 0.03445 0.48966 0.0
O2 O 0.06471 0.10491 0.46663 0.0
C3 C 0.18297 0.17209 0.48673 0.0
O4 O 0.13052 0.19351 0.43679 0.0
Co5 Co 0.22027 0.10789 0.44229 0.0
O6 O 0.20014 0.20846 0.42524 0.0
C7 C 0.15443 0.98416 0.42589 0.0
C8 C 0.07253 0.05459 0.48476 0.0
C9 C 0.15948 0.22921 0.42412 0.0
O10 O 0.1254 0.01859 0.4388 0.0
O11 O 0.19491 0.0073 0.42616 0.0
O12 O 0.14178 0.19208 0.48858 0.0
O13 O 0.18975 0.11084 0.47262 0.0
Co14 Co 0.12934 0.10804 0.81758 0.0
O15 O 0.14409 0.03397 0.79192 0.0
O16 O 0.19296 0.10436 0.81501 0.0
C17 C 0.07475 0.1716 0.79487 0.0
O18 O 0.12709 0.19281 0.84484 0.0
Co19 Co 0.03733 0.10717 0.83925 0.0
O20 O 0.05745 0.20768 0.85635 0.0
C21 C 0.10313 0.98341 0.85565 0.0
C22 C 0.18516 0.05411 0.79685 0.0
C23 C 0.09811 0.22845 0.85751 0.0
O24 O 0.13219 0.0179 0.84277 0.0
O25 O 0.06265 0.00653 0.85535 0.0
O26 O 0.11595 0.1916 0.79305 0.0
O27 O 0.06792 0.11028 0.80894 0.0
Co28 Co 0.87911 0.8928 0.56762 0.0
O29 O 0.89381 0.96695 0.54197 0.0
O30 O 0.94273 0.89653 0.56501 0.0
C31 C 0.82447 0.82928 0.54492 0.0
O32 O 0.87693 0.80795 0.59486 0.0
Co33 Co 0.78718 0.89353 0.58936 0.0
O34 O 0.80732 0.793 0.60643 0.0
C35 C 0.85301 0.01731 0.60575 0.0
C36 C 0.93489 0.94682 0.54687 0.0
C37 C 0.84798 0.77226 0.60755 0.0
O38 O 0.88203 0.98287 0.59283 0.0
O39 O 0.81253 0.99414 0.60548 0.0
O40 O 0.86567 0.8093 0.54307 0.0
O41 O 0.81768 0.89055 0.55902 0.0
Co42 Co 0.87825 0.89328 0.21401 0.0
O43 O 0.8635 0.96734 0.23967 0.0
O44 O 0.81462 0.89695 0.21658 0.0
C45 C 0.93284 0.82972 0.23672 0.0
O46 O 0.88049 0.80851 0.18675 0.0
Co47 Co 0.97024 0.89415 0.19233 0.0
O48 O 0.95013 0.79364 0.17523 0.0
C49 C 0.90444 0.01791 0.17594 0.0
C50 C 0.82243 0.9472 0.23474 0.0
C51 C 0.90947 0.77287 0.17408 0.0
O52 O 0.87539 0.98342 0.18882 0.0
O53 O 0.94492 0.99478 0.17622 0.0
O54 O 0.89164 0.80972 0.23854 0.0
O55 O 0.93967 0.89104 0.22264 0.0
Co56 Co 0.12848 0.60806 0.96401 0.0
O57 O 0.11371 0.53403 0.98967 0.0
O58 O 0.06485 0.60435 0.96655 0.0
C59 C 0.18305 0.67171 0.98672 0.0
O60 O 0.13075 0.69279 0.93674 0.0
Co61 Co 0.2205 0.60725 0.94235 0.0
O62 O 0.2004 0.70774 0.92524 0.0
C63 C 0.15471 0.48342 0.92594 0.0
C64 C 0.07264 0.55416 0.98472 0.0
C65 C 0.15974 0.72846 0.92407 0.0
O66 O 0.12565 0.51788 0.93882 0.0
O67 O 0.19519 0.5066 0.92624 0.0
O68 O 0.14184 0.69167 0.98852 0.0
O69 O 0.18989 0.61037 0.97265 0.0
Co70 Co 0.12888 0.60864 0.31758 0.0
O71 O 0.1436 0.53451 0.29194 0.0
O72 O 0.1925 0.60495 0.31501 0.0
C73 C 0.07427 0.67216 0.29488 0.0
O74 O 0.12665 0.69348 0.34482 0.0
Co75 Co 0.03691 0.60783 0.33929 0.0
O76 O 0.05703 0.7084 0.35636 0.0
C77 C 0.10272 0.48413 0.35571 0.0
C78 C 0.18468 0.55467 0.29686 0.0
C79 C 0.09769 0.72917 0.35749 0.0
O80 O 0.13176 0.51857 0.3428 0.0
O81 O 0.06225 0.50727 0.35543 0.0
O82 O 0.11547 0.69214 0.29304 0.0
O83 O 0.06745 0.61086 0.30897 0.0
Co84 Co 0.87902 0.39326 0.06758 0.0
O85 O 0.89379 0.46728 0.04192 0.0
O86 O 0.94265 0.39695 0.06503 0.0
C87 C 0.82443 0.32963 0.04489 0.0
O88 O 0.87677 0.30853 0.09485 0.0
Co89 Co 0.78702 0.39408 0.08926 0.0
O90 O 0.80713 0.29359 0.10637 0.0
C91 C 0.85282 0.5179 0.10565 0.0
C92 C 0.93485 0.44714 0.04685 0.0
C93 C 0.84779 0.27286 0.10752 0.0
O94 O 0.88188 0.48344 0.09277 0.0
O95 O 0.81235 0.49473 0.10537 0.0
O96 O 0.86564 0.30965 0.04307 0.0
O97 O 0.8176 0.39097 0.05895 0.0
Co98 Co 0.87867 0.39278 0.71406 0.0
O99 O 0.86396 0.46688 0.73972 0.0
O100 O 0.81505 0.39646 0.71666 0.0
C101 C 0.93329 0.32923 0.73675 0.0
O102 O 0.88086 0.30798 0.68681 0.0
Co103 Co 0.97061 0.39361 0.69233 0.0
O104 O 0.95047 0.29306 0.67525 0.0
C105 C 0.90479 0.51734 0.67594 0.0
C106 C 0.82288 0.44672 0.73481 0.0
C107 C 0.90981 0.2723 0.67413 0.0
O108 O 0.87577 0.48289 0.68886 0.0
O109 O 0.94526 0.4942 0.6762 0.0
O110 O 0.89209 0.30925 0.73859 0.0
O111 O 0.9401 0.39054 0.72266 0.0
Co112 Co 0.62846 0.1081 0.96406 0.0
O113 O 0.61368 0.03406 0.98972 0.0
O114 O 0.56483 0.10441 0.9666 0.0
C115 C 0.68304 0.17171 0.98677 0.0
O116 O 0.63074 0.19285 0.9368 0.0
Co117 Co 0.72048 0.10728 0.94241 0.0
O118 O 0.70039 0.20779 0.9253 0.0
C119 C 0.65469 0.98348 0.92599 0.0
C120 C 0.57261 0.0542 0.98477 0.0
C121 C 0.65973 0.22852 0.92414 0.0
O122 O 0.62563 0.01794 0.93887 0.0
O123 O 0.69517 0.00664 0.92629 0.0
O124 O 0.64183 0.19169 0.98858 0.0
O125 O 0.68987 0.11038 0.97271 0.0
Co126 Co 0.62887 0.10856 0.31755 0.0
O127 O 0.64361 0.03445 0.2919 0.0
O128 O 0.69249 0.10489 0.31497 0.0
C129 C 0.57426 0.17208 0.29485 0.0
O130 O 0.62666 0.19338 0.34479 0.0
Co131 Co 0.53691 0.10774 0.33926 0.0
O132 O 0.55704 0.2083 0.35633 0.0
C133 C 0.60273 0.98402 0.35567 0.0
C134 C 0.68468 0.05462 0.29682 0.0
C135 C 0.5977 0.22906 0.35747 0.0
O136 O 0.63176 0.01847 0.34276 0.0
O137 O 0.56226 0.00716 0.35539 0.0
O138 O 0.61546 0.19207 0.29301 0.0
O139 O 0.56745 0.11078 0.30894 0.0
Co140 Co 0.37895 0.89324 0.0676 0.0
O141 O 0.39373 0.96726 0.04193 0.0
O142 O 0.44258 0.89695 0.06505 0.0
C143 C 0.32438 0.82959 0.04489 0.0
O144 O 0.3767 0.80851 0.09487 0.0
Co145 Co 0.28695 0.89405 0.08926 0.0
O146 O 0.30705 0.79357 0.10638 0.0
C147 C 0.35274 0.01788 0.10566 0.0
C148 C 0.43479 0.94714 0.04687 0.0
C149 C 0.34772 0.77285 0.10754 0.0
O150 O 0.38179 0.98342 0.09278 0.0
O151 O 0.31226 0.9947 0.10537 0.0
O152 O 0.36559 0.80963 0.04308 0.0
O153 O 0.31754 0.89093 0.05895 0.0
Co154 Co 0.37872 0.89271 0.71406 0.0
O155 O 0.36399 0.96682 0.7397 0.0
O156 O 0.3151 0.89638 0.71664 0.0
C157 C 0.43334 0.82919 0.73676 0.0
O158 O 0.38094 0.80788 0.68681 0.0
Co159 Co 0.47068 0.89352 0.69234 0.0
O160 O 0.45056 0.79296 0.67527 0.0
C161 C 0.40486 0.01723 0.67593 0.0
C162 C 0.32292 0.94666 0.73479 0.0
C163 C 0.40989 0.77219 0.67414 0.0
O164 O 0.37583 0.98279 0.68884 0.0
O165 O 0.44533 0.99409 0.6762 0.0
O166 O 0.39214 0.80921 0.7386 0.0
O167 O 0.44015 0.89049 0.72267 0.0
Co168 Co 0.62835 0.60854 0.46399 0.0
O169 O 0.61365 0.53438 0.48963 0.0
O170 O 0.56473 0.6048 0.46659 0.0
C171 C 0.68298 0.67206 0.48669 0.0
O172 O 0.63054 0.6934 0.43675 0.0
Co173 Co 0.72029 0.60781 0.44226 0.0
O174 O 0.70015 0.70835 0.42519 0.0
C175 C 0.65446 0.48405 0.42586 0.0
C176 C 0.57257 0.5545 0.48473 0.0
C177 C 0.65949 0.7291 0.42407 0.0
O178 O 0.62544 0.51848 0.43877 0.0
O179 O 0.69494 0.50721 0.42613 0.0
O180 O 0.64179 0.69203 0.48854 0.0
O181 O 0.68978 0.61079 0.47259 0.0
Co182 Co 0.62935 0.60808 0.81763 0.0
O183 O 0.64409 0.534 0.79198 0.0
O184 O 0.69297 0.60439 0.81507 0.0
C185 C 0.57476 0.67163 0.79492 0.0
O186 O 0.62709 0.69286 0.84489 0.0
Co187 Co 0.53734 0.60722 0.8393 0.0
O188 O 0.55745 0.70774 0.8564 0.0
C189 C 0.60313 0.48346 0.85571 0.0
C190 C 0.68517 0.55414 0.79691 0.0
C191 C 0.59811 0.72851 0.85755 0.0
O192 O 0.63219 0.51795 0.84283 0.0
O193 O 0.56266 0.50659 0.85541 0.0
O194 O 0.61596 0.69163 0.7931 0.0
O195 O 0.56793 0.61032 0.809 0.0
Co196 Co 0.37918 0.39273 0.56761 0.0
O197 O 0.39387 0.46689 0.54197 0.0
O198 O 0.4428 0.39644 0.565 0.0
C199 C 0.32452 0.32925 0.54493 0.0
O200 O 0.377 0.30785 0.59485 0.0
Co201 Co 0.28726 0.39346 0.58937 0.0
O202 O 0.3074 0.2929 0.60642 0.0
C203 C 0.3531 0.5172 0.60576 0.0
C204 C 0.43495 0.44675 0.54686 0.0
C205 C 0.34806 0.27215 0.60754 0.0
O206 O 0.38212 0.48277 0.59284 0.0
O207 O 0.31263 0.49405 0.60549 0.0
O208 O 0.36572 0.30926 0.54307 0.0
O209 O 0.31775 0.39051 0.55903 0.0
Co210 Co 0.3782 0.39326 0.21403 0.0
O211 O 0.36347 0.46732 0.23969 0.0
O212 O 0.31458 0.39695 0.21661 0.0
C213 C 0.4328 0.32969 0.23672 0.0
O214 O 0.38042 0.3085 0.18676 0.0
Co215 Co 0.47018 0.39413 0.19233 0.0
O216 O 0.45005 0.29363 0.17523 0.0
C217 C 0.40438 0.5179 0.17595 0.0
C218 C 0.32239 0.44719 0.23477 0.0
C219 C 0.40939 0.27286 0.17408 0.0
O220 O 0.37533 0.48341 0.18884 0.0
O221 O 0.44485 0.49477 0.17623 0.0
O222 O 0.3916 0.30969 0.23855 0.0
O223 O 0.43962 0.39101 0.22265 0.0
C224 C 0.2975 0.22487 0.51424 0.0
C225 C 0.28818 0.28822 0.53039 0.0
H226 H 0.27162 0.13891 0.48762 0.0
C227 C 0.24407 0.31362 0.53184 0.0
H228 H 0.3312 0.20412 0.51264 0.0
C229 C 0.20999 0.27646 0.51742 0.0
C230 C 0.21931 0.21311 0.50127 0.0
H231 H 0.23587 0.36242 0.54404 0.0
H232 H 0.17629 0.29721 0.51902 0.0
C233 C 0.26341 0.18771 0.49982 0.0
C234 C 0.01433 0.94958 0.5358 0.0
C235 C 0.97037 0.9758 0.53138 0.0
H236 H 0.08091 0.95319 0.52443 0.0
C237 C 0.96012 0.0272 0.51121 0.0
H238 H 0.02329 0.90963 0.55108 0.0
C239 C 0.99309 0.05184 0.49583 0.0
C240 C 0.03705 0.02561 0.50026 0.0
H241 H 0.92651 0.04822 0.5072 0.0
H242 H 0.98413 0.09179 0.48055 0.0
C243 C 0.0473 0.97421 0.52042 0.0
C244 C 0.24345 0.94931 0.74582 0.0
C245 C 0.28741 0.97556 0.75027 0.0
H246 H 0.17686 0.95283 0.75715 0.0
C247 C 0.29763 0.02691 0.77046 0.0
H248 H 0.23452 0.90941 0.73052 0.0
C249 C 0.26463 0.05146 0.78583 0.0
C250 C 0.22067 0.02521 0.78137 0.0
H251 H 0.33123 0.04794 0.77449 0.0
H252 H 0.27356 0.09137 0.80112 0.0
C253 C 0.21046 0.97387 0.76119 0.0
C254 C 0.0478 0.27618 0.76424 0.0
C255 C 0.03843 0.21274 0.78034 0.0
H256 H 0.02197 0.36235 0.73766 0.0
C257 C 0.99431 0.18736 0.78177 0.0
H258 H 0.08151 0.29693 0.76266 0.0
C259 C 0.96025 0.22465 0.76737 0.0
C260 C 0.96962 0.2881 0.75127 0.0
H261 H 0.98607 0.13848 0.79394 0.0
H262 H 0.92654 0.2039 0.76895 0.0
C263 C 0.01373 0.31347 0.74984 0.0
C264 C 0.74403 0.81363 0.53181 0.0
C265 C 0.78814 0.78823 0.53037 0.0
H266 H 0.67626 0.79721 0.51896 0.0
C267 C 0.79749 0.72488 0.51424 0.0
H268 H 0.73581 0.86244 0.544 0.0
C269 C 0.76342 0.6877 0.49981 0.0
C270 C 0.71931 0.7131 0.50124 0.0
H271 H 0.83119 0.70412 0.51265 0.0
H272 H 0.77164 0.63889 0.48761 0.0
C273 C 0.70996 0.77645 0.51738 0.0
C274 C 0.76414 0.05197 0.28579 0.0
C275 C 0.72018 0.02572 0.28133 0.0
H276 H 0.83074 0.04846 0.27445 0.0
C277 C 0.70997 0.97438 0.26114 0.0
H278 H 0.77308 0.09187 0.30108 0.0
C279 C 0.74296 0.94984 0.24577 0.0
C280 C 0.78692 0.97609 0.25022 0.0
H281 H 0.67636 0.95335 0.25711 0.0
H282 H 0.73403 0.90994 0.23047 0.0
C283 C 0.79714 0.02743 0.27041 0.0
C284 C 0.95978 0.72516 0.26736 0.0
C285 C 0.96915 0.78859 0.25125 0.0
H286 H 0.98559 0.63902 0.29394 0.0
C287 C 0.01327 0.81397 0.24983 0.0
H288 H 0.92607 0.70442 0.26893 0.0
C289 C 0.04733 0.7767 0.26424 0.0
C290 C 0.03795 0.71327 0.28035 0.0
H291 H 0.02152 0.86284 0.23765 0.0
H292 H 0.08104 0.79745 0.26266 0.0
C293 C 0.99384 0.68789 0.28177 0.0
C294 C 0.24397 0.81373 0.03175 0.0
C295 C 0.28809 0.78839 0.03035 0.0
H296 H 0.17622 0.79711 0.01889 0.0
C297 C 0.29749 0.72491 1.01427 0.0
H298 H 0.2357 0.86264 0.0439 0.0
C299 C 0.26346 0.68756 0.99986 0.0
C300 C 0.21934 0.71291 1.00126 0.0
H301 H 0.33121 0.70419 1.01272 0.0
H302 H 0.27173 0.63865 0.98771 0.0
C303 C 0.20994 0.77639 0.01734 0.0
C304 C 0.99317 0.55161 0.99575 0.0
C305 C 0.03712 0.52535 1.00022 0.0
H306 H 0.92657 0.54821 1.0071 0.0
C307 C 0.04732 0.47411 0.02043 0.0
H308 H 0.98425 0.59144 0.98044 0.0
C309 C 0.01432 0.44968 0.03582 0.0
C310 C 0.97037 0.47594 0.03135 0.0
H311 H 0.08091 0.45307 0.02447 0.0
H312 H 0.02324 0.40985 0.05113 0.0
C313 C 0.96017 0.52718 1.01114 0.0
C314 C 0.29712 0.52743 0.27044 0.0
C315 C 0.2869 0.47609 0.25026 0.0
H316 H 0.27308 0.5919 0.30111 0.0
C317 C 0.24293 0.44985 0.24581 0.0
H318 H 0.33073 0.54846 0.27447 0.0
C319 C 0.20995 0.47441 0.26119 0.0
C320 C 0.22018 0.52575 0.28137 0.0
H321 H 0.23399 0.40994 0.23051 0.0
H322 H 0.17634 0.45338 0.25716 0.0
C323 C 0.26414 0.55199 0.28582 0.0
C324 C 0.76346 0.18758 0.99989 0.0
C325 C 0.71934 0.21292 1.0013 0.0
H326 H 0.83122 0.20421 1.01272 0.0
C327 C 0.70996 0.2764 0.01738 0.0
H328 H 0.77171 0.13867 0.98773 0.0
C329 C 0.74401 0.31376 0.03178 0.0
C330 C 0.78813 0.28842 0.03037 0.0
H331 H 0.67624 0.29712 0.01895 0.0
H332 H 0.73575 0.36267 0.04394 0.0
C333 C 0.79751 0.22493 1.01428 0.0
C334 C 0.71045 0.47391 0.76124 0.0
C335 C 0.72067 0.52524 0.78142 0.0
H336 H 0.73449 0.40947 0.73056 0.0
C337 C 0.76463 0.55149 0.78587 0.0
H338 H 0.67684 0.45288 0.75721 0.0
C339 C 0.79762 0.52694 0.77049 0.0
C340 C 0.78739 0.47561 0.75031 0.0
H341 H 0.77357 0.59138 0.80117 0.0
H342 H 0.83122 0.54797 0.77452 0.0
C343 C 0.74343 0.44936 0.74586 0.0
C344 C 0.54727 0.97414 0.02047 0.0
C345 C 0.53708 0.02538 1.00026 0.0
H346 H 0.52318 0.90986 0.05117 0.0
C347 C 0.49314 0.05164 0.99579 0.0
H348 H 0.58087 0.95311 0.02452 0.0
C349 C 0.46013 0.02719 1.01117 0.0
C350 C 0.47032 0.97595 0.03138 0.0
H351 H 0.48422 0.09147 0.98048 0.0
H352 H 0.42653 0.04823 1.00712 0.0
C353 C 0.51427 0.9497 0.03586 0.0
C354 C 0.51324 0.31392 0.24982 0.0
C355 C 0.46912 0.28855 0.25125 0.0
H356 H 0.58101 0.29739 0.26264 0.0
C357 C 0.45976 0.22511 0.26735 0.0
H358 H 0.52148 0.3628 0.23764 0.0
C359 C 0.49382 0.18783 0.28175 0.0
C360 C 0.53794 0.21321 0.28032 0.0
H361 H 0.42605 0.20436 0.26893 0.0
H362 H 0.48558 0.13895 0.29393 0.0
C363 C 0.5473 0.27665 0.26422 0.0
C364 C 0.46028 0.72465 0.7674 0.0
C365 C 0.46965 0.78808 0.75129 0.0
H366 H 0.48609 0.63851 0.79398 0.0
C367 C 0.51377 0.81346 0.74987 0.0
H368 H 0.42657 0.7039 0.76897 0.0
C369 C 0.54783 0.77619 0.76428 0.0
C370 C 0.53845 0.71276 0.78038 0.0
H371 H 0.52201 0.86233 0.73769 0.0
H372 H 0.58154 0.79693 0.7627 0.0
C373 C 0.49433 0.68738 0.78181 0.0
C374 C 0.51439 0.44949 0.53578 0.0
C375 C 0.47043 0.47572 0.53136 0.0
H376 H 0.58096 0.4531 0.5244 0.0
C377 C 0.46017 0.52712 0.5112 0.0
H378 H 0.52335 0.40954 0.55106 0.0
C379 C 0.49313 0.55175 0.49581 0.0
C380 C 0.53709 0.52552 0.50023 0.0
H381 H 0.42656 0.54815 0.50719 0.0
H382 H 0.48417 0.5917 0.48053 0.0
C383 C 0.54735 0.47412 0.52039 0.0
C384 C 0.15694 0.81875 0.37738 0.0
C385 C 0.11227 0.79466 0.3749 0.0
H386 H 0.20531 0.8964 0.39539 0.0
C387 C 0.08175 0.83238 0.38977 0.0
H388 H 0.18143 0.79096 0.36635 0.0
C389 C 0.09549 0.89276 0.40657 0.0
C390 C 0.14011 0.91718 0.40895 0.0
H391 H 0.04709 0.81531 0.38849 0.0
H392 H 0.07095 0.92069 0.41754 0.0
C393 C 0.17067 0.87919 0.39416 0.0
C394 C 0.1754 0.33242 0.39183 0.0
C395 C 0.14489 0.29469 0.40671 0.0
H396 H 0.1862 0.42069 0.36405 0.0
C397 C 0.10023 0.31877 0.40424 0.0
H398 H 0.21006 0.31536 0.39311 0.0
C399 C 0.08649 0.37919 0.38745 0.0
C400 C 0.11704 0.41717 0.37266 0.0
H401 H 0.07573 0.29097 0.41527 0.0
H402 H 0.05185 0.39639 0.38623 0.0
C403 C 0.16166 0.39277 0.37503 0.0
C404 C 0.08212 0.33159 0.88979 0.0
C405 C 0.11267 0.2939 0.87494 0.0
H406 H 0.07126 0.41986 0.91757 0.0
C407 C 0.15733 0.31801 0.87744 0.0
H408 H 0.04746 0.3145 0.8885 0.0
C409 C 0.17102 0.37844 0.89423 0.0
C410 C 0.14044 0.41641 0.909 0.0
H411 H 0.18184 0.29024 0.86642 0.0
H412 H 0.20566 0.39567 0.89548 0.0
C413 C 0.09582 0.39196 0.9066 0.0
C414 C 0.17573 0.83163 0.89179 0.0
C415 C 0.14518 0.79389 0.90664 0.0
H416 H 0.1866 0.91995 0.86403 0.0
C417 C 0.10052 0.81794 0.90414 0.0
H418 H 0.2104 0.81459 0.8931 0.0
C419 C 0.08682 0.87837 0.88734 0.0
C420 C 0.11741 0.9164 0.87258 0.0
H421 H 0.076 0.79014 0.91515 0.0
H422 H 0.05218 0.89556 0.88609 0.0
C423 C 0.16203 0.892 0.87499 0.0
C424 C 0.9257 0.16914 0.64183 0.0
C425 C 0.89521 0.20682 0.65671 0.0
H426 H 0.93648 0.08086 0.61405 0.0
C427 C 0.85055 0.1827 0.65427 0.0
H428 H 0.96037 0.18623 0.64309 0.0
C429 C 0.8368 0.12225 0.63749 0.0
C430 C 0.86734 0.08429 0.62268 0.0
H431 H 0.82607 0.21046 0.66531 0.0
H432 H 0.80216 0.10501 0.63628 0.0
C433 C 0.91196 0.10876 0.62504 0.0
C434 C 0.921 0.6223 0.6442 0.0
C435 C 0.89046 0.58431 0.65901 0.0
H436 H 0.93173 0.71051 0.61637 0.0
C437 C 0.84584 0.60873 0.65664 0.0
H438 H 0.95564 0.60509 0.64542 0.0
C439 C 0.83209 0.66908 0.63984 0.0
C440 C 0.86259 0.7068 0.62496 0.0
H441 H 0.82131 0.58081 0.66763 0.0
H442 H 0.79743 0.68614 0.63858 0.0
C443 C 0.90725 0.68272 0.62742 0.0
C444 C 0.83654 0.62289 0.13736 0.0
C445 C 0.86711 0.58491 0.12259 0.0
H446 H 0.82573 0.7111 0.16518 0.0
C447 C 0.91173 0.60936 0.12498 0.0
H448 H 0.80189 0.60566 0.13612 0.0
C449 C 0.92544 0.66973 0.14179 0.0
C450 C 0.8949 0.70742 0.15665 0.0
H451 H 0.93629 0.58144 0.11402 0.0
H452 H 0.9601 0.6868 0.14308 0.0
C453 C 0.85024 0.68332 0.15416 0.0
C454 C 0.92072 0.12291 0.14423 0.0
C455 C 0.89015 0.08491 0.159 0.0
H456 H 0.93153 0.21113 0.11641 0.0
C457 C 0.84553 0.10933 0.15662 0.0
H458 H 0.95536 0.1057 0.14546 0.0
C459 C 0.83182 0.1697 0.13981 0.0
C460 C 0.86236 0.20742 0.12495 0.0
H461 H 0.82098 0.08141 0.16758 0.0
H462 H 0.79716 0.18677 0.13853 0.0
C463 C 0.90702 0.18334 0.12744 0.0
C464 C 0.58211 0.83167 0.88983 0.0
C465 C 0.61266 0.79396 0.87499 0.0
H466 H 0.57123 0.91997 0.91759 0.0
C467 C 0.65732 0.81804 0.8775 0.0
H468 H 0.54744 0.81461 0.88852 0.0
C469 C 0.67101 0.87847 0.89429 0.0
C470 C 0.64042 0.91647 0.90905 0.0
H471 H 0.68185 0.79025 0.86649 0.0
H472 H 0.70566 0.89569 0.89555 0.0
C473 C 0.5958 0.89204 0.90664 0.0
C474 C 0.67573 0.3317 0.89186 0.0
C475 C 0.64518 0.29396 0.9067 0.0
H476 H 0.6866 0.42001 0.8641 0.0
C477 C 0.60052 0.31802 0.9042 0.0
H478 H 0.7104 0.31466 0.89316 0.0
C479 C 0.58682 0.37845 0.88741 0.0
C480 C 0.61741 0.41646 0.87265 0.0
H481 H 0.57599 0.29022 0.91521 0.0
H482 H 0.55218 0.39564 0.88616 0.0
C483 C 0.66203 0.39207 0.87505 0.0
C484 C 0.65695 0.31864 0.37735 0.0
C485 C 0.61229 0.29454 0.37488 0.0
H486 H 0.70533 0.39631 0.39535 0.0
C487 C 0.58178 0.33226 0.38975 0.0
H488 H 0.68144 0.29086 0.36631 0.0
C489 C 0.59552 0.39264 0.40655 0.0
C490 C 0.64014 0.41707 0.40892 0.0
H491 H 0.54711 0.31518 0.38848 0.0
H492 H 0.57098 0.42055 0.41753 0.0
C493 C 0.67069 0.37908 0.39413 0.0
C494 C 0.60024 0.81864 0.40419 0.0
C495 C 0.6449 0.79456 0.40665 0.0
H496 H 0.55186 0.89627 0.38618 0.0
C497 C 0.67541 0.83229 0.39178 0.0
H498 H 0.57574 0.79085 0.41523 0.0
C499 C 0.66167 0.89264 0.37498 0.0
C500 C 0.61705 0.91705 0.37261 0.0
H501 H 0.71007 0.81523 0.39305 0.0
H502 H 0.6862 0.92056 0.364 0.0
C503 C 0.5865 0.87906 0.3874 0.0
C504 C 0.35016 0.18329 0.15417 0.0
C505 C 0.39482 0.20741 0.15665 0.0
H506 H 0.30181 0.10561 0.13614 0.0
C507 C 0.42535 0.16974 0.14179 0.0
H508 H 0.32565 0.21105 0.1652 0.0
C509 C 0.41164 0.10936 0.12498 0.0
C510 C 0.36702 0.0849 0.1226 0.0
H511 H 0.46001 0.18683 0.14307 0.0
H512 H 0.43619 0.08147 0.11401 0.0
C513 C 0.33645 0.12286 0.13738 0.0
C514 C 0.34546 0.60932 0.15663 0.0
C515 C 0.39008 0.58491 0.15902 0.0
H516 H 0.29708 0.68673 0.13853 0.0
C517 C 0.42065 0.62292 0.14425 0.0
H518 H 0.32091 0.58137 0.16759 0.0
C519 C 0.40694 0.68336 0.12746 0.0
C520 C 0.36228 0.70741 0.12497 0.0
H521 H 0.4553 0.60573 0.14549 0.0
H522 H 0.43146 0.71115 0.11644 0.0
C523 C 0.33175 0.66969 0.13982 0.0
C524 C 0.35064 0.6826 0.65427 0.0
C525 C 0.3953 0.70671 0.65673 0.0
H526 H 0.30225 0.60494 0.63627 0.0
C527 C 0.4258 0.669 0.64186 0.0
H528 H 0.32615 0.71038 0.66531 0.0
C529 C 0.41206 0.60862 0.62506 0.0
C530 C 0.36744 0.58418 0.62269 0.0
H531 H 0.46047 0.68608 0.64312 0.0
H532 H 0.43659 0.5807 0.61408 0.0
C533 C 0.3369 0.62216 0.63749 0.0
C534 C 0.40732 0.18259 0.6274 0.0
C535 C 0.36266 0.20668 0.62495 0.0
H536 H 0.45571 0.10495 0.6454 0.0
C537 C 0.33216 0.16896 0.63983 0.0
H538 H 0.43181 0.21037 0.61635 0.0
C539 C 0.34591 0.1086 0.65663 0.0
C540 C 0.39053 0.08419 0.65899 0.0
H541 H 0.2975 0.18603 0.63857 0.0
H542 H 0.32138 0.08069 0.66761 0.0
C543 C 0.42107 0.12217 0.64418 0.0
loop_
_geom_bond_atom_site_label_1
_geom_bond_atom_site_label_2
_geom_bond_distance
_geom_bond_site_symmetry_2
_ccdc_geom_bond_type
Co0 O1 2.216 . S
Co0 O2 2.091 . S
Co0 O4 2.004 . S
Co0 O10 2.021 . S
Co0 O12 2.137 . S
Co0 O13 2.244 . S
O1 Co0 2.216 . S
O1 C8 1.247 . S
O2 Co0 2.091 . S
O2 C8 1.261 . S
C3 O12 1.247 . S
C3 O13 1.272 . S
O4 Co0 2.004 . S
O4 C9 1.259 . S
Co5 O6 2.061 . S
Co5 O11 2.052 . S
Co5 O13 2.135 . S
O6 Co5 2.061 . S
O6 C9 1.235 . S
C7 O10 1.238 . S
C7 O11 1.241 . S
C8 O1 1.247 . S
C8 O2 1.261 . S
C9 O4 1.259 . S
C9 O6 1.235 . S
O10 Co0 2.021 . S
O10 C7 1.238 . S
O11 Co5 2.052 . S
O11 C7 1.241 . S
O12 Co0 2.137 . S
O12 C3 1.247 . S
O13 Co0 2.244 . S
O13 C3 1.272 . S
O13 Co5 2.135 . S
Co14 O15 2.216 . S
Co14 O16 2.091 . S
Co14 O18 2.004 . S
Co14 O24 2.021 . S
Co14 O26 2.137 . S
Co14 O27 2.244 . S
O15 Co14 2.216 . S
O15 C22 1.247 . S
O16 Co14 2.091 . S
O16 C22 1.261 . S
C17 O26 1.247 . S
C17 O27 1.272 . S
O18 Co14 2.004 . S
O18 C23 1.259 . S
Co19 O20 2.061 . S
Co19 O25 2.052 . S
Co19 O27 2.135 . S
O20 Co19 2.061 . S
O20 C23 1.235 . S
C21 O24 1.238 . S
C21 O25 1.241 . S
C22 O15 1.247 . S
C22 O16 1.261 . S
C23 O18 1.259 . S
C23 O20 1.235 . S
O24 Co14 2.021 . S
O24 C21 1.238 . S
O25 Co19 2.052 . S
O25 C21 1.241 . S
O26 Co14 2.137 . S
O26 C17 1.247 . S
O27 Co14 2.244 . S
O27 C17 1.272 . S
O27 Co19 2.135 . S
Co28 O29 2.216 . S
Co28 O30 2.091 . S
Co28 O32 2.004 . S
Co28 O38 2.021 . S
Co28 O40 2.137 . S
Co28 O41 2.244 . S
O29 Co28 2.216 . S
O29 C36 1.247 . S
O30 Co28 2.091 . S
O30 C36 1.261 . S
C31 O40 1.247 . S
C31 O41 1.272 . S
O32 Co28 2.004 . S
O32 C37 1.259 . S
Co33 O34 2.061 . S
Co33 O39 2.052 . S
Co33 O41 2.135 . S
O34 Co33 2.061 . S
O34 C37 1.235 . S
C35 O38 1.238 . S
C35 O39 1.241 . S
C36 O29 1.247 . S
C36 O30 1.261 . S
C37 O32 1.259 . S
C37 O34 1.235 . S
O38 Co28 2.021 . S
O38 C35 1.238 . S
O39 Co33 2.052 . S
O39 C35 1.241 . S
O40 Co28 2.137 . S
O40 C31 1.247 . S
O41 Co28 2.244 . S
O41 C31 1.272 . S
O41 Co33 2.135 . S
Co42 O43 2.216 . S
Co42 O44 2.091 . S
Co42 O46 2.004 . S
Co42 O52 2.021 . S
Co42 O54 2.137 . S
Co42 O55 2.244 . S
O43 Co42 2.216 . S
O43 C50 1.247 . S
O44 Co42 2.091 . S
O44 C50 1.261 . S
C45 O54 1.247 . S
C45 O55 1.272 . S
O46 Co42 2.004 . S
O46 C51 1.259 . S
Co47 O48 2.061 . S
Co47 O53 2.052 . S
Co47 O55 2.135 . S
O48 Co47 2.061 . S
O48 C51 1.235 . S
C49 O52 1.238 . S
C49 O53 1.241 . S
C50 O43 1.247 . S
C50 O44 1.261 . S
C51 O46 1.259 . S
C51 O48 1.235 . S
O52 Co42 2.021 . S
O52 C49 1.238 . S
O53 Co47 2.052 . S
O53 C49 1.241 . S
O54 Co42 2.137 . S
O54 C45 1.247 . S
O55 Co42 2.244 . S
O55 C45 1.272 . S
O55 Co47 2.135 . S
Co56 O57 2.216 . S
Co56 O58 2.091 . S
Co56 O60 2.004 . S
Co56 O66 2.021 . S
Co56 O68 2.137 . S
Co56 O69 2.244 . S
O57 Co56 2.216 . S
O57 C64 1.247 . S
O58 Co56 2.091 . S
O58 C64 1.261 . S
C59 O68 1.247 . S
C59 O69 1.272 . S
O60 Co56 2.004 . S
O60 C65 1.259 . S
Co61 O62 2.061 . S
Co61 O67 2.052 . S
Co61 O69 2.135 . S
O62 Co61 2.061 . S
O62 C65 1.235 . S
C63 O66 1.238 . S
C63 O67 1.241 . S
C64 O57 1.247 . S
C64 O58 1.261 . S
C65 O60 1.259 . S
C65 O62 1.235 . S
O66 Co56 2.021 . S
O66 C63 1.238 . S
O67 Co61 2.052 . S
O67 C63 1.241 . S
O68 Co56 2.137 . S
O68 C59 1.247 . S
O69 Co56 2.244 . S
O69 C59 1.272 . S
O69 Co61 2.135 . S
Co70 O71 2.216 . S
Co70 O72 2.091 . S
Co70 O74 2.004 . S
Co70 O80 2.021 . S
Co70 O82 2.137 . S
Co70 O83 2.244 . S
O71 Co70 2.216 . S
O71 C78 1.247 . S
O72 Co70 2.091 . S
O72 C78 1.261 . S
C73 O82 1.247 . S
C73 O83 1.272 . S
O74 Co70 2.004 . S
O74 C79 1.259 . S
Co75 O76 2.061 . S
Co75 O81 2.052 . S
Co75 O83 2.135 . S
O76 Co75 2.061 . S
O76 C79 1.235 . S
C77 O80 1.238 . S
C77 O81 1.241 . S
C78 O71 1.247 . S
C78 O72 1.261 . S
C79 O74 1.259 . S
C79 O76 1.235 . S
O80 Co70 2.021 . S
O80 C77 1.238 . S
O81 Co75 2.052 . S
O81 C77 1.241 . S
O82 Co70 2.137 . S
O82 C73 1.247 . S
O83 Co70 2.244 . S
O83 C73 1.272 . S
O83 Co75 2.135 . S
Co84 O85 2.216 . S
Co84 O86 2.091 . S
Co84 O88 2.004 . S
Co84 O94 2.021 . S
Co84 O96 2.137 . S
Co84 O97 2.244 . S
O85 Co84 2.216 . S
O85 C92 1.247 . S
O86 Co84 2.091 . S
O86 C92 1.261 . S
C87 O96 1.247 . S
C87 O97 1.272 . S
O88 Co84 2.004 . S
O88 C93 1.259 . S
Co89 O90 2.061 . S
Co89 O95 2.052 . S
Co89 O97 2.135 . S
O90 Co89 2.061 . S
O90 C93 1.235 . S
C91 O94 1.238 . S
C91 O95 1.241 . S
C92 O85 1.247 . S
C92 O86 1.261 . S
C93 O88 1.259 . S
C93 O90 1.235 . S
O94 Co84 2.021 . S
O94 C91 1.238 . S
O95 Co89 2.052 . S
O95 C91 1.241 . S
O96 Co84 2.137 . S
O96 C87 1.247 . S
O97 Co84 2.244 . S
O97 C87 1.272 . S
O97 Co89 2.135 . S
Co98 O99 2.216 . S
Co98 O100 2.091 . S
Co98 O102 2.004 . S
Co98 O108 2.021 . S
Co98 O110 2.137 . S
Co98 O111 2.244 . S
O99 Co98 2.216 . S
O99 C106 1.247 . S
O100 Co98 2.091 . S
O100 C106 1.261 . S
C101 O110 1.247 . S
C101 O111 1.272 . S
O102 Co98 2.004 . S
O102 C107 1.259 . S
Co103 O104 2.061 . S
Co103 O109 2.052 . S
Co103 O111 2.135 . S
O104 Co103 2.061 . S
O104 C107 1.235 . S
C105 O108 1.238 . S
C105 O109 1.241 . S
C106 O99 1.247 . S
C106 O100 1.261 . S
C107 O102 1.259 . S
C107 O104 1.235 . S
O108 Co98 2.021 . S
O108 C105 1.238 . S
O109 Co103 2.052 . S
O109 C105 1.241 . S
O110 Co98 2.137 . S
O110 C101 1.247 . S
O111 Co98 2.244 . S
O111 C101 1.272 . S
O111 Co103 2.135 . S
Co112 O113 2.216 . S
Co112 O114 2.091 . S
Co112 O116 2.004 . S
Co112 O122 2.021 . S
Co112 O124 2.137 . S
Co112 O125 2.244 . S
O113 Co112 2.216 . S
O113 C120 1.247 . S
O114 Co112 2.091 . S
O114 C120 1.261 . S
C115 O124 1.247 . S
C115 O125 1.272 . S
O116 Co112 2.004 . S
O116 C121 1.259 . S
Co117 O118 2.061 . S
Co117 O123 2.052 . S
Co117 O125 2.135 . S
O118 Co117 2.061 . S
O118 C121 1.235 . S
C119 O122 1.238 . S
C119 O123 1.241 . S
C120 O113 1.247 . S
C120 O114 1.261 . S
C121 O116 1.259 . S
C121 O118 1.235 . S
O122 Co112 2.021 . S
O122 C119 1.238 . S
O123 Co117 2.052 . S
O123 C119 1.241 . S
O124 Co112 2.137 . S
O124 C115 1.247 . S
O125 Co112 2.244 . S
O125 C115 1.272 . S
O125 Co117 2.135 . S
Co126 O127 2.216 . S
Co126 O128 2.091 . S
Co126 O130 2.004 . S
Co126 O136 2.021 . S
Co126 O138 2.137 . S
Co126 O139 2.244 . S
O127 Co126 2.216 . S
O127 C134 1.247 . S
O128 Co126 2.091 . S
O128 C134 1.261 . S
C129 O138 1.247 . S
C129 O139 1.272 . S
O130 Co126 2.004 . S
O130 C135 1.259 . S
Co131 O132 2.061 . S
Co131 O137 2.052 . S
Co131 O139 2.135 . S
O132 Co131 2.061 . S
O132 C135 1.235 . S
C133 O136 1.238 . S
C133 O137 1.241 . S
C134 O127 1.247 . S
C134 O128 1.261 . S
C135 O130 1.259 . S
C135 O132 1.235 . S
O136 Co126 2.021 . S
O136 C133 1.238 . S
O137 Co131 2.052 . S
O137 C133 1.241 . S
O138 Co126 2.137 . S
O138 C129 1.247 . S
O139 Co126 2.244 . S
O139 C129 1.272 . S
O139 Co131 2.135 . S
Co140 O141 2.216 . S
Co140 O142 2.091 . S
Co140 O144 2.004 . S
Co140 O150 2.021 . S
Co140 O152 2.137 . S
Co140 O153 2.244 . S
O141 Co140 2.216 . S
O141 C148 1.247 . S
O142 Co140 2.091 . S
O142 C148 1.261 . S
C143 O152 1.247 . S
C143 O153 1.272 . S
O144 Co140 2.004 . S
O144 C149 1.259 . S
Co145 O146 2.061 . S
Co145 O151 2.052 . S
Co145 O153 2.135 . S
O146 Co145 2.061 . S
O146 C149 1.235 . S
C147 O150 1.238 . S
C147 O151 1.241 . S
C148 O141 1.247 . S
C148 O142 1.261 . S
C149 O144 1.259 . S
C149 O146 1.235 . S
O150 Co140 2.021 . S
O150 C147 1.238 . S
O151 Co145 2.052 . S
O151 C147 1.241 . S
O152 Co140 2.137 . S
O152 C143 1.247 . S
O153 Co140 2.244 . S
O153 C143 1.272 . S
O153 Co145 2.135 . S
Co154 O155 2.216 . S
Co154 O156 2.091 . S
Co154 O158 2.004 . S
Co154 O164 2.021 . S
Co154 O166 2.137 . S
Co154 O167 2.244 . S
O155 Co154 2.216 . S
O155 C162 1.247 . S
O156 Co154 2.091 . S
O156 C162 1.261 . S
C157 O166 1.247 . S
C157 O167 1.272 . S
O158 Co154 2.004 . S
O158 C163 1.259 . S
Co159 O160 2.061 . S
Co159 O165 2.052 . S
Co159 O167 2.135 . S
O160 Co159 2.061 . S
O160 C163 1.235 . S
C161 O164 1.238 . S
C161 O165 1.241 . S
C162 O155 1.247 . S
C162 O156 1.261 . S
C163 O158 1.259 . S
C163 O160 1.235 . S
O164 Co154 2.021 . S
O164 C161 1.238 . S
O165 Co159 2.052 . S
O165 C161 1.241 . S
O166 Co154 2.137 . S
O166 C157 1.247 . S
O167 Co154 2.244 . S
O167 C157 1.272 . S
O167 Co159 2.135 . S
Co168 O169 2.216 . S
Co168 O170 2.091 . S
Co168 O172 2.004 . S
Co168 O178 2.021 . S
Co168 O180 2.137 . S
Co168 O181 2.244 . S
O169 Co168 2.216 . S
O169 C176 1.247 . S
O170 Co168 2.091 . S
O170 C176 1.261 . S
C171 O180 1.247 . S
C171 O181 1.272 . S
O172 Co168 2.004 . S
O172 C177 1.259 . S
Co173 O174 2.061 . S
Co173 O179 2.052 . S
Co173 O181 2.135 . S
O174 Co173 2.061 . S
O174 C177 1.235 . S
C175 O178 1.238 . S
C175 O179 1.241 . S
C176 O169 1.247 . S
C176 O170 1.261 . S
C177 O172 1.259 . S
C177 O174 1.235 . S
O178 Co168 2.021 . S
O178 C175 1.238 . S
O179 Co173 2.052 . S
O179 C175 1.241 . S
O180 Co168 2.137 . S
O180 C171 1.247 . S
O181 Co168 2.244 . S
O181 C171 1.272 . S
O181 Co173 2.135 . S
Co182 O183 2.216 . S
Co182 O184 2.091 . S
Co182 O186 2.004 . S
Co182 O192 2.021 . S
Co182 O194 2.137 . S
Co182 O195 2.244 . S
O183 Co182 2.216 . S
O183 C190 1.247 . S
O184 Co182 2.091 . S
O184 C190 1.261 . S
C185 O194 1.247 . S
C185 O195 1.272 . S
O186 Co182 2.004 . S
O186 C191 1.259 . S
Co187 O188 2.061 . S
Co187 O193 2.052 . S
Co187 O195 2.135 . S
O188 Co187 2.061 . S
O188 C191 1.235 . S
C189 O192 1.238 . S
C189 O193 1.241 . S
C190 O183 1.247 . S
C190 O184 1.261 . S
C191 O186 1.259 . S
C191 O188 1.235 . S
O192 Co182 2.021 . S
O192 C189 1.238 . S
O193 Co187 2.052 . S
O193 C189 1.241 . S
O194 Co182 2.137 . S
O194 C185 1.247 . S
O195 Co182 2.244 . S
O195 C185 1.272 . S
O195 Co187 2.135 . S
Co196 O197 2.216 . S
Co196 O198 2.091 . S
Co196 O200 2.004 . S
Co196 O206 2.021 . S
Co196 O208 2.137 . S
Co196 O209 2.244 . S
O197 Co196 2.216 . S
O197 C204 1.247 . S
O198 Co196 2.091 . S
O198 C204 1.261 . S
C199 O208 1.247 . S
C199 O209 1.272 . S
O200 Co196 2.004 . S
O200 C205 1.259 . S
Co201 O202 2.061 . S
Co201 O207 2.052 . S
Co201 O209 2.135 . S
O202 Co201 2.061 . S
O202 C205 1.235 . S
C203 O206 1.238 . S
C203 O207 1.241 . S
C204 O197 1.247 . S
C204 O198 1.261 . S
C205 O200 1.259 . S
C205 O202 1.235 . S
O206 Co196 2.021 . S
O206 C203 1.238 . S
O207 Co201 2.052 . S
O207 C203 1.241 . S
O208 Co196 2.137 . S
O208 C199 1.247 . S
O209 Co196 2.244 . S
O209 C199 1.272 . S
O209 Co201 2.135 . S
Co210 O211 2.216 . S
Co210 O212 2.091 . S
Co210 O214 2.004 . S
Co210 O220 2.021 . S
Co210 O222 2.137 . S
Co210 O223 2.244 . S
O211 Co210 2.216 . S
O211 C218 1.247 . S
O212 Co210 2.091 . S
O212 C218 1.261 . S
C213 O222 1.247 . S
C213 O223 1.272 . S
O214 Co210 2.004 . S
O214 C219 1.259 . S
Co215 O216 2.061 . S
Co215 O221 2.052 . S
Co215 O223 2.135 . S
O216 Co215 2.061 . S
O216 C219 1.235 . S
C217 O220 1.238 . S
C217 O221 1.241 . S
C218 O211 1.247 . S
C218 O212 1.261 . S
C219 O214 1.259 . S
C219 O216 1.235 . S
O220 Co210 2.021 . S
O220 C217 1.238 . S
O221 Co215 2.052 . S
O221 C217 1.241 . S
O222 Co210 2.137 . S
O222 C213 1.247 . S
O223 Co210 2.244 . S
O223 C213 1.272 . S
O223 Co215 2.135 . S
C224 C225 1.387 . S
C224 H228 0.950 . S
C224 C233 1.390 . S
C225 C224 1.387 . S
C225 C227 1.387 . S
H226 C233 0.950 . S
C227 C225 1.387 . S
C227 C229 1.390 . S
C227 H231 0.950 . S
H228 C224 0.950 . S
C229 C227 1.390 . S
C229 C230 1.387 . S
C229 H232 0.950 . S
C230 C229 1.387 . S
C230 C233 1.387 . S
H231 C227 0.950 . S
H232 C229 0.950 . S
C233 C224 1.390 . S
C233 H226 0.950 . S
C233 C230 1.387 . S
C234 C235 1.387 1_445 S
C234 H238 0.950 . S
C234 C243 1.390 . S
C235 C234 1.387 1_665 S
C235 C237 1.387 . S
H236 C243 0.950 . S
C237 C235 1.387 . S
C237 C239 1.390 . S
C237 H241 0.950 . S
H238 C234 0.950 . S
C239 C237 1.390 . S
C239 C240 1.387 1_665 S
C239 H242 0.950 . S
C240 C239 1.387 1_445 S
C240 C243 1.387 . S
H241 C237 0.950 . S
H242 C239 0.950 . S
C243 C234 1.390 . S
C243 H236 0.950 . S
C243 C240 1.387 . S
C244 C245 1.387 . S
C244 H248 0.950 . S
C244 C253 1.390 . S
C245 C244 1.387 . S
C245 C247 1.387 1_565 S
H246 C253 0.950 . S
C247 C245 1.387 1_545 S
C247 C249 1.390 . S
C247 H251 0.950 . S
H248 C244 0.950 . S
C249 C247 1.390 . S
C249 C250 1.387 . S
C249 H252 0.950 . S
C250 C249 1.387 . S
C250 C253 1.387 1_545 S
H251 C247 0.950 . S
H252 C249 0.950 . S
C253 C244 1.390 . S
C253 H246 0.950 . S
C253 C250 1.387 1_565 S
C254 C255 1.387 . S
C254 H258 0.950 . S
C254 C263 1.390 1_455 S
C255 C254 1.387 . S
C255 C257 1.387 . S
H256 C263 0.950 . S
C257 C255 1.387 . S
C257 C259 1.390 1_455 S
C257 H261 0.950 . S
H258 C254 0.950 . S
C259 C257 1.390 1_655 S
C259 C260 1.387 . S
C259 H262 0.950 . S
C260 C259 1.387 . S
C260 C263 1.387 . S
H261 C257 0.950 . S
H262 C259 0.950 . S
C263 C254 1.390 1_655 S
C263 H256 0.950 . S
C263 C260 1.387 . S
C264 C265 1.387 . S
C264 H268 0.950 . S
C264 C273 1.390 . S
C265 C264 1.387 . S
C265 C267 1.387 . S
H266 C273 0.950 . S
C267 C265 1.387 . S
C267 C269 1.390 . S
C267 H271 0.950 . S
H268 C264 0.950 . S
C269 C267 1.390 . S
C269 C270 1.387 . S
C269 H272 0.950 . S
C270 C269 1.387 . S
C270 C273 1.387 . S
H271 C267 0.950 . S
H272 C269 0.950 . S
C273 C264 1.390 . S
C273 H266 0.950 . S
C273 C270 1.387 . S
C274 C275 1.387 . S
C274 H278 0.950 . S
C274 C283 1.390 . S
C275 C274 1.387 . S
C275 C277 1.387 1_545 S
H276 C283 0.950 . S
C277 C275 1.387 1_565 S
C277 C279 1.390 . S
C277 H281 0.950 . S
H278 C274 0.950 . S
C279 C277 1.390 . S
C279 C280 1.387 . S
C279 H282 0.950 . S
C280 C279 1.387 . S
C280 C283 1.387 1_565 S
H281 C277 0.950 . S
H282 C279 0.950 . S
C283 C274 1.390 . S
C283 H276 0.950 . S
C283 C280 1.387 1_545 S
C284 C285 1.387 . S
C284 H288 0.950 . S
C284 C293 1.390 1_655 S
C285 C284 1.387 . S
C285 C287 1.387 . S
H286 C293 0.950 . S
C287 C285 1.387 . S
C287 C289 1.390 1_655 S
C287 H291 0.950 . S
H288 C284 0.950 . S
C289 C287 1.390 1_455 S
C289 C290 1.387 . S
C289 H292 0.950 . S
C290 C289 1.387 . S
C290 C293 1.387 . S
H291 C287 0.950 . S
H292 C289 0.950 . S
C293 C284 1.390 1_455 S
C293 H286 0.950 . S
C293 C290 1.387 . S
C294 C295 1.387 1_556 S
C294 H298 0.950 . S
C294 C303 1.390 . S
C295 C294 1.387 1_554 S
C295 C297 1.387 . S
H296 C303 0.950 . S
C297 C295 1.387 . S
C297 C299 1.390 . S
C297 H301 0.950 . S
H298 C294 0.950 . S
C299 C297 1.390 . S
C299 C300 1.387 1_554 S
C299 H302 0.950 . S
C300 C299 1.387 1_556 S
C300 C303 1.387 . S
H301 C297 0.950 . S
H302 C299 0.950 . S
C303 C294 1.390 . S
C303 H296 0.950 . S
C303 C300 1.387 . S
C304 C305 1.379 1_554 S
C304 H308 0.950 . S
C304 C313 1.398 1_455 S
C305 C304 1.379 1_556 S
C305 C307 1.387 . S
H306 C313 0.950 . S
C307 C305 1.387 . S
C307 C309 1.398 1_455 S
C307 H311 0.950 . S
H308 C304 0.950 . S
C309 C307 1.398 1_655 S
C309 C310 1.379 1_556 S
C309 H312 0.950 . S
C310 C309 1.379 1_554 S
C310 C313 1.387 . S
H311 C307 0.950 . S
H312 C309 0.950 . S
C313 C304 1.398 1_655 S
C313 H306 0.950 . S
C313 C310 1.387 . S
C314 C315 1.387 . S
C314 H318 0.950 . S
C314 C323 1.390 . S
C315 C314 1.387 . S
C315 C317 1.387 . S
H316 C323 0.950 . S
C317 C315 1.387 . S
C317 C319 1.390 . S
C317 H321 0.950 . S
H318 C314 0.950 . S
C319 C317 1.390 . S
C319 C320 1.387 . S
C319 H322 0.950 . S
C320 C319 1.387 . S
C320 C323 1.387 . S
H321 C317 0.950 . S
H322 C319 0.950 . S
C323 C314 1.390 . S
C323 H316 0.950 . S
C323 C320 1.387 . S
C324 C325 1.387 1_554 S
C324 H328 0.950 . S
C324 C333 1.390 . S
C325 C324 1.387 1_556 S
C325 C327 1.387 . S
H326 C333 0.950 . S
C327 C325 1.387 . S
C327 C329 1.390 . S
C327 H331 0.950 . S
H328 C324 0.950 . S
C329 C327 1.390 . S
C329 C330 1.387 1_556 S
C329 H332 0.950 . S
C330 C329 1.387 1_554 S
C330 C333 1.387 . S
H331 C327 0.950 . S
H332 C329 0.950 . S
C333 C324 1.390 . S
C333 H326 0.950 . S
C333 C330 1.387 . S
C334 C335 1.387 . S
C334 H338 0.950 . S
C334 C343 1.390 . S
C335 C334 1.387 . S
C335 C337 1.387 . S
H336 C343 0.950 . S
C337 C335 1.387 . S
C337 C339 1.390 . S
C337 H341 0.950 . S
H338 C334 0.950 . S
C339 C337 1.390 . S
C339 C340 1.387 . S
C339 H342 0.950 . S
C340 C339 1.387 . S
C340 C343 1.387 . S
H341 C337 0.950 . S
H342 C339 0.950 . S
C343 C334 1.390 . S
C343 H336 0.950 . S
C343 C340 1.387 . S
C344 C345 1.387 1_554 S
C344 H348 0.950 . S
C344 C353 1.390 . S
C345 C344 1.387 1_556 S
C345 C347 1.387 1_545 S
H346 C353 0.950 . S
C347 C345 1.387 1_565 S
C347 C349 1.390 . S
C347 H351 0.950 . S
H348 C344 0.950 . S
C349 C347 1.390 . S
C349 C350 1.387 1_556 S
C349 H352 0.950 . S
C350 C349 1.387 1_554 S
C350 C353 1.387 1_565 S
H351 C347 0.950 . S
H352 C349 0.950 . S
C353 C344 1.390 . S
C353 H346 0.950 . S
C353 C350 1.387 1_545 S
C354 C355 1.387 . S
C354 H358 0.950 . S
C354 C363 1.390 . S
C355 C354 1.387 . S
C355 C357 1.387 . S
H356 C363 0.950 . S
C357 C355 1.387 . S
C357 C359 1.390 . S
C357 H361 0.950 . S
H358 C354 0.950 . S
C359 C357 1.390 . S
C359 C360 1.387 . S
C359 H362 0.950 . S
C360 C359 1.387 . S
C360 C363 1.387 . S
H361 C357 0.950 . S
H362 C359 0.950 . S
C363 C354 1.390 . S
C363 H356 0.950 . S
C363 C360 1.387 . S
C364 C365 1.387 . S
C364 H368 0.950 . S
C364 C373 1.390 . S
C365 C364 1.387 . S
C365 C367 1.387 . S
H366 C373 0.950 . S
C367 C365 1.387 . S
C367 C369 1.390 . S
C367 H371 0.950 . S
H368 C364 0.950 . S
C369 C367 1.390 . S
C369 C370 1.387 . S
C369 H372 0.950 . S
C370 C369 1.387 . S
C370 C373 1.387 . S
H371 C367 0.950 . S
H372 C369 0.950 . S
C373 C364 1.390 . S
C373 H366 0.950 . S
C373 C370 1.387 . S
C374 C375 1.387 . S
C374 H378 0.950 . S
C374 C383 1.390 . S
C375 C374 1.387 . S
C375 C377 1.387 . S
H376 C383 0.950 . S
C377 C375 1.387 . S
C377 C379 1.390 . S
C377 H381 0.950 . S
H378 C374 0.950 . S
C379 C377 1.390 . S
C379 C380 1.387 . S
C379 H382 0.950 . S
C380 C379 1.387 . S
C380 C383 1.387 . S
H381 C377 0.950 . S
H382 C379 0.950 . S
C383 C374 1.390 . S
C383 H376 0.950 . S
C383 C380 1.387 . S
C384 C385 1.387 . S
C384 H388 0.950 . S
C384 C393 1.390 . S
C385 C384 1.387 . S
C385 C387 1.387 . S
H386 C393 0.950 . S
C387 C385 1.387 . S
C387 C389 1.390 . S
C387 H391 0.950 . S
H388 C384 0.950 . S
C389 C387 1.390 . S
C389 C390 1.387 . S
C389 H392 0.950 . S
C390 C389 1.387 . S
C390 C393 1.387 . S
H391 C387 0.950 . S
H392 C389 0.950 . S
C393 C384 1.390 . S
C393 H386 0.950 . S
C393 C390 1.387 . S
C394 C395 1.387 . S
C394 H398 0.950 . S
C394 C403 1.390 . S
C395 C394 1.387 . S
C395 C397 1.387 . S
H396 C403 0.950 . S
C397 C395 1.387 . S
C397 C399 1.390 . S
C397 H401 0.950 . S
H398 C394 0.950 . S
C399 C397 1.390 . S
C399 C400 1.387 . S
C399 H402 0.950 . S
C400 C399 1.387 . S
C400 C403 1.387 . S
H401 C397 0.950 . S
H402 C399 0.950 . S
C403 C394 1.390 . S
C403 H396 0.950 . S
C403 C400 1.387 . S
C404 C405 1.387 . S
C404 H408 0.950 . S
C404 C413 1.390 . S
C405 C404 1.387 . S
C405 C407 1.387 . S
H406 C413 0.950 . S
C407 C405 1.387 . S
C407 C409 1.390 . S
C407 H411 0.950 . S
H408 C404 0.950 . S
C409 C407 1.390 . S
C409 C410 1.387 . S
C409 H412 0.950 . S
C410 C409 1.387 . S
C410 C413 1.387 . S
H411 C407 0.950 . S
H412 C409 0.950 . S
C413 C404 1.390 . S
C413 H406 0.950 . S
C413 C410 1.387 . S
C414 C415 1.387 . S
C414 H418 0.950 . S
C414 C423 1.390 . S
C415 C414 1.387 . S
C415 C417 1.387 . S
H416 C423 0.950 . S
C417 C415 1.387 . S
C417 C419 1.390 . S
C417 H421 0.950 . S
H418 C414 0.950 . S
C419 C417 1.390 . S
C419 C420 1.387 . S
C419 H422 0.950 . S
C420 C419 1.387 . S
C420 C423 1.387 . S
H421 C417 0.950 . S
H422 C419 0.950 . S
C423 C414 1.390 . S
C423 H416 0.950 . S
C423 C420 1.387 . S
C424 C425 1.387 . S
C424 H428 0.950 . S
C424 C433 1.390 . S
C425 C424 1.387 . S
C425 C427 1.387 . S
H426 C433 0.950 . S
C427 C425 1.387 . S
C427 C429 1.390 . S
C427 H431 0.950 . S
H428 C424 0.950 . S
C429 C427 1.390 . S
C429 C430 1.387 . S
C429 H432 0.950 1_545 S
C430 C429 1.387 . S
C430 C433 1.387 . S
H431 C427 0.950 . S
H432 C429 0.950 1_565 S
C433 C424 1.390 . S
C433 H426 0.950 . S
C433 C430 1.387 . S
C434 C435 1.387 . S
C434 H438 0.950 . S
C434 C443 1.390 . S
C435 C434 1.387 . S
C435 C437 1.387 . S
H436 C443 0.950 . S
C437 C435 1.387 . S
C437 C439 1.390 . S
C437 H441 0.950 . S
H438 C434 0.950 . S
C439 C437 1.390 . S
C439 C440 1.387 . S
C439 H442 0.950 . S
C440 C439 1.387 . S
C440 C443 1.387 . S
H441 C437 0.950 . S
H442 C439 0.950 . S
C443 C434 1.390 . S
C443 H436 0.950 . S
C443 C440 1.387 . S
C444 C445 1.387 . S
C444 H448 0.950 . S
C444 C453 1.390 . S
C445 C444 1.387 . S
C445 C447 1.387 . S
H446 C453 0.950 . S
C447 C445 1.387 . S
C447 C449 1.390 . S
C447 H451 0.950 . S
H448 C444 0.950 . S
C449 C447 1.390 . S
C449 C450 1.387 . S
C449 H452 0.950 . S
C450 C449 1.387 . S
C450 C453 1.387 . S
H451 C447 0.950 . S
H452 C449 0.950 . S
C453 C444 1.390 . S
C453 H446 0.950 . S
C453 C450 1.387 . S
C454 C455 1.387 . S
C454 H458 0.950 . S
C454 C463 1.390 . S
C455 C454 1.387 . S
C455 C457 1.387 . S
H456 C463 0.950 . S
C457 C455 1.387 . S
C457 C459 1.390 . S
C457 H461 0.950 . S
H458 C454 0.950 . S
C459 C457 1.390 . S
C459 C460 1.387 . S
C459 H462 0.950 . S
C460 C459 1.387 . S
C460 C463 1.387 . S
H461 C457 0.950 . S
H462 C459 0.950 . S
C463 C454 1.390 . S
C463 H456 0.950 . S
C463 C460 1.387 . S
C464 C465 1.387 . S
C464 H468 0.950 . S
C464 C473 1.390 . S
C465 C464 1.387 . S
C465 C467 1.387 . S
H466 C473 0.950 . S
C467 C465 1.387 . S
C467 C469 1.390 . S
C467 H471 0.950 . S
H468 C464 0.950 . S
C469 C467 1.390 . S
C469 C470 1.387 . S
C469 H472 0.950 . S
C470 C469 1.387 . S
C470 C473 1.387 . S
H471 C467 0.950 . S
H472 C469 0.950 . S
C473 C464 1.390 . S
C473 H466 0.950 . S
C473 C470 1.387 . S
C474 C475 1.387 . S
C474 H478 0.950 . S
C474 C483 1.390 . S
C475 C474 1.387 . S
C475 C477 1.387 . S
H476 C483 0.950 . S
C477 C475 1.387 . S
C477 C479 1.390 . S
C477 H481 0.950 . S
H478 C474 0.950 . S
C479 C477 1.390 . S
C479 C480 1.387 . S
C479 H482 0.950 . S
C480 C479 1.387 . S
C480 C483 1.387 . S
H481 C477 0.950 . S
H482 C479 0.950 . S
C483 C474 1.390 . S
C483 H476 0.950 . S
C483 C480 1.387 . S
C484 C485 1.387 . S
C484 H488 0.950 . S
C484 C493 1.390 . S
C485 C484 1.387 . S
C485 C487 1.387 . S
H486 C493 0.950 . S
C487 C485 1.387 . S
C487 C489 1.390 . S
C487 H491 0.950 . S
H488 C484 0.950 . S
C489 C487 1.390 . S
C489 C490 1.387 . S
C489 H492 0.950 . S
C490 C489 1.387 . S
C490 C493 1.387 . S
H491 C487 0.950 . S
H492 C489 0.950 . S
C493 C484 1.390 . S
C493 H486 0.950 . S
C493 C490 1.387 . S
C494 C495 1.387 . S
C494 H498 0.950 . S
C494 C503 1.390 . S
C495 C494 1.387 . S
C495 C497 1.387 . S
H496 C503 0.950 . S
C497 C495 1.387 . S
C497 C499 1.390 . S
C497 H501 0.950 . S
H498 C494 0.950 . S
C499 C497 1.390 . S
C499 C500 1.387 . S
C499 H502 0.950 . S
C500 C499 1.387 . S
C500 C503 1.387 . S
H501 C497 0.950 . S
H502 C499 0.950 . S
C503 C494 1.390 . S
C503 H496 0.950 . S
C503 C500 1.387 . S
C504 C505 1.387 . S
C504 H508 0.950 . S
C504 C513 1.390 . S
C505 C504 1.387 . S
C505 C507 1.387 . S
H506 C513 0.950 . S
C507 C505 1.387 . S
C507 C509 1.390 . S
C507 H511 0.950 . S
H508 C504 0.950 . S
C509 C507 1.390 . S
C509 C510 1.387 . S
C509 H512 0.950 . S
C510 C509 1.387 . S
C510 C513 1.387 . S
H511 C507 0.950 . S
H512 C509 0.950 . S
C513 C504 1.390 . S
C513 H506 0.950 . S
C513 C510 1.387 . S
C514 C515 1.387 . S
C514 H518 0.950 . S
C514 C523 1.390 . S
C515 C514 1.387 . S
C515 C517 1.387 . S
H516 C523 0.950 . S
C517 C515 1.387 . S
C517 C519 1.390 . S
C517 H521 0.950 . S
H518 C514 0.950 . S
C519 C517 1.390 . S
C519 C520 1.387 . S
C519 H522 0.950 . S
C520 C519 1.387 . S
C520 C523 1.387 . S
H521 C517 0.950 . S
H522 C519 0.950 . S
C523 C514 1.390 . S
C523 H516 0.950 . S
C523 C520 1.387 . S
C524 C525 1.387 . S
C524 H528 0.950 . S
C524 C533 1.390 . S
C525 C524 1.387 . S
C525 C527 1.387 . S
H526 C533 0.950 . S
C527 C525 1.387 . S
C527 C529 1.390 . S
C527 H531 0.950 . S
H528 C524 0.950 . S
C529 C527 1.390 . S
C529 C530 1.387 . S
C529 H532 0.950 . S
C530 C529 1.387 . S
C530 C533 1.387 . S
H531 C527 0.950 . S
H532 C529 0.950 . S
C533 C524 1.390 . S
C533 H526 0.950 . S
C533 C530 1.387 . S
C534 C535 1.387 . S
C534 H538 0.950 . S
C534 C543 1.390 . S
C535 C534 1.387 . S
C535 C537 1.387 . S
H536 C543 0.950 . S
C537 C535 1.387 . S
C537 C539 1.390 . S
C537 H541 0.950 . S
H538 C534 0.950 . S
C539 C537 1.390 . S
C539 C540 1.387 . S
C539 H542 0.950 . S
C540 C539 1.387 . S
C540 C543 1.387 . S
H541 C537 0.950 . S
H542 C539 0.950 . S
C543 C534 1.390 . S
C543 H536 0.950 . S
C543 C540 1.387 . S
C225 C199 1.495 . S
C230 C3 1.495 . S
C235 C36 1.499 . S
C240 C8 1.499 . S
C245 C162 1.499 . S
C250 C22 1.499 . S
C255 C17 1.495 . S
C260 C101 1.495 . S
C265 C31 1.495 . S
C270 C171 1.495 . S
C275 C134 1.499 . S
C280 C50 1.499 . S
C285 C45 1.494 . S
C290 C73 1.494 . S
C295 C143 1.495 . S
C300 C59 1.495 . S
C305 C64 1.499 . S
C310 C92 1.499 . S
C315 C218 1.499 . S
C320 C78 1.499 . S
C325 C115 1.494 . S
C330 C87 1.494 . S
C335 C190 1.499 . S
C340 C106 1.499 . S
C345 C120 1.499 . S
C350 C148 1.499 . S
C355 C213 1.495 . S
C360 C129 1.495 . S
C365 C157 1.494 . S
C370 C185 1.494 . S
C375 C204 1.499 . S
C380 C176 1.499 . S
C385 C79 1.443 . S
C390 C7 1.434 1_565 S
C395 C9 1.443 . S
C400 C77 1.436 . S
C405 C23 1.443 . S
C410 C63 1.435 . S
C415 C65 1.443 . S
C420 C21 1.436 1_565 S
C425 C107 1.443 . S
C430 C35 1.435 1_545 S
C435 C105 1.436 . S
C440 C37 1.443 . S
C445 C91 1.436 . S
C450 C51 1.443 . S
C455 C49 1.435 1_545 S
C460 C93 1.443 . S
C465 C191 1.444 . S
C470 C119 1.436 1_565 S
C475 C121 1.443 . S
C480 C189 1.436 . S
C485 C135 1.443 . S
C490 C175 1.434 . S
C495 C177 1.443 . S
C500 C133 1.435 1_565 S
C505 C219 1.443 . S
C510 C147 1.435 1_545 S
C515 C217 1.434 . S
C520 C149 1.443 . S
C525 C163 1.443 . S
C530 C203 1.435 . S
C535 C205 1.443 . S
C540 C161 1.435 1_545 S
