# Generated by pormake.
# Topology wir, (6)-cn, num edge types: 1
# Building blocks:
#     Node 0, Type 0, BuildingBlock: BETDAH_clean_sbu_0, # of connection points: 6
#     Node 1, Type 0, BuildingBlock: BETDAH_clean_sbu_0, # of connection points: 6
#     Node 2, Type 0, BuildingBlock: BETDAH_clean_sbu_0, # of connection points: 6
#     Node 3, Type 0, BuildingBlock: BETDAH_clean_sbu_0, # of connection points: 6
#     Node 4, Type 0, BuildingBlock: BETDAH_clean_sbu_0, # of connection points: 6
#     Node 5, Type 0, BuildingBlock: BETDAH_clean_sbu_0, # of connection points: 6
#     Node 6, Type 0, BuildingBlock: BETDAH_clean_sbu_0, # of connection points: 6
#     Node 7, Type 0, BuildingBlock: BETDAH_clean_sbu_0, # of connection points: 6
#     Node 8, Type 0, BuildingBlock: BETDAH_clean_sbu_0, # of connection points: 6
#     Node 9, Type 0, BuildingBlock: BETDAH_clean_sbu_0, # of connection points: 6
#     Node 10, Type 0, BuildingBlock: BETDAH_clean_sbu_0, # of connection points: 6
#     Node 11, Type 0, BuildingBlock: BETDAH_clean_sbu_0, # of connection points: 6
#     Node 12, Type 0, BuildingBlock: BETDAH_clean_sbu_0, # of connection points: 6
#     Node 13, Type 0, BuildingBlock: BETDAH_clean_sbu_0, # of connection points: 6
#     Node 14, Type 0, BuildingBlock: BETDAH_clean_sbu_0, # of connection points: 6
#     Node 15, Type 0, BuildingBlock: BETDAH_clean_sbu_0, # of connection points: 6
#     Node 16, Type 0, BuildingBlock: BETDAH_clean_sbu_0, # of connection points: 6
#     Node 17, Type 0, BuildingBlock: BETDAH_clean_sbu_0, # of connection points: 6
#     Node 18, Type 0, BuildingBlock: BETDAH_clean_sbu_0, # of connection points: 6
#     Node 19, Type 0, BuildingBlock: BETDAH_clean_sbu_0, # of connection points: 6
#     Node 20, Type 0, BuildingBlock: BETDAH_clean_sbu_0, # of connection points: 6
#     Node 21, Type 0, BuildingBlock: BETDAH_clean_sbu_0, # of connection points: 6
#     Node 22, Type 0, BuildingBlock: BETDAH_clean_sbu_0, # of connection points: 6
#     Node 23, Type 0, BuildingBlock: BETDAH_clean_sbu_0, # of connection points: 6
#     Node 24, Type 0, BuildingBlock: BETDAH_clean_sbu_0, # of connection points: 6
#     Node 25, Type 0, BuildingBlock: BETDAH_clean_sbu_0, # of connection points: 6
#     Node 26, Type 0, BuildingBlock: BETDAH_clean_sbu_0, # of connection points: 6
#     Node 27, Type 0, BuildingBlock: BETDAH_clean_sbu_0, # of connection points: 6
#     Node 28, Type 0, BuildingBlock: BETDAH_clean_sbu_0, # of connection points: 6
#     Node 29, Type 0, BuildingBlock: BETDAH_clean_sbu_0, # of connection points: 6
#     Node 30, Type 0, BuildingBlock: BETDAH_clean_sbu_0, # of connection points: 6
#     Node 31, Type 0, BuildingBlock: BETDAH_clean_sbu_0, # of connection points: 6
#     Edge 32, Type (0, 0), BuildingBlock: XUDNAN_clean_linker_2, # of connection points: 2
#     Edge 33, Type (0, 0), BuildingBlock: XUDNAN_clean_linker_2, # of connection points: 2
#     Edge 34, Type (0, 0), BuildingBlock: XUDNAN_clean_linker_2, # of connection points: 2
#     Edge 35, Type (0, 0), BuildingBlock: XUDNAN_clean_linker_2, # of connection points: 2
#     Edge 36, Type (0, 0), BuildingBlock: XUDNAN_clean_linker_2, # of connection points: 2
#     Edge 37, Type (0, 0), BuildingBlock: XUDNAN_clean_linker_2, # of connection points: 2
#     Edge 38, Type (0, 0), BuildingBlock: XUDNAN_clean_linker_2, # of connection points: 2
#     Edge 39, Type (0, 0), BuildingBlock: XUDNAN_clean_linker_2, # of connection points: 2
#     Edge 40, Type (0, 0), BuildingBlock: XUDNAN_clean_linker_2, # of connection points: 2
#     Edge 41, Type (0, 0), BuildingBlock: XUDNAN_clean_linker_2, # of connection points: 2
#     Edge 42, Type (0, 0), BuildingBlock: XUDNAN_clean_linker_2, # of connection points: 2
#     Edge 43, Type (0, 0), BuildingBlock: XUDNAN_clean_linker_2, # of connection points: 2
#     Edge 44, Type (0, 0), BuildingBlock: XUDNAN_clean_linker_2, # of connection points: 2
#     Edge 45, Type (0, 0), BuildingBlock: XUDNAN_clean_linker_2, # of connection points: 2
#     Edge 46, Type (0, 0), BuildingBlock: XUDNAN_clean_linker_2, # of connection points: 2
#     Edge 47, Type (0, 0), BuildingBlock: XUDNAN_clean_linker_2, # of connection points: 2
#     Edge 48, Type (0, 0), BuildingBlock: XUDNAN_clean_linker_2, # of connection points: 2
#     Edge 49, Type (0, 0), BuildingBlock: XUDNAN_clean_linker_2, # of connection points: 2
#     Edge 50, Type (0, 0), BuildingBlock: XUDNAN_clean_linker_2, # of connection points: 2
#     Edge 51, Type (0, 0), BuildingBlock: XUDNAN_clean_linker_2, # of connection points: 2
#     Edge 52, Type (0, 0), BuildingBlock: XUDNAN_clean_linker_2, # of connection points: 2
#     Edge 53, Type (0, 0), BuildingBlock: XUDNAN_clean_linker_2, # of connection points: 2
#     Edge 54, Type (0, 0), BuildingBlock: XUDNAN_clean_linker_2, # of connection points: 2
#     Edge 55, Type (0, 0), BuildingBlock: XUDNAN_clean_linker_2, # of connection points: 2
#     Edge 56, Type (0, 0), BuildingBlock: XUDNAN_clean_linker_2, # of connection points: 2
#     Edge 57, Type (0, 0), BuildingBlock: XUDNAN_clean_linker_2, # of connection points: 2
#     Edge 58, Type (0, 0), BuildingBlock: XUDNAN_clean_linker_2, # of connection points: 2
#     Edge 59, Type (0, 0), BuildingBlock: XUDNAN_clean_linker_2, # of connection points: 2
#     Edge 60, Type (0, 0), BuildingBlock: XUDNAN_clean_linker_2, # of connection points: 2
#     Edge 61, Type (0, 0), BuildingBlock: XUDNAN_clean_linker_2, # of connection points: 2
#     Edge 62, Type (0, 0), BuildingBlock: XUDNAN_clean_linker_2, # of connection points: 2
#     Edge 63, Type (0, 0), BuildingBlock: XUDNAN_clean_linker_2, # of connection points: 2
#     Edge 64, Type (0, 0), BuildingBlock: XUDNAN_clean_linker_2, # of connection points: 2
#     Edge 65, Type (0, 0), BuildingBlock: XUDNAN_clean_linker_2, # of connection points: 2
#     Edge 66, Type (0, 0), BuildingBlock: XUDNAN_clean_linker_2, # of connection points: 2
#     Edge 67, Type (0, 0), BuildingBlock: XUDNAN_clean_linker_2, # of connection points: 2
#     Edge 68, Type (0, 0), BuildingBlock: XUDNAN_clean_linker_2, # of connection points: 2
#     Edge 69, Type (0, 0), BuildingBlock: XUDNAN_clean_linker_2, # of connection points: 2
#     Edge 70, Type (0, 0), BuildingBlock: XUDNAN_clean_linker_2, # of connection points: 2
#     Edge 71, Type (0, 0), BuildingBlock: XUDNAN_clean_linker_2, # of connection points: 2
#     Edge 72, Type (0, 0), BuildingBlock: XUDNAN_clean_linker_2, # of connection points: 2
#     Edge 73, Type (0, 0), BuildingBlock: XUDNAN_clean_linker_2, # of connection points: 2
#     Edge 74, Type (0, 0), BuildingBlock: XUDNAN_clean_linker_2, # of connection points: 2
#     Edge 75, Type (0, 0), BuildingBlock: XUDNAN_clean_linker_2, # of connection points: 2
#     Edge 76, Type (0, 0), BuildingBlock: XUDNAN_clean_linker_2, # of connection points: 2
#     Edge 77, Type (0, 0), BuildingBlock: XUDNAN_clean_linker_2, # of connection points: 2
#     Edge 78, Type (0, 0), BuildingBlock: XUDNAN_clean_linker_2, # of connection points: 2
#     Edge 79, Type (0, 0), BuildingBlock: XUDNAN_clean_linker_2, # of connection points: 2
#     Edge 80, Type (0, 0), BuildingBlock: XUDNAN_clean_linker_2, # of connection points: 2
#     Edge 81, Type (0, 0), BuildingBlock: XUDNAN_clean_linker_2, # of connection points: 2
#     Edge 82, Type (0, 0), BuildingBlock: XUDNAN_clean_linker_2, # of connection points: 2
#     Edge 83, Type (0, 0), BuildingBlock: XUDNAN_clean_linker_2, # of connection points: 2
#     Edge 84, Type (0, 0), BuildingBlock: XUDNAN_clean_linker_2, # of connection points: 2
#     Edge 85, Type (0, 0), BuildingBlock: XUDNAN_clean_linker_2, # of connection points: 2
#     Edge 86, Type (0, 0), BuildingBlock: XUDNAN_clean_linker_2, # of connection points: 2
#     Edge 87, Type (0, 0), BuildingBlock: XUDNAN_clean_linker_2, # of connection points: 2
#     Edge 88, Type (0, 0), BuildingBlock: XUDNAN_clean_linker_2, # of connection points: 2
#     Edge 89, Type (0, 0), BuildingBlock: XUDNAN_clean_linker_2, # of connection points: 2
#     Edge 90, Type (0, 0), BuildingBlock: XUDNAN_clean_linker_2, # of connection points: 2
#     Edge 91, Type (0, 0), BuildingBlock: XUDNAN_clean_linker_2, # of connection points: 2
#     Edge 92, Type (0, 0), BuildingBlock: XUDNAN_clean_linker_2, # of connection points: 2
#     Edge 93, Type (0, 0), BuildingBlock: XUDNAN_clean_linker_2, # of connection points: 2
#     Edge 94, Type (0, 0), BuildingBlock: XUDNAN_clean_linker_2, # of connection points: 2
#     Edge 95, Type (0, 0), BuildingBlock: XUDNAN_clean_linker_2, # of connection points: 2
#     Edge 96, Type (0, 0), BuildingBlock: XUDNAN_clean_linker_2, # of connection points: 2
#     Edge 97, Type (0, 0), BuildingBlock: XUDNAN_clean_linker_2, # of connection points: 2
#     Edge 98, Type (0, 0), BuildingBlock: XUDNAN_clean_linker_2, # of connection points: 2
#     Edge 99, Type (0, 0), BuildingBlock: XUDNAN_clean_linker_2, # of connection points: 2
#     Edge 100, Type (0, 0), BuildingBlock: XUDNAN_clean_linker_2, # of connection points: 2
#     Edge 101, Type (0, 0), BuildingBlock: XUDNAN_clean_linker_2, # of connection points: 2
#     Edge 102, Type (0, 0), BuildingBlock: XUDNAN_clean_linker_2, # of connection points: 2
#     Edge 103, Type (0, 0), BuildingBlock: XUDNAN_clean_linker_2, # of connection points: 2
#     Edge 104, Type (0, 0), BuildingBlock: XUDNAN_clean_linker_2, # of connection points: 2
#     Edge 105, Type (0, 0), BuildingBlock: XUDNAN_clean_linker_2, # of connection points: 2
#     Edge 106, Type (0, 0), BuildingBlock: XUDNAN_clean_linker_2, # of connection points: 2
#     Edge 107, Type (0, 0), BuildingBlock: XUDNAN_clean_linker_2, # of connection points: 2
#     Edge 108, Type (0, 0), BuildingBlock: XUDNAN_clean_linker_2, # of connection points: 2
#     Edge 109, Type (0, 0), BuildingBlock: XUDNAN_clean_linker_2, # of connection points: 2
#     Edge 110, Type (0, 0), BuildingBlock: XUDNAN_clean_linker_2, # of connection points: 2
#     Edge 111, Type (0, 0), BuildingBlock: XUDNAN_clean_linker_2, # of connection points: 2
#     Edge 112, Type (0, 0), BuildingBlock: XUDNAN_clean_linker_2, # of connection points: 2
#     Edge 113, Type (0, 0), BuildingBlock: XUDNAN_clean_linker_2, # of connection points: 2
#     Edge 114, Type (0, 0), BuildingBlock: XUDNAN_clean_linker_2, # of connection points: 2
#     Edge 115, Type (0, 0), BuildingBlock: XUDNAN_clean_linker_2, # of connection points: 2
#     Edge 116, Type (0, 0), BuildingBlock: XUDNAN_clean_linker_2, # of connection points: 2
#     Edge 117, Type (0, 0), BuildingBlock: XUDNAN_clean_linker_2, # of connection points: 2
#     Edge 118, Type (0, 0), BuildingBlock: XUDNAN_clean_linker_2, # of connection points: 2
#     Edge 119, Type (0, 0), BuildingBlock: XUDNAN_clean_linker_2, # of connection points: 2
#     Edge 120, Type (0, 0), BuildingBlock: XUDNAN_clean_linker_2, # of connection points: 2
#     Edge 121, Type (0, 0), BuildingBlock: XUDNAN_clean_linker_2, # of connection points: 2
#     Edge 122, Type (0, 0), BuildingBlock: XUDNAN_clean_linker_2, # of connection points: 2
#     Edge 123, Type (0, 0), BuildingBlock: XUDNAN_clean_linker_2, # of connection points: 2
#     Edge 124, Type (0, 0), BuildingBlock: XUDNAN_clean_linker_2, # of connection points: 2
#     Edge 125, Type (0, 0), BuildingBlock: XUDNAN_clean_linker_2, # of connection points: 2
#     Edge 126, Type (0, 0), BuildingBlock: XUDNAN_clean_linker_2, # of connection points: 2
#     Edge 127, Type (0, 0), BuildingBlock: XUDNAN_clean_linker_2, # of connection points: 2
# Relax obj value: 0.445
# Max RMSD: 0.206
# Mean RMSD: 0.206
data_MOF--net-wir--node1-BETDAH_clean_sbu_0--edge1-XUDNAN_clean_linker_2
_symmetry_space_group_name_H-M    P1
_symmetry_Int_Tables_number       1
_symmetry_cell_setting            triclinic
loop_
_symmetry_equiv_pos_as_xyz
'x, y, z'
_cell_length_a     38.245502
_cell_length_b     38.298268
_cell_length_c     107.23904
_cell_angle_alpha  90.231625
_cell_angle_beta   89.97727
_cell_angle_gamma 89.997636
loop_
_atom_site_label
_atom_site_type_symbol
_atom_site_fract_x
_atom_site_fract_y
_atom_site_fract_z
_atom_type_partial_charge
Ho0 Ho 0.26463 0.24015 0.40235 0.0
Ho1 Ho 0.23949 0.2087 0.39697 0.0
C2 C 0.20953 0.22371 0.42178 0.0
C3 C 0.29229 0.30003 0.40741 0.0
C4 C 0.27546 0.3341 0.40702 0.0
C5 C 0.24861 0.34037 0.39835 0.0
C6 C 0.2254 0.3679 0.4002 0.0
C7 C 0.22853 0.38914 0.41081 0.0
C8 C 0.25734 0.38438 0.41887 0.0
C9 C 0.28072 0.35716 0.41692 0.0
C10 C 0.30054 0.18676 0.41706 0.0
C11 C 0.26592 0.24885 0.37337 0.0
C12 C 0.26359 0.16067 0.38294 0.0
C13 C 0.27346 0.16115 0.36971 0.0
C14 C 0.30813 0.16918 0.36629 0.0
C15 C 0.31904 0.16536 0.35399 0.0
C16 C 0.29586 0.15185 0.34511 0.0
C17 C 0.25998 0.14955 0.34815 0.0
C18 C 0.24897 0.15368 0.36042 0.0
C19 C 0.17534 0.23879 0.39619 0.0
O20 O 0.22499 0.2515 0.41748 0.0
O21 O 0.21487 0.19539 0.41519 0.0
O22 O 0.27991 0.27928 0.41589 0.0
O23 O 0.29589 0.28444 0.39671 0.0
O24 O 0.31463 0.21007 0.40991 0.0
O25 O 0.26782 0.19094 0.41482 0.0
O26 O 0.23588 0.24041 0.3783 0.0
O27 O 0.28939 0.24448 0.38208 0.0
O28 O 0.23013 0.16234 0.38583 0.0
O29 O 0.28349 0.18042 0.38994 0.0
O30 O 0.18152 0.20506 0.39628 0.0
O31 O 0.20559 0.2558 0.39644 0.0
H32 H 0.24392 0.32249 0.39067 0.0
H33 H 0.2037 0.37106 0.39382 0.0
H34 H 0.26029 0.39957 0.42734 0.0
H35 H 0.30096 0.35229 0.42377 0.0
H36 H 0.32749 0.17635 0.37321 0.0
H37 H 0.34657 0.16825 0.35184 0.0
H38 H 0.24094 0.13992 0.34151 0.0
H39 H 0.22183 0.1487 0.3627 0.0
Ho40 Ho 0.09044 1.01499 0.65102 0.0
Ho41 Ho 0.1271 0.99397 0.64466 0.0
C42 C 0.12589 0.96943 0.67076 0.0
C43 C 1.03268 1.04221 0.65879 0.0
C44 C 0.99825 1.02637 0.65768 0.0
C45 C 0.99292 1.00031 0.6486 0.0
C46 C 0.9668 0.9754 0.65022 0.0
C47 C 0.94594 0.97629 0.66095 0.0
C48 C 0.94903 1.00479 0.66928 0.0
C49 C 0.97501 1.02971 0.66762 0.0
C50 C 0.14063 1.04746 0.67018 0.0
C51 C 0.08398 1.02358 0.62162 0.0
C52 C 0.18194 0.9957 0.63113 0.0
C53 C 0.18981 0.98036 0.61909 0.0
C54 C 0.20882 1.0001 0.61064 0.0
C55 C 0.2214 0.98452 0.59991 0.0
C56 C 0.21547 0.94865 0.59753 0.0
C57 C 0.19283 0.93008 0.60537 0.0
C58 C 0.1799 0.94596 0.61613 0.0
C59 C 0.09117 0.92936 0.64528 0.0
O60 O 0.09403 0.97872 0.66776 0.0
O61 O 0.14929 0.9755 0.66234 0.0
O62 O 0.05368 1.02466 0.66592 0.0
O63 O 1.04745 0.05108 0.64836 0.0
O64 O 0.13794 1.04556 0.65791 0.0
O65 O 0.13681 1.0445 0.65785 0.0
O66 O 0.10246 0.99579 0.62437 0.0
O67 O 0.07847 1.04143 0.63187 0.0
O68 O 0.17788 0.97364 0.64025 0.0
O69 O 0.15868 1.02068 0.63101 0.0
O70 O 0.12435 0.93421 0.64711 0.0
O71 O 0.0777 0.96005 0.64328 0.0
H72 H 1.01104 0.99713 0.6409 0.0
H73 H 0.96478 0.95398 0.64363 0.0
H74 H 0.93391 1.00609 0.67781 0.0
H75 H 0.97924 0.04926 0.6748 0.0
H76 H 0.21585 1.02693 0.61272 0.0
H77 H 0.23879 1.00008 0.59426 0.0
H78 H 0.18738 0.90271 0.60369 0.0
H79 H 0.16398 0.93077 0.62247 0.0
Ho80 Ho 0.32951 0.84168 0.90115 0.0
Ho81 Ho 0.35542 0.88119 0.89721 0.0
C82 C 0.37457 0.85793 0.92316 0.0
C83 C 0.29331 0.78594 0.90536 0.0
C84 C 0.3048 0.74986 0.90397 0.0
C85 C 0.33713 0.74357 0.89817 0.0
C86 C 0.35664 0.71435 0.90145 0.0
C87 C 0.34388 0.6916 0.91059 0.0
C88 C 0.30873 0.69435 0.91438 0.0
C89 C 0.28937 0.7239 0.91125 0.0
C90 C 0.29766 0.89485 0.92102 0.0
C91 C 0.33057 0.8429 0.87164 0.0
C92 C 0.363 0.9429 0.88834 0.0
C93 C 0.3863 0.95802 0.87905 0.0
C94 C 0.37164 0.97364 0.86854 0.0
C95 C 0.39311 0.98935 0.85981 0.0
C96 C 0.4296 0.98985 0.8615 0.0
C97 C 0.44444 0.97366 0.87188 0.0
C98 C 0.42289 0.95746 0.88058 0.0
C99 C 0.41809 0.84265 0.89738 0.0
O100 O 0.36373 0.82954 0.9177 0.0
O101 O 0.37043 0.88664 0.91694 0.0
O102 O 0.31007 0.80301 0.91402 0.0
O103 O 0.29116 0.80362 0.89506 0.0
O104 O 0.3018 0.89077 0.90878 0.0
O105 O 0.30263 0.88973 0.90876 0.0
O106 O 0.35629 0.86203 0.8762 0.0
O107 O 0.31 0.83307 0.88068 0.0
O108 O 0.37778 0.93244 0.8986 0.0
O109 O 0.33952 0.92102 0.88414 0.0
O110 O 0.4143 0.87525 0.90038 0.0
O111 O 0.38696 0.83072 0.89449 0.0
H112 H 0.34934 0.76347 0.89248 0.0
H113 H 0.38359 0.71282 0.89836 0.0
H114 H 0.2983 0.67672 0.92133 0.0
H115 H 0.26437 0.72839 0.91573 0.0
H116 H 0.34354 0.97432 0.86723 0.0
H117 H 0.38101 1.00253 0.85199 0.0
H118 H 0.47245 0.97422 0.87336 0.0
H119 H 0.43486 0.94522 0.8886 0.0
Ho120 Ho 0.49131 0.08051 0.15092 0.0
Ho121 Ho 0.45891 0.10373 0.14406 0.0
C122 C 0.46571 0.14209 0.16723 0.0
C123 C 0.55249 0.05854 0.1576 0.0
C124 C 0.58509 0.07809 0.15817 0.0
C125 C 0.58827 0.1094 0.15148 0.0
C126 C 0.61617 0.13182 0.15374 0.0
C127 C 0.64154 0.12267 0.16251 0.0
C128 C 0.63949 0.09027 0.16863 0.0
C129 C 0.61121 0.06814 0.16652 0.0
C130 C 0.43855 1.04502 0.16569 0.0
C131 C 0.50069 0.07076 0.12212 0.0
C132 C 0.41247 0.07506 0.13023 0.0
C133 C 0.41686 0.05874 0.1179 0.0
C134 C 0.41811 1.02207 0.11709 0.0
C135 C 0.4259 1.00558 0.10585 0.0
C136 C 0.4313 1.02542 0.09508 0.0
C137 C 0.43221 0.06213 0.09605 0.0
C138 C 0.42493 0.07865 0.10735 0.0
C139 C 0.48953 0.16797 0.1424 0.0
O140 O 0.49399 0.12371 0.16524 0.0
O141 O 0.43957 0.13648 0.15966 0.0
O142 O 0.52877 0.06878 0.16546 0.0
O143 O 0.53985 0.05429 0.14647 0.0
O144 O 0.46258 1.03054 0.15886 0.0
O145 O 0.44184 0.07758 0.16286 0.0
O146 O 0.49258 0.10241 0.12558 0.0
O147 O 0.49489 0.0506 0.13173 0.0
O148 O 0.41533 0.10919 0.13121 0.0
O149 O 0.42945 0.05836 0.13891 0.0
O150 O 0.45587 0.16148 0.14161 0.0
O151 O 0.50642 0.13803 0.14386 0.0
H152 H 0.56844 0.11724 0.14489 0.0
H153 H 0.61724 0.15678 0.14903 0.0
H154 H 0.65855 0.08308 0.17564 0.0
H155 H 0.60887 1.04421 0.17181 0.0
H156 H 0.41277 1.00605 0.12518 0.0
H157 H 0.4244 0.97736 0.10529 0.0
H158 H 0.43565 0.07822 0.08785 0.0
H159 H 0.42531 0.10691 0.10777 0.0
Ho160 Ho 0.26035 0.84604 0.2523 0.0
Ho161 Ho 0.23574 0.88009 0.25631 0.0
C162 C 0.21691 0.86323 0.23018 0.0
C163 C 0.29648 0.79 0.24819 0.0
C164 C 0.28456 0.75405 0.24956 0.0
C165 C 0.2544 0.74787 0.25672 0.0
C166 C 0.2324 0.72019 0.25366 0.0
C167 C 0.24051 0.69898 0.24341 0.0
C168 C 0.27394 0.70105 0.23799 0.0
C169 C 0.29586 0.72894 0.24097 0.0
C170 C 0.2945 0.89499 0.23203 0.0
C171 C 0.26133 0.84145 0.28093 0.0
C172 C 0.2364 0.93344 0.27065 0.0
C173 C 0.23096 0.93397 0.28423 0.0
C174 C 0.25789 0.92278 0.29219 0.0
C175 C 0.2552 0.92766 0.30495 0.0
C176 C 0.22666 0.94625 0.30983 0.0
C177 C 0.19672 0.95025 0.30231 0.0
C178 C 0.19924 0.94516 0.28944 0.0
C179 C 0.17151 0.84661 0.25507 0.0
O180 O 0.22738 0.83459 0.23547 0.0
O181 O 0.22049 0.89157 0.23678 0.0
O182 O 0.28022 0.80708 0.23947 0.0
O183 O 0.29847 0.80794 0.25847 0.0
O184 O 0.28692 0.89461 0.24409 0.0
O185 O 0.28632 0.89376 0.24415 0.0
O186 O 0.23218 0.8525 0.27592 0.0
O187 O 0.28487 0.84122 0.27223 0.0
O188 O 0.20944 0.92608 0.26364 0.0
O189 O 0.26481 0.91744 0.26707 0.0
O190 O 0.17789 0.87915 0.25232 0.0
O191 O 0.20172 0.832 0.2579 0.0
H192 H 0.24528 0.76709 0.26342 0.0
H193 H 0.20671 0.71907 0.25792 0.0
H194 H 0.28056 0.68472 0.23006 0.0
H195 H 0.31906 0.73337 0.23539 0.0
H196 H 0.28223 0.91237 0.28859 0.0
H197 H 0.27824 0.92233 0.31049 0.0
H198 H 0.17357 0.9629 0.30601 0.0
H199 H 0.17739 0.95229 0.28355 0.0
Ho200 Ho 0.49734 1.00884 0.5035 0.0
Ho201 Ho 0.46586 0.986 0.50785 0.0
C202 C 0.47718 0.96561 0.48159 0.0
C203 C 0.55274 1.04465 0.49836 0.0
C204 C 0.589 1.03364 0.49896 0.0
C205 C 0.59732 1.00237 0.50507 0.0
C206 C 0.62871 0.98546 0.50248 0.0
C207 C 0.65181 0.99965 0.4937 0.0
C208 C 0.6449 1.033 0.48872 0.0
C209 C 0.61354 0.04983 0.49132 0.0
C210 C 0.44938 1.0443 0.48356 0.0
C211 C 0.50833 1.01021 0.53167 0.0
C212 C 0.4173 0.98869 0.52403 0.0
C213 C 0.42207 0.97809 0.53709 0.0
C214 C 0.43332 1.00267 0.54601 0.0
C215 C 0.43942 0.99258 0.55827 0.0
C216 C 0.43084 0.95858 0.56203 0.0
C217 C 0.42507 0.93299 0.55282 0.0
C218 C 0.42009 0.94278 0.54046 0.0
C219 C 0.49642 0.92055 0.50664 0.0
O220 O 0.50666 0.9756 0.48649 0.0
O221 O 0.45005 0.96967 0.48876 0.0
O222 O 0.53454 1.02801 0.49002 0.0
O223 O 0.5367 1.04649 0.50902 0.0
O224 O 0.44875 1.0356 0.4955 0.0
O225 O 0.44953 1.03507 0.49555 0.0
O226 O 0.49933 0.98078 0.52631 0.0
O227 O 0.50375 1.03428 0.52336 0.0
O228 O 0.41864 0.96385 0.51563 0.0
O229 O 0.43508 1.01635 0.52083 0.0
O230 O 0.4636 0.92786 0.50462 0.0
O231 O 0.51264 0.95032 0.50866 0.0
H232 H 0.57829 0.9895 0.51096 0.0
H233 H 0.63347 0.95995 0.50646 0.0
H234 H 0.66184 1.04449 0.48176 0.0
H235 H 0.60716 0.07379 0.48648 0.0
H236 H 0.43668 1.02992 0.54362 0.0
H237 H 0.44477 1.01264 0.56517 0.0
H238 H 0.41906 0.9063 0.55535 0.0
H239 H 0.41313 0.92288 0.5337 0.0
Ho240 Ho 0.32619 0.25875 0.75135 0.0
Ho241 Ho 0.34879 0.22333 0.75611 0.0
C242 C 0.37346 0.24248 0.73044 0.0
C243 C 0.2912 0.31501 0.74675 0.0
C244 C 0.30294 0.35092 0.74842 0.0
C245 C 0.33288 0.35702 0.7557 0.0
C246 C 0.35415 0.38558 0.75314 0.0
C247 C 0.3457 0.40745 0.74316 0.0
C248 C 0.31206 0.40557 0.73788 0.0
C249 C 0.2909 0.37676 0.74033 0.0
C250 C 0.29674 0.20422 0.73124 0.0
C251 C 0.3201 0.26364 0.78019 0.0
C252 C 0.3473 0.16895 0.76961 0.0
C253 C 0.3622 0.167 0.78211 0.0
C254 C 0.34085 0.15777 0.79218 0.0
C255 C 0.35495 0.15616 0.80411 0.0
C256 C 0.39067 0.163 0.80595 0.0
C257 C 0.41073 0.17655 0.79622 0.0
C258 C 0.39659 0.17848 0.78432 0.0
C259 C 0.41444 0.2553 0.75593 0.0
O260 O 0.3625 0.27097 0.73568 0.0
O261 O 0.3671 0.21378 0.73653 0.0
O262 O 0.30835 0.29768 0.73823 0.0
O263 O 0.288 0.29736 0.75701 0.0
O264 O 0.29839 0.2102 0.74344 0.0
O265 O 0.29927 0.21119 0.7434 0.0
O266 O 0.34943 0.24919 0.77644 0.0
O267 O 0.29986 0.26644 0.77055 0.0
O268 O 0.36958 0.17242 0.76044 0.0
O269 O 0.32057 0.19006 0.76882 0.0
O270 O 0.40745 0.22265 0.75362 0.0
O271 O 0.38425 0.27082 0.75808 0.0
H272 H 0.34241 0.33733 0.76209 0.0
H273 H 0.37985 0.38667 0.75738 0.0
H274 H 0.30503 0.42258 0.73022 0.0
H275 H 0.26768 0.37248 0.73474 0.0
H276 H 0.31375 0.15054 0.79073 0.0
H277 H 0.33921 0.1455 0.81159 0.0
H278 H 0.43837 0.1817 0.79748 0.0
H279 H 0.41311 0.18756 0.7768 0.0
Ho280 Ho 0.09044 0.08268 1.00334 0.0
Ho281 Ho 0.13133 0.10625 1.00778 0.0
C282 C 0.1112 0.12614 0.98141 0.0
C283 C 1.03379 0.04809 0.99874 0.0
C284 C 0.99785 0.05992 1.00018 0.0
C285 C 0.99282 0.09159 1.0066 0.0
C286 C 0.97058 0.11661 1.00158 0.0
C287 C 0.95338 0.10931 0.99037 0.0
C288 C 0.95136 0.07467 0.98608 0.0
C289 C 0.97399 0.04977 0.99098 0.0
C290 C 0.14063 0.05147 0.98304 0.0
C291 C 0.0925 0.07977 1.03294 0.0
C292 C 0.19428 0.11069 1.01617 0.0
C293 C 0.21339 0.11779 1.02766 0.0
C294 C 0.20804 0.0967 1.03812 0.0
C295 C 0.23508 0.09184 1.04653 0.0
C296 C 0.26745 0.10879 1.04474 0.0
C297 C 0.26933 0.13575 1.03588 0.0
C298 C 0.24264 0.13964 1.02716 0.0
C299 C 0.09522 0.17024 1.00708 0.0
O300 O 0.08163 0.11673 0.98647 0.0
O301 O 0.13898 0.12159 0.98818 0.0
O302 O 0.05093 0.06566 0.99035 0.0
O303 O 0.05158 1.04462 1.00899 0.0
O304 O 0.1383 0.05344 0.99538 0.0
O305 O 0.13718 0.05444 0.9954 0.0
O306 O 0.11518 0.10305 1.02894 0.0
O307 O 0.07889 0.06289 1.02354 0.0
O308 O 0.17845 0.13665 1.01085 0.0
O309 O 0.1763 0.08175 1.01582 0.0
O310 O 0.12708 0.1639 1.00363 0.0
O311 O 0.08211 0.14013 1.01063 0.0
H312 H 1.01082 0.09964 1.01387 0.0
H313 H 0.97212 0.14318 1.00507 0.0
H314 H 0.93771 0.06865 0.97748 0.0
H315 H 0.97729 1.02523 0.98605 0.0
H316 H 0.1849 0.08053 1.03895 0.0
H317 H 0.23145 0.07151 1.05336 0.0
H318 H 0.29277 0.15126 1.03478 0.0
H319 H 0.24655 0.15703 1.01934 0.0
Ho320 Ho 0.85456 0.8782 0.75718 0.0
Ho321 Ho 0.82973 0.83829 0.75218 0.0
C322 C 0.82393 0.83871 0.78161 0.0
C323 C 0.8631 0.9396 0.7664 0.0
C324 C 0.88575 0.95406 0.77608 0.0
C325 C 0.87045 0.96686 0.78698 0.0
C326 C 0.89087 0.98364 0.79581 0.0
C327 C 0.92703 0.9882 0.79385 0.0
C328 C 0.94272 0.9737 0.78324 0.0
C329 C 0.92221 0.95652 0.7744 0.0
C330 C 0.91697 0.83897 0.75714 0.0
C331 C 0.87505 0.85768 0.73074 0.0
C332 C 0.79527 0.7823 0.74662 0.0
C333 C 0.80747 0.74638 0.74762 0.0
C334 C 0.83846 0.74007 0.75429 0.0
C335 C 0.85989 0.71222 0.7509 0.0
C336 C 0.85039 0.69093 0.74081 0.0
C337 C 0.8164 0.69335 0.73588 0.0
C338 C 0.79507 0.72142 0.73918 0.0
C339 C 0.80038 0.89178 0.73285 0.0
O340 O 0.84924 0.86028 0.77838 0.0
O341 O 0.80746 0.82753 0.77175 0.0
O342 O 0.87863 0.92877 0.75632 0.0
O343 O 0.83846 0.91848 0.77015 0.0
O344 O 0.91355 0.87159 0.75431 0.0
O345 O 0.88573 0.82743 0.75988 0.0
O346 O 0.86486 0.8286 0.73577 0.0
O347 O 0.87058 0.88563 0.73747 0.0
O348 O 0.81261 0.80054 0.73847 0.0
O349 O 0.79148 0.79895 0.75713 0.0
O350 O 0.80175 0.88753 0.7451 0.0
O351 O 0.80275 0.88639 0.7451 0.0
H352 H 0.84245 0.9652 0.78846 0.0
H353 H 0.87766 0.99528 0.80373 0.0
H354 H 0.97041 0.97716 0.7815 0.0
H355 H 0.93474 0.94643 0.76608 0.0
H356 H 0.84841 0.75923 0.76085 0.0
H357 H 0.88601 0.7109 0.75479 0.0
H358 H 0.80865 0.67695 0.7281 0.0
H359 H 0.77121 0.72599 0.73399 0.0
Ho360 Ho 0.95908 0.10843 0.50668 0.0
Ho361 Ho 0.99519 0.0838 0.5019 0.0
C362 C 1.00017 0.08204 0.53094 0.0
C363 C 0.90523 0.1081 0.52072 0.0
C364 C 0.9056 0.12143 0.53353 0.0
C365 C 0.89949 0.09815 0.54333 0.0
C366 C 0.90871 0.10727 0.55546 0.0
C367 C 0.92398 0.13993 0.55798 0.0
C368 C 0.92938 0.16354 0.54824 0.0
C369 C 0.92039 0.15434 0.53609 0.0
C370 C 0.9959 0.17151 0.50647 0.0
C371 C 0.97469 0.13279 0.4811 0.0
C372 C 0.05204 0.05089 0.49645 0.0
C373 C 0.08694 0.06558 0.49809 0.0
C374 C 0.09125 0.0929 0.50677 0.0
C375 C 0.11666 0.11834 0.50483 0.0
C376 C 0.13802 0.11655 0.49424 0.0
C377 C 0.13695 0.08641 0.48664 0.0
C378 C 0.11143 0.06106 0.48856 0.0
C379 C 0.94354 0.05802 0.48122 0.0
O380 O 0.98623 0.11069 0.52645 0.0
O381 O 1.00254 0.05948 0.52184 0.0
O382 O 0.90934 0.13117 0.51188 0.0
O383 O 0.92493 0.08051 0.51917 0.0
O384 O 0.9627 0.16761 0.50418 0.0
O385 O 1.00899 0.14044 0.50863 0.0
O386 O 1.00351 0.11925 0.48542 0.0
O387 O 0.94697 0.12911 0.488 0.0
O388 O 1.03354 0.06761 0.48825 0.0
O389 O 1.03453 1.0452 0.50665 0.0
O390 O 0.94644 0.05773 0.49354 0.0
O391 O 0.94769 0.05879 0.49354 0.0
H392 H 0.88891 0.07237 0.54152 0.0
H393 H 0.90318 0.08906 0.56291 0.0
H394 H 0.94053 0.18907 0.55004 0.0
H395 H 0.92635 0.17253 0.52869 0.0
H396 H 0.07238 0.09702 0.51417 0.0
H397 H 0.11723 0.1411 0.51086 0.0
H398 H 0.15288 0.08437 0.47832 0.0
H399 H 0.10818 1.04044 0.48171 0.0
Ho400 Ho 0.74243 0.21604 0.26014 0.0
Ho401 Ho 0.76498 0.24806 0.25532 0.0
C402 C 0.76668 0.25785 0.28386 0.0
C403 C 0.74852 0.16863 0.27665 0.0
C404 C 0.74431 0.17259 0.29019 0.0
C405 C 0.7743 0.17437 0.29767 0.0
C406 C 0.77124 0.17521 0.31055 0.0
C407 C 0.73814 0.17104 0.31609 0.0
C408 C 0.70843 0.17778 0.30873 0.0
C409 C 0.71137 0.17731 0.29575 0.0
C410 C 0.67683 0.24726 0.25828 0.0
C411 C 0.72181 0.21939 0.2339 0.0
C412 C 0.79691 0.30518 0.24961 0.0
C413 C 0.77972 0.33904 0.2497 0.0
C414 C 0.74942 0.34207 0.25709 0.0
C415 C 0.7207 0.36029 0.25261 0.0
C416 C 0.72291 0.37681 0.24107 0.0
C417 C 0.7552 0.3792 0.23488 0.0
C418 C 0.78373 0.36022 0.2392 0.0
C419 C 0.80178 0.20018 0.2358 0.0
O420 O 0.7371 0.24857 0.27873 0.0
O421 O 0.79043 0.25446 0.27525 0.0
O422 O 0.72061 0.17122 0.26967 0.0
O423 O 0.77529 0.1855 0.27217 0.0
O424 O 0.68408 0.2142 0.25675 0.0
O425 O 0.70666 0.26338 0.26024 0.0
O426 O 0.73141 0.25023 0.23791 0.0
O427 O 0.72619 0.19432 0.24186 0.0
O428 O 0.78363 0.28408 0.24137 0.0
O429 O 0.80021 0.2903 0.26041 0.0
O430 O 0.79352 0.20013 0.24778 0.0
O431 O 0.79286 0.20101 0.24784 0.0
H432 H 0.80023 0.17319 0.29361 0.0
H433 H 0.7951 0.17268 0.3159 0.0
H434 H 0.68256 0.17697 0.31284 0.0
H435 H 0.68783 0.17856 0.29016 0.0
H436 H 0.74585 0.32599 0.26528 0.0
H437 H 0.69598 0.35864 0.25751 0.0
H438 H 0.75718 0.39213 0.22593 0.0
H439 H 0.80679 0.35798 0.23338 0.0
Ho440 Ho 0.62911 0.9877 1.00716 0.0
Ho441 Ho 0.59433 1.01496 1.00332 0.0
C442 C 0.59022 1.0143 1.03214 0.0
C443 C 0.68486 0.97684 1.01945 0.0
C444 C 0.68828 0.95214 1.0298 0.0
C445 C 0.68143 0.96275 1.04212 0.0
C446 C 0.68657 0.93952 1.05189 0.0
C447 C 0.69947 0.9059 1.04942 0.0
C448 C 0.70127 0.8938 1.03712 0.0
C449 C 0.69629 0.91694 1.02735 0.0
C450 C 0.59001 0.92634 1.00662 0.0
C451 C 0.60732 0.96855 0.98132 0.0
C452 C 0.53983 0.05192 0.99876 0.0
C453 C 0.50471 1.0373 0.99927 0.0
C454 C 0.49902 1.00877 1.00728 0.0
C455 C 0.47646 0.982 1.00373 0.0
C456 C 0.45918 0.98384 0.99227 0.0
C457 C 0.46102 1.01491 0.98526 0.0
C458 C 0.48343 1.04167 0.98884 0.0
C459 C 0.6467 1.04439 0.98333 0.0
O460 O 0.6032 0.9856 1.02721 0.0
O461 O 0.58826 1.03777 1.02345 0.0
O462 O 0.67925 0.96266 1.00857 0.0
O463 O 0.66519 1.0042 1.02154 0.0
O464 O 0.62286 0.92924 1.0038 0.0
O465 O 0.57822 0.95776 1.00919 0.0
O466 O 0.58002 0.98231 0.98662 0.0
O467 O 0.6363 0.97052 0.98759 0.0
O468 O 0.55877 1.03772 0.99003 0.0
O469 O 0.55642 0.05374 1.00934 0.0
O470 O 0.64448 1.03929 0.99554 0.0
O471 O 0.64352 1.03865 0.99556 0.0
H472 H 0.67398 0.9894 1.04427 0.0
H473 H 0.68538 0.94932 1.06138 0.0
H474 H 0.71152 0.86801 1.03509 0.0
H475 H 0.70061 0.90762 1.01792 0.0
H476 H 0.51529 1.00479 1.01542 0.0
H477 H 0.47477 0.95875 1.00941 0.0
H478 H 0.44819 1.01717 0.9763 0.0
H479 H 0.4878 0.0632 0.98249 0.0
Ho480 Ho 0.84754 0.2171 0.89475 0.0
Ho481 Ho 0.82708 0.25015 0.90089 0.0
C482 C 0.81903 0.2612 0.87216 0.0
C483 C 0.8371 0.16894 0.87879 0.0
C484 C 0.84616 0.17229 0.86562 0.0
C485 C 0.82085 0.16629 0.85642 0.0
C486 C 0.82992 0.16911 0.84387 0.0
C487 C 0.86471 0.17654 0.84059 0.0
C488 C 0.88771 0.18907 0.8497 0.0
C489 C 0.87883 0.18608 0.8622 0.0
C490 C 0.91416 0.24705 0.89457 0.0
C491 C 0.87975 0.22551 0.91956 0.0
C492 C 0.79601 0.30648 0.90821 0.0
C493 C 0.8102 0.34172 0.90766 0.0
C494 C 0.83662 0.34903 0.89893 0.0
C495 C 0.86011 0.37612 0.90113 0.0
C496 C 0.85749 0.39593 0.9121 0.0
C497 C 0.82832 0.39121 0.91997 0.0
C498 C 0.8048 0.36419 0.91775 0.0
C499 C 0.80322 0.1956 0.92107 0.0
O500 O 0.84917 0.24834 0.87563 0.0
O501 O 0.79867 0.26022 0.88191 0.0
O502 O 0.86331 0.16785 0.88664 0.0
O503 O 0.81211 0.18999 0.88233 0.0
O504 O 0.90657 0.21388 0.89517 0.0
O505 O 0.88429 0.26408 0.89419 0.0
O506 O 0.86665 0.25536 0.9162 0.0
O507 O 0.87296 0.1991 0.91227 0.0
O508 O 0.81319 0.28607 0.91567 0.0
O509 O 0.78985 0.2917 0.89751 0.0
O510 O 0.80027 0.20154 0.90894 0.0
O511 O 0.80139 0.20271 0.90896 0.0
H512 H 0.79477 0.15775 0.85893 0.0
H513 H 0.81161 0.1599 0.83689 0.0
H514 H 0.91449 0.19555 0.84733 0.0
H515 H 0.89812 0.19322 0.86915 0.0
H516 H 0.84138 0.33166 0.89111 0.0
H517 H 0.88212 0.3794 0.89488 0.0
H518 H 0.82569 0.40569 0.92862 0.0
H519 H 0.78483 0.35856 0.92463 0.0
Ho520 Ho 0.62991 0.09669 0.64605 0.0
Ho521 Ho 0.59133 0.07653 0.65179 0.0
C522 C 0.58815 0.06866 0.6224 0.0
C523 C 0.69048 0.09079 0.6359 0.0
C524 C 0.71442 0.1051 0.62673 0.0
C525 C 0.73633 0.08165 0.62049 0.0
C526 C 0.76761 0.09339 0.61545 0.0
C527 C 0.77714 0.12863 0.61671 0.0
C528 C 0.75305 0.15277 0.62153 0.0
C529 C 0.72161 0.14103 0.6265 0.0
C530 C 0.59914 0.16347 0.64619 0.0
C531 C 0.61484 0.12491 0.67186 0.0
C532 C 0.53263 0.04859 0.65778 0.0
C533 C 0.49981 0.06758 0.65666 0.0
C534 C 0.49902 0.09592 0.64834 0.0
C535 C 0.47852 0.12496 0.65099 0.0
C536 C 0.45796 0.12533 0.66175 0.0
C537 C 0.45476 0.09493 0.66899 0.0
C538 C 0.47585 0.0661 0.66648 0.0
C539 C 0.64739 1.04722 0.67109 0.0
O540 O 0.60793 0.09541 0.6254 0.0
O541 O 0.58044 0.05121 0.63245 0.0
O542 O 0.68392 0.11044 0.64556 0.0
O543 O 0.66347 0.07301 0.63199 0.0
O544 O 0.63197 0.15565 0.64747 0.0
O545 O 0.58251 0.13383 0.64466 0.0
O546 O 0.58501 0.11311 0.66794 0.0
O547 O 0.64171 0.11849 0.66479 0.0
O548 O 0.55368 0.06249 0.66593 0.0
O549 O 0.54836 1.04173 0.64728 0.0
O550 O 0.63868 1.04611 0.65911 0.0
O551 O 0.63765 1.04727 0.65915 0.0
H552 H 0.73084 0.05387 0.6205 0.0
H553 H 0.7853 0.07458 0.61127 0.0
H554 H 0.75964 0.18019 0.62234 0.0
H555 H 0.70461 0.15956 0.63118 0.0
H556 H 0.51757 0.0977 0.64073 0.0
H557 H 0.48118 0.14818 0.64533 0.0
H558 H 0.43906 0.09492 0.6774 0.0
H559 H 0.47654 1.04473 0.67307 0.0
Ho560 Ho 0.73869 0.88136 0.39327 0.0
Ho561 Ho 0.7585 0.84601 0.40121 0.0
C562 C 0.7678 0.8333 0.37184 0.0
C563 C 0.75064 0.92754 0.3767 0.0
C564 C 0.75053 0.92596 0.36302 0.0
C565 C 0.77973 0.91291 0.35646 0.0
C566 C 0.78338 0.91951 0.34377 0.0
C567 C 0.75896 0.94107 0.33783 0.0
C568 C 0.72632 0.9466 0.34368 0.0
C569 C 0.72254 0.93999 0.35634 0.0
C570 C 0.67395 0.84638 0.39458 0.0
C571 C 0.7123 0.89054 0.41874 0.0
C572 C 0.78396 0.79036 0.41128 0.0
C573 C 0.76935 0.75533 0.4107 0.0
C574 C 0.74338 0.74797 0.4018 0.0
C575 C 0.72043 0.72023 0.40362 0.0
C576 C 0.72327 0.69969 0.41436 0.0
C577 C 0.75176 0.70501 0.42251 0.0
C578 C 0.77463 0.73276 0.42068 0.0
C579 C 0.7913 0.90078 0.41911 0.0
O580 O 0.73998 0.85208 0.37402 0.0
O581 O 0.78517 0.82943 0.38231 0.0
O582 O 0.72051 0.92545 0.38247 0.0
O583 O 0.77538 0.90945 0.38204 0.0
O584 O 0.67879 0.87998 0.39554 0.0
O585 O 0.70462 0.83211 0.39317 0.0
O586 O 0.72091 0.8576 0.41718 0.0
O587 O 0.71866 0.91076 0.40934 0.0
O588 O 0.76409 0.81238 0.41719 0.0
O589 O 0.7952 0.80289 0.40078 0.0
O590 O 0.78894 0.89448 0.407 0.0
O591 O 0.78797 0.89343 0.40694 0.0
H592 H 0.80121 0.90036 0.36125 0.0
H593 H 0.80801 0.9133 0.33929 0.0
H594 H 0.70589 0.96168 0.33926 0.0
H595 H 0.69911 0.94888 0.36107 0.0
H596 H 0.73881 0.76552 0.39407 0.0
H597 H 0.69889 0.71659 0.39719 0.0
H598 H 0.75443 0.69007 0.43101 0.0
H599 H 0.79423 0.73849 0.4277 0.0
Ho600 Ho 0.96599 0.99513 0.14757 0.0
Ho601 Ho 1.00445 1.01709 0.15307 0.0
C602 C 1.00824 1.02421 0.12373 0.0
C603 C 0.90611 0.99277 0.13677 0.0
C604 C 0.89454 0.97024 0.1267 0.0
C605 C 0.86684 0.9806 0.11913 0.0
C606 C 0.85559 0.95855 0.10964 0.0
C607 C 0.87189 0.92603 0.10778 0.0
C608 C 0.89984 0.91584 0.11525 0.0
C609 C 0.91147 0.93815 0.12459 0.0
C610 C 0.99994 0.92994 0.14743 0.0
C611 C 0.98448 0.96797 0.17326 0.0
C612 C 0.06115 0.0491 0.15918 0.0
C613 C 0.09608 1.03483 0.15735 0.0
C614 C 0.10039 1.00846 0.1483 0.0
C615 C 0.12554 0.9827 0.14996 0.0
C616 C 0.14666 0.98334 0.16061 0.0
C617 C 0.14585 1.01272 0.16856 0.0
C618 C 0.1205 1.03838 0.16694 0.0
C619 C 0.94993 1.04325 0.17298 0.0
O620 O 0.98737 0.9982 0.12671 0.0
O621 O 1.01695 1.04119 0.13381 0.0
O622 O 0.91298 0.97652 0.14711 0.0
O623 O 0.93013 1.01541 0.13376 0.0
O624 O 0.96738 0.93647 0.14977 0.0
O625 O 1.01474 0.96027 0.14531 0.0
O626 O 1.01352 0.9809 0.16906 0.0
O627 O 0.95679 0.97314 0.16647 0.0
O628 O 1.04258 1.03117 0.16706 0.0
O629 O 1.04391 0.05606 0.14902 0.0
O630 O 0.95576 1.04493 0.1608 0.0
O631 O 0.95679 1.04395 0.16082 0.0
H632 H 0.8539 1.00545 0.12061 0.0
H633 H 0.83378 0.96655 0.10386 0.0
H634 H 0.9126 0.89088 0.11382 0.0
H635 H 0.93346 0.93015 0.13019 0.0
H636 H 0.08154 1.00511 0.14085 0.0
H637 H 0.12587 0.96039 0.14371 0.0
H638 H 0.16168 1.01375 0.17693 0.0
H639 H 0.11723 0.05829 0.17405 0.0
Ho640 Ho 0.76608 0.75453 0.90221 0.0
Ho641 Ho 0.74562 0.71875 0.89663 0.0
C642 C 0.71998 0.72537 0.92259 0.0
C643 C 0.79717 0.81253 0.90788 0.0
C644 C 0.784 0.84791 0.90625 0.0
C645 C 0.75318 0.85264 0.89933 0.0
C646 C 0.73145 0.88091 0.90193 0.0
C647 C 0.74049 0.90413 0.91152 0.0
C648 C 0.77446 0.90311 0.91654 0.0
C649 C 0.79605 0.87459 0.91406 0.0
C650 C 0.79461 0.69573 0.92108 0.0
C651 C 0.7674 0.76141 0.87287 0.0
C652 C 0.75201 0.66764 0.88158 0.0
C653 C 0.73627 0.66571 0.86921 0.0
C654 C 0.75633 0.65535 0.85895 0.0
C655 C 0.74005 0.64984 0.8475 0.0
C656 C 0.70353 0.65334 0.84655 0.0
C657 C 0.68499 0.66991 0.85611 0.0
C658 C 0.70127 0.67584 0.86749 0.0
C659 C 0.67869 0.74914 0.89749 0.0
O660 O 0.73166 0.75605 0.91933 0.0
O661 O 0.72481 0.70037 0.91454 0.0
O662 O 0.77932 0.79416 0.91584 0.0
O663 O 0.80308 0.79535 0.89764 0.0
O664 O 0.79715 0.70718 0.9094 0.0
O665 O 0.79563 0.7083 0.90951 0.0
O666 O 0.73973 0.74545 0.87715 0.0
O667 O 0.7893 0.76524 0.88212 0.0
O668 O 0.73011 0.66703 0.89095 0.0
O669 O 0.77629 0.69141 0.88272 0.0
O670 O 0.68664 0.71629 0.89884 0.0
O671 O 0.70835 0.76581 0.89591 0.0
H672 H 0.74366 0.83221 0.89319 0.0
H673 H 0.70538 0.88119 0.89797 0.0
H674 H 0.78184 0.92101 0.92394 0.0
H675 H 0.81987 0.87131 0.91939 0.0
H676 H 0.78385 0.6493 0.85998 0.0
H677 H 0.75483 0.63755 0.84005 0.0
H678 H 0.65691 0.67331 0.85548 0.0
H679 H 0.68577 0.68602 0.87513 0.0
Ho680 Ho 0.58434 0.51149 0.15099 0.0
Ho681 Ho 0.62104 0.4896 0.14549 0.0
C682 C 0.60726 0.45911 0.17024 0.0
C683 C 0.52592 0.54038 0.15717 0.0
C684 C 0.49149 0.52396 0.15682 0.0
C685 C 0.4891 0.48769 0.1581 0.0
C686 C 0.45689 0.47202 0.16 0.0
C687 C 0.42615 0.49234 0.16044 0.0
C688 C 0.42843 0.52774 0.15683 0.0
C689 C 0.46106 0.54369 0.15536 0.0
C690 C 0.63545 0.53924 0.17168 0.0
C691 C 0.58124 0.52079 0.12209 0.0
C692 C 0.67521 0.49651 0.13187 0.0
C693 C 0.68026 0.4909 0.11847 0.0
C694 C 0.67365 0.51802 0.10995 0.0
C695 C 0.68701 0.51598 0.09791 0.0
C696 C 0.70852 0.48772 0.09468 0.0
C697 C 0.70743 0.45743 0.10207 0.0
C698 C 0.69426 0.45939 0.11411 0.0
C699 C 0.586 0.42548 0.14449 0.0
O700 O 0.57775 0.47054 0.16582 0.0
O701 O 0.63509 0.46781 0.164 0.0
O702 O 0.54749 0.52703 0.16524 0.0
O703 O 0.5404 0.54475 0.14633 0.0
O704 O 0.63198 0.53944 0.15939 0.0
O705 O 0.6308 0.53836 0.15936 0.0
O706 O 0.59579 0.4912 0.1253 0.0
O707 O 0.57794 0.54005 0.13207 0.0
O708 O 0.67013 0.46888 0.13878 0.0
O709 O 0.65486 0.52268 0.1348 0.0
O710 O 0.61914 0.42985 0.14687 0.0
O711 O 0.57229 0.4564 0.14279 0.0
H712 H 0.51236 0.47164 0.15856 0.0
H713 H 0.45719 0.44466 0.16242 0.0
H714 H 0.40532 0.54394 0.15624 0.0
H715 H 0.46252 0.57153 0.1537 0.0
H716 H 0.66126 0.54213 0.11288 0.0
H717 H 0.68618 0.53906 0.0921 0.0
H718 H 0.72247 0.43444 0.0996 0.0
H719 H 0.69817 0.43747 0.12031 0.0
Ho720 Ho 0.83196 0.34498 0.40327 0.0
Ho721 Ho 0.85671 0.37394 0.39836 0.0
C722 C 0.88384 0.35188 0.42327 0.0
C723 C 0.7894 0.29388 0.40773 0.0
C724 C 0.79638 0.25675 0.40592 0.0
C725 C 0.82641 0.24728 0.39915 0.0
C726 C 0.84482 0.21728 0.40238 0.0
C727 C 0.83318 0.19695 0.41239 0.0
C728 C 0.79932 0.20247 0.41717 0.0
C729 C 0.78114 0.23279 0.41407 0.0
C730 C 0.78455 0.39795 0.41814 0.0
C731 C 0.824 0.33884 0.37469 0.0
C732 C 0.8566 0.42652 0.38402 0.0
C733 C 0.86744 0.42471 0.37093 0.0
C734 C 0.84224 0.42649 0.36145 0.0
C735 C 0.85244 0.42429 0.34901 0.0
C736 C 0.88803 0.42134 0.34599 0.0
C737 C 0.91248 0.41497 0.3554 0.0
C738 C 0.90233 0.41692 0.36781 0.0
C739 C 0.91882 0.33708 0.3976 0.0
O740 O 0.86693 0.32561 0.41848 0.0
O741 O 0.88184 0.38092 0.41701 0.0
O742 O 0.80928 0.30814 0.41614 0.0
O743 O 0.78799 0.31258 0.39766 0.0
O744 O 0.81687 0.39398 0.41422 0.0
O745 O 0.81731 0.39367 0.4141 0.0
O746 O 0.8556 0.34341 0.37899 0.0
O747 O 0.80309 0.34541 0.384 0.0
O748 O 0.88123 0.42161 0.39228 0.0
O749 O 0.82783 0.40952 0.38656 0.0
O750 O 0.91604 0.3706 0.39946 0.0
O751 O 0.88716 0.3242 0.39647 0.0
H752 H 0.83848 0.26555 0.39276 0.0
H753 H 0.87073 0.2135 0.39851 0.0
H754 H 0.78969 0.18668 0.4248 0.0
H755 H 0.75792 0.23971 0.41933 0.0
H756 H 0.81493 0.43084 0.36364 0.0
H757 H 0.83325 0.42927 0.3418 0.0
H758 H 0.94009 0.41284 0.35323 0.0
H759 H 0.92219 0.41374 0.37491 0.0
Ho760 Ho 1.003 0.58217 0.65012 0.0
Ho761 Ho 0.9638 0.60515 0.64604 0.0
C762 C 0.98808 0.62916 0.67156 0.0
C763 C 0.05932 0.5466 0.65413 0.0
C764 C 0.09549 0.55751 0.65267 0.0
C765 C 0.10214 0.59178 0.64882 0.0
C766 C 0.13396 0.60737 0.65166 0.0
C767 C 0.15924 0.58869 0.65841 0.0
C768 C 0.15484 0.55243 0.65999 0.0
C769 C 0.12258 0.53702 0.6574 0.0
C770 C 0.94847 0.55368 0.6704 0.0
C771 C 1.00161 0.58111 0.6207 0.0
C772 C 0.90114 0.60274 0.63758 0.0
C773 C 0.87542 0.61731 0.62908 0.0
C774 C 0.85589 0.5938 0.62191 0.0
C775 C 0.82323 0.60354 0.61751 0.0
C776 C 0.80994 0.63682 0.62031 0.0
C777 C 0.83141 0.66179 0.62603 0.0
C778 C 0.86422 0.65207 0.63041 0.0
C779 C 0.9965 0.67047 0.64587 0.0
O780 O 1.01604 0.6164 0.66642 0.0
O781 O 0.95897 0.6248 0.66548 0.0
O782 O 1.04253 0.56355 0.66282 0.0
O783 O 1.04151 0.54461 0.64382 0.0
O784 O 0.95518 0.55354 0.65821 0.0
O785 O 0.95625 0.55461 0.65829 0.0
O786 O 0.98209 0.60659 0.6251 0.0
O787 O 1.01198 0.56136 0.62984 0.0
O788 O 0.91075 0.62224 0.64696 0.0
O789 O 0.92623 0.58338 0.633 0.0
O790 O 0.96386 0.66365 0.64814 0.0
O791 O 1.01204 0.64044 0.64367 0.0
H792 H 0.08135 0.60773 0.645 0.0
H793 H 0.13639 0.63522 0.65019 0.0
H794 H 0.17438 0.53722 0.66486 0.0
H795 H 0.11781 0.51031 0.66023 0.0
H796 H 0.86436 0.56698 0.62071 0.0
H797 H 0.80745 0.58438 0.61262 0.0
H798 H 0.82182 0.68786 0.62798 0.0
H799 H 0.87924 0.67078 0.63579 0.0
Ho800 Ho 0.76234 0.34908 0.75224 0.0
Ho801 Ho 0.73804 0.38751 0.75691 0.0
C802 C 0.71937 0.37627 0.73021 0.0
C803 C 0.79577 0.29228 0.74676 0.0
C804 C 0.78456 0.2563 0.74852 0.0
C805 C 0.75206 0.2502 0.75418 0.0
C806 C 0.73374 0.21973 0.75145 0.0
C807 C 0.74792 0.19555 0.743 0.0
C808 C 0.78329 0.19859 0.73951 0.0
C809 C 0.80139 0.22941 0.74204 0.0
C810 C 0.79652 0.39819 0.73301 0.0
C811 C 0.76326 0.34699 0.78168 0.0
C812 C 0.73219 0.44481 0.76902 0.0
C813 C 0.71015 0.45179 0.77982 0.0
C814 C 0.72453 0.46858 0.79016 0.0
C815 C 0.70379 0.47525 0.80051 0.0
C816 C 0.66828 0.46532 0.80062 0.0
C817 C 0.65433 0.44706 0.79047 0.0
C818 C 0.67529 0.43995 0.78016 0.0
C819 C 0.6748 0.34931 0.75603 0.0
O820 O 0.72953 0.34599 0.73456 0.0
O821 O 0.72278 0.40234 0.73784 0.0
O822 O 0.7768 0.30947 0.7388 0.0
O823 O 0.80102 0.30997 0.75695 0.0
O824 O 0.79195 0.39725 0.74524 0.0
O825 O 0.79104 0.39618 0.74528 0.0
O826 O 0.73729 0.36623 0.77752 0.0
O827 O 0.78344 0.33816 0.77238 0.0
O828 O 0.71554 0.43877 0.75864 0.0
O829 O 0.75781 0.42295 0.77099 0.0
O830 O 0.67911 0.38188 0.75316 0.0
O831 O 0.70567 0.33728 0.759 0.0
H832 H 0.73894 0.27079 0.75933 0.0
H833 H 0.70663 0.21798 0.75433 0.0
H834 H 0.79487 0.17984 0.73314 0.0
H835 H 0.82666 0.23373 0.73774 0.0
H836 H 0.75154 0.47717 0.79013 0.0
H837 H 0.71508 0.49011 0.80811 0.0
H838 H 0.62703 0.43954 0.79034 0.0
H839 H 0.66392 0.42596 0.77237 0.0
Ho840 Ho 1.00615 0.51599 1.00255 0.0
Ho841 Ho 0.96754 0.49454 1.00927 0.0
C842 C 0.97637 0.46773 0.98319 0.0
C843 C 0.06359 0.54246 0.99437 0.0
C844 C 0.09697 0.52409 0.99496 0.0
C845 C 0.10104 0.49815 1.00412 0.0
C846 C 0.12267 0.4696 1.00188 0.0
C847 C 0.14063 0.46704 0.99058 0.0
C848 C 0.14041 0.49531 0.98225 0.0
C849 C 0.1185 0.52378 0.98442 0.0
C850 C 0.9454 0.54402 0.98456 0.0
C851 C 1.01389 0.52525 1.03188 0.0
C852 C 0.91434 0.49832 1.02353 0.0
C853 C 0.9148 0.49136 1.0369 0.0
C854 C 0.9049 0.51809 1.04505 0.0
C855 C 0.90927 0.51407 1.05779 0.0
C856 C 0.92299 0.48281 1.06267 0.0
C857 C 0.93535 0.45709 1.05442 0.0
C858 C 0.93118 0.46128 1.04161 0.0
C859 C 1.00317 0.43021 1.0088 0.0
O860 O 1.00735 0.47679 0.98701 0.0
O861 O 0.95055 0.47519 0.99066 0.0
O862 O 1.04098 0.52696 0.98718 0.0
O863 O 0.05005 0.55122 1.00507 0.0
O864 O 0.95729 0.54608 0.9962 0.0
O865 O 0.95847 0.54459 0.99611 0.0
O866 O 0.99396 0.49823 1.0293 0.0
O867 O 1.0204 0.54219 1.02157 0.0
O868 O 0.91947 0.47171 1.01609 0.0
O869 O 0.93283 0.52567 1.02052 0.0
O870 O 0.96997 0.43497 1.00678 0.0
O871 O 1.01684 0.46103 1.01089 0.0
H872 H 0.08445 0.49772 1.01231 0.0
H873 H 0.12311 0.44822 1.00845 0.0
H874 H 0.15414 0.49365 0.97342 0.0
H875 H 0.11534 0.54326 0.9772 0.0
H876 H 0.89361 0.54209 1.04154 0.0
H877 H 0.89893 0.53435 1.06382 0.0
H878 H 0.94572 0.43272 1.05794 0.0
H879 H 0.94062 0.44092 1.03543 0.0
Ho880 Ho 0.82459 0.75338 0.25153 0.0
Ho881 Ho 0.85065 0.71069 0.25535 0.0
C882 C 0.86905 0.7384 0.22955 0.0
C883 C 0.78868 0.80881 0.24681 0.0
C884 C 0.80048 0.84483 0.24813 0.0
C885 C 0.83164 0.85101 0.25472 0.0
C886 C 0.853 0.87891 0.25141 0.0
C887 C 0.84322 0.90046 0.24149 0.0
C888 C 0.8091 0.89812 0.23665 0.0
C889 C 0.78785 0.86998 0.23987 0.0
C890 C 0.79197 0.69916 0.2322 0.0
C891 C 0.82439 0.74929 0.28109 0.0
C892 C 0.8592 0.64641 0.26168 0.0
C893 C 0.88203 0.62643 0.26971 0.0
C894 C 0.87062 0.59376 0.27369 0.0
C895 C 0.89212 0.5736 0.28115 0.0
C896 C 0.92516 0.58604 0.28472 0.0
C897 C 0.9367 0.61885 0.2808 0.0
C898 C 0.91513 0.63906 0.27322 0.0
C899 C 0.91274 0.75039 0.2557 0.0
O900 O 0.86022 0.76645 0.23559 0.0
O901 O 0.86319 0.70898 0.23516 0.0
O902 O 0.80592 0.79144 0.23833 0.0
O903 O 0.78559 0.79138 0.25715 0.0
O904 O 0.79657 0.70383 0.24439 0.0
O905 O 0.79733 0.70478 0.24438 0.0
O906 O 0.84565 0.72474 0.27679 0.0
O907 O 0.80872 0.76558 0.27201 0.0
O908 O 0.87434 0.66066 0.25212 0.0
O909 O 0.83701 0.66718 0.26722 0.0
O910 O 0.90937 0.71809 0.25234 0.0
O911 O 0.88158 0.76148 0.25889 0.0
H912 H 0.84183 0.83168 0.26112 0.0
H913 H 0.87919 0.88016 0.25525 0.0
H914 H 0.80108 0.91478 0.22903 0.0
H915 H 0.76389 0.8655 0.23472 0.0
H916 H 0.84502 0.58398 0.27111 0.0
H917 H 0.88256 0.54867 0.28449 0.0
H918 H 0.96178 0.62895 0.28381 0.0
H919 H 0.92404 0.6645 0.27019 0.0
Ho920 Ho 0.5953 0.57416 0.50608 0.0
Ho921 Ho 0.62958 0.60069 0.5108 0.0
C922 C 0.61226 0.61905 0.48441 0.0
C923 C 0.54133 0.5366 0.50034 0.0
C924 C 0.50592 0.54907 0.49807 0.0
C925 C 0.4958 0.58044 0.50391 0.0
C926 C 0.47643 0.60484 0.49728 0.0
C927 C 0.46699 0.59755 0.48496 0.0
C928 C 0.47117 0.56376 0.48011 0.0
C929 C 0.49031 0.53921 0.48678 0.0
C930 C 0.64671 0.54334 0.48639 0.0
C931 C 0.59042 0.56904 0.53485 0.0
C932 C 0.68473 0.60628 0.52411 0.0
C933 C 0.68518 0.62044 0.53672 0.0
C934 C 0.69827 0.59959 0.54631 0.0
C935 C 0.68957 0.60709 0.55861 0.0
C936 C 0.66784 0.63564 0.56143 0.0
C937 C 0.65607 0.65747 0.55191 0.0
C938 C 0.66451 0.64982 0.53959 0.0
C939 C 0.5915 0.66248 0.50949 0.0
O940 O 0.58355 0.60812 0.48958 0.0
O941 O 0.64033 0.61577 0.49115 0.0
O942 O 0.56358 0.5484 0.49223 0.0
O943 O 0.55297 0.53971 0.51169 0.0
O944 O 0.64571 0.55002 0.49851 0.0
O945 O 0.64481 0.5506 0.49857 0.0
O946 O 0.60128 0.59963 0.53082 0.0
O947 O 0.59157 0.54759 0.52543 0.0
O948 O 0.67735 0.6283 0.51522 0.0
O949 O 0.66696 0.57724 0.52325 0.0
O950 O 0.62478 0.65916 0.50737 0.0
O951 O 0.57897 0.63133 0.51192 0.0
H952 H 0.50749 0.58856 0.51265 0.0
H953 H 0.47324 0.6309 0.5011 0.0
H954 H 0.46371 0.55789 0.47058 0.0
H955 H 0.49783 0.5151 0.48218 0.0
H956 H 0.71357 0.57646 0.54424 0.0
H957 H 0.69991 0.59063 0.56593 0.0
H958 H 0.63993 0.68 0.55399 0.0
H959 H 0.65332 0.66586 0.53232 0.0
Ho960 Ho 0.3544 0.38064 0.26176 0.0
Ho961 Ho 0.33303 0.35117 0.2545 0.0
C962 C 0.32479 0.33573 0.28326 0.0
C963 C 0.33813 0.42425 0.27913 0.0
C964 C 0.32832 0.41874 0.29227 0.0
C965 C 0.29551 0.40423 0.2953 0.0
C966 C 0.28433 0.4026 0.30761 0.0
C967 C 0.30418 0.41859 0.31698 0.0
C968 C 0.33899 0.42844 0.31418 0.0
C969 C 0.3508 0.42877 0.30189 0.0
C970 C 0.41885 0.34593 0.25993 0.0
C971 C 0.38324 0.39149 0.23711 0.0
C972 C 0.2989 0.29691 0.24657 0.0
C973 C 0.30734 0.26014 0.24801 0.0
C974 C 0.33683 0.25173 0.25519 0.0
C975 C 0.35908 0.22532 0.25111 0.0
C976 C 0.35152 0.20819 0.23989 0.0
C977 C 0.31737 0.20975 0.23508 0.0
C978 C 0.2954 0.23671 0.23894 0.0
C979 C 0.30689 0.40284 0.23471 0.0
O980 O 0.35583 0.34618 0.27999 0.0
O981 O 0.30445 0.34135 0.27366 0.0
O982 O 0.37057 0.41866 0.27581 0.0
O983 O 0.31577 0.41179 0.27113 0.0
O984 O 0.41443 0.37981 0.26019 0.0
O985 O 0.38785 0.33154 0.26038 0.0
O986 O 0.36988 0.35985 0.23797 0.0
O987 O 0.38039 0.41035 0.24714 0.0
O988 O 0.32147 0.31397 0.23987 0.0
O989 O 0.29134 0.3134 0.25679 0.0
O990 O 0.30708 0.4003 0.24698 0.0
O991 O 0.30822 0.39886 0.24712 0.0
H992 H 0.27758 0.39532 0.28815 0.0
H993 H 0.25811 0.39331 0.3095 0.0
H994 H 0.35586 0.44005 0.32114 0.0
H995 H 0.37651 0.43919 0.29985 0.0
H996 H 0.34596 0.26934 0.26243 0.0
H997 H 0.38506 0.22377 0.25511 0.0
H998 H 0.31088 0.19586 0.22657 0.0
H999 H 0.27231 0.24258 0.23348 0.0
Ho1000 Ho 0.46398 0.60189 1.00678 0.0
Ho1001 Ho 0.50054 0.5809 1.00204 0.0
C1002 C 0.503 0.57869 1.03132 0.0
C1003 C 0.40708 0.59044 1.0183 0.0
C1004 C 0.37477 0.58397 1.02485 0.0
C1005 C 0.35166 0.55814 1.02063 0.0
C1006 C 0.31834 0.55569 1.02585 0.0
C1007 C 0.30836 0.57906 1.0353 0.0
C1008 C 0.33298 0.60274 1.04019 0.0
C1009 C 0.3659 0.60545 1.03488 0.0
C1010 C 0.49415 0.66827 1.00705 0.0
C1011 C 0.47946 0.6296 0.98151 0.0
C1012 C 0.5587 0.54873 0.99746 0.0
C1013 C 0.59406 0.5616 0.99961 0.0
C1014 C 0.59829 0.59576 1.00411 0.0
C1015 C 0.62966 0.61327 1.00218 0.0
C1016 C 0.65697 0.59661 0.99573 0.0
C1017 C 0.65477 0.56033 0.99355 0.0
C1018 C 0.62297 0.54304 0.99517 0.0
C1019 C 0.45006 0.55424 0.98073 0.0
O1020 O 0.48703 0.60627 1.02697 0.0
O1021 O 0.50835 0.55713 1.02207 0.0
O1022 O 0.4119 0.61871 1.01174 0.0
O1023 O 0.43323 0.5685 1.01878 0.0
O1024 O 0.46127 0.66064 1.00532 0.0
O1025 O 0.51095 0.63867 1.00861 0.0
O1026 O 0.50874 0.61706 0.98581 0.0
O1027 O 0.4518 0.62395 0.98828 0.0
O1028 O 0.54141 0.56624 0.98912 0.0
O1029 O 0.54032 0.54364 1.00747 0.0
O1030 O 0.45376 0.55254 0.99304 0.0
O1031 O 0.45493 0.5537 0.99301 0.0
H1032 H 0.35874 0.54114 1.01292 0.0
H1033 H 0.29992 0.53692 1.02209 0.0
H1034 H 0.32632 0.62011 1.04783 0.0
H1035 H 0.38401 0.62502 1.03832 0.0
H1036 H 0.57617 0.61017 1.00778 0.0
H1037 H 0.63041 0.64105 1.0041 0.0
H1038 H 0.67587 0.54666 0.98887 0.0
H1039 H 0.62015 0.5164 0.99189 0.0
Ho1040 Ho 0.23986 0.70886 0.76019 0.0
Ho1041 Ho 0.26397 0.74424 0.75212 0.0
C1042 C 0.27501 0.75226 0.78126 0.0
C1043 C 0.2418 0.66061 0.7766 0.0
C1044 C 0.2373 0.66574 0.79006 0.0
C1045 C 0.26518 0.67882 0.79726 0.0
C1046 C 0.25961 0.68999 0.80942 0.0
C1047 C 0.22644 0.68681 0.81486 0.0
C1048 C 0.19864 0.6734 0.8077 0.0
C1049 C 0.20401 0.66307 0.79541 0.0
C1050 C 0.17522 0.74117 0.75762 0.0
C1051 C 0.21601 0.71183 0.73375 0.0
C1052 C 0.29002 0.80594 0.7488 0.0
C1053 C 0.27204 0.83941 0.74887 0.0
C1054 C 0.23904 0.84225 0.75455 0.0
C1055 C 0.21763 0.87073 0.752 0.0
C1056 C 0.22919 0.89674 0.74383 0.0
C1057 C 0.26338 0.89501 0.73895 0.0
C1058 C 0.28464 0.86642 0.74144 0.0
C1059 C 0.30004 0.69293 0.73721 0.0
O1060 O 0.24302 0.74427 0.77816 0.0
O1061 O 0.2946 0.74624 0.77134 0.0
O1062 O 0.21423 0.66611 0.76968 0.0
O1063 O 0.2699 0.67499 0.772 0.0
O1064 O 0.18156 0.70777 0.75762 0.0
O1065 O 0.20561 0.75736 0.75834 0.0
O1066 O 0.22381 0.74363 0.737 0.0
O1067 O 0.22476 0.68774 0.74168 0.0
O1068 O 0.28083 0.78537 0.73974 0.0
O1069 O 0.29091 0.78979 0.75939 0.0
O1070 O 0.2924 0.72463 0.73426 0.0
O1071 O 0.28837 0.68968 0.74864 0.0
H1072 H 0.29123 0.68146 0.7934 0.0
H1073 H 0.28154 0.70023 0.81468 0.0
H1074 H 0.17298 0.66939 0.81171 0.0
H1075 H 0.18203 0.65325 0.79008 0.0
H1076 H 0.22895 0.82144 0.76032 0.0
H1077 H 0.19142 0.87147 0.75583 0.0
H1078 H 0.27275 0.91432 0.73239 0.0
H1079 H 0.30984 0.86426 0.73687 0.0
Ho1080 Ho 0.12368 0.49563 0.5062 0.0
Ho1081 Ho 0.08946 0.51785 0.5012 0.0
C1082 C 0.0827 0.52507 0.52977 0.0
C1083 C 0.1767 0.49399 0.52058 0.0
C1084 C 0.17612 0.47823 0.53304 0.0
C1085 C 0.15756 0.4944 0.54278 0.0
C1086 C 0.1536 0.47783 0.55417 0.0
C1087 C 0.17128 0.44644 0.55651 0.0
C1088 C 0.18725 0.42879 0.54646 0.0
C1089 C 0.18972 0.44464 0.53484 0.0
C1090 C 0.09134 0.43018 0.50529 0.0
C1091 C 0.11171 0.47279 0.47995 0.0
C1092 C 1.03183 0.55048 0.49635 0.0
C1093 C 0.99656 0.53651 0.49764 0.0
C1094 C 0.99185 0.5066 0.50502 0.0
C1095 C 0.96574 0.48271 0.502 0.0
C1096 C 0.94456 0.48875 0.4916 0.0
C1097 C 0.94482 0.52184 0.48594 0.0
C1098 C 0.97121 0.5456 0.48885 0.0
C1099 C 0.13959 0.54757 0.48081 0.0
O1100 O 0.09421 0.49471 0.52584 0.0
O1101 O 0.08386 0.54602 0.5203 0.0
O1102 O 0.17285 0.47202 0.51137 0.0
O1103 O 0.15773 0.52215 0.51924 0.0
O1104 O 0.12398 0.43719 0.50308 0.0
O1105 O 0.07599 0.46022 0.50756 0.0
O1106 O 0.08189 0.48341 0.48439 0.0
O1107 O 0.13843 0.47744 0.48725 0.0
O1108 O 0.05044 0.53458 0.4879 0.0
O1109 O 0.04895 0.55438 0.50671 0.0
O1110 O 0.13743 0.54593 0.49312 0.0
O1111 O 0.13632 0.54498 0.49316 0.0
H1112 H 0.14666 0.52029 0.54177 0.0
H1113 H 0.14134 0.49214 0.56172 0.0
H1114 H 0.20129 0.40457 0.54787 0.0
H1115 H 0.20329 0.43111 0.52738 0.0
H1116 H 1.01123 0.49924 0.51189 0.0
H1117 H 0.96597 0.45738 0.50648 0.0
H1118 H 0.92839 0.52693 0.47792 0.0
H1119 H 0.97449 0.56861 0.48312 0.0
Ho1120 Ho 0.34972 0.72029 0.39439 0.0
Ho1121 Ho 0.32863 0.7559 0.40057 0.0
C1122 C 0.31971 0.76284 0.37159 0.0
C1123 C 0.34187 0.66818 0.37971 0.0
C1124 C 0.34414 0.66545 0.36607 0.0
C1125 C 0.31463 0.67305 0.35874 0.0
C1126 C 0.31246 0.66023 0.34665 0.0
C1127 C 0.33905 0.63824 0.34217 0.0
C1128 C 0.37202 0.64005 0.34798 0.0
C1129 C 0.37414 0.65208 0.36026 0.0
C1130 C 0.41545 0.75157 0.3946 0.0
C1131 C 0.37908 0.7308 0.41977 0.0
C1132 C 0.29844 0.81285 0.40767 0.0
C1133 C 0.31313 0.8479 0.40696 0.0
C1134 C 0.3388 0.85501 0.39793 0.0
C1135 C 0.36217 0.88244 0.3997 0.0
C1136 C 0.36031 0.90277 0.41057 0.0
C1137 C 0.33195 0.89798 0.41882 0.0
C1138 C 0.3085 0.87067 0.41701 0.0
C1139 C 0.29989 0.70052 0.4201 0.0
O1140 O 0.34909 0.74767 0.37463 0.0
O1141 O 0.30064 0.76559 0.38161 0.0
O1142 O 0.37081 0.67324 0.38594 0.0
O1143 O 0.31577 0.68688 0.38385 0.0
O1144 O 0.40837 0.71857 0.39614 0.0
O1145 O 0.38546 0.76794 0.39321 0.0
O1146 O 0.36787 0.76089 0.41592 0.0
O1147 O 0.37181 0.70403 0.41271 0.0
O1148 O 0.31517 0.79235 0.41525 0.0
O1149 O 0.29209 0.79788 0.39701 0.0
O1150 O 0.30045 0.70741 0.40799 0.0
O1151 O 0.3014 0.70843 0.40799 0.0
H1152 H 0.29168 0.68543 0.3627 0.0
H1153 H 0.28735 0.66187 0.34204 0.0
H1154 H 0.39401 0.62568 0.34418 0.0
H1155 H 0.39799 0.64779 0.36548 0.0
H1156 H 0.34297 0.83741 0.39013 0.0
H1157 H 0.38351 0.88572 0.39316 0.0
H1158 H 0.3299 0.91276 0.42742 0.0
H1159 H 0.28912 0.86522 0.42412 0.0
Ho1160 Ho 0.14077 0.61313 0.14781 0.0
Ho1161 Ho 0.10013 0.58539 0.15192 0.0
C1162 C 0.10108 0.5832 0.12258 0.0
C1163 C 0.20181 0.62241 0.13829 0.0
C1164 C 0.20873 0.6337 0.12556 0.0
C1165 C 0.22866 0.61132 0.11806 0.0
C1166 C 0.22097 0.60833 0.10545 0.0
C1167 C 0.194 0.62838 0.10024 0.0
C1168 C 0.17837 0.65499 0.10724 0.0
C1169 C 0.18555 0.65753 0.11995 0.0
C1170 C 0.09918 0.67312 0.14726 0.0
C1171 C 0.11305 0.63337 0.17329 0.0
C1172 C 1.04488 0.55088 0.15757 0.0
C1173 C 1.01002 0.56599 0.15652 0.0
C1174 C 1.00535 0.59371 0.14808 0.0
C1175 C 0.98141 0.62013 0.1507 0.0
C1176 C 0.96175 0.61885 0.16168 0.0
C1177 C 0.96315 0.58871 0.16918 0.0
C1178 C 0.98713 0.56234 0.16657 0.0
C1179 C 0.15492 0.55799 0.17186 0.0
O1180 O 0.12208 0.60818 0.12672 0.0
O1181 O 0.08954 0.56451 0.13184 0.0
O1182 O 0.18722 0.64512 0.14571 0.0
O1183 O 0.18632 0.59208 0.13868 0.0
O1184 O 0.13144 0.6712 0.15091 0.0
O1185 O 0.08899 0.64146 0.14422 0.0
O1186 O 0.08583 0.62122 0.16753 0.0
O1187 O 0.14313 0.6294 0.16776 0.0
O1188 O 0.06394 0.56694 0.16585 0.0
O1189 O 0.06161 0.54593 0.14712 0.0
O1190 O 0.15048 0.56063 0.1596 0.0
O1191 O 0.14942 0.56142 0.15962 0.0
H1192 H 0.24667 0.59285 0.12221 0.0
H1193 H 0.2344 0.58868 0.09995 0.0
H1194 H 0.15851 0.67157 0.10317 0.0
H1195 H 0.16989 0.67518 0.12556 0.0
H1196 H 1.02305 0.59726 0.1403 0.0
H1197 H 0.98027 0.64278 0.1447 0.0
H1198 H 0.94842 0.58708 0.17779 0.0
H1199 H 0.99078 0.54156 0.17328 0.0
Ho1200 Ho 0.23445 0.38332 0.89662 0.0
Ho1201 Ho 0.26188 0.3436 0.8999 0.0
C1202 C 0.26294 0.34664 0.87078 0.0
C1203 C 0.22351 0.44667 0.88995 0.0
C1204 C 0.20218 0.46763 0.88157 0.0
C1205 C 0.21123 0.471 0.86895 0.0
C1206 C 0.20012 0.50019 0.86239 0.0
C1207 C 0.18059 0.52616 0.86854 0.0
C1208 C 0.16656 0.51955 0.88033 0.0
C1209 C 0.17752 0.49035 0.88687 0.0
C1210 C 0.17313 0.3432 0.89589 0.0
C1211 C 0.21669 0.35264 0.9219 0.0
C1212 C 0.29844 0.28923 0.90482 0.0
C1213 C 0.28466 0.25384 0.90429 0.0
C1214 C 0.25639 0.24694 0.89624 0.0
C1215 C 0.23142 0.22207 0.89944 0.0
C1216 C 0.23449 0.20402 0.91072 0.0
C1217 C 0.26531 0.20798 0.91786 0.0
C1218 C 0.2904 0.23244 0.91456 0.0
C1219 C 0.29299 0.39804 0.91953 0.0
O1220 O 0.23884 0.36824 0.87519 0.0
O1221 O 0.28104 0.33311 0.87979 0.0
O1222 O 0.20723 0.43183 0.89916 0.0
O1223 O 0.24818 0.42727 0.88511 0.0
O1224 O 0.17593 0.37537 0.89947 0.0
O1225 O 0.20463 0.33236 0.8929 0.0
O1226 O 0.22607 0.3262 0.91515 0.0
O1227 O 0.22268 0.38313 0.91707 0.0
O1228 O 0.28343 0.30812 0.91342 0.0
O1229 O 0.30062 0.30545 0.89418 0.0
O1230 O 0.2883 0.39364 0.90734 0.0
O1231 O 0.28756 0.39265 0.90738 0.0
H1232 H 0.22971 0.45336 0.86457 0.0
H1233 H 0.21051 0.50466 0.85313 0.0
H1234 H 0.15119 0.53914 0.88517 0.0
H1235 H 0.16988 0.48788 0.89656 0.0
H1236 H 0.25129 0.26348 0.88827 0.0
H1237 H 0.20841 0.21914 0.89365 0.0
H1238 H 0.26862 0.19513 0.92675 0.0
H1239 H 0.31167 0.23786 0.92097 0.0
Ho1240 Ho 0.46393 0.48148 0.6494 0.0
Ho1241 Ho 0.4969 0.51133 0.65398 0.0
C1242 C 0.50019 0.51107 0.62492 0.0
C1243 C 0.40815 0.492 0.63715 0.0
C1244 C 0.40004 0.48778 0.62407 0.0
C1245 C 0.37461 0.50914 0.61889 0.0
C1246 C 0.36205 0.5017 0.60709 0.0
C1247 C 0.3748 0.47255 0.60036 0.0
C1248 C 0.40356 0.45401 0.60501 0.0
C1249 C 0.41611 0.46154 0.61689 0.0
C1250 C 0.502 0.42143 0.64783 0.0
C1251 C 0.48507 0.45519 0.67401 0.0
C1252 C 0.55656 0.54083 0.65805 0.0
C1253 C 0.59047 0.52362 0.65701 0.0
C1254 C 0.59377 0.49414 0.64922 0.0
C1255 C 0.62195 0.47149 0.6506 0.0
C1256 C 0.64726 0.4784 0.65967 0.0
C1257 C 0.64544 0.50944 0.66673 0.0
C1258 C 0.61702 0.53188 0.66544 0.0
C1259 C 0.44227 0.54548 0.66865 0.0
O1260 O 0.4925 0.48083 0.62992 0.0
O1261 O 0.49713 0.53478 0.63365 0.0
O1262 O 0.41407 0.4629 0.6432 0.0
O1263 O 0.43027 0.51725 0.63965 0.0
O1264 O 0.46801 0.42287 0.64889 0.0
O1265 O 0.51477 0.45361 0.6475 0.0
O1266 O 0.51034 0.47499 0.66988 0.0
O1267 O 0.45636 0.45549 0.66748 0.0
O1268 O 0.53687 0.52872 0.6669 0.0
O1269 O 0.53952 0.54405 0.64766 0.0
O1270 O 0.46236 0.55987 0.66035 0.0
O1271 O 0.44997 0.51304 0.66729 0.0
H1272 H 0.36271 0.52998 0.62429 0.0
H1273 H 0.33974 0.51668 0.60396 0.0
H1274 H 0.41424 0.43191 0.59995 0.0
H1275 H 0.43666 0.44543 0.62076 0.0
H1276 H 0.57341 0.48731 0.64263 0.0
H1277 H 0.62305 0.44775 0.6451 0.0
H1278 H 0.66454 0.51494 0.67393 0.0
H1279 H 0.61456 0.5542 0.67163 0.0
H1280 H 0.23321 0.45141 0.4227 0.0
H1281 H 0.15798 0.3758 0.40902 0.0
H1282 H 0.11298 0.4014 0.4227 0.0
H1283 H 0.21455 0.42784 0.45147 0.0
H1284 H 0.22373 0.46917 0.45886 0.0
H1285 H 0.24493 0.45802 0.44449 0.0
H1286 H 0.22065 0.51391 0.43362 0.0
H1287 H 0.20257 0.52561 0.44853 0.0
H1288 H 0.1747 0.52385 0.4349 0.0
H1289 H 0.08154 0.4224 0.44174 0.0
H1290 H 0.06807 0.4377 0.46383 0.0
H1291 H 0.16819 0.4898 0.46681 0.0
C1292 C 0.20685 0.44118 0.42218 0.0
C1293 C 0.19925 0.41164 0.41488 0.0
C1294 C 0.16445 0.39887 0.41441 0.0
C1295 C 0.13869 0.41303 0.42224 0.0
C1296 C 0.14841 0.43924 0.43057 0.0
C1297 C 0.18189 0.4531 0.43057 0.0
C1298 C 0.18959 0.47288 0.4424 0.0
C1299 C 0.21994 0.45594 0.44972 0.0
C1300 C 0.19723 0.51141 0.43969 0.0
C1301 C 0.15533 0.46806 0.44907 0.0
C1302 C 0.13148 0.44919 0.4421 0.0
C1303 C 0.09963 0.43805 0.44714 0.0
C1304 C 0.09222 0.44652 0.45963 0.0
C1305 C 0.11713 0.46478 0.46682 0.0
C1306 C 0.14862 0.47594 0.46142 0.0
H1307 H 0.88339 0.97529 0.67255 0.0
H1308 H 0.96625 0.90758 0.65937 0.0
H1309 H 0.94551 0.8609 0.67322 0.0
H1310 H 0.90968 0.9602 0.70125 0.0
H1311 H 0.86792 0.96631 0.70872 0.0
H1312 H 0.87679 0.98751 0.69422 0.0
H1313 H 0.82277 0.95756 0.6834 0.0
H1314 H 0.81332 0.94096 0.69866 0.0
H1315 H 0.81628 0.91128 0.68554 0.0
H1316 H 0.92602 0.8277 0.69246 0.0
H1317 H 0.91212 0.81444 0.71466 0.0
H1318 H 0.85233 0.91033 0.71691 0.0
C1319 C 0.89601 0.94999 0.67212 0.0
C1320 C 0.92622 0.94508 0.66492 0.0
C1321 C 0.94251 0.9118 0.66466 0.0
C1322 C 0.93103 0.88512 0.67261 0.0
C1323 C 0.90374 0.89248 0.68083 0.0
C1324 C 0.88662 0.92443 0.68062 0.0
C1325 C 0.86654 0.93105 0.69245 0.0
C1326 C 0.88113 0.96311 0.69956 0.0
C1327 C 0.82736 0.93534 0.68983 0.0
C1328 C 0.8744 0.89777 0.69928 0.0
C1329 C 0.89532 0.8753 0.69248 0.0
C1330 C 0.90899 0.84478 0.69775 0.0
C1331 C 0.90125 0.8375 0.71032 0.0
C1332 C 0.88124 0.86143 0.71737 0.0
C1333 C 0.86732 0.89132 0.71168 0.0
H1334 H 0.34674 0.70357 0.93517 0.0
H1335 H 0.40031 0.64878 0.9053 0.0
H1336 H 0.44833 0.6337 0.91999 0.0
H1337 H 0.42218 0.74128 0.94905 0.0
H1338 H 0.40568 0.73688 0.96471 0.0
H1339 H 0.37575 0.74238 0.95191 0.0
H1340 H 0.34329 0.68511 0.95784 0.0
H1341 H 0.3722 0.68047 0.97092 0.0
H1342 H 0.3681 0.64545 0.95974 0.0
H1343 H 0.48827 0.6223 0.93873 0.0
H1344 H 0.51268 0.61143 0.95981 0.0
H1345 H 0.43451 0.67987 0.97586 0.0
C1346 C 0.36805 0.68754 0.93174 0.0
C1347 C 0.36944 0.67629 0.91923 0.0
C1348 C 0.39855 0.65679 0.91497 0.0
C1349 C 0.42601 0.64862 0.92318 0.0
C1350 C 0.42408 0.66106 0.93542 0.0
C1351 C 0.39565 0.68 0.93962 0.0
C1352 C 0.39895 0.69015 0.95313 0.0
C1353 C 0.40076 0.73004 0.95478 0.0
C1354 C 0.36889 0.67433 0.96086 0.0
C1355 C 0.43346 0.67327 0.95605 0.0
C1356 C 0.44788 0.65669 0.94577 0.0
C1357 C 0.47769 0.63583 0.94677 0.0
C1358 C 0.49168 0.63014 0.9587 0.0
C1359 C 0.47547 0.64525 0.96926 0.0
C1360 C 0.44758 0.66865 0.96781 0.0
H1361 H 0.67747 0.24735 0.21628 0.0
H1362 H 0.75642 0.16847 0.22204 0.0
H1363 H 0.75995 0.15727 0.19983 0.0
H1364 H 0.63088 0.18743 0.20055 0.0
H1365 H 0.60911 0.2167 0.18994 0.0
H1366 H 0.62464 0.23273 0.20463 0.0
H1367 H 0.66045 0.28003 0.19305 0.0
H1368 H 0.64548 0.26319 0.17828 0.0
H1369 H 0.69163 0.26724 0.18127 0.0
H1370 H 0.74943 0.14543 0.17873 0.0
H1371 H 0.71157 0.11413 0.16402 0.0
H1372 H 0.6278 0.18715 0.17166 0.0
C1373 C 0.69629 0.22882 0.21262 0.0
C1374 C 0.71945 0.21135 0.22062 0.0
C1375 C 0.74135 0.18481 0.2159 0.0
C1376 C 0.7433 0.17812 0.20321 0.0
C1377 C 0.72057 0.19578 0.19536 0.0
C1378 C 0.69585 0.21901 0.19999 0.0
C1379 C 0.66616 0.22352 0.1908 0.0
C1380 C 0.63065 0.2145 0.19683 0.0
C1381 C 0.66596 0.26072 0.18554 0.0
C1382 C 0.67684 0.19706 0.18088 0.0
C1383 C 0.70987 0.18392 0.18323 0.0
C1384 C 0.72377 0.15573 0.17662 0.0
C1385 C 0.70219 0.13805 0.16829 0.0
C1386 C 0.66713 0.14846 0.16683 0.0
C1387 C 0.65499 0.17959 0.17247 0.0
H1388 H 0.22437 0.72607 0.22138 0.0
H1389 H 0.19069 0.6483 0.24801 0.0
H1390 H 0.1413 0.6323 0.23396 0.0
H1391 H 0.13642 0.75165 0.20973 0.0
H1392 H 0.15249 0.75616 0.194 0.0
H1393 H 0.18087 0.76536 0.20702 0.0
H1394 H 0.2266 0.72104 0.19885 0.0
H1395 H 0.1992 0.71264 0.18564 0.0
H1396 H 0.21304 0.67697 0.19538 0.0
H1397 H 0.10308 0.61868 0.21552 0.0
H1398 H 0.08416 0.60469 0.19399 0.0
H1399 H 0.14216 0.6933 0.18018 0.0
C1400 C 0.20643 0.70574 0.22427 0.0
C1401 C 0.21142 0.68761 0.23551 0.0
C1402 C 0.18728 0.66185 0.23925 0.0
C1403 C 0.15905 0.65311 0.23145 0.0
C1404 C 0.15516 0.67127 0.22024 0.0
C1405 C 0.17831 0.69715 0.21673 0.0
C1406 C 0.17183 0.70977 0.20365 0.0
C1407 C 0.15963 0.748 0.20361 0.0
C1408 C 0.20457 0.70475 0.1954 0.0
C1409 C 0.14265 0.68545 0.19998 0.0
C1410 C 0.13254 0.66406 0.20974 0.0
C1411 C 0.10985 0.63595 0.20793 0.0
C1412 C 0.09902 0.6283 0.19573 0.0
C1413 C 0.11154 0.64848 0.1857 0.0
C1414 C 0.13173 0.67836 0.18789 0.0
H1415 H 0.67619 0.86768 0.43961 0.0
H1416 H 0.7423 0.95087 0.42559 0.0
H1417 H 0.74873 0.97456 0.44656 0.0
H1418 H 0.62746 0.92855 0.45676 0.0
H1419 H 0.6166 0.89923 0.46929 0.0
H1420 H 0.62581 0.8821 0.45404 0.0
H1421 H 0.67368 0.84259 0.46371 0.0
H1422 H 0.66524 0.8608 0.47895 0.0
H1423 H 0.70879 0.8621 0.47252 0.0
H1424 H 0.74551 0.99286 0.46774 0.0
H1425 H 0.71727 1.01778 0.48616 0.0
H1426 H 0.64285 0.93224 0.48603 0.0
C1427 C 0.69242 0.89049 0.44111 0.0
C1428 C 0.71021 0.90637 0.43115 0.0
C1429 C 0.72946 0.93744 0.43319 0.0
C1430 C 0.73373 0.95093 0.44512 0.0
C1431 C 0.71694 0.93427 0.45488 0.0
C1432 C 0.69501 0.90596 0.45295 0.0
C1433 C 0.67233 0.8997 0.4643 0.0
C1434 C 0.63326 0.90262 0.4609 0.0
C1435 C 0.68053 0.86418 0.47022 0.0
C1436 C 0.68434 0.92963 0.47262 0.0
C1437 C 0.71163 0.94772 0.46723 0.0
C1438 C 0.72497 0.97843 0.47231 0.0
C1439 C 0.70854 0.9926 0.48273 0.0
C1440 C 0.67769 0.97722 0.48739 0.0
C1441 C 0.6669 0.94413 0.48285 0.0
H1442 H 0.44996 0.39849 0.68084 0.0
H1443 H 0.51628 0.48108 0.69496 0.0
H1444 H 0.49296 0.47165 0.71617 0.0
H1445 H 0.38047 0.42763 0.69403 0.0
H1446 H 0.35921 0.38692 0.69767 0.0
H1447 H 0.38982 0.38885 0.68503 0.0
H1448 H 0.42771 0.33996 0.69475 0.0
H1449 H 0.39622 0.33635 0.70718 0.0
H1450 H 0.44169 0.34362 0.71076 0.0
H1451 H 0.45138 0.4639 0.73427 0.0
H1452 H 0.39966 0.45378 0.74793 0.0
H1453 H 0.35819 0.38122 0.72059 0.0
C1454 C 0.46113 0.41292 0.68859 0.0
C1455 C 0.48478 0.44022 0.68646 0.0
C1456 C 0.49852 0.45954 0.69658 0.0
C1457 C 0.48515 0.45454 0.70862 0.0
C1458 C 0.45861 0.42996 0.71021 0.0
C1459 C 0.44737 0.40882 0.70047 0.0
C1460 C 0.41412 0.38971 0.70364 0.0
C1461 C 0.38419 0.39887 0.69456 0.0
C1462 C 0.42033 0.35007 0.70412 0.0
C1463 C 0.40743 0.40465 0.71641 0.0
C1464 C 0.43349 0.42722 0.72024 0.0
C1465 C 0.4311 0.44582 0.73145 0.0
C1466 C 0.40157 0.44049 0.73903 0.0
C1467 C 0.37471 0.41776 0.73503 0.0
C1468 C 0.37796 0.39962 0.72366 0.0
H1469 H 0.90478 0.16059 0.98649 0.0
H1470 H 1.0029 0.11828 0.97314 0.0
H1471 H 1.00186 0.15836 0.9553 0.0
H1472 H 0.86387 0.16239 0.96021 0.0
H1473 H 0.84073 0.20338 0.96188 0.0
H1474 H 0.85461 0.1802 0.97543 0.0
H1475 H 0.88848 0.23478 0.98298 0.0
H1476 H 0.87468 0.25823 0.96928 0.0
H1477 H 0.92054 0.25471 0.97295 0.0
H1478 H 0.98297 0.18799 0.93681 0.0
H1479 H 0.94738 0.20665 0.91888 0.0
H1480 H 0.86226 0.23357 0.94369 0.0
C1481 C 0.92645 0.16102 0.98 0.0
C1482 C 0.95362 0.13664 0.98094 0.0
C1483 C 0.9817 0.13695 0.97235 0.0
C1484 C 0.9816 0.15989 0.96233 0.0
C1485 C 0.95358 0.18278 0.96121 0.0
C1486 C 0.92677 0.18408 0.96992 0.0
C1487 C 0.89707 0.20677 0.96543 0.0
C1488 C 0.86203 0.18697 0.96573 0.0
C1489 C 0.89509 0.24064 0.97312 0.0
C1490 C 0.90933 0.21407 0.95227 0.0
C1491 C 0.94275 0.20131 0.95024 0.0
C1492 C 0.95747 0.19947 0.93836 0.0
C1493 C 0.93713 0.20982 0.92824 0.0
C1494 C 0.9028 0.222 0.93017 0.0
C1495 C 0.88911 0.22547 0.94226 0.0
H1496 H 0.86266 0.71279 0.71765 0.0
H1497 H 0.90253 0.64313 0.74603 0.0
H1498 H 0.95259 0.6279 0.73216 0.0
H1499 H 0.8812 0.66025 0.69199 0.0
H1500 H 0.89175 0.69657 0.68203 0.0
H1501 H 0.86194 0.70253 0.69478 0.0
H1502 H 0.90104 0.75298 0.70302 0.0
H1503 H 0.93177 0.74613 0.69051 0.0
H1504 H 0.94643 0.74481 0.70648 0.0
H1505 H 0.99342 0.61566 0.71396 0.0
H1506 H 1.01731 0.60383 0.69287 0.0
H1507 H 0.95269 0.68607 0.67778 0.0
C1508 C 0.88175 0.69401 0.72092 0.0
C1509 C 0.87851 0.67818 0.73267 0.0
C1510 C 0.90446 0.65477 0.73687 0.0
C1511 C 0.93305 0.64647 0.72915 0.0
C1512 C 0.9355 0.66284 0.71756 0.0
C1513 C 0.9104 0.68615 0.71353 0.0
C1514 C 0.91703 0.69851 0.70044 0.0
C1515 C 0.88619 0.68885 0.69181 0.0
C1516 C 0.92454 0.73794 0.70011 0.0
C1517 C 0.94931 0.67756 0.69747 0.0
C1518 C 0.96001 0.65738 0.70746 0.0
C1519 C 0.98605 0.63205 0.7062 0.0
C1520 C 0.99981 0.62575 0.69426 0.0
C1521 C 0.98703 0.64463 0.68394 0.0
C1522 C 0.96337 0.67217 0.6857 0.0
H1523 H 0.20205 0.12189 0.48371 0.0
H1524 H 0.10904 0.1814 0.49245 0.0
H1525 H 0.12569 0.22567 0.47706 0.0
H1526 H 0.26036 0.19604 0.47189 0.0
H1527 H 0.27529 0.16958 0.45907 0.0
H1528 H 0.26573 0.14961 0.47388 0.0
H1529 H 0.22295 0.10684 0.46363 0.0
H1530 H 0.23038 0.12505 0.44854 0.0
H1531 H 0.18669 0.12331 0.45465 0.0
H1532 H 0.14272 0.25363 0.45674 0.0
H1533 H 0.16017 0.26248 0.43456 0.0
H1534 H 0.2368 0.18035 0.43814 0.0
C1535 C 0.18643 0.14537 0.48288 0.0
C1536 C 0.1546 0.14841 0.4893 0.0
C1537 C 0.13409 0.17896 0.48785 0.0
C1538 C 0.14323 0.20419 0.47901 0.0
C1539 C 0.17291 0.19841 0.47176 0.0
C1540 C 0.19456 0.16987 0.47378 0.0
C1541 C 0.21949 0.16424 0.46309 0.0
C1542 C 0.25747 0.17021 0.46724 0.0
C1543 C 0.21457 0.12776 0.45714 0.0
C1544 C 0.20736 0.19268 0.45448 0.0
C1545 C 0.18122 0.21293 0.45967 0.0
C1546 C 0.1638 0.23847 0.45272 0.0
C1547 C 0.1735 0.24314 0.44017 0.0
C1548 C 0.19934 0.22146 0.43482 0.0
C1549 C 0.21673 0.19673 0.44211 0.0
H1550 H 0.64112 0.485 0.18929 0.0
H1551 H 0.58275 0.39471 0.17746 0.0
H1552 H 0.59722 0.36529 0.19751 0.0
H1553 H 0.70729 0.44959 0.20215 0.0
H1554 H 0.71237 0.47828 0.2154 0.0
H1555 H 0.69098 0.4937 0.20167 0.0
H1556 H 0.63428 0.50914 0.21491 0.0
H1557 H 0.658 0.49508 0.22846 0.0
H1558 H 0.61601 0.47628 0.2248 0.0
H1559 H 0.62837 0.34361 0.21696 0.0
H1560 H 0.67249 0.3318 0.23333 0.0
H1561 H 0.70481 0.43995 0.23264 0.0
C1562 C 0.62935 0.46023 0.19138 0.0
C1563 C 0.61 0.44259 0.18233 0.0
C1564 C 0.597 0.40875 0.18463 0.0
C1565 C 0.60489 0.39212 0.19596 0.0
C1566 C 0.6243 0.41065 0.20485 0.0
C1567 C 0.63542 0.44449 0.20275 0.0
C1568 C 0.65904 0.45786 0.21293 0.0
C1569 C 0.69447 0.47055 0.20772 0.0
C1570 C 0.64079 0.48627 0.22072 0.0
C1571 C 0.66272 0.4252 0.22044 0.0
C1572 C 0.64166 0.39844 0.216 0.0
C1573 C 0.64388 0.36473 0.22078 0.0
C1574 C 0.6688 0.3583 0.23008 0.0
C1575 C 0.69112 0.38545 0.23425 0.0
C1576 C 0.6872 0.41932 0.22972 0.0
H1577 H 0.35341 0.90813 0.93797 0.0
H1578 H 0.41889 0.81588 0.93741 0.0
H1579 H 0.44306 0.83306 0.95824 0.0
H1580 H 0.42069 0.96147 0.94802 0.0
H1581 H 0.39158 0.99071 0.95616 0.0
H1582 H 0.37624 0.96679 0.9428 0.0
H1583 H 0.32631 0.94187 0.95605 0.0
H1584 H 0.34166 0.96416 0.96981 0.0
H1585 H 0.3362 0.91728 0.97 0.0
H1586 H 0.46697 0.86932 0.97744 0.0
H1587 H 0.48561 0.91677 0.99175 0.0
H1588 H 0.39981 0.98101 0.97897 0.0
C1589 C 0.37207 0.89075 0.94234 0.0
C1590 C 0.3842 0.86069 0.93627 0.0
C1591 C 0.40899 0.83887 0.94215 0.0
C1592 C 0.42294 0.84864 0.95387 0.0
C1593 C 0.41156 0.88005 0.95927 0.0
C1594 C 0.38663 0.90049 0.95353 0.0
C1595 C 0.38166 0.93511 0.95977 0.0
C1596 C 0.39324 0.96526 0.95118 0.0
C1597 C 0.34413 0.93988 0.96417 0.0
C1598 C 0.40594 0.93085 0.97051 0.0
C1599 C 0.42402 0.89954 0.97006 0.0
C1600 C 0.45199 0.89324 0.97807 0.0
C1601 C 0.46208 0.92014 0.98631 0.0
C1602 C 0.44369 0.95238 0.98655 0.0
C1603 C 0.41414 0.95661 0.97906 0.0
H1604 H 0.85756 0.45763 0.9246 0.0
H1605 H 0.9258 0.37494 0.91151 0.0
H1606 H 0.97101 0.39386 0.92633 0.0
H1607 H 0.92947 0.52177 0.93681 0.0
H1608 H 0.90142 0.53132 0.94987 0.0
H1609 H 0.88274 0.52194 0.93477 0.0
H1610 H 0.84512 0.47368 0.94548 0.0
H1611 H 0.8657 0.48173 0.96019 0.0
H1612 H 0.86706 0.43854 0.95345 0.0
H1613 H 1.00244 0.41109 0.94573 0.0
H1614 H 1.01607 0.42603 0.96781 0.0
H1615 H 0.92221 0.48922 0.96958 0.0
C1616 C 0.88278 0.44479 0.9244 0.0
C1617 C 0.88817 0.41507 0.91692 0.0
C1618 C 0.92127 0.39836 0.91696 0.0
C1619 C 0.94718 0.4088 0.9254 0.0
C1620 C 0.93957 0.4359 0.93363 0.0
C1621 C 0.90821 0.45401 0.93308 0.0
C1622 C 0.90257 0.47614 0.94457 0.0
C1623 C 0.90415 0.51512 0.94132 0.0
C1624 C 0.86811 0.46691 0.95131 0.0
C1625 C 0.93399 0.46538 0.95205 0.0
C1626 C 0.95601 0.44351 0.94546 0.0
C1627 C 0.98572 0.42875 0.9509 0.0
C1628 C 0.99305 0.43693 0.96341 0.0
C1629 C 0.9698 0.45824 0.97026 0.0
C1630 C 0.94023 0.47265 0.9645 0.0
H1631 H 0.39272 0.14086 0.66918 0.0
H1632 H 0.49788 0.1818 0.66734 0.0
H1633 H 0.48189 0.22884 0.68209 0.0
H1634 H 0.34511 0.22623 0.67629 0.0
H1635 H 0.31715 0.20449 0.68722 0.0
H1636 H 0.33245 0.18158 0.67352 0.0
H1637 H 0.35936 0.13196 0.68725 0.0
H1638 H 0.34352 0.1534 0.70101 0.0
H1639 H 0.38934 0.14371 0.69949 0.0
H1640 H 0.45871 0.2621 0.70043 0.0
H1641 H 0.43218 0.27412 0.72119 0.0
H1642 H 0.34476 0.2078 0.7117 0.0
C1643 C 0.41159 0.16109 0.67134 0.0
C1644 C 0.44597 0.15857 0.66699 0.0
C1645 C 0.47093 0.18419 0.67035 0.0
C1646 C 0.4621 0.21094 0.67873 0.0
C1647 C 0.4282 0.21171 0.68346 0.0
C1648 C 0.40335 0.18735 0.67982 0.0
C1649 C 0.3718 0.18813 0.68815 0.0
C1650 C 0.3397 0.2008 0.68087 0.0
C1651 C 0.36563 0.15224 0.69432 0.0
C1652 C 0.38348 0.21496 0.69753 0.0
C1653 C 0.41549 0.22943 0.6945 0.0
C1654 C 0.43324 0.25162 0.70273 0.0
C1655 C 0.41823 0.25819 0.71446 0.0
C1656 C 0.3866 0.24171 0.71776 0.0
C1657 C 0.36869 0.22091 0.70914 0.0
H1658 H 0.72649 0.63664 0.4256 0.0
H1659 H 0.65373 0.71637 0.41363 0.0
H1660 H 0.60903 0.69276 0.42774 0.0
H1661 H 0.66129 0.56629 0.43652 0.0
H1662 H 0.68858 0.55865 0.44994 0.0
H1663 H 0.70814 0.57058 0.43527 0.0
H1664 H 0.73949 0.62206 0.44646 0.0
H1665 H 0.71924 0.61071 0.46092 0.0
H1666 H 0.71365 0.65403 0.45472 0.0
H1667 H 0.5792 0.67279 0.44723 0.0
H1668 H 0.5682 0.65749 0.46943 0.0
H1669 H 0.66378 0.59699 0.46978 0.0
C1670 C 0.7005 0.64785 0.42548 0.0
C1671 C 0.69357 0.67813 0.41857 0.0
C1672 C 0.65947 0.69265 0.4187 0.0
C1673 C 0.63389 0.6795 0.42677 0.0
C1674 C 0.64292 0.65198 0.4346 0.0
C1675 C 0.67547 0.63606 0.43389 0.0
C1676 C 0.68262 0.61368 0.44513 0.0
C1677 C 0.68529 0.575 0.44149 0.0
C1678 C 0.71565 0.62589 0.45221 0.0
C1679 C 0.64996 0.6208 0.45253 0.0
C1680 C 0.62671 0.64202 0.44626 0.0
C1681 C 0.5967 0.65526 0.45207 0.0
C1682 C 0.59067 0.64669 0.46463 0.0
C1683 C 0.61516 0.62607 0.47112 0.0
C1684 C 0.64453 0.61255 0.46492 0.0
H1685 H 0.2463 0.90814 0.2147 0.0
H1686 H 0.17005 0.82491 0.21638 0.0
H1687 H 0.15232 0.83805 0.19457 0.0
H1688 H 0.19675 0.96608 0.2013 0.0
H1689 H 0.22996 0.9863 0.19183 0.0
H1690 H 0.24209 0.96443 0.20589 0.0
H1691 H 0.28448 0.925 0.19365 0.0
H1692 H 0.27275 0.94661 0.17933 0.0
H1693 H 0.26928 0.89974 0.18051 0.0
H1694 H 0.13127 0.87394 0.17711 0.0
H1695 H 0.11474 0.92029 0.16242 0.0
H1696 H 0.21056 0.97543 0.17099 0.0
C1697 C 0.22707 0.89157 0.21028 0.0
C1698 C 0.20963 0.86545 0.21695 0.0
C1699 C 0.18381 0.84479 0.21116 0.0
C1700 C 0.17379 0.85207 0.19885 0.0
C1701 C 0.19081 0.87927 0.19262 0.0
C1702 C 0.21757 0.89802 0.19809 0.0
C1703 C 0.22848 0.92896 0.19041 0.0
C1704 C 0.22401 0.96342 0.19779 0.0
C1705 C 0.266 0.92476 0.18568 0.0
C1706 C 0.20261 0.926 0.17992 0.0
C1707 C 0.18088 0.89734 0.18139 0.0
C1708 C 0.14966 0.8944 0.17488 0.0
C1709 C 0.14046 0.92108 0.16664 0.0
C1710 C 0.16219 0.95079 0.16527 0.0
C1711 C 0.19441 0.95224 0.17149 0.0
H1712 H 0.6409 0.91082 0.97485 0.0
H1713 H 0.57764 0.9946 0.96014 0.0
H1714 H 0.59932 0.98137 0.93884 0.0
H1715 H 0.71135 0.93413 0.96025 0.0
H1716 H 0.72959 0.89151 0.95728 0.0
H1717 H 0.70048 0.89786 0.9702 0.0
H1718 H 0.65878 0.8497 0.962 0.0
H1719 H 0.68859 0.84183 0.94927 0.0
H1720 H 0.64328 0.85133 0.94613 0.0
H1721 H 0.63862 0.96775 0.92031 0.0
H1722 H 0.68826 0.95201 0.90628 0.0
H1723 H 0.72784 0.8817 0.93449 0.0
C1724 C 0.63007 0.92488 0.96699 0.0
C1725 C 0.6075 0.95323 0.9689 0.0
C1726 C 0.59438 0.97215 0.95865 0.0
C1727 C 0.60681 0.96496 0.94659 0.0
C1728 C 0.63188 0.93873 0.94513 0.0
C1729 C 0.64277 0.91849 0.95509 0.0
C1730 C 0.67439 0.89676 0.9519 0.0
C1731 C 0.70575 0.90564 0.96041 0.0
C1732 C 0.66572 0.85758 0.95234 0.0
C1733 C 0.68056 0.90892 0.93878 0.0
C1734 C 0.65564 0.93255 0.93485 0.0
C1735 C 0.65797 0.94886 0.92323 0.0
C1736 C 0.6863 0.94028 0.91542 0.0
C1737 C 0.7121 0.91663 0.91956 0.0
C1738 C 0.70883 0.90064 0.93128 0.0
H1739 H 0.3941 0.36435 0.21333 0.0
H1740 H 0.37698 0.46091 0.23394 0.0
H1741 H 0.36516 0.49159 0.21462 0.0
H1742 H 0.44464 0.40675 0.1902 0.0
H1743 H 0.43022 0.37903 0.17758 0.0
H1744 H 0.43037 0.36274 0.19326 0.0
H1745 H 0.36453 0.34743 0.19094 0.0
H1746 H 0.36415 0.36503 0.17536 0.0
H1747 H 0.33381 0.38123 0.18688 0.0
H1748 H 0.35708 0.51334 0.1941 0.0
H1749 H 0.3797 0.53189 0.1742 0.0
H1750 H 0.40409 0.42393 0.16474 0.0
C1751 C 0.38811 0.39197 0.21369 0.0
C1752 C 0.38578 0.4099 0.22517 0.0
C1753 C 0.37874 0.44629 0.2253 0.0
C1754 C 0.37112 0.46398 0.21436 0.0
C1755 C 0.37182 0.44539 0.20326 0.0
C1756 C 0.38193 0.41076 0.2027 0.0
C1757 C 0.38773 0.39945 0.18931 0.0
C1758 C 0.42547 0.38626 0.18748 0.0
C1759 C 0.36095 0.37163 0.18539 0.0
C1760 C 0.38115 0.43381 0.18263 0.0
C1761 C 0.36979 0.45914 0.19087 0.0
C1762 C 0.36602 0.49387 0.18749 0.0
C1763 C 0.37884 0.50413 0.17592 0.0
C1764 C 0.39601 0.47971 0.16804 0.0
C1765 C 0.39284 0.44359 0.17079 0.0
H1766 H 0.93533 0.18758 0.47555 0.0
H1767 H 1.00311 0.1094 0.45923 0.0
H1768 H 0.97696 0.12059 0.43846 0.0
H1769 H 0.86408 0.15949 0.46174 0.0
H1770 H 0.843 0.20103 0.45938 0.0
H1771 H 0.87379 0.19592 0.47187 0.0
H1772 H 0.91174 0.24687 0.46359 0.0
H1773 H 0.8801 0.25355 0.45139 0.0
H1774 H 0.92547 0.24692 0.4475 0.0
H1775 H 0.93486 0.13272 0.4205 0.0
H1776 H 0.88506 0.14901 0.40674 0.0
H1777 H 0.84327 0.2143 0.43633 0.0
C1778 C 0.946 0.17434 0.46744 0.0
C1779 C 0.97124 0.14809 0.46877 0.0
C1780 C 0.98426 0.1303 0.45819 0.0
C1781 C 0.96926 0.13623 0.44643 0.0
C1782 C 0.94182 0.16017 0.44561 0.0
C1783 C 0.93093 0.17952 0.45584 0.0
C1784 C 0.89777 0.19941 0.45327 0.0
C1785 C 0.86794 0.18827 0.46208 0.0
C1786 C 0.90417 0.23903 0.45397 0.0
C1787 C 0.89095 0.18745 0.44012 0.0
C1788 C 0.91665 0.16528 0.43571 0.0
C1789 C 0.91475 0.15032 0.42383 0.0
C1790 C 0.88628 0.15922 0.41617 0.0
C1791 C 0.85991 0.18192 0.42065 0.0
C1792 C 0.86242 0.1959 0.43278 0.0
H1793 H 0.16818 0.57418 0.68281 0.0
H1794 H 0.19659 0.64951 0.6544 0.0
H1795 H 0.21348 0.69145 0.67097 0.0
H1796 H 0.12699 0.63051 0.70182 0.0
H1797 H 0.14079 0.61133 0.71632 0.0
H1798 H 0.13745 0.58465 0.70254 0.0
H1799 H 0.2024 0.56558 0.70456 0.0
H1800 H 0.20537 0.59082 0.71872 0.0
H1801 H 0.23589 0.59842 0.70622 0.0
H1802 H 0.21942 0.72745 0.69088 0.0
H1803 H 0.22336 0.7506 0.71248 0.0
H1804 H 0.18763 0.65098 0.72672 0.0
C1805 C 0.17979 0.59863 0.67993 0.0
C1806 C 0.18135 0.60842 0.66727 0.0
C1807 C 0.19538 0.64144 0.66406 0.0
C1808 C 0.20475 0.66547 0.67339 0.0
C1809 C 0.20013 0.65576 0.68579 0.0
C1810 C 0.18879 0.62276 0.68903 0.0
C1811 C 0.18324 0.61926 0.70288 0.0
C1812 C 0.14485 0.61096 0.70606 0.0
C1813 C 0.20823 0.59192 0.70842 0.0
C1814 C 0.19281 0.65558 0.70694 0.0
C1815 C 0.20248 0.67644 0.69703 0.0
C1816 C 0.2122 0.71124 0.69871 0.0
C1817 C 0.21383 0.7243 0.71094 0.0
C1818 C 0.20573 0.70237 0.72112 0.0
C1819 C 0.19393 0.66818 0.71904 0.0
H1820 H 0.6625 0.17312 0.67718 0.0
H1821 H 0.58124 0.10972 0.69375 0.0
H1822 H 0.60536 0.12234 0.71479 0.0
H1823 H 0.7276 0.14003 0.69424 0.0
H1824 H 0.7528 0.17961 0.69571 0.0
H1825 H 0.72446 0.17352 0.68252 0.0
H1826 H 0.69121 0.23087 0.68758 0.0
H1827 H 0.7205 0.23819 0.70047 0.0
H1828 H 0.67392 0.23779 0.70304 0.0
H1829 H 0.64447 0.13578 0.73365 0.0
H1830 H 0.69124 0.15338 0.74853 0.0
H1831 H 0.74783 0.20207 0.71816 0.0
C1832 C 0.64889 0.16321 0.6853 0.0
C1833 C 0.62012 0.14083 0.68404 0.0
C1834 C 0.60305 0.12758 0.6947 0.0
C1835 C 0.61679 0.1343 0.70662 0.0
C1836 C 0.64719 0.15433 0.70748 0.0
C1837 C 0.66254 0.16911 0.69707 0.0
C1838 C 0.69708 0.18596 0.70001 0.0
C1839 C 0.72723 0.16873 0.69268 0.0
C1840 C 0.69556 0.22555 0.69765 0.0
C1841 C 0.69934 0.17777 0.71368 0.0
C1842 C 0.67037 0.15992 0.71795 0.0
C1843 C 0.66725 0.14981 0.7304 0.0
C1844 C 0.694 0.1594 0.73873 0.0
C1845 C 0.72356 0.17802 0.7344 0.0
C1846 C 0.72624 0.18668 0.72169 0.0
H1847 H 0.25045 0.38181 0.94069 0.0
H1848 H 0.15969 0.31937 0.9319 0.0
H1849 H 0.13666 0.32964 0.95328 0.0
H1850 H 0.25399 0.36391 0.97588 0.0
H1851 H 0.26588 0.40862 0.97883 0.0
H1852 H 0.2809 0.38679 0.96484 0.0
H1853 H 0.25314 0.43585 0.95102 0.0
H1854 H 0.2385 0.45821 0.96472 0.0
H1855 H 0.20749 0.44572 0.95291 0.0
H1856 H 0.11703 0.36023 0.97271 0.0
H1857 H 0.10191 0.40853 0.98705 0.0
H1858 H 0.20573 0.45139 0.98293 0.0
C1859 C 0.22663 0.36888 0.94355 0.0
C1860 C 0.20691 0.3496 0.93495 0.0
C1861 C 0.17533 0.33367 0.93862 0.0
C1862 C 0.16223 0.33937 0.95072 0.0
C1863 C 0.18151 0.3605 0.95888 0.0
C1864 C 0.21339 0.37459 0.95542 0.0
C1865 C 0.2258 0.40206 0.96448 0.0
C1866 C 0.25862 0.38965 0.97141 0.0
C1867 C 0.23158 0.43746 0.9579 0.0
C1868 C 0.19493 0.40343 0.97313 0.0
C1869 C 0.17001 0.37852 0.97008 0.0
C1870 C 0.13685 0.37887 0.97549 0.0
C1871 C 0.12852 0.40629 0.98366 0.0
C1872 C 0.15315 0.43303 0.98613 0.0
C1873 C 0.18712 0.43051 0.98137 0.0
H1874 H 0.94457 0.91309 0.17828 0.0
H1875 H 1.01313 0.98937 0.19529 0.0
H1876 H 0.98803 0.9758 0.21603 0.0
H1877 H 0.87402 0.93869 0.19289 0.0
H1878 H 0.85339 0.89676 0.19487 0.0
H1879 H 0.88357 0.90331 0.18228 0.0
H1880 H 0.92215 0.85187 0.18974 0.0
H1881 H 0.89126 0.84386 0.20209 0.0
H1882 H 0.9368 0.85052 0.20571 0.0
H1883 H 0.94671 0.96227 0.23395 0.0
H1884 H 0.89661 0.94609 0.24759 0.0
H1885 H 0.85394 0.8828 0.21765 0.0
C1886 C 0.95561 0.92538 0.1865 0.0
C1887 C 0.98085 0.95172 0.18541 0.0
C1888 C 0.99431 0.96838 0.19615 0.0
C1889 C 0.97996 0.96105 0.2079 0.0
C1890 C 0.95275 0.93683 0.20856 0.0
C1891 C 0.94132 0.91866 0.19813 0.0
C1892 C 0.90841 0.89829 0.20068 0.0
C1893 C 0.8781 0.91 0.19218 0.0
C1894 C 0.91507 0.8588 0.1995 0.0
C1895 C 0.90216 0.90898 0.21401 0.0
C1896 C 0.9281 0.93067 0.21854 0.0
C1897 C 0.92647 0.94497 0.23054 0.0
C1898 C 0.89786 0.93614 0.23814 0.0
C1899 C 0.87112 0.91421 0.23348 0.0
C1900 C 0.87353 0.90054 0.22131 0.0
H1901 H 0.41081 0.64029 0.48242 0.0
H1902 H 0.51445 0.61874 0.46819 0.0
H1903 H 0.50791 0.66558 0.45262 0.0
H1904 H 0.3733 0.64574 0.45409 0.0
H1905 H 0.34222 0.67911 0.45838 0.0
H1906 H 0.35974 0.65101 0.47011 0.0
H1907 H 0.37922 0.70664 0.48232 0.0
H1908 H 0.36272 0.73413 0.47004 0.0
H1909 H 0.40771 0.73777 0.47488 0.0
H1910 H 0.48628 0.7038 0.4363 0.0
H1911 H 0.44931 0.72661 0.41933 0.0
H1912 H 0.35887 0.72328 0.44349 0.0
C1913 C 0.4323 0.64645 0.47623 0.0
C1914 C 0.463 0.62658 0.47635 0.0
C1915 C 0.4907 0.63417 0.46807 0.0
C1916 C 0.4874 0.66092 0.45936 0.0
C1917 C 0.45625 0.67971 0.45915 0.0
C1918 C 0.42911 0.67275 0.46734 0.0
C1919 C 0.39606 0.69136 0.46358 0.0
C1920 C 0.36612 0.66519 0.46139 0.0
C1921 C 0.38585 0.71914 0.47329 0.0
C1922 C 0.40806 0.70794 0.45157 0.0
C1923 C 0.44328 0.70197 0.44941 0.0
C1924 C 0.45906 0.70981 0.43804 0.0
C1925 C 0.43799 0.72264 0.42847 0.0
C1926 C 0.40185 0.72724 0.43043 0.0
C1927 C 0.38688 0.72114 0.44215 0.0
H1928 H 0.39767 0.15582 0.23406 0.0
H1929 H 0.36654 0.2613 0.22481 0.0
H1930 H 0.40626 0.26106 0.20679 0.0
H1931 H 0.49294 0.1652 0.22163 0.0
H1932 H 0.49203 0.1208 0.21599 0.0
H1933 H 0.4687 0.13247 0.23003 0.0
H1934 H 0.41122 0.1075 0.22053 0.0
H1935 H 0.43473 0.09558 0.20672 0.0
H1936 H 0.39671 0.12324 0.20558 0.0
H1937 H 0.43264 0.24361 0.18724 0.0
H1938 H 0.44968 0.21098 0.16823 0.0
H1939 H 0.47079 0.11948 0.19049 0.0
C1940 C 0.40054 0.17911 0.22847 0.0
C1941 C 0.3794 0.20837 0.2306 0.0
C1942 C 0.38284 0.23859 0.22313 0.0
C1943 C 0.4055 0.23885 0.21299 0.0
C1944 C 0.42511 0.20902 0.21069 0.0
C1945 C 0.42357 0.17994 0.21835 0.0
C1946 C 0.44357 0.1497 0.2128 0.0
C1947 C 0.47626 0.14158 0.22058 0.0
C1948 C 0.42013 0.11715 0.21131 0.0
C1949 C 0.45338 0.1652 0.20035 0.0
C1950 C 0.4431 0.19973 0.19939 0.0
C1951 C 0.44251 0.21723 0.18799 0.0
C1952 C 0.45186 0.19862 0.17727 0.0
C1953 C 0.46213 0.16346 0.17824 0.0
C1954 C 0.4643 0.14696 0.18984 0.0
H1955 H 0.66863 0.5853 0.97133 0.0
H1956 H 0.69129 0.65867 1.00119 0.0
H1957 H 0.70946 0.70248 0.98548 0.0
H1958 H 0.73691 0.61239 0.94924 0.0
H1959 H 0.70783 0.60596 0.93623 0.0
H1960 H 0.70361 0.57924 0.94992 0.0
H1961 H 0.63855 0.59735 0.95171 0.0
H1962 H 0.64251 0.6251 0.93831 0.0
H1963 H 0.62737 0.64298 0.95292 0.0
H1964 H 0.71986 0.73984 0.96576 0.0
H1965 H 0.72663 0.76382 0.94435 0.0
H1966 H 0.68876 0.66591 0.92903 0.0
C1967 C 0.67919 0.60976 0.97474 0.0
C1968 C 0.67913 0.61828 0.98753 0.0
C1969 C 0.69161 0.65146 0.99142 0.0
C1970 C 0.70168 0.67654 0.98257 0.0
C1971 C 0.69889 0.66787 0.96997 0.0
C1972 C 0.68836 0.635 0.96614 0.0
C1973 C 0.68385 0.6326 0.95224 0.0
C1974 C 0.70959 0.606 0.94657 0.0
C1975 C 0.64582 0.62402 0.9486 0.0
C1976 C 0.69319 0.66936 0.94878 0.0
C1977 C 0.70221 0.68951 0.959 0.0
C1978 C 0.71287 0.72422 0.95771 0.0
C1979 C 0.71613 0.7378 0.94559 0.0
C1980 C 0.70818 0.71659 0.93514 0.0
C1981 C 0.69505 0.68273 0.93687 0.0
H1982 H 0.16353 0.88383 0.73503 0.0
H1983 H 0.24046 0.96586 0.74004 0.0
H1984 H 0.21195 1.00007 0.72367 0.0
H1985 H 0.1606 0.87901 0.70629 0.0
H1986 H 0.1147 0.87541 0.70272 0.0
H1987 H 0.13035 0.8626 0.71779 0.0
H1988 H 0.08879 0.90654 0.7291 0.0
H1989 H 0.07087 0.91629 0.71395 0.0
H1990 H 0.08684 0.95098 0.72383 0.0
H1991 H 0.19986 1.00478 0.70207 0.0
H1992 H 0.18249 1.00049 0.68037 0.0
H1993 H 0.0997 0.92815 0.68993 0.0
C1994 C 0.17267 0.91013 0.73331 0.0
C1995 C 0.20445 0.92218 0.73858 0.0
C1996 C 0.2164 0.95619 0.73596 0.0
C1997 C 0.20029 0.9758 0.72671 0.0
C1998 C 0.17149 0.9615 0.72062 0.0
C1999 C 0.15609 0.93056 0.72428 0.0
C2000 C 0.12791 0.91941 0.71504 0.0
C2001 C 0.1338 0.88191 0.71018 0.0
C2002 C 0.09141 0.92355 0.72082 0.0
C2003 C 0.13361 0.94608 0.70487 0.0
C2004 C 0.15934 0.96968 0.70833 0.0
C2005 C 0.17723 0.9893 0.69958 0.0
C2006 C 0.16714 0.98653 0.6872 0.0
C2007 C 0.13752 0.96667 0.68372 0.0
C2008 C 0.12063 0.94567 0.69262 0.0
H2009 H 0.97 0.47398 0.46908 0.0
H2010 H 0.89934 0.43474 0.49731 0.0
H2011 H 0.88653 0.38312 0.48386 0.0
H2012 H 0.91862 0.45527 0.444 0.0
H2013 H 0.95457 0.44478 0.43377 0.0
H2014 H 0.96123 0.47407 0.44661 0.0
H2015 H 1.01147 0.43463 0.4542 0.0
H2016 H 1.00405 0.4038 0.44176 0.0
H2017 H 1.00339 0.38933 0.45774 0.0
H2018 H 0.87429 0.34255 0.46573 0.0
H2019 H 0.86 0.32104 0.44453 0.0
H2020 H 0.94231 0.38521 0.42919 0.0
C2021 C 0.95179 0.45447 0.47244 0.0
C2022 C 0.93472 0.45846 0.48397 0.0
C2023 C 0.91196 0.43215 0.48831 0.0
C2024 C 0.90505 0.4027 0.48084 0.0
C2025 C 0.92209 0.39982 0.46934 0.0
C2026 C 0.94511 0.42513 0.46524 0.0
C2027 C 0.95694 0.41888 0.45203 0.0
C2028 C 0.94721 0.45005 0.44362 0.0
C2029 C 0.99631 0.41114 0.45142 0.0
C2030 C 0.93569 0.38687 0.44902 0.0
C2031 C 0.91619 0.37565 0.45914 0.0
C2032 C 0.89021 0.35026 0.45787 0.0
C2033 C 0.88244 0.33792 0.44584 0.0
C2034 C 0.90051 0.35147 0.43545 0.0
C2035 C 0.9289 0.37409 0.43715 0.0
H2036 H 0.42479 0.99086 0.46812 0.0
H2037 H 0.51937 0.92925 0.46523 0.0
H2038 H 0.50684 0.91889 0.44274 0.0
H2039 H 0.37263 0.94162 0.45167 0.0
H2040 H 0.34834 0.97607 0.44422 0.0
H2041 H 0.36926 0.98417 0.45885 0.0
H2042 H 0.40339 1.03577 0.44928 0.0
H2043 H 0.38218 1.02825 0.43452 0.0
H2044 H 0.42929 1.02939 0.43544 0.0
H2045 H 0.47513 0.90321 0.42335 0.0
H2046 H 0.42912 0.88361 0.40895 0.0
H2047 H 0.36032 0.96462 0.42297 0.0
C2048 C 0.44348 0.97609 0.46266 0.0
C2049 C 0.47276 0.96054 0.46823 0.0
C2050 C 0.49667 0.94117 0.46097 0.0
C2051 C 0.48993 0.9356 0.44823 0.0
C2052 C 0.46018 0.95103 0.44301 0.0
C2053 C 0.43782 0.97154 0.45002 0.0
C2054 C 0.40551 0.98179 0.4429 0.0
C2055 C 0.37202 0.97017 0.44981 0.0
C2056 C 0.40508 1.02116 0.44036 0.0
C2057 C 0.41142 0.96134 0.43107 0.0
C2058 C 0.44335 0.94417 0.43119 0.0
C2059 C 0.45093 0.91766 0.42271 0.0
C2060 C 0.42455 0.90685 0.4145 0.0
C2061 C 0.39108 0.92278 0.41488 0.0
C2062 C 0.38577 0.9523 0.42246 0.0
H2063 H 0.846 0.69237 0.2133 0.0
H2064 H 0.91593 0.78074 0.21672 0.0
H2065 H 0.9409 0.76653 0.19578 0.0
H2066 H 0.91054 0.63818 0.20331 0.0
H2067 H 0.88174 0.61148 0.19401 0.0
H2068 H 0.86494 0.6344 0.20733 0.0
H2069 H 0.81937 0.66406 0.19357 0.0
H2070 H 0.83566 0.64195 0.17985 0.0
H2071 H 0.8322 0.68898 0.18005 0.0
H2072 H 0.96631 0.7326 0.17686 0.0
H2073 H 0.98804 0.68552 0.16302 0.0
H2074 H 0.89829 0.62205 0.17241 0.0
C2075 C 0.86572 0.70962 0.20948 0.0
C2076 C 0.87904 0.73762 0.21642 0.0
C2077 C 0.90517 0.75936 0.2113 0.0
C2078 C 0.91948 0.75131 0.1995 0.0
C2079 C 0.90696 0.72175 0.19317 0.0
C2080 C 0.88051 0.70151 0.19811 0.0
C2081 C 0.87528 0.66798 0.19111 0.0
C2082 C 0.88364 0.63619 0.19943 0.0
C2083 C 0.8384 0.66565 0.18578 0.0
C2084 C 0.90197 0.67237 0.18105 0.0
C2085 C 0.92066 0.70317 0.18238 0.0
C2086 C 0.95096 0.70916 0.17548 0.0
C2087 C 0.96293 0.68241 0.16753 0.0
C2088 C 0.94437 0.65042 0.16656 0.0
C2089 C 0.91254 0.64649 0.17282 0.0
H2090 H 0.23614 0.14646 0.92511 0.0
H2091 H 0.16444 0.22243 0.90959 0.0
H2092 H 0.11838 0.20232 0.92404 0.0
H2093 H 0.18206 0.07985 0.93726 0.0
H2094 H 0.2069 0.07962 0.95172 0.0
H2095 H 0.22754 0.09185 0.93739 0.0
H2096 H 0.24623 0.14982 0.94804 0.0
H2097 H 0.22402 0.13774 0.96213 0.0
H2098 H 0.21322 0.17816 0.95451 0.0
H2099 H 0.08336 0.17983 0.94335 0.0
H2100 H 0.06699 0.16124 0.96491 0.0
H2101 H 0.16785 0.11048 0.96841 0.0
C2102 C 0.21052 0.15835 0.92446 0.0
C2103 C 0.20406 0.18586 0.91622 0.0
C2104 C 0.16998 0.20063 0.91567 0.0
C2105 C 0.14368 0.18966 0.92397 0.0
C2106 C 0.15236 0.16473 0.93289 0.0
C2107 C 0.18542 0.15001 0.93322 0.0
C2108 C 0.19233 0.1313 0.94517 0.0
C2109 C 0.2027 0.09328 0.94274 0.0
C2110 C 0.22059 0.1504 0.95291 0.0
C2111 C 0.15701 0.13487 0.95116 0.0
C2112 C 0.13402 0.1545 0.94416 0.0
C2113 C 0.10104 0.16397 0.9488 0.0
C2114 C 0.09189 0.15341 0.96098 0.0
C2115 C 0.11615 0.13446 0.96822 0.0
C2116 C 0.14854 0.12476 0.96308 0.0
H2117 H 0.63182 0.41285 0.66731 0.0
H2118 H 0.71738 0.48487 0.66144 0.0
H2119 H 0.75366 0.45141 0.67592 0.0
H2120 H 0.63211 0.40865 0.69561 0.0
H2121 H 0.62575 0.36315 0.69918 0.0
H2122 H 0.61173 0.37979 0.68442 0.0
H2123 H 0.64953 0.33466 0.67262 0.0
H2124 H 0.66285 0.31658 0.68739 0.0
H2125 H 0.69534 0.33045 0.67629 0.0
H2126 H 0.75889 0.44102 0.69724 0.0
H2127 H 0.75216 0.42929 0.71915 0.0
H2128 H 0.67789 0.34715 0.71145 0.0
C2129 C 0.65913 0.41966 0.66841 0.0
C2130 C 0.67213 0.45125 0.66341 0.0
C2131 C 0.70732 0.46066 0.66521 0.0
C2132 C 0.72801 0.44172 0.67341 0.0
C2133 C 0.71315 0.41323 0.67951 0.0
C2134 C 0.68029 0.40055 0.67659 0.0
C2135 C 0.66869 0.37326 0.68606 0.0
C2136 C 0.63246 0.38179 0.69164 0.0
C2137 C 0.66915 0.33656 0.68024 0.0
C2138 C 0.69739 0.37709 0.69572 0.0
C2139 C 0.72234 0.40084 0.69169 0.0
C2140 C 0.74287 0.4192 0.70011 0.0
C2141 C 0.73916 0.41204 0.71267 0.0
C2142 C 0.71839 0.38395 0.71682 0.0
C2143 C 0.69671 0.36626 0.70827 0.0
H2144 H 0.13875 0.30861 0.39922 0.0
H2145 H 0.11751 0.19902 0.39212 0.0
H2146 H 0.0548 0.21113 0.39179 0.0
H2147 H 0.0592 0.3229 0.41942 0.0
H2148 H 0.05205 0.36649 0.41367 0.0
H2149 H 0.09546 0.3479 0.4136 0.0
H2150 H 0.09848 0.36208 0.38996 0.0
H2151 H 0.05411 0.37805 0.39015 0.0
H2152 H 0.0663 0.34331 0.37963 0.0
H2153 H 0.98979 0.23421 0.39238 0.0
H2154 H 0.93342 0.26603 0.39353 0.0
H2155 H 0.99016 0.36225 0.40008 0.0
C2156 C 0.12118 0.28701 0.39746 0.0
C2157 C 0.1356 0.2521 0.39559 0.0
C2158 C 0.1095 0.22584 0.39355 0.0
C2159 C 0.07278 0.23252 0.39335 0.0
C2160 C 0.0597 0.26633 0.39519 0.0
C2161 C 0.08316 0.29337 0.39721 0.0
C2162 C 0.06108 0.32726 0.39909 0.0
C2163 C 0.06729 0.34209 0.41223 0.0
C2164 C 0.07057 0.3543 0.38911 0.0
C2165 C 1.02226 0.31515 0.39763 0.0
C2166 C 1.02233 0.2796 0.39546 0.0
C2167 C 0.99002 0.26211 0.39401 0.0
C2168 C 0.95743 0.28068 0.39468 0.0
C2169 C 0.95544 0.31737 0.3968 0.0
C2170 C 0.98932 0.33442 0.39833 0.0
H2171 H 0.06653 0.70816 0.64604 0.0
H2172 H 0.95505 0.72797 0.64376 0.0
H2173 H 0.96623 0.79086 0.64328 0.0
H2174 H 0.0863 0.78512 0.66611 0.0
H2175 H 0.12721 0.79593 0.65872 0.0
H2176 H 0.11172 0.75144 0.65858 0.0
H2177 H 0.11601 0.75009 0.63462 0.0
H2178 H 0.13154 0.79457 0.63469 0.0
H2179 H 0.0936 0.78286 0.62563 0.0
H2180 H 0.98877 0.85632 0.64298 0.0
H2181 H 1.01997 0.91299 0.64327 0.0
H2182 H 0.11839 0.85777 0.64625 0.0
C2183 C 1.04427 0.72545 0.64528 0.0
C2184 C 1.00911 0.71048 0.6448 0.0
C2185 C 0.98208 0.73633 0.64407 0.0
C2186 C 0.98824 0.77316 0.6438 0.0
C2187 C 1.0223 0.78674 0.64431 0.0
C2188 C 0.0501 0.76359 0.64507 0.0
C2189 C 0.08415 0.78616 0.64572 0.0
C2190 C 0.10352 0.77923 0.65801 0.0
C2191 C 0.10775 0.77791 0.6345 0.0
C2192 C 0.0712 0.82494 0.6452 0.0
C2193 C 1.03518 0.82434 0.64434 0.0
C2194 C 1.01701 0.85643 0.64364 0.0
C2195 C 1.03526 0.88927 0.6438 0.0
C2196 C 0.07236 0.89197 0.64474 0.0
C2197 C 0.09019 0.85824 0.64548 0.0
H2198 H 0.48967 0.86892 0.89993 0.0
H2199 H 0.4349 0.77178 0.89307 0.0
H2200 H 0.49189 0.74094 0.89228 0.0
H2201 H 0.56604 0.8497 0.87935 0.0
H2202 H 0.59794 0.87008 0.88938 0.0
H2203 H 0.55322 0.88505 0.88952 0.0
H2204 H 0.55017 0.87484 0.91321 0.0
H2205 H 0.59488 0.85986 0.91312 0.0
H2206 H 0.56087 0.83245 0.91937 0.0
H2207 H 0.55834 0.71843 0.89261 0.0
H2208 H 0.62152 0.70769 0.89347 0.0
H2209 H 0.63976 0.81817 0.89956 0.0
C2210 C 0.48932 0.84107 0.8982 0.0
C2211 C 0.45555 0.82359 0.89652 0.0
C2212 C 0.45855 0.78692 0.89434 0.0
C2213 C 0.49162 0.76884 0.8939 0.0
C2214 C 0.52373 0.78672 0.89556 0.0
C2215 C 0.52283 0.82233 0.89762 0.0
C2216 C 0.56159 0.83521 0.899 0.0
C2217 C 0.57021 0.86161 0.8887 0.0
C2218 C 0.56721 0.85159 0.91194 0.0
C2219 C 0.58452 0.80162 0.89746 0.0
C2220 C 0.56163 0.77402 0.89553 0.0
C2221 C 0.57575 0.74035 0.89407 0.0
C2222 C 0.61276 0.73441 0.89458 0.0
C2223 C 0.63831 0.7613 0.89646 0.0
C2224 C 0.62278 0.79604 0.89791 0.0
H2225 H 0.55874 0.20502 0.14679 0.0
H2226 H 0.45043 0.22545 0.13722 0.0
H2227 H 0.46243 0.28809 0.13686 0.0
H2228 H 0.56949 0.28402 0.16678 0.0
H2229 H 0.61333 0.29424 0.16184 0.0
H2230 H 0.59805 0.24964 0.16141 0.0
H2231 H 0.61359 0.24526 0.13816 0.0
H2232 H 0.62943 0.28961 0.13851 0.0
H2233 H 0.59631 0.27699 0.12742 0.0
H2234 H 0.48506 0.35299 0.13761 0.0
H2235 H 0.5162 0.40953 0.13908 0.0
H2236 H 0.61176 0.35418 0.1479 0.0
C2237 C 0.53742 0.2224 0.14448 0.0
C2238 C 0.50288 0.20772 0.14191 0.0
C2239 C 0.47696 0.23361 0.13918 0.0
C2240 C 0.48359 0.2703 0.13896 0.0
C2241 C 0.51701 0.28361 0.14147 0.0
C2242 C 0.54376 0.26041 0.14417 0.0
C2243 C 0.57729 0.2828 0.14656 0.0
C2244 C 0.59033 0.27731 0.15995 0.0
C2245 C 0.60587 0.27307 0.1371 0.0
C2246 C 0.56525 0.32151 0.14469 0.0
C2247 C 0.53009 0.32103 0.14181 0.0
C2248 C 0.51267 0.35307 0.13981 0.0
C2249 C 0.53089 0.38579 0.14065 0.0
C2250 C 0.5672 0.38831 0.1435 0.0
C2251 C 0.58423 0.35467 0.14558 0.0
H2252 H 0.98426 0.725 0.25266 0.0
H2253 H 0.92876 0.82102 0.26073 0.0
H2254 H 0.98547 0.85234 0.26162 0.0
H2255 H 0.06101 0.74318 0.27312 0.0
H2256 H 0.0928 0.72397 0.26275 0.0
H2257 H 0.04823 0.70855 0.26264 0.0
H2258 H 1.04435 0.72071 0.23907 0.0
H2259 H 0.08891 0.73614 0.23914 0.0
H2260 H 0.05444 0.76372 0.23333 0.0
H2261 H 0.05143 0.87545 0.26119 0.0
H2262 H 0.11442 0.88694 0.26006 0.0
H2263 H 0.13367 0.77715 0.25285 0.0
C2264 C 0.98371 0.75269 0.25469 0.0
C2265 C 0.94989 0.76973 0.25668 0.0
C2266 C 0.95253 0.80623 0.25923 0.0
C2267 C 0.9854 0.82457 0.25972 0.0
C2268 C 1.01759 0.8071 0.25776 0.0
C2269 C 1.01701 0.77167 0.25533 0.0
C2270 C 0.0558 0.75925 0.25366 0.0
C2271 C 0.06501 0.7321 0.26363 0.0
C2272 C 0.06119 0.74403 0.24052 0.0
C2273 C 0.07838 0.79291 0.25545 0.0
C2274 C 0.05529 0.82013 0.25776 0.0
C2275 C 0.06903 0.85384 0.25946 0.0
C2276 C 0.10589 0.86021 0.2588 0.0
C2277 C 0.13161 0.83371 0.25654 0.0
C2278 C 0.11651 0.79892 0.25487 0.0
H2279 H 0.56611 0.88277 0.50649 0.0
H2280 H 0.45463 0.86338 0.50913 0.0
H2281 H 0.4657 0.80048 0.51021 0.0
H2282 H 0.58538 0.80432 0.48706 0.0
H2283 H 0.62646 0.79426 0.49445 0.0
H2284 H 0.61084 0.83868 0.49414 0.0
H2285 H 0.61567 0.842 0.51807 0.0
H2286 H 0.63124 0.79756 0.51844 0.0
H2287 H 0.59347 0.81 0.52748 0.0
H2288 H 0.48835 0.73492 0.51119 0.0
H2289 H 0.51974 0.67826 0.51144 0.0
H2290 H 0.61787 0.73364 0.50767 0.0
C2291 C 0.54383 0.86556 0.5074 0.0
C2292 C 0.50872 0.88056 0.50779 0.0
C2293 C 0.48162 0.85489 0.50881 0.0
C2294 C 0.48772 0.81809 0.50945 0.0
C2295 C 0.52177 0.80446 0.50901 0.0
C2296 C 0.54959 0.82751 0.50796 0.0
C2297 C 0.58362 0.80499 0.50746 0.0
C2298 C 0.60273 0.81093 0.49504 0.0
C2299 C 0.60743 0.8142 0.51852 0.0
C2300 C 0.57065 0.76632 0.50844 0.0
C2301 C 0.53466 0.76689 0.50937 0.0
C2302 C 0.51657 0.73481 0.51046 0.0
C2303 C 0.53491 0.70201 0.51063 0.0
C2304 C 0.572 0.69945 0.50965 0.0
C2305 C 0.58968 0.73313 0.5085 0.0
H2306 H 0.6031 0.37576 0.75374 0.0
H2307 H 0.65803 0.27856 0.76003 0.0
H2308 H 0.60111 0.24768 0.76085 0.0
H2309 H 0.52726 0.35609 0.77448 0.0
H2310 H 0.49505 0.37659 0.76467 0.0
H2311 H 0.53975 0.39163 0.76445 0.0
H2312 H 0.54217 0.38181 0.74069 0.0
H2313 H 0.49748 0.36677 0.74086 0.0
H2314 H 0.53135 0.33949 0.73436 0.0
H2315 H 0.53481 0.22515 0.76065 0.0
H2316 H 0.47169 0.21427 0.75991 0.0
H2317 H 0.453 0.32472 0.75424 0.0
C2318 C 0.60348 0.34789 0.75534 0.0
C2319 C 0.63728 0.33039 0.75684 0.0
C2320 C 0.63435 0.2937 0.75888 0.0
C2321 C 0.60132 0.2756 0.75934 0.0
C2322 C 0.56918 0.29348 0.75785 0.0
C2323 C 0.57 0.32911 0.75593 0.0
C2324 C 0.53118 0.34194 0.75475 0.0
C2325 C 0.52281 0.36815 0.7652 0.0
C2326 C 0.52519 0.35851 0.7419 0.0
C2327 C 0.50833 0.30831 0.7562 0.0
C2328 C 0.53132 0.28074 0.75796 0.0
C2329 C 0.51732 0.24704 0.75934 0.0
C2330 C 0.48033 0.24103 0.7589 0.0
C2331 C 0.45465 0.26786 0.75717 0.0
C2332 C 0.47006 0.30265 0.75582 0.0
H2333 H 1.02573 0.20872 1.00629 0.0
H2334 H 0.1368 0.22685 1.01119 0.0
H2335 H 0.12627 0.28991 1.01217 0.0
H2336 H 1.01015 0.28679 0.98674 0.0
H2337 H 0.96819 0.29772 0.99334 0.0
H2338 H 0.98317 0.25307 0.9934 0.0
H2339 H 0.97489 0.25066 1.01721 0.0
H2340 H 0.95984 0.2953 1.01721 0.0
H2341 H 0.99607 0.28274 1.02696 0.0
H2342 H 0.10434 0.35583 1.01262 0.0
H2343 H 0.07372 0.41281 1.01227 0.0
H2344 H 0.97559 0.35894 1.00656 0.0
C2345 C 0.04799 0.22565 1.00781 0.0
C2346 C 0.08284 0.21018 1.00886 0.0
C2347 C 0.10997 0.23563 1.01045 0.0
C2348 C 0.10418 0.27254 1.01101 0.0
C2349 C 0.07042 0.28661 1.0099 0.0
C2350 C 1.04254 0.26385 1.00832 0.0
C2351 C 1.00891 0.28687 1.00714 0.0
C2352 C 0.99156 0.28073 0.9944 0.0
C2353 C 0.98339 0.27837 1.01776 0.0
C2354 C 1.02216 0.32549 1.0083 0.0
C2355 C 0.05796 0.32441 1.00994 0.0
C2356 C 0.07628 0.35627 1.01134 0.0
C2357 C 0.0584 0.38933 1.01112 0.0
C2358 C 1.02159 0.39257 1.00938 0.0
C2359 C 1.0036 0.35905 1.00794 0.0
H2360 H 0.13776 0.81066 0.75404 0.0
H2361 H 0.11754 0.70199 0.76273 0.0
H2362 H 0.0548 0.71403 0.76362 0.0
H2363 H 0.06614 0.84793 0.77375 0.0
H2364 H 0.05332 0.88111 0.7628 0.0
H2365 H 0.09771 0.8652 0.76292 0.0
H2366 H 0.09291 0.84942 0.73964 0.0
H2367 H 0.04842 0.8653 0.73943 0.0
H2368 H 0.05801 0.82142 0.73439 0.0
H2369 H 0.98923 0.73727 0.76365 0.0
H2370 H 0.93267 0.76875 0.76255 0.0
H2371 H 0.98853 0.86377 0.75359 0.0
C2372 C 0.12044 0.78924 0.75626 0.0
C2373 C 0.13529 0.75458 0.75842 0.0
C2374 C 0.10933 0.72861 0.76104 0.0
C2375 C 0.07255 0.73527 0.76159 0.0
C2376 C 0.05907 0.7688 0.75945 0.0
C2377 C 0.08232 0.79557 0.7568 0.0
C2378 C 0.05985 0.82909 0.7546 0.0
C2379 C 0.06986 0.85754 0.76408 0.0
C2380 C 0.06514 0.84212 0.74122 0.0
C2381 C 1.02106 0.81717 0.7566 0.0
C2382 C 1.02149 0.78201 0.75937 0.0
C2383 C 0.98927 0.76485 0.76151 0.0
C2384 C 0.9565 0.78327 0.76088 0.0
C2385 C 0.95404 0.81955 0.75807 0.0
C2386 C 0.98788 0.83627 0.75587 0.0
H2387 H 0.96949 0.243 0.50443 0.0
H2388 H 0.06697 0.18766 0.50979 0.0
H2389 H 0.09846 0.24424 0.50999 0.0
H2390 H 1.00404 0.31413 0.48457 0.0
H2391 H 0.97768 0.3482 0.49141 0.0
H2392 H 0.96232 0.30368 0.49143 0.0
H2393 H 0.95512 0.30643 0.51531 0.0
H2394 H 0.9705 0.35096 0.51532 0.0
H2395 H 0.99187 0.31876 0.52488 0.0
H2396 H 0.12135 0.30994 0.50933 0.0
H2397 H 0.1326 0.37286 0.5085 0.0
H2398 H 1.02152 0.39237 0.50435 0.0
C2399 C 0.99755 0.24248 0.50569 0.0
C2400 C 1.01506 0.20874 0.50704 0.0
C2401 C 0.05197 0.21139 0.50867 0.0
C2402 C 0.07036 0.24418 0.50881 0.0
C2403 C 0.05247 0.27631 0.50748 0.0
C2404 C 1.0166 0.27574 0.50601 0.0
C2405 C 1.00383 0.31452 0.50498 0.0
C2406 C 0.98588 0.32048 0.49235 0.0
C2407 C 0.97881 0.32319 0.51576 0.0
C2408 C 1.0378 0.33704 0.506 0.0
C2409 C 0.06545 0.31393 0.50739 0.0
C2410 C 0.09943 0.32758 0.50832 0.0
C2411 C 0.10565 0.36442 0.50783 0.0
C2412 C 0.07873 0.39018 0.50649 0.0
C2413 C 1.04367 0.37515 0.50559 0.0
H2414 H 0.64017 0.31771 0.25937 0.0
H2415 H 0.61829 0.20663 0.25802 0.0
H2416 H 0.55549 0.21887 0.25827 0.0
H2417 H 0.56483 0.34147 0.27989 0.0
H2418 H 0.55423 0.38151 0.27196 0.0
H2419 H 0.59848 0.3652 0.27175 0.0
H2420 H 0.59832 0.36641 0.24776 0.0
H2421 H 0.55405 0.38266 0.24787 0.0
H2422 H 0.56461 0.34343 0.23933 0.0
H2423 H 0.49039 0.24245 0.25874 0.0
H2424 H 0.43419 0.27446 0.25921 0.0
H2425 H 0.49117 0.37218 0.26008 0.0
C2426 C 0.62243 0.29572 0.25919 0.0
C2427 C 0.63678 0.26032 0.25875 0.0
C2428 C 0.61041 0.23376 0.2584 0.0
C2429 C 0.57362 0.24055 0.25854 0.0
C2430 C 0.56064 0.27483 0.25898 0.0
C2431 C 0.58434 0.30222 0.25927 0.0
C2432 C 0.56237 0.33669 0.25958 0.0
C2433 C 0.57048 0.35747 0.2715 0.0
C2434 C 0.57032 0.35862 0.24795 0.0
C2435 C 0.52325 0.32442 0.25953 0.0
C2436 C 0.52322 0.28837 0.25917 0.0
C2437 C 0.49076 0.27069 0.25905 0.0
C2438 C 0.45819 0.28944 0.25934 0.0
C2439 C 0.4561 0.32662 0.25976 0.0
C2440 C 0.49021 0.34396 0.25982 0.0
H2441 H 0.61553 0.85492 1.00429 0.0
H2442 H 0.51909 0.91088 1.01114 0.0
H2443 H 0.48734 0.85444 1.01178 0.0
H2444 H 0.57902 0.78342 0.98511 0.0
H2445 H 0.60594 0.74953 0.99168 0.0
H2446 H 0.62139 0.79402 0.99145 0.0
H2447 H 0.63085 0.7921 1.01522 0.0
H2448 H 0.6154 0.7476 1.01551 0.0
H2449 H 0.59499 0.78019 1.02525 0.0
H2450 H 0.46409 0.7886 1.0113 0.0
H2451 H 0.45279 0.72558 1.01064 0.0
H2452 H 0.56342 0.70603 1.00521 0.0
C2453 C 0.58764 0.85561 1.00596 0.0
C2454 C 0.57044 0.88945 1.00751 0.0
C2455 C 0.53379 0.88705 1.00976 0.0
C2456 C 0.51527 0.85435 1.01017 0.0
C2457 C 0.53286 0.82211 1.00858 0.0
C2458 C 0.56855 0.8225 1.00662 0.0
C2459 C 0.58117 0.78373 1.0055 0.0
C2460 C 0.5979 0.77729 0.99267 0.0
C2461 C 0.60718 0.77541 1.01599 0.0
C2462 C 0.54729 0.76136 1.00699 0.0
C2463 C 0.51981 0.78453 1.0087 0.0
C2464 C 0.48591 0.77092 1.01005 0.0
C2465 C 0.47965 0.73407 1.00966 0.0
C2466 C 0.50648 0.70833 1.00804 0.0
C2467 C 0.54141 0.7233 1.00669 0.0
H2468 H 0.1015 0.36847 0.89806 0.0
H2469 H 0.15768 0.27199 0.89148 0.0
H2470 H 0.10107 0.24043 0.89051 0.0
H2471 H 1.03052 0.33144 0.91717 0.0
H2472 H 0.99602 0.35779 0.91073 0.0
H2473 H 1.04028 0.37409 0.911 0.0
H2474 H 1.03841 0.38399 0.88734 0.0
H2475 H 0.99383 0.36863 0.88703 0.0
H2476 H 1.02623 0.34851 0.87713 0.0
H2477 H 1.03485 0.21735 0.89054 0.0
H2478 H 0.97179 0.20611 0.89102 0.0
H2479 H 0.95224 0.31642 0.89701 0.0
C2480 C 0.10223 0.34063 0.89633 0.0
C2481 C 0.13619 0.32353 0.89478 0.0
C2482 C 0.13379 0.28682 0.89262 0.0
C2483 C 0.10097 0.26836 0.89208 0.0
C2484 C 0.06862 0.28593 0.89358 0.0
C2485 C 0.06903 0.32155 0.8956 0.0
C2486 C 1.03019 0.33409 0.8968 0.0
C2487 C 1.02393 0.35037 0.9097 0.0
C2488 C 1.02166 0.36039 0.88646 0.0
C2489 C 1.00768 0.30031 0.89519 0.0
C2490 C 1.0309 0.27291 0.89339 0.0
C2491 C 1.01718 0.23912 0.89188 0.0
C2492 C 0.98024 0.2329 0.89216 0.0
C2493 C 0.95439 0.2596 0.8939 0.0
C2494 C 0.96949 0.29444 0.89546 0.0
H2495 H 0.47675 0.35012 0.64595 0.0
H2496 H 0.57446 0.40666 0.64842 0.0
H2497 H 0.60647 0.35028 0.64816 0.0
H2498 H 0.50246 0.27404 0.66536 0.0
H2499 H 0.47833 0.24366 0.65573 0.0
H2500 H 0.46485 0.28858 0.65667 0.0
H2501 H 0.46826 0.28982 0.63253 0.0
H2502 H 0.48385 0.24537 0.63216 0.0
H2503 H 0.50908 0.27953 0.62494 0.0
H2504 H 0.62949 0.28422 0.64777 0.0
H2505 H 0.64073 0.22129 0.64728 0.0
H2506 H 0.52928 0.20138 0.64489 0.0
C2507 C 0.50501 0.35099 0.64635 0.0
C2508 C 0.52236 0.38493 0.64711 0.0
C2509 C 0.55955 0.38276 0.6477 0.0
C2510 C 0.57822 0.35007 0.64759 0.0
C2511 C 0.56039 0.31771 0.64681 0.0
C2512 C 0.52435 0.318 0.64615 0.0
C2513 C 0.51157 0.27927 0.64532 0.0
C2514 C 0.4879 0.27091 0.65646 0.0
C2515 C 0.49201 0.27314 0.63301 0.0
C2516 C 0.5457 0.25684 0.64574 0.0
C2517 C 0.57345 0.28009 0.64657 0.0
C2518 C 0.60752 0.26651 0.64709 0.0
C2519 C 0.61372 0.22964 0.64678 0.0
C2520 C 0.58674 0.20373 0.64594 0.0
C2521 C 0.55158 0.2187 0.64543 0.0
H2522 H 0.60235 0.87358 0.39519 0.0
H2523 H 0.65797 0.77518 0.39324 0.0
H2524 H 0.60134 0.7439 0.39289 0.0
H2525 H 0.52952 0.84225 0.4151 0.0
H2526 H 0.4958 0.86679 0.40735 0.0
H2527 H 0.54013 0.88289 0.40753 0.0
H2528 H 0.53993 0.8861 0.38359 0.0
H2529 H 0.49536 0.87073 0.38341 0.0
H2530 H 0.52845 0.84792 0.3746 0.0
H2531 H 0.536 0.72136 0.39279 0.0
H2532 H 0.47307 0.71012 0.393 0.0
H2533 H 0.4529 0.8215 0.39487 0.0
C2534 C 0.6029 0.84537 0.39463 0.0
C2535 C 0.63666 0.82757 0.39417 0.0
C2536 C 0.63415 0.79044 0.39353 0.0
C2537 C 0.60137 0.77214 0.39334 0.0
C2538 C 0.56922 0.7903 0.39374 0.0
C2539 C 0.56968 0.82631 0.39437 0.0
C2540 C 0.53086 0.83917 0.39472 0.0
C2541 C 0.52371 0.859 0.40691 0.0
C2542 C 0.52319 0.86238 0.38341 0.0
C2543 C 0.50842 0.80512 0.39415 0.0
C2544 C 0.53166 0.77737 0.39363 0.0
C2545 C 0.51822 0.74332 0.39317 0.0
C2546 C 0.48137 0.73713 0.39329 0.0
C2547 C 0.45547 0.76414 0.39384 0.0
C2548 C 0.47029 0.79928 0.39427 0.0
H2549 H 0.0702 0.89279 0.14733 0.0
H2550 H 0.95896 0.87208 0.14485 0.0
H2551 H 0.97068 0.80923 0.14411 0.0
H2552 H 0.09723 0.8173 0.12648 0.0
H2553 H 0.13566 0.80676 0.13544 0.0
H2554 H 0.11943 0.85097 0.1352 0.0
H2555 H 0.11713 0.85033 0.15858 0.0
H2556 H 0.1316 0.80574 0.1596 0.0
H2557 H 0.09116 0.81879 0.16697 0.0
H2558 H 0.99456 0.74312 0.14348 0.0
H2559 H 1.02722 0.68708 0.14398 0.0
H2560 H 0.12383 0.74477 0.14794 0.0
C2561 C 0.0481 0.87534 0.14647 0.0
C2562 C 1.01285 0.89003 0.14606 0.0
C2563 C 0.98605 0.86393 0.14515 0.0
C2564 C 0.99253 0.8271 0.14472 0.0
C2565 C 1.02671 0.81378 0.14521 0.0
C2566 C 0.05425 0.83727 0.14606 0.0
C2567 C 0.0885 0.81513 0.14663 0.0
C2568 C 0.11159 0.82302 0.13526 0.0
C2569 C 0.10828 0.82286 0.15872 0.0
C2570 C 0.07608 0.77633 0.1463 0.0
C2571 C 1.04013 0.77625 0.14525 0.0
C2572 C 1.02274 0.74367 0.14438 0.0
C2573 C 1.04179 0.71121 0.14467 0.0
C2574 C 0.07883 0.70947 0.14608 0.0
C2575 C 0.09572 0.74358 0.14689 0.0
H2576 H 0.32675 0.27591 0.35931 0.0
H2577 H 0.21727 0.25015 0.35447 0.0
H2578 H 0.22078 0.26833 0.33248 0.0
H2579 H 0.32556 0.3538 0.33839 0.0
H2580 H 0.36839 0.34624 0.33193 0.0
H2581 H 0.35821 0.33132 0.34745 0.0
H2582 H 0.3763 0.26871 0.34122 0.0
H2583 H 0.38647 0.28348 0.32569 0.0
H2584 H 0.35597 0.24816 0.32792 0.0
H2585 H 0.23546 0.29041 0.30982 0.0
H2586 H 0.25925 0.31242 0.28996 0.0
H2587 H 0.36041 0.32621 0.30746 0.0
C2588 C 0.30336 0.27399 0.35368 0.0
C2589 C 0.27128 0.26095 0.35931 0.0
C2590 C 0.24212 0.25961 0.35102 0.0
C2591 C 0.24392 0.27009 0.33825 0.0
C2592 C 0.2753 0.28273 0.3331 0.0
C2593 C 0.30467 0.28484 0.3406 0.0
C2594 C 0.33503 0.29981 0.3325 0.0
C2595 C 0.34756 0.33486 0.3379 0.0
C2596 C 0.36526 0.27348 0.33179 0.0
C2597 C 0.31846 0.30526 0.31937 0.0
C2598 C 0.28376 0.29528 0.32007 0.0
C2599 C 0.26268 0.29801 0.30937 0.0
C2600 C 0.27671 0.31076 0.29788 0.0
C2601 C 0.31224 0.32136 0.29643 0.0
C2602 C 0.33325 0.31837 0.3077 0.0
H2603 H 1.03001 1.02242 0.54479 0.0
H2604 H 1.00021 0.13061 0.55003 0.0
H2605 H 1.01794 0.1271 0.57209 0.0
H2606 H 1.00244 0.99055 0.5758 0.0
H2607 H 1.03915 0.96174 0.57805 0.0
H2608 H 1.0245 0.97186 0.56249 0.0
H2609 H 0.0864 0.99307 0.55681 0.0
H2610 H 0.10122 0.98299 0.57235 0.0
H2611 H 0.10698 1.02635 0.56621 0.0
H2612 H 1.03562 0.11122 0.59515 0.0
H2613 H 0.05685 0.08752 0.61509 0.0
H2614 H 0.07993 0.98906 0.59681 0.0
C2615 C 1.02689 1.04548 0.55054 0.0
C2616 C 1.01253 0.0771 0.54501 0.0
C2617 C 1.01012 0.10595 0.55342 0.0
C2618 C 1.02039 0.10414 0.56624 0.0
C2619 C 1.0334 0.07295 0.57136 0.0
C2620 C 1.03718 1.04407 0.56369 0.0
C2621 C 0.05326 1.01413 0.5717 0.0
C2622 C 1.02836 0.98269 0.57202 0.0
C2623 C 0.08909 1.00348 0.56645 0.0
C2624 C 0.05735 1.03034 0.585 0.0
C2625 C 1.04536 0.0644 0.58446 0.0
C2626 C 1.0453 0.08468 0.59543 0.0
C2627 C 0.05764 0.07067 0.60697 0.0
C2628 C 0.07098 1.03603 0.60822 0.0
C2629 C 0.07057 1.01571 0.5967 0.0
H2630 H 0.27028 0.82365 0.85612 0.0
H2631 H 0.38281 0.83384 0.85386 0.0
H2632 H 0.38095 0.8128 0.83201 0.0
H2633 H 0.2592 0.74788 0.8367 0.0
H2634 H 0.2207 0.76304 0.82848 0.0
H2635 H 0.23012 0.77884 0.84397 0.0
H2636 H 0.22832 0.84179 0.83599 0.0
H2637 H 0.21843 0.82605 0.82052 0.0
H2638 H 0.25551 0.85426 0.82302 0.0
H2639 H 0.36679 0.78743 0.80915 0.0
H2640 H 0.34295 0.7655 0.78917 0.0
H2641 H 0.23822 0.77293 0.80431 0.0
C2642 C 0.29473 0.82162 0.8511 0.0
C2643 C 0.3271 0.83077 0.85744 0.0
C2644 C 0.35761 0.82751 0.84985 0.0
C2645 C 0.35675 0.81527 0.83717 0.0
C2646 C 0.32487 0.80648 0.83133 0.0
C2647 C 0.29421 0.81029 0.83805 0.0
C2648 C 0.26328 0.80048 0.82928 0.0
C2649 C 0.24202 0.77071 0.83496 0.0
C2650 C 0.23999 0.83255 0.82708 0.0
C2651 C 0.28104 0.7888 0.81684 0.0
C2652 C 0.31677 0.79297 0.81828 0.0
C2653 C 0.3388 0.7844 0.80816 0.0
C2654 C 0.32475 0.77167 0.79659 0.0
C2655 C 0.28824 0.7667 0.79445 0.0
C2656 C 0.26627 0.77586 0.80509 0.0
H2657 H 0.51752 0.10777 0.09886 0.0
H2658 H 0.51491 1.00349 0.11431 0.0
H2659 H 0.53591 0.97969 0.09424 0.0
H2660 H 0.48993 0.08412 1.06665 0.0
H2661 H 0.51916 0.11427 1.05917 0.0
H2662 H 0.50333 0.12322 1.0747 0.0
H2663 H 0.56715 0.12923 0.0822 0.0
H2664 H 0.58273 0.1195 1.06669 0.0
H2665 H 0.59728 0.09367 0.07971 0.0
H2666 H 0.56019 0.96552 1.07171 0.0
H2667 H 0.5814 0.96299 1.04997 0.0
H2668 H 0.56839 0.07503 1.04705 0.0
C2669 C 0.52132 0.07986 0.0981 0.0
C2670 C 0.5141 0.05794 0.10884 0.0
C2671 C 0.51989 1.02158 0.10679 0.0
C2672 C 0.53201 1.00756 0.09518 0.0
C2673 C 0.53898 1.02953 0.08499 0.0
C2674 C 0.53366 0.06509 0.0863 0.0
C2675 C 0.54366 0.0827 1.07372 0.0
C2676 C 0.51215 0.10222 1.06824 0.0
C2677 C 0.57453 0.10779 1.0757 0.0
C2678 C 0.55471 0.0517 1.06512 0.0
C2679 C 0.55212 1.02131 1.07199 0.0
C2680 C 0.56189 0.98942 1.0664 0.0
C2681 C 0.5742 0.98819 1.0538 0.0
C2682 C 0.57703 1.01837 1.04612 0.0
C2683 C 0.56679 0.05084 1.0522 0.0
H2684 H 0.35348 0.76367 0.34681 0.0
H2685 H 0.25692 0.79268 0.36531 0.0
H2686 H 0.23358 0.81431 0.3454 0.0
H2687 H 0.35534 0.83917 0.32516 0.0
H2688 H 0.37209 0.8149 0.31202 0.0
H2689 H 0.38208 0.80108 0.32767 0.0
H2690 H 0.35698 0.74005 0.32282 0.0
H2691 H 0.34693 0.75369 0.30715 0.0
H2692 H 0.31299 0.73614 0.31696 0.0
H2693 H 0.21856 0.83382 0.32264 0.0
H2694 H 0.21442 0.84871 0.30032 0.0
H2695 H 0.31969 0.80995 0.29463 0.0
C2696 C 0.32739 0.77459 0.34675 0.0
C2697 C 0.30749 0.77593 0.35829 0.0
C2698 C 0.27343 0.79077 0.35714 0.0
C2699 C 0.25966 0.80338 0.34563 0.0
C2700 C 0.27959 0.80178 0.33464 0.0
C2701 C 0.31292 0.78777 0.33506 0.0
C2702 C 0.32856 0.78958 0.32167 0.0
C2703 C 0.36149 0.81254 0.32163 0.0
C2704 C 0.33688 0.75267 0.31687 0.0
C2705 C 0.29905 0.80659 0.31374 0.0
C2706 C 0.27103 0.81325 0.32155 0.0
C2707 C 0.2406 0.8285 0.3166 0.0
C2708 C 0.2384 0.83699 0.30366 0.0
C2709 C 0.26629 0.831 0.29509 0.0
C2710 C 0.29736 0.81538 0.30053 0.0
H2711 H 0.58122 0.10461 0.59812 0.0
H2712 H 0.56663 1.00336 0.61526 0.0
H2713 H 0.54707 0.97933 0.59512 0.0
H2714 H 0.50325 0.09775 0.57751 0.0
H2715 H 0.52299 0.11955 0.56442 0.0
H2716 H 0.53728 0.12956 0.58005 0.0
H2717 H 0.60072 0.11465 0.57388 0.0
H2718 H 0.58656 0.10455 0.55824 0.0
H2719 H 0.61035 0.07255 0.56713 0.0
H2720 H 0.53 0.96369 0.57212 0.0
H2721 H 0.51333 0.96 0.54993 0.0
H2722 H 0.53272 0.07089 0.54604 0.0
C2723 C 0.57415 0.07728 0.59769 0.0
C2724 C 0.57643 0.05621 0.60891 0.0
C2725 C 0.56588 1.02073 0.60733 0.0
C2726 C 0.55453 1.00654 0.59569 0.0
C2727 C 0.55264 1.02758 0.58501 0.0
C2728 C 0.56179 0.06247 0.5859 0.0
C2729 C 0.55583 0.07926 0.57287 0.0
C2730 C 0.5282 0.10827 0.57377 0.0
C2731 C 0.59042 0.09363 0.56773 0.0
C2732 C 0.54235 0.04857 0.5646 0.0
C2733 C 0.54117 1.01893 0.5719 0.0
C2734 C 0.53076 0.98706 0.5665 0.0
C2735 C 0.52124 0.98514 0.55363 0.0
C2736 C 0.52086 1.01479 0.54564 0.0
C2737 C 0.532 1.04722 0.5515 0.0
H2738 H 0.3511 0.25816 0.80558 0.0
H2739 H 0.2625 0.30248 0.78599 0.0
H2740 H 0.24045 0.32693 0.80567 0.0
H2741 H 0.30205 0.23584 0.83437 0.0
H2742 H 0.33677 0.24715 0.845 0.0
H2743 H 0.34697 0.23293 0.82936 0.0
H2744 H 0.38223 0.28928 0.82579 0.0
H2745 H 0.3721 0.30373 0.84141 0.0
H2746 H 0.36163 0.33107 0.82829 0.0
H2747 H 0.22641 0.34929 0.82815 0.0
H2748 H 0.22155 0.36424 0.85052 0.0
H2749 H 0.31645 0.30593 0.85776 0.0
C2750 C 0.3271 0.27311 0.80535 0.0
C2751 C 0.30911 0.27792 0.79353 0.0
C2752 C 0.27757 0.29774 0.79436 0.0
C2753 C 0.26452 0.31208 0.80573 0.0
C2754 C 0.2825 0.30706 0.81698 0.0
C2755 C 0.31316 0.28782 0.81695 0.0
C2756 C 0.32668 0.28633 0.83064 0.0
C2757 C 0.32822 0.2483 0.83511 0.0
C2758 C 0.36282 0.30361 0.83159 0.0
C2759 C 0.29904 0.30751 0.83824 0.0
C2760 C 0.27395 0.31934 0.83002 0.0
C2761 C 0.2461 0.33986 0.83455 0.0
C2762 C 0.24349 0.34846 0.8475 0.0
C2763 C 0.26817 0.33686 0.85653 0.0
C2764 C 0.29657 0.31573 0.85151 0.0
H2765 H 0.04817 1.02838 1.04581 0.0
H2766 H 0.11322 0.11857 1.05348 0.0
H2767 H 0.09878 0.11388 1.07585 0.0
H2768 H 0.98002 1.04674 1.06937 0.0
H2769 H 0.97406 1.00202 1.0741 0.0
H2770 H 0.98894 1.01175 1.05853 0.0
H2771 H 1.04299 0.97273 1.06186 0.0
H2772 H 1.02823 0.96287 0.07743 0.0
H2773 H 0.07125 0.9808 1.07501 0.0
H2774 H 0.07657 0.10024 0.09847 0.0
H2775 H 0.05128 0.07915 0.1181 0.0
H2776 H 0.99931 0.99552 0.09801 0.0
C2777 C 0.05953 1.04727 1.05215 0.0
C2778 C 0.0824 0.07433 1.0472 0.0
C2779 C 0.09599 0.09769 1.05639 0.0
C2780 C 0.08772 0.09517 1.06937 0.0
C2781 C 0.06546 0.06871 1.07383 0.0
C2782 C 0.05162 1.04488 1.06547 0.0
C2783 C 1.02873 1.01862 1.07301 0.0
C2784 C 0.99067 1.01984 1.06848 0.0
C2785 C 1.04367 0.98154 1.07175 0.0
C2786 C 1.03142 1.03156 0.08679 0.0
C2787 C 0.05297 0.0606 0.08689 0.0
C2788 C 0.05981 0.07748 0.09828 0.0
C2789 C 1.04494 0.065 0.10964 0.0
C2790 C 1.02255 1.03521 0.11034 0.0
C2791 C 1.01595 1.01834 0.09837 0.0
H2792 H 0.82297 0.79963 0.85951 0.0
H2793 H 0.72451 0.74658 0.85296 0.0
H2794 H 0.72894 0.76027 0.83059 0.0
H2795 H 0.80952 0.86998 0.83636 0.0
H2796 H 0.85419 0.8712 0.83101 0.0
H2797 H 0.84445 0.85726 0.84668 0.0
H2798 H 0.87717 0.79947 0.84269 0.0
H2799 H 0.88705 0.81327 0.82702 0.0
H2800 H 0.86484 0.77244 0.82961 0.0
H2801 H 0.74329 0.77973 0.80792 0.0
H2802 H 0.76522 0.80222 0.788 0.0
H2803 H 0.85561 0.8456 0.80694 0.0
C2804 C 0.80218 0.79084 0.85342 0.0
C2805 C 0.77288 0.7716 0.85867 0.0
C2806 C 0.74707 0.76119 0.84981 0.0
C2807 C 0.74944 0.76897 0.83682 0.0
C2808 C 0.77801 0.7878 0.83206 0.0
C2809 C 0.80412 0.7987 0.8401 0.0
C2810 C 0.83197 0.81867 0.83223 0.0
C2811 C 0.83525 0.85654 0.83685 0.0
C2812 C 0.86738 0.79986 0.83294 0.0
C2813 C 0.81742 0.81757 0.81865 0.0
C2814 C 0.78622 0.79929 0.81894 0.0
C2815 C 0.76768 0.79406 0.8078 0.0
C2816 C 0.78068 0.80726 0.79627 0.0
C2817 C 0.81254 0.82648 0.79518 0.0
C2818 C 0.83108 0.83154 0.80691 0.0
H2819 H 0.861 0.3284 0.35074 0.0
H2820 H 0.75799 0.31976 0.3673 0.0
H2821 H 0.73449 0.29917 0.34718 0.0
H2822 H 0.83009 0.35862 0.31979 0.0
H2823 H 0.86205 0.33455 0.31088 0.0
H2824 H 0.87189 0.34832 0.3266 0.0
H2825 H 0.88575 0.28464 0.33255 0.0
H2826 H 0.87591 0.27071 0.31685 0.0
H2827 H 0.85347 0.25114 0.32985 0.0
H2828 H 0.72019 0.27789 0.32452 0.0
H2829 H 0.71691 0.26067 0.30238 0.0
H2830 H 0.82763 0.28183 0.29834 0.0
C2831 C 0.83346 0.32211 0.35022 0.0
C2832 C 0.81178 0.32612 0.36128 0.0
C2833 C 0.77586 0.31744 0.35951 0.0
C2834 C 0.76201 0.30545 0.34789 0.0
C2835 C 0.78366 0.30178 0.33737 0.0
C2836 C 0.81878 0.31002 0.33837 0.0
C2837 C 0.83584 0.30397 0.32534 0.0
C2838 C 0.85088 0.33841 0.32036 0.0
C2839 C 0.86447 0.27596 0.3262 0.0
C2840 C 0.80512 0.29101 0.31696 0.0
C2841 C 0.7753 0.29 0.32425 0.0
C2842 C 0.74362 0.27892 0.31888 0.0
C2843 C 0.74195 0.269 0.30603 0.0
C2844 C 0.77154 0.2695 0.29795 0.0
C2845 C 0.80391 0.28084 0.30382 0.0
H2846 H 0.81912 0.30931 0.79501 0.0
H2847 H 0.71876 0.35859 0.80161 0.0
H2848 H 0.72248 0.34241 0.82382 0.0
H2849 H 0.80783 0.23638 0.81745 0.0
H2850 H 0.85232 0.23679 0.82295 0.0
H2851 H 0.84246 0.2513 0.80737 0.0
H2852 H 0.87262 0.31013 0.81202 0.0
H2853 H 0.88255 0.29556 0.82759 0.0
H2854 H 0.85877 0.33566 0.82529 0.0
H2855 H 0.73608 0.31961 0.84641 0.0
H2856 H 0.75834 0.29558 0.86614 0.0
H2857 H 0.85216 0.26075 0.84714 0.0
C2858 C 0.79775 0.3168 0.80107 0.0
C2859 C 0.76815 0.33578 0.79586 0.0
C2860 C 0.74165 0.34443 0.80471 0.0
C2861 C 0.74359 0.33513 0.81761 0.0
C2862 C 0.77257 0.31674 0.82233 0.0
C2863 C 0.79945 0.30774 0.81431 0.0
C2864 C 0.8279 0.28836 0.8221 0.0
C2865 C 0.83293 0.25099 0.81716 0.0
C2866 C 0.86253 0.30862 0.82172 0.0
C2867 C 0.81292 0.28778 0.83562 0.0
C2868 C 0.78074 0.30431 0.83539 0.0
C2869 C 0.76134 0.3069 0.84649 0.0
C2870 C 0.77448 0.29286 0.8579 0.0
C2871 C 0.80753 0.2758 0.85891 0.0
C2872 C 0.82692 0.27349 0.84725 0.0
H2873 H 0.7426 0.84379 0.34622 0.0
H2874 H 0.82138 0.78678 0.36681 0.0
H2875 H 0.84267 0.76071 0.34712 0.0
H2876 H 0.72476 0.77572 0.32254 0.0
H2877 H 0.72013 0.80555 0.30969 0.0
H2878 H 0.7103 0.81987 0.32534 0.0
H2879 H 0.75367 0.87057 0.32296 0.0
H2880 H 0.76425 0.85644 0.30735 0.0
H2881 H 0.79844 0.86164 0.31878 0.0
H2882 H 0.8561 0.73801 0.32416 0.0
H2883 H 0.861 0.72448 0.30166 0.0
H2884 H 0.7762 0.79635 0.29414 0.0
C2885 C 0.7643 0.82572 0.34668 0.0
C2886 C 0.7797 0.81775 0.35875 0.0
C2887 C 0.80837 0.79395 0.35823 0.0
C2888 C 0.82088 0.77872 0.34685 0.0
C2889 C 0.80531 0.78693 0.33533 0.0
C2890 C 0.77765 0.81022 0.33514 0.0
C2891 C 0.76623 0.81494 0.32132 0.0
C2892 C 0.72807 0.80335 0.31962 0.0
C2893 C 0.77092 0.85317 0.31737 0.0
C2894 C 0.79132 0.79064 0.31381 0.0
C2895 C 0.81357 0.77466 0.3222 0.0
C2896 C 0.83863 0.75076 0.31768 0.0
C2897 C 0.84127 0.74301 0.30462 0.0
C2898 C 0.8194 0.75873 0.29545 0.0
C2899 C 0.79388 0.78327 0.30046 0.0
H2900 H 0.58527 0.48881 0.09698 0.0
H2901 H 0.54634 0.58091 0.11609 0.0
H2902 H 0.52373 0.60343 0.09621 0.0
H2903 H 0.61102 0.53441 1.06788 0.0
H2904 H 0.59765 0.49977 1.0575 0.0
H2905 H 0.61111 0.48983 1.07321 0.0
H2906 H 0.55251 0.45842 1.07704 0.0
H2907 H 0.53884 0.46835 1.06135 0.0
H2908 H 0.51207 0.48142 1.0744 0.0
H2909 H 0.50371 0.61787 1.07357 0.0
H2910 H 0.48965 0.62239 1.0512 0.0
H2911 H 0.53983 0.52253 1.04461 0.0
C2912 C 0.57195 0.51374 0.09705 0.0
C2913 C 0.56809 0.53263 0.10876 0.0
C2914 C 0.55029 0.56524 0.10778 0.0
C2915 C 0.53706 0.57852 0.0963 0.0
C2916 C 0.54117 0.55961 0.08515 0.0
C2917 C 0.5583 0.5278 0.08538 0.0
C2918 C 0.55902 0.51324 1.07179 0.0
C2919 C 0.59696 0.50904 1.06733 0.0
C2920 C 0.53946 0.47826 1.07111 0.0
C2921 C 0.53971 0.54156 1.064 0.0
C2922 C 0.52973 0.56804 1.07205 0.0
C2923 C 0.51164 0.59707 1.06732 0.0
C2924 C 0.50361 0.59947 1.05435 0.0
C2925 C 0.5131 0.57326 1.0455 0.0
C2926 C 0.53169 0.54357 1.05071 0.0
H2927 H 1.03431 0.52351 0.60685 0.0
H2928 H 0.99334 0.62778 0.60132 0.0
H2929 H 1.00941 0.62423 0.57905 0.0
H2930 H 0.10818 0.52897 0.5841 0.0
H2931 H 0.10271 0.48439 0.57896 0.0
H2932 H 0.08952 0.49697 0.59444 0.0
H2933 H 1.02821 0.47149 0.58937 0.0
H2934 H 1.04179 0.4613 0.57366 0.0
H2935 H 1.00407 0.48855 0.5763 0.0
H2936 H 1.03172 0.61056 0.55648 0.0
H2937 H 0.05407 0.58786 0.53653 0.0
H2938 H 0.07881 0.48946 0.55429 0.0
C2939 C 1.02863 0.54575 0.601 0.0
C2940 C 1.01212 0.5764 0.60649 0.0
C2941 C 1.00558 0.60406 0.59795 0.0
C2942 C 1.01486 0.60224 0.58505 0.0
C2943 C 1.03086 0.57218 0.58005 0.0
C2944 C 1.03744 0.54412 0.58776 0.0
C2945 C 0.05414 0.51456 0.57969 0.0
C2946 C 0.09083 0.50572 0.58458 0.0
C2947 C 1.03066 0.48203 0.57977 0.0
C2948 C 0.05618 0.53035 0.56634 0.0
C2949 C 1.04269 0.56386 0.56694 0.0
C2950 C 1.04206 0.58428 0.55609 0.0
C2951 C 0.05508 0.57085 0.54456 0.0
C2952 C 0.069 0.53648 0.54316 0.0
C2953 C 0.06904 0.51594 0.55454 0.0
H2954 H 0.06316 0.52732 0.1092 0.0
H2955 H 0.11101 0.62794 0.10262 0.0
H2956 H 0.09558 0.62339 0.08033 0.0
H2957 H 0.08803 0.48642 0.07892 0.0
H2958 H 1.04734 0.4634 1.07678 0.0
H2959 H 0.0626 0.47348 0.09229 0.0
H2960 H 1.00464 0.50493 0.09707 0.0
H2961 H 0.98941 0.49479 0.08156 0.0
H2962 H 0.99014 0.53952 0.08696 0.0
H2963 H 0.07531 0.60755 1.05738 0.0
H2964 H 0.05089 0.58484 1.0377 0.0
H2965 H 1.01173 0.49408 1.05727 0.0
C2966 C 0.07072 0.54849 0.10312 0.0
C2967 C 0.08979 0.57813 0.10834 0.0
C2968 C 0.09773 0.60464 0.09948 0.0
C2969 C 0.08858 0.60229 0.08653 0.0
C2970 C 0.07066 0.57299 0.08177 0.0
C2971 C 0.06153 0.54649 0.08987 0.0
C2972 C 1.04138 0.51825 0.08217 0.0
C2973 C 0.061 0.48329 0.08257 0.0
C2974 C 1.00415 0.5141 0.08725 0.0
C2975 C 1.04053 0.5328 1.06859 0.0
C2976 C 0.05799 0.56446 1.0687 0.0
C2977 C 0.06151 0.58289 1.05744 0.0
C2978 C 1.04723 0.56945 1.04605 0.0
C2979 C 1.02854 0.53723 1.04519 0.0
C2980 C 1.0254 0.5188 1.05702 0.0
H2981 H 0.51491 0.5735 0.60959 0.0
H2982 H 0.51544 0.46051 0.60737 0.0
H2983 H 0.53717 0.46395 0.58575 0.0
H2984 H 0.4872 0.58621 0.57575 0.0
H2985 H 0.5133 0.62498 0.57377 0.0
H2986 H 0.49618 0.6141 0.58894 0.0
H2987 H 0.55746 0.61822 0.59757 0.0
H2988 H 0.57731 0.6256 0.58256 0.0
H2989 H 0.59079 0.58898 0.5921 0.0
H2990 H 0.55999 0.47886 0.56334 0.0
H2991 H 0.58081 0.50257 0.54342 0.0
H2992 H 0.56875 0.60769 0.55797 0.0
C2993 C 0.51938 0.5493 0.6046 0.0
C2994 C 0.51299 0.51627 0.61091 0.0
C2995 C 0.51964 0.48613 0.60341 0.0
C2996 C 0.53222 0.48788 0.59085 0.0
C2997 C 0.5384 0.52024 0.58507 0.0
C2998 C 0.53171 0.5506 0.59167 0.0
C2999 C 0.54056 0.58195 0.58296 0.0
C3000 C 0.50733 0.60308 0.5802 0.0
C3001 C 0.56824 0.60515 0.58913 0.0
C3002 C 0.55467 0.56468 0.5707 0.0
C3003 C 0.55226 0.52887 0.57222 0.0
C3004 C 0.56194 0.50688 0.56228 0.0
C3005 C 0.57403 0.52095 0.55073 0.0
C3006 C 0.57754 0.55747 0.54841 0.0
C3007 C 0.5674 0.57961 0.55893 0.0
H3008 H 0.37367 0.17905 0.42674 0.0
H3009 H 0.27093 0.13495 0.43223 0.0
H3010 H 0.29371 0.09982 0.44975 0.0
H3011 H 0.4191 0.09488 0.43277 0.0
H3012 H 0.45686 0.11367 0.44029 0.0
H3013 H 0.43289 0.13839 0.42884 0.0
H3014 H 0.42346 0.1884 0.4444 0.0
H3015 H 0.44804 0.16473 0.45596 0.0
H3016 H 0.40432 0.17948 0.45941 0.0
H3017 H 0.3305 0.0682 0.4693 0.0
H3018 H 0.37398 1.04108 0.48356 0.0
H3019 H 0.45618 0.09697 0.46447 0.0
C3020 C 0.35549 0.16231 0.43161 0.0
C3021 C 0.31861 0.16264 0.42782 0.0
C3022 C 0.29804 0.13826 0.43478 0.0
C3023 C 0.31133 0.11724 0.44492 0.0
C3024 C 0.34686 0.11847 0.44859 0.0
C3025 C 0.3689 0.13994 0.44178 0.0
C3026 C 0.40674 0.1342 0.44695 0.0
C3027 C 0.43033 0.11942 0.4366 0.0
C3028 C 0.42153 0.16877 0.45197 0.0
C3029 C 0.40274 0.10715 0.45779 0.0
C3030 C 0.36768 0.09877 0.45873 0.0
C3031 C 0.35779 0.07511 0.46831 0.0
C3032 C 0.38322 0.05963 0.47672 0.0
C3033 C 0.42001 0.06627 0.47597 0.0
C3034 C 0.42891 0.09079 0.46598 0.0
H3035 H 0.28901 0.18717 0.70512 0.0
H3036 H 0.24046 0.15953 0.7401 0.0
H3037 H 0.19922 0.12117 0.72845 0.0
H3038 H 0.20984 0.18664 0.68545 0.0
H3039 H 0.23054 0.16755 0.67194 0.0
H3040 H 0.25595 0.19275 0.6829 0.0
H3041 H 0.29735 0.14027 0.6854 0.0
H3042 H 0.27168 0.11474 0.6747 0.0
H3043 H 0.28038 0.09866 0.69018 0.0
H3044 H 0.15948 0.08395 0.71179 0.0
H3045 H 0.13074 0.05392 0.69442 0.0
H3046 H 0.20387 0.10037 0.66848 0.0
C3047 C 0.2701 0.17283 0.7105 0.0
C3048 C 0.26987 0.17776 0.72412 0.0
C3049 C 0.24308 0.15775 0.73007 0.0
C3050 C 0.21892 0.13535 0.72329 0.0
C3051 C 0.22023 0.13149 0.71007 0.0
C3052 C 0.24566 0.14973 0.70373 0.0
C3053 C 0.24162 0.14059 0.68946 0.0
C3054 C 0.23408 0.17386 0.68198 0.0
C3055 C 0.27474 0.12247 0.68464 0.0
C3056 C 0.20992 0.11485 0.68853 0.0
C3057 C 0.19819 0.11021 0.70069 0.0
C3058 C 0.16935 0.08804 0.70245 0.0
C3059 C 0.15272 0.07058 0.69216 0.0
C3060 C 0.16328 0.07302 0.67932 0.0
C3061 C 0.19328 0.09655 0.67773 0.0
H3062 H 0.19546 0.98924 0.9846 0.0
H3063 H 0.13753 0.05226 0.95837 0.0
H3064 H 0.16655 1.02239 0.94097 0.0
H3065 H 0.27947 0.97697 0.9679 0.0
H3066 H 0.27955 0.93106 0.97234 0.0
H3067 H 0.25541 0.96205 0.9813 0.0
H3068 H 0.20481 0.9172 0.97749 0.0
H3069 H 0.23044 0.89184 0.96661 0.0
H3070 H 0.18934 0.91034 0.9618 0.0
H3071 H 0.21034 0.98907 0.92437 0.0
H3072 H 0.25041 0.94989 0.91255 0.0
H3073 H 0.28075 0.90211 0.94742 0.0
C3074 C 0.18915 0.99777 0.97527 0.0
C3075 C 0.16373 1.02634 0.97371 0.0
C3076 C 0.15694 1.03281 0.96073 0.0
C3077 C 0.17391 1.01558 0.95039 0.0
C3078 C 0.19974 0.99 0.95216 0.0
C3079 C 0.2062 0.97995 0.96437 0.0
C3080 C 0.232 0.94824 0.96335 0.0
C3081 C 0.26367 0.95509 0.97167 0.0
C3082 C 0.21303 0.91493 0.96758 0.0
C3083 C 0.24217 0.94479 0.94904 0.0
C3084 C 0.22211 0.96888 0.94273 0.0
C3085 C 0.22567 0.9702 0.92948 0.0
C3086 C 0.24917 0.94721 0.92258 0.0
C3087 C 0.27073 0.92139 0.92838 0.0
C3088 C 0.26603 0.92102 0.9421 0.0
H3089 H 0.33734 0.88892 0.20987 0.0
H3090 H 0.30456 0.96976 0.23558 0.0
H3091 H 0.33461 1.0137 0.22229 0.0
H3092 H 0.42545 0.92812 0.20374 0.0
H3093 H 0.42734 0.91443 0.18766 0.0
H3094 H 0.40241 0.88942 0.19877 0.0
H3095 H 0.34517 0.89653 0.1854 0.0
H3096 H 0.37344 0.9174 0.17422 0.0
H3097 H 0.33516 0.9397 0.17963 0.0
H3098 H 0.36862 0.05307 0.20353 0.0
H3099 H 0.4026 0.07676 0.18578 0.0
H3100 H 0.42023 0.97158 0.1724 0.0
C3101 C 0.33659 0.91585 0.21295 0.0
C3102 C 0.3175 0.92409 0.22451 0.0
C3103 C 0.31833 0.96067 0.22737 0.0
C3104 C 0.33561 0.9865 0.21955 0.0
C3105 C 0.35374 0.97725 0.20838 0.0
C3106 C 0.35473 0.94218 0.20526 0.0
C3107 C 0.37767 0.93845 0.19317 0.0
C3108 C 0.41015 0.91627 0.196 0.0
C3109 C 0.35655 0.92193 0.1825 0.0
C3110 C 0.38865 0.97651 0.1896 0.0
C3111 C 0.37422 0.99864 0.1985 0.0
C3112 C 0.37975 1.035 0.19684 0.0
C3113 C 0.39961 0.04871 0.18641 0.0
C3114 C 0.41579 1.02746 0.17698 0.0
C3115 C 0.40947 0.99007 0.17901 0.0
H3116 H 0.75944 0.96283 0.73332 0.0
H3117 H 0.77864 0.87127 0.71049 0.0
H3118 H 0.74559 0.89749 0.69335 0.0
H3119 H 0.66779 0.97907 0.72027 0.0
H3120 H 0.67161 1.02597 0.72042 0.0
H3121 H 0.69584 1.00019 0.7315 0.0
H3122 H 0.75299 1.02896 0.72412 0.0
H3123 H 0.72887 0.05459 0.71297 0.0
H3124 H 0.76453 1.02732 0.70783 0.0
H3125 H 0.71109 0.93716 0.67621 0.0
H3126 H 0.67694 0.98025 0.66391 0.0
H3127 H 0.67454 0.04822 0.69624 0.0
C3128 C 0.7562 0.94757 0.72489 0.0
C3129 C 0.77256 0.91281 0.72413 0.0
C3130 C 0.76695 0.89661 0.7122 0.0
C3131 C 0.74784 0.91183 0.70202 0.0
C3132 C 0.73297 0.94535 0.70293 0.0
C3133 C 0.73642 0.96298 0.71422 0.0
C3134 C 0.71684 0.99873 0.7125 0.0
C3135 C 0.68621 1.00116 0.72173 0.0
C3136 C 0.74232 1.02923 0.71449 0.0
C3137 C 0.70274 0.99856 0.6987 0.0
C3138 C 0.71268 0.96732 0.69333 0.0
C3139 C 0.70329 0.96138 0.68064 0.0
C3140 C 0.68347 0.98666 0.67347 0.0
C3141 C 0.67169 1.01926 0.67849 0.0
C3142 C 0.68229 1.02434 0.69157 0.0
H3143 H 0.88869 0.99636 0.48257 0.0
H3144 H 0.94302 0.06389 0.45669 0.0
H3145 H 0.91446 1.03452 0.43914 0.0
H3146 H 0.88986 0.91646 0.46214 0.0
H3147 H 0.84625 0.90222 0.46598 0.0
H3148 H 0.871 0.92787 0.47702 0.0
H3149 H 0.82111 0.97258 0.47802 0.0
H3150 H 0.79632 0.94746 0.46683 0.0
H3151 H 0.80615 0.99279 0.46384 0.0
H3152 H 0.87832 0.99475 0.42227 0.0
H3153 H 0.83997 0.95406 0.41033 0.0
H3154 H 0.80459 0.91033 0.44527 0.0
C3155 C 0.89483 1.00534 0.47328 0.0
C3156 C 0.91982 1.03427 0.47178 0.0
C3157 C 0.92505 1.04295 0.4589 0.0
C3158 C 0.90852 1.02587 0.4485 0.0
C3159 C 0.88481 0.99822 0.45017 0.0
C3160 C 0.87775 0.98799 0.46235 0.0
C3161 C 0.85032 0.95761 0.46127 0.0
C3162 C 0.86524 0.92404 0.46695 0.0
C3163 C 0.81643 0.96819 0.4679 0.0
C3164 C 0.84346 0.95246 0.44689 0.0
C3165 C 0.86395 0.97629 0.44064 0.0
C3166 C 0.86235 0.97633 0.42736 0.0
C3167 C 0.83999 0.95251 0.42041 0.0
C3168 C 0.81778 0.92742 0.42626 0.0
C3169 C 0.82044 0.92835 0.43996 0.0
H3170 H 0.91954 0.11863 0.17449 0.0
H3171 H 0.91893 1.019 0.19346 0.0
H3172 H 0.88499 1.04475 0.2106 0.0
H3173 H 0.92643 0.17251 0.20307 0.0
H3174 H 0.89759 0.20695 0.19809 0.0
H3175 H 0.921 0.18129 0.18668 0.0
H3176 H 0.86292 0.16532 0.17592 0.0
H3177 H 0.83947 0.19118 0.18726 0.0
H3178 H 0.82822 0.14594 0.18493 0.0
H3179 H 0.85063 0.08393 0.2281 0.0
H3180 H 0.8196 0.12811 0.2411 0.0
H3181 H 0.83676 0.20436 0.21208 0.0
C3182 C 0.91157 0.10162 0.182 0.0
C3183 C 0.92263 0.06485 0.18172 0.0
C3184 C 0.91147 1.04619 0.19259 0.0
C3185 C 0.89181 0.06105 0.20275 0.0
C3186 C 0.88181 0.09642 0.20283 0.0
C3187 C 0.89105 0.11655 0.19258 0.0
C3188 C 0.87677 0.15424 0.19531 0.0
C3189 C 0.90725 0.18032 0.1958 0.0
C3190 C 0.85029 0.16481 0.18525 0.0
C3191 C 0.85839 0.15207 0.20841 0.0
C3192 C 0.86201 0.11831 0.21264 0.0
C3193 C 0.84801 0.11025 0.2246 0.0
C3194 C 0.83016 0.13615 0.2322 0.0
C3195 C 0.82491 0.17141 0.2283 0.0
C3196 C 0.83977 0.17845 0.21592 0.0
H3197 H 0.64544 0.07207 0.95836 0.0
H3198 H 0.71458 0.07277 0.99029 0.0
H3199 H 0.75776 0.10663 0.97786 0.0
H3200 H 0.71227 0.06609 0.93362 0.0
H3201 H 0.69074 0.0953 0.92295 0.0
H3202 H 0.66542 0.07094 0.93413 0.0
H3203 H 0.63871 0.12803 0.94249 0.0
H3204 H 0.66385 0.15257 0.93131 0.0
H3205 H 0.66712 0.1627 0.9477 0.0
H3206 H 0.7973 0.14107 0.96056 0.0
H3207 H 0.82367 0.17329 0.94314 0.0
H3208 H 0.73023 0.15738 0.92119 0.0
C3209 C 0.6696 0.07938 0.96292 0.0
C3210 C 0.67497 0.06841 0.97593 0.0
C3211 C 0.7079 0.07969 0.98081 0.0
C3212 C 0.73322 0.09934 0.97356 0.0
C3213 C 0.72686 0.10932 0.96097 0.0
C3214 C 0.69526 0.09994 0.95575 0.0
C3215 C 0.69445 0.11499 0.94209 0.0
C3216 C 0.69045 0.08505 0.93263 0.0
C3217 C 0.66421 0.14111 0.94081 0.0
C3218 C 0.73047 0.13402 0.9402 0.0
C3219 C 0.74859 0.12988 0.95135 0.0
C3220 C 0.78242 0.1442 0.95206 0.0
C3221 C 0.79762 0.163 0.94181 0.0
C3222 C 0.7809 0.16951 0.9301 0.0
C3223 C 0.74574 0.15385 0.92952 0.0
H3224 H 0.78806 0.64164 0.93989 0.0
H3225 H 0.87014 0.69959 0.92157 0.0
H3226 H 0.91342 0.6725 0.93589 0.0
H3227 H 0.82341 0.64223 0.9717 0.0
H3228 H 0.81088 0.59804 0.97531 0.0
H3229 H 0.7866 0.62257 0.96391 0.0
H3230 H 0.79661 0.57346 0.94815 0.0
H3231 H 0.82271 0.54886 0.95903 0.0
H3232 H 0.84037 0.56071 0.94405 0.0
H3233 H 0.95078 0.63886 0.95512 0.0
H3234 H 0.97435 0.60052 0.97164 0.0
H3235 H 0.87151 0.5561 0.97667 0.0
C3236 C 0.81526 0.64839 0.93858 0.0
C3237 C 0.82405 0.67359 0.92875 0.0
C3238 C 0.86084 0.68068 0.92827 0.0
C3239 C 0.8862 0.66518 0.93673 0.0
C3240 C 0.87642 0.64096 0.94617 0.0
C3241 C 0.84144 0.63198 0.94685 0.0
C3242 C 0.83766 0.60389 0.9574 0.0
C3243 C 0.81315 0.61747 0.96769 0.0
C3244 C 0.82349 0.56968 0.95185 0.0
C3245 C 0.87548 0.59844 0.96275 0.0
C3246 C 0.89735 0.62086 0.95628 0.0
C3247 C 0.933 0.62158 0.95995 0.0
C3248 C 0.94654 0.59945 0.9698 0.0
C3249 C 0.92595 0.57485 0.97669 0.0
C3250 C 0.88923 0.57479 0.97254 0.0
H3251 H 0.68741 0.60333 0.16978 0.0
H3252 H 0.63476 0.53773 0.19645 0.0
H3253 H 0.66787 0.56446 0.21351 0.0
H3254 H 0.77432 0.61928 0.18556 0.0
H3255 H 0.77048 0.66478 0.18095 0.0
H3256 H 0.74765 0.63179 0.17246 0.0
H3257 H 0.695 0.67474 0.1771 0.0
H3258 H 0.7203 0.70086 0.18784 0.0
H3259 H 0.68071 0.68 0.19302 0.0
H3260 H 0.71015 0.60038 0.22963 0.0
H3261 H 0.74895 0.64153 0.24113 0.0
H3262 H 0.77271 0.69239 0.20617 0.0
C3263 C 0.68294 0.59382 0.17913 0.0
C3264 C 0.6589 0.56423 0.18092 0.0
C3265 C 0.65432 0.55664 0.19392 0.0
C3266 C 0.67295 0.57285 0.20406 0.0
C3267 C 0.69678 0.60014 0.20205 0.0
C3268 C 0.70085 0.61153 0.18985 0.0
C3269 C 0.7251 0.64446 0.19068 0.0
C3270 C 0.75639 0.63969 0.18194 0.0
C3271 C 0.70404 0.67694 0.18692 0.0
C3272 C 0.73656 0.64767 0.20483 0.0
C3273 C 0.71887 0.62202 0.21126 0.0
C3274 C 0.72378 0.62036 0.22444 0.0
C3275 C 0.74643 0.64448 0.23114 0.0
C3276 C 0.76569 0.67172 0.22517 0.0
C3277 C 0.75967 0.67243 0.21155 0.0
H3278 H 0.71577 0.41758 0.42662 0.0
H3279 H 0.82338 0.43684 0.43685 0.0
H3280 H 0.80277 0.47229 0.45493 0.0
H3281 H 0.68298 0.50341 0.43446 0.0
H3282 H 0.64137 0.49006 0.44079 0.0
H3283 H 0.66283 0.46375 0.42909 0.0
H3284 H 0.66291 0.40972 0.44282 0.0
H3285 H 0.6393 0.43389 0.45458 0.0
H3286 H 0.67971 0.41234 0.45849 0.0
H3287 H 0.76537 0.50761 0.47454 0.0
H3288 H 0.72239 0.5368 0.48865 0.0
H3289 H 0.63871 0.49901 0.46515 0.0
C3290 C 0.73546 0.42933 0.43254 0.0
C3291 C 0.77224 0.42324 0.42953 0.0
C3292 C 0.7955 0.44002 0.43817 0.0
C3293 C 0.78358 0.4606 0.4488 0.0
C3294 C 0.74741 0.46575 0.45139 0.0
C3295 C 0.72379 0.45047 0.44323 0.0
C3296 C 0.68622 0.46025 0.44767 0.0
C3297 C 0.66716 0.48059 0.43741 0.0
C3298 C 0.66581 0.42708 0.45108 0.0
C3299 C 0.69168 0.48348 0.45949 0.0
C3300 C 0.72725 0.48597 0.46172 0.0
C3301 C 0.73777 0.50519 0.4725 0.0
C3302 C 0.71258 0.52189 0.4808 0.0
C3303 C 0.67556 0.5208 0.47877 0.0
C3304 C 0.66609 0.5009 0.46761 0.0
H3305 H 0.84165 0.46805 0.73389 0.0
H3306 H 0.81126 0.38231 0.70973 0.0
H3307 H 0.84138 0.40974 0.69224 0.0
H3308 H 0.83686 0.53779 0.7097 0.0
H3309 H 0.87565 0.56101 0.71447 0.0
H3310 H 0.85139 0.53566 0.72567 0.0
H3311 H 0.90701 0.50102 0.73101 0.0
H3312 H 0.93137 0.52643 0.71985 0.0
H3313 H 0.93096 0.47947 0.71871 0.0
H3314 H 0.876 0.4489 0.67512 0.0
H3315 H 0.91172 0.49068 0.66281 0.0
H3316 H 0.92624 0.55278 0.69622 0.0
C3317 C 0.8415 0.45442 0.72504 0.0
C3318 C 0.8223 0.42113 0.724 0.0
C3319 C 0.82445 0.40681 0.71161 0.0
C3320 C 0.84198 0.42268 0.70123 0.0
C3321 C 0.85977 0.4546 0.70242 0.0
C3322 C 0.86017 0.47028 0.71415 0.0
C3323 C 0.88256 0.50449 0.7126 0.0
C3324 C 0.8603 0.53666 0.71581 0.0
C3325 C 0.91489 0.50278 0.72106 0.0
C3326 C 0.89404 0.50549 0.69847 0.0
C3327 C 0.88022 0.47627 0.69277 0.0
C3328 C 0.88679 0.47157 0.67979 0.0
C3329 C 0.90757 0.49608 0.67261 0.0
C3330 C 0.92322 0.52665 0.67791 0.0
C3331 C 0.91549 0.53049 0.69131 0.0
H3332 H 0.24891 0.46225 0.23595 0.0
H3333 H 0.30969 0.39955 0.21018 0.0
H3334 H 0.28246 0.42928 0.19255 0.0
H3335 H 0.16821 0.46353 0.21577 0.0
H3336 H 0.15615 0.50797 0.21931 0.0
H3337 H 0.18077 0.48281 0.23046 0.0
H3338 H 0.22827 0.53038 0.2309 0.0
H3339 H 0.20374 0.55561 0.21974 0.0
H3340 H 0.24848 0.54387 0.21651 0.0
H3341 H 0.24564 0.4677 0.17555 0.0
H3342 H 0.2066 0.50701 0.16345 0.0
H3343 H 0.16561 0.5475 0.19823 0.0
C3344 C 0.25688 0.45452 0.22667 0.0
C3345 C 0.28373 0.42714 0.22526 0.0
C3346 C 0.29084 0.41976 0.21236 0.0
C3347 C 0.27485 0.43688 0.2019 0.0
C3348 C 0.24941 0.46304 0.20349 0.0
C3349 C 0.24024 0.47186 0.21566 0.0
C3350 C 0.2113 0.50087 0.21445 0.0
C3351 C 0.17707 0.48805 0.22036 0.0
C3352 C 0.22367 0.5347 0.22079 0.0
C3353 C 0.20609 0.50689 0.20003 0.0
C3354 C 0.22851 0.48451 0.19387 0.0
C3355 C 0.22827 0.48508 0.18057 0.0
C3356 C 0.20546 0.50811 0.17352 0.0
C3357 C 0.18158 0.53205 0.17926 0.0
C3358 C 0.18283 0.5305 0.19299 0.0
H3359 H 0.39477 0.49346 0.98218 0.0
H3360 H 0.44904 0.56022 0.95605 0.0
H3361 H 0.41897 0.53148 0.93862 0.0
H3362 H 0.39231 0.41333 0.96214 0.0
H3363 H 0.34833 0.40101 0.96625 0.0
H3364 H 0.37445 0.42612 0.97704 0.0
H3365 H 0.3267 0.4733 0.978 0.0
H3366 H 0.30066 0.44847 0.9672 0.0
H3367 H 0.31144 0.49302 0.96374 0.0
H3368 H 0.38026 0.49224 0.92192 0.0
H3369 H 0.34053 0.45198 0.91038 0.0
H3370 H 0.30826 0.40802 0.94563 0.0
C3371 C 0.4008 0.50225 0.97285 0.0
C3372 C 0.42623 0.5307 0.97124 0.0
C3373 C 0.43092 0.53946 0.95833 0.0
C3374 C 0.41346 0.52277 0.948 0.0
C3375 C 0.3893 0.49551 0.9498 0.0
C3376 C 0.38287 0.48532 0.96203 0.0
C3377 C 0.35441 0.45596 0.9612 0.0
C3378 C 0.36819 0.42209 0.96701 0.0
C3379 C 0.32134 0.46845 0.96795 0.0
C3380 C 0.34678 0.45052 0.94688 0.0
C3381 C 0.3672 0.47402 0.94044 0.0
C3382 C 0.36446 0.47406 0.92717 0.0
C3383 C 0.34121 0.45049 0.92045 0.0
C3384 C 0.31932 0.42543 0.92651 0.0
C3385 C 0.32325 0.42633 0.94017 0.0
H3386 H 0.42418 0.61969 0.67559 0.0
H3387 H 0.40597 0.51434 0.68849 0.0
H3388 H 0.37125 0.53784 0.70609 0.0
H3389 H 0.43029 0.66052 0.70724 0.0
H3390 H 0.4083 0.70039 0.70303 0.0
H3391 H 0.43198 0.67583 0.69138 0.0
H3392 H 0.37666 0.67277 0.67777 0.0
H3393 H 0.3529 0.69741 0.68936 0.0
H3394 H 0.33677 0.6555 0.68426 0.0
H3395 H 0.33592 0.57585 0.72442 0.0
H3396 H 0.30686 0.61891 0.73833 0.0
H3397 H 0.34316 0.70208 0.71442 0.0
C3398 C 0.41299 0.60113 0.68203 0.0
C3399 C 0.41937 0.56366 0.67987 0.0
C3400 C 0.40294 0.54239 0.68917 0.0
C3401 C 0.38259 0.55598 0.69952 0.0
C3402 C 0.37707 0.59228 0.70132 0.0
C3403 C 0.39192 0.61464 0.69266 0.0
C3404 C 0.38181 0.65276 0.69678 0.0
C3405 C 0.41507 0.67364 0.69978 0.0
C3406 C 0.3608 0.67069 0.68642 0.0
C3407 C 0.35883 0.6487 0.70884 0.0
C3408 C 0.35684 0.61335 0.71137 0.0
C3409 C 0.33788 0.6033 0.72219 0.0
C3410 C 0.32104 0.62864 0.73033 0.0
C3411 C 0.32143 0.66558 0.72823 0.0
C3412 C 0.34123 0.67481 0.71693 0.0
H3413 H 0.20582 0.59665 0.48253 0.0
H3414 H 0.12824 0.55685 0.45672 0.0
H3415 H 0.15658 0.58817 0.4396 0.0
H3416 H 0.21587 0.68447 0.46668 0.0
H3417 H 0.26247 0.68725 0.46898 0.0
H3418 H 0.23588 0.66272 0.47974 0.0
H3419 H 0.27397 0.60835 0.47589 0.0
H3420 H 0.30045 0.6327 0.46511 0.0
H3421 H 0.28019 0.59259 0.46017 0.0
H3422 H 0.19749 0.62374 0.42304 0.0
H3423 H 0.24015 0.66028 0.41142 0.0
H3424 H 0.29348 0.68185 0.44612 0.0
C3425 C 0.19429 0.59444 0.47336 0.0
C3426 C 0.16286 0.57268 0.47174 0.0
C3427 C 0.15112 0.57227 0.45902 0.0
C3428 C 0.16758 0.59043 0.44887 0.0
C3429 C 0.19802 0.61044 0.45062 0.0
C3430 C 0.21115 0.61295 0.46268 0.0
C3431 C 0.24438 0.6369 0.46173 0.0
C3432 C 0.23937 0.66979 0.46977 0.0
C3433 C 0.27668 0.61641 0.46599 0.0
C3434 C 0.2478 0.64708 0.44755 0.0
C3435 C 0.22063 0.63114 0.44129 0.0
C3436 C 0.21849 0.63618 0.42815 0.0
C3437 C 0.24351 0.6575 0.42138 0.0
C3438 C 0.27209 0.6752 0.42725 0.0
C3439 C 0.27318 0.66913 0.4408 0.0
H3440 H 0.27094 0.14143 0.32151 0.0
H3441 H 0.3497 0.10551 0.34746 0.0
H3442 H 0.33905 1.04525 0.34111 0.0
H3443 H 0.2122 0.08764 0.32996 0.0
H3444 H 0.19204 0.07732 0.31522 0.0
H3445 H 0.21448 0.11814 0.3172 0.0
H3446 H 0.25584 0.10488 0.29856 0.0
H3447 H 0.23167 0.06516 0.29592 0.0
H3448 H 0.27845 0.0636 0.29787 0.0
H3449 H 0.30528 0.99004 0.33817 0.0
H3450 H 0.26729 0.9415 0.33118 0.0
H3451 H 0.20804 1.01461 0.30859 0.0
C3452 C 0.28776 0.12106 0.3251 0.0
C3453 C 0.30934 0.12775 0.33546 0.0
C3454 C 0.33189 0.10094 0.33978 0.0
C3455 C 0.32557 0.06627 0.33641 0.0
C3456 C 0.29815 0.05969 0.32825 0.0
C3457 C 0.28078 0.08633 0.3221 0.0
C3458 C 0.24919 0.07268 0.3152 0.0
C3459 C 0.21502 0.09002 0.31967 0.0
C3460 C 0.25409 0.07679 0.30105 0.0
C3461 C 0.25047 1.03494 0.31906 0.0
C3462 C 0.27876 1.02781 0.32657 0.0
C3463 C 0.28383 0.99497 0.33183 0.0
C3464 C 0.26162 0.96779 0.32808 0.0
C3465 C 0.2354 0.97384 0.31898 0.0
C3466 C 0.22797 1.00851 0.3154 0.0
H3467 H 0.24057 0.97133 0.57546 0.0
H3468 H 0.24805 0.88553 0.6015 0.0
H3469 H 0.30982 0.87735 0.5959 0.0
H3470 H 0.31661 0.95652 0.55433 0.0
H3471 H 0.32769 1.00211 0.55571 0.0
H3472 H 0.28274 0.98865 0.55667 0.0
H3473 H 0.27946 1.02206 0.57772 0.0
H3474 H 0.32529 1.03218 0.57758 0.0
H3475 H 0.30692 1.00854 0.59051 0.0
H3476 H 0.37445 0.88477 0.58863 0.0
H3477 H 0.43055 0.90515 0.57955 0.0
H3478 H 0.38008 1.00185 0.56877 0.0
C3479 C 0.25477 0.94964 0.57949 0.0
C3480 C 0.24001 0.93011 0.5892 0.0
C3481 C 0.25888 0.90131 0.59409 0.0
C3482 C 0.29435 0.89691 0.59117 0.0
C3483 C 0.31006 0.92197 0.58366 0.0
C3484 C 0.29069 0.94805 0.57799 0.0
C3485 C 0.31344 0.97733 0.57342 0.0
C3486 C 0.30995 0.98135 0.55919 0.0
C3487 C 0.30577 1.01203 0.58022 0.0
C3488 C 0.34859 0.96332 0.57711 0.0
C3489 C 0.34659 0.93083 0.58256 0.0
C3490 C 0.37639 0.9106 0.58463 0.0
C3491 C 0.40832 0.92266 0.57977 0.0
C3492 C 0.40965 0.95497 0.57339 0.0
C3493 C 0.38034 0.97717 0.57367 0.0
H3494 H 0.39356 0.0945 0.80556 0.0
H3495 H 0.42979 0.18471 0.82629 0.0
H3496 H 0.46194 0.14531 0.84077 0.0
H3497 H 0.37411 1.04541 0.83094 0.0
H3498 H 0.38509 1.00458 0.8235 0.0
H3499 H 0.37147 1.04088 0.81424 0.0
H3500 H 0.42887 1.03551 0.80141 0.0
H3501 H 0.44321 0.99977 0.81102 0.0
H3502 H 0.47054 1.0378 0.80923 0.0
H3503 H 0.47822 0.09624 0.85482 0.0
H3504 H 0.471 1.0444 0.86808 0.0
H3505 H 0.43101 0.98605 0.83661 0.0
C3506 C 0.40858 0.10592 0.81312 0.0
C3507 C 0.40903 0.14209 0.81513 0.0
C3508 C 0.42905 0.1567 0.82487 0.0
C3509 C 0.44767 0.13462 0.83293 0.0
C3510 C 0.44649 0.0986 0.8307 0.0
C3511 C 0.4273 0.08457 0.82099 0.0
C3512 C 0.42523 1.04546 0.82147 0.0
C3513 C 0.38675 1.03341 0.82262 0.0
C3514 C 0.44307 1.02866 0.81011 0.0
C3515 C 0.44556 1.03917 0.83327 0.0
C3516 C 0.45798 0.07008 0.83845 0.0
C3517 C 0.47 0.07174 0.8507 0.0
C3518 C 0.4662 1.04207 0.85816 0.0
C3519 C 0.45054 1.01164 0.85319 0.0
C3520 C 0.4438 1.00904 0.84038 0.0
H3521 H 0.27485 0.06998 1.06619 0.0
H3522 H 0.33449 0.11051 1.03484 0.0
H3523 H 0.38513 0.07638 1.04156 0.0
H3524 H 0.33909 0.06517 0.08785 0.0
H3525 H 0.32364 1.02462 0.09431 0.0
H3526 H 0.29367 0.05308 0.08658 0.0
H3527 H 0.27645 1.00138 1.07197 0.0
H3528 H 0.30811 0.97341 0.07938 0.0
H3529 H 0.30962 0.98 1.06275 0.0
H3530 H 0.43124 1.04662 1.05414 0.0
H3531 H 0.46617 1.0298 1.0725 0.0
H3532 H 0.3731 0.99069 0.0904 0.0
C3533 C 0.29795 0.07116 1.0604 0.0
C3534 C 0.29989 0.09306 1.04989 0.0
C3535 C 0.33187 0.09478 1.04313 0.0
C3536 C 0.36074 0.07463 1.04664 0.0
C3537 C 0.35681 0.05163 1.05654 0.0
C3538 C 0.32604 0.04964 1.06322 0.0
C3539 C 0.32862 1.02432 1.07384 0.0
C3540 C 0.32086 1.04291 0.08637 0.0
C3541 C 0.30425 0.99291 1.07185 0.0
C3542 C 0.36656 1.01383 1.07261 0.0
C3543 C 0.3826 1.02995 1.06256 0.0
C3544 C 0.41897 1.03267 1.06173 0.0
C3545 C 0.43884 1.02263 1.0721 0.0
C3546 C 0.4218 1.01036 0.08292 0.0
C3547 C 0.38657 1.00017 0.0822 0.0
H3548 H 0.92557 0.99348 0.81884 0.0
H3549 H 0.96634 1.04291 0.78572 0.0
H3550 H 0.96408 0.10002 0.79616 0.0
H3551 H 0.85996 1.0452 0.81866 0.0
H3552 H 0.85186 0.04821 0.83516 0.0
H3553 H 0.87338 1.01047 0.82892 0.0
H3554 H 0.92684 1.02013 0.84346 0.0
H3555 H 0.90442 0.05696 0.85025 0.0
H3556 H 0.94783 0.06229 0.84399 0.0
H3557 H 0.94045 0.1528 0.80748 0.0
H3558 H 0.90353 0.19434 0.81969 0.0
H3559 H 0.86566 0.10807 0.84195 0.0
C3560 C 0.93639 1.01611 0.81419 0.0
C3561 C 0.94547 1.0142 0.80153 0.0
C3562 C 0.95929 1.04395 0.7955 0.0
C3563 C 0.95762 0.07667 0.80132 0.0
C3564 C 0.94199 0.0787 0.81303 0.0
C3565 C 0.93192 0.04894 0.81948 0.0
C3566 C 0.90664 0.0574 0.82985 0.0
C3567 C 0.87092 1.03924 0.82802 0.0
C3568 C 0.92241 0.04871 0.84264 0.0
C3569 C 0.9034 0.09606 0.828 0.0
C3570 C 0.92445 0.10836 0.81855 0.0
C3571 C 0.92411 0.14347 0.815 0.0
C3572 C 0.90264 0.16668 0.82171 0.0
C3573 C 0.88094 0.15387 0.83132 0.0
C3574 C 0.88114 0.11821 0.8343 0.0
H3575 H 0.79668 0.18497 0.60331 0.0
H3576 H 0.83742 0.09593 0.62327 0.0
H3577 H 0.89602 0.10759 0.61499 0.0
H3578 H 0.82918 0.16816 0.57742 0.0
H3579 H 0.84037 0.21146 0.57217 0.0
H3580 H 0.80746 0.20616 0.58373 0.0
H3581 H 0.84179 0.24752 0.59847 0.0
H3582 H 0.87557 0.25229 0.58685 0.0
H3583 H 0.88665 0.23807 0.60236 0.0
H3584 H 0.93818 0.11121 0.59899 0.0
H3585 H 0.95547 0.1051 0.57717 0.0
H3586 H 0.89698 0.19773 0.56783 0.0
C3587 C 0.81854 0.16923 0.60637 0.0
C3588 C 0.81289 0.13953 0.61371 0.0
C3589 C 0.84141 0.11862 0.61743 0.0
C3590 C 0.87491 0.12548 0.61296 0.0
C3591 C 0.87949 0.15355 0.60488 0.0
C3592 C 0.85208 0.17565 0.6018 0.0
C3593 C 0.86112 0.19825 0.59077 0.0
C3594 C 0.83293 0.19574 0.58043 0.0
C3595 C 0.86664 0.23629 0.59487 0.0
C3596 C 0.89539 0.18162 0.58692 0.0
C3597 C 0.90652 0.15706 0.59556 0.0
C3598 C 0.93098 0.13138 0.59244 0.0
C3599 C 0.94104 0.12812 0.57998 0.0
C3600 C 0.92775 0.15134 0.57099 0.0
C3601 C 0.90802 0.18043 0.57475 0.0
H3602 H 0.72553 0.97313 0.3184 0.0
H3603 H 0.82122 0.976 0.34007 0.0
H3604 H 0.82111 1.03969 0.33937 0.0
H3605 H 0.74105 0.05781 0.30036 0.0
H3606 H 0.69495 0.0672 0.30134 0.0
H3607 H 0.7097 1.02265 0.30038 0.0
H3608 H 0.67409 1.0102 0.32051 0.0
H3609 H 0.66191 0.05534 0.32218 0.0
H3610 H 0.68462 1.03354 0.33465 0.0
H3611 H 0.80213 0.10237 0.34131 0.0
H3612 H 0.77946 0.16157 0.33714 0.0
H3613 H 0.69305 0.11592 0.31649 0.0
C3614 C 0.74764 0.9871 0.32229 0.0
C3615 C 0.77203 0.96971 0.32988 0.0
C3616 C 0.8013 0.98864 0.33452 0.0
C3617 C 0.80114 1.02511 0.33445 0.0
C3618 C 0.77247 1.04169 0.3292 0.0
C3619 C 0.74718 1.02347 0.32263 0.0
C3620 C 0.71772 1.04709 0.31866 0.0
C3621 C 0.71576 0.04883 0.30434 0.0
C3622 C 0.68253 1.03583 0.32434 0.0
C3623 C 0.73005 0.08111 0.32429 0.0
C3624 C 0.76149 0.07749 0.33042 0.0
C3625 C 0.77801 0.1057 0.33618 0.0
C3626 C 0.76442 0.13917 0.33406 0.0
C3627 C 0.73589 0.14357 0.32576 0.0
C3628 C 0.71576 0.11396 0.32246 0.0
H3629 H 0.87254 0.93855 0.08345 0.0
H3630 H 0.83818 0.86461 0.11116 0.0
H3631 H 0.79544 0.84009 0.09625 0.0
H3632 H 0.79494 0.9632 0.07716 0.0
H3633 H 0.79969 0.97229 1.06078 0.0
H3634 H 0.83714 0.97404 1.07076 0.0
H3635 H 0.86985 0.92837 1.05725 0.0
H3636 H 0.83306 0.92755 1.04675 0.0
H3637 H 0.849 0.88745 1.05343 0.0
H3638 H 0.74501 0.83815 0.08172 0.0
H3639 H 0.69622 0.85419 1.06742 0.0
H3640 H 0.76303 0.93089 1.04991 0.0
C3641 C 0.8576 0.91558 0.08595 0.0
C3642 C 0.85839 0.90291 0.09816 0.0
C3643 C 0.83797 0.87389 0.10163 0.0
C3644 C 0.81362 0.86 0.09325 0.0
C3645 C 0.81059 0.87557 0.08157 0.0
C3646 C 0.83271 0.90234 0.07782 0.0
C3647 C 0.81934 0.9206 1.06638 0.0
C3648 C 0.81236 0.95978 1.06894 0.0
C3649 C 0.8443 0.91565 1.0553 0.0
C3650 C 0.78581 0.90086 1.06454 0.0
C3651 C 0.781 0.87482 1.07325 0.0
C3652 C 0.749 0.85741 1.07451 0.0
C3653 C 0.72145 0.86677 1.06653 0.0
C3654 C 0.72666 0.89333 1.05769 0.0
C3655 C 0.75914 0.90996 1.05656 0.0
H3656 H 0.71211 0.5854 0.84956 0.0
H3657 H 0.65101 0.66107 0.82905 0.0
H3658 H 0.61701 0.61256 0.81941 0.0
H3659 H 0.72441 0.53034 0.826 0.0
H3660 H 0.7235 0.49105 0.83523 0.0
H3661 H 0.73586 0.53154 0.84228 0.0
H3662 H 0.68749 0.52428 0.85887 0.0
H3663 H 0.67415 0.48359 0.85181 0.0
H3664 H 0.64268 0.5181 0.85413 0.0
H3665 H 0.60027 0.55751 0.80911 0.0
H3666 H 0.61089 0.50504 0.79653 0.0
H3667 H 0.67703 0.46325 0.82546 0.0
C3668 C 0.69149 0.59176 0.84302 0.0
C3669 C 0.68459 0.62647 0.83965 0.0
C3670 C 0.65695 0.63426 0.83142 0.0
C3671 C 0.63719 0.607 0.82618 0.0
C3672 C 0.64489 0.5727 0.8297 0.0
C3673 C 0.67157 0.56522 0.83794 0.0
C3674 C 0.67929 0.52681 0.8387 0.0
C3675 C 0.71796 0.5195 0.83533 0.0
C3676 C 0.67032 0.51235 0.85165 0.0
C3677 C 0.65424 0.51348 0.82891 0.0
C3678 C 0.63375 0.54023 0.82409 0.0
C3679 C 0.61509 0.53614 0.81303 0.0
C3680 C 0.62089 0.50592 0.80598 0.0
C3681 C 0.64536 0.48087 0.81009 0.0
C3682 C 0.65806 0.48232 0.82235 0.0
H3683 H 0.88766 0.42519 1.06885 0.0
H3684 H 0.93017 0.52018 0.08457 0.0
H3685 H 0.87588 0.53001 0.09603 0.0
H3686 H 0.82144 0.46197 1.05865 0.0
H3687 H 0.78809 0.42922 1.06064 0.0
H3688 H 0.833 0.41633 1.05915 0.0
H3689 H 0.83282 0.3842 0.08032 0.0
H3690 H 0.78676 0.39364 0.08142 0.0
H3691 H 0.81566 0.40591 0.09397 0.0
H3692 H 0.81345 0.54302 0.09785 0.0
H3693 H 0.74957 0.54488 0.09838 0.0
H3694 H 0.74501 0.44599 0.07845 0.0
C3695 C 0.88662 0.44645 1.07553 0.0
C3696 C 0.91211 0.47302 1.07535 0.0
C3697 C 0.91064 0.49979 0.08446 0.0
C3698 C 0.87925 0.50614 0.09073 0.0
C3699 C 0.85105 0.48434 0.08808 0.0
C3700 C 0.85473 0.45396 0.08116 0.0
C3701 C 0.81954 0.4391 0.0774 0.0
C3702 C 0.81534 0.43653 1.06312 0.0
C3703 C 0.81332 0.40362 0.08366 0.0
C3704 C 0.79584 0.4668 0.08267 0.0
C3705 C 0.81449 0.4926 0.08876 0.0
C3706 C 0.79844 0.52225 0.09356 0.0
C3707 C 0.76202 0.52353 0.09344 0.0
C3708 C 0.74226 0.49503 0.08866 0.0
C3709 C 0.75949 0.46784 0.08229 0.0
H3710 H 0.87719 0.48824 0.34191 0.0
H3711 H 0.92997 0.39745 0.32672 0.0
H3712 H 0.95885 0.43533 0.31089 0.0
H3713 H 0.86013 0.53077 0.31379 0.0
H3714 H 0.86638 0.57338 0.32064 0.0
H3715 H 0.85214 0.53777 0.33017 0.0
H3716 H 0.90481 0.54969 0.34491 0.0
H3717 H 0.92011 0.58426 0.33495 0.0
H3718 H 0.94868 0.54839 0.33876 0.0
H3719 H 0.97407 0.48243 0.29542 0.0
H3720 H 0.97024 0.53227 0.28091 0.0
H3721 H 0.91608 0.59279 0.30895 0.0
C3722 C 0.89436 0.47618 0.33509 0.0
C3723 C 0.90074 0.44011 0.33512 0.0
C3724 C 0.92429 0.42515 0.32647 0.0
C3725 C 0.94112 0.44648 0.31769 0.0
C3726 C 0.93488 0.48243 0.31819 0.0
C3727 C 0.91196 0.49694 0.32669 0.0
C3728 C 0.90785 0.53564 0.32512 0.0
C3729 C 0.86939 0.54491 0.32225 0.0
C3730 C 0.92119 0.55566 0.33662 0.0
C3731 C 0.93132 0.54098 0.31401 0.0
C3732 C 0.94685 0.51003 0.31012 0.0
C3733 C 0.96343 0.5071 0.29859 0.0
C3734 C 0.96161 0.53557 0.29047 0.0
C3735 C 0.94384 0.56623 0.29413 0.0
C3736 C 0.93128 0.57001 0.30633 0.0
H3737 H 0.68521 0.6957 0.57221 0.0
H3738 H 0.64169 0.59417 0.57953 0.0
H3739 H 0.65519 0.60059 0.60174 0.0
H3740 H 0.75511 0.67675 0.58217 0.0
H3741 H 0.7704 0.71647 0.58943 0.0
H3742 H 0.73772 0.7187 0.57768 0.0
H3743 H 0.69569 0.75105 0.59265 0.0
H3744 H 0.72903 0.74985 0.60455 0.0
H3745 H 0.68597 0.73297 0.60776 0.0
H3746 H 0.6948 0.60196 0.61837 0.0
H3747 H 0.75434 0.59666 0.62657 0.0
H3748 H 0.78349 0.69303 0.60849 0.0
C3749 C 0.67647 0.67627 0.57881 0.0
C3750 C 0.66197 0.6449 0.57448 0.0
C3751 C 0.65202 0.61878 0.58293 0.0
C3752 C 0.65976 0.62238 0.59556 0.0
C3753 C 0.67915 0.6514 0.5994 0.0
C3754 C 0.68717 0.67837 0.59122 0.0
C3755 C 0.71824 0.6994 0.59577 0.0
C3756 C 0.74701 0.70289 0.58568 0.0
C3757 C 0.7065 0.73545 0.60047 0.0
C3758 C 0.7298 0.67679 0.6065 0.0
C3759 C 0.70546 0.6509 0.60905 0.0
C3760 C 0.7134 0.62273 0.61675 0.0
C3761 C 0.74743 0.61959 0.62122 0.0
C3762 C 0.77305 0.64438 0.61792 0.0
C3763 C 0.76373 0.67429 0.61119 0.0
H3764 H 0.36338 0.57357 0.34846 0.0
H3765 H 0.28738 0.62514 0.32463 0.0
H3766 H 0.25593 0.56912 0.32231 0.0
H3767 H 0.37001 0.49863 0.33063 0.0
H3768 H 0.37671 0.47059 0.34391 0.0
H3769 H 0.3893 0.51559 0.34472 0.0
H3770 H 0.35081 0.52305 0.36443 0.0
H3771 H 0.33672 0.4782 0.3634 0.0
H3772 H 0.30484 0.51288 0.36371 0.0
H3773 H 0.23387 0.50846 0.32236 0.0
H3774 H 0.23821 0.44747 0.31638 0.0
H3775 H 0.32781 0.43448 0.34059 0.0
C3776 C 0.34056 0.57351 0.3425 0.0
C3777 C 0.32756 0.60429 0.33692 0.0
C3778 C 0.29756 0.60213 0.3292 0.0
C3779 C 0.2791 0.57065 0.32808 0.0
C3780 C 0.29113 0.54172 0.33468 0.0
C3781 C 0.32196 0.54264 0.3413 0.0
C3782 C 0.33257 0.50703 0.34591 0.0
C3783 C 0.36925 0.49735 0.34099 0.0
C3784 C 0.33113 0.50521 0.36021 0.0
C3785 C 0.30396 0.48518 0.3401 0.0
C3786 C 0.27922 0.50605 0.33429 0.0
C3787 C 0.25312 0.49198 0.32682 0.0
C3788 C 0.25566 0.45675 0.3236 0.0
C3789 C 0.28564 0.43729 0.32719 0.0
C3790 C 0.30577 0.44961 0.33728 0.0
H3791 H 0.27064 0.63728 1.03887 0.0
H3792 H 0.26538 0.52487 1.04193 0.0
H3793 H 0.21033 0.53011 1.05368 0.0
H3794 H 0.26292 0.65099 1.06759 0.0
H3795 H 0.23831 0.69118 1.06721 0.0
H3796 H 0.26411 0.67897 1.0541 0.0
H3797 H 0.20906 0.68331 1.04008 0.0
H3798 H 0.18278 0.6948 1.05346 0.0
H3799 H 0.17054 0.65824 1.04376 0.0
H3800 H 0.17305 0.54551 1.07056 0.0
H3801 H 0.16786 0.56676 0.09207 0.0
H3802 H 0.19624 0.67059 0.08041 0.0
C3803 C 0.25697 0.61384 1.04168 0.0
C3804 C 0.272 0.5808 1.03967 0.0
C3805 C 0.2539 0.55045 1.04331 0.0
C3806 C 0.22246 0.55332 1.04992 0.0
C3807 C 0.20978 0.58666 1.05283 0.0
C3808 C 0.22665 0.61654 1.04876 0.0
C3809 C 0.21535 0.6485 1.05602 0.0
C3810 C 0.24703 0.66845 1.06156 0.0
C3811 C 0.19307 0.67262 1.04784 0.0
C3812 C 0.19334 0.63136 1.06596 0.0
C3813 C 0.18823 0.59605 1.06341 0.0
C3814 C 0.17603 0.57311 1.07249 0.0
C3815 C 0.17327 0.58529 0.0847 0.0
C3816 C 0.18219 0.62012 0.08761 0.0
C3817 C 0.18883 0.64407 0.07808 0.0
H3818 H 0.27297 0.66601 0.83208 0.0
H3819 H 0.17034 0.71205 0.82823 0.0
H3820 H 0.15325 0.68759 0.84839 0.0
H3821 H 0.24957 0.5944 0.83532 0.0
H3822 H 0.27858 0.57592 0.84677 0.0
H3823 H 0.29248 0.61267 0.83796 0.0
H3824 H 0.30378 0.64928 0.85776 0.0
H3825 H 0.29212 0.61165 0.86692 0.0
H3826 H 0.27054 0.65286 0.86962 0.0
H3827 H 0.13745 0.63734 0.8603 0.0
H3828 H 0.12924 0.57581 0.86651 0.0
H3829 H 0.24049 0.55812 0.86244 0.0
C3830 C 0.24775 0.67293 0.83591 0.0
C3831 C 0.22243 0.68943 0.82848 0.0
C3832 C 0.18973 0.69832 0.8337 0.0
C3833 C 0.17996 0.6847 0.84522 0.0
C3834 C 0.20322 0.66238 0.85125 0.0
C3835 C 0.23734 0.65775 0.84706 0.0
C3836 C 0.25387 0.62545 0.85261 0.0
C3837 C 0.26941 0.60072 0.84256 0.0
C3838 C 0.28169 0.63542 0.86232 0.0
C3839 C 0.22213 0.60984 0.85875 0.0
C3840 C 0.19362 0.63203 0.85839 0.0
C3841 C 0.1599 0.62036 0.8612 0.0
C3842 C 0.15526 0.58533 0.86445 0.0
C3843 C 0.18416 0.56251 0.86462 0.0
C3844 C 0.21793 0.5752 0.86213 0.0
H3845 H 0.19758 0.49698 0.57087 0.0
H3846 H 0.18308 0.38475 0.56944 0.0
H3847 H 0.23886 0.37707 0.58078 0.0
H3848 H 0.27416 0.48907 0.5581 0.0
H3849 H 0.29488 0.52618 0.56538 0.0
H3850 H 0.24836 0.52596 0.56311 0.0
H3851 H 0.23615 0.53501 0.5867 0.0
H3852 H 0.28262 0.53884 0.58895 0.0
H3853 H 0.25797 0.50765 0.59792 0.0
H3854 H 0.30115 0.38337 0.58956 0.0
H3855 H 0.3587 0.40319 0.59702 0.0
H3856 H 0.33749 0.50698 0.58284 0.0
C3857 C 0.20462 0.4707 0.57358 0.0
C3858 C 0.18652 0.44136 0.56897 0.0
C3859 C 0.1969 0.40758 0.57282 0.0
C3860 C 0.22887 0.40303 0.57903 0.0
C3861 C 0.24954 0.43253 0.58105 0.0
C3862 C 0.23757 0.46576 0.57846 0.0
C3863 C 0.26654 0.49237 0.57838 0.0
C3864 C 0.27121 0.50935 0.56548 0.0
C3865 C 0.26048 0.52008 0.5886 0.0
C3866 C 0.29684 0.46905 0.58137 0.0
C3867 C 0.28658 0.43489 0.58332 0.0
C3868 C 0.30958 0.40993 0.58791 0.0
C3869 C 0.34263 0.42128 0.59183 0.0
C3870 C 0.35211 0.45701 0.59075 0.0
C3871 C 0.3306 0.47972 0.58397 0.0
loop_
_geom_bond_atom_site_label_1
_geom_bond_atom_site_label_2
_geom_bond_distance
_geom_bond_site_symmetry_2
_ccdc_geom_bond_type
Ho0 C3 2.811 . S
Ho0 O20 2.322 . S
Ho0 O22 2.378 . S
Ho0 O23 2.524 . S
Ho0 O24 2.381 . S
Ho0 O25 2.669 . S
Ho0 O27 2.346 . S
Ho0 O31 2.305 . S
Ho1 C12 2.811 . S
Ho1 O21 2.346 . S
Ho1 O25 2.305 . S
Ho1 O26 2.322 . S
Ho1 O28 2.378 . S
Ho1 O29 2.524 . S
Ho1 O30 2.381 . S
Ho1 O31 2.669 . S
C2 O20 1.259 . S
C2 O21 1.268 . S
C3 Ho0 2.811 . S
C3 C4 1.488 . S
C3 O22 1.215 . S
C3 O23 1.289 . S
C4 C3 1.488 . S
C4 C5 1.348 . S
C4 C9 1.413 . S
C5 C4 1.348 . S
C5 C6 1.442 . S
C5 H32 0.930 . S
C6 C5 1.442 . S
C6 C7 1.381 . S
C6 H33 0.931 . S
C7 C6 1.381 . S
C7 C8 1.321 . S
C8 C7 1.321 . S
C8 C9 1.403 . S
C8 H34 0.934 . S
C9 C4 1.413 . S
C9 C8 1.403 . S
C9 H35 0.930 . S
C10 O24 1.275 . S
C10 O25 1.256 . S
C11 O26 1.259 . S
C11 O27 1.268 . S
C12 Ho1 2.811 . S
C12 C13 1.488 . S
C12 O28 1.215 . S
C12 O29 1.289 . S
C13 C12 1.488 . S
C13 C14 1.348 . S
C13 C18 1.413 . S
C14 C13 1.348 . S
C14 C15 1.442 . S
C14 H36 0.930 . S
C15 C14 1.442 . S
C15 C16 1.381 . S
C15 H37 0.931 . S
C16 C15 1.381 . S
C16 C17 1.321 . S
C17 C16 1.321 . S
C17 C18 1.403 . S
C17 H38 0.934 . S
C18 C13 1.413 . S
C18 C17 1.403 . S
C18 H39 0.930 . S
C19 O30 1.275 . S
C19 O31 1.256 . S
O20 Ho0 2.322 . S
O20 C2 1.259 . S
O21 Ho1 2.346 . S
O21 C2 1.268 . S
O22 Ho0 2.378 . S
O22 C3 1.215 . S
O23 Ho0 2.524 . S
O23 C3 1.289 . S
O24 Ho0 2.381 . S
O24 C10 1.275 . S
O25 Ho0 2.669 . S
O25 Ho1 2.305 . S
O25 C10 1.256 . S
O26 Ho1 2.322 . S
O26 C11 1.259 . S
O27 Ho0 2.346 . S
O27 C11 1.268 . S
O28 Ho1 2.378 . S
O28 C12 1.215 . S
O29 Ho1 2.524 . S
O29 C12 1.289 . S
O30 Ho1 2.381 . S
O30 C19 1.275 . S
O31 Ho0 2.305 . S
O31 Ho1 2.669 . S
O31 C19 1.256 . S
H32 C5 0.930 . S
H33 C6 0.931 . S
H34 C8 0.934 . S
H35 C9 0.930 . S
H36 C14 0.930 . S
H37 C15 0.931 . S
H38 C17 0.934 . S
H39 C18 0.930 . S
Ho40 C43 2.811 1_455 S
Ho40 O60 2.322 . S
Ho40 O62 2.378 1_455 S
Ho40 O63 2.524 1_455 S
Ho40 O64 2.381 1_565 S
Ho40 O65 2.669 . S
Ho40 O67 2.346 . S
Ho40 O71 2.305 . S
Ho41 C52 2.811 . S
Ho41 O61 2.346 . S
Ho41 O65 2.305 . S
Ho41 O66 2.322 . S
Ho41 O68 2.378 . S
Ho41 O69 2.524 . S
Ho41 O70 2.381 . S
Ho41 O71 2.669 . S
C42 O60 1.259 . S
C42 O61 1.268 . S
C43 Ho40 2.811 1_655 S
C43 C44 1.488 . S
C43 O62 1.215 . S
C43 O63 1.289 . S
C44 C43 1.488 . S
C44 C45 1.348 . S
C44 C49 1.413 . S
C45 C44 1.348 . S
C45 C46 1.442 . S
C45 H72 0.930 . S
C46 C45 1.442 . S
C46 C47 1.381 . S
C46 H73 0.931 . S
C47 C46 1.381 . S
C47 C48 1.321 . S
C48 C47 1.321 . S
C48 C49 1.403 . S
C48 H74 0.934 . S
C49 C44 1.413 . S
C49 C48 1.403 . S
C49 H75 0.930 . S
C50 O64 1.275 . S
C50 O65 1.256 1_545 S
C51 O66 1.259 . S
C51 O67 1.268 . S
C52 Ho41 2.811 . S
C52 C53 1.488 . S
C52 O68 1.215 . S
C52 O69 1.289 . S
C53 C52 1.488 . S
C53 C54 1.348 . S
C53 C58 1.413 . S
C54 C53 1.348 . S
C54 C55 1.442 . S
C54 H76 0.930 1_565 S
C55 C54 1.442 . S
C55 C56 1.381 . S
C55 H77 0.931 1_565 S
C56 C55 1.381 . S
C56 C57 1.321 . S
C57 C56 1.321 . S
C57 C58 1.403 . S
C57 H78 0.934 . S
C58 C53 1.413 . S
C58 C57 1.403 . S
C58 H79 0.930 . S
C59 O70 1.275 . S
C59 O71 1.256 . S
O60 Ho40 2.322 . S
O60 C42 1.259 . S
O61 Ho41 2.346 . S
O61 C42 1.268 . S
O62 Ho40 2.378 1_655 S
O62 C43 1.215 . S
O63 Ho40 2.524 1_655 S
O63 C43 1.289 . S
O64 Ho40 2.381 1_545 S
O64 C50 1.275 . S
O65 Ho40 2.669 . S
O65 Ho41 2.305 . S
O65 C50 1.256 1_565 S
O66 Ho41 2.322 . S
O66 C51 1.259 . S
O67 Ho40 2.346 . S
O67 C51 1.268 . S
O68 Ho41 2.378 . S
O68 C52 1.215 . S
O69 Ho41 2.524 . S
O69 C52 1.289 . S
O70 Ho41 2.381 . S
O70 C59 1.275 . S
O71 Ho40 2.305 . S
O71 Ho41 2.669 . S
O71 C59 1.256 . S
H72 C45 0.930 . S
H73 C46 0.931 . S
H74 C48 0.934 . S
H75 C49 0.930 . S
H76 C54 0.930 1_545 S
H77 C55 0.931 1_545 S
H78 C57 0.934 . S
H79 C58 0.930 . S
Ho80 C83 2.811 . S
Ho80 O100 2.322 . S
Ho80 O102 2.378 . S
Ho80 O103 2.524 . S
Ho80 O104 2.381 . S
Ho80 O105 2.669 . S
Ho80 O107 2.346 . S
Ho80 O111 2.305 . S
Ho81 C92 2.811 . S
Ho81 O101 2.346 . S
Ho81 O105 2.305 . S
Ho81 O106 2.322 . S
Ho81 O108 2.378 . S
Ho81 O109 2.524 . S
Ho81 O110 2.381 . S
Ho81 O111 2.669 . S
C82 O100 1.259 . S
C82 O101 1.268 . S
C83 Ho80 2.811 . S
C83 C84 1.488 . S
C83 O102 1.215 . S
C83 O103 1.289 . S
C84 C83 1.488 . S
C84 C85 1.348 . S
C84 C89 1.413 . S
C85 C84 1.348 . S
C85 C86 1.442 . S
C85 H112 0.930 . S
C86 C85 1.442 . S
C86 C87 1.381 . S
C86 H113 0.931 . S
C87 C86 1.381 . S
C87 C88 1.321 . S
C88 C87 1.321 . S
C88 C89 1.403 . S
C88 H114 0.934 . S
C89 C84 1.413 . S
C89 C88 1.403 . S
C89 H115 0.930 . S
C90 O104 1.275 . S
C90 O105 1.256 . S
C91 O106 1.259 . S
C91 O107 1.268 . S
C92 Ho81 2.811 . S
C92 C93 1.488 . S
C92 O108 1.215 . S
C92 O109 1.289 . S
C93 C92 1.488 . S
C93 C94 1.348 . S
C93 C98 1.413 . S
C94 C93 1.348 . S
C94 C95 1.442 . S
C94 H116 0.930 . S
C95 C94 1.442 . S
C95 C96 1.381 . S
C95 H117 0.931 . S
C96 C95 1.381 . S
C96 C97 1.321 . S
C97 C96 1.321 . S
C97 C98 1.403 . S
C97 H118 0.934 . S
C98 C93 1.413 . S
C98 C97 1.403 . S
C98 H119 0.930 . S
C99 O110 1.275 . S
C99 O111 1.256 . S
O100 Ho80 2.322 . S
O100 C82 1.259 . S
O101 Ho81 2.346 . S
O101 C82 1.268 . S
O102 Ho80 2.378 . S
O102 C83 1.215 . S
O103 Ho80 2.524 . S
O103 C83 1.289 . S
O104 Ho80 2.381 . S
O104 C90 1.275 . S
O105 Ho80 2.669 . S
O105 Ho81 2.305 . S
O105 C90 1.256 . S
O106 Ho81 2.322 . S
O106 C91 1.259 . S
O107 Ho80 2.346 . S
O107 C91 1.268 . S
O108 Ho81 2.378 . S
O108 C92 1.215 . S
O109 Ho81 2.524 . S
O109 C92 1.289 . S
O110 Ho81 2.381 . S
O110 C99 1.275 . S
O111 Ho80 2.305 . S
O111 Ho81 2.669 . S
O111 C99 1.256 . S
H112 C85 0.930 . S
H113 C86 0.931 . S
H114 C88 0.934 . S
H115 C89 0.930 . S
H116 C94 0.930 . S
H117 C95 0.931 . S
H118 C97 0.934 . S
H119 C98 0.930 . S
Ho120 C123 2.811 . S
Ho120 O140 2.322 . S
Ho120 O142 2.378 . S
Ho120 O143 2.524 . S
Ho120 O144 2.381 1_545 S
Ho120 O145 2.669 . S
Ho120 O147 2.346 . S
Ho120 O151 2.305 . S
Ho121 C132 2.811 . S
Ho121 O141 2.346 . S
Ho121 O145 2.305 . S
Ho121 O146 2.322 . S
Ho121 O148 2.378 . S
Ho121 O149 2.524 . S
Ho121 O150 2.381 . S
Ho121 O151 2.669 . S
C122 O140 1.259 . S
C122 O141 1.268 . S
C123 Ho120 2.811 . S
C123 C124 1.488 . S
C123 O142 1.215 . S
C123 O143 1.289 . S
C124 C123 1.488 . S
C124 C125 1.348 . S
C124 C129 1.413 . S
C125 C124 1.348 . S
C125 C126 1.442 . S
C125 H152 0.930 . S
C126 C125 1.442 . S
C126 C127 1.381 . S
C126 H153 0.931 . S
C127 C126 1.381 . S
C127 C128 1.321 . S
C128 C127 1.321 . S
C128 C129 1.403 . S
C128 H154 0.934 . S
C129 C124 1.413 . S
C129 C128 1.403 . S
C129 H155 0.930 . S
C130 O144 1.275 . S
C130 O145 1.256 1_565 S
C131 O146 1.259 . S
C131 O147 1.268 . S
C132 Ho121 2.811 . S
C132 C133 1.488 . S
C132 O148 1.215 . S
C132 O149 1.289 . S
C133 C132 1.488 . S
C133 C134 1.348 . S
C133 C138 1.413 . S
C134 C133 1.348 . S
C134 C135 1.442 . S
C134 H156 0.930 1_545 S
C135 C134 1.442 . S
C135 C136 1.381 . S
C135 H157 0.931 1_545 S
C136 C135 1.381 . S
C136 C137 1.321 . S
C137 C136 1.321 . S
C137 C138 1.403 . S
C137 H158 0.934 . S
C138 C133 1.413 . S
C138 C137 1.403 . S
C138 H159 0.930 . S
C139 O150 1.275 . S
C139 O151 1.256 . S
O140 Ho120 2.322 . S
O140 C122 1.259 . S
O141 Ho121 2.346 . S
O141 C122 1.268 . S
O142 Ho120 2.378 . S
O142 C123 1.215 . S
O143 Ho120 2.524 . S
O143 C123 1.289 . S
O144 Ho120 2.381 1_565 S
O144 C130 1.275 . S
O145 Ho120 2.669 . S
O145 Ho121 2.305 . S
O145 C130 1.256 1_545 S
O146 Ho121 2.322 . S
O146 C131 1.259 . S
O147 Ho120 2.346 . S
O147 C131 1.268 . S
O148 Ho121 2.378 . S
O148 C132 1.215 . S
O149 Ho121 2.524 . S
O149 C132 1.289 . S
O150 Ho121 2.381 . S
O150 C139 1.275 . S
O151 Ho120 2.305 . S
O151 Ho121 2.669 . S
O151 C139 1.256 . S
H152 C125 0.930 . S
H153 C126 0.931 . S
H154 C128 0.934 . S
H155 C129 0.930 . S
H156 C134 0.930 1_565 S
H157 C135 0.931 1_565 S
H158 C137 0.934 . S
H159 C138 0.930 . S
Ho160 C163 2.811 . S
Ho160 O180 2.322 . S
Ho160 O182 2.378 . S
Ho160 O183 2.524 . S
Ho160 O184 2.381 . S
Ho160 O185 2.669 . S
Ho160 O187 2.346 . S
Ho160 O191 2.305 . S
Ho161 C172 2.811 . S
Ho161 O181 2.346 . S
Ho161 O185 2.305 . S
Ho161 O186 2.322 . S
Ho161 O188 2.378 . S
Ho161 O189 2.524 . S
Ho161 O190 2.381 . S
Ho161 O191 2.669 . S
C162 O180 1.259 . S
C162 O181 1.268 . S
C163 Ho160 2.811 . S
C163 C164 1.488 . S
C163 O182 1.215 . S
C163 O183 1.289 . S
C164 C163 1.488 . S
C164 C165 1.348 . S
C164 C169 1.413 . S
C165 C164 1.348 . S
C165 C166 1.442 . S
C165 H192 0.930 . S
C166 C165 1.442 . S
C166 C167 1.381 . S
C166 H193 0.931 . S
C167 C166 1.381 . S
C167 C168 1.321 . S
C168 C167 1.321 . S
C168 C169 1.403 . S
C168 H194 0.934 . S
C169 C164 1.413 . S
C169 C168 1.403 . S
C169 H195 0.930 . S
C170 O184 1.275 . S
C170 O185 1.256 . S
C171 O186 1.259 . S
C171 O187 1.268 . S
C172 Ho161 2.811 . S
C172 C173 1.488 . S
C172 O188 1.215 . S
C172 O189 1.289 . S
C173 C172 1.488 . S
C173 C174 1.348 . S
C173 C178 1.413 . S
C174 C173 1.348 . S
C174 C175 1.442 . S
C174 H196 0.930 . S
C175 C174 1.442 . S
C175 C176 1.381 . S
C175 H197 0.931 . S
C176 C175 1.381 . S
C176 C177 1.321 . S
C177 C176 1.321 . S
C177 C178 1.403 . S
C177 H198 0.934 . S
C178 C173 1.413 . S
C178 C177 1.403 . S
C178 H199 0.930 . S
C179 O190 1.275 . S
C179 O191 1.256 . S
O180 Ho160 2.322 . S
O180 C162 1.259 . S
O181 Ho161 2.346 . S
O181 C162 1.268 . S
O182 Ho160 2.378 . S
O182 C163 1.215 . S
O183 Ho160 2.524 . S
O183 C163 1.289 . S
O184 Ho160 2.381 . S
O184 C170 1.275 . S
O185 Ho160 2.669 . S
O185 Ho161 2.305 . S
O185 C170 1.256 . S
O186 Ho161 2.322 . S
O186 C171 1.259 . S
O187 Ho160 2.346 . S
O187 C171 1.268 . S
O188 Ho161 2.378 . S
O188 C172 1.215 . S
O189 Ho161 2.524 . S
O189 C172 1.289 . S
O190 Ho161 2.381 . S
O190 C179 1.275 . S
O191 Ho160 2.305 . S
O191 Ho161 2.669 . S
O191 C179 1.256 . S
H192 C165 0.930 . S
H193 C166 0.931 . S
H194 C168 0.934 . S
H195 C169 0.930 . S
H196 C174 0.930 . S
H197 C175 0.931 . S
H198 C177 0.934 . S
H199 C178 0.930 . S
Ho200 C203 2.811 . S
Ho200 O220 2.322 . S
Ho200 O222 2.378 . S
Ho200 O223 2.524 . S
Ho200 O224 2.381 1_565 S
Ho200 O225 2.669 . S
Ho200 O227 2.346 . S
Ho200 O231 2.305 . S
Ho201 C212 2.811 . S
Ho201 O221 2.346 . S
Ho201 O225 2.305 . S
Ho201 O226 2.322 . S
Ho201 O228 2.378 . S
Ho201 O229 2.524 . S
Ho201 O230 2.381 . S
Ho201 O231 2.669 . S
C202 O220 1.259 . S
C202 O221 1.268 . S
C203 Ho200 2.811 . S
C203 C204 1.488 . S
C203 O222 1.215 . S
C203 O223 1.289 . S
C204 C203 1.488 . S
C204 C205 1.348 . S
C204 C209 1.413 . S
C205 C204 1.348 . S
C205 C206 1.442 . S
C205 H232 0.930 . S
C206 C205 1.442 . S
C206 C207 1.381 . S
C206 H233 0.931 . S
C207 C206 1.381 . S
C207 C208 1.321 . S
C208 C207 1.321 . S
C208 C209 1.403 . S
C208 H234 0.934 . S
C209 C204 1.413 . S
C209 C208 1.403 . S
C209 H235 0.930 . S
C210 O224 1.275 . S
C210 O225 1.256 1_545 S
C211 O226 1.259 . S
C211 O227 1.268 . S
C212 Ho201 2.811 . S
C212 C213 1.488 . S
C212 O228 1.215 . S
C212 O229 1.289 . S
C213 C212 1.488 . S
C213 C214 1.348 . S
C213 C218 1.413 . S
C214 C213 1.348 . S
C214 C215 1.442 . S
C214 H236 0.930 1_565 S
C215 C214 1.442 . S
C215 C216 1.381 . S
C215 H237 0.931 1_565 S
C216 C215 1.381 . S
C216 C217 1.321 . S
C217 C216 1.321 . S
C217 C218 1.403 . S
C217 H238 0.934 . S
C218 C213 1.413 . S
C218 C217 1.403 . S
C218 H239 0.930 . S
C219 O230 1.275 . S
C219 O231 1.256 . S
O220 Ho200 2.322 . S
O220 C202 1.259 . S
O221 Ho201 2.346 . S
O221 C202 1.268 . S
O222 Ho200 2.378 . S
O222 C203 1.215 . S
O223 Ho200 2.524 . S
O223 C203 1.289 . S
O224 Ho200 2.381 1_545 S
O224 C210 1.275 . S
O225 Ho200 2.669 . S
O225 Ho201 2.305 . S
O225 C210 1.256 1_565 S
O226 Ho201 2.322 . S
O226 C211 1.259 . S
O227 Ho200 2.346 . S
O227 C211 1.268 . S
O228 Ho201 2.378 . S
O228 C212 1.215 . S
O229 Ho201 2.524 . S
O229 C212 1.289 . S
O230 Ho201 2.381 . S
O230 C219 1.275 . S
O231 Ho200 2.305 . S
O231 Ho201 2.669 . S
O231 C219 1.256 . S
H232 C205 0.930 . S
H233 C206 0.931 . S
H234 C208 0.934 . S
H235 C209 0.930 . S
H236 C214 0.930 1_545 S
H237 C215 0.931 1_545 S
H238 C217 0.934 . S
H239 C218 0.930 . S
Ho240 C243 2.811 . S
Ho240 O260 2.322 . S
Ho240 O262 2.378 . S
Ho240 O263 2.524 . S
Ho240 O264 2.381 . S
Ho240 O265 2.669 . S
Ho240 O267 2.346 . S
Ho240 O271 2.305 . S
Ho241 C252 2.811 . S
Ho241 O261 2.346 . S
Ho241 O265 2.305 . S
Ho241 O266 2.322 . S
Ho241 O268 2.378 . S
Ho241 O269 2.524 . S
Ho241 O270 2.381 . S
Ho241 O271 2.669 . S
C242 O260 1.259 . S
C242 O261 1.268 . S
C243 Ho240 2.811 . S
C243 C244 1.488 . S
C243 O262 1.215 . S
C243 O263 1.289 . S
C244 C243 1.488 . S
C244 C245 1.348 . S
C244 C249 1.413 . S
C245 C244 1.348 . S
C245 C246 1.442 . S
C245 H272 0.930 . S
C246 C245 1.442 . S
C246 C247 1.381 . S
C246 H273 0.931 . S
C247 C246 1.381 . S
C247 C248 1.321 . S
C248 C247 1.321 . S
C248 C249 1.403 . S
C248 H274 0.934 . S
C249 C244 1.413 . S
C249 C248 1.403 . S
C249 H275 0.930 . S
C250 O264 1.275 . S
C250 O265 1.256 . S
C251 O266 1.259 . S
C251 O267 1.268 . S
C252 Ho241 2.811 . S
C252 C253 1.488 . S
C252 O268 1.215 . S
C252 O269 1.289 . S
C253 C252 1.488 . S
C253 C254 1.348 . S
C253 C258 1.413 . S
C254 C253 1.348 . S
C254 C255 1.442 . S
C254 H276 0.930 . S
C255 C254 1.442 . S
C255 C256 1.381 . S
C255 H277 0.931 . S
C256 C255 1.381 . S
C256 C257 1.321 . S
C257 C256 1.321 . S
C257 C258 1.403 . S
C257 H278 0.934 . S
C258 C253 1.413 . S
C258 C257 1.403 . S
C258 H279 0.930 . S
C259 O270 1.275 . S
C259 O271 1.256 . S
O260 Ho240 2.322 . S
O260 C242 1.259 . S
O261 Ho241 2.346 . S
O261 C242 1.268 . S
O262 Ho240 2.378 . S
O262 C243 1.215 . S
O263 Ho240 2.524 . S
O263 C243 1.289 . S
O264 Ho240 2.381 . S
O264 C250 1.275 . S
O265 Ho240 2.669 . S
O265 Ho241 2.305 . S
O265 C250 1.256 . S
O266 Ho241 2.322 . S
O266 C251 1.259 . S
O267 Ho240 2.346 . S
O267 C251 1.268 . S
O268 Ho241 2.378 . S
O268 C252 1.215 . S
O269 Ho241 2.524 . S
O269 C252 1.289 . S
O270 Ho241 2.381 . S
O270 C259 1.275 . S
O271 Ho240 2.305 . S
O271 Ho241 2.669 . S
O271 C259 1.256 . S
H272 C245 0.930 . S
H273 C246 0.931 . S
H274 C248 0.934 . S
H275 C249 0.930 . S
H276 C254 0.930 . S
H277 C255 0.931 . S
H278 C257 0.934 . S
H279 C258 0.930 . S
Ho280 C283 2.811 1_455 S
Ho280 O300 2.322 . S
Ho280 O302 2.378 1_455 S
Ho280 O303 2.524 1_455 S
Ho280 O304 2.381 1_545 S
Ho280 O305 2.669 . S
Ho280 O307 2.346 . S
Ho280 O311 2.305 . S
Ho281 C292 2.811 . S
Ho281 O301 2.346 . S
Ho281 O305 2.305 . S
Ho281 O306 2.322 . S
Ho281 O308 2.378 . S
Ho281 O309 2.524 . S
Ho281 O310 2.381 . S
Ho281 O311 2.669 . S
C282 O300 1.259 . S
C282 O301 1.268 . S
C283 Ho280 2.811 1_655 S
C283 C284 1.488 . S
C283 O302 1.215 . S
C283 O303 1.289 . S
C284 C283 1.488 . S
C284 C285 1.348 . S
C284 C289 1.413 . S
C285 C284 1.348 . S
C285 C286 1.442 . S
C285 H312 0.930 . S
C286 C285 1.442 . S
C286 C287 1.381 . S
C286 H313 0.931 . S
C287 C286 1.381 . S
C287 C288 1.321 . S
C288 C287 1.321 . S
C288 C289 1.403 . S
C288 H314 0.934 . S
C289 C284 1.413 . S
C289 C288 1.403 . S
C289 H315 0.930 . S
C290 O304 1.275 . S
C290 O305 1.256 1_565 S
C291 O306 1.259 . S
C291 O307 1.268 . S
C292 Ho281 2.811 . S
C292 C293 1.488 . S
C292 O308 1.215 . S
C292 O309 1.289 . S
C293 C292 1.488 . S
C293 C294 1.348 . S
C293 C298 1.413 . S
C294 C293 1.348 . S
C294 C295 1.442 . S
C294 H316 0.930 1_545 S
C295 C294 1.442 . S
C295 C296 1.381 . S
C295 H317 0.931 1_545 S
C296 C295 1.381 . S
C296 C297 1.321 . S
C297 C296 1.321 . S
C297 C298 1.403 . S
C297 H318 0.934 . S
C298 C293 1.413 . S
C298 C297 1.403 . S
C298 H319 0.930 . S
C299 O310 1.275 . S
C299 O311 1.256 . S
O300 Ho280 2.322 . S
O300 C282 1.259 . S
O301 Ho281 2.346 . S
O301 C282 1.268 . S
O302 Ho280 2.378 1_655 S
O302 C283 1.215 . S
O303 Ho280 2.524 1_655 S
O303 C283 1.289 . S
O304 Ho280 2.381 1_565 S
O304 C290 1.275 . S
O305 Ho280 2.669 . S
O305 Ho281 2.305 . S
O305 C290 1.256 1_545 S
O306 Ho281 2.322 . S
O306 C291 1.259 . S
O307 Ho280 2.346 . S
O307 C291 1.268 . S
O308 Ho281 2.378 . S
O308 C292 1.215 . S
O309 Ho281 2.524 . S
O309 C292 1.289 . S
O310 Ho281 2.381 . S
O310 C299 1.275 . S
O311 Ho280 2.305 . S
O311 Ho281 2.669 . S
O311 C299 1.256 . S
H312 C285 0.930 . S
H313 C286 0.931 . S
H314 C288 0.934 . S
H315 C289 0.930 . S
H316 C294 0.930 1_565 S
H317 C295 0.931 1_565 S
H318 C297 0.934 . S
H319 C298 0.930 . S
Ho320 C323 2.811 . S
Ho320 O340 2.322 . S
Ho320 O342 2.378 . S
Ho320 O343 2.524 . S
Ho320 O344 2.381 . S
Ho320 O345 2.669 . S
Ho320 O347 2.346 . S
Ho320 O351 2.305 . S
Ho321 C332 2.811 . S
Ho321 O341 2.346 . S
Ho321 O345 2.305 . S
Ho321 O346 2.322 . S
Ho321 O348 2.378 . S
Ho321 O349 2.524 . S
Ho321 O350 2.381 . S
Ho321 O351 2.669 . S
C322 O340 1.259 . S
C322 O341 1.268 . S
C323 Ho320 2.811 . S
C323 C324 1.488 . S
C323 O342 1.215 . S
C323 O343 1.289 . S
C324 C323 1.488 . S
C324 C325 1.348 . S
C324 C329 1.413 . S
C325 C324 1.348 . S
C325 C326 1.442 . S
C325 H352 0.930 . S
C326 C325 1.442 . S
C326 C327 1.381 . S
C326 H353 0.931 . S
C327 C326 1.381 . S
C327 C328 1.321 . S
C328 C327 1.321 . S
C328 C329 1.403 . S
C328 H354 0.934 . S
C329 C324 1.413 . S
C329 C328 1.403 . S
C329 H355 0.930 . S
C330 O344 1.275 . S
C330 O345 1.256 . S
C331 O346 1.259 . S
C331 O347 1.268 . S
C332 Ho321 2.811 . S
C332 C333 1.488 . S
C332 O348 1.215 . S
C332 O349 1.289 . S
C333 C332 1.488 . S
C333 C334 1.348 . S
C333 C338 1.413 . S
C334 C333 1.348 . S
C334 C335 1.442 . S
C334 H356 0.930 . S
C335 C334 1.442 . S
C335 C336 1.381 . S
C335 H357 0.931 . S
C336 C335 1.381 . S
C336 C337 1.321 . S
C337 C336 1.321 . S
C337 C338 1.403 . S
C337 H358 0.934 . S
C338 C333 1.413 . S
C338 C337 1.403 . S
C338 H359 0.930 . S
C339 O350 1.275 . S
C339 O351 1.256 . S
O340 Ho320 2.322 . S
O340 C322 1.259 . S
O341 Ho321 2.346 . S
O341 C322 1.268 . S
O342 Ho320 2.378 . S
O342 C323 1.215 . S
O343 Ho320 2.524 . S
O343 C323 1.289 . S
O344 Ho320 2.381 . S
O344 C330 1.275 . S
O345 Ho320 2.669 . S
O345 Ho321 2.305 . S
O345 C330 1.256 . S
O346 Ho321 2.322 . S
O346 C331 1.259 . S
O347 Ho320 2.346 . S
O347 C331 1.268 . S
O348 Ho321 2.378 . S
O348 C332 1.215 . S
O349 Ho321 2.524 . S
O349 C332 1.289 . S
O350 Ho321 2.381 . S
O350 C339 1.275 . S
O351 Ho320 2.305 . S
O351 Ho321 2.669 . S
O351 C339 1.256 . S
H352 C325 0.930 . S
H353 C326 0.931 . S
H354 C328 0.934 . S
H355 C329 0.930 . S
H356 C334 0.930 . S
H357 C335 0.931 . S
H358 C337 0.934 . S
H359 C338 0.930 . S
Ho360 C363 2.811 . S
Ho360 O380 2.322 . S
Ho360 O382 2.378 . S
Ho360 O383 2.524 . S
Ho360 O384 2.381 . S
Ho360 O385 2.669 . S
Ho360 O387 2.346 . S
Ho360 O391 2.305 . S
Ho361 C372 2.811 1_655 S
Ho361 O381 2.346 . S
Ho361 O385 2.305 . S
Ho361 O386 2.322 . S
Ho361 O388 2.378 1_655 S
Ho361 O389 2.524 1_655 S
Ho361 O390 2.381 1_545 S
Ho361 O391 2.669 . S
C362 O380 1.259 . S
C362 O381 1.268 . S
C363 Ho360 2.811 . S
C363 C364 1.488 . S
C363 O382 1.215 . S
C363 O383 1.289 . S
C364 C363 1.488 . S
C364 C365 1.348 . S
C364 C369 1.413 . S
C365 C364 1.348 . S
C365 C366 1.442 . S
C365 H392 0.930 1_545 S
C366 C365 1.442 . S
C366 C367 1.381 . S
C366 H393 0.931 1_545 S
C367 C366 1.381 . S
C367 C368 1.321 . S
C368 C367 1.321 . S
C368 C369 1.403 . S
C368 H394 0.934 . S
C369 C364 1.413 . S
C369 C368 1.403 . S
C369 H395 0.930 . S
C370 O384 1.275 . S
C370 O385 1.256 . S
C371 O386 1.259 . S
C371 O387 1.268 . S
C372 Ho361 2.811 1_455 S
C372 C373 1.488 . S
C372 O388 1.215 . S
C372 O389 1.289 . S
C373 C372 1.488 . S
C373 C374 1.348 . S
C373 C378 1.413 . S
C374 C373 1.348 . S
C374 C375 1.442 . S
C374 H396 0.930 . S
C375 C374 1.442 . S
C375 C376 1.381 . S
C375 H397 0.931 . S
C376 C375 1.381 . S
C376 C377 1.321 . S
C377 C376 1.321 . S
C377 C378 1.403 . S
C377 H398 0.934 . S
C378 C373 1.413 . S
C378 C377 1.403 . S
C378 H399 0.930 . S
C379 O390 1.275 . S
C379 O391 1.256 1_565 S
O380 Ho360 2.322 . S
O380 C362 1.259 . S
O381 Ho361 2.346 . S
O381 C362 1.268 . S
O382 Ho360 2.378 . S
O382 C363 1.215 . S
O383 Ho360 2.524 . S
O383 C363 1.289 . S
O384 Ho360 2.381 . S
O384 C370 1.275 . S
O385 Ho360 2.669 . S
O385 Ho361 2.305 . S
O385 C370 1.256 . S
O386 Ho361 2.322 . S
O386 C371 1.259 . S
O387 Ho360 2.346 . S
O387 C371 1.268 . S
O388 Ho361 2.378 1_455 S
O388 C372 1.215 . S
O389 Ho361 2.524 1_455 S
O389 C372 1.289 . S
O390 Ho361 2.381 1_565 S
O390 C379 1.275 . S
O391 Ho360 2.305 . S
O391 Ho361 2.669 . S
O391 C379 1.256 1_545 S
H392 C365 0.930 1_565 S
H393 C366 0.931 1_565 S
H394 C368 0.934 . S
H395 C369 0.930 . S
H396 C374 0.930 . S
H397 C375 0.931 . S
H398 C377 0.934 . S
H399 C378 0.930 . S
Ho400 C403 2.811 . S
Ho400 O420 2.322 . S
Ho400 O422 2.378 . S
Ho400 O423 2.524 . S
Ho400 O424 2.381 . S
Ho400 O425 2.669 . S
Ho400 O427 2.346 . S
Ho400 O431 2.305 . S
Ho401 C412 2.811 . S
Ho401 O421 2.346 . S
Ho401 O425 2.305 . S
Ho401 O426 2.322 . S
Ho401 O428 2.378 . S
Ho401 O429 2.524 . S
Ho401 O430 2.381 . S
Ho401 O431 2.669 . S
C402 O420 1.259 . S
C402 O421 1.268 . S
C403 Ho400 2.811 . S
C403 C404 1.488 . S
C403 O422 1.215 . S
C403 O423 1.289 . S
C404 C403 1.488 . S
C404 C405 1.348 . S
C404 C409 1.413 . S
C405 C404 1.348 . S
C405 C406 1.442 . S
C405 H432 0.930 . S
C406 C405 1.442 . S
C406 C407 1.381 . S
C406 H433 0.931 . S
C407 C406 1.381 . S
C407 C408 1.321 . S
C408 C407 1.321 . S
C408 C409 1.403 . S
C408 H434 0.934 . S
C409 C404 1.413 . S
C409 C408 1.403 . S
C409 H435 0.930 . S
C410 O424 1.275 . S
C410 O425 1.256 . S
C411 O426 1.259 . S
C411 O427 1.268 . S
C412 Ho401 2.811 . S
C412 C413 1.488 . S
C412 O428 1.215 . S
C412 O429 1.289 . S
C413 C412 1.488 . S
C413 C414 1.348 . S
C413 C418 1.413 . S
C414 C413 1.348 . S
C414 C415 1.442 . S
C414 H436 0.930 . S
C415 C414 1.442 . S
C415 C416 1.381 . S
C415 H437 0.931 . S
C416 C415 1.381 . S
C416 C417 1.321 . S
C417 C416 1.321 . S
C417 C418 1.403 . S
C417 H438 0.934 . S
C418 C413 1.413 . S
C418 C417 1.403 . S
C418 H439 0.930 . S
C419 O430 1.275 . S
C419 O431 1.256 . S
O420 Ho400 2.322 . S
O420 C402 1.259 . S
O421 Ho401 2.346 . S
O421 C402 1.268 . S
O422 Ho400 2.378 . S
O422 C403 1.215 . S
O423 Ho400 2.524 . S
O423 C403 1.289 . S
O424 Ho400 2.381 . S
O424 C410 1.275 . S
O425 Ho400 2.669 . S
O425 Ho401 2.305 . S
O425 C410 1.256 . S
O426 Ho401 2.322 . S
O426 C411 1.259 . S
O427 Ho400 2.346 . S
O427 C411 1.268 . S
O428 Ho401 2.378 . S
O428 C412 1.215 . S
O429 Ho401 2.524 . S
O429 C412 1.289 . S
O430 Ho401 2.381 . S
O430 C419 1.275 . S
O431 Ho400 2.305 . S
O431 Ho401 2.669 . S
O431 C419 1.256 . S
H432 C405 0.930 . S
H433 C406 0.931 . S
H434 C408 0.934 . S
H435 C409 0.930 . S
H436 C414 0.930 . S
H437 C415 0.931 . S
H438 C417 0.934 . S
H439 C418 0.930 . S
Ho440 C443 2.811 . S
Ho440 O460 2.322 . S
Ho440 O462 2.378 . S
Ho440 O463 2.524 . S
Ho440 O464 2.381 . S
Ho440 O465 2.669 . S
Ho440 O467 2.346 . S
Ho440 O471 2.305 . S
Ho441 C452 2.811 . S
Ho441 O461 2.346 . S
Ho441 O465 2.305 . S
Ho441 O466 2.322 . S
Ho441 O468 2.378 . S
Ho441 O469 2.524 . S
Ho441 O470 2.381 1_565 S
Ho441 O471 2.669 . S
C442 O460 1.259 . S
C442 O461 1.268 . S
C443 Ho440 2.811 . S
C443 C444 1.488 . S
C443 O462 1.215 . S
C443 O463 1.289 . S
C444 C443 1.488 . S
C444 C445 1.348 . S
C444 C449 1.413 . S
C445 C444 1.348 . S
C445 C446 1.442 . S
C445 H472 0.930 1_565 S
C446 C445 1.442 . S
C446 C447 1.381 . S
C446 H473 0.931 1_565 S
C447 C446 1.381 . S
C447 C448 1.321 . S
C448 C447 1.321 . S
C448 C449 1.403 . S
C448 H474 0.934 . S
C449 C444 1.413 . S
C449 C448 1.403 . S
C449 H475 0.930 . S
C450 O464 1.275 . S
C450 O465 1.256 . S
C451 O466 1.259 . S
C451 O467 1.268 . S
C452 Ho441 2.811 . S
C452 C453 1.488 . S
C452 O468 1.215 . S
C452 O469 1.289 . S
C453 C452 1.488 . S
C453 C454 1.348 . S
C453 C458 1.413 . S
C454 C453 1.348 . S
C454 C455 1.442 . S
C454 H476 0.930 . S
C455 C454 1.442 . S
C455 C456 1.381 . S
C455 H477 0.931 . S
C456 C455 1.381 . S
C456 C457 1.321 . S
C457 C456 1.321 . S
C457 C458 1.403 . S
C457 H478 0.934 . S
C458 C453 1.413 . S
C458 C457 1.403 . S
C458 H479 0.930 . S
C459 O470 1.275 . S
C459 O471 1.256 1_545 S
O460 Ho440 2.322 . S
O460 C442 1.259 . S
O461 Ho441 2.346 . S
O461 C442 1.268 . S
O462 Ho440 2.378 . S
O462 C443 1.215 . S
O463 Ho440 2.524 . S
O463 C443 1.289 . S
O464 Ho440 2.381 . S
O464 C450 1.275 . S
O465 Ho440 2.669 . S
O465 Ho441 2.305 . S
O465 C450 1.256 . S
O466 Ho441 2.322 . S
O466 C451 1.259 . S
O467 Ho440 2.346 . S
O467 C451 1.268 . S
O468 Ho441 2.378 . S
O468 C452 1.215 . S
O469 Ho441 2.524 . S
O469 C452 1.289 . S
O470 Ho441 2.381 1_545 S
O470 C459 1.275 . S
O471 Ho440 2.305 . S
O471 Ho441 2.669 . S
O471 C459 1.256 1_565 S
H472 C445 0.930 1_545 S
H473 C446 0.931 1_545 S
H474 C448 0.934 . S
H475 C449 0.930 . S
H476 C454 0.930 . S
H477 C455 0.931 . S
H478 C457 0.934 . S
H479 C458 0.930 . S
Ho480 C483 2.811 . S
Ho480 O500 2.322 . S
Ho480 O502 2.378 . S
Ho480 O503 2.524 . S
Ho480 O504 2.381 . S
Ho480 O505 2.669 . S
Ho480 O507 2.346 . S
Ho480 O511 2.305 . S
Ho481 C492 2.811 . S
Ho481 O501 2.346 . S
Ho481 O505 2.305 . S
Ho481 O506 2.322 . S
Ho481 O508 2.378 . S
Ho481 O509 2.524 . S
Ho481 O510 2.381 . S
Ho481 O511 2.669 . S
C482 O500 1.259 . S
C482 O501 1.268 . S
C483 Ho480 2.811 . S
C483 C484 1.488 . S
C483 O502 1.215 . S
C483 O503 1.289 . S
C484 C483 1.488 . S
C484 C485 1.348 . S
C484 C489 1.413 . S
C485 C484 1.348 . S
C485 C486 1.442 . S
C485 H512 0.930 . S
C486 C485 1.442 . S
C486 C487 1.381 . S
C486 H513 0.931 . S
C487 C486 1.381 . S
C487 C488 1.321 . S
C488 C487 1.321 . S
C488 C489 1.403 . S
C488 H514 0.934 . S
C489 C484 1.413 . S
C489 C488 1.403 . S
C489 H515 0.930 . S
C490 O504 1.275 . S
C490 O505 1.256 . S
C491 O506 1.259 . S
C491 O507 1.268 . S
C492 Ho481 2.811 . S
C492 C493 1.488 . S
C492 O508 1.215 . S
C492 O509 1.289 . S
C493 C492 1.488 . S
C493 C494 1.348 . S
C493 C498 1.413 . S
C494 C493 1.348 . S
C494 C495 1.442 . S
C494 H516 0.930 . S
C495 C494 1.442 . S
C495 C496 1.381 . S
C495 H517 0.931 . S
C496 C495 1.381 . S
C496 C497 1.321 . S
C497 C496 1.321 . S
C497 C498 1.403 . S
C497 H518 0.934 . S
C498 C493 1.413 . S
C498 C497 1.403 . S
C498 H519 0.930 . S
C499 O510 1.275 . S
C499 O511 1.256 . S
O500 Ho480 2.322 . S
O500 C482 1.259 . S
O501 Ho481 2.346 . S
O501 C482 1.268 . S
O502 Ho480 2.378 . S
O502 C483 1.215 . S
O503 Ho480 2.524 . S
O503 C483 1.289 . S
O504 Ho480 2.381 . S
O504 C490 1.275 . S
O505 Ho480 2.669 . S
O505 Ho481 2.305 . S
O505 C490 1.256 . S
O506 Ho481 2.322 . S
O506 C491 1.259 . S
O507 Ho480 2.346 . S
O507 C491 1.268 . S
O508 Ho481 2.378 . S
O508 C492 1.215 . S
O509 Ho481 2.524 . S
O509 C492 1.289 . S
O510 Ho481 2.381 . S
O510 C499 1.275 . S
O511 Ho480 2.305 . S
O511 Ho481 2.669 . S
O511 C499 1.256 . S
H512 C485 0.930 . S
H513 C486 0.931 . S
H514 C488 0.934 . S
H515 C489 0.930 . S
H516 C494 0.930 . S
H517 C495 0.931 . S
H518 C497 0.934 . S
H519 C498 0.930 . S
Ho520 C523 2.811 . S
Ho520 O540 2.322 . S
Ho520 O542 2.378 . S
Ho520 O543 2.524 . S
Ho520 O544 2.381 . S
Ho520 O545 2.669 . S
Ho520 O547 2.346 . S
Ho520 O551 2.305 . S
Ho521 C532 2.811 . S
Ho521 O541 2.346 . S
Ho521 O545 2.305 . S
Ho521 O546 2.322 . S
Ho521 O548 2.378 . S
Ho521 O549 2.524 . S
Ho521 O550 2.381 1_545 S
Ho521 O551 2.669 . S
C522 O540 1.259 . S
C522 O541 1.268 . S
C523 Ho520 2.811 . S
C523 C524 1.488 . S
C523 O542 1.215 . S
C523 O543 1.289 . S
C524 C523 1.488 . S
C524 C525 1.348 . S
C524 C529 1.413 . S
C525 C524 1.348 . S
C525 C526 1.442 . S
C525 H552 0.930 1_545 S
C526 C525 1.442 . S
C526 C527 1.381 . S
C526 H553 0.931 1_545 S
C527 C526 1.381 . S
C527 C528 1.321 . S
C528 C527 1.321 . S
C528 C529 1.403 . S
C528 H554 0.934 . S
C529 C524 1.413 . S
C529 C528 1.403 . S
C529 H555 0.930 . S
C530 O544 1.275 . S
C530 O545 1.256 . S
C531 O546 1.259 . S
C531 O547 1.268 . S
C532 Ho521 2.811 . S
C532 C533 1.488 . S
C532 O548 1.215 . S
C532 O549 1.289 . S
C533 C532 1.488 . S
C533 C534 1.348 . S
C533 C538 1.413 . S
C534 C533 1.348 . S
C534 C535 1.442 . S
C534 H556 0.930 . S
C535 C534 1.442 . S
C535 C536 1.381 . S
C535 H557 0.931 . S
C536 C535 1.381 . S
C536 C537 1.321 . S
C537 C536 1.321 . S
C537 C538 1.403 . S
C537 H558 0.934 . S
C538 C533 1.413 . S
C538 C537 1.403 . S
C538 H559 0.930 . S
C539 O550 1.275 . S
C539 O551 1.256 1_565 S
O540 Ho520 2.322 . S
O540 C522 1.259 . S
O541 Ho521 2.346 . S
O541 C522 1.268 . S
O542 Ho520 2.378 . S
O542 C523 1.215 . S
O543 Ho520 2.524 . S
O543 C523 1.289 . S
O544 Ho520 2.381 . S
O544 C530 1.275 . S
O545 Ho520 2.669 . S
O545 Ho521 2.305 . S
O545 C530 1.256 . S
O546 Ho521 2.322 . S
O546 C531 1.259 . S
O547 Ho520 2.346 . S
O547 C531 1.268 . S
O548 Ho521 2.378 . S
O548 C532 1.215 . S
O549 Ho521 2.524 . S
O549 C532 1.289 . S
O550 Ho521 2.381 1_565 S
O550 C539 1.275 . S
O551 Ho520 2.305 . S
O551 Ho521 2.669 . S
O551 C539 1.256 1_545 S
H552 C525 0.930 1_565 S
H553 C526 0.931 1_565 S
H554 C528 0.934 . S
H555 C529 0.930 . S
H556 C534 0.930 . S
H557 C535 0.931 . S
H558 C537 0.934 . S
H559 C538 0.930 . S
Ho560 C563 2.811 . S
Ho560 O580 2.322 . S
Ho560 O582 2.378 . S
Ho560 O583 2.524 . S
Ho560 O584 2.381 . S
Ho560 O585 2.669 . S
Ho560 O587 2.346 . S
Ho560 O591 2.305 . S
Ho561 C572 2.811 . S
Ho561 O581 2.346 . S
Ho561 O585 2.305 . S
Ho561 O586 2.322 . S
Ho561 O588 2.378 . S
Ho561 O589 2.524 . S
Ho561 O590 2.381 . S
Ho561 O591 2.669 . S
C562 O580 1.259 . S
C562 O581 1.268 . S
C563 Ho560 2.811 . S
C563 C564 1.488 . S
C563 O582 1.215 . S
C563 O583 1.289 . S
C564 C563 1.488 . S
C564 C565 1.348 . S
C564 C569 1.413 . S
C565 C564 1.348 . S
C565 C566 1.442 . S
C565 H592 0.930 . S
C566 C565 1.442 . S
C566 C567 1.381 . S
C566 H593 0.931 . S
C567 C566 1.381 . S
C567 C568 1.321 . S
C568 C567 1.321 . S
C568 C569 1.403 . S
C568 H594 0.934 . S
C569 C564 1.413 . S
C569 C568 1.403 . S
C569 H595 0.930 . S
C570 O584 1.275 . S
C570 O585 1.256 . S
C571 O586 1.259 . S
C571 O587 1.268 . S
C572 Ho561 2.811 . S
C572 C573 1.488 . S
C572 O588 1.215 . S
C572 O589 1.289 . S
C573 C572 1.488 . S
C573 C574 1.348 . S
C573 C578 1.413 . S
C574 C573 1.348 . S
C574 C575 1.442 . S
C574 H596 0.930 . S
C575 C574 1.442 . S
C575 C576 1.381 . S
C575 H597 0.931 . S
C576 C575 1.381 . S
C576 C577 1.321 . S
C577 C576 1.321 . S
C577 C578 1.403 . S
C577 H598 0.934 . S
C578 C573 1.413 . S
C578 C577 1.403 . S
C578 H599 0.930 . S
C579 O590 1.275 . S
C579 O591 1.256 . S
O580 Ho560 2.322 . S
O580 C562 1.259 . S
O581 Ho561 2.346 . S
O581 C562 1.268 . S
O582 Ho560 2.378 . S
O582 C563 1.215 . S
O583 Ho560 2.524 . S
O583 C563 1.289 . S
O584 Ho560 2.381 . S
O584 C570 1.275 . S
O585 Ho560 2.669 . S
O585 Ho561 2.305 . S
O585 C570 1.256 . S
O586 Ho561 2.322 . S
O586 C571 1.259 . S
O587 Ho560 2.346 . S
O587 C571 1.268 . S
O588 Ho561 2.378 . S
O588 C572 1.215 . S
O589 Ho561 2.524 . S
O589 C572 1.289 . S
O590 Ho561 2.381 . S
O590 C579 1.275 . S
O591 Ho560 2.305 . S
O591 Ho561 2.669 . S
O591 C579 1.256 . S
H592 C565 0.930 . S
H593 C566 0.931 . S
H594 C568 0.934 . S
H595 C569 0.930 . S
H596 C574 0.930 . S
H597 C575 0.931 . S
H598 C577 0.934 . S
H599 C578 0.930 . S
Ho600 C603 2.811 . S
Ho600 O620 2.322 . S
Ho600 O622 2.378 . S
Ho600 O623 2.524 . S
Ho600 O624 2.381 . S
Ho600 O625 2.669 . S
Ho600 O627 2.346 . S
Ho600 O631 2.305 . S
Ho601 C612 2.811 1_655 S
Ho601 O621 2.346 . S
Ho601 O625 2.305 . S
Ho601 O626 2.322 . S
Ho601 O628 2.378 1_655 S
Ho601 O629 2.524 1_655 S
Ho601 O630 2.381 1_565 S
Ho601 O631 2.669 . S
C602 O620 1.259 . S
C602 O621 1.268 . S
C603 Ho600 2.811 . S
C603 C604 1.488 . S
C603 O622 1.215 . S
C603 O623 1.289 . S
C604 C603 1.488 . S
C604 C605 1.348 . S
C604 C609 1.413 . S
C605 C604 1.348 . S
C605 C606 1.442 . S
C605 H632 0.930 1_565 S
C606 C605 1.442 . S
C606 C607 1.381 . S
C606 H633 0.931 1_565 S
C607 C606 1.381 . S
C607 C608 1.321 . S
C608 C607 1.321 . S
C608 C609 1.403 . S
C608 H634 0.934 . S
C609 C604 1.413 . S
C609 C608 1.403 . S
C609 H635 0.930 . S
C610 O624 1.275 . S
C610 O625 1.256 . S
C611 O626 1.259 . S
C611 O627 1.268 . S
C612 Ho601 2.811 1_455 S
C612 C613 1.488 . S
C612 O628 1.215 . S
C612 O629 1.289 . S
C613 C612 1.488 . S
C613 C614 1.348 . S
C613 C618 1.413 . S
C614 C613 1.348 . S
C614 C615 1.442 . S
C614 H636 0.930 . S
C615 C614 1.442 . S
C615 C616 1.381 . S
C615 H637 0.931 . S
C616 C615 1.381 . S
C616 C617 1.321 . S
C617 C616 1.321 . S
C617 C618 1.403 . S
C617 H638 0.934 . S
C618 C613 1.413 . S
C618 C617 1.403 . S
C618 H639 0.930 . S
C619 O630 1.275 . S
C619 O631 1.256 1_545 S
O620 Ho600 2.322 . S
O620 C602 1.259 . S
O621 Ho601 2.346 . S
O621 C602 1.268 . S
O622 Ho600 2.378 . S
O622 C603 1.215 . S
O623 Ho600 2.524 . S
O623 C603 1.289 . S
O624 Ho600 2.381 . S
O624 C610 1.275 . S
O625 Ho600 2.669 . S
O625 Ho601 2.305 . S
O625 C610 1.256 . S
O626 Ho601 2.322 . S
O626 C611 1.259 . S
O627 Ho600 2.346 . S
O627 C611 1.268 . S
O628 Ho601 2.378 1_455 S
O628 C612 1.215 . S
O629 Ho601 2.524 1_455 S
O629 C612 1.289 . S
O630 Ho601 2.381 1_545 S
O630 C619 1.275 . S
O631 Ho600 2.305 . S
O631 Ho601 2.669 . S
O631 C619 1.256 1_565 S
H632 C605 0.930 1_545 S
H633 C606 0.931 1_545 S
H634 C608 0.934 . S
H635 C609 0.930 . S
H636 C614 0.930 . S
H637 C615 0.931 . S
H638 C617 0.934 . S
H639 C618 0.930 . S
Ho640 C643 2.811 . S
Ho640 O660 2.322 . S
Ho640 O662 2.378 . S
Ho640 O663 2.524 . S
Ho640 O664 2.381 . S
Ho640 O665 2.669 . S
Ho640 O667 2.346 . S
Ho640 O671 2.305 . S
Ho641 C652 2.811 . S
Ho641 O661 2.346 . S
Ho641 O665 2.305 . S
Ho641 O666 2.322 . S
Ho641 O668 2.378 . S
Ho641 O669 2.524 . S
Ho641 O670 2.381 . S
Ho641 O671 2.669 . S
C642 O660 1.259 . S
C642 O661 1.268 . S
C643 Ho640 2.811 . S
C643 C644 1.488 . S
C643 O662 1.215 . S
C643 O663 1.289 . S
C644 C643 1.488 . S
C644 C645 1.348 . S
C644 C649 1.413 . S
C645 C644 1.348 . S
C645 C646 1.442 . S
C645 H672 0.930 . S
C646 C645 1.442 . S
C646 C647 1.381 . S
C646 H673 0.931 . S
C647 C646 1.381 . S
C647 C648 1.321 . S
C648 C647 1.321 . S
C648 C649 1.403 . S
C648 H674 0.934 . S
C649 C644 1.413 . S
C649 C648 1.403 . S
C649 H675 0.930 . S
C650 O664 1.275 . S
C650 O665 1.256 . S
C651 O666 1.259 . S
C651 O667 1.268 . S
C652 Ho641 2.811 . S
C652 C653 1.488 . S
C652 O668 1.215 . S
C652 O669 1.289 . S
C653 C652 1.488 . S
C653 C654 1.348 . S
C653 C658 1.413 . S
C654 C653 1.348 . S
C654 C655 1.442 . S
C654 H676 0.930 . S
C655 C654 1.442 . S
C655 C656 1.381 . S
C655 H677 0.931 . S
C656 C655 1.381 . S
C656 C657 1.321 . S
C657 C656 1.321 . S
C657 C658 1.403 . S
C657 H678 0.934 . S
C658 C653 1.413 . S
C658 C657 1.403 . S
C658 H679 0.930 . S
C659 O670 1.275 . S
C659 O671 1.256 . S
O660 Ho640 2.322 . S
O660 C642 1.259 . S
O661 Ho641 2.346 . S
O661 C642 1.268 . S
O662 Ho640 2.378 . S
O662 C643 1.215 . S
O663 Ho640 2.524 . S
O663 C643 1.289 . S
O664 Ho640 2.381 . S
O664 C650 1.275 . S
O665 Ho640 2.669 . S
O665 Ho641 2.305 . S
O665 C650 1.256 . S
O666 Ho641 2.322 . S
O666 C651 1.259 . S
O667 Ho640 2.346 . S
O667 C651 1.268 . S
O668 Ho641 2.378 . S
O668 C652 1.215 . S
O669 Ho641 2.524 . S
O669 C652 1.289 . S
O670 Ho641 2.381 . S
O670 C659 1.275 . S
O671 Ho640 2.305 . S
O671 Ho641 2.669 . S
O671 C659 1.256 . S
H672 C645 0.930 . S
H673 C646 0.931 . S
H674 C648 0.934 . S
H675 C649 0.930 . S
H676 C654 0.930 . S
H677 C655 0.931 . S
H678 C657 0.934 . S
H679 C658 0.930 . S
Ho680 C683 2.811 . S
Ho680 O700 2.322 . S
Ho680 O702 2.378 . S
Ho680 O703 2.524 . S
Ho680 O704 2.381 . S
Ho680 O705 2.669 . S
Ho680 O707 2.346 . S
Ho680 O711 2.305 . S
Ho681 C692 2.811 . S
Ho681 O701 2.346 . S
Ho681 O705 2.305 . S
Ho681 O706 2.322 . S
Ho681 O708 2.378 . S
Ho681 O709 2.524 . S
Ho681 O710 2.381 . S
Ho681 O711 2.669 . S
C682 O700 1.259 . S
C682 O701 1.268 . S
C683 Ho680 2.811 . S
C683 C684 1.488 . S
C683 O702 1.215 . S
C683 O703 1.289 . S
C684 C683 1.488 . S
C684 C685 1.348 . S
C684 C689 1.413 . S
C685 C684 1.348 . S
C685 C686 1.442 . S
C685 H712 0.930 . S
C686 C685 1.442 . S
C686 C687 1.381 . S
C686 H713 0.931 . S
C687 C686 1.381 . S
C687 C688 1.321 . S
C688 C687 1.321 . S
C688 C689 1.403 . S
C688 H714 0.934 . S
C689 C684 1.413 . S
C689 C688 1.403 . S
C689 H715 0.930 . S
C690 O704 1.275 . S
C690 O705 1.256 . S
C691 O706 1.259 . S
C691 O707 1.268 . S
C692 Ho681 2.811 . S
C692 C693 1.488 . S
C692 O708 1.215 . S
C692 O709 1.289 . S
C693 C692 1.488 . S
C693 C694 1.348 . S
C693 C698 1.413 . S
C694 C693 1.348 . S
C694 C695 1.442 . S
C694 H716 0.930 . S
C695 C694 1.442 . S
C695 C696 1.381 . S
C695 H717 0.931 . S
C696 C695 1.381 . S
C696 C697 1.321 . S
C697 C696 1.321 . S
C697 C698 1.403 . S
C697 H718 0.934 . S
C698 C693 1.413 . S
C698 C697 1.403 . S
C698 H719 0.930 . S
C699 O710 1.275 . S
C699 O711 1.256 . S
O700 Ho680 2.322 . S
O700 C682 1.259 . S
O701 Ho681 2.346 . S
O701 C682 1.268 . S
O702 Ho680 2.378 . S
O702 C683 1.215 . S
O703 Ho680 2.524 . S
O703 C683 1.289 . S
O704 Ho680 2.381 . S
O704 C690 1.275 . S
O705 Ho680 2.669 . S
O705 Ho681 2.305 . S
O705 C690 1.256 . S
O706 Ho681 2.322 . S
O706 C691 1.259 . S
O707 Ho680 2.346 . S
O707 C691 1.268 . S
O708 Ho681 2.378 . S
O708 C692 1.215 . S
O709 Ho681 2.524 . S
O709 C692 1.289 . S
O710 Ho681 2.381 . S
O710 C699 1.275 . S
O711 Ho680 2.305 . S
O711 Ho681 2.669 . S
O711 C699 1.256 . S
H712 C685 0.930 . S
H713 C686 0.931 . S
H714 C688 0.934 . S
H715 C689 0.930 . S
H716 C694 0.930 . S
H717 C695 0.931 . S
H718 C697 0.934 . S
H719 C698 0.930 . S
Ho720 C723 2.811 . S
Ho720 O740 2.322 . S
Ho720 O742 2.378 . S
Ho720 O743 2.524 . S
Ho720 O744 2.381 . S
Ho720 O745 2.669 . S
Ho720 O747 2.346 . S
Ho720 O751 2.305 . S
Ho721 C732 2.811 . S
Ho721 O741 2.346 . S
Ho721 O745 2.305 . S
Ho721 O746 2.322 . S
Ho721 O748 2.378 . S
Ho721 O749 2.524 . S
Ho721 O750 2.381 . S
Ho721 O751 2.669 . S
C722 O740 1.259 . S
C722 O741 1.268 . S
C723 Ho720 2.811 . S
C723 C724 1.488 . S
C723 O742 1.215 . S
C723 O743 1.289 . S
C724 C723 1.488 . S
C724 C725 1.348 . S
C724 C729 1.413 . S
C725 C724 1.348 . S
C725 C726 1.442 . S
C725 H752 0.930 . S
C726 C725 1.442 . S
C726 C727 1.381 . S
C726 H753 0.931 . S
C727 C726 1.381 . S
C727 C728 1.321 . S
C728 C727 1.321 . S
C728 C729 1.403 . S
C728 H754 0.934 . S
C729 C724 1.413 . S
C729 C728 1.403 . S
C729 H755 0.930 . S
C730 O744 1.275 . S
C730 O745 1.256 . S
C731 O746 1.259 . S
C731 O747 1.268 . S
C732 Ho721 2.811 . S
C732 C733 1.488 . S
C732 O748 1.215 . S
C732 O749 1.289 . S
C733 C732 1.488 . S
C733 C734 1.348 . S
C733 C738 1.413 . S
C734 C733 1.348 . S
C734 C735 1.442 . S
C734 H756 0.930 . S
C735 C734 1.442 . S
C735 C736 1.381 . S
C735 H757 0.931 . S
C736 C735 1.381 . S
C736 C737 1.321 . S
C737 C736 1.321 . S
C737 C738 1.403 . S
C737 H758 0.934 . S
C738 C733 1.413 . S
C738 C737 1.403 . S
C738 H759 0.930 . S
C739 O750 1.275 . S
C739 O751 1.256 . S
O740 Ho720 2.322 . S
O740 C722 1.259 . S
O741 Ho721 2.346 . S
O741 C722 1.268 . S
O742 Ho720 2.378 . S
O742 C723 1.215 . S
O743 Ho720 2.524 . S
O743 C723 1.289 . S
O744 Ho720 2.381 . S
O744 C730 1.275 . S
O745 Ho720 2.669 . S
O745 Ho721 2.305 . S
O745 C730 1.256 . S
O746 Ho721 2.322 . S
O746 C731 1.259 . S
O747 Ho720 2.346 . S
O747 C731 1.268 . S
O748 Ho721 2.378 . S
O748 C732 1.215 . S
O749 Ho721 2.524 . S
O749 C732 1.289 . S
O750 Ho721 2.381 . S
O750 C739 1.275 . S
O751 Ho720 2.305 . S
O751 Ho721 2.669 . S
O751 C739 1.256 . S
H752 C725 0.930 . S
H753 C726 0.931 . S
H754 C728 0.934 . S
H755 C729 0.930 . S
H756 C734 0.930 . S
H757 C735 0.931 . S
H758 C737 0.934 . S
H759 C738 0.930 . S
Ho760 C763 2.811 1_655 S
Ho760 O780 2.322 . S
Ho760 O782 2.378 1_655 S
Ho760 O783 2.524 1_655 S
Ho760 O784 2.381 . S
Ho760 O785 2.669 . S
Ho760 O787 2.346 . S
Ho760 O791 2.305 . S
Ho761 C772 2.811 . S
Ho761 O781 2.346 . S
Ho761 O785 2.305 . S
Ho761 O786 2.322 . S
Ho761 O788 2.378 . S
Ho761 O789 2.524 . S
Ho761 O790 2.381 . S
Ho761 O791 2.669 . S
C762 O780 1.259 . S
C762 O781 1.268 . S
C763 Ho760 2.811 1_455 S
C763 C764 1.488 . S
C763 O782 1.215 . S
C763 O783 1.289 . S
C764 C763 1.488 . S
C764 C765 1.348 . S
C764 C769 1.413 . S
C765 C764 1.348 . S
C765 C766 1.442 . S
C765 H792 0.930 . S
C766 C765 1.442 . S
C766 C767 1.381 . S
C766 H793 0.931 . S
C767 C766 1.381 . S
C767 C768 1.321 . S
C768 C767 1.321 . S
C768 C769 1.403 . S
C768 H794 0.934 . S
C769 C764 1.413 . S
C769 C768 1.403 . S
C769 H795 0.930 . S
C770 O784 1.275 . S
C770 O785 1.256 . S
C771 O786 1.259 . S
C771 O787 1.268 . S
C772 Ho761 2.811 . S
C772 C773 1.488 . S
C772 O788 1.215 . S
C772 O789 1.289 . S
C773 C772 1.488 . S
C773 C774 1.348 . S
C773 C778 1.413 . S
C774 C773 1.348 . S
C774 C775 1.442 . S
C774 H796 0.930 . S
C775 C774 1.442 . S
C775 C776 1.381 . S
C775 H797 0.931 . S
C776 C775 1.381 . S
C776 C777 1.321 . S
C777 C776 1.321 . S
C777 C778 1.403 . S
C777 H798 0.934 . S
C778 C773 1.413 . S
C778 C777 1.403 . S
C778 H799 0.930 . S
C779 O790 1.275 . S
C779 O791 1.256 . S
O780 Ho760 2.322 . S
O780 C762 1.259 . S
O781 Ho761 2.346 . S
O781 C762 1.268 . S
O782 Ho760 2.378 1_455 S
O782 C763 1.215 . S
O783 Ho760 2.524 1_455 S
O783 C763 1.289 . S
O784 Ho760 2.381 . S
O784 C770 1.275 . S
O785 Ho760 2.669 . S
O785 Ho761 2.305 . S
O785 C770 1.256 . S
O786 Ho761 2.322 . S
O786 C771 1.259 . S
O787 Ho760 2.346 . S
O787 C771 1.268 . S
O788 Ho761 2.378 . S
O788 C772 1.215 . S
O789 Ho761 2.524 . S
O789 C772 1.289 . S
O790 Ho761 2.381 . S
O790 C779 1.275 . S
O791 Ho760 2.305 . S
O791 Ho761 2.669 . S
O791 C779 1.256 . S
H792 C765 0.930 . S
H793 C766 0.931 . S
H794 C768 0.934 . S
H795 C769 0.930 . S
H796 C774 0.930 . S
H797 C775 0.931 . S
H798 C777 0.934 . S
H799 C778 0.930 . S
Ho800 C803 2.811 . S
Ho800 O820 2.322 . S
Ho800 O822 2.378 . S
Ho800 O823 2.524 . S
Ho800 O824 2.381 . S
Ho800 O825 2.669 . S
Ho800 O827 2.346 . S
Ho800 O831 2.305 . S
Ho801 C812 2.811 . S
Ho801 O821 2.346 . S
Ho801 O825 2.305 . S
Ho801 O826 2.322 . S
Ho801 O828 2.378 . S
Ho801 O829 2.524 . S
Ho801 O830 2.381 . S
Ho801 O831 2.669 . S
C802 O820 1.259 . S
C802 O821 1.268 . S
C803 Ho800 2.811 . S
C803 C804 1.488 . S
C803 O822 1.215 . S
C803 O823 1.289 . S
C804 C803 1.488 . S
C804 C805 1.348 . S
C804 C809 1.413 . S
C805 C804 1.348 . S
C805 C806 1.442 . S
C805 H832 0.930 . S
C806 C805 1.442 . S
C806 C807 1.381 . S
C806 H833 0.931 . S
C807 C806 1.381 . S
C807 C808 1.321 . S
C808 C807 1.321 . S
C808 C809 1.403 . S
C808 H834 0.934 . S
C809 C804 1.413 . S
C809 C808 1.403 . S
C809 H835 0.930 . S
C810 O824 1.275 . S
C810 O825 1.256 . S
C811 O826 1.259 . S
C811 O827 1.268 . S
C812 Ho801 2.811 . S
C812 C813 1.488 . S
C812 O828 1.215 . S
C812 O829 1.289 . S
C813 C812 1.488 . S
C813 C814 1.348 . S
C813 C818 1.413 . S
C814 C813 1.348 . S
C814 C815 1.442 . S
C814 H836 0.930 . S
C815 C814 1.442 . S
C815 C816 1.381 . S
C815 H837 0.931 . S
C816 C815 1.381 . S
C816 C817 1.321 . S
C817 C816 1.321 . S
C817 C818 1.403 . S
C817 H838 0.934 . S
C818 C813 1.413 . S
C818 C817 1.403 . S
C818 H839 0.930 . S
C819 O830 1.275 . S
C819 O831 1.256 . S
O820 Ho800 2.322 . S
O820 C802 1.259 . S
O821 Ho801 2.346 . S
O821 C802 1.268 . S
O822 Ho800 2.378 . S
O822 C803 1.215 . S
O823 Ho800 2.524 . S
O823 C803 1.289 . S
O824 Ho800 2.381 . S
O824 C810 1.275 . S
O825 Ho800 2.669 . S
O825 Ho801 2.305 . S
O825 C810 1.256 . S
O826 Ho801 2.322 . S
O826 C811 1.259 . S
O827 Ho800 2.346 . S
O827 C811 1.268 . S
O828 Ho801 2.378 . S
O828 C812 1.215 . S
O829 Ho801 2.524 . S
O829 C812 1.289 . S
O830 Ho801 2.381 . S
O830 C819 1.275 . S
O831 Ho800 2.305 . S
O831 Ho801 2.669 . S
O831 C819 1.256 . S
H832 C805 0.930 . S
H833 C806 0.931 . S
H834 C808 0.934 . S
H835 C809 0.930 . S
H836 C814 0.930 . S
H837 C815 0.931 . S
H838 C817 0.934 . S
H839 C818 0.930 . S
Ho840 C843 2.811 1_655 S
Ho840 O860 2.322 . S
Ho840 O862 2.378 1_655 S
Ho840 O863 2.524 1_655 S
Ho840 O864 2.381 . S
Ho840 O865 2.669 . S
Ho840 O867 2.346 . S
Ho840 O871 2.305 . S
Ho841 C852 2.811 . S
Ho841 O861 2.346 . S
Ho841 O865 2.305 . S
Ho841 O866 2.322 . S
Ho841 O868 2.378 . S
Ho841 O869 2.524 . S
Ho841 O870 2.381 . S
Ho841 O871 2.669 . S
C842 O860 1.259 . S
C842 O861 1.268 . S
C843 Ho840 2.811 1_455 S
C843 C844 1.488 . S
C843 O862 1.215 . S
C843 O863 1.289 . S
C844 C843 1.488 . S
C844 C845 1.348 . S
C844 C849 1.413 . S
C845 C844 1.348 . S
C845 C846 1.442 . S
C845 H872 0.930 . S
C846 C845 1.442 . S
C846 C847 1.381 . S
C846 H873 0.931 . S
C847 C846 1.381 . S
C847 C848 1.321 . S
C848 C847 1.321 . S
C848 C849 1.403 . S
C848 H874 0.934 . S
C849 C844 1.413 . S
C849 C848 1.403 . S
C849 H875 0.930 . S
C850 O864 1.275 . S
C850 O865 1.256 . S
C851 O866 1.259 . S
C851 O867 1.268 . S
C852 Ho841 2.811 . S
C852 C853 1.488 . S
C852 O868 1.215 . S
C852 O869 1.289 . S
C853 C852 1.488 . S
C853 C854 1.348 . S
C853 C858 1.413 . S
C854 C853 1.348 . S
C854 C855 1.442 . S
C854 H876 0.930 . S
C855 C854 1.442 . S
C855 C856 1.381 . S
C855 H877 0.931 . S
C856 C855 1.381 . S
C856 C857 1.321 . S
C857 C856 1.321 . S
C857 C858 1.403 . S
C857 H878 0.934 . S
C858 C853 1.413 . S
C858 C857 1.403 . S
C858 H879 0.930 . S
C859 O870 1.275 . S
C859 O871 1.256 . S
O860 Ho840 2.322 . S
O860 C842 1.259 . S
O861 Ho841 2.346 . S
O861 C842 1.268 . S
O862 Ho840 2.378 1_455 S
O862 C843 1.215 . S
O863 Ho840 2.524 1_455 S
O863 C843 1.289 . S
O864 Ho840 2.381 . S
O864 C850 1.275 . S
O865 Ho840 2.669 . S
O865 Ho841 2.305 . S
O865 C850 1.256 . S
O866 Ho841 2.322 . S
O866 C851 1.259 . S
O867 Ho840 2.346 . S
O867 C851 1.268 . S
O868 Ho841 2.378 . S
O868 C852 1.215 . S
O869 Ho841 2.524 . S
O869 C852 1.289 . S
O870 Ho841 2.381 . S
O870 C859 1.275 . S
O871 Ho840 2.305 . S
O871 Ho841 2.669 . S
O871 C859 1.256 . S
H872 C845 0.930 . S
H873 C846 0.931 . S
H874 C848 0.934 . S
H875 C849 0.930 . S
H876 C854 0.930 . S
H877 C855 0.931 . S
H878 C857 0.934 . S
H879 C858 0.930 . S
Ho880 C883 2.811 . S
Ho880 O900 2.322 . S
Ho880 O902 2.378 . S
Ho880 O903 2.524 . S
Ho880 O904 2.381 . S
Ho880 O905 2.669 . S
Ho880 O907 2.346 . S
Ho880 O911 2.305 . S
Ho881 C892 2.811 . S
Ho881 O901 2.346 . S
Ho881 O905 2.305 . S
Ho881 O906 2.322 . S
Ho881 O908 2.378 . S
Ho881 O909 2.524 . S
Ho881 O910 2.381 . S
Ho881 O911 2.669 . S
C882 O900 1.259 . S
C882 O901 1.268 . S
C883 Ho880 2.811 . S
C883 C884 1.488 . S
C883 O902 1.215 . S
C883 O903 1.289 . S
C884 C883 1.488 . S
C884 C885 1.348 . S
C884 C889 1.413 . S
C885 C884 1.348 . S
C885 C886 1.442 . S
C885 H912 0.930 . S
C886 C885 1.442 . S
C886 C887 1.381 . S
C886 H913 0.931 . S
C887 C886 1.381 . S
C887 C888 1.321 . S
C888 C887 1.321 . S
C888 C889 1.403 . S
C888 H914 0.934 . S
C889 C884 1.413 . S
C889 C888 1.403 . S
C889 H915 0.930 . S
C890 O904 1.275 . S
C890 O905 1.256 . S
C891 O906 1.259 . S
C891 O907 1.268 . S
C892 Ho881 2.811 . S
C892 C893 1.488 . S
C892 O908 1.215 . S
C892 O909 1.289 . S
C893 C892 1.488 . S
C893 C894 1.348 . S
C893 C898 1.413 . S
C894 C893 1.348 . S
C894 C895 1.442 . S
C894 H916 0.930 . S
C895 C894 1.442 . S
C895 C896 1.381 . S
C895 H917 0.931 . S
C896 C895 1.381 . S
C896 C897 1.321 . S
C897 C896 1.321 . S
C897 C898 1.403 . S
C897 H918 0.934 . S
C898 C893 1.413 . S
C898 C897 1.403 . S
C898 H919 0.930 . S
C899 O910 1.275 . S
C899 O911 1.256 . S
O900 Ho880 2.322 . S
O900 C882 1.259 . S
O901 Ho881 2.346 . S
O901 C882 1.268 . S
O902 Ho880 2.378 . S
O902 C883 1.215 . S
O903 Ho880 2.524 . S
O903 C883 1.289 . S
O904 Ho880 2.381 . S
O904 C890 1.275 . S
O905 Ho880 2.669 . S
O905 Ho881 2.305 . S
O905 C890 1.256 . S
O906 Ho881 2.322 . S
O906 C891 1.259 . S
O907 Ho880 2.346 . S
O907 C891 1.268 . S
O908 Ho881 2.378 . S
O908 C892 1.215 . S
O909 Ho881 2.524 . S
O909 C892 1.289 . S
O910 Ho881 2.381 . S
O910 C899 1.275 . S
O911 Ho880 2.305 . S
O911 Ho881 2.669 . S
O911 C899 1.256 . S
H912 C885 0.930 . S
H913 C886 0.931 . S
H914 C888 0.934 . S
H915 C889 0.930 . S
H916 C894 0.930 . S
H917 C895 0.931 . S
H918 C897 0.934 . S
H919 C898 0.930 . S
Ho920 C923 2.811 . S
Ho920 O940 2.322 . S
Ho920 O942 2.378 . S
Ho920 O943 2.524 . S
Ho920 O944 2.381 . S
Ho920 O945 2.669 . S
Ho920 O947 2.346 . S
Ho920 O951 2.305 . S
Ho921 C932 2.811 . S
Ho921 O941 2.346 . S
Ho921 O945 2.305 . S
Ho921 O946 2.322 . S
Ho921 O948 2.378 . S
Ho921 O949 2.524 . S
Ho921 O950 2.381 . S
Ho921 O951 2.669 . S
C922 O940 1.259 . S
C922 O941 1.268 . S
C923 Ho920 2.811 . S
C923 C924 1.488 . S
C923 O942 1.215 . S
C923 O943 1.289 . S
C924 C923 1.488 . S
C924 C925 1.348 . S
C924 C929 1.413 . S
C925 C924 1.348 . S
C925 C926 1.442 . S
C925 H952 0.930 . S
C926 C925 1.442 . S
C926 C927 1.381 . S
C926 H953 0.931 . S
C927 C926 1.381 . S
C927 C928 1.321 . S
C928 C927 1.321 . S
C928 C929 1.403 . S
C928 H954 0.934 . S
C929 C924 1.413 . S
C929 C928 1.403 . S
C929 H955 0.930 . S
C930 O944 1.275 . S
C930 O945 1.256 . S
C931 O946 1.259 . S
C931 O947 1.268 . S
C932 Ho921 2.811 . S
C932 C933 1.488 . S
C932 O948 1.215 . S
C932 O949 1.289 . S
C933 C932 1.488 . S
C933 C934 1.348 . S
C933 C938 1.413 . S
C934 C933 1.348 . S
C934 C935 1.442 . S
C934 H956 0.930 . S
C935 C934 1.442 . S
C935 C936 1.381 . S
C935 H957 0.931 . S
C936 C935 1.381 . S
C936 C937 1.321 . S
C937 C936 1.321 . S
C937 C938 1.403 . S
C937 H958 0.934 . S
C938 C933 1.413 . S
C938 C937 1.403 . S
C938 H959 0.930 . S
C939 O950 1.275 . S
C939 O951 1.256 . S
O940 Ho920 2.322 . S
O940 C922 1.259 . S
O941 Ho921 2.346 . S
O941 C922 1.268 . S
O942 Ho920 2.378 . S
O942 C923 1.215 . S
O943 Ho920 2.524 . S
O943 C923 1.289 . S
O944 Ho920 2.381 . S
O944 C930 1.275 . S
O945 Ho920 2.669 . S
O945 Ho921 2.305 . S
O945 C930 1.256 . S
O946 Ho921 2.322 . S
O946 C931 1.259 . S
O947 Ho920 2.346 . S
O947 C931 1.268 . S
O948 Ho921 2.378 . S
O948 C932 1.215 . S
O949 Ho921 2.524 . S
O949 C932 1.289 . S
O950 Ho921 2.381 . S
O950 C939 1.275 . S
O951 Ho920 2.305 . S
O951 Ho921 2.669 . S
O951 C939 1.256 . S
H952 C925 0.930 . S
H953 C926 0.931 . S
H954 C928 0.934 . S
H955 C929 0.930 . S
H956 C934 0.930 . S
H957 C935 0.931 . S
H958 C937 0.934 . S
H959 C938 0.930 . S
Ho960 C963 2.811 . S
Ho960 O980 2.322 . S
Ho960 O982 2.378 . S
Ho960 O983 2.524 . S
Ho960 O984 2.381 . S
Ho960 O985 2.669 . S
Ho960 O987 2.346 . S
Ho960 O991 2.305 . S
Ho961 C972 2.811 . S
Ho961 O981 2.346 . S
Ho961 O985 2.305 . S
Ho961 O986 2.322 . S
Ho961 O988 2.378 . S
Ho961 O989 2.524 . S
Ho961 O990 2.381 . S
Ho961 O991 2.669 . S
C962 O980 1.259 . S
C962 O981 1.268 . S
C963 Ho960 2.811 . S
C963 C964 1.488 . S
C963 O982 1.215 . S
C963 O983 1.289 . S
C964 C963 1.488 . S
C964 C965 1.348 . S
C964 C969 1.413 . S
C965 C964 1.348 . S
C965 C966 1.442 . S
C965 H992 0.930 . S
C966 C965 1.442 . S
C966 C967 1.381 . S
C966 H993 0.931 . S
C967 C966 1.381 . S
C967 C968 1.321 . S
C968 C967 1.321 . S
C968 C969 1.403 . S
C968 H994 0.934 . S
C969 C964 1.413 . S
C969 C968 1.403 . S
C969 H995 0.930 . S
C970 O984 1.275 . S
C970 O985 1.256 . S
C971 O986 1.259 . S
C971 O987 1.268 . S
C972 Ho961 2.811 . S
C972 C973 1.488 . S
C972 O988 1.215 . S
C972 O989 1.289 . S
C973 C972 1.488 . S
C973 C974 1.348 . S
C973 C978 1.413 . S
C974 C973 1.348 . S
C974 C975 1.442 . S
C974 H996 0.930 . S
C975 C974 1.442 . S
C975 C976 1.381 . S
C975 H997 0.931 . S
C976 C975 1.381 . S
C976 C977 1.321 . S
C977 C976 1.321 . S
C977 C978 1.403 . S
C977 H998 0.934 . S
C978 C973 1.413 . S
C978 C977 1.403 . S
C978 H999 0.930 . S
C979 O990 1.275 . S
C979 O991 1.256 . S
O980 Ho960 2.322 . S
O980 C962 1.259 . S
O981 Ho961 2.346 . S
O981 C962 1.268 . S
O982 Ho960 2.378 . S
O982 C963 1.215 . S
O983 Ho960 2.524 . S
O983 C963 1.289 . S
O984 Ho960 2.381 . S
O984 C970 1.275 . S
O985 Ho960 2.669 . S
O985 Ho961 2.305 . S
O985 C970 1.256 . S
O986 Ho961 2.322 . S
O986 C971 1.259 . S
O987 Ho960 2.346 . S
O987 C971 1.268 . S
O988 Ho961 2.378 . S
O988 C972 1.215 . S
O989 Ho961 2.524 . S
O989 C972 1.289 . S
O990 Ho961 2.381 . S
O990 C979 1.275 . S
O991 Ho960 2.305 . S
O991 Ho961 2.669 . S
O991 C979 1.256 . S
H992 C965 0.930 . S
H993 C966 0.931 . S
H994 C968 0.934 . S
H995 C969 0.930 . S
H996 C974 0.930 . S
H997 C975 0.931 . S
H998 C977 0.934 . S
H999 C978 0.930 . S
Ho1000 C1003 2.811 . S
Ho1000 O1020 2.322 . S
Ho1000 O1022 2.378 . S
Ho1000 O1023 2.524 . S
Ho1000 O1024 2.381 . S
Ho1000 O1025 2.669 . S
Ho1000 O1027 2.346 . S
Ho1000 O1031 2.305 . S
Ho1001 C1012 2.811 . S
Ho1001 O1021 2.346 . S
Ho1001 O1025 2.305 . S
Ho1001 O1026 2.322 . S
Ho1001 O1028 2.378 . S
Ho1001 O1029 2.524 . S
Ho1001 O1030 2.381 . S
Ho1001 O1031 2.669 . S
C1002 O1020 1.259 . S
C1002 O1021 1.268 . S
C1003 Ho1000 2.811 . S
C1003 C1004 1.488 . S
C1003 O1022 1.215 . S
C1003 O1023 1.289 . S
C1004 C1003 1.488 . S
C1004 C1005 1.348 . S
C1004 C1009 1.413 . S
C1005 C1004 1.348 . S
C1005 C1006 1.442 . S
C1005 H1032 0.930 . S
C1006 C1005 1.442 . S
C1006 C1007 1.381 . S
C1006 H1033 0.931 . S
C1007 C1006 1.381 . S
C1007 C1008 1.321 . S
C1008 C1007 1.321 . S
C1008 C1009 1.403 . S
C1008 H1034 0.934 . S
C1009 C1004 1.413 . S
C1009 C1008 1.403 . S
C1009 H1035 0.930 . S
C1010 O1024 1.275 . S
C1010 O1025 1.256 . S
C1011 O1026 1.259 . S
C1011 O1027 1.268 . S
C1012 Ho1001 2.811 . S
C1012 C1013 1.488 . S
C1012 O1028 1.215 . S
C1012 O1029 1.289 . S
C1013 C1012 1.488 . S
C1013 C1014 1.348 . S
C1013 C1018 1.413 . S
C1014 C1013 1.348 . S
C1014 C1015 1.442 . S
C1014 H1036 0.930 . S
C1015 C1014 1.442 . S
C1015 C1016 1.381 . S
C1015 H1037 0.931 . S
C1016 C1015 1.381 . S
C1016 C1017 1.321 . S
C1017 C1016 1.321 . S
C1017 C1018 1.403 . S
C1017 H1038 0.934 . S
C1018 C1013 1.413 . S
C1018 C1017 1.403 . S
C1018 H1039 0.930 . S
C1019 O1030 1.275 . S
C1019 O1031 1.256 . S
O1020 Ho1000 2.322 . S
O1020 C1002 1.259 . S
O1021 Ho1001 2.346 . S
O1021 C1002 1.268 . S
O1022 Ho1000 2.378 . S
O1022 C1003 1.215 . S
O1023 Ho1000 2.524 . S
O1023 C1003 1.289 . S
O1024 Ho1000 2.381 . S
O1024 C1010 1.275 . S
O1025 Ho1000 2.669 . S
O1025 Ho1001 2.305 . S
O1025 C1010 1.256 . S
O1026 Ho1001 2.322 . S
O1026 C1011 1.259 . S
O1027 Ho1000 2.346 . S
O1027 C1011 1.268 . S
O1028 Ho1001 2.378 . S
O1028 C1012 1.215 . S
O1029 Ho1001 2.524 . S
O1029 C1012 1.289 . S
O1030 Ho1001 2.381 . S
O1030 C1019 1.275 . S
O1031 Ho1000 2.305 . S
O1031 Ho1001 2.669 . S
O1031 C1019 1.256 . S
H1032 C1005 0.930 . S
H1033 C1006 0.931 . S
H1034 C1008 0.934 . S
H1035 C1009 0.930 . S
H1036 C1014 0.930 . S
H1037 C1015 0.931 . S
H1038 C1017 0.934 . S
H1039 C1018 0.930 . S
Ho1040 C1043 2.811 . S
Ho1040 O1060 2.322 . S
Ho1040 O1062 2.378 . S
Ho1040 O1063 2.524 . S
Ho1040 O1064 2.381 . S
Ho1040 O1065 2.669 . S
Ho1040 O1067 2.346 . S
Ho1040 O1071 2.305 . S
Ho1041 C1052 2.811 . S
Ho1041 O1061 2.346 . S
Ho1041 O1065 2.305 . S
Ho1041 O1066 2.322 . S
Ho1041 O1068 2.378 . S
Ho1041 O1069 2.524 . S
Ho1041 O1070 2.381 . S
Ho1041 O1071 2.669 . S
C1042 O1060 1.259 . S
C1042 O1061 1.268 . S
C1043 Ho1040 2.811 . S
C1043 C1044 1.488 . S
C1043 O1062 1.215 . S
C1043 O1063 1.289 . S
C1044 C1043 1.488 . S
C1044 C1045 1.348 . S
C1044 C1049 1.413 . S
C1045 C1044 1.348 . S
C1045 C1046 1.442 . S
C1045 H1072 0.930 . S
C1046 C1045 1.442 . S
C1046 C1047 1.381 . S
C1046 H1073 0.931 . S
C1047 C1046 1.381 . S
C1047 C1048 1.321 . S
C1048 C1047 1.321 . S
C1048 C1049 1.403 . S
C1048 H1074 0.934 . S
C1049 C1044 1.413 . S
C1049 C1048 1.403 . S
C1049 H1075 0.930 . S
C1050 O1064 1.275 . S
C1050 O1065 1.256 . S
C1051 O1066 1.259 . S
C1051 O1067 1.268 . S
C1052 Ho1041 2.811 . S
C1052 C1053 1.488 . S
C1052 O1068 1.215 . S
C1052 O1069 1.289 . S
C1053 C1052 1.488 . S
C1053 C1054 1.348 . S
C1053 C1058 1.413 . S
C1054 C1053 1.348 . S
C1054 C1055 1.442 . S
C1054 H1076 0.930 . S
C1055 C1054 1.442 . S
C1055 C1056 1.381 . S
C1055 H1077 0.931 . S
C1056 C1055 1.381 . S
C1056 C1057 1.321 . S
C1057 C1056 1.321 . S
C1057 C1058 1.403 . S
C1057 H1078 0.934 . S
C1058 C1053 1.413 . S
C1058 C1057 1.403 . S
C1058 H1079 0.930 . S
C1059 O1070 1.275 . S
C1059 O1071 1.256 . S
O1060 Ho1040 2.322 . S
O1060 C1042 1.259 . S
O1061 Ho1041 2.346 . S
O1061 C1042 1.268 . S
O1062 Ho1040 2.378 . S
O1062 C1043 1.215 . S
O1063 Ho1040 2.524 . S
O1063 C1043 1.289 . S
O1064 Ho1040 2.381 . S
O1064 C1050 1.275 . S
O1065 Ho1040 2.669 . S
O1065 Ho1041 2.305 . S
O1065 C1050 1.256 . S
O1066 Ho1041 2.322 . S
O1066 C1051 1.259 . S
O1067 Ho1040 2.346 . S
O1067 C1051 1.268 . S
O1068 Ho1041 2.378 . S
O1068 C1052 1.215 . S
O1069 Ho1041 2.524 . S
O1069 C1052 1.289 . S
O1070 Ho1041 2.381 . S
O1070 C1059 1.275 . S
O1071 Ho1040 2.305 . S
O1071 Ho1041 2.669 . S
O1071 C1059 1.256 . S
H1072 C1045 0.930 . S
H1073 C1046 0.931 . S
H1074 C1048 0.934 . S
H1075 C1049 0.930 . S
H1076 C1054 0.930 . S
H1077 C1055 0.931 . S
H1078 C1057 0.934 . S
H1079 C1058 0.930 . S
Ho1080 C1083 2.811 . S
Ho1080 O1100 2.322 . S
Ho1080 O1102 2.378 . S
Ho1080 O1103 2.524 . S
Ho1080 O1104 2.381 . S
Ho1080 O1105 2.669 . S
Ho1080 O1107 2.346 . S
Ho1080 O1111 2.305 . S
Ho1081 C1092 2.811 1_455 S
Ho1081 O1101 2.346 . S
Ho1081 O1105 2.305 . S
Ho1081 O1106 2.322 . S
Ho1081 O1108 2.378 1_455 S
Ho1081 O1109 2.524 1_455 S
Ho1081 O1110 2.381 . S
Ho1081 O1111 2.669 . S
C1082 O1100 1.259 . S
C1082 O1101 1.268 . S
C1083 Ho1080 2.811 . S
C1083 C1084 1.488 . S
C1083 O1102 1.215 . S
C1083 O1103 1.289 . S
C1084 C1083 1.488 . S
C1084 C1085 1.348 . S
C1084 C1089 1.413 . S
C1085 C1084 1.348 . S
C1085 C1086 1.442 . S
C1085 H1112 0.930 . S
C1086 C1085 1.442 . S
C1086 C1087 1.381 . S
C1086 H1113 0.931 . S
C1087 C1086 1.381 . S
C1087 C1088 1.321 . S
C1088 C1087 1.321 . S
C1088 C1089 1.403 . S
C1088 H1114 0.934 . S
C1089 C1084 1.413 . S
C1089 C1088 1.403 . S
C1089 H1115 0.930 . S
C1090 O1104 1.275 . S
C1090 O1105 1.256 . S
C1091 O1106 1.259 . S
C1091 O1107 1.268 . S
C1092 Ho1081 2.811 1_655 S
C1092 C1093 1.488 . S
C1092 O1108 1.215 . S
C1092 O1109 1.289 . S
C1093 C1092 1.488 . S
C1093 C1094 1.348 . S
C1093 C1098 1.413 . S
C1094 C1093 1.348 . S
C1094 C1095 1.442 . S
C1094 H1116 0.930 . S
C1095 C1094 1.442 . S
C1095 C1096 1.381 . S
C1095 H1117 0.931 . S
C1096 C1095 1.381 . S
C1096 C1097 1.321 . S
C1097 C1096 1.321 . S
C1097 C1098 1.403 . S
C1097 H1118 0.934 . S
C1098 C1093 1.413 . S
C1098 C1097 1.403 . S
C1098 H1119 0.930 . S
C1099 O1110 1.275 . S
C1099 O1111 1.256 . S
O1100 Ho1080 2.322 . S
O1100 C1082 1.259 . S
O1101 Ho1081 2.346 . S
O1101 C1082 1.268 . S
O1102 Ho1080 2.378 . S
O1102 C1083 1.215 . S
O1103 Ho1080 2.524 . S
O1103 C1083 1.289 . S
O1104 Ho1080 2.381 . S
O1104 C1090 1.275 . S
O1105 Ho1080 2.669 . S
O1105 Ho1081 2.305 . S
O1105 C1090 1.256 . S
O1106 Ho1081 2.322 . S
O1106 C1091 1.259 . S
O1107 Ho1080 2.346 . S
O1107 C1091 1.268 . S
O1108 Ho1081 2.378 1_655 S
O1108 C1092 1.215 . S
O1109 Ho1081 2.524 1_655 S
O1109 C1092 1.289 . S
O1110 Ho1081 2.381 . S
O1110 C1099 1.275 . S
O1111 Ho1080 2.305 . S
O1111 Ho1081 2.669 . S
O1111 C1099 1.256 . S
H1112 C1085 0.930 . S
H1113 C1086 0.931 . S
H1114 C1088 0.934 . S
H1115 C1089 0.930 . S
H1116 C1094 0.930 . S
H1117 C1095 0.931 . S
H1118 C1097 0.934 . S
H1119 C1098 0.930 . S
Ho1120 C1123 2.811 . S
Ho1120 O1140 2.322 . S
Ho1120 O1142 2.378 . S
Ho1120 O1143 2.524 . S
Ho1120 O1144 2.381 . S
Ho1120 O1145 2.669 . S
Ho1120 O1147 2.346 . S
Ho1120 O1151 2.305 . S
Ho1121 C1132 2.811 . S
Ho1121 O1141 2.346 . S
Ho1121 O1145 2.305 . S
Ho1121 O1146 2.322 . S
Ho1121 O1148 2.378 . S
Ho1121 O1149 2.524 . S
Ho1121 O1150 2.381 . S
Ho1121 O1151 2.669 . S
C1122 O1140 1.259 . S
C1122 O1141 1.268 . S
C1123 Ho1120 2.811 . S
C1123 C1124 1.488 . S
C1123 O1142 1.215 . S
C1123 O1143 1.289 . S
C1124 C1123 1.488 . S
C1124 C1125 1.348 . S
C1124 C1129 1.413 . S
C1125 C1124 1.348 . S
C1125 C1126 1.442 . S
C1125 H1152 0.930 . S
C1126 C1125 1.442 . S
C1126 C1127 1.381 . S
C1126 H1153 0.931 . S
C1127 C1126 1.381 . S
C1127 C1128 1.321 . S
C1128 C1127 1.321 . S
C1128 C1129 1.403 . S
C1128 H1154 0.934 . S
C1129 C1124 1.413 . S
C1129 C1128 1.403 . S
C1129 H1155 0.930 . S
C1130 O1144 1.275 . S
C1130 O1145 1.256 . S
C1131 O1146 1.259 . S
C1131 O1147 1.268 . S
C1132 Ho1121 2.811 . S
C1132 C1133 1.488 . S
C1132 O1148 1.215 . S
C1132 O1149 1.289 . S
C1133 C1132 1.488 . S
C1133 C1134 1.348 . S
C1133 C1138 1.413 . S
C1134 C1133 1.348 . S
C1134 C1135 1.442 . S
C1134 H1156 0.930 . S
C1135 C1134 1.442 . S
C1135 C1136 1.381 . S
C1135 H1157 0.931 . S
C1136 C1135 1.381 . S
C1136 C1137 1.321 . S
C1137 C1136 1.321 . S
C1137 C1138 1.403 . S
C1137 H1158 0.934 . S
C1138 C1133 1.413 . S
C1138 C1137 1.403 . S
C1138 H1159 0.930 . S
C1139 O1150 1.275 . S
C1139 O1151 1.256 . S
O1140 Ho1120 2.322 . S
O1140 C1122 1.259 . S
O1141 Ho1121 2.346 . S
O1141 C1122 1.268 . S
O1142 Ho1120 2.378 . S
O1142 C1123 1.215 . S
O1143 Ho1120 2.524 . S
O1143 C1123 1.289 . S
O1144 Ho1120 2.381 . S
O1144 C1130 1.275 . S
O1145 Ho1120 2.669 . S
O1145 Ho1121 2.305 . S
O1145 C1130 1.256 . S
O1146 Ho1121 2.322 . S
O1146 C1131 1.259 . S
O1147 Ho1120 2.346 . S
O1147 C1131 1.268 . S
O1148 Ho1121 2.378 . S
O1148 C1132 1.215 . S
O1149 Ho1121 2.524 . S
O1149 C1132 1.289 . S
O1150 Ho1121 2.381 . S
O1150 C1139 1.275 . S
O1151 Ho1120 2.305 . S
O1151 Ho1121 2.669 . S
O1151 C1139 1.256 . S
H1152 C1125 0.930 . S
H1153 C1126 0.931 . S
H1154 C1128 0.934 . S
H1155 C1129 0.930 . S
H1156 C1134 0.930 . S
H1157 C1135 0.931 . S
H1158 C1137 0.934 . S
H1159 C1138 0.930 . S
Ho1160 C1163 2.811 . S
Ho1160 O1180 2.322 . S
Ho1160 O1182 2.378 . S
Ho1160 O1183 2.524 . S
Ho1160 O1184 2.381 . S
Ho1160 O1185 2.669 . S
Ho1160 O1187 2.346 . S
Ho1160 O1191 2.305 . S
Ho1161 C1172 2.811 1_455 S
Ho1161 O1181 2.346 . S
Ho1161 O1185 2.305 . S
Ho1161 O1186 2.322 . S
Ho1161 O1188 2.378 1_455 S
Ho1161 O1189 2.524 1_455 S
Ho1161 O1190 2.381 . S
Ho1161 O1191 2.669 . S
C1162 O1180 1.259 . S
C1162 O1181 1.268 . S
C1163 Ho1160 2.811 . S
C1163 C1164 1.488 . S
C1163 O1182 1.215 . S
C1163 O1183 1.289 . S
C1164 C1163 1.488 . S
C1164 C1165 1.348 . S
C1164 C1169 1.413 . S
C1165 C1164 1.348 . S
C1165 C1166 1.442 . S
C1165 H1192 0.930 . S
C1166 C1165 1.442 . S
C1166 C1167 1.381 . S
C1166 H1193 0.931 . S
C1167 C1166 1.381 . S
C1167 C1168 1.321 . S
C1168 C1167 1.321 . S
C1168 C1169 1.403 . S
C1168 H1194 0.934 . S
C1169 C1164 1.413 . S
C1169 C1168 1.403 . S
C1169 H1195 0.930 . S
C1170 O1184 1.275 . S
C1170 O1185 1.256 . S
C1171 O1186 1.259 . S
C1171 O1187 1.268 . S
C1172 Ho1161 2.811 1_655 S
C1172 C1173 1.488 . S
C1172 O1188 1.215 . S
C1172 O1189 1.289 . S
C1173 C1172 1.488 . S
C1173 C1174 1.348 . S
C1173 C1178 1.413 . S
C1174 C1173 1.348 . S
C1174 C1175 1.442 . S
C1174 H1196 0.930 . S
C1175 C1174 1.442 . S
C1175 C1176 1.381 . S
C1175 H1197 0.931 . S
C1176 C1175 1.381 . S
C1176 C1177 1.321 . S
C1177 C1176 1.321 . S
C1177 C1178 1.403 . S
C1177 H1198 0.934 . S
C1178 C1173 1.413 . S
C1178 C1177 1.403 . S
C1178 H1199 0.930 . S
C1179 O1190 1.275 . S
C1179 O1191 1.256 . S
O1180 Ho1160 2.322 . S
O1180 C1162 1.259 . S
O1181 Ho1161 2.346 . S
O1181 C1162 1.268 . S
O1182 Ho1160 2.378 . S
O1182 C1163 1.215 . S
O1183 Ho1160 2.524 . S
O1183 C1163 1.289 . S
O1184 Ho1160 2.381 . S
O1184 C1170 1.275 . S
O1185 Ho1160 2.669 . S
O1185 Ho1161 2.305 . S
O1185 C1170 1.256 . S
O1186 Ho1161 2.322 . S
O1186 C1171 1.259 . S
O1187 Ho1160 2.346 . S
O1187 C1171 1.268 . S
O1188 Ho1161 2.378 1_655 S
O1188 C1172 1.215 . S
O1189 Ho1161 2.524 1_655 S
O1189 C1172 1.289 . S
O1190 Ho1161 2.381 . S
O1190 C1179 1.275 . S
O1191 Ho1160 2.305 . S
O1191 Ho1161 2.669 . S
O1191 C1179 1.256 . S
H1192 C1165 0.930 . S
H1193 C1166 0.931 . S
H1194 C1168 0.934 . S
H1195 C1169 0.930 . S
H1196 C1174 0.930 . S
H1197 C1175 0.931 . S
H1198 C1177 0.934 . S
H1199 C1178 0.930 . S
Ho1200 C1203 2.811 . S
Ho1200 O1220 2.322 . S
Ho1200 O1222 2.378 . S
Ho1200 O1223 2.524 . S
Ho1200 O1224 2.381 . S
Ho1200 O1225 2.669 . S
Ho1200 O1227 2.346 . S
Ho1200 O1231 2.305 . S
Ho1201 C1212 2.811 . S
Ho1201 O1221 2.346 . S
Ho1201 O1225 2.305 . S
Ho1201 O1226 2.322 . S
Ho1201 O1228 2.378 . S
Ho1201 O1229 2.524 . S
Ho1201 O1230 2.381 . S
Ho1201 O1231 2.669 . S
C1202 O1220 1.259 . S
C1202 O1221 1.268 . S
C1203 Ho1200 2.811 . S
C1203 C1204 1.488 . S
C1203 O1222 1.215 . S
C1203 O1223 1.289 . S
C1204 C1203 1.488 . S
C1204 C1205 1.348 . S
C1204 C1209 1.413 . S
C1205 C1204 1.348 . S
C1205 C1206 1.442 . S
C1205 H1232 0.930 . S
C1206 C1205 1.442 . S
C1206 C1207 1.381 . S
C1206 H1233 0.931 . S
C1207 C1206 1.381 . S
C1207 C1208 1.321 . S
C1208 C1207 1.321 . S
C1208 C1209 1.403 . S
C1208 H1234 0.934 . S
C1209 C1204 1.413 . S
C1209 C1208 1.403 . S
C1209 H1235 0.930 . S
C1210 O1224 1.275 . S
C1210 O1225 1.256 . S
C1211 O1226 1.259 . S
C1211 O1227 1.268 . S
C1212 Ho1201 2.811 . S
C1212 C1213 1.488 . S
C1212 O1228 1.215 . S
C1212 O1229 1.289 . S
C1213 C1212 1.488 . S
C1213 C1214 1.348 . S
C1213 C1218 1.413 . S
C1214 C1213 1.348 . S
C1214 C1215 1.442 . S
C1214 H1236 0.930 . S
C1215 C1214 1.442 . S
C1215 C1216 1.381 . S
C1215 H1237 0.931 . S
C1216 C1215 1.381 . S
C1216 C1217 1.321 . S
C1217 C1216 1.321 . S
C1217 C1218 1.403 . S
C1217 H1238 0.934 . S
C1218 C1213 1.413 . S
C1218 C1217 1.403 . S
C1218 H1239 0.930 . S
C1219 O1230 1.275 . S
C1219 O1231 1.256 . S
O1220 Ho1200 2.322 . S
O1220 C1202 1.259 . S
O1221 Ho1201 2.346 . S
O1221 C1202 1.268 . S
O1222 Ho1200 2.378 . S
O1222 C1203 1.215 . S
O1223 Ho1200 2.524 . S
O1223 C1203 1.289 . S
O1224 Ho1200 2.381 . S
O1224 C1210 1.275 . S
O1225 Ho1200 2.669 . S
O1225 Ho1201 2.305 . S
O1225 C1210 1.256 . S
O1226 Ho1201 2.322 . S
O1226 C1211 1.259 . S
O1227 Ho1200 2.346 . S
O1227 C1211 1.268 . S
O1228 Ho1201 2.378 . S
O1228 C1212 1.215 . S
O1229 Ho1201 2.524 . S
O1229 C1212 1.289 . S
O1230 Ho1201 2.381 . S
O1230 C1219 1.275 . S
O1231 Ho1200 2.305 . S
O1231 Ho1201 2.669 . S
O1231 C1219 1.256 . S
H1232 C1205 0.930 . S
H1233 C1206 0.931 . S
H1234 C1208 0.934 . S
H1235 C1209 0.930 . S
H1236 C1214 0.930 . S
H1237 C1215 0.931 . S
H1238 C1217 0.934 . S
H1239 C1218 0.930 . S
Ho1240 C1243 2.811 . S
Ho1240 O1260 2.322 . S
Ho1240 O1262 2.378 . S
Ho1240 O1263 2.524 . S
Ho1240 O1264 2.381 . S
Ho1240 O1265 2.669 . S
Ho1240 O1267 2.346 . S
Ho1240 O1271 2.305 . S
Ho1241 C1252 2.811 . S
Ho1241 O1261 2.346 . S
Ho1241 O1265 2.305 . S
Ho1241 O1266 2.322 . S
Ho1241 O1268 2.378 . S
Ho1241 O1269 2.524 . S
Ho1241 O1270 2.381 . S
Ho1241 O1271 2.669 . S
C1242 O1260 1.259 . S
C1242 O1261 1.268 . S
C1243 Ho1240 2.811 . S
C1243 C1244 1.488 . S
C1243 O1262 1.215 . S
C1243 O1263 1.289 . S
C1244 C1243 1.488 . S
C1244 C1245 1.348 . S
C1244 C1249 1.413 . S
C1245 C1244 1.348 . S
C1245 C1246 1.442 . S
C1245 H1272 0.930 . S
C1246 C1245 1.442 . S
C1246 C1247 1.381 . S
C1246 H1273 0.931 . S
C1247 C1246 1.381 . S
C1247 C1248 1.321 . S
C1248 C1247 1.321 . S
C1248 C1249 1.403 . S
C1248 H1274 0.934 . S
C1249 C1244 1.413 . S
C1249 C1248 1.403 . S
C1249 H1275 0.930 . S
C1250 O1264 1.275 . S
C1250 O1265 1.256 . S
C1251 O1266 1.259 . S
C1251 O1267 1.268 . S
C1252 Ho1241 2.811 . S
C1252 C1253 1.488 . S
C1252 O1268 1.215 . S
C1252 O1269 1.289 . S
C1253 C1252 1.488 . S
C1253 C1254 1.348 . S
C1253 C1258 1.413 . S
C1254 C1253 1.348 . S
C1254 C1255 1.442 . S
C1254 H1276 0.930 . S
C1255 C1254 1.442 . S
C1255 C1256 1.381 . S
C1255 H1277 0.931 . S
C1256 C1255 1.381 . S
C1256 C1257 1.321 . S
C1257 C1256 1.321 . S
C1257 C1258 1.403 . S
C1257 H1278 0.934 . S
C1258 C1253 1.413 . S
C1258 C1257 1.403 . S
C1258 H1279 0.930 . S
C1259 O1270 1.275 . S
C1259 O1271 1.256 . S
O1260 Ho1240 2.322 . S
O1260 C1242 1.259 . S
O1261 Ho1241 2.346 . S
O1261 C1242 1.268 . S
O1262 Ho1240 2.378 . S
O1262 C1243 1.215 . S
O1263 Ho1240 2.524 . S
O1263 C1243 1.289 . S
O1264 Ho1240 2.381 . S
O1264 C1250 1.275 . S
O1265 Ho1240 2.669 . S
O1265 Ho1241 2.305 . S
O1265 C1250 1.256 . S
O1266 Ho1241 2.322 . S
O1266 C1251 1.259 . S
O1267 Ho1240 2.346 . S
O1267 C1251 1.268 . S
O1268 Ho1241 2.378 . S
O1268 C1252 1.215 . S
O1269 Ho1241 2.524 . S
O1269 C1252 1.289 . S
O1270 Ho1241 2.381 . S
O1270 C1259 1.275 . S
O1271 Ho1240 2.305 . S
O1271 Ho1241 2.669 . S
O1271 C1259 1.256 . S
H1272 C1245 0.930 . S
H1273 C1246 0.931 . S
H1274 C1248 0.934 . S
H1275 C1249 0.930 . S
H1276 C1254 0.930 . S
H1277 C1255 0.931 . S
H1278 C1257 0.934 . S
H1279 C1258 0.930 . S
H1280 C1292 0.930 . S
H1281 C1294 0.930 . S
H1282 C1295 0.930 . S
H1283 C1299 0.959 . S
H1284 C1299 0.959 . S
H1285 C1299 0.961 . S
H1286 C1300 0.960 . S
H1287 C1300 0.961 . S
H1288 C1300 0.959 . S
H1289 C1303 0.929 . S
H1290 C1304 0.931 . S
H1291 C1306 0.930 . S
C1292 H1280 0.930 . S
C1292 C1293 1.399 . S
C1292 C1297 1.399 . S
C1293 C1292 1.399 . S
C1293 C1294 1.376 . S
C1294 H1281 0.930 . S
C1294 C1293 1.376 . S
C1294 C1295 1.388 . S
C1295 H1282 0.930 . S
C1295 C1294 1.388 . S
C1295 C1296 1.390 . S
C1296 C1295 1.390 . S
C1296 C1297 1.394 . S
C1296 C1302 1.465 . S
C1297 C1292 1.399 . S
C1297 C1296 1.394 . S
C1297 C1298 1.516 . S
C1298 C1297 1.516 . S
C1298 C1299 1.502 . S
C1298 C1300 1.561 . S
C1298 C1301 1.526 . S
C1299 H1283 0.959 . S
C1299 H1284 0.959 . S
C1299 H1285 0.961 . S
C1299 C1298 1.502 . S
C1300 H1286 0.960 . S
C1300 H1287 0.961 . S
C1300 H1288 0.959 . S
C1300 C1298 1.561 . S
C1301 C1298 1.526 . S
C1301 C1302 1.396 . S
C1301 C1306 1.390 . S
C1302 C1296 1.465 . S
C1302 C1301 1.396 . S
C1302 C1303 1.399 . S
C1303 H1289 0.929 . S
C1303 C1302 1.399 . S
C1303 C1304 1.385 . S
C1304 H1290 0.931 . S
C1304 C1303 1.385 . S
C1304 C1305 1.389 . S
C1305 C1304 1.389 . S
C1305 C1306 1.387 . S
C1306 H1291 0.930 . S
C1306 C1301 1.390 . S
C1306 C1305 1.387 . S
H1307 C1319 0.930 . S
H1308 C1321 0.930 . S
H1309 C1322 0.930 . S
H1310 C1326 0.959 . S
H1311 C1326 0.959 . S
H1312 C1326 0.961 . S
H1313 C1327 0.960 . S
H1314 C1327 0.961 . S
H1315 C1327 0.959 . S
H1316 C1330 0.929 . S
H1317 C1331 0.931 . S
H1318 C1333 0.930 . S
C1319 H1307 0.930 . S
C1319 C1320 1.399 . S
C1319 C1324 1.399 . S
C1320 C1319 1.399 . S
C1320 C1321 1.376 . S
C1321 H1308 0.930 . S
C1321 C1320 1.376 . S
C1321 C1322 1.388 . S
C1322 H1309 0.930 . S
C1322 C1321 1.388 . S
C1322 C1323 1.390 . S
C1323 C1322 1.390 . S
C1323 C1324 1.394 . S
C1323 C1329 1.465 . S
C1324 C1319 1.399 . S
C1324 C1323 1.394 . S
C1324 C1325 1.516 . S
C1325 C1324 1.516 . S
C1325 C1326 1.502 . S
C1325 C1327 1.561 . S
C1325 C1328 1.526 . S
C1326 H1310 0.959 . S
C1326 H1311 0.959 . S
C1326 H1312 0.961 . S
C1326 C1325 1.502 . S
C1327 H1313 0.960 . S
C1327 H1314 0.961 . S
C1327 H1315 0.959 . S
C1327 C1325 1.561 . S
C1328 C1325 1.526 . S
C1328 C1329 1.396 . S
C1328 C1333 1.390 . S
C1329 C1323 1.465 . S
C1329 C1328 1.396 . S
C1329 C1330 1.399 . S
C1330 H1316 0.929 . S
C1330 C1329 1.399 . S
C1330 C1331 1.385 . S
C1331 H1317 0.931 . S
C1331 C1330 1.385 . S
C1331 C1332 1.389 . S
C1332 C1331 1.389 . S
C1332 C1333 1.387 . S
C1333 H1318 0.930 . S
C1333 C1328 1.390 . S
C1333 C1332 1.387 . S
H1334 C1346 0.930 . S
H1335 C1348 0.930 . S
H1336 C1349 0.930 . S
H1337 C1353 0.959 . S
H1338 C1353 0.959 . S
H1339 C1353 0.961 . S
H1340 C1354 0.960 . S
H1341 C1354 0.961 . S
H1342 C1354 0.959 . S
H1343 C1357 0.929 . S
H1344 C1358 0.931 . S
H1345 C1360 0.930 . S
C1346 H1334 0.930 . S
C1346 C1347 1.399 . S
C1346 C1351 1.399 . S
C1347 C1346 1.399 . S
C1347 C1348 1.376 . S
C1348 H1335 0.930 . S
C1348 C1347 1.376 . S
C1348 C1349 1.388 . S
C1349 H1336 0.930 . S
C1349 C1348 1.388 . S
C1349 C1350 1.390 . S
C1350 C1349 1.390 . S
C1350 C1351 1.394 . S
C1350 C1356 1.465 . S
C1351 C1346 1.399 . S
C1351 C1350 1.394 . S
C1351 C1352 1.516 . S
C1352 C1351 1.516 . S
C1352 C1353 1.502 . S
C1352 C1354 1.561 . S
C1352 C1355 1.526 . S
C1353 H1337 0.959 . S
C1353 H1338 0.959 . S
C1353 H1339 0.961 . S
C1353 C1352 1.502 . S
C1354 H1340 0.960 . S
C1354 H1341 0.961 . S
C1354 H1342 0.959 . S
C1354 C1352 1.561 . S
C1355 C1352 1.526 . S
C1355 C1356 1.396 . S
C1355 C1360 1.390 . S
C1356 C1350 1.465 . S
C1356 C1355 1.396 . S
C1356 C1357 1.399 . S
C1357 H1343 0.929 . S
C1357 C1356 1.399 . S
C1357 C1358 1.385 . S
C1358 H1344 0.931 . S
C1358 C1357 1.385 . S
C1358 C1359 1.389 . S
C1359 C1358 1.389 . S
C1359 C1360 1.387 . S
C1360 H1345 0.930 . S
C1360 C1355 1.390 . S
C1360 C1359 1.387 . S
H1361 C1373 0.930 . S
H1362 C1375 0.930 . S
H1363 C1376 0.930 . S
H1364 C1380 0.959 . S
H1365 C1380 0.959 . S
H1366 C1380 0.961 . S
H1367 C1381 0.960 . S
H1368 C1381 0.961 . S
H1369 C1381 0.959 . S
H1370 C1384 0.929 . S
H1371 C1385 0.931 . S
H1372 C1387 0.930 . S
C1373 H1361 0.930 . S
C1373 C1374 1.399 . S
C1373 C1378 1.399 . S
C1374 C1373 1.399 . S
C1374 C1375 1.376 . S
C1375 H1362 0.930 . S
C1375 C1374 1.376 . S
C1375 C1376 1.388 . S
C1376 H1363 0.930 . S
C1376 C1375 1.388 . S
C1376 C1377 1.390 . S
C1377 C1376 1.390 . S
C1377 C1378 1.394 . S
C1377 C1383 1.465 . S
C1378 C1373 1.399 . S
C1378 C1377 1.394 . S
C1378 C1379 1.516 . S
C1379 C1378 1.516 . S
C1379 C1380 1.502 . S
C1379 C1381 1.561 . S
C1379 C1382 1.526 . S
C1380 H1364 0.959 . S
C1380 H1365 0.959 . S
C1380 H1366 0.961 . S
C1380 C1379 1.502 . S
C1381 H1367 0.960 . S
C1381 H1368 0.961 . S
C1381 H1369 0.959 . S
C1381 C1379 1.561 . S
C1382 C1379 1.526 . S
C1382 C1383 1.396 . S
C1382 C1387 1.390 . S
C1383 C1377 1.465 . S
C1383 C1382 1.396 . S
C1383 C1384 1.399 . S
C1384 H1370 0.929 . S
C1384 C1383 1.399 . S
C1384 C1385 1.385 . S
C1385 H1371 0.931 . S
C1385 C1384 1.385 . S
C1385 C1386 1.389 . S
C1386 C1385 1.389 . S
C1386 C1387 1.387 . S
C1387 H1372 0.930 . S
C1387 C1382 1.390 . S
C1387 C1386 1.387 . S
H1388 C1400 0.930 . S
H1389 C1402 0.930 . S
H1390 C1403 0.930 . S
H1391 C1407 0.959 . S
H1392 C1407 0.959 . S
H1393 C1407 0.961 . S
H1394 C1408 0.960 . S
H1395 C1408 0.961 . S
H1396 C1408 0.959 . S
H1397 C1411 0.929 . S
H1398 C1412 0.931 . S
H1399 C1414 0.930 . S
C1400 H1388 0.930 . S
C1400 C1401 1.399 . S
C1400 C1405 1.399 . S
C1401 C1400 1.399 . S
C1401 C1402 1.376 . S
C1402 H1389 0.930 . S
C1402 C1401 1.376 . S
C1402 C1403 1.388 . S
C1403 H1390 0.930 . S
C1403 C1402 1.388 . S
C1403 C1404 1.390 . S
C1404 C1403 1.390 . S
C1404 C1405 1.394 . S
C1404 C1410 1.465 . S
C1405 C1400 1.399 . S
C1405 C1404 1.394 . S
C1405 C1406 1.516 . S
C1406 C1405 1.516 . S
C1406 C1407 1.502 . S
C1406 C1408 1.561 . S
C1406 C1409 1.526 . S
C1407 H1391 0.959 . S
C1407 H1392 0.959 . S
C1407 H1393 0.961 . S
C1407 C1406 1.502 . S
C1408 H1394 0.960 . S
C1408 H1395 0.961 . S
C1408 H1396 0.959 . S
C1408 C1406 1.561 . S
C1409 C1406 1.526 . S
C1409 C1410 1.396 . S
C1409 C1414 1.390 . S
C1410 C1404 1.465 . S
C1410 C1409 1.396 . S
C1410 C1411 1.399 . S
C1411 H1397 0.929 . S
C1411 C1410 1.399 . S
C1411 C1412 1.385 . S
C1412 H1398 0.931 . S
C1412 C1411 1.385 . S
C1412 C1413 1.389 . S
C1413 C1412 1.389 . S
C1413 C1414 1.387 . S
C1414 H1399 0.930 . S
C1414 C1409 1.390 . S
C1414 C1413 1.387 . S
H1415 C1427 0.930 . S
H1416 C1429 0.930 . S
H1417 C1430 0.930 . S
H1418 C1434 0.959 . S
H1419 C1434 0.959 . S
H1420 C1434 0.961 . S
H1421 C1435 0.960 . S
H1422 C1435 0.961 . S
H1423 C1435 0.959 . S
H1424 C1438 0.929 . S
H1425 C1439 0.931 . S
H1426 C1441 0.930 . S
C1427 H1415 0.930 . S
C1427 C1428 1.399 . S
C1427 C1432 1.399 . S
C1428 C1427 1.399 . S
C1428 C1429 1.376 . S
C1429 H1416 0.930 . S
C1429 C1428 1.376 . S
C1429 C1430 1.388 . S
C1430 H1417 0.930 . S
C1430 C1429 1.388 . S
C1430 C1431 1.390 . S
C1431 C1430 1.390 . S
C1431 C1432 1.394 . S
C1431 C1437 1.465 . S
C1432 C1427 1.399 . S
C1432 C1431 1.394 . S
C1432 C1433 1.516 . S
C1433 C1432 1.516 . S
C1433 C1434 1.502 . S
C1433 C1435 1.561 . S
C1433 C1436 1.526 . S
C1434 H1418 0.959 . S
C1434 H1419 0.959 . S
C1434 H1420 0.961 . S
C1434 C1433 1.502 . S
C1435 H1421 0.960 . S
C1435 H1422 0.961 . S
C1435 H1423 0.959 . S
C1435 C1433 1.561 . S
C1436 C1433 1.526 . S
C1436 C1437 1.396 . S
C1436 C1441 1.390 . S
C1437 C1431 1.465 . S
C1437 C1436 1.396 . S
C1437 C1438 1.399 . S
C1438 H1424 0.929 . S
C1438 C1437 1.399 . S
C1438 C1439 1.385 . S
C1439 H1425 0.931 . S
C1439 C1438 1.385 . S
C1439 C1440 1.389 . S
C1440 C1439 1.389 . S
C1440 C1441 1.387 . S
C1441 H1426 0.930 . S
C1441 C1436 1.390 . S
C1441 C1440 1.387 . S
H1442 C1454 0.930 . S
H1443 C1456 0.930 . S
H1444 C1457 0.930 . S
H1445 C1461 0.959 . S
H1446 C1461 0.959 . S
H1447 C1461 0.961 . S
H1448 C1462 0.960 . S
H1449 C1462 0.961 . S
H1450 C1462 0.959 . S
H1451 C1465 0.929 . S
H1452 C1466 0.931 . S
H1453 C1468 0.930 . S
C1454 H1442 0.930 . S
C1454 C1455 1.399 . S
C1454 C1459 1.399 . S
C1455 C1454 1.399 . S
C1455 C1456 1.376 . S
C1456 H1443 0.930 . S
C1456 C1455 1.376 . S
C1456 C1457 1.388 . S
C1457 H1444 0.930 . S
C1457 C1456 1.388 . S
C1457 C1458 1.390 . S
C1458 C1457 1.390 . S
C1458 C1459 1.394 . S
C1458 C1464 1.465 . S
C1459 C1454 1.399 . S
C1459 C1458 1.394 . S
C1459 C1460 1.516 . S
C1460 C1459 1.516 . S
C1460 C1461 1.502 . S
C1460 C1462 1.561 . S
C1460 C1463 1.526 . S
C1461 H1445 0.959 . S
C1461 H1446 0.959 . S
C1461 H1447 0.961 . S
C1461 C1460 1.502 . S
C1462 H1448 0.960 . S
C1462 H1449 0.961 . S
C1462 H1450 0.959 . S
C1462 C1460 1.561 . S
C1463 C1460 1.526 . S
C1463 C1464 1.396 . S
C1463 C1468 1.390 . S
C1464 C1458 1.465 . S
C1464 C1463 1.396 . S
C1464 C1465 1.399 . S
C1465 H1451 0.929 . S
C1465 C1464 1.399 . S
C1465 C1466 1.385 . S
C1466 H1452 0.931 . S
C1466 C1465 1.385 . S
C1466 C1467 1.389 . S
C1467 C1466 1.389 . S
C1467 C1468 1.387 . S
C1468 H1453 0.930 . S
C1468 C1463 1.390 . S
C1468 C1467 1.387 . S
H1469 C1481 0.930 . S
H1470 C1483 0.930 . S
H1471 C1484 0.930 . S
H1472 C1488 0.959 . S
H1473 C1488 0.959 . S
H1474 C1488 0.961 . S
H1475 C1489 0.960 . S
H1476 C1489 0.961 . S
H1477 C1489 0.959 . S
H1478 C1492 0.929 . S
H1479 C1493 0.931 . S
H1480 C1495 0.930 . S
C1481 H1469 0.930 . S
C1481 C1482 1.399 . S
C1481 C1486 1.399 . S
C1482 C1481 1.399 . S
C1482 C1483 1.376 . S
C1483 H1470 0.930 . S
C1483 C1482 1.376 . S
C1483 C1484 1.388 . S
C1484 H1471 0.930 . S
C1484 C1483 1.388 . S
C1484 C1485 1.390 . S
C1485 C1484 1.390 . S
C1485 C1486 1.394 . S
C1485 C1491 1.465 . S
C1486 C1481 1.399 . S
C1486 C1485 1.394 . S
C1486 C1487 1.516 . S
C1487 C1486 1.516 . S
C1487 C1488 1.502 . S
C1487 C1489 1.561 . S
C1487 C1490 1.526 . S
C1488 H1472 0.959 . S
C1488 H1473 0.959 . S
C1488 H1474 0.961 . S
C1488 C1487 1.502 . S
C1489 H1475 0.960 . S
C1489 H1476 0.961 . S
C1489 H1477 0.959 . S
C1489 C1487 1.561 . S
C1490 C1487 1.526 . S
C1490 C1491 1.396 . S
C1490 C1495 1.390 . S
C1491 C1485 1.465 . S
C1491 C1490 1.396 . S
C1491 C1492 1.399 . S
C1492 H1478 0.929 . S
C1492 C1491 1.399 . S
C1492 C1493 1.385 . S
C1493 H1479 0.931 . S
C1493 C1492 1.385 . S
C1493 C1494 1.389 . S
C1494 C1493 1.389 . S
C1494 C1495 1.387 . S
C1495 H1480 0.930 . S
C1495 C1490 1.390 . S
C1495 C1494 1.387 . S
H1496 C1508 0.930 . S
H1497 C1510 0.930 . S
H1498 C1511 0.930 . S
H1499 C1515 0.959 . S
H1500 C1515 0.959 . S
H1501 C1515 0.961 . S
H1502 C1516 0.960 . S
H1503 C1516 0.961 . S
H1504 C1516 0.959 . S
H1505 C1519 0.929 . S
H1506 C1520 0.931 . S
H1507 C1522 0.930 . S
C1508 H1496 0.930 . S
C1508 C1509 1.399 . S
C1508 C1513 1.399 . S
C1509 C1508 1.399 . S
C1509 C1510 1.376 . S
C1510 H1497 0.930 . S
C1510 C1509 1.376 . S
C1510 C1511 1.388 . S
C1511 H1498 0.930 . S
C1511 C1510 1.388 . S
C1511 C1512 1.390 . S
C1512 C1511 1.390 . S
C1512 C1513 1.394 . S
C1512 C1518 1.465 . S
C1513 C1508 1.399 . S
C1513 C1512 1.394 . S
C1513 C1514 1.516 . S
C1514 C1513 1.516 . S
C1514 C1515 1.502 . S
C1514 C1516 1.561 . S
C1514 C1517 1.526 . S
C1515 H1499 0.959 . S
C1515 H1500 0.959 . S
C1515 H1501 0.961 . S
C1515 C1514 1.502 . S
C1516 H1502 0.960 . S
C1516 H1503 0.961 . S
C1516 H1504 0.959 . S
C1516 C1514 1.561 . S
C1517 C1514 1.526 . S
C1517 C1518 1.396 . S
C1517 C1522 1.390 . S
C1518 C1512 1.465 . S
C1518 C1517 1.396 . S
C1518 C1519 1.399 . S
C1519 H1505 0.929 . S
C1519 C1518 1.399 . S
C1519 C1520 1.385 . S
C1520 H1506 0.931 . S
C1520 C1519 1.385 . S
C1520 C1521 1.389 . S
C1521 C1520 1.389 . S
C1521 C1522 1.387 . S
C1522 H1507 0.930 . S
C1522 C1517 1.390 . S
C1522 C1521 1.387 . S
H1523 C1535 0.930 . S
H1524 C1537 0.930 . S
H1525 C1538 0.930 . S
H1526 C1542 0.959 . S
H1527 C1542 0.959 . S
H1528 C1542 0.961 . S
H1529 C1543 0.960 . S
H1530 C1543 0.961 . S
H1531 C1543 0.959 . S
H1532 C1546 0.929 . S
H1533 C1547 0.931 . S
H1534 C1549 0.930 . S
C1535 H1523 0.930 . S
C1535 C1536 1.399 . S
C1535 C1540 1.399 . S
C1536 C1535 1.399 . S
C1536 C1537 1.376 . S
C1537 H1524 0.930 . S
C1537 C1536 1.376 . S
C1537 C1538 1.388 . S
C1538 H1525 0.930 . S
C1538 C1537 1.388 . S
C1538 C1539 1.390 . S
C1539 C1538 1.390 . S
C1539 C1540 1.394 . S
C1539 C1545 1.465 . S
C1540 C1535 1.399 . S
C1540 C1539 1.394 . S
C1540 C1541 1.516 . S
C1541 C1540 1.516 . S
C1541 C1542 1.502 . S
C1541 C1543 1.561 . S
C1541 C1544 1.526 . S
C1542 H1526 0.959 . S
C1542 H1527 0.959 . S
C1542 H1528 0.961 . S
C1542 C1541 1.502 . S
C1543 H1529 0.960 . S
C1543 H1530 0.961 . S
C1543 H1531 0.959 . S
C1543 C1541 1.561 . S
C1544 C1541 1.526 . S
C1544 C1545 1.396 . S
C1544 C1549 1.390 . S
C1545 C1539 1.465 . S
C1545 C1544 1.396 . S
C1545 C1546 1.399 . S
C1546 H1532 0.929 . S
C1546 C1545 1.399 . S
C1546 C1547 1.385 . S
C1547 H1533 0.931 . S
C1547 C1546 1.385 . S
C1547 C1548 1.389 . S
C1548 C1547 1.389 . S
C1548 C1549 1.387 . S
C1549 H1534 0.930 . S
C1549 C1544 1.390 . S
C1549 C1548 1.387 . S
H1550 C1562 0.930 . S
H1551 C1564 0.930 . S
H1552 C1565 0.930 . S
H1553 C1569 0.959 . S
H1554 C1569 0.959 . S
H1555 C1569 0.961 . S
H1556 C1570 0.960 . S
H1557 C1570 0.961 . S
H1558 C1570 0.959 . S
H1559 C1573 0.929 . S
H1560 C1574 0.931 . S
H1561 C1576 0.930 . S
C1562 H1550 0.930 . S
C1562 C1563 1.399 . S
C1562 C1567 1.399 . S
C1563 C1562 1.399 . S
C1563 C1564 1.376 . S
C1564 H1551 0.930 . S
C1564 C1563 1.376 . S
C1564 C1565 1.388 . S
C1565 H1552 0.930 . S
C1565 C1564 1.388 . S
C1565 C1566 1.390 . S
C1566 C1565 1.390 . S
C1566 C1567 1.394 . S
C1566 C1572 1.465 . S
C1567 C1562 1.399 . S
C1567 C1566 1.394 . S
C1567 C1568 1.516 . S
C1568 C1567 1.516 . S
C1568 C1569 1.502 . S
C1568 C1570 1.561 . S
C1568 C1571 1.526 . S
C1569 H1553 0.959 . S
C1569 H1554 0.959 . S
C1569 H1555 0.961 . S
C1569 C1568 1.502 . S
C1570 H1556 0.960 . S
C1570 H1557 0.961 . S
C1570 H1558 0.959 . S
C1570 C1568 1.561 . S
C1571 C1568 1.526 . S
C1571 C1572 1.396 . S
C1571 C1576 1.390 . S
C1572 C1566 1.465 . S
C1572 C1571 1.396 . S
C1572 C1573 1.399 . S
C1573 H1559 0.929 . S
C1573 C1572 1.399 . S
C1573 C1574 1.385 . S
C1574 H1560 0.931 . S
C1574 C1573 1.385 . S
C1574 C1575 1.389 . S
C1575 C1574 1.389 . S
C1575 C1576 1.387 . S
C1576 H1561 0.930 . S
C1576 C1571 1.390 . S
C1576 C1575 1.387 . S
H1577 C1589 0.930 . S
H1578 C1591 0.930 . S
H1579 C1592 0.930 . S
H1580 C1596 0.959 . S
H1581 C1596 0.959 . S
H1582 C1596 0.961 . S
H1583 C1597 0.960 . S
H1584 C1597 0.961 . S
H1585 C1597 0.959 . S
H1586 C1600 0.929 . S
H1587 C1601 0.931 . S
H1588 C1603 0.930 . S
C1589 H1577 0.930 . S
C1589 C1590 1.399 . S
C1589 C1594 1.399 . S
C1590 C1589 1.399 . S
C1590 C1591 1.376 . S
C1591 H1578 0.930 . S
C1591 C1590 1.376 . S
C1591 C1592 1.388 . S
C1592 H1579 0.930 . S
C1592 C1591 1.388 . S
C1592 C1593 1.390 . S
C1593 C1592 1.390 . S
C1593 C1594 1.394 . S
C1593 C1599 1.465 . S
C1594 C1589 1.399 . S
C1594 C1593 1.394 . S
C1594 C1595 1.516 . S
C1595 C1594 1.516 . S
C1595 C1596 1.502 . S
C1595 C1597 1.561 . S
C1595 C1598 1.526 . S
C1596 H1580 0.959 . S
C1596 H1581 0.959 . S
C1596 H1582 0.961 . S
C1596 C1595 1.502 . S
C1597 H1583 0.960 . S
C1597 H1584 0.961 . S
C1597 H1585 0.959 . S
C1597 C1595 1.561 . S
C1598 C1595 1.526 . S
C1598 C1599 1.396 . S
C1598 C1603 1.390 . S
C1599 C1593 1.465 . S
C1599 C1598 1.396 . S
C1599 C1600 1.399 . S
C1600 H1586 0.929 . S
C1600 C1599 1.399 . S
C1600 C1601 1.385 . S
C1601 H1587 0.931 . S
C1601 C1600 1.385 . S
C1601 C1602 1.389 . S
C1602 C1601 1.389 . S
C1602 C1603 1.387 . S
C1603 H1588 0.930 . S
C1603 C1598 1.390 . S
C1603 C1602 1.387 . S
H1604 C1616 0.930 . S
H1605 C1618 0.930 . S
H1606 C1619 0.930 . S
H1607 C1623 0.959 . S
H1608 C1623 0.959 . S
H1609 C1623 0.961 . S
H1610 C1624 0.960 . S
H1611 C1624 0.961 . S
H1612 C1624 0.959 . S
H1613 C1627 0.929 . S
H1614 C1628 0.931 . S
H1615 C1630 0.930 . S
C1616 H1604 0.930 . S
C1616 C1617 1.399 . S
C1616 C1621 1.399 . S
C1617 C1616 1.399 . S
C1617 C1618 1.376 . S
C1618 H1605 0.930 . S
C1618 C1617 1.376 . S
C1618 C1619 1.388 . S
C1619 H1606 0.930 . S
C1619 C1618 1.388 . S
C1619 C1620 1.390 . S
C1620 C1619 1.390 . S
C1620 C1621 1.394 . S
C1620 C1626 1.465 . S
C1621 C1616 1.399 . S
C1621 C1620 1.394 . S
C1621 C1622 1.516 . S
C1622 C1621 1.516 . S
C1622 C1623 1.502 . S
C1622 C1624 1.561 . S
C1622 C1625 1.526 . S
C1623 H1607 0.959 . S
C1623 H1608 0.959 . S
C1623 H1609 0.961 . S
C1623 C1622 1.502 . S
C1624 H1610 0.960 . S
C1624 H1611 0.961 . S
C1624 H1612 0.959 . S
C1624 C1622 1.561 . S
C1625 C1622 1.526 . S
C1625 C1626 1.396 . S
C1625 C1630 1.390 . S
C1626 C1620 1.465 . S
C1626 C1625 1.396 . S
C1626 C1627 1.399 . S
C1627 H1613 0.929 . S
C1627 C1626 1.399 . S
C1627 C1628 1.385 . S
C1628 H1614 0.931 . S
C1628 C1627 1.385 . S
C1628 C1629 1.389 . S
C1629 C1628 1.389 . S
C1629 C1630 1.387 . S
C1630 H1615 0.930 . S
C1630 C1625 1.390 . S
C1630 C1629 1.387 . S
H1631 C1643 0.930 . S
H1632 C1645 0.930 . S
H1633 C1646 0.930 . S
H1634 C1650 0.959 . S
H1635 C1650 0.959 . S
H1636 C1650 0.961 . S
H1637 C1651 0.960 . S
H1638 C1651 0.961 . S
H1639 C1651 0.959 . S
H1640 C1654 0.929 . S
H1641 C1655 0.931 . S
H1642 C1657 0.930 . S
C1643 H1631 0.930 . S
C1643 C1644 1.399 . S
C1643 C1648 1.399 . S
C1644 C1643 1.399 . S
C1644 C1645 1.376 . S
C1645 H1632 0.930 . S
C1645 C1644 1.376 . S
C1645 C1646 1.388 . S
C1646 H1633 0.930 . S
C1646 C1645 1.388 . S
C1646 C1647 1.390 . S
C1647 C1646 1.390 . S
C1647 C1648 1.394 . S
C1647 C1653 1.465 . S
C1648 C1643 1.399 . S
C1648 C1647 1.394 . S
C1648 C1649 1.516 . S
C1649 C1648 1.516 . S
C1649 C1650 1.502 . S
C1649 C1651 1.561 . S
C1649 C1652 1.526 . S
C1650 H1634 0.959 . S
C1650 H1635 0.959 . S
C1650 H1636 0.961 . S
C1650 C1649 1.502 . S
C1651 H1637 0.960 . S
C1651 H1638 0.961 . S
C1651 H1639 0.959 . S
C1651 C1649 1.561 . S
C1652 C1649 1.526 . S
C1652 C1653 1.396 . S
C1652 C1657 1.390 . S
C1653 C1647 1.465 . S
C1653 C1652 1.396 . S
C1653 C1654 1.399 . S
C1654 H1640 0.929 . S
C1654 C1653 1.399 . S
C1654 C1655 1.385 . S
C1655 H1641 0.931 . S
C1655 C1654 1.385 . S
C1655 C1656 1.389 . S
C1656 C1655 1.389 . S
C1656 C1657 1.387 . S
C1657 H1642 0.930 . S
C1657 C1652 1.390 . S
C1657 C1656 1.387 . S
H1658 C1670 0.930 . S
H1659 C1672 0.930 . S
H1660 C1673 0.930 . S
H1661 C1677 0.959 . S
H1662 C1677 0.959 . S
H1663 C1677 0.961 . S
H1664 C1678 0.960 . S
H1665 C1678 0.961 . S
H1666 C1678 0.959 . S
H1667 C1681 0.929 . S
H1668 C1682 0.931 . S
H1669 C1684 0.930 . S
C1670 H1658 0.930 . S
C1670 C1671 1.399 . S
C1670 C1675 1.399 . S
C1671 C1670 1.399 . S
C1671 C1672 1.376 . S
C1672 H1659 0.930 . S
C1672 C1671 1.376 . S
C1672 C1673 1.388 . S
C1673 H1660 0.930 . S
C1673 C1672 1.388 . S
C1673 C1674 1.390 . S
C1674 C1673 1.390 . S
C1674 C1675 1.394 . S
C1674 C1680 1.465 . S
C1675 C1670 1.399 . S
C1675 C1674 1.394 . S
C1675 C1676 1.516 . S
C1676 C1675 1.516 . S
C1676 C1677 1.502 . S
C1676 C1678 1.561 . S
C1676 C1679 1.526 . S
C1677 H1661 0.959 . S
C1677 H1662 0.959 . S
C1677 H1663 0.961 . S
C1677 C1676 1.502 . S
C1678 H1664 0.960 . S
C1678 H1665 0.961 . S
C1678 H1666 0.959 . S
C1678 C1676 1.561 . S
C1679 C1676 1.526 . S
C1679 C1680 1.396 . S
C1679 C1684 1.390 . S
C1680 C1674 1.465 . S
C1680 C1679 1.396 . S
C1680 C1681 1.399 . S
C1681 H1667 0.929 . S
C1681 C1680 1.399 . S
C1681 C1682 1.385 . S
C1682 H1668 0.931 . S
C1682 C1681 1.385 . S
C1682 C1683 1.389 . S
C1683 C1682 1.389 . S
C1683 C1684 1.387 . S
C1684 H1669 0.930 . S
C1684 C1679 1.390 . S
C1684 C1683 1.387 . S
H1685 C1697 0.930 . S
H1686 C1699 0.930 . S
H1687 C1700 0.930 . S
H1688 C1704 0.959 . S
H1689 C1704 0.959 . S
H1690 C1704 0.961 . S
H1691 C1705 0.960 . S
H1692 C1705 0.961 . S
H1693 C1705 0.959 . S
H1694 C1708 0.929 . S
H1695 C1709 0.931 . S
H1696 C1711 0.930 . S
C1697 H1685 0.930 . S
C1697 C1698 1.399 . S
C1697 C1702 1.399 . S
C1698 C1697 1.399 . S
C1698 C1699 1.376 . S
C1699 H1686 0.930 . S
C1699 C1698 1.376 . S
C1699 C1700 1.388 . S
C1700 H1687 0.930 . S
C1700 C1699 1.388 . S
C1700 C1701 1.390 . S
C1701 C1700 1.390 . S
C1701 C1702 1.394 . S
C1701 C1707 1.465 . S
C1702 C1697 1.399 . S
C1702 C1701 1.394 . S
C1702 C1703 1.516 . S
C1703 C1702 1.516 . S
C1703 C1704 1.502 . S
C1703 C1705 1.561 . S
C1703 C1706 1.526 . S
C1704 H1688 0.959 . S
C1704 H1689 0.959 . S
C1704 H1690 0.961 . S
C1704 C1703 1.502 . S
C1705 H1691 0.960 . S
C1705 H1692 0.961 . S
C1705 H1693 0.959 . S
C1705 C1703 1.561 . S
C1706 C1703 1.526 . S
C1706 C1707 1.396 . S
C1706 C1711 1.390 . S
C1707 C1701 1.465 . S
C1707 C1706 1.396 . S
C1707 C1708 1.399 . S
C1708 H1694 0.929 . S
C1708 C1707 1.399 . S
C1708 C1709 1.385 . S
C1709 H1695 0.931 . S
C1709 C1708 1.385 . S
C1709 C1710 1.389 . S
C1710 C1709 1.389 . S
C1710 C1711 1.387 . S
C1711 H1696 0.930 . S
C1711 C1706 1.390 . S
C1711 C1710 1.387 . S
H1712 C1724 0.930 . S
H1713 C1726 0.930 . S
H1714 C1727 0.930 . S
H1715 C1731 0.959 . S
H1716 C1731 0.959 . S
H1717 C1731 0.961 . S
H1718 C1732 0.960 . S
H1719 C1732 0.961 . S
H1720 C1732 0.959 . S
H1721 C1735 0.929 . S
H1722 C1736 0.931 . S
H1723 C1738 0.930 . S
C1724 H1712 0.930 . S
C1724 C1725 1.399 . S
C1724 C1729 1.399 . S
C1725 C1724 1.399 . S
C1725 C1726 1.376 . S
C1726 H1713 0.930 . S
C1726 C1725 1.376 . S
C1726 C1727 1.388 . S
C1727 H1714 0.930 . S
C1727 C1726 1.388 . S
C1727 C1728 1.390 . S
C1728 C1727 1.390 . S
C1728 C1729 1.394 . S
C1728 C1734 1.465 . S
C1729 C1724 1.399 . S
C1729 C1728 1.394 . S
C1729 C1730 1.516 . S
C1730 C1729 1.516 . S
C1730 C1731 1.502 . S
C1730 C1732 1.561 . S
C1730 C1733 1.526 . S
C1731 H1715 0.959 . S
C1731 H1716 0.959 . S
C1731 H1717 0.961 . S
C1731 C1730 1.502 . S
C1732 H1718 0.960 . S
C1732 H1719 0.961 . S
C1732 H1720 0.959 . S
C1732 C1730 1.561 . S
C1733 C1730 1.526 . S
C1733 C1734 1.396 . S
C1733 C1738 1.390 . S
C1734 C1728 1.465 . S
C1734 C1733 1.396 . S
C1734 C1735 1.399 . S
C1735 H1721 0.929 . S
C1735 C1734 1.399 . S
C1735 C1736 1.385 . S
C1736 H1722 0.931 . S
C1736 C1735 1.385 . S
C1736 C1737 1.389 . S
C1737 C1736 1.389 . S
C1737 C1738 1.387 . S
C1738 H1723 0.930 . S
C1738 C1733 1.390 . S
C1738 C1737 1.387 . S
H1739 C1751 0.930 . S
H1740 C1753 0.930 . S
H1741 C1754 0.930 . S
H1742 C1758 0.959 . S
H1743 C1758 0.959 . S
H1744 C1758 0.961 . S
H1745 C1759 0.960 . S
H1746 C1759 0.961 . S
H1747 C1759 0.959 . S
H1748 C1762 0.929 . S
H1749 C1763 0.931 . S
H1750 C1765 0.930 . S
C1751 H1739 0.930 . S
C1751 C1752 1.399 . S
C1751 C1756 1.399 . S
C1752 C1751 1.399 . S
C1752 C1753 1.376 . S
C1753 H1740 0.930 . S
C1753 C1752 1.376 . S
C1753 C1754 1.388 . S
C1754 H1741 0.930 . S
C1754 C1753 1.388 . S
C1754 C1755 1.390 . S
C1755 C1754 1.390 . S
C1755 C1756 1.394 . S
C1755 C1761 1.465 . S
C1756 C1751 1.399 . S
C1756 C1755 1.394 . S
C1756 C1757 1.516 . S
C1757 C1756 1.516 . S
C1757 C1758 1.502 . S
C1757 C1759 1.561 . S
C1757 C1760 1.526 . S
C1758 H1742 0.959 . S
C1758 H1743 0.959 . S
C1758 H1744 0.961 . S
C1758 C1757 1.502 . S
C1759 H1745 0.960 . S
C1759 H1746 0.961 . S
C1759 H1747 0.959 . S
C1759 C1757 1.561 . S
C1760 C1757 1.526 . S
C1760 C1761 1.396 . S
C1760 C1765 1.390 . S
C1761 C1755 1.465 . S
C1761 C1760 1.396 . S
C1761 C1762 1.399 . S
C1762 H1748 0.929 . S
C1762 C1761 1.399 . S
C1762 C1763 1.385 . S
C1763 H1749 0.931 . S
C1763 C1762 1.385 . S
C1763 C1764 1.389 . S
C1764 C1763 1.389 . S
C1764 C1765 1.387 . S
C1765 H1750 0.930 . S
C1765 C1760 1.390 . S
C1765 C1764 1.387 . S
H1766 C1778 0.930 . S
H1767 C1780 0.930 . S
H1768 C1781 0.930 . S
H1769 C1785 0.959 . S
H1770 C1785 0.959 . S
H1771 C1785 0.961 . S
H1772 C1786 0.960 . S
H1773 C1786 0.961 . S
H1774 C1786 0.959 . S
H1775 C1789 0.929 . S
H1776 C1790 0.931 . S
H1777 C1792 0.930 . S
C1778 H1766 0.930 . S
C1778 C1779 1.399 . S
C1778 C1783 1.399 . S
C1779 C1778 1.399 . S
C1779 C1780 1.376 . S
C1780 H1767 0.930 . S
C1780 C1779 1.376 . S
C1780 C1781 1.388 . S
C1781 H1768 0.930 . S
C1781 C1780 1.388 . S
C1781 C1782 1.390 . S
C1782 C1781 1.390 . S
C1782 C1783 1.394 . S
C1782 C1788 1.465 . S
C1783 C1778 1.399 . S
C1783 C1782 1.394 . S
C1783 C1784 1.516 . S
C1784 C1783 1.516 . S
C1784 C1785 1.502 . S
C1784 C1786 1.561 . S
C1784 C1787 1.526 . S
C1785 H1769 0.959 . S
C1785 H1770 0.959 . S
C1785 H1771 0.961 . S
C1785 C1784 1.502 . S
C1786 H1772 0.960 . S
C1786 H1773 0.961 . S
C1786 H1774 0.959 . S
C1786 C1784 1.561 . S
C1787 C1784 1.526 . S
C1787 C1788 1.396 . S
C1787 C1792 1.390 . S
C1788 C1782 1.465 . S
C1788 C1787 1.396 . S
C1788 C1789 1.399 . S
C1789 H1775 0.929 . S
C1789 C1788 1.399 . S
C1789 C1790 1.385 . S
C1790 H1776 0.931 . S
C1790 C1789 1.385 . S
C1790 C1791 1.389 . S
C1791 C1790 1.389 . S
C1791 C1792 1.387 . S
C1792 H1777 0.930 . S
C1792 C1787 1.390 . S
C1792 C1791 1.387 . S
H1793 C1805 0.930 . S
H1794 C1807 0.930 . S
H1795 C1808 0.930 . S
H1796 C1812 0.959 . S
H1797 C1812 0.959 . S
H1798 C1812 0.961 . S
H1799 C1813 0.960 . S
H1800 C1813 0.961 . S
H1801 C1813 0.959 . S
H1802 C1816 0.929 . S
H1803 C1817 0.931 . S
H1804 C1819 0.930 . S
C1805 H1793 0.930 . S
C1805 C1806 1.399 . S
C1805 C1810 1.399 . S
C1806 C1805 1.399 . S
C1806 C1807 1.376 . S
C1807 H1794 0.930 . S
C1807 C1806 1.376 . S
C1807 C1808 1.388 . S
C1808 H1795 0.930 . S
C1808 C1807 1.388 . S
C1808 C1809 1.390 . S
C1809 C1808 1.390 . S
C1809 C1810 1.394 . S
C1809 C1815 1.465 . S
C1810 C1805 1.399 . S
C1810 C1809 1.394 . S
C1810 C1811 1.516 . S
C1811 C1810 1.516 . S
C1811 C1812 1.502 . S
C1811 C1813 1.561 . S
C1811 C1814 1.526 . S
C1812 H1796 0.959 . S
C1812 H1797 0.959 . S
C1812 H1798 0.961 . S
C1812 C1811 1.502 . S
C1813 H1799 0.960 . S
C1813 H1800 0.961 . S
C1813 H1801 0.959 . S
C1813 C1811 1.561 . S
C1814 C1811 1.526 . S
C1814 C1815 1.396 . S
C1814 C1819 1.390 . S
C1815 C1809 1.465 . S
C1815 C1814 1.396 . S
C1815 C1816 1.399 . S
C1816 H1802 0.929 . S
C1816 C1815 1.399 . S
C1816 C1817 1.385 . S
C1817 H1803 0.931 . S
C1817 C1816 1.385 . S
C1817 C1818 1.389 . S
C1818 C1817 1.389 . S
C1818 C1819 1.387 . S
C1819 H1804 0.930 . S
C1819 C1814 1.390 . S
C1819 C1818 1.387 . S
H1820 C1832 0.930 . S
H1821 C1834 0.930 . S
H1822 C1835 0.930 . S
H1823 C1839 0.959 . S
H1824 C1839 0.959 . S
H1825 C1839 0.961 . S
H1826 C1840 0.960 . S
H1827 C1840 0.961 . S
H1828 C1840 0.959 . S
H1829 C1843 0.929 . S
H1830 C1844 0.931 . S
H1831 C1846 0.930 . S
C1832 H1820 0.930 . S
C1832 C1833 1.399 . S
C1832 C1837 1.399 . S
C1833 C1832 1.399 . S
C1833 C1834 1.376 . S
C1834 H1821 0.930 . S
C1834 C1833 1.376 . S
C1834 C1835 1.388 . S
C1835 H1822 0.930 . S
C1835 C1834 1.388 . S
C1835 C1836 1.390 . S
C1836 C1835 1.390 . S
C1836 C1837 1.394 . S
C1836 C1842 1.465 . S
C1837 C1832 1.399 . S
C1837 C1836 1.394 . S
C1837 C1838 1.516 . S
C1838 C1837 1.516 . S
C1838 C1839 1.502 . S
C1838 C1840 1.561 . S
C1838 C1841 1.526 . S
C1839 H1823 0.959 . S
C1839 H1824 0.959 . S
C1839 H1825 0.961 . S
C1839 C1838 1.502 . S
C1840 H1826 0.960 . S
C1840 H1827 0.961 . S
C1840 H1828 0.959 . S
C1840 C1838 1.561 . S
C1841 C1838 1.526 . S
C1841 C1842 1.396 . S
C1841 C1846 1.390 . S
C1842 C1836 1.465 . S
C1842 C1841 1.396 . S
C1842 C1843 1.399 . S
C1843 H1829 0.929 . S
C1843 C1842 1.399 . S
C1843 C1844 1.385 . S
C1844 H1830 0.931 . S
C1844 C1843 1.385 . S
C1844 C1845 1.389 . S
C1845 C1844 1.389 . S
C1845 C1846 1.387 . S
C1846 H1831 0.930 . S
C1846 C1841 1.390 . S
C1846 C1845 1.387 . S
H1847 C1859 0.930 . S
H1848 C1861 0.930 . S
H1849 C1862 0.930 . S
H1850 C1866 0.959 . S
H1851 C1866 0.959 . S
H1852 C1866 0.961 . S
H1853 C1867 0.960 . S
H1854 C1867 0.961 . S
H1855 C1867 0.959 . S
H1856 C1870 0.929 . S
H1857 C1871 0.931 . S
H1858 C1873 0.930 . S
C1859 H1847 0.930 . S
C1859 C1860 1.399 . S
C1859 C1864 1.399 . S
C1860 C1859 1.399 . S
C1860 C1861 1.376 . S
C1861 H1848 0.930 . S
C1861 C1860 1.376 . S
C1861 C1862 1.388 . S
C1862 H1849 0.930 . S
C1862 C1861 1.388 . S
C1862 C1863 1.390 . S
C1863 C1862 1.390 . S
C1863 C1864 1.394 . S
C1863 C1869 1.465 . S
C1864 C1859 1.399 . S
C1864 C1863 1.394 . S
C1864 C1865 1.516 . S
C1865 C1864 1.516 . S
C1865 C1866 1.502 . S
C1865 C1867 1.561 . S
C1865 C1868 1.526 . S
C1866 H1850 0.959 . S
C1866 H1851 0.959 . S
C1866 H1852 0.961 . S
C1866 C1865 1.502 . S
C1867 H1853 0.960 . S
C1867 H1854 0.961 . S
C1867 H1855 0.959 . S
C1867 C1865 1.561 . S
C1868 C1865 1.526 . S
C1868 C1869 1.396 . S
C1868 C1873 1.390 . S
C1869 C1863 1.465 . S
C1869 C1868 1.396 . S
C1869 C1870 1.399 . S
C1870 H1856 0.929 . S
C1870 C1869 1.399 . S
C1870 C1871 1.385 . S
C1871 H1857 0.931 . S
C1871 C1870 1.385 . S
C1871 C1872 1.389 . S
C1872 C1871 1.389 . S
C1872 C1873 1.387 . S
C1873 H1858 0.930 . S
C1873 C1868 1.390 . S
C1873 C1872 1.387 . S
H1874 C1886 0.930 . S
H1875 C1888 0.930 . S
H1876 C1889 0.930 . S
H1877 C1893 0.959 . S
H1878 C1893 0.959 . S
H1879 C1893 0.961 . S
H1880 C1894 0.960 . S
H1881 C1894 0.961 . S
H1882 C1894 0.959 . S
H1883 C1897 0.929 . S
H1884 C1898 0.931 . S
H1885 C1900 0.930 . S
C1886 H1874 0.930 . S
C1886 C1887 1.399 . S
C1886 C1891 1.399 . S
C1887 C1886 1.399 . S
C1887 C1888 1.376 . S
C1888 H1875 0.930 . S
C1888 C1887 1.376 . S
C1888 C1889 1.388 . S
C1889 H1876 0.930 . S
C1889 C1888 1.388 . S
C1889 C1890 1.390 . S
C1890 C1889 1.390 . S
C1890 C1891 1.394 . S
C1890 C1896 1.465 . S
C1891 C1886 1.399 . S
C1891 C1890 1.394 . S
C1891 C1892 1.516 . S
C1892 C1891 1.516 . S
C1892 C1893 1.502 . S
C1892 C1894 1.561 . S
C1892 C1895 1.526 . S
C1893 H1877 0.959 . S
C1893 H1878 0.959 . S
C1893 H1879 0.961 . S
C1893 C1892 1.502 . S
C1894 H1880 0.960 . S
C1894 H1881 0.961 . S
C1894 H1882 0.959 . S
C1894 C1892 1.561 . S
C1895 C1892 1.526 . S
C1895 C1896 1.396 . S
C1895 C1900 1.390 . S
C1896 C1890 1.465 . S
C1896 C1895 1.396 . S
C1896 C1897 1.399 . S
C1897 H1883 0.929 . S
C1897 C1896 1.399 . S
C1897 C1898 1.385 . S
C1898 H1884 0.931 . S
C1898 C1897 1.385 . S
C1898 C1899 1.389 . S
C1899 C1898 1.389 . S
C1899 C1900 1.387 . S
C1900 H1885 0.930 . S
C1900 C1895 1.390 . S
C1900 C1899 1.387 . S
H1901 C1913 0.930 . S
H1902 C1915 0.930 . S
H1903 C1916 0.930 . S
H1904 C1920 0.959 . S
H1905 C1920 0.959 . S
H1906 C1920 0.961 . S
H1907 C1921 0.960 . S
H1908 C1921 0.961 . S
H1909 C1921 0.959 . S
H1910 C1924 0.929 . S
H1911 C1925 0.931 . S
H1912 C1927 0.930 . S
C1913 H1901 0.930 . S
C1913 C1914 1.399 . S
C1913 C1918 1.399 . S
C1914 C1913 1.399 . S
C1914 C1915 1.376 . S
C1915 H1902 0.930 . S
C1915 C1914 1.376 . S
C1915 C1916 1.388 . S
C1916 H1903 0.930 . S
C1916 C1915 1.388 . S
C1916 C1917 1.390 . S
C1917 C1916 1.390 . S
C1917 C1918 1.394 . S
C1917 C1923 1.465 . S
C1918 C1913 1.399 . S
C1918 C1917 1.394 . S
C1918 C1919 1.516 . S
C1919 C1918 1.516 . S
C1919 C1920 1.502 . S
C1919 C1921 1.561 . S
C1919 C1922 1.526 . S
C1920 H1904 0.959 . S
C1920 H1905 0.959 . S
C1920 H1906 0.961 . S
C1920 C1919 1.502 . S
C1921 H1907 0.960 . S
C1921 H1908 0.961 . S
C1921 H1909 0.959 . S
C1921 C1919 1.561 . S
C1922 C1919 1.526 . S
C1922 C1923 1.396 . S
C1922 C1927 1.390 . S
C1923 C1917 1.465 . S
C1923 C1922 1.396 . S
C1923 C1924 1.399 . S
C1924 H1910 0.929 . S
C1924 C1923 1.399 . S
C1924 C1925 1.385 . S
C1925 H1911 0.931 . S
C1925 C1924 1.385 . S
C1925 C1926 1.389 . S
C1926 C1925 1.389 . S
C1926 C1927 1.387 . S
C1927 H1912 0.930 . S
C1927 C1922 1.390 . S
C1927 C1926 1.387 . S
H1928 C1940 0.930 . S
H1929 C1942 0.930 . S
H1930 C1943 0.930 . S
H1931 C1947 0.959 . S
H1932 C1947 0.959 . S
H1933 C1947 0.961 . S
H1934 C1948 0.960 . S
H1935 C1948 0.961 . S
H1936 C1948 0.959 . S
H1937 C1951 0.929 . S
H1938 C1952 0.931 . S
H1939 C1954 0.930 . S
C1940 H1928 0.930 . S
C1940 C1941 1.399 . S
C1940 C1945 1.399 . S
C1941 C1940 1.399 . S
C1941 C1942 1.376 . S
C1942 H1929 0.930 . S
C1942 C1941 1.376 . S
C1942 C1943 1.388 . S
C1943 H1930 0.930 . S
C1943 C1942 1.388 . S
C1943 C1944 1.390 . S
C1944 C1943 1.390 . S
C1944 C1945 1.394 . S
C1944 C1950 1.465 . S
C1945 C1940 1.399 . S
C1945 C1944 1.394 . S
C1945 C1946 1.516 . S
C1946 C1945 1.516 . S
C1946 C1947 1.502 . S
C1946 C1948 1.561 . S
C1946 C1949 1.526 . S
C1947 H1931 0.959 . S
C1947 H1932 0.959 . S
C1947 H1933 0.961 . S
C1947 C1946 1.502 . S
C1948 H1934 0.960 . S
C1948 H1935 0.961 . S
C1948 H1936 0.959 . S
C1948 C1946 1.561 . S
C1949 C1946 1.526 . S
C1949 C1950 1.396 . S
C1949 C1954 1.390 . S
C1950 C1944 1.465 . S
C1950 C1949 1.396 . S
C1950 C1951 1.399 . S
C1951 H1937 0.929 . S
C1951 C1950 1.399 . S
C1951 C1952 1.385 . S
C1952 H1938 0.931 . S
C1952 C1951 1.385 . S
C1952 C1953 1.389 . S
C1953 C1952 1.389 . S
C1953 C1954 1.387 . S
C1954 H1939 0.930 . S
C1954 C1949 1.390 . S
C1954 C1953 1.387 . S
H1955 C1967 0.930 . S
H1956 C1969 0.930 . S
H1957 C1970 0.930 . S
H1958 C1974 0.959 . S
H1959 C1974 0.959 . S
H1960 C1974 0.961 . S
H1961 C1975 0.960 . S
H1962 C1975 0.961 . S
H1963 C1975 0.959 . S
H1964 C1978 0.929 . S
H1965 C1979 0.931 . S
H1966 C1981 0.930 . S
C1967 H1955 0.930 . S
C1967 C1968 1.399 . S
C1967 C1972 1.399 . S
C1968 C1967 1.399 . S
C1968 C1969 1.376 . S
C1969 H1956 0.930 . S
C1969 C1968 1.376 . S
C1969 C1970 1.388 . S
C1970 H1957 0.930 . S
C1970 C1969 1.388 . S
C1970 C1971 1.390 . S
C1971 C1970 1.390 . S
C1971 C1972 1.394 . S
C1971 C1977 1.465 . S
C1972 C1967 1.399 . S
C1972 C1971 1.394 . S
C1972 C1973 1.516 . S
C1973 C1972 1.516 . S
C1973 C1974 1.502 . S
C1973 C1975 1.561 . S
C1973 C1976 1.526 . S
C1974 H1958 0.959 . S
C1974 H1959 0.959 . S
C1974 H1960 0.961 . S
C1974 C1973 1.502 . S
C1975 H1961 0.960 . S
C1975 H1962 0.961 . S
C1975 H1963 0.959 . S
C1975 C1973 1.561 . S
C1976 C1973 1.526 . S
C1976 C1977 1.396 . S
C1976 C1981 1.390 . S
C1977 C1971 1.465 . S
C1977 C1976 1.396 . S
C1977 C1978 1.399 . S
C1978 H1964 0.929 . S
C1978 C1977 1.399 . S
C1978 C1979 1.385 . S
C1979 H1965 0.931 . S
C1979 C1978 1.385 . S
C1979 C1980 1.389 . S
C1980 C1979 1.389 . S
C1980 C1981 1.387 . S
C1981 H1966 0.930 . S
C1981 C1976 1.390 . S
C1981 C1980 1.387 . S
H1982 C1994 0.930 . S
H1983 C1996 0.930 . S
H1984 C1997 0.930 . S
H1985 C2001 0.959 . S
H1986 C2001 0.959 . S
H1987 C2001 0.961 . S
H1988 C2002 0.960 . S
H1989 C2002 0.961 . S
H1990 C2002 0.959 . S
H1991 C2005 0.929 . S
H1992 C2006 0.931 . S
H1993 C2008 0.930 . S
C1994 H1982 0.930 . S
C1994 C1995 1.399 . S
C1994 C1999 1.399 . S
C1995 C1994 1.399 . S
C1995 C1996 1.376 . S
C1996 H1983 0.930 . S
C1996 C1995 1.376 . S
C1996 C1997 1.388 . S
C1997 H1984 0.930 . S
C1997 C1996 1.388 . S
C1997 C1998 1.390 . S
C1998 C1997 1.390 . S
C1998 C1999 1.394 . S
C1998 C2004 1.465 . S
C1999 C1994 1.399 . S
C1999 C1998 1.394 . S
C1999 C2000 1.516 . S
C2000 C1999 1.516 . S
C2000 C2001 1.502 . S
C2000 C2002 1.561 . S
C2000 C2003 1.526 . S
C2001 H1985 0.959 . S
C2001 H1986 0.959 . S
C2001 H1987 0.961 . S
C2001 C2000 1.502 . S
C2002 H1988 0.960 . S
C2002 H1989 0.961 . S
C2002 H1990 0.959 . S
C2002 C2000 1.561 . S
C2003 C2000 1.526 . S
C2003 C2004 1.396 . S
C2003 C2008 1.390 . S
C2004 C1998 1.465 . S
C2004 C2003 1.396 . S
C2004 C2005 1.399 . S
C2005 H1991 0.929 . S
C2005 C2004 1.399 . S
C2005 C2006 1.385 . S
C2006 H1992 0.931 . S
C2006 C2005 1.385 . S
C2006 C2007 1.389 . S
C2007 C2006 1.389 . S
C2007 C2008 1.387 . S
C2008 H1993 0.930 . S
C2008 C2003 1.390 . S
C2008 C2007 1.387 . S
H2009 C2021 0.930 . S
H2010 C2023 0.930 . S
H2011 C2024 0.930 . S
H2012 C2028 0.959 . S
H2013 C2028 0.959 . S
H2014 C2028 0.961 . S
H2015 C2029 0.960 . S
H2016 C2029 0.961 . S
H2017 C2029 0.959 . S
H2018 C2032 0.929 . S
H2019 C2033 0.931 . S
H2020 C2035 0.930 . S
C2021 H2009 0.930 . S
C2021 C2022 1.399 . S
C2021 C2026 1.399 . S
C2022 C2021 1.399 . S
C2022 C2023 1.376 . S
C2023 H2010 0.930 . S
C2023 C2022 1.376 . S
C2023 C2024 1.388 . S
C2024 H2011 0.930 . S
C2024 C2023 1.388 . S
C2024 C2025 1.390 . S
C2025 C2024 1.390 . S
C2025 C2026 1.394 . S
C2025 C2031 1.465 . S
C2026 C2021 1.399 . S
C2026 C2025 1.394 . S
C2026 C2027 1.516 . S
C2027 C2026 1.516 . S
C2027 C2028 1.502 . S
C2027 C2029 1.561 . S
C2027 C2030 1.526 . S
C2028 H2012 0.959 . S
C2028 H2013 0.959 . S
C2028 H2014 0.961 . S
C2028 C2027 1.502 . S
C2029 H2015 0.960 . S
C2029 H2016 0.961 . S
C2029 H2017 0.959 . S
C2029 C2027 1.561 . S
C2030 C2027 1.526 . S
C2030 C2031 1.396 . S
C2030 C2035 1.390 . S
C2031 C2025 1.465 . S
C2031 C2030 1.396 . S
C2031 C2032 1.399 . S
C2032 H2018 0.929 . S
C2032 C2031 1.399 . S
C2032 C2033 1.385 . S
C2033 H2019 0.931 . S
C2033 C2032 1.385 . S
C2033 C2034 1.389 . S
C2034 C2033 1.389 . S
C2034 C2035 1.387 . S
C2035 H2020 0.930 . S
C2035 C2030 1.390 . S
C2035 C2034 1.387 . S
H2036 C2048 0.930 . S
H2037 C2050 0.930 . S
H2038 C2051 0.930 . S
H2039 C2055 0.959 . S
H2040 C2055 0.959 . S
H2041 C2055 0.961 . S
H2042 C2056 0.960 . S
H2043 C2056 0.961 . S
H2044 C2056 0.959 . S
H2045 C2059 0.929 . S
H2046 C2060 0.931 . S
H2047 C2062 0.930 . S
C2048 H2036 0.930 . S
C2048 C2049 1.399 . S
C2048 C2053 1.399 . S
C2049 C2048 1.399 . S
C2049 C2050 1.376 . S
C2050 H2037 0.930 . S
C2050 C2049 1.376 . S
C2050 C2051 1.388 . S
C2051 H2038 0.930 . S
C2051 C2050 1.388 . S
C2051 C2052 1.390 . S
C2052 C2051 1.390 . S
C2052 C2053 1.394 . S
C2052 C2058 1.465 . S
C2053 C2048 1.399 . S
C2053 C2052 1.394 . S
C2053 C2054 1.516 . S
C2054 C2053 1.516 . S
C2054 C2055 1.502 . S
C2054 C2056 1.561 . S
C2054 C2057 1.526 . S
C2055 H2039 0.959 . S
C2055 H2040 0.959 . S
C2055 H2041 0.961 . S
C2055 C2054 1.502 . S
C2056 H2042 0.960 . S
C2056 H2043 0.961 . S
C2056 H2044 0.959 . S
C2056 C2054 1.561 . S
C2057 C2054 1.526 . S
C2057 C2058 1.396 . S
C2057 C2062 1.390 . S
C2058 C2052 1.465 . S
C2058 C2057 1.396 . S
C2058 C2059 1.399 . S
C2059 H2045 0.929 . S
C2059 C2058 1.399 . S
C2059 C2060 1.385 . S
C2060 H2046 0.931 . S
C2060 C2059 1.385 . S
C2060 C2061 1.389 . S
C2061 C2060 1.389 . S
C2061 C2062 1.387 . S
C2062 H2047 0.930 . S
C2062 C2057 1.390 . S
C2062 C2061 1.387 . S
H2063 C2075 0.930 . S
H2064 C2077 0.930 . S
H2065 C2078 0.930 . S
H2066 C2082 0.959 . S
H2067 C2082 0.959 . S
H2068 C2082 0.961 . S
H2069 C2083 0.960 . S
H2070 C2083 0.961 . S
H2071 C2083 0.959 . S
H2072 C2086 0.929 . S
H2073 C2087 0.931 . S
H2074 C2089 0.930 . S
C2075 H2063 0.930 . S
C2075 C2076 1.399 . S
C2075 C2080 1.399 . S
C2076 C2075 1.399 . S
C2076 C2077 1.376 . S
C2077 H2064 0.930 . S
C2077 C2076 1.376 . S
C2077 C2078 1.388 . S
C2078 H2065 0.930 . S
C2078 C2077 1.388 . S
C2078 C2079 1.390 . S
C2079 C2078 1.390 . S
C2079 C2080 1.394 . S
C2079 C2085 1.465 . S
C2080 C2075 1.399 . S
C2080 C2079 1.394 . S
C2080 C2081 1.516 . S
C2081 C2080 1.516 . S
C2081 C2082 1.502 . S
C2081 C2083 1.561 . S
C2081 C2084 1.526 . S
C2082 H2066 0.959 . S
C2082 H2067 0.959 . S
C2082 H2068 0.961 . S
C2082 C2081 1.502 . S
C2083 H2069 0.960 . S
C2083 H2070 0.961 . S
C2083 H2071 0.959 . S
C2083 C2081 1.561 . S
C2084 C2081 1.526 . S
C2084 C2085 1.396 . S
C2084 C2089 1.390 . S
C2085 C2079 1.465 . S
C2085 C2084 1.396 . S
C2085 C2086 1.399 . S
C2086 H2072 0.929 . S
C2086 C2085 1.399 . S
C2086 C2087 1.385 . S
C2087 H2073 0.931 . S
C2087 C2086 1.385 . S
C2087 C2088 1.389 . S
C2088 C2087 1.389 . S
C2088 C2089 1.387 . S
C2089 H2074 0.930 . S
C2089 C2084 1.390 . S
C2089 C2088 1.387 . S
H2090 C2102 0.930 . S
H2091 C2104 0.930 . S
H2092 C2105 0.930 . S
H2093 C2109 0.959 . S
H2094 C2109 0.959 . S
H2095 C2109 0.961 . S
H2096 C2110 0.960 . S
H2097 C2110 0.961 . S
H2098 C2110 0.959 . S
H2099 C2113 0.929 . S
H2100 C2114 0.931 . S
H2101 C2116 0.930 . S
C2102 H2090 0.930 . S
C2102 C2103 1.399 . S
C2102 C2107 1.399 . S
C2103 C2102 1.399 . S
C2103 C2104 1.376 . S
C2104 H2091 0.930 . S
C2104 C2103 1.376 . S
C2104 C2105 1.388 . S
C2105 H2092 0.930 . S
C2105 C2104 1.388 . S
C2105 C2106 1.390 . S
C2106 C2105 1.390 . S
C2106 C2107 1.394 . S
C2106 C2112 1.465 . S
C2107 C2102 1.399 . S
C2107 C2106 1.394 . S
C2107 C2108 1.516 . S
C2108 C2107 1.516 . S
C2108 C2109 1.502 . S
C2108 C2110 1.561 . S
C2108 C2111 1.526 . S
C2109 H2093 0.959 . S
C2109 H2094 0.959 . S
C2109 H2095 0.961 . S
C2109 C2108 1.502 . S
C2110 H2096 0.960 . S
C2110 H2097 0.961 . S
C2110 H2098 0.959 . S
C2110 C2108 1.561 . S
C2111 C2108 1.526 . S
C2111 C2112 1.396 . S
C2111 C2116 1.390 . S
C2112 C2106 1.465 . S
C2112 C2111 1.396 . S
C2112 C2113 1.399 . S
C2113 H2099 0.929 . S
C2113 C2112 1.399 . S
C2113 C2114 1.385 . S
C2114 H2100 0.931 . S
C2114 C2113 1.385 . S
C2114 C2115 1.389 . S
C2115 C2114 1.389 . S
C2115 C2116 1.387 . S
C2116 H2101 0.930 . S
C2116 C2111 1.390 . S
C2116 C2115 1.387 . S
H2117 C2129 0.930 . S
H2118 C2131 0.930 . S
H2119 C2132 0.930 . S
H2120 C2136 0.959 . S
H2121 C2136 0.959 . S
H2122 C2136 0.961 . S
H2123 C2137 0.960 . S
H2124 C2137 0.961 . S
H2125 C2137 0.959 . S
H2126 C2140 0.929 . S
H2127 C2141 0.931 . S
H2128 C2143 0.930 . S
C2129 H2117 0.930 . S
C2129 C2130 1.399 . S
C2129 C2134 1.399 . S
C2130 C2129 1.399 . S
C2130 C2131 1.376 . S
C2131 H2118 0.930 . S
C2131 C2130 1.376 . S
C2131 C2132 1.388 . S
C2132 H2119 0.930 . S
C2132 C2131 1.388 . S
C2132 C2133 1.390 . S
C2133 C2132 1.390 . S
C2133 C2134 1.394 . S
C2133 C2139 1.465 . S
C2134 C2129 1.399 . S
C2134 C2133 1.394 . S
C2134 C2135 1.516 . S
C2135 C2134 1.516 . S
C2135 C2136 1.502 . S
C2135 C2137 1.561 . S
C2135 C2138 1.526 . S
C2136 H2120 0.959 . S
C2136 H2121 0.959 . S
C2136 H2122 0.961 . S
C2136 C2135 1.502 . S
C2137 H2123 0.960 . S
C2137 H2124 0.961 . S
C2137 H2125 0.959 . S
C2137 C2135 1.561 . S
C2138 C2135 1.526 . S
C2138 C2139 1.396 . S
C2138 C2143 1.390 . S
C2139 C2133 1.465 . S
C2139 C2138 1.396 . S
C2139 C2140 1.399 . S
C2140 H2126 0.929 . S
C2140 C2139 1.399 . S
C2140 C2141 1.385 . S
C2141 H2127 0.931 . S
C2141 C2140 1.385 . S
C2141 C2142 1.389 . S
C2142 C2141 1.389 . S
C2142 C2143 1.387 . S
C2143 H2128 0.930 . S
C2143 C2138 1.390 . S
C2143 C2142 1.387 . S
H2144 C2156 0.930 . S
H2145 C2158 0.930 . S
H2146 C2159 0.930 . S
H2147 C2163 0.959 . S
H2148 C2163 0.959 1_655 S
H2149 C2163 0.961 . S
H2150 C2164 0.960 1_455 S
H2151 C2164 0.961 . S
H2152 C2164 0.959 . S
H2153 C2167 0.929 . S
H2154 C2168 0.931 . S
H2155 C2170 0.930 . S
C2156 H2144 0.930 . S
C2156 C2157 1.399 . S
C2156 C2161 1.399 . S
C2157 C2156 1.399 . S
C2157 C2158 1.376 . S
C2158 H2145 0.930 . S
C2158 C2157 1.376 . S
C2158 C2159 1.388 . S
C2159 H2146 0.930 . S
C2159 C2158 1.388 . S
C2159 C2160 1.390 . S
C2160 C2159 1.390 . S
C2160 C2161 1.394 . S
C2160 C2166 1.465 1_455 S
C2161 C2156 1.399 . S
C2161 C2160 1.394 . S
C2161 C2162 1.535 . S
C2162 C2161 1.535 . S
C2162 C2163 1.504 . S
C2162 C2164 1.560 1_455 S
C2162 C2165 1.507 1_455 S
C2163 H2147 0.959 . S
C2163 H2148 0.959 1_455 S
C2163 H2149 0.961 . S
C2163 C2162 1.504 . S
C2164 H2150 0.960 1_655 S
C2164 H2151 0.961 . S
C2164 H2152 0.959 . S
C2164 C2162 1.560 1_655 S
C2165 C2162 1.507 1_655 S
C2165 C2166 1.396 . S
C2165 C2170 1.390 . S
C2166 C2160 1.465 1_655 S
C2166 C2165 1.396 . S
C2166 C2167 1.399 . S
C2167 H2153 0.929 . S
C2167 C2166 1.399 . S
C2167 C2168 1.385 . S
C2168 H2154 0.931 . S
C2168 C2167 1.385 . S
C2168 C2169 1.389 . S
C2169 C2168 1.389 . S
C2169 C2170 1.387 . S
C2170 H2155 0.930 . S
C2170 C2165 1.390 . S
C2170 C2169 1.387 . S
H2171 C2183 0.930 . S
H2172 C2185 0.930 . S
H2173 C2186 0.930 . S
H2174 C2190 0.959 . S
H2175 C2190 0.959 . S
H2176 C2190 0.961 . S
H2177 C2191 0.960 . S
H2178 C2191 0.961 . S
H2179 C2191 0.959 . S
H2180 C2194 0.932 . S
H2181 C2195 0.931 . S
H2182 C2197 0.930 . S
C2183 H2171 0.930 . S
C2183 C2184 1.399 . S
C2183 C2188 1.399 . S
C2184 C2183 1.399 . S
C2184 C2185 1.376 . S
C2185 H2172 0.930 . S
C2185 C2184 1.376 . S
C2185 C2186 1.388 . S
C2186 H2173 0.930 . S
C2186 C2185 1.388 . S
C2186 C2187 1.390 . S
C2187 C2186 1.390 . S
C2187 C2188 1.394 . S
C2187 C2193 1.465 . S
C2188 C2183 1.399 . S
C2188 C2187 1.394 . S
C2188 C2189 1.516 . S
C2189 C2188 1.516 . S
C2189 C2190 1.502 1_655 S
C2189 C2191 1.561 . S
C2189 C2192 1.524 1_655 S
C2190 H2174 0.959 . S
C2190 H2175 0.959 . S
C2190 H2176 0.961 . S
C2190 C2189 1.502 1_455 S
C2191 H2177 0.960 . S
C2191 H2178 0.961 . S
C2191 H2179 0.959 . S
C2191 C2189 1.561 . S
C2192 C2189 1.524 1_455 S
C2192 C2193 1.394 1_455 S
C2192 C2197 1.393 . S
C2193 C2187 1.465 . S
C2193 C2192 1.394 1_655 S
C2193 C2194 1.400 . S
C2194 H2180 0.932 . S
C2194 C2193 1.400 . S
C2194 C2195 1.382 1_655 S
C2195 H2181 0.931 . S
C2195 C2194 1.382 1_455 S
C2195 C2196 1.389 . S
C2196 C2195 1.389 . S
C2196 C2197 1.387 . S
C2197 H2182 0.930 . S
C2197 C2192 1.393 . S
C2197 C2196 1.387 . S
H2198 C2210 0.930 . S
H2199 C2212 0.930 . S
H2200 C2213 0.930 . S
H2201 C2217 0.959 . S
H2202 C2217 0.959 . S
H2203 C2217 0.961 . S
H2204 C2218 0.960 . S
H2205 C2218 0.961 . S
H2206 C2218 0.959 . S
H2207 C2221 0.929 . S
H2208 C2222 0.931 . S
H2209 C2224 0.930 . S
C2210 H2198 0.930 . S
C2210 C2211 1.399 . S
C2210 C2215 1.399 . S
C2211 C2210 1.399 . S
C2211 C2212 1.376 . S
C2212 H2199 0.930 . S
C2212 C2211 1.376 . S
C2212 C2213 1.388 . S
C2213 H2200 0.930 . S
C2213 C2212 1.388 . S
C2213 C2214 1.390 . S
C2214 C2213 1.390 . S
C2214 C2215 1.394 . S
C2214 C2220 1.465 . S
C2215 C2210 1.399 . S
C2215 C2214 1.394 . S
C2215 C2216 1.516 . S
C2216 C2215 1.516 . S
C2216 C2217 1.502 . S
C2216 C2218 1.561 . S
C2216 C2219 1.526 . S
C2217 H2201 0.959 . S
C2217 H2202 0.959 . S
C2217 H2203 0.961 . S
C2217 C2216 1.502 . S
C2218 H2204 0.960 . S
C2218 H2205 0.961 . S
C2218 H2206 0.959 . S
C2218 C2216 1.561 . S
C2219 C2216 1.526 . S
C2219 C2220 1.396 . S
C2219 C2224 1.390 . S
C2220 C2214 1.465 . S
C2220 C2219 1.396 . S
C2220 C2221 1.399 . S
C2221 H2207 0.929 . S
C2221 C2220 1.399 . S
C2221 C2222 1.385 . S
C2222 H2208 0.931 . S
C2222 C2221 1.385 . S
C2222 C2223 1.389 . S
C2223 C2222 1.389 . S
C2223 C2224 1.387 . S
C2224 H2209 0.930 . S
C2224 C2219 1.390 . S
C2224 C2223 1.387 . S
H2225 C2237 0.930 . S
H2226 C2239 0.930 . S
H2227 C2240 0.930 . S
H2228 C2244 0.959 . S
H2229 C2244 0.959 . S
H2230 C2244 0.961 . S
H2231 C2245 0.960 . S
H2232 C2245 0.961 . S
H2233 C2245 0.959 . S
H2234 C2248 0.929 . S
H2235 C2249 0.931 . S
H2236 C2251 0.930 . S
C2237 H2225 0.930 . S
C2237 C2238 1.399 . S
C2237 C2242 1.399 . S
C2238 C2237 1.399 . S
C2238 C2239 1.376 . S
C2239 H2226 0.930 . S
C2239 C2238 1.376 . S
C2239 C2240 1.388 . S
C2240 H2227 0.930 . S
C2240 C2239 1.388 . S
C2240 C2241 1.390 . S
C2241 C2240 1.390 . S
C2241 C2242 1.394 . S
C2241 C2247 1.465 . S
C2242 C2237 1.399 . S
C2242 C2241 1.394 . S
C2242 C2243 1.516 . S
C2243 C2242 1.516 . S
C2243 C2244 1.502 . S
C2243 C2245 1.561 . S
C2243 C2246 1.526 . S
C2244 H2228 0.959 . S
C2244 H2229 0.959 . S
C2244 H2230 0.961 . S
C2244 C2243 1.502 . S
C2245 H2231 0.960 . S
C2245 H2232 0.961 . S
C2245 H2233 0.959 . S
C2245 C2243 1.561 . S
C2246 C2243 1.526 . S
C2246 C2247 1.396 . S
C2246 C2251 1.390 . S
C2247 C2241 1.465 . S
C2247 C2246 1.396 . S
C2247 C2248 1.399 . S
C2248 H2234 0.929 . S
C2248 C2247 1.399 . S
C2248 C2249 1.385 . S
C2249 H2235 0.931 . S
C2249 C2248 1.385 . S
C2249 C2250 1.389 . S
C2250 C2249 1.389 . S
C2250 C2251 1.387 . S
C2251 H2236 0.930 . S
C2251 C2246 1.390 . S
C2251 C2250 1.387 . S
H2252 C2264 0.930 . S
H2253 C2266 0.930 . S
H2254 C2267 0.930 . S
H2255 C2271 0.959 . S
H2256 C2271 0.959 . S
H2257 C2271 0.961 1_655 S
H2258 C2272 0.960 . S
H2259 C2272 0.961 1_455 S
H2260 C2272 0.959 . S
H2261 C2275 0.929 . S
H2262 C2276 0.931 . S
H2263 C2278 0.930 . S
C2264 H2252 0.930 . S
C2264 C2265 1.399 . S
C2264 C2269 1.399 . S
C2265 C2264 1.399 . S
C2265 C2266 1.376 . S
C2266 H2253 0.930 . S
C2266 C2265 1.376 . S
C2266 C2267 1.388 . S
C2267 H2254 0.930 . S
C2267 C2266 1.388 . S
C2267 C2268 1.390 . S
C2268 C2267 1.390 . S
C2268 C2269 1.394 . S
C2268 C2274 1.465 1_655 S
C2269 C2264 1.399 . S
C2269 C2268 1.394 . S
C2269 C2270 1.498 1_655 S
C2270 C2269 1.498 1_455 S
C2270 C2271 1.504 . S
C2270 C2272 1.560 1_455 S
C2270 C2273 1.543 . S
C2271 H2255 0.959 . S
C2271 H2256 0.959 . S
C2271 H2257 0.961 1_455 S
C2271 C2270 1.504 . S
C2272 H2258 0.960 . S
C2272 H2259 0.961 1_655 S
C2272 H2260 0.959 . S
C2272 C2270 1.560 1_655 S
C2273 C2270 1.543 . S
C2273 C2274 1.396 . S
C2273 C2278 1.390 . S
C2274 C2268 1.465 1_455 S
C2274 C2273 1.396 . S
C2274 C2275 1.399 . S
C2275 H2261 0.929 . S
C2275 C2274 1.399 . S
C2275 C2276 1.385 . S
C2276 H2262 0.931 . S
C2276 C2275 1.385 . S
C2276 C2277 1.389 . S
C2277 C2276 1.389 . S
C2277 C2278 1.387 . S
C2278 H2263 0.930 . S
C2278 C2273 1.390 . S
C2278 C2277 1.387 . S
H2279 C2291 0.930 . S
H2280 C2293 0.930 . S
H2281 C2294 0.930 . S
H2282 C2298 0.959 . S
H2283 C2298 0.959 . S
H2284 C2298 0.961 . S
H2285 C2299 0.960 . S
H2286 C2299 0.961 . S
H2287 C2299 0.959 . S
H2288 C2302 0.929 . S
H2289 C2303 0.931 . S
H2290 C2305 0.930 . S
C2291 H2279 0.930 . S
C2291 C2292 1.399 . S
C2291 C2296 1.399 . S
C2292 C2291 1.399 . S
C2292 C2293 1.376 . S
C2293 H2280 0.930 . S
C2293 C2292 1.376 . S
C2293 C2294 1.388 . S
C2294 H2281 0.930 . S
C2294 C2293 1.388 . S
C2294 C2295 1.390 . S
C2295 C2294 1.390 . S
C2295 C2296 1.394 . S
C2295 C2301 1.465 . S
C2296 C2291 1.399 . S
C2296 C2295 1.394 . S
C2296 C2297 1.516 . S
C2297 C2296 1.516 . S
C2297 C2298 1.502 . S
C2297 C2299 1.561 . S
C2297 C2300 1.526 . S
C2298 H2282 0.959 . S
C2298 H2283 0.959 . S
C2298 H2284 0.961 . S
C2298 C2297 1.502 . S
C2299 H2285 0.960 . S
C2299 H2286 0.961 . S
C2299 H2287 0.959 . S
C2299 C2297 1.561 . S
C2300 C2297 1.526 . S
C2300 C2301 1.396 . S
C2300 C2305 1.390 . S
C2301 C2295 1.465 . S
C2301 C2300 1.396 . S
C2301 C2302 1.399 . S
C2302 H2288 0.929 . S
C2302 C2301 1.399 . S
C2302 C2303 1.385 . S
C2303 H2289 0.931 . S
C2303 C2302 1.385 . S
C2303 C2304 1.389 . S
C2304 C2303 1.389 . S
C2304 C2305 1.387 . S
C2305 H2290 0.930 . S
C2305 C2300 1.390 . S
C2305 C2304 1.387 . S
H2306 C2318 0.930 . S
H2307 C2320 0.930 . S
H2308 C2321 0.930 . S
H2309 C2325 0.959 . S
H2310 C2325 0.959 . S
H2311 C2325 0.961 . S
H2312 C2326 0.960 . S
H2313 C2326 0.961 . S
H2314 C2326 0.959 . S
H2315 C2329 0.929 . S
H2316 C2330 0.931 . S
H2317 C2332 0.930 . S
C2318 H2306 0.930 . S
C2318 C2319 1.399 . S
C2318 C2323 1.399 . S
C2319 C2318 1.399 . S
C2319 C2320 1.376 . S
C2320 H2307 0.930 . S
C2320 C2319 1.376 . S
C2320 C2321 1.388 . S
C2321 H2308 0.930 . S
C2321 C2320 1.388 . S
C2321 C2322 1.390 . S
C2322 C2321 1.390 . S
C2322 C2323 1.394 . S
C2322 C2328 1.465 . S
C2323 C2318 1.399 . S
C2323 C2322 1.394 . S
C2323 C2324 1.516 . S
C2324 C2323 1.516 . S
C2324 C2325 1.502 . S
C2324 C2326 1.561 . S
C2324 C2327 1.526 . S
C2325 H2309 0.959 . S
C2325 H2310 0.959 . S
C2325 H2311 0.961 . S
C2325 C2324 1.502 . S
C2326 H2312 0.960 . S
C2326 H2313 0.961 . S
C2326 H2314 0.959 . S
C2326 C2324 1.561 . S
C2327 C2324 1.526 . S
C2327 C2328 1.396 . S
C2327 C2332 1.390 . S
C2328 C2322 1.465 . S
C2328 C2327 1.396 . S
C2328 C2329 1.399 . S
C2329 H2315 0.929 . S
C2329 C2328 1.399 . S
C2329 C2330 1.385 . S
C2330 H2316 0.931 . S
C2330 C2329 1.385 . S
C2330 C2331 1.389 . S
C2331 C2330 1.389 . S
C2331 C2332 1.387 . S
C2332 H2317 0.930 . S
C2332 C2327 1.390 . S
C2332 C2331 1.387 . S
H2333 C2345 0.930 . S
H2334 C2347 0.930 . S
H2335 C2348 0.930 . S
H2336 C2352 0.959 . S
H2337 C2352 0.959 . S
H2338 C2352 0.961 . S
H2339 C2353 0.960 . S
H2340 C2353 0.961 . S
H2341 C2353 0.959 . S
H2342 C2356 0.929 . S
H2343 C2357 0.931 . S
H2344 C2359 0.930 . S
C2345 H2333 0.930 . S
C2345 C2346 1.399 1_655 S
C2345 C2350 1.399 . S
C2346 C2345 1.399 1_455 S
C2346 C2347 1.376 . S
C2347 H2334 0.930 . S
C2347 C2346 1.376 . S
C2347 C2348 1.388 . S
C2348 H2335 0.930 . S
C2348 C2347 1.388 . S
C2348 C2349 1.390 . S
C2349 C2348 1.390 . S
C2349 C2350 1.394 1_455 S
C2349 C2355 1.465 . S
C2350 C2345 1.399 . S
C2350 C2349 1.394 1_655 S
C2350 C2351 1.516 . S
C2351 C2350 1.516 . S
C2351 C2352 1.502 . S
C2351 C2353 1.561 . S
C2351 C2354 1.526 . S
C2352 H2336 0.959 . S
C2352 H2337 0.959 . S
C2352 H2338 0.961 . S
C2352 C2351 1.502 . S
C2353 H2339 0.960 . S
C2353 H2340 0.961 . S
C2353 H2341 0.959 . S
C2353 C2351 1.561 . S
C2354 C2351 1.526 . S
C2354 C2355 1.396 1_655 S
C2354 C2359 1.390 . S
C2355 C2349 1.465 . S
C2355 C2354 1.396 1_455 S
C2355 C2356 1.399 . S
C2356 H2342 0.929 . S
C2356 C2355 1.399 . S
C2356 C2357 1.385 . S
C2357 H2343 0.931 . S
C2357 C2356 1.385 . S
C2357 C2358 1.389 1_455 S
C2358 C2357 1.389 1_655 S
C2358 C2359 1.387 . S
C2359 H2344 0.930 . S
C2359 C2354 1.390 . S
C2359 C2358 1.387 . S
H2360 C2372 0.930 . S
H2361 C2374 0.930 . S
H2362 C2375 0.930 . S
H2363 C2379 0.959 . S
H2364 C2379 0.959 1_655 S
H2365 C2379 0.961 . S
H2366 C2380 0.960 1_455 S
H2367 C2380 0.961 . S
H2368 C2380 0.959 . S
H2369 C2383 0.929 . S
H2370 C2384 0.931 . S
H2371 C2386 0.930 . S
C2372 H2360 0.930 . S
C2372 C2373 1.399 . S
C2372 C2377 1.399 . S
C2373 C2372 1.399 . S
C2373 C2374 1.376 . S
C2374 H2361 0.930 . S
C2374 C2373 1.376 . S
C2374 C2375 1.388 . S
C2375 H2362 0.930 . S
C2375 C2374 1.388 . S
C2375 C2376 1.390 . S
C2376 C2375 1.390 . S
C2376 C2377 1.394 . S
C2376 C2382 1.465 1_455 S
C2377 C2372 1.399 . S
C2377 C2376 1.394 . S
C2377 C2378 1.518 1_455 S
C2378 C2377 1.518 1_655 S
C2378 C2379 1.502 1_655 S
C2378 C2380 1.561 . S
C2378 C2381 1.524 . S
C2379 H2363 0.959 . S
C2379 H2364 0.959 1_455 S
C2379 H2365 0.961 . S
C2379 C2378 1.502 1_455 S
C2380 H2366 0.960 1_655 S
C2380 H2367 0.961 . S
C2380 H2368 0.959 . S
C2380 C2378 1.561 . S
C2381 C2378 1.524 . S
C2381 C2382 1.396 . S
C2381 C2386 1.390 . S
C2382 C2376 1.465 1_655 S
C2382 C2381 1.396 . S
C2382 C2383 1.399 . S
C2383 H2369 0.929 . S
C2383 C2382 1.399 . S
C2383 C2384 1.385 . S
C2384 H2370 0.931 . S
C2384 C2383 1.385 . S
C2384 C2385 1.389 . S
C2385 C2384 1.389 . S
C2385 C2386 1.387 . S
C2386 H2371 0.930 . S
C2386 C2381 1.390 . S
C2386 C2385 1.387 . S
H2387 C2399 0.930 . S
H2388 C2401 0.930 . S
H2389 C2402 0.930 . S
H2390 C2406 0.959 . S
H2391 C2406 0.959 . S
H2392 C2406 0.961 . S
H2393 C2407 0.960 . S
H2394 C2407 0.961 . S
H2395 C2407 0.959 . S
H2396 C2410 0.929 . S
H2397 C2411 0.931 . S
H2398 C2413 0.942 . S
C2399 H2387 0.930 . S
C2399 C2400 1.399 . S
C2399 C2404 1.399 . S
C2400 C2399 1.399 . S
C2400 C2401 1.376 1_655 S
C2401 H2388 0.930 . S
C2401 C2400 1.376 1_455 S
C2401 C2402 1.388 . S
C2402 H2389 0.930 . S
C2402 C2401 1.388 . S
C2402 C2403 1.390 . S
C2403 C2402 1.390 . S
C2403 C2404 1.394 1_455 S
C2403 C2409 1.465 . S
C2404 C2399 1.399 . S
C2404 C2403 1.394 1_655 S
C2404 C2405 1.516 . S
C2405 C2404 1.516 . S
C2405 C2406 1.502 . S
C2405 C2407 1.561 1_655 S
C2405 C2408 1.531 . S
C2406 H2390 0.959 . S
C2406 H2391 0.959 . S
C2406 H2392 0.961 . S
C2406 C2405 1.502 . S
C2407 H2393 0.960 . S
C2407 H2394 0.961 . S
C2407 H2395 0.959 . S
C2407 C2405 1.561 1_455 S
C2408 C2405 1.531 . S
C2408 C2409 1.390 1_655 S
C2408 C2413 1.389 . S
C2409 C2403 1.465 . S
C2409 C2408 1.390 1_455 S
C2409 C2410 1.399 . S
C2410 H2396 0.929 . S
C2410 C2409 1.399 . S
C2410 C2411 1.385 . S
C2411 H2397 0.931 . S
C2411 C2410 1.385 . S
C2411 C2412 1.389 . S
C2412 C2411 1.389 . S
C2412 C2413 1.375 1_455 S
C2413 H2398 0.942 . S
C2413 C2408 1.389 . S
C2413 C2412 1.375 1_655 S
H2414 C2426 0.930 . S
H2415 C2428 0.930 . S
H2416 C2429 0.930 . S
H2417 C2433 0.959 . S
H2418 C2433 0.959 . S
H2419 C2433 0.961 . S
H2420 C2434 0.960 . S
H2421 C2434 0.961 . S
H2422 C2434 0.959 . S
H2423 C2437 0.929 . S
H2424 C2438 0.931 . S
H2425 C2440 0.930 . S
C2426 H2414 0.930 . S
C2426 C2427 1.399 . S
C2426 C2431 1.399 . S
C2427 C2426 1.399 . S
C2427 C2428 1.376 . S
C2428 H2415 0.930 . S
C2428 C2427 1.376 . S
C2428 C2429 1.388 . S
C2429 H2416 0.930 . S
C2429 C2428 1.388 . S
C2429 C2430 1.390 . S
C2430 C2429 1.390 . S
C2430 C2431 1.394 . S
C2430 C2436 1.465 . S
C2431 C2426 1.399 . S
C2431 C2430 1.394 . S
C2431 C2432 1.516 . S
C2432 C2431 1.516 . S
C2432 C2433 1.502 . S
C2432 C2434 1.561 . S
C2432 C2435 1.526 . S
C2433 H2417 0.959 . S
C2433 H2418 0.959 . S
C2433 H2419 0.961 . S
C2433 C2432 1.502 . S
C2434 H2420 0.960 . S
C2434 H2421 0.961 . S
C2434 H2422 0.959 . S
C2434 C2432 1.561 . S
C2435 C2432 1.526 . S
C2435 C2436 1.396 . S
C2435 C2440 1.390 . S
C2436 C2430 1.465 . S
C2436 C2435 1.396 . S
C2436 C2437 1.399 . S
C2437 H2423 0.929 . S
C2437 C2436 1.399 . S
C2437 C2438 1.385 . S
C2438 H2424 0.931 . S
C2438 C2437 1.385 . S
C2438 C2439 1.389 . S
C2439 C2438 1.389 . S
C2439 C2440 1.387 . S
C2440 H2425 0.930 . S
C2440 C2435 1.390 . S
C2440 C2439 1.387 . S
H2441 C2453 0.930 . S
H2442 C2455 0.930 . S
H2443 C2456 0.930 . S
H2444 C2460 0.959 . S
H2445 C2460 0.959 . S
H2446 C2460 0.961 . S
H2447 C2461 0.960 . S
H2448 C2461 0.961 . S
H2449 C2461 0.959 . S
H2450 C2464 0.929 . S
H2451 C2465 0.931 . S
H2452 C2467 0.930 . S
C2453 H2441 0.930 . S
C2453 C2454 1.399 . S
C2453 C2458 1.399 . S
C2454 C2453 1.399 . S
C2454 C2455 1.376 . S
C2455 H2442 0.930 . S
C2455 C2454 1.376 . S
C2455 C2456 1.388 . S
C2456 H2443 0.930 . S
C2456 C2455 1.388 . S
C2456 C2457 1.390 . S
C2457 C2456 1.390 . S
C2457 C2458 1.394 . S
C2457 C2463 1.465 . S
C2458 C2453 1.399 . S
C2458 C2457 1.394 . S
C2458 C2459 1.516 . S
C2459 C2458 1.516 . S
C2459 C2460 1.502 . S
C2459 C2461 1.561 . S
C2459 C2462 1.526 . S
C2460 H2444 0.959 . S
C2460 H2445 0.959 . S
C2460 H2446 0.961 . S
C2460 C2459 1.502 . S
C2461 H2447 0.960 . S
C2461 H2448 0.961 . S
C2461 H2449 0.959 . S
C2461 C2459 1.561 . S
C2462 C2459 1.526 . S
C2462 C2463 1.396 . S
C2462 C2467 1.390 . S
C2463 C2457 1.465 . S
C2463 C2462 1.396 . S
C2463 C2464 1.399 . S
C2464 H2450 0.929 . S
C2464 C2463 1.399 . S
C2464 C2465 1.385 . S
C2465 H2451 0.931 . S
C2465 C2464 1.385 . S
C2465 C2466 1.389 . S
C2466 C2465 1.389 . S
C2466 C2467 1.387 . S
C2467 H2452 0.930 . S
C2467 C2462 1.390 . S
C2467 C2466 1.387 . S
H2468 C2480 0.930 . S
H2469 C2482 0.930 . S
H2470 C2483 0.930 . S
H2471 C2487 0.959 . S
H2472 C2487 0.959 . S
H2473 C2487 0.961 1_455 S
H2474 C2488 0.980 . S
H2475 C2488 0.942 1_655 S
H2476 C2488 0.959 . S
H2477 C2491 0.929 . S
H2478 C2492 0.931 . S
H2479 C2494 0.930 . S
C2480 H2468 0.930 . S
C2480 C2481 1.399 . S
C2480 C2485 1.399 . S
C2481 C2480 1.399 . S
C2481 C2482 1.376 . S
C2482 H2469 0.930 . S
C2482 C2481 1.376 . S
C2482 C2483 1.388 . S
C2483 H2470 0.930 . S
C2483 C2482 1.388 . S
C2483 C2484 1.390 . S
C2484 C2483 1.390 . S
C2484 C2485 1.394 . S
C2484 C2490 1.465 1_455 S
C2485 C2480 1.399 . S
C2485 C2484 1.394 . S
C2485 C2486 1.516 1_455 S
C2486 C2485 1.516 1_655 S
C2486 C2487 1.502 . S
C2486 C2488 1.560 1_655 S
C2486 C2489 1.526 . S
C2487 H2471 0.959 . S
C2487 H2472 0.959 . S
C2487 H2473 0.961 1_655 S
C2487 C2486 1.502 . S
C2488 H2474 0.980 . S
C2488 H2475 0.942 1_455 S
C2488 H2476 0.959 . S
C2488 C2486 1.560 1_455 S
C2489 C2486 1.526 . S
C2489 C2490 1.396 . S
C2489 C2494 1.390 . S
C2490 C2484 1.465 1_655 S
C2490 C2489 1.396 . S
C2490 C2491 1.399 . S
C2491 H2477 0.929 . S
C2491 C2490 1.399 . S
C2491 C2492 1.385 . S
C2492 H2478 0.931 . S
C2492 C2491 1.385 . S
C2492 C2493 1.389 . S
C2493 C2492 1.389 . S
C2493 C2494 1.387 . S
C2494 H2479 0.930 . S
C2494 C2489 1.390 . S
C2494 C2493 1.387 . S
H2495 C2507 0.930 . S
H2496 C2509 0.930 . S
H2497 C2510 0.930 . S
H2498 C2514 0.959 . S
H2499 C2514 0.959 . S
H2500 C2514 0.961 . S
H2501 C2515 0.960 . S
H2502 C2515 0.961 . S
H2503 C2515 0.959 . S
H2504 C2518 0.929 . S
H2505 C2519 0.931 . S
H2506 C2521 0.930 . S
C2507 H2495 0.930 . S
C2507 C2508 1.399 . S
C2507 C2512 1.399 . S
C2508 C2507 1.399 . S
C2508 C2509 1.376 . S
C2509 H2496 0.930 . S
C2509 C2508 1.376 . S
C2509 C2510 1.388 . S
C2510 H2497 0.930 . S
C2510 C2509 1.388 . S
C2510 C2511 1.390 . S
C2511 C2510 1.390 . S
C2511 C2512 1.394 . S
C2511 C2517 1.465 . S
C2512 C2507 1.399 . S
C2512 C2511 1.394 . S
C2512 C2513 1.516 . S
C2513 C2512 1.516 . S
C2513 C2514 1.502 . S
C2513 C2515 1.561 . S
C2513 C2516 1.526 . S
C2514 H2498 0.959 . S
C2514 H2499 0.959 . S
C2514 H2500 0.961 . S
C2514 C2513 1.502 . S
C2515 H2501 0.960 . S
C2515 H2502 0.961 . S
C2515 H2503 0.959 . S
C2515 C2513 1.561 . S
C2516 C2513 1.526 . S
C2516 C2517 1.396 . S
C2516 C2521 1.390 . S
C2517 C2511 1.465 . S
C2517 C2516 1.396 . S
C2517 C2518 1.399 . S
C2518 H2504 0.929 . S
C2518 C2517 1.399 . S
C2518 C2519 1.385 . S
C2519 H2505 0.931 . S
C2519 C2518 1.385 . S
C2519 C2520 1.389 . S
C2520 C2519 1.389 . S
C2520 C2521 1.387 . S
C2521 H2506 0.930 . S
C2521 C2516 1.390 . S
C2521 C2520 1.387 . S
H2522 C2534 0.930 . S
H2523 C2536 0.930 . S
H2524 C2537 0.930 . S
H2525 C2541 0.959 . S
H2526 C2541 0.959 . S
H2527 C2541 0.961 . S
H2528 C2542 0.960 . S
H2529 C2542 0.961 . S
H2530 C2542 0.959 . S
H2531 C2545 0.929 . S
H2532 C2546 0.931 . S
H2533 C2548 0.930 . S
C2534 H2522 0.930 . S
C2534 C2535 1.399 . S
C2534 C2539 1.399 . S
C2535 C2534 1.399 . S
C2535 C2536 1.376 . S
C2536 H2523 0.930 . S
C2536 C2535 1.376 . S
C2536 C2537 1.388 . S
C2537 H2524 0.930 . S
C2537 C2536 1.388 . S
C2537 C2538 1.390 . S
C2538 C2537 1.390 . S
C2538 C2539 1.394 . S
C2538 C2544 1.465 . S
C2539 C2534 1.399 . S
C2539 C2538 1.394 . S
C2539 C2540 1.516 . S
C2540 C2539 1.516 . S
C2540 C2541 1.502 . S
C2540 C2542 1.561 . S
C2540 C2543 1.526 . S
C2541 H2525 0.959 . S
C2541 H2526 0.959 . S
C2541 H2527 0.961 . S
C2541 C2540 1.502 . S
C2542 H2528 0.960 . S
C2542 H2529 0.961 . S
C2542 H2530 0.959 . S
C2542 C2540 1.561 . S
C2543 C2540 1.526 . S
C2543 C2544 1.396 . S
C2543 C2548 1.390 . S
C2544 C2538 1.465 . S
C2544 C2543 1.396 . S
C2544 C2545 1.399 . S
C2545 H2531 0.929 . S
C2545 C2544 1.399 . S
C2545 C2546 1.385 . S
C2546 H2532 0.931 . S
C2546 C2545 1.385 . S
C2546 C2547 1.389 . S
C2547 C2546 1.389 . S
C2547 C2548 1.387 . S
C2548 H2533 0.930 . S
C2548 C2543 1.390 . S
C2548 C2547 1.387 . S
H2549 C2561 0.930 . S
H2550 C2563 0.930 . S
H2551 C2564 0.930 . S
H2552 C2568 0.959 . S
H2553 C2568 0.959 . S
H2554 C2568 0.961 . S
H2555 C2569 0.960 . S
H2556 C2569 0.961 . S
H2557 C2569 0.959 . S
H2558 C2572 0.929 . S
H2559 C2573 0.931 . S
H2560 C2575 0.930 . S
C2561 H2549 0.930 . S
C2561 C2562 1.399 1_455 S
C2561 C2566 1.400 . S
C2562 C2561 1.399 1_655 S
C2562 C2563 1.376 . S
C2563 H2550 0.930 . S
C2563 C2562 1.376 . S
C2563 C2564 1.388 . S
C2564 H2551 0.930 . S
C2564 C2563 1.388 . S
C2564 C2565 1.390 . S
C2565 C2564 1.390 . S
C2565 C2566 1.380 1_655 S
C2565 C2571 1.465 . S
C2566 C2561 1.400 . S
C2566 C2565 1.380 1_455 S
C2566 C2567 1.528 . S
C2567 C2566 1.528 . S
C2567 C2568 1.502 . S
C2567 C2569 1.561 1_455 S
C2567 C2570 1.526 . S
C2568 H2552 0.959 . S
C2568 H2553 0.959 . S
C2568 H2554 0.961 . S
C2568 C2567 1.502 . S
C2569 H2555 0.960 . S
C2569 H2556 0.961 . S
C2569 H2557 0.959 . S
C2569 C2567 1.561 1_655 S
C2570 C2567 1.526 . S
C2570 C2571 1.396 1_455 S
C2570 C2575 1.390 . S
C2571 C2565 1.465 . S
C2571 C2570 1.396 1_655 S
C2571 C2572 1.399 . S
C2572 H2558 0.929 . S
C2572 C2571 1.399 . S
C2572 C2573 1.385 . S
C2573 H2559 0.931 . S
C2573 C2572 1.385 . S
C2573 C2574 1.389 1_655 S
C2574 C2573 1.389 1_455 S
C2574 C2575 1.387 . S
C2575 H2560 0.930 . S
C2575 C2570 1.390 . S
C2575 C2574 1.387 . S
H2576 C2588 0.930 . S
H2577 C2590 0.930 . S
H2578 C2591 0.930 . S
H2579 C2595 0.959 . S
H2580 C2595 0.959 . S
H2581 C2595 0.961 . S
H2582 C2596 0.960 . S
H2583 C2596 0.961 . S
H2584 C2596 0.959 . S
H2585 C2599 0.929 . S
H2586 C2600 0.931 . S
H2587 C2602 0.930 . S
C2588 H2576 0.930 . S
C2588 C2589 1.399 . S
C2588 C2593 1.399 . S
C2589 C2588 1.399 . S
C2589 C2590 1.376 . S
C2590 H2577 0.930 . S
C2590 C2589 1.376 . S
C2590 C2591 1.388 . S
C2591 H2578 0.930 . S
C2591 C2590 1.388 . S
C2591 C2592 1.390 . S
C2592 C2591 1.390 . S
C2592 C2593 1.394 . S
C2592 C2598 1.465 . S
C2593 C2588 1.399 . S
C2593 C2592 1.394 . S
C2593 C2594 1.516 . S
C2594 C2593 1.516 . S
C2594 C2595 1.502 . S
C2594 C2596 1.561 . S
C2594 C2597 1.526 . S
C2595 H2579 0.959 . S
C2595 H2580 0.959 . S
C2595 H2581 0.961 . S
C2595 C2594 1.502 . S
C2596 H2582 0.960 . S
C2596 H2583 0.961 . S
C2596 H2584 0.959 . S
C2596 C2594 1.561 . S
C2597 C2594 1.526 . S
C2597 C2598 1.396 . S
C2597 C2602 1.390 . S
C2598 C2592 1.465 . S
C2598 C2597 1.396 . S
C2598 C2599 1.399 . S
C2599 H2585 0.929 . S
C2599 C2598 1.399 . S
C2599 C2600 1.385 . S
C2600 H2586 0.931 . S
C2600 C2599 1.385 . S
C2600 C2601 1.389 . S
C2601 C2600 1.389 . S
C2601 C2602 1.387 . S
C2602 H2587 0.930 . S
C2602 C2597 1.390 . S
C2602 C2601 1.387 . S
H2603 C2615 0.930 . S
H2604 C2617 0.930 . S
H2605 C2618 0.930 . S
H2606 C2622 0.959 . S
H2607 C2622 0.959 . S
H2608 C2622 0.961 . S
H2609 C2623 0.960 . S
H2610 C2623 0.961 . S
H2611 C2623 0.959 . S
H2612 C2626 0.929 . S
H2613 C2627 0.931 . S
H2614 C2629 0.930 1_655 S
C2615 H2603 0.930 . S
C2615 C2616 1.399 1_565 S
C2615 C2620 1.399 . S
C2616 C2615 1.399 1_545 S
C2616 C2617 1.376 1_655 S
C2617 H2604 0.930 . S
C2617 C2616 1.376 1_455 S
C2617 C2618 1.388 . S
C2618 H2605 0.930 . S
C2618 C2617 1.388 . S
C2618 C2619 1.390 . S
C2619 C2618 1.390 . S
C2619 C2620 1.394 1_445 S
C2619 C2625 1.465 . S
C2620 C2615 1.399 . S
C2620 C2619 1.394 1_665 S
C2620 C2621 1.516 . S
C2621 C2620 1.516 . S
C2621 C2622 1.502 . S
C2621 C2623 1.561 1_655 S
C2621 C2624 1.526 1_655 S
C2622 H2606 0.959 . S
C2622 H2607 0.959 . S
C2622 H2608 0.961 . S
C2622 C2621 1.502 . S
C2623 H2609 0.960 . S
C2623 H2610 0.961 . S
C2623 H2611 0.959 . S
C2623 C2621 1.561 1_455 S
C2624 C2621 1.526 1_455 S
C2624 C2625 1.396 1_565 S
C2624 C2629 1.390 . S
C2625 C2619 1.465 . S
C2625 C2624 1.396 1_545 S
C2625 C2626 1.399 . S
C2626 H2612 0.929 . S
C2626 C2625 1.399 . S
C2626 C2627 1.385 . S
C2627 H2613 0.931 . S
C2627 C2626 1.385 . S
C2627 C2628 1.389 1_545 S
C2628 C2627 1.389 1_565 S
C2628 C2629 1.387 . S
C2629 H2614 0.930 1_455 S
C2629 C2624 1.390 . S
C2629 C2628 1.387 . S
H2630 C2642 0.930 . S
H2631 C2644 0.930 . S
H2632 C2645 0.930 . S
H2633 C2649 0.959 . S
H2634 C2649 0.959 . S
H2635 C2649 0.961 . S
H2636 C2650 0.960 . S
H2637 C2650 0.961 . S
H2638 C2650 0.959 . S
H2639 C2653 0.929 . S
H2640 C2654 0.931 . S
H2641 C2656 0.930 . S
C2642 H2630 0.930 . S
C2642 C2643 1.399 . S
C2642 C2647 1.399 . S
C2643 C2642 1.399 . S
C2643 C2644 1.376 . S
C2644 H2631 0.930 . S
C2644 C2643 1.376 . S
C2644 C2645 1.388 . S
C2645 H2632 0.930 . S
C2645 C2644 1.388 . S
C2645 C2646 1.390 . S
C2646 C2645 1.390 . S
C2646 C2647 1.394 . S
C2646 C2652 1.465 . S
C2647 C2642 1.399 . S
C2647 C2646 1.394 . S
C2647 C2648 1.516 . S
C2648 C2647 1.516 . S
C2648 C2649 1.502 . S
C2648 C2650 1.561 . S
C2648 C2651 1.526 . S
C2649 H2633 0.959 . S
C2649 H2634 0.959 . S
C2649 H2635 0.961 . S
C2649 C2648 1.502 . S
C2650 H2636 0.960 . S
C2650 H2637 0.961 . S
C2650 H2638 0.959 . S
C2650 C2648 1.561 . S
C2651 C2648 1.526 . S
C2651 C2652 1.396 . S
C2651 C2656 1.390 . S
C2652 C2646 1.465 . S
C2652 C2651 1.396 . S
C2652 C2653 1.399 . S
C2653 H2639 0.929 . S
C2653 C2652 1.399 . S
C2653 C2654 1.385 . S
C2654 H2640 0.931 . S
C2654 C2653 1.385 . S
C2654 C2655 1.389 . S
C2655 C2654 1.389 . S
C2655 C2656 1.387 . S
C2656 H2641 0.930 . S
C2656 C2651 1.390 . S
C2656 C2655 1.387 . S
H2657 C2669 0.930 . S
H2658 C2671 0.930 . S
H2659 C2672 0.930 . S
H2660 C2676 0.959 . S
H2661 C2676 0.959 . S
H2662 C2676 0.961 1_554 S
H2663 C2677 0.960 1_554 S
H2664 C2677 0.961 . S
H2665 C2677 0.964 . S
H2666 C2680 0.929 . S
H2667 C2681 0.931 . S
H2668 C2683 0.930 . S
C2669 H2657 0.930 . S
C2669 C2670 1.399 . S
C2669 C2674 1.399 . S
C2670 C2669 1.399 . S
C2670 C2671 1.376 1_545 S
C2671 H2658 0.930 . S
C2671 C2670 1.376 1_565 S
C2671 C2672 1.388 . S
C2672 H2659 0.930 . S
C2672 C2671 1.388 . S
C2672 C2673 1.390 . S
C2673 C2672 1.390 . S
C2673 C2674 1.394 1_565 S
C2673 C2679 1.465 1_554 S
C2674 C2669 1.399 . S
C2674 C2673 1.394 1_545 S
C2674 C2675 1.516 1_554 S
C2675 C2674 1.516 1_556 S
C2675 C2676 1.502 . S
C2675 C2677 1.561 . S
C2675 C2678 1.526 . S
C2676 H2660 0.959 . S
C2676 H2661 0.959 . S
C2676 H2662 0.961 1_556 S
C2676 C2675 1.502 . S
C2677 H2663 0.960 1_556 S
C2677 H2664 0.961 . S
C2677 H2665 0.964 . S
C2677 C2675 1.561 . S
C2678 C2675 1.526 . S
C2678 C2679 1.396 1_545 S
C2678 C2683 1.390 . S
C2679 C2673 1.465 1_556 S
C2679 C2678 1.396 1_565 S
C2679 C2680 1.399 . S
C2680 H2666 0.929 . S
C2680 C2679 1.399 . S
C2680 C2681 1.385 . S
C2681 H2667 0.931 . S
C2681 C2680 1.385 . S
C2681 C2682 1.389 . S
C2682 C2681 1.389 . S
C2682 C2683 1.387 1_565 S
C2683 H2668 0.930 . S
C2683 C2678 1.390 . S
C2683 C2682 1.387 1_545 S
H2684 C2696 0.930 . S
H2685 C2698 0.930 . S
H2686 C2699 0.930 . S
H2687 C2703 0.959 . S
H2688 C2703 0.959 . S
H2689 C2703 0.961 . S
H2690 C2704 0.960 . S
H2691 C2704 0.961 . S
H2692 C2704 0.959 . S
H2693 C2707 0.929 . S
H2694 C2708 0.931 . S
H2695 C2710 0.930 . S
C2696 H2684 0.930 . S
C2696 C2697 1.399 . S
C2696 C2701 1.399 . S
C2697 C2696 1.399 . S
C2697 C2698 1.376 . S
C2698 H2685 0.930 . S
C2698 C2697 1.376 . S
C2698 C2699 1.388 . S
C2699 H2686 0.930 . S
C2699 C2698 1.388 . S
C2699 C2700 1.390 . S
C2700 C2699 1.390 . S
C2700 C2701 1.394 . S
C2700 C2706 1.465 . S
C2701 C2696 1.399 . S
C2701 C2700 1.394 . S
C2701 C2702 1.516 . S
C2702 C2701 1.516 . S
C2702 C2703 1.502 . S
C2702 C2704 1.561 . S
C2702 C2705 1.526 . S
C2703 H2687 0.959 . S
C2703 H2688 0.959 . S
C2703 H2689 0.961 . S
C2703 C2702 1.502 . S
C2704 H2690 0.960 . S
C2704 H2691 0.961 . S
C2704 H2692 0.959 . S
C2704 C2702 1.561 . S
C2705 C2702 1.526 . S
C2705 C2706 1.396 . S
C2705 C2710 1.390 . S
C2706 C2700 1.465 . S
C2706 C2705 1.396 . S
C2706 C2707 1.399 . S
C2707 H2693 0.929 . S
C2707 C2706 1.399 . S
C2707 C2708 1.385 . S
C2708 H2694 0.931 . S
C2708 C2707 1.385 . S
C2708 C2709 1.389 . S
C2709 C2708 1.389 . S
C2709 C2710 1.387 . S
C2710 H2695 0.930 . S
C2710 C2705 1.390 . S
C2710 C2709 1.387 . S
H2711 C2723 0.930 . S
H2712 C2725 0.930 . S
H2713 C2726 0.930 . S
H2714 C2730 0.959 . S
H2715 C2730 0.959 . S
H2716 C2730 0.961 . S
H2717 C2731 0.960 . S
H2718 C2731 0.961 . S
H2719 C2731 0.959 . S
H2720 C2734 0.929 . S
H2721 C2735 0.931 . S
H2722 C2737 0.930 . S
C2723 H2711 0.930 . S
C2723 C2724 1.399 . S
C2723 C2728 1.399 . S
C2724 C2723 1.399 . S
C2724 C2725 1.376 1_545 S
C2725 H2712 0.930 . S
C2725 C2724 1.376 1_565 S
C2725 C2726 1.388 . S
C2726 H2713 0.930 . S
C2726 C2725 1.388 . S
C2726 C2727 1.390 . S
C2727 C2726 1.390 . S
C2727 C2728 1.394 1_565 S
C2727 C2733 1.465 . S
C2728 C2723 1.399 . S
C2728 C2727 1.394 1_545 S
C2728 C2729 1.516 . S
C2729 C2728 1.516 . S
C2729 C2730 1.502 . S
C2729 C2731 1.561 . S
C2729 C2732 1.526 . S
C2730 H2714 0.959 . S
C2730 H2715 0.959 . S
C2730 H2716 0.961 . S
C2730 C2729 1.502 . S
C2731 H2717 0.960 . S
C2731 H2718 0.961 . S
C2731 H2719 0.959 . S
C2731 C2729 1.561 . S
C2732 C2729 1.526 . S
C2732 C2733 1.396 1_545 S
C2732 C2737 1.390 . S
C2733 C2727 1.465 . S
C2733 C2732 1.396 1_565 S
C2733 C2734 1.399 . S
C2734 H2720 0.929 . S
C2734 C2733 1.399 . S
C2734 C2735 1.385 . S
C2735 H2721 0.931 . S
C2735 C2734 1.385 . S
C2735 C2736 1.389 . S
C2736 C2735 1.389 . S
C2736 C2737 1.387 1_565 S
C2737 H2722 0.930 . S
C2737 C2732 1.390 . S
C2737 C2736 1.387 1_545 S
H2738 C2750 0.930 . S
H2739 C2752 0.930 . S
H2740 C2753 0.930 . S
H2741 C2757 0.959 . S
H2742 C2757 0.959 . S
H2743 C2757 0.961 . S
H2744 C2758 0.960 . S
H2745 C2758 0.961 . S
H2746 C2758 0.959 . S
H2747 C2761 0.929 . S
H2748 C2762 0.931 . S
H2749 C2764 0.930 . S
C2750 H2738 0.930 . S
C2750 C2751 1.399 . S
C2750 C2755 1.399 . S
C2751 C2750 1.399 . S
C2751 C2752 1.376 . S
C2752 H2739 0.930 . S
C2752 C2751 1.376 . S
C2752 C2753 1.388 . S
C2753 H2740 0.930 . S
C2753 C2752 1.388 . S
C2753 C2754 1.390 . S
C2754 C2753 1.390 . S
C2754 C2755 1.394 . S
C2754 C2760 1.465 . S
C2755 C2750 1.399 . S
C2755 C2754 1.394 . S
C2755 C2756 1.516 . S
C2756 C2755 1.516 . S
C2756 C2757 1.502 . S
C2756 C2758 1.561 . S
C2756 C2759 1.526 . S
C2757 H2741 0.959 . S
C2757 H2742 0.959 . S
C2757 H2743 0.961 . S
C2757 C2756 1.502 . S
C2758 H2744 0.960 . S
C2758 H2745 0.961 . S
C2758 H2746 0.959 . S
C2758 C2756 1.561 . S
C2759 C2756 1.526 . S
C2759 C2760 1.396 . S
C2759 C2764 1.390 . S
C2760 C2754 1.465 . S
C2760 C2759 1.396 . S
C2760 C2761 1.399 . S
C2761 H2747 0.929 . S
C2761 C2760 1.399 . S
C2761 C2762 1.385 . S
C2762 H2748 0.931 . S
C2762 C2761 1.385 . S
C2762 C2763 1.389 . S
C2763 C2762 1.389 . S
C2763 C2764 1.387 . S
C2764 H2749 0.930 . S
C2764 C2759 1.390 . S
C2764 C2763 1.387 . S
H2765 C2777 0.930 . S
H2766 C2779 0.930 . S
H2767 C2780 0.930 . S
H2768 C2784 0.959 . S
H2769 C2784 0.890 1_554 S
H2770 C2784 0.961 . S
H2771 C2785 0.960 . S
H2772 C2785 0.961 1_554 S
H2773 C2785 0.983 1_455 S
H2774 C2788 0.929 . S
H2775 C2789 0.931 . S
H2776 C2791 0.930 . S
C2777 H2765 0.930 . S
C2777 C2778 1.399 1_665 S
C2777 C2782 1.399 . S
C2778 C2777 1.399 1_445 S
C2778 C2779 1.376 . S
C2779 H2766 0.930 . S
C2779 C2778 1.376 . S
C2779 C2780 1.388 . S
C2780 H2767 0.930 . S
C2780 C2779 1.388 . S
C2780 C2781 1.390 . S
C2781 C2780 1.390 . S
C2781 C2782 1.394 1_445 S
C2781 C2787 1.465 1_556 S
C2782 C2777 1.399 . S
C2782 C2781 1.394 1_665 S
C2782 C2783 1.516 . S
C2783 C2782 1.516 . S
C2783 C2784 1.502 . S
C2783 C2785 1.561 . S
C2783 C2786 1.526 1_556 S
C2784 H2768 0.959 . S
C2784 H2769 0.890 1_556 S
C2784 H2770 0.961 . S
C2784 C2783 1.502 . S
C2785 H2771 0.960 . S
C2785 H2772 0.961 1_556 S
C2785 H2773 0.983 1_655 S
C2785 C2783 1.561 . S
C2786 C2783 1.526 1_554 S
C2786 C2787 1.396 1_665 S
C2786 C2791 1.390 . S
C2787 C2781 1.465 1_554 S
C2787 C2786 1.396 1_445 S
C2787 C2788 1.399 . S
C2788 H2774 0.929 . S
C2788 C2787 1.399 . S
C2788 C2789 1.385 . S
C2789 H2775 0.931 . S
C2789 C2788 1.385 . S
C2789 C2790 1.389 1_445 S
C2790 C2789 1.389 1_665 S
C2790 C2791 1.387 . S
C2791 H2776 0.930 . S
C2791 C2786 1.390 . S
C2791 C2790 1.387 . S
H2792 C2804 0.930 . S
H2793 C2806 0.930 . S
H2794 C2807 0.930 . S
H2795 C2811 0.959 . S
H2796 C2811 0.959 . S
H2797 C2811 0.961 . S
H2798 C2812 0.960 . S
H2799 C2812 0.961 . S
H2800 C2812 0.959 . S
H2801 C2815 0.929 . S
H2802 C2816 0.931 . S
H2803 C2818 0.930 . S
C2804 H2792 0.930 . S
C2804 C2805 1.399 . S
C2804 C2809 1.399 . S
C2805 C2804 1.399 . S
C2805 C2806 1.376 . S
C2806 H2793 0.930 . S
C2806 C2805 1.376 . S
C2806 C2807 1.388 . S
C2807 H2794 0.930 . S
C2807 C2806 1.388 . S
C2807 C2808 1.390 . S
C2808 C2807 1.390 . S
C2808 C2809 1.394 . S
C2808 C2814 1.465 . S
C2809 C2804 1.399 . S
C2809 C2808 1.394 . S
C2809 C2810 1.516 . S
C2810 C2809 1.516 . S
C2810 C2811 1.502 . S
C2810 C2812 1.561 . S
C2810 C2813 1.526 . S
C2811 H2795 0.959 . S
C2811 H2796 0.959 . S
C2811 H2797 0.961 . S
C2811 C2810 1.502 . S
C2812 H2798 0.960 . S
C2812 H2799 0.961 . S
C2812 H2800 0.959 . S
C2812 C2810 1.561 . S
C2813 C2810 1.526 . S
C2813 C2814 1.396 . S
C2813 C2818 1.390 . S
C2814 C2808 1.465 . S
C2814 C2813 1.396 . S
C2814 C2815 1.399 . S
C2815 H2801 0.929 . S
C2815 C2814 1.399 . S
C2815 C2816 1.385 . S
C2816 H2802 0.931 . S
C2816 C2815 1.385 . S
C2816 C2817 1.389 . S
C2817 C2816 1.389 . S
C2817 C2818 1.387 . S
C2818 H2803 0.930 . S
C2818 C2813 1.390 . S
C2818 C2817 1.387 . S
H2819 C2831 0.930 . S
H2820 C2833 0.930 . S
H2821 C2834 0.930 . S
H2822 C2838 0.959 . S
H2823 C2838 0.959 . S
H2824 C2838 0.961 . S
H2825 C2839 0.960 . S
H2826 C2839 0.961 . S
H2827 C2839 0.959 . S
H2828 C2842 0.929 . S
H2829 C2843 0.931 . S
H2830 C2845 0.930 . S
C2831 H2819 0.930 . S
C2831 C2832 1.399 . S
C2831 C2836 1.399 . S
C2832 C2831 1.399 . S
C2832 C2833 1.376 . S
C2833 H2820 0.930 . S
C2833 C2832 1.376 . S
C2833 C2834 1.388 . S
C2834 H2821 0.930 . S
C2834 C2833 1.388 . S
C2834 C2835 1.390 . S
C2835 C2834 1.390 . S
C2835 C2836 1.394 . S
C2835 C2841 1.465 . S
C2836 C2831 1.399 . S
C2836 C2835 1.394 . S
C2836 C2837 1.516 . S
C2837 C2836 1.516 . S
C2837 C2838 1.502 . S
C2837 C2839 1.561 . S
C2837 C2840 1.526 . S
C2838 H2822 0.959 . S
C2838 H2823 0.959 . S
C2838 H2824 0.961 . S
C2838 C2837 1.502 . S
C2839 H2825 0.960 . S
C2839 H2826 0.961 . S
C2839 H2827 0.959 . S
C2839 C2837 1.561 . S
C2840 C2837 1.526 . S
C2840 C2841 1.396 . S
C2840 C2845 1.390 . S
C2841 C2835 1.465 . S
C2841 C2840 1.396 . S
C2841 C2842 1.399 . S
C2842 H2828 0.929 . S
C2842 C2841 1.399 . S
C2842 C2843 1.385 . S
C2843 H2829 0.931 . S
C2843 C2842 1.385 . S
C2843 C2844 1.389 . S
C2844 C2843 1.389 . S
C2844 C2845 1.387 . S
C2845 H2830 0.930 . S
C2845 C2840 1.390 . S
C2845 C2844 1.387 . S
H2846 C2858 0.930 . S
H2847 C2860 0.930 . S
H2848 C2861 0.930 . S
H2849 C2865 0.959 . S
H2850 C2865 0.959 . S
H2851 C2865 0.961 . S
H2852 C2866 0.960 . S
H2853 C2866 0.961 . S
H2854 C2866 0.959 . S
H2855 C2869 0.929 . S
H2856 C2870 0.931 . S
H2857 C2872 0.930 . S
C2858 H2846 0.930 . S
C2858 C2859 1.399 . S
C2858 C2863 1.399 . S
C2859 C2858 1.399 . S
C2859 C2860 1.376 . S
C2860 H2847 0.930 . S
C2860 C2859 1.376 . S
C2860 C2861 1.388 . S
C2861 H2848 0.930 . S
C2861 C2860 1.388 . S
C2861 C2862 1.390 . S
C2862 C2861 1.390 . S
C2862 C2863 1.394 . S
C2862 C2868 1.465 . S
C2863 C2858 1.399 . S
C2863 C2862 1.394 . S
C2863 C2864 1.516 . S
C2864 C2863 1.516 . S
C2864 C2865 1.502 . S
C2864 C2866 1.561 . S
C2864 C2867 1.526 . S
C2865 H2849 0.959 . S
C2865 H2850 0.959 . S
C2865 H2851 0.961 . S
C2865 C2864 1.502 . S
C2866 H2852 0.960 . S
C2866 H2853 0.961 . S
C2866 H2854 0.959 . S
C2866 C2864 1.561 . S
C2867 C2864 1.526 . S
C2867 C2868 1.396 . S
C2867 C2872 1.390 . S
C2868 C2862 1.465 . S
C2868 C2867 1.396 . S
C2868 C2869 1.399 . S
C2869 H2855 0.929 . S
C2869 C2868 1.399 . S
C2869 C2870 1.385 . S
C2870 H2856 0.931 . S
C2870 C2869 1.385 . S
C2870 C2871 1.389 . S
C2871 C2870 1.389 . S
C2871 C2872 1.387 . S
C2872 H2857 0.930 . S
C2872 C2867 1.390 . S
C2872 C2871 1.387 . S
H2873 C2885 0.930 . S
H2874 C2887 0.930 . S
H2875 C2888 0.930 . S
H2876 C2892 0.959 . S
H2877 C2892 0.959 . S
H2878 C2892 0.961 . S
H2879 C2893 0.960 . S
H2880 C2893 0.961 . S
H2881 C2893 0.959 . S
H2882 C2896 0.929 . S
H2883 C2897 0.931 . S
H2884 C2899 0.930 . S
C2885 H2873 0.930 . S
C2885 C2886 1.399 . S
C2885 C2890 1.399 . S
C2886 C2885 1.399 . S
C2886 C2887 1.376 . S
C2887 H2874 0.930 . S
C2887 C2886 1.376 . S
C2887 C2888 1.388 . S
C2888 H2875 0.930 . S
C2888 C2887 1.388 . S
C2888 C2889 1.390 . S
C2889 C2888 1.390 . S
C2889 C2890 1.394 . S
C2889 C2895 1.465 . S
C2890 C2885 1.399 . S
C2890 C2889 1.394 . S
C2890 C2891 1.516 . S
C2891 C2890 1.516 . S
C2891 C2892 1.502 . S
C2891 C2893 1.561 . S
C2891 C2894 1.526 . S
C2892 H2876 0.959 . S
C2892 H2877 0.959 . S
C2892 H2878 0.961 . S
C2892 C2891 1.502 . S
C2893 H2879 0.960 . S
C2893 H2880 0.961 . S
C2893 H2881 0.959 . S
C2893 C2891 1.561 . S
C2894 C2891 1.526 . S
C2894 C2895 1.396 . S
C2894 C2899 1.390 . S
C2895 C2889 1.465 . S
C2895 C2894 1.396 . S
C2895 C2896 1.399 . S
C2896 H2882 0.929 . S
C2896 C2895 1.399 . S
C2896 C2897 1.385 . S
C2897 H2883 0.931 . S
C2897 C2896 1.385 . S
C2897 C2898 1.389 . S
C2898 C2897 1.389 . S
C2898 C2899 1.387 . S
C2899 H2884 0.930 . S
C2899 C2894 1.390 . S
C2899 C2898 1.387 . S
H2900 C2912 0.930 . S
H2901 C2914 0.930 . S
H2902 C2915 0.930 . S
H2903 C2919 0.959 . S
H2904 C2919 0.959 . S
H2905 C2919 0.961 1_554 S
H2906 C2920 0.958 . S
H2907 C2920 0.962 1_556 S
H2908 C2920 0.954 . S
H2909 C2923 0.929 . S
H2910 C2924 0.931 . S
H2911 C2926 0.930 . S
C2912 H2900 0.930 . S
C2912 C2913 1.399 . S
C2912 C2917 1.399 . S
C2913 C2912 1.399 . S
C2913 C2914 1.376 . S
C2914 H2901 0.930 . S
C2914 C2913 1.376 . S
C2914 C2915 1.388 . S
C2915 H2902 0.930 . S
C2915 C2914 1.388 . S
C2915 C2916 1.390 . S
C2916 C2915 1.390 . S
C2916 C2917 1.394 . S
C2916 C2922 1.465 1_554 S
C2917 C2912 1.399 . S
C2917 C2916 1.394 . S
C2917 C2918 1.516 1_554 S
C2918 C2917 1.516 1_556 S
C2918 C2919 1.502 . S
C2918 C2920 1.561 1_556 S
C2918 C2921 1.526 . S
C2919 H2903 0.959 . S
C2919 H2904 0.959 . S
C2919 H2905 0.961 1_556 S
C2919 C2918 1.502 . S
C2920 H2906 0.958 . S
C2920 H2907 0.962 1_554 S
C2920 H2908 0.954 . S
C2920 C2918 1.561 1_554 S
C2921 C2918 1.526 . S
C2921 C2922 1.396 . S
C2921 C2926 1.390 . S
C2922 C2916 1.465 1_556 S
C2922 C2921 1.396 . S
C2922 C2923 1.399 . S
C2923 H2909 0.929 . S
C2923 C2922 1.399 . S
C2923 C2924 1.385 . S
C2924 H2910 0.931 . S
C2924 C2923 1.385 . S
C2924 C2925 1.389 . S
C2925 C2924 1.389 . S
C2925 C2926 1.387 . S
C2926 H2911 0.930 . S
C2926 C2921 1.390 . S
C2926 C2925 1.387 . S
H2927 C2939 0.940 . S
H2928 C2941 0.930 . S
H2929 C2942 0.930 . S
H2930 C2946 0.959 . S
H2931 C2946 0.959 . S
H2932 C2946 0.961 . S
H2933 C2947 0.960 . S
H2934 C2947 0.961 1_455 S
H2935 C2947 0.959 . S
H2936 C2950 0.929 . S
H2937 C2951 0.931 . S
H2938 C2953 0.930 . S
C2939 H2927 0.940 . S
C2939 C2940 1.389 1_455 S
C2939 C2944 1.400 . S
C2940 C2939 1.389 1_655 S
C2940 C2941 1.376 . S
C2941 H2928 0.930 . S
C2941 C2940 1.376 . S
C2941 C2942 1.388 . S
C2942 H2929 0.930 . S
C2942 C2941 1.388 . S
C2942 C2943 1.390 . S
C2943 C2942 1.390 . S
C2943 C2944 1.394 1_655 S
C2943 C2949 1.465 . S
C2944 C2939 1.400 . S
C2944 C2943 1.394 1_455 S
C2944 C2945 1.516 . S
C2945 C2944 1.516 . S
C2945 C2946 1.502 . S
C2945 C2947 1.561 1_455 S
C2945 C2948 1.526 . S
C2946 H2930 0.959 . S
C2946 H2931 0.959 . S
C2946 H2932 0.961 . S
C2946 C2945 1.502 . S
C2947 H2933 0.960 . S
C2947 H2934 0.961 1_655 S
C2947 H2935 0.959 . S
C2947 C2945 1.561 1_655 S
C2948 C2945 1.526 . S
C2948 C2949 1.396 1_455 S
C2948 C2953 1.390 . S
C2949 C2943 1.465 . S
C2949 C2948 1.396 1_655 S
C2949 C2950 1.399 . S
C2950 H2936 0.929 . S
C2950 C2949 1.399 . S
C2950 C2951 1.385 . S
C2951 H2937 0.931 . S
C2951 C2950 1.385 . S
C2951 C2952 1.389 1_655 S
C2952 C2951 1.389 1_455 S
C2952 C2953 1.387 . S
C2953 H2938 0.930 . S
C2953 C2948 1.390 . S
C2953 C2952 1.387 . S
H2954 C2966 0.930 . S
H2955 C2968 0.930 . S
H2956 C2969 0.930 . S
H2957 C2973 0.959 . S
H2958 C2973 0.959 . S
H2959 C2973 0.961 1_554 S
H2960 C2974 0.960 . S
H2961 C2974 0.961 1_556 S
H2962 C2974 0.959 . S
H2963 C2977 0.929 . S
H2964 C2978 0.931 . S
H2965 C2980 0.930 1_455 S
C2966 H2954 0.930 . S
C2966 C2967 1.399 . S
C2966 C2971 1.399 . S
C2967 C2966 1.399 . S
C2967 C2968 1.376 1_455 S
C2968 H2955 0.930 . S
C2968 C2967 1.376 1_655 S
C2968 C2969 1.388 . S
C2969 H2956 0.930 . S
C2969 C2968 1.388 . S
C2969 C2970 1.390 . S
C2970 C2969 1.390 . S
C2970 C2971 1.394 1_655 S
C2970 C2976 1.465 1_554 S
C2971 C2966 1.399 . S
C2971 C2970 1.394 1_455 S
C2971 C2972 1.563 . S
C2972 C2971 1.563 . S
C2972 C2973 1.495 1_554 S
C2972 C2974 1.574 1_455 S
C2972 C2975 1.477 1_454 S
C2973 H2957 0.959 . S
C2973 H2958 0.959 . S
C2973 H2959 0.961 1_556 S
C2973 C2972 1.495 1_556 S
C2974 H2960 0.960 . S
C2974 H2961 0.961 1_554 S
C2974 H2962 0.959 . S
C2974 C2972 1.574 1_655 S
C2975 C2972 1.477 1_656 S
C2975 C2976 1.396 . S
C2975 C2980 1.390 . S
C2976 C2970 1.465 1_556 S
C2976 C2975 1.396 . S
C2976 C2977 1.399 . S
C2977 H2963 0.929 . S
C2977 C2976 1.399 . S
C2977 C2978 1.385 . S
C2978 H2964 0.931 . S
C2978 C2977 1.385 . S
C2978 C2979 1.389 . S
C2979 C2978 1.389 . S
C2979 C2980 1.387 . S
C2980 H2965 0.930 1_655 S
C2980 C2975 1.390 . S
C2980 C2979 1.387 . S
H2981 C2993 0.930 . S
H2982 C2995 0.930 . S
H2983 C2996 0.930 . S
H2984 C3000 0.959 . S
H2985 C3000 0.959 . S
H2986 C3000 0.961 . S
H2987 C3001 0.960 . S
H2988 C3001 0.961 . S
H2989 C3001 0.959 . S
H2990 C3004 0.929 . S
H2991 C3005 0.931 . S
H2992 C3007 0.930 . S
C2993 H2981 0.930 . S
C2993 C2994 1.399 . S
C2993 C2998 1.399 . S
C2994 C2993 1.399 . S
C2994 C2995 1.376 . S
C2995 H2982 0.930 . S
C2995 C2994 1.376 . S
C2995 C2996 1.388 . S
C2996 H2983 0.930 . S
C2996 C2995 1.388 . S
C2996 C2997 1.390 . S
C2997 C2996 1.390 . S
C2997 C2998 1.394 . S
C2997 C3003 1.465 . S
C2998 C2993 1.399 . S
C2998 C2997 1.394 . S
C2998 C2999 1.516 . S
C2999 C2998 1.516 . S
C2999 C3000 1.502 . S
C2999 C3001 1.561 . S
C2999 C3002 1.526 . S
C3000 H2984 0.959 . S
C3000 H2985 0.959 . S
C3000 H2986 0.961 . S
C3000 C2999 1.502 . S
C3001 H2987 0.960 . S
C3001 H2988 0.961 . S
C3001 H2989 0.959 . S
C3001 C2999 1.561 . S
C3002 C2999 1.526 . S
C3002 C3003 1.396 . S
C3002 C3007 1.390 . S
C3003 C2997 1.465 . S
C3003 C3002 1.396 . S
C3003 C3004 1.399 . S
C3004 H2990 0.929 . S
C3004 C3003 1.399 . S
C3004 C3005 1.385 . S
C3005 H2991 0.931 . S
C3005 C3004 1.385 . S
C3005 C3006 1.389 . S
C3006 C3005 1.389 . S
C3006 C3007 1.387 . S
C3007 H2992 0.930 . S
C3007 C3002 1.390 . S
C3007 C3006 1.387 . S
H3008 C3020 0.930 . S
H3009 C3022 0.930 . S
H3010 C3023 0.930 . S
H3011 C3027 0.959 . S
H3012 C3027 0.959 . S
H3013 C3027 0.961 . S
H3014 C3028 0.960 . S
H3015 C3028 0.961 . S
H3016 C3028 0.959 . S
H3017 C3031 0.929 . S
H3018 C3032 0.931 . S
H3019 C3034 0.930 . S
C3020 H3008 0.930 . S
C3020 C3021 1.399 . S
C3020 C3025 1.399 . S
C3021 C3020 1.399 . S
C3021 C3022 1.376 . S
C3022 H3009 0.930 . S
C3022 C3021 1.376 . S
C3022 C3023 1.388 . S
C3023 H3010 0.930 . S
C3023 C3022 1.388 . S
C3023 C3024 1.390 . S
C3024 C3023 1.390 . S
C3024 C3025 1.394 . S
C3024 C3030 1.465 . S
C3025 C3020 1.399 . S
C3025 C3024 1.394 . S
C3025 C3026 1.516 . S
C3026 C3025 1.516 . S
C3026 C3027 1.502 . S
C3026 C3028 1.561 . S
C3026 C3029 1.526 . S
C3027 H3011 0.959 . S
C3027 H3012 0.959 . S
C3027 H3013 0.961 . S
C3027 C3026 1.502 . S
C3028 H3014 0.960 . S
C3028 H3015 0.961 . S
C3028 H3016 0.959 . S
C3028 C3026 1.561 . S
C3029 C3026 1.526 . S
C3029 C3030 1.396 . S
C3029 C3034 1.390 . S
C3030 C3024 1.465 . S
C3030 C3029 1.396 . S
C3030 C3031 1.399 . S
C3031 H3017 0.929 . S
C3031 C3030 1.399 . S
C3031 C3032 1.385 . S
C3032 H3018 0.931 . S
C3032 C3031 1.385 . S
C3032 C3033 1.389 . S
C3033 C3032 1.389 . S
C3033 C3034 1.387 . S
C3034 H3019 0.930 . S
C3034 C3029 1.390 . S
C3034 C3033 1.387 . S
H3035 C3047 0.930 . S
H3036 C3049 0.930 . S
H3037 C3050 0.930 . S
H3038 C3054 0.959 . S
H3039 C3054 0.959 . S
H3040 C3054 0.961 . S
H3041 C3055 0.960 . S
H3042 C3055 0.961 . S
H3043 C3055 0.959 . S
H3044 C3058 0.929 . S
H3045 C3059 0.931 . S
H3046 C3061 0.930 . S
C3047 H3035 0.930 . S
C3047 C3048 1.399 . S
C3047 C3052 1.399 . S
C3048 C3047 1.399 . S
C3048 C3049 1.376 . S
C3049 H3036 0.930 . S
C3049 C3048 1.376 . S
C3049 C3050 1.388 . S
C3050 H3037 0.930 . S
C3050 C3049 1.388 . S
C3050 C3051 1.390 . S
C3051 C3050 1.390 . S
C3051 C3052 1.394 . S
C3051 C3057 1.465 . S
C3052 C3047 1.399 . S
C3052 C3051 1.394 . S
C3052 C3053 1.516 . S
C3053 C3052 1.516 . S
C3053 C3054 1.502 . S
C3053 C3055 1.561 . S
C3053 C3056 1.526 . S
C3054 H3038 0.959 . S
C3054 H3039 0.959 . S
C3054 H3040 0.961 . S
C3054 C3053 1.502 . S
C3055 H3041 0.960 . S
C3055 H3042 0.961 . S
C3055 H3043 0.959 . S
C3055 C3053 1.561 . S
C3056 C3053 1.526 . S
C3056 C3057 1.396 . S
C3056 C3061 1.390 . S
C3057 C3051 1.465 . S
C3057 C3056 1.396 . S
C3057 C3058 1.399 . S
C3058 H3044 0.929 . S
C3058 C3057 1.399 . S
C3058 C3059 1.385 . S
C3059 H3045 0.931 . S
C3059 C3058 1.385 . S
C3059 C3060 1.389 . S
C3060 C3059 1.389 . S
C3060 C3061 1.387 . S
C3061 H3046 0.930 . S
C3061 C3056 1.390 . S
C3061 C3060 1.387 . S
H3062 C3074 0.930 . S
H3063 C3076 0.930 . S
H3064 C3077 0.930 . S
H3065 C3081 0.959 . S
H3066 C3081 0.959 . S
H3067 C3081 0.961 . S
H3068 C3082 0.960 . S
H3069 C3082 0.961 . S
H3070 C3082 0.959 . S
H3071 C3085 0.929 . S
H3072 C3086 0.931 . S
H3073 C3088 0.930 . S
C3074 H3062 0.930 . S
C3074 C3075 1.399 . S
C3074 C3079 1.399 . S
C3075 C3074 1.399 . S
C3075 C3076 1.376 . S
C3076 H3063 0.930 . S
C3076 C3075 1.376 . S
C3076 C3077 1.388 . S
C3077 H3064 0.930 . S
C3077 C3076 1.388 . S
C3077 C3078 1.390 . S
C3078 C3077 1.390 . S
C3078 C3079 1.394 . S
C3078 C3084 1.465 . S
C3079 C3074 1.399 . S
C3079 C3078 1.394 . S
C3079 C3080 1.516 . S
C3080 C3079 1.516 . S
C3080 C3081 1.502 . S
C3080 C3082 1.561 . S
C3080 C3083 1.526 . S
C3081 H3065 0.959 . S
C3081 H3066 0.959 . S
C3081 H3067 0.961 . S
C3081 C3080 1.502 . S
C3082 H3068 0.960 . S
C3082 H3069 0.961 . S
C3082 H3070 0.959 . S
C3082 C3080 1.561 . S
C3083 C3080 1.526 . S
C3083 C3084 1.396 . S
C3083 C3088 1.390 . S
C3084 C3078 1.465 . S
C3084 C3083 1.396 . S
C3084 C3085 1.399 . S
C3085 H3071 0.929 . S
C3085 C3084 1.399 . S
C3085 C3086 1.385 . S
C3086 H3072 0.931 . S
C3086 C3085 1.385 . S
C3086 C3087 1.389 . S
C3087 C3086 1.389 . S
C3087 C3088 1.387 . S
C3088 H3073 0.930 . S
C3088 C3083 1.390 . S
C3088 C3087 1.387 . S
H3089 C3101 0.930 . S
H3090 C3103 0.930 . S
H3091 C3104 0.930 . S
H3092 C3108 0.959 . S
H3093 C3108 0.959 . S
H3094 C3108 0.961 . S
H3095 C3109 0.960 . S
H3096 C3109 0.961 . S
H3097 C3109 0.959 . S
H3098 C3112 0.929 . S
H3099 C3113 0.931 . S
H3100 C3115 0.930 . S
C3101 H3089 0.930 . S
C3101 C3102 1.399 . S
C3101 C3106 1.399 . S
C3102 C3101 1.399 . S
C3102 C3103 1.376 . S
C3103 H3090 0.930 . S
C3103 C3102 1.376 . S
C3103 C3104 1.388 . S
C3104 H3091 0.930 . S
C3104 C3103 1.388 . S
C3104 C3105 1.390 . S
C3105 C3104 1.390 . S
C3105 C3106 1.394 . S
C3105 C3111 1.465 . S
C3106 C3101 1.399 . S
C3106 C3105 1.394 . S
C3106 C3107 1.516 . S
C3107 C3106 1.516 . S
C3107 C3108 1.502 . S
C3107 C3109 1.561 . S
C3107 C3110 1.526 . S
C3108 H3092 0.959 . S
C3108 H3093 0.959 . S
C3108 H3094 0.961 . S
C3108 C3107 1.502 . S
C3109 H3095 0.960 . S
C3109 H3096 0.961 . S
C3109 H3097 0.959 . S
C3109 C3107 1.561 . S
C3110 C3107 1.526 . S
C3110 C3111 1.396 . S
C3110 C3115 1.390 . S
C3111 C3105 1.465 . S
C3111 C3110 1.396 . S
C3111 C3112 1.399 . S
C3112 H3098 0.929 . S
C3112 C3111 1.399 . S
C3112 C3113 1.385 . S
C3113 H3099 0.931 . S
C3113 C3112 1.385 . S
C3113 C3114 1.389 . S
C3114 C3113 1.389 . S
C3114 C3115 1.387 . S
C3115 H3100 0.930 . S
C3115 C3110 1.390 . S
C3115 C3114 1.387 . S
H3116 C3128 0.930 . S
H3117 C3130 0.930 . S
H3118 C3131 0.930 . S
H3119 C3135 0.959 . S
H3120 C3135 0.959 . S
H3121 C3135 0.961 . S
H3122 C3136 0.960 . S
H3123 C3136 0.961 . S
H3124 C3136 0.959 . S
H3125 C3139 0.929 . S
H3126 C3140 0.931 . S
H3127 C3142 0.930 . S
C3128 H3116 0.930 . S
C3128 C3129 1.399 . S
C3128 C3133 1.399 . S
C3129 C3128 1.399 . S
C3129 C3130 1.376 . S
C3130 H3117 0.930 . S
C3130 C3129 1.376 . S
C3130 C3131 1.388 . S
C3131 H3118 0.930 . S
C3131 C3130 1.388 . S
C3131 C3132 1.390 . S
C3132 C3131 1.390 . S
C3132 C3133 1.394 . S
C3132 C3138 1.465 . S
C3133 C3128 1.399 . S
C3133 C3132 1.394 . S
C3133 C3134 1.516 . S
C3134 C3133 1.516 . S
C3134 C3135 1.502 . S
C3134 C3136 1.561 . S
C3134 C3137 1.526 . S
C3135 H3119 0.959 . S
C3135 H3120 0.959 . S
C3135 H3121 0.961 . S
C3135 C3134 1.502 . S
C3136 H3122 0.960 . S
C3136 H3123 0.961 . S
C3136 H3124 0.959 . S
C3136 C3134 1.561 . S
C3137 C3134 1.526 . S
C3137 C3138 1.396 . S
C3137 C3142 1.390 . S
C3138 C3132 1.465 . S
C3138 C3137 1.396 . S
C3138 C3139 1.399 . S
C3139 H3125 0.929 . S
C3139 C3138 1.399 . S
C3139 C3140 1.385 . S
C3140 H3126 0.931 . S
C3140 C3139 1.385 . S
C3140 C3141 1.389 . S
C3141 C3140 1.389 . S
C3141 C3142 1.387 . S
C3142 H3127 0.930 . S
C3142 C3137 1.390 . S
C3142 C3141 1.387 . S
H3143 C3155 0.930 . S
H3144 C3157 0.930 . S
H3145 C3158 0.930 . S
H3146 C3162 0.959 . S
H3147 C3162 0.959 . S
H3148 C3162 0.961 . S
H3149 C3163 0.960 . S
H3150 C3163 0.961 . S
H3151 C3163 0.959 . S
H3152 C3166 0.929 . S
H3153 C3167 0.931 . S
H3154 C3169 0.930 . S
C3155 H3143 0.930 . S
C3155 C3156 1.399 . S
C3155 C3160 1.399 . S
C3156 C3155 1.399 . S
C3156 C3157 1.376 . S
C3157 H3144 0.930 . S
C3157 C3156 1.376 . S
C3157 C3158 1.388 . S
C3158 H3145 0.930 . S
C3158 C3157 1.388 . S
C3158 C3159 1.390 . S
C3159 C3158 1.390 . S
C3159 C3160 1.394 . S
C3159 C3165 1.465 . S
C3160 C3155 1.399 . S
C3160 C3159 1.394 . S
C3160 C3161 1.516 . S
C3161 C3160 1.516 . S
C3161 C3162 1.502 . S
C3161 C3163 1.561 . S
C3161 C3164 1.526 . S
C3162 H3146 0.959 . S
C3162 H3147 0.959 . S
C3162 H3148 0.961 . S
C3162 C3161 1.502 . S
C3163 H3149 0.960 . S
C3163 H3150 0.961 . S
C3163 H3151 0.959 . S
C3163 C3161 1.561 . S
C3164 C3161 1.526 . S
C3164 C3165 1.396 . S
C3164 C3169 1.390 . S
C3165 C3159 1.465 . S
C3165 C3164 1.396 . S
C3165 C3166 1.399 . S
C3166 H3152 0.929 . S
C3166 C3165 1.399 . S
C3166 C3167 1.385 . S
C3167 H3153 0.931 . S
C3167 C3166 1.385 . S
C3167 C3168 1.389 . S
C3168 C3167 1.389 . S
C3168 C3169 1.387 . S
C3169 H3154 0.930 . S
C3169 C3164 1.390 . S
C3169 C3168 1.387 . S
H3170 C3182 0.930 . S
H3171 C3184 0.930 . S
H3172 C3185 0.930 . S
H3173 C3189 0.959 . S
H3174 C3189 0.959 . S
H3175 C3189 0.961 . S
H3176 C3190 0.960 . S
H3177 C3190 0.961 . S
H3178 C3190 0.959 . S
H3179 C3193 0.929 . S
H3180 C3194 0.931 . S
H3181 C3196 0.930 . S
C3182 H3170 0.930 . S
C3182 C3183 1.399 . S
C3182 C3187 1.399 . S
C3183 C3182 1.399 . S
C3183 C3184 1.376 . S
C3184 H3171 0.930 . S
C3184 C3183 1.376 . S
C3184 C3185 1.388 . S
C3185 H3172 0.930 . S
C3185 C3184 1.388 . S
C3185 C3186 1.390 . S
C3186 C3185 1.390 . S
C3186 C3187 1.394 . S
C3186 C3192 1.465 . S
C3187 C3182 1.399 . S
C3187 C3186 1.394 . S
C3187 C3188 1.516 . S
C3188 C3187 1.516 . S
C3188 C3189 1.502 . S
C3188 C3190 1.561 . S
C3188 C3191 1.526 . S
C3189 H3173 0.959 . S
C3189 H3174 0.959 . S
C3189 H3175 0.961 . S
C3189 C3188 1.502 . S
C3190 H3176 0.960 . S
C3190 H3177 0.961 . S
C3190 H3178 0.959 . S
C3190 C3188 1.561 . S
C3191 C3188 1.526 . S
C3191 C3192 1.396 . S
C3191 C3196 1.390 . S
C3192 C3186 1.465 . S
C3192 C3191 1.396 . S
C3192 C3193 1.399 . S
C3193 H3179 0.929 . S
C3193 C3192 1.399 . S
C3193 C3194 1.385 . S
C3194 H3180 0.931 . S
C3194 C3193 1.385 . S
C3194 C3195 1.389 . S
C3195 C3194 1.389 . S
C3195 C3196 1.387 . S
C3196 H3181 0.930 . S
C3196 C3191 1.390 . S
C3196 C3195 1.387 . S
H3197 C3209 0.930 . S
H3198 C3211 0.930 . S
H3199 C3212 0.930 . S
H3200 C3216 0.959 . S
H3201 C3216 0.959 . S
H3202 C3216 0.961 . S
H3203 C3217 0.960 . S
H3204 C3217 0.961 . S
H3205 C3217 0.959 . S
H3206 C3220 0.929 . S
H3207 C3221 0.931 . S
H3208 C3223 0.930 . S
C3209 H3197 0.930 . S
C3209 C3210 1.399 . S
C3209 C3214 1.399 . S
C3210 C3209 1.399 . S
C3210 C3211 1.376 . S
C3211 H3198 0.930 . S
C3211 C3210 1.376 . S
C3211 C3212 1.388 . S
C3212 H3199 0.930 . S
C3212 C3211 1.388 . S
C3212 C3213 1.390 . S
C3213 C3212 1.390 . S
C3213 C3214 1.394 . S
C3213 C3219 1.465 . S
C3214 C3209 1.399 . S
C3214 C3213 1.394 . S
C3214 C3215 1.516 . S
C3215 C3214 1.516 . S
C3215 C3216 1.502 . S
C3215 C3217 1.561 . S
C3215 C3218 1.526 . S
C3216 H3200 0.959 . S
C3216 H3201 0.959 . S
C3216 H3202 0.961 . S
C3216 C3215 1.502 . S
C3217 H3203 0.960 . S
C3217 H3204 0.961 . S
C3217 H3205 0.959 . S
C3217 C3215 1.561 . S
C3218 C3215 1.526 . S
C3218 C3219 1.396 . S
C3218 C3223 1.390 . S
C3219 C3213 1.465 . S
C3219 C3218 1.396 . S
C3219 C3220 1.399 . S
C3220 H3206 0.929 . S
C3220 C3219 1.399 . S
C3220 C3221 1.385 . S
C3221 H3207 0.931 . S
C3221 C3220 1.385 . S
C3221 C3222 1.389 . S
C3222 C3221 1.389 . S
C3222 C3223 1.387 . S
C3223 H3208 0.930 . S
C3223 C3218 1.390 . S
C3223 C3222 1.387 . S
H3224 C3236 0.930 . S
H3225 C3238 0.930 . S
H3226 C3239 0.930 . S
H3227 C3243 0.959 . S
H3228 C3243 0.959 . S
H3229 C3243 0.961 . S
H3230 C3244 0.960 . S
H3231 C3244 0.961 . S
H3232 C3244 0.959 . S
H3233 C3247 0.929 . S
H3234 C3248 0.931 . S
H3235 C3250 0.930 . S
C3236 H3224 0.930 . S
C3236 C3237 1.399 . S
C3236 C3241 1.399 . S
C3237 C3236 1.399 . S
C3237 C3238 1.376 . S
C3238 H3225 0.930 . S
C3238 C3237 1.376 . S
C3238 C3239 1.388 . S
C3239 H3226 0.930 . S
C3239 C3238 1.388 . S
C3239 C3240 1.390 . S
C3240 C3239 1.390 . S
C3240 C3241 1.394 . S
C3240 C3246 1.465 . S
C3241 C3236 1.399 . S
C3241 C3240 1.394 . S
C3241 C3242 1.516 . S
C3242 C3241 1.516 . S
C3242 C3243 1.502 . S
C3242 C3244 1.561 . S
C3242 C3245 1.526 . S
C3243 H3227 0.959 . S
C3243 H3228 0.959 . S
C3243 H3229 0.961 . S
C3243 C3242 1.502 . S
C3244 H3230 0.960 . S
C3244 H3231 0.961 . S
C3244 H3232 0.959 . S
C3244 C3242 1.561 . S
C3245 C3242 1.526 . S
C3245 C3246 1.396 . S
C3245 C3250 1.390 . S
C3246 C3240 1.465 . S
C3246 C3245 1.396 . S
C3246 C3247 1.399 . S
C3247 H3233 0.929 . S
C3247 C3246 1.399 . S
C3247 C3248 1.385 . S
C3248 H3234 0.931 . S
C3248 C3247 1.385 . S
C3248 C3249 1.389 . S
C3249 C3248 1.389 . S
C3249 C3250 1.387 . S
C3250 H3235 0.930 . S
C3250 C3245 1.390 . S
C3250 C3249 1.387 . S
H3251 C3263 0.930 . S
H3252 C3265 0.930 . S
H3253 C3266 0.930 . S
H3254 C3270 0.959 . S
H3255 C3270 0.959 . S
H3256 C3270 0.961 . S
H3257 C3271 0.960 . S
H3258 C3271 0.961 . S
H3259 C3271 0.959 . S
H3260 C3274 0.929 . S
H3261 C3275 0.931 . S
H3262 C3277 0.930 . S
C3263 H3251 0.930 . S
C3263 C3264 1.399 . S
C3263 C3268 1.399 . S
C3264 C3263 1.399 . S
C3264 C3265 1.376 . S
C3265 H3252 0.930 . S
C3265 C3264 1.376 . S
C3265 C3266 1.388 . S
C3266 H3253 0.930 . S
C3266 C3265 1.388 . S
C3266 C3267 1.390 . S
C3267 C3266 1.390 . S
C3267 C3268 1.394 . S
C3267 C3273 1.465 . S
C3268 C3263 1.399 . S
C3268 C3267 1.394 . S
C3268 C3269 1.516 . S
C3269 C3268 1.516 . S
C3269 C3270 1.502 . S
C3269 C3271 1.561 . S
C3269 C3272 1.526 . S
C3270 H3254 0.959 . S
C3270 H3255 0.959 . S
C3270 H3256 0.961 . S
C3270 C3269 1.502 . S
C3271 H3257 0.960 . S
C3271 H3258 0.961 . S
C3271 H3259 0.959 . S
C3271 C3269 1.561 . S
C3272 C3269 1.526 . S
C3272 C3273 1.396 . S
C3272 C3277 1.390 . S
C3273 C3267 1.465 . S
C3273 C3272 1.396 . S
C3273 C3274 1.399 . S
C3274 H3260 0.929 . S
C3274 C3273 1.399 . S
C3274 C3275 1.385 . S
C3275 H3261 0.931 . S
C3275 C3274 1.385 . S
C3275 C3276 1.389 . S
C3276 C3275 1.389 . S
C3276 C3277 1.387 . S
C3277 H3262 0.930 . S
C3277 C3272 1.390 . S
C3277 C3276 1.387 . S
H3278 C3290 0.930 . S
H3279 C3292 0.930 . S
H3280 C3293 0.930 . S
H3281 C3297 0.959 . S
H3282 C3297 0.959 . S
H3283 C3297 0.961 . S
H3284 C3298 0.960 . S
H3285 C3298 0.961 . S
H3286 C3298 0.959 . S
H3287 C3301 0.929 . S
H3288 C3302 0.931 . S
H3289 C3304 0.930 . S
C3290 H3278 0.930 . S
C3290 C3291 1.399 . S
C3290 C3295 1.399 . S
C3291 C3290 1.399 . S
C3291 C3292 1.376 . S
C3292 H3279 0.930 . S
C3292 C3291 1.376 . S
C3292 C3293 1.388 . S
C3293 H3280 0.930 . S
C3293 C3292 1.388 . S
C3293 C3294 1.390 . S
C3294 C3293 1.390 . S
C3294 C3295 1.394 . S
C3294 C3300 1.465 . S
C3295 C3290 1.399 . S
C3295 C3294 1.394 . S
C3295 C3296 1.516 . S
C3296 C3295 1.516 . S
C3296 C3297 1.502 . S
C3296 C3298 1.561 . S
C3296 C3299 1.526 . S
C3297 H3281 0.959 . S
C3297 H3282 0.959 . S
C3297 H3283 0.961 . S
C3297 C3296 1.502 . S
C3298 H3284 0.960 . S
C3298 H3285 0.961 . S
C3298 H3286 0.959 . S
C3298 C3296 1.561 . S
C3299 C3296 1.526 . S
C3299 C3300 1.396 . S
C3299 C3304 1.390 . S
C3300 C3294 1.465 . S
C3300 C3299 1.396 . S
C3300 C3301 1.399 . S
C3301 H3287 0.929 . S
C3301 C3300 1.399 . S
C3301 C3302 1.385 . S
C3302 H3288 0.931 . S
C3302 C3301 1.385 . S
C3302 C3303 1.389 . S
C3303 C3302 1.389 . S
C3303 C3304 1.387 . S
C3304 H3289 0.930 . S
C3304 C3299 1.390 . S
C3304 C3303 1.387 . S
H3305 C3317 0.930 . S
H3306 C3319 0.930 . S
H3307 C3320 0.930 . S
H3308 C3324 0.959 . S
H3309 C3324 0.959 . S
H3310 C3324 0.961 . S
H3311 C3325 0.960 . S
H3312 C3325 0.961 . S
H3313 C3325 0.959 . S
H3314 C3328 0.929 . S
H3315 C3329 0.931 . S
H3316 C3331 0.930 . S
C3317 H3305 0.930 . S
C3317 C3318 1.399 . S
C3317 C3322 1.399 . S
C3318 C3317 1.399 . S
C3318 C3319 1.376 . S
C3319 H3306 0.930 . S
C3319 C3318 1.376 . S
C3319 C3320 1.388 . S
C3320 H3307 0.930 . S
C3320 C3319 1.388 . S
C3320 C3321 1.390 . S
C3321 C3320 1.390 . S
C3321 C3322 1.394 . S
C3321 C3327 1.465 . S
C3322 C3317 1.399 . S
C3322 C3321 1.394 . S
C3322 C3323 1.516 . S
C3323 C3322 1.516 . S
C3323 C3324 1.502 . S
C3323 C3325 1.561 . S
C3323 C3326 1.526 . S
C3324 H3308 0.959 . S
C3324 H3309 0.959 . S
C3324 H3310 0.961 . S
C3324 C3323 1.502 . S
C3325 H3311 0.960 . S
C3325 H3312 0.961 . S
C3325 H3313 0.959 . S
C3325 C3323 1.561 . S
C3326 C3323 1.526 . S
C3326 C3327 1.396 . S
C3326 C3331 1.390 . S
C3327 C3321 1.465 . S
C3327 C3326 1.396 . S
C3327 C3328 1.399 . S
C3328 H3314 0.929 . S
C3328 C3327 1.399 . S
C3328 C3329 1.385 . S
C3329 H3315 0.931 . S
C3329 C3328 1.385 . S
C3329 C3330 1.389 . S
C3330 C3329 1.389 . S
C3330 C3331 1.387 . S
C3331 H3316 0.930 . S
C3331 C3326 1.390 . S
C3331 C3330 1.387 . S
H3332 C3344 0.930 . S
H3333 C3346 0.930 . S
H3334 C3347 0.930 . S
H3335 C3351 0.959 . S
H3336 C3351 0.959 . S
H3337 C3351 0.961 . S
H3338 C3352 0.960 . S
H3339 C3352 0.961 . S
H3340 C3352 0.959 . S
H3341 C3355 0.929 . S
H3342 C3356 0.931 . S
H3343 C3358 0.930 . S
C3344 H3332 0.930 . S
C3344 C3345 1.399 . S
C3344 C3349 1.399 . S
C3345 C3344 1.399 . S
C3345 C3346 1.376 . S
C3346 H3333 0.930 . S
C3346 C3345 1.376 . S
C3346 C3347 1.388 . S
C3347 H3334 0.930 . S
C3347 C3346 1.388 . S
C3347 C3348 1.390 . S
C3348 C3347 1.390 . S
C3348 C3349 1.394 . S
C3348 C3354 1.465 . S
C3349 C3344 1.399 . S
C3349 C3348 1.394 . S
C3349 C3350 1.516 . S
C3350 C3349 1.516 . S
C3350 C3351 1.502 . S
C3350 C3352 1.561 . S
C3350 C3353 1.526 . S
C3351 H3335 0.959 . S
C3351 H3336 0.959 . S
C3351 H3337 0.961 . S
C3351 C3350 1.502 . S
C3352 H3338 0.960 . S
C3352 H3339 0.961 . S
C3352 H3340 0.959 . S
C3352 C3350 1.561 . S
C3353 C3350 1.526 . S
C3353 C3354 1.396 . S
C3353 C3358 1.390 . S
C3354 C3348 1.465 . S
C3354 C3353 1.396 . S
C3354 C3355 1.399 . S
C3355 H3341 0.929 . S
C3355 C3354 1.399 . S
C3355 C3356 1.385 . S
C3356 H3342 0.931 . S
C3356 C3355 1.385 . S
C3356 C3357 1.389 . S
C3357 C3356 1.389 . S
C3357 C3358 1.387 . S
C3358 H3343 0.930 . S
C3358 C3353 1.390 . S
C3358 C3357 1.387 . S
H3359 C3371 0.930 . S
H3360 C3373 0.930 . S
H3361 C3374 0.930 . S
H3362 C3378 0.959 . S
H3363 C3378 0.959 . S
H3364 C3378 0.961 . S
H3365 C3379 0.960 . S
H3366 C3379 0.961 . S
H3367 C3379 0.959 . S
H3368 C3382 0.929 . S
H3369 C3383 0.931 . S
H3370 C3385 0.930 . S
C3371 H3359 0.930 . S
C3371 C3372 1.399 . S
C3371 C3376 1.399 . S
C3372 C3371 1.399 . S
C3372 C3373 1.376 . S
C3373 H3360 0.930 . S
C3373 C3372 1.376 . S
C3373 C3374 1.388 . S
C3374 H3361 0.930 . S
C3374 C3373 1.388 . S
C3374 C3375 1.390 . S
C3375 C3374 1.390 . S
C3375 C3376 1.394 . S
C3375 C3381 1.465 . S
C3376 C3371 1.399 . S
C3376 C3375 1.394 . S
C3376 C3377 1.516 . S
C3377 C3376 1.516 . S
C3377 C3378 1.502 . S
C3377 C3379 1.561 . S
C3377 C3380 1.526 . S
C3378 H3362 0.959 . S
C3378 H3363 0.959 . S
C3378 H3364 0.961 . S
C3378 C3377 1.502 . S
C3379 H3365 0.960 . S
C3379 H3366 0.961 . S
C3379 H3367 0.959 . S
C3379 C3377 1.561 . S
C3380 C3377 1.526 . S
C3380 C3381 1.396 . S
C3380 C3385 1.390 . S
C3381 C3375 1.465 . S
C3381 C3380 1.396 . S
C3381 C3382 1.399 . S
C3382 H3368 0.929 . S
C3382 C3381 1.399 . S
C3382 C3383 1.385 . S
C3383 H3369 0.931 . S
C3383 C3382 1.385 . S
C3383 C3384 1.389 . S
C3384 C3383 1.389 . S
C3384 C3385 1.387 . S
C3385 H3370 0.930 . S
C3385 C3380 1.390 . S
C3385 C3384 1.387 . S
H3386 C3398 0.930 . S
H3387 C3400 0.930 . S
H3388 C3401 0.930 . S
H3389 C3405 0.959 . S
H3390 C3405 0.959 . S
H3391 C3405 0.961 . S
H3392 C3406 0.960 . S
H3393 C3406 0.961 . S
H3394 C3406 0.959 . S
H3395 C3409 0.929 . S
H3396 C3410 0.931 . S
H3397 C3412 0.930 . S
C3398 H3386 0.930 . S
C3398 C3399 1.399 . S
C3398 C3403 1.399 . S
C3399 C3398 1.399 . S
C3399 C3400 1.376 . S
C3400 H3387 0.930 . S
C3400 C3399 1.376 . S
C3400 C3401 1.388 . S
C3401 H3388 0.930 . S
C3401 C3400 1.388 . S
C3401 C3402 1.390 . S
C3402 C3401 1.390 . S
C3402 C3403 1.394 . S
C3402 C3408 1.465 . S
C3403 C3398 1.399 . S
C3403 C3402 1.394 . S
C3403 C3404 1.516 . S
C3404 C3403 1.516 . S
C3404 C3405 1.502 . S
C3404 C3406 1.561 . S
C3404 C3407 1.526 . S
C3405 H3389 0.959 . S
C3405 H3390 0.959 . S
C3405 H3391 0.961 . S
C3405 C3404 1.502 . S
C3406 H3392 0.960 . S
C3406 H3393 0.961 . S
C3406 H3394 0.959 . S
C3406 C3404 1.561 . S
C3407 C3404 1.526 . S
C3407 C3408 1.396 . S
C3407 C3412 1.390 . S
C3408 C3402 1.465 . S
C3408 C3407 1.396 . S
C3408 C3409 1.399 . S
C3409 H3395 0.929 . S
C3409 C3408 1.399 . S
C3409 C3410 1.385 . S
C3410 H3396 0.931 . S
C3410 C3409 1.385 . S
C3410 C3411 1.389 . S
C3411 C3410 1.389 . S
C3411 C3412 1.387 . S
C3412 H3397 0.930 . S
C3412 C3407 1.390 . S
C3412 C3411 1.387 . S
H3413 C3425 0.930 . S
H3414 C3427 0.930 . S
H3415 C3428 0.930 . S
H3416 C3432 0.959 . S
H3417 C3432 0.959 . S
H3418 C3432 0.961 . S
H3419 C3433 0.960 . S
H3420 C3433 0.961 . S
H3421 C3433 0.959 . S
H3422 C3436 0.929 . S
H3423 C3437 0.931 . S
H3424 C3439 0.930 . S
C3425 H3413 0.930 . S
C3425 C3426 1.399 . S
C3425 C3430 1.399 . S
C3426 C3425 1.399 . S
C3426 C3427 1.376 . S
C3427 H3414 0.930 . S
C3427 C3426 1.376 . S
C3427 C3428 1.388 . S
C3428 H3415 0.930 . S
C3428 C3427 1.388 . S
C3428 C3429 1.390 . S
C3429 C3428 1.390 . S
C3429 C3430 1.394 . S
C3429 C3435 1.465 . S
C3430 C3425 1.399 . S
C3430 C3429 1.394 . S
C3430 C3431 1.516 . S
C3431 C3430 1.516 . S
C3431 C3432 1.502 . S
C3431 C3433 1.561 . S
C3431 C3434 1.526 . S
C3432 H3416 0.959 . S
C3432 H3417 0.959 . S
C3432 H3418 0.961 . S
C3432 C3431 1.502 . S
C3433 H3419 0.960 . S
C3433 H3420 0.961 . S
C3433 H3421 0.959 . S
C3433 C3431 1.561 . S
C3434 C3431 1.526 . S
C3434 C3435 1.396 . S
C3434 C3439 1.390 . S
C3435 C3429 1.465 . S
C3435 C3434 1.396 . S
C3435 C3436 1.399 . S
C3436 H3422 0.929 . S
C3436 C3435 1.399 . S
C3436 C3437 1.385 . S
C3437 H3423 0.931 . S
C3437 C3436 1.385 . S
C3437 C3438 1.389 . S
C3438 C3437 1.389 . S
C3438 C3439 1.387 . S
C3439 H3424 0.930 . S
C3439 C3434 1.390 . S
C3439 C3438 1.387 . S
H3440 C3452 0.930 . S
H3441 C3454 0.930 . S
H3442 C3455 0.930 . S
H3443 C3459 0.959 1_565 S
H3444 C3459 0.959 1_565 S
H3445 C3459 0.961 . S
H3446 C3460 0.960 . S
H3447 C3460 0.961 . S
H3448 C3460 0.959 . S
H3449 C3463 0.929 . S
H3450 C3464 0.931 . S
H3451 C3466 0.930 . S
C3452 H3440 0.930 . S
C3452 C3453 1.399 . S
C3452 C3457 1.399 . S
C3453 C3452 1.399 . S
C3453 C3454 1.376 . S
C3454 H3441 0.930 . S
C3454 C3453 1.376 . S
C3454 C3455 1.388 . S
C3455 H3442 0.930 . S
C3455 C3454 1.388 . S
C3455 C3456 1.390 . S
C3456 C3455 1.390 . S
C3456 C3457 1.394 . S
C3456 C3462 1.465 1_545 S
C3457 C3452 1.399 . S
C3457 C3456 1.394 . S
C3457 C3458 1.516 . S
C3458 C3457 1.516 . S
C3458 C3459 1.502 . S
C3458 C3460 1.561 . S
C3458 C3461 1.526 1_545 S
C3459 H3443 0.959 1_545 S
C3459 H3444 0.959 1_545 S
C3459 H3445 0.961 . S
C3459 C3458 1.502 . S
C3460 H3446 0.960 . S
C3460 H3447 0.961 . S
C3460 H3448 0.959 . S
C3460 C3458 1.561 . S
C3461 C3458 1.526 1_565 S
C3461 C3462 1.396 . S
C3461 C3466 1.390 . S
C3462 C3456 1.465 1_565 S
C3462 C3461 1.396 . S
C3462 C3463 1.399 . S
C3463 H3449 0.929 . S
C3463 C3462 1.399 . S
C3463 C3464 1.385 . S
C3464 H3450 0.931 . S
C3464 C3463 1.385 . S
C3464 C3465 1.389 . S
C3465 C3464 1.389 . S
C3465 C3466 1.387 . S
C3466 H3451 0.930 . S
C3466 C3461 1.390 . S
C3466 C3465 1.387 . S
H3467 C3479 0.930 1_545 S
H3468 C3481 0.930 . S
H3469 C3482 0.930 . S
H3470 C3486 0.959 1_565 S
H3471 C3486 0.959 . S
H3472 C3486 0.961 . S
H3473 C3487 0.960 . S
H3474 C3487 0.961 . S
H3475 C3487 0.959 . S
H3476 C3490 0.929 . S
H3477 C3491 0.931 . S
H3478 C3493 0.930 1_545 S
C3479 H3467 0.930 1_565 S
C3479 C3480 1.399 . S
C3479 C3484 1.399 . S
C3480 C3479 1.399 . S
C3480 C3481 1.376 . S
C3481 H3468 0.930 . S
C3481 C3480 1.376 . S
C3481 C3482 1.388 . S
C3482 H3469 0.930 . S
C3482 C3481 1.388 . S
C3482 C3483 1.390 . S
C3483 C3482 1.390 . S
C3483 C3484 1.394 . S
C3483 C3489 1.465 . S
C3484 C3479 1.399 . S
C3484 C3483 1.394 . S
C3484 C3485 1.516 1_565 S
C3485 C3484 1.516 1_545 S
C3485 C3486 1.502 . S
C3485 C3487 1.561 . S
C3485 C3488 1.526 1_545 S
C3486 H3470 0.959 1_545 S
C3486 H3471 0.959 . S
C3486 H3472 0.961 . S
C3486 C3485 1.502 . S
C3487 H3473 0.960 . S
C3487 H3474 0.961 . S
C3487 H3475 0.959 . S
C3487 C3485 1.561 . S
C3488 C3485 1.526 1_565 S
C3488 C3489 1.396 . S
C3488 C3493 1.390 . S
C3489 C3483 1.465 . S
C3489 C3488 1.396 . S
C3489 C3490 1.399 . S
C3490 H3476 0.929 . S
C3490 C3489 1.399 . S
C3490 C3491 1.385 . S
C3491 H3477 0.931 . S
C3491 C3490 1.385 . S
C3491 C3492 1.389 . S
C3492 C3491 1.389 . S
C3492 C3493 1.387 . S
C3493 H3478 0.930 1_565 S
C3493 C3488 1.390 . S
C3493 C3492 1.387 . S
H3494 C3506 0.930 . S
H3495 C3508 0.930 . S
H3496 C3509 0.930 . S
H3497 C3513 0.959 . S
H3498 C3513 0.959 . S
H3499 C3513 0.961 . S
H3500 C3514 0.960 . S
H3501 C3514 0.961 . S
H3502 C3514 0.959 . S
H3503 C3517 0.929 . S
H3504 C3518 0.931 . S
H3505 C3520 0.930 . S
C3506 H3494 0.930 . S
C3506 C3507 1.399 . S
C3506 C3511 1.399 . S
C3507 C3506 1.399 . S
C3507 C3508 1.376 . S
C3508 H3495 0.930 . S
C3508 C3507 1.376 . S
C3508 C3509 1.388 . S
C3509 H3496 0.930 . S
C3509 C3508 1.388 . S
C3509 C3510 1.390 . S
C3510 C3509 1.390 . S
C3510 C3511 1.394 . S
C3510 C3516 1.465 1_545 S
C3511 C3506 1.399 . S
C3511 C3510 1.394 . S
C3511 C3512 1.516 1_545 S
C3512 C3511 1.516 1_565 S
C3512 C3513 1.502 . S
C3512 C3514 1.561 . S
C3512 C3515 1.526 . S
C3513 H3497 0.959 . S
C3513 H3498 0.959 . S
C3513 H3499 0.961 . S
C3513 C3512 1.502 . S
C3514 H3500 0.960 . S
C3514 H3501 0.961 . S
C3514 H3502 0.959 . S
C3514 C3512 1.561 . S
C3515 C3512 1.526 . S
C3515 C3516 1.396 . S
C3515 C3520 1.390 . S
C3516 C3510 1.465 1_565 S
C3516 C3515 1.396 . S
C3516 C3517 1.399 . S
C3517 H3503 0.929 . S
C3517 C3516 1.399 . S
C3517 C3518 1.385 . S
C3518 H3504 0.931 . S
C3518 C3517 1.385 . S
C3518 C3519 1.389 . S
C3519 C3518 1.389 . S
C3519 C3520 1.387 . S
C3520 H3505 0.930 . S
C3520 C3515 1.390 . S
C3520 C3519 1.387 . S
H3521 C3533 0.926 . S
H3522 C3535 0.930 . S
H3523 C3536 0.930 . S
H3524 C3540 0.959 . S
H3525 C3540 0.959 . S
H3526 C3540 0.961 . S
H3527 C3541 0.960 . S
H3528 C3541 0.961 . S
H3529 C3541 0.959 . S
H3530 C3544 0.929 . S
H3531 C3545 0.958 . S
H3532 C3547 0.930 . S
C3533 H3521 0.926 . S
C3533 C3534 1.399 . S
C3533 C3538 1.399 . S
C3534 C3533 1.399 . S
C3534 C3535 1.376 . S
C3535 H3522 0.930 . S
C3535 C3534 1.376 . S
C3535 C3536 1.388 . S
C3536 H3523 0.930 . S
C3536 C3535 1.388 . S
C3536 C3537 1.390 . S
C3537 C3536 1.390 . S
C3537 C3538 1.394 . S
C3537 C3543 1.465 . S
C3538 C3533 1.399 . S
C3538 C3537 1.394 . S
C3538 C3539 1.528 1_556 S
C3539 C3538 1.528 1_554 S
C3539 C3540 1.512 . S
C3539 C3541 1.527 1_545 S
C3539 C3542 1.538 . S
C3540 H3524 0.959 . S
C3540 H3525 0.959 . S
C3540 H3526 0.961 . S
C3540 C3539 1.512 . S
C3541 H3527 0.960 . S
C3541 H3528 0.961 . S
C3541 H3529 0.959 . S
C3541 C3539 1.527 1_565 S
C3542 C3539 1.538 . S
C3542 C3543 1.396 1_554 S
C3542 C3547 1.390 . S
C3543 C3537 1.465 . S
C3543 C3542 1.396 1_556 S
C3543 C3544 1.399 . S
C3544 H3530 0.929 . S
C3544 C3543 1.399 . S
C3544 C3545 1.385 1_556 S
C3545 H3531 0.958 . S
C3545 C3544 1.385 1_554 S
C3545 C3546 1.389 . S
C3546 C3545 1.389 . S
C3546 C3547 1.387 . S
C3547 H3532 0.930 . S
C3547 C3542 1.390 . S
C3547 C3546 1.387 . S
H3548 C3560 0.930 . S
H3549 C3562 0.930 . S
H3550 C3563 0.930 . S
H3551 C3567 0.959 . S
H3552 C3567 0.959 . S
H3553 C3567 0.961 . S
H3554 C3568 0.960 . S
H3555 C3568 0.961 . S
H3556 C3568 0.959 . S
H3557 C3571 0.929 . S
H3558 C3572 0.931 . S
H3559 C3574 0.930 . S
C3560 H3548 0.930 . S
C3560 C3561 1.399 . S
C3560 C3565 1.399 . S
C3561 C3560 1.399 . S
C3561 C3562 1.376 . S
C3562 H3549 0.930 . S
C3562 C3561 1.376 . S
C3562 C3563 1.388 . S
C3563 H3550 0.930 . S
C3563 C3562 1.388 . S
C3563 C3564 1.390 . S
C3564 C3563 1.390 . S
C3564 C3565 1.394 . S
C3564 C3570 1.465 1_565 S
C3565 C3560 1.399 . S
C3565 C3564 1.394 . S
C3565 C3566 1.516 . S
C3566 C3565 1.516 . S
C3566 C3567 1.502 . S
C3566 C3568 1.561 . S
C3566 C3569 1.526 1_565 S
C3567 H3551 0.959 . S
C3567 H3552 0.959 . S
C3567 H3553 0.961 . S
C3567 C3566 1.502 . S
C3568 H3554 0.960 . S
C3568 H3555 0.961 . S
C3568 H3556 0.959 . S
C3568 C3566 1.561 . S
C3569 C3566 1.526 1_545 S
C3569 C3570 1.396 . S
C3569 C3574 1.390 . S
C3570 C3564 1.465 1_545 S
C3570 C3569 1.396 . S
C3570 C3571 1.399 . S
C3571 H3557 0.929 . S
C3571 C3570 1.399 . S
C3571 C3572 1.385 . S
C3572 H3558 0.931 . S
C3572 C3571 1.385 . S
C3572 C3573 1.389 . S
C3573 C3572 1.389 . S
C3573 C3574 1.387 . S
C3574 H3559 0.930 . S
C3574 C3569 1.390 . S
C3574 C3573 1.387 . S
H3575 C3587 0.930 . S
H3576 C3589 0.930 . S
H3577 C3590 0.930 . S
H3578 C3594 0.959 . S
H3579 C3594 0.959 . S
H3580 C3594 0.961 . S
H3581 C3595 0.960 . S
H3582 C3595 0.961 . S
H3583 C3595 0.959 . S
H3584 C3598 0.929 . S
H3585 C3599 0.931 . S
H3586 C3601 0.930 . S
C3587 H3575 0.930 . S
C3587 C3588 1.399 . S
C3587 C3592 1.399 . S
C3588 C3587 1.399 . S
C3588 C3589 1.376 1_545 S
C3589 H3576 0.930 . S
C3589 C3588 1.376 1_565 S
C3589 C3590 1.388 . S
C3590 H3577 0.930 . S
C3590 C3589 1.388 . S
C3590 C3591 1.390 1_565 S
C3591 C3590 1.390 1_545 S
C3591 C3592 1.394 . S
C3591 C3597 1.465 . S
C3592 C3587 1.399 . S
C3592 C3591 1.394 . S
C3592 C3593 1.516 . S
C3593 C3592 1.516 . S
C3593 C3594 1.502 . S
C3593 C3595 1.561 . S
C3593 C3596 1.526 . S
C3594 H3578 0.959 . S
C3594 H3579 0.959 . S
C3594 H3580 0.961 . S
C3594 C3593 1.502 . S
C3595 H3581 0.960 . S
C3595 H3582 0.961 . S
C3595 H3583 0.959 . S
C3595 C3593 1.561 . S
C3596 C3593 1.526 . S
C3596 C3597 1.396 . S
C3596 C3601 1.390 . S
C3597 C3591 1.465 . S
C3597 C3596 1.396 . S
C3597 C3598 1.399 1_545 S
C3598 H3584 0.929 . S
C3598 C3597 1.399 1_565 S
C3598 C3599 1.385 . S
C3599 H3585 0.931 . S
C3599 C3598 1.385 . S
C3599 C3600 1.389 1_565 S
C3600 C3599 1.389 1_545 S
C3600 C3601 1.387 . S
C3601 H3586 0.930 . S
C3601 C3596 1.390 . S
C3601 C3600 1.387 . S
H3602 C3614 0.930 . S
H3603 C3616 0.930 . S
H3604 C3617 0.911 1_545 S
H3605 C3621 0.959 . S
H3606 C3621 0.959 . S
H3607 C3621 0.961 . S
H3608 C3622 0.960 . S
H3609 C3622 0.961 . S
H3610 C3622 0.959 . S
H3611 C3625 0.929 . S
H3612 C3626 0.931 . S
H3613 C3628 0.930 . S
C3614 H3602 0.930 . S
C3614 C3615 1.399 . S
C3614 C3619 1.399 . S
C3615 C3614 1.399 . S
C3615 C3616 1.376 . S
C3616 H3603 0.930 . S
C3616 C3615 1.376 . S
C3616 C3617 1.388 . S
C3617 H3604 0.911 1_565 S
C3617 C3616 1.388 . S
C3617 C3618 1.390 . S
C3618 C3617 1.390 . S
C3618 C3619 1.394 . S
C3618 C3624 1.465 1_565 S
C3619 C3614 1.399 . S
C3619 C3618 1.394 . S
C3619 C3620 1.516 . S
C3620 C3619 1.516 . S
C3620 C3621 1.502 . S
C3620 C3622 1.561 . S
C3620 C3623 1.526 1_565 S
C3621 H3605 0.959 . S
C3621 H3606 0.959 . S
C3621 H3607 0.961 . S
C3621 C3620 1.502 . S
C3622 H3608 0.960 . S
C3622 H3609 0.961 . S
C3622 H3610 0.959 . S
C3622 C3620 1.561 . S
C3623 C3620 1.526 1_545 S
C3623 C3624 1.396 . S
C3623 C3628 1.390 . S
C3624 C3618 1.465 1_545 S
C3624 C3623 1.396 . S
C3624 C3625 1.399 . S
C3625 H3611 0.929 . S
C3625 C3624 1.399 . S
C3625 C3626 1.385 . S
C3626 H3612 0.931 . S
C3626 C3625 1.385 . S
C3626 C3627 1.389 . S
C3627 C3626 1.389 . S
C3627 C3628 1.387 . S
C3628 H3613 0.930 . S
C3628 C3623 1.390 . S
C3628 C3627 1.387 . S
H3629 C3641 0.972 1_545 S
H3630 C3643 0.930 . S
H3631 C3644 0.930 . S
H3632 C3648 0.959 . S
H3633 C3648 0.959 . S
H3634 C3648 0.961 . S
H3635 C3649 0.960 . S
H3636 C3649 0.961 . S
H3637 C3649 0.959 . S
H3638 C3652 0.929 . S
H3639 C3653 0.931 . S
H3640 C3655 0.924 1_545 S
C3641 H3629 0.972 1_565 S
C3641 C3642 1.399 . S
C3641 C3646 1.414 . S
C3642 C3641 1.399 . S
C3642 C3643 1.376 . S
C3643 H3630 0.930 . S
C3643 C3642 1.376 . S
C3643 C3644 1.388 . S
C3644 H3631 0.930 . S
C3644 C3643 1.388 . S
C3644 C3645 1.390 . S
C3645 C3644 1.390 . S
C3645 C3646 1.415 . S
C3645 C3651 1.493 . S
C3646 C3641 1.414 . S
C3646 C3645 1.415 . S
C3646 C3647 1.482 1_554 S
C3647 C3646 1.482 1_556 S
C3647 C3648 1.502 1_565 S
C3647 C3649 1.561 . S
C3647 C3650 1.526 . S
C3648 H3632 0.959 . S
C3648 H3633 0.959 . S
C3648 H3634 0.961 . S
C3648 C3647 1.502 1_545 S
C3649 H3635 0.960 . S
C3649 H3636 0.961 . S
C3649 H3637 0.959 . S
C3649 C3647 1.561 . S
C3650 C3647 1.526 . S
C3650 C3651 1.350 1_556 S
C3650 C3655 1.390 . S
C3651 C3645 1.493 . S
C3651 C3650 1.350 1_554 S
C3651 C3652 1.413 . S
C3652 H3638 0.929 . S
C3652 C3651 1.413 . S
C3652 C3653 1.385 1_554 S
C3653 H3639 0.931 . S
C3653 C3652 1.385 1_556 S
C3653 C3654 1.389 . S
C3654 C3653 1.389 . S
C3654 C3655 1.387 . S
C3655 H3640 0.924 1_565 S
C3655 C3650 1.390 . S
C3655 C3654 1.387 . S
H3656 C3668 0.930 . S
H3657 C3670 0.930 . S
H3658 C3671 0.930 . S
H3659 C3675 0.959 . S
H3660 C3675 0.959 . S
H3661 C3675 0.961 . S
H3662 C3676 0.960 . S
H3663 C3676 0.961 . S
H3664 C3676 0.959 . S
H3665 C3679 0.929 . S
H3666 C3680 0.931 . S
H3667 C3682 0.930 . S
C3668 H3656 0.930 . S
C3668 C3669 1.399 . S
C3668 C3673 1.399 . S
C3669 C3668 1.399 . S
C3669 C3670 1.376 . S
C3670 H3657 0.930 . S
C3670 C3669 1.376 . S
C3670 C3671 1.388 . S
C3671 H3658 0.930 . S
C3671 C3670 1.388 . S
C3671 C3672 1.390 . S
C3672 C3671 1.390 . S
C3672 C3673 1.394 . S
C3672 C3678 1.465 . S
C3673 C3668 1.399 . S
C3673 C3672 1.394 . S
C3673 C3674 1.516 . S
C3674 C3673 1.516 . S
C3674 C3675 1.502 . S
C3674 C3676 1.561 . S
C3674 C3677 1.526 . S
C3675 H3659 0.959 . S
C3675 H3660 0.959 . S
C3675 H3661 0.961 . S
C3675 C3674 1.502 . S
C3676 H3662 0.960 . S
C3676 H3663 0.961 . S
C3676 H3664 0.959 . S
C3676 C3674 1.561 . S
C3677 C3674 1.526 . S
C3677 C3678 1.396 . S
C3677 C3682 1.390 . S
C3678 C3672 1.465 . S
C3678 C3677 1.396 . S
C3678 C3679 1.399 . S
C3679 H3665 0.929 . S
C3679 C3678 1.399 . S
C3679 C3680 1.385 . S
C3680 H3666 0.931 . S
C3680 C3679 1.385 . S
C3680 C3681 1.389 . S
C3681 C3680 1.389 . S
C3681 C3682 1.387 . S
C3682 H3667 0.930 . S
C3682 C3677 1.390 . S
C3682 C3681 1.387 . S
H3683 C3695 0.930 . S
H3684 C3697 0.919 1_554 S
H3685 C3698 0.930 . S
H3686 C3702 0.959 . S
H3687 C3702 0.959 . S
H3688 C3702 0.961 . S
H3689 C3703 0.960 . S
H3690 C3703 0.961 . S
H3691 C3703 0.959 . S
H3692 C3706 0.929 . S
H3693 C3707 0.931 . S
H3694 C3709 0.883 1_556 S
C3695 H3683 0.930 . S
C3695 C3696 1.399 . S
C3695 C3700 1.399 . S
C3696 C3695 1.399 . S
C3696 C3697 1.376 . S
C3697 H3684 0.919 1_556 S
C3697 C3696 1.376 . S
C3697 C3698 1.388 1_556 S
C3698 H3685 0.930 . S
C3698 C3697 1.388 1_554 S
C3698 C3699 1.390 . S
C3699 C3698 1.390 . S
C3699 C3700 1.394 1_554 S
C3699 C3705 1.465 . S
C3700 C3695 1.399 . S
C3700 C3699 1.394 1_556 S
C3700 C3701 1.516 . S
C3701 C3700 1.516 . S
C3701 C3702 1.502 . S
C3701 C3703 1.561 . S
C3701 C3704 1.468 1_556 S
C3702 H3686 0.959 . S
C3702 H3687 0.959 . S
C3702 H3688 0.961 . S
C3702 C3701 1.502 . S
C3703 H3689 0.960 . S
C3703 H3690 0.961 . S
C3703 H3691 0.959 . S
C3703 C3701 1.561 . S
C3704 C3701 1.468 1_554 S
C3704 C3705 1.438 . S
C3704 C3709 1.411 . S
C3705 C3699 1.465 . S
C3705 C3704 1.438 . S
C3705 C3706 1.399 . S
C3706 H3692 0.929 . S
C3706 C3705 1.399 . S
C3706 C3707 1.385 . S
C3707 H3693 0.931 . S
C3707 C3706 1.385 . S
C3707 C3708 1.389 . S
C3708 C3707 1.389 . S
C3708 C3709 1.387 . S
C3709 H3694 0.883 1_554 S
C3709 C3704 1.411 . S
C3709 C3708 1.387 . S
H3710 C3722 0.930 . S
H3711 C3724 0.930 . S
H3712 C3725 0.930 . S
H3713 C3729 0.959 . S
H3714 C3729 0.959 . S
H3715 C3729 0.961 . S
H3716 C3730 0.960 . S
H3717 C3730 0.961 . S
H3718 C3730 0.959 . S
H3719 C3733 0.929 . S
H3720 C3734 0.931 . S
H3721 C3736 0.930 . S
C3722 H3710 0.930 . S
C3722 C3723 1.399 . S
C3722 C3727 1.399 . S
C3723 C3722 1.399 . S
C3723 C3724 1.376 . S
C3724 H3711 0.930 . S
C3724 C3723 1.376 . S
C3724 C3725 1.388 . S
C3725 H3712 0.930 . S
C3725 C3724 1.388 . S
C3725 C3726 1.390 . S
C3726 C3725 1.390 . S
C3726 C3727 1.394 . S
C3726 C3732 1.465 . S
C3727 C3722 1.399 . S
C3727 C3726 1.394 . S
C3727 C3728 1.516 . S
C3728 C3727 1.516 . S
C3728 C3729 1.502 . S
C3728 C3730 1.561 . S
C3728 C3731 1.526 . S
C3729 H3713 0.959 . S
C3729 H3714 0.959 . S
C3729 H3715 0.961 . S
C3729 C3728 1.502 . S
C3730 H3716 0.960 . S
C3730 H3717 0.961 . S
C3730 H3718 0.959 . S
C3730 C3728 1.561 . S
C3731 C3728 1.526 . S
C3731 C3732 1.396 . S
C3731 C3736 1.390 . S
C3732 C3726 1.465 . S
C3732 C3731 1.396 . S
C3732 C3733 1.399 . S
C3733 H3719 0.929 . S
C3733 C3732 1.399 . S
C3733 C3734 1.385 . S
C3734 H3720 0.931 . S
C3734 C3733 1.385 . S
C3734 C3735 1.389 . S
C3735 C3734 1.389 . S
C3735 C3736 1.387 . S
C3736 H3721 0.930 . S
C3736 C3731 1.390 . S
C3736 C3735 1.387 . S
H3737 C3749 0.930 . S
H3738 C3751 0.930 . S
H3739 C3752 0.930 . S
H3740 C3756 0.959 . S
H3741 C3756 0.959 . S
H3742 C3756 0.961 . S
H3743 C3757 0.960 . S
H3744 C3757 0.961 . S
H3745 C3757 0.959 . S
H3746 C3760 0.929 . S
H3747 C3761 0.931 . S
H3748 C3763 0.930 . S
C3749 H3737 0.930 . S
C3749 C3750 1.399 . S
C3749 C3754 1.399 . S
C3750 C3749 1.399 . S
C3750 C3751 1.376 . S
C3751 H3738 0.930 . S
C3751 C3750 1.376 . S
C3751 C3752 1.388 . S
C3752 H3739 0.930 . S
C3752 C3751 1.388 . S
C3752 C3753 1.390 . S
C3753 C3752 1.390 . S
C3753 C3754 1.394 . S
C3753 C3759 1.465 . S
C3754 C3749 1.399 . S
C3754 C3753 1.394 . S
C3754 C3755 1.516 . S
C3755 C3754 1.516 . S
C3755 C3756 1.502 . S
C3755 C3757 1.561 . S
C3755 C3758 1.526 . S
C3756 H3740 0.959 . S
C3756 H3741 0.959 . S
C3756 H3742 0.961 . S
C3756 C3755 1.502 . S
C3757 H3743 0.960 . S
C3757 H3744 0.961 . S
C3757 H3745 0.959 . S
C3757 C3755 1.561 . S
C3758 C3755 1.526 . S
C3758 C3759 1.396 . S
C3758 C3763 1.390 . S
C3759 C3753 1.465 . S
C3759 C3758 1.396 . S
C3759 C3760 1.399 . S
C3760 H3746 0.929 . S
C3760 C3759 1.399 . S
C3760 C3761 1.385 . S
C3761 H3747 0.931 . S
C3761 C3760 1.385 . S
C3761 C3762 1.389 . S
C3762 C3761 1.389 . S
C3762 C3763 1.387 . S
C3763 H3748 0.930 . S
C3763 C3758 1.390 . S
C3763 C3762 1.387 . S
H3764 C3776 0.930 . S
H3765 C3778 0.930 . S
H3766 C3779 0.930 . S
H3767 C3783 0.959 . S
H3768 C3783 0.959 . S
H3769 C3783 0.961 . S
H3770 C3784 0.960 . S
H3771 C3784 0.961 . S
H3772 C3784 0.959 . S
H3773 C3787 0.929 . S
H3774 C3788 0.931 . S
H3775 C3790 0.930 . S
C3776 H3764 0.930 . S
C3776 C3777 1.399 . S
C3776 C3781 1.399 . S
C3777 C3776 1.399 . S
C3777 C3778 1.376 . S
C3778 H3765 0.930 . S
C3778 C3777 1.376 . S
C3778 C3779 1.388 . S
C3779 H3766 0.930 . S
C3779 C3778 1.388 . S
C3779 C3780 1.390 . S
C3780 C3779 1.390 . S
C3780 C3781 1.394 . S
C3780 C3786 1.465 . S
C3781 C3776 1.399 . S
C3781 C3780 1.394 . S
C3781 C3782 1.516 . S
C3782 C3781 1.516 . S
C3782 C3783 1.502 . S
C3782 C3784 1.561 . S
C3782 C3785 1.526 . S
C3783 H3767 0.959 . S
C3783 H3768 0.959 . S
C3783 H3769 0.961 . S
C3783 C3782 1.502 . S
C3784 H3770 0.960 . S
C3784 H3771 0.961 . S
C3784 H3772 0.959 . S
C3784 C3782 1.561 . S
C3785 C3782 1.526 . S
C3785 C3786 1.396 . S
C3785 C3790 1.390 . S
C3786 C3780 1.465 . S
C3786 C3785 1.396 . S
C3786 C3787 1.399 . S
C3787 H3773 0.929 . S
C3787 C3786 1.399 . S
C3787 C3788 1.385 . S
C3788 H3774 0.931 . S
C3788 C3787 1.385 . S
C3788 C3789 1.389 . S
C3789 C3788 1.389 . S
C3789 C3790 1.387 . S
C3790 H3775 0.930 . S
C3790 C3785 1.390 . S
C3790 C3789 1.387 . S
H3791 C3803 0.930 . S
H3792 C3805 0.930 . S
H3793 C3806 0.930 . S
H3794 C3810 0.959 . S
H3795 C3810 0.959 . S
H3796 C3810 0.961 . S
H3797 C3811 0.960 . S
H3798 C3811 0.961 . S
H3799 C3811 0.959 . S
H3800 C3814 0.929 . S
H3801 C3815 0.931 . S
H3802 C3817 0.930 . S
C3803 H3791 0.930 . S
C3803 C3804 1.399 . S
C3803 C3808 1.399 . S
C3804 C3803 1.399 . S
C3804 C3805 1.376 . S
C3805 H3792 0.930 . S
C3805 C3804 1.376 . S
C3805 C3806 1.388 . S
C3806 H3793 0.930 . S
C3806 C3805 1.388 . S
C3806 C3807 1.390 . S
C3807 C3806 1.390 . S
C3807 C3808 1.394 . S
C3807 C3813 1.465 1_556 S
C3808 C3803 1.399 . S
C3808 C3807 1.394 . S
C3808 C3809 1.540 . S
C3809 C3808 1.540 . S
C3809 C3810 1.461 1_556 S
C3809 C3811 1.608 . S
C3809 C3812 1.503 1_556 S
C3810 H3794 0.959 . S
C3810 H3795 0.959 . S
C3810 H3796 0.961 . S
C3810 C3809 1.461 1_554 S
C3811 H3797 0.960 . S
C3811 H3798 0.961 . S
C3811 H3799 0.959 . S
C3811 C3809 1.608 . S
C3812 C3809 1.503 1_554 S
C3812 C3813 1.396 . S
C3812 C3817 1.390 . S
C3813 C3807 1.465 1_554 S
C3813 C3812 1.396 . S
C3813 C3814 1.399 . S
C3814 H3800 0.929 . S
C3814 C3813 1.399 . S
C3814 C3815 1.385 . S
C3815 H3801 0.931 . S
C3815 C3814 1.385 . S
C3815 C3816 1.389 . S
C3816 C3815 1.389 . S
C3816 C3817 1.387 . S
C3817 H3802 0.930 . S
C3817 C3812 1.390 . S
C3817 C3816 1.387 . S
H3818 C3830 0.930 . S
H3819 C3832 0.930 . S
H3820 C3833 0.930 . S
H3821 C3837 0.959 . S
H3822 C3837 0.959 . S
H3823 C3837 0.961 . S
H3824 C3838 0.960 . S
H3825 C3838 0.961 . S
H3826 C3838 0.959 . S
H3827 C3841 0.929 . S
H3828 C3842 0.931 . S
H3829 C3844 0.930 . S
C3830 H3818 0.930 . S
C3830 C3831 1.399 . S
C3830 C3835 1.399 . S
C3831 C3830 1.399 . S
C3831 C3832 1.376 . S
C3832 H3819 0.930 . S
C3832 C3831 1.376 . S
C3832 C3833 1.388 . S
C3833 H3820 0.930 . S
C3833 C3832 1.388 . S
C3833 C3834 1.390 . S
C3834 C3833 1.390 . S
C3834 C3835 1.394 . S
C3834 C3840 1.465 . S
C3835 C3830 1.399 . S
C3835 C3834 1.394 . S
C3835 C3836 1.516 . S
C3836 C3835 1.516 . S
C3836 C3837 1.502 . S
C3836 C3838 1.561 . S
C3836 C3839 1.526 . S
C3837 H3821 0.959 . S
C3837 H3822 0.959 . S
C3837 H3823 0.961 . S
C3837 C3836 1.502 . S
C3838 H3824 0.960 . S
C3838 H3825 0.961 . S
C3838 H3826 0.959 . S
C3838 C3836 1.561 . S
C3839 C3836 1.526 . S
C3839 C3840 1.396 . S
C3839 C3844 1.390 . S
C3840 C3834 1.465 . S
C3840 C3839 1.396 . S
C3840 C3841 1.399 . S
C3841 H3827 0.929 . S
C3841 C3840 1.399 . S
C3841 C3842 1.385 . S
C3842 H3828 0.931 . S
C3842 C3841 1.385 . S
C3842 C3843 1.389 . S
C3843 C3842 1.389 . S
C3843 C3844 1.387 . S
C3844 H3829 0.930 . S
C3844 C3839 1.390 . S
C3844 C3843 1.387 . S
H3845 C3857 0.930 . S
H3846 C3859 0.930 . S
H3847 C3860 0.930 . S
H3848 C3864 0.959 . S
H3849 C3864 0.959 . S
H3850 C3864 0.961 . S
H3851 C3865 0.960 . S
H3852 C3865 0.961 . S
H3853 C3865 0.959 . S
H3854 C3868 0.929 . S
H3855 C3869 0.931 . S
H3856 C3871 0.930 . S
C3857 H3845 0.930 . S
C3857 C3858 1.399 . S
C3857 C3862 1.399 . S
C3858 C3857 1.399 . S
C3858 C3859 1.376 . S
C3859 H3846 0.930 . S
C3859 C3858 1.376 . S
C3859 C3860 1.388 . S
C3860 H3847 0.930 . S
C3860 C3859 1.388 . S
C3860 C3861 1.390 . S
C3861 C3860 1.390 . S
C3861 C3862 1.394 . S
C3861 C3867 1.465 . S
C3862 C3857 1.399 . S
C3862 C3861 1.394 . S
C3862 C3863 1.516 . S
C3863 C3862 1.516 . S
C3863 C3864 1.502 . S
C3863 C3865 1.561 . S
C3863 C3866 1.526 . S
C3864 H3848 0.959 . S
C3864 H3849 0.959 . S
C3864 H3850 0.961 . S
C3864 C3863 1.502 . S
C3865 H3851 0.960 . S
C3865 H3852 0.961 . S
C3865 H3853 0.959 . S
C3865 C3863 1.561 . S
C3866 C3863 1.526 . S
C3866 C3867 1.396 . S
C3866 C3871 1.390 . S
C3867 C3861 1.465 . S
C3867 C3866 1.396 . S
C3867 C3868 1.399 . S
C3868 H3854 0.929 . S
C3868 C3867 1.399 . S
C3868 C3869 1.385 . S
C3869 H3855 0.931 . S
C3869 C3868 1.385 . S
C3869 C3870 1.389 . S
C3870 C3869 1.389 . S
C3870 C3871 1.387 . S
C3871 H3856 0.930 . S
C3871 C3866 1.390 . S
C3871 C3870 1.387 . S
C1293 C7 0.370 . S
C1305 C1091 0.694 . S
C1320 C47 0.506 . S
C1332 C331 0.552 . S
C1347 C87 0.569 . S
C1359 C1011 0.555 . S
C1374 C411 0.418 . S
C1386 C127 0.638 . S
C1401 C167 0.623 . S
C1413 C1171 0.472 . S
C1428 C571 0.434 . S
C1440 C207 0.635 . S
C1455 C1251 0.682 . S
C1467 C247 0.420 . S
C1482 C287 0.479 . S
C1494 C491 0.579 . S
C1509 C336 0.585 . S
C1521 C762 0.454 . S
C1536 C376 0.464 . S
C1548 C2 0.661 . S
C1563 C682 0.499 . S
C1575 C416 0.613 . S
C1590 C82 0.660 . S
C1602 C456 0.470 . S
C1617 C496 0.615 . S
C1629 C842 0.500 . S
C1644 C536 0.627 . S
C1656 C242 0.475 . S
C1671 C576 0.633 . S
C1683 C922 0.459 . S
C1698 C162 0.479 . S
C1710 C616 0.622 . S
C1725 C451 0.678 . S
C1737 C647 0.429 . S
C1752 C971 0.411 . S
C1764 C687 0.632 . S
C1779 C371 0.694 . S
C1791 C727 0.371 . S
C1806 C767 0.525 . S
C1818 C1051 0.603 . S
C1833 C531 0.630 . S
C1845 C807 0.496 . S
C1860 C1211 0.437 . S
C1872 C847 0.606 . S
C1887 C611 0.597 . S
C1899 C887 0.532 . S
C1914 C927 0.508 . S
C1926 C1131 0.551 . S
C1941 C976 0.619 . S
C1953 C122 0.493 . S
C1968 C1016 0.373 . S
C1980 C642 0.694 . S
C1995 C1056 0.601 . S
C2007 C42 0.437 . S
C2022 C1096 0.605 . S
C2034 C722 0.433 . S
C2049 C202 0.686 . S
C2061 C1136 0.371 . S
C2076 C882 0.504 . S
C2088 C1176 0.610 . S
C2103 C1216 0.538 . S
C2115 C282 0.602 . S
C2130 C1256 0.635 . S
C2142 C802 0.414 . S
C2157 C19 2.640 . S
C2169 C739 2.670 . S
C2184 C779 2.646 . S
C2196 C59 2.663 . S
C2211 C99 2.651 . S
C2223 C659 2.657 . S
C2238 C139 2.674 . S
C2250 C699 2.665 . S
C2265 C899 2.682 . S
C2277 C179 2.656 . S
C2292 C219 2.640 . S
C2304 C939 2.669 . S
C2319 C819 2.648 . S
C2331 C259 2.660 . S
C2346 C299 2.637 . S
C2358 C859 2.689 . S
C2373 C1050 2.651 . S
C2385 C330 2.672 . S
C2400 C370 2.679 . S
C2412 C1090 2.646 . S
C2427 C410 2.645 . S
C2439 C970 2.678 . S
C2454 C450 2.688 . S
C2466 C1010 2.636 . S
C2481 C1210 2.680 . S
C2493 C490 2.644 . S
C2508 C1250 2.680 . S
C2520 C530 2.644 . S
C2535 C570 2.678 . S
C2547 C1130 2.646 . S
C2562 C610 2.644 . S
C2574 C1170 2.679 . S
C2589 C11 3.280 . S
C2601 C962 3.316 . S
C2616 C362 3.284 . S
C2628 C51 3.316 . S
C2643 C91 3.281 . S
C2655 C1042 3.313 . S
C2670 C131 3.308 . S
C2682 C442 3.285 . S
C2697 C1122 3.302 . S
C2709 C171 3.290 . S
C2724 C522 3.311 . S
C2736 C211 3.283 . S
C2751 C251 3.285 . S
C2763 C1202 3.308 . S
C2778 C291 3.295 . S
C2790 C602 3.307 . S
C2805 C651 3.281 . S
C2817 C322 3.313 . S
C2832 C731 3.315 . S
C2844 C402 3.286 . S
C2859 C811 3.293 . S
C2871 C482 3.309 . S
C2886 C562 3.309 . S
C2898 C891 3.293 . S
C2913 C691 3.313 . S
C2925 C1002 3.282 . S
C2940 C771 3.291 . S
C2952 C1082 3.310 . S
C2967 C1162 3.283 . S
C2979 C851 3.316 . S
C2994 C1242 3.283 . S
C3006 C931 3.316 . S
C3021 C10 4.560 . S
C3033 C210 4.551 . S
C3048 C250 4.566 . S
C3060 C50 4.545 . S
C3075 C290 4.544 . S
C3087 C90 4.571 . S
C3102 C170 4.561 . S
C3114 C130 4.550 . S
C3129 C339 4.544 . S
C3141 C539 4.564 . S
C3156 C379 4.551 . S
C3168 C579 4.568 . S
C3183 C619 4.555 . S
C3195 C419 4.565 . S
C3210 C459 4.572 . S
C3222 C499 4.541 . S
C3237 C650 4.565 . S
C3249 C850 4.552 . S
C3264 C690 4.540 . S
C3276 C890 4.573 . S
C3291 C730 4.542 . S
C3303 C930 4.573 . S
C3318 C810 4.555 . S
C3330 C770 4.562 . S
C3345 C979 4.540 . S
C3357 C1179 4.572 . S
C3372 C1019 4.543 . S
C3384 C1219 4.566 . S
C3399 C1259 4.563 . S
C3411 C1059 4.558 . S
C3426 C1099 4.548 . S
C3438 C1139 4.570 . S
C3453 C16 0.721 . S
C3465 C176 0.750 . S
C3480 C56 0.628 . S
C3492 C216 0.719 . S
C3507 C256 0.702 . S
C3519 C96 0.634 . S
C3534 C296 0.631 . S
C3546 C136 0.746 . S
C3561 C327 0.645 . S
C3573 C487 0.722 . S
C3588 C527 0.666 . S
C3600 C367 0.757 . S
C3615 C567 0.632 . S
C3627 C407 0.764 . S
C3642 C607 0.642 . S
C3654 C447 0.726 . S
C3669 C656 0.734 . S
C3681 C816 0.629 . S
C3696 C856 0.757 . S
C3708 C696 0.642 . S
C3723 C736 0.683 . S
C3735 C896 0.645 . S
C3750 C936 0.761 . S
C3762 C776 0.700 . S
C3777 C1127 0.766 . S
C3789 C967 0.645 . S
C3804 C1007 0.695 . S
C3816 C1167 0.738 . S
C3831 C1047 0.733 . S
C3843 C1207 0.639 . S
C3858 C1087 0.736 . S
C3870 C1247 0.637 . S
