# Generated by pormake.
# Topology whq, (6)-cn, num edge types: 1
# Building blocks:
#     Node 0, Type 0, BuildingBlock: IZENUY_clean_sbu_0, # of connection points: 6
#     Node 1, Type 0, BuildingBlock: IZENUY_clean_sbu_0, # of connection points: 6
#     Node 2, Type 0, BuildingBlock: IZENUY_clean_sbu_0, # of connection points: 6
#     Node 3, Type 0, BuildingBlock: IZENUY_clean_sbu_0, # of connection points: 6
#     Node 4, Type 0, BuildingBlock: IZENUY_clean_sbu_0, # of connection points: 6
#     Node 5, Type 0, BuildingBlock: IZENUY_clean_sbu_0, # of connection points: 6
#     Node 6, Type 0, BuildingBlock: IZENUY_clean_sbu_0, # of connection points: 6
#     Node 7, Type 0, BuildingBlock: IZENUY_clean_sbu_0, # of connection points: 6
#     Node 8, Type 0, BuildingBlock: IZENUY_clean_sbu_0, # of connection points: 6
#     Node 9, Type 0, BuildingBlock: IZENUY_clean_sbu_0, # of connection points: 6
#     Node 10, Type 0, BuildingBlock: IZENUY_clean_sbu_0, # of connection points: 6
#     Node 11, Type 0, BuildingBlock: IZENUY_clean_sbu_0, # of connection points: 6
#     Node 12, Type 0, BuildingBlock: IZENUY_clean_sbu_0, # of connection points: 6
#     Node 13, Type 0, BuildingBlock: IZENUY_clean_sbu_0, # of connection points: 6
#     Node 14, Type 0, BuildingBlock: IZENUY_clean_sbu_0, # of connection points: 6
#     Node 15, Type 0, BuildingBlock: IZENUY_clean_sbu_0, # of connection points: 6
#     Node 16, Type 0, BuildingBlock: IZENUY_clean_sbu_0, # of connection points: 6
#     Node 17, Type 0, BuildingBlock: IZENUY_clean_sbu_0, # of connection points: 6
#     Node 18, Type 0, BuildingBlock: IZENUY_clean_sbu_0, # of connection points: 6
#     Node 19, Type 0, BuildingBlock: IZENUY_clean_sbu_0, # of connection points: 6
#     Node 20, Type 0, BuildingBlock: IZENUY_clean_sbu_0, # of connection points: 6
#     Node 21, Type 0, BuildingBlock: IZENUY_clean_sbu_0, # of connection points: 6
#     Node 22, Type 0, BuildingBlock: IZENUY_clean_sbu_0, # of connection points: 6
#     Node 23, Type 0, BuildingBlock: IZENUY_clean_sbu_0, # of connection points: 6
#     Node 24, Type 0, BuildingBlock: IZENUY_clean_sbu_0, # of connection points: 6
#     Node 25, Type 0, BuildingBlock: IZENUY_clean_sbu_0, # of connection points: 6
#     Node 26, Type 0, BuildingBlock: IZENUY_clean_sbu_0, # of connection points: 6
#     Node 27, Type 0, BuildingBlock: IZENUY_clean_sbu_0, # of connection points: 6
#     Node 28, Type 0, BuildingBlock: IZENUY_clean_sbu_0, # of connection points: 6
#     Node 29, Type 0, BuildingBlock: IZENUY_clean_sbu_0, # of connection points: 6
#     Node 30, Type 0, BuildingBlock: IZENUY_clean_sbu_0, # of connection points: 6
#     Node 31, Type 0, BuildingBlock: IZENUY_clean_sbu_0, # of connection points: 6
#     Edge 32, Type (0, 0), BuildingBlock: EZIPEK_clean_linker_0, # of connection points: 2
#     Edge 33, Type (0, 0), BuildingBlock: EZIPEK_clean_linker_0, # of connection points: 2
#     Edge 34, Type (0, 0), BuildingBlock: EZIPEK_clean_linker_0, # of connection points: 2
#     Edge 35, Type (0, 0), BuildingBlock: EZIPEK_clean_linker_0, # of connection points: 2
#     Edge 36, Type (0, 0), BuildingBlock: EZIPEK_clean_linker_0, # of connection points: 2
#     Edge 37, Type (0, 0), BuildingBlock: EZIPEK_clean_linker_0, # of connection points: 2
#     Edge 38, Type (0, 0), BuildingBlock: EZIPEK_clean_linker_0, # of connection points: 2
#     Edge 39, Type (0, 0), BuildingBlock: EZIPEK_clean_linker_0, # of connection points: 2
#     Edge 40, Type (0, 0), BuildingBlock: EZIPEK_clean_linker_0, # of connection points: 2
#     Edge 41, Type (0, 0), BuildingBlock: EZIPEK_clean_linker_0, # of connection points: 2
#     Edge 42, Type (0, 0), BuildingBlock: EZIPEK_clean_linker_0, # of connection points: 2
#     Edge 43, Type (0, 0), BuildingBlock: EZIPEK_clean_linker_0, # of connection points: 2
#     Edge 44, Type (0, 0), BuildingBlock: EZIPEK_clean_linker_0, # of connection points: 2
#     Edge 45, Type (0, 0), BuildingBlock: EZIPEK_clean_linker_0, # of connection points: 2
#     Edge 46, Type (0, 0), BuildingBlock: EZIPEK_clean_linker_0, # of connection points: 2
#     Edge 47, Type (0, 0), BuildingBlock: EZIPEK_clean_linker_0, # of connection points: 2
#     Edge 48, Type (0, 0), BuildingBlock: EZIPEK_clean_linker_0, # of connection points: 2
#     Edge 49, Type (0, 0), BuildingBlock: EZIPEK_clean_linker_0, # of connection points: 2
#     Edge 50, Type (0, 0), BuildingBlock: EZIPEK_clean_linker_0, # of connection points: 2
#     Edge 51, Type (0, 0), BuildingBlock: EZIPEK_clean_linker_0, # of connection points: 2
#     Edge 52, Type (0, 0), BuildingBlock: EZIPEK_clean_linker_0, # of connection points: 2
#     Edge 53, Type (0, 0), BuildingBlock: EZIPEK_clean_linker_0, # of connection points: 2
#     Edge 54, Type (0, 0), BuildingBlock: EZIPEK_clean_linker_0, # of connection points: 2
#     Edge 55, Type (0, 0), BuildingBlock: EZIPEK_clean_linker_0, # of connection points: 2
#     Edge 56, Type (0, 0), BuildingBlock: EZIPEK_clean_linker_0, # of connection points: 2
#     Edge 57, Type (0, 0), BuildingBlock: EZIPEK_clean_linker_0, # of connection points: 2
#     Edge 58, Type (0, 0), BuildingBlock: EZIPEK_clean_linker_0, # of connection points: 2
#     Edge 59, Type (0, 0), BuildingBlock: EZIPEK_clean_linker_0, # of connection points: 2
#     Edge 60, Type (0, 0), BuildingBlock: EZIPEK_clean_linker_0, # of connection points: 2
#     Edge 61, Type (0, 0), BuildingBlock: EZIPEK_clean_linker_0, # of connection points: 2
#     Edge 62, Type (0, 0), BuildingBlock: EZIPEK_clean_linker_0, # of connection points: 2
#     Edge 63, Type (0, 0), BuildingBlock: EZIPEK_clean_linker_0, # of connection points: 2
#     Edge 64, Type (0, 0), BuildingBlock: EZIPEK_clean_linker_0, # of connection points: 2
#     Edge 65, Type (0, 0), BuildingBlock: EZIPEK_clean_linker_0, # of connection points: 2
#     Edge 66, Type (0, 0), BuildingBlock: EZIPEK_clean_linker_0, # of connection points: 2
#     Edge 67, Type (0, 0), BuildingBlock: EZIPEK_clean_linker_0, # of connection points: 2
#     Edge 68, Type (0, 0), BuildingBlock: EZIPEK_clean_linker_0, # of connection points: 2
#     Edge 69, Type (0, 0), BuildingBlock: EZIPEK_clean_linker_0, # of connection points: 2
#     Edge 70, Type (0, 0), BuildingBlock: EZIPEK_clean_linker_0, # of connection points: 2
#     Edge 71, Type (0, 0), BuildingBlock: EZIPEK_clean_linker_0, # of connection points: 2
#     Edge 72, Type (0, 0), BuildingBlock: EZIPEK_clean_linker_0, # of connection points: 2
#     Edge 73, Type (0, 0), BuildingBlock: EZIPEK_clean_linker_0, # of connection points: 2
#     Edge 74, Type (0, 0), BuildingBlock: EZIPEK_clean_linker_0, # of connection points: 2
#     Edge 75, Type (0, 0), BuildingBlock: EZIPEK_clean_linker_0, # of connection points: 2
#     Edge 76, Type (0, 0), BuildingBlock: EZIPEK_clean_linker_0, # of connection points: 2
#     Edge 77, Type (0, 0), BuildingBlock: EZIPEK_clean_linker_0, # of connection points: 2
#     Edge 78, Type (0, 0), BuildingBlock: EZIPEK_clean_linker_0, # of connection points: 2
#     Edge 79, Type (0, 0), BuildingBlock: EZIPEK_clean_linker_0, # of connection points: 2
#     Edge 80, Type (0, 0), BuildingBlock: EZIPEK_clean_linker_0, # of connection points: 2
#     Edge 81, Type (0, 0), BuildingBlock: EZIPEK_clean_linker_0, # of connection points: 2
#     Edge 82, Type (0, 0), BuildingBlock: EZIPEK_clean_linker_0, # of connection points: 2
#     Edge 83, Type (0, 0), BuildingBlock: EZIPEK_clean_linker_0, # of connection points: 2
#     Edge 84, Type (0, 0), BuildingBlock: EZIPEK_clean_linker_0, # of connection points: 2
#     Edge 85, Type (0, 0), BuildingBlock: EZIPEK_clean_linker_0, # of connection points: 2
#     Edge 86, Type (0, 0), BuildingBlock: EZIPEK_clean_linker_0, # of connection points: 2
#     Edge 87, Type (0, 0), BuildingBlock: EZIPEK_clean_linker_0, # of connection points: 2
#     Edge 88, Type (0, 0), BuildingBlock: EZIPEK_clean_linker_0, # of connection points: 2
#     Edge 89, Type (0, 0), BuildingBlock: EZIPEK_clean_linker_0, # of connection points: 2
#     Edge 90, Type (0, 0), BuildingBlock: EZIPEK_clean_linker_0, # of connection points: 2
#     Edge 91, Type (0, 0), BuildingBlock: EZIPEK_clean_linker_0, # of connection points: 2
#     Edge 92, Type (0, 0), BuildingBlock: EZIPEK_clean_linker_0, # of connection points: 2
#     Edge 93, Type (0, 0), BuildingBlock: EZIPEK_clean_linker_0, # of connection points: 2
#     Edge 94, Type (0, 0), BuildingBlock: EZIPEK_clean_linker_0, # of connection points: 2
#     Edge 95, Type (0, 0), BuildingBlock: EZIPEK_clean_linker_0, # of connection points: 2
#     Edge 96, Type (0, 0), BuildingBlock: EZIPEK_clean_linker_0, # of connection points: 2
#     Edge 97, Type (0, 0), BuildingBlock: EZIPEK_clean_linker_0, # of connection points: 2
#     Edge 98, Type (0, 0), BuildingBlock: EZIPEK_clean_linker_0, # of connection points: 2
#     Edge 99, Type (0, 0), BuildingBlock: EZIPEK_clean_linker_0, # of connection points: 2
#     Edge 100, Type (0, 0), BuildingBlock: EZIPEK_clean_linker_0, # of connection points: 2
#     Edge 101, Type (0, 0), BuildingBlock: EZIPEK_clean_linker_0, # of connection points: 2
#     Edge 102, Type (0, 0), BuildingBlock: EZIPEK_clean_linker_0, # of connection points: 2
#     Edge 103, Type (0, 0), BuildingBlock: EZIPEK_clean_linker_0, # of connection points: 2
#     Edge 104, Type (0, 0), BuildingBlock: EZIPEK_clean_linker_0, # of connection points: 2
#     Edge 105, Type (0, 0), BuildingBlock: EZIPEK_clean_linker_0, # of connection points: 2
#     Edge 106, Type (0, 0), BuildingBlock: EZIPEK_clean_linker_0, # of connection points: 2
#     Edge 107, Type (0, 0), BuildingBlock: EZIPEK_clean_linker_0, # of connection points: 2
#     Edge 108, Type (0, 0), BuildingBlock: EZIPEK_clean_linker_0, # of connection points: 2
#     Edge 109, Type (0, 0), BuildingBlock: EZIPEK_clean_linker_0, # of connection points: 2
#     Edge 110, Type (0, 0), BuildingBlock: EZIPEK_clean_linker_0, # of connection points: 2
#     Edge 111, Type (0, 0), BuildingBlock: EZIPEK_clean_linker_0, # of connection points: 2
#     Edge 112, Type (0, 0), BuildingBlock: EZIPEK_clean_linker_0, # of connection points: 2
#     Edge 113, Type (0, 0), BuildingBlock: EZIPEK_clean_linker_0, # of connection points: 2
#     Edge 114, Type (0, 0), BuildingBlock: EZIPEK_clean_linker_0, # of connection points: 2
#     Edge 115, Type (0, 0), BuildingBlock: EZIPEK_clean_linker_0, # of connection points: 2
#     Edge 116, Type (0, 0), BuildingBlock: EZIPEK_clean_linker_0, # of connection points: 2
#     Edge 117, Type (0, 0), BuildingBlock: EZIPEK_clean_linker_0, # of connection points: 2
#     Edge 118, Type (0, 0), BuildingBlock: EZIPEK_clean_linker_0, # of connection points: 2
#     Edge 119, Type (0, 0), BuildingBlock: EZIPEK_clean_linker_0, # of connection points: 2
#     Edge 120, Type (0, 0), BuildingBlock: EZIPEK_clean_linker_0, # of connection points: 2
#     Edge 121, Type (0, 0), BuildingBlock: EZIPEK_clean_linker_0, # of connection points: 2
#     Edge 122, Type (0, 0), BuildingBlock: EZIPEK_clean_linker_0, # of connection points: 2
#     Edge 123, Type (0, 0), BuildingBlock: EZIPEK_clean_linker_0, # of connection points: 2
#     Edge 124, Type (0, 0), BuildingBlock: EZIPEK_clean_linker_0, # of connection points: 2
#     Edge 125, Type (0, 0), BuildingBlock: EZIPEK_clean_linker_0, # of connection points: 2
#     Edge 126, Type (0, 0), BuildingBlock: EZIPEK_clean_linker_0, # of connection points: 2
#     Edge 127, Type (0, 0), BuildingBlock: EZIPEK_clean_linker_0, # of connection points: 2
# Relax obj value: 0.293
# Max RMSD: 0.178
# Mean RMSD: 0.178
data_MOF--net-whq--node1-IZENUY_clean_sbu_0--edge1-EZIPEK_clean_linker_0
_symmetry_space_group_name_H-M    P1
_symmetry_Int_Tables_number       1
_symmetry_cell_setting            triclinic
loop_
_symmetry_equiv_pos_as_xyz
'x, y, z'
_cell_length_a     37.813288
_cell_length_b     37.917163
_cell_length_c     41.491657
_cell_angle_alpha  89.954519
_cell_angle_beta   90.027847
_cell_angle_gamma 89.988619
loop_
_atom_site_label
_atom_site_type_symbol
_atom_site_fract_x
_atom_site_fract_y
_atom_site_fract_z
_atom_type_partial_charge
Fe0 Fe 0.08314 0.18763 0.17957 0.0
Fe1 Fe 0.14092 0.21641 0.13557 0.0
O2 O 0.09681 0.21847 0.15011 0.0
Fe3 Fe 0.06626 0.25049 0.13565 0.0
O4 O 0.05774 0.26812 0.17615 0.0
O5 O 0.05001 0.21645 0.19837 0.0
O6 O 0.11451 0.20501 0.20794 0.0
C7 C 0.1474 0.20734 0.2033 0.0
C8 C 0.025 0.18645 0.14128 0.0
O9 O 0.15979 0.20349 0.17507 0.0
C10 C 0.10079 0.23161 0.07923 0.0
O11 O 0.11382 0.15217 0.16771 0.0
O12 O 0.13567 0.17077 0.12229 0.0
O13 O 0.02734 0.21994 0.13801 0.0
O14 O 0.0508 0.16903 0.15223 0.0
C15 C 0.13213 0.28867 0.14028 0.0
O16 O 0.12986 0.22938 0.09422 0.0
O17 O 0.0719 0.23602 0.09403 0.0
C18 C 0.12918 0.14575 0.14131 0.0
O19 O 0.14989 0.26152 0.14711 0.0
O20 O 0.1 0.28607 0.13119 0.0
C21 C 0.04711 0.24956 0.19948 0.0
Fe22 Fe 0.84376 0.0795 0.17419 0.0
Fe23 Fe 0.81159 0.14062 0.13594 0.0
O24 O 0.80941 0.09579 0.14933 0.0
Fe25 Fe 0.77403 0.06788 0.13715 0.0
O26 O 0.77056 0.04503 0.17666 0.0
O27 O 0.81359 0.06794 0.20605 0.0
O28 O 0.84947 0.12159 0.195 0.0
C29 C 0.82982 0.14846 0.19872 0.0
C30 C 0.82958 0.01958 0.13486 0.0
O31 O 0.80808 0.15742 0.17705 0.0
C32 C 0.79494 0.10511 0.08054 0.0
O33 O 0.87703 0.08988 0.14382 0.0
O34 O 0.86045 0.14431 0.13724 0.0
O35 O 0.80369 0.034 0.12082 0.0
O36 O 0.84389 0.03417 0.15885 0.0
C37 C 0.73738 0.13063 0.14363 0.0
O38 O 0.81553 0.12632 0.0946 0.0
O39 O 0.77268 0.08633 0.09591 0.0
C40 C 0.88462 0.12118 0.1366 0.0
O41 O 0.76347 0.14685 0.13171 0.0
O42 O 0.74022 0.09867 0.15186 0.0
C43 C 0.78581 0.04984 0.20372 0.0
Fe44 Fe 0.88423 0.80984 0.13206 0.0
Fe45 Fe 0.95903 0.77671 0.13284 0.0
O46 O 0.92949 0.81108 0.14414 0.0
Fe47 Fe 0.94611 0.84637 0.16773 0.0
O48 O 0.91527 0.83691 0.1997 0.0
O49 O 0.86727 0.82751 0.17055 0.0
O50 O 0.87752 0.76605 0.14897 0.0
C51 C 0.89467 0.73868 0.14189 0.0
C52 C 0.89434 0.88153 0.12805 0.0
O53 O 0.92563 0.74128 0.13072 0.0
C54 C 1.00259 0.83781 0.12755 0.0
O55 O 0.89456 0.79257 0.09155 0.0
O56 O 0.95299 0.78729 0.09067 0.0
O57 O 0.91658 0.88045 0.15087 0.0
O58 O 0.88515 0.85364 0.11389 0.0
C59 C 0.97868 0.786 0.19558 0.0
O60 O 0.99875 0.805 0.13214 0.0
O61 O 0.97856 0.85841 0.13716 0.0
C62 C 0.92369 0.79064 0.07631 0.0
O63 O 0.96679 0.7645 0.17492 0.0
O64 O 0.97831 0.81892 0.19001 0.0
C65 C 0.88217 0.83359 0.19737 0.0
Fe66 Fe 0.18281 0.94491 0.17337 0.0
Fe67 Fe 0.21456 0.88511 0.13295 0.0
O68 O 0.21557 0.92953 0.14636 0.0
Fe69 Fe 0.24886 0.95935 0.1329 0.0
O70 O 0.26479 0.96715 0.17406 0.0
O71 O 0.21171 0.97772 0.19307 0.0
O72 O 0.19694 0.91435 0.20376 0.0
C73 C 0.20104 0.8815 0.20061 0.0
C74 C 0.18614 1.0023 0.13536 0.0
O75 O 0.20089 0.86743 0.17278 0.0
C76 C 0.23152 0.92547 0.07627 0.0
O77 O 0.14716 0.91494 0.16038 0.0
O78 O 0.1694 0.88822 0.11844 0.0
O79 O 0.21965 0.99885 0.13468 0.0
O80 O 0.16727 0.9765 0.14372 0.0
C81 C 0.28635 0.89365 0.13827 0.0
O82 O 0.22848 0.8962 0.09121 0.0
O83 O 0.23518 0.95421 0.09127 0.0
C84 C 0.14313 0.89659 0.13528 0.0
O85 O 0.25919 0.8768 0.14613 0.0
O86 O 0.28415 0.92533 0.12836 0.0
C87 C 0.24504 0.9795 0.19594 0.0
Fe88 Fe 0.06813 0.77937 0.37806 0.0
Fe89 Fe 0.08264 0.846 0.33773 0.0
O90 O 0.09675 0.81469 0.367 0.0
Fe91 Fe 0.13938 0.81947 0.38474 0.0
O92 O 0.15315 0.77579 0.37255 0.0
O93 O 0.10411 0.7464 0.38299 0.0
O94 O 0.06357 0.76403 0.33615 0.0
C95 C 0.05237 0.78316 0.31334 0.0
C96 C 0.09623 0.79813 0.43764 0.0
O97 O 0.05331 0.81627 0.31565 0.0
C98 C 0.12353 0.88915 0.37974 0.0
O99 O 0.02769 0.8068 0.37535 0.0
O100 O 0.04636 0.86049 0.36321 0.0
O101 O 0.12601 0.80426 0.42495 0.0
O102 O 0.06939 0.79126 0.42069 0.0
C103 C 0.15035 0.83374 0.31805 0.0
O104 O 0.10933 0.88284 0.35283 0.0
O105 O 0.12972 0.86408 0.39875 0.0
C106 C 0.0227 0.84006 0.37409 0.0
O107 O 0.11791 0.83289 0.31082 0.0
O108 O 0.16042 0.83515 0.34724 0.0
C109 C 0.13692 0.74712 0.37625 0.0
Fe110 Fe 0.1863 0.08897 0.33887 0.0
Fe111 Fe 0.22185 0.14306 0.38295 0.0
O112 O 0.22027 0.09995 0.36634 0.0
Fe113 Fe 0.25206 0.06729 0.37736 0.0
O114 O 0.26658 0.06181 0.33557 0.0
O115 O 0.2128 0.05707 0.31592 0.0
O116 O 0.20057 0.12236 0.31056 0.0
C117 C 0.20333 0.15473 0.31717 0.0
C118 C 0.1873 0.02848 0.37413 0.0
O119 O 0.2065 0.16526 0.34602 0.0
C120 C 0.23722 0.0984 0.43609 0.0
O121 O 0.15307 0.11885 0.35549 0.0
O122 O 0.17687 0.14014 0.39926 0.0
O123 O 0.22091 0.02962 0.37386 0.0
O124 O 0.16975 0.0553 0.36607 0.0
C125 C 0.29313 0.1303 0.37336 0.0
O126 O 0.23724 0.12837 0.42257 0.0
O127 O 0.23971 0.07032 0.41979 0.0
C128 C 0.14985 0.13424 0.38229 0.0
O129 O 0.26666 0.14981 0.36818 0.0
O130 O 0.28912 0.0987 0.38276 0.0
C131 C 0.24588 0.05326 0.31294 0.0
Fe132 Fe 0.95101 0.18681 0.34472 0.0
Fe133 Fe 0.88921 0.21569 0.38382 0.0
O134 O 0.93392 0.2187 0.37083 0.0
Fe135 Fe 0.96223 0.25397 0.38244 0.0
O136 O 0.96726 0.26885 0.34059 0.0
O137 O 0.98263 0.21631 0.32416 0.0
O138 O 0.92031 0.20056 0.31466 0.0
C139 C 0.88728 0.19894 0.31669 0.0
C140 C 1.008 0.19337 0.38248 0.0
O141 O 0.87223 0.19944 0.3442 0.0
C142 C 0.93015 0.23626 0.43938 0.0
O143 O 0.92232 0.15014 0.35809 0.0
O144 O 0.89323 0.17077 0.39916 0.0
O145 O 1.00362 0.22675 0.38068 0.0
O146 O 0.98281 0.17326 0.37487 0.0
C147 C 0.89477 0.28768 0.37718 0.0
O148 O 0.9006 0.23097 0.42512 0.0
O149 O 0.95858 0.24157 0.42419 0.0
C150 C 0.90221 0.1449 0.38202 0.0
O151 O 0.87912 0.2597 0.36965 0.0
O152 O 0.92651 0.28717 0.3871 0.0
C153 C 0.97977 0.24906 0.31894 0.0
Fe154 Fe 0.77644 0.9596 0.38752 0.0
Fe155 Fe 0.84347 0.94836 0.34877 0.0
O156 O 0.81028 0.93095 0.37369 0.0
Fe157 Fe 0.8113 0.88552 0.38416 0.0
O158 O 0.76713 0.87805 0.36848 0.0
O159 O 0.7414 0.92504 0.38873 0.0
O160 O 0.76191 0.96942 0.34623 0.0
C161 C 0.78259 0.98202 0.32526 0.0
C162 C 0.79278 0.92113 0.44201 0.0
O163 O 0.81544 0.9822 0.33016 0.0
C164 C 0.88214 0.89838 0.38579 0.0
O165 O 0.80578 0.99972 0.38857 0.0
O166 O 0.85843 0.97749 0.38044 0.0
O167 O 0.79479 0.89319 0.42522 0.0
O168 O 0.78884 0.95119 0.42912 0.0
C169 C 0.83085 0.88725 0.31752 0.0
O170 O 0.87837 0.91765 0.36131 0.0
O171 O 0.85553 0.88835 0.40142 0.0
C172 C 0.83948 1.003 0.389 0.0
O173 O 0.82937 0.9203 0.3166 0.0
O174 O 0.82884 0.87095 0.3443 0.0
C175 C 0.73939 0.8941 0.37693 0.0
Fe176 Fe 0.95682 0.77345 0.87827 0.0
Fe177 Fe 0.9411 0.84186 0.84097 0.0
O178 O 0.92747 0.80853 0.86831 0.0
Fe179 Fe 0.88445 0.81004 0.88552 0.0
O180 O 0.87312 0.76728 0.86936 0.0
O181 O 0.92165 0.73991 0.88414 0.0
O182 O 0.95962 0.75916 0.83616 0.0
C183 C 0.96949 0.77895 0.81329 0.0
C184 C 0.92887 0.78961 0.93734 0.0
O185 O 0.96886 0.81226 0.81639 0.0
C186 C 0.89881 0.88024 0.88663 0.0
O187 O 0.99734 0.80034 0.87471 0.0
O188 O 0.97846 0.8544 0.86616 0.0
O189 O 0.89852 0.79172 0.92451 0.0
O190 O 0.95634 0.78562 0.92057 0.0
C191 C 0.87313 0.83043 0.8206 0.0
O192 O 0.91497 0.87765 0.85991 0.0
O193 O 0.89193 0.85318 0.90297 0.0
C194 C 1.00297 0.83336 0.8739 0.0
O195 O 0.90547 0.8316 0.81367 0.0
O196 O 0.8628 0.82866 0.84956 0.0
C197 C 0.8898 0.73921 0.87451 0.0
Fe198 Fe 0.19009 0.93902 0.83276 0.0
Fe199 Fe 0.21569 0.8818 0.87966 0.0
O200 O 0.2197 0.92518 0.86345 0.0
Fe201 Fe 0.25275 0.95516 0.87735 0.0
O202 O 0.27141 0.96178 0.83677 0.0
O203 O 0.22024 0.97039 0.81353 0.0
O204 O 0.20677 0.90526 0.80546 0.0
C205 C 0.20875 0.8726 0.81196 0.0
C206 C 0.19056 0.99815 0.86987 0.0
O207 O 0.20461 0.86195 0.84067 0.0
C208 C 0.23125 0.92422 0.93505 0.0
O209 O 0.15289 0.91126 0.84451 0.0
O210 O 0.16888 0.88723 0.89001 0.0
O211 O 0.22387 0.99457 0.87319 0.0
O212 O 0.17225 0.97297 0.85899 0.0
C213 C 0.28866 0.88834 0.87697 0.0
O214 O 0.22682 0.89464 0.92132 0.0
O215 O 0.23734 0.95188 0.91892 0.0
C216 C 0.14507 0.89465 0.86977 0.0
O217 O 0.26122 0.87097 0.87063 0.0
O218 O 0.28715 0.92093 0.88399 0.0
C219 C 0.25345 0.97287 0.81312 0.0
Fe220 Fe 0.06758 0.24622 0.88176 0.0
Fe221 Fe 0.08341 0.18262 0.83858 0.0
O222 O 0.09781 0.21371 0.86757 0.0
Fe223 Fe 0.14205 0.21085 0.88167 0.0
O224 O 0.1516 0.25633 0.87151 0.0
O225 O 0.10107 0.28202 0.88436 0.0
O226 O 0.05742 0.26224 0.84088 0.0
C227 C 0.04501 0.24274 0.81897 0.0
C228 C 0.10304 0.22793 0.9385 0.0
O229 O 0.04848 0.20985 0.82097 0.0
C230 C 0.1307 0.14029 0.87432 0.0
O231 O 0.02925 0.21503 0.88139 0.0
O232 O 0.05284 0.16394 0.8675 0.0
O233 O 0.13154 0.22216 0.92343 0.0
O234 O 0.07436 0.23403 0.92381 0.0
C235 C 0.14648 0.20357 0.81337 0.0
O236 O 0.11514 0.14771 0.84839 0.0
O237 O 0.13693 0.1647 0.89397 0.0
C238 C 0.02731 0.18141 0.87905 0.0
O239 O 0.11342 0.20076 0.80931 0.0
O240 O 0.15978 0.19947 0.84133 0.0
C241 C 0.13374 0.28374 0.87708 0.0
Fe242 Fe 0.77825 0.06366 0.88557 0.0
Fe243 Fe 0.8454 0.07052 0.84575 0.0
O244 O 0.81423 0.08977 0.87198 0.0
Fe245 Fe 0.81928 0.13468 0.88335 0.0
O246 O 0.77536 0.14631 0.86899 0.0
O247 O 0.74606 0.09999 0.88664 0.0
O248 O 0.76311 0.05555 0.84425 0.0
C249 C 0.78214 0.04216 0.82258 0.0
C250 C 0.7966 0.10001 0.94082 0.0
O251 O 0.81493 0.03874 0.82721 0.0
C252 C 0.88911 0.11511 0.88372 0.0
O253 O 0.80507 0.02239 0.8873 0.0
O254 O 0.85906 0.03938 0.87612 0.0
O255 O 0.80349 0.12745 0.9245 0.0
O256 O 0.78989 0.07075 0.92747 0.0
C257 C 0.83533 0.1336 0.81646 0.0
O258 O 0.88264 0.09856 0.85799 0.0
O259 O 0.86356 0.12752 0.89939 0.0
C260 C 0.83846 0.01795 0.88984 0.0
O261 O 0.83258 0.10061 0.8148 0.0
O262 O 0.83658 0.14909 0.84359 0.0
C263 C 0.74657 0.13133 0.87611 0.0
Fe264 Fe 0.88306 0.21426 0.63118 0.0
Fe265 Fe 0.95691 0.24919 0.63781 0.0
O266 O 0.92684 0.21438 0.64684 0.0
Fe267 Fe 0.94147 0.1796 0.67171 0.0
O268 O 0.90842 0.18954 0.70125 0.0
O269 O 0.86302 0.19563 0.66828 0.0
O270 O 0.87356 0.25741 0.64783 0.0
C271 C 0.89041 0.28529 0.64222 0.0
C272 C 0.89482 0.14312 0.62844 0.0
O273 O 0.92246 0.28399 0.63309 0.0
C274 C 1.00141 0.18789 0.63756 0.0
O275 O 0.89695 0.2324 0.59168 0.0
O276 O 0.95518 0.23853 0.59541 0.0
O277 O 0.91354 0.14501 0.65365 0.0
O278 O 0.88725 0.17071 0.61305 0.0
C279 C 0.97107 0.24029 0.70158 0.0
O280 O 0.99746 0.22111 0.64045 0.0
O281 O 0.9755 0.1679 0.64288 0.0
C282 C 0.9274 0.23541 0.57878 0.0
O283 O 0.96043 0.26161 0.68023 0.0
O284 O 0.97159 0.20737 0.69602 0.0
C285 C 0.87562 0.19152 0.69643 0.0
Fe286 Fe 0.81261 0.88572 0.63881 0.0
Fe287 Fe 0.77451 0.95772 0.63551 0.0
O288 O 0.809 0.93071 0.65122 0.0
Fe289 Fe 0.84001 0.948 0.67912 0.0
O290 O 0.84269 0.90683 0.70226 0.0
O291 O 0.80503 0.86998 0.67957 0.0
O292 O 0.76523 0.87931 0.6314 0.0
C293 C 0.7386 0.89487 0.64291 0.0
C294 C 0.88494 0.90521 0.64569 0.0
O295 O 0.74012 0.92729 0.65002 0.0
C296 C 0.8304 1.0054 0.63513 0.0
O297 O 0.82019 0.89909 0.59738 0.0
O298 O 0.77565 0.93686 0.59536 0.0
O299 O 0.87756 0.93633 0.65382 0.0
O300 O 0.86087 0.8822 0.64399 0.0
C301 C 0.77901 0.97963 0.70139 0.0
O302 O 0.80583 0.99032 0.61964 0.0
O303 O 0.84202 0.99235 0.66118 0.0
C304 C 0.79939 0.91862 0.58154 0.0
O305 O 0.76769 0.98369 0.67283 0.0
O306 O 0.80593 0.96121 0.70711 0.0
C307 C 0.82315 0.87971 0.70348 0.0
Fe308 Fe 0.14098 0.81023 0.63394 0.0
Fe309 Fe 0.0652 0.77791 0.63527 0.0
O310 O 0.09722 0.80867 0.64989 0.0
Fe311 Fe 0.08545 0.8382 0.68122 0.0
O312 O 0.11838 0.81928 0.70806 0.0
O313 O 0.16166 0.82032 0.67293 0.0
O314 O 0.14859 0.76437 0.64334 0.0
C315 C 0.12948 0.73796 0.63742 0.0
C316 C 0.13173 0.88092 0.64374 0.0
O317 O 0.09734 0.74155 0.62903 0.0
C318 C 0.02578 0.84232 0.64499 0.0
O319 O 0.12788 0.80003 0.59228 0.0
O320 O 0.06991 0.79345 0.59388 0.0
O321 O 0.11531 0.87356 0.6693 0.0
O322 O 0.13814 0.85699 0.62343 0.0
C323 C 0.04748 0.77664 0.69945 0.0
O324 O 0.02752 0.80924 0.63961 0.0
O325 O 0.05217 0.85873 0.65594 0.0
C326 C 0.09821 0.79784 0.57821 0.0
O327 O 0.05698 0.7589 0.67526 0.0
O328 O 0.0527 0.8094 0.70022 0.0
C329 C 0.151 0.81657 0.70166 0.0
Fe330 Fe 0.24991 0.06666 0.63459 0.0
Fe331 Fe 0.18593 0.08491 0.67774 0.0
O332 O 0.21727 0.09757 0.648 0.0
Fe333 Fe 0.21555 0.14105 0.63183 0.0
O334 O 0.26103 0.14996 0.64378 0.0
O335 O 0.28511 0.09967 0.62866 0.0
O336 O 0.26729 0.05995 0.67545 0.0
C337 C 0.24875 0.05072 0.69936 0.0
C338 C 0.23214 0.0991 0.57691 0.0
O339 O 0.21565 0.05475 0.69914 0.0
C340 C 0.14427 0.12902 0.63666 0.0
O341 O 0.22065 0.02781 0.63843 0.0
O342 O 0.16892 0.04964 0.65236 0.0
O343 O 0.22864 0.1282 0.5913 0.0
O344 O 0.23578 0.07059 0.59252 0.0
C345 C 0.20077 0.15156 0.69852 0.0
O346 O 0.14986 0.11306 0.66295 0.0
O347 O 0.1698 0.13593 0.61821 0.0
C348 C 0.18747 0.02445 0.64185 0.0
O349 O 0.20063 0.1191 0.70512 0.0
O350 O 0.20176 0.16222 0.66963 0.0
C351 C 0.28798 0.13163 0.63714 0.0
Fe352 Fe 0.57893 0.68422 0.67456 0.0
Fe353 Fe 0.63844 0.71346 0.63151 0.0
O354 O 0.5943 0.71615 0.64658 0.0
Fe355 Fe 0.56564 0.7509 0.6342 0.0
O356 O 0.56022 0.76667 0.67563 0.0
O357 O 0.55035 0.71458 0.69702 0.0
O358 O 0.61341 0.69532 0.70291 0.0
C359 C 0.64612 0.69417 0.69749 0.0
C360 C 0.51891 0.69068 0.6382 0.0
O361 O 0.65782 0.6953 0.66892 0.0
C362 C 0.59798 0.73379 0.57668 0.0
O363 O 0.60496 0.64791 0.65767 0.0
O364 O 0.63149 0.6692 0.6152 0.0
O365 O 0.52453 0.72378 0.63618 0.0
O366 O 0.54282 0.67049 0.64862 0.0
C367 C 0.63288 0.78564 0.63983 0.0
O368 O 0.62722 0.73048 0.59132 0.0
O369 O 0.56934 0.73793 0.59201 0.0
C370 C 0.62089 0.64293 0.63118 0.0
O371 O 0.64928 0.75745 0.64646 0.0
O372 O 0.60109 0.78441 0.62998 0.0
C373 C 0.5506 0.74783 0.69916 0.0
Fe374 Fe 0.3377 0.57839 0.67085 0.0
Fe375 Fe 0.30724 0.63868 0.63154 0.0
O376 O 0.30556 0.59404 0.64426 0.0
Fe377 Fe 0.27148 0.56488 0.63203 0.0
O378 O 0.25619 0.55788 0.67362 0.0
O379 O 0.30942 0.54553 0.69038 0.0
O380 O 0.32135 0.60829 0.70093 0.0
C381 C 0.32562 0.64077 0.69832 0.0
C382 C 0.33426 0.52148 0.63285 0.0
O383 O 0.32467 0.65532 0.67069 0.0
C384 C 0.28799 0.59885 0.57576 0.0
O385 O 0.37348 0.60865 0.65747 0.0
O386 O 0.35188 0.63504 0.61519 0.0
O387 O 0.30058 0.52482 0.63331 0.0
O388 O 0.35336 0.54722 0.64105 0.0
C389 C 0.23559 0.63106 0.63895 0.0
O390 O 0.29085 0.62813 0.59064 0.0
O391 O 0.28432 0.56992 0.59043 0.0
C392 C 0.37812 0.62686 0.63231 0.0
O393 O 0.26332 0.64725 0.64677 0.0
O394 O 0.23697 0.59967 0.62818 0.0
C395 C 0.27647 0.54614 0.69532 0.0
Fe396 Fe 0.38487 0.30889 0.63035 0.0
Fe397 Fe 0.45928 0.27484 0.63769 0.0
O398 O 0.42771 0.30781 0.64855 0.0
Fe399 Fe 0.43888 0.33975 0.67826 0.0
O400 O 0.40347 0.32474 0.7041 0.0
O401 O 0.36154 0.32231 0.66741 0.0
O402 O 0.37524 0.26404 0.6423 0.0
C403 C 0.3939 0.23707 0.63781 0.0
C404 C 0.39543 0.38001 0.63541 0.0
O405 O 0.4265 0.2394 0.63107 0.0
C406 C 0.50126 0.3376 0.64468 0.0
O407 O 0.40043 0.29521 0.59019 0.0
O408 O 0.45807 0.28779 0.59537 0.0
O409 O 0.41078 0.37503 0.66208 0.0
O410 O 0.38997 0.35439 0.6168 0.0
C411 C 0.47208 0.27822 0.70325 0.0
O412 O 0.49773 0.3044 0.64188 0.0
O413 O 0.47576 0.35656 0.65432 0.0
C414 C 0.43095 0.29179 0.57794 0.0
O415 O 0.46366 0.2589 0.67955 0.0
O416 O 0.46868 0.31128 0.70137 0.0
C417 C 0.37125 0.32196 0.69664 0.0
Fe418 Fe 0.71312 0.38883 0.63811 0.0
Fe419 Fe 0.74987 0.46246 0.63701 0.0
O420 O 0.71652 0.43323 0.65155 0.0
Fe421 Fe 0.68613 0.44904 0.68053 0.0
O422 O 0.70303 0.41826 0.71004 0.0
O423 O 0.70219 0.37177 0.67838 0.0
O424 O 0.75862 0.37905 0.6481 0.0
C425 C 0.78635 0.39612 0.64201 0.0
C426 C 0.64226 0.40155 0.64603 0.0
O427 O 0.78482 0.42822 0.63326 0.0
C428 C 0.68657 0.50501 0.63998 0.0
O429 O 0.7241 0.39929 0.59617 0.0
O430 O 0.73601 0.45651 0.59547 0.0
O431 O 0.64957 0.41962 0.67053 0.0
O432 O 0.66648 0.393 0.6267 0.0
C433 C 0.74871 0.48267 0.70027 0.0
O434 O 0.72026 0.50215 0.63826 0.0
O435 O 0.66846 0.48006 0.65155 0.0
C436 C 0.7292 0.42795 0.58107 0.0
O437 O 0.76724 0.47073 0.67756 0.0
O438 O 0.7155 0.48228 0.69801 0.0
C439 C 0.70622 0.38526 0.70614 0.0
Fe440 Fe 0.57141 0.2723 0.88084 0.0
Fe441 Fe 0.58324 0.34178 0.8447 0.0
O442 O 0.5995 0.30808 0.87041 0.0
Fe443 Fe 0.6431 0.31072 0.88586 0.0
O444 O 0.65503 0.26804 0.86972 0.0
O445 O 0.60735 0.23909 0.88441 0.0
O446 O 0.56603 0.25922 0.83855 0.0
C447 C 0.55316 0.2797 0.81748 0.0
C448 C 0.60169 0.28862 0.93927 0.0
O449 O 0.55261 0.31272 0.82242 0.0
C450 C 0.62827 0.38076 0.88724 0.0
O451 O 0.53084 0.29932 0.87999 0.0
O452 O 0.5491 0.35361 0.87382 0.0
O453 O 0.63147 0.29258 0.92567 0.0
O454 O 0.57394 0.28314 0.92328 0.0
C455 C 0.64923 0.33183 0.82002 0.0
O456 O 0.6112 0.37762 0.86112 0.0
O457 O 0.63554 0.35384 0.90356 0.0
C458 C 0.52627 0.33212 0.8845 0.0
O459 O 0.61635 0.33172 0.81463 0.0
O460 O 0.66159 0.32942 0.84842 0.0
C461 C 0.63931 0.23945 0.87501 0.0
Fe462 Fe 0.68593 0.57005 0.84506 0.0
Fe463 Fe 0.71294 0.63412 0.88218 0.0
O464 O 0.71726 0.58907 0.87116 0.0
Fe465 Fe 0.75266 0.56265 0.88538 0.0
O466 O 0.76832 0.55434 0.84425 0.0
O467 O 0.71637 0.53826 0.82654 0.0
O468 O 0.69839 0.60007 0.81378 0.0
C469 C 0.69479 0.63297 0.81539 0.0
C470 C 0.69248 0.51739 0.88923 0.0
O471 O 0.69468 0.64844 0.84258 0.0
C472 C 0.73391 0.59955 0.9401 0.0
O473 O 0.64919 0.59826 0.85782 0.0
O474 O 0.66897 0.62751 0.89892 0.0
O475 O 0.72585 0.52144 0.88674 0.0
O476 O 0.6722 0.53906 0.87547 0.0
C477 C 0.78523 0.62961 0.87484 0.0
O478 O 0.7296 0.62725 0.92332 0.0
O479 O 0.73978 0.56995 0.92704 0.0
C480 C 0.64323 0.61478 0.8837 0.0
O481 O 0.75672 0.64468 0.86688 0.0
O482 O 0.78499 0.59889 0.88688 0.0
C483 C 0.7493 0.54127 0.82234 0.0
Fe484 Fe 0.45348 0.68642 0.83713 0.0
Fe485 Fe 0.39188 0.7122 0.87743 0.0
O486 O 0.43701 0.71526 0.86635 0.0
Fe487 Fe 0.46588 0.7475 0.88229 0.0
O488 O 0.47494 0.76644 0.8423 0.0
O489 O 0.48859 0.71529 0.82221 0.0
O490 O 0.42553 0.70796 0.8082 0.0
C491 C 0.39288 0.70395 0.80893 0.0
C492 C 0.50746 0.68377 0.87862 0.0
O493 O 0.37709 0.70058 0.83596 0.0
C494 C 0.42931 0.72676 0.93617 0.0
O495 O 0.42181 0.64978 0.84478 0.0
O496 O 0.39546 0.66545 0.8891 0.0
O497 O 0.50543 0.71748 0.88074 0.0
O498 O 0.48236 0.66639 0.86635 0.0
C499 C 0.39964 0.78446 0.87649 0.0
O500 O 0.40065 0.72377 0.92015 0.0
O501 O 0.45878 0.73125 0.92257 0.0
C502 C 0.40421 0.64145 0.86956 0.0
O503 O 0.38329 0.75765 0.86671 0.0
O504 O 0.43113 0.78208 0.88717 0.0
C505 C 0.48808 0.7483 0.81983 0.0
Fe506 Fe 0.28257 0.45282 0.87586 0.0
Fe507 Fe 0.34915 0.43485 0.83658 0.0
O508 O 0.31548 0.42185 0.86426 0.0
Fe509 Fe 0.31404 0.37786 0.87976 0.0
O510 O 0.26935 0.3704 0.86549 0.0
O511 O 0.24631 0.42024 0.88182 0.0
O512 O 0.26752 0.458 0.83356 0.0
C513 C 0.2875 0.46634 0.81004 0.0
C514 C 0.29837 0.42081 0.93447 0.0
O515 O 0.32073 0.46475 0.81333 0.0
C516 C 0.38612 0.3885 0.87923 0.0
O517 O 0.31163 0.49208 0.87274 0.0
O518 O 0.36455 0.47142 0.86197 0.0
O519 O 0.29867 0.39125 0.92013 0.0
O520 O 0.29614 0.44924 0.91831 0.0
C521 C 0.33071 0.3682 0.81397 0.0
O522 O 0.38399 0.40684 0.85386 0.0
O523 O 0.35891 0.38059 0.89513 0.0
C524 C 0.34483 0.49678 0.87055 0.0
O525 O 0.33623 0.40045 0.80888 0.0
O526 O 0.32849 0.35642 0.84234 0.0
C527 C 0.24272 0.38849 0.87276 0.0
Fe528 Fe 0.44047 0.34554 0.34255 0.0
Fe529 Fe 0.38452 0.3091 0.38458 0.0
O530 O 0.42796 0.31061 0.36842 0.0
Fe531 Fe 0.45973 0.27747 0.37826 0.0
O532 O 0.46405 0.26441 0.33613 0.0
O533 O 0.47168 0.31875 0.31874 0.0
O534 O 0.40714 0.3338 0.31311 0.0
C535 C 0.37458 0.3296 0.31852 0.0
C536 C 0.50099 0.34053 0.37736 0.0
O537 O 0.36299 0.32581 0.34718 0.0
C538 C 0.42992 0.29075 0.43749 0.0
O539 O 0.41128 0.37906 0.36035 0.0
O540 O 0.38748 0.35297 0.40202 0.0
O541 O 0.49857 0.3072 0.37515 0.0
O542 O 0.4745 0.35943 0.37082 0.0
C543 C 0.39538 0.23845 0.37415 0.0
O544 O 0.39938 0.29244 0.42449 0.0
O545 O 0.45767 0.28863 0.4207 0.0
C546 C 0.39425 0.38061 0.3865 0.0
O547 O 0.37685 0.26529 0.36871 0.0
O548 O 0.42719 0.24135 0.38344 0.0
C549 C 0.47378 0.28571 0.31442 0.0
Fe550 Fe 0.6848 0.4427 0.34132 0.0
Fe551 Fe 0.71481 0.38535 0.38532 0.0
O552 O 0.71682 0.42894 0.36988 0.0
Fe553 Fe 0.74989 0.45938 0.3829 0.0
O554 O 0.76589 0.46634 0.34177 0.0
O555 O 0.71329 0.47482 0.32098 0.0
O556 O 0.69962 0.41014 0.31246 0.0
C557 C 0.70025 0.37741 0.31821 0.0
C558 C 0.6868 0.5015 0.37828 0.0
O559 O 0.70102 0.36562 0.34683 0.0
C560 C 0.73204 0.42661 0.44049 0.0
O561 O 0.64927 0.41347 0.35476 0.0
O562 O 0.66917 0.3906 0.39929 0.0
O563 O 0.72026 0.4984 0.38021 0.0
O564 O 0.66835 0.47565 0.36922 0.0
C565 C 0.78743 0.39404 0.37913 0.0
O566 O 0.72796 0.39758 0.42603 0.0
O567 O 0.73707 0.45499 0.42506 0.0
C568 C 0.64358 0.39785 0.38105 0.0
O569 O 0.76012 0.37603 0.37318 0.0
O570 O 0.78518 0.42607 0.38763 0.0
C571 C 0.74647 0.47718 0.31908 0.0
Fe572 Fe 0.63902 0.71451 0.38029 0.0
Fe573 Fe 0.56461 0.74953 0.37836 0.0
O574 O 0.59513 0.71682 0.36533 0.0
Fe575 Fe 0.58123 0.68487 0.33689 0.0
O576 O 0.61182 0.70199 0.30758 0.0
O577 O 0.65754 0.70209 0.34042 0.0
O578 O 0.64882 0.75961 0.3694 0.0
C579 C 0.63092 0.78715 0.37426 0.0
C580 C 0.62781 0.64382 0.37465 0.0
O581 O 0.59809 0.78537 0.381 0.0
C582 C 0.52409 0.68468 0.37586 0.0
O583 O 0.62755 0.72702 0.4216 0.0
O584 O 0.57021 0.73808 0.42062 0.0
O585 O 0.61271 0.65016 0.34823 0.0
O586 O 0.63366 0.66888 0.39364 0.0
C587 C 0.54336 0.74492 0.31555 0.0
O588 O 0.52621 0.71836 0.37761 0.0
O589 O 0.55019 0.66705 0.36588 0.0
C590 C 0.5985 0.73239 0.43595 0.0
O591 O 0.55568 0.7647 0.33721 0.0
O592 O 0.54665 0.71195 0.31801 0.0
C593 C 0.64476 0.7053 0.31213 0.0
Fe594 Fe 0.33895 0.57412 0.33958 0.0
Fe595 Fe 0.31378 0.63744 0.37894 0.0
O596 O 0.30852 0.59285 0.36682 0.0
Fe597 Fe 0.27285 0.56698 0.38083 0.0
O598 O 0.2562 0.55988 0.33961 0.0
O599 O 0.30768 0.54322 0.32112 0.0
O600 O 0.32514 0.60512 0.30978 0.0
C601 C 0.32913 0.63788 0.31193 0.0
C602 C 0.33199 0.51896 0.38041 0.0
O603 O 0.3313 0.65262 0.33936 0.0
C604 C 0.29289 0.60142 0.43613 0.0
O605 O 0.37688 0.602 0.35169 0.0
O606 O 0.35794 0.62888 0.39451 0.0
O607 O 0.29882 0.52534 0.38109 0.0
O608 O 0.35311 0.54129 0.36846 0.0
C609 C 0.24153 0.63552 0.37293 0.0
O610 O 0.29721 0.62972 0.4202 0.0
O611 O 0.28719 0.57242 0.42216 0.0
C612 C 0.38324 0.62001 0.37672 0.0
O613 O 0.27018 0.64978 0.36454 0.0
O614 O 0.24107 0.60425 0.38403 0.0
C615 C 0.27474 0.5465 0.31741 0.0
Fe616 Fe 0.45798 0.74789 0.13448 0.0
Fe617 Fe 0.43997 0.68084 0.17232 0.0
O618 O 0.42739 0.71389 0.14456 0.0
Fe619 Fe 0.38422 0.7133 0.12744 0.0
O620 O 0.37436 0.75691 0.1426 0.0
O621 O 0.42383 0.78247 0.12763 0.0
O622 O 0.46061 0.76309 0.17617 0.0
C623 C 0.46911 0.74322 0.19937 0.0
C624 C 0.4298 0.73115 0.07559 0.0
O625 O 0.46809 0.70998 0.19647 0.0
C626 C 0.39636 0.64249 0.12755 0.0
O627 O 0.49807 0.71979 0.13939 0.0
O628 O 0.47674 0.66656 0.14739 0.0
O629 O 0.3992 0.73017 0.08815 0.0
O630 O 0.45733 0.73466 0.09251 0.0
C631 C 0.37271 0.69467 0.1928 0.0
O632 O 0.41303 0.64539 0.15397 0.0
O633 O 0.38979 0.66937 0.11084 0.0
C634 C 0.50213 0.68647 0.13976 0.0
O635 O 0.40509 0.69335 0.19926 0.0
O636 O 0.36212 0.69587 0.16387 0.0
C637 C 0.39172 0.78438 0.13655 0.0
Fe638 Fe 0.27532 0.45852 0.13241 0.0
Fe639 Fe 0.34067 0.44772 0.17614 0.0
O640 O 0.30967 0.43102 0.14781 0.0
Fe641 Fe 0.31313 0.38661 0.13408 0.0
O642 O 0.26531 0.3806 0.12747 0.0
O643 O 0.24087 0.42854 0.14725 0.0
O644 O 0.26923 0.48469 0.16955 0.0
C645 C 0.27995 0.48031 0.19819 0.0
C646 C 0.29828 0.42094 0.07698 0.0
O647 O 0.30629 0.46106 0.20413 0.0
C648 C 0.38583 0.40526 0.14165 0.0
O649 O 0.30737 0.49032 0.11656 0.0
O650 O 0.34304 0.49212 0.15849 0.0
O651 O 0.32005 0.40198 0.09258 0.0
O652 O 0.27463 0.43789 0.09208 0.0
C653 C 0.32452 0.37856 0.19928 0.0
O654 O 0.37866 0.436 0.15121 0.0
O655 O 0.36149 0.38275 0.13835 0.0
C656 C 0.33193 0.50515 0.13225 0.0
O657 O 0.34308 0.40637 0.19884 0.0
O658 O 0.30668 0.36907 0.17489 0.0
C659 C 0.23895 0.39625 0.13966 0.0
Fe660 Fe 0.56854 0.28001 0.13472 0.0
Fe661 Fe 0.58663 0.34477 0.17556 0.0
O662 O 0.6001 0.31157 0.14821 0.0
Fe663 Fe 0.64463 0.31055 0.1346 0.0
O664 O 0.65097 0.26559 0.14813 0.0
O665 O 0.60078 0.24288 0.13138 0.0
O666 O 0.55937 0.2646 0.17564 0.0
C667 C 0.54859 0.28473 0.19774 0.0
C668 C 0.60423 0.29518 0.07848 0.0
O669 O 0.55242 0.31773 0.19525 0.0
C670 C 0.63631 0.38214 0.13703 0.0
O671 O 0.5305 0.31162 0.13597 0.0
O672 O 0.55553 0.36251 0.14646 0.0
O673 O 0.63341 0.2964 0.09349 0.0
O674 O 0.57504 0.29282 0.09305 0.0
C675 C 0.6496 0.32443 0.20192 0.0
O676 O 0.61842 0.37857 0.16248 0.0
O677 O 0.64283 0.35579 0.11956 0.0
C678 C 0.52875 0.34521 0.13781 0.0
O679 O 0.61677 0.32872 0.20559 0.0
O680 O 0.6631 0.3242 0.17391 0.0
C681 C 0.63231 0.23901 0.14161 0.0
Fe682 Fe 0.71381 0.64155 0.13494 0.0
Fe683 Fe 0.75163 0.5694 0.13742 0.0
O684 O 0.71718 0.59795 0.15073 0.0
Fe685 Fe 0.68617 0.58327 0.17989 0.0
O686 O 0.68157 0.62668 0.19914 0.0
O687 O 0.71957 0.66143 0.17451 0.0
O688 O 0.76172 0.6475 0.12885 0.0
C689 C 0.78795 0.63219 0.14165 0.0
C690 C 0.64131 0.62127 0.14174 0.0
O691 O 0.78595 0.6003 0.15015 0.0
C692 C 0.69648 0.52209 0.14083 0.0
O693 O 0.70763 0.62485 0.09441 0.0
O694 O 0.75156 0.58654 0.09568 0.0
O695 O 0.6487 0.59133 0.15319 0.0
O696 O 0.66526 0.64427 0.13824 0.0
C697 C 0.74743 0.55488 0.2049 0.0
O698 O 0.7205 0.53585 0.12383 0.0
O699 O 0.68541 0.53709 0.16616 0.0
C700 C 0.72858 0.60419 0.0802 0.0
O701 O 0.75746 0.54711 0.17666 0.0
O702 O 0.72069 0.57426 0.20903 0.0
C703 C 0.70047 0.65422 0.19854 0.0
C704 C 0.16432 0.2002 0.29092 0.0
C705 C 0.19604 0.1804 0.29108 0.0
C706 C 0.20496 0.19285 0.23368 0.0
C707 C 0.17046 0.20773 0.23272 0.0
N708 N 0.12979 0.24373 0.26256 0.0
N709 N 0.25352 0.17389 0.26789 0.0
C710 C 0.15432 0.21749 0.26221 0.0
C711 C 0.21864 0.18162 0.26396 0.0
N712 N 0.14271 0.20116 0.31725 0.0
N713 N 0.22457 0.18924 0.20631 0.0
H714 H 0.26354 0.16771 0.29058 0.0
H715 H 0.2725 0.17694 0.24992 0.0
H716 H 0.21907 0.20291 0.18514 0.0
H717 H 0.24712 0.1735 0.20507 0.0
H718 H 0.11712 0.21139 0.31655 0.0
H719 H 0.14959 0.19047 0.33943 0.0
H720 H 0.11912 0.25402 0.2837 0.0
H721 H 0.12394 0.25783 0.2417 0.0
C722 C 0.83236 0.19691 0.27945 0.0
C723 C 0.86863 0.18929 0.28615 0.0
C724 C 0.87694 0.17566 0.22979 0.0
C725 C 0.84042 0.17311 0.22482 0.0
N726 N 0.78177 0.18191 0.24584 0.0
N727 N 0.91911 0.15452 0.26743 0.0
C728 C 0.81738 0.18415 0.24989 0.0
C729 C 0.88939 0.17389 0.26125 0.0
N730 N 0.81268 0.21674 0.30015 0.0
N731 N 0.89975 0.17683 0.20452 0.0
H732 H 0.92626 0.14633 0.29053 0.0
H733 H 0.93314 0.14191 0.24911 0.0
H734 H 0.89066 0.18027 0.18101 0.0
H735 H 0.927 0.17872 0.20794 0.0
H736 H 0.78698 0.22484 0.29484 0.0
H737 H 0.82309 0.22809 0.32092 0.0
H738 H 0.76378 0.18597 0.2645 0.0
H739 H 0.77077 0.17467 0.22385 0.0
C740 C 0.86862 0.88128 0.23496 0.0
C741 C 0.86133 0.84665 0.22505 0.0
C742 C 0.82907 0.83747 0.27573 0.0
C743 C 0.84323 0.86986 0.28748 0.0
N744 N 0.8885 0.91479 0.27987 0.0
N745 N 0.83524 0.79015 0.23638 0.0
C746 C 0.86674 0.88938 0.26763 0.0
C747 C 0.84163 0.82405 0.24555 0.0
N748 N 0.87689 0.90674 0.2131 0.0
N749 N 0.8031 0.82037 0.29237 0.0
H750 H 0.84251 0.78081 0.2137 0.0
H751 H 0.82419 0.77135 0.25169 0.0
H752 H 0.79281 0.82981 0.31399 0.0
H753 H 0.78986 0.7984 0.28333 0.0
H754 H 0.88076 0.93307 0.21953 0.0
H755 H 0.87388 0.90228 0.1886 0.0
H756 H 0.90725 0.92782 0.26577 0.0
H757 H 0.89131 0.91927 0.30443 0.0
C758 C 0.17754 0.81453 0.26611 0.0
C759 C 0.17597 0.83936 0.29154 0.0
C760 C 0.21235 0.87873 0.25944 0.0
C761 C 0.20212 0.86039 0.2312 0.0
N762 N 0.18233 0.80475 0.20865 0.0
N763 N 0.19523 0.8956 0.31312 0.0
C764 C 0.18742 0.82606 0.23468 0.0
C765 C 0.1951 0.87131 0.28884 0.0
N766 N 0.17119 0.77984 0.27259 0.0
N767 N 0.23863 0.90319 0.25785 0.0
H768 H 0.18348 0.89138 0.33542 0.0
H769 H 0.20547 0.92094 0.31028 0.0
H770 H 0.25266 0.90723 0.23651 0.0
H771 H 0.24897 0.91561 0.27817 0.0
H772 H 0.1748 0.75977 0.25577 0.0
H773 H 0.16535 0.77117 0.29589 0.0
H774 H 0.16706 0.78189 0.20959 0.0
H775 H 0.19386 0.8094 0.18632 0.0
C776 C 0.84556 0.81314 0.76842 0.0
C777 C 0.84774 0.83739 0.79428 0.0
C778 C 0.81462 0.87967 0.76229 0.0
C779 C 0.82241 0.86009 0.73429 0.0
N780 N 0.84387 0.80618 0.7104 0.0
N781 N 0.83354 0.89487 0.81591 0.0
C782 C 0.83671 0.82575 0.73719 0.0
C783 C 0.83126 0.87075 0.79161 0.0
N784 N 0.85173 0.77828 0.77399 0.0
N785 N 0.79134 0.90689 0.76051 0.0
H786 H 0.84583 0.88943 0.83772 0.0
H787 H 0.82536 0.92099 0.81347 0.0
H788 H 0.77765 0.91193 0.73921 0.0
H789 H 0.78266 0.92074 0.78067 0.0
H790 H 0.84812 0.75879 0.7566 0.0
H791 H 0.85729 0.76905 0.79713 0.0
H792 H 0.85792 0.78255 0.71122 0.0
H793 H 0.83728 0.81452 0.68722 0.0
C794 C 0.2087 0.83746 0.72643 0.0
C795 C 0.17697 0.81756 0.729 0.0
C796 C 0.1863 0.81559 0.78734 0.0
C797 C 0.20711 0.84662 0.78475 0.0
N798 N 0.24677 0.8806 0.75189 0.0
N799 N 0.14098 0.77986 0.76239 0.0
C800 C 0.22123 0.85543 0.7542 0.0
C801 C 0.16761 0.80387 0.75968 0.0
N802 N 0.22746 0.83806 0.69834 0.0
N803 N 0.18537 0.79677 0.81538 0.0
H804 H 0.12949 0.76818 0.74228 0.0
H805 H 0.13003 0.77233 0.78438 0.0
H806 H 0.20256 0.80183 0.83444 0.0
H807 H 0.17175 0.77305 0.81783 0.0
H808 H 0.25156 0.85107 0.69584 0.0
H809 H 0.22189 0.82116 0.67923 0.0
H810 H 0.25476 0.89167 0.73008 0.0
H811 H 0.25939 0.89042 0.77233 0.0
C812 C 0.1616 0.19657 0.7256 0.0
C813 C 0.19346 0.17684 0.72495 0.0
C814 C 0.20347 0.18962 0.78215 0.0
C815 C 0.16891 0.20436 0.7836 0.0
N816 N 0.12724 0.23997 0.75439 0.0
N817 N 0.25133 0.16997 0.74747 0.0
C818 C 0.1521 0.21396 0.75439 0.0
C819 C 0.21656 0.17806 0.75177 0.0
N820 N 0.13926 0.19722 0.69976 0.0
N821 N 0.22372 0.18652 0.80922 0.0
H822 H 0.26114 0.16368 0.72473 0.0
H823 H 0.27062 0.173 0.76518 0.0
H824 H 0.21879 0.20079 0.83014 0.0
H825 H 0.24623 0.17073 0.81038 0.0
H826 H 0.11364 0.2073 0.70095 0.0
H827 H 0.14544 0.18629 0.67756 0.0
H828 H 0.11601 0.25014 0.73341 0.0
H829 H 0.12149 0.25404 0.77529 0.0
C830 C 0.82935 0.18523 0.77697 0.0
C831 C 0.84388 0.1519 0.78589 0.0
C832 C 0.8607 0.14192 0.73049 0.0
C833 C 0.85377 0.1773 0.72277 0.0
N834 N 0.83305 0.2344 0.73927 0.0
N835 N 0.88602 0.10604 0.77175 0.0
C836 C 0.83837 0.19966 0.7462 0.0
C837 C 0.86343 0.13244 0.76284 0.0
N838 N 0.80645 0.20243 0.7969 0.0
N839 N 0.86582 0.11767 0.70687 0.0
H840 H 0.89231 0.10086 0.79576 0.0
H841 H 0.902 0.09284 0.75518 0.0
H842 H 0.86007 0.12395 0.6831 0.0
H843 H 0.87013 0.09097 0.71161 0.0
H844 H 0.79305 0.22526 0.79003 0.0
H845 H 0.7986 0.19236 0.81912 0.0
H846 H 0.8253 0.25281 0.75652 0.0
H847 H 0.83801 0.24467 0.71636 0.0
C848 C 0.68433 0.70127 0.74726 0.0
C849 C 0.66819 0.6795 0.72376 0.0
C850 C 0.66456 0.63176 0.76206 0.0
C851 C 0.6843 0.6513 0.78509 0.0
N852 N 0.72002 0.70306 0.79591 0.0
N853 N 0.65963 0.6201 0.70551 0.0
C854 C 0.69632 0.6858 0.77678 0.0
C855 C 0.66397 0.6434 0.73006 0.0
N856 N 0.6883 0.73636 0.74128 0.0
N857 N 0.6445 0.60332 0.77071 0.0
H858 H 0.66361 0.6278 0.68171 0.0
H859 H 0.65816 0.59296 0.70937 0.0
H860 H 0.63986 0.59641 0.79465 0.0
H861 H 0.62849 0.58997 0.75425 0.0
H862 H 0.69638 0.7544 0.75872 0.0
H863 H 0.68219 0.74712 0.71883 0.0
H864 H 0.73163 0.72694 0.78938 0.0
H865 H 0.73065 0.69203 0.81677 0.0
C866 C 0.34402 0.70427 0.76761 0.0
C867 C 0.37661 0.6904 0.77903 0.0
C868 C 0.37431 0.64338 0.73899 0.0
C869 C 0.34299 0.6585 0.72571 0.0
N870 N 0.29948 0.70503 0.72525 0.0
N871 N 0.4275 0.65164 0.76834 0.0
C872 C 0.3284 0.6897 0.73924 0.0
C873 C 0.39331 0.66196 0.76242 0.0
N874 N 0.3281 0.7313 0.78388 0.0
N875 N 0.38594 0.61022 0.73101 0.0
H876 H 0.44271 0.6573 0.7884 0.0
H877 H 0.44198 0.63701 0.75161 0.0
H878 H 0.37666 0.59429 0.71271 0.0
H879 H 0.40431 0.59648 0.74499 0.0
H880 H 0.30253 0.74006 0.7792 0.0
H881 H 0.34008 0.74425 0.80319 0.0
H882 H 0.28971 0.72967 0.73175 0.0
H883 H 0.28608 0.69386 0.7058 0.0
C884 C 0.35142 0.29961 0.74998 0.0
C885 C 0.3451 0.32208 0.72348 0.0
C886 C 0.30799 0.358 0.75828 0.0
C887 C 0.32689 0.34474 0.78522 0.0
N888 N 0.35829 0.29474 0.80777 0.0
N889 N 0.30708 0.36645 0.70031 0.0
C890 C 0.34548 0.31245 0.78167 0.0
C891 C 0.31943 0.34893 0.72671 0.0
N892 N 0.36189 0.26585 0.7443 0.0
N893 N 0.27904 0.37867 0.76332 0.0
H894 H 0.31359 0.35943 0.67682 0.0
H895 H 0.2899 0.38776 0.70173 0.0
H896 H 0.27119 0.38561 0.78653 0.0
H897 H 0.26181 0.38654 0.74509 0.0
H898 H 0.36431 0.24678 0.76226 0.0
H899 H 0.36527 0.25685 0.72076 0.0
H900 H 0.37522 0.27316 0.80592 0.0
H901 H 0.35176 0.30133 0.83129 0.0
C902 C 0.68986 0.32877 0.73653 0.0
C903 C 0.7057 0.36275 0.73583 0.0
C904 C 0.69371 0.37111 0.79283 0.0
C905 C 0.67328 0.33975 0.79284 0.0
N906 N 0.66191 0.28316 0.76904 0.0
N907 N 0.74031 0.40355 0.76644 0.0
C908 C 0.67448 0.31671 0.76591 0.0
C909 C 0.7137 0.37946 0.76525 0.0
N910 N 0.68956 0.30825 0.70953 0.0
N911 N 0.69196 0.39445 0.81777 0.0
H912 H 0.75594 0.40831 0.74623 0.0
H913 H 0.74923 0.41484 0.78782 0.0
H914 H 0.67611 0.39043 0.83779 0.0
H915 H 0.70366 0.41934 0.8171 0.0
H916 H 0.67368 0.28604 0.70678 0.0
H917 H 0.70655 0.31277 0.69022 0.0
H918 H 0.6638 0.26387 0.75131 0.0
H919 H 0.65206 0.27384 0.79088 0.0
C920 C 0.31675 0.37875 0.25846 0.0
C921 C 0.3239 0.35883 0.23045 0.0
C922 C 0.34749 0.31217 0.26528 0.0
C923 C 0.34992 0.3366 0.2911 0.0
N924 N 0.33716 0.39487 0.31127 0.0
N925 N 0.34488 0.3045 0.20719 0.0
C926 C 0.33393 0.37016 0.28768 0.0
C927 C 0.33827 0.32449 0.23381 0.0
N928 N 0.29356 0.4061 0.25684 0.0
N929 N 0.35342 0.27732 0.27112 0.0
H930 H 0.33788 0.31262 0.18403 0.0
H931 H 0.35868 0.28074 0.20809 0.0
H932 H 0.35895 0.26824 0.29432 0.0
H933 H 0.34962 0.2577 0.2539 0.0
H934 H 0.28532 0.42029 0.277 0.0
H935 H 0.27953 0.41106 0.23572 0.0
H936 H 0.3498 0.38955 0.33289 0.0
H937 H 0.3298 0.42115 0.30816 0.0
C938 C 0.65479 0.31444 0.26077 0.0
C939 C 0.67166 0.3249 0.23181 0.0
C940 C 0.71719 0.35368 0.26432 0.0
C941 C 0.69397 0.35297 0.29103 0.0
N942 N 0.63998 0.33058 0.31513 0.0
N943 N 0.72468 0.34835 0.20673 0.0
C944 C 0.66299 0.332 0.28978 0.0
C945 C 0.70498 0.34218 0.23368 0.0
N946 N 0.63065 0.28779 0.26026 0.0
N947 N 0.75137 0.36384 0.26885 0.0
H948 H 0.7208 0.33512 0.1851 0.0
H949 H 0.7457 0.36612 0.20624 0.0
H950 H 0.7607 0.37023 0.29172 0.0
H951 H 0.77085 0.36206 0.25119 0.0
H952 H 0.61977 0.27684 0.28105 0.0
H953 H 0.62495 0.27427 0.23908 0.0
H954 H 0.61486 0.31942 0.31342 0.0
H955 H 0.64477 0.34226 0.33731 0.0
C956 C 0.66347 0.70125 0.22395 0.0
C957 C 0.6946 0.68073 0.22421 0.0
C958 C 0.70262 0.69207 0.28183 0.0
C959 C 0.66781 0.70643 0.28265 0.0
N960 N 0.62622 0.74207 0.25324 0.0
N961 N 0.75131 0.67209 0.24821 0.0
C962 C 0.65185 0.71678 0.25312 0.0
C963 C 0.71666 0.68096 0.25165 0.0
N964 N 0.64484 0.70526 0.19603 0.0
N965 N 0.72208 0.68866 0.30935 0.0
H966 H 0.76151 0.66581 0.22564 0.0
H967 H 0.77014 0.67437 0.2664 0.0
H968 H 0.71659 0.70271 0.33028 0.0
H969 H 0.74465 0.67301 0.31092 0.0
H970 H 0.61977 0.71654 0.19487 0.0
H971 H 0.65464 0.69672 0.17392 0.0
H972 H 0.61498 0.75262 0.23246 0.0
H973 H 0.6194 0.75521 0.27438 0.0
C974 C 0.326 0.69025 0.273 0.0
C975 C 0.33874 0.65613 0.28159 0.0
C976 C 0.35479 0.64569 0.22606 0.0
C977 C 0.34962 0.6814 0.2186 0.0
N978 N 0.33231 0.73944 0.23563 0.0
N979 N 0.37868 0.60847 0.26699 0.0
C980 C 0.33565 0.70439 0.24229 0.0
C981 C 0.35724 0.6359 0.25833 0.0
N982 N 0.30425 0.70852 0.29319 0.0
N983 N 0.35902 0.62148 0.20226 0.0
H984 H 0.38488 0.60288 0.29092 0.0
H985 H 0.394 0.59469 0.2503 0.0
H986 H 0.35368 0.62827 0.17854 0.0
H987 H 0.36246 0.59461 0.20674 0.0
H988 H 0.29216 0.73215 0.2866 0.0
H989 H 0.29603 0.69868 0.3154 0.0
H990 H 0.3257 0.75811 0.25304 0.0
H991 H 0.33779 0.74961 0.21277 0.0
C992 C 0.18184 0.37273 0.11619 0.0
C993 C 0.20502 0.37609 0.14299 0.0
C994 C 0.17132 0.33013 0.17167 0.0
C995 C 0.15088 0.32377 0.14342 0.0
N996 N 0.12763 0.34835 0.09406 0.0
N997 N 0.22073 0.36049 0.19727 0.0
C998 C 0.15322 0.34801 0.11728 0.0
C999 C 0.19894 0.35592 0.17129 0.0
N1000 N 0.18832 0.392 0.08897 0.0
N1001 N 0.16315 0.31209 0.19922 0.0
H1002 H 0.23962 0.38048 0.19825 0.0
H1003 H 0.22096 0.34433 0.21752 0.0
H1004 H 0.14188 0.29465 0.20031 0.0
H1005 H 0.17503 0.31621 0.22149 0.0
H1006 H 0.1759 0.38747 0.06696 0.0
H1007 H 0.20769 0.41155 0.08796 0.0
H1008 H 0.12606 0.36736 0.076 0.0
H1009 H 0.10563 0.33194 0.09458 0.0
C1010 C 0.66936 0.19624 0.17429 0.0
C1011 C 0.64948 0.20314 0.14578 0.0
C1012 C 0.68028 0.15386 0.11899 0.0
C1013 C 0.70267 0.14985 0.14624 0.0
N1014 N 0.70866 0.15661 0.20335 0.0
N1015 N 0.62542 0.17734 0.09731 0.0
C1016 C 0.69402 0.16772 0.17508 0.0
C1017 C 0.6515 0.17844 0.12001 0.0
N1018 N 0.66482 0.21731 0.20061 0.0
N1019 N 0.68676 0.13438 0.09199 0.0
H1020 H 0.60297 0.19314 0.09844 0.0
H1021 H 0.62398 0.15816 0.07942 0.0
H1022 H 0.7056 0.11428 0.09156 0.0
H1023 H 0.67459 0.13908 0.06988 0.0
H1024 H 0.6815 0.2171 0.22058 0.0
H1025 H 0.64442 0.2357 0.20191 0.0
H1026 H 0.70132 0.16621 0.22587 0.0
H1027 H 0.72582 0.13512 0.20429 0.0
C1028 C 0.83384 0.66577 0.17344 0.0
C1029 C 0.82235 0.65156 0.14365 0.0
C1030 C 0.87218 0.68131 0.11723 0.0
C1031 C 0.87639 0.70348 0.1446 0.0
N1032 N 0.86517 0.71275 0.20108 0.0
N1033 N 0.83251 0.64373 0.08681 0.0
C1034 C 0.85849 0.69429 0.17352 0.0
C1035 C 0.84223 0.65858 0.11543 0.0
N1036 N 0.82203 0.6513 0.20153 0.0
N1037 N 0.89746 0.68028 0.09384 0.0
H1038 H 0.81244 0.62495 0.08508 0.0
H1039 H 0.84329 0.65138 0.06477 0.0
H1040 H 0.92099 0.69438 0.09525 0.0
H1041 H 0.89695 0.66226 0.07488 0.0
H1042 H 0.83161 0.65839 0.22415 0.0
H1043 H 0.80511 0.62959 0.20185 0.0
H1044 H 0.85012 0.71027 0.22197 0.0
H1045 H 0.88539 0.7314 0.20255 0.0
C1046 C 0.33409 0.86088 0.10785 0.0
C1047 C 0.32039 0.87335 0.13767 0.0
C1048 C 0.35954 0.83211 0.16692 0.0
C1049 C 0.37214 0.81874 0.13707 0.0
N1050 N 0.37616 0.82394 0.07934 0.0
N1051 N 0.32329 0.87503 0.19549 0.0
C1052 C 0.36126 0.83468 0.10766 0.0
C1053 C 0.33442 0.86033 0.16719 0.0
N1054 N 0.31901 0.87191 0.07964 0.0
N1055 N 0.3709 0.81686 0.19497 0.0
H1056 H 0.30437 0.89499 0.19619 0.0
H1057 H 0.33391 0.86926 0.218 0.0
H1058 H 0.39076 0.79774 0.19557 0.0
H1059 H 0.36031 0.82213 0.21758 0.0
H1060 H 0.32416 0.86079 0.05722 0.0
H1061 H 0.29947 0.89115 0.07873 0.0
H1062 H 0.37302 0.83708 0.0575 0.0
H1063 H 0.39361 0.80284 0.07798 0.0
C1064 C 0.16349 0.6944 0.34779 0.0
C1065 C 0.15864 0.71411 0.37657 0.0
C1066 C 0.2007 0.67504 0.40444 0.0
C1067 C 0.20935 0.65854 0.37476 0.0
N1068 N 0.19996 0.65294 0.31766 0.0
N1069 N 0.17698 0.72647 0.43112 0.0
C1070 C 0.19078 0.6682 0.34628 0.0
C1071 C 0.17819 0.7051 0.40465 0.0
N1072 N 0.14211 0.70092 0.3219 0.0
N1073 N 0.21412 0.66214 0.43262 0.0
H1074 H 0.16108 0.74878 0.43238 0.0
H1075 H 0.19391 0.72387 0.45078 0.0
H1076 H 0.23105 0.64063 0.43347 0.0
H1077 H 0.20573 0.67046 0.45529 0.0
H1078 H 0.14198 0.68568 0.30106 0.0
H1079 H 0.12249 0.72027 0.32221 0.0
H1080 H 0.19066 0.66143 0.29535 0.0
H1081 H 0.21838 0.63252 0.31617 0.0
C1082 C 0.36971 0.18418 0.401 0.0
C1083 C 0.37773 0.20328 0.37247 0.0
C1084 C 0.33961 0.16305 0.3416 0.0
C1085 C 0.32915 0.14667 0.37078 0.0
N1086 N 0.35042 0.1282 0.4227 0.0
N1087 N 0.37973 0.20391 0.31457 0.0
C1088 C 0.3494 0.1528 0.39881 0.0
C1089 C 0.36574 0.19032 0.34227 0.0
N1090 N 0.37911 0.19709 0.43044 0.0
N1091 N 0.32482 0.15186 0.31344 0.0
H1092 H 0.39968 0.22294 0.31487 0.0
H1093 H 0.37369 0.19484 0.29157 0.0
H1094 H 0.30808 0.12996 0.31268 0.0
H1095 H 0.32891 0.16389 0.29122 0.0
H1096 H 0.37083 0.18563 0.45202 0.0
H1097 H 0.39218 0.22102 0.43321 0.0
H1098 H 0.36707 0.13035 0.44264 0.0
H1099 H 0.33765 0.10394 0.42055 0.0
C1100 C 0.86215 0.33595 0.34763 0.0
C1101 C 0.87361 0.321 0.37729 0.0
C1102 C 0.83985 0.36612 0.40658 0.0
C1103 C 0.8226 0.37585 0.37771 0.0
N1104 N 0.82255 0.37695 0.32007 0.0
N1105 N 0.86854 0.3189 0.43529 0.0
C1106 C 0.83549 0.36281 0.3479 0.0
C1107 C 0.86173 0.33569 0.40689 0.0
N1108 N 0.87674 0.32423 0.31946 0.0
N1109 N 0.83577 0.3861 0.43362 0.0
H1110 H 0.88197 0.29504 0.43638 0.0
H1111 H 0.85748 0.32658 0.4572 0.0
H1112 H 0.82082 0.4092 0.43382 0.0
H1113 H 0.85025 0.38182 0.45465 0.0
H1114 H 0.87066 0.33416 0.29678 0.0
H1115 H 0.89665 0.30518 0.31891 0.0
H1116 H 0.82839 0.36783 0.29707 0.0
H1117 H 0.8059 0.39889 0.32037 0.0
C1118 C 0.65127 0.84657 0.39731 0.0
C1119 C 0.6503 0.82193 0.37143 0.0
C1120 C 0.69822 0.85524 0.34465 0.0
C1121 C 0.70439 0.8748 0.37337 0.0
N1122 N 0.68392 0.89136 0.42657 0.0
N1123 N 0.66934 0.80601 0.31803 0.0
C1124 C 0.67961 0.87173 0.39926 0.0
C1125 C 0.67258 0.82757 0.34427 0.0
N1126 N 0.6251 0.84629 0.42002 0.0
N1127 N 0.71623 0.86411 0.31727 0.0
H1128 H 0.64821 0.78862 0.31525 0.0
H1129 H 0.68779 0.80463 0.29947 0.0
H1130 H 0.73405 0.885 0.31656 0.0
H1131 H 0.71125 0.85336 0.29466 0.0
H1132 H 0.62183 0.86595 0.43725 0.0
H1133 H 0.60443 0.82825 0.42014 0.0
H1134 H 0.67088 0.88616 0.44814 0.0
H1135 H 0.7017 0.91209 0.42858 0.0
C1136 C 0.83841 0.65774 0.90143 0.0
C1137 C 0.81892 0.65029 0.87295 0.0
C1138 C 0.85684 0.6925 0.84395 0.0
C1139 C 0.86939 0.70566 0.87375 0.0
N1140 N 0.86541 0.70457 0.93176 0.0
N1141 N 0.81059 0.66064 0.81602 0.0
C1142 C 0.85878 0.68905 0.90277 0.0
C1143 C 0.82859 0.66761 0.84379 0.0
N1144 N 0.83773 0.63551 0.9273 0.0
N1145 N 0.87234 0.70334 0.81594 0.0
H1146 H 0.79152 0.64094 0.8146 0.0
H1147 H 0.8135 0.67544 0.79502 0.0
H1148 H 0.89373 0.72075 0.81569 0.0
H1149 H 0.86632 0.69257 0.79351 0.0
H1150 H 0.85396 0.63915 0.94736 0.0
H1151 H 0.82415 0.61169 0.92759 0.0
H1152 H 0.85516 0.69507 0.95343 0.0
H1153 H 0.8774 0.72913 0.93357 0.0
C1154 C 0.36168 0.82753 0.9078 0.0
C1155 C 0.37889 0.81815 0.87855 0.0
C1156 C 0.34041 0.85943 0.84889 0.0
C1157 C 0.32296 0.86855 0.87805 0.0
N1158 N 0.32079 0.86619 0.93598 0.0
N1159 N 0.39091 0.8314 0.82311 0.0
C1160 C 0.33517 0.85443 0.90777 0.0
C1161 C 0.37022 0.83626 0.84969 0.0
N1162 N 0.36904 0.80909 0.93529 0.0
N1163 N 0.3275 0.87178 0.82027 0.0
H1164 H 0.41338 0.81547 0.82373 0.0
H1165 H 0.38807 0.84563 0.8018 0.0
H1166 H 0.30639 0.88942 0.819 0.0
H1167 H 0.3362 0.86307 0.79784 0.0
H1168 H 0.35452 0.81113 0.9565 0.0
H1169 H 0.38883 0.79011 0.9364 0.0
H1170 H 0.33093 0.8602 0.95865 0.0
H1171 H 0.29992 0.88406 0.93665 0.0
C1172 C 0.16007 0.33892 0.90235 0.0
C1173 C 0.15276 0.3185 0.87441 0.0
C1174 C 0.19413 0.35607 0.8439 0.0
C1175 C 0.20736 0.37032 0.87307 0.0
N1176 N 0.20269 0.37527 0.93088 0.0
N1177 N 0.16118 0.30936 0.81751 0.0
C1178 C 0.18981 0.3623 0.9025 0.0
C1179 C 0.16917 0.32785 0.84478 0.0
N1180 N 0.13862 0.33617 0.92866 0.0
N1181 N 0.20472 0.3705 0.81537 0.0
H1182 H 0.14106 0.29058 0.81689 0.0
H1183 H 0.17525 0.3117 0.79604 0.0
H1184 H 0.22072 0.3929 0.81468 0.0
H1185 H 0.19451 0.36319 0.79304 0.0
H1186 H 0.14072 0.35255 0.94871 0.0
H1187 H 0.11649 0.31981 0.92913 0.0
H1188 H 0.19392 0.36679 0.95338 0.0
H1189 H 0.22367 0.39302 0.93202 0.0
C1190 C 0.67155 0.19001 0.90355 0.0
C1191 C 0.66097 0.20647 0.8744 0.0
C1192 C 0.7036 0.16966 0.84495 0.0
C1193 C 0.71311 0.15239 0.87418 0.0
N1194 N 0.69511 0.13779 0.92874 0.0
N1195 N 0.65985 0.20493 0.81657 0.0
C1196 C 0.69328 0.15951 0.90254 0.0
C1197 C 0.67483 0.19403 0.84478 0.0
N1198 N 0.66354 0.20508 0.93245 0.0
N1199 N 0.72211 0.16294 0.8174 0.0
H1200 H 0.63767 0.22126 0.81625 0.0
H1201 H 0.6668 0.19493 0.79408 0.0
H1202 H 0.74147 0.14346 0.81608 0.0
H1203 H 0.71936 0.17775 0.79638 0.0
H1204 H 0.67377 0.1961 0.95432 0.0
H1205 H 0.65025 0.22896 0.93411 0.0
H1206 H 0.67852 0.14067 0.94863 0.0
H1207 H 0.71044 0.11505 0.92964 0.0
C1208 C 0.82755 0.35633 0.67351 0.0
C1209 C 0.82089 0.3764 0.64508 0.0
C1210 C 0.86429 0.34023 0.61591 0.0
C1211 C 0.87053 0.31962 0.64401 0.0
N1212 N 0.86518 0.31413 0.70155 0.0
N1213 N 0.84415 0.39594 0.59394 0.0
C1214 C 0.85439 0.32971 0.6735 0.0
C1215 C 0.84309 0.37132 0.6179 0.0
N1216 N 0.80774 0.36249 0.70045 0.0
N1217 N 0.87604 0.32873 0.58666 0.0
H1218 H 0.82991 0.4194 0.59488 0.0
H1219 H 0.86213 0.3948 0.57493 0.0
H1220 H 0.88954 0.30505 0.58383 0.0
H1221 H 0.86904 0.34069 0.56495 0.0
H1222 H 0.80761 0.34605 0.72056 0.0
H1223 H 0.79045 0.38384 0.7022 0.0
H1224 H 0.85679 0.32212 0.72429 0.0
H1225 H 0.88509 0.29507 0.70224 0.0
C1226 C 0.6982 0.85359 0.67312 0.0
C1227 C 0.70478 0.87441 0.64531 0.0
C1228 C 0.65471 0.84542 0.61778 0.0
C1229 C 0.65225 0.82045 0.64343 0.0
N1230 N 0.66091 0.81035 0.69995 0.0
N1231 N 0.68964 0.89058 0.59098 0.0
C1232 C 0.671 0.82738 0.67246 0.0
C1233 C 0.68271 0.87082 0.61781 0.0
N1234 N 0.7191 0.85791 0.69971 0.0
N1235 N 0.62949 0.8463 0.59423 0.0
H1236 H 0.70837 0.91077 0.59078 0.0
H1237 H 0.67837 0.88572 0.56852 0.0
H1238 H 0.60751 0.82989 0.59397 0.0
H1239 H 0.62805 0.86595 0.57675 0.0
H1240 H 0.71929 0.84075 0.7193 0.0
H1241 H 0.73741 0.87837 0.70165 0.0
H1242 H 0.67086 0.81597 0.72275 0.0
H1243 H 0.63969 0.79279 0.7003 0.0
C1244 C 0.15095 0.6801 0.61392 0.0
C1245 C 0.14659 0.70241 0.64098 0.0
C1246 C 0.1915 0.66737 0.66991 0.0
C1247 C 0.2015 0.65116 0.64044 0.0
N1248 N 0.19301 0.64643 0.58288 0.0
N1249 N 0.1597 0.71476 0.69655 0.0
C1250 C 0.1814 0.65806 0.61211 0.0
C1251 C 0.16576 0.6949 0.66968 0.0
N1252 N 0.12629 0.67987 0.58996 0.0
N1253 N 0.20657 0.65624 0.69808 0.0
H1254 H 0.13888 0.73274 0.69776 0.0
H1255 H 0.17562 0.71424 0.71702 0.0
H1256 H 0.22526 0.63602 0.69887 0.0
H1257 H 0.19854 0.66473 0.72077 0.0
H1258 H 0.12698 0.66204 0.57086 0.0
H1259 H 0.10309 0.69461 0.59118 0.0
H1260 H 0.18127 0.65375 0.56115 0.0
H1261 H 0.21668 0.63285 0.58012 0.0
C1262 C 0.36498 0.18719 0.66747 0.0
C1263 C 0.37564 0.20229 0.63779 0.0
C1264 C 0.34158 0.15707 0.60921 0.0
C1265 C 0.32349 0.149 0.63818 0.0
N1266 N 0.32257 0.1504 0.69601 0.0
N1267 N 0.3745 0.20122 0.57967 0.0
C1268 C 0.33683 0.16212 0.66778 0.0
C1269 C 0.36461 0.1867 0.60839 0.0
N1270 N 0.38239 0.19636 0.69504 0.0
N1271 N 0.33765 0.136 0.58285 0.0
H1272 H 0.39156 0.22271 0.57813 0.0
H1273 H 0.3639 0.19336 0.55762 0.0
H1274 H 0.32213 0.1133 0.58317 0.0
H1275 H 0.3526 0.13902 0.56194 0.0
H1276 H 0.37782 0.18472 0.71737 0.0
H1277 H 0.40375 0.21381 0.69485 0.0
H1278 H 0.32825 0.16133 0.71843 0.0
H1279 H 0.30434 0.12974 0.69666 0.0
C1280 C 0.18517 0.06553 0.11442 0.0
C1281 C 0.16982 0.03853 0.13373 0.0
C1282 C 0.12258 0.08005 0.1477 0.0
C1283 C 0.1421 0.10881 0.13493 0.0
N1284 N 0.19806 0.12777 0.11169 0.0
N1285 N 0.12891 0.02656 0.17788 0.0
C1286 C 0.17507 0.10138 0.11956 0.0
C1287 C 0.13977 0.04737 0.15287 0.0
N1288 N 0.20884 0.05724 0.09079 0.0
N1289 N 0.08752 0.08352 0.15478 0.0
H1290 H 0.14336 1.00528 0.18666 0.0
H1291 H 0.10831 0.03393 0.19319 0.0
H1292 H 0.07317 0.10607 0.1489 0.0
H1293 H 0.07207 0.06227 0.16233 0.0
H1294 H 0.21859 0.07597 0.07465 0.0
H1295 H 0.21518 0.0313 0.08477 0.0
H1296 H 0.22346 0.12272 0.10306 0.0
H1297 H 0.19392 0.15417 0.11728 0.0
C1298 C 0.97781 0.14601 0.16416 0.0
C1299 C 0.98978 0.16801 0.13849 0.0
C1300 C 0.93377 0.15619 0.10967 0.0
C1301 C 0.92265 0.13304 0.13481 0.0
N1302 N 0.93927 0.09974 0.18272 0.0
N1303 N 0.98184 0.1883 0.08395 0.0
C1304 C 0.94649 0.12553 0.16059 0.0
C1305 C 0.96843 0.17155 0.11044 0.0
N1306 N 0.99449 0.14674 0.19343 0.0
N1307 N 0.91113 0.16346 0.08485 0.0
H1308 H 1.00699 0.19951 0.08352 0.0
H1309 H 0.96943 0.18856 0.06156 0.0
H1310 H 0.8873 0.15007 0.08156 0.0
H1311 H 0.91532 0.18356 0.06818 0.0
H1312 H 0.98448 0.13476 0.21408 0.0
H1313 H 0.01612 0.16251 0.19865 0.0
H1314 H 0.95843 0.0897 0.19829 0.0
H1315 H 0.91553 0.08627 0.18473 0.0
C1316 C 0.83842 0.91944 0.1274 0.0
C1317 C 0.87541 0.91584 0.12131 0.0
C1318 C 0.88014 0.98053 0.1165 0.0
C1319 C 0.84365 0.98421 0.1243 0.0
N1320 N 0.78619 0.95661 0.1271 0.0
N1321 N 0.92848 0.94184 0.10066 0.0
C1322 C 0.82219 0.9535 0.12628 0.0
C1323 C 0.89534 0.94619 0.11306 0.0
N1324 N 0.81896 0.89074 0.13645 0.0
N1325 N 0.9003 1.01006 0.11232 0.0
H1326 H 0.93884 0.91686 0.09625 0.0
H1327 H 0.94401 0.96227 0.0917 0.0
H1328 H 0.88926 0.03517 0.11068 0.0
H1329 H 0.92778 1.00983 0.11103 0.0
H1330 H 0.79376 0.89253 0.14642 0.0
H1331 H 0.82846 0.86506 0.13577 0.0
H1332 H 0.7691 0.93525 0.1246 0.0
H1333 H 0.77303 0.98069 0.12746 0.0
C1334 C 0.07829 0.90418 0.12137 0.0
C1335 C 0.10754 0.88151 0.12751 0.0
C1336 C 0.06892 0.83019 0.1187 0.0
C1337 C 0.03879 0.85248 0.11935 0.0
N1338 N 0.01734 0.9093 0.10332 0.0
N1339 N 0.12967 0.82207 0.13478 0.0
C1340 C 0.04411 0.88932 0.11567 0.0
C1341 C 0.10269 0.84428 0.1265 0.0
N1342 N 0.08309 0.93988 0.12122 0.0
N1343 N 0.06593 0.79631 0.1079 0.0
H1344 H 0.15489 0.83073 0.14086 0.0
H1345 H 0.12604 0.79511 0.13845 0.0
H1346 H 0.04286 0.78684 0.0972 0.0
H1347 H 0.08758 0.77968 0.10463 0.0
H1348 H 0.06242 0.95801 0.12117 0.0
H1349 H 0.10799 0.95155 0.12237 0.0
H1350 H 0.0194 0.93602 0.09796 0.0
H1351 H 0.99462 0.89757 0.09402 0.0
C1352 C 0.1366 0.98557 0.36332 0.0
C1353 C 0.16858 0.99403 0.37982 0.0
C1354 C 0.17093 0.93292 0.39963 0.0
C1355 C 0.13714 0.92581 0.38565 0.0
N1356 N 0.08281 0.95144 0.36593 0.0
N1357 N 0.20788 0.97792 0.42347 0.0
C1358 C 0.11824 0.95429 0.37167 0.0
C1359 C 0.1831 0.96845 0.40117 0.0
N1360 N 0.12486 1.00519 0.33783 0.0
N1361 N 0.19278 0.90636 0.40955 0.0
H1362 H 0.21569 1.00398 0.42701 0.0
H1363 H 0.21706 0.96056 0.44111 0.0
H1364 H 0.18691 0.8797 0.40761 0.0
H1365 H 0.21881 0.91097 0.41674 0.0
H1366 H 0.10284 0.99792 0.32422 0.0
H1367 H 0.13946 0.02529 0.32715 0.0
H1368 H 0.06764 0.97259 0.35767 0.0
H1369 H 0.06818 0.92953 0.37326 0.0
C1370 C 0.05298 0.14519 0.37091 0.0
C1371 C 0.04434 0.1776 0.38641 0.0
C1372 C 0.10674 0.18199 0.40343 0.0
C1373 C 0.11357 0.1476 0.39085 0.0
N1374 N 0.08718 0.09197 0.37604 0.0
N1375 N 0.06223 0.22063 0.42631 0.0
C1376 C 0.08451 0.12765 0.37947 0.0
C1377 C 0.07093 0.19414 0.40552 0.0
N1378 N 0.03336 0.13235 0.34586 0.0
N1379 N 0.13375 0.20401 0.41183 0.0
H1380 H 0.03623 0.22868 0.43021 0.0
H1381 H 0.08034 0.23144 0.44248 0.0
H1382 H 0.16031 0.19717 0.41056 0.0
H1383 H 0.12961 0.23044 0.41765 0.0
H1384 H 0.04062 0.10965 0.33328 0.0
H1385 H 1.01375 0.14684 0.33423 0.0
H1386 H 0.06575 0.07633 0.36917 0.0
H1387 H 0.10928 0.07806 0.38407 0.0
C1388 C 0.85663 0.06052 0.41678 0.0
C1389 C 0.85606 0.03898 0.38877 0.0
C1390 C 0.87694 0.08931 0.35731 0.0
C1391 C 0.88414 0.10923 0.38558 0.0
N1392 N 0.88321 0.1105 0.44398 0.0
N1393 N 0.87729 0.0319 0.33361 0.0
C1394 C 0.87442 0.09403 0.41592 0.0
C1395 C 0.87009 0.05284 0.35958 0.0
N1396 N 0.84059 0.04892 0.4443 0.0
N1397 N 0.87358 0.10547 0.32813 0.0
H1398 H 0.87527 1.00464 0.33355 0.0
H1399 H 0.88997 0.04157 0.31309 0.0
H1400 H 0.87279 0.13264 0.32598 0.0
H1401 H 0.86557 0.09221 0.30734 0.0
H1402 H 0.83678 0.06484 0.46446 0.0
H1403 H 0.82889 0.02408 0.44611 0.0
H1404 H 0.88035 0.09887 0.46657 0.0
H1405 H 0.89604 0.13461 0.44462 0.0
C1406 C 0.94642 0.89984 0.40202 0.0
C1407 C 0.91689 0.88068 0.39023 0.0
C1408 C 0.95663 0.83746 0.36613 0.0
C1409 C 0.98638 0.8544 0.38019 0.0
N1410 N 1.00859 0.89874 0.41675 0.0
N1411 N 0.89414 0.82555 0.36987 0.0
C1412 C 0.98101 0.88478 0.39976 0.0
C1413 C 0.92211 0.84747 0.37551 0.0
N1414 N 0.94144 0.93261 0.41488 0.0
N1415 N 0.96101 0.81409 0.34149 0.0
H1416 H 0.86858 0.83126 0.37755 0.0
H1417 H 0.89722 0.79991 0.36125 0.0
H1418 H 0.98554 0.80934 0.33114 0.0
H1419 H 0.93995 0.80361 0.3284 0.0
H1420 H 0.96213 0.94968 0.42043 0.0
H1421 H 0.91631 0.94331 0.41848 0.0
H1422 H 1.0056 0.91873 0.43373 0.0
H1423 H 0.03405 0.88831 0.41591 0.0
C1424 C 0.83242 0.95365 0.90699 0.0
C1425 C 0.85399 0.98349 0.90145 0.0
C1426 C 0.90634 0.94498 0.89903 0.0
C1427 C 0.88376 0.91513 0.89659 0.0
N1428 N 0.82409 0.89122 0.89905 0.0
N1429 N 0.9118 1.00736 0.91163 0.0
C1430 C 0.84654 0.91933 0.90161 0.0
C1431 C 0.89127 0.97917 0.90326 0.0
N1432 N 0.79939 0.95794 0.91967 0.0
N1433 N 0.94214 0.94066 0.89679 0.0
H1434 H 0.90079 0.03141 0.91865 0.0
H1435 H 0.93893 1.00596 0.91559 0.0
H1436 H 0.95416 0.9159 0.89666 0.0
H1437 H 0.95987 0.96144 0.89406 0.0
H1438 H 0.78337 0.93699 0.92679 0.0
H1439 H 0.79035 0.98232 0.92785 0.0
H1440 H 0.7967 0.89392 0.89796 0.0
H1441 H 0.83229 0.86542 0.89524 0.0
C1442 C 0.05025 0.87306 0.89829 0.0
C1443 C 0.04022 0.847 0.87531 0.0
C1444 C 0.09725 0.8546 0.84787 0.0
C1445 C 0.10886 0.87847 0.87216 0.0
N1446 N 0.09644 0.91052 0.92091 0.0
N1447 N 0.05844 0.80766 0.83236 0.0
C1448 C 0.0854 0.88748 0.89771 0.0
C1449 C 0.06504 0.83608 0.85163 0.0
N1450 N 0.02597 0.88425 0.92043 0.0
N1451 N 0.11589 0.85045 0.81994 0.0
H1452 H 0.03475 0.79419 0.83196 0.0
H1453 H 0.07785 0.79538 0.8185 0.0
H1454 H 0.14019 0.86181 0.81552 0.0
H1455 H 0.1055 0.83826 0.79951 0.0
H1456 H 0.02969 0.90572 0.93565 0.0
H1457 H 1.00111 0.87265 0.92284 0.0
H1458 H 0.08277 0.91533 0.94221 0.0
H1459 H 0.12018 0.92436 0.91921 0.0
C1460 C 0.17666 0.09478 0.89461 0.0
C1461 C 0.1441 0.10317 0.87888 0.0
C1462 C 0.1441 0.04414 0.85512 0.0
C1463 C 0.17375 0.03388 0.87412 0.0
N1464 N 0.20998 0.04822 0.92048 0.0
N1465 N 0.09071 0.07858 0.85571 0.0
C1466 C 0.18749 0.05875 0.89661 0.0
C1467 C 0.12574 0.07543 0.86309 0.0
N1468 N 0.19855 0.12053 0.90604 0.0
N1469 N 0.13467 0.02614 0.82794 0.0
H1470 H 0.07545 0.09978 0.86359 0.0
H1471 H 0.0762 0.05789 0.84572 0.0
H1472 H 0.15016 1.00646 0.81763 0.0
H1473 H 0.11426 0.03468 0.8129 0.0
H1474 H 0.22376 0.11498 0.91491 0.0
H1475 H 0.19379 0.14736 0.90351 0.0
H1476 H 0.21843 0.06519 0.93869 0.0
H1477 H 0.21633 0.02185 0.92456 0.0
C1478 C 0.93606 0.15365 0.91274 0.0
C1479 C 0.92686 0.12639 0.89048 0.0
C1480 C 0.98256 0.13545 0.86209 0.0
C1481 C 0.99258 0.16275 0.88379 0.0
N1482 N 0.982 0.19161 0.93479 0.0
N1483 N 0.95208 0.07997 0.85802 0.0
C1484 C 0.97016 0.17022 0.91059 0.0
C1485 C 0.95365 0.11353 0.86981 0.0
N1486 N 0.91303 0.16311 0.93652 0.0
N1487 N 0.99868 0.13155 0.83285 0.0
H1488 H 0.93311 0.06191 0.86584 0.0
H1489 H 0.97243 0.06898 0.84434 0.0
H1490 H 0.01705 0.14935 0.82371 0.0
H1491 H 0.98998 0.11328 0.8158 0.0
H1492 H 0.91507 0.1866 0.94938 0.0
H1493 H 0.89256 0.14681 0.94423 0.0
H1494 H 0.9687 0.19517 0.9565 0.0
H1495 H 1.00674 0.20361 0.93451 0.0
C1496 C 0.88283 0.04361 0.61999 0.0
C1497 C 0.84559 0.04016 0.62407 0.0
C1498 C 0.83965 0.10495 0.622 0.0
C1499 C 0.87724 0.10848 0.62051 0.0
N1500 N 0.93357 0.08182 0.60984 0.0
N1501 N 0.78792 0.0672 0.6196 0.0
C1502 C 0.89847 0.07787 0.61693 0.0
C1503 C 0.82384 0.07067 0.62172 0.0
N1504 N 0.90319 0.01387 0.61905 0.0
N1505 N 0.81894 0.13408 0.62662 0.0
H1506 H 0.77473 0.04324 0.62144 0.0
H1507 H 0.77111 0.08787 0.61341 0.0
H1508 H 0.82828 0.1598 0.62559 0.0
H1509 H 0.7925 0.13287 0.63353 0.0
H1510 H 0.93066 0.01379 0.62033 0.0
H1511 H 0.89222 0.98874 0.61713 0.0
H1512 H 0.95064 0.0611 0.60467 0.0
H1513 H 0.94518 0.10654 0.60657 0.0
C1514 C 0.93648 0.87908 0.61532 0.0
C1515 C 0.92267 0.89346 0.64429 0.0
C1516 C 0.97779 0.87792 0.67261 0.0
C1517 C 0.99061 0.86073 0.64428 0.0
N1518 N 0.98189 0.84416 0.58872 0.0
N1519 N 0.92896 0.90421 0.70137 0.0
C1520 C 0.96978 0.86105 0.61565 0.0
C1521 C 0.94322 0.89271 0.67297 0.0
N1522 N 0.91817 0.88392 0.58722 0.0
N1523 N 0.99844 0.88033 0.6996 0.0
H1524 H 0.90574 0.91869 0.70287 0.0
H1525 H 0.93931 0.89805 0.72395 0.0
H1526 H 0.02147 0.86607 0.70334 0.0
H1527 H 0.99348 0.89798 0.71828 0.0
H1528 H 0.92774 0.87718 0.56455 0.0
H1529 H 0.89421 0.89753 0.58623 0.0
H1530 H 0.9666 0.83953 0.56832 0.0
H1531 H 1.00715 0.83332 0.5871 0.0
C1532 C 0.15067 0.93585 0.61173 0.0
C1533 C 0.14815 0.91693 0.64129 0.0
C1534 C 0.16492 0.97061 0.67042 0.0
C1535 C 0.17195 0.98826 0.64099 0.0
N1536 N 0.17955 0.98384 0.58342 0.0
N1537 N 0.16781 0.91454 0.69691 0.0
C1538 C 0.16745 0.96965 0.61151 0.0
C1539 C 0.15966 0.93378 0.67011 0.0
N1540 N 0.1359 0.9227 0.58423 0.0
N1541 N 0.16316 0.9885 0.69892 0.0
H1542 H 0.16807 0.88718 0.6969 0.0
H1543 H 0.17924 0.9256 0.71744 0.0
H1544 H 0.16493 0.01574 0.70063 0.0
H1545 H 0.15541 0.97647 0.7204 0.0
H1546 H 0.1344 0.93713 0.56288 0.0
H1547 H 0.12201 0.899 0.58349 0.0
H1548 H 0.17962 0.9701 0.56167 0.0
H1549 H 0.19275 1.0079 0.58272 0.0
C1550 C 0.10019 0.1769 0.61764 0.0
C1551 C 0.10741 0.14258 0.63036 0.0
C1552 C 0.04643 0.13974 0.64994 0.0
C1553 C 0.03772 0.17193 0.63402 0.0
N1554 N 0.05554 0.21485 0.59405 0.0
N1555 N 0.08184 0.08702 0.64675 0.0
C1556 C 0.06432 0.18856 0.61509 0.0
C1557 C 0.07862 0.12255 0.64239 0.0
N1558 N 0.12692 0.19954 0.60983 0.0
N1559 N 0.02586 0.12661 0.67422 0.0
H1560 H 0.10426 0.07312 0.63946 0.0
H1561 H 0.06058 0.07118 0.65362 0.0
H1562 H 1.00488 0.1404 0.68444 0.0
H1563 H 0.03309 0.10436 0.68748 0.0
H1564 H 0.12232 0.22582 0.60369 0.0
H1565 H 0.1536 0.19378 0.61264 0.0
H1566 H 0.07366 0.22564 0.57788 0.0
H1567 H 0.02952 0.22276 0.59001 0.0
C1568 C 0.63801 0.54932 0.65192 0.0
C1569 C 0.66823 0.53966 0.63343 0.0
C1570 C 0.66339 0.59696 0.60501 0.0
C1571 C 0.63276 0.60554 0.62366 0.0
N1572 N 0.58219 0.57989 0.65014 0.0
N1573 N 0.70191 0.55052 0.58493 0.0
C1574 C 0.61707 0.57817 0.64192 0.0
C1575 C 0.67881 0.56242 0.60778 0.0
N1576 N 0.63048 0.53327 0.68061 0.0
N1577 N 0.67772 0.62102 0.58435 0.0
H1578 H 0.71201 0.52498 0.58487 0.0
H1579 H 0.70795 0.56457 0.56406 0.0
H1580 H 0.66414 0.64309 0.57607 0.0
H1581 H 0.70306 0.6184 0.57479 0.0
H1582 H 0.60965 0.54147 0.69529 0.0
H1583 H 0.64781 0.51606 0.69218 0.0
H1584 H 0.56929 0.55935 0.66207 0.0
H1585 H 0.5656 0.59967 0.64127 0.0
C1586 C 0.44322 0.6262 0.61688 0.0
C1587 C 0.41309 0.6451 0.62778 0.0
C1588 C 0.45208 0.69271 0.64653 0.0
C1589 C 0.48221 0.67566 0.63309 0.0
N1590 N 0.50449 0.62866 0.59941 0.0
N1591 N 0.38886 0.7013 0.64389 0.0
C1592 C 0.47719 0.64307 0.61646 0.0
C1593 C 0.41754 0.68001 0.63941 0.0
N1594 N 0.43951 0.59197 0.60726 0.0
N1595 N 0.45619 0.71916 0.6685 0.0
H1596 H 0.36334 0.69379 0.63752 0.0
H1597 H 0.39107 0.72788 0.64997 0.0
H1598 H 0.48078 0.72679 0.67721 0.0
H1599 H 0.43515 0.73001 0.68134 0.0
H1600 H 0.46088 0.57537 0.60269 0.0
H1601 H 0.41491 0.5796 0.60564 0.0
H1602 H 0.50159 0.60689 0.58435 0.0
H1603 H 0.52931 0.64042 0.59785 0.0
C1604 C 0.38269 0.47734 0.64733 0.0
C1605 C 0.35107 0.48552 0.63006 0.0
C1606 C 0.34753 0.42289 0.61451 0.0
C1607 C 0.38155 0.41641 0.62829 0.0
N1608 N 0.43629 0.44304 0.64583 0.0
N1609 N 0.31014 0.46647 0.58871 0.0
C1610 C 0.40078 0.44557 0.64045 0.0
C1611 C 0.33558 0.45847 0.61089 0.0
N1612 N 0.3942 0.4977 0.67239 0.0
N1613 N 0.32542 0.39578 0.60662 0.0
H1614 H 0.30235 0.49228 0.58371 0.0
H1615 H 0.30016 0.44788 0.57259 0.0
H1616 H 0.33144 0.36933 0.61027 0.0
H1617 H 0.29929 0.39991 0.59953 0.0
H1618 H 0.41615 0.49081 0.68628 0.0
H1619 H 0.37919 0.51771 0.68273 0.0
H1620 H 0.4515 0.46463 0.65298 0.0
H1621 H 0.45087 0.42086 0.63914 0.0
C1622 C 0.58252 0.39246 0.6187 0.0
C1623 C 0.60647 0.38454 0.64419 0.0
C1624 C 0.56338 0.34266 0.66649 0.0
C1625 C 0.53778 0.35312 0.64329 0.0
N1626 N 0.52201 0.39003 0.59827 0.0
N1627 N 0.61538 0.35726 0.69654 0.0
C1628 C 0.54708 0.37873 0.61965 0.0
C1629 C 0.59562 0.36124 0.6692 0.0
N1630 N 0.59356 0.4132 0.59371 0.0
N1631 N 0.55759 0.31433 0.68605 0.0
H1632 H 0.63995 0.36845 0.69986 0.0
H1633 H 0.60593 0.34517 0.7174 0.0
H1634 H 0.53406 0.30068 0.68664 0.0
H1635 H 0.57741 0.30231 0.69964 0.0
H1636 H 0.57893 0.41721 0.57278 0.0
H1637 H 0.61853 0.42487 0.59306 0.0
H1638 H 0.52561 0.4112 0.58265 0.0
H1639 H 0.49663 0.37929 0.59734 0.0
C1640 C 0.62307 0.4465 0.897 0.0
C1641 C 0.64453 0.41566 0.89587 0.0
C1642 C 0.69708 0.4528 0.90626 0.0
C1643 C 0.67635 0.48325 0.90082 0.0
N1644 N 0.61916 0.50842 0.91119 0.0
N1645 N 0.70358 0.39011 0.89841 0.0
C1646 C 0.63905 0.47995 0.90231 0.0
C1647 C 0.6819 0.41883 0.90108 0.0
N1648 N 0.58749 0.44418 0.89185 0.0
N1649 N 0.73036 0.45619 0.91867 0.0
H1650 H 0.69477 0.36465 0.89392 0.0
H1651 H 0.73104 0.39201 0.89754 0.0
H1652 H 0.74022 0.48035 0.92657 0.0
H1653 H 0.74582 0.43485 0.92586 0.0
H1654 H 0.57129 0.46603 0.88818 0.0
H1655 H 0.57443 0.42027 0.88917 0.0
H1656 H 0.59206 0.50725 0.91546 0.0
H1657 H 0.63068 0.53211 0.91853 0.0
C1658 C 0.5634 0.67068 0.91102 0.0
C1659 C 0.54185 0.66493 0.88333 0.0
C1660 C 0.5792 0.61483 0.86919 0.0
C1661 C 0.6058 0.62633 0.89063 0.0
N1662 N 0.61961 0.66086 0.93804 0.0
N1663 N 0.53643 0.63571 0.83132 0.0
C1664 C 0.59693 0.65308 0.91347 0.0
C1665 C 0.55162 0.63806 0.86113 0.0
N1666 N 0.55112 0.69122 0.93564 0.0
N1667 N 0.5798 0.58149 0.85684 0.0
H1668 H 0.51909 0.65454 0.82217 0.0
H1669 H 0.54501 0.61759 0.81409 0.0
H1670 H 0.59783 0.56255 0.86484 0.0
H1671 H 0.55951 0.57166 0.84235 0.0
H1672 H 0.56397 0.69386 0.95769 0.0
H1673 H 0.52636 0.70327 0.9352 0.0
H1674 H 0.61761 0.68361 0.95198 0.0
H1675 H 0.63984 0.64389 0.94513 0.0
C1676 C 0.36215 0.5943 0.84859 0.0
C1677 C 0.38783 0.60489 0.87171 0.0
C1678 C 0.38621 0.54408 0.89437 0.0
C1679 C 0.35951 0.53417 0.87176 0.0
N1680 N 0.31806 0.55316 0.83075 0.0
N1681 N 0.42229 0.59065 0.91863 0.0
C1682 C 0.34645 0.56025 0.84999 0.0
C1683 C 0.39919 0.57993 0.89526 0.0
N1684 N 0.35282 0.6167 0.82434 0.0
N1685 N 0.39904 0.51915 0.9151 0.0
H1686 H 0.43312 0.61594 0.91913 0.0
H1687 H 0.42946 0.57543 0.93844 0.0
H1688 H 0.38825 0.49391 0.91681 0.0
H1689 H 0.42095 0.5228 0.92987 0.0
H1690 H 0.34042 0.60871 0.80313 0.0
H1691 H 0.35865 0.64321 0.82489 0.0
H1692 H 0.30339 0.57247 0.81887 0.0
H1693 H 0.30741 0.52835 0.82802 0.0
C1694 C 0.45027 0.39666 0.89464 0.0
C1695 C 0.42122 0.37368 0.88883 0.0
C1696 C 0.46078 0.32283 0.89655 0.0
C1697 C 0.49037 0.34567 0.89462 0.0
N1698 N 0.51129 0.40199 0.91231 0.0
N1699 N 0.39909 0.31384 0.88437 0.0
C1700 C 0.48466 0.38217 0.89956 0.0
C1701 C 0.42639 0.33646 0.89043 0.0
N1702 N 0.44509 0.4323 0.89505 0.0
N1703 N 0.46506 0.28897 0.90708 0.0
H1704 H 0.37312 0.32197 0.8809 0.0
H1705 H 0.40273 0.28692 0.88058 0.0
H1706 H 0.48892 0.27989 0.91658 0.0
H1707 H 0.44402 0.27186 0.91134 0.0
H1708 H 0.46564 0.45058 0.89502 0.0
H1709 H 0.42 0.44363 0.89425 0.0
H1710 H 0.50862 0.42835 0.91886 0.0
H1711 H 0.53463 0.39032 0.92052 0.0
C1712 C 0.32609 0.45181 0.38146 0.0
C1713 C 0.34592 0.48283 0.38861 0.0
C1714 C 0.39726 0.44518 0.40123 0.0
C1715 C 0.3767 0.41464 0.39514 0.0
N1716 N 0.31789 0.38974 0.39217 0.0
N1717 N 0.39691 0.50708 0.41596 0.0
C1718 C 0.33977 0.41832 0.39035 0.0
C1719 C 0.38051 0.47894 0.40187 0.0
N1720 N 0.2962 0.45337 0.36302 0.0
N1721 N 0.43282 0.442 0.40617 0.0
H1722 H 0.38454 0.53147 0.41885 0.0
H1723 H 0.42097 0.50506 0.42807 0.0
H1724 H 0.44532 0.41753 0.40801 0.0
H1725 H 0.44988 0.46356 0.40696 0.0
H1726 H 0.28269 0.43097 0.35523 0.0
H1727 H 0.28795 0.47605 0.35122 0.0
H1728 H 0.29042 0.39203 0.39124 0.0
H1729 H 0.32666 0.36452 0.398 0.0
C1730 C 0.59855 0.35119 0.40007 0.0
C1731 C 0.60652 0.3853 0.38749 0.0
C1732 C 0.54581 0.38968 0.36738 0.0
C1733 C 0.53655 0.35733 0.38269 0.0
N1734 N 0.55285 0.31461 0.42347 0.0
N1735 N 0.5822 0.44164 0.37166 0.0
C1736 C 0.56248 0.34039 0.40223 0.0
C1737 C 0.57822 0.40612 0.37552 0.0
N1738 N 0.6247 0.32798 0.40814 0.0
N1739 N 0.52574 0.40366 0.34313 0.0
H1740 H 0.6048 0.4549 0.37943 0.0
H1741 H 0.56136 0.45806 0.36479 0.0
H1742 H 0.50457 0.39058 0.33248 0.0
H1743 H 0.53352 0.42602 0.33031 0.0
H1744 H 0.61944 0.30181 0.41421 0.0
H1745 H 0.65153 0.33322 0.40576 0.0
H1746 H 0.57057 0.30352 0.43987 0.0
H1747 H 0.52656 0.30771 0.42757 0.0
C1748 C 0.67394 0.59976 0.39653 0.0
C1749 C 0.64103 0.60704 0.38101 0.0
C1750 C 0.63975 0.54617 0.3617 0.0
C1751 C 0.66994 0.53735 0.38069 0.0
N1752 N 0.70802 0.55535 0.42466 0.0
N1753 N 0.58687 0.58142 0.36056 0.0
C1754 C 0.6846 0.56396 0.40088 0.0
C1755 C 0.62197 0.57833 0.36763 0.0
N1756 N 0.69635 0.62628 0.40537 0.0
N1757 N 0.6293 0.52593 0.33618 0.0
H1758 H 0.57217 0.6036 0.36688 0.0
H1759 H 0.57176 0.56015 0.3525 0.0
H1760 H 0.64423 0.50529 0.32685 0.0
H1761 H 0.60851 0.53333 0.32107 0.0
H1762 H 0.72176 0.62138 0.41406 0.0
H1763 H 0.6917 0.65281 0.40068 0.0
H1764 H 0.71718 0.57374 0.44137 0.0
H1765 H 0.71467 0.52937 0.43021 0.0
C1766 C 0.44917 0.61651 0.36849 0.0
C1767 C 0.4199 0.63484 0.38176 0.0
C1768 C 0.46206 0.68041 0.39978 0.0
C1769 C 0.4888 0.6664 0.37939 0.0
N1770 N 0.50047 0.62502 0.33556 0.0
N1771 N 0.3995 0.69091 0.40412 0.0
C1772 C 0.48059 0.63536 0.36136 0.0
C1773 C 0.42645 0.6686 0.39607 0.0
N1774 N 0.44734 0.58116 0.36255 0.0
N1775 N 0.47029 0.70447 0.42304 0.0
H1776 H 0.37302 0.68625 0.39908 0.0
H1777 H 0.40409 0.71658 0.41211 0.0
H1778 H 0.4962 0.71201 0.42812 0.0
H1779 H 0.45181 0.71326 0.43987 0.0
H1780 H 0.46913 0.56675 0.35453 0.0
H1781 H 0.42583 0.5658 0.3697 0.0
H1782 H 0.49349 0.6035 0.32126 0.0
H1783 H 0.52009 0.64054 0.32519 0.0
C1784 C 0.32606 0.57006 0.11739 0.0
C1785 C 0.34764 0.53963 0.12134 0.0
C1786 C 0.40098 0.57716 0.11723 0.0
C1787 C 0.37948 0.60771 0.1193 0.0
N1788 N 0.32086 0.63355 0.12061 0.0
N1789 N 0.40536 0.51314 0.11896 0.0
C1790 C 0.34186 0.60429 0.11809 0.0
C1791 C 0.38509 0.54298 0.11922 0.0
N1792 N 0.29033 0.56658 0.11335 0.0
N1793 N 0.43656 0.58112 0.11254 0.0
H1794 H 0.39436 0.48817 0.11591 0.0
H1795 H 0.43271 0.51282 0.12153 0.0
H1796 H 0.4484 0.60583 0.10991 0.0
H1797 H 0.45412 0.56042 0.10886 0.0
H1798 H 0.27401 0.58705 0.10571 0.0
H1799 H 0.27686 0.54278 0.11504 0.0
H1800 H 0.29391 0.63259 0.12564 0.0
H1801 H 0.33026 0.65925 0.11984 0.0
C1802 C 0.43664 0.37773 0.11049 0.0
C1803 C 0.42368 0.39329 0.13937 0.0
C1804 C 0.48141 0.38246 0.16523 0.0
C1805 C 0.49324 0.36337 0.13752 0.0
N1806 N 0.48133 0.34173 0.084 0.0
N1807 N 0.43224 0.40473 0.19614 0.0
C1808 C 0.4705 0.36061 0.11026 0.0
C1809 C 0.44579 0.39445 0.16706 0.0
N1810 N 0.41706 0.38057 0.0829 0.0
N1811 N 0.50382 0.38941 0.19034 0.0
H1812 H 0.40707 0.41509 0.19914 0.0
H1813 H 0.445 0.40031 0.21804 0.0
H1814 H 0.52884 0.37869 0.19316 0.0
H1815 H 0.49827 0.40814 0.20799 0.0
H1816 H 0.42606 0.37299 0.06025 0.0
H1817 H 0.39269 0.39345 0.08215 0.0
H1818 H 0.4647 0.33483 0.06503 0.0
H1819 H 0.50679 0.33144 0.08176 0.0
C1820 C 0.64687 0.48162 0.12439 0.0
C1821 C 0.68291 0.48602 0.13304 0.0
C1822 C 0.69031 0.42141 0.13415 0.0
C1823 C 0.65312 0.41719 0.13048 0.0
N1824 N 0.59584 0.44284 0.1208 0.0
N1825 N 0.73924 0.46038 0.14685 0.0
C1826 C 0.63141 0.44724 0.12501 0.0
C1827 C 0.70486 0.45597 0.13753 0.0
N1828 N 0.62778 0.51036 0.11467 0.0
N1829 N 0.71184 0.39245 0.13463 0.0
H1830 H 0.75145 0.48493 0.14796 0.0
H1831 H 0.75525 0.44002 0.15525 0.0
H1832 H 0.70252 0.36668 0.13349 0.0
H1833 H 0.7393 0.3938 0.13353 0.0
H1834 H 0.60228 0.50899 0.10533 0.0
H1835 H 0.63876 0.53555 0.11319 0.0
H1836 H 0.57767 0.46345 0.12091 0.0
H1837 H 0.58424 0.41806 0.11815 0.0
C1838 C 0.55739 0.66635 0.16803 0.0
C1839 C 0.5385 0.67081 0.13876 0.0
C1840 C 0.58714 0.64081 0.1102 0.0
C1841 C 0.60366 0.63319 0.14022 0.0
N1842 N 0.59788 0.63002 0.1982 0.0
N1843 N 0.53337 0.6585 0.08204 0.0
C1844 C 0.58656 0.64298 0.16926 0.0
C1845 C 0.55275 0.65679 0.10978 0.0
N1846 N 0.54888 0.68598 0.19441 0.0
N1847 N 0.60442 0.63305 0.0822 0.0
H1848 H 0.50884 0.67107 0.08087 0.0
H1849 H 0.5406 0.64575 0.06082 0.0
H1850 H 0.6286 0.61976 0.08184 0.0
H1851 H 0.59567 0.64123 0.0596 0.0
H1852 H 0.56347 0.68569 0.21574 0.0
H1853 H 0.53088 0.70652 0.19313 0.0
H1854 H 0.58437 0.63438 0.21973 0.0
H1855 H 0.61786 0.61133 0.20027 0.0
C1856 C 0.98925 0.25585 0.22877 0.0
C1857 C 0.02555 0.26474 0.22635 0.0
C1858 C 0.02767 0.27662 0.28439 0.0
C1859 C 0.99281 0.26325 0.28748 0.0
N1860 N 0.93639 0.25433 0.26231 0.0
N1861 N 0.07238 0.29997 0.248 0.0
C1862 C 0.97218 0.25754 0.25941 0.0
C1863 C 0.0426 0.28055 0.253 0.0
N1864 N 0.97146 0.24571 0.2017 0.0
N1865 N 0.04695 0.28403 0.31136 0.0
H1866 H 0.08256 0.30386 0.22489 0.0
H1867 H 0.08473 0.31459 0.26603 0.0
H1868 H 0.03628 0.28225 0.33449 0.0
H1869 H 0.07369 0.29058 0.31076 0.0
H1870 H 0.94547 0.23685 0.20155 0.0
H1871 H 0.98307 0.24668 0.17893 0.0
H1872 H 0.91912 0.25143 0.24297 0.0
H1873 H 0.9237 0.25833 0.28432 0.0
C1874 C 0.76899 0.03618 0.29287 0.0
C1875 C 0.7698 0.9989 0.29506 0.0
C1876 C 0.77352 0.99443 0.23609 0.0
C1877 C 0.77339 0.03189 0.23375 0.0
N1878 N 0.76267 0.08807 0.25901 0.0
N1879 N 0.76383 0.94258 0.26931 0.0
C1880 C 0.76815 0.05259 0.26194 0.0
C1881 C 0.76857 0.97815 0.26672 0.0
N1882 N 0.77102 0.05583 0.32039 0.0
N1883 N 0.78162 0.97438 0.20975 0.0
H1884 H 0.76108 0.93023 0.2916 0.0
H1885 H 0.75944 0.92603 0.2497 0.0
H1886 H 0.78605 0.98502 0.18703 0.0
H1887 H 0.78671 0.94741 0.21082 0.0
H1888 H 0.77543 0.08293 0.3206 0.0
H1889 H 0.76982 0.04452 0.34331 0.0
H1890 H 0.75568 0.10436 0.27816 0.0
H1891 H 0.76227 0.10076 0.23672 0.0
C1892 C 0.0363 0.77488 0.22386 0.0
C1893 C 0.99885 0.77307 0.22422 0.0
C1894 C 1.00089 0.75847 0.28204 0.0
C1895 C 0.03694 0.76846 0.2829 0.0
N1896 N 0.09054 0.78112 0.25462 0.0
N1897 N 0.94491 0.76187 0.25332 0.0
C1898 C 0.05516 0.77456 0.25358 0.0
C1899 C 0.98098 0.76369 0.25311 0.0
N1900 N 0.05365 0.77673 0.19503 0.0
N1901 N 0.98584 0.74423 0.30893 0.0
H1902 H 0.92979 0.76501 0.23248 0.0
H1903 H 0.92999 0.75916 0.27426 0.0
H1904 H 1.00025 0.74033 0.3301 0.0
H1905 H 0.96039 0.73377 0.3094 0.0
H1906 H 0.08103 0.77592 0.19264 0.0
H1907 H 0.04034 0.77582 0.17306 0.0
H1908 H 0.10524 0.79052 0.23525 0.0
H1909 H 0.10478 0.77747 0.27583 0.0
C1910 C 0.27323 1.00371 0.27997 0.0
C1911 C 0.25905 0.03828 0.28193 0.0
C1912 C 0.24862 0.03835 0.22363 0.0
C1913 C 0.2594 1.00257 0.22216 0.0
N1914 N 0.29743 0.95845 0.24488 0.0
N1915 N 0.24771 0.09262 0.25442 0.0
C1916 C 0.27685 0.98752 0.24908 0.0
C1917 C 0.25134 0.05691 0.25323 0.0
N1918 N 0.28146 0.98568 0.30744 0.0
N1919 N 0.23553 0.05444 0.19676 0.0
H1920 H 0.25256 0.10634 0.27569 0.0
H1921 H 0.2443 0.10852 0.23419 0.0
H1922 H 0.23776 0.04309 0.17405 0.0
H1923 H 0.22244 0.07862 0.19706 0.0
H1924 H 0.28842 0.9591 0.30757 0.0
H1925 H 0.27956 0.99697 0.33028 0.0
H1926 H 0.31299 0.94759 0.2631 0.0
H1927 H 0.30157 0.94775 0.22208 0.0
C1928 C 0.96811 0.77496 0.75293 0.0
C1929 C 0.98407 0.76429 0.78235 0.0
C1930 C 0.03702 0.74539 0.75234 0.0
C1931 C 0.02319 0.76181 0.72439 0.0
N1932 N 0.97198 0.7795 0.69454 0.0
N1933 N 0.02872 0.72919 0.80876 0.0
C1934 C 0.98738 0.77243 0.72361 0.0
C1935 C 0.01683 0.74574 0.78158 0.0
N1936 N 0.93451 0.78792 0.75344 0.0
N1937 N 0.06976 0.7304 0.75076 0.0
H1938 H 0.01448 0.72896 0.83022 0.0
H1939 H 0.05167 0.71417 0.80992 0.0
H1940 H 0.08317 0.72794 0.72889 0.0
H1941 H 0.08352 0.7203 0.7704 0.0
H1942 H 0.92225 0.80057 0.73419 0.0
H1943 H 0.91887 0.78553 0.7739 0.0
H1944 H 0.9456 0.78645 0.69142 0.0
H1945 H 0.98526 0.77493 0.67295 0.0
C1946 C 0.26216 0.0518 0.75839 0.0
C1947 C 0.26451 0.03371 0.72858 0.0
C1948 C 0.28021 0.97972 0.75811 0.0
C1949 C 0.26903 0.99557 0.7872 0.0
N1950 N 0.25477 0.04823 0.81648 0.0
N1951 N 0.27724 0.98011 0.69966 0.0
C1952 C 0.26225 0.03233 0.78779 0.0
C1953 C 0.2748 0.9977 0.72825 0.0
N1954 N 0.25999 0.08769 0.75829 0.0
N1955 N 0.29645 0.94772 0.75933 0.0
H1956 H 0.27427 0.99268 0.67745 0.0
H1957 H 0.28046 0.95287 0.69811 0.0
H1958 H 0.3017 0.93546 0.78134 0.0
H1959 H 0.30787 0.9356 0.73936 0.0
H1960 H 0.26049 0.10314 0.779 0.0
H1961 H 0.26115 0.10199 0.73687 0.0
H1962 H 0.24473 0.07369 0.81859 0.0
H1963 H 0.25856 0.03528 0.83837 0.0
C1964 C 0.01986 0.26858 0.73482 0.0
C1965 C 0.9857 0.2531 0.73291 0.0
C1966 C 0.98586 0.24375 0.79139 0.0
C1967 C 0.02122 0.25632 0.79292 0.0
N1968 N 0.06538 0.29367 0.76942 0.0
N1969 N 0.93161 0.23886 0.76027 0.0
C1970 C 0.03604 0.27321 0.76567 0.0
C1971 C 0.96719 0.24486 0.7616 0.0
N1972 N 0.03765 0.27697 0.70724 0.0
N1973 N 0.97053 0.22996 0.81836 0.0
H1974 H 0.91731 0.24198 0.73895 0.0
H1975 H 0.91582 0.23483 0.78049 0.0
H1976 H 0.98219 0.23221 0.84102 0.0
H1977 H 0.9469 0.21584 0.81816 0.0
H1978 H 0.0641 0.28461 0.70694 0.0
H1979 H 0.02638 0.27449 0.68441 0.0
H1980 H 0.07606 0.309 0.751 0.0
H1981 H 0.0769 0.29773 0.79197 0.0
C1982 C 0.74785 0.98398 0.75454 0.0
C1983 C 0.7651 1.00118 0.72865 0.0
C1984 C 0.7741 0.05245 0.76349 0.0
C1985 C 0.76726 0.0311 0.79082 0.0
N1986 N 0.7432 0.9775 0.81272 0.0
N1987 N 0.79104 0.05425 0.70721 0.0
C1988 C 0.7521 0.9973 0.78648 0.0
C1989 C 0.77653 0.0365 0.73257 0.0
N1990 N 0.72716 0.95537 0.74828 0.0
N1991 N 0.77737 0.08799 0.76723 0.0
H1992 H 0.79166 0.04385 0.68402 0.0
H1993 H 0.80329 0.07871 0.70941 0.0
H1994 H 0.77278 0.09992 0.78945 0.0
H1995 H 0.7802 0.10559 0.74811 0.0
H1996 H 0.7117 0.94295 0.76569 0.0
H1997 H 0.72356 0.9461 0.72479 0.0
H1998 H 0.73504 0.95132 0.8112 0.0
H1999 H 0.74531 0.98716 0.83619 0.0
C2000 C 0.4858 0.7728 0.7636 0.0
C2001 C 0.50596 0.76414 0.79138 0.0
C2002 C 0.55937 0.75909 0.75817 0.0
C2003 C 0.53836 0.7637 0.73013 0.0
N2004 N 0.48584 0.78835 0.7067 0.0
N2005 N 0.56264 0.75875 0.81686 0.0
C2006 C 0.50296 0.7753 0.73309 0.0
C2007 C 0.54319 0.76088 0.78916 0.0
N2008 N 0.44994 0.77594 0.766 0.0
N2009 N 0.59455 0.75193 0.75482 0.0
H2010 H 0.55094 0.76042 0.8396 0.0
H2011 H 0.59012 0.75798 0.81758 0.0
H2012 H 0.60715 0.75366 0.73254 0.0
H2013 H 0.61113 0.74428 0.77357 0.0
H2014 H 0.43313 0.77774 0.74618 0.0
H2015 H 0.43686 0.7749 0.78808 0.0
H2016 H 0.46083 0.7998 0.70763 0.0
H2017 H 0.49823 0.79051 0.68432 0.0
C2018 C 0.27303 0.4879 0.72024 0.0
C2019 C 0.26307 0.52337 0.7219 0.0
C2020 C 0.25406 0.51579 0.78034 0.0
C2021 C 0.27364 0.48344 0.77944 0.0
N2022 N 0.30999 0.44543 0.74536 0.0
N2023 N 0.24401 0.5724 0.75391 0.0
C2024 C 0.28497 0.47095 0.74849 0.0
C2025 C 0.25281 0.5376 0.75202 0.0
N2026 N 0.27387 0.47136 0.69107 0.0
N2027 N 0.23813 0.52669 0.8081 0.0
H2028 H 0.24208 0.58821 0.7334 0.0
H2029 H 0.24052 0.58568 0.77565 0.0
H2030 H 0.23946 0.51276 0.82966 0.0
H2031 H 0.2213 0.54843 0.80901 0.0
H2032 H 0.27996 0.44474 0.68852 0.0
H2033 H 0.26452 0.48359 0.6702 0.0
H2034 H 0.32184 0.43935 0.72335 0.0
H2035 H 0.32178 0.43307 0.76462 0.0
C2036 C 0.54573 0.25359 0.76125 0.0
C2037 C 0.53072 0.26562 0.79062 0.0
C2038 C 0.47376 0.27342 0.76377 0.0
C2039 C 0.48896 0.26413 0.73362 0.0
N2040 N 0.53605 0.23373 0.70611 0.0
N2041 N 0.47786 0.2721 0.82198 0.0
C2042 C 0.52378 0.24994 0.73323 0.0
C2043 C 0.49382 0.27066 0.79252 0.0
N2044 N 0.58117 0.24727 0.75983 0.0
N2045 N 0.44025 0.28626 0.76478 0.0
H2046 H 0.49186 0.26731 0.84314 0.0
H2047 H 0.45056 0.27339 0.82515 0.0
H2048 H 0.42399 0.28495 0.74476 0.0
H2049 H 0.42968 0.29926 0.78467 0.0
H2050 H 0.59486 0.24267 0.73848 0.0
H2051 H 0.59696 0.24799 0.78038 0.0
H2052 H 0.56019 0.22058 0.705 0.0
H2053 H 0.52065 0.23091 0.68544 0.0
C2054 C 0.7823 0.48471 0.75272 0.0
C2055 C 0.76444 0.50279 0.72761 0.0
C2056 C 0.75684 0.55324 0.76363 0.0
C2057 C 0.76408 0.53113 0.79032 0.0
N2058 N 0.7887 0.47712 0.81074 0.0
N2059 N 0.73971 0.55698 0.70746 0.0
C2060 C 0.77904 0.49738 0.78502 0.0
C2061 C 0.75374 0.53819 0.73246 0.0
N2062 N 0.80229 0.45586 0.74557 0.0
N2063 N 0.7539 0.58867 0.76819 0.0
H2064 H 0.73977 0.54748 0.68387 0.0
H2065 H 0.72737 0.58134 0.71027 0.0
H2066 H 0.75869 0.59984 0.79067 0.0
H2067 H 0.75086 0.60684 0.74955 0.0
H2068 H 0.81802 0.44288 0.76243 0.0
H2069 H 0.80521 0.44686 0.72197 0.0
H2070 H 0.79706 0.45106 0.80869 0.0
H2071 H 0.78724 0.48639 0.83438 0.0
C2072 C 0.47073 0.28107 0.25465 0.0
C2073 C 0.48907 0.27305 0.28344 0.0
C2074 C 0.54012 0.25446 0.25115 0.0
C2075 C 0.5252 0.27147 0.224 0.0
N2076 N 0.47394 0.29618 0.19805 0.0
N2077 N 0.54133 0.25033 0.30953 0.0
C2078 C 0.48956 0.28298 0.22514 0.0
C2079 C 0.5236 0.25844 0.28185 0.0
N2080 N 0.43505 0.28589 0.25568 0.0
N2081 N 0.56963 0.23426 0.24741 0.0
H2082 H 0.5298 0.25245 0.33228 0.0
H2083 H 0.56797 0.24332 0.30996 0.0
H2084 H 0.58122 0.23039 0.22487 0.0
H2085 H 0.58032 0.21889 0.26582 0.0
H2086 H 0.41933 0.2896 0.23537 0.0
H2087 H 0.42098 0.28194 0.27693 0.0
H2088 H 0.45 0.30976 0.19808 0.0
H2089 H 0.48554 0.29369 0.17544 0.0
C2090 C 0.76117 0.55521 0.26419 0.0
C2091 C 0.76306 0.53738 0.2342 0.0
C2092 C 0.76974 0.48111 0.26254 0.0
C2093 C 0.76123 0.49813 0.29194 0.0
N2094 N 0.75441 0.55162 0.32236 0.0
N2095 N 0.78919 0.48738 0.2072 0.0
C2096 C 0.75943 0.53544 0.29332 0.0
C2097 C 0.77363 0.50147 0.23391 0.0
N2098 N 0.76256 0.59115 0.2644 0.0
N2099 N 0.77244 0.44528 0.26177 0.0
H2100 H 0.79701 0.50273 0.18767 0.0
H2101 H 0.79926 0.46184 0.2063 0.0
H2102 H 0.77161 0.43021 0.28274 0.0
H2103 H 0.7738 0.4307 0.24055 0.0
H2104 H 0.76322 0.60653 0.28513 0.0
H2105 H 0.76664 0.60529 0.24319 0.0
H2106 H 0.74821 0.57818 0.32511 0.0
H2107 H 0.75627 0.53795 0.34409 0.0
C2108 C 0.46494 0.74926 0.2589 0.0
C2109 C 0.48328 0.75761 0.23018 0.0
C2110 C 0.53437 0.77614 0.2626 0.0
C2111 C 0.51965 0.75869 0.2896 0.0
N2112 N 0.46853 0.73362 0.31545 0.0
N2113 N 0.53527 0.78123 0.20431 0.0
C2114 C 0.48393 0.74718 0.28842 0.0
C2115 C 0.51766 0.7726 0.23192 0.0
N2116 N 0.42926 0.74376 0.25771 0.0
N2117 N 0.56408 0.79605 0.26639 0.0
H2118 H 0.52365 0.77962 0.18157 0.0
H2119 H 0.56192 0.78816 0.20386 0.0
H2120 H 0.57603 0.79943 0.28885 0.0
H2121 H 0.57466 0.81172 0.24815 0.0
H2122 H 0.41355 0.73959 0.27795 0.0
H2123 H 0.41491 0.74722 0.23646 0.0
H2124 H 0.44449 0.72023 0.31545 0.0
H2125 H 0.48041 0.73561 0.338 0.0
C2126 C 0.27399 0.5381 0.22824 0.0
C2127 C 0.26514 0.50186 0.22519 0.0
C2128 C 0.24625 0.5005 0.28181 0.0
C2129 C 0.25967 0.53505 0.28583 0.0
N2130 N 0.27048 0.59111 0.26119 0.0
N2131 N 0.22817 0.45479 0.24406 0.0
C2132 C 0.2682 0.55536 0.25829 0.0
C2133 C 0.24646 0.48497 0.25047 0.0
N2134 N 0.28918 0.55556 0.20302 0.0
N2135 N 0.23444 0.48231 0.30802 0.0
H2136 H 0.22714 0.44415 0.22087 0.0
H2137 H 0.21188 0.44228 0.26076 0.0
H2138 H 0.23182 0.49429 0.33054 0.0
H2139 H 0.22821 0.45556 0.30753 0.0
H2140 H 0.2989 0.58114 0.20456 0.0
H2141 H 0.29285 0.54403 0.18052 0.0
H2142 H 0.27457 0.6082 0.24191 0.0
H2143 H 0.26431 0.60371 0.28283 0.0
C2144 C 0.12534 0.25203 0.99169 0.0
C2145 C 0.10343 0.22788 0.97461 0.0
C2146 C 0.08237 0.20371 0.02647 0.0
C2147 C 0.10122 0.23047 0.0432 0.0
N2148 N 0.13726 0.28291 0.04155 0.0
N2149 N 0.06112 0.18027 0.97555 0.0
C2150 C 0.12192 0.25523 0.02574 0.0
C2151 C 0.08171 0.20379 0.992 0.0
N2152 N 0.15003 0.27165 0.97562 0.0
N2153 N 0.06698 0.17689 0.04352 0.0
H2154 H 0.06314 0.17632 0.95075 0.0
H2155 H 0.04107 0.16551 0.9862 0.0
H2156 H 0.06784 0.17531 0.0686 0.0
H2157 H 0.05586 0.1546 0.03301 0.0
H2158 H 0.16979 0.28603 0.98715 0.0
H2159 H 0.15288 0.27167 0.95072 0.0
H2160 H 0.14848 0.30452 0.0299 0.0
H2161 H 0.13627 0.2859 0.06644 0.0
C2162 C 0.81861 0.08029 0.02902 0.0
C2163 C 0.79551 0.10405 0.0449 0.0
C2164 C 0.77613 0.12822 0.99291 0.0
C2165 C 0.79689 0.10227 0.97671 0.0
N2166 N 0.83931 0.05457 0.97894 0.0
N2167 N 0.75179 0.15008 0.04322 0.0
C2168 C 0.81841 0.07845 0.99471 0.0
C2169 C 0.77425 0.12793 0.02717 0.0
N2170 N 0.8419 0.06066 0.04685 0.0
N2171 N 0.75877 0.15374 0.97576 0.0
H2172 H 0.7519 0.15276 0.0682 0.0
H2173 H 0.73174 0.16452 0.0322 0.0
H2174 H 0.75731 0.15436 0.95079 0.0
H2175 H 0.74726 0.17595 0.98607 0.0
H2176 H 0.86203 0.04531 0.03714 0.0
H2177 H 0.84273 0.0614 0.07195 0.0
H2178 H 0.8515 0.03318 0.99005 0.0
H2179 H 0.84421 0.05558 0.95425 0.0
C2180 C 0.93673 0.82201 0.98972 0.0
C2181 C 0.93151 0.78981 0.97294 0.0
C2182 C 0.91543 0.76055 0.02314 0.0
C2183 C 0.92379 0.79148 0.0406 0.0
N2184 N 0.94654 0.85094 0.04121 0.0
N2185 N 0.92799 0.72652 0.97535 0.0
C2186 C 0.93587 0.82204 0.02408 0.0
C2187 C 0.92452 0.75845 0.99015 0.0
N2188 N 0.94185 0.85253 0.97282 0.0
N2189 N 0.89761 0.73367 0.03767 0.0
H2190 H 0.93662 0.72419 0.95156 0.0
H2191 H 0.92591 0.70264 0.98769 0.0
H2192 H 0.88806 0.73584 0.0611 0.0
H2193 H 0.88853 0.7116 0.02518 0.0
H2194 H 0.94186 0.87744 0.98337 0.0
H2195 H 0.94429 0.85306 0.94779 0.0
H2196 H 0.95919 0.87253 0.03083 0.0
H2197 H 0.94453 0.85252 0.06625 0.0
C2198 C 0.20056 0.91493 0.98879 0.0
C2199 C 0.23098 0.92607 0.97128 0.0
C2200 C 0.26161 0.93823 0.02281 0.0
C2201 C 0.23144 0.9261 0.04012 0.0
N2202 N 0.16926 0.91267 0.03975 0.0
N2203 N 0.2919 0.94521 0.97155 0.0
C2204 C 0.20022 0.91676 0.02313 0.0
C2205 C 0.26173 0.93737 0.98831 0.0
N2206 N 0.17175 0.90248 0.97255 0.0
N2207 N 0.28992 0.95157 0.03936 0.0
H2208 H 0.29327 0.94566 0.94651 0.0
H2209 H 0.31655 0.94886 0.98213 0.0
H2210 H 0.292 0.95099 0.06438 0.0
H2211 H 0.31066 0.96528 0.02869 0.0
H2212 H 0.15099 0.88895 0.98345 0.0
H2213 H 0.16927 0.90421 0.9477 0.0
H2214 H 0.14462 0.90958 0.02894 0.0
H2215 H 0.16743 0.91628 0.06454 0.0
C2216 C 0.08258 0.82754 0.52532 0.0
C2217 C 0.09696 0.79813 0.54212 0.0
C2218 C 0.10391 0.76679 0.4906 0.0
C2219 C 0.09359 0.79749 0.47357 0.0
N2220 N 0.07651 0.85865 0.4743 0.0
N2221 N 0.12804 0.74255 0.53982 0.0
C2222 C 0.0837 0.82831 0.49084 0.0
C2223 C 0.10963 0.76859 0.52447 0.0
N2224 N 0.06807 0.85483 0.54229 0.0
N2225 N 0.10714 0.7355 0.47457 0.0
H2226 H 0.1333 0.74307 0.56442 0.0
H2227 H 0.14105 0.72232 0.52766 0.0
H2228 H 0.102 0.73308 0.44997 0.0
H2229 H 0.11133 0.71147 0.48616 0.0
H2230 H 0.05365 0.87512 0.53165 0.0
H2231 H 0.06861 0.85611 0.5674 0.0
H2232 H 0.07283 0.88304 0.48529 0.0
H2233 H 0.07663 0.85987 0.44919 0.0
C2234 C 0.26083 0.11758 0.49 0.0
C2235 C 0.23636 0.09702 0.47213 0.0
C2236 C 0.20845 0.07798 0.52303 0.0
C2237 C 0.23276 0.09917 0.54074 0.0
N2238 N 0.27508 0.14741 0.53939 0.0
N2239 N 0.18288 0.06244 0.47103 0.0
C2240 C 0.25682 0.12138 0.52379 0.0
C2241 C 0.20926 0.07812 0.4885 0.0
N2242 N 0.289 0.13279 0.47481 0.0
N2243 N 0.18325 0.05926 0.53927 0.0
H2244 H 0.1818 0.06307 0.44594 0.0
H2245 H 0.16053 0.05085 0.48106 0.0
H2246 H 0.17794 0.06322 0.56366 0.0
H2247 H 0.16784 0.03958 0.5289 0.0
H2248 H 0.31059 0.14351 0.48696 0.0
H2249 H 0.29232 0.13208 0.45002 0.0
H2250 H 0.28861 0.16741 0.52737 0.0
H2251 H 0.27474 0.15146 0.56409 0.0
C2252 C 0.93698 0.26797 0.52659 0.0
C2253 C 0.93071 0.23577 0.54314 0.0
C2254 C 0.93275 0.20383 0.49179 0.0
C2255 C 0.93187 0.23636 0.4751 0.0
N2256 N 0.9379 0.29967 0.47573 0.0
N2257 N 0.92578 0.17236 0.5421 0.0
C2258 C 0.93551 0.26857 0.49226 0.0
C2259 C 0.92938 0.2035 0.52587 0.0
N2260 N 0.94593 0.29752 0.54361 0.0
N2261 N 0.9399 0.17351 0.47526 0.0
H2262 H 0.92834 0.17051 0.56701 0.0
H2263 H 0.9195 0.1486 0.53089 0.0
H2264 H 0.94448 0.17318 0.45046 0.0
H2265 H 0.94482 0.14936 0.48634 0.0
H2266 H 0.95406 0.32107 0.53308 0.0
H2267 H 0.9482 0.2978 0.56864 0.0
H2268 H 0.93569 0.32437 0.48645 0.0
H2269 H 0.94075 0.30084 0.45078 0.0
C2270 C 0.82182 0.93907 0.49399 0.0
C2271 C 0.79586 0.91854 0.47775 0.0
C2272 C 0.77739 0.89305 0.52959 0.0
C2273 C 0.79985 0.91709 0.54587 0.0
N2274 N 0.84212 0.96459 0.54432 0.0
N2275 N 0.74713 0.87731 0.48031 0.0
C2276 C 0.82172 0.94056 0.52827 0.0
C2277 C 0.77333 0.89565 0.49558 0.0
N2278 N 0.84784 0.95555 0.47672 0.0
N2279 N 0.76059 0.86709 0.54658 0.0
H2280 H 0.74404 0.87699 0.45544 0.0
H2281 H 0.7269 0.86416 0.49237 0.0
H2282 H 0.76291 0.8644 0.57147 0.0
H2283 H 0.74693 0.84633 0.53588 0.0
H2284 H 0.86948 0.96801 0.48726 0.0
H2285 H 0.84989 0.95381 0.45171 0.0
H2286 H 0.85516 0.98535 0.53296 0.0
H2287 H 0.84434 0.96507 0.56937 0.0
C2288 C 0.57642 0.70881 0.4893 0.0
C2289 C 0.59802 0.73304 0.47198 0.0
C2290 C 0.61839 0.75881 0.52327 0.0
C2291 C 0.59784 0.73372 0.5406 0.0
N2292 N 0.56276 0.68071 0.54044 0.0
N2293 N 0.64215 0.77914 0.47226 0.0
C2294 C 0.57803 0.70781 0.52368 0.0
C2295 C 0.61982 0.75738 0.48895 0.0
N2296 N 0.55473 0.68622 0.47288 0.0
N2297 N 0.63558 0.785 0.53962 0.0
H2298 H 0.64193 0.78156 0.44729 0.0
H2299 H 0.66232 0.79372 0.48291 0.0
H2300 H 0.63685 0.78603 0.56461 0.0
H2301 H 0.64685 0.807 0.52871 0.0
H2302 H 0.53471 0.67162 0.48376 0.0
H2303 H 0.5555 0.68306 0.44794 0.0
H2304 H 0.55116 0.6588 0.52968 0.0
H2305 H 0.5644 0.67839 0.56542 0.0
C2306 C 0.25984 0.5892 0.4878 0.0
C2307 C 0.29056 0.60256 0.47197 0.0
C2308 C 0.3205 0.60791 0.52416 0.0
C2309 C 0.28887 0.59842 0.54008 0.0
N2310 N 0.22793 0.57991 0.53785 0.0
N2311 N 0.34821 0.6302 0.47612 0.0
C2312 C 0.25843 0.58882 0.52211 0.0
C2313 C 0.32015 0.6139 0.49047 0.0
N2314 N 0.23201 0.57668 0.47009 0.0
N2315 N 0.35166 0.60841 0.54088 0.0
H2316 H 0.35019 0.63407 0.45149 0.0
H2317 H 0.36825 0.64267 0.48906 0.0
H2318 H 0.35334 0.60066 0.56491 0.0
H2319 H 0.37629 0.61172 0.53006 0.0
H2320 H 0.21135 0.56198 0.47978 0.0
H2321 H 0.22986 0.57969 0.44523 0.0
H2322 H 0.20342 0.57763 0.52664 0.0
H2323 H 0.22657 0.5764 0.56272 0.0
C2324 C 0.42755 0.32361 0.52457 0.0
C2325 C 0.43452 0.29203 0.54197 0.0
C2326 C 0.44203 0.25998 0.49065 0.0
C2327 C 0.43334 0.29127 0.47342 0.0
N2328 N 0.42807 0.35448 0.47323 0.0
N2329 N 0.45442 0.23161 0.54212 0.0
C2330 C 0.42878 0.32354 0.49021 0.0
C2331 C 0.44369 0.26064 0.52512 0.0
N2332 N 0.42029 0.35394 0.54104 0.0
N2333 N 0.44823 0.22953 0.47394 0.0
H2334 H 0.45497 0.23069 0.56721 0.0
H2335 H 0.46468 0.20887 0.53174 0.0
H2336 H 0.4503 0.22878 0.44891 0.0
H2337 H 0.45028 0.20472 0.48445 0.0
H2338 H 0.40981 0.37653 0.53045 0.0
H2339 H 0.42418 0.35628 0.56578 0.0
H2340 H 0.4279 0.37938 0.48374 0.0
H2341 H 0.43127 0.35547 0.44831 0.0
C2342 C 0.75335 0.40497 0.52874 0.0
C2343 C 0.72941 0.42742 0.54518 0.0
C2344 C 0.70792 0.45041 0.49318 0.0
C2345 C 0.73099 0.42679 0.4766 0.0
N2346 N 0.77045 0.37619 0.47948 0.0
N2347 N 0.67951 0.46683 0.54359 0.0
C2348 C 0.75202 0.40244 0.4946 0.0
C2349 C 0.70569 0.44914 0.52755 0.0
N2350 N 0.77871 0.38707 0.54564 0.0
N2351 N 0.68724 0.47339 0.47611 0.0
H2352 H 0.67644 0.46578 0.56855 0.0
H2353 H 0.65895 0.48021 0.53225 0.0
H2354 H 0.68367 0.47189 0.45126 0.0
H2355 H 0.67423 0.49476 0.48646 0.0
H2356 H 0.80022 0.37458 0.53488 0.0
H2357 H 0.78015 0.38701 0.57066 0.0
H2358 H 0.7814 0.35476 0.49162 0.0
H2359 H 0.77309 0.37386 0.45471 0.0
C2360 C 0.59344 0.32441 0.02493 0.0
C2361 C 0.60423 0.29427 0.04275 0.0
C2362 C 0.60512 0.25934 0.99324 0.0
C2363 C 0.59946 0.29023 0.9749 0.0
N2364 N 0.58835 0.35277 0.97255 0.0
N2365 N 0.62778 0.23514 0.04289 0.0
C2366 C 0.59359 0.32303 0.99056 0.0
C2367 C 0.61235 0.26236 0.02661 0.0
N2368 N 0.58281 0.35414 0.04086 0.0
N2369 N 0.60172 0.22699 0.97918 0.0
H2370 H 0.63479 0.23701 0.06709 0.0
H2371 H 0.63709 0.21246 0.03152 0.0
H2372 H 0.59393 0.22397 0.95521 0.0
H2373 H 0.60267 0.20346 0.99216 0.0
H2374 H 0.571 0.37564 0.02954 0.0
H2375 H 0.58397 0.35659 0.06589 0.0
H2376 H 0.58809 0.37814 0.98213 0.0
H2377 H 0.58564 0.35218 0.94755 0.0
C2378 C 0.70935 0.57805 0.99307 0.0
C2379 C 0.73161 0.60189 0.97601 0.0
C2380 C 0.74711 0.63065 0.02729 0.0
C2381 C 0.72893 0.6038 0.04438 0.0
N2382 N 0.69414 0.55057 0.04401 0.0
N2383 N 0.77457 0.64921 0.97754 0.0
C2384 C 0.7106 0.57699 0.02738 0.0
C2385 C 0.75111 0.6279 0.99328 0.0
N2386 N 0.68526 0.55804 0.97662 0.0
N2387 N 0.75985 0.65939 0.04343 0.0
H2388 H 0.7777 0.64932 0.95269 0.0
H2389 H 0.79297 0.66507 0.98933 0.0
H2390 H 0.75789 0.66228 0.06832 0.0
H2391 H 0.76961 0.68181 0.03197 0.0
H2392 H 0.66596 0.54277 0.98781 0.0
H2393 H 0.68185 0.55959 0.95172 0.0
H2394 H 0.68424 0.52789 0.03312 0.0
H2395 H 0.69218 0.55035 0.06905 0.0
C2396 C 0.44116 0.75929 0.98801 0.0
C2397 C 0.42863 0.7284 0.97197 0.0
C2398 C 0.42485 0.69781 0.02393 0.0
C2399 C 0.43287 0.72974 0.04002 0.0
N2400 N 0.44881 0.79119 0.03822 0.0
N2401 N 0.40579 0.66898 0.97495 0.0
C2402 C 0.44133 0.76052 0.02229 0.0
C2403 C 0.41937 0.69797 0.99006 0.0
N2404 N 0.45339 0.78736 0.97055 0.0
N2405 N 0.42502 0.66686 0.04083 0.0
H2406 H 0.40329 0.66708 0.95006 0.0
H2407 H 0.39473 0.64771 0.98723 0.0
H2408 H 0.43233 0.66567 0.06502 0.0
H2409 H 0.42243 0.64212 0.03023 0.0
H2410 H 0.46736 0.80833 0.98053 0.0
H2411 H 0.45128 0.78923 0.94562 0.0
H2412 H 0.45003 0.81577 0.0271 0.0
H2413 H 0.45213 0.79248 0.06312 0.0
C2414 C 0.28549 0.45076 0.02248 0.0
C2415 C 0.29797 0.42101 0.04044 0.0
C2416 C 0.3161 0.39447 0.9891 0.0
C2417 C 0.29838 0.42128 0.97103 0.0
N2418 N 0.25544 0.46866 0.97381 0.0
N2419 N 0.31311 0.35893 0.03716 0.0
C2420 C 0.27984 0.44762 0.98861 0.0
C2421 C 0.30968 0.39113 0.02273 0.0
N2422 N 0.28035 0.48265 0.0369 0.0
N2423 N 0.34051 0.37304 0.97499 0.0
H2424 H 0.30479 0.35384 0.06063 0.0
H2425 H 0.31934 0.33621 0.02419 0.0
H2426 H 0.34939 0.37689 0.95164 0.0
H2427 H 0.35557 0.35496 0.98809 0.0
H2428 H 0.27391 0.5053 0.02387 0.0
H2429 H 0.28707 0.48773 0.06069 0.0
H2430 H 0.23959 0.48631 0.98658 0.0
H2431 H 0.24748 0.46516 0.94999 0.0
loop_
_geom_bond_atom_site_label_1
_geom_bond_atom_site_label_2
_geom_bond_distance
_geom_bond_site_symmetry_2
_ccdc_geom_bond_type
Fe0 O2 1.918 . S
Fe0 O5 1.997 . S
Fe0 O6 2.002 . S
Fe0 O11 1.976 . S
Fe0 O14 1.996 . S
Fe1 O2 1.918 . S
Fe1 O9 1.997 . S
Fe1 O12 1.996 . S
Fe1 O16 1.976 . S
Fe1 O19 2.002 . S
O2 Fe0 1.918 . S
O2 Fe1 1.918 . S
O2 Fe3 1.918 . S
Fe3 O2 1.918 . S
Fe3 O4 2.002 . S
Fe3 O13 1.976 . S
Fe3 O17 1.996 . S
Fe3 O20 1.997 . S
O4 Fe3 2.002 . S
O4 C21 1.295 . S
O5 Fe0 1.997 . S
O5 C21 1.235 . S
O6 Fe0 2.002 . S
O6 C7 1.295 . S
C7 O6 1.295 . S
C7 O9 1.235 . S
C8 O13 1.287 . S
C8 O14 1.255 . S
O9 Fe1 1.997 . S
O9 C7 1.235 . S
C10 O16 1.287 . S
C10 O17 1.255 . S
O11 Fe0 1.976 . S
O11 C18 1.287 . S
O12 Fe1 1.996 . S
O12 C18 1.255 . S
O13 Fe3 1.976 . S
O13 C8 1.287 . S
O14 Fe0 1.996 . S
O14 C8 1.255 . S
C15 O19 1.295 . S
C15 O20 1.235 . S
O16 Fe1 1.976 . S
O16 C10 1.287 . S
O17 Fe3 1.996 . S
O17 C10 1.255 . S
C18 O11 1.287 . S
C18 O12 1.255 . S
O19 Fe1 2.002 . S
O19 C15 1.295 . S
O20 Fe3 1.997 . S
O20 C15 1.235 . S
C21 O4 1.295 . S
C21 O5 1.235 . S
Fe22 O24 1.918 . S
Fe22 O27 1.997 . S
Fe22 O28 2.002 . S
Fe22 O33 1.976 . S
Fe22 O36 1.996 . S
Fe23 O24 1.918 . S
Fe23 O31 1.997 . S
Fe23 O34 1.996 . S
Fe23 O38 1.976 . S
Fe23 O41 2.002 . S
O24 Fe22 1.918 . S
O24 Fe23 1.918 . S
O24 Fe25 1.918 . S
Fe25 O24 1.918 . S
Fe25 O26 2.002 . S
Fe25 O35 1.976 . S
Fe25 O39 1.996 . S
Fe25 O42 1.997 . S
O26 Fe25 2.002 . S
O26 C43 1.295 . S
O27 Fe22 1.997 . S
O27 C43 1.235 . S
O28 Fe22 2.002 . S
O28 C29 1.295 . S
C29 O28 1.295 . S
C29 O31 1.235 . S
C30 O35 1.287 . S
C30 O36 1.255 . S
O31 Fe23 1.997 . S
O31 C29 1.235 . S
C32 O38 1.287 . S
C32 O39 1.255 . S
O33 Fe22 1.976 . S
O33 C40 1.287 . S
O34 Fe23 1.996 . S
O34 C40 1.255 . S
O35 Fe25 1.976 . S
O35 C30 1.287 . S
O36 Fe22 1.996 . S
O36 C30 1.255 . S
C37 O41 1.295 . S
C37 O42 1.235 . S
O38 Fe23 1.976 . S
O38 C32 1.287 . S
O39 Fe25 1.996 . S
O39 C32 1.255 . S
C40 O33 1.287 . S
C40 O34 1.255 . S
O41 Fe23 2.002 . S
O41 C37 1.295 . S
O42 Fe25 1.997 . S
O42 C37 1.235 . S
C43 O26 1.295 . S
C43 O27 1.235 . S
Fe44 O46 1.918 . S
Fe44 O49 1.997 . S
Fe44 O50 2.002 . S
Fe44 O55 1.976 . S
Fe44 O58 1.996 . S
Fe45 O46 1.918 . S
Fe45 O53 1.997 . S
Fe45 O56 1.996 . S
Fe45 O60 1.976 . S
Fe45 O63 2.002 . S
O46 Fe44 1.918 . S
O46 Fe45 1.918 . S
O46 Fe47 1.918 . S
Fe47 O46 1.918 . S
Fe47 O48 2.002 . S
Fe47 O57 1.976 . S
Fe47 O61 1.996 . S
Fe47 O64 1.997 . S
O48 Fe47 2.002 . S
O48 C65 1.295 . S
O49 Fe44 1.997 . S
O49 C65 1.235 . S
O50 Fe44 2.002 . S
O50 C51 1.295 . S
C51 O50 1.295 . S
C51 O53 1.235 . S
C52 O57 1.287 . S
C52 O58 1.255 . S
O53 Fe45 1.997 . S
O53 C51 1.235 . S
C54 O60 1.287 . S
C54 O61 1.255 . S
O55 Fe44 1.976 . S
O55 C62 1.287 . S
O56 Fe45 1.996 . S
O56 C62 1.255 . S
O57 Fe47 1.976 . S
O57 C52 1.287 . S
O58 Fe44 1.996 . S
O58 C52 1.255 . S
C59 O63 1.295 . S
C59 O64 1.235 . S
O60 Fe45 1.976 . S
O60 C54 1.287 . S
O61 Fe47 1.996 . S
O61 C54 1.255 . S
C62 O55 1.287 . S
C62 O56 1.255 . S
O63 Fe45 2.002 . S
O63 C59 1.295 . S
O64 Fe47 1.997 . S
O64 C59 1.235 . S
C65 O48 1.295 . S
C65 O49 1.235 . S
Fe66 O68 1.918 . S
Fe66 O71 1.997 . S
Fe66 O72 2.002 . S
Fe66 O77 1.976 . S
Fe66 O80 1.996 . S
Fe67 O68 1.918 . S
Fe67 O75 1.997 . S
Fe67 O78 1.996 . S
Fe67 O82 1.976 . S
Fe67 O85 2.002 . S
O68 Fe66 1.918 . S
O68 Fe67 1.918 . S
O68 Fe69 1.918 . S
Fe69 O68 1.918 . S
Fe69 O70 2.002 . S
Fe69 O79 1.976 . S
Fe69 O83 1.996 . S
Fe69 O86 1.997 . S
O70 Fe69 2.002 . S
O70 C87 1.295 . S
O71 Fe66 1.997 . S
O71 C87 1.235 . S
O72 Fe66 2.002 . S
O72 C73 1.295 . S
C73 O72 1.295 . S
C73 O75 1.235 . S
C74 O79 1.287 . S
C74 O80 1.255 . S
O75 Fe67 1.997 . S
O75 C73 1.235 . S
C76 O82 1.287 . S
C76 O83 1.255 . S
O77 Fe66 1.976 . S
O77 C84 1.287 . S
O78 Fe67 1.996 . S
O78 C84 1.255 . S
O79 Fe69 1.976 . S
O79 C74 1.287 . S
O80 Fe66 1.996 . S
O80 C74 1.255 . S
C81 O85 1.295 . S
C81 O86 1.235 . S
O82 Fe67 1.976 . S
O82 C76 1.287 . S
O83 Fe69 1.996 . S
O83 C76 1.255 . S
C84 O77 1.287 . S
C84 O78 1.255 . S
O85 Fe67 2.002 . S
O85 C81 1.295 . S
O86 Fe69 1.997 . S
O86 C81 1.235 . S
C87 O70 1.295 . S
C87 O71 1.235 . S
Fe88 O90 1.918 . S
Fe88 O93 1.997 . S
Fe88 O94 2.002 . S
Fe88 O99 1.976 . S
Fe88 O102 1.996 . S
Fe89 O90 1.918 . S
Fe89 O97 1.997 . S
Fe89 O100 1.996 . S
Fe89 O104 1.976 . S
Fe89 O107 2.002 . S
O90 Fe88 1.918 . S
O90 Fe89 1.918 . S
O90 Fe91 1.918 . S
Fe91 O90 1.918 . S
Fe91 O92 2.002 . S
Fe91 O101 1.976 . S
Fe91 O105 1.996 . S
Fe91 O108 1.997 . S
O92 Fe91 2.002 . S
O92 C109 1.295 . S
O93 Fe88 1.997 . S
O93 C109 1.235 . S
O94 Fe88 2.002 . S
O94 C95 1.295 . S
C95 O94 1.295 . S
C95 O97 1.235 . S
C96 O101 1.287 . S
C96 O102 1.255 . S
O97 Fe89 1.997 . S
O97 C95 1.235 . S
C98 O104 1.287 . S
C98 O105 1.255 . S
O99 Fe88 1.976 . S
O99 C106 1.287 . S
O100 Fe89 1.996 . S
O100 C106 1.255 . S
O101 Fe91 1.976 . S
O101 C96 1.287 . S
O102 Fe88 1.996 . S
O102 C96 1.255 . S
C103 O107 1.295 . S
C103 O108 1.235 . S
O104 Fe89 1.976 . S
O104 C98 1.287 . S
O105 Fe91 1.996 . S
O105 C98 1.255 . S
C106 O99 1.287 . S
C106 O100 1.255 . S
O107 Fe89 2.002 . S
O107 C103 1.295 . S
O108 Fe91 1.997 . S
O108 C103 1.235 . S
C109 O92 1.295 . S
C109 O93 1.235 . S
Fe110 O112 1.918 . S
Fe110 O115 1.997 . S
Fe110 O116 2.002 . S
Fe110 O121 1.976 . S
Fe110 O124 1.996 . S
Fe111 O112 1.918 . S
Fe111 O119 1.997 . S
Fe111 O122 1.996 . S
Fe111 O126 1.976 . S
Fe111 O129 2.002 . S
O112 Fe110 1.918 . S
O112 Fe111 1.918 . S
O112 Fe113 1.918 . S
Fe113 O112 1.918 . S
Fe113 O114 2.002 . S
Fe113 O123 1.976 . S
Fe113 O127 1.996 . S
Fe113 O130 1.997 . S
O114 Fe113 2.002 . S
O114 C131 1.295 . S
O115 Fe110 1.997 . S
O115 C131 1.235 . S
O116 Fe110 2.002 . S
O116 C117 1.295 . S
C117 O116 1.295 . S
C117 O119 1.235 . S
C118 O123 1.287 . S
C118 O124 1.255 . S
O119 Fe111 1.997 . S
O119 C117 1.235 . S
C120 O126 1.287 . S
C120 O127 1.255 . S
O121 Fe110 1.976 . S
O121 C128 1.287 . S
O122 Fe111 1.996 . S
O122 C128 1.255 . S
O123 Fe113 1.976 . S
O123 C118 1.287 . S
O124 Fe110 1.996 . S
O124 C118 1.255 . S
C125 O129 1.295 . S
C125 O130 1.235 . S
O126 Fe111 1.976 . S
O126 C120 1.287 . S
O127 Fe113 1.996 . S
O127 C120 1.255 . S
C128 O121 1.287 . S
C128 O122 1.255 . S
O129 Fe111 2.002 . S
O129 C125 1.295 . S
O130 Fe113 1.997 . S
O130 C125 1.235 . S
C131 O114 1.295 . S
C131 O115 1.235 . S
Fe132 O134 1.918 . S
Fe132 O137 1.997 . S
Fe132 O138 2.002 . S
Fe132 O143 1.976 . S
Fe132 O146 1.996 . S
Fe133 O134 1.918 . S
Fe133 O141 1.997 . S
Fe133 O144 1.996 . S
Fe133 O148 1.976 . S
Fe133 O151 2.002 . S
O134 Fe132 1.918 . S
O134 Fe133 1.918 . S
O134 Fe135 1.918 . S
Fe135 O134 1.918 . S
Fe135 O136 2.002 . S
Fe135 O145 1.976 . S
Fe135 O149 1.996 . S
Fe135 O152 1.997 . S
O136 Fe135 2.002 . S
O136 C153 1.295 . S
O137 Fe132 1.997 . S
O137 C153 1.235 . S
O138 Fe132 2.002 . S
O138 C139 1.295 . S
C139 O138 1.295 . S
C139 O141 1.235 . S
C140 O145 1.287 . S
C140 O146 1.255 . S
O141 Fe133 1.997 . S
O141 C139 1.235 . S
C142 O148 1.287 . S
C142 O149 1.255 . S
O143 Fe132 1.976 . S
O143 C150 1.287 . S
O144 Fe133 1.996 . S
O144 C150 1.255 . S
O145 Fe135 1.976 . S
O145 C140 1.287 . S
O146 Fe132 1.996 . S
O146 C140 1.255 . S
C147 O151 1.295 . S
C147 O152 1.235 . S
O148 Fe133 1.976 . S
O148 C142 1.287 . S
O149 Fe135 1.996 . S
O149 C142 1.255 . S
C150 O143 1.287 . S
C150 O144 1.255 . S
O151 Fe133 2.002 . S
O151 C147 1.295 . S
O152 Fe135 1.997 . S
O152 C147 1.235 . S
C153 O136 1.295 . S
C153 O137 1.235 . S
Fe154 O156 1.918 . S
Fe154 O159 1.997 . S
Fe154 O160 2.002 . S
Fe154 O165 1.976 . S
Fe154 O168 1.996 . S
Fe155 O156 1.918 . S
Fe155 O163 1.997 . S
Fe155 O166 1.996 . S
Fe155 O170 1.976 . S
Fe155 O173 2.002 . S
O156 Fe154 1.918 . S
O156 Fe155 1.918 . S
O156 Fe157 1.918 . S
Fe157 O156 1.918 . S
Fe157 O158 2.002 . S
Fe157 O167 1.976 . S
Fe157 O171 1.996 . S
Fe157 O174 1.997 . S
O158 Fe157 2.002 . S
O158 C175 1.295 . S
O159 Fe154 1.997 . S
O159 C175 1.235 . S
O160 Fe154 2.002 . S
O160 C161 1.295 . S
C161 O160 1.295 . S
C161 O163 1.235 . S
C162 O167 1.287 . S
C162 O168 1.255 . S
O163 Fe155 1.997 . S
O163 C161 1.235 . S
C164 O170 1.287 . S
C164 O171 1.255 . S
O165 Fe154 1.976 . S
O165 C172 1.287 . S
O166 Fe155 1.996 . S
O166 C172 1.255 . S
O167 Fe157 1.976 . S
O167 C162 1.287 . S
O168 Fe154 1.996 . S
O168 C162 1.255 . S
C169 O173 1.295 . S
C169 O174 1.235 . S
O170 Fe155 1.976 . S
O170 C164 1.287 . S
O171 Fe157 1.996 . S
O171 C164 1.255 . S
C172 O165 1.287 . S
C172 O166 1.255 . S
O173 Fe155 2.002 . S
O173 C169 1.295 . S
O174 Fe157 1.997 . S
O174 C169 1.235 . S
C175 O158 1.295 . S
C175 O159 1.235 . S
Fe176 O178 1.918 . S
Fe176 O181 1.997 . S
Fe176 O182 2.002 . S
Fe176 O187 1.976 . S
Fe176 O190 1.996 . S
Fe177 O178 1.918 . S
Fe177 O185 1.997 . S
Fe177 O188 1.996 . S
Fe177 O192 1.976 . S
Fe177 O195 2.002 . S
O178 Fe176 1.918 . S
O178 Fe177 1.918 . S
O178 Fe179 1.918 . S
Fe179 O178 1.918 . S
Fe179 O180 2.002 . S
Fe179 O189 1.976 . S
Fe179 O193 1.996 . S
Fe179 O196 1.997 . S
O180 Fe179 2.002 . S
O180 C197 1.295 . S
O181 Fe176 1.997 . S
O181 C197 1.235 . S
O182 Fe176 2.002 . S
O182 C183 1.295 . S
C183 O182 1.295 . S
C183 O185 1.235 . S
C184 O189 1.287 . S
C184 O190 1.255 . S
O185 Fe177 1.997 . S
O185 C183 1.235 . S
C186 O192 1.287 . S
C186 O193 1.255 . S
O187 Fe176 1.976 . S
O187 C194 1.287 . S
O188 Fe177 1.996 . S
O188 C194 1.255 . S
O189 Fe179 1.976 . S
O189 C184 1.287 . S
O190 Fe176 1.996 . S
O190 C184 1.255 . S
C191 O195 1.295 . S
C191 O196 1.235 . S
O192 Fe177 1.976 . S
O192 C186 1.287 . S
O193 Fe179 1.996 . S
O193 C186 1.255 . S
C194 O187 1.287 . S
C194 O188 1.255 . S
O195 Fe177 2.002 . S
O195 C191 1.295 . S
O196 Fe179 1.997 . S
O196 C191 1.235 . S
C197 O180 1.295 . S
C197 O181 1.235 . S
Fe198 O200 1.918 . S
Fe198 O203 1.997 . S
Fe198 O204 2.002 . S
Fe198 O209 1.976 . S
Fe198 O212 1.996 . S
Fe199 O200 1.918 . S
Fe199 O207 1.997 . S
Fe199 O210 1.996 . S
Fe199 O214 1.976 . S
Fe199 O217 2.002 . S
O200 Fe198 1.918 . S
O200 Fe199 1.918 . S
O200 Fe201 1.918 . S
Fe201 O200 1.918 . S
Fe201 O202 2.002 . S
Fe201 O211 1.976 . S
Fe201 O215 1.996 . S
Fe201 O218 1.997 . S
O202 Fe201 2.002 . S
O202 C219 1.295 . S
O203 Fe198 1.997 . S
O203 C219 1.235 . S
O204 Fe198 2.002 . S
O204 C205 1.295 . S
C205 O204 1.295 . S
C205 O207 1.235 . S
C206 O211 1.287 . S
C206 O212 1.255 . S
O207 Fe199 1.997 . S
O207 C205 1.235 . S
C208 O214 1.287 . S
C208 O215 1.255 . S
O209 Fe198 1.976 . S
O209 C216 1.287 . S
O210 Fe199 1.996 . S
O210 C216 1.255 . S
O211 Fe201 1.976 . S
O211 C206 1.287 . S
O212 Fe198 1.996 . S
O212 C206 1.255 . S
C213 O217 1.295 . S
C213 O218 1.235 . S
O214 Fe199 1.976 . S
O214 C208 1.287 . S
O215 Fe201 1.996 . S
O215 C208 1.255 . S
C216 O209 1.287 . S
C216 O210 1.255 . S
O217 Fe199 2.002 . S
O217 C213 1.295 . S
O218 Fe201 1.997 . S
O218 C213 1.235 . S
C219 O202 1.295 . S
C219 O203 1.235 . S
Fe220 O222 1.918 . S
Fe220 O225 1.997 . S
Fe220 O226 2.002 . S
Fe220 O231 1.976 . S
Fe220 O234 1.996 . S
Fe221 O222 1.918 . S
Fe221 O229 1.997 . S
Fe221 O232 1.996 . S
Fe221 O236 1.976 . S
Fe221 O239 2.002 . S
O222 Fe220 1.918 . S
O222 Fe221 1.918 . S
O222 Fe223 1.918 . S
Fe223 O222 1.918 . S
Fe223 O224 2.002 . S
Fe223 O233 1.976 . S
Fe223 O237 1.996 . S
Fe223 O240 1.997 . S
O224 Fe223 2.002 . S
O224 C241 1.295 . S
O225 Fe220 1.997 . S
O225 C241 1.235 . S
O226 Fe220 2.002 . S
O226 C227 1.295 . S
C227 O226 1.295 . S
C227 O229 1.235 . S
C228 O233 1.287 . S
C228 O234 1.255 . S
O229 Fe221 1.997 . S
O229 C227 1.235 . S
C230 O236 1.287 . S
C230 O237 1.255 . S
O231 Fe220 1.976 . S
O231 C238 1.287 . S
O232 Fe221 1.996 . S
O232 C238 1.255 . S
O233 Fe223 1.976 . S
O233 C228 1.287 . S
O234 Fe220 1.996 . S
O234 C228 1.255 . S
C235 O239 1.295 . S
C235 O240 1.235 . S
O236 Fe221 1.976 . S
O236 C230 1.287 . S
O237 Fe223 1.996 . S
O237 C230 1.255 . S
C238 O231 1.287 . S
C238 O232 1.255 . S
O239 Fe221 2.002 . S
O239 C235 1.295 . S
O240 Fe223 1.997 . S
O240 C235 1.235 . S
C241 O224 1.295 . S
C241 O225 1.235 . S
Fe242 O244 1.918 . S
Fe242 O247 1.997 . S
Fe242 O248 2.002 . S
Fe242 O253 1.976 . S
Fe242 O256 1.996 . S
Fe243 O244 1.918 . S
Fe243 O251 1.997 . S
Fe243 O254 1.996 . S
Fe243 O258 1.976 . S
Fe243 O261 2.002 . S
O244 Fe242 1.918 . S
O244 Fe243 1.918 . S
O244 Fe245 1.918 . S
Fe245 O244 1.918 . S
Fe245 O246 2.002 . S
Fe245 O255 1.976 . S
Fe245 O259 1.996 . S
Fe245 O262 1.997 . S
O246 Fe245 2.002 . S
O246 C263 1.295 . S
O247 Fe242 1.997 . S
O247 C263 1.235 . S
O248 Fe242 2.002 . S
O248 C249 1.295 . S
C249 O248 1.295 . S
C249 O251 1.235 . S
C250 O255 1.287 . S
C250 O256 1.255 . S
O251 Fe243 1.997 . S
O251 C249 1.235 . S
C252 O258 1.287 . S
C252 O259 1.255 . S
O253 Fe242 1.976 . S
O253 C260 1.287 . S
O254 Fe243 1.996 . S
O254 C260 1.255 . S
O255 Fe245 1.976 . S
O255 C250 1.287 . S
O256 Fe242 1.996 . S
O256 C250 1.255 . S
C257 O261 1.295 . S
C257 O262 1.235 . S
O258 Fe243 1.976 . S
O258 C252 1.287 . S
O259 Fe245 1.996 . S
O259 C252 1.255 . S
C260 O253 1.287 . S
C260 O254 1.255 . S
O261 Fe243 2.002 . S
O261 C257 1.295 . S
O262 Fe245 1.997 . S
O262 C257 1.235 . S
C263 O246 1.295 . S
C263 O247 1.235 . S
Fe264 O266 1.918 . S
Fe264 O269 1.997 . S
Fe264 O270 2.002 . S
Fe264 O275 1.976 . S
Fe264 O278 1.996 . S
Fe265 O266 1.918 . S
Fe265 O273 1.997 . S
Fe265 O276 1.996 . S
Fe265 O280 1.976 . S
Fe265 O283 2.002 . S
O266 Fe264 1.918 . S
O266 Fe265 1.918 . S
O266 Fe267 1.918 . S
Fe267 O266 1.918 . S
Fe267 O268 2.002 . S
Fe267 O277 1.976 . S
Fe267 O281 1.996 . S
Fe267 O284 1.997 . S
O268 Fe267 2.002 . S
O268 C285 1.295 . S
O269 Fe264 1.997 . S
O269 C285 1.235 . S
O270 Fe264 2.002 . S
O270 C271 1.295 . S
C271 O270 1.295 . S
C271 O273 1.235 . S
C272 O277 1.287 . S
C272 O278 1.255 . S
O273 Fe265 1.997 . S
O273 C271 1.235 . S
C274 O280 1.287 . S
C274 O281 1.255 . S
O275 Fe264 1.976 . S
O275 C282 1.287 . S
O276 Fe265 1.996 . S
O276 C282 1.255 . S
O277 Fe267 1.976 . S
O277 C272 1.287 . S
O278 Fe264 1.996 . S
O278 C272 1.255 . S
C279 O283 1.295 . S
C279 O284 1.235 . S
O280 Fe265 1.976 . S
O280 C274 1.287 . S
O281 Fe267 1.996 . S
O281 C274 1.255 . S
C282 O275 1.287 . S
C282 O276 1.255 . S
O283 Fe265 2.002 . S
O283 C279 1.295 . S
O284 Fe267 1.997 . S
O284 C279 1.235 . S
C285 O268 1.295 . S
C285 O269 1.235 . S
Fe286 O288 1.918 . S
Fe286 O291 1.997 . S
Fe286 O292 2.002 . S
Fe286 O297 1.976 . S
Fe286 O300 1.996 . S
Fe287 O288 1.918 . S
Fe287 O295 1.997 . S
Fe287 O298 1.996 . S
Fe287 O302 1.976 . S
Fe287 O305 2.002 . S
O288 Fe286 1.918 . S
O288 Fe287 1.918 . S
O288 Fe289 1.918 . S
Fe289 O288 1.918 . S
Fe289 O290 2.002 . S
Fe289 O299 1.976 . S
Fe289 O303 1.996 . S
Fe289 O306 1.997 . S
O290 Fe289 2.002 . S
O290 C307 1.295 . S
O291 Fe286 1.997 . S
O291 C307 1.235 . S
O292 Fe286 2.002 . S
O292 C293 1.295 . S
C293 O292 1.295 . S
C293 O295 1.235 . S
C294 O299 1.287 . S
C294 O300 1.255 . S
O295 Fe287 1.997 . S
O295 C293 1.235 . S
C296 O302 1.287 . S
C296 O303 1.255 . S
O297 Fe286 1.976 . S
O297 C304 1.287 . S
O298 Fe287 1.996 . S
O298 C304 1.255 . S
O299 Fe289 1.976 . S
O299 C294 1.287 . S
O300 Fe286 1.996 . S
O300 C294 1.255 . S
C301 O305 1.295 . S
C301 O306 1.235 . S
O302 Fe287 1.976 . S
O302 C296 1.287 . S
O303 Fe289 1.996 . S
O303 C296 1.255 . S
C304 O297 1.287 . S
C304 O298 1.255 . S
O305 Fe287 2.002 . S
O305 C301 1.295 . S
O306 Fe289 1.997 . S
O306 C301 1.235 . S
C307 O290 1.295 . S
C307 O291 1.235 . S
Fe308 O310 1.918 . S
Fe308 O313 1.997 . S
Fe308 O314 2.002 . S
Fe308 O319 1.976 . S
Fe308 O322 1.996 . S
Fe309 O310 1.918 . S
Fe309 O317 1.997 . S
Fe309 O320 1.996 . S
Fe309 O324 1.976 . S
Fe309 O327 2.002 . S
O310 Fe308 1.918 . S
O310 Fe309 1.918 . S
O310 Fe311 1.918 . S
Fe311 O310 1.918 . S
Fe311 O312 2.002 . S
Fe311 O321 1.976 . S
Fe311 O325 1.996 . S
Fe311 O328 1.997 . S
O312 Fe311 2.002 . S
O312 C329 1.295 . S
O313 Fe308 1.997 . S
O313 C329 1.235 . S
O314 Fe308 2.002 . S
O314 C315 1.295 . S
C315 O314 1.295 . S
C315 O317 1.235 . S
C316 O321 1.287 . S
C316 O322 1.255 . S
O317 Fe309 1.997 . S
O317 C315 1.235 . S
C318 O324 1.287 . S
C318 O325 1.255 . S
O319 Fe308 1.976 . S
O319 C326 1.287 . S
O320 Fe309 1.996 . S
O320 C326 1.255 . S
O321 Fe311 1.976 . S
O321 C316 1.287 . S
O322 Fe308 1.996 . S
O322 C316 1.255 . S
C323 O327 1.295 . S
C323 O328 1.235 . S
O324 Fe309 1.976 . S
O324 C318 1.287 . S
O325 Fe311 1.996 . S
O325 C318 1.255 . S
C326 O319 1.287 . S
C326 O320 1.255 . S
O327 Fe309 2.002 . S
O327 C323 1.295 . S
O328 Fe311 1.997 . S
O328 C323 1.235 . S
C329 O312 1.295 . S
C329 O313 1.235 . S
Fe330 O332 1.918 . S
Fe330 O335 1.997 . S
Fe330 O336 2.002 . S
Fe330 O341 1.976 . S
Fe330 O344 1.996 . S
Fe331 O332 1.918 . S
Fe331 O339 1.997 . S
Fe331 O342 1.996 . S
Fe331 O346 1.976 . S
Fe331 O349 2.002 . S
O332 Fe330 1.918 . S
O332 Fe331 1.918 . S
O332 Fe333 1.918 . S
Fe333 O332 1.918 . S
Fe333 O334 2.002 . S
Fe333 O343 1.976 . S
Fe333 O347 1.996 . S
Fe333 O350 1.997 . S
O334 Fe333 2.002 . S
O334 C351 1.295 . S
O335 Fe330 1.997 . S
O335 C351 1.235 . S
O336 Fe330 2.002 . S
O336 C337 1.295 . S
C337 O336 1.295 . S
C337 O339 1.235 . S
C338 O343 1.287 . S
C338 O344 1.255 . S
O339 Fe331 1.997 . S
O339 C337 1.235 . S
C340 O346 1.287 . S
C340 O347 1.255 . S
O341 Fe330 1.976 . S
O341 C348 1.287 . S
O342 Fe331 1.996 . S
O342 C348 1.255 . S
O343 Fe333 1.976 . S
O343 C338 1.287 . S
O344 Fe330 1.996 . S
O344 C338 1.255 . S
C345 O349 1.295 . S
C345 O350 1.235 . S
O346 Fe331 1.976 . S
O346 C340 1.287 . S
O347 Fe333 1.996 . S
O347 C340 1.255 . S
C348 O341 1.287 . S
C348 O342 1.255 . S
O349 Fe331 2.002 . S
O349 C345 1.295 . S
O350 Fe333 1.997 . S
O350 C345 1.235 . S
C351 O334 1.295 . S
C351 O335 1.235 . S
Fe352 O354 1.918 . S
Fe352 O357 1.997 . S
Fe352 O358 2.002 . S
Fe352 O363 1.976 . S
Fe352 O366 1.996 . S
Fe353 O354 1.918 . S
Fe353 O361 1.997 . S
Fe353 O364 1.996 . S
Fe353 O368 1.976 . S
Fe353 O371 2.002 . S
O354 Fe352 1.918 . S
O354 Fe353 1.918 . S
O354 Fe355 1.918 . S
Fe355 O354 1.918 . S
Fe355 O356 2.002 . S
Fe355 O365 1.976 . S
Fe355 O369 1.996 . S
Fe355 O372 1.997 . S
O356 Fe355 2.002 . S
O356 C373 1.295 . S
O357 Fe352 1.997 . S
O357 C373 1.235 . S
O358 Fe352 2.002 . S
O358 C359 1.295 . S
C359 O358 1.295 . S
C359 O361 1.235 . S
C360 O365 1.287 . S
C360 O366 1.255 . S
O361 Fe353 1.997 . S
O361 C359 1.235 . S
C362 O368 1.287 . S
C362 O369 1.255 . S
O363 Fe352 1.976 . S
O363 C370 1.287 . S
O364 Fe353 1.996 . S
O364 C370 1.255 . S
O365 Fe355 1.976 . S
O365 C360 1.287 . S
O366 Fe352 1.996 . S
O366 C360 1.255 . S
C367 O371 1.295 . S
C367 O372 1.235 . S
O368 Fe353 1.976 . S
O368 C362 1.287 . S
O369 Fe355 1.996 . S
O369 C362 1.255 . S
C370 O363 1.287 . S
C370 O364 1.255 . S
O371 Fe353 2.002 . S
O371 C367 1.295 . S
O372 Fe355 1.997 . S
O372 C367 1.235 . S
C373 O356 1.295 . S
C373 O357 1.235 . S
Fe374 O376 1.918 . S
Fe374 O379 1.997 . S
Fe374 O380 2.002 . S
Fe374 O385 1.976 . S
Fe374 O388 1.996 . S
Fe375 O376 1.918 . S
Fe375 O383 1.997 . S
Fe375 O386 1.996 . S
Fe375 O390 1.976 . S
Fe375 O393 2.002 . S
O376 Fe374 1.918 . S
O376 Fe375 1.918 . S
O376 Fe377 1.918 . S
Fe377 O376 1.918 . S
Fe377 O378 2.002 . S
Fe377 O387 1.976 . S
Fe377 O391 1.996 . S
Fe377 O394 1.997 . S
O378 Fe377 2.002 . S
O378 C395 1.295 . S
O379 Fe374 1.997 . S
O379 C395 1.235 . S
O380 Fe374 2.002 . S
O380 C381 1.295 . S
C381 O380 1.295 . S
C381 O383 1.235 . S
C382 O387 1.287 . S
C382 O388 1.255 . S
O383 Fe375 1.997 . S
O383 C381 1.235 . S
C384 O390 1.287 . S
C384 O391 1.255 . S
O385 Fe374 1.976 . S
O385 C392 1.287 . S
O386 Fe375 1.996 . S
O386 C392 1.255 . S
O387 Fe377 1.976 . S
O387 C382 1.287 . S
O388 Fe374 1.996 . S
O388 C382 1.255 . S
C389 O393 1.295 . S
C389 O394 1.235 . S
O390 Fe375 1.976 . S
O390 C384 1.287 . S
O391 Fe377 1.996 . S
O391 C384 1.255 . S
C392 O385 1.287 . S
C392 O386 1.255 . S
O393 Fe375 2.002 . S
O393 C389 1.295 . S
O394 Fe377 1.997 . S
O394 C389 1.235 . S
C395 O378 1.295 . S
C395 O379 1.235 . S
Fe396 O398 1.918 . S
Fe396 O401 1.997 . S
Fe396 O402 2.002 . S
Fe396 O407 1.976 . S
Fe396 O410 1.996 . S
Fe397 O398 1.918 . S
Fe397 O405 1.997 . S
Fe397 O408 1.996 . S
Fe397 O412 1.976 . S
Fe397 O415 2.002 . S
O398 Fe396 1.918 . S
O398 Fe397 1.918 . S
O398 Fe399 1.918 . S
Fe399 O398 1.918 . S
Fe399 O400 2.002 . S
Fe399 O409 1.976 . S
Fe399 O413 1.996 . S
Fe399 O416 1.997 . S
O400 Fe399 2.002 . S
O400 C417 1.295 . S
O401 Fe396 1.997 . S
O401 C417 1.235 . S
O402 Fe396 2.002 . S
O402 C403 1.295 . S
C403 O402 1.295 . S
C403 O405 1.235 . S
C404 O409 1.287 . S
C404 O410 1.255 . S
O405 Fe397 1.997 . S
O405 C403 1.235 . S
C406 O412 1.287 . S
C406 O413 1.255 . S
O407 Fe396 1.976 . S
O407 C414 1.287 . S
O408 Fe397 1.996 . S
O408 C414 1.255 . S
O409 Fe399 1.976 . S
O409 C404 1.287 . S
O410 Fe396 1.996 . S
O410 C404 1.255 . S
C411 O415 1.295 . S
C411 O416 1.235 . S
O412 Fe397 1.976 . S
O412 C406 1.287 . S
O413 Fe399 1.996 . S
O413 C406 1.255 . S
C414 O407 1.287 . S
C414 O408 1.255 . S
O415 Fe397 2.002 . S
O415 C411 1.295 . S
O416 Fe399 1.997 . S
O416 C411 1.235 . S
C417 O400 1.295 . S
C417 O401 1.235 . S
Fe418 O420 1.918 . S
Fe418 O423 1.997 . S
Fe418 O424 2.002 . S
Fe418 O429 1.976 . S
Fe418 O432 1.996 . S
Fe419 O420 1.918 . S
Fe419 O427 1.997 . S
Fe419 O430 1.996 . S
Fe419 O434 1.976 . S
Fe419 O437 2.002 . S
O420 Fe418 1.918 . S
O420 Fe419 1.918 . S
O420 Fe421 1.918 . S
Fe421 O420 1.918 . S
Fe421 O422 2.002 . S
Fe421 O431 1.976 . S
Fe421 O435 1.996 . S
Fe421 O438 1.997 . S
O422 Fe421 2.002 . S
O422 C439 1.295 . S
O423 Fe418 1.997 . S
O423 C439 1.235 . S
O424 Fe418 2.002 . S
O424 C425 1.295 . S
C425 O424 1.295 . S
C425 O427 1.235 . S
C426 O431 1.287 . S
C426 O432 1.255 . S
O427 Fe419 1.997 . S
O427 C425 1.235 . S
C428 O434 1.287 . S
C428 O435 1.255 . S
O429 Fe418 1.976 . S
O429 C436 1.287 . S
O430 Fe419 1.996 . S
O430 C436 1.255 . S
O431 Fe421 1.976 . S
O431 C426 1.287 . S
O432 Fe418 1.996 . S
O432 C426 1.255 . S
C433 O437 1.295 . S
C433 O438 1.235 . S
O434 Fe419 1.976 . S
O434 C428 1.287 . S
O435 Fe421 1.996 . S
O435 C428 1.255 . S
C436 O429 1.287 . S
C436 O430 1.255 . S
O437 Fe419 2.002 . S
O437 C433 1.295 . S
O438 Fe421 1.997 . S
O438 C433 1.235 . S
C439 O422 1.295 . S
C439 O423 1.235 . S
Fe440 O442 1.918 . S
Fe440 O445 1.997 . S
Fe440 O446 2.002 . S
Fe440 O451 1.976 . S
Fe440 O454 1.996 . S
Fe441 O442 1.918 . S
Fe441 O449 1.997 . S
Fe441 O452 1.996 . S
Fe441 O456 1.976 . S
Fe441 O459 2.002 . S
O442 Fe440 1.918 . S
O442 Fe441 1.918 . S
O442 Fe443 1.918 . S
Fe443 O442 1.918 . S
Fe443 O444 2.002 . S
Fe443 O453 1.976 . S
Fe443 O457 1.996 . S
Fe443 O460 1.997 . S
O444 Fe443 2.002 . S
O444 C461 1.295 . S
O445 Fe440 1.997 . S
O445 C461 1.235 . S
O446 Fe440 2.002 . S
O446 C447 1.295 . S
C447 O446 1.295 . S
C447 O449 1.235 . S
C448 O453 1.287 . S
C448 O454 1.255 . S
O449 Fe441 1.997 . S
O449 C447 1.235 . S
C450 O456 1.287 . S
C450 O457 1.255 . S
O451 Fe440 1.976 . S
O451 C458 1.287 . S
O452 Fe441 1.996 . S
O452 C458 1.255 . S
O453 Fe443 1.976 . S
O453 C448 1.287 . S
O454 Fe440 1.996 . S
O454 C448 1.255 . S
C455 O459 1.295 . S
C455 O460 1.235 . S
O456 Fe441 1.976 . S
O456 C450 1.287 . S
O457 Fe443 1.996 . S
O457 C450 1.255 . S
C458 O451 1.287 . S
C458 O452 1.255 . S
O459 Fe441 2.002 . S
O459 C455 1.295 . S
O460 Fe443 1.997 . S
O460 C455 1.235 . S
C461 O444 1.295 . S
C461 O445 1.235 . S
Fe462 O464 1.918 . S
Fe462 O467 1.997 . S
Fe462 O468 2.002 . S
Fe462 O473 1.976 . S
Fe462 O476 1.996 . S
Fe463 O464 1.918 . S
Fe463 O471 1.997 . S
Fe463 O474 1.996 . S
Fe463 O478 1.976 . S
Fe463 O481 2.002 . S
O464 Fe462 1.918 . S
O464 Fe463 1.918 . S
O464 Fe465 1.918 . S
Fe465 O464 1.918 . S
Fe465 O466 2.002 . S
Fe465 O475 1.976 . S
Fe465 O479 1.996 . S
Fe465 O482 1.997 . S
O466 Fe465 2.002 . S
O466 C483 1.295 . S
O467 Fe462 1.997 . S
O467 C483 1.235 . S
O468 Fe462 2.002 . S
O468 C469 1.295 . S
C469 O468 1.295 . S
C469 O471 1.235 . S
C470 O475 1.287 . S
C470 O476 1.255 . S
O471 Fe463 1.997 . S
O471 C469 1.235 . S
C472 O478 1.287 . S
C472 O479 1.255 . S
O473 Fe462 1.976 . S
O473 C480 1.287 . S
O474 Fe463 1.996 . S
O474 C480 1.255 . S
O475 Fe465 1.976 . S
O475 C470 1.287 . S
O476 Fe462 1.996 . S
O476 C470 1.255 . S
C477 O481 1.295 . S
C477 O482 1.235 . S
O478 Fe463 1.976 . S
O478 C472 1.287 . S
O479 Fe465 1.996 . S
O479 C472 1.255 . S
C480 O473 1.287 . S
C480 O474 1.255 . S
O481 Fe463 2.002 . S
O481 C477 1.295 . S
O482 Fe465 1.997 . S
O482 C477 1.235 . S
C483 O466 1.295 . S
C483 O467 1.235 . S
Fe484 O486 1.918 . S
Fe484 O489 1.997 . S
Fe484 O490 2.002 . S
Fe484 O495 1.976 . S
Fe484 O498 1.996 . S
Fe485 O486 1.918 . S
Fe485 O493 1.997 . S
Fe485 O496 1.996 . S
Fe485 O500 1.976 . S
Fe485 O503 2.002 . S
O486 Fe484 1.918 . S
O486 Fe485 1.918 . S
O486 Fe487 1.918 . S
Fe487 O486 1.918 . S
Fe487 O488 2.002 . S
Fe487 O497 1.976 . S
Fe487 O501 1.996 . S
Fe487 O504 1.997 . S
O488 Fe487 2.002 . S
O488 C505 1.295 . S
O489 Fe484 1.997 . S
O489 C505 1.235 . S
O490 Fe484 2.002 . S
O490 C491 1.295 . S
C491 O490 1.295 . S
C491 O493 1.235 . S
C492 O497 1.287 . S
C492 O498 1.255 . S
O493 Fe485 1.997 . S
O493 C491 1.235 . S
C494 O500 1.287 . S
C494 O501 1.255 . S
O495 Fe484 1.976 . S
O495 C502 1.287 . S
O496 Fe485 1.996 . S
O496 C502 1.255 . S
O497 Fe487 1.976 . S
O497 C492 1.287 . S
O498 Fe484 1.996 . S
O498 C492 1.255 . S
C499 O503 1.295 . S
C499 O504 1.235 . S
O500 Fe485 1.976 . S
O500 C494 1.287 . S
O501 Fe487 1.996 . S
O501 C494 1.255 . S
C502 O495 1.287 . S
C502 O496 1.255 . S
O503 Fe485 2.002 . S
O503 C499 1.295 . S
O504 Fe487 1.997 . S
O504 C499 1.235 . S
C505 O488 1.295 . S
C505 O489 1.235 . S
Fe506 O508 1.918 . S
Fe506 O511 1.997 . S
Fe506 O512 2.002 . S
Fe506 O517 1.976 . S
Fe506 O520 1.996 . S
Fe507 O508 1.918 . S
Fe507 O515 1.997 . S
Fe507 O518 1.996 . S
Fe507 O522 1.976 . S
Fe507 O525 2.002 . S
O508 Fe506 1.918 . S
O508 Fe507 1.918 . S
O508 Fe509 1.918 . S
Fe509 O508 1.918 . S
Fe509 O510 2.002 . S
Fe509 O519 1.976 . S
Fe509 O523 1.996 . S
Fe509 O526 1.997 . S
O510 Fe509 2.002 . S
O510 C527 1.295 . S
O511 Fe506 1.997 . S
O511 C527 1.235 . S
O512 Fe506 2.002 . S
O512 C513 1.295 . S
C513 O512 1.295 . S
C513 O515 1.235 . S
C514 O519 1.287 . S
C514 O520 1.255 . S
O515 Fe507 1.997 . S
O515 C513 1.235 . S
C516 O522 1.287 . S
C516 O523 1.255 . S
O517 Fe506 1.976 . S
O517 C524 1.287 . S
O518 Fe507 1.996 . S
O518 C524 1.255 . S
O519 Fe509 1.976 . S
O519 C514 1.287 . S
O520 Fe506 1.996 . S
O520 C514 1.255 . S
C521 O525 1.295 . S
C521 O526 1.235 . S
O522 Fe507 1.976 . S
O522 C516 1.287 . S
O523 Fe509 1.996 . S
O523 C516 1.255 . S
C524 O517 1.287 . S
C524 O518 1.255 . S
O525 Fe507 2.002 . S
O525 C521 1.295 . S
O526 Fe509 1.997 . S
O526 C521 1.235 . S
C527 O510 1.295 . S
C527 O511 1.235 . S
Fe528 O530 1.918 . S
Fe528 O533 1.997 . S
Fe528 O534 2.002 . S
Fe528 O539 1.976 . S
Fe528 O542 1.996 . S
Fe529 O530 1.918 . S
Fe529 O537 1.997 . S
Fe529 O540 1.996 . S
Fe529 O544 1.976 . S
Fe529 O547 2.002 . S
O530 Fe528 1.918 . S
O530 Fe529 1.918 . S
O530 Fe531 1.918 . S
Fe531 O530 1.918 . S
Fe531 O532 2.002 . S
Fe531 O541 1.976 . S
Fe531 O545 1.996 . S
Fe531 O548 1.997 . S
O532 Fe531 2.002 . S
O532 C549 1.295 . S
O533 Fe528 1.997 . S
O533 C549 1.235 . S
O534 Fe528 2.002 . S
O534 C535 1.295 . S
C535 O534 1.295 . S
C535 O537 1.235 . S
C536 O541 1.287 . S
C536 O542 1.255 . S
O537 Fe529 1.997 . S
O537 C535 1.235 . S
C538 O544 1.287 . S
C538 O545 1.255 . S
O539 Fe528 1.976 . S
O539 C546 1.287 . S
O540 Fe529 1.996 . S
O540 C546 1.255 . S
O541 Fe531 1.976 . S
O541 C536 1.287 . S
O542 Fe528 1.996 . S
O542 C536 1.255 . S
C543 O547 1.295 . S
C543 O548 1.235 . S
O544 Fe529 1.976 . S
O544 C538 1.287 . S
O545 Fe531 1.996 . S
O545 C538 1.255 . S
C546 O539 1.287 . S
C546 O540 1.255 . S
O547 Fe529 2.002 . S
O547 C543 1.295 . S
O548 Fe531 1.997 . S
O548 C543 1.235 . S
C549 O532 1.295 . S
C549 O533 1.235 . S
Fe550 O552 1.918 . S
Fe550 O555 1.997 . S
Fe550 O556 2.002 . S
Fe550 O561 1.976 . S
Fe550 O564 1.996 . S
Fe551 O552 1.918 . S
Fe551 O559 1.997 . S
Fe551 O562 1.996 . S
Fe551 O566 1.976 . S
Fe551 O569 2.002 . S
O552 Fe550 1.918 . S
O552 Fe551 1.918 . S
O552 Fe553 1.918 . S
Fe553 O552 1.918 . S
Fe553 O554 2.002 . S
Fe553 O563 1.976 . S
Fe553 O567 1.996 . S
Fe553 O570 1.997 . S
O554 Fe553 2.002 . S
O554 C571 1.295 . S
O555 Fe550 1.997 . S
O555 C571 1.235 . S
O556 Fe550 2.002 . S
O556 C557 1.295 . S
C557 O556 1.295 . S
C557 O559 1.235 . S
C558 O563 1.287 . S
C558 O564 1.255 . S
O559 Fe551 1.997 . S
O559 C557 1.235 . S
C560 O566 1.287 . S
C560 O567 1.255 . S
O561 Fe550 1.976 . S
O561 C568 1.287 . S
O562 Fe551 1.996 . S
O562 C568 1.255 . S
O563 Fe553 1.976 . S
O563 C558 1.287 . S
O564 Fe550 1.996 . S
O564 C558 1.255 . S
C565 O569 1.295 . S
C565 O570 1.235 . S
O566 Fe551 1.976 . S
O566 C560 1.287 . S
O567 Fe553 1.996 . S
O567 C560 1.255 . S
C568 O561 1.287 . S
C568 O562 1.255 . S
O569 Fe551 2.002 . S
O569 C565 1.295 . S
O570 Fe553 1.997 . S
O570 C565 1.235 . S
C571 O554 1.295 . S
C571 O555 1.235 . S
Fe572 O574 1.918 . S
Fe572 O577 1.997 . S
Fe572 O578 2.002 . S
Fe572 O583 1.976 . S
Fe572 O586 1.996 . S
Fe573 O574 1.918 . S
Fe573 O581 1.997 . S
Fe573 O584 1.996 . S
Fe573 O588 1.976 . S
Fe573 O591 2.002 . S
O574 Fe572 1.918 . S
O574 Fe573 1.918 . S
O574 Fe575 1.918 . S
Fe575 O574 1.918 . S
Fe575 O576 2.002 . S
Fe575 O585 1.976 . S
Fe575 O589 1.996 . S
Fe575 O592 1.997 . S
O576 Fe575 2.002 . S
O576 C593 1.295 . S
O577 Fe572 1.997 . S
O577 C593 1.235 . S
O578 Fe572 2.002 . S
O578 C579 1.295 . S
C579 O578 1.295 . S
C579 O581 1.235 . S
C580 O585 1.287 . S
C580 O586 1.255 . S
O581 Fe573 1.997 . S
O581 C579 1.235 . S
C582 O588 1.287 . S
C582 O589 1.255 . S
O583 Fe572 1.976 . S
O583 C590 1.287 . S
O584 Fe573 1.996 . S
O584 C590 1.255 . S
O585 Fe575 1.976 . S
O585 C580 1.287 . S
O586 Fe572 1.996 . S
O586 C580 1.255 . S
C587 O591 1.295 . S
C587 O592 1.235 . S
O588 Fe573 1.976 . S
O588 C582 1.287 . S
O589 Fe575 1.996 . S
O589 C582 1.255 . S
C590 O583 1.287 . S
C590 O584 1.255 . S
O591 Fe573 2.002 . S
O591 C587 1.295 . S
O592 Fe575 1.997 . S
O592 C587 1.235 . S
C593 O576 1.295 . S
C593 O577 1.235 . S
Fe594 O596 1.918 . S
Fe594 O599 1.997 . S
Fe594 O600 2.002 . S
Fe594 O605 1.976 . S
Fe594 O608 1.996 . S
Fe595 O596 1.918 . S
Fe595 O603 1.997 . S
Fe595 O606 1.996 . S
Fe595 O610 1.976 . S
Fe595 O613 2.002 . S
O596 Fe594 1.918 . S
O596 Fe595 1.918 . S
O596 Fe597 1.918 . S
Fe597 O596 1.918 . S
Fe597 O598 2.002 . S
Fe597 O607 1.976 . S
Fe597 O611 1.996 . S
Fe597 O614 1.997 . S
O598 Fe597 2.002 . S
O598 C615 1.295 . S
O599 Fe594 1.997 . S
O599 C615 1.235 . S
O600 Fe594 2.002 . S
O600 C601 1.295 . S
C601 O600 1.295 . S
C601 O603 1.235 . S
C602 O607 1.287 . S
C602 O608 1.255 . S
O603 Fe595 1.997 . S
O603 C601 1.235 . S
C604 O610 1.287 . S
C604 O611 1.255 . S
O605 Fe594 1.976 . S
O605 C612 1.287 . S
O606 Fe595 1.996 . S
O606 C612 1.255 . S
O607 Fe597 1.976 . S
O607 C602 1.287 . S
O608 Fe594 1.996 . S
O608 C602 1.255 . S
C609 O613 1.295 . S
C609 O614 1.235 . S
O610 Fe595 1.976 . S
O610 C604 1.287 . S
O611 Fe597 1.996 . S
O611 C604 1.255 . S
C612 O605 1.287 . S
C612 O606 1.255 . S
O613 Fe595 2.002 . S
O613 C609 1.295 . S
O614 Fe597 1.997 . S
O614 C609 1.235 . S
C615 O598 1.295 . S
C615 O599 1.235 . S
Fe616 O618 1.918 . S
Fe616 O621 1.997 . S
Fe616 O622 2.002 . S
Fe616 O627 1.976 . S
Fe616 O630 1.996 . S
Fe617 O618 1.918 . S
Fe617 O625 1.997 . S
Fe617 O628 1.996 . S
Fe617 O632 1.976 . S
Fe617 O635 2.002 . S
O618 Fe616 1.918 . S
O618 Fe617 1.918 . S
O618 Fe619 1.918 . S
Fe619 O618 1.918 . S
Fe619 O620 2.002 . S
Fe619 O629 1.976 . S
Fe619 O633 1.996 . S
Fe619 O636 1.997 . S
O620 Fe619 2.002 . S
O620 C637 1.295 . S
O621 Fe616 1.997 . S
O621 C637 1.235 . S
O622 Fe616 2.002 . S
O622 C623 1.295 . S
C623 O622 1.295 . S
C623 O625 1.235 . S
C624 O629 1.287 . S
C624 O630 1.255 . S
O625 Fe617 1.997 . S
O625 C623 1.235 . S
C626 O632 1.287 . S
C626 O633 1.255 . S
O627 Fe616 1.976 . S
O627 C634 1.287 . S
O628 Fe617 1.996 . S
O628 C634 1.255 . S
O629 Fe619 1.976 . S
O629 C624 1.287 . S
O630 Fe616 1.996 . S
O630 C624 1.255 . S
C631 O635 1.295 . S
C631 O636 1.235 . S
O632 Fe617 1.976 . S
O632 C626 1.287 . S
O633 Fe619 1.996 . S
O633 C626 1.255 . S
C634 O627 1.287 . S
C634 O628 1.255 . S
O635 Fe617 2.002 . S
O635 C631 1.295 . S
O636 Fe619 1.997 . S
O636 C631 1.235 . S
C637 O620 1.295 . S
C637 O621 1.235 . S
Fe638 O640 1.918 . S
Fe638 O643 1.997 . S
Fe638 O644 2.002 . S
Fe638 O649 1.976 . S
Fe638 O652 1.996 . S
Fe639 O640 1.918 . S
Fe639 O647 1.997 . S
Fe639 O650 1.996 . S
Fe639 O654 1.976 . S
Fe639 O657 2.002 . S
O640 Fe638 1.918 . S
O640 Fe639 1.918 . S
O640 Fe641 1.918 . S
Fe641 O640 1.918 . S
Fe641 O642 2.002 . S
Fe641 O651 1.976 . S
Fe641 O655 1.996 . S
Fe641 O658 1.997 . S
O642 Fe641 2.002 . S
O642 C659 1.295 . S
O643 Fe638 1.997 . S
O643 C659 1.235 . S
O644 Fe638 2.002 . S
O644 C645 1.295 . S
C645 O644 1.295 . S
C645 O647 1.235 . S
C646 O651 1.287 . S
C646 O652 1.255 . S
O647 Fe639 1.997 . S
O647 C645 1.235 . S
C648 O654 1.287 . S
C648 O655 1.255 . S
O649 Fe638 1.976 . S
O649 C656 1.287 . S
O650 Fe639 1.996 . S
O650 C656 1.255 . S
O651 Fe641 1.976 . S
O651 C646 1.287 . S
O652 Fe638 1.996 . S
O652 C646 1.255 . S
C653 O657 1.295 . S
C653 O658 1.235 . S
O654 Fe639 1.976 . S
O654 C648 1.287 . S
O655 Fe641 1.996 . S
O655 C648 1.255 . S
C656 O649 1.287 . S
C656 O650 1.255 . S
O657 Fe639 2.002 . S
O657 C653 1.295 . S
O658 Fe641 1.997 . S
O658 C653 1.235 . S
C659 O642 1.295 . S
C659 O643 1.235 . S
Fe660 O662 1.918 . S
Fe660 O665 1.997 . S
Fe660 O666 2.002 . S
Fe660 O671 1.976 . S
Fe660 O674 1.996 . S
Fe661 O662 1.918 . S
Fe661 O669 1.997 . S
Fe661 O672 1.996 . S
Fe661 O676 1.976 . S
Fe661 O679 2.002 . S
O662 Fe660 1.918 . S
O662 Fe661 1.918 . S
O662 Fe663 1.918 . S
Fe663 O662 1.918 . S
Fe663 O664 2.002 . S
Fe663 O673 1.976 . S
Fe663 O677 1.996 . S
Fe663 O680 1.997 . S
O664 Fe663 2.002 . S
O664 C681 1.295 . S
O665 Fe660 1.997 . S
O665 C681 1.235 . S
O666 Fe660 2.002 . S
O666 C667 1.295 . S
C667 O666 1.295 . S
C667 O669 1.235 . S
C668 O673 1.287 . S
C668 O674 1.255 . S
O669 Fe661 1.997 . S
O669 C667 1.235 . S
C670 O676 1.287 . S
C670 O677 1.255 . S
O671 Fe660 1.976 . S
O671 C678 1.287 . S
O672 Fe661 1.996 . S
O672 C678 1.255 . S
O673 Fe663 1.976 . S
O673 C668 1.287 . S
O674 Fe660 1.996 . S
O674 C668 1.255 . S
C675 O679 1.295 . S
C675 O680 1.235 . S
O676 Fe661 1.976 . S
O676 C670 1.287 . S
O677 Fe663 1.996 . S
O677 C670 1.255 . S
C678 O671 1.287 . S
C678 O672 1.255 . S
O679 Fe661 2.002 . S
O679 C675 1.295 . S
O680 Fe663 1.997 . S
O680 C675 1.235 . S
C681 O664 1.295 . S
C681 O665 1.235 . S
Fe682 O684 1.918 . S
Fe682 O687 1.997 . S
Fe682 O688 2.002 . S
Fe682 O693 1.976 . S
Fe682 O696 1.996 . S
Fe683 O684 1.918 . S
Fe683 O691 1.997 . S
Fe683 O694 1.996 . S
Fe683 O698 1.976 . S
Fe683 O701 2.002 . S
O684 Fe682 1.918 . S
O684 Fe683 1.918 . S
O684 Fe685 1.918 . S
Fe685 O684 1.918 . S
Fe685 O686 2.002 . S
Fe685 O695 1.976 . S
Fe685 O699 1.996 . S
Fe685 O702 1.997 . S
O686 Fe685 2.002 . S
O686 C703 1.295 . S
O687 Fe682 1.997 . S
O687 C703 1.235 . S
O688 Fe682 2.002 . S
O688 C689 1.295 . S
C689 O688 1.295 . S
C689 O691 1.235 . S
C690 O695 1.287 . S
C690 O696 1.255 . S
O691 Fe683 1.997 . S
O691 C689 1.235 . S
C692 O698 1.287 . S
C692 O699 1.255 . S
O693 Fe682 1.976 . S
O693 C700 1.287 . S
O694 Fe683 1.996 . S
O694 C700 1.255 . S
O695 Fe685 1.976 . S
O695 C690 1.287 . S
O696 Fe682 1.996 . S
O696 C690 1.255 . S
C697 O701 1.295 . S
C697 O702 1.235 . S
O698 Fe683 1.976 . S
O698 C692 1.287 . S
O699 Fe685 1.996 . S
O699 C692 1.255 . S
C700 O693 1.287 . S
C700 O694 1.255 . S
O701 Fe683 2.002 . S
O701 C697 1.295 . S
O702 Fe685 1.997 . S
O702 C697 1.235 . S
C703 O686 1.295 . S
C703 O687 1.235 . S
C704 C705 1.363 . S
C704 C710 1.379 . S
C704 N712 1.356 . S
C705 C704 1.363 . S
C705 C711 1.363 . S
C706 C707 1.363 . S
C706 C711 1.379 . S
C706 N713 1.356 . S
C707 C706 1.363 . S
C707 C710 1.363 . S
N708 C710 1.356 . S
N708 H720 0.984 . S
N708 H721 0.985 . S
N709 C711 1.356 . S
N709 H714 0.984 . S
N709 H715 0.985 . S
C710 C704 1.379 . S
C710 C707 1.363 . S
C710 N708 1.356 . S
C711 C705 1.363 . S
C711 C706 1.379 . S
C711 N709 1.356 . S
N712 C704 1.356 . S
N712 H718 0.984 . S
N712 H719 0.984 . S
N713 C706 1.356 . S
N713 H716 0.984 . S
N713 H717 0.985 . S
H714 N709 0.984 . S
H715 N709 0.985 . S
H716 N713 0.984 . S
H717 N713 0.985 . S
H718 N712 0.984 . S
H719 N712 0.984 . S
H720 N708 0.984 . S
H721 N708 0.985 . S
C722 C723 1.363 . S
C722 C728 1.379 . S
C722 N730 1.356 . S
C723 C722 1.363 . S
C723 C729 1.363 . S
C724 C725 1.363 . S
C724 C729 1.379 . S
C724 N731 1.356 . S
C725 C724 1.363 . S
C725 C728 1.363 . S
N726 C728 1.356 . S
N726 H738 0.984 . S
N726 H739 0.985 . S
N727 C729 1.356 . S
N727 H732 0.984 . S
N727 H733 0.985 . S
C728 C722 1.379 . S
C728 C725 1.363 . S
C728 N726 1.356 . S
C729 C723 1.363 . S
C729 C724 1.379 . S
C729 N727 1.356 . S
N730 C722 1.356 . S
N730 H736 0.984 . S
N730 H737 0.984 . S
N731 C724 1.356 . S
N731 H734 0.984 . S
N731 H735 0.985 . S
H732 N727 0.984 . S
H733 N727 0.985 . S
H734 N731 0.984 . S
H735 N731 0.985 . S
H736 N730 0.984 . S
H737 N730 0.984 . S
H738 N726 0.984 . S
H739 N726 0.985 . S
C740 C741 1.363 . S
C740 C746 1.379 . S
C740 N748 1.356 . S
C741 C740 1.363 . S
C741 C747 1.363 . S
C742 C743 1.363 . S
C742 C747 1.379 . S
C742 N749 1.356 . S
C743 C742 1.363 . S
C743 C746 1.363 . S
N744 C746 1.356 . S
N744 H756 0.984 . S
N744 H757 0.985 . S
N745 C747 1.356 . S
N745 H750 0.984 . S
N745 H751 0.985 . S
C746 C740 1.379 . S
C746 C743 1.363 . S
C746 N744 1.356 . S
C747 C741 1.363 . S
C747 C742 1.379 . S
C747 N745 1.356 . S
N748 C740 1.356 . S
N748 H754 0.984 . S
N748 H755 0.984 . S
N749 C742 1.356 . S
N749 H752 0.984 . S
N749 H753 0.985 . S
H750 N745 0.984 . S
H751 N745 0.985 . S
H752 N749 0.984 . S
H753 N749 0.985 . S
H754 N748 0.984 . S
H755 N748 0.984 . S
H756 N744 0.984 . S
H757 N744 0.985 . S
C758 C759 1.363 . S
C758 C764 1.379 . S
C758 N766 1.356 . S
C759 C758 1.363 . S
C759 C765 1.363 . S
C760 C761 1.363 . S
C760 C765 1.379 . S
C760 N767 1.356 . S
C761 C760 1.363 . S
C761 C764 1.363 . S
N762 C764 1.356 . S
N762 H774 0.984 . S
N762 H775 0.985 . S
N763 C765 1.356 . S
N763 H768 0.984 . S
N763 H769 0.985 . S
C764 C758 1.379 . S
C764 C761 1.363 . S
C764 N762 1.356 . S
C765 C759 1.363 . S
C765 C760 1.379 . S
C765 N763 1.356 . S
N766 C758 1.356 . S
N766 H772 0.984 . S
N766 H773 0.984 . S
N767 C760 1.356 . S
N767 H770 0.984 . S
N767 H771 0.985 . S
H768 N763 0.984 . S
H769 N763 0.985 . S
H770 N767 0.984 . S
H771 N767 0.985 . S
H772 N766 0.984 . S
H773 N766 0.984 . S
H774 N762 0.984 . S
H775 N762 0.985 . S
C776 C777 1.363 . S
C776 C782 1.379 . S
C776 N784 1.356 . S
C777 C776 1.363 . S
C777 C783 1.363 . S
C778 C779 1.363 . S
C778 C783 1.379 . S
C778 N785 1.356 . S
C779 C778 1.363 . S
C779 C782 1.363 . S
N780 C782 1.356 . S
N780 H792 0.984 . S
N780 H793 0.985 . S
N781 C783 1.356 . S
N781 H786 0.984 . S
N781 H787 0.985 . S
C782 C776 1.379 . S
C782 C779 1.363 . S
C782 N780 1.356 . S
C783 C777 1.363 . S
C783 C778 1.379 . S
C783 N781 1.356 . S
N784 C776 1.356 . S
N784 H790 0.984 . S
N784 H791 0.984 . S
N785 C778 1.356 . S
N785 H788 0.984 . S
N785 H789 0.985 . S
H786 N781 0.984 . S
H787 N781 0.985 . S
H788 N785 0.984 . S
H789 N785 0.985 . S
H790 N784 0.984 . S
H791 N784 0.984 . S
H792 N780 0.984 . S
H793 N780 0.985 . S
C794 C795 1.363 . S
C794 C800 1.379 . S
C794 N802 1.356 . S
C795 C794 1.363 . S
C795 C801 1.363 . S
C796 C797 1.363 . S
C796 C801 1.379 . S
C796 N803 1.356 . S
C797 C796 1.363 . S
C797 C800 1.363 . S
N798 C800 1.356 . S
N798 H810 0.984 . S
N798 H811 0.985 . S
N799 C801 1.356 . S
N799 H804 0.984 . S
N799 H805 0.985 . S
C800 C794 1.379 . S
C800 C797 1.363 . S
C800 N798 1.356 . S
C801 C795 1.363 . S
C801 C796 1.379 . S
C801 N799 1.356 . S
N802 C794 1.356 . S
N802 H808 0.984 . S
N802 H809 0.984 . S
N803 C796 1.356 . S
N803 H806 0.984 . S
N803 H807 0.985 . S
H804 N799 0.984 . S
H805 N799 0.985 . S
H806 N803 0.984 . S
H807 N803 0.985 . S
H808 N802 0.984 . S
H809 N802 0.984 . S
H810 N798 0.984 . S
H811 N798 0.985 . S
C812 C813 1.363 . S
C812 C818 1.379 . S
C812 N820 1.356 . S
C813 C812 1.363 . S
C813 C819 1.363 . S
C814 C815 1.363 . S
C814 C819 1.379 . S
C814 N821 1.356 . S
C815 C814 1.363 . S
C815 C818 1.363 . S
N816 C818 1.356 . S
N816 H828 0.984 . S
N816 H829 0.985 . S
N817 C819 1.356 . S
N817 H822 0.984 . S
N817 H823 0.985 . S
C818 C812 1.379 . S
C818 C815 1.363 . S
C818 N816 1.356 . S
C819 C813 1.363 . S
C819 C814 1.379 . S
C819 N817 1.356 . S
N820 C812 1.356 . S
N820 H826 0.984 . S
N820 H827 0.984 . S
N821 C814 1.356 . S
N821 H824 0.984 . S
N821 H825 0.985 . S
H822 N817 0.984 . S
H823 N817 0.985 . S
H824 N821 0.984 . S
H825 N821 0.985 . S
H826 N820 0.984 . S
H827 N820 0.984 . S
H828 N816 0.984 . S
H829 N816 0.985 . S
C830 C831 1.363 . S
C830 C836 1.379 . S
C830 N838 1.356 . S
C831 C830 1.363 . S
C831 C837 1.363 . S
C832 C833 1.363 . S
C832 C837 1.379 . S
C832 N839 1.356 . S
C833 C832 1.363 . S
C833 C836 1.363 . S
N834 C836 1.356 . S
N834 H846 0.984 . S
N834 H847 0.985 . S
N835 C837 1.356 . S
N835 H840 0.984 . S
N835 H841 0.985 . S
C836 C830 1.379 . S
C836 C833 1.363 . S
C836 N834 1.356 . S
C837 C831 1.363 . S
C837 C832 1.379 . S
C837 N835 1.356 . S
N838 C830 1.356 . S
N838 H844 0.984 . S
N838 H845 0.984 . S
N839 C832 1.356 . S
N839 H842 0.984 . S
N839 H843 0.985 . S
H840 N835 0.984 . S
H841 N835 0.985 . S
H842 N839 0.984 . S
H843 N839 0.985 . S
H844 N838 0.984 . S
H845 N838 0.984 . S
H846 N834 0.984 . S
H847 N834 0.985 . S
C848 C849 1.363 . S
C848 C854 1.379 . S
C848 N856 1.356 . S
C849 C848 1.363 . S
C849 C855 1.363 . S
C850 C851 1.363 . S
C850 C855 1.379 . S
C850 N857 1.356 . S
C851 C850 1.363 . S
C851 C854 1.363 . S
N852 C854 1.356 . S
N852 H864 0.984 . S
N852 H865 0.985 . S
N853 C855 1.356 . S
N853 H858 0.984 . S
N853 H859 0.985 . S
C854 C848 1.379 . S
C854 C851 1.363 . S
C854 N852 1.356 . S
C855 C849 1.363 . S
C855 C850 1.379 . S
C855 N853 1.356 . S
N856 C848 1.356 . S
N856 H862 0.984 . S
N856 H863 0.984 . S
N857 C850 1.356 . S
N857 H860 0.984 . S
N857 H861 0.985 . S
H858 N853 0.984 . S
H859 N853 0.985 . S
H860 N857 0.984 . S
H861 N857 0.985 . S
H862 N856 0.984 . S
H863 N856 0.984 . S
H864 N852 0.984 . S
H865 N852 0.985 . S
C866 C867 1.363 . S
C866 C872 1.379 . S
C866 N874 1.356 . S
C867 C866 1.363 . S
C867 C873 1.363 . S
C868 C869 1.363 . S
C868 C873 1.379 . S
C868 N875 1.356 . S
C869 C868 1.363 . S
C869 C872 1.363 . S
N870 C872 1.356 . S
N870 H882 0.984 . S
N870 H883 0.985 . S
N871 C873 1.356 . S
N871 H876 0.984 . S
N871 H877 0.985 . S
C872 C866 1.379 . S
C872 C869 1.363 . S
C872 N870 1.356 . S
C873 C867 1.363 . S
C873 C868 1.379 . S
C873 N871 1.356 . S
N874 C866 1.356 . S
N874 H880 0.984 . S
N874 H881 0.984 . S
N875 C868 1.356 . S
N875 H878 0.984 . S
N875 H879 0.985 . S
H876 N871 0.984 . S
H877 N871 0.985 . S
H878 N875 0.984 . S
H879 N875 0.985 . S
H880 N874 0.984 . S
H881 N874 0.984 . S
H882 N870 0.984 . S
H883 N870 0.985 . S
C884 C885 1.363 . S
C884 C890 1.379 . S
C884 N892 1.356 . S
C885 C884 1.363 . S
C885 C891 1.363 . S
C886 C887 1.363 . S
C886 C891 1.379 . S
C886 N893 1.356 . S
C887 C886 1.363 . S
C887 C890 1.363 . S
N888 C890 1.356 . S
N888 H900 0.984 . S
N888 H901 0.985 . S
N889 C891 1.356 . S
N889 H894 0.984 . S
N889 H895 0.985 . S
C890 C884 1.379 . S
C890 C887 1.363 . S
C890 N888 1.356 . S
C891 C885 1.363 . S
C891 C886 1.379 . S
C891 N889 1.356 . S
N892 C884 1.356 . S
N892 H898 0.984 . S
N892 H899 0.984 . S
N893 C886 1.356 . S
N893 H896 0.984 . S
N893 H897 0.985 . S
H894 N889 0.984 . S
H895 N889 0.985 . S
H896 N893 0.984 . S
H897 N893 0.985 . S
H898 N892 0.984 . S
H899 N892 0.984 . S
H900 N888 0.984 . S
H901 N888 0.985 . S
C902 C903 1.363 . S
C902 C908 1.379 . S
C902 N910 1.356 . S
C903 C902 1.363 . S
C903 C909 1.363 . S
C904 C905 1.363 . S
C904 C909 1.379 . S
C904 N911 1.356 . S
C905 C904 1.363 . S
C905 C908 1.363 . S
N906 C908 1.356 . S
N906 H918 0.984 . S
N906 H919 0.985 . S
N907 C909 1.356 . S
N907 H912 0.984 . S
N907 H913 0.985 . S
C908 C902 1.379 . S
C908 C905 1.363 . S
C908 N906 1.356 . S
C909 C903 1.363 . S
C909 C904 1.379 . S
C909 N907 1.356 . S
N910 C902 1.356 . S
N910 H916 0.984 . S
N910 H917 0.984 . S
N911 C904 1.356 . S
N911 H914 0.984 . S
N911 H915 0.985 . S
H912 N907 0.984 . S
H913 N907 0.985 . S
H914 N911 0.984 . S
H915 N911 0.985 . S
H916 N910 0.984 . S
H917 N910 0.984 . S
H918 N906 0.984 . S
H919 N906 0.985 . S
C920 C921 1.363 . S
C920 C926 1.379 . S
C920 N928 1.356 . S
C921 C920 1.363 . S
C921 C927 1.363 . S
C922 C923 1.363 . S
C922 C927 1.379 . S
C922 N929 1.356 . S
C923 C922 1.363 . S
C923 C926 1.363 . S
N924 C926 1.356 . S
N924 H936 0.984 . S
N924 H937 0.985 . S
N925 C927 1.356 . S
N925 H930 0.984 . S
N925 H931 0.985 . S
C926 C920 1.379 . S
C926 C923 1.363 . S
C926 N924 1.356 . S
C927 C921 1.363 . S
C927 C922 1.379 . S
C927 N925 1.356 . S
N928 C920 1.356 . S
N928 H934 0.984 . S
N928 H935 0.984 . S
N929 C922 1.356 . S
N929 H932 0.984 . S
N929 H933 0.985 . S
H930 N925 0.984 . S
H931 N925 0.985 . S
H932 N929 0.984 . S
H933 N929 0.985 . S
H934 N928 0.984 . S
H935 N928 0.984 . S
H936 N924 0.984 . S
H937 N924 0.985 . S
C938 C939 1.363 . S
C938 C944 1.379 . S
C938 N946 1.356 . S
C939 C938 1.363 . S
C939 C945 1.363 . S
C940 C941 1.363 . S
C940 C945 1.379 . S
C940 N947 1.356 . S
C941 C940 1.363 . S
C941 C944 1.363 . S
N942 C944 1.356 . S
N942 H954 0.984 . S
N942 H955 0.985 . S
N943 C945 1.356 . S
N943 H948 0.984 . S
N943 H949 0.985 . S
C944 C938 1.379 . S
C944 C941 1.363 . S
C944 N942 1.356 . S
C945 C939 1.363 . S
C945 C940 1.379 . S
C945 N943 1.356 . S
N946 C938 1.356 . S
N946 H952 0.984 . S
N946 H953 0.984 . S
N947 C940 1.356 . S
N947 H950 0.984 . S
N947 H951 0.985 . S
H948 N943 0.984 . S
H949 N943 0.985 . S
H950 N947 0.984 . S
H951 N947 0.985 . S
H952 N946 0.984 . S
H953 N946 0.984 . S
H954 N942 0.984 . S
H955 N942 0.985 . S
C956 C957 1.363 . S
C956 C962 1.379 . S
C956 N964 1.356 . S
C957 C956 1.363 . S
C957 C963 1.363 . S
C958 C959 1.363 . S
C958 C963 1.379 . S
C958 N965 1.356 . S
C959 C958 1.363 . S
C959 C962 1.363 . S
N960 C962 1.356 . S
N960 H972 0.984 . S
N960 H973 0.985 . S
N961 C963 1.356 . S
N961 H966 0.984 . S
N961 H967 0.985 . S
C962 C956 1.379 . S
C962 C959 1.363 . S
C962 N960 1.356 . S
C963 C957 1.363 . S
C963 C958 1.379 . S
C963 N961 1.356 . S
N964 C956 1.356 . S
N964 H970 0.984 . S
N964 H971 0.984 . S
N965 C958 1.356 . S
N965 H968 0.984 . S
N965 H969 0.985 . S
H966 N961 0.984 . S
H967 N961 0.985 . S
H968 N965 0.984 . S
H969 N965 0.985 . S
H970 N964 0.984 . S
H971 N964 0.984 . S
H972 N960 0.984 . S
H973 N960 0.985 . S
C974 C975 1.363 . S
C974 C980 1.379 . S
C974 N982 1.356 . S
C975 C974 1.363 . S
C975 C981 1.363 . S
C976 C977 1.363 . S
C976 C981 1.379 . S
C976 N983 1.356 . S
C977 C976 1.363 . S
C977 C980 1.363 . S
N978 C980 1.356 . S
N978 H990 0.984 . S
N978 H991 0.985 . S
N979 C981 1.356 . S
N979 H984 0.984 . S
N979 H985 0.985 . S
C980 C974 1.379 . S
C980 C977 1.363 . S
C980 N978 1.356 . S
C981 C975 1.363 . S
C981 C976 1.379 . S
C981 N979 1.356 . S
N982 C974 1.356 . S
N982 H988 0.984 . S
N982 H989 0.984 . S
N983 C976 1.356 . S
N983 H986 0.984 . S
N983 H987 0.985 . S
H984 N979 0.984 . S
H985 N979 0.985 . S
H986 N983 0.984 . S
H987 N983 0.985 . S
H988 N982 0.984 . S
H989 N982 0.984 . S
H990 N978 0.984 . S
H991 N978 0.985 . S
C992 C993 1.363 . S
C992 C998 1.379 . S
C992 N1000 1.356 . S
C993 C992 1.363 . S
C993 C999 1.363 . S
C994 C995 1.363 . S
C994 C999 1.379 . S
C994 N1001 1.356 . S
C995 C994 1.363 . S
C995 C998 1.363 . S
N996 C998 1.356 . S
N996 H1008 0.984 . S
N996 H1009 0.985 . S
N997 C999 1.356 . S
N997 H1002 0.984 . S
N997 H1003 0.985 . S
C998 C992 1.379 . S
C998 C995 1.363 . S
C998 N996 1.356 . S
C999 C993 1.363 . S
C999 C994 1.379 . S
C999 N997 1.356 . S
N1000 C992 1.356 . S
N1000 H1006 0.984 . S
N1000 H1007 0.984 . S
N1001 C994 1.356 . S
N1001 H1004 0.984 . S
N1001 H1005 0.985 . S
H1002 N997 0.984 . S
H1003 N997 0.985 . S
H1004 N1001 0.984 . S
H1005 N1001 0.985 . S
H1006 N1000 0.984 . S
H1007 N1000 0.984 . S
H1008 N996 0.984 . S
H1009 N996 0.985 . S
C1010 C1011 1.363 . S
C1010 C1016 1.379 . S
C1010 N1018 1.356 . S
C1011 C1010 1.363 . S
C1011 C1017 1.363 . S
C1012 C1013 1.363 . S
C1012 C1017 1.379 . S
C1012 N1019 1.356 . S
C1013 C1012 1.363 . S
C1013 C1016 1.363 . S
N1014 C1016 1.356 . S
N1014 H1026 0.984 . S
N1014 H1027 0.985 . S
N1015 C1017 1.356 . S
N1015 H1020 0.984 . S
N1015 H1021 0.985 . S
C1016 C1010 1.379 . S
C1016 C1013 1.363 . S
C1016 N1014 1.356 . S
C1017 C1011 1.363 . S
C1017 C1012 1.379 . S
C1017 N1015 1.356 . S
N1018 C1010 1.356 . S
N1018 H1024 0.984 . S
N1018 H1025 0.984 . S
N1019 C1012 1.356 . S
N1019 H1022 0.984 . S
N1019 H1023 0.985 . S
H1020 N1015 0.984 . S
H1021 N1015 0.985 . S
H1022 N1019 0.984 . S
H1023 N1019 0.985 . S
H1024 N1018 0.984 . S
H1025 N1018 0.984 . S
H1026 N1014 0.984 . S
H1027 N1014 0.985 . S
C1028 C1029 1.363 . S
C1028 C1034 1.379 . S
C1028 N1036 1.356 . S
C1029 C1028 1.363 . S
C1029 C1035 1.363 . S
C1030 C1031 1.363 . S
C1030 C1035 1.379 . S
C1030 N1037 1.356 . S
C1031 C1030 1.363 . S
C1031 C1034 1.363 . S
N1032 C1034 1.356 . S
N1032 H1044 0.984 . S
N1032 H1045 0.985 . S
N1033 C1035 1.356 . S
N1033 H1038 0.984 . S
N1033 H1039 0.985 . S
C1034 C1028 1.379 . S
C1034 C1031 1.363 . S
C1034 N1032 1.356 . S
C1035 C1029 1.363 . S
C1035 C1030 1.379 . S
C1035 N1033 1.356 . S
N1036 C1028 1.356 . S
N1036 H1042 0.984 . S
N1036 H1043 0.984 . S
N1037 C1030 1.356 . S
N1037 H1040 0.984 . S
N1037 H1041 0.985 . S
H1038 N1033 0.984 . S
H1039 N1033 0.985 . S
H1040 N1037 0.984 . S
H1041 N1037 0.985 . S
H1042 N1036 0.984 . S
H1043 N1036 0.984 . S
H1044 N1032 0.984 . S
H1045 N1032 0.985 . S
C1046 C1047 1.363 . S
C1046 C1052 1.379 . S
C1046 N1054 1.356 . S
C1047 C1046 1.363 . S
C1047 C1053 1.363 . S
C1048 C1049 1.363 . S
C1048 C1053 1.379 . S
C1048 N1055 1.356 . S
C1049 C1048 1.363 . S
C1049 C1052 1.363 . S
N1050 C1052 1.356 . S
N1050 H1062 0.984 . S
N1050 H1063 0.985 . S
N1051 C1053 1.356 . S
N1051 H1056 0.984 . S
N1051 H1057 0.985 . S
C1052 C1046 1.379 . S
C1052 C1049 1.363 . S
C1052 N1050 1.356 . S
C1053 C1047 1.363 . S
C1053 C1048 1.379 . S
C1053 N1051 1.356 . S
N1054 C1046 1.356 . S
N1054 H1060 0.984 . S
N1054 H1061 0.984 . S
N1055 C1048 1.356 . S
N1055 H1058 0.984 . S
N1055 H1059 0.985 . S
H1056 N1051 0.984 . S
H1057 N1051 0.985 . S
H1058 N1055 0.984 . S
H1059 N1055 0.985 . S
H1060 N1054 0.984 . S
H1061 N1054 0.984 . S
H1062 N1050 0.984 . S
H1063 N1050 0.985 . S
C1064 C1065 1.363 . S
C1064 C1070 1.379 . S
C1064 N1072 1.356 . S
C1065 C1064 1.363 . S
C1065 C1071 1.363 . S
C1066 C1067 1.363 . S
C1066 C1071 1.379 . S
C1066 N1073 1.356 . S
C1067 C1066 1.363 . S
C1067 C1070 1.363 . S
N1068 C1070 1.356 . S
N1068 H1080 0.984 . S
N1068 H1081 0.985 . S
N1069 C1071 1.356 . S
N1069 H1074 0.984 . S
N1069 H1075 0.985 . S
C1070 C1064 1.379 . S
C1070 C1067 1.363 . S
C1070 N1068 1.356 . S
C1071 C1065 1.363 . S
C1071 C1066 1.379 . S
C1071 N1069 1.356 . S
N1072 C1064 1.356 . S
N1072 H1078 0.984 . S
N1072 H1079 0.984 . S
N1073 C1066 1.356 . S
N1073 H1076 0.984 . S
N1073 H1077 0.985 . S
H1074 N1069 0.984 . S
H1075 N1069 0.985 . S
H1076 N1073 0.984 . S
H1077 N1073 0.985 . S
H1078 N1072 0.984 . S
H1079 N1072 0.984 . S
H1080 N1068 0.984 . S
H1081 N1068 0.985 . S
C1082 C1083 1.363 . S
C1082 C1088 1.379 . S
C1082 N1090 1.356 . S
C1083 C1082 1.363 . S
C1083 C1089 1.363 . S
C1084 C1085 1.363 . S
C1084 C1089 1.379 . S
C1084 N1091 1.356 . S
C1085 C1084 1.363 . S
C1085 C1088 1.363 . S
N1086 C1088 1.356 . S
N1086 H1098 0.984 . S
N1086 H1099 0.985 . S
N1087 C1089 1.356 . S
N1087 H1092 0.984 . S
N1087 H1093 0.985 . S
C1088 C1082 1.379 . S
C1088 C1085 1.363 . S
C1088 N1086 1.356 . S
C1089 C1083 1.363 . S
C1089 C1084 1.379 . S
C1089 N1087 1.356 . S
N1090 C1082 1.356 . S
N1090 H1096 0.984 . S
N1090 H1097 0.984 . S
N1091 C1084 1.356 . S
N1091 H1094 0.984 . S
N1091 H1095 0.985 . S
H1092 N1087 0.984 . S
H1093 N1087 0.985 . S
H1094 N1091 0.984 . S
H1095 N1091 0.985 . S
H1096 N1090 0.984 . S
H1097 N1090 0.984 . S
H1098 N1086 0.984 . S
H1099 N1086 0.985 . S
C1100 C1101 1.363 . S
C1100 C1106 1.379 . S
C1100 N1108 1.356 . S
C1101 C1100 1.363 . S
C1101 C1107 1.363 . S
C1102 C1103 1.363 . S
C1102 C1107 1.379 . S
C1102 N1109 1.356 . S
C1103 C1102 1.363 . S
C1103 C1106 1.363 . S
N1104 C1106 1.356 . S
N1104 H1116 0.984 . S
N1104 H1117 0.985 . S
N1105 C1107 1.356 . S
N1105 H1110 0.984 . S
N1105 H1111 0.985 . S
C1106 C1100 1.379 . S
C1106 C1103 1.363 . S
C1106 N1104 1.356 . S
C1107 C1101 1.363 . S
C1107 C1102 1.379 . S
C1107 N1105 1.356 . S
N1108 C1100 1.356 . S
N1108 H1114 0.984 . S
N1108 H1115 0.984 . S
N1109 C1102 1.356 . S
N1109 H1112 0.984 . S
N1109 H1113 0.985 . S
H1110 N1105 0.984 . S
H1111 N1105 0.985 . S
H1112 N1109 0.984 . S
H1113 N1109 0.985 . S
H1114 N1108 0.984 . S
H1115 N1108 0.984 . S
H1116 N1104 0.984 . S
H1117 N1104 0.985 . S
C1118 C1119 1.363 . S
C1118 C1124 1.379 . S
C1118 N1126 1.356 . S
C1119 C1118 1.363 . S
C1119 C1125 1.363 . S
C1120 C1121 1.363 . S
C1120 C1125 1.379 . S
C1120 N1127 1.356 . S
C1121 C1120 1.363 . S
C1121 C1124 1.363 . S
N1122 C1124 1.356 . S
N1122 H1134 0.984 . S
N1122 H1135 0.985 . S
N1123 C1125 1.356 . S
N1123 H1128 0.984 . S
N1123 H1129 0.985 . S
C1124 C1118 1.379 . S
C1124 C1121 1.363 . S
C1124 N1122 1.356 . S
C1125 C1119 1.363 . S
C1125 C1120 1.379 . S
C1125 N1123 1.356 . S
N1126 C1118 1.356 . S
N1126 H1132 0.984 . S
N1126 H1133 0.984 . S
N1127 C1120 1.356 . S
N1127 H1130 0.984 . S
N1127 H1131 0.985 . S
H1128 N1123 0.984 . S
H1129 N1123 0.985 . S
H1130 N1127 0.984 . S
H1131 N1127 0.985 . S
H1132 N1126 0.984 . S
H1133 N1126 0.984 . S
H1134 N1122 0.984 . S
H1135 N1122 0.985 . S
C1136 C1137 1.363 . S
C1136 C1142 1.379 . S
C1136 N1144 1.356 . S
C1137 C1136 1.363 . S
C1137 C1143 1.363 . S
C1138 C1139 1.363 . S
C1138 C1143 1.379 . S
C1138 N1145 1.356 . S
C1139 C1138 1.363 . S
C1139 C1142 1.363 . S
N1140 C1142 1.356 . S
N1140 H1152 0.984 . S
N1140 H1153 0.985 . S
N1141 C1143 1.356 . S
N1141 H1146 0.984 . S
N1141 H1147 0.985 . S
C1142 C1136 1.379 . S
C1142 C1139 1.363 . S
C1142 N1140 1.356 . S
C1143 C1137 1.363 . S
C1143 C1138 1.379 . S
C1143 N1141 1.356 . S
N1144 C1136 1.356 . S
N1144 H1150 0.984 . S
N1144 H1151 0.984 . S
N1145 C1138 1.356 . S
N1145 H1148 0.984 . S
N1145 H1149 0.985 . S
H1146 N1141 0.984 . S
H1147 N1141 0.985 . S
H1148 N1145 0.984 . S
H1149 N1145 0.985 . S
H1150 N1144 0.984 . S
H1151 N1144 0.984 . S
H1152 N1140 0.984 . S
H1153 N1140 0.985 . S
C1154 C1155 1.363 . S
C1154 C1160 1.379 . S
C1154 N1162 1.356 . S
C1155 C1154 1.363 . S
C1155 C1161 1.363 . S
C1156 C1157 1.363 . S
C1156 C1161 1.379 . S
C1156 N1163 1.356 . S
C1157 C1156 1.363 . S
C1157 C1160 1.363 . S
N1158 C1160 1.356 . S
N1158 H1170 0.984 . S
N1158 H1171 0.985 . S
N1159 C1161 1.356 . S
N1159 H1164 0.984 . S
N1159 H1165 0.985 . S
C1160 C1154 1.379 . S
C1160 C1157 1.363 . S
C1160 N1158 1.356 . S
C1161 C1155 1.363 . S
C1161 C1156 1.379 . S
C1161 N1159 1.356 . S
N1162 C1154 1.356 . S
N1162 H1168 0.984 . S
N1162 H1169 0.984 . S
N1163 C1156 1.356 . S
N1163 H1166 0.984 . S
N1163 H1167 0.985 . S
H1164 N1159 0.984 . S
H1165 N1159 0.985 . S
H1166 N1163 0.984 . S
H1167 N1163 0.985 . S
H1168 N1162 0.984 . S
H1169 N1162 0.984 . S
H1170 N1158 0.984 . S
H1171 N1158 0.985 . S
C1172 C1173 1.363 . S
C1172 C1178 1.379 . S
C1172 N1180 1.356 . S
C1173 C1172 1.363 . S
C1173 C1179 1.363 . S
C1174 C1175 1.363 . S
C1174 C1179 1.379 . S
C1174 N1181 1.356 . S
C1175 C1174 1.363 . S
C1175 C1178 1.363 . S
N1176 C1178 1.356 . S
N1176 H1188 0.984 . S
N1176 H1189 0.985 . S
N1177 C1179 1.356 . S
N1177 H1182 0.984 . S
N1177 H1183 0.985 . S
C1178 C1172 1.379 . S
C1178 C1175 1.363 . S
C1178 N1176 1.356 . S
C1179 C1173 1.363 . S
C1179 C1174 1.379 . S
C1179 N1177 1.356 . S
N1180 C1172 1.356 . S
N1180 H1186 0.984 . S
N1180 H1187 0.984 . S
N1181 C1174 1.356 . S
N1181 H1184 0.984 . S
N1181 H1185 0.985 . S
H1182 N1177 0.984 . S
H1183 N1177 0.985 . S
H1184 N1181 0.984 . S
H1185 N1181 0.985 . S
H1186 N1180 0.984 . S
H1187 N1180 0.984 . S
H1188 N1176 0.984 . S
H1189 N1176 0.985 . S
C1190 C1191 1.363 . S
C1190 C1196 1.379 . S
C1190 N1198 1.356 . S
C1191 C1190 1.363 . S
C1191 C1197 1.363 . S
C1192 C1193 1.363 . S
C1192 C1197 1.379 . S
C1192 N1199 1.356 . S
C1193 C1192 1.363 . S
C1193 C1196 1.363 . S
N1194 C1196 1.356 . S
N1194 H1206 0.984 . S
N1194 H1207 0.985 . S
N1195 C1197 1.356 . S
N1195 H1200 0.984 . S
N1195 H1201 0.985 . S
C1196 C1190 1.379 . S
C1196 C1193 1.363 . S
C1196 N1194 1.356 . S
C1197 C1191 1.363 . S
C1197 C1192 1.379 . S
C1197 N1195 1.356 . S
N1198 C1190 1.356 . S
N1198 H1204 0.984 . S
N1198 H1205 0.984 . S
N1199 C1192 1.356 . S
N1199 H1202 0.984 . S
N1199 H1203 0.985 . S
H1200 N1195 0.984 . S
H1201 N1195 0.985 . S
H1202 N1199 0.984 . S
H1203 N1199 0.985 . S
H1204 N1198 0.984 . S
H1205 N1198 0.984 . S
H1206 N1194 0.984 . S
H1207 N1194 0.985 . S
C1208 C1209 1.363 . S
C1208 C1214 1.379 . S
C1208 N1216 1.356 . S
C1209 C1208 1.363 . S
C1209 C1215 1.363 . S
C1210 C1211 1.363 . S
C1210 C1215 1.379 . S
C1210 N1217 1.356 . S
C1211 C1210 1.363 . S
C1211 C1214 1.363 . S
N1212 C1214 1.356 . S
N1212 H1224 0.984 . S
N1212 H1225 0.985 . S
N1213 C1215 1.356 . S
N1213 H1218 0.984 . S
N1213 H1219 0.985 . S
C1214 C1208 1.379 . S
C1214 C1211 1.363 . S
C1214 N1212 1.356 . S
C1215 C1209 1.363 . S
C1215 C1210 1.379 . S
C1215 N1213 1.356 . S
N1216 C1208 1.356 . S
N1216 H1222 0.984 . S
N1216 H1223 0.984 . S
N1217 C1210 1.356 . S
N1217 H1220 0.984 . S
N1217 H1221 0.985 . S
H1218 N1213 0.984 . S
H1219 N1213 0.985 . S
H1220 N1217 0.984 . S
H1221 N1217 0.985 . S
H1222 N1216 0.984 . S
H1223 N1216 0.984 . S
H1224 N1212 0.984 . S
H1225 N1212 0.985 . S
C1226 C1227 1.363 . S
C1226 C1232 1.379 . S
C1226 N1234 1.356 . S
C1227 C1226 1.363 . S
C1227 C1233 1.363 . S
C1228 C1229 1.363 . S
C1228 C1233 1.379 . S
C1228 N1235 1.356 . S
C1229 C1228 1.363 . S
C1229 C1232 1.363 . S
N1230 C1232 1.356 . S
N1230 H1242 0.984 . S
N1230 H1243 0.985 . S
N1231 C1233 1.356 . S
N1231 H1236 0.984 . S
N1231 H1237 0.985 . S
C1232 C1226 1.379 . S
C1232 C1229 1.363 . S
C1232 N1230 1.356 . S
C1233 C1227 1.363 . S
C1233 C1228 1.379 . S
C1233 N1231 1.356 . S
N1234 C1226 1.356 . S
N1234 H1240 0.984 . S
N1234 H1241 0.984 . S
N1235 C1228 1.356 . S
N1235 H1238 0.984 . S
N1235 H1239 0.985 . S
H1236 N1231 0.984 . S
H1237 N1231 0.985 . S
H1238 N1235 0.984 . S
H1239 N1235 0.985 . S
H1240 N1234 0.984 . S
H1241 N1234 0.984 . S
H1242 N1230 0.984 . S
H1243 N1230 0.985 . S
C1244 C1245 1.363 . S
C1244 C1250 1.379 . S
C1244 N1252 1.356 . S
C1245 C1244 1.363 . S
C1245 C1251 1.363 . S
C1246 C1247 1.363 . S
C1246 C1251 1.379 . S
C1246 N1253 1.356 . S
C1247 C1246 1.363 . S
C1247 C1250 1.363 . S
N1248 C1250 1.356 . S
N1248 H1260 0.984 . S
N1248 H1261 0.985 . S
N1249 C1251 1.356 . S
N1249 H1254 0.984 . S
N1249 H1255 0.985 . S
C1250 C1244 1.379 . S
C1250 C1247 1.363 . S
C1250 N1248 1.356 . S
C1251 C1245 1.363 . S
C1251 C1246 1.379 . S
C1251 N1249 1.356 . S
N1252 C1244 1.356 . S
N1252 H1258 0.984 . S
N1252 H1259 0.984 . S
N1253 C1246 1.356 . S
N1253 H1256 0.984 . S
N1253 H1257 0.985 . S
H1254 N1249 0.984 . S
H1255 N1249 0.985 . S
H1256 N1253 0.984 . S
H1257 N1253 0.985 . S
H1258 N1252 0.984 . S
H1259 N1252 0.984 . S
H1260 N1248 0.984 . S
H1261 N1248 0.985 . S
C1262 C1263 1.363 . S
C1262 C1268 1.379 . S
C1262 N1270 1.356 . S
C1263 C1262 1.363 . S
C1263 C1269 1.363 . S
C1264 C1265 1.363 . S
C1264 C1269 1.379 . S
C1264 N1271 1.356 . S
C1265 C1264 1.363 . S
C1265 C1268 1.363 . S
N1266 C1268 1.356 . S
N1266 H1278 0.984 . S
N1266 H1279 0.985 . S
N1267 C1269 1.356 . S
N1267 H1272 0.984 . S
N1267 H1273 0.985 . S
C1268 C1262 1.379 . S
C1268 C1265 1.363 . S
C1268 N1266 1.356 . S
C1269 C1263 1.363 . S
C1269 C1264 1.379 . S
C1269 N1267 1.356 . S
N1270 C1262 1.356 . S
N1270 H1276 0.984 . S
N1270 H1277 0.984 . S
N1271 C1264 1.356 . S
N1271 H1274 0.984 . S
N1271 H1275 0.985 . S
H1272 N1267 0.984 . S
H1273 N1267 0.985 . S
H1274 N1271 0.984 . S
H1275 N1271 0.985 . S
H1276 N1270 0.984 . S
H1277 N1270 0.984 . S
H1278 N1266 0.984 . S
H1279 N1266 0.985 . S
C1280 C1281 1.363 . S
C1280 C1286 1.379 . S
C1280 N1288 1.356 . S
C1281 C1280 1.363 . S
C1281 C1287 1.363 . S
C1282 C1283 1.363 . S
C1282 C1287 1.379 . S
C1282 N1289 1.356 . S
C1283 C1282 1.363 . S
C1283 C1286 1.363 . S
N1284 C1286 1.356 . S
N1284 H1296 0.984 . S
N1284 H1297 0.985 . S
N1285 C1287 1.356 . S
N1285 H1290 0.984 1_545 S
N1285 H1291 0.985 . S
C1286 C1280 1.379 . S
C1286 C1283 1.363 . S
C1286 N1284 1.356 . S
C1287 C1281 1.363 . S
C1287 C1282 1.379 . S
C1287 N1285 1.356 . S
N1288 C1280 1.356 . S
N1288 H1294 0.984 . S
N1288 H1295 0.984 . S
N1289 C1282 1.356 . S
N1289 H1292 0.984 . S
N1289 H1293 0.985 . S
H1290 N1285 0.984 1_565 S
H1291 N1285 0.985 . S
H1292 N1289 0.984 . S
H1293 N1289 0.985 . S
H1294 N1288 0.984 . S
H1295 N1288 0.984 . S
H1296 N1284 0.984 . S
H1297 N1284 0.985 . S
C1298 C1299 1.363 . S
C1298 C1304 1.379 . S
C1298 N1306 1.356 . S
C1299 C1298 1.363 . S
C1299 C1305 1.363 . S
C1300 C1301 1.363 . S
C1300 C1305 1.379 . S
C1300 N1307 1.356 . S
C1301 C1300 1.363 . S
C1301 C1304 1.363 . S
N1302 C1304 1.356 . S
N1302 H1314 0.984 . S
N1302 H1315 0.985 . S
N1303 C1305 1.356 . S
N1303 H1308 0.984 . S
N1303 H1309 0.985 . S
C1304 C1298 1.379 . S
C1304 C1301 1.363 . S
C1304 N1302 1.356 . S
C1305 C1299 1.363 . S
C1305 C1300 1.379 . S
C1305 N1303 1.356 . S
N1306 C1298 1.356 . S
N1306 H1312 0.984 . S
N1306 H1313 0.984 1_655 S
N1307 C1300 1.356 . S
N1307 H1310 0.984 . S
N1307 H1311 0.985 . S
H1308 N1303 0.984 . S
H1309 N1303 0.985 . S
H1310 N1307 0.984 . S
H1311 N1307 0.985 . S
H1312 N1306 0.984 . S
H1313 N1306 0.984 1_455 S
H1314 N1302 0.984 . S
H1315 N1302 0.985 . S
C1316 C1317 1.363 . S
C1316 C1322 1.379 . S
C1316 N1324 1.356 . S
C1317 C1316 1.363 . S
C1317 C1323 1.363 . S
C1318 C1319 1.363 . S
C1318 C1323 1.379 . S
C1318 N1325 1.356 . S
C1319 C1318 1.363 . S
C1319 C1322 1.363 . S
N1320 C1322 1.356 . S
N1320 H1332 0.984 . S
N1320 H1333 0.985 . S
N1321 C1323 1.356 . S
N1321 H1326 0.984 . S
N1321 H1327 0.985 . S
C1322 C1316 1.379 . S
C1322 C1319 1.363 . S
C1322 N1320 1.356 . S
C1323 C1317 1.363 . S
C1323 C1318 1.379 . S
C1323 N1321 1.356 . S
N1324 C1316 1.356 . S
N1324 H1330 0.984 . S
N1324 H1331 0.984 . S
N1325 C1318 1.356 . S
N1325 H1328 0.984 1_565 S
N1325 H1329 0.985 . S
H1326 N1321 0.984 . S
H1327 N1321 0.985 . S
H1328 N1325 0.984 1_545 S
H1329 N1325 0.985 . S
H1330 N1324 0.984 . S
H1331 N1324 0.984 . S
H1332 N1320 0.984 . S
H1333 N1320 0.985 . S
C1334 C1335 1.363 . S
C1334 C1340 1.379 . S
C1334 N1342 1.356 . S
C1335 C1334 1.363 . S
C1335 C1341 1.363 . S
C1336 C1337 1.363 . S
C1336 C1341 1.379 . S
C1336 N1343 1.356 . S
C1337 C1336 1.363 . S
C1337 C1340 1.363 . S
N1338 C1340 1.356 . S
N1338 H1350 0.984 . S
N1338 H1351 0.985 1_455 S
N1339 C1341 1.356 . S
N1339 H1344 0.984 . S
N1339 H1345 0.985 . S
C1340 C1334 1.379 . S
C1340 C1337 1.363 . S
C1340 N1338 1.356 . S
C1341 C1335 1.363 . S
C1341 C1336 1.379 . S
C1341 N1339 1.356 . S
N1342 C1334 1.356 . S
N1342 H1348 0.984 . S
N1342 H1349 0.984 . S
N1343 C1336 1.356 . S
N1343 H1346 0.984 . S
N1343 H1347 0.985 . S
H1344 N1339 0.984 . S
H1345 N1339 0.985 . S
H1346 N1343 0.984 . S
H1347 N1343 0.985 . S
H1348 N1342 0.984 . S
H1349 N1342 0.984 . S
H1350 N1338 0.984 . S
H1351 N1338 0.985 1_655 S
C1352 C1353 1.363 . S
C1352 C1358 1.379 . S
C1352 N1360 1.356 . S
C1353 C1352 1.363 . S
C1353 C1359 1.363 . S
C1354 C1355 1.363 . S
C1354 C1359 1.379 . S
C1354 N1361 1.356 . S
C1355 C1354 1.363 . S
C1355 C1358 1.363 . S
N1356 C1358 1.356 . S
N1356 H1368 0.984 . S
N1356 H1369 0.985 . S
N1357 C1359 1.356 . S
N1357 H1362 0.984 . S
N1357 H1363 0.985 . S
C1358 C1352 1.379 . S
C1358 C1355 1.363 . S
C1358 N1356 1.356 . S
C1359 C1353 1.363 . S
C1359 C1354 1.379 . S
C1359 N1357 1.356 . S
N1360 C1352 1.356 . S
N1360 H1366 0.984 . S
N1360 H1367 0.984 1_565 S
N1361 C1354 1.356 . S
N1361 H1364 0.984 . S
N1361 H1365 0.985 . S
H1362 N1357 0.984 . S
H1363 N1357 0.985 . S
H1364 N1361 0.984 . S
H1365 N1361 0.985 . S
H1366 N1360 0.984 . S
H1367 N1360 0.984 1_545 S
H1368 N1356 0.984 . S
H1369 N1356 0.985 . S
C1370 C1371 1.363 . S
C1370 C1376 1.379 . S
C1370 N1378 1.356 . S
C1371 C1370 1.363 . S
C1371 C1377 1.363 . S
C1372 C1373 1.363 . S
C1372 C1377 1.379 . S
C1372 N1379 1.356 . S
C1373 C1372 1.363 . S
C1373 C1376 1.363 . S
N1374 C1376 1.356 . S
N1374 H1386 0.984 . S
N1374 H1387 0.985 . S
N1375 C1377 1.356 . S
N1375 H1380 0.984 . S
N1375 H1381 0.985 . S
C1376 C1370 1.379 . S
C1376 C1373 1.363 . S
C1376 N1374 1.356 . S
C1377 C1371 1.363 . S
C1377 C1372 1.379 . S
C1377 N1375 1.356 . S
N1378 C1370 1.356 . S
N1378 H1384 0.984 . S
N1378 H1385 0.984 1_455 S
N1379 C1372 1.356 . S
N1379 H1382 0.984 . S
N1379 H1383 0.985 . S
H1380 N1375 0.984 . S
H1381 N1375 0.985 . S
H1382 N1379 0.984 . S
H1383 N1379 0.985 . S
H1384 N1378 0.984 . S
H1385 N1378 0.984 1_655 S
H1386 N1374 0.984 . S
H1387 N1374 0.985 . S
C1388 C1389 1.363 . S
C1388 C1394 1.379 . S
C1388 N1396 1.356 . S
C1389 C1388 1.363 . S
C1389 C1395 1.363 . S
C1390 C1391 1.363 . S
C1390 C1395 1.379 . S
C1390 N1397 1.356 . S
C1391 C1390 1.363 . S
C1391 C1394 1.363 . S
N1392 C1394 1.356 . S
N1392 H1404 0.984 . S
N1392 H1405 0.985 . S
N1393 C1395 1.356 . S
N1393 H1398 0.984 1_545 S
N1393 H1399 0.985 . S
C1394 C1388 1.379 . S
C1394 C1391 1.363 . S
C1394 N1392 1.356 . S
C1395 C1389 1.363 . S
C1395 C1390 1.379 . S
C1395 N1393 1.356 . S
N1396 C1388 1.356 . S
N1396 H1402 0.984 . S
N1396 H1403 0.984 . S
N1397 C1390 1.356 . S
N1397 H1400 0.984 . S
N1397 H1401 0.985 . S
H1398 N1393 0.984 1_565 S
H1399 N1393 0.985 . S
H1400 N1397 0.984 . S
H1401 N1397 0.985 . S
H1402 N1396 0.984 . S
H1403 N1396 0.984 . S
H1404 N1392 0.984 . S
H1405 N1392 0.985 . S
C1406 C1407 1.363 . S
C1406 C1412 1.379 . S
C1406 N1414 1.356 . S
C1407 C1406 1.363 . S
C1407 C1413 1.363 . S
C1408 C1409 1.363 . S
C1408 C1413 1.379 . S
C1408 N1415 1.356 . S
C1409 C1408 1.363 . S
C1409 C1412 1.363 . S
N1410 C1412 1.356 . S
N1410 H1422 0.984 . S
N1410 H1423 0.985 1_655 S
N1411 C1413 1.356 . S
N1411 H1416 0.984 . S
N1411 H1417 0.985 . S
C1412 C1406 1.379 . S
C1412 C1409 1.363 . S
C1412 N1410 1.356 . S
C1413 C1407 1.363 . S
C1413 C1408 1.379 . S
C1413 N1411 1.356 . S
N1414 C1406 1.356 . S
N1414 H1420 0.984 . S
N1414 H1421 0.984 . S
N1415 C1408 1.356 . S
N1415 H1418 0.984 . S
N1415 H1419 0.985 . S
H1416 N1411 0.984 . S
H1417 N1411 0.985 . S
H1418 N1415 0.984 . S
H1419 N1415 0.985 . S
H1420 N1414 0.984 . S
H1421 N1414 0.984 . S
H1422 N1410 0.984 . S
H1423 N1410 0.985 1_455 S
C1424 C1425 1.363 . S
C1424 C1430 1.379 . S
C1424 N1432 1.356 . S
C1425 C1424 1.363 . S
C1425 C1431 1.363 . S
C1426 C1427 1.363 . S
C1426 C1431 1.379 . S
C1426 N1433 1.356 . S
C1427 C1426 1.363 . S
C1427 C1430 1.363 . S
N1428 C1430 1.356 . S
N1428 H1440 0.984 . S
N1428 H1441 0.985 . S
N1429 C1431 1.356 . S
N1429 H1434 0.984 1_565 S
N1429 H1435 0.985 . S
C1430 C1424 1.379 . S
C1430 C1427 1.363 . S
C1430 N1428 1.356 . S
C1431 C1425 1.363 . S
C1431 C1426 1.379 . S
C1431 N1429 1.356 . S
N1432 C1424 1.356 . S
N1432 H1438 0.984 . S
N1432 H1439 0.984 . S
N1433 C1426 1.356 . S
N1433 H1436 0.984 . S
N1433 H1437 0.985 . S
H1434 N1429 0.984 1_545 S
H1435 N1429 0.985 . S
H1436 N1433 0.984 . S
H1437 N1433 0.985 . S
H1438 N1432 0.984 . S
H1439 N1432 0.984 . S
H1440 N1428 0.984 . S
H1441 N1428 0.985 . S
C1442 C1443 1.363 . S
C1442 C1448 1.379 . S
C1442 N1450 1.356 . S
C1443 C1442 1.363 . S
C1443 C1449 1.363 . S
C1444 C1445 1.363 . S
C1444 C1449 1.379 . S
C1444 N1451 1.356 . S
C1445 C1444 1.363 . S
C1445 C1448 1.363 . S
N1446 C1448 1.356 . S
N1446 H1458 0.984 . S
N1446 H1459 0.985 . S
N1447 C1449 1.356 . S
N1447 H1452 0.984 . S
N1447 H1453 0.985 . S
C1448 C1442 1.379 . S
C1448 C1445 1.363 . S
C1448 N1446 1.356 . S
C1449 C1443 1.363 . S
C1449 C1444 1.379 . S
C1449 N1447 1.356 . S
N1450 C1442 1.356 . S
N1450 H1456 0.984 . S
N1450 H1457 0.984 1_455 S
N1451 C1444 1.356 . S
N1451 H1454 0.984 . S
N1451 H1455 0.985 . S
H1452 N1447 0.984 . S
H1453 N1447 0.985 . S
H1454 N1451 0.984 . S
H1455 N1451 0.985 . S
H1456 N1450 0.984 . S
H1457 N1450 0.984 1_655 S
H1458 N1446 0.984 . S
H1459 N1446 0.985 . S
C1460 C1461 1.363 . S
C1460 C1466 1.379 . S
C1460 N1468 1.356 . S
C1461 C1460 1.363 . S
C1461 C1467 1.363 . S
C1462 C1463 1.363 . S
C1462 C1467 1.379 . S
C1462 N1469 1.356 . S
C1463 C1462 1.363 . S
C1463 C1466 1.363 . S
N1464 C1466 1.356 . S
N1464 H1476 0.984 . S
N1464 H1477 0.985 . S
N1465 C1467 1.356 . S
N1465 H1470 0.984 . S
N1465 H1471 0.985 . S
C1466 C1460 1.379 . S
C1466 C1463 1.363 . S
C1466 N1464 1.356 . S
C1467 C1461 1.363 . S
C1467 C1462 1.379 . S
C1467 N1465 1.356 . S
N1468 C1460 1.356 . S
N1468 H1474 0.984 . S
N1468 H1475 0.984 . S
N1469 C1462 1.356 . S
N1469 H1472 0.984 1_545 S
N1469 H1473 0.985 . S
H1470 N1465 0.984 . S
H1471 N1465 0.985 . S
H1472 N1469 0.984 1_565 S
H1473 N1469 0.985 . S
H1474 N1468 0.984 . S
H1475 N1468 0.984 . S
H1476 N1464 0.984 . S
H1477 N1464 0.985 . S
C1478 C1479 1.363 . S
C1478 C1484 1.379 . S
C1478 N1486 1.356 . S
C1479 C1478 1.363 . S
C1479 C1485 1.363 . S
C1480 C1481 1.363 . S
C1480 C1485 1.379 . S
C1480 N1487 1.356 . S
C1481 C1480 1.363 . S
C1481 C1484 1.363 . S
N1482 C1484 1.356 . S
N1482 H1494 0.984 . S
N1482 H1495 0.985 . S
N1483 C1485 1.356 . S
N1483 H1488 0.984 . S
N1483 H1489 0.985 . S
C1484 C1478 1.379 . S
C1484 C1481 1.363 . S
C1484 N1482 1.356 . S
C1485 C1479 1.363 . S
C1485 C1480 1.379 . S
C1485 N1483 1.356 . S
N1486 C1478 1.356 . S
N1486 H1492 0.984 . S
N1486 H1493 0.984 . S
N1487 C1480 1.356 . S
N1487 H1490 0.984 1_655 S
N1487 H1491 0.985 . S
H1488 N1483 0.984 . S
H1489 N1483 0.985 . S
H1490 N1487 0.984 1_455 S
H1491 N1487 0.985 . S
H1492 N1486 0.984 . S
H1493 N1486 0.984 . S
H1494 N1482 0.984 . S
H1495 N1482 0.985 . S
C1496 C1497 1.363 . S
C1496 C1502 1.379 . S
C1496 N1504 1.356 . S
C1497 C1496 1.363 . S
C1497 C1503 1.363 . S
C1498 C1499 1.363 . S
C1498 C1503 1.379 . S
C1498 N1505 1.356 . S
C1499 C1498 1.363 . S
C1499 C1502 1.363 . S
N1500 C1502 1.356 . S
N1500 H1512 0.984 . S
N1500 H1513 0.985 . S
N1501 C1503 1.356 . S
N1501 H1506 0.984 . S
N1501 H1507 0.985 . S
C1502 C1496 1.379 . S
C1502 C1499 1.363 . S
C1502 N1500 1.356 . S
C1503 C1497 1.363 . S
C1503 C1498 1.379 . S
C1503 N1501 1.356 . S
N1504 C1496 1.356 . S
N1504 H1510 0.984 . S
N1504 H1511 0.984 1_545 S
N1505 C1498 1.356 . S
N1505 H1508 0.984 . S
N1505 H1509 0.985 . S
H1506 N1501 0.984 . S
H1507 N1501 0.985 . S
H1508 N1505 0.984 . S
H1509 N1505 0.985 . S
H1510 N1504 0.984 . S
H1511 N1504 0.984 1_565 S
H1512 N1500 0.984 . S
H1513 N1500 0.985 . S
C1514 C1515 1.363 . S
C1514 C1520 1.379 . S
C1514 N1522 1.356 . S
C1515 C1514 1.363 . S
C1515 C1521 1.363 . S
C1516 C1517 1.363 . S
C1516 C1521 1.379 . S
C1516 N1523 1.356 . S
C1517 C1516 1.363 . S
C1517 C1520 1.363 . S
N1518 C1520 1.356 . S
N1518 H1530 0.984 . S
N1518 H1531 0.985 . S
N1519 C1521 1.356 . S
N1519 H1524 0.984 . S
N1519 H1525 0.985 . S
C1520 C1514 1.379 . S
C1520 C1517 1.363 . S
C1520 N1518 1.356 . S
C1521 C1515 1.363 . S
C1521 C1516 1.379 . S
C1521 N1519 1.356 . S
N1522 C1514 1.356 . S
N1522 H1528 0.984 . S
N1522 H1529 0.984 . S
N1523 C1516 1.356 . S
N1523 H1526 0.984 1_655 S
N1523 H1527 0.985 . S
H1524 N1519 0.984 . S
H1525 N1519 0.985 . S
H1526 N1523 0.984 1_455 S
H1527 N1523 0.985 . S
H1528 N1522 0.984 . S
H1529 N1522 0.984 . S
H1530 N1518 0.984 . S
H1531 N1518 0.985 . S
C1532 C1533 1.363 . S
C1532 C1538 1.379 . S
C1532 N1540 1.356 . S
C1533 C1532 1.363 . S
C1533 C1539 1.363 . S
C1534 C1535 1.363 . S
C1534 C1539 1.379 . S
C1534 N1541 1.356 . S
C1535 C1534 1.363 . S
C1535 C1538 1.363 . S
N1536 C1538 1.356 . S
N1536 H1548 0.984 . S
N1536 H1549 0.985 . S
N1537 C1539 1.356 . S
N1537 H1542 0.984 . S
N1537 H1543 0.985 . S
C1538 C1532 1.379 . S
C1538 C1535 1.363 . S
C1538 N1536 1.356 . S
C1539 C1533 1.363 . S
C1539 C1534 1.379 . S
C1539 N1537 1.356 . S
N1540 C1532 1.356 . S
N1540 H1546 0.984 . S
N1540 H1547 0.984 . S
N1541 C1534 1.356 . S
N1541 H1544 0.984 1_565 S
N1541 H1545 0.985 . S
H1542 N1537 0.984 . S
H1543 N1537 0.985 . S
H1544 N1541 0.984 1_545 S
H1545 N1541 0.985 . S
H1546 N1540 0.984 . S
H1547 N1540 0.984 . S
H1548 N1536 0.984 . S
H1549 N1536 0.985 . S
C1550 C1551 1.363 . S
C1550 C1556 1.379 . S
C1550 N1558 1.356 . S
C1551 C1550 1.363 . S
C1551 C1557 1.363 . S
C1552 C1553 1.363 . S
C1552 C1557 1.379 . S
C1552 N1559 1.356 . S
C1553 C1552 1.363 . S
C1553 C1556 1.363 . S
N1554 C1556 1.356 . S
N1554 H1566 0.984 . S
N1554 H1567 0.985 . S
N1555 C1557 1.356 . S
N1555 H1560 0.984 . S
N1555 H1561 0.985 . S
C1556 C1550 1.379 . S
C1556 C1553 1.363 . S
C1556 N1554 1.356 . S
C1557 C1551 1.363 . S
C1557 C1552 1.379 . S
C1557 N1555 1.356 . S
N1558 C1550 1.356 . S
N1558 H1564 0.984 . S
N1558 H1565 0.984 . S
N1559 C1552 1.356 . S
N1559 H1562 0.984 1_455 S
N1559 H1563 0.985 1_455 S
H1560 N1555 0.984 . S
H1561 N1555 0.985 . S
H1562 N1559 0.984 1_655 S
H1563 N1559 0.985 1_655 S
H1564 N1558 0.984 . S
H1565 N1558 0.984 . S
H1566 N1554 0.984 . S
H1567 N1554 0.985 . S
C1568 C1569 1.363 . S
C1568 C1574 1.379 . S
C1568 N1576 1.356 . S
C1569 C1568 1.363 . S
C1569 C1575 1.363 . S
C1570 C1571 1.363 . S
C1570 C1575 1.379 . S
C1570 N1577 1.356 . S
C1571 C1570 1.363 . S
C1571 C1574 1.363 . S
N1572 C1574 1.356 . S
N1572 H1584 0.984 . S
N1572 H1585 0.985 . S
N1573 C1575 1.356 . S
N1573 H1578 0.984 . S
N1573 H1579 0.985 . S
C1574 C1568 1.379 . S
C1574 C1571 1.363 . S
C1574 N1572 1.356 . S
C1575 C1569 1.363 . S
C1575 C1570 1.379 . S
C1575 N1573 1.356 . S
N1576 C1568 1.356 . S
N1576 H1582 0.984 . S
N1576 H1583 0.984 . S
N1577 C1570 1.356 . S
N1577 H1580 0.984 . S
N1577 H1581 0.985 . S
H1578 N1573 0.984 . S
H1579 N1573 0.985 . S
H1580 N1577 0.984 . S
H1581 N1577 0.985 . S
H1582 N1576 0.984 . S
H1583 N1576 0.984 . S
H1584 N1572 0.984 . S
H1585 N1572 0.985 . S
C1586 C1587 1.363 . S
C1586 C1592 1.379 . S
C1586 N1594 1.356 . S
C1587 C1586 1.363 . S
C1587 C1593 1.363 . S
C1588 C1589 1.363 . S
C1588 C1593 1.379 . S
C1588 N1595 1.356 . S
C1589 C1588 1.363 . S
C1589 C1592 1.363 . S
N1590 C1592 1.356 . S
N1590 H1602 0.984 . S
N1590 H1603 0.985 . S
N1591 C1593 1.356 . S
N1591 H1596 0.984 . S
N1591 H1597 0.985 . S
C1592 C1586 1.379 . S
C1592 C1589 1.363 . S
C1592 N1590 1.356 . S
C1593 C1587 1.363 . S
C1593 C1588 1.379 . S
C1593 N1591 1.356 . S
N1594 C1586 1.356 . S
N1594 H1600 0.984 . S
N1594 H1601 0.984 . S
N1595 C1588 1.356 . S
N1595 H1598 0.984 . S
N1595 H1599 0.985 . S
H1596 N1591 0.984 . S
H1597 N1591 0.985 . S
H1598 N1595 0.984 . S
H1599 N1595 0.985 . S
H1600 N1594 0.984 . S
H1601 N1594 0.984 . S
H1602 N1590 0.984 . S
H1603 N1590 0.985 . S
C1604 C1605 1.363 . S
C1604 C1610 1.379 . S
C1604 N1612 1.356 . S
C1605 C1604 1.363 . S
C1605 C1611 1.363 . S
C1606 C1607 1.363 . S
C1606 C1611 1.379 . S
C1606 N1613 1.356 . S
C1607 C1606 1.363 . S
C1607 C1610 1.363 . S
N1608 C1610 1.356 . S
N1608 H1620 0.984 . S
N1608 H1621 0.985 . S
N1609 C1611 1.356 . S
N1609 H1614 0.984 . S
N1609 H1615 0.985 . S
C1610 C1604 1.379 . S
C1610 C1607 1.363 . S
C1610 N1608 1.356 . S
C1611 C1605 1.363 . S
C1611 C1606 1.379 . S
C1611 N1609 1.356 . S
N1612 C1604 1.356 . S
N1612 H1618 0.984 . S
N1612 H1619 0.984 . S
N1613 C1606 1.356 . S
N1613 H1616 0.984 . S
N1613 H1617 0.985 . S
H1614 N1609 0.984 . S
H1615 N1609 0.985 . S
H1616 N1613 0.984 . S
H1617 N1613 0.985 . S
H1618 N1612 0.984 . S
H1619 N1612 0.984 . S
H1620 N1608 0.984 . S
H1621 N1608 0.985 . S
C1622 C1623 1.363 . S
C1622 C1628 1.379 . S
C1622 N1630 1.356 . S
C1623 C1622 1.363 . S
C1623 C1629 1.363 . S
C1624 C1625 1.363 . S
C1624 C1629 1.379 . S
C1624 N1631 1.356 . S
C1625 C1624 1.363 . S
C1625 C1628 1.363 . S
N1626 C1628 1.356 . S
N1626 H1638 0.984 . S
N1626 H1639 0.985 . S
N1627 C1629 1.356 . S
N1627 H1632 0.984 . S
N1627 H1633 0.985 . S
C1628 C1622 1.379 . S
C1628 C1625 1.363 . S
C1628 N1626 1.356 . S
C1629 C1623 1.363 . S
C1629 C1624 1.379 . S
C1629 N1627 1.356 . S
N1630 C1622 1.356 . S
N1630 H1636 0.984 . S
N1630 H1637 0.984 . S
N1631 C1624 1.356 . S
N1631 H1634 0.984 . S
N1631 H1635 0.985 . S
H1632 N1627 0.984 . S
H1633 N1627 0.985 . S
H1634 N1631 0.984 . S
H1635 N1631 0.985 . S
H1636 N1630 0.984 . S
H1637 N1630 0.984 . S
H1638 N1626 0.984 . S
H1639 N1626 0.985 . S
C1640 C1641 1.363 . S
C1640 C1646 1.379 . S
C1640 N1648 1.356 . S
C1641 C1640 1.363 . S
C1641 C1647 1.363 . S
C1642 C1643 1.363 . S
C1642 C1647 1.379 . S
C1642 N1649 1.356 . S
C1643 C1642 1.363 . S
C1643 C1646 1.363 . S
N1644 C1646 1.356 . S
N1644 H1656 0.984 . S
N1644 H1657 0.985 . S
N1645 C1647 1.356 . S
N1645 H1650 0.984 . S
N1645 H1651 0.985 . S
C1646 C1640 1.379 . S
C1646 C1643 1.363 . S
C1646 N1644 1.356 . S
C1647 C1641 1.363 . S
C1647 C1642 1.379 . S
C1647 N1645 1.356 . S
N1648 C1640 1.356 . S
N1648 H1654 0.984 . S
N1648 H1655 0.984 . S
N1649 C1642 1.356 . S
N1649 H1652 0.984 . S
N1649 H1653 0.985 . S
H1650 N1645 0.984 . S
H1651 N1645 0.985 . S
H1652 N1649 0.984 . S
H1653 N1649 0.985 . S
H1654 N1648 0.984 . S
H1655 N1648 0.984 . S
H1656 N1644 0.984 . S
H1657 N1644 0.985 . S
C1658 C1659 1.363 . S
C1658 C1664 1.379 . S
C1658 N1666 1.356 . S
C1659 C1658 1.363 . S
C1659 C1665 1.363 . S
C1660 C1661 1.363 . S
C1660 C1665 1.379 . S
C1660 N1667 1.356 . S
C1661 C1660 1.363 . S
C1661 C1664 1.363 . S
N1662 C1664 1.356 . S
N1662 H1674 0.984 . S
N1662 H1675 0.985 . S
N1663 C1665 1.356 . S
N1663 H1668 0.984 . S
N1663 H1669 0.985 . S
C1664 C1658 1.379 . S
C1664 C1661 1.363 . S
C1664 N1662 1.356 . S
C1665 C1659 1.363 . S
C1665 C1660 1.379 . S
C1665 N1663 1.356 . S
N1666 C1658 1.356 . S
N1666 H1672 0.984 . S
N1666 H1673 0.984 . S
N1667 C1660 1.356 . S
N1667 H1670 0.984 . S
N1667 H1671 0.985 . S
H1668 N1663 0.984 . S
H1669 N1663 0.985 . S
H1670 N1667 0.984 . S
H1671 N1667 0.985 . S
H1672 N1666 0.984 . S
H1673 N1666 0.984 . S
H1674 N1662 0.984 . S
H1675 N1662 0.985 . S
C1676 C1677 1.363 . S
C1676 C1682 1.379 . S
C1676 N1684 1.356 . S
C1677 C1676 1.363 . S
C1677 C1683 1.363 . S
C1678 C1679 1.363 . S
C1678 C1683 1.379 . S
C1678 N1685 1.356 . S
C1679 C1678 1.363 . S
C1679 C1682 1.363 . S
N1680 C1682 1.356 . S
N1680 H1692 0.984 . S
N1680 H1693 0.985 . S
N1681 C1683 1.356 . S
N1681 H1686 0.984 . S
N1681 H1687 0.985 . S
C1682 C1676 1.379 . S
C1682 C1679 1.363 . S
C1682 N1680 1.356 . S
C1683 C1677 1.363 . S
C1683 C1678 1.379 . S
C1683 N1681 1.356 . S
N1684 C1676 1.356 . S
N1684 H1690 0.984 . S
N1684 H1691 0.984 . S
N1685 C1678 1.356 . S
N1685 H1688 0.984 . S
N1685 H1689 0.985 . S
H1686 N1681 0.984 . S
H1687 N1681 0.985 . S
H1688 N1685 0.984 . S
H1689 N1685 0.985 . S
H1690 N1684 0.984 . S
H1691 N1684 0.984 . S
H1692 N1680 0.984 . S
H1693 N1680 0.985 . S
C1694 C1695 1.363 . S
C1694 C1700 1.379 . S
C1694 N1702 1.356 . S
C1695 C1694 1.363 . S
C1695 C1701 1.363 . S
C1696 C1697 1.363 . S
C1696 C1701 1.379 . S
C1696 N1703 1.356 . S
C1697 C1696 1.363 . S
C1697 C1700 1.363 . S
N1698 C1700 1.356 . S
N1698 H1710 0.984 . S
N1698 H1711 0.985 . S
N1699 C1701 1.356 . S
N1699 H1704 0.984 . S
N1699 H1705 0.985 . S
C1700 C1694 1.379 . S
C1700 C1697 1.363 . S
C1700 N1698 1.356 . S
C1701 C1695 1.363 . S
C1701 C1696 1.379 . S
C1701 N1699 1.356 . S
N1702 C1694 1.356 . S
N1702 H1708 0.984 . S
N1702 H1709 0.984 . S
N1703 C1696 1.356 . S
N1703 H1706 0.984 . S
N1703 H1707 0.985 . S
H1704 N1699 0.984 . S
H1705 N1699 0.985 . S
H1706 N1703 0.984 . S
H1707 N1703 0.985 . S
H1708 N1702 0.984 . S
H1709 N1702 0.984 . S
H1710 N1698 0.984 . S
H1711 N1698 0.985 . S
C1712 C1713 1.363 . S
C1712 C1718 1.379 . S
C1712 N1720 1.356 . S
C1713 C1712 1.363 . S
C1713 C1719 1.363 . S
C1714 C1715 1.363 . S
C1714 C1719 1.379 . S
C1714 N1721 1.356 . S
C1715 C1714 1.363 . S
C1715 C1718 1.363 . S
N1716 C1718 1.356 . S
N1716 H1728 0.984 . S
N1716 H1729 0.985 . S
N1717 C1719 1.356 . S
N1717 H1722 0.984 . S
N1717 H1723 0.985 . S
C1718 C1712 1.379 . S
C1718 C1715 1.363 . S
C1718 N1716 1.356 . S
C1719 C1713 1.363 . S
C1719 C1714 1.379 . S
C1719 N1717 1.356 . S
N1720 C1712 1.356 . S
N1720 H1726 0.984 . S
N1720 H1727 0.984 . S
N1721 C1714 1.356 . S
N1721 H1724 0.984 . S
N1721 H1725 0.985 . S
H1722 N1717 0.984 . S
H1723 N1717 0.985 . S
H1724 N1721 0.984 . S
H1725 N1721 0.985 . S
H1726 N1720 0.984 . S
H1727 N1720 0.984 . S
H1728 N1716 0.984 . S
H1729 N1716 0.985 . S
C1730 C1731 1.363 . S
C1730 C1736 1.379 . S
C1730 N1738 1.356 . S
C1731 C1730 1.363 . S
C1731 C1737 1.363 . S
C1732 C1733 1.363 . S
C1732 C1737 1.379 . S
C1732 N1739 1.356 . S
C1733 C1732 1.363 . S
C1733 C1736 1.363 . S
N1734 C1736 1.356 . S
N1734 H1746 0.984 . S
N1734 H1747 0.985 . S
N1735 C1737 1.356 . S
N1735 H1740 0.984 . S
N1735 H1741 0.985 . S
C1736 C1730 1.379 . S
C1736 C1733 1.363 . S
C1736 N1734 1.356 . S
C1737 C1731 1.363 . S
C1737 C1732 1.379 . S
C1737 N1735 1.356 . S
N1738 C1730 1.356 . S
N1738 H1744 0.984 . S
N1738 H1745 0.984 . S
N1739 C1732 1.356 . S
N1739 H1742 0.984 . S
N1739 H1743 0.985 . S
H1740 N1735 0.984 . S
H1741 N1735 0.985 . S
H1742 N1739 0.984 . S
H1743 N1739 0.985 . S
H1744 N1738 0.984 . S
H1745 N1738 0.984 . S
H1746 N1734 0.984 . S
H1747 N1734 0.985 . S
C1748 C1749 1.363 . S
C1748 C1754 1.379 . S
C1748 N1756 1.356 . S
C1749 C1748 1.363 . S
C1749 C1755 1.363 . S
C1750 C1751 1.363 . S
C1750 C1755 1.379 . S
C1750 N1757 1.356 . S
C1751 C1750 1.363 . S
C1751 C1754 1.363 . S
N1752 C1754 1.356 . S
N1752 H1764 0.984 . S
N1752 H1765 0.985 . S
N1753 C1755 1.356 . S
N1753 H1758 0.984 . S
N1753 H1759 0.985 . S
C1754 C1748 1.379 . S
C1754 C1751 1.363 . S
C1754 N1752 1.356 . S
C1755 C1749 1.363 . S
C1755 C1750 1.379 . S
C1755 N1753 1.356 . S
N1756 C1748 1.356 . S
N1756 H1762 0.984 . S
N1756 H1763 0.984 . S
N1757 C1750 1.356 . S
N1757 H1760 0.984 . S
N1757 H1761 0.985 . S
H1758 N1753 0.984 . S
H1759 N1753 0.985 . S
H1760 N1757 0.984 . S
H1761 N1757 0.985 . S
H1762 N1756 0.984 . S
H1763 N1756 0.984 . S
H1764 N1752 0.984 . S
H1765 N1752 0.985 . S
C1766 C1767 1.363 . S
C1766 C1772 1.379 . S
C1766 N1774 1.356 . S
C1767 C1766 1.363 . S
C1767 C1773 1.363 . S
C1768 C1769 1.363 . S
C1768 C1773 1.379 . S
C1768 N1775 1.356 . S
C1769 C1768 1.363 . S
C1769 C1772 1.363 . S
N1770 C1772 1.356 . S
N1770 H1782 0.984 . S
N1770 H1783 0.985 . S
N1771 C1773 1.356 . S
N1771 H1776 0.984 . S
N1771 H1777 0.985 . S
C1772 C1766 1.379 . S
C1772 C1769 1.363 . S
C1772 N1770 1.356 . S
C1773 C1767 1.363 . S
C1773 C1768 1.379 . S
C1773 N1771 1.356 . S
N1774 C1766 1.356 . S
N1774 H1780 0.984 . S
N1774 H1781 0.984 . S
N1775 C1768 1.356 . S
N1775 H1778 0.984 . S
N1775 H1779 0.985 . S
H1776 N1771 0.984 . S
H1777 N1771 0.985 . S
H1778 N1775 0.984 . S
H1779 N1775 0.985 . S
H1780 N1774 0.984 . S
H1781 N1774 0.984 . S
H1782 N1770 0.984 . S
H1783 N1770 0.985 . S
C1784 C1785 1.363 . S
C1784 C1790 1.379 . S
C1784 N1792 1.356 . S
C1785 C1784 1.363 . S
C1785 C1791 1.363 . S
C1786 C1787 1.363 . S
C1786 C1791 1.379 . S
C1786 N1793 1.356 . S
C1787 C1786 1.363 . S
C1787 C1790 1.363 . S
N1788 C1790 1.356 . S
N1788 H1800 0.984 . S
N1788 H1801 0.985 . S
N1789 C1791 1.356 . S
N1789 H1794 0.984 . S
N1789 H1795 0.985 . S
C1790 C1784 1.379 . S
C1790 C1787 1.363 . S
C1790 N1788 1.356 . S
C1791 C1785 1.363 . S
C1791 C1786 1.379 . S
C1791 N1789 1.356 . S
N1792 C1784 1.356 . S
N1792 H1798 0.984 . S
N1792 H1799 0.984 . S
N1793 C1786 1.356 . S
N1793 H1796 0.984 . S
N1793 H1797 0.985 . S
H1794 N1789 0.984 . S
H1795 N1789 0.985 . S
H1796 N1793 0.984 . S
H1797 N1793 0.985 . S
H1798 N1792 0.984 . S
H1799 N1792 0.984 . S
H1800 N1788 0.984 . S
H1801 N1788 0.985 . S
C1802 C1803 1.363 . S
C1802 C1808 1.379 . S
C1802 N1810 1.356 . S
C1803 C1802 1.363 . S
C1803 C1809 1.363 . S
C1804 C1805 1.363 . S
C1804 C1809 1.379 . S
C1804 N1811 1.356 . S
C1805 C1804 1.363 . S
C1805 C1808 1.363 . S
N1806 C1808 1.356 . S
N1806 H1818 0.984 . S
N1806 H1819 0.985 . S
N1807 C1809 1.356 . S
N1807 H1812 0.984 . S
N1807 H1813 0.985 . S
C1808 C1802 1.379 . S
C1808 C1805 1.363 . S
C1808 N1806 1.356 . S
C1809 C1803 1.363 . S
C1809 C1804 1.379 . S
C1809 N1807 1.356 . S
N1810 C1802 1.356 . S
N1810 H1816 0.984 . S
N1810 H1817 0.984 . S
N1811 C1804 1.356 . S
N1811 H1814 0.984 . S
N1811 H1815 0.985 . S
H1812 N1807 0.984 . S
H1813 N1807 0.985 . S
H1814 N1811 0.984 . S
H1815 N1811 0.985 . S
H1816 N1810 0.984 . S
H1817 N1810 0.984 . S
H1818 N1806 0.984 . S
H1819 N1806 0.985 . S
C1820 C1821 1.363 . S
C1820 C1826 1.379 . S
C1820 N1828 1.356 . S
C1821 C1820 1.363 . S
C1821 C1827 1.363 . S
C1822 C1823 1.363 . S
C1822 C1827 1.379 . S
C1822 N1829 1.356 . S
C1823 C1822 1.363 . S
C1823 C1826 1.363 . S
N1824 C1826 1.356 . S
N1824 H1836 0.984 . S
N1824 H1837 0.985 . S
N1825 C1827 1.356 . S
N1825 H1830 0.984 . S
N1825 H1831 0.985 . S
C1826 C1820 1.379 . S
C1826 C1823 1.363 . S
C1826 N1824 1.356 . S
C1827 C1821 1.363 . S
C1827 C1822 1.379 . S
C1827 N1825 1.356 . S
N1828 C1820 1.356 . S
N1828 H1834 0.984 . S
N1828 H1835 0.984 . S
N1829 C1822 1.356 . S
N1829 H1832 0.984 . S
N1829 H1833 0.985 . S
H1830 N1825 0.984 . S
H1831 N1825 0.985 . S
H1832 N1829 0.984 . S
H1833 N1829 0.985 . S
H1834 N1828 0.984 . S
H1835 N1828 0.984 . S
H1836 N1824 0.984 . S
H1837 N1824 0.985 . S
C1838 C1839 1.363 . S
C1838 C1844 1.379 . S
C1838 N1846 1.356 . S
C1839 C1838 1.363 . S
C1839 C1845 1.363 . S
C1840 C1841 1.363 . S
C1840 C1845 1.379 . S
C1840 N1847 1.356 . S
C1841 C1840 1.363 . S
C1841 C1844 1.363 . S
N1842 C1844 1.356 . S
N1842 H1854 0.984 . S
N1842 H1855 0.985 . S
N1843 C1845 1.356 . S
N1843 H1848 0.984 . S
N1843 H1849 0.985 . S
C1844 C1838 1.379 . S
C1844 C1841 1.363 . S
C1844 N1842 1.356 . S
C1845 C1839 1.363 . S
C1845 C1840 1.379 . S
C1845 N1843 1.356 . S
N1846 C1838 1.356 . S
N1846 H1852 0.984 . S
N1846 H1853 0.984 . S
N1847 C1840 1.356 . S
N1847 H1850 0.984 . S
N1847 H1851 0.985 . S
H1848 N1843 0.984 . S
H1849 N1843 0.985 . S
H1850 N1847 0.984 . S
H1851 N1847 0.985 . S
H1852 N1846 0.984 . S
H1853 N1846 0.984 . S
H1854 N1842 0.984 . S
H1855 N1842 0.985 . S
C1856 C1857 1.363 1_655 S
C1856 C1862 1.379 . S
C1856 N1864 1.356 . S
C1857 C1856 1.363 1_455 S
C1857 C1863 1.363 . S
C1858 C1859 1.363 1_455 S
C1858 C1863 1.379 . S
C1858 N1865 1.356 . S
C1859 C1858 1.363 1_655 S
C1859 C1862 1.363 . S
N1860 C1862 1.356 . S
N1860 H1872 0.984 . S
N1860 H1873 0.985 . S
N1861 C1863 1.356 . S
N1861 H1866 0.984 . S
N1861 H1867 0.985 . S
C1862 C1856 1.379 . S
C1862 C1859 1.363 . S
C1862 N1860 1.356 . S
C1863 C1857 1.363 . S
C1863 C1858 1.379 . S
C1863 N1861 1.356 . S
N1864 C1856 1.356 . S
N1864 H1870 0.984 . S
N1864 H1871 0.984 1_655 S
N1865 C1858 1.356 . S
N1865 H1868 0.984 1_455 S
N1865 H1869 0.985 . S
H1866 N1861 0.984 . S
H1867 N1861 0.985 . S
H1868 N1865 0.984 1_655 S
H1869 N1865 0.985 . S
H1870 N1864 0.984 . S
H1871 N1864 0.984 1_455 S
H1872 N1860 0.984 . S
H1873 N1860 0.985 . S
C1874 C1875 1.363 1_545 S
C1874 C1880 1.379 . S
C1874 N1882 1.356 . S
C1875 C1874 1.363 1_565 S
C1875 C1881 1.363 . S
C1876 C1877 1.363 1_565 S
C1876 C1881 1.379 . S
C1876 N1883 1.356 . S
C1877 C1876 1.363 1_545 S
C1877 C1880 1.363 . S
N1878 C1880 1.356 . S
N1878 H1890 0.984 . S
N1878 H1891 0.985 . S
N1879 C1881 1.356 . S
N1879 H1884 0.984 . S
N1879 H1885 0.985 . S
C1880 C1874 1.379 . S
C1880 C1877 1.363 . S
C1880 N1878 1.356 . S
C1881 C1875 1.363 . S
C1881 C1876 1.379 . S
C1881 N1879 1.356 . S
N1882 C1874 1.356 . S
N1882 H1888 0.984 . S
N1882 H1889 0.984 1_545 S
N1883 C1876 1.356 . S
N1883 H1886 0.984 1_565 S
N1883 H1887 0.985 . S
H1884 N1879 0.984 . S
H1885 N1879 0.985 . S
H1886 N1883 0.984 1_545 S
H1887 N1883 0.985 . S
H1888 N1882 0.984 . S
H1889 N1882 0.984 1_565 S
H1890 N1878 0.984 . S
H1891 N1878 0.985 . S
C1892 C1893 1.363 1_455 S
C1892 C1898 1.379 . S
C1892 N1900 1.356 . S
C1893 C1892 1.363 1_655 S
C1893 C1899 1.363 . S
C1894 C1895 1.363 1_655 S
C1894 C1899 1.379 . S
C1894 N1901 1.356 . S
C1895 C1894 1.363 1_455 S
C1895 C1898 1.363 . S
N1896 C1898 1.356 . S
N1896 H1908 0.984 . S
N1896 H1909 0.985 . S
N1897 C1899 1.356 . S
N1897 H1902 0.984 . S
N1897 H1903 0.985 . S
C1898 C1892 1.379 . S
C1898 C1895 1.363 . S
C1898 N1896 1.356 . S
C1899 C1893 1.363 . S
C1899 C1894 1.379 . S
C1899 N1897 1.356 . S
N1900 C1892 1.356 . S
N1900 H1906 0.984 . S
N1900 H1907 0.984 1_455 S
N1901 C1894 1.356 . S
N1901 H1904 0.984 1_655 S
N1901 H1905 0.985 . S
H1902 N1897 0.984 . S
H1903 N1897 0.985 . S
H1904 N1901 0.984 1_455 S
H1905 N1901 0.985 . S
H1906 N1900 0.984 . S
H1907 N1900 0.984 1_655 S
H1908 N1896 0.984 . S
H1909 N1896 0.985 . S
C1910 C1911 1.363 1_565 S
C1910 C1916 1.379 . S
C1910 N1918 1.356 . S
C1911 C1910 1.363 1_545 S
C1911 C1917 1.363 . S
C1912 C1913 1.363 1_545 S
C1912 C1917 1.379 . S
C1912 N1919 1.356 . S
C1913 C1912 1.363 1_565 S
C1913 C1916 1.363 . S
N1914 C1916 1.356 . S
N1914 H1926 0.984 . S
N1914 H1927 0.985 . S
N1915 C1917 1.356 . S
N1915 H1920 0.984 . S
N1915 H1921 0.985 . S
C1916 C1910 1.379 . S
C1916 C1913 1.363 . S
C1916 N1914 1.356 . S
C1917 C1911 1.363 . S
C1917 C1912 1.379 . S
C1917 N1915 1.356 . S
N1918 C1910 1.356 . S
N1918 H1924 0.984 . S
N1918 H1925 0.984 1_565 S
N1919 C1912 1.356 . S
N1919 H1922 0.984 1_545 S
N1919 H1923 0.985 . S
H1920 N1915 0.984 . S
H1921 N1915 0.985 . S
H1922 N1919 0.984 1_565 S
H1923 N1919 0.985 . S
H1924 N1918 0.984 . S
H1925 N1918 0.984 1_545 S
H1926 N1914 0.984 . S
H1927 N1914 0.985 . S
C1928 C1929 1.363 . S
C1928 C1934 1.379 . S
C1928 N1936 1.356 . S
C1929 C1928 1.363 . S
C1929 C1935 1.363 1_655 S
C1930 C1931 1.363 . S
C1930 C1935 1.379 . S
C1930 N1937 1.356 . S
C1931 C1930 1.363 . S
C1931 C1934 1.363 1_455 S
N1932 C1934 1.356 . S
N1932 H1944 0.984 . S
N1932 H1945 0.985 1_655 S
N1933 C1935 1.356 . S
N1933 H1938 0.984 1_455 S
N1933 H1939 0.985 . S
C1934 C1928 1.379 . S
C1934 C1931 1.363 1_655 S
C1934 N1932 1.356 . S
C1935 C1929 1.363 1_455 S
C1935 C1930 1.379 . S
C1935 N1933 1.356 . S
N1936 C1928 1.356 . S
N1936 H1942 0.984 . S
N1936 H1943 0.984 . S
N1937 C1930 1.356 . S
N1937 H1940 0.984 . S
N1937 H1941 0.985 . S
H1938 N1933 0.984 1_655 S
H1939 N1933 0.985 . S
H1940 N1937 0.984 . S
H1941 N1937 0.985 . S
H1942 N1936 0.984 . S
H1943 N1936 0.984 . S
H1944 N1932 0.984 . S
H1945 N1932 0.985 1_455 S
C1946 C1947 1.363 . S
C1946 C1952 1.379 . S
C1946 N1954 1.356 . S
C1947 C1946 1.363 . S
C1947 C1953 1.363 1_545 S
C1948 C1949 1.363 . S
C1948 C1953 1.379 . S
C1948 N1955 1.356 . S
C1949 C1948 1.363 . S
C1949 C1952 1.363 1_565 S
N1950 C1952 1.356 . S
N1950 H1962 0.984 . S
N1950 H1963 0.985 1_545 S
N1951 C1953 1.356 . S
N1951 H1956 0.984 1_565 S
N1951 H1957 0.985 . S
C1952 C1946 1.379 . S
C1952 C1949 1.363 1_545 S
C1952 N1950 1.356 . S
C1953 C1947 1.363 1_565 S
C1953 C1948 1.379 . S
C1953 N1951 1.356 . S
N1954 C1946 1.356 . S
N1954 H1960 0.984 . S
N1954 H1961 0.984 . S
N1955 C1948 1.356 . S
N1955 H1958 0.984 . S
N1955 H1959 0.985 . S
H1956 N1951 0.984 1_545 S
H1957 N1951 0.985 . S
H1958 N1955 0.984 . S
H1959 N1955 0.985 . S
H1960 N1954 0.984 . S
H1961 N1954 0.984 . S
H1962 N1950 0.984 . S
H1963 N1950 0.985 1_565 S
C1964 C1965 1.363 1_455 S
C1964 C1970 1.379 . S
C1964 N1972 1.356 . S
C1965 C1964 1.363 1_655 S
C1965 C1971 1.363 . S
C1966 C1967 1.363 1_655 S
C1966 C1971 1.379 . S
C1966 N1973 1.356 . S
C1967 C1966 1.363 1_455 S
C1967 C1970 1.363 . S
N1968 C1970 1.356 . S
N1968 H1980 0.984 . S
N1968 H1981 0.985 . S
N1969 C1971 1.356 . S
N1969 H1974 0.984 . S
N1969 H1975 0.985 . S
C1970 C1964 1.379 . S
C1970 C1967 1.363 . S
C1970 N1968 1.356 . S
C1971 C1965 1.363 . S
C1971 C1966 1.379 . S
C1971 N1969 1.356 . S
N1972 C1964 1.356 . S
N1972 H1978 0.984 . S
N1972 H1979 0.984 1_455 S
N1973 C1966 1.356 . S
N1973 H1976 0.984 1_655 S
N1973 H1977 0.985 . S
H1974 N1969 0.984 . S
H1975 N1969 0.985 . S
H1976 N1973 0.984 1_455 S
H1977 N1973 0.985 . S
H1978 N1972 0.984 . S
H1979 N1972 0.984 1_655 S
H1980 N1968 0.984 . S
H1981 N1968 0.985 . S
C1982 C1983 1.363 . S
C1982 C1988 1.379 . S
C1982 N1990 1.356 . S
C1983 C1982 1.363 . S
C1983 C1989 1.363 1_565 S
C1984 C1985 1.363 . S
C1984 C1989 1.379 . S
C1984 N1991 1.356 . S
C1985 C1984 1.363 . S
C1985 C1988 1.363 1_545 S
N1986 C1988 1.356 . S
N1986 H1998 0.984 . S
N1986 H1999 0.985 1_565 S
N1987 C1989 1.356 . S
N1987 H1992 0.984 1_545 S
N1987 H1993 0.985 . S
C1988 C1982 1.379 . S
C1988 C1985 1.363 1_565 S
C1988 N1986 1.356 . S
C1989 C1983 1.363 1_545 S
C1989 C1984 1.379 . S
C1989 N1987 1.356 . S
N1990 C1982 1.356 . S
N1990 H1996 0.984 . S
N1990 H1997 0.984 . S
N1991 C1984 1.356 . S
N1991 H1994 0.984 . S
N1991 H1995 0.985 . S
H1992 N1987 0.984 1_565 S
H1993 N1987 0.985 . S
H1994 N1991 0.984 . S
H1995 N1991 0.985 . S
H1996 N1990 0.984 . S
H1997 N1990 0.984 . S
H1998 N1986 0.984 . S
H1999 N1986 0.985 1_545 S
C2000 C2001 1.363 . S
C2000 C2006 1.379 . S
C2000 N2008 1.356 . S
C2001 C2000 1.363 . S
C2001 C2007 1.363 . S
C2002 C2003 1.363 . S
C2002 C2007 1.379 . S
C2002 N2009 1.356 . S
C2003 C2002 1.363 . S
C2003 C2006 1.363 . S
N2004 C2006 1.356 . S
N2004 H2016 0.984 . S
N2004 H2017 0.985 . S
N2005 C2007 1.356 . S
N2005 H2010 0.984 . S
N2005 H2011 0.985 . S
C2006 C2000 1.379 . S
C2006 C2003 1.363 . S
C2006 N2004 1.356 . S
C2007 C2001 1.363 . S
C2007 C2002 1.379 . S
C2007 N2005 1.356 . S
N2008 C2000 1.356 . S
N2008 H2014 0.984 . S
N2008 H2015 0.984 . S
N2009 C2002 1.356 . S
N2009 H2012 0.984 . S
N2009 H2013 0.985 . S
H2010 N2005 0.984 . S
H2011 N2005 0.985 . S
H2012 N2009 0.984 . S
H2013 N2009 0.985 . S
H2014 N2008 0.984 . S
H2015 N2008 0.984 . S
H2016 N2004 0.984 . S
H2017 N2004 0.985 . S
C2018 C2019 1.363 . S
C2018 C2024 1.379 . S
C2018 N2026 1.356 . S
C2019 C2018 1.363 . S
C2019 C2025 1.363 . S
C2020 C2021 1.363 . S
C2020 C2025 1.379 . S
C2020 N2027 1.356 . S
C2021 C2020 1.363 . S
C2021 C2024 1.363 . S
N2022 C2024 1.356 . S
N2022 H2034 0.984 . S
N2022 H2035 0.985 . S
N2023 C2025 1.356 . S
N2023 H2028 0.984 . S
N2023 H2029 0.985 . S
C2024 C2018 1.379 . S
C2024 C2021 1.363 . S
C2024 N2022 1.356 . S
C2025 C2019 1.363 . S
C2025 C2020 1.379 . S
C2025 N2023 1.356 . S
N2026 C2018 1.356 . S
N2026 H2032 0.984 . S
N2026 H2033 0.984 . S
N2027 C2020 1.356 . S
N2027 H2030 0.984 . S
N2027 H2031 0.985 . S
H2028 N2023 0.984 . S
H2029 N2023 0.985 . S
H2030 N2027 0.984 . S
H2031 N2027 0.985 . S
H2032 N2026 0.984 . S
H2033 N2026 0.984 . S
H2034 N2022 0.984 . S
H2035 N2022 0.985 . S
C2036 C2037 1.363 . S
C2036 C2042 1.379 . S
C2036 N2044 1.356 . S
C2037 C2036 1.363 . S
C2037 C2043 1.363 . S
C2038 C2039 1.363 . S
C2038 C2043 1.379 . S
C2038 N2045 1.356 . S
C2039 C2038 1.363 . S
C2039 C2042 1.363 . S
N2040 C2042 1.356 . S
N2040 H2052 0.984 . S
N2040 H2053 0.985 . S
N2041 C2043 1.356 . S
N2041 H2046 0.984 . S
N2041 H2047 0.985 . S
C2042 C2036 1.379 . S
C2042 C2039 1.363 . S
C2042 N2040 1.356 . S
C2043 C2037 1.363 . S
C2043 C2038 1.379 . S
C2043 N2041 1.356 . S
N2044 C2036 1.356 . S
N2044 H2050 0.984 . S
N2044 H2051 0.984 . S
N2045 C2038 1.356 . S
N2045 H2048 0.984 . S
N2045 H2049 0.985 . S
H2046 N2041 0.984 . S
H2047 N2041 0.985 . S
H2048 N2045 0.984 . S
H2049 N2045 0.985 . S
H2050 N2044 0.984 . S
H2051 N2044 0.984 . S
H2052 N2040 0.984 . S
H2053 N2040 0.985 . S
C2054 C2055 1.363 . S
C2054 C2060 1.379 . S
C2054 N2062 1.356 . S
C2055 C2054 1.363 . S
C2055 C2061 1.363 . S
C2056 C2057 1.363 . S
C2056 C2061 1.379 . S
C2056 N2063 1.356 . S
C2057 C2056 1.363 . S
C2057 C2060 1.363 . S
N2058 C2060 1.356 . S
N2058 H2070 0.984 . S
N2058 H2071 0.985 . S
N2059 C2061 1.356 . S
N2059 H2064 0.984 . S
N2059 H2065 0.985 . S
C2060 C2054 1.379 . S
C2060 C2057 1.363 . S
C2060 N2058 1.356 . S
C2061 C2055 1.363 . S
C2061 C2056 1.379 . S
C2061 N2059 1.356 . S
N2062 C2054 1.356 . S
N2062 H2068 0.984 . S
N2062 H2069 0.984 . S
N2063 C2056 1.356 . S
N2063 H2066 0.984 . S
N2063 H2067 0.985 . S
H2064 N2059 0.984 . S
H2065 N2059 0.985 . S
H2066 N2063 0.984 . S
H2067 N2063 0.985 . S
H2068 N2062 0.984 . S
H2069 N2062 0.984 . S
H2070 N2058 0.984 . S
H2071 N2058 0.985 . S
C2072 C2073 1.363 . S
C2072 C2078 1.379 . S
C2072 N2080 1.356 . S
C2073 C2072 1.363 . S
C2073 C2079 1.363 . S
C2074 C2075 1.363 . S
C2074 C2079 1.379 . S
C2074 N2081 1.356 . S
C2075 C2074 1.363 . S
C2075 C2078 1.363 . S
N2076 C2078 1.356 . S
N2076 H2088 0.984 . S
N2076 H2089 0.985 . S
N2077 C2079 1.356 . S
N2077 H2082 0.984 . S
N2077 H2083 0.985 . S
C2078 C2072 1.379 . S
C2078 C2075 1.363 . S
C2078 N2076 1.356 . S
C2079 C2073 1.363 . S
C2079 C2074 1.379 . S
C2079 N2077 1.356 . S
N2080 C2072 1.356 . S
N2080 H2086 0.984 . S
N2080 H2087 0.984 . S
N2081 C2074 1.356 . S
N2081 H2084 0.984 . S
N2081 H2085 0.985 . S
H2082 N2077 0.984 . S
H2083 N2077 0.985 . S
H2084 N2081 0.984 . S
H2085 N2081 0.985 . S
H2086 N2080 0.984 . S
H2087 N2080 0.984 . S
H2088 N2076 0.984 . S
H2089 N2076 0.985 . S
C2090 C2091 1.363 . S
C2090 C2096 1.379 . S
C2090 N2098 1.356 . S
C2091 C2090 1.363 . S
C2091 C2097 1.363 . S
C2092 C2093 1.363 . S
C2092 C2097 1.379 . S
C2092 N2099 1.356 . S
C2093 C2092 1.363 . S
C2093 C2096 1.363 . S
N2094 C2096 1.356 . S
N2094 H2106 0.984 . S
N2094 H2107 0.985 . S
N2095 C2097 1.356 . S
N2095 H2100 0.984 . S
N2095 H2101 0.985 . S
C2096 C2090 1.379 . S
C2096 C2093 1.363 . S
C2096 N2094 1.356 . S
C2097 C2091 1.363 . S
C2097 C2092 1.379 . S
C2097 N2095 1.356 . S
N2098 C2090 1.356 . S
N2098 H2104 0.984 . S
N2098 H2105 0.984 . S
N2099 C2092 1.356 . S
N2099 H2102 0.984 . S
N2099 H2103 0.985 . S
H2100 N2095 0.984 . S
H2101 N2095 0.985 . S
H2102 N2099 0.984 . S
H2103 N2099 0.985 . S
H2104 N2098 0.984 . S
H2105 N2098 0.984 . S
H2106 N2094 0.984 . S
H2107 N2094 0.985 . S
C2108 C2109 1.363 . S
C2108 C2114 1.379 . S
C2108 N2116 1.356 . S
C2109 C2108 1.363 . S
C2109 C2115 1.363 . S
C2110 C2111 1.363 . S
C2110 C2115 1.379 . S
C2110 N2117 1.356 . S
C2111 C2110 1.363 . S
C2111 C2114 1.363 . S
N2112 C2114 1.356 . S
N2112 H2124 0.984 . S
N2112 H2125 0.985 . S
N2113 C2115 1.356 . S
N2113 H2118 0.984 . S
N2113 H2119 0.985 . S
C2114 C2108 1.379 . S
C2114 C2111 1.363 . S
C2114 N2112 1.356 . S
C2115 C2109 1.363 . S
C2115 C2110 1.379 . S
C2115 N2113 1.356 . S
N2116 C2108 1.356 . S
N2116 H2122 0.984 . S
N2116 H2123 0.984 . S
N2117 C2110 1.356 . S
N2117 H2120 0.984 . S
N2117 H2121 0.985 . S
H2118 N2113 0.984 . S
H2119 N2113 0.985 . S
H2120 N2117 0.984 . S
H2121 N2117 0.985 . S
H2122 N2116 0.984 . S
H2123 N2116 0.984 . S
H2124 N2112 0.984 . S
H2125 N2112 0.985 . S
C2126 C2127 1.363 . S
C2126 C2132 1.379 . S
C2126 N2134 1.356 . S
C2127 C2126 1.363 . S
C2127 C2133 1.363 . S
C2128 C2129 1.363 . S
C2128 C2133 1.379 . S
C2128 N2135 1.356 . S
C2129 C2128 1.363 . S
C2129 C2132 1.363 . S
N2130 C2132 1.356 . S
N2130 H2142 0.984 . S
N2130 H2143 0.985 . S
N2131 C2133 1.356 . S
N2131 H2136 0.984 . S
N2131 H2137 0.985 . S
C2132 C2126 1.379 . S
C2132 C2129 1.363 . S
C2132 N2130 1.356 . S
C2133 C2127 1.363 . S
C2133 C2128 1.379 . S
C2133 N2131 1.356 . S
N2134 C2126 1.356 . S
N2134 H2140 0.984 . S
N2134 H2141 0.984 . S
N2135 C2128 1.356 . S
N2135 H2138 0.984 . S
N2135 H2139 0.985 . S
H2136 N2131 0.984 . S
H2137 N2131 0.985 . S
H2138 N2135 0.984 . S
H2139 N2135 0.985 . S
H2140 N2134 0.984 . S
H2141 N2134 0.984 . S
H2142 N2130 0.984 . S
H2143 N2130 0.985 . S
C2144 C2145 1.363 . S
C2144 C2150 1.379 1_556 S
C2144 N2152 1.356 . S
C2145 C2144 1.363 . S
C2145 C2151 1.363 . S
C2146 C2147 1.363 . S
C2146 C2151 1.379 1_554 S
C2146 N2153 1.356 . S
C2147 C2146 1.363 . S
C2147 C2150 1.363 . S
N2148 C2150 1.356 . S
N2148 H2160 0.984 . S
N2148 H2161 0.985 . S
N2149 C2151 1.356 . S
N2149 H2154 0.984 . S
N2149 H2155 0.985 . S
C2150 C2144 1.379 1_554 S
C2150 C2147 1.363 . S
C2150 N2148 1.356 . S
C2151 C2145 1.363 . S
C2151 C2146 1.379 1_556 S
C2151 N2149 1.356 . S
N2152 C2144 1.356 . S
N2152 H2158 0.984 . S
N2152 H2159 0.984 . S
N2153 C2146 1.356 . S
N2153 H2156 0.984 . S
N2153 H2157 0.985 . S
H2154 N2149 0.984 . S
H2155 N2149 0.985 . S
H2156 N2153 0.984 . S
H2157 N2153 0.985 . S
H2158 N2152 0.984 . S
H2159 N2152 0.984 . S
H2160 N2148 0.984 . S
H2161 N2148 0.985 . S
C2162 C2163 1.363 . S
C2162 C2168 1.379 1_554 S
C2162 N2170 1.356 . S
C2163 C2162 1.363 . S
C2163 C2169 1.363 . S
C2164 C2165 1.363 . S
C2164 C2169 1.379 1_556 S
C2164 N2171 1.356 . S
C2165 C2164 1.363 . S
C2165 C2168 1.363 . S
N2166 C2168 1.356 . S
N2166 H2178 0.984 . S
N2166 H2179 0.985 . S
N2167 C2169 1.356 . S
N2167 H2172 0.984 . S
N2167 H2173 0.985 . S
C2168 C2162 1.379 1_556 S
C2168 C2165 1.363 . S
C2168 N2166 1.356 . S
C2169 C2163 1.363 . S
C2169 C2164 1.379 1_554 S
C2169 N2167 1.356 . S
N2170 C2162 1.356 . S
N2170 H2176 0.984 . S
N2170 H2177 0.984 . S
N2171 C2164 1.356 . S
N2171 H2174 0.984 . S
N2171 H2175 0.985 . S
H2172 N2167 0.984 . S
H2173 N2167 0.985 . S
H2174 N2171 0.984 . S
H2175 N2171 0.985 . S
H2176 N2170 0.984 . S
H2177 N2170 0.984 . S
H2178 N2166 0.984 . S
H2179 N2166 0.985 . S
C2180 C2181 1.363 . S
C2180 C2186 1.379 1_556 S
C2180 N2188 1.356 . S
C2181 C2180 1.363 . S
C2181 C2187 1.363 . S
C2182 C2183 1.363 . S
C2182 C2187 1.379 1_554 S
C2182 N2189 1.356 . S
C2183 C2182 1.363 . S
C2183 C2186 1.363 . S
N2184 C2186 1.356 . S
N2184 H2196 0.984 . S
N2184 H2197 0.985 . S
N2185 C2187 1.356 . S
N2185 H2190 0.984 . S
N2185 H2191 0.985 . S
C2186 C2180 1.379 1_554 S
C2186 C2183 1.363 . S
C2186 N2184 1.356 . S
C2187 C2181 1.363 . S
C2187 C2182 1.379 1_556 S
C2187 N2185 1.356 . S
N2188 C2180 1.356 . S
N2188 H2194 0.984 . S
N2188 H2195 0.984 . S
N2189 C2182 1.356 . S
N2189 H2192 0.984 . S
N2189 H2193 0.985 . S
H2190 N2185 0.984 . S
H2191 N2185 0.985 . S
H2192 N2189 0.984 . S
H2193 N2189 0.985 . S
H2194 N2188 0.984 . S
H2195 N2188 0.984 . S
H2196 N2184 0.984 . S
H2197 N2184 0.985 . S
C2198 C2199 1.363 . S
C2198 C2204 1.379 1_556 S
C2198 N2206 1.356 . S
C2199 C2198 1.363 . S
C2199 C2205 1.363 . S
C2200 C2201 1.363 . S
C2200 C2205 1.379 1_554 S
C2200 N2207 1.356 . S
C2201 C2200 1.363 . S
C2201 C2204 1.363 . S
N2202 C2204 1.356 . S
N2202 H2214 0.984 . S
N2202 H2215 0.985 . S
N2203 C2205 1.356 . S
N2203 H2208 0.984 . S
N2203 H2209 0.985 . S
C2204 C2198 1.379 1_554 S
C2204 C2201 1.363 . S
C2204 N2202 1.356 . S
C2205 C2199 1.363 . S
C2205 C2200 1.379 1_556 S
C2205 N2203 1.356 . S
N2206 C2198 1.356 . S
N2206 H2212 0.984 . S
N2206 H2213 0.984 . S
N2207 C2200 1.356 . S
N2207 H2210 0.984 . S
N2207 H2211 0.985 . S
H2208 N2203 0.984 . S
H2209 N2203 0.985 . S
H2210 N2207 0.984 . S
H2211 N2207 0.985 . S
H2212 N2206 0.984 . S
H2213 N2206 0.984 . S
H2214 N2202 0.984 . S
H2215 N2202 0.985 . S
C2216 C2217 1.363 . S
C2216 C2222 1.379 . S
C2216 N2224 1.356 . S
C2217 C2216 1.363 . S
C2217 C2223 1.363 . S
C2218 C2219 1.363 . S
C2218 C2223 1.379 . S
C2218 N2225 1.356 . S
C2219 C2218 1.363 . S
C2219 C2222 1.363 . S
N2220 C2222 1.356 . S
N2220 H2232 0.984 . S
N2220 H2233 0.985 . S
N2221 C2223 1.356 . S
N2221 H2226 0.984 . S
N2221 H2227 0.985 . S
C2222 C2216 1.379 . S
C2222 C2219 1.363 . S
C2222 N2220 1.356 . S
C2223 C2217 1.363 . S
C2223 C2218 1.379 . S
C2223 N2221 1.356 . S
N2224 C2216 1.356 . S
N2224 H2230 0.984 . S
N2224 H2231 0.984 . S
N2225 C2218 1.356 . S
N2225 H2228 0.984 . S
N2225 H2229 0.985 . S
H2226 N2221 0.984 . S
H2227 N2221 0.985 . S
H2228 N2225 0.984 . S
H2229 N2225 0.985 . S
H2230 N2224 0.984 . S
H2231 N2224 0.984 . S
H2232 N2220 0.984 . S
H2233 N2220 0.985 . S
C2234 C2235 1.363 . S
C2234 C2240 1.379 . S
C2234 N2242 1.356 . S
C2235 C2234 1.363 . S
C2235 C2241 1.363 . S
C2236 C2237 1.363 . S
C2236 C2241 1.379 . S
C2236 N2243 1.356 . S
C2237 C2236 1.363 . S
C2237 C2240 1.363 . S
N2238 C2240 1.356 . S
N2238 H2250 0.984 . S
N2238 H2251 0.985 . S
N2239 C2241 1.356 . S
N2239 H2244 0.984 . S
N2239 H2245 0.985 . S
C2240 C2234 1.379 . S
C2240 C2237 1.363 . S
C2240 N2238 1.356 . S
C2241 C2235 1.363 . S
C2241 C2236 1.379 . S
C2241 N2239 1.356 . S
N2242 C2234 1.356 . S
N2242 H2248 0.984 . S
N2242 H2249 0.984 . S
N2243 C2236 1.356 . S
N2243 H2246 0.984 . S
N2243 H2247 0.985 . S
H2244 N2239 0.984 . S
H2245 N2239 0.985 . S
H2246 N2243 0.984 . S
H2247 N2243 0.985 . S
H2248 N2242 0.984 . S
H2249 N2242 0.984 . S
H2250 N2238 0.984 . S
H2251 N2238 0.985 . S
C2252 C2253 1.363 . S
C2252 C2258 1.379 . S
C2252 N2260 1.356 . S
C2253 C2252 1.363 . S
C2253 C2259 1.363 . S
C2254 C2255 1.363 . S
C2254 C2259 1.379 . S
C2254 N2261 1.356 . S
C2255 C2254 1.363 . S
C2255 C2258 1.363 . S
N2256 C2258 1.356 . S
N2256 H2268 0.984 . S
N2256 H2269 0.985 . S
N2257 C2259 1.356 . S
N2257 H2262 0.984 . S
N2257 H2263 0.985 . S
C2258 C2252 1.379 . S
C2258 C2255 1.363 . S
C2258 N2256 1.356 . S
C2259 C2253 1.363 . S
C2259 C2254 1.379 . S
C2259 N2257 1.356 . S
N2260 C2252 1.356 . S
N2260 H2266 0.984 . S
N2260 H2267 0.984 . S
N2261 C2254 1.356 . S
N2261 H2264 0.984 . S
N2261 H2265 0.985 . S
H2262 N2257 0.984 . S
H2263 N2257 0.985 . S
H2264 N2261 0.984 . S
H2265 N2261 0.985 . S
H2266 N2260 0.984 . S
H2267 N2260 0.984 . S
H2268 N2256 0.984 . S
H2269 N2256 0.985 . S
C2270 C2271 1.363 . S
C2270 C2276 1.379 . S
C2270 N2278 1.356 . S
C2271 C2270 1.363 . S
C2271 C2277 1.363 . S
C2272 C2273 1.363 . S
C2272 C2277 1.379 . S
C2272 N2279 1.356 . S
C2273 C2272 1.363 . S
C2273 C2276 1.363 . S
N2274 C2276 1.356 . S
N2274 H2286 0.984 . S
N2274 H2287 0.985 . S
N2275 C2277 1.356 . S
N2275 H2280 0.984 . S
N2275 H2281 0.985 . S
C2276 C2270 1.379 . S
C2276 C2273 1.363 . S
C2276 N2274 1.356 . S
C2277 C2271 1.363 . S
C2277 C2272 1.379 . S
C2277 N2275 1.356 . S
N2278 C2270 1.356 . S
N2278 H2284 0.984 . S
N2278 H2285 0.984 . S
N2279 C2272 1.356 . S
N2279 H2282 0.984 . S
N2279 H2283 0.985 . S
H2280 N2275 0.984 . S
H2281 N2275 0.985 . S
H2282 N2279 0.984 . S
H2283 N2279 0.985 . S
H2284 N2278 0.984 . S
H2285 N2278 0.984 . S
H2286 N2274 0.984 . S
H2287 N2274 0.985 . S
C2288 C2289 1.363 . S
C2288 C2294 1.379 . S
C2288 N2296 1.356 . S
C2289 C2288 1.363 . S
C2289 C2295 1.363 . S
C2290 C2291 1.363 . S
C2290 C2295 1.379 . S
C2290 N2297 1.356 . S
C2291 C2290 1.363 . S
C2291 C2294 1.363 . S
N2292 C2294 1.356 . S
N2292 H2304 0.984 . S
N2292 H2305 0.985 . S
N2293 C2295 1.356 . S
N2293 H2298 0.984 . S
N2293 H2299 0.985 . S
C2294 C2288 1.379 . S
C2294 C2291 1.363 . S
C2294 N2292 1.356 . S
C2295 C2289 1.363 . S
C2295 C2290 1.379 . S
C2295 N2293 1.356 . S
N2296 C2288 1.356 . S
N2296 H2302 0.984 . S
N2296 H2303 0.984 . S
N2297 C2290 1.356 . S
N2297 H2300 0.984 . S
N2297 H2301 0.985 . S
H2298 N2293 0.984 . S
H2299 N2293 0.985 . S
H2300 N2297 0.984 . S
H2301 N2297 0.985 . S
H2302 N2296 0.984 . S
H2303 N2296 0.984 . S
H2304 N2292 0.984 . S
H2305 N2292 0.985 . S
C2306 C2307 1.363 . S
C2306 C2312 1.379 . S
C2306 N2314 1.356 . S
C2307 C2306 1.363 . S
C2307 C2313 1.363 . S
C2308 C2309 1.363 . S
C2308 C2313 1.379 . S
C2308 N2315 1.356 . S
C2309 C2308 1.363 . S
C2309 C2312 1.363 . S
N2310 C2312 1.356 . S
N2310 H2322 0.984 . S
N2310 H2323 0.985 . S
N2311 C2313 1.356 . S
N2311 H2316 0.984 . S
N2311 H2317 0.985 . S
C2312 C2306 1.379 . S
C2312 C2309 1.363 . S
C2312 N2310 1.356 . S
C2313 C2307 1.363 . S
C2313 C2308 1.379 . S
C2313 N2311 1.356 . S
N2314 C2306 1.356 . S
N2314 H2320 0.984 . S
N2314 H2321 0.984 . S
N2315 C2308 1.356 . S
N2315 H2318 0.984 . S
N2315 H2319 0.985 . S
H2316 N2311 0.984 . S
H2317 N2311 0.985 . S
H2318 N2315 0.984 . S
H2319 N2315 0.985 . S
H2320 N2314 0.984 . S
H2321 N2314 0.984 . S
H2322 N2310 0.984 . S
H2323 N2310 0.985 . S
C2324 C2325 1.363 . S
C2324 C2330 1.379 . S
C2324 N2332 1.356 . S
C2325 C2324 1.363 . S
C2325 C2331 1.363 . S
C2326 C2327 1.363 . S
C2326 C2331 1.379 . S
C2326 N2333 1.356 . S
C2327 C2326 1.363 . S
C2327 C2330 1.363 . S
N2328 C2330 1.356 . S
N2328 H2340 0.984 . S
N2328 H2341 0.985 . S
N2329 C2331 1.356 . S
N2329 H2334 0.984 . S
N2329 H2335 0.985 . S
C2330 C2324 1.379 . S
C2330 C2327 1.363 . S
C2330 N2328 1.356 . S
C2331 C2325 1.363 . S
C2331 C2326 1.379 . S
C2331 N2329 1.356 . S
N2332 C2324 1.356 . S
N2332 H2338 0.984 . S
N2332 H2339 0.984 . S
N2333 C2326 1.356 . S
N2333 H2336 0.984 . S
N2333 H2337 0.985 . S
H2334 N2329 0.984 . S
H2335 N2329 0.985 . S
H2336 N2333 0.984 . S
H2337 N2333 0.985 . S
H2338 N2332 0.984 . S
H2339 N2332 0.984 . S
H2340 N2328 0.984 . S
H2341 N2328 0.985 . S
C2342 C2343 1.363 . S
C2342 C2348 1.379 . S
C2342 N2350 1.356 . S
C2343 C2342 1.363 . S
C2343 C2349 1.363 . S
C2344 C2345 1.363 . S
C2344 C2349 1.379 . S
C2344 N2351 1.356 . S
C2345 C2344 1.363 . S
C2345 C2348 1.363 . S
N2346 C2348 1.356 . S
N2346 H2358 0.984 . S
N2346 H2359 0.985 . S
N2347 C2349 1.356 . S
N2347 H2352 0.984 . S
N2347 H2353 0.985 . S
C2348 C2342 1.379 . S
C2348 C2345 1.363 . S
C2348 N2346 1.356 . S
C2349 C2343 1.363 . S
C2349 C2344 1.379 . S
C2349 N2347 1.356 . S
N2350 C2342 1.356 . S
N2350 H2356 0.984 . S
N2350 H2357 0.984 . S
N2351 C2344 1.356 . S
N2351 H2354 0.984 . S
N2351 H2355 0.985 . S
H2352 N2347 0.984 . S
H2353 N2347 0.985 . S
H2354 N2351 0.984 . S
H2355 N2351 0.985 . S
H2356 N2350 0.984 . S
H2357 N2350 0.984 . S
H2358 N2346 0.984 . S
H2359 N2346 0.985 . S
C2360 C2361 1.363 . S
C2360 C2366 1.379 1_554 S
C2360 N2368 1.356 . S
C2361 C2360 1.363 . S
C2361 C2367 1.363 . S
C2362 C2363 1.363 . S
C2362 C2367 1.379 1_556 S
C2362 N2369 1.356 . S
C2363 C2362 1.363 . S
C2363 C2366 1.363 . S
N2364 C2366 1.356 . S
N2364 H2376 0.984 . S
N2364 H2377 0.985 . S
N2365 C2367 1.356 . S
N2365 H2370 0.984 . S
N2365 H2371 0.985 . S
C2366 C2360 1.379 1_556 S
C2366 C2363 1.363 . S
C2366 N2364 1.356 . S
C2367 C2361 1.363 . S
C2367 C2362 1.379 1_554 S
C2367 N2365 1.356 . S
N2368 C2360 1.356 . S
N2368 H2374 0.984 . S
N2368 H2375 0.984 . S
N2369 C2362 1.356 . S
N2369 H2372 0.984 . S
N2369 H2373 0.985 . S
H2370 N2365 0.984 . S
H2371 N2365 0.985 . S
H2372 N2369 0.984 . S
H2373 N2369 0.985 . S
H2374 N2368 0.984 . S
H2375 N2368 0.984 . S
H2376 N2364 0.984 . S
H2377 N2364 0.985 . S
C2378 C2379 1.363 . S
C2378 C2384 1.379 1_556 S
C2378 N2386 1.356 . S
C2379 C2378 1.363 . S
C2379 C2385 1.363 . S
C2380 C2381 1.363 . S
C2380 C2385 1.379 1_554 S
C2380 N2387 1.356 . S
C2381 C2380 1.363 . S
C2381 C2384 1.363 . S
N2382 C2384 1.356 . S
N2382 H2394 0.984 . S
N2382 H2395 0.985 . S
N2383 C2385 1.356 . S
N2383 H2388 0.984 . S
N2383 H2389 0.985 . S
C2384 C2378 1.379 1_554 S
C2384 C2381 1.363 . S
C2384 N2382 1.356 . S
C2385 C2379 1.363 . S
C2385 C2380 1.379 1_556 S
C2385 N2383 1.356 . S
N2386 C2378 1.356 . S
N2386 H2392 0.984 . S
N2386 H2393 0.984 . S
N2387 C2380 1.356 . S
N2387 H2390 0.984 . S
N2387 H2391 0.985 . S
H2388 N2383 0.984 . S
H2389 N2383 0.985 . S
H2390 N2387 0.984 . S
H2391 N2387 0.985 . S
H2392 N2386 0.984 . S
H2393 N2386 0.984 . S
H2394 N2382 0.984 . S
H2395 N2382 0.985 . S
C2396 C2397 1.363 . S
C2396 C2402 1.379 1_556 S
C2396 N2404 1.356 . S
C2397 C2396 1.363 . S
C2397 C2403 1.363 . S
C2398 C2399 1.363 . S
C2398 C2403 1.379 1_554 S
C2398 N2405 1.356 . S
C2399 C2398 1.363 . S
C2399 C2402 1.363 . S
N2400 C2402 1.356 . S
N2400 H2412 0.984 . S
N2400 H2413 0.985 . S
N2401 C2403 1.356 . S
N2401 H2406 0.984 . S
N2401 H2407 0.985 . S
C2402 C2396 1.379 1_554 S
C2402 C2399 1.363 . S
C2402 N2400 1.356 . S
C2403 C2397 1.363 . S
C2403 C2398 1.379 1_556 S
C2403 N2401 1.356 . S
N2404 C2396 1.356 . S
N2404 H2410 0.984 . S
N2404 H2411 0.984 . S
N2405 C2398 1.356 . S
N2405 H2408 0.984 . S
N2405 H2409 0.985 . S
H2406 N2401 0.984 . S
H2407 N2401 0.985 . S
H2408 N2405 0.984 . S
H2409 N2405 0.985 . S
H2410 N2404 0.984 . S
H2411 N2404 0.984 . S
H2412 N2400 0.984 . S
H2413 N2400 0.985 . S
C2414 C2415 1.363 . S
C2414 C2420 1.379 1_554 S
C2414 N2422 1.356 . S
C2415 C2414 1.363 . S
C2415 C2421 1.363 . S
C2416 C2417 1.363 . S
C2416 C2421 1.379 1_556 S
C2416 N2423 1.356 . S
C2417 C2416 1.363 . S
C2417 C2420 1.363 . S
N2418 C2420 1.356 . S
N2418 H2430 0.984 . S
N2418 H2431 0.985 . S
N2419 C2421 1.356 . S
N2419 H2424 0.984 . S
N2419 H2425 0.985 . S
C2420 C2414 1.379 1_556 S
C2420 C2417 1.363 . S
C2420 N2418 1.356 . S
C2421 C2415 1.363 . S
C2421 C2416 1.379 1_554 S
C2421 N2419 1.356 . S
N2422 C2414 1.356 . S
N2422 H2428 0.984 . S
N2422 H2429 0.984 . S
N2423 C2416 1.356 . S
N2423 H2426 0.984 . S
N2423 H2427 0.985 . S
H2424 N2419 0.984 . S
H2425 N2419 0.985 . S
H2426 N2423 0.984 . S
H2427 N2423 0.985 . S
H2428 N2422 0.984 . S
H2429 N2422 0.984 . S
H2430 N2418 0.984 . S
H2431 N2418 0.985 . S
C705 C117 1.180 . S
C707 C7 1.180 . S
C723 C139 1.180 . S
C725 C29 1.180 . S
C741 C65 1.180 . S
C743 C169 1.180 . S
C759 C103 1.180 . S
C761 C73 1.180 . S
C777 C191 1.180 . S
C779 C307 1.180 . S
C795 C329 1.180 . S
C797 C205 1.180 . S
C813 C345 1.180 . S
C815 C235 1.180 . S
C831 C257 1.180 . S
C833 C285 1.180 . S
C849 C359 1.180 . S
C851 C469 1.180 . S
C867 C491 1.180 . S
C869 C381 1.180 . S
C885 C417 1.180 . S
C887 C521 1.180 . S
C903 C439 1.180 . S
C905 C455 1.180 . S
C921 C653 1.180 . S
C923 C535 1.180 . S
C939 C675 1.180 . S
C941 C557 1.180 . S
C957 C703 1.180 . S
C959 C593 1.180 . S
C975 C601 1.180 . S
C977 C631 1.180 . S
C993 C659 1.299 . S
C995 C15 1.299 . S
C1011 C681 1.299 . S
C1013 C37 1.299 . S
C1029 C689 1.299 . S
C1031 C51 1.299 . S
C1047 C81 1.299 . S
C1049 C637 1.299 . S
C1065 C109 1.299 . S
C1067 C609 1.299 . S
C1083 C543 1.299 . S
C1085 C125 1.299 . S
C1101 C147 1.299 . S
C1103 C565 1.299 . S
C1119 C579 1.299 . S
C1121 C175 1.299 . S
C1137 C477 1.299 . S
C1139 C197 1.299 . S
C1155 C499 1.299 . S
C1157 C213 1.299 . S
C1173 C241 1.299 . S
C1175 C527 1.299 . S
C1191 C461 1.299 . S
C1193 C263 1.299 . S
C1209 C425 1.299 . S
C1211 C271 1.299 . S
C1227 C293 1.299 . S
C1229 C367 1.299 . S
C1245 C315 1.299 . S
C1247 C389 1.299 . S
C1263 C403 1.299 . S
C1265 C351 1.299 . S
C1281 C74 1.578 1_545 S
C1283 C18 1.573 . S
C1299 C8 1.578 1_655 S
C1301 C40 1.573 . S
C1317 C52 1.573 . S
C1319 C30 1.578 1_565 S
C1335 C84 1.573 . S
C1337 C54 1.578 1_455 S
C1353 C118 1.578 1_565 S
C1355 C98 1.573 . S
C1371 C140 1.578 1_455 S
C1373 C128 1.573 . S
C1389 C172 1.578 1_545 S
C1391 C150 1.573 . S
C1407 C164 1.573 . S
C1409 C106 1.578 1_655 S
C1425 C260 1.578 1_565 S
C1427 C186 1.573 . S
C1443 C194 1.578 1_455 S
C1445 C216 1.573 . S
C1461 C230 1.573 . S
C1463 C206 1.578 1_545 S
C1479 C252 1.573 . S
C1481 C238 1.578 1_655 S
C1497 C296 1.578 1_545 S
C1499 C272 1.573 . S
C1515 C294 1.573 . S
C1517 C318 1.578 1_655 S
C1533 C316 1.573 . S
C1535 C348 1.578 1_565 S
C1551 C340 1.573 . S
C1553 C274 1.578 1_455 S
C1569 C428 1.578 . S
C1571 C370 1.573 . S
C1587 C392 1.573 . S
C1589 C360 1.578 . S
C1605 C382 1.578 . S
C1607 C404 1.573 . S
C1623 C426 1.573 . S
C1625 C406 1.578 . S
C1641 C450 1.573 . S
C1643 C470 1.578 . S
C1659 C492 1.578 . S
C1661 C480 1.573 . S
C1677 C502 1.573 . S
C1679 C524 1.578 . S
C1695 C516 1.573 . S
C1697 C458 1.578 . S
C1713 C602 1.578 . S
C1715 C546 1.573 . S
C1731 C568 1.573 . S
C1733 C536 1.578 . S
C1749 C580 1.573 . S
C1751 C558 1.578 . S
C1767 C612 1.573 . S
C1769 C582 1.578 . S
C1785 C656 1.578 . S
C1787 C626 1.573 . S
C1803 C648 1.573 . S
C1805 C678 1.578 . S
C1821 C692 1.578 . S
C1823 C670 1.573 . S
C1839 C634 1.578 . S
C1841 C690 1.573 . S
C1857 C21 1.304 . S
C1859 C153 1.304 . S
C1875 C161 1.304 . S
C1877 C43 1.304 . S
C1893 C59 1.304 . S
C1895 C95 1.304 . S
C1911 C131 1.304 . S
C1913 C87 1.304 . S
C1929 C183 1.304 . S
C1931 C323 1.304 . S
C1947 C337 1.304 . S
C1949 C219 1.304 . S
C1965 C279 1.304 . S
C1967 C227 1.304 . S
C1983 C301 1.304 . S
C1985 C249 1.304 . S
C2001 C505 1.304 . S
C2003 C373 1.304 . S
C2019 C395 1.304 . S
C2021 C513 1.304 . S
C2037 C447 1.304 . S
C2039 C411 1.304 . S
C2055 C433 1.304 . S
C2057 C483 1.304 . S
C2073 C549 1.304 . S
C2075 C667 1.304 . S
C2091 C697 1.304 . S
C2093 C571 1.304 . S
C2109 C623 1.304 . S
C2111 C587 1.304 . S
C2127 C645 1.304 . S
C2129 C615 1.304 . S
C2145 C228 1.507 . S
C2147 C10 1.507 . S
C2163 C32 1.507 . S
C2165 C250 1.507 . S
C2181 C184 1.507 . S
C2183 C62 1.507 . S
C2199 C208 1.507 . S
C2201 C76 1.507 . S
C2217 C326 1.507 . S
C2219 C96 1.507 . S
C2235 C120 1.507 . S
C2237 C338 1.507 . S
C2253 C282 1.507 . S
C2255 C142 1.507 . S
C2271 C162 1.507 . S
C2273 C304 1.507 . S
C2289 C590 1.507 . S
C2291 C362 1.507 . S
C2307 C604 1.507 . S
C2309 C384 1.507 . S
C2325 C414 1.507 . S
C2327 C538 1.507 . S
C2343 C436 1.507 . S
C2345 C560 1.507 . S
C2361 C668 1.507 . S
C2363 C448 1.507 . S
C2379 C472 1.507 . S
C2381 C700 1.507 . S
C2397 C494 1.507 . S
C2399 C624 1.507 . S
C2415 C646 1.507 . S
C2417 C514 1.507 . S
