# Generated by pormake.
# Topology lcy-e, (6)-cn, num edge types: 1
# Building blocks:
#     Node 0, Type 0, BuildingBlock: CUWYAW_clean_sbu_0, # of connection points: 6
#     Node 1, Type 0, BuildingBlock: CUWYAW_clean_sbu_0, # of connection points: 6
#     Node 2, Type 0, BuildingBlock: CUWYAW_clean_sbu_0, # of connection points: 6
#     Node 3, Type 0, BuildingBlock: CUWYAW_clean_sbu_0, # of connection points: 6
#     Node 4, Type 0, BuildingBlock: CUWYAW_clean_sbu_0, # of connection points: 6
#     Node 5, Type 0, BuildingBlock: CUWYAW_clean_sbu_0, # of connection points: 6
#     Node 6, Type 0, BuildingBlock: CUWYAW_clean_sbu_0, # of connection points: 6
#     Node 7, Type 0, BuildingBlock: CUWYAW_clean_sbu_0, # of connection points: 6
#     Node 8, Type 0, BuildingBlock: CUWYAW_clean_sbu_0, # of connection points: 6
#     Node 9, Type 0, BuildingBlock: CUWYAW_clean_sbu_0, # of connection points: 6
#     Node 10, Type 0, BuildingBlock: CUWYAW_clean_sbu_0, # of connection points: 6
#     Node 11, Type 0, BuildingBlock: CUWYAW_clean_sbu_0, # of connection points: 6
#     Edge 12, Type (0, 0), BuildingBlock: AJUNOK_clean_linker_0, # of connection points: 2
#     Edge 13, Type (0, 0), BuildingBlock: AJUNOK_clean_linker_0, # of connection points: 2
#     Edge 14, Type (0, 0), BuildingBlock: AJUNOK_clean_linker_0, # of connection points: 2
#     Edge 15, Type (0, 0), BuildingBlock: AJUNOK_clean_linker_0, # of connection points: 2
#     Edge 16, Type (0, 0), BuildingBlock: AJUNOK_clean_linker_0, # of connection points: 2
#     Edge 17, Type (0, 0), BuildingBlock: AJUNOK_clean_linker_0, # of connection points: 2
#     Edge 18, Type (0, 0), BuildingBlock: AJUNOK_clean_linker_0, # of connection points: 2
#     Edge 19, Type (0, 0), BuildingBlock: AJUNOK_clean_linker_0, # of connection points: 2
#     Edge 20, Type (0, 0), BuildingBlock: AJUNOK_clean_linker_0, # of connection points: 2
#     Edge 21, Type (0, 0), BuildingBlock: AJUNOK_clean_linker_0, # of connection points: 2
#     Edge 22, Type (0, 0), BuildingBlock: AJUNOK_clean_linker_0, # of connection points: 2
#     Edge 23, Type (0, 0), BuildingBlock: AJUNOK_clean_linker_0, # of connection points: 2
#     Edge 24, Type (0, 0), BuildingBlock: AJUNOK_clean_linker_0, # of connection points: 2
#     Edge 25, Type (0, 0), BuildingBlock: AJUNOK_clean_linker_0, # of connection points: 2
#     Edge 26, Type (0, 0), BuildingBlock: AJUNOK_clean_linker_0, # of connection points: 2
#     Edge 27, Type (0, 0), BuildingBlock: AJUNOK_clean_linker_0, # of connection points: 2
#     Edge 28, Type (0, 0), BuildingBlock: AJUNOK_clean_linker_0, # of connection points: 2
#     Edge 29, Type (0, 0), BuildingBlock: AJUNOK_clean_linker_0, # of connection points: 2
#     Edge 30, Type (0, 0), BuildingBlock: AJUNOK_clean_linker_0, # of connection points: 2
#     Edge 31, Type (0, 0), BuildingBlock: AJUNOK_clean_linker_0, # of connection points: 2
#     Edge 32, Type (0, 0), BuildingBlock: AJUNOK_clean_linker_0, # of connection points: 2
#     Edge 33, Type (0, 0), BuildingBlock: AJUNOK_clean_linker_0, # of connection points: 2
#     Edge 34, Type (0, 0), BuildingBlock: AJUNOK_clean_linker_0, # of connection points: 2
#     Edge 35, Type (0, 0), BuildingBlock: AJUNOK_clean_linker_0, # of connection points: 2
#     Edge 36, Type (0, 0), BuildingBlock: AJUNOK_clean_linker_0, # of connection points: 2
#     Edge 37, Type (0, 0), BuildingBlock: AJUNOK_clean_linker_0, # of connection points: 2
#     Edge 38, Type (0, 0), BuildingBlock: AJUNOK_clean_linker_0, # of connection points: 2
#     Edge 39, Type (0, 0), BuildingBlock: AJUNOK_clean_linker_0, # of connection points: 2
#     Edge 40, Type (0, 0), BuildingBlock: AJUNOK_clean_linker_0, # of connection points: 2
#     Edge 41, Type (0, 0), BuildingBlock: AJUNOK_clean_linker_0, # of connection points: 2
#     Edge 42, Type (0, 0), BuildingBlock: AJUNOK_clean_linker_0, # of connection points: 2
#     Edge 43, Type (0, 0), BuildingBlock: AJUNOK_clean_linker_0, # of connection points: 2
#     Edge 44, Type (0, 0), BuildingBlock: AJUNOK_clean_linker_0, # of connection points: 2
#     Edge 45, Type (0, 0), BuildingBlock: AJUNOK_clean_linker_0, # of connection points: 2
#     Edge 46, Type (0, 0), BuildingBlock: AJUNOK_clean_linker_0, # of connection points: 2
#     Edge 47, Type (0, 0), BuildingBlock: AJUNOK_clean_linker_0, # of connection points: 2
# Relax obj value: 0.186
# Max RMSD: 0.295
# Mean RMSD: 0.280
data_MOF--net-lcy-e--node1-CUWYAW_clean_sbu_0--edge1-AJUNOK_clean_linker_0
_symmetry_space_group_name_H-M    P1
_symmetry_Int_Tables_number       1
_symmetry_cell_setting            triclinic
loop_
_symmetry_equiv_pos_as_xyz
'x, y, z'
_cell_length_a     33.244705
_cell_length_b     34.937178
_cell_length_c     35.11908
_cell_angle_alpha  91.558905
_cell_angle_beta   91.362458
_cell_angle_gamma 87.937885
loop_
_atom_site_label
_atom_site_type_symbol
_atom_site_fract_x
_atom_site_fract_y
_atom_site_fract_z
_atom_type_partial_charge
C0 C 0.11417 0.36337 0.45341 0.0
Eu1 Eu 0.12434 0.33165 0.51954 0.0
C2 C 0.13628 0.38234 0.42373 0.0
C3 C 0.11525 0.40811 0.40002 0.0
C4 C 0.13492 0.42581 0.37089 0.0
C5 C 0.1762 0.4183 0.36499 0.0
C6 C 0.19723 0.39211 0.38856 0.0
C7 C 0.17741 0.37435 0.4178 0.0
C8 C 0.08727 0.34783 0.58728 0.0
C9 C 0.19172 0.3538 0.57848 0.0
C10 C 0.1418 0.23702 0.65011 0.0
Eu11 Eu 0.14432 0.27445 0.58694 0.0
C12 C 0.12602 0.19978 0.65962 0.0
C13 C 0.1087 0.17607 0.63121 0.0
C14 C 0.0926 0.14117 0.64061 0.0
C15 C 0.09382 0.12941 0.67855 0.0
C16 C 0.11127 0.15326 0.70686 0.0
C17 C 0.12709 0.18822 0.69747 0.0
C18 C 0.19514 0.25858 0.52784 0.0
C19 C 0.07464 0.25261 0.52383 0.0
O20 O 0.12201 0.32671 0.45766 0.0
O21 O 0.10941 0.38213 0.48587 0.0
O22 O 0.09807 0.37375 0.56405 0.0
O23 O 0.0944 0.31517 0.57222 0.0
O24 O 0.18413 0.35043 0.54154 0.0
O25 O 0.17535 0.33063 0.60292 0.0
O26 O 0.11475 0.26282 0.63974 0.0
O27 O 0.17321 0.23613 0.62839 0.0
O28 O 0.19458 0.23886 0.55849 0.0
O29 O 0.16791 0.28453 0.53 0.0
O30 O 0.09647 0.24139 0.55393 0.0
O31 O 0.07937 0.28592 0.50781 0.0
H32 H 0.08341 0.41435 0.40384 0.0
H33 H 0.11768 0.44518 0.35268 0.0
H34 H 0.22901 0.38573 0.38464 0.0
H35 H 0.19402 0.35432 0.43565 0.0
H36 H 0.10776 0.18449 0.60178 0.0
H37 H 0.07991 0.12309 0.61819 0.0
H38 H 0.11249 0.14488 0.73635 0.0
H39 H 0.1401 0.20626 0.71977 0.0
C40 C 0.1143 0.93752 0.84333 0.0
Eu41 Eu 0.04459 0.93185 0.80846 0.0
C42 C 0.14735 0.91385 0.8604 0.0
C43 C 0.18711 0.92354 0.85394 0.0
C44 C 0.21923 0.90444 0.87249 0.0
C45 C 0.21232 0.87519 0.89799 0.0
C46 C 0.17251 0.86417 0.90309 0.0
C47 C 0.14023 0.88333 0.88437 0.0
C48 C 0.973 0.96822 0.82655 0.0
C49 C 0.98786 0.86879 0.82834 0.0
C50 C 0.91166 0.90934 0.71026 0.0
Eu51 Eu 0.97711 0.91916 0.75156 0.0
C52 C 0.89879 0.9196 0.67127 0.0
C53 C 0.92358 0.94076 0.64848 0.0
C54 C 0.91086 0.95084 0.61163 0.0
C55 C 0.87304 0.94002 0.59696 0.0
C56 C 0.84853 0.91855 0.61989 0.0
C57 C 0.86127 0.9085 0.65669 0.0
C58 C 0.04809 0.88203 0.73421 0.0
C59 C 0.03554 0.98725 0.73526 0.0
O60 O 0.10988 0.93526 0.80623 0.0
O61 O 0.07996 0.94003 0.8609 0.0
O62 O 0.99859 0.95419 0.8514 0.0
O63 O 0.98791 0.96509 0.79397 0.0
O64 O 0.02639 0.87451 0.82544 0.0
O65 O 0.96146 0.88709 0.80561 0.0
O66 O 0.91627 0.93799 0.73443 0.0
O67 O 0.94084 0.88343 0.7131 0.0
O68 O 0.02484 0.89973 0.70973 0.0
O69 O 0.03274 0.88483 0.76664 0.0
O70 O 0.99982 0.97339 0.72695 0.0
O71 O 0.05859 0.97326 0.76299 0.0
H72 H 0.19329 0.9468 0.83538 0.0
H73 H 0.24955 0.91338 0.8678 0.0
H74 H 0.16618 0.84207 0.92291 0.0
H75 H 0.10978 0.87512 0.88958 0.0
H76 H 0.95277 0.94948 0.65921 0.0
H77 H 0.93075 0.9668 0.59452 0.0
H78 H 0.81915 0.90999 0.60955 0.0
H79 H 0.8417 0.89223 0.67386 0.0
C80 C 0.41897 0.724 0.93934 0.0
Eu81 Eu 0.40149 0.75439 1.00579 0.0
C82 C 0.39869 0.70887 0.90468 0.0
C83 C 0.41268 0.71916 0.86919 0.0
C84 C 0.39516 0.70464 0.83558 0.0
C85 C 0.36327 0.6794 0.83677 0.0
C86 C 0.34848 0.66989 0.87241 0.0
C87 C 0.36596 0.68464 0.90616 0.0
C88 C 0.44148 0.74087 0.07354 0.0
C89 C 0.33694 0.72263 0.05499 0.0
C90 C 0.36505 0.84291 0.13429 0.0
Eu91 Eu 0.37816 0.80596 0.07019 0.0
C92 C 0.38216 0.87823 0.15103 0.0
C93 C 0.35643 0.90767 0.1652 0.0
C94 C 0.37199 0.94224 0.17891 0.0
C95 C 0.41367 0.94809 0.17874 0.0
C96 C 0.43945 0.91834 0.16495 0.0
C97 C 0.42386 0.88389 0.15099 0.0
C98 C 0.33917 0.82302 1.00356 0.0
C99 C 0.44603 0.83516 1.01733 0.0
O100 O 0.41408 0.76082 0.94585 0.0
O101 O 0.41794 0.70418 0.97037 0.0
O102 O 0.42931 0.71408 0.05031 0.0
O103 O 0.43356 0.77268 0.05911 0.0
O104 O 0.34518 0.72636 1.01902 0.0
O105 O 0.34897 0.74836 0.08104 0.0
O106 O 0.38951 0.81284 0.13134 0.0
O107 O 0.34215 0.84739 0.10387 0.0
O108 O 0.35383 0.84804 0.02748 0.0
O109 O 0.34534 0.78956 1.01581 0.0
O110 O 0.43254 0.83774 0.05237 0.0
O111 O 0.43426 0.80781 0.99361 0.0
H112 H 0.43764 0.73812 0.86747 0.0
H113 H 0.40704 0.71263 0.80857 0.0
H114 H 0.32441 0.64999 0.87425 0.0
H115 H 0.35441 0.6766 0.93329 0.0
H116 H 0.32419 0.90411 0.1652 0.0
H117 H 0.35132 0.96462 0.18923 0.0
H118 H 0.47174 0.92151 0.16526 0.0
H119 H 0.44449 0.8618 0.13997 0.0
C120 C 0.41264 0.14932 0.35706 0.0
Eu121 Eu 0.47619 0.15238 0.31489 0.0
C122 C 0.38271 0.17187 0.38001 0.0
C123 C 0.37599 0.16064 0.41731 0.0
C124 C 0.34496 0.17794 0.43858 0.0
C125 C 0.31968 0.20702 0.42317 0.0
C126 C 0.3272 0.21934 0.38625 0.0
C127 C 0.35837 0.20184 0.36478 0.0
C128 C 0.55181 0.12172 0.33084 0.0
C129 C 0.53209 0.21813 0.32826 0.0
C130 C 0.59715 0.16162 0.20631 0.0
Eu131 Eu 0.53623 0.16081 0.25246 0.0
C132 C 0.60876 0.15009 0.16667 0.0
C133 C 0.601 0.17397 0.13551 0.0
C134 C 0.61527 0.16343 0.09914 0.0
C135 C 0.63756 0.12877 0.09302 0.0
C136 C 0.64478 0.10483 0.12415 0.0
C137 C 0.63067 0.11533 0.16033 0.0
C138 C 0.46329 0.19714 0.23833 0.0
C139 C 0.47639 0.09028 0.2442 0.0
O140 O 0.4109 0.15187 0.31989 0.0
O141 O 0.44959 0.14608 0.37064 0.0
O142 O 0.52783 0.13635 0.35638 0.0
O143 O 0.53337 0.12028 0.29896 0.0
O144 O 0.49344 0.21229 0.32582 0.0
O145 O 0.55662 0.19878 0.30448 0.0
O146 O 0.59005 0.13358 0.22872 0.0
O147 O 0.57271 0.19138 0.21222 0.0
O148 O 0.4839 0.17747 0.21321 0.0
O149 O 0.48208 0.19584 0.26994 0.0
O150 O 0.50911 0.10546 0.2315 0.0
O151 O 0.45762 0.10495 0.27413 0.0
H152 H 0.39411 0.13756 0.42972 0.0
H153 H 0.34027 0.16804 0.46705 0.0
H154 H 0.30808 0.24146 0.37346 0.0
H155 H 0.36271 0.21107 0.33602 0.0
H156 H 0.58462 0.2011 0.13932 0.0
H157 H 0.60939 0.18272 0.07587 0.0
H158 H 0.66288 0.07859 0.12098 0.0
H159 H 0.63796 0.09652 0.18372 0.0
C160 C 0.66118 0.36699 0.46411 0.0
Eu161 Eu 0.65138 0.31118 0.51063 0.0
C162 C 0.63782 0.39915 0.44675 0.0
C163 C 0.64734 0.41041 0.41016 0.0
C164 C 0.62929 0.44351 0.39481 0.0
C165 C 0.60158 0.46636 0.4159 0.0
C166 C 0.59047 0.45399 0.45182 0.0
C167 C 0.60847 0.42069 0.46717 0.0
C168 C 0.68409 0.23723 0.50663 0.0
C169 C 0.57609 0.2658 0.4831 0.0
C170 C 0.61345 0.20067 0.61404 0.0
Eu171 Eu 0.6197 0.25547 0.56565 0.0
C172 C 0.63646 0.1871 0.64835 0.0
C173 C 0.62888 0.20285 0.68495 0.0
C174 C 0.64943 0.18842 0.71719 0.0
C175 C 0.67772 0.15774 0.71358 0.0
C176 C 0.68621 0.14286 0.67693 0.0
C177 C 0.66573 0.15718 0.64479 0.0
C178 C 0.57668 0.32159 0.56472 0.0
C179 C 0.70204 0.30343 0.58661 0.0
O180 O 0.66781 0.36962 0.50091 0.0
O181 O 0.65318 0.33215 0.45237 0.0
O182 O 0.70459 0.26731 0.50026 0.0
O183 O 0.64859 0.24802 0.51151 0.0
O184 O 0.58941 0.30067 0.48636 0.0
O185 O 0.5869 0.24022 0.50915 0.0
O186 O 0.63131 0.19613 0.58137 0.0
O187 O 0.59332 0.23349 0.61684 0.0
O188 O 0.56141 0.28817 0.56786 0.0
O189 O 0.61503 0.31944 0.56384 0.0
O190 O 0.67878 0.27483 0.59462 0.0
O191 O 0.69548 0.32447 0.5567 0.0
H192 H 0.66963 0.39415 0.3938 0.0
H193 H 0.6376 0.45164 0.36658 0.0
H194 H 0.56898 0.4708 0.46861 0.0
H195 H 0.60035 0.41243 0.49541 0.0
H196 H 0.60652 0.22584 0.68883 0.0
H197 H 0.64211 0.2003 0.74509 0.0
H198 H 0.7082 0.11949 0.6732 0.0
H199 H 0.67241 0.14432 0.61713 0.0
C200 C 0.09913 0.38456 0.88451 0.0
Eu201 Eu 0.05434 0.40069 0.82432 0.0
C202 C 0.11549 0.40313 0.91954 0.0
C203 C 0.14652 0.38425 0.9401 0.0
C204 C 0.16028 0.39934 0.97513 0.0
C205 C 0.14311 0.43359 0.99053 0.0
C206 C 0.1128 0.45317 0.96928 0.0
C207 C 0.09896 0.43796 0.93413 0.0
C208 C 0.06601 0.37029 0.75186 0.0
C209 C 0.06917 0.47168 0.77884 0.0
C210 C 0.94015 0.42934 0.71155 0.0
Eu211 Eu 0.98946 0.41898 0.76951 0.0
C212 C 0.90631 0.40696 0.69551 0.0
C213 C 0.86782 0.42453 0.69157 0.0
C214 C 0.83526 0.40366 0.67736 0.0
C215 C 0.84059 0.36483 0.66646 0.0
C216 C 0.87898 0.34706 0.67089 0.0
C217 C 0.91147 0.36784 0.6854 0.0
C218 C 0.9769 0.45277 0.83965 0.0
C219 C 0.97676 0.34743 0.82088 0.0
O220 O 0.06012 0.38139 0.88259 0.0
O221 O 0.11393 0.39378 0.85198 0.0
O222 O 0.09402 0.3845 0.77356 0.0
O223 O 0.03385 0.37101 0.77012 0.0
O224 O 0.07143 0.45999 0.81395 0.0
O225 O 0.04138 0.45796 0.75474 0.0
O226 O 0.97649 0.41414 0.70836 0.0
O227 O 0.93452 0.44551 0.74503 0.0
O228 O 0.94997 0.43515 0.81925 0.0
O229 O 1.01002 0.45037 0.8227 0.0
O230 O 0.96778 0.36162 0.78724 0.0
O231 O 1.00576 0.36192 0.84223 0.0
H232 H 0.15973 0.35741 0.92933 0.0
H233 H 0.18445 0.38413 0.99023 0.0
H234 H 0.09919 0.47973 0.98025 0.0
H235 H 0.07488 0.45296 0.91871 0.0
H236 H 0.86293 0.45451 0.69944 0.0
H237 H 0.80607 0.41812 0.67402 0.0
H238 H 0.88384 0.31708 0.66303 0.0
H239 H 0.94058 0.35321 0.68867 0.0
C240 C 0.86283 0.69577 0.96515 0.0
Eu241 Eu 0.87682 0.76092 1.00069 0.0
C242 C 0.88421 0.66058 0.95042 0.0
C243 C 0.91309 0.66141 0.92185 0.0
C244 C 0.93107 0.6272 0.90742 0.0
C245 C 0.92066 0.5915 0.92133 0.0
C246 C 0.89229 0.59093 0.95033 0.0
C247 C 0.87431 0.625 0.96464 0.0
C248 C 0.83468 0.8298 0.99181 0.0
C249 C 0.94142 0.81315 0.97444 0.0
C250 C 0.90743 0.88344 0.09853 0.0
Eu251 Eu 0.89702 0.82213 0.05644 0.0
C252 C 0.88911 0.89637 0.13496 0.0
C253 C 0.91339 0.8998 0.16801 0.0
C254 C 0.89635 0.91021 0.20298 0.0
C255 C 0.85461 0.91771 0.20571 0.0
C256 C 0.83027 0.91424 0.1726 0.0
C257 C 0.84728 0.90349 0.13766 0.0
C258 C 0.93655 0.75435 0.07023 0.0
C259 C 0.82893 0.76716 0.08037 0.0
O260 O 0.86264 0.7006 1.00215 0.0
O261 O 0.86676 0.72796 0.94758 0.0
O262 O 0.84837 0.80873 0.96374 0.0
O263 O 0.84263 0.81292 1.02212 0.0
O264 O 0.93476 0.77654 0.97615 0.0
O265 O 0.92625 0.83749 1.00039 0.0
O266 O 0.88362 0.88273 0.06836 0.0
O267 O 0.93174 0.85324 0.10005 0.0
O268 O 0.91957 0.77634 0.09588 0.0
O269 O 0.93168 0.76874 0.03767 0.0
O270 O 0.84203 0.80214 0.08511 0.0
O271 O 0.84219 0.74459 0.05232 0.0
H272 H 0.92133 0.68836 0.91021 0.0
H273 H 0.95219 0.62865 0.88454 0.0
H274 H 0.88368 0.564 0.96176 0.0
H275 H 0.85211 0.62349 0.9866 0.0
H276 H 0.94561 0.89419 0.16685 0.0
H277 H 0.91592 0.91251 0.22798 0.0
H278 H 0.79819 0.92067 0.17347 0.0
H279 H 0.82756 0.90086 0.11279 0.0
C280 C 0.61923 0.64809 0.2377 0.0
Eu281 Eu 0.54597 0.65085 0.26236 0.0
C282 C 0.64631 0.6706 0.21499 0.0
C283 C 0.64291 0.67061 0.17501 0.0
C284 C 0.67099 0.68916 0.15379 0.0
C285 C 0.70281 0.70822 0.17211 0.0
C286 C 0.70565 0.70914 0.21204 0.0
C287 C 0.67777 0.6903 0.23328 0.0
C288 C 0.48084 0.60971 0.23959 0.0
C289 C 0.47844 0.70696 0.23133 0.0
C290 C 0.39812 0.65459 0.34217 0.0
Eu291 Eu 0.46758 0.66306 0.31144 0.0
C292 C 0.38654 0.64633 0.38112 0.0
C293 C 0.4081 0.66104 0.41283 0.0
C294 C 0.40033 0.64879 0.44941 0.0
C295 C 0.3715 0.62113 0.4547 0.0
C296 C 0.34956 0.60693 0.42302 0.0
C297 C 0.35703 0.61946 0.38652 0.0
C298 C 0.52243 0.71684 0.33309 0.0
C299 C 0.53794 0.6027 0.3405 0.0
O300 O 0.60948 0.66241 0.27121 0.0
O301 O 0.5892 0.63162 0.21978 0.0
O302 O 0.50646 0.62283 0.21617 0.0
O303 O 0.49238 0.61747 0.27329 0.0
O304 O 0.51772 0.70367 0.23738 0.0
O305 O 0.45291 0.68929 0.25311 0.0
O306 O 0.41874 0.62681 0.32544 0.0
O307 O 0.41269 0.68822 0.33632 0.0
O308 O 0.48828 0.71306 0.34936 0.0
O309 O 0.52587 0.69077 0.30772 0.0
O310 O 0.50275 0.62007 0.34808 0.0
O311 O 0.55837 0.60945 0.30966 0.0
H312 H 0.61915 0.65557 0.15999 0.0
H313 H 0.66825 0.68812 0.12298 0.0
H314 H 0.73029 0.72317 0.22676 0.0
H315 H 0.68137 0.69042 0.26403 0.0
H316 H 0.43161 0.68123 0.40924 0.0
H317 H 0.41747 0.66021 0.47348 0.0
H318 H 0.32664 0.58611 0.42652 0.0
H319 H 0.34052 0.6074 0.36234 0.0
C320 C 0.1719 0.60819 0.18898 0.0
Eu321 Eu 0.23602 0.56446 0.17777 0.0
C322 C 0.1396 0.6281 0.16688 0.0
C323 C 0.12063 0.66094 0.18288 0.0
C324 C 0.08811 0.67906 0.16395 0.0
C325 C 0.07377 0.66472 0.12853 0.0
C326 C 0.09351 0.63231 0.11196 0.0
C327 C 0.12623 0.61413 0.13099 0.0
C328 C 0.31238 0.57812 0.20494 0.0
C329 C 0.28437 0.57682 0.10772 0.0
C330 C 0.35763 0.45535 0.14985 0.0
Eu331 Eu 0.29583 0.50204 0.16152 0.0
C332 C 0.36932 0.41613 0.16224 0.0
C333 C 0.34367 0.3852 0.15623 0.0
C334 C 0.35504 0.34862 0.16906 0.0
C335 C 0.39208 0.34225 0.18842 0.0
C336 C 0.41748 0.37325 0.19466 0.0
C337 C 0.4063 0.4097 0.18157 0.0
C338 C 0.22148 0.48841 0.13031 0.0
C339 C 0.24292 0.49297 0.23547 0.0
O340 O 0.17188 0.57071 0.18827 0.0
O341 O 0.20809 0.62145 0.18721 0.0
O342 O 0.28844 0.60389 0.18991 0.0
O343 O 0.29447 0.54705 0.20652 0.0
O344 O 0.24669 0.57595 0.11737 0.0
O345 O 0.31118 0.55276 0.12387 0.0
O346 O 0.35709 0.48215 0.17655 0.0
O347 O 0.32716 0.45898 0.12581 0.0
O348 O 0.24401 0.4634 0.14826 0.0
O349 O 0.23884 0.51998 0.13098 0.0
O350 O 0.27503 0.47955 0.21738 0.0
O351 O 0.22205 0.52328 0.22356 0.0
H352 H 0.13054 0.67223 0.21044 0.0
H353 H 0.07385 0.70422 0.17726 0.0
H354 H 0.08293 0.62036 0.08492 0.0
H355 H 0.14055 0.58879 0.11808 0.0
H356 H 0.31472 0.38926 0.14184 0.0
H357 H 0.33463 0.3254 0.16427 0.0
H358 H 0.4463 0.36917 0.20931 0.0
H359 H 0.42653 0.43301 0.18672 0.0
C360 C 0.67292 0.96658 0.90099 0.0
Eu361 Eu 0.7337 1.01132 0.90209 0.0
C362 C 0.6435 0.95122 0.92701 0.0
C363 C 0.6451 0.91197 0.93476 0.0
C364 C 0.61437 0.89592 0.95479 0.0
C365 C 0.58164 0.91888 0.96751 0.0
C366 C 0.58084 0.95835 0.96152 0.0
C367 C 0.61146 0.97443 0.94127 0.0
C368 C 0.80535 0.99955 0.86559 0.0
C369 C 0.79108 0.99082 0.97188 0.0
C370 C 0.8718 0.10064 0.91723 0.0
Eu371 Eu 0.80388 0.06694 0.92291 0.0
C372 C 0.88397 0.13886 0.90635 0.0
C373 C 0.92469 0.14778 0.90838 0.0
C374 C 0.93722 0.18249 0.89462 0.0
C375 C 0.90925 0.20885 0.87832 0.0
C376 C 0.86828 0.20007 0.8769 0.0
C377 C 0.85574 0.16532 0.89078 0.0
C378 C 0.73739 0.09114 0.96248 0.0
C379 C 0.7396 0.08439 0.85155 0.0
O380 O 0.66967 1.00325 0.89405 0.0
O381 O 0.71039 0.95383 0.9042 0.0
O382 O 0.77082 0.99356 0.84883 0.0
O383 O 0.7996 1.00881 0.89953 0.0
O384 O 0.75291 0.99583 0.96171 0.0
O385 O 0.81843 1.01358 0.95829 0.0
O386 O 0.85519 0.0804 0.88952 0.0
O387 O 0.85337 0.09817 0.94973 0.0
O388 O 0.77156 0.10797 0.9641 0.0
O389 O 0.74012 0.063 0.93911 0.0
O390 O 0.77555 0.09048 0.86746 0.0
O391 O 0.71524 0.05914 0.86442 0.0
H392 H 0.66921 0.89337 0.92388 0.0
H393 H 0.61508 0.86524 0.9587 0.0
H394 H 0.55544 0.97634 0.97063 0.0
H395 H 0.60918 1.00477 0.93567 0.0
H396 H 0.94694 0.12754 0.9199 0.0
H397 H 0.96899 0.18841 0.89599 0.0
H398 H 0.84596 0.22007 0.86515 0.0
H399 H 0.82413 0.15879 0.88879 0.0
C400 C 0.8586 0.09304 0.39858 0.0
Eu401 Eu 0.79141 0.0576 0.40448 0.0
C402 C 0.89067 0.11204 0.42067 0.0
C403 C 0.9266 0.11895 0.40244 0.0
C404 C 0.95671 0.13943 0.42128 0.0
C405 C 0.95146 0.15341 0.45877 0.0
C406 C 0.91615 0.14508 0.47772 0.0
C407 C 0.88576 0.12461 0.45868 0.0
C408 C 0.71895 0.07685 0.3705 0.0
C409 C 0.73413 0.07923 0.46761 0.0
C410 C 0.6624 0.95911 0.41713 0.0
Eu411 Eu 0.72649 1.00052 0.41441 0.0
C412 C 0.64928 0.92056 0.40313 0.0
C413 C 0.64881 0.88959 0.42786 0.0
C414 C 0.63352 0.85428 0.41547 0.0
C415 C 0.61811 0.8489 0.37802 0.0
C416 C 0.61929 0.87968 0.3531 0.0
C417 C 0.63463 0.91494 0.36544 0.0
C418 C 0.79733 0.98308 0.45244 0.0
C419 C 0.78825 0.98392 0.34629 0.0
O420 O 0.8569 0.05585 0.40126 0.0
O421 O 0.82304 0.11037 0.3975 0.0
O422 O 0.74374 0.10167 0.38438 0.0
O423 O 0.73516 0.04369 0.37161 0.0
O424 O 0.77284 0.07392 0.46273 0.0
O425 O 0.70864 0.0559 0.44941 0.0
O426 O 0.66792 0.98448 0.39133 0.0
O427 O 0.6895 0.96082 0.44475 0.0
O428 O 0.77563 0.95838 0.43384 0.0
O429 O 0.78061 1.01589 0.44969 0.0
O430 O 0.75303 0.97537 0.35985 0.0
O431 O 0.80918 1.01195 0.36142 0.0
H432 H 0.93098 0.1093 0.3732 0.0
H433 H 0.9838 0.14523 0.4062 0.0
H434 H 0.91144 0.15566 0.50661 0.0
H435 H 0.85818 0.11942 0.47321 0.0
H436 H 0.65951 0.89285 0.4571 0.0
H437 H 0.63312 0.83127 0.4355 0.0
H438 H 0.60678 0.87712 0.32443 0.0
H439 H 0.63398 0.93813 0.34557 0.0
C440 C 0.19706 0.64487 0.63526 0.0
Eu441 Eu 0.23717 0.58135 0.65022 0.0
C442 C 0.17668 0.67783 0.65483 0.0
C443 C 0.13736 0.68869 0.64336 0.0
C444 C 0.11874 0.72199 0.65851 0.0
C445 C 0.13913 0.74527 0.68537 0.0
C446 C 0.17817 0.73382 0.69768 0.0
C447 C 0.19676 0.70032 0.68264 0.0
C448 C 0.22535 0.51126 0.61578 0.0
C449 C 0.21303 0.53167 0.71558 0.0
C450 C 0.34383 0.45994 0.68138 0.0
Eu451 Eu 0.29761 0.5206 0.66972 0.0
C452 C 0.38101 0.44573 0.66279 0.0
C453 C 0.40761 0.41992 0.68127 0.0
C454 C 0.44294 0.40657 0.66354 0.0
C455 C 0.45226 0.41885 0.62702 0.0
C456 C 0.42602 0.44555 0.60908 0.0
C457 C 0.39071 0.45872 0.62675 0.0
C458 C 0.31208 0.58966 0.70401 0.0
C459 C 0.31738 0.5728 0.60029 0.0
O460 O 0.23629 0.64209 0.63872 0.0
O461 O 0.18017 0.61169 0.63627 0.0
O462 O 0.19663 0.53325 0.62924 0.0
O463 O 0.25798 0.52776 0.61986 0.0
O464 O 0.21375 0.56777 0.70651 0.0
O465 O 0.24075 0.50656 0.70249 0.0
O466 O 0.3109 0.45952 0.66026 0.0
O467 O 0.3468 0.49184 0.70133 0.0
O468 O 0.33905 0.56756 0.68772 0.0
O469 O 0.27811 0.57472 0.70085 0.0
O470 O 0.32325 0.53831 0.61413 0.0
O471 O 0.28913 0.59636 0.61383 0.0
H472 H 0.12133 0.67186 0.62195 0.0
H473 H 0.08846 0.72985 0.6488 0.0
H474 H 0.19487 0.75137 0.71794 0.0
H475 H 0.22718 0.69265 0.69204 0.0
H476 H 0.40086 0.40979 0.70921 0.0
H477 H 0.46241 0.38577 0.67794 0.0
H478 H 0.43259 0.45597 0.58121 0.0
H479 H 0.37083 0.47884 0.61206 0.0
C480 C 0.19762 0.40765 0.6267 0.0
C481 C 0.20978 0.39024 0.59204 0.0
C482 C 0.20364 0.44674 0.63461 0.0
C483 C 0.22261 0.46954 0.60855 0.0
H484 H 0.18094 0.39175 0.64673 0.0
H485 H 0.19273 0.45944 0.66101 0.0
S486 S 0.26883 0.43597 0.51823 0.0
N487 N 0.24775 0.39767 0.53438 0.0
N488 N 0.25977 0.4707 0.55007 0.0
C489 C 0.23886 0.45165 0.57592 0.0
C490 C 0.23227 0.41208 0.56748 0.0
C491 C 0.87311 0.96946 0.87672 0.0
C492 C 0.84616 0.98877 0.85176 0.0
C493 C 0.91382 0.96325 0.86825 0.0
C494 C 0.92959 0.97616 0.83432 0.0
H495 H 0.86265 0.9593 0.90341 0.0
H496 H 0.93305 0.94813 0.88862 0.0
S497 S 0.8722 0.03013 0.75993 0.0
N498 N 0.83817 1.02161 0.79193 0.0
N499 N 0.91513 1.01052 0.77594 0.0
C500 C 0.903 0.99553 0.80886 0.0
C501 C 0.86117 1.00161 0.81751 0.0
C502 C 0.29369 0.68347 0.09503 0.0
C503 C 0.32219 0.68532 0.06651 0.0
C504 C 0.28077 0.64801 0.10683 0.0
C505 C 0.29692 0.61306 0.09157 0.0
H506 H 0.28121 0.70954 0.10817 0.0
H507 H 0.25871 0.64803 0.12904 0.0
S508 S 0.37374 0.60237 1.0173 0.0
N509 N 0.36655 0.64916 1.02328 0.0
N510 N 0.34333 0.58261 0.04706 0.0
C511 C 0.3257 0.61448 0.06334 0.0
C512 C 0.33807 0.6506 0.05045 0.0
C513 C 0.60369 0.08263 0.36764 0.0
C514 C 0.59464 0.10894 0.33875 0.0
C515 C 0.64381 0.07153 0.37723 0.0
C516 C 0.67659 0.08646 0.35851 0.0
H517 H 0.57954 0.07079 0.38326 0.0
H518 H 0.64904 0.05247 0.40061 0.0
S519 S 0.67025 0.16084 0.28551 0.0
N520 N 0.62292 0.15277 0.29486 0.0
N521 N 0.69758 0.13153 0.31255 0.0
C522 C 0.66813 0.11367 0.33067 0.0
C523 C 0.6274 0.12483 0.32072 0.0
C524 C 0.73734 0.18513 0.49647 0.0
C525 C 0.69666 0.19602 0.50045 0.0
C526 C 0.74921 0.14677 0.48845 0.0
C527 C 0.72081 0.11761 0.48331 0.0
H528 H 0.76018 0.20647 0.49894 0.0
H529 H 0.781 0.14043 0.48464 0.0
S530 S 0.61057 0.13031 0.49307 0.0
N531 N 0.62801 0.17344 0.50117 0.0
N532 N 0.65047 0.10223 0.48474 0.0
C533 C 0.68024 0.12784 0.48847 0.0
C534 C 0.66816 0.16674 0.49736 0.0
C535 C 0.14349 0.47592 0.77583 0.0
C536 C 0.10488 0.49043 0.76477 0.0
C537 C 0.17854 0.48937 0.76009 0.0
C538 C 0.17631 0.51872 0.73368 0.0
H539 H 0.14663 0.45279 0.79574 0.0
H540 H 0.20748 0.47667 0.76855 0.0
S541 S 0.08259 0.56649 0.69547 0.0
N542 N 0.06652 0.53523 0.72558 0.0
N543 N 0.13223 0.562 0.69699 0.0
C544 C 0.13788 0.53415 0.72306 0.0
C545 C 0.10218 0.51964 0.73836 0.0
C546 C 0.84304 0.93751 0.97946 0.0
C547 C 0.80366 0.95198 0.98572 0.0
C548 C 0.8528 0.89814 0.98133 0.0
C549 C 0.82396 0.8715 0.99039 0.0
H550 H 0.86621 0.95638 0.97111 0.0
H551 H 0.88328 0.88894 0.97552 0.0
S552 S 0.71855 0.89488 1.0168 0.0
N553 N 0.73673 0.93661 1.00635 0.0
N554 N 0.7559 0.86292 1.01097 0.0
C555 C 0.7855 0.88582 1.00009 0.0
C556 C 0.77519 0.9259 0.99759 0.0
C557 C 0.41571 0.57892 0.25492 0.0
C558 C 0.43972 0.5968 0.22854 0.0
C559 C 0.37476 0.57197 0.2469 0.0
C560 C 0.35636 0.58271 0.21214 0.0
H561 H 0.42863 0.57039 0.28209 0.0
H562 H 0.35717 0.55914 0.26843 0.0
S563 S 0.40911 0.61875 0.12913 0.0
N564 N 0.44426 0.61636 0.16303 0.0
N565 N 0.36739 0.60554 0.14875 0.0
C566 C 0.38095 0.59763 0.18447 0.0
C567 C 0.4227 0.60376 0.19231 0.0
C568 C 0.51885 0.25602 0.38864 0.0
C569 C 0.54659 0.23536 0.36519 0.0
C570 C 0.52791 0.265 0.42713 0.0
C571 C 0.56469 0.25293 0.44395 0.0
H572 H 0.4893 0.26448 0.37747 0.0
H573 H 0.50588 0.28114 0.4439 0.0
S574 S 0.65 0.20317 0.39452 0.0
N575 N 0.61414 0.20689 0.36139 0.0
N576 N 0.63088 0.22349 0.43332 0.0
C577 C 0.59339 0.23408 0.42053 0.0
C578 C 0.58446 0.22541 0.38128 0.0
C579 C 0.0593 0.3277 0.65012 0.0
C580 C 0.07749 0.35539 0.6283 0.0
C581 C 0.05473 0.33286 0.68993 0.0
C582 C 0.0686 0.36576 0.70945 0.0
H583 H 0.04877 0.30169 0.63638 0.0
H584 H 0.04128 0.31052 0.70562 0.0
S585 S 0.10754 0.45115 0.66407 0.0
N586 N 0.10086 0.42035 0.62828 0.0
N587 N 0.09555 0.42867 0.70264 0.0
C588 C 0.08433 0.39454 0.68746 0.0
C589 C 0.08762 0.38986 0.647 0.0
C590 C 0.9366 0.85829 0.87758 0.0
C591 C 0.97504 0.84984 0.86315 0.0
C592 C 0.92652 0.84697 0.91403 0.0
C593 C 0.95449 0.82712 0.93763 0.0
H594 H 0.91443 0.87471 0.86113 0.0
H595 H 0.8962 0.85314 0.92327 0.0
S596 S 0.05722 0.79331 0.91175 0.0
N597 N 0.04007 0.81688 0.87423 0.0
N598 N 0.02052 0.79581 0.94271 0.0
C599 C 0.99216 0.81659 0.92293 0.0
C600 C 1.00261 0.82803 0.88578 0.0
C601 C 0.43056 0.70795 0.17502 0.0
C602 C 0.46459 0.72274 0.19408 0.0
C603 C 0.42316 0.71411 0.13602 0.0
C604 C 0.44883 0.73608 0.11492 0.0
H605 H 0.4108 0.68958 0.18966 0.0
H606 H 0.39736 0.70125 0.12217 0.0
S607 S 0.53685 0.78805 0.1529 0.0
N608 N 0.52102 0.76484 0.18975 0.0
N609 N 0.50585 0.77748 0.11699 0.0
C610 C 0.48056 0.7541 0.13434 0.0
C611 C 0.48873 0.74719 0.17379 0.0
C612 C 0.21974 0.41697 0.30704 0.0
C613 C 0.19675 0.43798 0.33418 0.0
C614 C 0.23593 0.43499 0.27571 0.0
C615 C 0.22951 0.47456 0.27043 0.0
H616 H 0.22405 0.38623 0.30929 0.0
H617 H 0.25229 0.41759 0.25483 0.0
S618 S 0.17694 0.54316 0.33673 0.0
N619 N 0.17254 0.50101 0.35603 0.0
N620 N 0.20232 0.53472 0.29739 0.0
C621 C 0.20833 0.49605 0.29849 0.0
C622 C 0.19212 0.47781 0.33027 0.0
C623 C 0.84129 0.92358 0.53327 0.0
C624 C 0.85861 0.95107 0.55806 0.0
C625 C 0.82383 0.93378 0.49803 0.0
C626 C 0.8226 0.97201 0.48621 0.0
H627 H 0.84047 0.89397 0.54154 0.0
H628 H 0.80968 0.9117 0.48071 0.0
S629 S 0.86683 0.05447 0.53896 0.0
N630 N 0.87559 1.01789 0.56717 0.0
N631 N 0.84328 0.03692 0.50078 0.0
C632 C 0.84167 0.99945 0.50979 0.0
C633 C 0.85953 0.98904 0.54571 0.0
C634 C 0.36429 0.62255 0.74335 0.0
C635 C 0.32327 0.61708 0.73503 0.0
C636 C 0.37665 0.64358 0.77571 0.0
C637 C 0.34853 0.66027 0.80105 0.0
H638 H 0.3873 0.60928 0.72552 0.0
H639 H 0.40865 0.64555 0.78165 0.0
S640 S 0.23735 0.65923 0.78934 0.0
N641 N 0.25431 0.63325 0.75273 0.0
N642 N 0.27765 0.67327 0.81359 0.0
C643 C 0.30731 0.6568 0.79208 0.0
C644 C 0.29467 0.63524 0.75899 0.0
C645 C 0.67889 0.14733 0.03789 0.0
C646 C 0.65689 0.11938 0.05556 0.0
C647 C 0.70263 0.1381 1.00616 0.0
C648 C 0.70505 0.10069 0.99018 0.0
H649 H 0.67968 0.17616 0.04996 0.0
H650 H 0.72066 0.16028 0.99498 0.0
S651 S 0.65024 1.01764 1.02313 0.0
N652 N 0.63665 0.05309 0.05271 0.0
N653 N 0.68103 0.03603 0.99282 0.0
C654 C 0.68129 0.07293 1.00594 0.0
C655 C 0.65741 0.08219 0.03871 0.0
C656 C 0.71541 0.16026 0.77714 0.0
C657 C 0.69565 0.13898 0.748 0.0
C658 C 0.73119 0.14251 0.81022 0.0
C659 C 0.72679 0.10312 0.81556 0.0
H660 H 0.71862 0.19079 0.77433 0.0
H661 H 0.74574 0.15987 0.83216 0.0
S662 S 0.67852 0.03462 0.74751 0.0
N663 N 0.6735 0.07632 0.72663 0.0
N664 N 0.7027 0.04324 0.78824 0.0
C665 C 0.70767 0.08161 0.78634 0.0
C666 C 0.69219 0.09945 0.75275 0.0
C667 C 0.18724 0.50059 0.06695 0.0
C668 C 0.19484 0.47624 0.09788 0.0
C669 C 0.16894 0.48713 0.03287 0.0
C670 C 0.15751 0.44882 0.0284 0.0
H671 H 0.19726 0.52976 0.06829 0.0
H672 H 0.16547 0.50637 1.00924 0.0
S673 S 0.16424 0.37546 0.103 0.0
N674 N 0.18492 0.41337 0.12331 0.0
N675 N 0.15028 0.38827 0.0596 0.0
C676 C 0.16234 0.42504 0.06004 0.0
C677 C 0.18096 0.43871 0.09467 0.0
C678 C 0.84113 0.97654 0.29709 0.0
C679 C 0.80473 0.96414 0.31162 0.0
C680 C 0.85693 0.96097 0.26335 0.0
C681 C 0.83733 0.93204 0.24242 0.0
H682 H 0.85758 0.99914 0.31144 0.0
H683 H 0.88439 0.97247 0.25311 0.0
S684 S 0.7428 0.887 0.26897 0.0
N685 N 0.75034 0.91971 0.30299 0.0
N686 N 0.78065 0.88984 0.23966 0.0
C687 C 0.80142 0.91852 0.25688 0.0
C688 C 0.78508 0.93459 0.29143 0.0
C689 C 0.33962 0.62312 0.5574 0.0
C690 C 0.33789 0.58399 0.56562 0.0
C691 C 0.35229 0.6349 0.52199 0.0
C692 C 0.36322 0.60797 0.49334 0.0
H693 H 0.32981 0.64488 0.57805 0.0
H694 H 0.35178 0.66526 0.5164 0.0
S695 S 0.36787 0.50228 0.50144 0.0
N696 N 0.35121 0.51837 0.54303 0.0
N697 N 0.37488 0.54067 0.4763 0.0
C698 C 0.36359 0.56884 0.50171 0.0
C699 C 0.35108 0.5568 0.53796 0.0
C700 C 0.22874 0.20891 0.48687 0.0
C701 C 0.22162 0.24805 0.49553 0.0
C702 C 0.25921 0.1963 0.46214 0.0
C703 C 0.28441 0.22225 0.44529 0.0
H704 H 0.21137 0.18761 0.50036 0.0
H705 H 0.26385 0.16575 0.45703 0.0
S706 S 0.27871 0.32798 0.45906 0.0
N707 N 0.24204 0.31287 0.4852 0.0
N708 N 0.29971 0.28925 0.4387 0.0
C709 C 0.27677 0.26169 0.45263 0.0
C710 C 0.24535 0.27457 0.47781 0.0
C711 C 0.10382 0.06691 0.71039 0.0
C712 C 0.07874 0.09167 0.68889 0.0
C713 C 0.08991 0.0325 0.72348 0.0
C714 C 0.05008 1.02134 0.71595 0.0
H715 H 0.13443 0.0745 0.71768 0.0
H716 H 0.11054 1.01501 0.74055 0.0
S717 S 0.97295 0.07516 0.65858 0.0
N718 N 0.01283 0.10208 0.6587 0.0
N719 N 0.98634 0.03718 0.68354 0.0
C720 C 0.02507 0.0451 0.69302 0.0
C721 C 0.03946 0.08029 0.67945 0.0
C722 C 0.27119 0.88591 0.94182 0.0
C723 C 0.24612 0.85993 0.9224 0.0
C724 C 0.30188 0.87331 0.96687 0.0
C725 C 0.30893 0.83414 0.97375 0.0
H726 H 0.26634 0.91648 0.93849 0.0
H727 H 0.31967 0.89472 0.98164 0.0
S728 S 0.25443 0.75396 0.92727 0.0
N729 N 0.23214 0.79289 0.90967 0.0
N730 N 0.29008 0.76908 0.95702 0.0
C731 C 0.28512 0.80759 0.95353 0.0
C732 C 0.25356 0.82052 0.92795 0.0
C733 C 0.43117 0.0345 0.24442 0.0
C734 C 0.46079 0.0546 0.22595 0.0
C735 C 0.41622 1.00037 0.22888 0.0
C736 C 0.43005 0.98473 0.19408 0.0
H737 H 0.41961 0.04485 0.27152 0.0
H738 H 0.394 0.98578 0.24465 0.0
S739 S 0.5055 1.02694 0.1328 0.0
N740 N 0.50246 0.05673 0.17002 0.0
N741 N 0.47379 0.99283 0.14055 0.0
C742 C 0.45925 1.00466 0.17491 0.0
C743 C 0.47469 0.03949 0.19086 0.0
C744 C 0.76901 0.34315 0.66594 0.0
C745 C 0.80665 0.34383 0.64828 0.0
C746 C 0.73547 0.32705 0.64711 0.0
C747 C 0.73846 0.31166 0.60986 0.0
H748 H 0.76525 0.35607 0.69407 0.0
H749 H 0.70663 0.32861 0.66089 0.0
S750 S 0.83007 0.30532 0.55156 0.0
N751 N 0.84489 0.32633 0.59193 0.0
N752 N 0.78196 0.29682 0.55656 0.0
C753 C 0.77611 0.31105 0.5925 0.0
C754 C 0.81022 0.32689 0.61171 0.0
C755 C 0.92418 0.49188 0.87437 0.0
C756 C 0.96498 0.48578 0.86524 0.0
C757 C 0.91049 0.52559 0.89329 0.0
C758 C 0.93696 0.55478 0.90397 0.0
H759 H 0.90223 0.47101 0.86565 0.0
H760 H 0.87856 0.52938 0.89834 0.0
S761 S 0.04756 0.55106 0.89131 0.0
N762 N 0.03236 0.51048 0.87156 0.0
N763 N 1.00662 0.57372 0.90727 0.0
C764 C 0.97815 0.54832 0.89673 0.0
C765 C 0.99216 0.51384 0.8775 0.0
C766 C 0.7852 0.71507 0.10041 0.0
C767 C 0.79726 0.75319 0.10505 0.0
C768 C 0.75449 0.70102 0.12205 0.0
C769 C 0.7347 0.72441 0.14938 0.0
H770 H 0.79946 0.69572 0.07978 0.0
H771 H 0.74642 0.67143 0.11762 0.0
S772 S 0.75336 0.8265 0.17208 0.0
N773 N 0.78605 0.81438 0.13881 0.0
N774 N 0.72829 0.78757 0.17962 0.0
C775 C 0.74628 0.76249 0.15455 0.0
C776 C 0.77754 0.77698 0.13235 0.0
C777 C 0.54401 0.51286 0.3998 0.0
C778 C 0.58564 0.50356 0.40071 0.0
C779 C 0.52861 0.54633 0.38229 0.0
C780 C 0.55435 0.5716 0.36509 0.0
H781 H 0.52308 0.49337 0.4113 0.0
H782 H 0.49629 0.55139 0.38056 0.0
S783 S 0.66603 0.56371 0.36565 0.0
N784 N 0.65245 0.52501 0.38727 0.0
N785 N 0.62373 0.58724 0.35415 0.0
C786 C 0.59611 0.56374 0.36796 0.0
C787 C 0.6117 0.52993 0.38579 0.0
C788 C 0.4187 0.2988 0.23972 0.0
C789 C 0.40485 0.30346 0.20189 0.0
C790 C 0.43485 0.26345 0.25211 0.0
C791 C 0.43844 0.23144 0.22697 0.0
H792 H 0.41789 0.32297 0.25972 0.0
H793 H 0.4464 0.26185 0.28114 0.0
S794 S 0.40379 0.22778 0.12574 0.0
N795 N 0.39341 0.27239 0.14004 0.0
N796 N 0.42399 0.20608 0.16316 0.0
C797 C 0.42286 0.23522 0.18958 0.0
C798 C 0.40606 0.27116 0.17707 0.0
C799 C 0.96554 0.30097 0.87214 0.0
C800 C 0.95617 0.31359 0.83505 0.0
C801 C 0.94953 0.26769 0.88594 0.0
C802 C 0.92326 0.24548 0.86344 0.0
H803 H 0.98599 0.31658 0.89075 0.0
H804 H 0.95809 0.25911 0.91451 0.0
S805 S 0.88791 0.266 0.76476 0.0
N806 N 0.91778 0.30146 0.77635 0.0
N807 N 0.88782 0.23863 0.80239 0.0
C808 C 0.91264 0.2581 0.82667 0.0
C809 C 0.92906 0.29216 0.81247 0.0
C810 C 1.00331 0.69154 0.13282 0.0
C811 C 0.03717 0.68304 0.11045 0.0
C812 C 0.97003 0.71268 0.1185 0.0
C813 C 0.96904 0.72628 0.08115 0.0
H814 H 1.00292 0.68258 0.1621 0.0
H815 H 0.94537 0.71957 0.13742 0.0
S816 S 0.04855 0.70931 1.00966 0.0
N817 N 0.06669 0.68789 0.04812 0.0
N818 N 1.00372 0.72748 1.02102 0.0
C819 C 1.00164 0.71619 0.05761 0.0
C820 C 0.03579 0.69461 0.07231 0.0
C821 C 0.56935 0.79777 0.39093 0.0
C822 C 0.59734 0.81277 0.36639 0.0
C823 C 0.54663 0.76604 0.38005 0.0
C824 C 0.55096 0.74738 0.34425 0.0
H825 H 0.56377 0.81152 0.41841 0.0
H826 H 0.52475 0.7565 0.39979 0.0
S827 S 0.62138 0.77367 0.26974 0.0
N828 N 0.62932 0.80518 0.30484 0.0
N829 N 0.58626 0.74561 0.28447 0.0
C830 C 0.57962 0.76115 0.31971 0.0
C831 C 0.60275 0.79383 0.3307 0.0
C832 C 0.55705 0.37517 0.60939 0.0
C833 C 0.55165 0.35594 0.5741 0.0
C834 C 0.52543 0.39749 0.62554 0.0
C835 C 0.48758 0.40143 0.60676 0.0
H836 H 0.58451 0.37027 0.62606 0.0
H837 H 0.52994 0.41014 0.65375 0.0
S838 S 0.46011 0.35928 0.51193 0.0
N839 N 0.50723 0.3444 0.51961 0.0
N840 N 0.44796 0.38629 0.54952 0.0
C841 C 0.48308 0.38457 0.57013 0.0
C842 C 0.51512 0.36181 0.55393 0.0
C843 C 0.10127 0.80679 0.67225 0.0
C844 C 0.11993 0.78212 0.69889 0.0
C845 C 0.08001 0.84022 0.68392 0.0
C846 C 0.07634 0.85026 0.72276 0.0
H847 H 0.10254 0.79987 0.64203 0.0
H848 H 0.06511 0.85753 0.6623 0.0
S849 S 0.12284 0.79749 0.80391 0.0
N850 N 0.13556 0.77138 0.76587 0.0
N851 N 0.0961 0.83463 0.78781 0.0
C852 C 0.09664 0.82699 0.74968 0.0
C853 C 0.11831 0.79282 0.73776 0.0
C854 C 0.5021 0.88053 0.03102 0.0
C855 C 0.47764 0.86048 1.0045 0.0
C856 C 0.5355 0.90037 1.01909 0.0
C857 C 0.54532 0.90054 0.98041 0.0
H858 H 0.4963 0.87979 0.06121 0.0
H859 H 0.55432 0.91471 0.04022 0.0
S860 S 0.48898 0.85661 0.8993 0.0
N861 N 0.46402 0.84541 0.93725 0.0
N862 N 0.52698 0.88193 0.91555 0.0
C863 C 0.52034 0.88215 0.95362 0.0
C864 C 0.48639 0.86232 0.96549 0.0
C865 C 1.00223 0.17027 0.51045 0.0
C866 C 0.9815 0.17934 0.47632 0.0
C867 C 0.03241 0.19392 0.52568 0.0
C868 C 0.04259 0.22769 0.5075 0.0
H869 H 0.99564 0.14437 0.52502 0.0
H870 H 0.04781 0.18559 0.55184 0.0
S871 S 0.99448 0.26487 0.41833 0.0
N872 N 0.97151 0.22478 0.42574 0.0
N873 N 0.02768 0.26918 0.4537 0.0
C874 C 0.02113 0.23724 0.47363 0.0
C875 C 0.99074 0.21311 0.45825 0.0
loop_
_geom_bond_atom_site_label_1
_geom_bond_atom_site_label_2
_geom_bond_distance
_geom_bond_site_symmetry_2
_ccdc_geom_bond_type
C0 Eu1 2.835 . S
C0 C2 1.500 . S
C0 O20 1.257 . S
C0 O21 1.260 . S
Eu1 C0 2.835 . S
Eu1 O20 2.473 . S
Eu1 O21 2.480 . S
Eu1 O22 2.430 . S
Eu1 O23 2.670 . S
Eu1 O24 2.394 . S
Eu1 O29 2.355 . S
Eu1 O31 2.374 . S
C2 C0 1.500 . S
C2 C3 1.377 . S
C2 C7 1.377 . S
C3 C2 1.377 . S
C3 C4 1.395 . S
C3 H32 0.931 . S
C4 C3 1.395 . S
C4 C5 1.383 . S
C4 H33 0.931 . S
C5 C4 1.383 . S
C5 C6 1.394 . S
C6 C5 1.394 . S
C6 C7 1.378 . S
C6 H34 0.931 . S
C7 C2 1.377 . S
C7 C6 1.378 . S
C7 H35 0.931 . S
C8 O22 1.259 . S
C8 O23 1.270 . S
C9 O24 1.251 . S
C9 O25 1.251 . S
C10 Eu11 2.835 . S
C10 C12 1.500 . S
C10 O26 1.257 . S
C10 O27 1.260 . S
Eu11 C10 2.835 . S
Eu11 O23 2.355 . S
Eu11 O25 2.374 . S
Eu11 O26 2.473 . S
Eu11 O27 2.480 . S
Eu11 O28 2.430 . S
Eu11 O29 2.670 . S
Eu11 O30 2.394 . S
C12 C10 1.500 . S
C12 C13 1.377 . S
C12 C17 1.377 . S
C13 C12 1.377 . S
C13 C14 1.395 . S
C13 H36 0.931 . S
C14 C13 1.395 . S
C14 C15 1.383 . S
C14 H37 0.931 . S
C15 C14 1.383 . S
C15 C16 1.394 . S
C16 C15 1.394 . S
C16 C17 1.378 . S
C16 H38 0.931 . S
C17 C12 1.377 . S
C17 C16 1.378 . S
C17 H39 0.931 . S
C18 O28 1.259 . S
C18 O29 1.270 . S
C19 O30 1.251 . S
C19 O31 1.251 . S
O20 C0 1.257 . S
O20 Eu1 2.473 . S
O21 C0 1.260 . S
O21 Eu1 2.480 . S
O22 Eu1 2.430 . S
O22 C8 1.259 . S
O23 Eu1 2.670 . S
O23 C8 1.270 . S
O23 Eu11 2.355 . S
O24 Eu1 2.394 . S
O24 C9 1.251 . S
O25 C9 1.251 . S
O25 Eu11 2.374 . S
O26 C10 1.257 . S
O26 Eu11 2.473 . S
O27 C10 1.260 . S
O27 Eu11 2.480 . S
O28 Eu11 2.430 . S
O28 C18 1.259 . S
O29 Eu1 2.355 . S
O29 Eu11 2.670 . S
O29 C18 1.270 . S
O30 Eu11 2.394 . S
O30 C19 1.251 . S
O31 Eu1 2.374 . S
O31 C19 1.251 . S
H32 C3 0.931 . S
H33 C4 0.931 . S
H34 C6 0.931 . S
H35 C7 0.931 . S
H36 C13 0.931 . S
H37 C14 0.931 . S
H38 C16 0.931 . S
H39 C17 0.931 . S
C40 Eu41 2.835 . S
C40 C42 1.500 . S
C40 O60 1.257 . S
C40 O61 1.260 . S
Eu41 C40 2.835 . S
Eu41 O60 2.473 . S
Eu41 O61 2.480 . S
Eu41 O62 2.430 1_455 S
Eu41 O63 2.670 1_455 S
Eu41 O64 2.394 1_455 S
Eu41 O69 2.355 . S
Eu41 O71 2.374 . S
C42 C40 1.500 . S
C42 C43 1.377 . S
C42 C47 1.377 . S
C43 C42 1.377 . S
C43 C44 1.395 . S
C43 H72 0.931 . S
C44 C43 1.395 . S
C44 C45 1.383 . S
C44 H73 0.931 . S
C45 C44 1.383 . S
C45 C46 1.394 . S
C46 C45 1.394 . S
C46 C47 1.378 . S
C46 H74 0.931 . S
C47 C42 1.377 . S
C47 C46 1.378 . S
C47 H75 0.931 . S
C48 O62 1.259 . S
C48 O63 1.270 . S
C49 O64 1.251 . S
C49 O65 1.251 . S
C50 Eu51 2.835 . S
C50 C52 1.500 . S
C50 O66 1.257 . S
C50 O67 1.260 . S
Eu51 C50 2.835 . S
Eu51 O63 2.355 . S
Eu51 O65 2.374 . S
Eu51 O66 2.473 . S
Eu51 O67 2.480 . S
Eu51 O68 2.430 1_655 S
Eu51 O69 2.670 1_655 S
Eu51 O70 2.394 1_655 S
C52 C50 1.500 . S
C52 C53 1.377 . S
C52 C57 1.377 . S
C53 C52 1.377 . S
C53 C54 1.395 . S
C53 H76 0.931 . S
C54 C53 1.395 . S
C54 C55 1.383 . S
C54 H77 0.931 . S
C55 C54 1.383 . S
C55 C56 1.394 . S
C56 C55 1.394 . S
C56 C57 1.378 . S
C56 H78 0.931 . S
C57 C52 1.377 . S
C57 C56 1.378 . S
C57 H79 0.931 . S
C58 O68 1.259 . S
C58 O69 1.270 . S
C59 O70 1.251 . S
C59 O71 1.251 . S
O60 C40 1.257 . S
O60 Eu41 2.473 . S
O61 C40 1.260 . S
O61 Eu41 2.480 . S
O62 Eu41 2.430 1_655 S
O62 C48 1.259 . S
O63 Eu41 2.670 1_655 S
O63 C48 1.270 . S
O63 Eu51 2.355 . S
O64 Eu41 2.394 1_655 S
O64 C49 1.251 . S
O65 C49 1.251 . S
O65 Eu51 2.374 . S
O66 C50 1.257 . S
O66 Eu51 2.473 . S
O67 C50 1.260 . S
O67 Eu51 2.480 . S
O68 Eu51 2.430 1_455 S
O68 C58 1.259 . S
O69 Eu41 2.355 . S
O69 Eu51 2.670 1_455 S
O69 C58 1.270 . S
O70 Eu51 2.394 1_455 S
O70 C59 1.251 . S
O71 Eu41 2.374 . S
O71 C59 1.251 . S
H72 C43 0.931 . S
H73 C44 0.931 . S
H74 C46 0.931 . S
H75 C47 0.931 . S
H76 C53 0.931 . S
H77 C54 0.931 . S
H78 C56 0.931 . S
H79 C57 0.931 . S
C80 Eu81 2.835 . S
C80 C82 1.500 . S
C80 O100 1.257 . S
C80 O101 1.260 . S
Eu81 C80 2.835 . S
Eu81 O100 2.473 . S
Eu81 O101 2.480 . S
Eu81 O102 2.430 1_556 S
Eu81 O103 2.670 1_556 S
Eu81 O104 2.394 1_556 S
Eu81 O109 2.355 . S
Eu81 O111 2.374 . S
C82 C80 1.500 . S
C82 C83 1.377 . S
C82 C87 1.377 . S
C83 C82 1.377 . S
C83 C84 1.395 . S
C83 H112 0.931 . S
C84 C83 1.395 . S
C84 C85 1.383 . S
C84 H113 0.931 . S
C85 C84 1.383 . S
C85 C86 1.394 . S
C86 C85 1.394 . S
C86 C87 1.378 . S
C86 H114 0.931 . S
C87 C82 1.377 . S
C87 C86 1.378 . S
C87 H115 0.931 . S
C88 O102 1.259 . S
C88 O103 1.270 . S
C89 O104 1.251 . S
C89 O105 1.251 . S
C90 Eu91 2.835 . S
C90 C92 1.500 . S
C90 O106 1.257 . S
C90 O107 1.260 . S
Eu91 C90 2.835 . S
Eu91 O103 2.355 . S
Eu91 O105 2.374 . S
Eu91 O106 2.473 . S
Eu91 O107 2.480 . S
Eu91 O108 2.430 1_554 S
Eu91 O109 2.670 1_554 S
Eu91 O110 2.394 1_554 S
C92 C90 1.500 . S
C92 C93 1.377 . S
C92 C97 1.377 . S
C93 C92 1.377 . S
C93 C94 1.395 . S
C93 H116 0.931 . S
C94 C93 1.395 . S
C94 C95 1.383 . S
C94 H117 0.931 . S
C95 C94 1.383 . S
C95 C96 1.394 . S
C96 C95 1.394 . S
C96 C97 1.378 . S
C96 H118 0.931 . S
C97 C92 1.377 . S
C97 C96 1.378 . S
C97 H119 0.931 . S
C98 O108 1.259 . S
C98 O109 1.270 . S
C99 O110 1.251 . S
C99 O111 1.251 . S
O100 C80 1.257 . S
O100 Eu81 2.473 . S
O101 C80 1.260 . S
O101 Eu81 2.480 . S
O102 Eu81 2.430 1_554 S
O102 C88 1.259 . S
O103 Eu81 2.670 1_554 S
O103 C88 1.270 . S
O103 Eu91 2.355 . S
O104 Eu81 2.394 1_554 S
O104 C89 1.251 . S
O105 C89 1.251 . S
O105 Eu91 2.374 . S
O106 C90 1.257 . S
O106 Eu91 2.473 . S
O107 C90 1.260 . S
O107 Eu91 2.480 . S
O108 Eu91 2.430 1_556 S
O108 C98 1.259 . S
O109 Eu81 2.355 . S
O109 Eu91 2.670 1_556 S
O109 C98 1.270 . S
O110 Eu91 2.394 1_556 S
O110 C99 1.251 . S
O111 Eu81 2.374 . S
O111 C99 1.251 . S
H112 C83 0.931 . S
H113 C84 0.931 . S
H114 C86 0.931 . S
H115 C87 0.931 . S
H116 C93 0.931 . S
H117 C94 0.931 . S
H118 C96 0.931 . S
H119 C97 0.931 . S
C120 Eu121 2.835 . S
C120 C122 1.500 . S
C120 O140 1.257 . S
C120 O141 1.260 . S
Eu121 C120 2.835 . S
Eu121 O140 2.473 . S
Eu121 O141 2.480 . S
Eu121 O142 2.430 . S
Eu121 O143 2.670 . S
Eu121 O144 2.394 . S
Eu121 O149 2.355 . S
Eu121 O151 2.374 . S
C122 C120 1.500 . S
C122 C123 1.377 . S
C122 C127 1.377 . S
C123 C122 1.377 . S
C123 C124 1.395 . S
C123 H152 0.931 . S
C124 C123 1.395 . S
C124 C125 1.383 . S
C124 H153 0.931 . S
C125 C124 1.383 . S
C125 C126 1.394 . S
C126 C125 1.394 . S
C126 C127 1.378 . S
C126 H154 0.931 . S
C127 C122 1.377 . S
C127 C126 1.378 . S
C127 H155 0.931 . S
C128 O142 1.259 . S
C128 O143 1.270 . S
C129 O144 1.251 . S
C129 O145 1.251 . S
C130 Eu131 2.835 . S
C130 C132 1.500 . S
C130 O146 1.257 . S
C130 O147 1.260 . S
Eu131 C130 2.835 . S
Eu131 O143 2.355 . S
Eu131 O145 2.374 . S
Eu131 O146 2.473 . S
Eu131 O147 2.480 . S
Eu131 O148 2.430 . S
Eu131 O149 2.670 . S
Eu131 O150 2.394 . S
C132 C130 1.500 . S
C132 C133 1.377 . S
C132 C137 1.377 . S
C133 C132 1.377 . S
C133 C134 1.395 . S
C133 H156 0.931 . S
C134 C133 1.395 . S
C134 C135 1.383 . S
C134 H157 0.931 . S
C135 C134 1.383 . S
C135 C136 1.394 . S
C136 C135 1.394 . S
C136 C137 1.378 . S
C136 H158 0.931 . S
C137 C132 1.377 . S
C137 C136 1.378 . S
C137 H159 0.931 . S
C138 O148 1.259 . S
C138 O149 1.270 . S
C139 O150 1.251 . S
C139 O151 1.251 . S
O140 C120 1.257 . S
O140 Eu121 2.473 . S
O141 C120 1.260 . S
O141 Eu121 2.480 . S
O142 Eu121 2.430 . S
O142 C128 1.259 . S
O143 Eu121 2.670 . S
O143 C128 1.270 . S
O143 Eu131 2.355 . S
O144 Eu121 2.394 . S
O144 C129 1.251 . S
O145 C129 1.251 . S
O145 Eu131 2.374 . S
O146 C130 1.257 . S
O146 Eu131 2.473 . S
O147 C130 1.260 . S
O147 Eu131 2.480 . S
O148 Eu131 2.430 . S
O148 C138 1.259 . S
O149 Eu121 2.355 . S
O149 Eu131 2.670 . S
O149 C138 1.270 . S
O150 Eu131 2.394 . S
O150 C139 1.251 . S
O151 Eu121 2.374 . S
O151 C139 1.251 . S
H152 C123 0.931 . S
H153 C124 0.931 . S
H154 C126 0.931 . S
H155 C127 0.931 . S
H156 C133 0.931 . S
H157 C134 0.931 . S
H158 C136 0.931 . S
H159 C137 0.931 . S
C160 Eu161 2.835 . S
C160 C162 1.500 . S
C160 O180 1.257 . S
C160 O181 1.260 . S
Eu161 C160 2.835 . S
Eu161 O180 2.473 . S
Eu161 O181 2.480 . S
Eu161 O182 2.430 . S
Eu161 O183 2.670 . S
Eu161 O184 2.394 . S
Eu161 O189 2.355 . S
Eu161 O191 2.374 . S
C162 C160 1.500 . S
C162 C163 1.377 . S
C162 C167 1.377 . S
C163 C162 1.377 . S
C163 C164 1.395 . S
C163 H192 0.931 . S
C164 C163 1.395 . S
C164 C165 1.383 . S
C164 H193 0.931 . S
C165 C164 1.383 . S
C165 C166 1.394 . S
C166 C165 1.394 . S
C166 C167 1.378 . S
C166 H194 0.931 . S
C167 C162 1.377 . S
C167 C166 1.378 . S
C167 H195 0.931 . S
C168 O182 1.259 . S
C168 O183 1.270 . S
C169 O184 1.251 . S
C169 O185 1.251 . S
C170 Eu171 2.835 . S
C170 C172 1.500 . S
C170 O186 1.257 . S
C170 O187 1.260 . S
Eu171 C170 2.835 . S
Eu171 O183 2.355 . S
Eu171 O185 2.374 . S
Eu171 O186 2.473 . S
Eu171 O187 2.480 . S
Eu171 O188 2.430 . S
Eu171 O189 2.670 . S
Eu171 O190 2.394 . S
C172 C170 1.500 . S
C172 C173 1.377 . S
C172 C177 1.377 . S
C173 C172 1.377 . S
C173 C174 1.395 . S
C173 H196 0.931 . S
C174 C173 1.395 . S
C174 C175 1.383 . S
C174 H197 0.931 . S
C175 C174 1.383 . S
C175 C176 1.394 . S
C176 C175 1.394 . S
C176 C177 1.378 . S
C176 H198 0.931 . S
C177 C172 1.377 . S
C177 C176 1.378 . S
C177 H199 0.931 . S
C178 O188 1.259 . S
C178 O189 1.270 . S
C179 O190 1.251 . S
C179 O191 1.251 . S
O180 C160 1.257 . S
O180 Eu161 2.473 . S
O181 C160 1.260 . S
O181 Eu161 2.480 . S
O182 Eu161 2.430 . S
O182 C168 1.259 . S
O183 Eu161 2.670 . S
O183 C168 1.270 . S
O183 Eu171 2.355 . S
O184 Eu161 2.394 . S
O184 C169 1.251 . S
O185 C169 1.251 . S
O185 Eu171 2.374 . S
O186 C170 1.257 . S
O186 Eu171 2.473 . S
O187 C170 1.260 . S
O187 Eu171 2.480 . S
O188 Eu171 2.430 . S
O188 C178 1.259 . S
O189 Eu161 2.355 . S
O189 Eu171 2.670 . S
O189 C178 1.270 . S
O190 Eu171 2.394 . S
O190 C179 1.251 . S
O191 Eu161 2.374 . S
O191 C179 1.251 . S
H192 C163 0.931 . S
H193 C164 0.931 . S
H194 C166 0.931 . S
H195 C167 0.931 . S
H196 C173 0.931 . S
H197 C174 0.931 . S
H198 C176 0.931 . S
H199 C177 0.931 . S
C200 Eu201 2.835 . S
C200 C202 1.500 . S
C200 O220 1.257 . S
C200 O221 1.260 . S
Eu201 C200 2.835 . S
Eu201 O220 2.473 . S
Eu201 O221 2.480 . S
Eu201 O222 2.430 . S
Eu201 O223 2.670 . S
Eu201 O224 2.394 . S
Eu201 O229 2.355 1_455 S
Eu201 O231 2.374 1_455 S
C202 C200 1.500 . S
C202 C203 1.377 . S
C202 C207 1.377 . S
C203 C202 1.377 . S
C203 C204 1.395 . S
C203 H232 0.931 . S
C204 C203 1.395 . S
C204 C205 1.383 . S
C204 H233 0.931 . S
C205 C204 1.383 . S
C205 C206 1.394 . S
C206 C205 1.394 . S
C206 C207 1.378 . S
C206 H234 0.931 . S
C207 C202 1.377 . S
C207 C206 1.378 . S
C207 H235 0.931 . S
C208 O222 1.259 . S
C208 O223 1.270 . S
C209 O224 1.251 . S
C209 O225 1.251 . S
C210 Eu211 2.835 . S
C210 C212 1.500 . S
C210 O226 1.257 . S
C210 O227 1.260 . S
Eu211 C210 2.835 . S
Eu211 O223 2.355 1_655 S
Eu211 O225 2.374 1_655 S
Eu211 O226 2.473 . S
Eu211 O227 2.480 . S
Eu211 O228 2.430 . S
Eu211 O229 2.670 . S
Eu211 O230 2.394 . S
C212 C210 1.500 . S
C212 C213 1.377 . S
C212 C217 1.377 . S
C213 C212 1.377 . S
C213 C214 1.395 . S
C213 H236 0.931 . S
C214 C213 1.395 . S
C214 C215 1.383 . S
C214 H237 0.931 . S
C215 C214 1.383 . S
C215 C216 1.394 . S
C216 C215 1.394 . S
C216 C217 1.378 . S
C216 H238 0.931 . S
C217 C212 1.377 . S
C217 C216 1.378 . S
C217 H239 0.931 . S
C218 O228 1.259 . S
C218 O229 1.270 . S
C219 O230 1.251 . S
C219 O231 1.251 . S
O220 C200 1.257 . S
O220 Eu201 2.473 . S
O221 C200 1.260 . S
O221 Eu201 2.480 . S
O222 Eu201 2.430 . S
O222 C208 1.259 . S
O223 Eu201 2.670 . S
O223 C208 1.270 . S
O223 Eu211 2.355 1_455 S
O224 Eu201 2.394 . S
O224 C209 1.251 . S
O225 C209 1.251 . S
O225 Eu211 2.374 1_455 S
O226 C210 1.257 . S
O226 Eu211 2.473 . S
O227 C210 1.260 . S
O227 Eu211 2.480 . S
O228 Eu211 2.430 . S
O228 C218 1.259 . S
O229 Eu201 2.355 1_655 S
O229 Eu211 2.670 . S
O229 C218 1.270 . S
O230 Eu211 2.394 . S
O230 C219 1.251 . S
O231 Eu201 2.374 1_655 S
O231 C219 1.251 . S
H232 C203 0.931 . S
H233 C204 0.931 . S
H234 C206 0.931 . S
H235 C207 0.931 . S
H236 C213 0.931 . S
H237 C214 0.931 . S
H238 C216 0.931 . S
H239 C217 0.931 . S
C240 Eu241 2.835 . S
C240 C242 1.500 . S
C240 O260 1.257 . S
C240 O261 1.260 . S
Eu241 C240 2.835 . S
Eu241 O260 2.473 . S
Eu241 O261 2.480 . S
Eu241 O262 2.430 . S
Eu241 O263 2.670 . S
Eu241 O264 2.394 . S
Eu241 O269 2.355 1_556 S
Eu241 O271 2.374 1_556 S
C242 C240 1.500 . S
C242 C243 1.377 . S
C242 C247 1.377 . S
C243 C242 1.377 . S
C243 C244 1.395 . S
C243 H272 0.931 . S
C244 C243 1.395 . S
C244 C245 1.383 . S
C244 H273 0.931 . S
C245 C244 1.383 . S
C245 C246 1.394 . S
C246 C245 1.394 . S
C246 C247 1.378 . S
C246 H274 0.931 . S
C247 C242 1.377 . S
C247 C246 1.378 . S
C247 H275 0.931 . S
C248 O262 1.259 . S
C248 O263 1.270 . S
C249 O264 1.251 . S
C249 O265 1.251 . S
C250 Eu251 2.835 . S
C250 C252 1.500 . S
C250 O266 1.257 . S
C250 O267 1.260 . S
Eu251 C250 2.835 . S
Eu251 O263 2.355 1_554 S
Eu251 O265 2.374 1_554 S
Eu251 O266 2.473 . S
Eu251 O267 2.480 . S
Eu251 O268 2.430 . S
Eu251 O269 2.670 . S
Eu251 O270 2.394 . S
C252 C250 1.500 . S
C252 C253 1.377 . S
C252 C257 1.377 . S
C253 C252 1.377 . S
C253 C254 1.395 . S
C253 H276 0.931 . S
C254 C253 1.395 . S
C254 C255 1.383 . S
C254 H277 0.931 . S
C255 C254 1.383 . S
C255 C256 1.394 . S
C256 C255 1.394 . S
C256 C257 1.378 . S
C256 H278 0.931 . S
C257 C252 1.377 . S
C257 C256 1.378 . S
C257 H279 0.931 . S
C258 O268 1.259 . S
C258 O269 1.270 . S
C259 O270 1.251 . S
C259 O271 1.251 . S
O260 C240 1.257 . S
O260 Eu241 2.473 . S
O261 C240 1.260 . S
O261 Eu241 2.480 . S
O262 Eu241 2.430 . S
O262 C248 1.259 . S
O263 Eu241 2.670 . S
O263 C248 1.270 . S
O263 Eu251 2.355 1_556 S
O264 Eu241 2.394 . S
O264 C249 1.251 . S
O265 C249 1.251 . S
O265 Eu251 2.374 1_556 S
O266 C250 1.257 . S
O266 Eu251 2.473 . S
O267 C250 1.260 . S
O267 Eu251 2.480 . S
O268 Eu251 2.430 . S
O268 C258 1.259 . S
O269 Eu241 2.355 1_554 S
O269 Eu251 2.670 . S
O269 C258 1.270 . S
O270 Eu251 2.394 . S
O270 C259 1.251 . S
O271 Eu241 2.374 1_554 S
O271 C259 1.251 . S
H272 C243 0.931 . S
H273 C244 0.931 . S
H274 C246 0.931 . S
H275 C247 0.931 . S
H276 C253 0.931 . S
H277 C254 0.931 . S
H278 C256 0.931 . S
H279 C257 0.931 . S
C280 Eu281 2.835 . S
C280 C282 1.500 . S
C280 O300 1.257 . S
C280 O301 1.260 . S
Eu281 C280 2.835 . S
Eu281 O300 2.473 . S
Eu281 O301 2.480 . S
Eu281 O302 2.430 . S
Eu281 O303 2.670 . S
Eu281 O304 2.394 . S
Eu281 O309 2.355 . S
Eu281 O311 2.374 . S
C282 C280 1.500 . S
C282 C283 1.377 . S
C282 C287 1.377 . S
C283 C282 1.377 . S
C283 C284 1.395 . S
C283 H312 0.931 . S
C284 C283 1.395 . S
C284 C285 1.383 . S
C284 H313 0.931 . S
C285 C284 1.383 . S
C285 C286 1.394 . S
C286 C285 1.394 . S
C286 C287 1.378 . S
C286 H314 0.931 . S
C287 C282 1.377 . S
C287 C286 1.378 . S
C287 H315 0.931 . S
C288 O302 1.259 . S
C288 O303 1.270 . S
C289 O304 1.251 . S
C289 O305 1.251 . S
C290 Eu291 2.835 . S
C290 C292 1.500 . S
C290 O306 1.257 . S
C290 O307 1.260 . S
Eu291 C290 2.835 . S
Eu291 O303 2.355 . S
Eu291 O305 2.374 . S
Eu291 O306 2.473 . S
Eu291 O307 2.480 . S
Eu291 O308 2.430 . S
Eu291 O309 2.670 . S
Eu291 O310 2.394 . S
C292 C290 1.500 . S
C292 C293 1.377 . S
C292 C297 1.377 . S
C293 C292 1.377 . S
C293 C294 1.395 . S
C293 H316 0.931 . S
C294 C293 1.395 . S
C294 C295 1.383 . S
C294 H317 0.931 . S
C295 C294 1.383 . S
C295 C296 1.394 . S
C296 C295 1.394 . S
C296 C297 1.378 . S
C296 H318 0.931 . S
C297 C292 1.377 . S
C297 C296 1.378 . S
C297 H319 0.931 . S
C298 O308 1.259 . S
C298 O309 1.270 . S
C299 O310 1.251 . S
C299 O311 1.251 . S
O300 C280 1.257 . S
O300 Eu281 2.473 . S
O301 C280 1.260 . S
O301 Eu281 2.480 . S
O302 Eu281 2.430 . S
O302 C288 1.259 . S
O303 Eu281 2.670 . S
O303 C288 1.270 . S
O303 Eu291 2.355 . S
O304 Eu281 2.394 . S
O304 C289 1.251 . S
O305 C289 1.251 . S
O305 Eu291 2.374 . S
O306 C290 1.257 . S
O306 Eu291 2.473 . S
O307 C290 1.260 . S
O307 Eu291 2.480 . S
O308 Eu291 2.430 . S
O308 C298 1.259 . S
O309 Eu281 2.355 . S
O309 Eu291 2.670 . S
O309 C298 1.270 . S
O310 Eu291 2.394 . S
O310 C299 1.251 . S
O311 Eu281 2.374 . S
O311 C299 1.251 . S
H312 C283 0.931 . S
H313 C284 0.931 . S
H314 C286 0.931 . S
H315 C287 0.931 . S
H316 C293 0.931 . S
H317 C294 0.931 . S
H318 C296 0.931 . S
H319 C297 0.931 . S
C320 Eu321 2.835 . S
C320 C322 1.500 . S
C320 O340 1.257 . S
C320 O341 1.260 . S
Eu321 C320 2.835 . S
Eu321 O340 2.473 . S
Eu321 O341 2.480 . S
Eu321 O342 2.430 . S
Eu321 O343 2.670 . S
Eu321 O344 2.394 . S
Eu321 O349 2.355 . S
Eu321 O351 2.374 . S
C322 C320 1.500 . S
C322 C323 1.377 . S
C322 C327 1.377 . S
C323 C322 1.377 . S
C323 C324 1.395 . S
C323 H352 0.931 . S
C324 C323 1.395 . S
C324 C325 1.383 . S
C324 H353 0.931 . S
C325 C324 1.383 . S
C325 C326 1.394 . S
C326 C325 1.394 . S
C326 C327 1.378 . S
C326 H354 0.931 . S
C327 C322 1.377 . S
C327 C326 1.378 . S
C327 H355 0.931 . S
C328 O342 1.259 . S
C328 O343 1.270 . S
C329 O344 1.251 . S
C329 O345 1.251 . S
C330 Eu331 2.835 . S
C330 C332 1.500 . S
C330 O346 1.257 . S
C330 O347 1.260 . S
Eu331 C330 2.835 . S
Eu331 O343 2.355 . S
Eu331 O345 2.374 . S
Eu331 O346 2.473 . S
Eu331 O347 2.480 . S
Eu331 O348 2.430 . S
Eu331 O349 2.670 . S
Eu331 O350 2.394 . S
C332 C330 1.500 . S
C332 C333 1.377 . S
C332 C337 1.377 . S
C333 C332 1.377 . S
C333 C334 1.395 . S
C333 H356 0.931 . S
C334 C333 1.395 . S
C334 C335 1.383 . S
C334 H357 0.931 . S
C335 C334 1.383 . S
C335 C336 1.394 . S
C336 C335 1.394 . S
C336 C337 1.378 . S
C336 H358 0.931 . S
C337 C332 1.377 . S
C337 C336 1.378 . S
C337 H359 0.931 . S
C338 O348 1.259 . S
C338 O349 1.270 . S
C339 O350 1.251 . S
C339 O351 1.251 . S
O340 C320 1.257 . S
O340 Eu321 2.473 . S
O341 C320 1.260 . S
O341 Eu321 2.480 . S
O342 Eu321 2.430 . S
O342 C328 1.259 . S
O343 Eu321 2.670 . S
O343 C328 1.270 . S
O343 Eu331 2.355 . S
O344 Eu321 2.394 . S
O344 C329 1.251 . S
O345 C329 1.251 . S
O345 Eu331 2.374 . S
O346 C330 1.257 . S
O346 Eu331 2.473 . S
O347 C330 1.260 . S
O347 Eu331 2.480 . S
O348 Eu331 2.430 . S
O348 C338 1.259 . S
O349 Eu321 2.355 . S
O349 Eu331 2.670 . S
O349 C338 1.270 . S
O350 Eu331 2.394 . S
O350 C339 1.251 . S
O351 Eu321 2.374 . S
O351 C339 1.251 . S
H352 C323 0.931 . S
H353 C324 0.931 . S
H354 C326 0.931 . S
H355 C327 0.931 . S
H356 C333 0.931 . S
H357 C334 0.931 . S
H358 C336 0.931 . S
H359 C337 0.931 . S
C360 Eu361 2.835 . S
C360 C362 1.500 . S
C360 O380 1.257 . S
C360 O381 1.260 . S
Eu361 C360 2.835 . S
Eu361 O380 2.473 . S
Eu361 O381 2.480 . S
Eu361 O382 2.430 . S
Eu361 O383 2.670 1_565 S
Eu361 O384 2.394 . S
Eu361 O389 2.355 1_565 S
Eu361 O391 2.374 1_565 S
C362 C360 1.500 . S
C362 C363 1.377 . S
C362 C367 1.377 . S
C363 C362 1.377 . S
C363 C364 1.395 . S
C363 H392 0.931 . S
C364 C363 1.395 . S
C364 C365 1.383 . S
C364 H393 0.931 . S
C365 C364 1.383 . S
C365 C366 1.394 . S
C366 C365 1.394 . S
C366 C367 1.378 . S
C366 H394 0.931 . S
C367 C362 1.377 . S
C367 C366 1.378 . S
C367 H395 0.931 . S
C368 O382 1.259 . S
C368 O383 1.270 1_565 S
C369 O384 1.251 . S
C369 O385 1.251 . S
C370 Eu371 2.835 . S
C370 C372 1.500 . S
C370 O386 1.257 . S
C370 O387 1.260 . S
Eu371 C370 2.835 . S
Eu371 O383 2.355 . S
Eu371 O385 2.374 1_545 S
Eu371 O386 2.473 . S
Eu371 O387 2.480 . S
Eu371 O388 2.430 . S
Eu371 O389 2.670 . S
Eu371 O390 2.394 . S
C372 C370 1.500 . S
C372 C373 1.377 . S
C372 C377 1.377 . S
C373 C372 1.377 . S
C373 C374 1.395 . S
C373 H396 0.931 . S
C374 C373 1.395 . S
C374 C375 1.383 . S
C374 H397 0.931 . S
C375 C374 1.383 . S
C375 C376 1.394 . S
C376 C375 1.394 . S
C376 C377 1.378 . S
C376 H398 0.931 . S
C377 C372 1.377 . S
C377 C376 1.378 . S
C377 H399 0.931 . S
C378 O388 1.259 . S
C378 O389 1.270 . S
C379 O390 1.251 . S
C379 O391 1.251 . S
O380 C360 1.257 . S
O380 Eu361 2.473 . S
O381 C360 1.260 . S
O381 Eu361 2.480 . S
O382 Eu361 2.430 . S
O382 C368 1.259 . S
O383 Eu361 2.670 1_545 S
O383 C368 1.270 1_545 S
O383 Eu371 2.355 . S
O384 Eu361 2.394 . S
O384 C369 1.251 . S
O385 C369 1.251 . S
O385 Eu371 2.374 1_565 S
O386 C370 1.257 . S
O386 Eu371 2.473 . S
O387 C370 1.260 . S
O387 Eu371 2.480 . S
O388 Eu371 2.430 . S
O388 C378 1.259 . S
O389 Eu361 2.355 1_545 S
O389 Eu371 2.670 . S
O389 C378 1.270 . S
O390 Eu371 2.394 . S
O390 C379 1.251 . S
O391 Eu361 2.374 1_545 S
O391 C379 1.251 . S
H392 C363 0.931 . S
H393 C364 0.931 . S
H394 C366 0.931 . S
H395 C367 0.931 . S
H396 C373 0.931 . S
H397 C374 0.931 . S
H398 C376 0.931 . S
H399 C377 0.931 . S
C400 Eu401 2.835 . S
C400 C402 1.500 . S
C400 O420 1.257 . S
C400 O421 1.260 . S
Eu401 C400 2.835 . S
Eu401 O420 2.473 . S
Eu401 O421 2.480 . S
Eu401 O422 2.430 . S
Eu401 O423 2.670 . S
Eu401 O424 2.394 . S
Eu401 O429 2.355 1_545 S
Eu401 O431 2.374 1_545 S
C402 C400 1.500 . S
C402 C403 1.377 . S
C402 C407 1.377 . S
C403 C402 1.377 . S
C403 C404 1.395 . S
C403 H432 0.931 . S
C404 C403 1.395 . S
C404 C405 1.383 . S
C404 H433 0.931 . S
C405 C404 1.383 . S
C405 C406 1.394 . S
C406 C405 1.394 . S
C406 C407 1.378 . S
C406 H434 0.931 . S
C407 C402 1.377 . S
C407 C406 1.378 . S
C407 H435 0.931 . S
C408 O422 1.259 . S
C408 O423 1.270 . S
C409 O424 1.251 . S
C409 O425 1.251 . S
C410 Eu411 2.835 . S
C410 C412 1.500 . S
C410 O426 1.257 . S
C410 O427 1.260 . S
Eu411 C410 2.835 . S
Eu411 O423 2.355 1_565 S
Eu411 O425 2.374 1_565 S
Eu411 O426 2.473 . S
Eu411 O427 2.480 . S
Eu411 O428 2.430 . S
Eu411 O429 2.670 . S
Eu411 O430 2.394 . S
C412 C410 1.500 . S
C412 C413 1.377 . S
C412 C417 1.377 . S
C413 C412 1.377 . S
C413 C414 1.395 . S
C413 H436 0.931 . S
C414 C413 1.395 . S
C414 C415 1.383 . S
C414 H437 0.931 . S
C415 C414 1.383 . S
C415 C416 1.394 . S
C416 C415 1.394 . S
C416 C417 1.378 . S
C416 H438 0.931 . S
C417 C412 1.377 . S
C417 C416 1.378 . S
C417 H439 0.931 . S
C418 O428 1.259 . S
C418 O429 1.270 . S
C419 O430 1.251 . S
C419 O431 1.251 . S
O420 C400 1.257 . S
O420 Eu401 2.473 . S
O421 C400 1.260 . S
O421 Eu401 2.480 . S
O422 Eu401 2.430 . S
O422 C408 1.259 . S
O423 Eu401 2.670 . S
O423 C408 1.270 . S
O423 Eu411 2.355 1_545 S
O424 Eu401 2.394 . S
O424 C409 1.251 . S
O425 C409 1.251 . S
O425 Eu411 2.374 1_545 S
O426 C410 1.257 . S
O426 Eu411 2.473 . S
O427 C410 1.260 . S
O427 Eu411 2.480 . S
O428 Eu411 2.430 . S
O428 C418 1.259 . S
O429 Eu401 2.355 1_565 S
O429 Eu411 2.670 . S
O429 C418 1.270 . S
O430 Eu411 2.394 . S
O430 C419 1.251 . S
O431 Eu401 2.374 1_565 S
O431 C419 1.251 . S
H432 C403 0.931 . S
H433 C404 0.931 . S
H434 C406 0.931 . S
H435 C407 0.931 . S
H436 C413 0.931 . S
H437 C414 0.931 . S
H438 C416 0.931 . S
H439 C417 0.931 . S
C440 Eu441 2.835 . S
C440 C442 1.500 . S
C440 O460 1.257 . S
C440 O461 1.260 . S
Eu441 C440 2.835 . S
Eu441 O460 2.473 . S
Eu441 O461 2.480 . S
Eu441 O462 2.430 . S
Eu441 O463 2.670 . S
Eu441 O464 2.394 . S
Eu441 O469 2.355 . S
Eu441 O471 2.374 . S
C442 C440 1.500 . S
C442 C443 1.377 . S
C442 C447 1.377 . S
C443 C442 1.377 . S
C443 C444 1.395 . S
C443 H472 0.931 . S
C444 C443 1.395 . S
C444 C445 1.383 . S
C444 H473 0.931 . S
C445 C444 1.383 . S
C445 C446 1.394 . S
C446 C445 1.394 . S
C446 C447 1.378 . S
C446 H474 0.931 . S
C447 C442 1.377 . S
C447 C446 1.378 . S
C447 H475 0.931 . S
C448 O462 1.259 . S
C448 O463 1.270 . S
C449 O464 1.251 . S
C449 O465 1.251 . S
C450 Eu451 2.835 . S
C450 C452 1.500 . S
C450 O466 1.257 . S
C450 O467 1.260 . S
Eu451 C450 2.835 . S
Eu451 O463 2.355 . S
Eu451 O465 2.374 . S
Eu451 O466 2.473 . S
Eu451 O467 2.480 . S
Eu451 O468 2.430 . S
Eu451 O469 2.670 . S
Eu451 O470 2.394 . S
C452 C450 1.500 . S
C452 C453 1.377 . S
C452 C457 1.377 . S
C453 C452 1.377 . S
C453 C454 1.395 . S
C453 H476 0.931 . S
C454 C453 1.395 . S
C454 C455 1.383 . S
C454 H477 0.931 . S
C455 C454 1.383 . S
C455 C456 1.394 . S
C456 C455 1.394 . S
C456 C457 1.378 . S
C456 H478 0.931 . S
C457 C452 1.377 . S
C457 C456 1.378 . S
C457 H479 0.931 . S
C458 O468 1.259 . S
C458 O469 1.270 . S
C459 O470 1.251 . S
C459 O471 1.251 . S
O460 C440 1.257 . S
O460 Eu441 2.473 . S
O461 C440 1.260 . S
O461 Eu441 2.480 . S
O462 Eu441 2.430 . S
O462 C448 1.259 . S
O463 Eu441 2.670 . S
O463 C448 1.270 . S
O463 Eu451 2.355 . S
O464 Eu441 2.394 . S
O464 C449 1.251 . S
O465 C449 1.251 . S
O465 Eu451 2.374 . S
O466 C450 1.257 . S
O466 Eu451 2.473 . S
O467 C450 1.260 . S
O467 Eu451 2.480 . S
O468 Eu451 2.430 . S
O468 C458 1.259 . S
O469 Eu441 2.355 . S
O469 Eu451 2.670 . S
O469 C458 1.270 . S
O470 Eu451 2.394 . S
O470 C459 1.251 . S
O471 Eu441 2.374 . S
O471 C459 1.251 . S
H472 C443 0.931 . S
H473 C444 0.931 . S
H474 C446 0.931 . S
H475 C447 0.931 . S
H476 C453 0.931 . S
H477 C454 0.931 . S
H478 C456 0.931 . S
H479 C457 0.931 . S
C480 C481 1.369 . S
C480 C482 1.419 . S
C480 H484 0.930 . S
C481 C480 1.369 . S
C481 C490 1.429 . S
C482 C480 1.419 . S
C482 C483 1.363 . S
C482 H485 0.929 . S
C483 C482 1.363 . S
C483 C489 1.428 . S
H484 C480 0.930 . S
H485 C482 0.929 . S
S486 N487 1.613 . S
S486 N488 1.610 . S
N487 S486 1.613 . S
N487 C490 1.350 . S
N488 S486 1.610 . S
N488 C489 1.351 . S
C489 C483 1.428 . S
C489 N488 1.351 . S
C489 C490 1.434 . S
C490 C481 1.429 . S
C490 N487 1.350 . S
C490 C489 1.434 . S
C491 C492 1.369 . S
C491 C493 1.419 . S
C491 H495 0.930 . S
C492 C491 1.369 . S
C492 C501 1.429 . S
C493 C491 1.419 . S
C493 C494 1.363 . S
C493 H496 0.929 . S
C494 C493 1.363 . S
C494 C500 1.428 . S
H495 C491 0.930 . S
H496 C493 0.929 . S
S497 N498 1.613 . S
S497 N499 1.610 . S
N498 S497 1.613 . S
N498 C501 1.350 . S
N499 S497 1.610 . S
N499 C500 1.351 . S
C500 C494 1.428 . S
C500 N499 1.351 . S
C500 C501 1.434 . S
C501 C492 1.429 . S
C501 N498 1.350 . S
C501 C500 1.434 . S
C502 C503 1.369 . S
C502 C504 1.419 . S
C502 H506 0.930 . S
C503 C502 1.369 . S
C503 C512 1.429 . S
C504 C502 1.419 . S
C504 C505 1.363 . S
C504 H507 0.929 . S
C505 C504 1.363 . S
C505 C511 1.428 . S
H506 C502 0.930 . S
H507 C504 0.929 . S
S508 N509 1.613 . S
S508 N510 1.610 1_556 S
N509 S508 1.613 . S
N509 C512 1.350 1_556 S
N510 S508 1.610 1_554 S
N510 C511 1.351 . S
C511 C505 1.428 . S
C511 N510 1.351 . S
C511 C512 1.434 . S
C512 C503 1.429 . S
C512 N509 1.350 1_554 S
C512 C511 1.434 . S
C513 C514 1.369 . S
C513 C515 1.419 . S
C513 H517 0.930 . S
C514 C513 1.369 . S
C514 C523 1.429 . S
C515 C513 1.419 . S
C515 C516 1.363 . S
C515 H518 0.929 . S
C516 C515 1.363 . S
C516 C522 1.428 . S
H517 C513 0.930 . S
H518 C515 0.929 . S
S519 N520 1.613 . S
S519 N521 1.610 . S
N520 S519 1.613 . S
N520 C523 1.350 . S
N521 S519 1.610 . S
N521 C522 1.351 . S
C522 C516 1.428 . S
C522 N521 1.351 . S
C522 C523 1.434 . S
C523 C514 1.429 . S
C523 N520 1.350 . S
C523 C522 1.434 . S
C524 C525 1.369 . S
C524 C526 1.419 . S
C524 H528 0.930 . S
C525 C524 1.369 . S
C525 C534 1.429 . S
C526 C524 1.419 . S
C526 C527 1.363 . S
C526 H529 0.929 . S
C527 C526 1.363 . S
C527 C533 1.428 . S
H528 C524 0.930 . S
H529 C526 0.929 . S
S530 N531 1.613 . S
S530 N532 1.610 . S
N531 S530 1.613 . S
N531 C534 1.350 . S
N532 S530 1.610 . S
N532 C533 1.351 . S
C533 C527 1.428 . S
C533 N532 1.351 . S
C533 C534 1.434 . S
C534 C525 1.429 . S
C534 N531 1.350 . S
C534 C533 1.434 . S
C535 C536 1.369 . S
C535 C537 1.419 . S
C535 H539 0.930 . S
C536 C535 1.369 . S
C536 C545 1.429 . S
C537 C535 1.419 . S
C537 C538 1.363 . S
C537 H540 0.929 . S
C538 C537 1.363 . S
C538 C544 1.428 . S
H539 C535 0.930 . S
H540 C537 0.929 . S
S541 N542 1.613 . S
S541 N543 1.610 . S
N542 S541 1.613 . S
N542 C545 1.350 . S
N543 S541 1.610 . S
N543 C544 1.351 . S
C544 C538 1.428 . S
C544 N543 1.351 . S
C544 C545 1.434 . S
C545 C536 1.429 . S
C545 N542 1.350 . S
C545 C544 1.434 . S
C546 C547 1.369 . S
C546 C548 1.419 . S
C546 H550 0.930 . S
C547 C546 1.369 . S
C547 C556 1.429 . S
C548 C546 1.419 . S
C548 C549 1.363 . S
C548 H551 0.929 . S
C549 C548 1.363 . S
C549 C555 1.428 . S
H550 C546 0.930 . S
H551 C548 0.929 . S
S552 N553 1.613 . S
S552 N554 1.610 . S
N553 S552 1.613 . S
N553 C556 1.350 . S
N554 S552 1.610 . S
N554 C555 1.351 . S
C555 C549 1.428 . S
C555 N554 1.351 . S
C555 C556 1.434 . S
C556 C547 1.429 . S
C556 N553 1.350 . S
C556 C555 1.434 . S
C557 C558 1.369 . S
C557 C559 1.419 . S
C557 H561 0.930 . S
C558 C557 1.369 . S
C558 C567 1.429 . S
C559 C557 1.419 . S
C559 C560 1.363 . S
C559 H562 0.929 . S
C560 C559 1.363 . S
C560 C566 1.428 . S
H561 C557 0.930 . S
H562 C559 0.929 . S
S563 N564 1.613 . S
S563 N565 1.610 . S
N564 S563 1.613 . S
N564 C567 1.350 . S
N565 S563 1.610 . S
N565 C566 1.351 . S
C566 C560 1.428 . S
C566 N565 1.351 . S
C566 C567 1.434 . S
C567 C558 1.429 . S
C567 N564 1.350 . S
C567 C566 1.434 . S
C568 C569 1.369 . S
C568 C570 1.419 . S
C568 H572 0.930 . S
C569 C568 1.369 . S
C569 C578 1.429 . S
C570 C568 1.419 . S
C570 C571 1.363 . S
C570 H573 0.929 . S
C571 C570 1.363 . S
C571 C577 1.428 . S
H572 C568 0.930 . S
H573 C570 0.929 . S
S574 N575 1.613 . S
S574 N576 1.610 . S
N575 S574 1.613 . S
N575 C578 1.350 . S
N576 S574 1.610 . S
N576 C577 1.351 . S
C577 C571 1.428 . S
C577 N576 1.351 . S
C577 C578 1.434 . S
C578 C569 1.429 . S
C578 N575 1.350 . S
C578 C577 1.434 . S
C579 C580 1.369 . S
C579 C581 1.419 . S
C579 H583 0.930 . S
C580 C579 1.369 . S
C580 C589 1.429 . S
C581 C579 1.419 . S
C581 C582 1.363 . S
C581 H584 0.929 . S
C582 C581 1.363 . S
C582 C588 1.428 . S
H583 C579 0.930 . S
H584 C581 0.929 . S
S585 N586 1.613 . S
S585 N587 1.610 . S
N586 S585 1.613 . S
N586 C589 1.350 . S
N587 S585 1.610 . S
N587 C588 1.351 . S
C588 C582 1.428 . S
C588 N587 1.351 . S
C588 C589 1.434 . S
C589 C580 1.429 . S
C589 N586 1.350 . S
C589 C588 1.434 . S
C590 C591 1.369 . S
C590 C592 1.419 . S
C590 H594 0.930 . S
C591 C590 1.369 . S
C591 C600 1.429 . S
C592 C590 1.419 . S
C592 C593 1.363 . S
C592 H595 0.929 . S
C593 C592 1.363 . S
C593 C599 1.428 . S
H594 C590 0.930 . S
H595 C592 0.929 . S
S596 N597 1.613 . S
S596 N598 1.610 . S
N597 S596 1.613 . S
N597 C600 1.350 1_455 S
N598 S596 1.610 . S
N598 C599 1.351 1_455 S
C599 C593 1.428 . S
C599 N598 1.351 1_655 S
C599 C600 1.434 . S
C600 C591 1.429 . S
C600 N597 1.350 1_655 S
C600 C599 1.434 . S
C601 C602 1.369 . S
C601 C603 1.419 . S
C601 H605 0.930 . S
C602 C601 1.369 . S
C602 C611 1.429 . S
C603 C601 1.419 . S
C603 C604 1.363 . S
C603 H606 0.929 . S
C604 C603 1.363 . S
C604 C610 1.428 . S
H605 C601 0.930 . S
H606 C603 0.929 . S
S607 N608 1.613 . S
S607 N609 1.610 . S
N608 S607 1.613 . S
N608 C611 1.350 . S
N609 S607 1.610 . S
N609 C610 1.351 . S
C610 C604 1.428 . S
C610 N609 1.351 . S
C610 C611 1.434 . S
C611 C602 1.429 . S
C611 N608 1.350 . S
C611 C610 1.434 . S
C612 C613 1.369 . S
C612 C614 1.419 . S
C612 H616 0.930 . S
C613 C612 1.369 . S
C613 C622 1.429 . S
C614 C612 1.419 . S
C614 C615 1.363 . S
C614 H617 0.929 . S
C615 C614 1.363 . S
C615 C621 1.428 . S
H616 C612 0.930 . S
H617 C614 0.929 . S
S618 N619 1.613 . S
S618 N620 1.610 . S
N619 S618 1.613 . S
N619 C622 1.350 . S
N620 S618 1.610 . S
N620 C621 1.351 . S
C621 C615 1.428 . S
C621 N620 1.351 . S
C621 C622 1.434 . S
C622 C613 1.429 . S
C622 N619 1.350 . S
C622 C621 1.434 . S
C623 C624 1.369 . S
C623 C625 1.419 . S
C623 H627 0.930 . S
C624 C623 1.369 . S
C624 C633 1.429 . S
C625 C623 1.419 . S
C625 C626 1.363 . S
C625 H628 0.929 . S
C626 C625 1.363 . S
C626 C632 1.428 . S
H627 C623 0.930 . S
H628 C625 0.929 . S
S629 N630 1.613 . S
S629 N631 1.610 . S
N630 S629 1.613 . S
N630 C633 1.350 . S
N631 S629 1.610 . S
N631 C632 1.351 . S
C632 C626 1.428 . S
C632 N631 1.351 . S
C632 C633 1.434 . S
C633 C624 1.429 . S
C633 N630 1.350 . S
C633 C632 1.434 . S
C634 C635 1.369 . S
C634 C636 1.419 . S
C634 H638 0.930 . S
C635 C634 1.369 . S
C635 C644 1.429 . S
C636 C634 1.419 . S
C636 C637 1.363 . S
C636 H639 0.929 . S
C637 C636 1.363 . S
C637 C643 1.428 . S
H638 C634 0.930 . S
H639 C636 0.929 . S
S640 N641 1.613 . S
S640 N642 1.610 . S
N641 S640 1.613 . S
N641 C644 1.350 . S
N642 S640 1.610 . S
N642 C643 1.351 . S
C643 C637 1.428 . S
C643 N642 1.351 . S
C643 C644 1.434 . S
C644 C635 1.429 . S
C644 N641 1.350 . S
C644 C643 1.434 . S
C645 C646 1.369 . S
C645 C647 1.419 1_554 S
C645 H649 0.930 . S
C646 C645 1.369 . S
C646 C655 1.429 . S
C647 C645 1.419 1_556 S
C647 C648 1.363 . S
C647 H650 0.929 . S
C648 C647 1.363 . S
C648 C654 1.428 . S
H649 C645 0.930 . S
H650 C647 0.929 . S
S651 N652 1.613 1_565 S
S651 N653 1.610 1_564 S
N652 S651 1.613 1_545 S
N652 C655 1.350 . S
N653 S651 1.610 1_546 S
N653 C654 1.351 . S
C654 C648 1.428 . S
C654 N653 1.351 . S
C654 C655 1.434 1_556 S
C655 C646 1.429 . S
C655 N652 1.350 . S
C655 C654 1.434 1_554 S
C656 C657 1.369 . S
C656 C658 1.419 . S
C656 H660 0.930 . S
C657 C656 1.369 . S
C657 C666 1.429 . S
C658 C656 1.419 . S
C658 C659 1.363 . S
C658 H661 0.929 . S
C659 C658 1.363 . S
C659 C665 1.428 . S
H660 C656 0.930 . S
H661 C658 0.929 . S
S662 N663 1.613 . S
S662 N664 1.610 . S
N663 S662 1.613 . S
N663 C666 1.350 . S
N664 S662 1.610 . S
N664 C665 1.351 . S
C665 C659 1.428 . S
C665 N664 1.351 . S
C665 C666 1.434 . S
C666 C657 1.429 . S
C666 N663 1.350 . S
C666 C665 1.434 . S
C667 C668 1.369 . S
C667 C669 1.419 1_554 S
C667 H671 0.930 . S
C668 C667 1.369 . S
C668 C677 1.429 . S
C669 C667 1.419 1_556 S
C669 C670 1.363 . S
C669 H672 0.929 . S
C670 C669 1.363 . S
C670 C676 1.428 . S
H671 C667 0.930 . S
H672 C669 0.929 . S
S673 N674 1.613 . S
S673 N675 1.610 1_554 S
N674 S673 1.613 . S
N674 C677 1.350 . S
N675 S673 1.610 1_556 S
N675 C676 1.351 . S
C676 C670 1.428 . S
C676 N675 1.351 . S
C676 C677 1.434 1_556 S
C677 C668 1.429 . S
C677 N674 1.350 . S
C677 C676 1.434 1_554 S
C678 C679 1.369 . S
C678 C680 1.419 . S
C678 H682 0.930 . S
C679 C678 1.369 . S
C679 C688 1.429 . S
C680 C678 1.419 . S
C680 C681 1.363 . S
C680 H683 0.929 . S
C681 C680 1.363 . S
C681 C687 1.428 . S
H682 C678 0.930 . S
H683 C680 0.929 . S
S684 N685 1.613 . S
S684 N686 1.610 . S
N685 S684 1.613 . S
N685 C688 1.350 . S
N686 S684 1.610 . S
N686 C687 1.351 . S
C687 C681 1.428 . S
C687 N686 1.351 . S
C687 C688 1.434 . S
C688 C679 1.429 . S
C688 N685 1.350 . S
C688 C687 1.434 . S
C689 C690 1.369 . S
C689 C691 1.419 . S
C689 H693 0.930 . S
C690 C689 1.369 . S
C690 C699 1.429 . S
C691 C689 1.419 . S
C691 C692 1.363 . S
C691 H694 0.929 . S
C692 C691 1.363 . S
C692 C698 1.428 . S
H693 C689 0.930 . S
H694 C691 0.929 . S
S695 N696 1.613 . S
S695 N697 1.610 . S
N696 S695 1.613 . S
N696 C699 1.350 . S
N697 S695 1.610 . S
N697 C698 1.351 . S
C698 C692 1.428 . S
C698 N697 1.351 . S
C698 C699 1.434 . S
C699 C690 1.429 . S
C699 N696 1.350 . S
C699 C698 1.434 . S
C700 C701 1.369 . S
C700 C702 1.419 . S
C700 H704 0.930 . S
C701 C700 1.369 . S
C701 C710 1.429 . S
C702 C700 1.419 . S
C702 C703 1.363 . S
C702 H705 0.929 . S
C703 C702 1.363 . S
C703 C709 1.428 . S
H704 C700 0.930 . S
H705 C702 0.929 . S
S706 N707 1.613 . S
S706 N708 1.610 . S
N707 S706 1.613 . S
N707 C710 1.350 . S
N708 S706 1.610 . S
N708 C709 1.351 . S
C709 C703 1.428 . S
C709 N708 1.351 . S
C709 C710 1.434 . S
C710 C701 1.429 . S
C710 N707 1.350 . S
C710 C709 1.434 . S
C711 C712 1.369 . S
C711 C713 1.419 1_545 S
C711 H715 0.930 . S
C712 C711 1.369 . S
C712 C721 1.429 . S
C713 C711 1.419 1_565 S
C713 C714 1.363 . S
C713 H716 0.929 . S
C714 C713 1.363 . S
C714 C720 1.428 . S
H715 C711 0.930 . S
H716 C713 0.929 . S
S717 N718 1.613 1_565 S
S717 N719 1.610 . S
N718 S717 1.613 1_545 S
N718 C721 1.350 . S
N719 S717 1.610 . S
N719 C720 1.351 . S
C720 C714 1.428 . S
C720 N719 1.351 . S
C720 C721 1.434 1_565 S
C721 C712 1.429 . S
C721 N718 1.350 . S
C721 C720 1.434 1_545 S
C722 C723 1.369 . S
C722 C724 1.419 . S
C722 H726 0.930 . S
C723 C722 1.369 . S
C723 C732 1.429 . S
C724 C722 1.419 . S
C724 C725 1.363 . S
C724 H727 0.929 . S
C725 C724 1.363 . S
C725 C731 1.428 . S
H726 C722 0.930 . S
H727 C724 0.929 . S
S728 N729 1.613 . S
S728 N730 1.610 . S
N729 S728 1.613 . S
N729 C732 1.350 . S
N730 S728 1.610 . S
N730 C731 1.351 . S
C731 C725 1.428 . S
C731 N730 1.351 . S
C731 C732 1.434 . S
C732 C723 1.429 . S
C732 N729 1.350 . S
C732 C731 1.434 . S
C733 C734 1.369 . S
C733 C735 1.419 1_545 S
C733 H737 0.930 . S
C734 C733 1.369 . S
C734 C743 1.429 . S
C735 C733 1.419 1_565 S
C735 C736 1.363 . S
C735 H738 0.929 . S
C736 C735 1.363 . S
C736 C742 1.428 1_565 S
H737 C733 0.930 . S
H738 C735 0.929 . S
S739 N740 1.613 . S
S739 N741 1.610 1_545 S
N740 S739 1.613 . S
N740 C743 1.350 . S
N741 S739 1.610 1_565 S
N741 C742 1.351 1_565 S
C742 C736 1.428 1_545 S
C742 N741 1.351 1_545 S
C742 C743 1.434 . S
C743 C734 1.429 . S
C743 N740 1.350 . S
C743 C742 1.434 . S
C744 C745 1.369 . S
C744 C746 1.419 . S
C744 H748 0.930 . S
C745 C744 1.369 . S
C745 C754 1.429 . S
C746 C744 1.419 . S
C746 C747 1.363 . S
C746 H749 0.929 . S
C747 C746 1.363 . S
C747 C753 1.428 . S
H748 C744 0.930 . S
H749 C746 0.929 . S
S750 N751 1.613 . S
S750 N752 1.610 . S
N751 S750 1.613 . S
N751 C754 1.350 . S
N752 S750 1.610 . S
N752 C753 1.351 . S
C753 C747 1.428 . S
C753 N752 1.351 . S
C753 C754 1.434 . S
C754 C745 1.429 . S
C754 N751 1.350 . S
C754 C753 1.434 . S
C755 C756 1.369 . S
C755 C757 1.419 . S
C755 H759 0.930 . S
C756 C755 1.369 . S
C756 C765 1.429 . S
C757 C755 1.419 . S
C757 C758 1.363 . S
C757 H760 0.929 . S
C758 C757 1.363 . S
C758 C764 1.428 . S
H759 C755 0.930 . S
H760 C757 0.929 . S
S761 N762 1.613 . S
S761 N763 1.610 . S
N762 S761 1.613 . S
N762 C765 1.350 . S
N763 S761 1.610 . S
N763 C764 1.351 . S
C764 C758 1.428 . S
C764 N763 1.351 . S
C764 C765 1.434 . S
C765 C756 1.429 . S
C765 N762 1.350 . S
C765 C764 1.434 . S
C766 C767 1.369 . S
C766 C768 1.419 . S
C766 H770 0.930 . S
C767 C766 1.369 . S
C767 C776 1.429 . S
C768 C766 1.419 . S
C768 C769 1.363 . S
C768 H771 0.929 . S
C769 C768 1.363 . S
C769 C775 1.428 . S
H770 C766 0.930 . S
H771 C768 0.929 . S
S772 N773 1.613 . S
S772 N774 1.610 . S
N773 S772 1.613 . S
N773 C776 1.350 . S
N774 S772 1.610 . S
N774 C775 1.351 . S
C775 C769 1.428 . S
C775 N774 1.351 . S
C775 C776 1.434 . S
C776 C767 1.429 . S
C776 N773 1.350 . S
C776 C775 1.434 . S
C777 C778 1.369 . S
C777 C779 1.419 . S
C777 H781 0.930 . S
C778 C777 1.369 . S
C778 C787 1.429 . S
C779 C777 1.419 . S
C779 C780 1.363 . S
C779 H782 0.929 . S
C780 C779 1.363 . S
C780 C786 1.428 . S
H781 C777 0.930 . S
H782 C779 0.929 . S
S783 N784 1.613 . S
S783 N785 1.610 . S
N784 S783 1.613 . S
N784 C787 1.350 . S
N785 S783 1.610 . S
N785 C786 1.351 . S
C786 C780 1.428 . S
C786 N785 1.351 . S
C786 C787 1.434 . S
C787 C778 1.429 . S
C787 N784 1.350 . S
C787 C786 1.434 . S
C788 C789 1.369 . S
C788 C790 1.419 . S
C788 H792 0.930 . S
C789 C788 1.369 . S
C789 C798 1.429 . S
C790 C788 1.419 . S
C790 C791 1.363 . S
C790 H793 0.929 . S
C791 C790 1.363 . S
C791 C797 1.428 . S
H792 C788 0.930 . S
H793 C790 0.929 . S
S794 N795 1.613 . S
S794 N796 1.610 . S
N795 S794 1.613 . S
N795 C798 1.350 . S
N796 S794 1.610 . S
N796 C797 1.351 . S
C797 C791 1.428 . S
C797 N796 1.351 . S
C797 C798 1.434 . S
C798 C789 1.429 . S
C798 N795 1.350 . S
C798 C797 1.434 . S
C799 C800 1.369 . S
C799 C801 1.419 . S
C799 H803 0.930 . S
C800 C799 1.369 . S
C800 C809 1.429 . S
C801 C799 1.419 . S
C801 C802 1.363 . S
C801 H804 0.929 . S
C802 C801 1.363 . S
C802 C808 1.428 . S
H803 C799 0.930 . S
H804 C801 0.929 . S
S805 N806 1.613 . S
S805 N807 1.610 . S
N806 S805 1.613 . S
N806 C809 1.350 . S
N807 S805 1.610 . S
N807 C808 1.351 . S
C808 C802 1.428 . S
C808 N807 1.351 . S
C808 C809 1.434 . S
C809 C800 1.429 . S
C809 N806 1.350 . S
C809 C808 1.434 . S
C810 C811 1.369 . S
C810 C812 1.419 1_455 S
C810 H814 0.930 . S
C811 C810 1.369 . S
C811 C820 1.429 . S
C812 C810 1.419 1_655 S
C812 C813 1.363 . S
C812 H815 0.929 . S
C813 C812 1.363 . S
C813 C819 1.428 1_655 S
H814 C810 0.930 . S
H815 C812 0.929 . S
S816 N817 1.613 . S
S816 N818 1.610 1_455 S
N817 S816 1.613 . S
N817 C820 1.350 1_556 S
N818 S816 1.610 1_655 S
N818 C819 1.351 1_656 S
C819 C813 1.428 1_455 S
C819 N818 1.351 1_454 S
C819 C820 1.434 . S
C820 C811 1.429 . S
C820 N817 1.350 1_554 S
C820 C819 1.434 . S
C821 C822 1.369 . S
C821 C823 1.419 . S
C821 H825 0.930 . S
C822 C821 1.369 . S
C822 C831 1.429 . S
C823 C821 1.419 . S
C823 C824 1.363 . S
C823 H826 0.929 . S
C824 C823 1.363 . S
C824 C830 1.428 . S
H825 C821 0.930 . S
H826 C823 0.929 . S
S827 N828 1.613 . S
S827 N829 1.610 . S
N828 S827 1.613 . S
N828 C831 1.350 . S
N829 S827 1.610 . S
N829 C830 1.351 . S
C830 C824 1.428 . S
C830 N829 1.351 . S
C830 C831 1.434 . S
C831 C822 1.429 . S
C831 N828 1.350 . S
C831 C830 1.434 . S
C832 C833 1.369 . S
C832 C834 1.419 . S
C832 H836 0.930 . S
C833 C832 1.369 . S
C833 C842 1.429 . S
C834 C832 1.419 . S
C834 C835 1.363 . S
C834 H837 0.929 . S
C835 C834 1.363 . S
C835 C841 1.428 . S
H836 C832 0.930 . S
H837 C834 0.929 . S
S838 N839 1.613 . S
S838 N840 1.610 . S
N839 S838 1.613 . S
N839 C842 1.350 . S
N840 S838 1.610 . S
N840 C841 1.351 . S
C841 C835 1.428 . S
C841 N840 1.351 . S
C841 C842 1.434 . S
C842 C833 1.429 . S
C842 N839 1.350 . S
C842 C841 1.434 . S
C843 C844 1.369 . S
C843 C845 1.419 . S
C843 H847 0.930 . S
C844 C843 1.369 . S
C844 C853 1.429 . S
C845 C843 1.419 . S
C845 C846 1.363 . S
C845 H848 0.929 . S
C846 C845 1.363 . S
C846 C852 1.428 . S
H847 C843 0.930 . S
H848 C845 0.929 . S
S849 N850 1.613 . S
S849 N851 1.610 . S
N850 S849 1.613 . S
N850 C853 1.350 . S
N851 S849 1.610 . S
N851 C852 1.351 . S
C852 C846 1.428 . S
C852 N851 1.351 . S
C852 C853 1.434 . S
C853 C844 1.429 . S
C853 N850 1.350 . S
C853 C852 1.434 . S
C854 C855 1.369 . S
C854 C856 1.419 . S
C854 H858 0.930 1_556 S
C855 C854 1.369 . S
C855 C864 1.429 . S
C856 C854 1.419 . S
C856 C857 1.363 . S
C856 H859 0.929 . S
C857 C856 1.363 . S
C857 C863 1.428 . S
H858 C854 0.930 1_554 S
H859 C856 0.929 . S
S860 N861 1.613 . S
S860 N862 1.610 . S
N861 S860 1.613 . S
N861 C864 1.350 . S
N862 S860 1.610 . S
N862 C863 1.351 . S
C863 C857 1.428 . S
C863 N862 1.351 . S
C863 C864 1.434 . S
C864 C855 1.429 . S
C864 N861 1.350 . S
C864 C863 1.434 . S
C865 C866 1.369 . S
C865 C867 1.418 . S
C865 H869 0.930 . S
C866 C865 1.369 . S
C866 C875 1.429 . S
C867 C865 1.418 . S
C867 C868 1.363 1_655 S
C867 H870 0.930 1_655 S
C868 C867 1.363 1_455 S
C868 C874 1.428 1_455 S
H869 C865 0.930 . S
H870 C867 0.930 1_455 S
S871 N872 1.613 . S
S871 N873 1.610 . S
N872 S871 1.613 . S
N872 C875 1.350 . S
N873 S871 1.610 . S
N873 C874 1.351 . S
C874 C868 1.428 1_655 S
C874 N873 1.351 . S
C874 C875 1.434 . S
C875 C866 1.429 . S
C875 N872 1.350 . S
C875 C874 1.434 . S
C481 C9 1.647 . S
C483 C448 1.762 . S
C492 C368 1.886 . S
C494 C48 1.895 . S
C503 C89 1.468 . S
C505 C329 1.483 . S
C514 C128 1.778 . S
C516 C408 1.779 . S
C525 C168 2.088 . S
C527 C409 1.960 . S
C536 C209 1.508 . S
C538 C449 1.509 . S
C547 C369 1.815 . S
C549 C248 1.939 . S
C558 C288 1.658 . S
C560 C328 1.670 . S
C569 C129 1.796 . S
C571 C169 1.770 . S
C580 C8 2.010 . S
C582 C208 2.010 . S
C591 C49 1.565 . S
C593 C249 1.596 . S
C602 C289 1.747 . S
C604 C88 1.840 . S
C613 C5 2.609 . S
C615 C339 2.709 . S
C624 C55 1.310 . S
C626 C418 1.237 . S
C635 C458 1.821 . S
C637 C85 1.952 . S
C646 C135 1.502 . S
C648 C378 1.393 . S
C657 C175 1.520 . S
C659 C379 1.498 . S
C668 C338 1.866 . S
C670 C205 1.994 . S
C679 C419 1.861 . S
C681 C255 1.870 . S
C690 C459 1.768 . S
C692 C295 1.777 . S
C701 C18 1.638 . S
C703 C125 1.764 . S
C712 C15 2.005 . S
C714 C59 1.993 . S
C723 C45 2.022 . S
C725 C98 1.883 . S
C734 C139 1.827 . S
C736 C95 1.831 . S
C745 C215 1.144 . S
C747 C179 1.116 . S
C756 C218 1.862 . S
C758 C245 2.018 . S
C767 C259 1.663 . S
C769 C285 1.623 . S
C778 C165 1.906 . S
C780 C299 1.988 . S
C789 C335 1.407 . S
C791 C138 1.284 . S
C800 C219 1.632 . S
C802 C375 1.648 . S
C811 C325 2.163 . S
C813 C258 2.016 . S
C822 C415 1.674 . S
C824 C298 1.534 . S
C833 C178 0.930 . S
C835 C455 0.986 . S
C844 C445 1.832 . S
C846 C58 1.693 . S
C855 C99 1.606 . S
C857 C365 1.565 . S
C866 C405 1.962 . S
C868 C19 2.020 . S
