# Generated by pormake.
# Topology wju, (5)-cn, num edge types: 1
# Building blocks:
#     Node 0, Type 0, BuildingBlock: XOMCOT_clean_sbu_1, # of connection points: 5
#     Node 1, Type 0, BuildingBlock: XOMCOT_clean_sbu_1, # of connection points: 5
#     Node 2, Type 0, BuildingBlock: XOMCOT_clean_sbu_1, # of connection points: 5
#     Node 3, Type 0, BuildingBlock: XOMCOT_clean_sbu_1, # of connection points: 5
#     Node 4, Type 0, BuildingBlock: XOMCOT_clean_sbu_1, # of connection points: 5
#     Node 5, Type 0, BuildingBlock: XOMCOT_clean_sbu_1, # of connection points: 5
#     Node 6, Type 0, BuildingBlock: XOMCOT_clean_sbu_1, # of connection points: 5
#     Node 7, Type 0, BuildingBlock: XOMCOT_clean_sbu_1, # of connection points: 5
#     Node 8, Type 0, BuildingBlock: XOMCOT_clean_sbu_1, # of connection points: 5
#     Node 9, Type 0, BuildingBlock: XOMCOT_clean_sbu_1, # of connection points: 5
#     Node 10, Type 0, BuildingBlock: XOMCOT_clean_sbu_1, # of connection points: 5
#     Node 11, Type 0, BuildingBlock: XOMCOT_clean_sbu_1, # of connection points: 5
#     Edge 12, Type (0, 0), BuildingBlock: MIFKUJ_clean_linker_0, # of connection points: 2
#     Edge 13, Type (0, 0), BuildingBlock: MIFKUJ_clean_linker_0, # of connection points: 2
#     Edge 14, Type (0, 0), BuildingBlock: MIFKUJ_clean_linker_0, # of connection points: 2
#     Edge 15, Type (0, 0), BuildingBlock: MIFKUJ_clean_linker_0, # of connection points: 2
#     Edge 16, Type (0, 0), BuildingBlock: MIFKUJ_clean_linker_0, # of connection points: 2
#     Edge 17, Type (0, 0), BuildingBlock: MIFKUJ_clean_linker_0, # of connection points: 2
#     Edge 18, Type (0, 0), BuildingBlock: MIFKUJ_clean_linker_0, # of connection points: 2
#     Edge 19, Type (0, 0), BuildingBlock: MIFKUJ_clean_linker_0, # of connection points: 2
#     Edge 20, Type (0, 0), BuildingBlock: MIFKUJ_clean_linker_0, # of connection points: 2
#     Edge 21, Type (0, 0), BuildingBlock: MIFKUJ_clean_linker_0, # of connection points: 2
#     Edge 22, Type (0, 0), BuildingBlock: MIFKUJ_clean_linker_0, # of connection points: 2
#     Edge 23, Type (0, 0), BuildingBlock: MIFKUJ_clean_linker_0, # of connection points: 2
#     Edge 24, Type (0, 0), BuildingBlock: MIFKUJ_clean_linker_0, # of connection points: 2
#     Edge 25, Type (0, 0), BuildingBlock: MIFKUJ_clean_linker_0, # of connection points: 2
#     Edge 26, Type (0, 0), BuildingBlock: MIFKUJ_clean_linker_0, # of connection points: 2
#     Edge 27, Type (0, 0), BuildingBlock: MIFKUJ_clean_linker_0, # of connection points: 2
#     Edge 28, Type (0, 0), BuildingBlock: MIFKUJ_clean_linker_0, # of connection points: 2
#     Edge 29, Type (0, 0), BuildingBlock: MIFKUJ_clean_linker_0, # of connection points: 2
#     Edge 30, Type (0, 0), BuildingBlock: MIFKUJ_clean_linker_0, # of connection points: 2
#     Edge 31, Type (0, 0), BuildingBlock: MIFKUJ_clean_linker_0, # of connection points: 2
#     Edge 32, Type (0, 0), BuildingBlock: MIFKUJ_clean_linker_0, # of connection points: 2
#     Edge 33, Type (0, 0), BuildingBlock: MIFKUJ_clean_linker_0, # of connection points: 2
#     Edge 34, Type (0, 0), BuildingBlock: MIFKUJ_clean_linker_0, # of connection points: 2
#     Edge 35, Type (0, 0), BuildingBlock: MIFKUJ_clean_linker_0, # of connection points: 2
#     Edge 36, Type (0, 0), BuildingBlock: MIFKUJ_clean_linker_0, # of connection points: 2
#     Edge 37, Type (0, 0), BuildingBlock: MIFKUJ_clean_linker_0, # of connection points: 2
#     Edge 38, Type (0, 0), BuildingBlock: MIFKUJ_clean_linker_0, # of connection points: 2
#     Edge 39, Type (0, 0), BuildingBlock: MIFKUJ_clean_linker_0, # of connection points: 2
#     Edge 40, Type (0, 0), BuildingBlock: MIFKUJ_clean_linker_0, # of connection points: 2
#     Edge 41, Type (0, 0), BuildingBlock: MIFKUJ_clean_linker_0, # of connection points: 2
# Relax obj value: 0.079
# Max RMSD: 0.118
# Mean RMSD: 0.118
data_MOF--net-wju--node1-XOMCOT_clean_sbu_1--edge1-MIFKUJ_clean_linker_0
_symmetry_space_group_name_H-M    P1
_symmetry_Int_Tables_number       1
_symmetry_cell_setting            triclinic
loop_
_symmetry_equiv_pos_as_xyz
'x, y, z'
_cell_length_a     35.52364
_cell_length_b     35.524287
_cell_length_c     128.16411
_cell_angle_alpha  90.066005
_cell_angle_beta   89.787593
_cell_angle_gamma 120.02289
loop_
_atom_site_label
_atom_site_type_symbol
_atom_site_fract_x
_atom_site_fract_y
_atom_site_fract_z
_atom_type_partial_charge
C0 C 0.27704 0.16828 0.1127 0.0
C1 C 0.27804 0.17524 0.12325 0.0
N2 N 0.30544 0.16399 0.12759 0.0
N3 N 0.30381 0.15286 0.11033 0.0
C4 C 0.32056 0.15021 0.11961 0.0
H5 H 0.2593 0.17572 0.10701 0.0
Co6 Co 0.31611 0.1471 0.0965 0.0
C7 C 0.38802 0.1277 0.09712 0.0
O8 O 0.40668 0.15657 0.08968 0.0
N9 N 0.32781 0.14191 0.08193 0.0
C10 C 0.35408 0.15856 0.06569 0.0
C11 C 0.35801 0.17342 0.07568 0.0
C12 C 0.30606 0.10779 0.07529 0.0
N13 N 0.32098 0.11739 0.06534 0.0
O14 O 0.26332 0.09185 0.09613 0.0
H15 H 0.38273 0.20543 0.0781 0.0
H16 H 0.27889 0.07679 0.07762 0.0
O17 O 0.35121 0.12009 0.10081 0.0
C18 C 0.23441 0.09814 0.09189 0.0
O19 O 0.24665 0.13598 0.08751 0.0
N20 N 0.36285 0.20377 0.0972 0.0
C21 C 0.41868 0.29324 0.09765 0.0
C22 C 0.42926 0.2654 0.10304 0.0
C23 C 0.40031 0.22044 0.10288 0.0
C24 C 0.35078 0.23075 0.09268 0.0
C25 C 0.37849 0.27538 0.0926 0.0
H26 H 0.40761 0.1995 0.10749 0.0
H27 H 0.31945 0.21715 0.08892 0.0
H28 H 0.34505 0.14082 0.12044 0.0
H29 H 0.26066 0.18844 0.12741 0.0
H30 H 0.37453 0.17691 0.05918 0.0
H31 H 0.45933 0.27821 0.10737 0.0
H32 H 0.36811 0.29582 0.08877 0.0
C33 C 0.11901 0.25491 0.44595 0.0
C34 C 0.11406 0.25446 0.45657 0.0
N35 N 0.15134 0.28617 0.46067 0.0
N36 N 0.15921 0.28675 0.4433 0.0
C37 C 0.17848 0.30526 0.45247 0.0
H38 H 0.09414 0.23451 0.44043 0.0
Co39 Co 0.17343 0.30135 0.42936 0.0
C40 C 0.26449 0.37325 0.4284 0.0
O41 O 0.25147 0.39022 0.42115 0.0
N42 N 0.18583 0.31484 0.41476 0.0
C43 C 0.18644 0.33828 0.39859 0.0
C44 C 0.17514 0.33942 0.40876 0.0
C45 C 0.204 0.29933 0.40788 0.0
N46 N 0.20415 0.3126 0.39795 0.0
O47 O 0.17689 0.24932 0.42773 0.0
H48 H 0.16036 0.35779 0.41143 0.0
H49 H 0.21556 0.27746 0.41003 0.0
O50 O 0.2367 0.33719 0.4327 0.0
C51 C 0.14231 0.22054 0.42322 0.0
O52 O 0.11598 0.23249 0.41917 0.0
N53 N 0.16275 0.34725 0.4314 0.0
C54 C 0.12516 0.39823 0.43547 0.0
C55 C 0.16838 0.41272 0.43832 0.0
C56 C 0.18632 0.38601 0.43649 0.0
C57 C 0.12035 0.33236 0.42893 0.0
C58 C 0.10111 0.35747 0.43075 0.0
H59 H 0.21815 0.3959 0.43955 0.0
H60 H 0.10135 0.30045 0.4255 0.0
H61 H 0.21058 0.33359 0.45309 0.0
H62 H 0.08493 0.23308 0.46095 0.0
H63 H 0.18183 0.35526 0.39216 0.0
H64 H 0.1874 0.4435 0.4423 0.0
H65 H 0.06759 0.345 0.42847 0.0
C66 C 0.87301 0.12156 0.77664 0.0
C67 C 0.87417 0.11393 0.78709 0.0
N68 N 0.87998 0.14918 0.79239 0.0
N69 N 0.87858 0.16166 0.77527 0.0
C70 C 0.88271 0.1778 0.78505 0.0
H71 H 0.86721 0.0987 0.77043 0.0
Co72 Co 0.87608 0.18247 0.76209 0.0
C73 C 0.89317 0.27215 0.76566 0.0
O74 O 0.85676 0.26092 0.76074 0.0
N75 N 0.87352 0.2029 0.74827 0.0
C76 C 0.85085 0.21851 0.73351 0.0
C77 C 0.8402 0.20463 0.74363 0.0
C78 C 0.90434 0.21678 0.74064 0.0
N79 N 0.89113 0.22572 0.73154 0.0
O80 O 0.93094 0.18614 0.759 0.0
H81 H 0.80972 0.19683 0.74727 0.0
H82 H 0.93564 0.21922 0.74162 0.0
O83 O 0.90517 0.24391 0.76714 0.0
C84 C 0.92238 0.15173 0.75392 0.0
O85 O 0.88281 0.12769 0.75025 0.0
N86 N 0.81964 0.1705 0.76533 0.0
C87 C 0.73198 0.12699 0.77113 0.0
C88 C 0.76221 0.16497 0.77636 0.0
C89 C 0.80617 0.18595 0.77344 0.0
C90 C 0.79071 0.13343 0.7603 0.0
C91 C 0.74679 0.11195 0.76285 0.0
H92 H 0.82936 0.21306 0.77806 0.0
H93 H 0.80217 0.11993 0.75434 0.0
H94 H 0.88693 0.2095 0.78678 0.0
H95 H 0.8692 0.084 0.79057 0.0
H96 H 0.83017 0.22286 0.72806 0.0
H97 H 0.75246 0.17713 0.78298 0.0
H98 H 0.72483 0.08313 0.75848 0.0
C99 C 0.73101 0.85819 0.11228 0.0
C100 C 0.73586 0.85076 0.12256 0.0
N101 N 0.7265 0.87633 0.12849 0.0
N102 N 0.71804 0.88789 0.1117 0.0
C103 C 0.71633 0.89904 0.12172 0.0
H104 H 0.73483 0.84162 0.10563 0.0
Co105 Co 0.70266 0.90271 0.09905 0.0
C106 C 0.63111 0.91648 0.10831 0.0
O107 O 0.60056 0.87762 0.10549 0.0
N108 N 0.68845 0.9184 0.08602 0.0
C109 C 0.65288 0.92918 0.07312 0.0
C110 C 0.64986 0.91391 0.08309 0.0
C111 C 0.71415 0.93585 0.07747 0.0
N112 N 0.69334 0.94296 0.06958 0.0
O113 O 0.75654 0.95684 0.09951 0.0
H114 H 0.62057 0.89928 0.08767 0.0
H115 H 0.74758 0.9435 0.07697 0.0
O116 O 0.6713 0.92932 0.10634 0.0
C117 C 0.78483 0.94877 0.09555 0.0
O118 O 0.77153 0.91024 0.09144 0.0
N119 N 0.65345 0.846 0.09835 0.0
C120 C 0.60353 0.75516 0.09792 0.0
C121 C 0.60525 0.77836 0.10692 0.0
C122 C 0.63122 0.82345 0.10707 0.0
C123 C 0.65064 0.82392 0.08939 0.0
C124 C 0.62561 0.77865 0.08897 0.0
H125 H 0.63502 0.84005 0.11439 0.0
H126 H 0.67082 0.84088 0.08274 0.0
H127 H 0.70562 0.92148 0.12405 0.0
H128 H 0.74478 0.82771 0.12548 0.0
H129 H 0.6269 0.92904 0.0687 0.0
H130 H 0.58849 0.76176 0.11401 0.0
H131 H 0.62636 0.76221 0.08192 0.0
C132 C 0.88098 0.74123 0.44656 0.0
C133 C 0.89206 0.7494 0.45691 0.0
N134 N 0.85548 0.72844 0.46266 0.0
N135 N 0.83754 0.71548 0.44574 0.0
C136 C 0.82275 0.70838 0.45571 0.0
H137 H 0.90336 0.75258 0.44004 0.0
Co138 Co 0.80976 0.69644 0.43284 0.0
C139 C 0.72534 0.62105 0.44158 0.0
O140 O 0.73792 0.59255 0.44003 0.0
N141 N 0.78176 0.67829 0.41961 0.0
C142 C 0.73958 0.63691 0.40663 0.0
C143 C 0.75327 0.63708 0.41665 0.0
C144 C 0.78512 0.70245 0.41109 0.0
N145 N 0.75972 0.67808 0.40314 0.0
O146 O 0.80344 0.74698 0.43265 0.0
H147 H 0.74374 0.60845 0.42129 0.0
H148 H 0.80532 0.73732 0.41063 0.0
O149 O 0.75098 0.66142 0.43945 0.0
C150 C 0.83804 0.7772 0.42843 0.0
O151 O 0.86561 0.76714 0.42419 0.0
N152 N 0.82334 0.65113 0.43284 0.0
C153 C 0.86824 0.6051 0.43289 0.0
C154 C 0.84579 0.60613 0.44179 0.0
C155 C 0.82441 0.63006 0.44168 0.0
C156 C 0.84504 0.65018 0.42411 0.0
C157 C 0.86706 0.62688 0.42391 0.0
H158 H 0.80992 0.63267 0.44885 0.0
H159 H 0.84779 0.66981 0.4174 0.0
H160 H 0.78891 0.68816 0.45785 0.0
H161 H 0.9247 0.76792 0.45998 0.0
H162 H 0.71735 0.60854 0.40217 0.0
H163 H 0.84684 0.59071 0.44898 0.0
H164 H 0.8844 0.62732 0.4169 0.0
C165 C 0.12073 0.87489 0.78155 0.0
C166 C 0.11888 0.87738 0.79219 0.0
N167 N 0.11924 0.84282 0.7964 0.0
N168 N 0.12179 0.8387 0.77894 0.0
C169 C 0.1211 0.81978 0.78817 0.0
H170 H 0.12292 0.89899 0.77606 0.0
Co171 Co 0.12966 0.82738 0.76514 0.0
C172 C 0.11202 0.73681 0.76416 0.0
O173 O 0.14605 0.75176 0.75798 0.0
N174 N 0.13802 0.8175 0.75079 0.0
C175 C 0.16713 0.82018 0.73517 0.0
C176 C 0.1757 0.83087 0.74552 0.0
C177 C 0.10699 0.79836 0.74334 0.0
N178 N 0.12385 0.80013 0.73373 0.0
O179 O 0.07528 0.82448 0.76169 0.0
H180 H 0.20786 0.84745 0.74882 0.0
H181 H 0.07265 0.78476 0.74488 0.0
O182 O 0.10084 0.76335 0.76795 0.0
C183 C 0.08435 0.85996 0.75706 0.0
O184 O 0.12499 0.88666 0.75439 0.0
N185 N 0.1851 0.8381 0.76882 0.0
C186 C 0.27141 0.87711 0.77531 0.0
C187 C 0.24228 0.83311 0.77752 0.0
C188 C 0.19869 0.81435 0.77442 0.0
C189 C 0.21284 0.88106 0.76693 0.0
C190 C 0.25609 0.90099 0.76993 0.0
H191 H 0.17603 0.78169 0.77693 0.0
H192 H 0.201 0.90006 0.76303 0.0
H193 H 0.12287 0.79036 0.78885 0.0
H194 H 0.11928 0.90378 0.79651 0.0
H195 H 0.19125 0.82699 0.72919 0.0
H196 H 0.25269 0.81397 0.78193 0.0
H197 H 0.27736 0.93497 0.76804 0.0
C198 C 0.88214 0.75458 0.58909 0.0
C199 C 0.88272 0.76151 0.57855 0.0
N200 N 0.88737 0.73066 0.5736 0.0
N201 N 0.88701 0.71987 0.59085 0.0
C202 C 0.88992 0.70571 0.58122 0.0
H203 H 0.87743 0.77313 0.59513 0.0
Co204 Co 0.885 0.69933 0.60432 0.0
C205 C 0.90359 0.62727 0.60234 0.0
O206 O 0.86918 0.60422 0.60819 0.0
N207 N 0.88269 0.67932 0.61848 0.0
C208 C 0.85959 0.64523 0.63379 0.0
C209 C 0.84844 0.64705 0.62366 0.0
C210 C 0.91453 0.69613 0.62582 0.0
N211 N 0.90111 0.67654 0.63525 0.0
O212 O 0.93992 0.75109 0.60691 0.0
H213 H 0.81705 0.62496 0.6204 0.0
H214 H 0.94677 0.7231 0.62437 0.0
O215 O 0.91416 0.66634 0.59981 0.0
C216 C 0.93357 0.7783 0.61205 0.0
O217 O 0.89495 0.76483 0.61616 0.0
N218 N 0.82886 0.65384 0.60145 0.0
C219 C 0.74073 0.60167 0.59709 0.0
C220 C 0.77156 0.59421 0.59208 0.0
C221 C 0.8158 0.62117 0.59427 0.0
C222 C 0.79939 0.6631 0.60581 0.0
C223 C 0.75516 0.63683 0.60396 0.0
H224 H 0.83927 0.61645 0.58997 0.0
H225 H 0.81055 0.69114 0.61083 0.0
H226 H 0.89332 0.67752 0.57981 0.0
H227 H 0.87839 0.78637 0.5748 0.0
H228 H 0.83836 0.62222 0.63959 0.0
H229 H 0.76159 0.56807 0.58648 0.0
H230 H 0.73248 0.64462 0.60769 0.0
C231 C 0.11848 0.87147 0.92163 0.0
C232 C 0.11398 0.87137 0.91102 0.0
N233 N 0.1478 0.87039 0.90651 0.0
N234 N 0.15525 0.8711 0.92393 0.0
C235 C 0.17241 0.87003 0.91454 0.0
H236 H 0.09542 0.87028 0.92733 0.0
Co237 Co 0.16892 0.86681 0.93773 0.0
C238 C 0.2606 0.88694 0.93834 0.0
O239 O 0.24804 0.85623 0.94541 0.0
N240 N 0.18074 0.86179 0.95216 0.0
C241 C 0.18112 0.83514 0.96789 0.0
C242 C 0.17041 0.8252 0.95761 0.0
C243 C 0.19815 0.89365 0.95949 0.0
N244 N 0.19808 0.87822 0.96917 0.0
O245 O 0.17266 0.92203 0.94042 0.0
H246 H 0.1563 0.79281 0.95447 0.0
H247 H 0.20931 0.92745 0.95782 0.0
O248 O 0.23237 0.89506 0.93428 0.0
C249 C 0.13879 0.91618 0.94536 0.0
O250 O 0.112 0.87726 0.94909 0.0
N251 N 0.15836 0.81093 0.93479 0.0
C252 C 0.12469 0.72218 0.93203 0.0
C253 C 0.16688 0.7519 0.92856 0.0
C254 C 0.18302 0.79657 0.92987 0.0
C255 C 0.11605 0.78262 0.93723 0.0
C256 C 0.09878 0.73813 0.9361 0.0
H257 H 0.21484 0.81908 0.92683 0.0
H258 H 0.09613 0.79489 0.94048 0.0
H259 H 0.20171 0.86814 0.91361 0.0
H260 H 0.08673 0.8701 0.90695 0.0
H261 H 0.17649 0.812 0.97394 0.0
H262 H 0.1873 0.74074 0.92502 0.0
H263 H 0.06543 0.71636 0.93846 0.0
C264 C 0.26236 0.1263 0.25216 0.0
C265 C 0.26299 0.12349 0.2415 0.0
N266 N 0.29918 0.15851 0.23789 0.0
N267 N 0.29784 0.16304 0.25534 0.0
C268 C 0.31975 0.18234 0.24644 0.0
H269 H 0.23862 0.10185 0.25732 0.0
Co270 Co 0.31198 0.17232 0.26944 0.0
C271 C 0.38258 0.26356 0.27205 0.0
O272 O 0.39855 0.24896 0.27918 0.0
N273 N 0.32471 0.17951 0.28402 0.0
C274 C 0.34134 0.17029 0.30018 0.0
C275 C 0.34121 0.15967 0.28989 0.0
C276 C 0.31489 0.20196 0.29104 0.0
N277 N 0.3247 0.19692 0.30097 0.0
O278 O 0.2596 0.17478 0.27192 0.0
H279 H 0.35153 0.13767 0.28708 0.0
H280 H 0.30024 0.22117 0.28888 0.0
O281 O 0.34771 0.23657 0.26721 0.0
C282 C 0.23143 0.13966 0.27641 0.0
O283 O 0.2434 0.11201 0.27953 0.0
N284 N 0.35842 0.16295 0.26667 0.0
C285 C 0.4115 0.12823 0.26199 0.0
C286 C 0.42684 0.17277 0.26061 0.0
C287 C 0.39921 0.18942 0.26273 0.0
C288 C 0.34266 0.11939 0.26754 0.0
C289 C 0.36868 0.10142 0.26538 0.0
H290 H 0.41047 0.22294 0.26086 0.0
H291 H 0.30947 0.0985 0.27009 0.0
H292 H 0.35134 0.21156 0.24627 0.0
H293 H 0.23926 0.097 0.23677 0.0
H294 H 0.3513 0.15762 0.30662 0.0
H295 H 0.45939 0.19419 0.25769 0.0
H296 H 0.35551 0.06685 0.26653 0.0
C297 C 0.13933 0.25402 0.58654 0.0
C298 C 0.14406 0.25138 0.57599 0.0
N299 N 0.14036 0.2833 0.57133 0.0
N300 N 0.1327 0.28748 0.58859 0.0
C301 C 0.13307 0.30462 0.57912 0.0
H302 H 0.14279 0.23418 0.59243 0.0
Co303 Co 0.13432 0.306 0.60224 0.0
C304 C 0.11973 0.38069 0.60141 0.0
O305 O 0.1529 0.40043 0.60776 0.0
N306 N 0.13646 0.32381 0.61657 0.0
C307 C 0.1599 0.35229 0.63238 0.0
C308 C 0.17176 0.3514 0.62224 0.0
C309 C 0.10329 0.309 0.6236 0.0
N310 N 0.11686 0.3252 0.6333 0.0
O311 O 0.07807 0.25558 0.60448 0.0
H312 H 0.20453 0.37069 0.61936 0.0
H313 H 0.06991 0.28554 0.62176 0.0
O314 O 0.10821 0.3422 0.59815 0.0
C315 C 0.08285 0.22715 0.60949 0.0
O316 O 0.12121 0.23853 0.61341 0.0
N317 N 0.19154 0.35003 0.59973 0.0
C318 C 0.28065 0.39908 0.59606 0.0
C319 C 0.25229 0.41116 0.59155 0.0
C320 C 0.20743 0.38565 0.59336 0.0
C321 C 0.21852 0.33633 0.60346 0.0
C322 C 0.26315 0.36081 0.60195 0.0
H323 H 0.1858 0.39393 0.5894 0.0
H324 H 0.20503 0.30618 0.60779 0.0
H325 H 0.13104 0.33375 0.57801 0.0
H326 H 0.15114 0.22863 0.57205 0.0
H327 H 0.18152 0.37155 0.6386 0.0
H328 H 0.26463 0.43977 0.58665 0.0
H329 H 0.28375 0.3494 0.6052 0.0
C330 C 0.87588 0.13875 0.91934 0.0
C331 C 0.88602 0.14088 0.90893 0.0
N332 N 0.84872 0.12205 0.90348 0.0
N333 N 0.83232 0.11832 0.92051 0.0
C334 C 0.81652 0.10829 0.91067 0.0
H335 H 0.89893 0.15242 0.92566 0.0
Co336 Co 0.80575 0.11057 0.93361 0.0
C337 C 0.71998 0.09844 0.92512 0.0
O338 O 0.73175 0.13932 0.92668 0.0
N339 N 0.77931 0.10191 0.94707 0.0
C340 C 0.73884 0.10202 0.96038 0.0
C341 C 0.7486 0.11162 0.95002 0.0
C342 C 0.78774 0.08661 0.95594 0.0
N343 N 0.76361 0.08639 0.96417 0.0
O344 O 0.80154 0.05453 0.93429 0.0
H345 H 0.73487 0.12624 0.94515 0.0
H346 H 0.81199 0.07693 0.95651 0.0
O347 O 0.74607 0.08433 0.92732 0.0
C348 C 0.8376 0.06131 0.93811 0.0
O349 O 0.86529 0.10039 0.94156 0.0
N350 N 0.81744 0.1689 0.93312 0.0
C351 C 0.86136 0.25982 0.93202 0.0
C352 C 0.83821 0.23451 0.92343 0.0
C353 C 0.81738 0.1893 0.92406 0.0
C354 C 0.83933 0.19327 0.9416 0.0
C355 C 0.86089 0.23859 0.94127 0.0
H356 H 0.80233 0.17084 0.9171 0.0
H357 H 0.84313 0.17789 0.94847 0.0
H358 H 0.78229 0.09234 0.90878 0.0
H359 H 0.9184 0.15672 0.90559 0.0
H360 H 0.71529 0.10652 0.96476 0.0
H361 H 0.8376 0.24945 0.91612 0.0
H362 H 0.87953 0.25672 0.948 0.0
C363 C 0.73504 0.88332 0.25655 0.0
C364 C 0.74428 0.89759 0.24643 0.0
N365 N 0.73385 0.86316 0.24019 0.0
N366 N 0.71856 0.83998 0.25679 0.0
C367 C 0.71866 0.82854 0.24672 0.0
H368 H 0.73853 0.90302 0.26332 0.0
Co369 Co 0.69902 0.80808 0.26917 0.0
C370 C 0.6301 0.72437 0.25866 0.0
O371 O 0.59958 0.73446 0.25988 0.0
N372 N 0.68053 0.77625 0.28188 0.0
C373 C 0.6395 0.7291 0.29416 0.0
C374 C 0.6407 0.74236 0.28406 0.0
C375 C 0.70283 0.78297 0.29091 0.0
N376 N 0.67864 0.75469 0.29853 0.0
O377 O 0.75241 0.80688 0.26949 0.0
H378 H 0.61335 0.72877 0.27885 0.0
H379 H 0.73581 0.80892 0.292 0.0
O380 O 0.6692 0.75091 0.26163 0.0
C381 C 0.78038 0.84205 0.27394 0.0
O382 O 0.76713 0.86726 0.2781 0.0
N383 N 0.65013 0.81652 0.26917 0.0
C384 C 0.60086 0.85813 0.26927 0.0
C385 C 0.60618 0.83995 0.26008 0.0
C386 C 0.6315 0.82007 0.26016 0.0
C387 C 0.64404 0.83308 0.27824 0.0
C388 C 0.61904 0.85333 0.2785 0.0
H389 H 0.63793 0.8096 0.25279 0.0
H390 H 0.66139 0.83398 0.28522 0.0
H391 H 0.70679 0.7954 0.24423 0.0
H392 H 0.75595 0.93063 0.24387 0.0
H393 H 0.61147 0.70282 0.29795 0.0
H394 H 0.59369 0.84388 0.25272 0.0
H395 H 0.61602 0.86726 0.28576 0.0
H396 H 0.27378 0.02881 0.06401 0.0
H397 H 0.24846 0.98527 0.04802 0.0
H398 H 0.3065 0.10269 0.0296 0.0
H399 H 0.32962 0.14596 0.04538 0.0
H400 H 0.23214 0.04882 0.02162 0.0
H401 H 0.3556 0.03852 0.03326 0.0
H402 H 0.398 0.02177 0.0457 0.0
H403 H 0.2959 0.88832 0.04676 0.0
H404 H 0.25264 0.90442 0.03442 0.0
H405 H 0.24911 0.96577 0.97216 0.0
H406 H 0.26699 0.0046 0.9888 0.0
H407 H 0.19268 0.88313 1.00518 0.0
H408 H 0.17375 0.84423 0.98871 0.0
H409 H 0.27178 0.93575 1.01444 0.0
H410 H 0.15054 0.94692 1.00176 0.0
H411 H 0.11081 0.96482 0.98877 0.0
H412 H 0.21194 0.09872 0.98926 0.0
H413 H 0.25265 0.08148 1.00212 0.0
C414 C 0.28071 0.04532 0.05657 0.0
C415 C 0.30445 0.09101 0.05604 0.0
C416 C 0.26656 0.02038 0.04741 0.0
C417 C 0.27621 0.04064 0.03755 0.0
C418 C 0.29879 0.08616 0.03706 0.0
C419 C 0.31255 0.11096 0.04616 0.0
C420 C 0.26365 0.01502 0.02768 0.0
C421 C 0.24121 0.02439 0.02003 0.0
C422 C 0.2747 0.98254 0.02562 0.0
C423 C 0.30069 0.97278 0.03301 0.0
C424 C 0.34206 0.00568 0.03621 0.0
C425 C 0.36627 0.99629 0.04323 0.0
C426 C 0.3496 0.95403 0.04704 0.0
C427 C 0.30873 0.92105 0.04382 0.0
C428 C 0.28437 0.93028 0.0368 0.0
C429 C 0.23627 0.94723 0.97926 0.0
C430 C 0.20996 0.90163 0.97898 0.0
C431 C 0.24666 0.96953 0.9888 0.0
C432 C 0.23101 0.94674 0.99824 0.0
C433 C 0.20532 0.90136 0.998 0.0
C434 C 0.1947 0.87911 0.98851 0.0
C435 C 0.24088 0.97004 1.00839 0.0
C436 C 0.26266 0.96012 1.01607 0.0
C437 C 0.22957 1.00227 1.01045 0.0
C438 C 0.20484 0.01282 1.00283 0.0
C439 C 0.16446 0.98013 0.99904 0.0
C440 C 0.14175 0.99016 0.99171 0.0
C441 C 0.15889 0.03286 0.98817 0.0
C442 C 0.19873 0.06565 0.99199 0.0
C443 C 0.22162 0.05577 0.99931 0.0
H444 H 0.14127 0.04055 0.98249 0.0
H445 H 0.36839 0.94683 0.05248 0.0
H446 H 0.26184 0.2835 0.39587 0.0
H447 H 0.28396 0.26341 0.37961 0.0
H448 H 0.19922 0.29435 0.36222 0.0
H449 H 0.1757 0.31241 0.37832 0.0
H450 H 0.19179 0.22181 0.35517 0.0
H451 H 0.31234 0.3642 0.36365 0.0
H452 H 0.3711 0.41783 0.37486 0.0
H453 H 0.43056 0.33823 0.37527 0.0
H454 H 0.37182 0.28384 0.36418 0.0
H455 H 0.26867 0.22766 0.30399 0.0
H456 H 0.25111 0.24978 0.32049 0.0
H457 H 0.34177 0.2229 0.33646 0.0
H458 H 0.36151 0.20349 0.31997 0.0
H459 H 0.34676 0.29167 0.34456 0.0
H460 H 0.22801 0.14976 0.33616 0.0
H461 H 0.16976 0.09509 0.32502 0.0
H462 H 0.10685 0.17151 0.32477 0.0
H463 H 0.16507 0.22695 0.33578 0.0
C464 C 0.24767 0.28567 0.3886 0.0
C465 C 0.21732 0.30015 0.38846 0.0
C466 C 0.26065 0.27456 0.37928 0.0
C467 C 0.24375 0.27796 0.36963 0.0
C468 C 0.21294 0.29162 0.36953 0.0
C469 C 0.19987 0.30247 0.37879 0.0
C470 C 0.25773 0.26739 0.35959 0.0
C471 C 0.22567 0.23746 0.35281 0.0
C472 C 0.30198 0.28689 0.35658 0.0
C473 C 0.33747 0.31977 0.36317 0.0
C474 C 0.3378 0.35801 0.36619 0.0
C475 C 0.37112 0.38855 0.37252 0.0
C476 C 0.40449 0.38139 0.3758 0.0
C477 C 0.40466 0.34371 0.37274 0.0
C478 C 0.37139 0.31304 0.36643 0.0
C479 C 0.28547 0.22709 0.31095 0.0
C480 C 0.31611 0.21298 0.31057 0.0
C481 C 0.27497 0.2393 0.32044 0.0
C482 C 0.29426 0.23699 0.32981 0.0
C483 C 0.32605 0.22462 0.32939 0.0
C484 C 0.33696 0.21297 0.31991 0.0
C485 C 0.28076 0.24639 0.34009 0.0
C486 C 0.31288 0.27598 0.34691 0.0
C487 C 0.23655 0.22635 0.34319 0.0
C488 C 0.2011 0.19268 0.33672 0.0
C489 C 0.20187 0.155 0.33368 0.0
C490 C 0.16886 0.12388 0.32739 0.0
C491 C 0.13469 0.12987 0.32417 0.0
C492 C 0.13337 0.16693 0.32726 0.0
C493 C 0.16634 0.1982 0.33353 0.0
H494 H 0.1092 0.10577 0.31928 0.0
H495 H 0.4303 0.40506 0.38068 0.0
H496 H 0.85567 0.21806 0.71228 0.0
H497 H 0.89281 0.2359 0.69555 0.0
H498 H 0.0146 0.27509 0.71097 0.0
H499 H 0.97798 0.25934 0.7279 0.0
H500 H 0.02593 0.33075 0.69593 0.0
H501 H 0.95631 0.17537 0.6983 0.0
H502 H 0.89499 0.10094 0.70092 0.0
H503 H 0.82877 0.11626 0.67473 0.0
H504 H 0.88946 0.19104 0.67205 0.0
H505 H 0.14653 0.32641 0.65278 0.0
H506 H 0.10605 0.30993 0.66909 0.0
H507 H 0.98983 0.28056 0.65215 0.0
H508 H 0.03058 0.29736 0.63565 0.0
H509 H 0.97393 0.22089 0.6676 0.0
H510 H 0.04583 0.37622 0.665 0.0
H511 H 0.10845 0.44988 0.66237 0.0
H512 H 0.17167 0.43375 0.68908 0.0
H513 H 0.10968 0.35972 0.69178 0.0
C514 C 0.89042 0.23102 0.71223 0.0
C515 C 0.91359 0.2371 0.72158 0.0
C516 C 0.91161 0.24072 0.70257 0.0
C517 C 0.95642 0.25611 0.70195 0.0
C518 C 0.97991 0.26297 0.71123 0.0
C519 C 0.95877 0.25356 0.72093 0.0
C520 C 0.9787 0.26519 0.69162 0.0
C521 C 0.01486 0.30651 0.68979 0.0
C522 C 0.96367 0.23399 0.68348 0.0
C523 C 0.92725 0.18895 0.68504 0.0
C524 C 0.92853 0.16298 0.69315 0.0
C525 C 0.89391 0.12071 0.69464 0.0
C526 C 0.85796 0.10392 0.68801 0.0
C527 C 0.85661 0.12933 0.67987 0.0
C528 C 0.89113 0.17164 0.67835 0.0
C529 C 0.1125 0.31697 0.65248 0.0
C530 C 0.09201 0.31392 0.64288 0.0
C531 C 0.08932 0.30739 0.66184 0.0
C532 C 0.04508 0.2948 0.66188 0.0
C533 C 0.02404 0.29046 0.65231 0.0
C534 C 0.04731 0.29999 0.64289 0.0
C535 C 0.02122 0.2863 0.67196 0.0
C536 C 0.98482 0.24514 0.67373 0.0
C537 C 0.03612 0.31756 0.68007 0.0
C538 C 0.07323 0.36229 0.67854 0.0
C539 C 0.0732 0.38827 0.67027 0.0
C540 C 0.10857 0.43011 0.66877 0.0
C541 C 0.14405 0.44645 0.67554 0.0
C542 C 0.14417 0.42104 0.68384 0.0
C543 C 0.1089 0.37916 0.68536 0.0
H544 H 0.17141 0.47884 0.67436 0.0
H545 H 0.83118 0.07119 0.68917 0.0
H546 H 0.7371 0.11078 0.98154 0.0
H547 H 0.73605 0.0875 0.99936 0.0
H548 H 0.7935 0.01143 0.98937 0.0
H549 H 0.79268 0.033 0.97127 0.0
H550 H 0.73075 0.9662 1.00277 0.0
H551 H 0.85318 0.10789 1.0031 0.0
H552 H 0.89619 0.18681 0.99988 0.0
H553 H 0.81064 0.20725 0.01982 0.0
H554 H 0.7667 0.12836 0.02304 0.0
H555 H 0.74945 0.93044 0.05765 0.0
H556 H 0.77282 0.95661 0.03971 0.0
H557 H 0.69784 0.02164 0.04058 0.0
H558 H 0.6743 0.99537 0.05838 0.0
H559 H 0.78273 0.07255 0.03187 0.0
H560 H 0.65588 0.92736 0.02917 0.0
H561 H 0.61566 0.84831 0.03241 0.0
H562 H 0.71619 0.83555 1.01696 0.0
H563 H 0.7573 0.91469 1.01377 0.0
C564 C 0.74923 0.08881 0.98303 0.0
C565 C 0.7648 0.07373 0.97485 0.0
C566 C 0.74919 0.07597 0.99332 0.0
C567 C 0.76541 0.04827 0.99579 0.0
C568 C 0.78107 0.03306 0.98769 0.0
C569 C 0.78088 0.04573 0.97733 0.0
C570 C 0.76426 0.03424 1.00681 0.0
C571 C 0.74305 0.98957 1.00911 0.0
C572 C 0.7801 0.06454 1.01514 0.0
C573 C 0.80647 0.11211 1.01326 0.0
C574 C 0.84334 0.12916 1.00674 0.0
C575 C 0.86792 0.17391 1.00492 0.0
C576 C 0.85612 0.20202 1.00963 0.0
C577 C 0.81974 0.18543 1.01618 0.0
C578 C 0.79502 0.1407 0.01801 0.0
C579 C 0.73846 0.95074 0.05403 0.0
C580 C 0.70988 0.9607 0.05937 0.0
C581 C 0.75162 0.96547 0.04379 0.0
C582 C 0.73688 0.9909 0.0388 0.0
C583 C 0.70959 1.00207 0.04427 0.0
C584 C 0.69595 0.98684 0.05441 0.0
C585 C 0.74821 0.00479 0.02776 0.0
C586 C 0.77131 0.04939 0.02549 0.0
C587 C 0.73471 0.97449 0.01946 0.0
C588 C 0.7099 0.92697 0.02135 0.0
C589 C 0.66959 0.90775 0.02655 0.0
C590 C 0.6466 0.86292 0.02836 0.0
C591 C 0.66343 0.83694 0.02493 0.0
C592 C 0.70324 0.85573 0.01964 0.0
C593 C 0.72639 0.90055 0.01783 0.0
H594 H 0.64558 0.80224 0.02633 0.0
H595 H 0.87519 0.23666 1.00821 0.0
H596 H 0.62501 0.71213 0.31496 0.0
H597 H 0.64553 0.70774 0.3327 0.0
H598 H 0.78078 0.79011 0.32472 0.0
H599 H 0.76074 0.79289 0.30666 0.0
H600 H 0.77257 0.72685 0.33663 0.0
H601 H 0.72398 0.82863 0.33927 0.0
H602 H 0.67557 0.85892 0.33675 0.0
H603 H 0.57532 0.75374 0.35445 0.0
H604 H 0.6229 0.72243 0.35696 0.0
H605 H 0.82234 0.74391 0.39167 0.0
H606 H 0.8148 0.76579 0.37397 0.0
H607 H 0.67928 0.6669 0.37395 0.0
H608 H 0.68675 0.64484 0.39156 0.0
H609 H 0.69678 0.75007 0.3664 0.0
H610 H 0.74701 0.64628 0.36185 0.0
H611 H 0.79853 0.61977 0.3645 0.0
H612 H 0.90081 0.73635 0.35059 0.0
H613 H 0.84997 0.76382 0.348 0.0
C614 C 0.65922 0.72915 0.31683 0.0
C615 C 0.69107 0.75297 0.30921 0.0
C616 C 0.6709 0.72704 0.32711 0.0
C617 C 0.71468 0.74932 0.33015 0.0
C618 C 0.74672 0.7729 0.3226 0.0
C619 C 0.73509 0.77473 0.31225 0.0
C620 C 0.72658 0.74671 0.34116 0.0
C621 C 0.75662 0.73283 0.34313 0.0
C622 C 0.70574 0.75429 0.3497 0.0
C623 C 0.67695 0.77301 0.34824 0.0
C624 C 0.6915 0.81178 0.34257 0.0
C625 C 0.66422 0.82916 0.34115 0.0
C626 C 0.62237 0.80823 0.34542 0.0
C627 C 0.60774 0.7699 0.35114 0.0
C628 C 0.63488 0.75235 0.35258 0.0
C629 C 0.79092 0.72718 0.38791 0.0
C630 C 0.75516 0.69254 0.39296 0.0
C631 C 0.7867 0.73954 0.3778 0.0
C632 C 0.74652 0.71782 0.37264 0.0
C633 C 0.71056 0.68405 0.37779 0.0
C634 C 0.71492 0.67129 0.38781 0.0
C635 C 0.74176 0.72924 0.36178 0.0
C636 C 0.71311 0.7448 0.35987 0.0
C637 C 0.76439 0.72393 0.35333 0.0
C638 C 0.79484 0.70732 0.35485 0.0
C639 C 0.78058 0.66643 0.35945 0.0
C640 C 0.80964 0.6512 0.36092 0.0
C641 C 0.85296 0.67643 0.35775 0.0
C642 C 0.86727 0.71689 0.35307 0.0
C643 C 0.83835 0.73229 0.35159 0.0
H644 H 0.8754 0.66457 0.35889 0.0
H645 H 0.60129 0.82174 0.34431 0.0
H646 H 0.03816 0.74125 0.73045 0.0
H647 H 1.00039 0.72018 0.71371 0.0
H648 H 0.12027 0.80633 0.69773 0.0
H649 H 0.15764 0.82903 0.71436 0.0
H650 H 0.0579 0.81419 0.68945 0.0
H651 H 0.07665 0.69348 0.69821 0.0
H652 H 0.07137 0.63384 0.70907 0.0
H653 H 0.93217 0.57351 0.70939 0.0
H654 H 0.93666 0.63309 0.69857 0.0
H655 H 0.98892 0.72647 0.6382 0.0
H656 H 0.02737 0.74735 0.65486 0.0
H657 H 0.9058 0.67386 0.67131 0.0
H658 H 0.86703 0.65373 0.65486 0.0
H659 H 0.96939 0.65929 0.67915 0.0
H660 H 0.95242 0.78139 0.6699 0.0
H661 H 0.95963 0.83994 0.65828 0.0
H662 H 0.09852 0.89732 0.65844 0.0
H663 H 0.0921 0.83867 0.66993 0.0
C664 C 0.05649 0.75599 0.7234 0.0
C665 C 0.1012 0.7867 0.72385 0.0
C666 C 0.03489 0.74356 0.71379 0.0
C667 C 0.05755 0.7612 0.7044 0.0
C668 C 0.102 0.79208 0.70484 0.0
C669 C 0.12351 0.80469 0.71441 0.0
C670 C 0.03516 0.74789 0.6941 0.0
C671 C 0.03902 0.78031 0.68717 0.0
C672 C 0.00988 0.7037 0.69112 0.0
C673 C 0.00703 0.66796 0.69767 0.0
C674 C 0.04493 0.66768 0.70067 0.0
C675 C 0.04207 0.63384 0.7068 0.0
C676 C 1.00146 0.59994 0.70995 0.0
C677 C 0.96361 0.59981 0.70695 0.0
C678 C 0.96629 0.63357 0.70081 0.0
C679 C 0.97018 0.71489 0.64533 0.0
C680 C 0.9246 0.6882 0.64505 0.0
C681 C 0.99232 0.7268 0.65487 0.0
C682 C 0.96943 0.71228 0.66434 0.0
C683 C 0.92419 0.68525 0.6641 0.0
C684 C 0.90204 0.67359 0.65461 0.0
C685 C 0.99226 0.72555 0.67455 0.0
C686 C 0.98837 0.69314 0.68146 0.0
C687 C 0.01779 0.76973 0.67747 0.0
C688 C 0.02175 0.80539 0.67069 0.0
C689 C 0.98449 0.80632 0.6674 0.0
C690 C 0.98843 0.83954 0.66084 0.0
C691 C 0.0295 0.87226 0.6576 0.0
C692 C 0.06672 0.87191 0.66094 0.0
C693 C 0.06295 0.8387 0.66748 0.0
H694 H 0.03248 0.89793 0.65252 0.0
H695 H 0.9993 0.57371 0.71468 0.0
H696 H 0.56183 0.89599 0.12065 0.0
H697 H 0.52304 0.93618 0.12234 0.0
H698 H 0.62556 0.04374 0.10546 0.0
H699 H 0.66482 1.00327 0.10372 0.0
H700 H 0.58283 0.0675 0.12214 0.0
H701 H 0.54855 0.97545 0.09176 0.0
H702 H 0.52799 0.9063 0.08285 0.0
H703 H 0.40832 0.84309 0.10019 0.0
H704 H 0.42863 0.91175 0.10937 0.0
H705 H 0.47483 0.15944 0.09585 0.0
H706 H 0.51636 0.12588 0.1015 0.0
H707 H 0.39976 0.01711 0.11399 0.0
H708 H 0.35733 0.05103 0.10827 0.0
H709 H 0.44667 0.99168 0.10153 0.0
H710 H 0.47635 0.08603 0.13033 0.0
H711 H 0.49681 0.15489 0.13935 0.0
H712 H 0.62387 0.21367 0.12544 0.0
H713 H 0.60389 0.14544 0.11613 0.0
C714 C 0.57692 0.92884 0.11761 0.0
C715 C 0.61627 0.94642 0.11201 0.0
C716 C 0.55461 0.95171 0.11856 0.0
C717 C 0.57099 0.99262 0.11387 0.0
C718 C 0.61233 0.01216 0.10913 0.0
C719 C 0.63488 0.98915 0.10819 0.0
C720 C 0.54224 0.01167 0.1127 0.0
C721 C 0.55328 0.05124 0.11757 0.0
C722 C 0.50296 0.98972 0.10698 0.0
C723 C 0.49032 0.9486 0.10134 0.0
C724 C 0.51801 0.94672 0.09374 0.0
C725 C 0.5064 0.90763 0.08863 0.0
C726 C 0.46692 0.87029 0.09097 0.0
C727 C 0.43893 0.87202 0.0984 0.0
C728 C 0.45047 0.91101 0.10356 0.0
C729 C 0.4578 0.1285 0.09987 0.0
C730 C 0.41258 0.10776 0.10155 0.0
C731 C 0.48182 0.10948 0.10318 0.0
C732 C 0.4614 0.06912 0.10825 0.0
C733 C 0.41627 0.04841 0.11012 0.0
C734 C 0.39208 0.06782 0.10689 0.0
C735 C 0.4873 0.04794 0.11089 0.0
C736 C 0.47586 0.00787 0.10624 0.0
C737 C 0.52611 0.06949 0.11682 0.0
C738 C 0.53847 0.11061 0.12246 0.0
C739 C 0.50855 0.11372 0.12912 0.0
C740 C 0.52008 0.15264 0.1343 0.0
C741 C 0.56161 0.18863 0.13297 0.0
C742 C 0.59171 0.18576 0.12646 0.0
C743 C 0.58029 0.14695 0.12123 0.0
H744 H 0.57048 0.21873 0.137 0.0
H745 H 0.45796 0.84005 0.087 0.0
H746 H 0.32078 0.45841 0.42448 0.0
H747 H 0.39716 0.50129 0.42888 0.0
H748 H 0.39062 0.39091 0.4446 0.0
H749 H 0.31261 0.34723 0.44033 0.0
H750 H 0.44219 0.46824 0.45526 0.0
H751 H 0.43251 0.41703 0.42022 0.0
H752 H 0.40693 0.40361 0.402 0.0
H753 H 0.46392 0.54093 0.39692 0.0
H754 H 0.48929 0.55517 0.41515 0.0
H755 H 0.67076 0.54718 0.45208 0.0
H756 H 0.59149 0.50843 0.45203 0.0
H757 H 0.59342 0.61475 0.43534 0.0
H758 H 0.67332 0.65372 0.4353 0.0
H759 H 0.54385 0.53839 0.42559 0.0
H760 H 0.55513 0.58976 0.46055 0.0
H761 H 0.58097 0.60313 0.47874 0.0
H762 H 0.5221 0.46571 0.48395 0.0
H763 H 0.49646 0.4515 0.46574 0.0
C764 C 0.33524 0.44292 0.4289 0.0
C765 C 0.3105 0.39897 0.43191 0.0
C766 C 0.37918 0.46769 0.43141 0.0
C767 C 0.40008 0.44922 0.43687 0.0
C768 C 0.37528 0.40583 0.4403 0.0
C769 C 0.33076 0.38085 0.43784 0.0
C770 C 0.44805 0.47535 0.43856 0.0
C771 C 0.46452 0.48304 0.44877 0.0
C772 C 0.47724 0.49562 0.43011 0.0
C773 C 0.46249 0.48714 0.41909 0.0
C774 C 0.43935 0.44436 0.41524 0.0
C775 C 0.42491 0.4366 0.40491 0.0
C776 C 0.4337 0.4714 0.39832 0.0
C777 C 0.4571 0.51401 0.40204 0.0
C778 C 0.47155 0.52195 0.41237 0.0
C779 C 0.65436 0.5629 0.44865 0.0
C780 C 0.67837 0.60359 0.44371 0.0
C781 C 0.60891 0.54067 0.44864 0.0
C782 C 0.58624 0.55853 0.44369 0.0
C783 C 0.61014 0.60025 0.43922 0.0
C784 C 0.65582 0.62275 0.43929 0.0
C785 C 0.53813 0.53179 0.4423 0.0
C786 C 0.52161 0.52376 0.4321 0.0
C787 C 0.5091 0.51118 0.45075 0.0
C788 C 0.5242 0.51958 0.46174 0.0
C789 C 0.54798 0.56239 0.46555 0.0
C790 C 0.56254 0.57012 0.47587 0.0
C791 C 0.55327 0.5353 0.48249 0.0
C792 C 0.5293 0.49266 0.47881 0.0
C793 C 0.5147 0.48474 0.46849 0.0
H794 H 0.5646 0.54136 0.49047 0.0
H795 H 0.42243 0.46538 0.39034 0.0
H796 H 0.14546 0.6832 0.76272 0.0
H797 H 0.10936 0.60519 0.76545 0.0
H798 H 0.99202 0.60419 0.77466 0.0
H799 H 0.02875 0.68369 0.77207 0.0
H800 H 0.00658 0.54639 0.78653 0.0
H801 H 1.0015 0.57597 0.75036 0.0
H802 H 0.03144 0.6116 0.73344 0.0
H803 H 0.11445 0.55599 0.73249 0.0
H804 H 0.0857 0.52078 0.74953 0.0
H805 H 0.86279 0.32293 0.7733 0.0
H806 H 0.90265 0.40168 0.77572 0.0
H807 H 0.02221 0.40516 0.76755 0.0
H808 H 0.98213 0.3256 0.76526 0.0
H809 H 0.00619 0.46159 0.75568 0.0
H810 H 0.00862 0.42968 0.79175 0.0
H811 H 0.97768 0.39391 0.8086 0.0
H812 H 0.89707 0.4522 0.8095 0.0
H813 H 0.927 0.48779 0.79256 0.0
C814 C 0.11201 0.66671 0.76539 0.0
C815 C 0.08982 0.68982 0.76701 0.0
C816 C 0.09136 0.62186 0.76695 0.0
C817 C 0.04762 0.59842 0.77004 0.0
C818 C 0.02574 0.62149 0.7722 0.0
C819 C 0.0467 0.66689 0.77071 0.0
C820 C 0.02489 0.5498 0.77038 0.0
C821 C 0.00592 0.52779 0.77974 0.0
C822 C 0.02475 0.52537 0.7616 0.0
C823 C 0.04171 0.54604 0.75127 0.0
C824 C 0.02637 0.57158 0.74658 0.0
C825 C 0.04311 0.59169 0.73697 0.0
C826 C 0.07487 0.58609 0.7319 0.0
C827 C 0.08988 0.56032 0.73643 0.0
C828 C 0.07338 0.54029 0.74607 0.0
C829 C 0.89777 0.34031 0.77228 0.0
C830 C 0.91937 0.31805 0.76912 0.0
C831 C 0.92055 0.3854 0.77368 0.0
C832 C 0.96549 0.40954 0.77183 0.0
C833 C 0.98754 0.38723 0.76905 0.0
C834 C 0.96474 0.34176 0.76783 0.0
C835 C 0.98822 0.45811 0.77185 0.0
C836 C 0.00698 0.48014 0.76249 0.0
C837 C 0.98777 0.48232 0.78061 0.0
C838 C 0.96978 0.46109 0.79082 0.0
C839 C 0.984 0.43457 0.79549 0.0
C840 C 0.9667 0.41438 0.80507 0.0
C841 C 0.93535 0.42069 0.81011 0.0
C842 C 0.92132 0.4473 0.80558 0.0
C843 C 0.93848 0.46753 0.796 0.0
H844 H 0.922 0.40503 0.81752 0.0
H845 H 0.08784 0.60168 0.72447 0.0
H846 H 0.15709 0.4677 0.5991 0.0
H847 H 0.12174 0.51051 0.59642 0.0
H848 H 0.99761 0.39278 0.59381 0.0
H849 H 0.03349 0.34929 0.59626 0.0
H850 H 1.00283 0.45592 0.58058 0.0
H851 H 0.02836 0.44689 0.61681 0.0
H852 H 0.07133 0.45198 0.63236 0.0
H853 H 0.15543 0.58847 0.62682 0.0
H854 H 0.11332 0.58407 0.61114 0.0
H855 H 0.87051 0.542 0.59799 0.0
H856 H 0.90977 0.50313 0.59481 0.0
H857 H 0.0314 0.62428 0.59566 0.0
H858 H 0.99175 0.66375 0.5988 0.0
H859 H 0.02918 0.56136 0.60897 0.0
H860 H 0.99745 0.56939 0.57311 0.0
H861 H 0.95111 0.56188 0.55807 0.0
H862 H 0.87421 0.42449 0.56359 0.0
H863 H 0.91969 0.43125 0.57876 0.0
C864 C 0.1223 0.45076 0.59781 0.0
C865 C 0.09799 0.40505 0.59802 0.0
C866 C 0.10208 0.47537 0.59631 0.0
C867 C 0.05681 0.45504 0.59519 0.0
C868 C 0.03257 0.40928 0.59474 0.0
C869 C 0.05305 0.38442 0.59612 0.0
C870 C 0.03515 0.48188 0.5952 0.0
C871 C 0.0082 0.47862 0.58684 0.0
C872 C 0.04268 0.51221 0.60327 0.0
C873 C 0.06793 0.51506 0.61274 0.0
C874 C 0.05621 0.47793 0.61886 0.0
C875 C 0.08039 0.4807 0.62771 0.0
C876 C 0.11615 0.5205 0.63056 0.0
C877 C 0.12775 0.55765 0.62459 0.0
C878 C 0.10372 0.55505 0.61573 0.0
C879 C 0.90561 0.56058 0.5973 0.0
C880 C 0.92807 0.60598 0.59866 0.0
C881 C 0.92803 0.53825 0.59543 0.0
C882 C 0.97358 0.56065 0.59495 0.0
C883 C 0.9962 0.60628 0.59596 0.0
C884 C 0.97359 0.62886 0.59769 0.0
C885 C 0.99708 0.53569 0.59432 0.0
C886 C 0.02417 0.53906 0.60264 0.0
C887 C 0.98915 0.50514 0.58629 0.0
C888 C 0.96181 0.50091 0.57713 0.0
C889 C 0.97045 0.53762 0.57117 0.0
C890 C 0.94437 0.53349 0.56261 0.0
C891 C 0.90969 0.49274 0.55989 0.0
C892 C 0.90107 0.45603 0.56571 0.0
C893 C 0.92703 0.45999 0.57429 0.0
H894 H 0.88953 0.48961 0.55326 0.0
H895 H 0.13483 0.52258 0.63741 0.0
H896 H 0.66859 0.11661 0.91314 0.0
H897 H 0.58931 0.07736 0.91261 0.0
H898 H 0.5859 0.97526 0.93147 0.0
H899 H 0.66591 0.01455 0.93194 0.0
H900 H 0.51888 0.94362 0.91667 0.0
H901 H 0.57808 0.0547 0.943 0.0
H902 H 0.62536 0.12898 0.94964 0.0
H903 H 0.56297 0.17716 0.92937 0.0
H904 H 0.51578 0.1032 0.92248 0.0
H905 H 0.31997 0.8628 0.94305 0.0
H906 H 0.39559 0.89639 0.93784 0.0
H907 H 0.38303 0.99264 0.92014 0.0
H908 H 0.30596 0.95871 0.92541 0.0
H909 H 0.457 0.02857 0.93251 0.0
H910 H 0.39237 0.91493 0.90743 0.0
H911 H 0.34507 0.84012 0.90113 0.0
H912 H 0.41677 0.79595 0.91932 0.0
H913 H 0.46415 0.87041 0.92586 0.0
C914 C 0.65103 0.08519 0.91694 0.0
C915 C 0.67351 0.06876 0.92262 0.0
C916 C 0.60564 0.06289 0.91667 0.0
C917 C 0.58152 0.02384 0.9222 0.0
C918 C 0.60381 0.00547 0.92719 0.0
C919 C 0.64954 0.02779 0.9274 0.0
C920 C 0.5336 0.00473 0.92354 0.0
C921 C 0.50536 0.96203 0.92021 0.0
C922 C 0.51573 0.0291 0.92793 0.0
C923 C 0.54373 0.0735 0.93214 0.0
C924 C 0.57467 0.08119 0.9399 0.0
C925 C 0.60142 0.12322 0.94372 0.0
C926 C 0.59725 0.15779 0.93991 0.0
C927 C 0.56621 0.15036 0.9323 0.0
C928 C 0.53945 0.10839 0.92844 0.0
C929 C 0.33286 0.89103 0.93801 0.0
C930 C 0.30659 0.90804 0.93467 0.0
C931 C 0.37633 0.91007 0.93497 0.0
C932 C 0.39507 0.94673 0.92848 0.0
C933 C 0.3692 0.96416 0.92511 0.0
C934 C 0.32518 0.94474 0.92811 0.0
C935 C 0.44213 0.96729 0.9257 0.0
C936 C 0.47036 0.01029 0.92882 0.0
C937 C 0.45991 0.9431 0.92116 0.0
C938 C 0.43165 0.89826 0.9172 0.0
C939 C 0.39788 0.88923 0.91015 0.0
C940 C 0.37107 0.84688 0.90652 0.0
C941 C 0.37786 0.81329 0.90983 0.0
C942 C 0.41154 0.822 0.91676 0.0
C943 C 0.43843 0.86429 0.92042 0.0
H944 H 0.35707 0.78052 0.90702 0.0
H945 H 0.61798 0.19031 0.94288 0.0
H946 H 0.36163 0.31139 0.25855 0.0
H947 H 0.40638 0.38926 0.25435 0.0
H948 H 0.50762 0.39842 0.27451 0.0
H949 H 0.4633 0.32219 0.27891 0.0
H950 H 0.49719 0.46363 0.27819 0.0
H951 H 0.51261 0.39688 0.24693 0.0
H952 H 0.48591 0.34876 0.23157 0.0
H953 H 0.427 0.42018 0.2198 0.0
H954 H 0.45285 0.46838 0.23517 0.0
H955 H 0.66392 0.67423 0.26568 0.0
H956 H 0.62633 0.59443 0.26576 0.0
H957 H 0.52333 0.59006 0.24715 0.0
H958 H 0.56098 0.66933 0.24689 0.0
H959 H 0.53458 0.52265 0.24222 0.0
H960 H 0.51747 0.58752 0.27373 0.0
H961 H 0.54342 0.63511 0.2892 0.0
H962 H 0.6054 0.56597 0.30055 0.0
H963 H 0.58032 0.51834 0.28506 0.0
C964 C 0.39342 0.33011 0.26207 0.0
C965 C 0.4086 0.31037 0.2691 0.0
C966 C 0.41914 0.3746 0.25962 0.0
C967 C 0.46072 0.39995 0.26406 0.0
C968 C 0.47574 0.37996 0.27101 0.0
C969 C 0.45014 0.33602 0.2735 0.0
C970 C 0.4887 0.44747 0.26183 0.0
C971 C 0.50576 0.47628 0.2703 0.0
C972 C 0.49938 0.46454 0.25156 0.0
C973 C 0.48429 0.43596 0.24225 0.0
C974 C 0.49372 0.40215 0.2411 0.0
C975 C 0.47877 0.37488 0.23239 0.0
C976 C 0.45467 0.38132 0.22473 0.0
C977 C 0.44561 0.41518 0.22575 0.0
C978 C 0.46043 0.4425 0.23445 0.0
C979 C 0.63416 0.65626 0.26127 0.0
C980 C 0.6153 0.67809 0.25633 0.0
C981 C 0.61238 0.6106 0.26142 0.0
C982 C 0.57137 0.58609 0.25667 0.0
C983 C 0.55467 0.60802 0.25093 0.0
C984 C 0.5763 0.65345 0.25079 0.0
C985 C 0.54357 0.53838 0.25859 0.0
C986 C 0.52625 0.50973 0.25009 0.0
C987 C 0.53262 0.52127 0.26884 0.0
C988 C 0.54739 0.54966 0.27819 0.0
C989 C 0.53687 0.58265 0.2795 0.0
C990 C 0.55141 0.60962 0.28827 0.0
C991 C 0.57612 0.60362 0.29584 0.0
C992 C 0.5863 0.57061 0.29467 0.0
C993 C 0.57193 0.54361 0.2859 0.0
H994 H 0.58728 0.62444 0.30264 0.0
H995 H 0.44308 0.36015 0.21799 0.0
H996 H 0.3375 0.2348 0.22725 0.0
H997 H 0.35259 0.24401 0.20836 0.0
H998 H 0.3084 0.10712 0.20557 0.0
H999 H 0.29329 0.09797 0.2243 0.0
H1000 H 0.38148 0.15901 0.19296 0.0
H1001 H 0.23903 0.14002 0.20087 0.0
H1002 H 0.1892 0.15941 0.20967 0.0
H1003 H 0.25689 0.28661 0.19587 0.0
H1004 H 0.30751 0.26811 0.1871 0.0
H1005 H 0.31232 0.10626 0.14002 0.0
H1006 H 0.32379 0.11208 0.15898 0.0
H1007 H 0.33934 0.24067 0.15835 0.0
H1008 H 0.3257 0.23365 0.13957 0.0
H1009 H 0.28813 0.20009 0.17299 0.0
H1010 H 0.42597 0.21762 0.16328 0.0
H1011 H 0.47693 0.19956 0.15456 0.0
H1012 H 0.42221 0.07932 0.17152 0.0
H1013 H 0.37049 0.09633 0.18024 0.0
C1014 C 0.33187 0.207 0.22261 0.0
C1015 C 0.31369 0.16561 0.22719 0.0
C1016 C 0.34033 0.21219 0.21184 0.0
C1017 C 0.33125 0.17612 0.20554 0.0
C1018 C 0.31565 0.13536 0.21025 0.0
C1019 C 0.30669 0.13012 0.22094 0.0
C1020 C 0.33392 0.17949 0.19396 0.0
C1021 C 0.36111 0.16795 0.18855 0.0
C1022 C 0.30792 0.19188 0.18823 0.0
C1023 C 0.27732 0.20287 0.19343 0.0
C1024 C 0.24348 0.17223 0.19978 0.0
C1025 C 0.21507 0.18304 0.20475 0.0
C1026 C 0.21996 0.22426 0.20336 0.0
C1027 C 0.2532 0.25472 0.19696 0.0
C1028 C 0.28174 0.24409 0.19199 0.0
C1029 C 0.31889 0.1359 0.14397 0.0
C1030 C 0.3179 0.16939 0.1384 0.0
C1031 C 0.32565 0.13941 0.15479 0.0
C1032 C 0.33279 0.17703 0.16018 0.0
C1033 C 0.33364 0.21119 0.15446 0.0
C1034 C 0.32595 0.20725 0.14373 0.0
C1035 C 0.33595 0.17971 0.17182 0.0
C1036 C 0.3094 0.19201 0.17729 0.0
C1037 C 0.36294 0.16843 0.17756 0.0
C1038 C 0.3941 0.15812 0.17235 0.0
C1039 C 0.42458 0.18718 0.16509 0.0
C1040 C 0.45364 0.17714 0.16016 0.0
C1041 C 0.45276 0.13828 0.16247 0.0
C1042 C 0.42285 0.1094 0.16974 0.0
C1043 C 0.39368 0.11924 0.17468 0.0
H1044 H 0.4753 0.13058 0.15866 0.0
H1045 H 0.19793 0.23257 0.20721 0.0
H1046 H 0.09525 0.29296 0.4736 0.0
H1047 H 0.10226 0.30438 0.4925 0.0
H1048 H 0.2292 0.31646 0.49131 0.0
H1049 H 0.22237 0.30567 0.47225 0.0
H1050 H 0.16863 0.25305 0.50586 0.0
H1051 H 0.2255 0.40297 0.49692 0.0
H1052 H 0.2254 0.46439 0.48801 0.0
H1053 H 0.10664 0.43491 0.50365 0.0
H1054 H 0.10565 0.37286 0.51254 0.0
H1055 H 0.20469 0.28692 0.55948 0.0
H1056 H 0.21426 0.29865 0.54065 0.0
H1057 H 0.10194 0.31517 0.53955 0.0
H1058 H 0.09363 0.30522 0.55861 0.0
H1059 H 0.15964 0.36783 0.52595 0.0
H1060 H 0.0965 0.21635 0.53343 0.0
H1061 H 0.09024 0.15124 0.54196 0.0
H1062 H 0.21229 0.17852 0.52854 0.0
H1063 H 0.21959 0.24418 0.52006 0.0
C1064 C 0.12489 0.2987 0.47737 0.0
C1065 C 0.15823 0.29827 0.47152 0.0
C1066 C 0.12896 0.30541 0.48814 0.0
C1067 C 0.16626 0.31135 0.49331 0.0
C1068 C 0.2002 0.31209 0.48746 0.0
C1069 C 0.19643 0.30615 0.4766 0.0
C1070 C 0.16786 0.3131 0.5049 0.0
C1071 C 0.16765 0.27865 0.51027 0.0
C1072 C 0.16467 0.34553 0.51061 0.0
C1073 C 0.16532 0.38301 0.50533 0.0
C1074 C 0.19916 0.40934 0.49839 0.0
C1075 C 0.19934 0.44432 0.49336 0.0
C1076 C 0.16598 0.45349 0.49524 0.0
C1077 C 0.13244 0.42775 0.50219 0.0
C1078 C 0.13208 0.3927 0.50724 0.0
C1079 C 0.1823 0.29343 0.55522 0.0
C1080 C 0.14805 0.29457 0.56043 0.0
C1081 C 0.18767 0.29999 0.54445 0.0
C1082 C 0.1581 0.30656 0.53859 0.0
C1083 C 0.12503 0.30985 0.54387 0.0
C1084 C 0.12021 0.30415 0.55473 0.0
C1085 C 0.16062 0.30778 0.52695 0.0
C1086 C 0.1612 0.34251 0.52156 0.0
C1087 C 0.16323 0.27507 0.52117 0.0
C1088 C 0.15881 0.23543 0.5262 0.0
C1089 C 0.12215 0.20863 0.53236 0.0
C1090 C 0.1184 0.17161 0.53718 0.0
C1091 C 0.15091 0.16082 0.53582 0.0
C1092 C 0.18718 0.18696 0.52961 0.0
C1093 C 0.19113 0.22407 0.52478 0.0
H1094 H 0.14794 0.13215 0.53956 0.0
H1095 H 0.16618 0.48058 0.49134 0.0
H1096 H 0.84156 0.18562 0.80359 0.0
H1097 H 0.83171 0.18249 0.8226 0.0
H1098 H 0.90604 0.11712 0.8254 0.0
H1099 H 0.91456 0.11908 0.80645 0.0
H1100 H 0.83677 0.07601 0.83645 0.0
H1101 H 0.94506 0.22726 0.83273 0.0
H1102 H 0.97571 0.30161 0.82574 0.0
H1103 H 0.86808 0.30983 0.83846 0.0
H1104 H 0.83647 0.23526 0.84542 0.0
H1105 H 0.89716 0.10697 0.88977 0.0
H1106 H 0.89673 0.1123 0.87072 0.0
H1107 H 0.7938 0.14292 0.87276 0.0
H1108 H 0.7938 0.13695 0.89191 0.0
H1109 H 0.86902 0.20097 0.85944 0.0
H1110 H 0.76474 0.04999 0.8643 0.0
H1111 H 0.73731 0.9764 0.87147 0.0
H1112 H 0.84223 0.96927 0.85669 0.0
H1113 H 0.87069 0.04313 0.84956 0.0
C1114 C 0.85638 0.17133 0.80831 0.0
C1115 C 0.8788 0.15256 0.80357 0.0
C1116 C 0.85074 0.16949 0.81917 0.0
C1117 C 0.86823 0.14965 0.8255 0.0
C1118 C 0.89189 0.13228 0.82073 0.0
C1119 C 0.89691 0.13353 0.80991 0.0
C1120 C 0.8605 0.14498 0.83699 0.0
C1121 C 0.84429 0.10353 0.84145 0.0
C1122 C 0.86896 0.1805 0.84356 0.0
C1123 C 0.88815 0.2255 0.83949 0.0
C1124 C 0.92777 0.24481 0.83397 0.0
C1125 C 0.94534 0.287 0.83003 0.0
C1126 C 0.92378 0.31037 0.83162 0.0
C1127 C 0.88469 0.29165 0.83721 0.0
C1128 C 0.86696 0.24944 0.84117 0.0
C1129 C 0.87421 0.11445 0.88614 0.0
C1130 C 0.84539 0.12134 0.89228 0.0
C1131 C 0.87398 0.1175 0.87528 0.0
C1132 C 0.84529 0.12808 0.87034 0.0
C1133 C 0.81621 0.13477 0.87643 0.0
C1134 C 0.81592 0.13094 0.88733 0.0
C1135 C 0.84639 0.13236 0.8588 0.0
C1136 C 0.86123 0.17357 0.85436 0.0
C1137 C 0.83719 0.09679 0.85224 0.0
C1138 C 0.82004 0.05226 0.85647 0.0
C1139 C 0.78218 0.03289 0.86265 0.0
C1140 C 0.7664 0.99109 0.8667 0.0
C1141 C 0.78807 0.96821 0.86456 0.0
C1142 C 0.8255 0.98704 0.85835 0.0
C1143 C 0.84144 0.02886 0.85429 0.0
H1144 H 0.7758 0.93585 0.8677 0.0
H1145 H 0.9374 0.34301 0.82855 0.0
H1146 H 0.7536 0.94556 0.14135 0.0
H1147 H 0.75407 0.9444 0.16057 0.0
H1148 H 0.69372 0.80466 0.16005 0.0
H1149 H 0.69401 0.80586 0.14094 0.0
H1150 H 0.65717 0.84095 0.17508 0.0
H1151 H 0.7939 0.85414 0.16369 0.0
H1152 H 0.86312 0.88913 0.15392 0.0
H1153 H 0.90377 0.00831 0.17056 0.0
H1154 H 0.83444 0.97416 0.18032 0.0
H1155 H 0.68782 0.79507 0.22696 0.0
H1156 H 0.68656 0.79766 0.20794 0.0
H1157 H 0.7792 0.93514 0.20866 0.0
H1158 H 0.78264 0.93233 0.22756 0.0
H1159 H 0.79879 0.90207 0.19331 0.0
H1160 H 0.667 0.89348 0.20493 0.0
H1161 H 0.59772 0.86381 0.21458 0.0
H1162 H 0.54715 0.74381 0.19767 0.0
H1163 H 0.61637 0.77261 0.188 0.0
C1164 C 0.74013 0.91471 0.14538 0.0
C1165 C 0.72411 0.87586 0.1397 0.0
C1166 C 0.7405 0.91403 0.15631 0.0
C1167 C 0.72405 0.87441 0.16171 0.0
C1168 C 0.70656 0.83552 0.15604 0.0
C1169 C 0.70699 0.83627 0.14514 0.0
C1170 C 0.72666 0.87336 0.17324 0.0
C1171 C 0.68804 0.85392 0.17909 0.0
C1172 C 0.76701 0.89135 0.17844 0.0
C1173 C 0.80881 0.91176 0.17265 0.0
C1174 C 0.81743 0.88792 0.1652 0.0
C1175 C 0.85672 0.90758 0.15968 0.0
C1176 C 0.88777 0.95096 0.1616 0.0
C1177 C 0.87966 0.97473 0.16907 0.0
C1178 C 0.84039 0.95524 0.1746 0.0
C1179 C 0.70849 0.82573 0.2231 0.0
C1180 C 0.73495 0.86359 0.22889 0.0
C1181 C 0.7073 0.8273 0.21219 0.0
C1182 C 0.73202 0.86684 0.20683 0.0
C1183 C 0.75951 0.90429 0.21257 0.0
C1184 C 0.76109 0.90267 0.22344 0.0
C1185 C 0.72915 0.86944 0.19527 0.0
C1186 C 0.76776 0.88916 0.18938 0.0
C1187 C 0.68875 0.85247 0.19005 0.0
C1188 C 0.64702 0.83505 0.19582 0.0
C1189 C 0.64121 0.86065 0.20332 0.0
C1190 C 0.60194 0.84401 0.20879 0.0
C1191 C 0.5681 0.8019 0.20676 0.0
C1192 C 0.57342 0.7764 0.19924 0.0
C1193 C 0.61265 0.79288 0.19376 0.0
H1194 H 0.53772 0.78907 0.211 0.0
H1195 H 0.91817 0.96612 0.15732 0.0
H1196 H 0.80356 0.65734 0.47432 0.0
H1197 H 0.80658 0.65019 0.4933 0.0
H1198 H 0.90583 0.78548 0.49526 0.0
H1199 H 0.90377 0.79203 0.47632 0.0
H1200 H 0.92967 0.74092 0.50627 0.0
H1201 H 0.79491 0.74259 0.50333 0.0
H1202 H 0.72066 0.71701 0.49686 0.0
H1203 H 0.67791 0.59092 0.5101 0.0
H1204 H 0.75207 0.61563 0.51654 0.0
H1205 H 0.9233 0.79366 0.55907 0.0
H1206 H 0.91582 0.785 0.54013 0.0
H1207 H 0.8404 0.64578 0.54384 0.0
H1208 H 0.84811 0.65448 0.56293 0.0
H1209 H 0.80245 0.68167 0.53014 0.0
H1210 H 0.93713 0.68424 0.53462 0.0
H1211 H 0.01142 0.71201 0.54129 0.0
H1212 H 0.05426 0.8329 0.52526 0.0
H1213 H 0.98006 0.8061 0.51861 0.0
C1214 C 0.82544 0.68562 0.47886 0.0
C1215 C 0.85342 0.72525 0.47387 0.0
C1216 C 0.82721 0.68156 0.4897 0.0
C1217 C 0.85631 0.71737 0.49578 0.0
C1218 C 0.88332 0.75725 0.49079 0.0
C1219 C 0.88205 0.76107 0.47997 0.0
C1220 C 0.86018 0.7134 0.50728 0.0
C1221 C 0.9018 0.72834 0.51147 0.0
C1222 C 0.82378 0.69556 0.5141 0.0
C1223 C 0.77913 0.68082 0.51031 0.0
C1224 C 0.76973 0.70933 0.5048 0.0
C1225 C 0.72766 0.695 0.50115 0.0
C1226 C 0.69462 0.65232 0.50304 0.0
C1227 C 0.70355 0.62394 0.50862 0.0
C1228 C 0.74558 0.6381 0.51228 0.0
C1229 C 0.90545 0.7612 0.55584 0.0
C1230 C 0.88636 0.72475 0.56245 0.0
C1231 C 0.90126 0.75626 0.54503 0.0
C1232 C 0.87761 0.71475 0.54057 0.0
C1233 C 0.85882 0.6781 0.54713 0.0
C1234 C 0.86356 0.68305 0.558 0.0
C1235 C 0.87196 0.71039 0.52906 0.0
C1236 C 0.83013 0.69382 0.52489 0.0
C1237 C 0.90815 0.72706 0.52224 0.0
C1238 C 0.95292 0.74325 0.52618 0.0
C1239 C 0.96231 0.71687 0.53258 0.0
C1240 C 1.00442 0.73242 0.53635 0.0
C1241 C 0.03752 0.77422 0.53372 0.0
C1242 C 0.02859 0.80053 0.52729 0.0
C1243 C 0.98651 0.78515 0.52351 0.0
H1244 H 0.07011 0.78619 0.53664 0.0
H1245 H 0.66208 0.64127 0.5002 0.0
H1246 H 0.18583 0.82941 0.89677 0.0
H1247 H 0.18524 0.81577 0.87791 0.0
H1248 H 0.11979 0.88847 0.87244 0.0
H1249 H 0.12103 0.90275 0.89105 0.0
H1250 H 0.07754 0.80608 0.86352 0.0
H1251 H 0.22446 0.93048 0.86617 0.0
H1252 H 0.29962 0.96826 0.87281 0.0
H1253 H 0.31976 0.86725 0.86046 0.0
H1254 H 0.24447 0.82858 0.85386 0.0
H1255 H 0.08387 0.86631 0.81194 0.0
H1256 H 0.09218 0.8611 0.83061 0.0
H1257 H 0.16557 0.79636 0.82486 0.0
H1258 H 0.15852 0.80297 0.80594 0.0
H1259 H 0.20433 0.85812 0.8397 0.0
H1260 H 0.06243 0.73921 0.83469 0.0
H1261 H 0.98731 0.69956 0.82807 0.0
H1262 H 0.95665 0.78508 0.84506 0.0
H1263 H 0.03176 0.82567 0.85167 0.0
C1264 C 0.17215 0.84317 0.89151 0.0
C1265 C 0.15295 0.86669 0.89544 0.0
C1266 C 0.17163 0.83518 0.88075 0.0
C1267 C 0.152 0.8507 0.87378 0.0
C1268 C 0.13458 0.87567 0.87767 0.0
C1269 C 0.13524 0.88374 0.88833 0.0
C1270 C 0.14737 0.83982 0.86247 0.0
C1271 C 0.10526 0.81753 0.8583 0.0
C1272 C 0.18346 0.853 0.85572 0.0
C1273 C 0.22869 0.87638 0.85965 0.0
C1274 C 0.24479 0.91614 0.86496 0.0
C1275 C 0.28744 0.93775 0.86869 0.0
C1276 C 0.3144 0.92009 0.86709 0.0
C1277 C 0.29881 0.88085 0.86172 0.0
C1278 C 0.25617 0.85908 0.85797 0.0
C1279 C 0.10178 0.85091 0.81461 0.0
C1280 C 0.12066 0.83522 0.80743 0.0
C1281 C 0.10618 0.84756 0.82532 0.0
C1282 C 0.12908 0.82786 0.82919 0.0
C1283 C 0.14759 0.81153 0.82207 0.0
C1284 C 0.14319 0.81494 0.81126 0.0
C1285 C 0.13442 0.8261 0.84068 0.0
C1286 C 0.17653 0.84579 0.84491 0.0
C1287 C 0.09826 0.81009 0.84754 0.0
C1288 C 0.05286 0.78562 0.84364 0.0
C1289 C 0.03976 0.74974 0.83697 0.0
C1290 C 0.99715 0.72707 0.83322 0.0
C1291 C 0.96724 0.73982 0.83614 0.0
C1292 C 0.97985 0.77523 0.84282 0.0
C1293 C 0.02243 0.79803 0.84658 0.0
H1294 H 0.93427 0.72224 0.83322 0.0
H1295 H 0.34741 0.93687 0.86999 0.0
H1296 H 0.55839 0.69638 0.08239 0.0
H1297 H 0.53099 0.61818 0.08253 0.0
H1298 H 0.57393 0.62654 0.11434 0.0
H1299 H 0.60391 0.7049 0.11404 0.0
H1300 H 0.595 0.57749 0.10383 0.0
H1301 H 0.46465 0.58428 0.10787 0.0
H1302 H 0.41069 0.60622 0.10363 0.0
H1303 H 0.38809 0.54309 0.07386 0.0
H1304 H 0.44236 0.52126 0.07786 0.0
H1305 H 0.46179 0.34673 0.11412 0.0
H1306 H 0.49884 0.42646 0.11427 0.0
H1307 H 0.47639 0.42669 0.08122 0.0
H1308 H 0.44005 0.34741 0.08099 0.0
H1309 H 0.44483 0.47079 0.09291 0.0
H1310 H 0.57635 0.46357 0.08958 0.0
H1311 H 0.62856 0.44043 0.09469 0.0
H1312 H 0.64619 0.50294 0.12441 0.0
H1313 H 0.59359 0.52595 0.11953 0.0
C1314 C 0.56214 0.68163 0.08941 0.0
C1315 C 0.58312 0.70704 0.09822 0.0
C1316 C 0.54606 0.63681 0.08951 0.0
C1317 C 0.54993 0.61639 0.0985 0.0
C1318 C 0.57045 0.64155 0.10733 0.0
C1319 C 0.58701 0.68637 0.10719 0.0
C1320 C 0.5335 0.56893 0.09862 0.0
C1321 C 0.56196 0.55413 0.10158 0.0
C1322 C 0.4906 0.53845 0.09556 0.0
C1323 C 0.45789 0.5515 0.09313 0.0
C1324 C 0.44842 0.57536 0.10039 0.0
C1325 C 0.41774 0.58773 0.09803 0.0
C1326 C 0.39606 0.57616 0.08847 0.0
C1327 C 0.40495 0.55209 0.08125 0.0
C1328 C 0.43564 0.53967 0.08356 0.0
C1329 C 0.46588 0.36391 0.10685 0.0
C1330 C 0.44766 0.34098 0.09756 0.0
C1331 C 0.48685 0.40935 0.10695 0.0
C1332 C 0.48994 0.43227 0.09777 0.0
C1333 C 0.47394 0.40949 0.0884 0.0
C1334 C 0.45321 0.36429 0.08828 0.0
C1335 C 0.50642 0.47957 0.09801 0.0
C1336 C 0.47785 0.49425 0.09516 0.0
C1337 C 0.54895 0.50978 0.10131 0.0
C1338 C 0.58069 0.4961 0.10423 0.0
C1339 C 0.59107 0.47206 0.09724 0.0
C1340 C 0.62079 0.45903 0.10009 0.0
C1341 C 0.64059 0.4701 0.10988 0.0
C1342 C 0.63079 0.49433 0.11683 0.0
C1343 C 0.60105 0.50741 0.11403 0.0
H1344 H 0.6636 0.45999 0.11207 0.0
H1345 H 0.37231 0.58576 0.08667 0.0
H1346 H 0.15561 0.48351 0.43049 0.0
H1347 H 0.11491 0.52254 0.43122 0.0
H1348 H 0.00666 0.41061 0.44554 0.0
H1349 H 0.04693 0.37157 0.44472 0.0
H1350 H 0.98113 0.43649 0.42896 0.0
H1351 H 0.06855 0.50474 0.45917 0.0
H1352 H 0.13669 0.5454 0.46909 0.0
H1353 H 0.17849 0.65456 0.44849 0.0
H1354 H 0.11083 0.6143 0.43836 0.0
H1355 H 0.84798 0.52655 0.44138 0.0
H1356 H 0.89489 0.49452 0.44265 0.0
H1357 H 0.99743 0.60552 0.42665 0.0
H1358 H 0.95103 0.63807 0.42553 0.0
H1359 H 0.02725 0.58206 0.44388 0.0
H1360 H 0.94043 0.51367 0.41365 0.0
H1361 H 0.87246 0.47311 0.40367 0.0
H1362 H 0.82999 0.36402 0.42431 0.0
H1363 H 0.89748 0.40419 0.43451 0.0
C1364 C 0.12353 0.46775 0.43401 0.0
C1365 C 0.10416 0.42449 0.43745 0.0
C1366 C 0.10031 0.48998 0.43442 0.0
C1367 C 0.05767 0.46937 0.43841 0.0
C1368 C 0.03934 0.42698 0.44236 0.0
C1369 C 0.06235 0.40475 0.44189 0.0
C1370 C 0.03066 0.4903 0.4377 0.0
C1371 C 0.99096 0.46804 0.43237 0.0
C1372 C 0.04412 0.53203 0.44186 0.0
C1373 C 0.0848 0.55632 0.44794 0.0
C1374 C 0.09243 0.53727 0.4567 0.0
C1375 C 0.13094 0.56028 0.46237 0.0
C1376 C 0.16195 0.60249 0.4594 0.0
C1377 C 0.15447 0.62183 0.45078 0.0
C1378 C 0.11603 0.59895 0.44507 0.0
C1379 C 0.88053 0.5441 0.43815 0.0
C1380 C 0.89571 0.58461 0.43328 0.0
C1381 C 0.90721 0.52574 0.43884 0.0
C1382 C 0.94951 0.54759 0.43468 0.0
C1383 C 0.96487 0.58816 0.42989 0.0
C1384 C 0.93816 0.60644 0.42915 0.0
C1385 C 0.9776 0.5279 0.43528 0.0
C1386 C 0.0175 0.55045 0.44052 0.0
C1387 C 0.9644 0.4864 0.43104 0.0
C1388 C 0.92382 0.46211 0.42491 0.0
C1389 C 0.91644 0.48117 0.41611 0.0
C1390 C 0.87803 0.45822 0.41041 0.0
C1391 C 0.84687 0.41606 0.41337 0.0
C1392 C 0.85412 0.39671 0.42203 0.0
C1393 C 0.89246 0.41954 0.42778 0.0
H1394 H 0.81716 0.39834 0.40894 0.0
H1395 H 0.19174 0.62025 0.46381 0.0
H1396 H 0.32917 0.8477 0.77326 0.0
H1397 H 0.40812 0.88981 0.77587 0.0
H1398 H 0.39667 0.99826 0.78704 0.0
H1399 H 0.31807 0.95638 0.78454 0.0
H1400 H 0.45382 0.02023 0.77082 0.0
H1401 H 0.42616 0.94433 0.80348 0.0
H1402 H 0.39604 0.87963 0.81483 0.0
H1403 H 0.47093 0.83369 0.79847 0.0
H1404 H 0.50107 0.89783 0.78691 0.0
H1405 H 0.67909 0.15797 0.77803 0.0
H1406 H 0.60143 0.11573 0.78214 0.0
H1407 H 0.60205 0.99705 0.77532 0.0
H1408 H 0.67979 0.03859 0.77193 0.0
H1409 H 0.54982 0.98247 0.79074 0.0
H1410 H 0.57035 0.04974 0.75702 0.0
H1411 H 0.59912 0.11066 0.7445 0.0
H1412 H 0.53599 0.16815 0.76143 0.0
H1413 H 0.5073 0.10779 0.77412 0.0
C1414 C 0.34343 0.88008 0.77653 0.0
C1415 C 0.31762 0.899 0.77856 0.0
C1416 C 0.38849 0.90413 0.77801 0.0
C1417 C 0.40822 0.94725 0.7816 0.0
C1418 C 0.38212 0.96518 0.78419 0.0
C1419 C 0.33727 0.94125 0.78274 0.0
C1420 C 0.45619 0.97519 0.78167 0.0
C1421 C 0.47481 0.01244 0.77534 0.0
C1422 C 0.4835 0.96421 0.78729 0.0
C1423 C 0.4656 0.92574 0.79427 0.0
C1424 C 0.43596 0.92027 0.80224 0.0
C1425 C 0.41893 0.88373 0.80873 0.0
C1426 C 0.43149 0.85253 0.80736 0.0
C1427 C 0.4612 0.85787 0.79951 0.0
C1428 C 0.47831 0.89434 0.79301 0.0
C1429 C 0.66287 0.12285 0.77761 0.0
C1430 C 0.68557 0.10181 0.77442 0.0
C1431 C 0.61835 0.09873 0.77986 0.0
C1432 C 0.5956 0.05321 0.77879 0.0
C1433 C 0.61868 0.0321 0.77612 0.0
C1434 C 0.66314 0.05605 0.77402 0.0
C1435 C 0.5475 0.02753 0.77986 0.0
C1436 C 0.52883 0.9906 0.78634 0.0
C1437 C 0.51998 0.03829 0.77422 0.0
C1438 C 0.53713 0.07455 0.76658 0.0
C1439 C 0.56288 0.07554 0.75811 0.0
C1440 C 0.57913 0.10994 0.75098 0.0
C1441 C 0.5695 0.14333 0.75219 0.0
C1442 C 0.5435 0.14232 0.76052 0.0
C1443 C 0.52722 0.10802 0.76768 0.0
H1444 H 0.5821 0.16992 0.74666 0.0
H1445 H 0.41826 0.82425 0.81238 0.0
H1446 H 0.67614 0.56442 0.61146 0.0
H1447 H 0.59786 0.52606 0.60841 0.0
H1448 H 0.62039 0.53938 0.57517 0.0
H1449 H 0.69935 0.57824 0.57822 0.0
H1450 H 0.5614 0.56478 0.58201 0.0
H1451 H 0.57988 0.44167 0.58521 0.0
H1452 H 0.60667 0.396 0.59294 0.0
H1453 H 0.53611 0.38419 0.62117 0.0
H1454 H 0.50938 0.43033 0.61367 0.0
H1455 H 0.32599 0.43002 0.57773 0.0
H1456 H 0.40494 0.46288 0.57526 0.0
H1457 H 0.42086 0.45795 0.60851 0.0
H1458 H 0.34252 0.42511 0.61097 0.0
H1459 H 0.4602 0.42178 0.59796 0.0
H1460 H 0.4515 0.55349 0.59583 0.0
H1461 H 0.42582 0.60081 0.58851 0.0
H1462 H 0.4783 0.59697 0.55855 0.0
H1463 H 0.50381 0.54912 0.56566 0.0
C1464 C 0.66439 0.55875 0.6035 0.0
C1465 C 0.69364 0.57422 0.59507 0.0
C1466 C 0.61972 0.53671 0.60177 0.0
C1467 C 0.60338 0.52969 0.59157 0.0
C1468 C 0.63245 0.5444 0.5831 0.0
C1469 C 0.67738 0.56622 0.58484 0.0
C1470 C 0.55586 0.50881 0.58996 0.0
C1471 C 0.53914 0.53304 0.58526 0.0
C1472 C 0.527 0.46771 0.59434 0.0
C1473 C 0.54279 0.43968 0.59888 0.0
C1474 C 0.5703 0.42959 0.59309 0.0
C1475 C 0.58544 0.40357 0.59743 0.0
C1476 C 0.57314 0.38725 0.60755 0.0
C1477 C 0.5456 0.39685 0.61334 0.0
C1478 C 0.53038 0.42288 0.60904 0.0
C1479 C 0.34659 0.43686 0.5845 0.0
C1480 C 0.3283 0.42481 0.59453 0.0
C1481 C 0.39156 0.45543 0.58308 0.0
C1482 C 0.41868 0.46251 0.5917 0.0
C1483 C 0.40048 0.45229 0.60174 0.0
C1484 C 0.35579 0.43367 0.60315 0.0
C1485 C 0.46577 0.47849 0.59039 0.0
C1486 C 0.48236 0.45315 0.59451 0.0
C1487 C 0.49439 0.51857 0.58551 0.0
C1488 C 0.47905 0.54728 0.58124 0.0
C1489 C 0.4572 0.5624 0.58765 0.0
C1490 C 0.44276 0.58939 0.58355 0.0
C1491 C 0.45029 0.60176 0.57306 0.0
C1492 C 0.4724 0.58727 0.56666 0.0
C1493 C 0.48687 0.56024 0.57073 0.0
H1494 H 0.4391 0.62267 0.5699 0.0
H1495 H 0.58491 0.36712 0.6109 0.0
H1496 H 0.12701 0.67367 0.91561 0.0
H1497 H 0.08967 0.59396 0.91449 0.0
H1498 H 0.04444 0.58456 0.9462 0.0
H1499 H 0.0823 0.66361 0.94742 0.0
H1500 H 0.06745 0.52477 0.94252 0.0
H1501 H 0.98092 0.57742 0.92558 0.0
H1502 H 0.96735 0.62057 0.91264 0.0
H1503 H 0.99137 0.55429 0.88773 0.0
H1504 H 0.00566 0.51112 0.90054 0.0
H1505 H 0.87498 0.32212 0.94653 0.0
H1506 H 0.92628 0.40023 0.94543 0.0
H1507 H 0.96236 0.38409 0.91429 0.0
H1508 H 0.91191 0.30591 0.91538 0.0
H1509 H 0.95064 0.45522 0.91608 0.0
H1510 H 0.02827 0.39599 0.93352 0.0
H1511 H 0.03954 0.35243 0.94679 0.0
H1512 H 0.03056 0.43087 0.9711 0.0
H1513 H 0.01856 0.47451 0.95798 0.0
C1514 C 0.10978 0.65447 0.92238 0.0
C1515 C 0.10698 0.67465 0.93155 0.0
C1516 C 0.08827 0.60906 0.92172 0.0
C1517 C 0.06376 0.58341 0.93022 0.0
C1518 C 0.06301 0.60369 0.93954 0.0
C1519 C 0.08436 0.64883 0.9402 0.0
C1520 C 0.03651 0.53556 0.92935 0.0
C1521 C 0.04184 0.50955 0.93676 0.0
C1522 C 1.00364 0.51569 0.9217 0.0
C1523 C 0.99488 0.54146 0.91401 0.0
C1524 C 0.98364 0.5723 0.91734 0.0
C1525 C 0.97577 0.59672 0.91003 0.0
C1526 C 0.97864 0.59028 0.89937 0.0
C1527 C 0.98926 0.55931 0.89599 0.0
C1528 C 0.99724 0.53486 0.90327 0.0
C1529 C 0.89385 0.33516 0.93945 0.0
C1530 C 0.88936 0.30771 0.93106 0.0
C1531 C 0.92309 0.37976 0.93883 0.0
C1532 C 0.94844 0.39773 0.92982 0.0
C1533 C 0.94306 0.37077 0.9213 0.0
C1534 C 0.91397 0.32613 0.92193 0.0
C1535 C 0.98102 0.44462 0.92939 0.0
C1536 C 0.97668 0.47037 0.92173 0.0
C1537 C 0.01463 0.46429 0.93685 0.0
C1538 C 0.02217 0.43831 0.94477 0.0
C1539 C 0.02837 0.40376 0.9417 0.0
C1540 C 0.03494 0.37908 0.9492 0.0
C1541 C 0.03568 0.38882 0.95978 0.0
C1542 C 0.02995 0.42334 0.9629 0.0
C1543 C 0.02331 0.44809 0.95543 0.0
H1544 H 0.04077 0.36967 0.96558 0.0
H1545 H 0.97252 0.60921 0.89372 0.0
H1546 H 0.52774 0.84417 0.25886 0.0
H1547 H 0.50082 0.89512 0.2568 0.0
H1548 H 0.60401 0.98769 0.2765 0.0
H1549 H 0.63099 0.93706 0.2786 0.0
H1550 H 0.52891 0.98419 0.28106 0.0
H1551 H 0.61117 0.99855 0.25011 0.0
H1552 H 0.63174 0.97192 0.23456 0.0
H1553 H 0.504 0.92355 0.22187 0.0
H1554 H 0.48242 0.9493 0.23743 0.0
H1555 H 0.49377 0.15751 0.2692 0.0
H1556 H 0.53363 0.11763 0.26916 0.0
H1557 H 0.43136 0.01524 0.25108 0.0
H1558 H 0.39193 0.05522 0.25095 0.0
H1559 H 0.51178 0.02854 0.24548 0.0
H1560 H 0.42819 0.00834 0.27699 0.0
H1561 H 0.4066 0.03345 0.29265 0.0
H1562 H 0.53713 0.09217 0.30429 0.0
H1563 H 0.55963 0.06794 0.2886 0.0
C1564 C 0.5445 0.87529 0.26279 0.0
C1565 C 0.58143 0.88658 0.2689 0.0
C1566 C 0.52921 0.9044 0.26158 0.0
C1567 C 0.5509 0.94547 0.26635 0.0
C1568 C 0.58685 0.9562 0.27274 0.0
C1569 C 0.60204 0.92708 0.27399 0.0
C1570 C 0.5365 0.97753 0.2646 0.0
C1571 C 0.52587 0.99442 0.27329 0.0
C1572 C 0.53197 0.99041 0.25444 0.0
C1573 C 0.54507 0.97554 0.24498 0.0
C1574 C 0.58737 0.982 0.24403 0.0
C1575 C 0.59922 0.96708 0.23521 0.0
C1576 C 0.56916 0.94596 0.22724 0.0
C1577 C 0.52723 0.93988 0.22806 0.0
C1578 C 0.51519 0.95466 0.23687 0.0
C1579 C 0.48052 0.12713 0.26496 0.0
C1580 C 0.43957 0.10908 0.2602 0.0
C1581 C 0.50312 0.10428 0.265 0.0
C1582 C 0.48498 0.06314 0.26028 0.0
C1583 C 0.44579 0.04681 0.25481 0.0
C1584 C 0.4232 0.06952 0.25479 0.0
C1585 C 0.50408 0.03495 0.26195 0.0
C1586 C 0.51541 0.01867 0.25325 0.0
C1587 C 0.50928 0.02258 0.2721 0.0
C1588 C 0.49569 0.03677 0.28157 0.0
C1589 C 0.45235 0.02688 0.28285 0.0
C1590 C 0.43994 0.04092 0.29173 0.0
C1591 C 0.4705 0.0645 0.29944 0.0
C1592 C 0.51351 0.07398 0.2983 0.0
C1593 C 0.52611 0.0601 0.28942 0.0
H1594 H 0.46083 0.07533 0.30632 0.0
H1595 H 0.57838 0.93438 0.22042 0.0
H1596 H 0.18927 0.06765 0.11008 0.0
H1597 H 0.11167 0.04285 0.11237 0.0
H1598 H 0.0966 0.04065 0.07894 0.0
H1599 H 0.17417 0.06685 0.07671 0.0
H1600 H 0.06833 0.08848 0.08725 0.0
H1601 H 0.04786 0.9465 0.0949 0.0
H1602 H 0.06091 0.89342 0.10422 0.0
H1603 H 0.02303 0.92641 0.13313 0.0
H1604 H 0.01029 0.98013 0.124 0.0
H1605 H 0.84162 0.97488 0.0796 0.0
H1606 H 0.91998 0.00424 0.08082 0.0
H1607 H 0.91297 0.01446 0.11423 0.0
H1608 H 0.8339 0.98509 0.11297 0.0
H1609 H 0.95393 0.9687 0.10835 0.0
H1610 H 0.96764 0.10569 0.10012 0.0
H1611 H 0.95307 0.15713 0.09052 0.0
H1612 H 1.00299 0.13224 0.06239 0.0
H1613 H 0.01731 0.08017 0.07179 0.0
C1614 C 0.16883 0.05982 0.10324 0.0
C1615 C 0.18739 0.06842 0.09321 0.0
C1616 C 0.12452 0.04604 0.10455 0.0
C1617 C 0.09812 0.04014 0.09583 0.0
C1618 C 0.1162 0.04531 0.0858 0.0
C1619 C 0.16041 0.05966 0.08451 0.0
C1620 C 0.05328 0.03329 0.09702 0.0
C1621 C 0.04324 0.06191 0.09178 0.0
C1622 C 0.02088 0.9999 0.10329 0.0
C1623 C 0.02863 0.96771 0.10879 0.0
C1624 C 0.0427 0.94273 0.10326 0.0
C1625 C 0.04996 0.91246 0.10851 0.0
C1626 C 0.04295 0.90665 0.11927 0.0
C1627 C 0.02854 0.93101 0.1248 0.0
C1628 C 0.02127 0.96135 0.11959 0.0
C1629 C 0.85713 0.98516 0.08715 0.0
C1630 C 0.83204 0.97872 0.09616 0.0
C1631 C 0.90188 1.00166 0.08786 0.0
C1632 C 0.92249 0.01164 0.09762 0.0
C1633 C 0.89778 0.00712 0.10662 0.0
C1634 C 0.85282 0.99106 0.10589 0.0
C1635 C 0.96886 0.02302 0.0983 0.0
C1636 C 0.97924 0.99548 0.10392 0.0
C1637 C 1.00165 0.05729 0.09234 0.0
C1638 C 0.99332 0.0888 0.08666 0.0
C1639 C 0.97524 0.11094 0.09187 0.0
C1640 C 0.96707 0.14026 0.08647 0.0
C1641 C 0.97704 0.1479 0.07585 0.0
C1642 C 0.99529 0.12629 0.07062 0.0
C1643 C 1.0035 0.09692 0.07598 0.0
H1644 H 0.97068 0.1706 0.07168 0.0
H1645 H 0.04857 0.88319 0.12331 0.0
H1646 H 0.10698 0.1592 0.4083 0.0
H1647 H 0.05421 0.0825 0.41122 0.0
H1648 H 0.08068 0.09933 0.44423 0.0
H1649 H 0.13471 0.17626 0.44125 0.0
H1650 H 0.05707 0.01493 0.43743 0.0
H1651 H 1.00201 0.1123 0.43557 0.0
H1652 H 0.99387 0.17176 0.42812 0.0
H1653 H 0.93804 0.09658 0.40037 0.0
H1654 H 0.94667 0.03697 0.40758 0.0
H1655 H 0.85461 0.82401 0.4463 0.0
H1656 H 0.90472 0.90277 0.44764 0.0
H1657 H 0.9079 0.91309 0.41409 0.0
H1658 H 0.85844 0.83469 0.41277 0.0
H1659 H 0.91399 0.98654 0.42413 0.0
H1660 H 0.9784 0.89317 0.42585 0.0
H1661 H 0.98412 0.83319 0.4339 0.0
H1662 H 0.01971 0.90164 0.46309 0.0
H1663 H 0.01338 0.96169 0.45524 0.0
C1664 C 0.10311 0.14602 0.41611 0.0
C1665 C 0.12507 0.17349 0.42453 0.0
C1666 C 0.07256 0.10231 0.4178 0.0
C1667 C 0.06258 0.08545 0.42798 0.0
C1668 C 0.08767 0.11168 0.43631 0.0
C1669 C 0.11884 0.15554 0.43459 0.0
C1670 C 0.02257 0.04277 0.42988 0.0
C1671 C 0.0257 0.00896 0.43469 0.0
C1672 C 0.9814 0.03488 0.42638 0.0
C1673 C 0.97528 0.07027 0.42209 0.0
C1674 C 0.98823 0.10853 0.42785 0.0
C1675 C 0.98354 0.14228 0.42367 0.0
C1676 C 0.9655 0.13797 0.41377 0.0
C1677 C 0.95203 0.09987 0.40804 0.0
C1678 C 0.9568 0.06608 0.41217 0.0
C1679 C 0.86422 0.84358 0.43926 0.0
C1680 C 0.85221 0.82362 0.42943 0.0
C1681 C 0.89332 0.88842 0.44002 0.0
C1682 C 0.91056 0.9137 0.43095 0.0
C1683 C 0.89504 0.89431 0.42118 0.0
C1684 C 0.86652 0.84957 0.42043 0.0
C1685 C 0.9487 0.95848 0.43141 0.0
C1686 C 0.94524 0.99275 0.42703 0.0
C1687 C 0.98933 0.96683 0.43542 0.0
C1688 C 0.99504 0.9317 0.43999 0.0
C1689 C 0.98732 0.89536 0.43399 0.0
C1690 C 0.99062 0.86133 0.43852 0.0
C1691 C 1.00218 0.86356 0.449 0.0
C1692 C 0.01069 0.89993 0.45497 0.0
C1693 C 0.00726 0.93397 0.45049 0.0
H1694 H 1.0046 0.83714 0.4525 0.0
H1695 H 0.96189 0.16414 0.41055 0.0
H1696 H 0.92455 0.09753 0.7395 0.0
H1697 H 0.95292 0.04821 0.74176 0.0
H1698 H 0.01105 0.1101 0.77094 0.0
H1699 H 0.98193 0.15969 0.76877 0.0
H1700 H 0.06232 0.08226 0.75774 0.0
H1701 H 0.92406 0.02733 0.7739 0.0
H1702 H 0.84797 0.01065 0.77498 0.0
H1703 H 0.81439 0.9221 0.74926 0.0
H1704 H 0.89058 0.93899 0.74787 0.0
H1705 H 0.02581 0.85555 0.77179 0.0
H1706 H 0.9965 0.90534 0.77284 0.0
H1707 H 0.04884 0.9554 0.7423 0.0
H1708 H 0.07796 0.90619 0.74125 0.0
H1709 H 0.94323 0.92857 0.76043 0.0
H1710 H 0.10885 0.06572 0.74451 0.0
H1711 H 0.18544 0.08343 0.74413 0.0
H1712 H 0.16486 0.00817 0.77195 0.0
H1713 H 0.08847 0.99076 0.77262 0.0
C1714 C 0.94447 0.1016 0.74626 0.0
C1715 C 0.95094 0.13246 0.75397 0.0
C1716 C 0.96046 0.07318 0.74756 0.0
C1717 C 0.98338 0.07494 0.7566 0.0
C1718 C 0.99328 0.10815 0.76392 0.0
C1719 C 0.977 0.13671 0.76263 0.0
C1720 C 0.99314 0.03949 0.75864 0.0
C1721 C 0.03637 0.04874 0.75841 0.0
C1722 C 0.95925 0.99578 0.75979 0.0
C1723 C 0.91314 0.98467 0.76073 0.0
C1724 C 0.90054 0.00453 0.76842 0.0
C1725 C 0.85737 0.99503 0.76909 0.0
C1726 C 0.82637 0.96536 0.76218 0.0
C1727 C 0.83846 0.94508 0.7546 0.0
C1728 C 0.88164 0.95459 0.75387 0.0
C1729 C 0.02923 0.87577 0.76512 0.0
C1730 C 0.05401 0.87695 0.75642 0.0
C1731 C 0.01291 0.90454 0.76577 0.0
C1732 C 0.02138 0.93478 0.75774 0.0
C1733 C 0.04252 0.93288 0.74866 0.0
C1734 C 0.05879 0.90443 0.74803 0.0
C1735 C 0.01236 0.97119 0.75908 0.0
C1736 C 0.96925 0.96212 0.75992 0.0
C1737 C 0.04644 0.01515 0.75872 0.0
C1738 C 0.0928 0.02666 0.75856 0.0
C1739 C 0.12075 0.05323 0.75059 0.0
C1740 C 0.16413 0.06318 0.75032 0.0
C1741 C 0.17998 0.04686 0.75799 0.0
C1742 C 0.15254 0.02072 0.76599 0.0
C1743 C 0.10919 0.01079 0.76632 0.0
H1744 H 0.21354 0.05451 0.75775 0.0
H1745 H 0.79296 0.95804 0.76271 0.0
H1746 H 0.95824 0.83593 0.62788 0.0
H1747 H 0.98381 0.91355 0.6262 0.0
H1748 H 0.99548 0.90478 0.59288 0.0
H1749 H 0.97185 0.82725 0.59466 0.0
H1750 H 0.05433 0.98443 0.59939 0.0
H1751 H 0.90217 0.89278 0.60349 0.0
H1752 H 0.83448 0.83516 0.61146 0.0
H1753 H 0.8634 0.90901 0.6398 0.0
H1754 H 0.93172 0.96678 0.63206 0.0
H1755 H 0.04372 0.1774 0.59238 0.0
H1756 H 0.01357 0.09833 0.59135 0.0
H1757 H 0.02334 0.0928 0.62478 0.0
H1758 H 0.0542 0.17161 0.62577 0.0
H1759 H 0.94818 0.01868 0.61585 0.0
H1760 H 0.10576 0.10771 0.61088 0.0
H1761 H 0.16918 0.16574 0.60158 0.0
H1762 H 0.12353 0.09519 0.57284 0.0
H1763 H 0.05936 0.03709 0.58195 0.0
C1764 C 0.96819 0.85104 0.62027 0.0
C1765 C 0.9632 0.82569 0.61141 0.0
C1766 C 0.9822 0.89528 0.61928 0.0
C1767 C 0.99005 0.91477 0.60937 0.0
C1768 C 0.98919 0.89047 0.6006 0.0
C1769 C 0.97602 0.8462 0.60163 0.0
C1770 C 0.9946 0.95867 0.60816 0.0
C1771 C 0.03077 0.99165 0.60287 0.0
C1772 C 0.96363 0.96831 0.61256 0.0
C1773 C 0.92225 0.93397 0.61722 0.0
C1774 C 0.89423 0.89663 0.61144 0.0
C1775 C 0.85575 0.86394 0.61592 0.0
C1776 C 0.84468 0.86839 0.62613 0.0
C1777 C 0.87204 0.9056 0.63189 0.0
C1778 C 0.91065 0.93835 0.62746 0.0
C1779 C 0.03743 0.15893 0.59953 0.0
C1780 C 0.05073 0.18037 0.60918 0.0
C1781 C 0.02073 0.11388 0.59893 0.0
C1782 C 0.01675 0.08978 0.60798 0.0
C1783 C 0.0261 0.11069 0.6177 0.0
C1784 C 0.04346 0.15567 0.61828 0.0
C1785 C 0.00836 0.04441 0.60736 0.0
C1786 C 0.97141 0.01117 0.61229 0.0
C1787 C 0.03806 0.03439 0.60244 0.0
C1788 C 0.07761 0.06829 0.59707 0.0
C1789 C 0.10918 0.10466 0.60257 0.0
C1790 C 0.14524 0.13757 0.59734 0.0
C1791 C 0.15033 0.1342 0.58662 0.0
C1792 C 0.1195 0.09778 0.58113 0.0
C1793 C 0.0833 0.06485 0.58633 0.0
H1794 H 0.17819 0.15978 0.58257 0.0
H1795 H 0.81487 0.84304 0.62959 0.0
H1796 H 0.8489 0.01864 0.95409 0.0
H1797 H 0.90156 0.99336 0.95426 0.0
H1798 H 0.92055 0.01546 0.92108 0.0
H1799 H 0.86659 0.03934 0.92089 0.0
H1800 H 0.93321 0.94903 0.92681 0.0
H1801 H 0.98389 0.09492 0.93784 0.0
H1802 H 0.98243 0.1529 0.94812 0.0
H1803 H 0.99742 0.09706 0.97639 0.0
H1804 H 0.99819 0.03826 0.9663 0.0
H1805 H 0.13973 0.96437 0.92862 0.0
H1806 H 0.09047 0.99345 0.92623 0.0
H1807 H 0.04941 0.96365 0.95834 0.0
H1808 H 0.09809 0.93438 0.96069 0.0
H1809 H 0.05194 0.0392 0.95156 0.0
H1810 H 0.99596 0.89016 0.93994 0.0
H1811 H 1.00002 0.83453 0.92924 0.0
H1812 H 0.99856 0.90041 0.90131 0.0
H1813 H 0.99527 0.95689 0.91186 0.0
C1814 C 0.8625 0.01569 0.94676 0.0
C1815 C 0.85307 0.02998 0.93745 0.0
C1816 C 0.89318 1.00199 0.94687 0.0
C1817 C 0.91601 1.00368 0.93773 0.0
C1818 C 0.90357 0.01402 0.92824 0.0
C1819 C 0.87233 0.02717 0.92811 0.0
C1820 C 0.95592 0.99986 0.93834 0.0
C1821 C 0.95937 0.96914 0.93212 0.0
C1822 C 0.9904 0.02624 0.94523 0.0
C1823 C 0.99073 0.06198 0.95132 0.0
C1824 C 0.98663 0.09486 0.94626 0.0
C1825 C 0.98592 0.12787 0.95205 0.0
C1826 C 0.98975 0.12862 0.9629 0.0
C1827 C 0.99441 0.09641 0.96799 0.0
C1828 C 0.995 0.06324 0.96223 0.0
C1829 C 0.12164 0.96587 0.93527 0.0
C1830 C 0.12271 0.94723 0.94485 0.0
C1831 C 0.09308 0.98196 0.93387 0.0
C1832 C 0.06558 0.9799 0.94206 0.0
C1833 C 0.07008 0.9654 0.9519 0.0
C1834 C 0.09809 0.94887 0.95326 0.0
C1835 C 0.02875 0.98782 0.94021 0.0
C1836 C 0.02591 0.01938 0.94618 0.0
C1837 C 0.99516 0.96257 0.93303 0.0
C1838 C 0.99577 0.92793 0.92668 0.0
C1839 C 0.9967 0.89288 0.93152 0.0
C1840 C 0.99887 0.86121 0.92548 0.0
C1841 C 0.99959 0.86396 0.9146 0.0
C1842 C 0.99803 0.89834 0.90974 0.0
C1843 C 0.996 0.93019 0.91574 0.0
H1844 H 1.0013 0.83943 0.90994 0.0
H1845 H 0.98918 0.15419 0.96737 0.0
H1846 H 0.18169 0.13322 0.2596 0.0
H1847 H 0.10347 0.08202 0.25813 0.0
H1848 H 0.09706 0.05632 0.29119 0.0
H1849 H 0.17534 0.10598 0.29252 0.0
H1850 H 0.06479 0.98368 0.28129 0.0
H1851 H 0.04473 0.10748 0.27895 0.0
H1852 H 0.05669 0.17732 0.27199 0.0
H1853 H 0.01293 0.11936 0.24181 0.0
H1854 H 1.00123 0.04927 0.24856 0.0
H1855 H 0.83647 0.86622 0.28998 0.0
H1856 H 0.91495 0.91625 0.28908 0.0
H1857 H 0.90896 0.91281 0.25547 0.0
H1858 H 0.83009 0.8619 0.25639 0.0
H1859 H 0.94793 0.99738 0.26382 0.0
H1860 H 0.96324 0.87181 0.26694 0.0
H1861 H 0.94979 0.80221 0.27441 0.0
H1862 H 1.00147 0.86462 0.3038 0.0
H1863 H 0.01468 0.93451 0.29656 0.0
C1864 C 0.16312 0.11812 0.26661 0.0
C1865 C 0.18436 0.12385 0.2762 0.0
C1866 C 0.11839 0.08852 0.26577 0.0
C1867 C 0.09415 0.06482 0.27454 0.0
C1868 C 0.11493 0.07371 0.28428 0.0
C1869 C 0.15958 0.10261 0.28508 0.0
C1870 C 0.04876 0.0276 0.27349 0.0
C1871 C 0.03918 0.98701 0.27759 0.0
C1872 C 0.0155 0.03113 0.26831 0.0
C1873 C 0.02258 0.07325 0.26423 0.0
C1874 C 0.03802 0.10972 0.2708 0.0
C1875 C 0.04468 0.14933 0.2669 0.0
C1876 C 0.03571 0.15282 0.25646 0.0
C1877 C 0.01994 0.11664 0.2499 0.0
C1878 C 0.01326 0.07695 0.25376 0.0
C1879 C 0.8523 0.8746 0.28241 0.0
C1880 C 0.82759 0.8594 0.27326 0.0
C1881 C 0.89706 0.9035 0.28189 0.0
C1882 C 0.9179 0.91839 0.27221 0.0
C1883 C 0.89358 0.90166 0.26302 0.0
C1884 C 0.84873 0.87205 0.26354 0.0
C1885 C 0.96405 0.95409 0.27183 0.0
C1886 C 0.97376 0.99423 0.26745 0.0
C1887 C 0.99743 0.95034 0.27683 0.0
C1888 C 0.98965 0.90836 0.28122 0.0
C1889 C 0.97142 0.87064 0.27502 0.0
C1890 C 0.9639 0.83114 0.27921 0.0
C1891 C 0.97469 0.82898 0.28958 0.0
C1892 C 0.99311 0.86634 0.29578 0.0
C1893 C 1.00068 0.90593 0.29162 0.0
H1894 H 0.96884 0.79837 0.29281 0.0
H1895 H 0.04087 0.18351 0.25345 0.0
loop_
_geom_bond_atom_site_label_1
_geom_bond_atom_site_label_2
_geom_bond_distance
_geom_bond_site_symmetry_2
_ccdc_geom_bond_type
C0 C1 1.351 . S
C0 N3 1.368 . S
C0 H5 0.931 . S
C1 C0 1.351 . S
C1 N2 1.373 . S
C1 H29 0.930 . S
N2 C1 1.373 . S
N2 C4 1.340 . S
N3 C0 1.368 . S
N3 C4 1.321 . S
N3 Co6 2.135 . S
C4 N2 1.340 . S
C4 N3 1.321 . S
C4 H28 0.930 . S
H5 C0 0.931 . S
Co6 N3 2.135 . S
Co6 N9 2.121 . S
Co6 O14 2.055 . S
Co6 O17 2.039 . S
Co6 N20 2.140 . S
C7 O8 1.227 . S
C7 O17 1.265 . S
O8 C7 1.227 . S
N9 Co6 2.121 . S
N9 C11 1.375 . S
N9 C12 1.313 . S
C10 C11 1.338 . S
C10 N13 1.377 . S
C10 H30 0.930 . S
C11 N9 1.375 . S
C11 C10 1.338 . S
C11 H15 0.931 . S
C12 N9 1.313 . S
C12 N13 1.344 . S
C12 H16 0.930 . S
N13 C10 1.377 . S
N13 C12 1.344 . S
O14 Co6 2.055 . S
O14 C18 1.253 . S
H15 C11 0.931 . S
H16 C12 0.930 . S
O17 Co6 2.039 . S
O17 C7 1.265 . S
C18 O14 1.253 . S
C18 O19 1.227 . S
O19 C18 1.227 . S
N20 Co6 2.140 . S
N20 C23 1.346 . S
N20 C24 1.345 . S
C21 C22 1.387 . S
C21 C25 1.391 . S
C22 C21 1.387 . S
C22 C23 1.369 . S
C22 H31 0.929 . S
C23 N20 1.346 . S
C23 C22 1.369 . S
C23 H26 0.928 . S
C24 N20 1.345 . S
C24 C25 1.371 . S
C24 H27 0.931 . S
C25 C21 1.391 . S
C25 C24 1.371 . S
C25 H32 0.930 . S
H26 C23 0.928 . S
H27 C24 0.931 . S
H28 C4 0.930 . S
H29 C1 0.930 . S
H30 C10 0.930 . S
H31 C22 0.929 . S
H32 C25 0.930 . S
C33 C34 1.351 . S
C33 N36 1.368 . S
C33 H38 0.931 . S
C34 C33 1.351 . S
C34 N35 1.373 . S
C34 H62 0.930 . S
N35 C34 1.373 . S
N35 C37 1.340 . S
N36 C33 1.368 . S
N36 C37 1.321 . S
N36 Co39 2.135 . S
C37 N35 1.340 . S
C37 N36 1.321 . S
C37 H61 0.930 . S
H38 C33 0.931 . S
Co39 N36 2.135 . S
Co39 N42 2.121 . S
Co39 O47 2.055 . S
Co39 O50 2.039 . S
Co39 N53 2.140 . S
C40 O41 1.227 . S
C40 O50 1.265 . S
O41 C40 1.227 . S
N42 Co39 2.121 . S
N42 C44 1.375 . S
N42 C45 1.313 . S
C43 C44 1.338 . S
C43 N46 1.377 . S
C43 H63 0.930 . S
C44 N42 1.375 . S
C44 C43 1.338 . S
C44 H48 0.931 . S
C45 N42 1.313 . S
C45 N46 1.344 . S
C45 H49 0.930 . S
N46 C43 1.377 . S
N46 C45 1.344 . S
O47 Co39 2.055 . S
O47 C51 1.253 . S
H48 C44 0.931 . S
H49 C45 0.930 . S
O50 Co39 2.039 . S
O50 C40 1.265 . S
C51 O47 1.253 . S
C51 O52 1.227 . S
O52 C51 1.227 . S
N53 Co39 2.140 . S
N53 C56 1.346 . S
N53 C57 1.345 . S
C54 C55 1.387 . S
C54 C58 1.391 . S
C55 C54 1.387 . S
C55 C56 1.369 . S
C55 H64 0.929 . S
C56 N53 1.346 . S
C56 C55 1.369 . S
C56 H59 0.928 . S
C57 N53 1.345 . S
C57 C58 1.371 . S
C57 H60 0.931 . S
C58 C54 1.391 . S
C58 C57 1.371 . S
C58 H65 0.930 . S
H59 C56 0.928 . S
H60 C57 0.931 . S
H61 C37 0.930 . S
H62 C34 0.930 . S
H63 C43 0.930 . S
H64 C55 0.929 . S
H65 C58 0.930 . S
C66 C67 1.351 . S
C66 N69 1.368 . S
C66 H71 0.931 . S
C67 C66 1.351 . S
C67 N68 1.373 . S
C67 H95 0.930 . S
N68 C67 1.373 . S
N68 C70 1.340 . S
N69 C66 1.368 . S
N69 C70 1.321 . S
N69 Co72 2.135 . S
C70 N68 1.340 . S
C70 N69 1.321 . S
C70 H94 0.930 . S
H71 C66 0.931 . S
Co72 N69 2.135 . S
Co72 N75 2.121 . S
Co72 O80 2.055 . S
Co72 O83 2.039 . S
Co72 N86 2.140 . S
C73 O74 1.227 . S
C73 O83 1.265 . S
O74 C73 1.227 . S
N75 Co72 2.121 . S
N75 C77 1.375 . S
N75 C78 1.313 . S
C76 C77 1.338 . S
C76 N79 1.377 . S
C76 H96 0.930 . S
C77 N75 1.375 . S
C77 C76 1.338 . S
C77 H81 0.931 . S
C78 N75 1.313 . S
C78 N79 1.344 . S
C78 H82 0.930 . S
N79 C76 1.377 . S
N79 C78 1.344 . S
O80 Co72 2.055 . S
O80 C84 1.253 . S
H81 C77 0.931 . S
H82 C78 0.930 . S
O83 Co72 2.039 . S
O83 C73 1.265 . S
C84 O80 1.253 . S
C84 O85 1.227 . S
O85 C84 1.227 . S
N86 Co72 2.140 . S
N86 C89 1.346 . S
N86 C90 1.345 . S
C87 C88 1.387 . S
C87 C91 1.391 . S
C88 C87 1.387 . S
C88 C89 1.369 . S
C88 H97 0.929 . S
C89 N86 1.346 . S
C89 C88 1.369 . S
C89 H92 0.928 . S
C90 N86 1.345 . S
C90 C91 1.371 . S
C90 H93 0.931 . S
C91 C87 1.391 . S
C91 C90 1.371 . S
C91 H98 0.930 . S
H92 C89 0.928 . S
H93 C90 0.931 . S
H94 C70 0.930 . S
H95 C67 0.930 . S
H96 C76 0.930 . S
H97 C88 0.929 . S
H98 C91 0.930 . S
C99 C100 1.351 . S
C99 N102 1.368 . S
C99 H104 0.931 . S
C100 C99 1.351 . S
C100 N101 1.373 . S
C100 H128 0.930 . S
N101 C100 1.373 . S
N101 C103 1.340 . S
N102 C99 1.368 . S
N102 C103 1.321 . S
N102 Co105 2.135 . S
C103 N101 1.340 . S
C103 N102 1.321 . S
C103 H127 0.930 . S
H104 C99 0.931 . S
Co105 N102 2.135 . S
Co105 N108 2.121 . S
Co105 O113 2.055 . S
Co105 O116 2.039 . S
Co105 N119 2.140 . S
C106 O107 1.227 . S
C106 O116 1.265 . S
O107 C106 1.227 . S
N108 Co105 2.121 . S
N108 C110 1.375 . S
N108 C111 1.313 . S
C109 C110 1.338 . S
C109 N112 1.377 . S
C109 H129 0.930 . S
C110 N108 1.375 . S
C110 C109 1.338 . S
C110 H114 0.931 . S
C111 N108 1.313 . S
C111 N112 1.344 . S
C111 H115 0.930 . S
N112 C109 1.377 . S
N112 C111 1.344 . S
O113 Co105 2.055 . S
O113 C117 1.253 . S
H114 C110 0.931 . S
H115 C111 0.930 . S
O116 Co105 2.039 . S
O116 C106 1.265 . S
C117 O113 1.253 . S
C117 O118 1.227 . S
O118 C117 1.227 . S
N119 Co105 2.140 . S
N119 C122 1.346 . S
N119 C123 1.345 . S
C120 C121 1.387 . S
C120 C124 1.391 . S
C121 C120 1.387 . S
C121 C122 1.369 . S
C121 H130 0.929 . S
C122 N119 1.346 . S
C122 C121 1.369 . S
C122 H125 0.928 . S
C123 N119 1.345 . S
C123 C124 1.371 . S
C123 H126 0.931 . S
C124 C120 1.391 . S
C124 C123 1.371 . S
C124 H131 0.930 . S
H125 C122 0.928 . S
H126 C123 0.931 . S
H127 C103 0.930 . S
H128 C100 0.930 . S
H129 C109 0.930 . S
H130 C121 0.929 . S
H131 C124 0.930 . S
C132 C133 1.351 . S
C132 N135 1.368 . S
C132 H137 0.931 . S
C133 C132 1.351 . S
C133 N134 1.373 . S
C133 H161 0.930 . S
N134 C133 1.373 . S
N134 C136 1.340 . S
N135 C132 1.368 . S
N135 C136 1.321 . S
N135 Co138 2.135 . S
C136 N134 1.340 . S
C136 N135 1.321 . S
C136 H160 0.930 . S
H137 C132 0.931 . S
Co138 N135 2.135 . S
Co138 N141 2.121 . S
Co138 O146 2.055 . S
Co138 O149 2.039 . S
Co138 N152 2.140 . S
C139 O140 1.227 . S
C139 O149 1.265 . S
O140 C139 1.227 . S
N141 Co138 2.121 . S
N141 C143 1.375 . S
N141 C144 1.313 . S
C142 C143 1.338 . S
C142 N145 1.377 . S
C142 H162 0.930 . S
C143 N141 1.375 . S
C143 C142 1.338 . S
C143 H147 0.931 . S
C144 N141 1.313 . S
C144 N145 1.344 . S
C144 H148 0.930 . S
N145 C142 1.377 . S
N145 C144 1.344 . S
O146 Co138 2.055 . S
O146 C150 1.253 . S
H147 C143 0.931 . S
H148 C144 0.930 . S
O149 Co138 2.039 . S
O149 C139 1.265 . S
C150 O146 1.253 . S
C150 O151 1.227 . S
O151 C150 1.227 . S
N152 Co138 2.140 . S
N152 C155 1.346 . S
N152 C156 1.345 . S
C153 C154 1.387 . S
C153 C157 1.391 . S
C154 C153 1.387 . S
C154 C155 1.369 . S
C154 H163 0.929 . S
C155 N152 1.346 . S
C155 C154 1.369 . S
C155 H158 0.928 . S
C156 N152 1.345 . S
C156 C157 1.371 . S
C156 H159 0.931 . S
C157 C153 1.391 . S
C157 C156 1.371 . S
C157 H164 0.930 . S
H158 C155 0.928 . S
H159 C156 0.931 . S
H160 C136 0.930 . S
H161 C133 0.930 . S
H162 C142 0.930 . S
H163 C154 0.929 . S
H164 C157 0.930 . S
C165 C166 1.351 . S
C165 N168 1.368 . S
C165 H170 0.931 . S
C166 C165 1.351 . S
C166 N167 1.373 . S
C166 H194 0.930 . S
N167 C166 1.373 . S
N167 C169 1.340 . S
N168 C165 1.368 . S
N168 C169 1.321 . S
N168 Co171 2.135 . S
C169 N167 1.340 . S
C169 N168 1.321 . S
C169 H193 0.930 . S
H170 C165 0.931 . S
Co171 N168 2.135 . S
Co171 N174 2.121 . S
Co171 O179 2.055 . S
Co171 O182 2.039 . S
Co171 N185 2.140 . S
C172 O173 1.227 . S
C172 O182 1.265 . S
O173 C172 1.227 . S
N174 Co171 2.121 . S
N174 C176 1.375 . S
N174 C177 1.313 . S
C175 C176 1.338 . S
C175 N178 1.377 . S
C175 H195 0.930 . S
C176 N174 1.375 . S
C176 C175 1.338 . S
C176 H180 0.931 . S
C177 N174 1.313 . S
C177 N178 1.344 . S
C177 H181 0.930 . S
N178 C175 1.377 . S
N178 C177 1.344 . S
O179 Co171 2.055 . S
O179 C183 1.253 . S
H180 C176 0.931 . S
H181 C177 0.930 . S
O182 Co171 2.039 . S
O182 C172 1.265 . S
C183 O179 1.253 . S
C183 O184 1.227 . S
O184 C183 1.227 . S
N185 Co171 2.140 . S
N185 C188 1.346 . S
N185 C189 1.345 . S
C186 C187 1.387 . S
C186 C190 1.391 . S
C187 C186 1.387 . S
C187 C188 1.369 . S
C187 H196 0.929 . S
C188 N185 1.346 . S
C188 C187 1.369 . S
C188 H191 0.928 . S
C189 N185 1.345 . S
C189 C190 1.371 . S
C189 H192 0.931 . S
C190 C186 1.391 . S
C190 C189 1.371 . S
C190 H197 0.930 . S
H191 C188 0.928 . S
H192 C189 0.931 . S
H193 C169 0.930 . S
H194 C166 0.930 . S
H195 C175 0.930 . S
H196 C187 0.929 . S
H197 C190 0.930 . S
C198 C199 1.351 . S
C198 N201 1.368 . S
C198 H203 0.931 . S
C199 C198 1.351 . S
C199 N200 1.373 . S
C199 H227 0.930 . S
N200 C199 1.373 . S
N200 C202 1.340 . S
N201 C198 1.368 . S
N201 C202 1.321 . S
N201 Co204 2.135 . S
C202 N200 1.340 . S
C202 N201 1.321 . S
C202 H226 0.930 . S
H203 C198 0.931 . S
Co204 N201 2.135 . S
Co204 N207 2.121 . S
Co204 O212 2.055 . S
Co204 O215 2.039 . S
Co204 N218 2.140 . S
C205 O206 1.227 . S
C205 O215 1.265 . S
O206 C205 1.227 . S
N207 Co204 2.121 . S
N207 C209 1.375 . S
N207 C210 1.313 . S
C208 C209 1.338 . S
C208 N211 1.377 . S
C208 H228 0.930 . S
C209 N207 1.375 . S
C209 C208 1.338 . S
C209 H213 0.931 . S
C210 N207 1.313 . S
C210 N211 1.344 . S
C210 H214 0.930 . S
N211 C208 1.377 . S
N211 C210 1.344 . S
O212 Co204 2.055 . S
O212 C216 1.253 . S
H213 C209 0.931 . S
H214 C210 0.930 . S
O215 Co204 2.039 . S
O215 C205 1.265 . S
C216 O212 1.253 . S
C216 O217 1.227 . S
O217 C216 1.227 . S
N218 Co204 2.140 . S
N218 C221 1.346 . S
N218 C222 1.345 . S
C219 C220 1.387 . S
C219 C223 1.391 . S
C220 C219 1.387 . S
C220 C221 1.369 . S
C220 H229 0.929 . S
C221 N218 1.346 . S
C221 C220 1.369 . S
C221 H224 0.928 . S
C222 N218 1.345 . S
C222 C223 1.371 . S
C222 H225 0.931 . S
C223 C219 1.391 . S
C223 C222 1.371 . S
C223 H230 0.930 . S
H224 C221 0.928 . S
H225 C222 0.931 . S
H226 C202 0.930 . S
H227 C199 0.930 . S
H228 C208 0.930 . S
H229 C220 0.929 . S
H230 C223 0.930 . S
C231 C232 1.351 . S
C231 N234 1.368 . S
C231 H236 0.931 . S
C232 C231 1.351 . S
C232 N233 1.373 . S
C232 H260 0.930 . S
N233 C232 1.373 . S
N233 C235 1.340 . S
N234 C231 1.368 . S
N234 C235 1.321 . S
N234 Co237 2.135 . S
C235 N233 1.340 . S
C235 N234 1.321 . S
C235 H259 0.930 . S
H236 C231 0.931 . S
Co237 N234 2.135 . S
Co237 N240 2.121 . S
Co237 O245 2.055 . S
Co237 O248 2.039 . S
Co237 N251 2.140 . S
C238 O239 1.227 . S
C238 O248 1.265 . S
O239 C238 1.227 . S
N240 Co237 2.121 . S
N240 C242 1.375 . S
N240 C243 1.313 . S
C241 C242 1.338 . S
C241 N244 1.377 . S
C241 H261 0.930 . S
C242 N240 1.375 . S
C242 C241 1.338 . S
C242 H246 0.931 . S
C243 N240 1.313 . S
C243 N244 1.344 . S
C243 H247 0.930 . S
N244 C241 1.377 . S
N244 C243 1.344 . S
O245 Co237 2.055 . S
O245 C249 1.253 . S
H246 C242 0.931 . S
H247 C243 0.930 . S
O248 Co237 2.039 . S
O248 C238 1.265 . S
C249 O245 1.253 . S
C249 O250 1.227 . S
O250 C249 1.227 . S
N251 Co237 2.140 . S
N251 C254 1.346 . S
N251 C255 1.345 . S
C252 C253 1.387 . S
C252 C256 1.391 . S
C253 C252 1.387 . S
C253 C254 1.369 . S
C253 H262 0.929 . S
C254 N251 1.346 . S
C254 C253 1.369 . S
C254 H257 0.928 . S
C255 N251 1.345 . S
C255 C256 1.371 . S
C255 H258 0.931 . S
C256 C252 1.391 . S
C256 C255 1.371 . S
C256 H263 0.930 . S
H257 C254 0.928 . S
H258 C255 0.931 . S
H259 C235 0.930 . S
H260 C232 0.930 . S
H261 C241 0.930 . S
H262 C253 0.929 . S
H263 C256 0.930 . S
C264 C265 1.351 . S
C264 N267 1.368 . S
C264 H269 0.931 . S
C265 C264 1.351 . S
C265 N266 1.373 . S
C265 H293 0.930 . S
N266 C265 1.373 . S
N266 C268 1.340 . S
N267 C264 1.368 . S
N267 C268 1.321 . S
N267 Co270 2.135 . S
C268 N266 1.340 . S
C268 N267 1.321 . S
C268 H292 0.930 . S
H269 C264 0.931 . S
Co270 N267 2.135 . S
Co270 N273 2.121 . S
Co270 O278 2.055 . S
Co270 O281 2.039 . S
Co270 N284 2.140 . S
C271 O272 1.227 . S
C271 O281 1.265 . S
O272 C271 1.227 . S
N273 Co270 2.121 . S
N273 C275 1.375 . S
N273 C276 1.313 . S
C274 C275 1.338 . S
C274 N277 1.377 . S
C274 H294 0.930 . S
C275 N273 1.375 . S
C275 C274 1.338 . S
C275 H279 0.931 . S
C276 N273 1.313 . S
C276 N277 1.344 . S
C276 H280 0.930 . S
N277 C274 1.377 . S
N277 C276 1.344 . S
O278 Co270 2.055 . S
O278 C282 1.253 . S
H279 C275 0.931 . S
H280 C276 0.930 . S
O281 Co270 2.039 . S
O281 C271 1.265 . S
C282 O278 1.253 . S
C282 O283 1.227 . S
O283 C282 1.227 . S
N284 Co270 2.140 . S
N284 C287 1.346 . S
N284 C288 1.345 . S
C285 C286 1.387 . S
C285 C289 1.391 . S
C286 C285 1.387 . S
C286 C287 1.369 . S
C286 H295 0.929 . S
C287 N284 1.346 . S
C287 C286 1.369 . S
C287 H290 0.928 . S
C288 N284 1.345 . S
C288 C289 1.371 . S
C288 H291 0.931 . S
C289 C285 1.391 . S
C289 C288 1.371 . S
C289 H296 0.930 . S
H290 C287 0.928 . S
H291 C288 0.931 . S
H292 C268 0.930 . S
H293 C265 0.930 . S
H294 C274 0.930 . S
H295 C286 0.929 . S
H296 C289 0.930 . S
C297 C298 1.351 . S
C297 N300 1.368 . S
C297 H302 0.931 . S
C298 C297 1.351 . S
C298 N299 1.373 . S
C298 H326 0.930 . S
N299 C298 1.373 . S
N299 C301 1.340 . S
N300 C297 1.368 . S
N300 C301 1.321 . S
N300 Co303 2.135 . S
C301 N299 1.340 . S
C301 N300 1.321 . S
C301 H325 0.930 . S
H302 C297 0.931 . S
Co303 N300 2.135 . S
Co303 N306 2.121 . S
Co303 O311 2.055 . S
Co303 O314 2.039 . S
Co303 N317 2.140 . S
C304 O305 1.227 . S
C304 O314 1.265 . S
O305 C304 1.227 . S
N306 Co303 2.121 . S
N306 C308 1.375 . S
N306 C309 1.313 . S
C307 C308 1.338 . S
C307 N310 1.377 . S
C307 H327 0.930 . S
C308 N306 1.375 . S
C308 C307 1.338 . S
C308 H312 0.931 . S
C309 N306 1.313 . S
C309 N310 1.344 . S
C309 H313 0.930 . S
N310 C307 1.377 . S
N310 C309 1.344 . S
O311 Co303 2.055 . S
O311 C315 1.253 . S
H312 C308 0.931 . S
H313 C309 0.930 . S
O314 Co303 2.039 . S
O314 C304 1.265 . S
C315 O311 1.253 . S
C315 O316 1.227 . S
O316 C315 1.227 . S
N317 Co303 2.140 . S
N317 C320 1.346 . S
N317 C321 1.345 . S
C318 C319 1.387 . S
C318 C322 1.391 . S
C319 C318 1.387 . S
C319 C320 1.369 . S
C319 H328 0.929 . S
C320 N317 1.346 . S
C320 C319 1.369 . S
C320 H323 0.928 . S
C321 N317 1.345 . S
C321 C322 1.371 . S
C321 H324 0.931 . S
C322 C318 1.391 . S
C322 C321 1.371 . S
C322 H329 0.930 . S
H323 C320 0.928 . S
H324 C321 0.931 . S
H325 C301 0.930 . S
H326 C298 0.930 . S
H327 C307 0.930 . S
H328 C319 0.929 . S
H329 C322 0.930 . S
C330 C331 1.351 . S
C330 N333 1.368 . S
C330 H335 0.931 . S
C331 C330 1.351 . S
C331 N332 1.373 . S
C331 H359 0.930 . S
N332 C331 1.373 . S
N332 C334 1.340 . S
N333 C330 1.368 . S
N333 C334 1.321 . S
N333 Co336 2.135 . S
C334 N332 1.340 . S
C334 N333 1.321 . S
C334 H358 0.930 . S
H335 C330 0.931 . S
Co336 N333 2.135 . S
Co336 N339 2.121 . S
Co336 O344 2.055 . S
Co336 O347 2.039 . S
Co336 N350 2.140 . S
C337 O338 1.227 . S
C337 O347 1.265 . S
O338 C337 1.227 . S
N339 Co336 2.121 . S
N339 C341 1.375 . S
N339 C342 1.313 . S
C340 C341 1.338 . S
C340 N343 1.377 . S
C340 H360 0.930 . S
C341 N339 1.375 . S
C341 C340 1.338 . S
C341 H345 0.931 . S
C342 N339 1.313 . S
C342 N343 1.344 . S
C342 H346 0.930 . S
N343 C340 1.377 . S
N343 C342 1.344 . S
O344 Co336 2.055 . S
O344 C348 1.253 . S
H345 C341 0.931 . S
H346 C342 0.930 . S
O347 Co336 2.039 . S
O347 C337 1.265 . S
C348 O344 1.253 . S
C348 O349 1.227 . S
O349 C348 1.227 . S
N350 Co336 2.140 . S
N350 C353 1.346 . S
N350 C354 1.345 . S
C351 C352 1.387 . S
C351 C355 1.391 . S
C352 C351 1.387 . S
C352 C353 1.369 . S
C352 H361 0.929 . S
C353 N350 1.346 . S
C353 C352 1.369 . S
C353 H356 0.928 . S
C354 N350 1.345 . S
C354 C355 1.371 . S
C354 H357 0.931 . S
C355 C351 1.391 . S
C355 C354 1.371 . S
C355 H362 0.930 . S
H356 C353 0.928 . S
H357 C354 0.931 . S
H358 C334 0.930 . S
H359 C331 0.930 . S
H360 C340 0.930 . S
H361 C352 0.929 . S
H362 C355 0.930 . S
C363 C364 1.351 . S
C363 N366 1.368 . S
C363 H368 0.931 . S
C364 C363 1.351 . S
C364 N365 1.373 . S
C364 H392 0.930 . S
N365 C364 1.373 . S
N365 C367 1.340 . S
N366 C363 1.368 . S
N366 C367 1.321 . S
N366 Co369 2.135 . S
C367 N365 1.340 . S
C367 N366 1.321 . S
C367 H391 0.930 . S
H368 C363 0.931 . S
Co369 N366 2.135 . S
Co369 N372 2.121 . S
Co369 O377 2.055 . S
Co369 O380 2.039 . S
Co369 N383 2.140 . S
C370 O371 1.227 . S
C370 O380 1.265 . S
O371 C370 1.227 . S
N372 Co369 2.121 . S
N372 C374 1.375 . S
N372 C375 1.313 . S
C373 C374 1.338 . S
C373 N376 1.377 . S
C373 H393 0.930 . S
C374 N372 1.375 . S
C374 C373 1.338 . S
C374 H378 0.931 . S
C375 N372 1.313 . S
C375 N376 1.344 . S
C375 H379 0.930 . S
N376 C373 1.377 . S
N376 C375 1.344 . S
O377 Co369 2.055 . S
O377 C381 1.253 . S
H378 C374 0.931 . S
H379 C375 0.930 . S
O380 Co369 2.039 . S
O380 C370 1.265 . S
C381 O377 1.253 . S
C381 O382 1.227 . S
O382 C381 1.227 . S
N383 Co369 2.140 . S
N383 C386 1.346 . S
N383 C387 1.345 . S
C384 C385 1.387 . S
C384 C388 1.391 . S
C385 C384 1.387 . S
C385 C386 1.369 . S
C385 H394 0.929 . S
C386 N383 1.346 . S
C386 C385 1.369 . S
C386 H389 0.928 . S
C387 N383 1.345 . S
C387 C388 1.371 . S
C387 H390 0.931 . S
C388 C384 1.391 . S
C388 C387 1.371 . S
C388 H395 0.930 . S
H389 C386 0.928 . S
H390 C387 0.931 . S
H391 C367 0.930 . S
H392 C364 0.930 . S
H393 C373 0.930 . S
H394 C385 0.929 . S
H395 C388 0.930 . S
H396 C414 0.951 . S
H397 C416 0.951 1_565 S
H398 C418 0.950 . S
H399 C419 0.950 . S
H400 C421 0.950 . S
H401 C424 0.950 1_545 S
H402 C425 0.950 . S
H403 C427 0.950 . S
H404 C428 0.950 . S
H405 C429 0.951 . S
H406 C431 0.951 1_545 S
H407 C433 0.950 . S
H408 C434 0.950 . S
H409 C436 0.950 . S
H410 C439 0.950 1_565 S
H411 C440 0.950 . S
H412 C442 0.950 . S
H413 C443 0.950 . S
C414 H396 0.951 . S
C414 C415 1.366 . S
C414 C416 1.388 . S
C415 C414 1.366 . S
C415 C419 1.385 . S
C416 H397 0.951 1_545 S
C416 C414 1.388 . S
C416 C417 1.366 . S
C417 C416 1.366 . S
C417 C418 1.414 . S
C417 C420 1.499 . S
C418 H398 0.950 . S
C418 C417 1.414 . S
C418 C419 1.374 . S
C419 H399 0.950 . S
C419 C415 1.385 . S
C419 C418 1.374 . S
C420 C417 1.499 . S
C420 C421 1.373 . S
C420 C422 1.389 1_545 S
C421 H400 0.950 . S
C421 C420 1.373 . S
C421 C437 1.377 1_554 S
C422 C420 1.389 1_565 S
C422 C423 1.524 . S
C422 C436 1.377 1_554 S
C423 C422 1.524 . S
C423 C424 1.397 . S
C423 C428 1.363 . S
C424 H401 0.950 1_565 S
C424 C423 1.397 . S
C424 C425 1.334 . S
C425 H402 0.950 . S
C425 C424 1.334 . S
C425 C426 1.287 . S
C426 C425 1.287 . S
C426 C427 1.524 . S
C426 H445 0.913 . S
C427 H403 0.950 . S
C427 C426 1.524 . S
C427 C428 1.415 . S
C428 H404 0.950 . S
C428 C423 1.363 . S
C428 C427 1.415 . S
C429 H405 0.951 . S
C429 C430 1.366 . S
C429 C431 1.388 . S
C430 C429 1.366 . S
C430 C434 1.385 . S
C431 H406 0.951 1_565 S
C431 C429 1.388 . S
C431 C432 1.366 . S
C432 C431 1.366 . S
C432 C433 1.414 . S
C432 C435 1.499 . S
C433 H407 0.950 . S
C433 C432 1.414 . S
C433 C434 1.374 . S
C434 H408 0.950 . S
C434 C430 1.385 . S
C434 C433 1.374 . S
C435 C432 1.499 . S
C435 C436 1.373 . S
C435 C437 1.389 1_565 S
C436 H409 0.950 . S
C436 C422 1.377 1_556 S
C436 C435 1.373 . S
C437 C421 1.377 1_556 S
C437 C435 1.389 1_545 S
C437 C438 1.524 . S
C438 C437 1.524 . S
C438 C439 1.397 . S
C438 C443 1.363 . S
C439 H410 0.950 1_545 S
C439 C438 1.397 . S
C439 C440 1.334 . S
C440 H411 0.950 . S
C440 C439 1.334 . S
C440 C441 1.287 . S
C441 C440 1.287 . S
C441 C442 1.524 . S
C441 H444 0.999 . S
C442 H412 0.950 . S
C442 C441 1.524 . S
C442 C443 1.415 . S
C443 H413 0.950 . S
C443 C438 1.363 . S
C443 C442 1.415 . S
H444 C441 0.999 . S
H445 C426 0.913 . S
H446 C464 0.951 . S
H447 C466 0.951 . S
H448 C468 0.950 . S
H449 C469 0.950 . S
H450 C471 0.950 . S
H451 C474 0.950 . S
H452 C475 0.950 . S
H453 C477 0.950 . S
H454 C478 0.950 . S
H455 C479 0.951 . S
H456 C481 0.951 . S
H457 C483 0.950 . S
H458 C484 0.950 . S
H459 C486 0.950 . S
H460 C489 0.950 . S
H461 C490 0.950 . S
H462 C492 0.950 . S
H463 C493 0.950 . S
C464 H446 0.951 . S
C464 C465 1.366 . S
C464 C466 1.388 . S
C465 C464 1.366 . S
C465 C469 1.385 . S
C466 H447 0.951 . S
C466 C464 1.388 . S
C466 C467 1.366 . S
C467 C466 1.366 . S
C467 C468 1.414 . S
C467 C470 1.499 . S
C468 H448 0.950 . S
C468 C467 1.414 . S
C468 C469 1.374 . S
C469 H449 0.950 . S
C469 C465 1.385 . S
C469 C468 1.374 . S
C470 C467 1.499 . S
C470 C471 1.373 . S
C470 C472 1.389 . S
C471 H450 0.950 . S
C471 C470 1.373 . S
C471 C487 1.377 . S
C472 C470 1.389 . S
C472 C473 1.524 . S
C472 C486 1.377 . S
C473 C472 1.524 . S
C473 C474 1.397 . S
C473 C478 1.363 . S
C474 H451 0.950 . S
C474 C473 1.397 . S
C474 C475 1.334 . S
C475 H452 0.950 . S
C475 C474 1.334 . S
C475 C476 1.287 . S
C476 C475 1.287 . S
C476 C477 1.524 . S
C476 H495 0.913 . S
C477 H453 0.950 . S
C477 C476 1.524 . S
C477 C478 1.415 . S
C478 H454 0.950 . S
C478 C473 1.363 . S
C478 C477 1.415 . S
C479 H455 0.951 . S
C479 C480 1.366 . S
C479 C481 1.388 . S
C480 C479 1.366 . S
C480 C484 1.385 . S
C481 H456 0.951 . S
C481 C479 1.388 . S
C481 C482 1.366 . S
C482 C481 1.366 . S
C482 C483 1.414 . S
C482 C485 1.499 . S
C483 H457 0.950 . S
C483 C482 1.414 . S
C483 C484 1.374 . S
C484 H458 0.950 . S
C484 C480 1.385 . S
C484 C483 1.374 . S
C485 C482 1.499 . S
C485 C486 1.373 . S
C485 C487 1.389 . S
C486 H459 0.950 . S
C486 C472 1.377 . S
C486 C485 1.373 . S
C487 C471 1.377 . S
C487 C485 1.389 . S
C487 C488 1.524 . S
C488 C487 1.524 . S
C488 C489 1.397 . S
C488 C493 1.363 . S
C489 H460 0.950 . S
C489 C488 1.397 . S
C489 C490 1.334 . S
C490 H461 0.950 . S
C490 C489 1.334 . S
C490 C491 1.287 . S
C491 C490 1.287 . S
C491 C492 1.524 . S
C491 H494 0.999 . S
C492 H462 0.950 . S
C492 C491 1.524 . S
C492 C493 1.415 . S
C493 H463 0.950 . S
C493 C488 1.363 . S
C493 C492 1.415 . S
H494 C491 0.999 . S
H495 C476 0.913 . S
H496 C514 0.951 . S
H497 C516 0.951 . S
H498 C518 0.950 . S
H499 C519 0.950 . S
H500 C521 0.950 . S
H501 C524 0.950 . S
H502 C525 0.950 . S
H503 C527 0.950 . S
H504 C528 0.950 . S
H505 C529 0.951 . S
H506 C531 0.951 . S
H507 C533 0.950 . S
H508 C534 0.950 . S
H509 C536 0.950 . S
H510 C539 0.950 . S
H511 C540 0.950 . S
H512 C542 0.950 . S
H513 C543 0.950 . S
C514 H496 0.951 . S
C514 C515 1.366 . S
C514 C516 1.388 . S
C515 C514 1.366 . S
C515 C519 1.385 . S
C516 H497 0.951 . S
C516 C514 1.388 . S
C516 C517 1.366 . S
C517 C516 1.366 . S
C517 C518 1.414 . S
C517 C520 1.499 . S
C518 H498 0.950 . S
C518 C517 1.414 . S
C518 C519 1.374 . S
C519 H499 0.950 . S
C519 C515 1.385 . S
C519 C518 1.374 . S
C520 C517 1.499 . S
C520 C521 1.373 1_655 S
C520 C522 1.389 . S
C521 H500 0.950 . S
C521 C520 1.373 1_455 S
C521 C537 1.377 . S
C522 C520 1.389 . S
C522 C523 1.524 . S
C522 C536 1.377 . S
C523 C522 1.524 . S
C523 C524 1.397 . S
C523 C528 1.363 . S
C524 H501 0.950 . S
C524 C523 1.397 . S
C524 C525 1.334 . S
C525 H502 0.950 . S
C525 C524 1.334 . S
C525 C526 1.287 . S
C526 C525 1.287 . S
C526 C527 1.524 . S
C526 H545 0.913 . S
C527 H503 0.950 . S
C527 C526 1.524 . S
C527 C528 1.415 . S
C528 H504 0.950 . S
C528 C523 1.363 . S
C528 C527 1.415 . S
C529 H505 0.951 . S
C529 C530 1.366 . S
C529 C531 1.388 . S
C530 C529 1.366 . S
C530 C534 1.385 . S
C531 H506 0.951 . S
C531 C529 1.388 . S
C531 C532 1.366 . S
C532 C531 1.366 . S
C532 C533 1.414 . S
C532 C535 1.499 . S
C533 H507 0.950 . S
C533 C532 1.414 . S
C533 C534 1.374 . S
C534 H508 0.950 . S
C534 C530 1.385 . S
C534 C533 1.374 . S
C535 C532 1.499 . S
C535 C536 1.373 1_455 S
C535 C537 1.389 . S
C536 H509 0.950 . S
C536 C522 1.377 . S
C536 C535 1.373 1_655 S
C537 C521 1.377 . S
C537 C535 1.389 . S
C537 C538 1.524 . S
C538 C537 1.524 . S
C538 C539 1.397 . S
C538 C543 1.363 . S
C539 H510 0.950 . S
C539 C538 1.397 . S
C539 C540 1.334 . S
C540 H511 0.950 . S
C540 C539 1.334 . S
C540 C541 1.287 . S
C541 C540 1.287 . S
C541 C542 1.524 . S
C541 H544 0.999 . S
C542 H512 0.950 . S
C542 C541 1.524 . S
C542 C543 1.415 . S
C543 H513 0.950 . S
C543 C538 1.363 . S
C543 C542 1.415 . S
H544 C541 0.999 . S
H545 C526 0.913 . S
H546 C564 0.951 . S
H547 C566 0.951 . S
H548 C568 0.950 . S
H549 C569 0.950 . S
H550 C571 0.950 . S
H551 C574 0.950 . S
H552 C575 0.950 . S
H553 C577 0.950 . S
H554 C578 0.950 . S
H555 C579 0.951 . S
H556 C581 0.951 . S
H557 C583 0.950 . S
H558 C584 0.950 . S
H559 C586 0.950 . S
H560 C589 0.950 . S
H561 C590 0.950 . S
H562 C592 0.950 . S
H563 C593 0.950 . S
C564 H546 0.951 . S
C564 C565 1.366 . S
C564 C566 1.388 . S
C565 C564 1.366 . S
C565 C569 1.385 . S
C566 H547 0.951 . S
C566 C564 1.388 . S
C566 C567 1.366 . S
C567 C566 1.366 . S
C567 C568 1.414 . S
C567 C570 1.499 . S
C568 H548 0.950 . S
C568 C567 1.414 . S
C568 C569 1.374 . S
C569 H549 0.950 . S
C569 C565 1.385 . S
C569 C568 1.374 . S
C570 C567 1.499 . S
C570 C571 1.373 1_545 S
C570 C572 1.391 . S
C571 H550 0.950 . S
C571 C570 1.373 1_565 S
C571 C587 1.374 1_556 S
C572 C570 1.391 . S
C572 C573 1.522 1_556 S
C572 C586 1.375 1_556 S
C573 C572 1.522 1_554 S
C573 C574 1.371 1_554 S
C573 C578 1.395 . S
C574 H551 0.950 . S
C574 C573 1.371 1_556 S
C574 C575 1.334 . S
C575 H552 0.950 . S
C575 C574 1.334 . S
C575 C576 1.287 1_556 S
C576 C575 1.287 1_554 S
C576 C577 1.524 . S
C576 H595 0.913 . S
C577 H553 0.950 . S
C577 C576 1.524 . S
C577 C578 1.415 . S
C578 H554 0.950 . S
C578 C573 1.395 . S
C578 C577 1.415 . S
C579 H555 0.951 . S
C579 C580 1.366 . S
C579 C581 1.388 . S
C580 C579 1.366 . S
C580 C584 1.385 . S
C581 H556 0.951 . S
C581 C579 1.388 . S
C581 C582 1.366 . S
C582 C581 1.366 . S
C582 C583 1.414 . S
C582 C585 1.499 . S
C583 H557 0.950 . S
C583 C582 1.414 . S
C583 C584 1.374 . S
C584 H558 0.950 . S
C584 C580 1.385 . S
C584 C583 1.374 . S
C585 C582 1.499 . S
C585 C586 1.373 1_565 S
C585 C587 1.391 . S
C586 H559 0.950 . S
C586 C572 1.375 1_554 S
C586 C585 1.373 1_545 S
C587 C571 1.374 1_554 S
C587 C585 1.391 . S
C587 C588 1.522 1_554 S
C588 C587 1.522 1_556 S
C588 C589 1.371 1_556 S
C588 C593 1.395 . S
C589 H560 0.950 . S
C589 C588 1.371 1_554 S
C589 C590 1.334 . S
C590 H561 0.950 . S
C590 C589 1.334 . S
C590 C591 1.287 1_554 S
C591 C590 1.287 1_556 S
C591 C592 1.524 . S
C591 H594 0.999 . S
C592 H562 0.950 . S
C592 C591 1.524 . S
C592 C593 1.415 . S
C593 H563 0.950 . S
C593 C588 1.395 . S
C593 C592 1.415 . S
H594 C591 0.999 . S
H595 C576 0.913 . S
H596 C614 0.951 . S
H597 C616 0.951 . S
H598 C618 0.950 . S
H599 C619 0.950 . S
H600 C621 0.950 . S
H601 C624 0.950 . S
H602 C625 0.950 . S
H603 C627 0.950 . S
H604 C628 0.950 . S
H605 C629 0.951 . S
H606 C631 0.951 . S
H607 C633 0.950 . S
H608 C634 0.950 . S
H609 C636 0.950 . S
H610 C639 0.950 . S
H611 C640 0.950 . S
H612 C642 0.950 . S
H613 C643 0.950 . S
C614 H596 0.951 . S
C614 C615 1.366 . S
C614 C616 1.388 . S
C615 C614 1.366 . S
C615 C619 1.385 . S
C616 H597 0.951 . S
C616 C614 1.388 . S
C616 C617 1.366 . S
C617 C616 1.366 . S
C617 C618 1.414 . S
C617 C620 1.499 . S
C618 H598 0.950 . S
C618 C617 1.414 . S
C618 C619 1.374 . S
C619 H599 0.950 . S
C619 C615 1.385 . S
C619 C618 1.374 . S
C620 C617 1.499 . S
C620 C621 1.373 . S
C620 C622 1.389 . S
C621 H600 0.950 . S
C621 C620 1.373 . S
C621 C637 1.377 . S
C622 C620 1.389 . S
C622 C623 1.524 . S
C622 C636 1.377 . S
C623 C622 1.524 . S
C623 C624 1.397 . S
C623 C628 1.363 . S
C624 H601 0.950 . S
C624 C623 1.397 . S
C624 C625 1.334 . S
C625 H602 0.950 . S
C625 C624 1.334 . S
C625 C626 1.287 . S
C626 C625 1.287 . S
C626 C627 1.524 . S
C626 H645 0.913 . S
C627 H603 0.950 . S
C627 C626 1.524 . S
C627 C628 1.415 . S
C628 H604 0.950 . S
C628 C623 1.363 . S
C628 C627 1.415 . S
C629 H605 0.951 . S
C629 C630 1.366 . S
C629 C631 1.388 . S
C630 C629 1.366 . S
C630 C634 1.385 . S
C631 H606 0.951 . S
C631 C629 1.388 . S
C631 C632 1.366 . S
C632 C631 1.366 . S
C632 C633 1.414 . S
C632 C635 1.499 . S
C633 H607 0.950 . S
C633 C632 1.414 . S
C633 C634 1.374 . S
C634 H608 0.950 . S
C634 C630 1.385 . S
C634 C633 1.374 . S
C635 C632 1.499 . S
C635 C636 1.373 . S
C635 C637 1.389 . S
C636 H609 0.950 . S
C636 C622 1.377 . S
C636 C635 1.373 . S
C637 C621 1.377 . S
C637 C635 1.389 . S
C637 C638 1.524 . S
C638 C637 1.524 . S
C638 C639 1.397 . S
C638 C643 1.363 . S
C639 H610 0.950 . S
C639 C638 1.397 . S
C639 C640 1.334 . S
C640 H611 0.950 . S
C640 C639 1.334 . S
C640 C641 1.287 . S
C641 C640 1.287 . S
C641 C642 1.524 . S
C641 H644 0.999 . S
C642 H612 0.950 . S
C642 C641 1.524 . S
C642 C643 1.415 . S
C643 H613 0.950 . S
C643 C638 1.363 . S
C643 C642 1.415 . S
H644 C641 0.999 . S
H645 C626 0.913 . S
H646 C664 0.951 . S
H647 C666 0.951 1_655 S
H648 C668 0.950 . S
H649 C669 0.950 . S
H650 C671 0.950 . S
H651 C674 0.950 . S
H652 C675 0.950 . S
H653 C677 0.950 . S
H654 C678 0.950 . S
H655 C679 0.951 . S
H656 C681 0.951 1_455 S
H657 C683 0.950 . S
H658 C684 0.950 . S
H659 C686 0.950 . S
H660 C689 0.950 . S
H661 C690 0.950 . S
H662 C692 0.950 . S
H663 C693 0.950 . S
C664 H646 0.951 . S
C664 C665 1.366 . S
C664 C666 1.388 . S
C665 C664 1.366 . S
C665 C669 1.385 . S
C666 H647 0.951 1_455 S
C666 C664 1.388 . S
C666 C667 1.366 . S
C667 C666 1.366 . S
C667 C668 1.414 . S
C667 C670 1.499 . S
C668 H648 0.950 . S
C668 C667 1.414 . S
C668 C669 1.374 . S
C669 H649 0.950 . S
C669 C665 1.385 . S
C669 C668 1.374 . S
C670 C667 1.499 . S
C670 C671 1.373 . S
C670 C672 1.389 . S
C671 H650 0.950 . S
C671 C670 1.373 . S
C671 C687 1.377 1_455 S
C672 C670 1.389 . S
C672 C673 1.524 . S
C672 C686 1.377 1_455 S
C673 C672 1.524 . S
C673 C674 1.397 . S
C673 C678 1.363 1_455 S
C674 H651 0.950 . S
C674 C673 1.397 . S
C674 C675 1.334 . S
C675 H652 0.950 . S
C675 C674 1.334 . S
C675 C676 1.287 . S
C676 C675 1.287 . S
C676 C677 1.524 1_455 S
C676 H695 0.913 . S
C677 H653 0.950 . S
C677 C676 1.524 1_655 S
C677 C678 1.415 . S
C678 H654 0.950 . S
C678 C673 1.363 1_655 S
C678 C677 1.415 . S
C679 H655 0.951 . S
C679 C680 1.366 . S
C679 C681 1.388 . S
C680 C679 1.366 . S
C680 C684 1.385 . S
C681 H656 0.951 1_655 S
C681 C679 1.388 . S
C681 C682 1.366 . S
C682 C681 1.366 . S
C682 C683 1.414 . S
C682 C685 1.499 . S
C683 H657 0.950 . S
C683 C682 1.414 . S
C683 C684 1.374 . S
C684 H658 0.950 . S
C684 C680 1.385 . S
C684 C683 1.374 . S
C685 C682 1.499 . S
C685 C686 1.373 . S
C685 C687 1.389 . S
C686 H659 0.950 . S
C686 C672 1.377 1_655 S
C686 C685 1.373 . S
C687 C671 1.377 1_655 S
C687 C685 1.389 . S
C687 C688 1.524 . S
C688 C687 1.524 . S
C688 C689 1.397 . S
C688 C693 1.363 1_655 S
C689 H660 0.950 . S
C689 C688 1.397 . S
C689 C690 1.334 . S
C690 H661 0.950 . S
C690 C689 1.334 . S
C690 C691 1.287 . S
C691 C690 1.287 . S
C691 C692 1.524 1_655 S
C691 H694 0.999 . S
C692 H662 0.950 . S
C692 C691 1.524 1_455 S
C692 C693 1.415 . S
C693 H663 0.950 . S
C693 C688 1.363 1_455 S
C693 C692 1.415 . S
H694 C691 0.999 . S
H695 C676 0.913 . S
H696 C714 0.951 . S
H697 C716 0.951 . S
H698 C718 0.950 . S
H699 C719 0.950 . S
H700 C721 0.950 . S
H701 C724 0.950 . S
H702 C725 0.950 . S
H703 C727 0.950 . S
H704 C728 0.950 . S
H705 C729 0.951 . S
H706 C731 0.951 . S
H707 C733 0.951 . S
H708 C734 0.950 . S
H709 C736 0.950 . S
H710 C739 0.950 . S
H711 C740 0.950 . S
H712 C742 0.950 . S
H713 C743 0.950 . S
C714 H696 0.951 . S
C714 C715 1.366 . S
C714 C716 1.388 . S
C715 C714 1.366 . S
C715 C719 1.385 . S
C716 H697 0.951 . S
C716 C714 1.388 . S
C716 C717 1.366 . S
C717 C716 1.366 . S
C717 C718 1.414 . S
C717 C720 1.499 . S
C718 H698 0.950 . S
C718 C717 1.414 . S
C718 C719 1.374 . S
C719 H699 0.950 . S
C719 C715 1.385 . S
C719 C718 1.374 . S
C720 C717 1.499 . S
C720 C721 1.373 1_565 S
C720 C722 1.389 . S
C721 H700 0.950 . S
C721 C720 1.373 1_545 S
C721 C737 1.377 . S
C722 C720 1.389 . S
C722 C723 1.524 . S
C722 C736 1.377 . S
C723 C722 1.524 . S
C723 C724 1.397 . S
C723 C728 1.363 . S
C724 H701 0.950 . S
C724 C723 1.397 . S
C724 C725 1.334 . S
C725 H702 0.950 . S
C725 C724 1.334 . S
C725 C726 1.287 . S
C726 C725 1.287 . S
C726 C727 1.524 . S
C726 H745 0.913 . S
C727 H703 0.950 . S
C727 C726 1.524 . S
C727 C728 1.415 . S
C728 H704 0.950 . S
C728 C723 1.363 . S
C728 C727 1.415 . S
C729 H705 0.951 . S
C729 C730 1.366 . S
C729 C731 1.388 . S
C730 C729 1.366 . S
C730 C734 1.385 . S
C731 H706 0.951 . S
C731 C729 1.388 . S
C731 C732 1.366 . S
C732 C731 1.366 . S
C732 C733 1.414 . S
C732 C735 1.499 . S
C733 H707 0.951 . S
C733 C732 1.414 . S
C733 C734 1.374 . S
C734 H708 0.950 . S
C734 C730 1.385 . S
C734 C733 1.374 . S
C735 C732 1.499 . S
C735 C736 1.373 1_545 S
C735 C737 1.389 . S
C736 H709 0.950 . S
C736 C722 1.377 . S
C736 C735 1.373 1_565 S
C737 C721 1.377 . S
C737 C735 1.389 . S
C737 C738 1.524 . S
C738 C737 1.524 . S
C738 C739 1.397 . S
C738 C743 1.363 . S
C739 H710 0.950 . S
C739 C738 1.397 . S
C739 C740 1.334 . S
C740 H711 0.950 . S
C740 C739 1.334 . S
C740 C741 1.287 . S
C741 C740 1.287 . S
C741 C742 1.524 . S
C741 H744 0.999 . S
C742 H712 0.950 . S
C742 C741 1.524 . S
C742 C743 1.415 . S
C743 H713 0.950 . S
C743 C738 1.363 . S
C743 C742 1.415 . S
H744 C741 0.999 . S
H745 C726 0.913 . S
H746 C764 0.951 . S
H747 C766 0.951 . S
H748 C768 0.950 . S
H749 C769 0.950 . S
H750 C771 0.950 . S
H751 C774 0.950 . S
H752 C775 0.950 . S
H753 C777 0.950 . S
H754 C778 0.950 . S
H755 C779 0.951 . S
H756 C781 0.951 . S
H757 C783 0.950 . S
H758 C784 0.950 . S
H759 C786 0.950 . S
H760 C789 0.950 . S
H761 C790 0.950 . S
H762 C792 0.950 . S
H763 C793 0.950 . S
C764 H746 0.951 . S
C764 C765 1.366 . S
C764 C766 1.388 . S
C765 C764 1.366 . S
C765 C769 1.385 . S
C766 H747 0.951 . S
C766 C764 1.388 . S
C766 C767 1.366 . S
C767 C766 1.366 . S
C767 C768 1.414 . S
C767 C770 1.499 . S
C768 H748 0.950 . S
C768 C767 1.414 . S
C768 C769 1.374 . S
C769 H749 0.950 . S
C769 C765 1.385 . S
C769 C768 1.374 . S
C770 C767 1.499 . S
C770 C771 1.373 . S
C770 C772 1.389 . S
C771 H750 0.950 . S
C771 C770 1.373 . S
C771 C787 1.377 . S
C772 C770 1.389 . S
C772 C773 1.524 . S
C772 C786 1.377 . S
C773 C772 1.524 . S
C773 C774 1.397 . S
C773 C778 1.363 . S
C774 H751 0.950 . S
C774 C773 1.397 . S
C774 C775 1.334 . S
C775 H752 0.950 . S
C775 C774 1.334 . S
C775 C776 1.287 . S
C776 C775 1.287 . S
C776 C777 1.524 . S
C776 H795 0.913 . S
C777 H753 0.950 . S
C777 C776 1.524 . S
C777 C778 1.415 . S
C778 H754 0.950 . S
C778 C773 1.363 . S
C778 C777 1.415 . S
C779 H755 0.951 . S
C779 C780 1.366 . S
C779 C781 1.388 . S
C780 C779 1.366 . S
C780 C784 1.385 . S
C781 H756 0.951 . S
C781 C779 1.388 . S
C781 C782 1.366 . S
C782 C781 1.366 . S
C782 C783 1.414 . S
C782 C785 1.499 . S
C783 H757 0.950 . S
C783 C782 1.414 . S
C783 C784 1.374 . S
C784 H758 0.950 . S
C784 C780 1.385 . S
C784 C783 1.374 . S
C785 C782 1.499 . S
C785 C786 1.373 . S
C785 C787 1.389 . S
C786 H759 0.950 . S
C786 C772 1.377 . S
C786 C785 1.373 . S
C787 C771 1.377 . S
C787 C785 1.389 . S
C787 C788 1.524 . S
C788 C787 1.524 . S
C788 C789 1.397 . S
C788 C793 1.363 . S
C789 H760 0.950 . S
C789 C788 1.397 . S
C789 C790 1.334 . S
C790 H761 0.950 . S
C790 C789 1.334 . S
C790 C791 1.287 . S
C791 C790 1.287 . S
C791 C792 1.524 . S
C791 H794 0.999 . S
C792 H762 0.950 . S
C792 C791 1.524 . S
C792 C793 1.415 . S
C793 H763 0.950 . S
C793 C788 1.363 . S
C793 C792 1.415 . S
H794 C791 0.999 . S
H795 C776 0.913 . S
H796 C814 0.951 . S
H797 C816 0.951 . S
H798 C818 0.950 1_655 S
H799 C819 0.950 . S
H800 C821 0.950 . S
H801 C824 0.950 . S
H802 C825 0.950 . S
H803 C827 0.950 . S
H804 C828 0.950 . S
H805 C829 0.951 . S
H806 C831 0.951 . S
H807 C833 0.950 1_455 S
H808 C834 0.950 . S
H809 C836 0.950 . S
H810 C839 0.950 . S
H811 C840 0.950 . S
H812 C842 0.950 . S
H813 C843 0.950 . S
C814 H796 0.951 . S
C814 C815 1.366 . S
C814 C816 1.388 . S
C815 C814 1.366 . S
C815 C819 1.385 . S
C816 H797 0.951 . S
C816 C814 1.388 . S
C816 C817 1.366 . S
C817 C816 1.366 . S
C817 C818 1.414 . S
C817 C820 1.499 . S
C818 H798 0.950 1_455 S
C818 C817 1.414 . S
C818 C819 1.374 . S
C819 H799 0.950 . S
C819 C815 1.385 . S
C819 C818 1.374 . S
C820 C817 1.499 . S
C820 C821 1.373 1_455 S
C820 C822 1.389 . S
C821 H800 0.950 . S
C821 C820 1.373 1_655 S
C821 C837 1.377 . S
C822 C820 1.389 . S
C822 C823 1.524 . S
C822 C836 1.377 . S
C823 C822 1.524 . S
C823 C824 1.397 . S
C823 C828 1.363 . S
C824 H801 0.950 . S
C824 C823 1.397 . S
C824 C825 1.334 . S
C825 H802 0.950 . S
C825 C824 1.334 . S
C825 C826 1.287 . S
C826 C825 1.287 . S
C826 C827 1.524 . S
C826 H845 0.913 . S
C827 H803 0.950 . S
C827 C826 1.524 . S
C827 C828 1.415 . S
C828 H804 0.950 . S
C828 C823 1.363 . S
C828 C827 1.415 . S
C829 H805 0.951 . S
C829 C830 1.366 . S
C829 C831 1.388 . S
C830 C829 1.366 . S
C830 C834 1.385 . S
C831 H806 0.951 . S
C831 C829 1.388 . S
C831 C832 1.366 . S
C832 C831 1.366 . S
C832 C833 1.414 . S
C832 C835 1.499 . S
C833 H807 0.950 1_655 S
C833 C832 1.414 . S
C833 C834 1.374 . S
C834 H808 0.950 . S
C834 C830 1.385 . S
C834 C833 1.374 . S
C835 C832 1.499 . S
C835 C836 1.373 1_655 S
C835 C837 1.389 . S
C836 H809 0.950 . S
C836 C822 1.377 . S
C836 C835 1.373 1_455 S
C837 C821 1.377 . S
C837 C835 1.389 . S
C837 C838 1.524 . S
C838 C837 1.524 . S
C838 C839 1.397 . S
C838 C843 1.363 . S
C839 H810 0.950 . S
C839 C838 1.397 . S
C839 C840 1.334 . S
C840 H811 0.950 . S
C840 C839 1.334 . S
C840 C841 1.287 . S
C841 C840 1.287 . S
C841 C842 1.524 . S
C841 H844 0.999 . S
C842 H812 0.950 . S
C842 C841 1.524 . S
C842 C843 1.415 . S
C843 H813 0.950 . S
C843 C838 1.363 . S
C843 C842 1.415 . S
H844 C841 0.999 . S
H845 C826 0.913 . S
H846 C864 0.951 . S
H847 C866 0.951 . S
H848 C868 0.950 1_655 S
H849 C869 0.950 . S
H850 C871 0.950 . S
H851 C874 0.950 . S
H852 C875 0.950 . S
H853 C877 0.950 . S
H854 C878 0.950 . S
H855 C879 0.951 . S
H856 C881 0.951 . S
H857 C883 0.950 1_455 S
H858 C884 0.950 . S
H859 C886 0.950 . S
H860 C889 0.950 . S
H861 C890 0.950 . S
H862 C892 0.950 . S
H863 C893 0.950 . S
C864 H846 0.951 . S
C864 C865 1.366 . S
C864 C866 1.388 . S
C865 C864 1.366 . S
C865 C869 1.385 . S
C866 H847 0.951 . S
C866 C864 1.388 . S
C866 C867 1.366 . S
C867 C866 1.366 . S
C867 C868 1.414 . S
C867 C870 1.499 . S
C868 H848 0.950 1_455 S
C868 C867 1.414 . S
C868 C869 1.374 . S
C869 H849 0.950 . S
C869 C865 1.385 . S
C869 C868 1.374 . S
C870 C867 1.499 . S
C870 C871 1.373 1_455 S
C870 C872 1.389 . S
C871 H850 0.950 . S
C871 C870 1.373 1_655 S
C871 C887 1.377 . S
C872 C870 1.389 . S
C872 C873 1.524 . S
C872 C886 1.377 . S
C873 C872 1.524 . S
C873 C874 1.397 . S
C873 C878 1.363 . S
C874 H851 0.950 . S
C874 C873 1.397 . S
C874 C875 1.334 . S
C875 H852 0.950 . S
C875 C874 1.334 . S
C875 C876 1.287 . S
C876 C875 1.287 . S
C876 C877 1.524 . S
C876 H895 0.913 . S
C877 H853 0.950 . S
C877 C876 1.524 . S
C877 C878 1.415 . S
C878 H854 0.950 . S
C878 C873 1.363 . S
C878 C877 1.415 . S
C879 H855 0.951 . S
C879 C880 1.366 . S
C879 C881 1.388 . S
C880 C879 1.366 . S
C880 C884 1.385 . S
C881 H856 0.951 . S
C881 C879 1.388 . S
C881 C882 1.366 . S
C882 C881 1.366 . S
C882 C883 1.414 . S
C882 C885 1.499 . S
C883 H857 0.950 1_655 S
C883 C882 1.414 . S
C883 C884 1.374 . S
C884 H858 0.950 . S
C884 C880 1.385 . S
C884 C883 1.374 . S
C885 C882 1.499 . S
C885 C886 1.373 1_655 S
C885 C887 1.389 . S
C886 H859 0.950 . S
C886 C872 1.377 . S
C886 C885 1.373 1_455 S
C887 C871 1.377 . S
C887 C885 1.389 . S
C887 C888 1.524 . S
C888 C887 1.524 . S
C888 C889 1.397 . S
C888 C893 1.363 . S
C889 H860 0.950 . S
C889 C888 1.397 . S
C889 C890 1.334 . S
C890 H861 0.950 . S
C890 C889 1.334 . S
C890 C891 1.287 . S
C891 C890 1.287 . S
C891 C892 1.524 . S
C891 H894 0.999 . S
C892 H862 0.950 . S
C892 C891 1.524 . S
C892 C893 1.415 . S
C893 H863 0.950 . S
C893 C888 1.363 . S
C893 C892 1.415 . S
H894 C891 0.999 . S
H895 C876 0.913 . S
H896 C914 0.951 . S
H897 C916 0.951 . S
H898 C918 0.950 . S
H899 C919 0.950 . S
H900 C921 0.950 . S
H901 C924 0.950 . S
H902 C925 0.950 . S
H903 C927 0.950 . S
H904 C928 0.950 . S
H905 C929 0.951 . S
H906 C931 0.951 . S
H907 C933 0.950 . S
H908 C934 0.950 . S
H909 C936 0.950 . S
H910 C939 0.950 . S
H911 C940 0.950 . S
H912 C942 0.950 . S
H913 C943 0.950 . S
C914 H896 0.951 . S
C914 C915 1.366 . S
C914 C916 1.388 . S
C915 C914 1.366 . S
C915 C919 1.385 . S
C916 H897 0.951 . S
C916 C914 1.388 . S
C916 C917 1.366 . S
C917 C916 1.366 . S
C917 C918 1.414 . S
C917 C920 1.499 . S
C918 H898 0.950 . S
C918 C917 1.414 . S
C918 C919 1.374 . S
C919 H899 0.950 . S
C919 C915 1.385 . S
C919 C918 1.374 . S
C920 C917 1.499 . S
C920 C921 1.373 1_545 S
C920 C922 1.389 . S
C921 H900 0.950 . S
C921 C920 1.373 1_565 S
C921 C937 1.377 . S
C922 C920 1.389 . S
C922 C923 1.524 . S
C922 C936 1.377 . S
C923 C922 1.524 . S
C923 C924 1.397 . S
C923 C928 1.363 . S
C924 H901 0.950 . S
C924 C923 1.397 . S
C924 C925 1.334 . S
C925 H902 0.950 . S
C925 C924 1.334 . S
C925 C926 1.287 . S
C926 C925 1.287 . S
C926 C927 1.524 . S
C926 H945 0.913 . S
C927 H903 0.950 . S
C927 C926 1.524 . S
C927 C928 1.415 . S
C928 H904 0.950 . S
C928 C923 1.363 . S
C928 C927 1.415 . S
C929 H905 0.951 . S
C929 C930 1.366 . S
C929 C931 1.388 . S
C930 C929 1.366 . S
C930 C934 1.385 . S
C931 H906 0.951 . S
C931 C929 1.388 . S
C931 C932 1.366 . S
C932 C931 1.366 . S
C932 C933 1.414 . S
C932 C935 1.499 . S
C933 H907 0.950 . S
C933 C932 1.414 . S
C933 C934 1.374 . S
C934 H908 0.950 . S
C934 C930 1.385 . S
C934 C933 1.374 . S
C935 C932 1.499 . S
C935 C936 1.373 1_565 S
C935 C937 1.389 . S
C936 H909 0.950 . S
C936 C922 1.377 . S
C936 C935 1.373 1_545 S
C937 C921 1.377 . S
C937 C935 1.389 . S
C937 C938 1.524 . S
C938 C937 1.524 . S
C938 C939 1.397 . S
C938 C943 1.363 . S
C939 H910 0.950 . S
C939 C938 1.397 . S
C939 C940 1.334 . S
C940 H911 0.950 . S
C940 C939 1.334 . S
C940 C941 1.287 . S
C941 C940 1.287 . S
C941 C942 1.524 . S
C941 H944 0.999 . S
C942 H912 0.950 . S
C942 C941 1.524 . S
C942 C943 1.415 . S
C943 H913 0.950 . S
C943 C938 1.363 . S
C943 C942 1.415 . S
H944 C941 0.999 . S
H945 C926 0.913 . S
H946 C964 0.951 . S
H947 C966 0.951 . S
H948 C968 0.950 . S
H949 C969 0.950 . S
H950 C971 0.950 . S
H951 C974 0.950 . S
H952 C975 0.950 . S
H953 C977 0.950 . S
H954 C978 0.950 . S
H955 C979 0.951 . S
H956 C981 0.951 . S
H957 C983 0.950 . S
H958 C984 0.950 . S
H959 C986 0.950 . S
H960 C989 0.950 . S
H961 C990 0.950 . S
H962 C992 0.950 . S
H963 C993 0.950 . S
C964 H946 0.951 . S
C964 C965 1.366 . S
C964 C966 1.388 . S
C965 C964 1.366 . S
C965 C969 1.385 . S
C966 H947 0.951 . S
C966 C964 1.388 . S
C966 C967 1.366 . S
C967 C966 1.366 . S
C967 C968 1.414 . S
C967 C970 1.499 . S
C968 H948 0.950 . S
C968 C967 1.414 . S
C968 C969 1.374 . S
C969 H949 0.950 . S
C969 C965 1.385 . S
C969 C968 1.374 . S
C970 C967 1.499 . S
C970 C971 1.373 . S
C970 C972 1.389 . S
C971 H950 0.950 . S
C971 C970 1.373 . S
C971 C987 1.377 . S
C972 C970 1.389 . S
C972 C973 1.524 . S
C972 C986 1.377 . S
C973 C972 1.524 . S
C973 C974 1.397 . S
C973 C978 1.363 . S
C974 H951 0.950 . S
C974 C973 1.397 . S
C974 C975 1.334 . S
C975 H952 0.950 . S
C975 C974 1.334 . S
C975 C976 1.287 . S
C976 C975 1.287 . S
C976 C977 1.524 . S
C976 H995 0.913 . S
C977 H953 0.950 . S
C977 C976 1.524 . S
C977 C978 1.415 . S
C978 H954 0.950 . S
C978 C973 1.363 . S
C978 C977 1.415 . S
C979 H955 0.951 . S
C979 C980 1.366 . S
C979 C981 1.388 . S
C980 C979 1.366 . S
C980 C984 1.385 . S
C981 H956 0.951 . S
C981 C979 1.388 . S
C981 C982 1.366 . S
C982 C981 1.366 . S
C982 C983 1.414 . S
C982 C985 1.499 . S
C983 H957 0.950 . S
C983 C982 1.414 . S
C983 C984 1.374 . S
C984 H958 0.950 . S
C984 C980 1.385 . S
C984 C983 1.374 . S
C985 C982 1.499 . S
C985 C986 1.373 . S
C985 C987 1.389 . S
C986 H959 0.950 . S
C986 C972 1.377 . S
C986 C985 1.373 . S
C987 C971 1.377 . S
C987 C985 1.389 . S
C987 C988 1.524 . S
C988 C987 1.524 . S
C988 C989 1.397 . S
C988 C993 1.363 . S
C989 H960 0.950 . S
C989 C988 1.397 . S
C989 C990 1.334 . S
C990 H961 0.950 . S
C990 C989 1.334 . S
C990 C991 1.287 . S
C991 C990 1.287 . S
C991 C992 1.524 . S
C991 H994 0.999 . S
C992 H962 0.950 . S
C992 C991 1.524 . S
C992 C993 1.415 . S
C993 H963 0.950 . S
C993 C988 1.363 . S
C993 C992 1.415 . S
H994 C991 0.999 . S
H995 C976 0.913 . S
H996 C1014 0.951 . S
H997 C1016 0.951 . S
H998 C1018 0.950 . S
H999 C1019 0.950 . S
H1000 C1021 0.950 . S
H1001 C1024 0.950 . S
H1002 C1025 0.950 . S
H1003 C1027 0.950 . S
H1004 C1028 0.950 . S
H1005 C1029 0.951 . S
H1006 C1031 0.951 . S
H1007 C1033 0.950 . S
H1008 C1034 0.950 . S
H1009 C1036 0.950 . S
H1010 C1039 0.950 . S
H1011 C1040 0.950 . S
H1012 C1042 0.950 1_565 S
H1013 C1043 0.950 . S
C1014 H996 0.951 . S
C1014 C1015 1.366 . S
C1014 C1016 1.388 . S
C1015 C1014 1.366 . S
C1015 C1019 1.385 . S
C1016 H997 0.951 . S
C1016 C1014 1.388 . S
C1016 C1017 1.366 . S
C1017 C1016 1.366 . S
C1017 C1018 1.414 . S
C1017 C1020 1.499 . S
C1018 H998 0.950 . S
C1018 C1017 1.414 . S
C1018 C1019 1.374 . S
C1019 H999 0.950 . S
C1019 C1015 1.385 . S
C1019 C1018 1.374 . S
C1020 C1017 1.499 . S
C1020 C1021 1.373 . S
C1020 C1022 1.389 . S
C1021 H1000 0.950 . S
C1021 C1020 1.373 . S
C1021 C1037 1.377 . S
C1022 C1020 1.389 . S
C1022 C1023 1.524 . S
C1022 C1036 1.377 . S
C1023 C1022 1.524 . S
C1023 C1024 1.397 . S
C1023 C1028 1.363 . S
C1024 H1001 0.950 . S
C1024 C1023 1.397 . S
C1024 C1025 1.334 . S
C1025 H1002 0.950 . S
C1025 C1024 1.334 . S
C1025 C1026 1.287 . S
C1026 C1025 1.287 . S
C1026 C1027 1.524 . S
C1026 H1045 0.913 . S
C1027 H1003 0.950 . S
C1027 C1026 1.524 . S
C1027 C1028 1.415 . S
C1028 H1004 0.950 . S
C1028 C1023 1.363 . S
C1028 C1027 1.415 . S
C1029 H1005 0.951 . S
C1029 C1030 1.366 . S
C1029 C1031 1.388 . S
C1030 C1029 1.366 . S
C1030 C1034 1.385 . S
C1031 H1006 0.951 . S
C1031 C1029 1.388 . S
C1031 C1032 1.366 . S
C1032 C1031 1.366 . S
C1032 C1033 1.414 . S
C1032 C1035 1.499 . S
C1033 H1007 0.950 . S
C1033 C1032 1.414 . S
C1033 C1034 1.374 . S
C1034 H1008 0.950 . S
C1034 C1030 1.385 . S
C1034 C1033 1.374 . S
C1035 C1032 1.499 . S
C1035 C1036 1.373 . S
C1035 C1037 1.389 . S
C1036 H1009 0.950 . S
C1036 C1022 1.377 . S
C1036 C1035 1.373 . S
C1037 C1021 1.377 . S
C1037 C1035 1.389 . S
C1037 C1038 1.524 . S
C1038 C1037 1.524 . S
C1038 C1039 1.397 . S
C1038 C1043 1.363 . S
C1039 H1010 0.950 . S
C1039 C1038 1.397 . S
C1039 C1040 1.334 . S
C1040 H1011 0.950 . S
C1040 C1039 1.334 . S
C1040 C1041 1.287 . S
C1041 C1040 1.287 . S
C1041 C1042 1.524 . S
C1041 H1044 0.999 . S
C1042 H1012 0.950 1_545 S
C1042 C1041 1.524 . S
C1042 C1043 1.415 . S
C1043 H1013 0.950 . S
C1043 C1038 1.363 . S
C1043 C1042 1.415 . S
H1044 C1041 0.999 . S
H1045 C1026 0.913 . S
H1046 C1064 0.951 . S
H1047 C1066 0.951 . S
H1048 C1068 0.950 . S
H1049 C1069 0.950 . S
H1050 C1071 0.950 . S
H1051 C1074 0.950 . S
H1052 C1075 0.950 . S
H1053 C1077 0.950 . S
H1054 C1078 0.950 . S
H1055 C1079 0.951 . S
H1056 C1081 0.951 . S
H1057 C1083 0.950 . S
H1058 C1084 0.950 . S
H1059 C1086 0.950 . S
H1060 C1089 0.950 . S
H1061 C1090 0.950 . S
H1062 C1092 0.950 . S
H1063 C1093 0.950 . S
C1064 H1046 0.951 . S
C1064 C1065 1.366 . S
C1064 C1066 1.388 . S
C1065 C1064 1.366 . S
C1065 C1069 1.385 . S
C1066 H1047 0.951 . S
C1066 C1064 1.388 . S
C1066 C1067 1.366 . S
C1067 C1066 1.366 . S
C1067 C1068 1.414 . S
C1067 C1070 1.499 . S
C1068 H1048 0.950 . S
C1068 C1067 1.414 . S
C1068 C1069 1.374 . S
C1069 H1049 0.950 . S
C1069 C1065 1.385 . S
C1069 C1068 1.374 . S
C1070 C1067 1.499 . S
C1070 C1071 1.373 . S
C1070 C1072 1.389 . S
C1071 H1050 0.950 . S
C1071 C1070 1.373 . S
C1071 C1087 1.377 . S
C1072 C1070 1.389 . S
C1072 C1073 1.524 . S
C1072 C1086 1.377 . S
C1073 C1072 1.524 . S
C1073 C1074 1.397 . S
C1073 C1078 1.363 . S
C1074 H1051 0.950 . S
C1074 C1073 1.397 . S
C1074 C1075 1.334 . S
C1075 H1052 0.950 . S
C1075 C1074 1.334 . S
C1075 C1076 1.287 . S
C1076 C1075 1.287 . S
C1076 C1077 1.524 . S
C1076 H1095 0.913 . S
C1077 H1053 0.950 . S
C1077 C1076 1.524 . S
C1077 C1078 1.415 . S
C1078 H1054 0.950 . S
C1078 C1073 1.363 . S
C1078 C1077 1.415 . S
C1079 H1055 0.951 . S
C1079 C1080 1.366 . S
C1079 C1081 1.388 . S
C1080 C1079 1.366 . S
C1080 C1084 1.385 . S
C1081 H1056 0.951 . S
C1081 C1079 1.388 . S
C1081 C1082 1.366 . S
C1082 C1081 1.366 . S
C1082 C1083 1.414 . S
C1082 C1085 1.499 . S
C1083 H1057 0.950 . S
C1083 C1082 1.414 . S
C1083 C1084 1.374 . S
C1084 H1058 0.950 . S
C1084 C1080 1.385 . S
C1084 C1083 1.374 . S
C1085 C1082 1.499 . S
C1085 C1086 1.373 . S
C1085 C1087 1.389 . S
C1086 H1059 0.950 . S
C1086 C1072 1.377 . S
C1086 C1085 1.373 . S
C1087 C1071 1.377 . S
C1087 C1085 1.389 . S
C1087 C1088 1.524 . S
C1088 C1087 1.524 . S
C1088 C1089 1.397 . S
C1088 C1093 1.363 . S
C1089 H1060 0.950 . S
C1089 C1088 1.397 . S
C1089 C1090 1.334 . S
C1090 H1061 0.950 . S
C1090 C1089 1.334 . S
C1090 C1091 1.287 . S
C1091 C1090 1.287 . S
C1091 C1092 1.524 . S
C1091 H1094 0.999 . S
C1092 H1062 0.950 . S
C1092 C1091 1.524 . S
C1092 C1093 1.415 . S
C1093 H1063 0.950 . S
C1093 C1088 1.363 . S
C1093 C1092 1.415 . S
H1094 C1091 0.999 . S
H1095 C1076 0.913 . S
H1096 C1114 0.951 . S
H1097 C1116 0.951 . S
H1098 C1118 0.950 . S
H1099 C1119 0.950 . S
H1100 C1121 0.950 . S
H1101 C1124 0.950 . S
H1102 C1125 0.950 . S
H1103 C1127 0.950 . S
H1104 C1128 0.950 . S
H1105 C1129 0.951 . S
H1106 C1131 0.951 . S
H1107 C1133 0.950 . S
H1108 C1134 0.950 . S
H1109 C1136 0.950 . S
H1110 C1139 0.950 . S
H1111 C1140 0.950 . S
H1112 C1142 0.950 1_565 S
H1113 C1143 0.950 . S
C1114 H1096 0.951 . S
C1114 C1115 1.366 . S
C1114 C1116 1.388 . S
C1115 C1114 1.366 . S
C1115 C1119 1.385 . S
C1116 H1097 0.951 . S
C1116 C1114 1.388 . S
C1116 C1117 1.366 . S
C1117 C1116 1.366 . S
C1117 C1118 1.414 . S
C1117 C1120 1.499 . S
C1118 H1098 0.950 . S
C1118 C1117 1.414 . S
C1118 C1119 1.374 . S
C1119 H1099 0.950 . S
C1119 C1115 1.385 . S
C1119 C1118 1.374 . S
C1120 C1117 1.499 . S
C1120 C1121 1.373 . S
C1120 C1122 1.389 . S
C1121 H1100 0.950 . S
C1121 C1120 1.373 . S
C1121 C1137 1.377 . S
C1122 C1120 1.389 . S
C1122 C1123 1.524 . S
C1122 C1136 1.377 . S
C1123 C1122 1.524 . S
C1123 C1124 1.397 . S
C1123 C1128 1.363 . S
C1124 H1101 0.950 . S
C1124 C1123 1.397 . S
C1124 C1125 1.334 . S
C1125 H1102 0.950 . S
C1125 C1124 1.334 . S
C1125 C1126 1.287 . S
C1126 C1125 1.287 . S
C1126 C1127 1.524 . S
C1126 H1145 0.913 . S
C1127 H1103 0.950 . S
C1127 C1126 1.524 . S
C1127 C1128 1.415 . S
C1128 H1104 0.950 . S
C1128 C1123 1.363 . S
C1128 C1127 1.415 . S
C1129 H1105 0.951 . S
C1129 C1130 1.366 . S
C1129 C1131 1.388 . S
C1130 C1129 1.366 . S
C1130 C1134 1.385 . S
C1131 H1106 0.951 . S
C1131 C1129 1.388 . S
C1131 C1132 1.366 . S
C1132 C1131 1.366 . S
C1132 C1133 1.414 . S
C1132 C1135 1.499 . S
C1133 H1107 0.950 . S
C1133 C1132 1.414 . S
C1133 C1134 1.374 . S
C1134 H1108 0.950 . S
C1134 C1130 1.385 . S
C1134 C1133 1.374 . S
C1135 C1132 1.499 . S
C1135 C1136 1.373 . S
C1135 C1137 1.389 . S
C1136 H1109 0.950 . S
C1136 C1122 1.377 . S
C1136 C1135 1.373 . S
C1137 C1121 1.377 . S
C1137 C1135 1.389 . S
C1137 C1138 1.524 . S
C1138 C1137 1.524 . S
C1138 C1139 1.397 . S
C1138 C1143 1.363 . S
C1139 H1110 0.950 . S
C1139 C1138 1.397 . S
C1139 C1140 1.334 . S
C1140 H1111 0.950 . S
C1140 C1139 1.334 . S
C1140 C1141 1.287 1_545 S
C1141 C1140 1.287 1_565 S
C1141 C1142 1.524 1_565 S
C1141 H1144 0.999 . S
C1142 H1112 0.950 1_545 S
C1142 C1141 1.524 1_545 S
C1142 C1143 1.415 . S
C1143 H1113 0.950 . S
C1143 C1138 1.363 . S
C1143 C1142 1.415 . S
H1144 C1141 0.999 . S
H1145 C1126 0.913 . S
H1146 C1164 0.951 . S
H1147 C1166 0.951 . S
H1148 C1168 0.950 . S
H1149 C1169 0.950 . S
H1150 C1171 0.950 . S
H1151 C1174 0.950 . S
H1152 C1175 0.950 . S
H1153 C1177 0.950 . S
H1154 C1178 0.950 . S
H1155 C1179 0.951 . S
H1156 C1181 0.951 . S
H1157 C1183 0.950 . S
H1158 C1184 0.950 . S
H1159 C1186 0.950 . S
H1160 C1189 0.950 . S
H1161 C1190 0.950 . S
H1162 C1192 0.950 . S
H1163 C1193 0.950 . S
C1164 H1146 0.951 . S
C1164 C1165 1.366 . S
C1164 C1166 1.388 . S
C1165 C1164 1.366 . S
C1165 C1169 1.385 . S
C1166 H1147 0.951 . S
C1166 C1164 1.388 . S
C1166 C1167 1.366 . S
C1167 C1166 1.366 . S
C1167 C1168 1.414 . S
C1167 C1170 1.499 . S
C1168 H1148 0.950 . S
C1168 C1167 1.414 . S
C1168 C1169 1.374 . S
C1169 H1149 0.950 . S
C1169 C1165 1.385 . S
C1169 C1168 1.374 . S
C1170 C1167 1.499 . S
C1170 C1171 1.373 . S
C1170 C1172 1.389 . S
C1171 H1150 0.950 . S
C1171 C1170 1.373 . S
C1171 C1187 1.377 . S
C1172 C1170 1.389 . S
C1172 C1173 1.524 . S
C1172 C1186 1.377 . S
C1173 C1172 1.524 . S
C1173 C1174 1.397 . S
C1173 C1178 1.363 . S
C1174 H1151 0.950 . S
C1174 C1173 1.397 . S
C1174 C1175 1.334 . S
C1175 H1152 0.950 . S
C1175 C1174 1.334 . S
C1175 C1176 1.287 . S
C1176 C1175 1.287 . S
C1176 C1177 1.524 . S
C1176 H1195 0.913 . S
C1177 H1153 0.950 . S
C1177 C1176 1.524 . S
C1177 C1178 1.415 . S
C1178 H1154 0.950 . S
C1178 C1173 1.363 . S
C1178 C1177 1.415 . S
C1179 H1155 0.951 . S
C1179 C1180 1.366 . S
C1179 C1181 1.388 . S
C1180 C1179 1.366 . S
C1180 C1184 1.385 . S
C1181 H1156 0.951 . S
C1181 C1179 1.388 . S
C1181 C1182 1.366 . S
C1182 C1181 1.366 . S
C1182 C1183 1.414 . S
C1182 C1185 1.499 . S
C1183 H1157 0.950 . S
C1183 C1182 1.414 . S
C1183 C1184 1.374 . S
C1184 H1158 0.950 . S
C1184 C1180 1.385 . S
C1184 C1183 1.374 . S
C1185 C1182 1.499 . S
C1185 C1186 1.373 . S
C1185 C1187 1.389 . S
C1186 H1159 0.950 . S
C1186 C1172 1.377 . S
C1186 C1185 1.373 . S
C1187 C1171 1.377 . S
C1187 C1185 1.389 . S
C1187 C1188 1.524 . S
C1188 C1187 1.524 . S
C1188 C1189 1.397 . S
C1188 C1193 1.363 . S
C1189 H1160 0.950 . S
C1189 C1188 1.397 . S
C1189 C1190 1.334 . S
C1190 H1161 0.950 . S
C1190 C1189 1.334 . S
C1190 C1191 1.287 . S
C1191 C1190 1.287 . S
C1191 C1192 1.524 . S
C1191 H1194 0.999 . S
C1192 H1162 0.950 . S
C1192 C1191 1.524 . S
C1192 C1193 1.415 . S
C1193 H1163 0.950 . S
C1193 C1188 1.363 . S
C1193 C1192 1.415 . S
H1194 C1191 0.999 . S
H1195 C1176 0.913 . S
H1196 C1214 0.951 . S
H1197 C1216 0.951 . S
H1198 C1218 0.950 . S
H1199 C1219 0.950 . S
H1200 C1221 0.950 . S
H1201 C1224 0.950 . S
H1202 C1225 0.950 . S
H1203 C1227 0.950 . S
H1204 C1228 0.950 . S
H1205 C1229 0.951 . S
H1206 C1231 0.951 . S
H1207 C1233 0.950 . S
H1208 C1234 0.950 . S
H1209 C1236 0.950 . S
H1210 C1239 0.950 . S
H1211 C1240 0.950 . S
H1212 C1242 0.950 1_455 S
H1213 C1243 0.950 . S
C1214 H1196 0.951 . S
C1214 C1215 1.366 . S
C1214 C1216 1.388 . S
C1215 C1214 1.366 . S
C1215 C1219 1.385 . S
C1216 H1197 0.951 . S
C1216 C1214 1.388 . S
C1216 C1217 1.366 . S
C1217 C1216 1.366 . S
C1217 C1218 1.414 . S
C1217 C1220 1.499 . S
C1218 H1198 0.950 . S
C1218 C1217 1.414 . S
C1218 C1219 1.374 . S
C1219 H1199 0.950 . S
C1219 C1215 1.385 . S
C1219 C1218 1.374 . S
C1220 C1217 1.499 . S
C1220 C1221 1.373 . S
C1220 C1222 1.389 . S
C1221 H1200 0.950 . S
C1221 C1220 1.373 . S
C1221 C1237 1.377 . S
C1222 C1220 1.389 . S
C1222 C1223 1.524 . S
C1222 C1236 1.377 . S
C1223 C1222 1.524 . S
C1223 C1224 1.397 . S
C1223 C1228 1.363 . S
C1224 H1201 0.950 . S
C1224 C1223 1.397 . S
C1224 C1225 1.334 . S
C1225 H1202 0.950 . S
C1225 C1224 1.334 . S
C1225 C1226 1.287 . S
C1226 C1225 1.287 . S
C1226 C1227 1.524 . S
C1226 H1245 0.913 . S
C1227 H1203 0.950 . S
C1227 C1226 1.524 . S
C1227 C1228 1.415 . S
C1228 H1204 0.950 . S
C1228 C1223 1.363 . S
C1228 C1227 1.415 . S
C1229 H1205 0.951 . S
C1229 C1230 1.366 . S
C1229 C1231 1.388 . S
C1230 C1229 1.366 . S
C1230 C1234 1.385 . S
C1231 H1206 0.951 . S
C1231 C1229 1.388 . S
C1231 C1232 1.366 . S
C1232 C1231 1.366 . S
C1232 C1233 1.414 . S
C1232 C1235 1.499 . S
C1233 H1207 0.950 . S
C1233 C1232 1.414 . S
C1233 C1234 1.374 . S
C1234 H1208 0.950 . S
C1234 C1230 1.385 . S
C1234 C1233 1.374 . S
C1235 C1232 1.499 . S
C1235 C1236 1.373 . S
C1235 C1237 1.389 . S
C1236 H1209 0.950 . S
C1236 C1222 1.377 . S
C1236 C1235 1.373 . S
C1237 C1221 1.377 . S
C1237 C1235 1.389 . S
C1237 C1238 1.524 . S
C1238 C1237 1.524 . S
C1238 C1239 1.397 . S
C1238 C1243 1.363 . S
C1239 H1210 0.950 . S
C1239 C1238 1.397 . S
C1239 C1240 1.334 . S
C1240 H1211 0.950 . S
C1240 C1239 1.334 . S
C1240 C1241 1.287 1_655 S
C1241 C1240 1.287 1_455 S
C1241 C1242 1.524 1_455 S
C1241 H1244 0.999 . S
C1242 H1212 0.950 1_655 S
C1242 C1241 1.524 1_655 S
C1242 C1243 1.415 . S
C1243 H1213 0.950 . S
C1243 C1238 1.363 . S
C1243 C1242 1.415 . S
H1244 C1241 0.999 . S
H1245 C1226 0.913 . S
H1246 C1264 0.951 . S
H1247 C1266 0.951 . S
H1248 C1268 0.950 . S
H1249 C1269 0.950 . S
H1250 C1271 0.950 . S
H1251 C1274 0.950 . S
H1252 C1275 0.950 . S
H1253 C1277 0.950 . S
H1254 C1278 0.950 . S
H1255 C1279 0.951 . S
H1256 C1281 0.951 . S
H1257 C1283 0.950 . S
H1258 C1284 0.950 . S
H1259 C1286 0.950 . S
H1260 C1289 0.950 . S
H1261 C1290 0.950 . S
H1262 C1292 0.950 . S
H1263 C1293 0.950 . S
C1264 H1246 0.951 . S
C1264 C1265 1.366 . S
C1264 C1266 1.388 . S
C1265 C1264 1.366 . S
C1265 C1269 1.385 . S
C1266 H1247 0.951 . S
C1266 C1264 1.388 . S
C1266 C1267 1.366 . S
C1267 C1266 1.366 . S
C1267 C1268 1.414 . S
C1267 C1270 1.499 . S
C1268 H1248 0.950 . S
C1268 C1267 1.414 . S
C1268 C1269 1.374 . S
C1269 H1249 0.950 . S
C1269 C1265 1.385 . S
C1269 C1268 1.374 . S
C1270 C1267 1.499 . S
C1270 C1271 1.373 . S
C1270 C1272 1.389 . S
C1271 H1250 0.950 . S
C1271 C1270 1.373 . S
C1271 C1287 1.377 . S
C1272 C1270 1.389 . S
C1272 C1273 1.524 . S
C1272 C1286 1.377 . S
C1273 C1272 1.524 . S
C1273 C1274 1.397 . S
C1273 C1278 1.363 . S
C1274 H1251 0.950 . S
C1274 C1273 1.397 . S
C1274 C1275 1.334 . S
C1275 H1252 0.950 . S
C1275 C1274 1.334 . S
C1275 C1276 1.287 . S
C1276 C1275 1.287 . S
C1276 C1277 1.524 . S
C1276 H1295 0.913 . S
C1277 H1253 0.950 . S
C1277 C1276 1.524 . S
C1277 C1278 1.415 . S
C1278 H1254 0.950 . S
C1278 C1273 1.363 . S
C1278 C1277 1.415 . S
C1279 H1255 0.951 . S
C1279 C1280 1.366 . S
C1279 C1281 1.388 . S
C1280 C1279 1.366 . S
C1280 C1284 1.385 . S
C1281 H1256 0.951 . S
C1281 C1279 1.388 . S
C1281 C1282 1.366 . S
C1282 C1281 1.366 . S
C1282 C1283 1.414 . S
C1282 C1285 1.499 . S
C1283 H1257 0.950 . S
C1283 C1282 1.414 . S
C1283 C1284 1.374 . S
C1284 H1258 0.950 . S
C1284 C1280 1.385 . S
C1284 C1283 1.374 . S
C1285 C1282 1.499 . S
C1285 C1286 1.373 . S
C1285 C1287 1.389 . S
C1286 H1259 0.950 . S
C1286 C1272 1.377 . S
C1286 C1285 1.373 . S
C1287 C1271 1.377 . S
C1287 C1285 1.389 . S
C1287 C1288 1.524 . S
C1288 C1287 1.524 . S
C1288 C1289 1.397 . S
C1288 C1293 1.363 . S
C1289 H1260 0.950 . S
C1289 C1288 1.397 . S
C1289 C1290 1.334 . S
C1290 H1261 0.950 . S
C1290 C1289 1.334 . S
C1290 C1291 1.287 . S
C1291 C1290 1.287 . S
C1291 C1292 1.524 . S
C1291 H1294 0.999 . S
C1292 H1262 0.950 . S
C1292 C1291 1.524 . S
C1292 C1293 1.415 . S
C1293 H1263 0.950 . S
C1293 C1288 1.363 . S
C1293 C1292 1.415 . S
H1294 C1291 0.999 . S
H1295 C1276 0.913 . S
H1296 C1314 0.951 . S
H1297 C1316 0.951 . S
H1298 C1318 0.950 . S
H1299 C1319 0.950 . S
H1300 C1321 0.950 . S
H1301 C1324 0.950 . S
H1302 C1325 0.950 . S
H1303 C1327 0.950 . S
H1304 C1328 0.950 . S
H1305 C1329 0.951 . S
H1306 C1331 0.951 . S
H1307 C1333 0.950 . S
H1308 C1334 0.950 . S
H1309 C1336 0.950 . S
H1310 C1339 0.950 . S
H1311 C1340 0.950 . S
H1312 C1342 0.950 . S
H1313 C1343 0.950 . S
C1314 H1296 0.951 . S
C1314 C1315 1.366 . S
C1314 C1316 1.388 . S
C1315 C1314 1.366 . S
C1315 C1319 1.385 . S
C1316 H1297 0.951 . S
C1316 C1314 1.388 . S
C1316 C1317 1.366 . S
C1317 C1316 1.366 . S
C1317 C1318 1.414 . S
C1317 C1320 1.499 . S
C1318 H1298 0.950 . S
C1318 C1317 1.414 . S
C1318 C1319 1.374 . S
C1319 H1299 0.950 . S
C1319 C1315 1.385 . S
C1319 C1318 1.374 . S
C1320 C1317 1.499 . S
C1320 C1321 1.373 . S
C1320 C1322 1.389 . S
C1321 H1300 0.950 . S
C1321 C1320 1.373 . S
C1321 C1337 1.377 . S
C1322 C1320 1.389 . S
C1322 C1323 1.524 . S
C1322 C1336 1.377 . S
C1323 C1322 1.524 . S
C1323 C1324 1.397 . S
C1323 C1328 1.363 . S
C1324 H1301 0.950 . S
C1324 C1323 1.397 . S
C1324 C1325 1.334 . S
C1325 H1302 0.950 . S
C1325 C1324 1.334 . S
C1325 C1326 1.287 . S
C1326 C1325 1.287 . S
C1326 C1327 1.524 . S
C1326 H1345 0.913 . S
C1327 H1303 0.950 . S
C1327 C1326 1.524 . S
C1327 C1328 1.415 . S
C1328 H1304 0.950 . S
C1328 C1323 1.363 . S
C1328 C1327 1.415 . S
C1329 H1305 0.951 . S
C1329 C1330 1.366 . S
C1329 C1331 1.388 . S
C1330 C1329 1.366 . S
C1330 C1334 1.385 . S
C1331 H1306 0.951 . S
C1331 C1329 1.388 . S
C1331 C1332 1.366 . S
C1332 C1331 1.366 . S
C1332 C1333 1.414 . S
C1332 C1335 1.499 . S
C1333 H1307 0.950 . S
C1333 C1332 1.414 . S
C1333 C1334 1.374 . S
C1334 H1308 0.950 . S
C1334 C1330 1.385 . S
C1334 C1333 1.374 . S
C1335 C1332 1.499 . S
C1335 C1336 1.373 . S
C1335 C1337 1.389 . S
C1336 H1309 0.950 . S
C1336 C1322 1.377 . S
C1336 C1335 1.373 . S
C1337 C1321 1.377 . S
C1337 C1335 1.389 . S
C1337 C1338 1.524 . S
C1338 C1337 1.524 . S
C1338 C1339 1.397 . S
C1338 C1343 1.363 . S
C1339 H1310 0.950 . S
C1339 C1338 1.397 . S
C1339 C1340 1.334 . S
C1340 H1311 0.950 . S
C1340 C1339 1.334 . S
C1340 C1341 1.287 . S
C1341 C1340 1.287 . S
C1341 C1342 1.524 . S
C1341 H1344 0.999 . S
C1342 H1312 0.950 . S
C1342 C1341 1.524 . S
C1342 C1343 1.415 . S
C1343 H1313 0.950 . S
C1343 C1338 1.363 . S
C1343 C1342 1.415 . S
H1344 C1341 0.999 . S
H1345 C1326 0.913 . S
H1346 C1364 0.951 . S
H1347 C1366 0.951 . S
H1348 C1368 0.950 . S
H1349 C1369 0.950 . S
H1350 C1371 0.950 . S
H1351 C1374 0.950 . S
H1352 C1375 0.950 . S
H1353 C1377 0.950 . S
H1354 C1378 0.950 . S
H1355 C1379 0.951 . S
H1356 C1381 0.951 . S
H1357 C1383 0.950 . S
H1358 C1384 0.950 . S
H1359 C1386 0.950 . S
H1360 C1389 0.950 . S
H1361 C1390 0.950 . S
H1362 C1392 0.950 . S
H1363 C1393 0.950 . S
C1364 H1346 0.951 . S
C1364 C1365 1.366 . S
C1364 C1366 1.388 . S
C1365 C1364 1.366 . S
C1365 C1369 1.385 . S
C1366 H1347 0.951 . S
C1366 C1364 1.388 . S
C1366 C1367 1.366 . S
C1367 C1366 1.366 . S
C1367 C1368 1.414 . S
C1367 C1370 1.499 . S
C1368 H1348 0.950 . S
C1368 C1367 1.414 . S
C1368 C1369 1.374 . S
C1369 H1349 0.950 . S
C1369 C1365 1.385 . S
C1369 C1368 1.374 . S
C1370 C1367 1.499 . S
C1370 C1371 1.373 1_455 S
C1370 C1372 1.389 . S
C1371 H1350 0.950 . S
C1371 C1370 1.373 1_655 S
C1371 C1387 1.377 . S
C1372 C1370 1.389 . S
C1372 C1373 1.524 . S
C1372 C1386 1.377 . S
C1373 C1372 1.524 . S
C1373 C1374 1.397 . S
C1373 C1378 1.363 . S
C1374 H1351 0.950 . S
C1374 C1373 1.397 . S
C1374 C1375 1.334 . S
C1375 H1352 0.950 . S
C1375 C1374 1.334 . S
C1375 C1376 1.287 . S
C1376 C1375 1.287 . S
C1376 C1377 1.524 . S
C1376 H1395 0.913 . S
C1377 H1353 0.950 . S
C1377 C1376 1.524 . S
C1377 C1378 1.415 . S
C1378 H1354 0.950 . S
C1378 C1373 1.363 . S
C1378 C1377 1.415 . S
C1379 H1355 0.951 . S
C1379 C1380 1.366 . S
C1379 C1381 1.388 . S
C1380 C1379 1.366 . S
C1380 C1384 1.385 . S
C1381 H1356 0.951 . S
C1381 C1379 1.388 . S
C1381 C1382 1.366 . S
C1382 C1381 1.366 . S
C1382 C1383 1.414 . S
C1382 C1385 1.499 . S
C1383 H1357 0.950 . S
C1383 C1382 1.414 . S
C1383 C1384 1.374 . S
C1384 H1358 0.950 . S
C1384 C1380 1.385 . S
C1384 C1383 1.374 . S
C1385 C1382 1.499 . S
C1385 C1386 1.373 1_655 S
C1385 C1387 1.389 . S
C1386 H1359 0.950 . S
C1386 C1372 1.377 . S
C1386 C1385 1.373 1_455 S
C1387 C1371 1.377 . S
C1387 C1385 1.389 . S
C1387 C1388 1.524 . S
C1388 C1387 1.524 . S
C1388 C1389 1.397 . S
C1388 C1393 1.363 . S
C1389 H1360 0.950 . S
C1389 C1388 1.397 . S
C1389 C1390 1.334 . S
C1390 H1361 0.950 . S
C1390 C1389 1.334 . S
C1390 C1391 1.287 . S
C1391 C1390 1.287 . S
C1391 C1392 1.524 . S
C1391 H1394 0.999 . S
C1392 H1362 0.950 . S
C1392 C1391 1.524 . S
C1392 C1393 1.415 . S
C1393 H1363 0.950 . S
C1393 C1388 1.363 . S
C1393 C1392 1.415 . S
H1394 C1391 0.999 . S
H1395 C1376 0.913 . S
H1396 C1414 0.951 . S
H1397 C1416 0.951 . S
H1398 C1418 0.950 1_545 S
H1399 C1419 0.950 . S
H1400 C1421 0.950 . S
H1401 C1424 0.950 . S
H1402 C1425 0.950 . S
H1403 C1427 0.950 . S
H1404 C1428 0.950 . S
H1405 C1429 0.951 . S
H1406 C1431 0.951 . S
H1407 C1433 0.950 1_565 S
H1408 C1434 0.950 . S
H1409 C1436 0.950 . S
H1410 C1439 0.950 . S
H1411 C1440 0.950 . S
H1412 C1442 0.950 . S
H1413 C1443 0.950 . S
C1414 H1396 0.951 . S
C1414 C1415 1.366 . S
C1414 C1416 1.388 . S
C1415 C1414 1.366 . S
C1415 C1419 1.385 . S
C1416 H1397 0.951 . S
C1416 C1414 1.388 . S
C1416 C1417 1.366 . S
C1417 C1416 1.366 . S
C1417 C1418 1.414 . S
C1417 C1420 1.499 . S
C1418 H1398 0.950 1_565 S
C1418 C1417 1.414 . S
C1418 C1419 1.374 . S
C1419 H1399 0.950 . S
C1419 C1415 1.385 . S
C1419 C1418 1.374 . S
C1420 C1417 1.499 . S
C1420 C1421 1.373 1_565 S
C1420 C1422 1.389 . S
C1421 H1400 0.950 . S
C1421 C1420 1.373 1_545 S
C1421 C1437 1.377 . S
C1422 C1420 1.389 . S
C1422 C1423 1.524 . S
C1422 C1436 1.377 . S
C1423 C1422 1.524 . S
C1423 C1424 1.397 . S
C1423 C1428 1.363 . S
C1424 H1401 0.950 . S
C1424 C1423 1.397 . S
C1424 C1425 1.334 . S
C1425 H1402 0.950 . S
C1425 C1424 1.334 . S
C1425 C1426 1.287 . S
C1426 C1425 1.287 . S
C1426 C1427 1.524 . S
C1426 H1445 0.913 . S
C1427 H1403 0.950 . S
C1427 C1426 1.524 . S
C1427 C1428 1.415 . S
C1428 H1404 0.950 . S
C1428 C1423 1.363 . S
C1428 C1427 1.415 . S
C1429 H1405 0.951 . S
C1429 C1430 1.366 . S
C1429 C1431 1.388 . S
C1430 C1429 1.366 . S
C1430 C1434 1.385 . S
C1431 H1406 0.951 . S
C1431 C1429 1.388 . S
C1431 C1432 1.366 . S
C1432 C1431 1.366 . S
C1432 C1433 1.414 . S
C1432 C1435 1.499 . S
C1433 H1407 0.950 1_545 S
C1433 C1432 1.414 . S
C1433 C1434 1.374 . S
C1434 H1408 0.950 . S
C1434 C1430 1.385 . S
C1434 C1433 1.374 . S
C1435 C1432 1.499 . S
C1435 C1436 1.373 1_545 S
C1435 C1437 1.389 . S
C1436 H1409 0.950 . S
C1436 C1422 1.377 . S
C1436 C1435 1.373 1_565 S
C1437 C1421 1.377 . S
C1437 C1435 1.389 . S
C1437 C1438 1.524 . S
C1438 C1437 1.524 . S
C1438 C1439 1.397 . S
C1438 C1443 1.363 . S
C1439 H1410 0.950 . S
C1439 C1438 1.397 . S
C1439 C1440 1.334 . S
C1440 H1411 0.950 . S
C1440 C1439 1.334 . S
C1440 C1441 1.287 . S
C1441 C1440 1.287 . S
C1441 C1442 1.524 . S
C1441 H1444 0.999 . S
C1442 H1412 0.950 . S
C1442 C1441 1.524 . S
C1442 C1443 1.415 . S
C1443 H1413 0.950 . S
C1443 C1438 1.363 . S
C1443 C1442 1.415 . S
H1444 C1441 0.999 . S
H1445 C1426 0.913 . S
H1446 C1464 0.951 . S
H1447 C1466 0.951 . S
H1448 C1468 0.950 . S
H1449 C1469 0.950 . S
H1450 C1471 0.950 . S
H1451 C1474 0.950 . S
H1452 C1475 0.950 . S
H1453 C1477 0.950 . S
H1454 C1478 0.950 . S
H1455 C1479 0.951 . S
H1456 C1481 0.951 . S
H1457 C1483 0.950 . S
H1458 C1484 0.950 . S
H1459 C1486 0.950 . S
H1460 C1489 0.950 . S
H1461 C1490 0.950 . S
H1462 C1492 0.950 . S
H1463 C1493 0.950 . S
C1464 H1446 0.951 . S
C1464 C1465 1.366 . S
C1464 C1466 1.388 . S
C1465 C1464 1.366 . S
C1465 C1469 1.385 . S
C1466 H1447 0.951 . S
C1466 C1464 1.388 . S
C1466 C1467 1.366 . S
C1467 C1466 1.366 . S
C1467 C1468 1.414 . S
C1467 C1470 1.499 . S
C1468 H1448 0.950 . S
C1468 C1467 1.414 . S
C1468 C1469 1.374 . S
C1469 H1449 0.950 . S
C1469 C1465 1.385 . S
C1469 C1468 1.374 . S
C1470 C1467 1.499 . S
C1470 C1471 1.373 . S
C1470 C1472 1.389 . S
C1471 H1450 0.950 . S
C1471 C1470 1.373 . S
C1471 C1487 1.377 . S
C1472 C1470 1.389 . S
C1472 C1473 1.524 . S
C1472 C1486 1.377 . S
C1473 C1472 1.524 . S
C1473 C1474 1.397 . S
C1473 C1478 1.363 . S
C1474 H1451 0.950 . S
C1474 C1473 1.397 . S
C1474 C1475 1.334 . S
C1475 H1452 0.950 . S
C1475 C1474 1.334 . S
C1475 C1476 1.287 . S
C1476 C1475 1.287 . S
C1476 C1477 1.524 . S
C1476 H1495 0.913 . S
C1477 H1453 0.950 . S
C1477 C1476 1.524 . S
C1477 C1478 1.415 . S
C1478 H1454 0.950 . S
C1478 C1473 1.363 . S
C1478 C1477 1.415 . S
C1479 H1455 0.951 . S
C1479 C1480 1.366 . S
C1479 C1481 1.388 . S
C1480 C1479 1.366 . S
C1480 C1484 1.385 . S
C1481 H1456 0.951 . S
C1481 C1479 1.388 . S
C1481 C1482 1.366 . S
C1482 C1481 1.366 . S
C1482 C1483 1.414 . S
C1482 C1485 1.499 . S
C1483 H1457 0.950 . S
C1483 C1482 1.414 . S
C1483 C1484 1.374 . S
C1484 H1458 0.950 . S
C1484 C1480 1.385 . S
C1484 C1483 1.374 . S
C1485 C1482 1.499 . S
C1485 C1486 1.373 . S
C1485 C1487 1.389 . S
C1486 H1459 0.950 . S
C1486 C1472 1.377 . S
C1486 C1485 1.373 . S
C1487 C1471 1.377 . S
C1487 C1485 1.389 . S
C1487 C1488 1.524 . S
C1488 C1487 1.524 . S
C1488 C1489 1.397 . S
C1488 C1493 1.363 . S
C1489 H1460 0.950 . S
C1489 C1488 1.397 . S
C1489 C1490 1.334 . S
C1490 H1461 0.950 . S
C1490 C1489 1.334 . S
C1490 C1491 1.287 . S
C1491 C1490 1.287 . S
C1491 C1492 1.524 . S
C1491 H1494 0.999 . S
C1492 H1462 0.950 . S
C1492 C1491 1.524 . S
C1492 C1493 1.415 . S
C1493 H1463 0.950 . S
C1493 C1488 1.363 . S
C1493 C1492 1.415 . S
H1494 C1491 0.999 . S
H1495 C1476 0.913 . S
H1496 C1514 0.951 . S
H1497 C1516 0.951 . S
H1498 C1518 0.950 . S
H1499 C1519 0.950 . S
H1500 C1521 0.950 . S
H1501 C1524 0.950 . S
H1502 C1525 0.950 . S
H1503 C1527 0.950 . S
H1504 C1528 0.950 . S
H1505 C1529 0.951 . S
H1506 C1531 0.951 . S
H1507 C1533 0.950 . S
H1508 C1534 0.950 . S
H1509 C1536 0.950 . S
H1510 C1539 0.950 . S
H1511 C1540 0.950 . S
H1512 C1542 0.950 . S
H1513 C1543 0.950 . S
C1514 H1496 0.951 . S
C1514 C1515 1.366 . S
C1514 C1516 1.388 . S
C1515 C1514 1.366 . S
C1515 C1519 1.385 . S
C1516 H1497 0.951 . S
C1516 C1514 1.388 . S
C1516 C1517 1.366 . S
C1517 C1516 1.366 . S
C1517 C1518 1.414 . S
C1517 C1520 1.499 . S
C1518 H1498 0.950 . S
C1518 C1517 1.414 . S
C1518 C1519 1.374 . S
C1519 H1499 0.950 . S
C1519 C1515 1.385 . S
C1519 C1518 1.374 . S
C1520 C1517 1.499 . S
C1520 C1521 1.373 . S
C1520 C1522 1.389 1_455 S
C1521 H1500 0.950 . S
C1521 C1520 1.373 . S
C1521 C1537 1.377 . S
C1522 C1520 1.389 1_655 S
C1522 C1523 1.524 . S
C1522 C1536 1.377 . S
C1523 C1522 1.524 . S
C1523 C1524 1.397 . S
C1523 C1528 1.363 . S
C1524 H1501 0.950 . S
C1524 C1523 1.397 . S
C1524 C1525 1.334 . S
C1525 H1502 0.950 . S
C1525 C1524 1.334 . S
C1525 C1526 1.287 . S
C1526 C1525 1.287 . S
C1526 C1527 1.524 . S
C1526 H1545 0.913 . S
C1527 H1503 0.950 . S
C1527 C1526 1.524 . S
C1527 C1528 1.415 . S
C1528 H1504 0.950 . S
C1528 C1523 1.363 . S
C1528 C1527 1.415 . S
C1529 H1505 0.951 . S
C1529 C1530 1.366 . S
C1529 C1531 1.388 . S
C1530 C1529 1.366 . S
C1530 C1534 1.385 . S
C1531 H1506 0.951 . S
C1531 C1529 1.388 . S
C1531 C1532 1.366 . S
C1532 C1531 1.366 . S
C1532 C1533 1.414 . S
C1532 C1535 1.499 . S
C1533 H1507 0.950 . S
C1533 C1532 1.414 . S
C1533 C1534 1.374 . S
C1534 H1508 0.950 . S
C1534 C1530 1.385 . S
C1534 C1533 1.374 . S
C1535 C1532 1.499 . S
C1535 C1536 1.373 . S
C1535 C1537 1.389 1_655 S
C1536 H1509 0.950 . S
C1536 C1522 1.377 . S
C1536 C1535 1.373 . S
C1537 C1521 1.377 . S
C1537 C1535 1.389 1_455 S
C1537 C1538 1.524 . S
C1538 C1537 1.524 . S
C1538 C1539 1.397 . S
C1538 C1543 1.363 . S
C1539 H1510 0.950 . S
C1539 C1538 1.397 . S
C1539 C1540 1.334 . S
C1540 H1511 0.950 . S
C1540 C1539 1.334 . S
C1540 C1541 1.287 . S
C1541 C1540 1.287 . S
C1541 C1542 1.524 . S
C1541 H1544 0.999 . S
C1542 H1512 0.950 . S
C1542 C1541 1.524 . S
C1542 C1543 1.415 . S
C1543 H1513 0.950 . S
C1543 C1538 1.363 . S
C1543 C1542 1.415 . S
H1544 C1541 0.999 . S
H1545 C1526 0.913 . S
H1546 C1564 0.951 . S
H1547 C1566 0.951 . S
H1548 C1568 0.950 1_545 S
H1549 C1569 0.950 . S
H1550 C1571 0.950 . S
H1551 C1574 0.950 . S
H1552 C1575 0.950 . S
H1553 C1577 0.950 . S
H1554 C1578 0.950 . S
H1555 C1579 0.951 . S
H1556 C1581 0.951 . S
H1557 C1583 0.950 1_565 S
H1558 C1584 0.950 . S
H1559 C1586 0.950 . S
H1560 C1589 0.950 . S
H1561 C1590 0.950 . S
H1562 C1592 0.950 . S
H1563 C1593 0.950 . S
C1564 H1546 0.951 . S
C1564 C1565 1.366 . S
C1564 C1566 1.388 . S
C1565 C1564 1.366 . S
C1565 C1569 1.385 . S
C1566 H1547 0.951 . S
C1566 C1564 1.388 . S
C1566 C1567 1.366 . S
C1567 C1566 1.366 . S
C1567 C1568 1.414 . S
C1567 C1570 1.499 . S
C1568 H1548 0.950 1_565 S
C1568 C1567 1.414 . S
C1568 C1569 1.374 . S
C1569 H1549 0.950 . S
C1569 C1565 1.385 . S
C1569 C1568 1.374 . S
C1570 C1567 1.499 . S
C1570 C1571 1.373 1_565 S
C1570 C1572 1.389 . S
C1571 H1550 0.950 . S
C1571 C1570 1.373 1_545 S
C1571 C1587 1.377 . S
C1572 C1570 1.389 . S
C1572 C1573 1.524 . S
C1572 C1586 1.377 . S
C1573 C1572 1.524 . S
C1573 C1574 1.397 . S
C1573 C1578 1.363 . S
C1574 H1551 0.950 . S
C1574 C1573 1.397 . S
C1574 C1575 1.334 . S
C1575 H1552 0.950 . S
C1575 C1574 1.334 . S
C1575 C1576 1.287 . S
C1576 C1575 1.287 . S
C1576 C1577 1.524 . S
C1576 H1595 0.913 . S
C1577 H1553 0.950 . S
C1577 C1576 1.524 . S
C1577 C1578 1.415 . S
C1578 H1554 0.950 . S
C1578 C1573 1.363 . S
C1578 C1577 1.415 . S
C1579 H1555 0.951 . S
C1579 C1580 1.366 . S
C1579 C1581 1.388 . S
C1580 C1579 1.366 . S
C1580 C1584 1.385 . S
C1581 H1556 0.951 . S
C1581 C1579 1.388 . S
C1581 C1582 1.366 . S
C1582 C1581 1.366 . S
C1582 C1583 1.414 . S
C1582 C1585 1.499 . S
C1583 H1557 0.950 1_545 S
C1583 C1582 1.414 . S
C1583 C1584 1.374 . S
C1584 H1558 0.950 . S
C1584 C1580 1.385 . S
C1584 C1583 1.374 . S
C1585 C1582 1.499 . S
C1585 C1586 1.373 1_545 S
C1585 C1587 1.389 . S
C1586 H1559 0.950 . S
C1586 C1572 1.377 . S
C1586 C1585 1.373 1_565 S
C1587 C1571 1.377 . S
C1587 C1585 1.389 . S
C1587 C1588 1.524 . S
C1588 C1587 1.524 . S
C1588 C1589 1.397 . S
C1588 C1593 1.363 . S
C1589 H1560 0.950 . S
C1589 C1588 1.397 . S
C1589 C1590 1.334 . S
C1590 H1561 0.950 . S
C1590 C1589 1.334 . S
C1590 C1591 1.287 . S
C1591 C1590 1.287 . S
C1591 C1592 1.524 . S
C1591 H1594 0.999 . S
C1592 H1562 0.950 . S
C1592 C1591 1.524 . S
C1592 C1593 1.415 . S
C1593 H1563 0.950 . S
C1593 C1588 1.363 . S
C1593 C1592 1.415 . S
H1594 C1591 0.999 . S
H1595 C1576 0.913 . S
H1596 C1614 0.951 . S
H1597 C1616 0.951 . S
H1598 C1618 0.950 . S
H1599 C1619 0.950 . S
H1600 C1621 0.950 . S
H1601 C1624 0.950 . S
H1602 C1625 0.950 . S
H1603 C1627 0.950 . S
H1604 C1628 0.950 . S
H1605 C1629 0.951 . S
H1606 C1631 0.951 . S
H1607 C1633 0.950 . S
H1608 C1634 0.950 . S
H1609 C1636 0.950 . S
H1610 C1639 0.950 . S
H1611 C1640 0.950 . S
H1612 C1642 0.950 . S
H1613 C1643 0.950 . S
C1614 H1596 0.951 . S
C1614 C1615 1.366 . S
C1614 C1616 1.388 . S
C1615 C1614 1.366 . S
C1615 C1619 1.385 . S
C1616 H1597 0.951 . S
C1616 C1614 1.388 . S
C1616 C1617 1.366 . S
C1617 C1616 1.366 . S
C1617 C1618 1.414 . S
C1617 C1620 1.499 . S
C1618 H1598 0.950 . S
C1618 C1617 1.414 . S
C1618 C1619 1.374 . S
C1619 H1599 0.950 . S
C1619 C1615 1.385 . S
C1619 C1618 1.374 . S
C1620 C1617 1.499 . S
C1620 C1621 1.373 . S
C1620 C1622 1.389 1_545 S
C1621 H1600 0.950 . S
C1621 C1620 1.373 . S
C1621 C1637 1.377 1_455 S
C1622 C1620 1.389 1_565 S
C1622 C1623 1.524 . S
C1622 C1636 1.377 1_455 S
C1623 C1622 1.524 . S
C1623 C1624 1.397 . S
C1623 C1628 1.363 . S
C1624 H1601 0.950 . S
C1624 C1623 1.397 . S
C1624 C1625 1.334 . S
C1625 H1602 0.950 . S
C1625 C1624 1.334 . S
C1625 C1626 1.287 . S
C1626 C1625 1.287 . S
C1626 C1627 1.524 . S
C1626 H1645 0.913 . S
C1627 H1603 0.950 . S
C1627 C1626 1.524 . S
C1627 C1628 1.415 . S
C1628 H1604 0.950 . S
C1628 C1623 1.363 . S
C1628 C1627 1.415 . S
C1629 H1605 0.951 . S
C1629 C1630 1.366 . S
C1629 C1631 1.388 . S
C1630 C1629 1.366 . S
C1630 C1634 1.385 . S
C1631 H1606 0.951 . S
C1631 C1629 1.388 . S
C1631 C1632 1.366 . S
C1632 C1631 1.366 . S
C1632 C1633 1.414 . S
C1632 C1635 1.499 . S
C1633 H1607 0.950 . S
C1633 C1632 1.414 . S
C1633 C1634 1.374 . S
C1634 H1608 0.950 . S
C1634 C1630 1.385 . S
C1634 C1633 1.374 . S
C1635 C1632 1.499 . S
C1635 C1636 1.373 . S
C1635 C1637 1.389 1_565 S
C1636 H1609 0.950 . S
C1636 C1622 1.377 1_655 S
C1636 C1635 1.373 . S
C1637 C1621 1.377 1_655 S
C1637 C1635 1.389 1_545 S
C1637 C1638 1.524 . S
C1638 C1637 1.524 . S
C1638 C1639 1.397 . S
C1638 C1643 1.363 . S
C1639 H1610 0.950 . S
C1639 C1638 1.397 . S
C1639 C1640 1.334 . S
C1640 H1611 0.950 . S
C1640 C1639 1.334 . S
C1640 C1641 1.287 . S
C1641 C1640 1.287 . S
C1641 C1642 1.524 . S
C1641 H1644 0.999 . S
C1642 H1612 0.950 . S
C1642 C1641 1.524 . S
C1642 C1643 1.415 . S
C1643 H1613 0.950 . S
C1643 C1638 1.363 . S
C1643 C1642 1.415 . S
H1644 C1641 0.999 . S
H1645 C1626 0.913 . S
H1646 C1664 0.951 . S
H1647 C1666 0.951 . S
H1648 C1668 0.950 . S
H1649 C1669 0.950 . S
H1650 C1671 0.950 . S
H1651 C1674 0.950 1_455 S
H1652 C1675 0.950 . S
H1653 C1677 0.950 . S
H1654 C1678 0.950 . S
H1655 C1679 0.951 . S
H1656 C1681 0.951 . S
H1657 C1683 0.950 . S
H1658 C1684 0.950 . S
H1659 C1686 0.950 . S
H1660 C1689 0.950 1_655 S
H1661 C1690 0.950 . S
H1662 C1692 0.950 . S
H1663 C1693 0.950 . S
C1664 H1646 0.951 . S
C1664 C1665 1.366 . S
C1664 C1666 1.388 . S
C1665 C1664 1.366 . S
C1665 C1669 1.385 . S
C1666 H1647 0.951 . S
C1666 C1664 1.388 . S
C1666 C1667 1.366 . S
C1667 C1666 1.366 . S
C1667 C1668 1.414 . S
C1667 C1670 1.499 . S
C1668 H1648 0.950 . S
C1668 C1667 1.414 . S
C1668 C1669 1.374 . S
C1669 H1649 0.950 . S
C1669 C1665 1.385 . S
C1669 C1668 1.374 . S
C1670 C1667 1.499 . S
C1670 C1671 1.373 . S
C1670 C1672 1.389 1_455 S
C1671 H1650 0.950 . S
C1671 C1670 1.373 . S
C1671 C1687 1.377 1_545 S
C1672 C1670 1.389 1_655 S
C1672 C1673 1.524 . S
C1672 C1686 1.377 1_545 S
C1673 C1672 1.524 . S
C1673 C1674 1.397 . S
C1673 C1678 1.363 . S
C1674 H1651 0.950 1_655 S
C1674 C1673 1.397 . S
C1674 C1675 1.334 . S
C1675 H1652 0.950 . S
C1675 C1674 1.334 . S
C1675 C1676 1.287 . S
C1676 C1675 1.287 . S
C1676 C1677 1.524 . S
C1676 H1695 0.913 . S
C1677 H1653 0.950 . S
C1677 C1676 1.524 . S
C1677 C1678 1.415 . S
C1678 H1654 0.950 . S
C1678 C1673 1.363 . S
C1678 C1677 1.415 . S
C1679 H1655 0.951 . S
C1679 C1680 1.366 . S
C1679 C1681 1.388 . S
C1680 C1679 1.366 . S
C1680 C1684 1.385 . S
C1681 H1656 0.951 . S
C1681 C1679 1.388 . S
C1681 C1682 1.366 . S
C1682 C1681 1.366 . S
C1682 C1683 1.414 . S
C1682 C1685 1.499 . S
C1683 H1657 0.950 . S
C1683 C1682 1.414 . S
C1683 C1684 1.374 . S
C1684 H1658 0.950 . S
C1684 C1680 1.385 . S
C1684 C1683 1.374 . S
C1685 C1682 1.499 . S
C1685 C1686 1.373 . S
C1685 C1687 1.389 1_655 S
C1686 H1659 0.950 . S
C1686 C1672 1.377 1_565 S
C1686 C1685 1.373 . S
C1687 C1671 1.377 1_565 S
C1687 C1685 1.389 1_455 S
C1687 C1688 1.524 . S
C1688 C1687 1.524 . S
C1688 C1689 1.397 . S
C1688 C1693 1.363 . S
C1689 H1660 0.950 1_455 S
C1689 C1688 1.397 . S
C1689 C1690 1.334 . S
C1690 H1661 0.950 . S
C1690 C1689 1.334 . S
C1690 C1691 1.287 . S
C1691 C1690 1.287 . S
C1691 C1692 1.524 . S
C1691 H1694 0.999 . S
C1692 H1662 0.950 . S
C1692 C1691 1.524 . S
C1692 C1693 1.415 . S
C1693 H1663 0.950 . S
C1693 C1688 1.363 . S
C1693 C1692 1.415 . S
H1694 C1691 0.999 . S
H1695 C1676 0.913 . S
H1696 C1714 0.951 . S
H1697 C1716 0.951 . S
H1698 C1718 0.950 1_455 S
H1699 C1719 0.950 . S
H1700 C1721 0.950 . S
H1701 C1724 0.950 . S
H1702 C1725 0.950 1_545 S
H1703 C1727 0.950 . S
H1704 C1728 0.950 . S
H1705 C1729 0.951 . S
H1706 C1731 0.951 . S
H1707 C1733 0.950 1_655 S
H1708 C1734 0.950 . S
H1709 C1736 0.950 . S
H1710 C1739 0.950 . S
H1711 C1740 0.950 1_565 S
H1712 C1742 0.950 . S
H1713 C1743 0.950 . S
C1714 H1696 0.951 . S
C1714 C1715 1.366 . S
C1714 C1716 1.388 . S
C1715 C1714 1.366 . S
C1715 C1719 1.385 . S
C1716 H1697 0.951 . S
C1716 C1714 1.388 . S
C1716 C1717 1.366 . S
C1717 C1716 1.366 . S
C1717 C1718 1.414 . S
C1717 C1720 1.499 . S
C1718 H1698 0.950 1_655 S
C1718 C1717 1.414 . S
C1718 C1719 1.374 . S
C1719 H1699 0.950 . S
C1719 C1715 1.385 . S
C1719 C1718 1.374 . S
C1720 C1717 1.499 . S
C1720 C1721 1.373 1_655 S
C1720 C1722 1.389 1_545 S
C1721 H1700 0.950 . S
C1721 C1720 1.373 1_455 S
C1721 C1737 1.377 . S
C1722 C1720 1.389 1_565 S
C1722 C1723 1.524 . S
C1722 C1736 1.377 . S
C1723 C1722 1.524 . S
C1723 C1724 1.397 1_565 S
C1723 C1728 1.363 . S
C1724 H1701 0.950 . S
C1724 C1723 1.397 1_545 S
C1724 C1725 1.334 1_545 S
C1725 H1702 0.950 1_565 S
C1725 C1724 1.334 1_565 S
C1725 C1726 1.287 . S
C1726 C1725 1.287 . S
C1726 C1727 1.524 . S
C1726 H1745 0.913 . S
C1727 H1703 0.950 . S
C1727 C1726 1.524 . S
C1727 C1728 1.415 . S
C1728 H1704 0.950 . S
C1728 C1723 1.363 . S
C1728 C1727 1.415 . S
C1729 H1705 0.951 . S
C1729 C1730 1.366 . S
C1729 C1731 1.388 . S
C1730 C1729 1.366 . S
C1730 C1734 1.385 . S
C1731 H1706 0.951 . S
C1731 C1729 1.388 . S
C1731 C1732 1.366 . S
C1732 C1731 1.366 . S
C1732 C1733 1.414 . S
C1732 C1735 1.499 . S
C1733 H1707 0.950 1_455 S
C1733 C1732 1.414 . S
C1733 C1734 1.374 . S
C1734 H1708 0.950 . S
C1734 C1730 1.385 . S
C1734 C1733 1.374 . S
C1735 C1732 1.499 . S
C1735 C1736 1.373 1_455 S
C1735 C1737 1.389 1_565 S
C1736 H1709 0.950 . S
C1736 C1722 1.377 . S
C1736 C1735 1.373 1_655 S
C1737 C1721 1.377 . S
C1737 C1735 1.389 1_545 S
C1737 C1738 1.524 . S
C1738 C1737 1.524 . S
C1738 C1739 1.397 1_545 S
C1738 C1743 1.363 . S
C1739 H1710 0.950 . S
C1739 C1738 1.397 1_565 S
C1739 C1740 1.334 1_565 S
C1740 H1711 0.950 1_545 S
C1740 C1739 1.334 1_545 S
C1740 C1741 1.287 . S
C1741 C1740 1.287 . S
C1741 C1742 1.524 . S
C1741 H1744 0.999 . S
C1742 H1712 0.950 . S
C1742 C1741 1.524 . S
C1742 C1743 1.415 . S
C1743 H1713 0.950 . S
C1743 C1738 1.363 . S
C1743 C1742 1.415 . S
H1744 C1741 0.999 . S
H1745 C1726 0.913 . S
H1746 C1764 0.951 . S
H1747 C1766 0.951 . S
H1748 C1768 0.950 1_455 S
H1749 C1769 0.950 . S
H1750 C1771 0.950 . S
H1751 C1774 0.950 . S
H1752 C1775 0.950 . S
H1753 C1777 0.950 . S
H1754 C1778 0.950 . S
H1755 C1779 0.951 . S
H1756 C1781 0.951 . S
H1757 C1783 0.950 1_655 S
H1758 C1784 0.950 . S
H1759 C1786 0.950 . S
H1760 C1789 0.950 . S
H1761 C1790 0.950 . S
H1762 C1792 0.950 . S
H1763 C1793 0.950 . S
C1764 H1746 0.951 . S
C1764 C1765 1.366 . S
C1764 C1766 1.388 . S
C1765 C1764 1.366 . S
C1765 C1769 1.385 . S
C1766 H1747 0.951 . S
C1766 C1764 1.388 . S
C1766 C1767 1.366 . S
C1767 C1766 1.366 . S
C1767 C1768 1.414 . S
C1767 C1770 1.499 . S
C1768 H1748 0.950 1_655 S
C1768 C1767 1.414 . S
C1768 C1769 1.374 . S
C1769 H1749 0.950 . S
C1769 C1765 1.385 . S
C1769 C1768 1.374 . S
C1770 C1767 1.499 . S
C1770 C1771 1.373 1_655 S
C1770 C1772 1.389 . S
C1771 H1750 0.950 . S
C1771 C1770 1.373 1_455 S
C1771 C1787 1.377 1_565 S
C1772 C1770 1.389 . S
C1772 C1773 1.524 . S
C1772 C1786 1.377 1_565 S
C1773 C1772 1.524 . S
C1773 C1774 1.397 . S
C1773 C1778 1.363 . S
C1774 H1751 0.950 . S
C1774 C1773 1.397 . S
C1774 C1775 1.334 . S
C1775 H1752 0.950 . S
C1775 C1774 1.334 . S
C1775 C1776 1.287 . S
C1776 C1775 1.287 . S
C1776 C1777 1.524 . S
C1776 H1795 0.913 . S
C1777 H1753 0.950 . S
C1777 C1776 1.524 . S
C1777 C1778 1.415 . S
C1778 H1754 0.950 . S
C1778 C1773 1.363 . S
C1778 C1777 1.415 . S
C1779 H1755 0.951 . S
C1779 C1780 1.366 . S
C1779 C1781 1.388 . S
C1780 C1779 1.366 . S
C1780 C1784 1.385 . S
C1781 H1756 0.951 . S
C1781 C1779 1.388 . S
C1781 C1782 1.366 . S
C1782 C1781 1.366 . S
C1782 C1783 1.414 . S
C1782 C1785 1.499 . S
C1783 H1757 0.950 1_455 S
C1783 C1782 1.414 . S
C1783 C1784 1.374 . S
C1784 H1758 0.950 . S
C1784 C1780 1.385 . S
C1784 C1783 1.374 . S
C1785 C1782 1.499 . S
C1785 C1786 1.373 1_455 S
C1785 C1787 1.389 . S
C1786 H1759 0.950 . S
C1786 C1772 1.377 1_545 S
C1786 C1785 1.373 1_655 S
C1787 C1771 1.377 1_545 S
C1787 C1785 1.389 . S
C1787 C1788 1.524 . S
C1788 C1787 1.524 . S
C1788 C1789 1.397 . S
C1788 C1793 1.363 . S
C1789 H1760 0.950 . S
C1789 C1788 1.397 . S
C1789 C1790 1.334 . S
C1790 H1761 0.950 . S
C1790 C1789 1.334 . S
C1790 C1791 1.287 . S
C1791 C1790 1.287 . S
C1791 C1792 1.524 . S
C1791 H1794 0.999 . S
C1792 H1762 0.950 . S
C1792 C1791 1.524 . S
C1792 C1793 1.415 . S
C1793 H1763 0.950 . S
C1793 C1788 1.363 . S
C1793 C1792 1.415 . S
H1794 C1791 0.999 . S
H1795 C1776 0.913 . S
H1796 C1814 0.951 . S
H1797 C1816 0.951 . S
H1798 C1818 0.950 . S
H1799 C1819 0.950 . S
H1800 C1821 0.950 . S
H1801 C1824 0.950 . S
H1802 C1825 0.950 . S
H1803 C1827 0.950 . S
H1804 C1828 0.951 . S
H1805 C1829 0.951 . S
H1806 C1831 0.951 . S
H1807 C1833 0.950 . S
H1808 C1834 0.950 . S
H1809 C1836 0.950 . S
H1810 C1839 0.950 . S
H1811 C1840 0.950 . S
H1812 C1842 0.950 . S
H1813 C1843 0.951 . S
C1814 H1796 0.951 . S
C1814 C1815 1.366 . S
C1814 C1816 1.388 . S
C1815 C1814 1.366 . S
C1815 C1819 1.385 . S
C1816 H1797 0.951 . S
C1816 C1814 1.388 . S
C1816 C1817 1.366 . S
C1817 C1816 1.366 . S
C1817 C1818 1.414 . S
C1817 C1820 1.499 . S
C1818 H1798 0.950 . S
C1818 C1817 1.414 . S
C1818 C1819 1.374 . S
C1819 H1799 0.950 . S
C1819 C1815 1.385 . S
C1819 C1818 1.374 . S
C1820 C1817 1.499 . S
C1820 C1821 1.373 1_545 S
C1820 C1822 1.389 1_655 S
C1821 H1800 0.950 . S
C1821 C1820 1.373 1_565 S
C1821 C1837 1.377 . S
C1822 C1820 1.389 1_455 S
C1822 C1823 1.524 . S
C1822 C1836 1.377 . S
C1823 C1822 1.524 . S
C1823 C1824 1.397 . S
C1823 C1828 1.363 . S
C1824 H1801 0.950 . S
C1824 C1823 1.397 . S
C1824 C1825 1.334 . S
C1825 H1802 0.950 . S
C1825 C1824 1.334 . S
C1825 C1826 1.287 . S
C1826 C1825 1.287 . S
C1826 C1827 1.524 . S
C1826 H1845 0.913 . S
C1827 H1803 0.950 . S
C1827 C1826 1.524 . S
C1827 C1828 1.415 . S
C1828 H1804 0.951 . S
C1828 C1823 1.363 . S
C1828 C1827 1.415 . S
C1829 H1805 0.951 . S
C1829 C1830 1.366 . S
C1829 C1831 1.388 . S
C1830 C1829 1.366 . S
C1830 C1834 1.385 . S
C1831 H1806 0.951 . S
C1831 C1829 1.388 . S
C1831 C1832 1.366 . S
C1832 C1831 1.366 . S
C1832 C1833 1.414 . S
C1832 C1835 1.499 . S
C1833 H1807 0.950 . S
C1833 C1832 1.414 . S
C1833 C1834 1.374 . S
C1834 H1808 0.950 . S
C1834 C1830 1.385 . S
C1834 C1833 1.374 . S
C1835 C1832 1.499 . S
C1835 C1836 1.373 1_565 S
C1835 C1837 1.389 1_455 S
C1836 H1809 0.950 . S
C1836 C1822 1.377 . S
C1836 C1835 1.373 1_545 S
C1837 C1821 1.377 . S
C1837 C1835 1.389 1_655 S
C1837 C1838 1.524 . S
C1838 C1837 1.524 . S
C1838 C1839 1.397 . S
C1838 C1843 1.363 . S
C1839 H1810 0.950 . S
C1839 C1838 1.397 . S
C1839 C1840 1.334 . S
C1840 H1811 0.950 . S
C1840 C1839 1.334 . S
C1840 C1841 1.287 . S
C1841 C1840 1.287 . S
C1841 C1842 1.524 . S
C1841 H1844 0.999 . S
C1842 H1812 0.950 . S
C1842 C1841 1.524 . S
C1842 C1843 1.415 . S
C1843 H1813 0.951 . S
C1843 C1838 1.363 . S
C1843 C1842 1.415 . S
H1844 C1841 0.999 . S
H1845 C1826 0.913 . S
H1846 C1864 0.951 . S
H1847 C1866 0.951 . S
H1848 C1868 0.950 . S
H1849 C1869 0.950 . S
H1850 C1871 0.950 . S
H1851 C1874 0.950 . S
H1852 C1875 0.950 . S
H1853 C1877 0.950 . S
H1854 C1878 0.965 . S
H1855 C1879 0.951 . S
H1856 C1881 0.951 . S
H1857 C1883 0.950 . S
H1858 C1884 0.950 . S
H1859 C1886 0.950 . S
H1860 C1889 0.950 . S
H1861 C1890 0.950 . S
H1862 C1892 0.950 . S
H1863 C1893 0.965 . S
C1864 H1846 0.951 . S
C1864 C1865 1.366 . S
C1864 C1866 1.388 . S
C1865 C1864 1.366 . S
C1865 C1869 1.385 . S
C1866 H1847 0.951 . S
C1866 C1864 1.388 . S
C1866 C1867 1.366 . S
C1867 C1866 1.366 . S
C1867 C1868 1.414 . S
C1867 C1870 1.499 . S
C1868 H1848 0.950 . S
C1868 C1867 1.414 . S
C1868 C1869 1.374 . S
C1869 H1849 0.950 . S
C1869 C1865 1.385 . S
C1869 C1868 1.374 . S
C1870 C1867 1.499 . S
C1870 C1871 1.373 1_545 S
C1870 C1872 1.389 . S
C1871 H1850 0.950 . S
C1871 C1870 1.373 1_565 S
C1871 C1887 1.377 1_455 S
C1872 C1870 1.389 . S
C1872 C1873 1.524 . S
C1872 C1886 1.377 1_455 S
C1873 C1872 1.524 . S
C1873 C1874 1.397 . S
C1873 C1878 1.363 . S
C1874 H1851 0.950 . S
C1874 C1873 1.397 . S
C1874 C1875 1.334 . S
C1875 H1852 0.950 . S
C1875 C1874 1.334 . S
C1875 C1876 1.287 . S
C1876 C1875 1.287 . S
C1876 C1877 1.524 . S
C1876 H1895 0.913 . S
C1877 H1853 0.950 . S
C1877 C1876 1.524 . S
C1877 C1878 1.415 . S
C1878 H1854 0.965 . S
C1878 C1873 1.363 . S
C1878 C1877 1.415 . S
C1879 H1855 0.951 . S
C1879 C1880 1.366 . S
C1879 C1881 1.388 . S
C1880 C1879 1.366 . S
C1880 C1884 1.385 . S
C1881 H1856 0.951 . S
C1881 C1879 1.388 . S
C1881 C1882 1.366 . S
C1882 C1881 1.366 . S
C1882 C1883 1.414 . S
C1882 C1885 1.499 . S
C1883 H1857 0.950 . S
C1883 C1882 1.414 . S
C1883 C1884 1.374 . S
C1884 H1858 0.950 . S
C1884 C1880 1.385 . S
C1884 C1883 1.374 . S
C1885 C1882 1.499 . S
C1885 C1886 1.373 1_565 S
C1885 C1887 1.389 . S
C1886 H1859 0.950 . S
C1886 C1872 1.377 1_655 S
C1886 C1885 1.373 1_545 S
C1887 C1871 1.377 1_655 S
C1887 C1885 1.389 . S
C1887 C1888 1.524 . S
C1888 C1887 1.524 . S
C1888 C1889 1.397 . S
C1888 C1893 1.363 . S
C1889 H1860 0.950 . S
C1889 C1888 1.397 . S
C1889 C1890 1.334 . S
C1890 H1861 0.950 . S
C1890 C1889 1.334 . S
C1890 C1891 1.287 . S
C1891 C1890 1.287 . S
C1891 C1892 1.524 . S
C1891 H1894 0.999 . S
C1892 H1862 0.950 . S
C1892 C1891 1.524 . S
C1892 C1893 1.415 . S
C1893 H1863 0.965 . S
C1893 C1888 1.363 . S
C1893 C1892 1.415 . S
H1894 C1891 0.999 . S
H1895 C1876 0.913 . S
C415 N13 1.585 . S
C430 N244 1.584 . S
C465 N46 1.584 . S
C480 N277 1.583 . S
C515 N79 1.584 . S
C530 N310 1.584 . S
C565 N343 1.583 . S
C580 N112 1.584 . S
C615 N376 1.583 . S
C630 N145 1.584 . S
C665 N178 1.585 . S
C680 N211 1.584 . S
C715 C106 1.667 . S
C730 C7 1.667 . S
C765 C40 1.667 . S
C780 C139 1.667 . S
C815 C172 1.667 . S
C830 C73 1.667 . S
C865 C304 1.667 . S
C880 C205 1.667 . S
C915 C337 1.667 . S
C930 C238 1.667 . S
C965 C271 1.667 . S
C980 C370 1.667 . S
C1015 N266 1.516 . S
C1030 N2 1.515 . S
C1065 N35 1.515 . S
C1080 N299 1.516 . S
C1115 N68 1.515 . S
C1130 N332 1.515 . S
C1165 N101 1.516 . S
C1180 N365 1.515 . S
C1215 N134 1.515 . S
C1230 N200 1.515 . S
C1265 N233 1.514 . S
C1280 N167 1.515 . S
C1315 C120 1.226 . S
C1330 C21 1.226 . S
C1365 C54 1.225 . S
C1380 C153 1.225 . S
C1415 C186 1.226 . S
C1430 C87 1.226 . S
C1465 C219 1.226 . S
C1480 C318 1.226 . S
C1515 C252 1.226 . S
C1530 C351 1.226 . S
C1565 C384 1.225 . S
C1580 C285 1.225 . S
C1615 C18 0.975 . S
C1630 C117 0.975 . S
C1665 C51 0.976 . S
C1680 C150 0.976 . S
C1715 C84 0.975 . S
C1730 C183 0.975 . S
C1765 C216 0.975 . S
C1780 C315 0.975 . S
C1815 C348 0.975 . S
C1830 C249 0.975 . S
C1865 C282 0.976 . S
C1880 C381 0.976 . S
