# Generated by pormake.
# Topology und, (4)-cn, num edge types: 1
# Building blocks:
#     Node 0, Type 0, BuildingBlock: AZAVOO_clean_sbu_0, # of connection points: 4
#     Node 1, Type 0, BuildingBlock: AZAVOO_clean_sbu_0, # of connection points: 4
#     Node 2, Type 0, BuildingBlock: AZAVOO_clean_sbu_0, # of connection points: 4
#     Node 3, Type 0, BuildingBlock: AZAVOO_clean_sbu_0, # of connection points: 4
#     Node 4, Type 0, BuildingBlock: AZAVOO_clean_sbu_0, # of connection points: 4
#     Node 5, Type 0, BuildingBlock: AZAVOO_clean_sbu_0, # of connection points: 4
#     Node 6, Type 0, BuildingBlock: AZAVOO_clean_sbu_0, # of connection points: 4
#     Node 7, Type 0, BuildingBlock: AZAVOO_clean_sbu_0, # of connection points: 4
#     Node 8, Type 0, BuildingBlock: AZAVOO_clean_sbu_0, # of connection points: 4
#     Node 9, Type 0, BuildingBlock: AZAVOO_clean_sbu_0, # of connection points: 4
#     Node 10, Type 0, BuildingBlock: AZAVOO_clean_sbu_0, # of connection points: 4
#     Node 11, Type 0, BuildingBlock: AZAVOO_clean_sbu_0, # of connection points: 4
#     Node 12, Type 0, BuildingBlock: AZAVOO_clean_sbu_0, # of connection points: 4
#     Node 13, Type 0, BuildingBlock: AZAVOO_clean_sbu_0, # of connection points: 4
#     Node 14, Type 0, BuildingBlock: AZAVOO_clean_sbu_0, # of connection points: 4
#     Node 15, Type 0, BuildingBlock: AZAVOO_clean_sbu_0, # of connection points: 4
#     Edge 16, Type (0, 0), BuildingBlock: MIFKUJ_clean_linker_0, # of connection points: 2
#     Edge 17, Type (0, 0), BuildingBlock: MIFKUJ_clean_linker_0, # of connection points: 2
#     Edge 18, Type (0, 0), BuildingBlock: MIFKUJ_clean_linker_0, # of connection points: 2
#     Edge 19, Type (0, 0), BuildingBlock: MIFKUJ_clean_linker_0, # of connection points: 2
#     Edge 20, Type (0, 0), BuildingBlock: MIFKUJ_clean_linker_0, # of connection points: 2
#     Edge 21, Type (0, 0), BuildingBlock: MIFKUJ_clean_linker_0, # of connection points: 2
#     Edge 22, Type (0, 0), BuildingBlock: MIFKUJ_clean_linker_0, # of connection points: 2
#     Edge 23, Type (0, 0), BuildingBlock: MIFKUJ_clean_linker_0, # of connection points: 2
#     Edge 24, Type (0, 0), BuildingBlock: MIFKUJ_clean_linker_0, # of connection points: 2
#     Edge 25, Type (0, 0), BuildingBlock: MIFKUJ_clean_linker_0, # of connection points: 2
#     Edge 26, Type (0, 0), BuildingBlock: MIFKUJ_clean_linker_0, # of connection points: 2
#     Edge 27, Type (0, 0), BuildingBlock: MIFKUJ_clean_linker_0, # of connection points: 2
#     Edge 28, Type (0, 0), BuildingBlock: MIFKUJ_clean_linker_0, # of connection points: 2
#     Edge 29, Type (0, 0), BuildingBlock: MIFKUJ_clean_linker_0, # of connection points: 2
#     Edge 30, Type (0, 0), BuildingBlock: MIFKUJ_clean_linker_0, # of connection points: 2
#     Edge 31, Type (0, 0), BuildingBlock: MIFKUJ_clean_linker_0, # of connection points: 2
#     Edge 32, Type (0, 0), BuildingBlock: MIFKUJ_clean_linker_0, # of connection points: 2
#     Edge 33, Type (0, 0), BuildingBlock: MIFKUJ_clean_linker_0, # of connection points: 2
#     Edge 34, Type (0, 0), BuildingBlock: MIFKUJ_clean_linker_0, # of connection points: 2
#     Edge 35, Type (0, 0), BuildingBlock: MIFKUJ_clean_linker_0, # of connection points: 2
#     Edge 36, Type (0, 0), BuildingBlock: MIFKUJ_clean_linker_0, # of connection points: 2
#     Edge 37, Type (0, 0), BuildingBlock: MIFKUJ_clean_linker_0, # of connection points: 2
#     Edge 38, Type (0, 0), BuildingBlock: MIFKUJ_clean_linker_0, # of connection points: 2
#     Edge 39, Type (0, 0), BuildingBlock: MIFKUJ_clean_linker_0, # of connection points: 2
#     Edge 40, Type (0, 0), BuildingBlock: MIFKUJ_clean_linker_0, # of connection points: 2
#     Edge 41, Type (0, 0), BuildingBlock: MIFKUJ_clean_linker_0, # of connection points: 2
#     Edge 42, Type (0, 0), BuildingBlock: MIFKUJ_clean_linker_0, # of connection points: 2
#     Edge 43, Type (0, 0), BuildingBlock: MIFKUJ_clean_linker_0, # of connection points: 2
#     Edge 44, Type (0, 0), BuildingBlock: MIFKUJ_clean_linker_0, # of connection points: 2
#     Edge 45, Type (0, 0), BuildingBlock: MIFKUJ_clean_linker_0, # of connection points: 2
#     Edge 46, Type (0, 0), BuildingBlock: MIFKUJ_clean_linker_0, # of connection points: 2
#     Edge 47, Type (0, 0), BuildingBlock: MIFKUJ_clean_linker_0, # of connection points: 2
# Relax obj value: 0.169
# Max RMSD: 0.210
# Mean RMSD: 0.204
data_MOF--net-und--node1-AZAVOO_clean_sbu_0--edge1-MIFKUJ_clean_linker_0
_symmetry_space_group_name_H-M    P1
_symmetry_Int_Tables_number       1
_symmetry_cell_setting            triclinic
loop_
_symmetry_equiv_pos_as_xyz
'x, y, z'
_cell_length_a     75.589562
_cell_length_b     75.621094
_cell_length_c     28.068489
_cell_angle_alpha  91.459108
_cell_angle_beta   91.487814
_cell_angle_gamma 95.298323
loop_
_atom_site_label
_atom_site_type_symbol
_atom_site_fract_x
_atom_site_fract_y
_atom_site_fract_z
_atom_type_partial_charge
Mg0 Mg 0.24473 0.36873 0.11856 0.0
O1 O 0.24251 0.35073 0.05179 0.0
O2 O 0.21658 0.33394 0.05174 0.0
Mg3 Mg 0.20239 0.341 0.11935 0.0
C4 C 0.23136 0.33874 0.03283 0.0
C5 C 0.26881 0.40217 0.08665 0.0
O6 O 0.25702 0.41048 0.10989 0.0
O7 O 0.22459 0.38615 0.08745 0.0
O8 O 0.19911 0.36894 0.09207 0.0
O9 O 0.25746 0.34758 0.15613 0.0
O10 O 0.22846 0.34983 0.15371 0.0
C11 C 0.20775 0.38359 0.08166 0.0
C12 C 0.24155 0.34084 0.16514 0.0
O13 O 0.26745 0.3853 0.08499 0.0
Mg14 Mg 0.90421 0.02809 0.19412 0.0
O15 O 0.92567 0.03287 0.25342 0.0
O16 O 0.94559 0.05476 0.23191 0.0
Mg17 Mg 0.93665 0.06417 0.15956 0.0
C18 C 0.93996 0.04304 0.2612 0.0
C19 C 0.88699 0.99552 0.24908 0.0
O20 O 0.89808 0.98721 0.22333 0.0
O21 O 0.89192 0.05326 0.21586 0.0
O22 O 0.91218 0.07462 0.19345 0.0
O23 O 0.92105 0.00892 0.16057 0.0
O24 O 0.92262 0.03758 0.14511 0.0
C25 C 0.89737 0.06962 0.21207 0.0
C26 C 0.92914 0.0225 0.14046 0.0
O27 O 0.88644 0.01215 0.24484 0.0
Mg28 Mg 0.26905 0.69946 0.51235 0.0
O29 O 0.25396 0.71708 0.56099 0.0
O30 O 0.23617 0.73294 0.51812 0.0
Mg31 Mg 0.23836 0.72331 0.44089 0.0
C32 C 0.24288 0.72876 0.55801 0.0
C33 C 0.28588 0.69425 0.61249 0.0
O34 O 0.28819 0.71165 0.61036 0.0
O35 O 0.24455 0.67979 0.50253 0.0
O36 O 0.22635 0.69539 0.4599 0.0
O37 O 0.28937 0.72242 0.50496 0.0
O38 O 0.26566 0.71657 0.45714 0.0
C39 C 0.22966 0.68129 0.48126 0.0
C40 C 0.27922 0.72727 0.47074 0.0
O41 O 0.27831 0.6853 0.57749 0.0
Mg42 Mg 0.57511 0.99223 0.86157 0.0
O43 O 0.55712 0.00516 0.8087 0.0
O44 O 0.53816 0.02018 0.84971 0.0
Mg45 Mg 0.5463 0.01947 0.92853 0.0
C46 C 0.54381 0.01436 0.81038 0.0
C47 C 0.58606 0.97529 0.76506 0.0
O48 O 0.56894 0.97028 0.76248 0.0
O49 O 0.59224 0.01831 0.87527 0.0
O50 O 0.57356 0.03418 0.91493 0.0
O51 O 0.5533 0.97022 0.86429 0.0
O52 O 0.55649 0.99372 0.91376 0.0
C53 C 0.58863 0.03262 0.89649 0.0
C54 C 0.54709 0.97967 0.89801 0.0
O55 O 0.59241 0.98466 0.80078 0.0
Mg56 Mg 0.76662 0.69921 0.11154 0.0
O57 O 0.74147 0.67985 0.11519 0.0
O58 O 0.71852 0.6965 0.11639 0.0
Mg59 Mg 0.72876 0.72583 0.11596 0.0
C60 C 0.72479 0.68138 0.11642 0.0
C61 C 0.79835 0.68362 0.07477 0.0
O62 O 0.80254 0.70085 0.07921 0.0
O63 O 0.76034 0.70451 0.03418 0.0
O64 O 0.73839 0.72222 0.03947 0.0
O65 O 0.76891 0.70112 0.19096 0.0
O66 O 0.75415 0.71877 0.1464 0.0
C67 C 0.74935 0.71415 0.0149 0.0
C68 C 0.75886 0.71407 0.18823 0.0
O69 O 0.78315 0.67731 0.08785 0.0
Mg70 Mg 0.07367 0.00559 0.72381 0.0
O71 O 0.0935 0.02998 0.71308 0.0
O72 O 0.07732 0.05299 0.70306 0.0
Mg73 Mg 0.0478 0.04347 0.70389 0.0
C74 C 0.0923 0.04649 0.70638 0.0
C75 C 0.09021 0.97885 0.78474 0.0
O76 O 0.07323 0.97676 0.79425 0.0
O77 O 0.06802 0.01584 0.79798 0.0
O78 O 0.05063 0.03753 0.78354 0.0
O79 O 0.07185 -0.00082 0.64543 0.0
O80 O 0.05482 0.01689 0.68321 0.0
C81 C 0.05839 0.02776 0.81245 0.0
C82 C 0.05949 0.00994 0.64375 0.0
O83 O 0.09544 0.99023 0.75443 0.0
Mg84 Mg 0.75246 0.36823 0.56916 0.0
O85 O 0.77903 0.3857 0.57297 0.0
O86 O 0.79966 0.36765 0.59343 0.0
Mg87 Mg 0.78667 0.33966 0.60444 0.0
C88 C 0.79515 0.38299 0.58296 0.0
C89 C 0.72435 0.38151 0.50675 0.0
O90 O 0.71971 0.36452 0.51215 0.0
O91 O 0.75955 0.35448 0.50042 0.0
O92 O 0.77878 0.33574 0.525 0.0
O93 O 0.74825 0.37496 0.64551 0.0
O94 O 0.76229 0.35224 0.62014 0.0
C95 C 0.76931 0.34193 0.49217 0.0
C96 C 0.75745 0.36181 0.65525 0.0
O97 O 0.73867 0.38839 0.52702 0.0
Mg98 Mg 0.42443 0.03595 0.28873 0.0
O99 O 0.40854 0.00909 0.27135 0.0
O100 O 0.42788 0.99033 0.24708 0.0
Mg101 Mg 0.45584 0.00465 0.25039 0.0
C102 C 0.41204 0.99382 0.25564 0.0
C103 C 0.4039 0.05379 0.36725 0.0
O104 O 0.42022 0.05554 0.38512 0.0
O105 O 0.43552 0.02551 0.35795 0.0
O106 O 0.45543 0.0078 0.33165 0.0
O107 O 0.42089 0.04244 0.21166 0.0
O108 O 0.44366 0.02967 0.24195 0.0
C109 C 0.44772 0.01526 0.36564 0.0
C110 C 0.43517 0.03455 0.20503 0.0
O111 O 0.40085 0.046 0.3268 0.0
Mg112 Mg 0.76368 0.86714 0.64632 0.0
O113 O 0.75387 0.84505 0.5915 0.0
O114 O 0.73363 0.82628 0.62534 0.0
Mg115 Mg 0.72883 0.83759 0.69906 0.0
C116 C 0.74315 0.83093 0.5901 0.0
C117 C 0.77826 0.89945 0.5868 0.0
O118 O 0.76975 0.90795 0.6191 0.0
O119 O 0.73852 0.8809 0.63313 0.0
O120 O 0.71797 0.86168 0.66418 0.0
O121 O 0.78342 0.84944 0.67303 0.0
O122 O 0.75634 0.85014 0.70082 0.0
C123 C 0.72242 0.87597 0.64244 0.0
C124 C 0.77092 0.84256 0.6994 0.0
O125 O 0.77801 0.88265 0.58817 0.0
Mg126 Mg 0.39955 0.53548 0.7223 0.0
O127 O 0.4219 0.53751 0.77917 0.0
O128 O 0.44142 0.56054 0.76353 0.0
Mg129 Mg 0.43118 0.5735 0.69726 0.0
C130 C 0.43628 0.5473 0.78863 0.0
C131 C 0.38702 0.5016 0.77969 0.0
O132 O 0.40117 0.49566 0.76104 0.0
O133 O 0.38748 0.55917 0.75501 0.0
O134 O 0.40726 0.58186 0.73845 0.0
O135 O 0.41585 0.5184 0.67936 0.0
O136 O 0.41696 0.54768 0.67467 0.0
C137 C 0.39279 0.57569 0.75698 0.0
C138 C 0.42346 0.53303 0.6633 0.0
O139 O 0.38293 0.51702 0.76966 0.0
Mg140 Mg 0.7557 0.20125 0.00821 0.0
O141 O 0.74625 0.21682 0.07216 0.0
O142 O 0.7239 0.23215 0.0482 0.0
Mg143 Mg 0.71867 0.22576 0.96879 0.0
C144 C 0.73473 0.22775 0.08052 0.0
C145 C 0.78175 0.19245 0.08969 0.0
O146 O 0.78406 0.20989 0.09195 0.0
O147 O 0.73161 0.18113 0.00961 0.0
O148 O 0.7097 0.19651 0.98312 0.0
O149 O 0.7746 0.22451 0.99299 0.0
O150 O 0.74683 0.22045 0.9644 0.0
C151 C 0.71537 0.18211 0.99753 0.0
C152 C 0.7614 0.23066 0.97053 0.0
O153 O 0.77098 0.18481 0.05847 0.0
Mg154 Mg 0.08122 0.49799 0.3533 0.0
O155 O 0.06254 0.51508 0.31365 0.0
O156 O 0.0438 0.52591 0.36493 0.0
Mg157 Mg 0.05405 0.51935 0.43928 0.0
C158 C 0.04923 0.5237 0.32271 0.0
C159 C 0.09066 0.48753 0.24894 0.0
O160 O 0.07417 0.48032 0.24862 0.0
O161 O 0.09863 0.52266 0.3781 0.0
O162 O 0.08087 0.53573 0.42791 0.0
O163 O 0.05949 0.47581 0.34769 0.0
O164 O 0.06382 0.4951 0.40866 0.0
C165 C 0.09553 0.53544 0.4063 0.0
C166 C 0.05414 0.48223 0.38746 0.0
O167 O 0.09714 0.49582 0.28626 0.0
Mg168 Mg 0.26478 0.20175 0.57218 0.0
O169 O 0.24183 0.18292 0.59904 0.0
O170 O 0.21893 0.19899 0.61133 0.0
Mg171 Mg 0.2271 0.22779 0.59409 0.0
C172 C 0.22587 0.18423 0.61154 0.0
C173 C 0.28736 0.16927 0.5772 0.0
O174 O 0.28808 0.17411 0.62254 0.0
O175 O 0.25101 0.20278 0.49931 0.0
O176 O 0.22902 0.21966 0.51543 0.0
O177 O 0.27465 0.20838 0.647 0.0
O178 O 0.25498 0.22293 0.60823 0.0
C179 C 0.23763 0.21077 0.48617 0.0
C180 C 0.26378 0.22064 0.6471 0.0
O181 O 0.2788 0.17799 0.54781 0.0
Mg182 Mg 0.56991 0.5077 0.25188 0.0
O183 O 0.58837 0.53224 0.23322 0.0
O184 O 0.57156 0.55464 0.22163 0.0
Mg185 Mg 0.54269 0.54472 0.23364 0.0
C186 C 0.58666 0.54836 0.22286 0.0
C187 C 0.59218 0.47744 0.28262 0.0
O188 O 0.57667 0.46849 0.27353 0.0
O189 O 0.56649 0.5188 0.32692 0.0
O190 O 0.54924 0.54062 0.31244 0.0
O191 O 0.56587 0.50022 0.17455 0.0
O192 O 0.54917 0.5177 0.21437 0.0
C193 C 0.55771 0.53144 0.34126 0.0
C194 C 0.55312 0.51053 0.17438 0.0
O195 O 0.59381 0.49409 0.27678 0.0
Mg196 Mg 0.23157 0.8505 0.0845 0.0
O197 O 0.25906 0.8658 0.08212 0.0
O198 O 0.27925 0.84684 0.09878 0.0
Mg199 Mg 0.26472 0.8195 0.10975 0.0
C200 C 0.27514 0.86239 0.08917 0.0
C201 C 0.20245 0.8731 0.05384 0.0
O202 O 0.19433 0.8614 0.08162 0.0
O203 O 0.23523 0.8368 0.01281 0.0
O204 O 0.25477 0.81752 0.0317 0.0
O205 O 0.23182 0.85753 0.16217 0.0
O206 O 0.24163 0.83313 0.13141 0.0
C207 C 0.2446 0.82423 0.0014 0.0
C208 C 0.24007 0.84343 0.168 0.0
O209 O 0.21899 0.87271 0.04783 0.0
Mg210 Mg 0.94356 0.55766 0.78181 0.0
O211 O 0.92587 0.53124 0.7735 0.0
O212 O 0.9437 0.50972 0.76055 0.0
Mg213 Mg 0.97234 0.5219 0.76496 0.0
C214 C 0.92823 0.51497 0.76461 0.0
C215 C 0.92247 0.58774 0.81963 0.0
O216 O 0.93786 0.59644 0.8109 0.0
O217 O 0.95236 0.55137 0.8574 0.0
O218 O 0.96953 0.52935 0.84413 0.0
O219 O 0.94138 0.55964 0.70289 0.0
O220 O 0.96265 0.54692 0.74095 0.0
C221 C 0.96231 0.53984 0.87245 0.0
C222 C 0.95472 0.55006 0.70125 0.0
O223 O 0.9203 0.57113 0.81062 0.0
H224 H 0.2098 0.32326 0.1881 0.0
H225 H 0.20481 0.29419 0.22339 0.0
H226 H 0.26116 0.28896 0.22389 0.0
H227 H 0.26623 0.31782 0.18671 0.0
H228 H 0.24169 0.25693 0.2036 0.0
H229 H 0.24248 0.30512 0.32127 0.0
H230 H 0.23265 0.3328 0.35567 0.0
H231 H 0.17939 0.30796 0.36311 0.0
H232 H 0.18889 0.2802 0.32817 0.0
H233 H 0.26126 0.21299 0.41463 0.0
H234 H 0.25681 0.22746 0.33931 0.0
H235 H 0.20089 0.22777 0.36651 0.0
H236 H 0.2055 0.21402 0.44305 0.0
H237 H 0.21524 0.25969 0.36312 0.0
H238 H 0.21671 0.20895 0.26112 0.0
H239 H 0.22746 0.18136 0.22913 0.0
H240 H 0.2769 0.21003 0.19417 0.0
H241 H 0.26657 0.23776 0.22659 0.0
C242 C 0.22112 0.31583 0.19477 0.0
C243 C 0.23843 0.32292 0.18478 0.0
C244 C 0.21823 0.2992 0.21505 0.0
C245 C 0.23263 0.28951 0.22665 0.0
C246 C 0.24986 0.29621 0.21505 0.0
C247 C 0.25274 0.31279 0.19428 0.0
C248 C 0.22997 0.2734 0.25544 0.0
C249 C 0.23594 0.25742 0.23856 0.0
C250 C 0.22204 0.27402 0.30043 0.0
C251 C 0.21634 0.29068 0.3216 0.0
C252 C 0.22865 0.30562 0.32992 0.0
C253 C 0.22314 0.32131 0.34956 0.0
C254 C 0.20539 0.32216 0.36142 0.0
C255 C 0.19313 0.3073 0.35381 0.0
C256 C 0.19856 0.29158 0.33411 0.0
C257 C 0.24787 0.2154 0.40355 0.0
C258 C 0.23378 0.21276 0.43498 0.0
C259 C 0.24531 0.22364 0.36024 0.0
C260 C 0.22853 0.22893 0.34742 0.0
C261 C 0.21398 0.22398 0.37589 0.0
C262 C 0.21661 0.21611 0.41959 0.0
C263 C 0.22712 0.24296 0.31184 0.0
C264 C 0.22052 0.25878 0.32764 0.0
C265 C 0.23456 0.2421 0.26616 0.0
C266 C 0.24087 0.22545 0.24656 0.0
C267 C 0.22993 0.20936 0.24696 0.0
C268 C 0.23594 0.1937 0.22867 0.0
C269 C 0.25286 0.19394 0.20969 0.0
C270 C 0.2638 0.20986 0.20887 0.0
C271 C 0.25785 0.22557 0.22713 0.0
H272 H 0.25749 0.18179 0.19555 0.0
H273 H 0.20116 0.33431 0.37663 0.0
H274 H 0.94231 0.01217 0.30774 0.0
H275 H 0.96352 0.00648 0.37123 0.0
H276 H 0.98402 0.06176 0.37412 0.0
H277 H 0.96347 0.06724 0.30861 0.0
H278 H 0.0102 0.04358 0.37717 0.0
H279 H 0.95684 0.04161 0.46446 0.0
H280 H 0.92578 0.03246 0.48402 0.0
H281 H 0.93814 0.97843 0.49589 0.0
H282 H 0.96924 0.98721 0.47574 0.0
H283 H 0.04922 0.04169 0.61583 0.0
H284 H 0.03015 0.04697 0.54672 0.0
H285 H 0.02965 0.99191 0.50234 0.0
H286 H 0.04913 0.98663 0.57103 0.0
H287 H 0.9941 0.00926 0.52049 0.0
H288 H 0.04911 0.01406 0.4343 0.0
H289 H 0.08004 0.0261 0.42197 0.0
H290 H 0.06358 0.07888 0.41686 0.0
H291 H 0.03257 0.06717 0.4299 0.0
C292 C 0.95118 0.02315 0.32241 0.0
C293 C 0.95123 0.04016 0.30341 0.0
C294 C 0.96327 0.01991 0.35885 0.0
C295 C 0.97527 0.03373 0.37802 0.0
C296 C 0.97496 0.05085 0.35986 0.0
C297 C 0.96316 0.054 0.32263 0.0
C298 C 0.98867 0.03019 0.41536 0.0
C299 C 0.00656 0.03626 0.40873 0.0
C300 C 0.98408 0.02042 0.4564 0.0
C301 C 0.96534 0.01505 0.46812 0.0
C302 C 0.9529 0.02775 0.47083 0.0
C303 C 0.9353 0.02263 0.4821 0.0
C304 C 0.92998 0.00488 0.49111 0.0
C305 C 0.94227 0.99218 0.48887 0.0
C306 C 0.9599 0.99722 0.47755 0.0
C307 C 0.04523 0.03079 0.59098 0.0
C308 C 0.05048 0.01374 0.5987 0.0
C309 C 0.03443 0.03383 0.55155 0.0
C310 C 0.0285 0.01979 0.51986 0.0
C311 C 0.03417 0.00287 0.5266 0.0
C312 C 0.04533 -9e-05 0.5655 0.0
C313 C 0.01535 0.02262 0.48184 0.0
C314 C 0.99756 0.01648 0.48861 0.0
C315 C 0.01994 0.03272 0.44171 0.0
C316 C 0.03855 0.03975 0.43358 0.0
C317 C 0.05211 0.02825 0.43103 0.0
C318 C 0.06965 0.03501 0.42379 0.0
C319 C 0.07378 0.05325 0.41877 0.0
C320 C 0.06037 0.06476 0.42082 0.0
C321 C 0.04281 0.05807 0.42808 0.0
H322 H 0.08737 0.05846 0.41317 0.0
H323 H 0.91635 0.00096 0.49994 0.0
H324 H 0.25332 0.7224 0.64927 0.0
H325 H 0.24898 0.74003 0.72092 0.0
H326 H 0.21887 0.77503 0.6391 0.0
H327 H 0.2234 0.75755 0.5665 0.0
H328 H 0.24361 0.79344 0.69662 0.0
H329 H 0.19772 0.74719 0.71591 0.0
H330 H 0.18398 0.71635 0.7172 0.0
H331 H 0.21983 0.70512 0.8313 0.0
H332 H 0.23396 0.73583 0.83028 0.0
H333 H 0.22598 0.83547 0.92406 0.0
H334 H 0.22182 0.82082 0.84507 0.0
H335 H 0.25501 0.78049 0.88952 0.0
H336 H 0.2593 0.7949 0.96799 0.0
H337 H 0.22283 0.7667 0.8472 0.0
H338 H 0.2711 0.8118 0.8187 0.0
H339 H 0.28511 0.84252 0.81621 0.0
H340 H 0.24404 0.8559 0.71866 0.0
H341 H 0.22964 0.82529 0.7211 0.0
C342 C 0.24561 0.73372 0.64637 0.0
C343 C 0.23871 0.73855 0.60204 0.0
C344 C 0.24306 0.74375 0.68752 0.0
C345 C 0.23344 0.75873 0.68542 0.0
C346 C 0.22629 0.76348 0.64145 0.0
C347 C 0.22883 0.75342 0.60009 0.0
C348 C 0.2318 0.76982 0.72905 0.0
C349 C 0.23867 0.78772 0.72931 0.0
C350 C 0.22552 0.76229 0.77175 0.0
C351 C 0.21696 0.74381 0.77284 0.0
C352 C 0.20275 0.73812 0.74109 0.0
C353 C 0.19488 0.72066 0.7418 0.0
C354 C 0.20104 0.70878 0.77427 0.0
C355 C 0.21506 0.71434 0.80618 0.0
C356 C 0.22299 0.73179 0.80561 0.0
C357 C 0.2325 0.82355 0.91689 0.0
C358 C 0.24293 0.81634 0.95246 0.0
C359 C 0.23011 0.81523 0.87177 0.0
C360 C 0.23806 0.79956 0.86168 0.0
C361 C 0.24868 0.79252 0.89679 0.0
C362 C 0.25117 0.80085 0.94159 0.0
C363 C 0.23518 0.79009 0.81499 0.0
C364 C 0.22741 0.7725 0.81424 0.0
C365 C 0.24056 0.79793 0.7719 0.0
C366 C 0.24916 0.81633 0.77061 0.0
C367 C 0.26495 0.82134 0.79712 0.0
C368 C 0.27299 0.83872 0.79563 0.0
C369 C 0.26543 0.85117 0.76744 0.0
C370 C 0.24985 0.84625 0.74058 0.0
C371 C 0.24175 0.82889 0.74199 0.0
H372 H 0.27168 0.86461 0.7663 0.0
H373 H 0.19493 0.69527 0.77475 0.0
H374 H 0.41511 0.03146 0.12118 0.0
H375 H 0.42341 0.01746 0.04559 0.0
H376 H 0.47486 0.00985 0.10753 0.0
H377 H 0.46705 0.02413 0.18153 0.0
H378 H 0.45968 0.02707 0.99095 0.0
H379 H 0.47569 0.96259 0.08681 0.0
H380 H 0.4634 0.94332 0.14958 0.0
H381 H 0.41205 0.96195 0.12596 0.0
H382 H 0.42394 0.98112 0.06247 0.0
H383 H 0.53573 0.97405 0.98639 0.0
H384 H 0.50627 0.9785 0.01513 0.0
H385 H 0.4877 0.98611 0.87098 0.0
H386 H 0.51742 0.9813 0.84203 0.0
H387 H 0.47238 0.96406 0.00039 0.0
H388 H 0.46106 0.02166 0.88206 0.0
H389 H 0.47643 0.04521 0.83473 0.0
H390 H 0.52345 0.04423 0.92343 0.0
H391 H 0.5084 0.02055 0.97089 0.0
C392 C 0.42828 0.02707 0.11816 0.0
C393 C 0.44036 0.02864 0.15738 0.0
C394 C 0.43293 0.01901 0.07526 0.0
C395 C 0.44956 0.01231 0.07175 0.0
C396 C 0.46183 0.01464 0.11009 0.0
C397 C 0.45733 0.0228 0.15233 0.0
C398 C 0.45483 0.00281 0.02867 0.0
C399 C 0.46184 0.01308 0.99165 0.0
C400 C 0.45789 0.98467 0.03063 0.0
C401 C 0.45068 0.97324 0.06935 0.0
C402 C 0.46172 0.96248 0.09456 0.0
C403 C 0.45484 0.95159 0.13044 0.0
C404 C 0.43693 0.95134 0.14161 0.0
C405 C 0.42591 0.96211 0.11724 0.0
C406 C 0.43272 0.973 0.08129 0.0
C407 C 0.52513 0.97588 0.96073 0.0
C408 C 0.52859 0.97698 0.91215 0.0
C409 C 0.50834 0.97852 0.97706 0.0
C410 C 0.49481 0.98271 0.94518 0.0
C411 C 0.49795 0.98286 0.89609 0.0
C412 C 0.5148 0.97991 0.87959 0.0
C413 C 0.47841 0.98873 0.96525 0.0
C414 C 0.4693 0.97774 0.99783 0.0
C415 C 0.474 0.0064 0.96057 0.0
C416 C 0.48372 0.01918 0.92937 0.0
C417 C 0.47476 0.02632 0.89097 0.0
C418 C 0.48338 0.03974 0.86432 0.0
C419 C 0.50088 0.04624 0.87621 0.0
C420 C 0.5099 0.03914 0.91424 0.0
C421 C 0.50138 0.02565 0.94081 0.0
H422 H 0.5075 0.0567 0.85573 0.0
H423 H 0.4316 0.94279 0.16915 0.0
H424 H 0.25281 0.81267 0.19317 0.0
H425 H 0.26699 0.80594 0.26821 0.0
H426 H 0.26172 0.85907 0.32208 0.0
H427 H 0.24727 0.86603 0.24604 0.0
H428 H 0.29897 0.8266 0.32532 0.0
H429 H 0.24724 0.8514 0.40055 0.0
H430 H 0.21628 0.85928 0.39509 0.0
H431 H 0.19856 0.80585 0.34881 0.0
H432 H 0.22945 0.79775 0.35358 0.0
H433 H 0.30004 0.75641 0.50803 0.0
H434 H 0.30019 0.78727 0.48163 0.0
H435 H 0.26285 0.76974 0.36758 0.0
H436 H 0.26292 0.73923 0.39256 0.0
H437 H 0.25324 0.79925 0.43115 0.0
H438 H 0.30254 0.77709 0.33702 0.0
H439 H 0.33248 0.76663 0.33345 0.0
H440 H 0.35444 0.81341 0.4119 0.0
H441 H 0.32456 0.82403 0.41625 0.0
C442 C 0.25483 0.82306 0.22056 0.0
C443 C 0.24884 0.83984 0.21379 0.0
C444 C 0.26304 0.81921 0.26337 0.0
C445 C 0.26546 0.83203 0.30045 0.0
C446 C 0.25993 0.84902 0.29377 0.0
C447 C 0.25159 0.85291 0.25057 0.0
C448 C 0.2718 0.82617 0.34703 0.0
C449 C 0.28927 0.82134 0.3504 0.0
C450 C 0.25916 0.81932 0.37955 0.0
C451 C 0.24059 0.82402 0.37727 0.0
C452 C 0.23672 0.84138 0.38906 0.0
C453 C 0.2192 0.84587 0.3861 0.0
C454 C 0.20546 0.83308 0.37157 0.0
C455 C 0.20921 0.81575 0.36006 0.0
C456 C 0.22671 0.8112 0.36295 0.0
C457 C 0.29206 0.75918 0.47697 0.0
C458 C 0.28124 0.74547 0.45273 0.0
C459 C 0.29209 0.77676 0.46225 0.0
C460 C 0.28124 0.7807 0.4234 0.0
C461 C 0.27103 0.76694 0.39827 0.0
C462 C 0.2711 0.74951 0.41257 0.0
C463 C 0.28008 0.79898 0.40742 0.0
C464 C 0.26348 0.80578 0.40957 0.0
C465 C 0.29352 0.80763 0.38013 0.0
C466 C 0.31137 0.80122 0.3775 0.0
C467 C 0.31375 0.78505 0.35382 0.0
C468 C 0.3307 0.77912 0.35158 0.0
C469 C 0.34534 0.78932 0.37259 0.0
C470 C 0.34308 0.8055 0.39576 0.0
C471 C 0.32615 0.81148 0.39813 0.0
H472 H 0.35845 0.78471 0.3708 0.0
H473 H 0.19191 0.83659 0.36927 0.0
H474 H 0.47706 -0.0006 0.39358 0.0
H475 H 0.49029 0.99891 0.47308 0.0
H476 H 0.44708 0.02564 0.52992 0.0
H477 H 0.43395 0.02681 0.44944 0.0
H478 H 0.47702 0.04077 0.56476 0.0
H479 H 0.45214 0.98091 0.55213 0.0
H480 H 0.44488 0.95106 0.5155 0.0
H481 H 0.50035 0.94301 0.51377 0.0
H482 H 0.50798 0.97292 0.54977 0.0
H483 H 0.5109 0.02624 0.80114 0.0
H484 H 0.49229 0.02661 0.72896 0.0
H485 H 0.534 0.00671 0.64676 0.0
H486 H 0.55278 0.00645 0.7189 0.0
H487 H 0.50126 0.98751 0.63107 0.0
H488 H 0.5252 0.04937 0.63878 0.0
H489 H 0.53125 0.07889 0.67836 0.0
H490 H 0.47527 0.08223 0.69366 0.0
H491 H 0.46891 0.05263 0.65468 0.0
C492 C 0.47016 0.00497 0.42292 0.0
C493 C 0.45441 0.01315 0.41503 0.0
C494 C 0.47773 0.00459 0.46859 0.0
C495 C 0.46957 0.012 0.50771 0.0
C496 C 0.45359 0.0198 0.50026 0.0
C497 C 0.44608 0.02039 0.45429 0.0
C498 C 0.47847 0.01254 0.55554 0.0
C499 C 0.48199 0.02904 0.57972 0.0
C500 C 0.48515 0.99729 0.57493 0.0
C501 C 0.48063 0.97923 0.55341 0.0
C502 C 0.4628 0.97283 0.54365 0.0
C503 C 0.45862 0.95589 0.52304 0.0
C504 C 0.47214 0.94516 0.51225 0.0
C505 C 0.48988 0.95134 0.52214 0.0
C506 C 0.49414 0.96828 0.54273 0.0
C507 C 0.51631 0.02239 0.76763 0.0
C508 C 0.53341 0.01652 0.76585 0.0
C509 C 0.5056 0.0225 0.7264 0.0
C510 C 0.5118 0.01673 0.68256 0.0
C511 C 0.52898 0.01118 0.68036 0.0
C512 C 0.53971 0.01112 0.72159 0.0
C513 C 0.50016 0.01576 0.63923 0.0
C514 C 0.49609 -0.00084 0.61617 0.0
C515 C 0.49276 0.03084 0.62133 0.0
C516 C 0.49659 0.04872 0.64424 0.0
C517 C 0.51419 0.05635 0.65089 0.0
C518 C 0.51767 0.07311 0.67316 0.0
C519 C 0.50365 0.08241 0.68863 0.0
C520 C 0.48612 0.075 0.68171 0.0
C521 C 0.48256 0.05825 0.65949 0.0
H522 H 0.50638 0.09537 0.70589 0.0
H523 H 0.46888 0.93205 0.49628 0.0
H524 H 0.28871 0.23155 0.71606 0.0
H525 H 0.28572 0.25284 0.7821 0.0
H526 H 0.23063 0.25556 0.74096 0.0
H527 H 0.23369 0.23469 0.675 0.0
H528 H 0.24615 0.28765 0.7547 0.0
H529 H 0.24385 0.23315 0.84056 0.0
H530 H 0.2546 0.20512 0.86724 0.0
H531 H 0.30159 0.23391 0.9292 0.0
H532 H 0.29121 0.26211 0.90233 0.0
H533 H 0.20923 0.32045 0.9667 0.0
H534 H 0.21766 0.30204 0.89953 0.0
H535 H 0.27306 0.31604 0.9356 0.0
H536 H 0.26478 0.33481 0.00233 0.0
H537 H 0.26104 0.27765 0.92447 0.0
H538 H 0.26099 0.33267 0.84354 0.0
H539 H 0.24864 0.36019 0.81897 0.0
H540 H 0.20425 0.32954 0.74939 0.0
H541 H 0.2162 0.30182 0.77421 0.0
C542 C 0.27593 0.23657 0.7216 0.0
C543 C 0.2615 0.23171 0.69001 0.0
C544 C 0.27423 0.24872 0.75926 0.0
C545 C 0.25795 0.25585 0.76635 0.0
C546 C 0.24338 0.25043 0.73578 0.0
C547 C 0.24515 0.23852 0.69794 0.0
C548 C 0.25604 0.26938 0.80451 0.0
C549 C 0.24929 0.28537 0.79185 0.0
C550 C 0.26059 0.26664 0.85282 0.0
C551 C 0.26686 0.24971 0.86893 0.0
C552 C 0.25655 0.23349 0.85951 0.0
C553 C 0.26256 0.21758 0.87474 0.0
C554 C 0.2788 0.21773 0.89976 0.0
C555 C 0.28904 0.23381 0.90973 0.0
C556 C 0.28309 0.24976 0.89453 0.0
C557 C 0.2232 0.31978 0.95997 0.0
C558 C 0.23635 0.32905 0.9897 0.0
C559 C 0.22798 0.3093 0.92165 0.0
C560 C 0.24596 0.30773 0.91292 0.0
C561 C 0.25913 0.31715 0.94199 0.0
C562 C 0.25436 0.32791 0.97981 0.0
C563 C 0.25083 0.29558 0.87454 0.0
C564 C 0.25814 0.27992 0.88718 0.0
C565 C 0.24661 0.29851 0.8263 0.0
C566 C 0.23942 0.31516 0.81111 0.0
C567 C 0.24851 0.33179 0.82338 0.0
C568 C 0.24161 0.34743 0.80932 0.0
C569 C 0.22566 0.34662 0.78273 0.0
C570 C 0.2166 0.33015 0.77003 0.0
C571 C 0.22344 0.31447 0.78404 0.0
H572 H 0.22033 0.35874 0.77187 0.0
H573 H 0.28343 0.2054 0.91154 0.0
H574 H 0.06537 0.00432 0.88198 0.0
H575 H 0.05155 0.00208 0.95965 0.0
H576 H 0.02747 0.05073 0.93562 0.0
H577 H 0.04131 0.05321 0.85842 0.0
H578 H 0.03522 0.04606 0.03197 0.0
H579 H 0.00667 0.01183 0.89369 0.0
H580 H 0.00689 0.98916 0.82893 0.0
H581 H 0.01801 0.95 0.93098 0.0
H582 H 0.01806 0.97254 0.99627 0.0
H583 H 0.94702 0.04741 0.08719 0.0
H584 H 0.97609 0.04632 0.0527 0.0
H585 H 0.97969 0.99402 0.10802 0.0
H586 H 0.95037 0.99502 0.14296 0.0
H587 H 0.98856 0.9954 0.01642 0.0
H588 H 0.00635 0.02838 0.15627 0.0
H589 H 0.00514 0.05115 0.2202 0.0
H590 H 0.01444 0.09235 0.11892 0.0
H591 H 0.01536 0.06985 0.05416 0.0
C592 C 0.05761 0.01486 0.89385 0.0
C593 C 0.05405 0.02871 0.86348 0.0
C594 C 0.04974 0.01354 0.9383 0.0
C595 C 0.03822 0.02605 0.95285 0.0
C596 C 0.03626 0.0409 0.92494 0.0
C597 C 0.04408 0.04221 0.88057 0.0
C598 C 0.02574 0.02229 0.99183 0.0
C599 C 0.02509 0.03492 0.02905 0.0
C600 C 0.01288 0.00743 0.98874 0.0
C601 C 0.01257 0.99387 0.94966 0.0
C602 C 0.00924 0.9984 0.90222 0.0
C603 C 0.00932 0.98558 0.86545 0.0
C604 C 0.01251 0.96816 0.87582 0.0
C605 C 0.01558 0.96351 0.923 0.0
C606 C 0.01556 0.97629 0.95988 0.0
C607 C 0.95403 0.03574 0.09253 0.0
C608 C 0.94646 0.02136 0.11811 0.0
C609 C 0.97072 0.03517 0.07301 0.0
C610 C 0.98024 0.02027 0.07881 0.0
C611 C 0.97264 0.00573 0.10369 0.0
C612 C 0.95587 0.00629 0.12335 0.0
C613 C 0.99751 0.01962 0.05545 0.0
C614 C 0.99904 0.00617 0.02096 0.0
C615 C 0.01117 0.03369 0.06134 0.0
C616 C 0.01089 0.04738 0.10024 0.0
C617 C 0.00804 0.04229 0.14752 0.0
C618 C 0.00741 0.05516 0.18394 0.0
C619 C 0.00971 0.07318 0.17362 0.0
C620 C 0.01268 0.07838 0.12686 0.0
C621 C 0.01329 0.06556 0.09028 0.0
H622 H 0.00921 0.08313 0.20186 0.0
H623 H 0.01258 0.95826 0.84731 0.0
H624 H 0.77372 0.70318 0.95208 0.0
H625 H 0.78004 0.71532 0.87372 0.0
H626 H 0.73507 0.74632 0.88428 0.0
H627 H 0.72839 0.73397 0.96143 0.0
H628 H 0.74039 0.73737 0.79236 0.0
H629 H 0.77833 0.76236 0.93282 0.0
H630 H 0.8001 0.75769 0.99742 0.0
H631 H 0.83472 0.73681 0.89548 0.0
H632 H 0.81308 0.74129 0.8304 0.0
H633 H 0.74835 0.82651 0.76232 0.0
H634 H 0.74815 0.79654 0.79176 0.0
H635 H 0.79605 0.78897 0.71668 0.0
H636 H 0.79613 0.81911 0.68569 0.0
H637 H 0.79589 0.77764 0.81364 0.0
H638 H 0.76215 0.76615 0.67205 0.0
H639 H 0.74036 0.77129 0.6083 0.0
H640 H 0.69818 0.76568 0.70791 0.0
H641 H 0.71975 0.76069 0.77248 0.0
C642 C 0.76486 0.71218 0.93707 0.0
C643 C 0.75082 0.71799 0.96362 0.0
C644 C 0.76851 0.71911 0.89226 0.0
C645 C 0.75829 0.73206 0.87372 0.0
C646 C 0.74321 0.73641 0.89796 0.0
C647 C 0.73948 0.72943 0.94241 0.0
C648 C 0.76457 0.74341 0.83416 0.0
C649 C 0.75265 0.746 0.79639 0.0
C650 C 0.78093 0.7542 0.83822 0.0
C651 C 0.79412 0.75208 0.87698 0.0
C652 C 0.79062 0.75682 0.9243 0.0
C653 C 0.8029 0.75418 0.96095 0.0
C654 C 0.81877 0.74694 0.95056 0.0
C655 C 0.82242 0.74241 0.90346 0.0
C656 C 0.81017 0.74501 0.8667 0.0
C657 C 0.75878 0.81849 0.75161 0.0
C658 C 0.77208 0.82509 0.72101 0.0
C659 C 0.75864 0.80135 0.76846 0.0
C660 C 0.77185 0.79045 0.75543 0.0
C661 C 0.78562 0.79716 0.72654 0.0
C662 C 0.78568 0.81437 0.70916 0.0
C663 C 0.77113 0.77229 0.77394 0.0
C664 C 0.78407 0.76847 0.80778 0.0
C665 C 0.7558 0.76028 0.76586 0.0
C666 C 0.74261 0.76304 0.72718 0.0
C667 C 0.74824 0.76609 0.68046 0.0
C668 C 0.73592 0.76898 0.64414 0.0
C669 C 0.71789 0.76884 0.65405 0.0
C670 C 0.71215 0.76576 0.70028 0.0
C671 C 0.72442 0.76284 0.73674 0.0
H672 H 0.70838 0.7711 0.62588 0.0
H673 H 0.82824 0.74486 0.97898 0.0
H674 H 0.788 0.31483 0.46068 0.0
H675 H 0.78211 0.29645 0.38842 0.0
H676 H 0.74145 0.32948 0.34412 0.0
H677 H 0.74707 0.34787 0.41672 0.0
H678 H 0.72925 0.29493 0.34129 0.0
H679 H 0.78003 0.32966 0.28472 0.0
H680 H 0.81082 0.34367 0.28683 0.0
H681 H 0.83063 0.29232 0.29263 0.0
H682 H 0.79994 0.278 0.29123 0.0
H683 H 0.7154 0.2549 0.10853 0.0
H684 H 0.72094 0.27446 0.17876 0.0
H685 H 0.76203 0.24277 0.2278 0.0
H686 H 0.75676 0.22321 0.15736 0.0
H687 H 0.77376 0.27743 0.22663 0.0
H688 H 0.72284 0.24282 0.28505 0.0
H689 H 0.692 0.22892 0.28232 0.0
H690 H 0.67245 0.28027 0.27239 0.0
H691 H 0.70319 0.29448 0.27441 0.0
C692 C 0.77802 0.31842 0.43523 0.0
C693 C 0.76793 0.33277 0.44475 0.0
C694 C 0.7747 0.3079 0.39381 0.0
C695 C 0.76133 0.3116 0.36091 0.0
C696 C 0.75178 0.32638 0.36917 0.0
C697 C 0.7551 0.33693 0.4106 0.0
C698 C 0.75645 0.29923 0.31988 0.0
C699 C 0.73891 0.29133 0.3157 0.0
C700 C 0.76918 0.29419 0.28735 0.0
C701 C 0.78767 0.30276 0.28832 0.0
C702 C 0.79095 0.32136 0.28687 0.0
C703 C 0.80839 0.32935 0.28785 0.0
C704 C 0.82267 0.3189 0.28998 0.0
C705 C 0.81955 0.30041 0.29103 0.0
C706 C 0.80213 0.29234 0.2901 0.0
C707 C 0.72537 0.25183 0.13467 0.0
C708 C 0.73571 0.23753 0.12705 0.0
C709 C 0.72851 0.26305 0.17487 0.0
C710 C 0.74193 0.26009 0.20843 0.0
C711 C 0.75168 0.24534 0.20215 0.0
C712 C 0.74857 0.23412 0.16195 0.0
C713 C 0.7466 0.27304 0.24828 0.0
C714 C 0.7641 0.28107 0.25218 0.0
C715 C 0.73383 0.27821 0.28051 0.0
C716 C 0.71533 0.2697 0.27942 0.0
C717 C 0.71197 0.25114 0.28189 0.0
C718 C 0.6945 0.24321 0.28055 0.0
C719 C 0.68027 0.2537 0.27706 0.0
C720 C 0.68348 0.27216 0.27503 0.0
C721 C 0.70092 0.28016 0.27632 0.0
H722 H 0.66676 0.24753 0.27603 0.0
H723 H 0.83616 0.32511 0.29071 0.0
H724 H 0.78929 0.24929 0.93022 0.0
H725 H 0.78999 0.27919 0.89855 0.0
H726 H 0.73722 0.28402 0.94983 0.0
H727 H 0.73628 0.25395 0.97944 0.0
H728 H 0.73756 0.29158 0.86315 0.0
H729 H 0.77538 0.31091 0.99475 0.0
H730 H 0.80041 0.31068 0.05272 0.0
H731 H 0.83747 0.31824 0.94004 0.0
H732 H 0.81267 0.31826 0.88123 0.0
H733 H 0.73874 0.36878 0.73411 0.0
H734 H 0.74132 0.35493 0.81165 0.0
H735 H 0.78771 0.33084 0.76528 0.0
H736 H 0.7853 0.34469 0.68834 0.0
H737 H 0.78805 0.33847 0.8657 0.0
H738 H 0.74938 0.30967 0.7367 0.0
H739 H 0.72451 0.30938 0.67789 0.0
H740 H 0.68894 0.31972 0.79001 0.0
H741 H 0.7137 0.32031 0.84938 0.0
C742 C 0.77796 0.25688 0.93509 0.0
C743 C 0.76255 0.24923 0.95602 0.0
C744 C 0.77843 0.27403 0.91755 0.0
C745 C 0.76368 0.28395 0.92207 0.0
C746 C 0.7487 0.2766 0.94563 0.0
C747 C 0.74809 0.25934 0.96212 0.0
C748 C 0.76291 0.3008 0.89655 0.0
C749 C 0.74837 0.30208 0.86509 0.0
C750 C 0.77711 0.31443 0.89828 0.0
C751 C 0.79213 0.31451 0.9335 0.0
C752 C 0.78886 0.31241 0.98225 0.0
C753 C 0.80302 0.31233 0.01529 0.0
C754 C 0.82052 0.31443 7e-05 0.0
C755 C 0.8239 0.31663 0.95178 0.0
C756 C 0.8098 0.31671 0.91858 0.0
C757 C 0.74983 0.36102 0.7411 0.0
C758 C 0.76149 0.3573 0.70478 0.0
C759 C 0.75132 0.35319 0.7854 0.0
C760 C 0.76454 0.34167 0.79373 0.0
C761 C 0.77739 0.33965 0.75942 0.0
C762 C 0.77582 0.34734 0.71514 0.0
C763 C 0.76291 0.32886 0.83249 0.0
C764 C 0.77699 0.32825 0.86574 0.0
C765 C 0.74828 0.31581 0.83284 0.0
C766 C 0.73339 0.31526 0.79729 0.0
C767 C 0.73627 0.312 0.74871 0.0
C768 C 0.7222 0.31177 0.71531 0.0
C769 C 0.70516 0.31459 0.73019 0.0
C770 C 0.70215 0.31759 0.77852 0.0
C771 C 0.71619 0.31788 0.81205 0.0
H772 H 0.69428 0.3144 0.70428 0.0
H773 H 0.83146 0.31436 0.0257 0.0
H774 H 0.7397 0.74287 0.19208 0.0
H775 H 0.73443 0.76123 0.26188 0.0
H776 H 0.76094 0.7258 0.35159 0.0
H777 H 0.76644 0.70734 0.28155 0.0
H778 H 0.71789 0.75706 0.34513 0.0
H779 H 0.78684 0.75135 0.43331 0.0
H780 H 0.81692 0.74474 0.41067 0.0
H781 H 0.8076 0.76365 0.27009 0.0
H782 H 0.77758 0.77059 0.29211 0.0
H783 H 0.72349 0.79892 0.57597 0.0
H784 H 0.72402 0.77823 0.5081 0.0
H785 H 0.76124 0.81525 0.43903 0.0
H786 H 0.7612 0.83587 0.5074 0.0
H787 H 0.77193 0.78303 0.43496 0.0
H788 H 0.71746 0.80876 0.40188 0.0
H789 H 0.68773 0.81783 0.41914 0.0
H790 H 0.66853 0.76343 0.44009 0.0
H791 H 0.69824 0.75406 0.42357 0.0
C792 C 0.74414 0.73875 0.22669 0.0
C793 C 0.75361 0.7237 0.23124 0.0
C794 C 0.74107 0.74927 0.2666 0.0
C795 C 0.74749 0.745 0.31175 0.0
C796 C 0.75609 0.72944 0.31688 0.0
C797 C 0.75918 0.71889 0.27688 0.0
C798 C 0.74637 0.7576 0.35253 0.0
C799 C 0.72967 0.76266 0.36504 0.0
C800 C 0.7618 0.7652 0.37768 0.0
C801 C 0.7799 0.76128 0.36422 0.0
C802 C 0.79124 0.75413 0.39763 0.0
C803 C 0.80827 0.75033 0.38489 0.0
C804 C 0.81414 0.75371 0.33891 0.0
C805 C 0.80302 0.76097 0.30563 0.0
C806 C 0.78599 0.76482 0.3182 0.0
C807 C 0.73174 0.80274 0.54628 0.0
C808 C 0.74238 0.81904 0.54727 0.0
C809 C 0.73194 0.79091 0.50737 0.0
C810 C 0.74259 0.79525 0.4684 0.0
C811 C 0.75297 0.81163 0.46885 0.0
C812 C 0.75287 0.82343 0.50789 0.0
C813 C 0.74342 0.78246 0.42788 0.0
C814 C 0.76009 0.77733 0.41542 0.0
C815 C 0.728 0.77514 0.40212 0.0
C816 C 0.71012 0.78073 0.41195 0.0
C817 C 0.70694 0.79875 0.41054 0.0
C818 C 0.69008 0.80394 0.42012 0.0
C819 C 0.67626 0.79122 0.43083 0.0
C820 C 0.67926 0.77327 0.43185 0.0
C821 C 0.6961 0.76801 0.42234 0.0
H822 H 0.66322 0.79527 0.43823 0.0
H823 H 0.82732 0.75074 0.32912 0.0
H824 H 0.54544 0.48815 0.09748 0.0
H825 H 0.5262 0.49306 0.02824 0.0
H826 H 0.5202 0.5461 0.082 0.0
H827 H 0.53909 0.54116 0.15089 0.0
H828 H 0.48904 0.52996 0.05951 0.0
H829 H 0.54529 0.53805 0.98444 0.0
H830 H 0.5747 0.53021 0.95966 0.0
H831 H 0.55011 0.48472 0.88052 0.0
H832 H 0.52054 0.49215 0.9054 0.0
H833 H 0.46056 0.56927 0.8406 0.0
H834 H 0.48078 0.56102 0.90425 0.0
H835 H 0.45932 0.50632 0.8877 0.0
H836 H 0.43863 0.51449 0.82501 0.0
H837 H 0.50324 0.52121 0.8894 0.0
H838 H 0.44636 0.51399 0.97129 0.0
H839 H 0.41779 0.52469 0.99364 0.0
H840 H 0.44535 0.57175 0.05862 0.0
H841 H 0.47409 0.5615 0.03558 0.0
C842 C 0.54017 0.50092 0.09405 0.0
C843 C 0.54344 0.51416 0.13 0.0
C844 C 0.52921 0.50372 0.05454 0.0
C845 C 0.52168 0.51993 0.05011 0.0
C846 C 0.52565 0.5334 0.08503 0.0
C847 C 0.53639 0.53053 0.12459 0.0
C848 C 0.50893 0.52269 0.01064 0.0
C849 C 0.49225 0.52809 0.02237 0.0
C850 C 0.51296 0.52007 0.96213 0.0
C851 C 0.53072 0.51553 0.94729 0.0
C852 C 0.54616 0.52627 0.96214 0.0
C853 C 0.56286 0.52193 0.94799 0.0
C854 C 0.56428 0.50694 0.91867 0.0
C855 C 0.54899 0.4963 0.90332 0.0
C856 C 0.53226 0.50058 0.91742 0.0
C857 C 0.46008 0.55551 0.85072 0.0
C858 C 0.44796 0.54253 0.82817 0.0
C859 C 0.47164 0.55083 0.88687 0.0
C860 C 0.47145 0.53311 0.90029 0.0
C861 C 0.45955 0.52007 0.87762 0.0
C862 C 0.4477 0.52479 0.84218 0.0
C863 C 0.4836 0.52838 0.9387 0.0
C864 C 0.50011 0.52276 0.9267 0.0
C865 C 0.47956 0.53099 0.98695 0.0
C866 C 0.46233 0.5371 0.00115 0.0
C867 C 0.44631 0.52672 0.98981 0.0
C868 C 0.43009 0.53267 0.00274 0.0
C869 C 0.42975 0.5489 0.02747 0.0
C870 C 0.44563 0.5592 0.03939 0.0
C871 C 0.46189 0.55333 0.02638 0.0
H872 H 0.41717 0.55347 0.03749 0.0
H873 H 0.57721 0.50361 0.90773 0.0
H874 H 0.04498 0.47413 0.47644 0.0
H875 H 0.01628 0.47741 0.51078 0.0
H876 H 0.994 0.48595 0.37091 0.0
H877 H 0.02308 0.48256 0.33637 0.0
H878 H 0.991 0.51343 0.42767 0.0
H879 H 0.97328 0.4532 0.44119 0.0
H880 H 0.97548 0.42138 0.4545 0.0
H881 H 0.99011 0.43299 0.60155 0.0
H882 H 0.9883 0.4649 0.58909 0.0
H883 H 0.93613 0.54774 0.61542 0.0
H884 H 0.94248 0.53002 0.54421 0.0
H885 H 0.98897 0.51339 0.61623 0.0
H886 H 0.98314 0.5313 0.68624 0.0
H887 H 0.96556 0.48495 0.5709 0.0
H888 H 0.99343 0.54544 0.54184 0.0
H889 H 0.9922 0.57724 0.52605 0.0
H890 H 0.95764 0.56384 0.40407 0.0
H891 H 0.95843 0.53193 0.41971 0.0
C892 C 0.03372 0.47578 0.4528 0.0
C893 C 0.03608 0.47795 0.40394 0.0
C894 C 0.01725 0.4776 0.47236 0.0
C895 C 0.00286 0.48182 0.44343 0.0
C896 C 0.00484 0.48252 0.39382 0.0
C897 C 0.02138 0.48045 0.37408 0.0
C898 C 0.98766 0.48919 0.46678 0.0
C899 C 0.98483 0.50693 0.45789 0.0
C900 C 0.97948 0.48075 0.50603 0.0
C901 C 0.98058 0.46152 0.51415 0.0
C902 C 0.97704 0.449 0.47635 0.0
C903 C 0.97822 0.43093 0.48375 0.0
C904 C 0.98291 0.42517 0.52886 0.0
C905 C 0.98642 0.43747 0.56666 0.0
C906 C 0.98527 0.45556 0.55946 0.0
C907 C 0.94778 0.54041 0.61583 0.0
C908 C 0.95902 0.54073 0.65672 0.0
C909 C 0.95129 0.53023 0.57531 0.0
C910 C 0.96599 0.52019 0.57545 0.0
C911 C 0.97735 0.52079 0.61585 0.0
C912 C 0.974 0.53106 0.65586 0.0
C913 C 0.97033 0.50934 0.53357 0.0
C914 C 0.97097 0.49103 0.53917 0.0
C915 C 0.97639 0.51718 0.49114 0.0
C916 C 0.9757 0.53634 0.48247 0.0
C917 C 0.98537 0.54928 0.51207 0.0
C918 C 0.98479 0.56732 0.50307 0.0
C919 C 0.97476 0.57256 0.46425 0.0
C920 C 0.96532 0.55977 0.43428 0.0
C921 C 0.96581 0.54171 0.44323 0.0
H922 H 0.97437 0.58653 0.45727 0.0
H923 H 0.98382 0.41117 0.53451 0.0
H924 H 0.06214 0.53953 0.24352 0.0
H925 H 0.04534 0.54648 0.1719 0.0
H926 H 0.99655 0.52669 0.23722 0.0
H927 H 0.0133 0.52102 0.31009 0.0
H928 H 0.02927 0.52571 0.11375 0.0
H929 H 0.96041 0.54076 0.18405 0.0
H930 H 0.94821 0.55534 0.25394 0.0
H931 H 0.99753 0.58775 0.27713 0.0
H932 H 0.00995 0.57353 0.20706 0.0
H933 H 0.96993 0.51107 0.92257 0.0
H934 H 0.98177 0.51078 0.00426 0.0
H935 H 0.97789 0.56722 0.01935 0.0
H936 H 0.96515 0.56738 0.93815 0.0
H937 H 0.97204 0.55275 0.10184 0.0
H938 H 0.01713 0.55025 0.98658 0.0
H939 H 0.03175 0.53897 0.91594 0.0
H940 H 0.03438 0.4885 0.98115 0.0
H941 H 0.01952 0.49939 0.05191 0.0
C942 C 0.04778 0.53714 0.24285 0.0
C943 C 0.03896 0.52989 0.28219 0.0
C944 C 0.03817 0.541 0.20189 0.0
C945 C 0.0196 0.53719 0.19889 0.0
C946 C 0.01077 0.53023 0.23877 0.0
C947 C 0.02035 0.5269 0.28038 0.0
C948 C 0.00984 0.53896 0.15268 0.0
C949 C 0.01682 0.53175 0.11137 0.0
C950 C 0.99365 0.54699 0.149 0.0
C951 C 0.98615 0.55595 0.19051 0.0
C952 C 0.96862 0.55107 0.20389 0.0
C953 C 0.96167 0.55925 0.24359 0.0
C954 C 0.97211 0.57242 0.27006 0.0
C955 C 0.98948 0.5775 0.25671 0.0
C956 C 0.99649 0.56937 0.21703 0.0
C957 C 0.9713 0.52336 0.94362 0.0
C958 C 0.96685 0.53929 0.92386 0.0
C959 C 0.97814 0.5232 0.99024 0.0
C960 C 0.98124 0.53908 0.01749 0.0
C961 C 0.97574 0.55482 -0.00108 0.0
C962 C 0.96849 0.55491 0.95251 0.0
C963 C 0.99149 0.5394 0.06351 0.0
C964 C 0.98457 0.54688 0.10455 0.0
C965 C 0.00811 0.53221 0.06686 0.0
C966 C 0.01706 0.52559 0.02435 0.0
C967 C 0.02071 0.53671 0.98571 0.0
C968 C 0.02905 0.53039 0.94567 0.0
C969 C 0.03395 0.51302 0.94401 0.0
C970 C 0.03055 0.50194 0.98245 0.0
C971 C 0.02217 0.50818 0.02254 0.0
H972 H 0.04042 0.50815 0.91299 0.0
H973 H 0.96673 0.5787 0.30086 0.0
H974 H 0.44496 0.50607 0.65221 0.0
H975 H 0.47313 0.5071 0.61059 0.0
H976 H 0.46809 0.56169 0.57587 0.0
H977 H 0.43991 0.56069 0.61639 0.0
H978 H 0.47537 0.54209 0.49949 0.0
H979 H 0.49768 0.55145 0.66029 0.0
H980 H 0.50066 0.54449 0.74529 0.0
H981 H 0.52195 0.49549 0.70751 0.0
H982 H 0.51878 0.50199 0.62217 0.0
H983 H 0.55227 0.56203 0.38926 0.0
H984 H 0.53576 0.56379 0.46251 0.0
H985 H 0.53771 0.50755 0.48053 0.0
H986 H 0.5547 0.50577 0.40784 0.0
H987 H 0.53333 0.52811 0.5694 0.0
H988 H 0.50722 0.51717 0.40986 0.0
H989 H 0.50433 0.52391 0.32464 0.0
H990 H 0.48966 0.57592 0.36176 0.0
H991 H 0.4928 0.56958 0.44728 0.0
C992 C 0.44986 0.51827 0.63562 0.0
C993 C 0.44024 0.53331 0.63758 0.0
C994 C 0.46603 0.51889 0.61234 0.0
C995 C 0.47278 0.53454 0.59074 0.0
C996 C 0.46316 0.54952 0.59261 0.0
C997 C 0.44706 0.54892 0.61584 0.0
C998 C 0.48925 0.53508 0.56331 0.0
C999 C 0.48807 0.5393 0.51511 0.0
C1000 C 0.50572 0.53099 0.58342 0.0
C1001 C 0.50782 0.52713 0.63475 0.0
C1002 C 0.50285 0.53911 0.67005 0.0
C1003 C 0.5046 0.53526 0.71832 0.0
C1004 C 0.51145 0.51954 0.73179 0.0
C1005 C 0.51662 0.50765 0.69702 0.0
C1006 C 0.51486 0.51142 0.64868 0.0
C1007 C 0.54996 0.55021 0.41011 0.0
C1008 C 0.55436 0.53369 0.39243 0.0
C1009 C 0.54058 0.55125 0.45203 0.0
C1010 C 0.53514 0.53571 0.47604 0.0
C1011 C 0.54174 0.51966 0.4623 0.0
C1012 C 0.55141 0.51867 0.42066 0.0
C1013 C 0.51936 0.53542 0.50613 0.0
C1014 C 0.52062 0.53106 0.5543 0.0
C1015 C 0.50282 0.53932 0.48621 0.0
C1016 C 0.50042 0.54297 0.43487 0.0
C1017 C 0.50348 0.53007 0.39981 0.0
C1018 C 0.50179 0.53382 0.35148 0.0
C1019 C 0.49685 0.55035 0.33779 0.0
C1020 C 0.49352 0.56314 0.37242 0.0
C1021 C 0.49524 0.55947 0.42082 0.0
H1022 H 0.49558 0.55323 0.30035 0.0
H1023 H 0.51279 0.51658 0.76918 0.0
H1024 H 0.12273 0.5051 0.22958 0.0
H1025 H 0.1444 0.49579 0.17323 0.0
H1026 H 0.10718 0.45186 0.12481 0.0
H1027 H 0.0853 0.46155 0.1795 0.0
H1028 H 0.15889 0.46721 0.18275 0.0
H1029 H 0.11657 0.43424 0.02062 0.0
H1030 H 0.09137 0.44105 0.96891 0.0
H1031 H 0.10317 0.49673 0.00153 0.0
H1032 H 0.12861 0.49031 0.05285 0.0
H1033 H 0.17207 0.38291 0.06243 0.0
H1034 H 0.1545 0.40829 0.06284 0.0
H1035 H 0.20249 0.44394 0.07161 0.0
H1036 H 0.22029 0.41855 0.07205 0.0
H1037 H 0.15 0.44039 0.01976 0.0
H1038 H 0.1974 0.47286 0.16299 0.0
H1039 H 0.2219 0.46565 0.21693 0.0
H1040 H 0.19842 0.41187 0.22373 0.0
H1041 H 0.17371 0.41886 0.17035 0.0
C1042 C 0.11902 0.49375 0.20594 0.0
C1043 C 0.10242 0.4839 0.20935 0.0
C1044 C 0.1314 0.48846 0.17367 0.0
C1045 C 0.12748 0.47313 0.14461 0.0
C1046 C 0.11047 0.46395 0.14596 0.0
C1047 C 0.09798 0.46941 0.17766 0.0
C1048 C 0.1419 0.46498 0.11945 0.0
C1049 C 0.15716 0.46193 0.14644 0.0
C1050 C 0.13964 0.45778 0.07234 0.0
C1051 C 0.1245 0.46177 0.04082 0.0
C1052 C 0.11389 0.44795 0.0165 0.0
C1053 C 0.09953 0.45175 0.98732 0.0
C1054 C 0.09565 0.46931 0.982 0.0
C1055 C 0.10616 0.48313 0.00577 0.0
C1056 C 0.12054 0.47942 0.03498 0.0
C1057 C 0.17896 0.39613 0.06316 0.0
C1058 C 0.19758 0.39869 0.06873 0.0
C1059 C 0.16886 0.41066 0.06291 0.0
C1060 C 0.17719 0.42797 0.06827 0.0
C1061 C 0.19582 0.43064 0.06804 0.0
C1062 C 0.20597 0.41609 0.06842 0.0
C1063 C 0.16647 0.44241 0.08369 0.0
C1064 C 0.15193 0.44645 0.05518 0.0
C1065 C 0.16931 0.4506 0.12946 0.0
C1066 C 0.18389 0.44633 0.16228 0.0
C1067 C 0.19747 0.45953 0.17614 0.0
C1068 C 0.21138 0.45547 0.20659 0.0
C1069 C 0.21175 0.43829 0.22359 0.0
C1070 C 0.19816 0.42515 0.21041 0.0
C1071 C 0.1842 0.42915 0.18008 0.0
H1072 H 0.22255 0.43518 0.24707 0.0
H1073 H 0.08451 0.47221 0.95944 0.0
H1074 H 0.78028 0.93511 0.57079 0.0
H1075 H 0.79819 0.95148 0.51215 0.0
H1076 H 0.81756 0.90264 0.46202 0.0
H1077 H 0.79978 0.88617 0.52059 0.0
H1078 H 0.84435 0.92939 0.47721 0.0
H1079 H 0.78695 0.92134 0.39717 0.0
H1080 H 0.75462 0.92316 0.38915 0.0
H1081 H 0.76243 0.97994 0.40692 0.0
H1082 H 0.79482 0.97843 0.41571 0.0
H1083 H 0.8843 0.95991 0.26566 0.0
H1084 H 0.86526 0.94382 0.32227 0.0
H1085 H 0.84446 0.99274 0.36605 0.0
H1086 H 0.86325 0.00891 0.30903 0.0
H1087 H 0.81831 0.96631 0.3548 0.0
H1088 H 0.87531 0.97494 0.43356 0.0
H1089 H 0.90768 0.97375 0.44195 0.0
H1090 H 0.90088 0.91682 0.42964 0.0
H1091 H 0.86844 0.91767 0.41984 0.0
C1092 C 0.78829 0.92783 0.54718 0.0
C1093 C 0.7886 0.90934 0.55035 0.0
C1094 C 0.79848 0.9372 0.5136 0.0
C1095 C 0.80912 0.92824 0.4826 0.0
C1096 C 0.80944 0.90979 0.48566 0.0
C1097 C 0.79922 0.90041 0.51905 0.0
C1098 C 0.82019 0.93814 0.44753 0.0
C1099 C 0.83865 0.93727 0.44999 0.0
C1100 C 0.81276 0.94881 0.41301 0.0
C1101 C 0.7933 0.94975 0.40758 0.0
C1102 C 0.78177 0.9342 0.39976 0.0
C1103 C 0.76343 0.93518 0.395 0.0
C1104 C 0.75647 0.95165 0.39765 0.0
C1105 C 0.76784 0.96718 0.40494 0.0
C1106 C 0.78619 0.96628 0.40977 0.0
C1107 C 0.87567 0.96725 0.28727 0.0
C1108 C 0.87535 0.9857 0.28297 0.0
C1109 C 0.86483 0.95804 0.31972 0.0
C1110 C 0.85359 0.96712 0.34874 0.0
C1111 C 0.85305 0.98548 0.34401 0.0
C1112 C 0.86385 0.9947 0.31151 0.0
C1113 C 0.84248 0.95747 0.38423 0.0
C1114 C 0.82403 0.95842 0.38196 0.0
C1115 C 0.84993 0.94696 0.41918 0.0
C1116 C 0.86944 0.94638 0.42547 0.0
C1117 C 0.88071 0.96217 0.43222 0.0
C1118 C 0.89908 0.96156 0.43731 0.0
C1119 C 0.90635 0.94523 0.43637 0.0
C1120 C 0.89524 0.92946 0.43033 0.0
C1121 C 0.87685 0.93 0.42495 0.0
H1122 H 0.92058 0.9448 0.44038 0.0
H1123 H 0.74227 0.95238 0.39395 0.0
H1124 H 0.27996 0.65925 0.63387 0.0
H1125 H 0.29634 0.6432 0.69208 0.0
H1126 H 0.32595 0.69223 0.73977 0.0
H1127 H 0.30954 0.70846 0.68162 0.0
H1128 H 0.34684 0.66733 0.70714 0.0
H1129 H 0.30129 0.66967 0.8187 0.0
H1130 H 0.27064 0.66751 0.84735 0.0
H1131 H 0.26448 0.61178 0.81057 0.0
H1132 H 0.29499 0.61364 0.78097 0.0
H1133 H 0.40184 0.60816 0.79996 0.0
H1134 H 0.38226 0.63188 0.81097 0.0
H1135 H 0.33736 0.59603 0.76189 0.0
H1136 H 0.35666 0.5721 0.75373 0.0
H1137 H 0.32595 0.62034 0.81815 0.0
H1138 H 0.36536 0.62065 0.68286 0.0
H1139 H 0.39468 0.62167 0.6458 0.0
H1140 H 0.41059 0.67138 0.71903 0.0
H1141 H 0.38141 0.67052 0.75694 0.0
C1142 C 0.28968 0.66669 0.65744 0.0
C1143 C 0.29367 0.68507 0.65265 0.0
C1144 C 0.2989 0.65752 0.69108 0.0
C1145 C 0.31229 0.66655 0.7204 0.0
C1146 C 0.31558 0.68506 0.71765 0.0
C1147 C 0.30623 0.69428 0.68429 0.0
C1148 C 0.32475 0.65622 0.74711 0.0
C1149 C 0.34242 0.65745 0.73271 0.0
C1150 C 0.31884 0.64308 0.7795 0.0
C1151 C 0.30046 0.64182 0.79745 0.0
C1152 C 0.29337 0.65697 0.8164 0.0
C1153 C 0.27602 0.65579 0.83287 0.0
C1154 C 0.26561 0.63952 0.83076 0.0
C1155 C 0.27256 0.62438 0.81223 0.0
C1156 C 0.2899 0.62548 0.79568 0.0
C1157 C 0.38769 0.60523 0.79317 0.0
C1158 C 0.38079 0.58844 0.77505 0.0
C1159 C 0.37652 0.61877 0.79938 0.0
C1160 C 0.35846 0.6159 0.78563 0.0
C1161 C 0.35127 0.59863 0.7724 0.0
C1162 C 0.36235 0.58495 0.76753 0.0
C1163 C 0.34779 0.63106 0.77665 0.0
C1164 C 0.33051 0.63069 0.79411 0.0
C1165 C 0.35387 0.64484 0.74608 0.0
C1166 C 0.37135 0.64541 0.72316 0.0
C1167 C 0.37516 0.63174 0.69121 0.0
C1168 C 0.39174 0.63229 0.67007 0.0
C1169 C 0.40451 0.64655 0.68019 0.0
C1170 C 0.40071 0.66032 0.71135 0.0
C1171 C 0.38416 0.65981 0.73268 0.0
H1172 H 0.41734 0.64695 0.66378 0.0
H1173 H 0.25218 0.63864 0.84352 0.0
H1174 H 0.67908 0.1795 0.99213 0.0
H1175 H 0.65893 0.15252 0.9794 0.0
H1176 H 0.70345 0.12078 0.98441 0.0
H1177 H 0.72377 0.1477 0.99757 0.0
H1178 H 0.68048 0.11382 0.90334 0.0
H1179 H 0.67722 0.11827 0.07328 0.0
H1180 H 0.67322 0.13328 0.15073 0.0
H1181 H 0.62008 0.14279 0.10768 0.0
H1182 H 0.62385 0.12805 0.02965 0.0
H1183 H 0.62471 0.03186 0.89157 0.0
H1184 H 0.64756 0.05618 0.9113 0.0
H1185 H 0.6068 0.09154 0.93521 0.0
H1186 H 0.58396 0.06723 0.91707 0.0
H1187 H 0.62995 0.09509 0.00555 0.0
H1188 H 0.63336 0.09326 0.83457 0.0
H1189 H 0.6369 0.07936 0.75537 0.0
H1190 H 0.68896 0.06617 0.7978 0.0
H1191 H 0.68563 0.0798 0.87751 0.0
C1192 C 0.68459 0.16677 0.99119 0.0
C1193 C 0.70303 0.16574 0.99575 0.0
C1194 C 0.67305 0.15138 0.98401 0.0
C1195 C 0.67975 0.13471 0.98096 0.0
C1196 C 0.69808 0.13356 0.98664 0.0
C1197 C 0.70963 0.14894 0.99443 0.0
C1198 C 0.6676 0.11864 0.96934 0.0
C1199 C 0.66959 0.10947 0.92601 0.0
C1200 C 0.65321 0.11335 -0.00152 0.0
C1201 C 0.65087 0.12218 0.04545 0.0
C1202 C 0.66473 0.12369 0.08016 0.0
C1203 C 0.66249 0.13212 0.1242 0.0
C1204 C 0.64642 0.13902 0.13408 0.0
C1205 C 0.63253 0.13745 0.09996 0.0
C1206 C 0.6347 0.12904 0.05584 0.0
C1207 C 0.62064 0.04487 0.90043 0.0
C1208 C 0.60254 0.04761 0.90293 0.0
C1209 C 0.63371 0.05877 0.91166 0.0
C1210 C 0.6289 0.07571 0.92462 0.0
C1211 C 0.61083 0.07856 0.92566 0.0
C1212 C 0.59779 0.06466 0.9151 0.0
C1213 C 0.64255 0.09038 0.93893 0.0
C1214 C 0.64088 0.09929 0.98289 0.0
C1215 C 0.65712 0.09554 0.91008 0.0
C1216 C 0.65916 0.08737 0.86217 0.0
C1217 C 0.6455 0.08727 0.82713 0.0
C1218 C 0.64748 0.07947 0.78213 0.0
C1219 C 0.66312 0.07184 0.77161 0.0
C1220 C 0.67684 0.07205 0.80603 0.0
C1221 C 0.67492 0.07983 0.85111 0.0
H1222 H 0.66463 0.06581 0.73674 0.0
H1223 H 0.64472 0.14554 0.1682 0.0
H1224 H 0.13139 0.5349 0.39766 0.0
H1225 H 0.15445 0.55945 0.41402 0.0
H1226 H 0.11421 0.594 0.4499 0.0
H1227 H 0.09108 0.56945 0.43483 0.0
H1228 H 0.14228 0.60658 0.37957 0.0
H1229 H 0.13382 0.58241 0.53686 0.0
H1230 H 0.13229 0.55823 0.59434 0.0
H1231 H 0.18605 0.54844 0.56497 0.0
H1232 H 0.18779 0.5724 0.50673 0.0
H1233 H 0.19388 0.68214 0.46965 0.0
H1234 H 0.17134 0.65695 0.46039 0.0
H1235 H 0.21192 0.62078 0.4767 0.0
H1236 H 0.23446 0.64603 0.48824 0.0
H1237 H 0.18402 0.60804 0.51937 0.0
H1238 H 0.19401 0.63081 0.36465 0.0
H1239 H 0.19691 0.65335 0.30269 0.0
H1240 H 0.14252 0.66375 0.31991 0.0
H1241 H 0.13936 0.64143 0.38247 0.0
C1242 C 0.12745 0.54773 0.40899 0.0
C1243 C 0.10944 0.55028 0.41503 0.0
C1244 C 0.14062 0.56168 0.41846 0.0
C1245 C 0.13595 0.57843 0.43327 0.0
C1246 C 0.118 0.58111 0.43858 0.0
C1247 C 0.10485 0.56709 0.43009 0.0
C1248 C 0.1498 0.59325 0.44268 0.0
C1249 C 0.15129 0.60708 0.41041 0.0
C1250 C 0.16189 0.59341 0.48195 0.0
C1251 C 0.16086 0.57905 0.51703 0.0
C1252 C 0.14525 0.57498 0.54228 0.0
C1253 C 0.14436 0.56134 0.57509 0.0
C1254 C 0.15905 0.55177 0.58319 0.0
C1255 C 0.17467 0.55584 0.5586 0.0
C1256 C 0.17562 0.56946 0.52571 0.0
C1257 C 0.19799 0.66881 0.47159 0.0
C1258 C 0.21595 0.66603 0.47922 0.0
C1259 C 0.1851 0.65442 0.46602 0.0
C1260 C 0.18998 0.63695 0.46655 0.0
C1261 C 0.20784 0.63414 0.47586 0.0
C1262 C 0.22071 0.64856 0.48243 0.0
C1263 C 0.17648 0.62168 0.45648 0.0
C1264 C 0.17507 0.60766 0.48845 0.0
C1265 C 0.16468 0.62114 0.41624 0.0
C1266 C 0.16651 0.63456 0.37857 0.0
C1267 C 0.18271 0.63799 0.35547 0.0
C1268 C 0.18439 0.65072 0.32021 0.0
C1269 C 0.16992 0.66001 0.30746 0.0
C1270 C 0.15372 0.65656 0.32987 0.0
C1271 C 0.15197 0.64386 0.3652 0.0
H1272 H 0.17125 0.66985 0.28014 0.0
H1273 H 0.15834 0.54122 0.60863 0.0
H1274 H 0.62124 0.98573 0.7543 0.0
H1275 H 0.64239 0.97047 0.70786 0.0
H1276 H 0.59977 0.93317 0.65232 0.0
H1277 H 0.57846 0.9484 0.69863 0.0
H1278 H 0.62611 0.91756 0.69987 0.0
H1279 H 0.62232 0.95925 0.57658 0.0
H1280 H 0.62226 0.98891 0.54215 0.0
H1281 H 0.67604 0.00218 0.59288 0.0
H1282 H 0.67635 0.97269 0.62827 0.0
H1283 H 0.68895 0.86585 0.60886 0.0
H1284 H 0.66407 0.88427 0.60378 0.0
H1285 H 0.69912 0.93033 0.64872 0.0
H1286 H 0.72425 0.91207 0.65082 0.0
H1287 H 0.67374 0.94047 0.59308 0.0
H1288 H 0.67571 0.9032 0.73 0.0
H1289 H 0.6766 0.87486 0.77124 0.0
H1290 H 0.627 0.85506 0.70269 0.0
H1291 H 0.62595 0.88323 0.66058 0.0
C1292 C 0.61629 0.97452 0.73137 0.0
C1293 C 0.59822 0.9681 0.73066 0.0
C1294 C 0.62838 0.96591 0.70453 0.0
C1295 C 0.62263 0.95072 0.6766 0.0
C1296 C 0.60444 0.94492 0.67356 0.0
C1297 C 0.5923 0.95363 0.70009 0.0
C1298 C 0.63587 0.93942 0.65718 0.0
C1299 C 0.63624 0.92239 0.67543 0.0
C1300 C 0.64941 0.94601 0.6267 0.0
C1301 C 0.64931 0.96377 0.60535 0.0
C1302 C 0.63409 0.96854 0.58074 0.0
C1303 C 0.63402 0.98531 0.56098 0.0
C1304 C 0.64912 0.99743 0.56538 0.0
C1305 C 0.66434 0.99278 0.58949 0.0
C1306 C 0.66448 0.97602 0.60935 0.0
C1307 C 0.69138 0.88 0.6164 0.0
C1308 C 0.70838 0.88755 0.63093 0.0
C1309 C 0.67718 0.8905 0.61365 0.0
C1310 C 0.67961 0.90857 0.62739 0.0
C1311 C 0.69689 0.9164 0.63826 0.0
C1312 C 0.71123 0.90597 0.63962 0.0
C1313 C 0.66405 0.9187 0.63627 0.0
C1314 C 0.66333 0.93551 0.61649 0.0
C1315 C 0.65029 0.91211 0.66627 0.0
C1316 C 0.65086 0.89521 0.69174 0.0
C1317 C 0.66506 0.89275 0.72352 0.0
C1318 C 0.66559 0.87673 0.74706 0.0
C1319 C 0.65189 0.86315 0.73947 0.0
C1320 C 0.63762 0.86558 0.70844 0.0
C1321 C 0.63704 0.88156 0.68474 0.0
H1322 H 0.65233 0.85075 0.75773 0.0
H1323 H 0.64904 0.01041 0.55006 0.0
H1324 H 0.36047 0.51206 0.83485 0.0
H1325 H 0.34252 0.49426 0.89032 0.0
H1326 H 0.37075 0.44881 0.85575 0.0
H1327 H 0.3889 0.46658 0.80004 0.0
H1328 H 0.3339 0.44114 0.85531 0.0
H1329 H 0.3799 0.46912 0.95887 0.0
H1330 H 0.3996 0.49409 0.99419 0.0
H1331 H 0.3543 0.51846 0.04501 0.0
H1332 H 0.33429 0.4937 0.00948 0.0
H1333 H 0.29599 0.38904 0.03879 0.0
H1334 H 0.31792 0.40535 0.99017 0.0
H1335 H 0.29514 0.45421 0.02425 0.0
H1336 H 0.27331 0.43803 0.07375 0.0
H1337 H 0.33098 0.45902 0.02612 0.0
H1338 H 0.28495 0.43188 0.91883 0.0
H1339 H 0.26518 0.40698 0.88329 0.0
H1340 H 0.31051 0.38119 0.83877 0.0
H1341 H 0.33057 0.40585 0.87464 0.0
C1342 C 0.3629 0.49828 0.83898 0.0
C1343 C 0.37612 0.49072 0.81304 0.0
C1344 C 0.35268 0.48816 0.87088 0.0
C1345 C 0.35544 0.47028 0.87739 0.0
C1346 C 0.36848 0.46261 0.85125 0.0
C1347 C 0.37884 0.47278 0.81956 0.0
C1348 C 0.34439 0.45961 0.91092 0.0
C1349 C 0.33347 0.44484 0.89285 0.0
C1350 C 0.34361 0.46472 0.95959 0.0
C1351 C 0.35559 0.47963 0.98113 0.0
C1352 C 0.37412 0.47988 0.97723 0.0
C1353 C 0.38535 0.49398 0.99736 0.0
C1354 C 0.3782 0.50789 0.02171 0.0
C1355 C 0.35981 0.50769 0.02609 0.0
C1356 C 0.34852 0.4936 0.00603 0.0
C1357 C 0.2957 0.40328 0.03625 0.0
C1358 C 0.28281 0.41223 0.05985 0.0
C1359 C 0.30822 0.41257 0.0083 0.0
C1360 C 0.30797 0.43094 0.00299 0.0
C1361 C 0.29552 0.44002 0.02778 0.0
C1362 C 0.28303 0.43074 0.05596 0.0
C1363 C 0.32034 0.44062 0.97045 0.0
C1364 C 0.33149 0.45522 0.98867 0.0
C1365 C 0.32131 0.43538 0.92185 0.0
C1366 C 0.30926 0.42062 0.89986 0.0
C1367 C 0.29071 0.42084 0.90176 0.0
C1368 C 0.27945 0.40678 0.88151 0.0
C1369 C 0.28658 0.39249 0.85892 0.0
C1370 C 0.305 0.39226 0.85636 0.0
C1371 C 0.31632 0.40628 0.87661 0.0
H1372 H 0.27785 0.38161 0.84329 0.0
H1373 H 0.38692 0.5188 0.03729 0.0
H1374 H 0.8099 0.20421 0.14899 0.0
H1375 H 0.8293 0.18607 0.19397 0.0
H1376 H 0.79691 0.13865 0.14646 0.0
H1377 H 0.77747 0.15661 0.10137 0.0
H1378 H 0.80969 0.13783 0.24327 0.0
H1379 H 0.83114 0.15133 0.08395 0.0
H1380 H 0.841 0.17192 0.02109 0.0
H1381 H 0.88233 0.19648 0.11524 0.0
H1382 H 0.87254 0.17616 0.17887 0.0
H1383 H 0.86119 0.06595 0.21409 0.0
H1384 H 0.84164 0.08976 0.21819 0.0
H1385 H 0.88709 0.12806 0.24421 0.0
H1386 H 0.90678 0.1043 0.23774 0.0
H1387 H 0.86946 0.13796 0.17429 0.0
H1388 H 0.85257 0.11995 0.32777 0.0
H1389 H 0.84309 0.09958 0.39136 0.0
H1390 H 0.79415 0.08415 0.31384 0.0
H1391 H 0.80343 0.10423 0.2494 0.0
C1392 C 0.80674 0.18994 0.1487 0.0
C1393 C 0.79232 0.1818 0.12104 0.0
C1394 C 0.81781 0.17963 0.17454 0.0
C1395 C 0.81456 0.16105 0.17323 0.0
C1396 C 0.79958 0.15298 0.148 0.0
C1397 C 0.78859 0.16326 0.12192 0.0
C1398 C 0.82781 0.14984 0.193 0.0
C1399 C 0.8228 0.13778 0.22847 0.0
C1400 C 0.84505 0.15028 0.1746 0.0
C1401 C 0.85098 0.1624 0.13628 0.0
C1402 C 0.84224 0.16122 0.09133 0.0
C1403 C 0.84782 0.17282 0.05556 0.0
C1404 C 0.86224 0.18554 0.06422 0.0
C1405 C 0.87114 0.18665 0.10862 0.0
C1406 C 0.86558 0.1751 0.14454 0.0
C1407 C 0.86698 0.07938 0.22194 0.0
C1408 C 0.8855 0.08332 0.22494 0.0
C1409 C 0.85576 0.09302 0.22466 0.0
C1410 C 0.86284 0.11077 0.23169 0.0
C1411 C 0.8813 0.1145 0.2385 0.0
C1412 C 0.89254 0.10092 0.23479 0.0
C1413 C 0.85137 0.12544 0.22432 0.0
C1414 C 0.85663 0.13818 0.19067 0.0
C1415 C 0.83446 0.12568 0.24488 0.0
C1416 C 0.82876 0.11357 0.28358 0.0
C1417 C 0.83984 0.11213 0.32409 0.0
C1418 C 0.83449 0.10064 0.36033 0.0
C1419 C 0.81804 0.09057 0.35661 0.0
C1420 C 0.80689 0.09198 0.31668 0.0
C1421 C 0.81218 0.10344 0.28031 0.0
H1422 H 0.81392 0.08168 0.38471 0.0
H1423 H 0.86655 0.19451 0.03648 0.0
H1424 H 0.83159 0.69356 0.04437 0.0
H1425 H 0.85092 0.67568 -0.00067 0.0
H1426 H 0.81214 0.63026 0.00521 0.0
H1427 H 0.79267 0.64809 0.05104 0.0
H1428 H 0.84638 0.62162 0.02096 0.0
H1429 H 0.81483 0.65312 0.90584 0.0
H1430 H 0.80325 0.67968 0.87202 0.0
H1431 H 0.85652 0.70334 0.85572 0.0
H1432 H 0.86844 0.67703 0.8902 0.0
H1433 H 0.88951 0.57348 0.84455 0.0
H1434 H 0.86668 0.58857 0.88516 0.0
H1435 H 0.90044 0.6378 0.88622 0.0
H1436 H 0.92324 0.6229 0.8451 0.0
H1437 H 0.86626 0.6429 0.86347 0.0
H1438 H 0.89757 0.61275 0.98442 0.0
H1439 H 0.90936 0.58684 0.02135 0.0
H1440 H 0.85647 0.56102 0.02776 0.0
H1441 H 0.8444 0.58669 0.99023 0.0
C1442 C 0.82718 0.67974 0.03644 0.0
C1443 C 0.81054 0.67227 0.05097 0.0
C1444 C 0.83822 0.66956 0.01051 0.0
C1445 C 0.8328 0.65176 -0.00177 0.0
C1446 C 0.8165 0.64403 0.01415 0.0
C1447 C 0.80541 0.65422 0.04026 0.0
C1448 C 0.84411 0.64144 0.96798 0.0
C1449 C 0.85048 0.62606 0.98614 0.0
C1450 C 0.84964 0.64747 0.9229 0.0
C1451 C 0.84253 0.66313 0.90092 0.0
C1452 C 0.82409 0.66402 0.89527 0.0
C1453 C 0.81746 0.67903 0.87597 0.0
C1454 C 0.82914 0.69319 0.86178 0.0
C1455 C 0.84748 0.69235 0.86672 0.0
C1456 C 0.85419 0.67738 0.88609 0.0
C1457 C 0.89204 0.58754 0.85316 0.0
C1458 C 0.90824 0.59697 0.84189 0.0
C1459 C 0.879 0.59612 0.87647 0.0
C1460 C 0.88197 0.61425 0.88919 0.0
C1461 C 0.8979 0.6238 0.87675 0.0
C1462 C 0.91094 0.61524 0.8534 0.0
C1463 C 0.86874 0.6232 0.91675 0.0
C1464 C 0.862 0.63833 0.89804 0.0
C1465 C 0.86287 0.61695 0.96133 0.0
C1466 C 0.87011 0.60154 0.98403 0.0
C1467 C 0.88847 0.60148 0.99335 0.0
C1468 C 0.8952 0.58685 0.01445 0.0
C1469 C 0.88368 0.57227 0.02676 0.0
C1470 C 0.86539 0.57231 0.01812 0.0
C1471 C 0.85859 0.58689 0.99696 0.0
H1472 H 0.88891 0.56096 0.04311 0.0
H1473 H 0.82398 0.7048 0.84688 0.0
H1474 H 0.23626 0.15085 0.62646 0.0
H1475 H 0.21772 0.12459 0.65143 0.0
H1476 H 0.17225 0.15511 0.65467 0.0
H1477 H 0.19059 0.18133 0.63092 0.0
H1478 H 0.17377 0.1354 0.73162 0.0
H1479 H 0.18005 0.12605 0.55949 0.0
H1480 H 0.19786 0.1223 0.48809 0.0
H1481 H 0.21988 0.07751 0.54991 0.0
H1482 H 0.20229 0.0811 0.62185 0.0
H1483 H 0.09478 0.08237 0.69577 0.0
H1484 H 0.12148 0.1025 0.68847 0.0
H1485 H 0.15386 0.05867 0.70022 0.0
H1486 H 0.127 0.03817 0.70719 0.0
H1487 H 0.16439 0.08099 0.62808 0.0
H1488 H 0.15337 0.08676 0.79289 0.0
H1489 H 0.13568 0.09039 0.86446 0.0
H1490 H 0.1233 0.14169 0.81875 0.0
H1491 H 0.14069 0.13827 0.74652 0.0
C1492 C 0.22231 0.15196 0.63256 0.0
C1493 C 0.21491 0.1682 0.6266 0.0
C1494 C 0.21174 0.13693 0.64674 0.0
C1495 C 0.19358 0.13788 0.65464 0.0
C1496 C 0.18625 0.15409 0.649 0.0
C1497 C 0.19677 0.16908 0.63522 0.0
C1498 C 0.18186 0.1221 0.66815 0.0
C1499 C 0.17169 0.12351 0.70896 0.0
C1500 C 0.17971 0.10627 0.63973 0.0
C1501 C 0.19002 0.10395 0.59617 0.0
C1502 C 0.18876 0.11545 0.55791 0.0
C1503 C 0.1988 0.11335 0.51735 0.0
C1504 C 0.21004 0.09971 0.51453 0.0
C1505 C 0.21119 0.08809 0.55217 0.0
C1506 C 0.20117 0.09013 0.59281 0.0
C1507 C 0.10753 0.07692 0.69694 0.0
C1508 C 0.10871 0.05862 0.70225 0.0
C1509 C 0.12281 0.0885 0.69298 0.0
C1510 C 0.13966 0.08212 0.69454 0.0
C1511 C 0.14097 0.06385 0.69923 0.0
C1512 C 0.12561 0.05219 0.70331 0.0
C1513 C 0.15568 0.09474 0.69017 0.0
C1514 C 0.16672 0.0927 0.65135 0.0
C1515 C 0.1587 0.11 0.72053 0.0
C1516 C 0.14829 0.11221 0.76413 0.0
C1517 C 0.14678 0.09877 0.79793 0.0
C1518 C 0.13682 0.1008 0.83865 0.0
C1519 C 0.12836 0.11625 0.84612 0.0
C1520 C 0.12987 0.12973 0.81292 0.0
C1521 C 0.13981 0.12776 0.77212 0.0
H1522 H 0.12064 0.1178 0.87766 0.0
H1523 H 0.21783 0.09812 0.48315 0.0
H1524 H 0.73034 0.41667 0.48475 0.0
H1525 H 0.71033 0.43446 0.44051 0.0
H1526 H 0.67205 0.38863 0.42268 0.0
H1527 H 0.69203 0.37075 0.46567 0.0
H1528 H 0.67461 0.40619 0.34233 0.0
H1529 H 0.66808 0.42127 0.50916 0.0
H1530 H 0.67873 0.43205 0.58946 0.0
H1531 H 0.69807 0.48218 0.53282 0.0
H1532 H 0.68772 0.4716 0.45203 0.0
H1533 H 0.59295 0.44221 0.30089 0.0
H1534 H 0.61787 0.42744 0.33303 0.0
H1535 H 0.65077 0.47723 0.33704 0.0
H1536 H 0.62583 0.49219 0.30545 0.0
H1537 H 0.65369 0.45997 0.41915 0.0
H1538 H 0.65697 0.44557 0.25302 0.0
H1539 H 0.64556 0.43458 0.17358 0.0
H1540 H 0.63174 0.38293 0.22926 0.0
H1541 H 0.64284 0.39367 0.30922 0.0
C1542 C 0.71769 0.41039 0.4712 0.0
C1543 C 0.71272 0.39234 0.47894 0.0
C1544 C 0.70626 0.42057 0.44606 0.0
C1545 C 0.68962 0.41291 0.42877 0.0
C1546 C 0.68483 0.39481 0.43565 0.0
C1547 C 0.69626 0.38463 0.46044 0.0
C1548 C 0.67688 0.42367 0.40443 0.0
C1549 C 0.66995 0.41789 0.35923 0.0
C1550 C 0.67115 0.4392 0.42597 0.0
C1551 C 0.67732 0.44558 0.47451 0.0
C1552 C 0.67473 0.43454 0.51379 0.0
C1553 C 0.68069 0.44062 0.55939 0.0
C1554 C 0.68913 0.45777 0.56621 0.0
C1555 C 0.69157 0.46889 0.52746 0.0
C1556 C 0.68565 0.46287 0.48177 0.0
C1557 C 0.60551 0.45002 0.30835 0.0
C1558 C 0.60741 0.46837 0.30059 0.0
C1559 C 0.61976 0.44154 0.32651 0.0
C1560 C 0.63623 0.45121 0.33689 0.0
C1561 C 0.63819 0.46953 0.32913 0.0
C1562 C 0.62393 0.47803 0.311 0.0
C1563 C 0.65116 0.44227 0.35748 0.0
C1564 C 0.65851 0.44841 0.40194 0.0
C1565 C 0.65722 0.42702 0.33535 0.0
C1566 C 0.65063 0.42047 0.28721 0.0
C1567 C 0.65139 0.4319 0.24841 0.0
C1568 C 0.64499 0.42571 0.20327 0.0
C1569 C 0.6379 0.40808 0.1964 0.0
C1570 C 0.63723 0.39658 0.23464 0.0
C1571 C 0.64359 0.40271 0.27987 0.0
H1572 H 0.63296 0.40331 0.16143 0.0
H1573 H 0.69373 0.46245 0.60154 0.0
H1574 H 0.41419 0.95957 0.22495 0.0
H1575 H 0.39029 0.93874 0.19109 0.0
H1576 H 0.35225 0.97625 0.22223 0.0
H1577 H 0.3762 0.99746 0.25495 0.0
H1578 H 0.34114 0.941 0.24646 0.0
H1579 H 0.36304 0.97309 0.11324 0.0
H1580 H 0.38333 0.98594 0.05318 0.0
H1581 H 0.39806 0.93399 0.01587 0.0
H1582 H 0.37804 0.92083 0.07618 0.0
H1583 H 0.27091 0.89755 0.10389 0.0
H1584 H 0.29397 0.92109 0.12799 0.0
H1585 H 0.33412 0.88468 0.11018 0.0
H1586 H 0.31113 0.86092 0.08658 0.0
H1587 H 0.34311 0.92063 0.07727 0.0
H1588 H 0.32099 0.889 0.21412 0.0
H1589 H 0.29701 0.87656 0.26481 0.0
H1590 H 0.28099 0.92884 0.29138 0.0
H1591 H 0.30467 0.94156 0.24002 0.0
C1592 C 0.40076 0.96342 0.22467 0.0
C1593 C 0.39719 0.98031 0.24194 0.0
C1594 C 0.38712 0.9515 0.20524 0.0
C1595 C 0.36958 0.95611 0.20341 0.0
C1596 C 0.36575 0.97254 0.22297 0.0
C1597 C 0.37946 0.9846 0.24183 0.0
C1598 C 0.35531 0.9437 0.181 0.0
C1599 C 0.34145 0.93674 0.20932 0.0
C1600 C 0.35587 0.93797 0.13268 0.0
C1601 C 0.36913 0.94599 0.09954 0.0
C1602 C 0.37082 0.96443 0.09282 0.0
C1603 C 0.38216 0.97175 0.05843 0.0
C1604 C 0.39181 0.96076 0.03038 0.0
C1605 C 0.39045 0.94246 0.03734 0.0
C1606 C 0.37914 0.93508 0.07167 0.0
C1607 C 0.28467 0.89462 0.10394 0.0
C1608 C 0.28919 0.87732 0.09372 0.0
C1609 C 0.2978 0.90807 0.11797 0.0
C1610 C 0.31564 0.90448 0.12144 0.0
C1611 C 0.32037 0.88762 0.10785 0.0
C1612 C 0.30722 0.87409 0.09444 0.0
C1613 C 0.32919 0.91787 0.14282 0.0
C1614 C 0.34288 0.92495 0.1144 0.0
C1615 C 0.32843 0.92377 0.19089 0.0
C1616 C 0.31448 0.91621 0.2228 0.0
C1617 C 0.31227 0.89783 0.23047 0.0
C1618 C 0.29874 0.89073 0.25935 0.0
C1619 C 0.28745 0.90189 0.28119 0.0
C1620 C 0.28972 0.9202 0.27436 0.0
C1621 C 0.3032 0.92737 0.24538 0.0
H1622 H 0.27697 0.89637 0.30348 0.0
H1623 H 0.40046 0.96643 0.00349 0.0
H1624 H 0.78988 0.41841 0.58838 0.0
H1625 H 0.81135 0.44273 0.61746 0.0
H1626 H 0.85231 0.40668 0.62375 0.0
H1627 H 0.83102 0.38234 0.59509 0.0
H1628 H 0.84886 0.42391 0.7084 0.0
H1629 H 0.85345 0.43924 0.54311 0.0
H1630 H 0.84201 0.447 0.46402 0.0
H1631 H 0.82127 0.49311 0.52549 0.0
H1632 H 0.83239 0.48549 0.6051 0.0
H1633 H 0.92786 0.47907 0.751 0.0
H1634 H 0.90325 0.45844 0.72106 0.0
H1635 H 0.86865 0.50071 0.7215 0.0
H1636 H 0.89338 0.52167 0.75098 0.0
H1637 H 0.86616 0.48216 0.63748 0.0
H1638 H 0.86319 0.46817 0.80159 0.0
H1639 H 0.87444 0.46061 0.88102 0.0
H1640 H 0.8915 0.41214 0.82288 0.0
H1641 H 0.88057 0.41952 0.74293 0.0
C1642 C 0.80356 0.41574 0.59474 0.0
C1643 C 0.80867 0.39837 0.58994 0.0
C1644 C 0.81581 0.42967 0.61145 0.0
C1645 C 0.83337 0.42645 0.62319 0.0
C1646 C 0.83877 0.4094 0.61534 0.0
C1647 C 0.82657 0.3955 0.59877 0.0
C1648 C 0.84575 0.44032 0.64766 0.0
C1649 C 0.85281 0.43657 0.69264 0.0
C1650 C 0.85028 0.4571 0.62797 0.0
C1651 C 0.84357 0.46168 0.58014 0.0
C1652 C 0.8463 0.45094 0.53984 0.0
C1653 C 0.83991 0.45533 0.4949 0.0
C1654 C 0.83087 0.47051 0.48975 0.0
C1655 C 0.82825 0.48134 0.52953 0.0
C1656 C 0.8346 0.477 0.57456 0.0
C1657 C 0.91498 0.484 0.74547 0.0
C1658 C 0.91263 0.50207 0.75333 0.0
C1659 C 0.90088 0.47214 0.72844 0.0
C1660 C 0.88409 0.47802 0.71924 0.0
C1661 C 0.88151 0.49592 0.72836 0.0
C1662 C 0.89564 0.50784 0.74553 0.0
C1663 C 0.86963 0.46555 0.69766 0.0
C1664 C 0.8621 0.46956 0.6534 0.0
C1665 C 0.86458 0.449 0.71808 0.0
C1666 C 0.87116 0.44448 0.76616 0.0
C1667 C 0.86946 0.45596 0.80565 0.0
C1668 C 0.87576 0.45169 0.85079 0.0
C1669 C 0.88371 0.43592 0.85697 0.0
C1670 C 0.88534 0.42436 0.81803 0.0
C1671 C 0.87907 0.42857 0.7728 0.0
H1672 H 0.88858 0.43263 0.89195 0.0
H1673 H 0.82594 0.47389 0.45493 0.0
H1674 H 0.28473 0.15281 0.48922 0.0
H1675 H 0.30246 0.12972 0.45908 0.0
H1676 H 0.32994 0.12926 0.59557 0.0
H1677 H 0.31221 0.15232 0.62618 0.0
H1678 H 0.3524 0.13334 0.51867 0.0
H1679 H 0.30183 0.09505 0.56373 0.0
H1680 H 0.26989 0.08501 0.56563 0.0
H1681 H 0.26827 0.07651 0.41369 0.0
H1682 H 0.30016 0.08678 0.41076 0.0
H1683 H 0.40429 0.06461 0.46046 0.0
H1684 H 0.38228 0.08077 0.50089 0.0
H1685 H 0.34964 0.07801 0.372 0.0
H1686 H 0.37143 0.06129 0.33163 0.0
H1687 H 0.32925 0.07459 0.44839 0.0
H1688 H 0.37789 0.1149 0.40063 0.0
H1689 H 0.40929 0.12657 0.39479 0.0
H1690 H 0.41388 0.13288 0.54721 0.0
H1691 H 0.38255 0.12101 0.55398 0.0
C1692 C 0.29443 0.14769 0.51299 0.0
C1693 C 0.29715 0.15445 0.56001 0.0
C1694 C 0.30447 0.13443 0.49578 0.0
C1695 C 0.31742 0.12776 0.52522 0.0
C1696 C 0.31995 0.13423 0.57241 0.0
C1697 C 0.30981 0.14738 0.58981 0.0
C1698 C 0.32919 0.11497 0.50563 0.0
C1699 C 0.3474 0.12035 0.50415 0.0
C1700 C 0.32249 0.09831 0.48527 0.0
C1701 C 0.30337 0.09184 0.48699 0.0
C1702 C 0.29464 0.09117 0.53067 0.0
C1703 C 0.27655 0.08542 0.53194 0.0
C1704 C 0.26705 0.08017 0.4898 0.0
C1705 C 0.27565 0.0806 0.44631 0.0
C1706 C 0.29374 0.08637 0.44483 0.0
C1707 C 0.39234 0.06727 0.44083 0.0
C1708 C 0.38969 0.06192 0.39268 0.0
C1709 C 0.37978 0.07653 0.46397 0.0
C1710 C 0.36451 0.08094 0.43915 0.0
C1711 C 0.36138 0.07481 0.39176 0.0
C1712 C 0.37385 0.06532 0.36871 0.0
C1713 C 0.35251 0.09294 0.46167 0.0
C1714 C 0.33427 0.08749 0.46341 0.0
C1715 C 0.3591 0.1097 0.48179 0.0
C1716 C 0.37793 0.11689 0.47783 0.0
C1717 C 0.38564 0.11865 0.43292 0.0
C1718 C 0.40341 0.12532 0.42944 0.0
C1719 C 0.41359 0.13041 0.47061 0.0
C1720 C 0.40599 0.12889 0.51535 0.0
C1721 C 0.38822 0.12221 0.51903 0.0
H1722 H 0.42735 0.13558 0.46784 0.0
H1723 H 0.25303 0.07575 0.49085 0.0
H1724 H 0.58784 0.58255 0.19318 0.0
H1725 H 0.6137 0.60155 0.1696 0.0
H1726 H 0.64743 0.55997 0.19955 0.0
H1727 H 0.62152 0.54073 0.2237 0.0
H1728 H 0.6616 0.59279 0.2347 0.0
H1729 H 0.63784 0.5678 0.08679 0.0
H1730 H 0.6145 0.55873 0.02574 0.0
H1731 H 0.60427 0.6132 0.0096 0.0
H1732 H 0.62736 0.62258 0.07111 0.0
H1733 H 0.7325 0.64717 0.13209 0.0
H1734 H 0.71137 0.62119 0.14398 0.0
H1735 H 0.66771 0.65322 0.12143 0.0
H1736 H 0.68858 0.6791 0.10915 0.0
H1737 H 0.66163 0.62078 0.07666 0.0
H1738 H 0.6819 0.64481 0.23275 0.0
H1739 H 0.70461 0.65408 0.29535 0.0
H1740 H 0.72112 0.60125 0.29611 0.0
H1741 H 0.69864 0.59173 0.233 0.0
C1742 C 0.60072 0.57738 0.19492 0.0
C1743 C 0.60256 0.56005 0.21018 0.0
C1744 C 0.6155 0.58826 0.18114 0.0
C1745 C 0.63242 0.58206 0.18211 0.0
C1746 C 0.63444 0.56494 0.19828 0.0
C1747 C 0.61962 0.55398 0.212 0.0
C1748 C 0.64791 0.59371 0.16667 0.0
C1749 C 0.66183 0.59861 0.19976 0.0
C1750 C 0.64807 0.60143 0.12125 0.0
C1751 C 0.63428 0.59588 0.08382 0.0
C1752 C 0.63053 0.57784 0.07046 0.0
C1753 C 0.61736 0.57264 0.03574 0.0
C1754 C 0.60789 0.58538 0.01386 0.0
C1755 C 0.61161 0.60335 0.02658 0.0
C1756 C 0.62477 0.60862 0.06134 0.0
C1757 C 0.7184 0.64864 0.12918 0.0
C1758 C 0.71224 0.66526 0.12005 0.0
C1759 C 0.70636 0.6338 0.13612 0.0
C1760 C 0.688 0.63534 0.13402 0.0
C1761 C 0.68184 0.65174 0.12319 0.0
C1762 C 0.69381 0.66656 0.11643 0.0
C1763 C 0.67503 0.62022 0.14517 0.0
C1764 C 0.66159 0.61467 0.11122 0.0
C1765 C 0.6753 0.61192 0.18978 0.0
C1766 C 0.68876 0.61762 0.22777 0.0
C1767 C 0.69048 0.63521 0.24599 0.0
C1768 C 0.70328 0.6405 0.28161 0.0
C1769 C 0.71434 0.62828 0.29958 0.0
C1770 C 0.71258 0.61072 0.28207 0.0
C1771 C 0.69981 0.60537 0.2464 0.0
H1772 H 0.72425 0.6324 0.32717 0.0
H1773 H 0.59769 0.58133 0.987 0.0
H1774 H 0.21477 0.8979 0.99021 0.0
H1775 H 0.19722 0.91694 0.94245 0.0
H1776 H 0.14954 0.89549 0.00967 0.0
H1777 H 0.16689 0.87633 0.05713 0.0
H1778 H 0.14556 0.89523 0.91353 0.0
H1779 H 0.16818 0.93693 0.03846 0.0
H1780 H 0.19158 0.95364 0.08871 0.0
H1781 H 0.21457 0.97722 0.96438 0.0
H1782 H 0.19143 0.96046 0.91329 0.0
H1783 H 0.08291 0.95413 0.85207 0.0
H1784 H 0.10378 0.93705 0.89458 0.0
H1785 H 0.14714 0.9627 0.81738 0.0
H1786 H 0.12629 0.98011 0.77484 0.0
H1787 H 0.15534 0.961 0.91224 0.0
H1788 H 0.13194 0.92079 0.78762 0.0
H1789 H 0.10867 0.90416 0.73683 0.0
H1790 H 0.08755 0.87761 0.85927 0.0
H1791 H 0.11055 0.89428 0.91095 0.0
C1792 C 0.20057 0.89735 0.9951 0.0
C1793 C 0.1922 0.88557 0.02736 0.0
C1794 C 0.19058 0.90826 0.96788 0.0
C1795 C 0.1721 0.90764 0.97266 0.0
C1796 C 0.16378 0.89612 0.00538 0.0
C1797 C 0.17374 0.88522 0.03257 0.0
C1798 C 0.16123 0.91845 0.94241 0.0
C1799 C 0.14757 0.90962 0.91362 0.0
C1800 C 0.1643 0.93718 0.94133 0.0
C1801 C 0.17819 0.94729 0.97202 0.0
C1802 C 0.17831 0.94556 0.0218 0.0
C1803 C 0.19151 0.95507 0.05044 0.0
C1804 C 0.20458 0.96644 0.02974 0.0
C1805 C 0.20445 0.96838 0.98035 0.0
C1806 C 0.19129 0.95889 0.95155 0.0
C1807 C 0.09687 0.95613 0.84394 0.0
C1808 C 0.10294 0.9684 0.80988 0.0
C1809 C 0.10877 0.94631 0.8682 0.0
C1810 C 0.12696 0.94845 0.85866 0.0
C1811 C 0.13313 0.96083 0.8251 0.0
C1812 C 0.12121 0.9707 0.80075 0.0
C1813 C 0.13943 0.93777 0.8842 0.0
C1814 C 0.15342 0.9466 0.91191 0.0
C1815 C 0.13672 0.91901 0.88421 0.0
C1816 C 0.12289 0.9089 0.85322 0.0
C1817 C 0.12226 0.91151 0.80378 0.0
C1818 C 0.10913 0.90205 0.77482 0.0
C1819 C 0.09662 0.88986 0.79482 0.0
C1820 C 0.09724 0.88707 0.84383 0.0
C1821 C 0.11033 0.8965 0.87297 0.0
H1822 H 0.08647 0.88256 0.77234 0.0
H1823 H 0.21479 0.97379 0.05197 0.0
loop_
_geom_bond_atom_site_label_1
_geom_bond_atom_site_label_2
_geom_bond_distance
_geom_bond_site_symmetry_2
_ccdc_geom_bond_type
Mg0 O1 2.028 . S
Mg0 O7 1.986 . S
Mg0 O9 2.114 . S
Mg0 O10 2.251 . S
Mg0 O13 2.010 . S
O1 Mg0 2.028 . S
O1 C4 1.250 1_554 S
O2 Mg3 2.028 . S
O2 C4 1.248 1_554 S
Mg3 O2 2.028 . S
Mg3 O8 2.032 . S
Mg3 O10 2.079 . S
C4 O1 1.250 1_556 S
C4 O2 1.248 1_556 S
C5 O6 1.264 . S
C5 O13 1.249 . S
O6 C5 1.264 . S
O7 Mg0 1.986 . S
O7 C11 1.246 . S
O8 Mg3 2.032 . S
O8 C11 1.259 . S
O9 Mg0 2.114 . S
O9 C12 1.252 . S
O10 Mg0 2.251 . S
O10 Mg3 2.079 . S
O10 C12 1.273 . S
C11 O7 1.246 . S
C11 O8 1.259 . S
C12 O9 1.252 . S
C12 O10 1.273 . S
O13 Mg0 2.010 . S
O13 C5 1.249 . S
Mg14 O15 2.028 . S
Mg14 O21 1.986 . S
Mg14 O23 2.114 . S
Mg14 O24 2.251 . S
Mg14 O27 2.010 . S
O15 Mg14 2.028 . S
O15 C18 1.250 . S
O16 Mg17 2.028 . S
O16 C18 1.248 . S
Mg17 O16 2.028 . S
Mg17 O22 2.032 . S
Mg17 O24 2.079 . S
C18 O15 1.250 . S
C18 O16 1.248 . S
C19 O20 1.264 1_545 S
C19 O27 1.249 . S
O20 C19 1.264 1_565 S
O21 Mg14 1.986 . S
O21 C25 1.246 . S
O22 Mg17 2.032 . S
O22 C25 1.259 . S
O23 Mg14 2.114 . S
O23 C26 1.252 . S
O24 Mg14 2.251 . S
O24 Mg17 2.079 . S
O24 C26 1.273 . S
C25 O21 1.246 . S
C25 O22 1.259 . S
C26 O23 1.252 . S
C26 O24 1.273 . S
O27 Mg14 2.010 . S
O27 C19 1.249 . S
Mg28 O29 2.028 . S
Mg28 O35 1.986 . S
Mg28 O37 2.114 . S
Mg28 O38 2.251 . S
Mg28 O41 2.010 . S
O29 Mg28 2.028 . S
O29 C32 1.250 . S
O30 Mg31 2.028 . S
O30 C32 1.248 . S
Mg31 O30 2.028 . S
Mg31 O36 2.032 . S
Mg31 O38 2.079 . S
C32 O29 1.250 . S
C32 O30 1.248 . S
C33 O34 1.264 . S
C33 O41 1.249 . S
O34 C33 1.264 . S
O35 Mg28 1.986 . S
O35 C39 1.246 . S
O36 Mg31 2.032 . S
O36 C39 1.259 . S
O37 Mg28 2.114 . S
O37 C40 1.252 . S
O38 Mg28 2.251 . S
O38 Mg31 2.079 . S
O38 C40 1.273 . S
C39 O35 1.246 . S
C39 O36 1.259 . S
C40 O37 1.252 . S
C40 O38 1.273 . S
O41 Mg28 2.010 . S
O41 C33 1.249 . S
Mg42 O43 2.028 . S
Mg42 O49 1.986 . S
Mg42 O51 2.114 1_545 S
Mg42 O52 2.251 . S
Mg42 O55 2.010 1_545 S
O43 Mg42 2.028 . S
O43 C46 1.250 . S
O44 Mg45 2.028 . S
O44 C46 1.248 . S
Mg45 O44 2.028 . S
Mg45 O50 2.032 . S
Mg45 O52 2.079 . S
C46 O43 1.250 . S
C46 O44 1.248 . S
C47 O48 1.264 . S
C47 O55 1.249 . S
O48 C47 1.264 . S
O49 Mg42 1.986 . S
O49 C53 1.246 . S
O50 Mg45 2.032 . S
O50 C53 1.259 . S
O51 Mg42 2.114 1_565 S
O51 C54 1.252 1_565 S
O52 Mg42 2.251 . S
O52 Mg45 2.079 . S
O52 C54 1.273 . S
C53 O49 1.246 . S
C53 O50 1.259 . S
C54 O51 1.252 1_545 S
C54 O52 1.273 . S
O55 Mg42 2.010 1_565 S
O55 C47 1.249 . S
Mg56 O57 2.028 . S
Mg56 O63 1.986 1_554 S
Mg56 O65 2.114 . S
Mg56 O66 2.251 . S
Mg56 O69 2.010 . S
O57 Mg56 2.028 . S
O57 C60 1.250 . S
O58 Mg59 2.028 . S
O58 C60 1.248 . S
Mg59 O58 2.028 . S
Mg59 O64 2.032 . S
Mg59 O66 2.079 . S
C60 O57 1.250 . S
C60 O58 1.248 . S
C61 O62 1.264 . S
C61 O69 1.249 . S
O62 C61 1.264 . S
O63 Mg56 1.986 1_556 S
O63 C67 1.246 . S
O64 Mg59 2.032 . S
O64 C67 1.259 1_554 S
O65 Mg56 2.114 . S
O65 C68 1.252 . S
O66 Mg56 2.251 . S
O66 Mg59 2.079 . S
O66 C68 1.273 . S
C67 O63 1.246 . S
C67 O64 1.259 1_556 S
C68 O65 1.252 . S
C68 O66 1.273 . S
O69 Mg56 2.010 . S
O69 C61 1.249 . S
Mg70 O71 2.028 . S
Mg70 O77 1.986 . S
Mg70 O79 2.114 . S
Mg70 O80 2.251 . S
Mg70 O83 2.010 . S
O71 Mg70 2.028 . S
O71 C74 1.250 . S
O72 Mg73 2.028 . S
O72 C74 1.248 . S
Mg73 O72 2.028 . S
Mg73 O78 2.032 . S
Mg73 O80 2.079 . S
C74 O71 1.250 . S
C74 O72 1.248 . S
C75 O76 1.264 . S
C75 O83 1.249 1_565 S
O76 C75 1.264 . S
O77 Mg70 1.986 . S
O77 C81 1.246 . S
O78 Mg73 2.032 . S
O78 C81 1.259 . S
O79 Mg70 2.114 . S
O79 C82 1.252 . S
O80 Mg70 2.251 . S
O80 Mg73 2.079 . S
O80 C82 1.273 . S
C81 O77 1.246 . S
C81 O78 1.259 . S
C82 O79 1.252 . S
C82 O80 1.273 . S
O83 Mg70 2.010 . S
O83 C75 1.249 1_545 S
Mg84 O85 2.028 . S
Mg84 O91 1.986 . S
Mg84 O93 2.114 . S
Mg84 O94 2.251 . S
Mg84 O97 2.010 . S
O85 Mg84 2.028 . S
O85 C88 1.250 . S
O86 Mg87 2.028 . S
O86 C88 1.248 . S
Mg87 O86 2.028 . S
Mg87 O92 2.032 . S
Mg87 O94 2.079 . S
C88 O85 1.250 . S
C88 O86 1.248 . S
C89 O90 1.264 . S
C89 O97 1.249 . S
O90 C89 1.264 . S
O91 Mg84 1.986 . S
O91 C95 1.246 . S
O92 Mg87 2.032 . S
O92 C95 1.259 . S
O93 Mg84 2.114 . S
O93 C96 1.252 . S
O94 Mg84 2.251 . S
O94 Mg87 2.079 . S
O94 C96 1.273 . S
C95 O91 1.246 . S
C95 O92 1.259 . S
C96 O93 1.252 . S
C96 O94 1.273 . S
O97 Mg84 2.010 . S
O97 C89 1.249 . S
Mg98 O99 2.028 . S
Mg98 O105 1.986 . S
Mg98 O107 2.114 . S
Mg98 O108 2.251 . S
Mg98 O111 2.010 . S
O99 Mg98 2.028 . S
O99 C102 1.230 1_545 S
O100 Mg101 2.028 . S
O100 C102 1.261 . S
Mg101 O100 2.028 . S
Mg101 O106 2.032 1_565 S
Mg101 O108 2.079 1_565 S
C102 O99 1.230 1_565 S
C102 O100 1.261 . S
C103 O104 1.264 . S
C103 O111 1.249 . S
O104 C103 1.264 . S
O105 Mg98 1.986 . S
O105 C109 1.246 . S
O106 Mg101 2.032 1_545 S
O106 C109 1.259 . S
O107 Mg98 2.114 . S
O107 C110 1.252 . S
O108 Mg98 2.251 . S
O108 Mg101 2.079 1_545 S
O108 C110 1.273 . S
C109 O105 1.246 . S
C109 O106 1.259 . S
C110 O107 1.252 . S
C110 O108 1.273 . S
O111 Mg98 2.010 . S
O111 C103 1.249 . S
Mg112 O113 2.028 . S
Mg112 O119 1.986 . S
Mg112 O121 2.114 . S
Mg112 O122 2.251 . S
Mg112 O125 2.010 . S
O113 Mg112 2.028 . S
O113 C116 1.250 . S
O114 Mg115 2.028 . S
O114 C116 1.248 . S
Mg115 O114 2.028 . S
Mg115 O120 2.032 . S
Mg115 O122 2.079 . S
C116 O113 1.250 . S
C116 O114 1.248 . S
C117 O118 1.264 . S
C117 O125 1.249 . S
O118 C117 1.264 . S
O119 Mg112 1.986 . S
O119 C123 1.246 . S
O120 Mg115 2.032 . S
O120 C123 1.259 . S
O121 Mg112 2.114 . S
O121 C124 1.252 . S
O122 Mg112 2.251 . S
O122 Mg115 2.079 . S
O122 C124 1.273 . S
C123 O119 1.246 . S
C123 O120 1.259 . S
C124 O121 1.252 . S
C124 O122 1.273 . S
O125 Mg112 2.010 . S
O125 C117 1.249 . S
Mg126 O127 2.028 . S
Mg126 O133 1.986 . S
Mg126 O135 2.114 . S
Mg126 O136 2.251 . S
Mg126 O139 2.010 . S
O127 Mg126 2.028 . S
O127 C130 1.250 . S
O128 Mg129 2.028 . S
O128 C130 1.248 . S
Mg129 O128 2.028 . S
Mg129 O134 2.032 . S
Mg129 O136 2.079 . S
C130 O127 1.250 . S
C130 O128 1.248 . S
C131 O132 1.264 . S
C131 O139 1.249 . S
O132 C131 1.264 . S
O133 Mg126 1.986 . S
O133 C137 1.246 . S
O134 Mg129 2.032 . S
O134 C137 1.259 . S
O135 Mg126 2.114 . S
O135 C138 1.252 . S
O136 Mg126 2.251 . S
O136 Mg129 2.079 . S
O136 C138 1.273 . S
C137 O133 1.246 . S
C137 O134 1.259 . S
C138 O135 1.252 . S
C138 O136 1.273 . S
O139 Mg126 2.010 . S
O139 C131 1.249 . S
Mg140 O141 2.028 . S
Mg140 O147 1.986 . S
Mg140 O149 2.114 1_554 S
Mg140 O150 2.251 1_554 S
Mg140 O153 2.010 . S
O141 Mg140 2.028 . S
O141 C144 1.250 . S
O142 Mg143 2.028 . S
O142 C144 1.248 . S
Mg143 O142 2.028 . S
Mg143 O148 2.032 . S
Mg143 O150 2.079 1_554 S
C144 O141 1.250 . S
C144 O142 1.248 . S
C145 O146 1.264 . S
C145 O153 1.249 . S
O146 C145 1.264 . S
O147 Mg140 1.986 . S
O147 C151 1.246 . S
O148 Mg143 2.032 . S
O148 C151 1.259 . S
O149 Mg140 2.114 1_556 S
O149 C152 1.252 . S
O150 Mg140 2.251 1_556 S
O150 Mg143 2.079 1_556 S
O150 C152 1.273 . S
C151 O147 1.246 . S
C151 O148 1.259 . S
C152 O149 1.252 . S
C152 O150 1.273 . S
O153 Mg140 2.010 . S
O153 C145 1.249 . S
Mg154 O155 2.028 . S
Mg154 O161 1.986 . S
Mg154 O163 2.114 . S
Mg154 O164 2.251 . S
Mg154 O167 2.010 . S
O155 Mg154 2.028 . S
O155 C158 1.250 . S
O156 Mg157 2.028 . S
O156 C158 1.248 . S
Mg157 O156 2.028 . S
Mg157 O162 2.032 . S
Mg157 O164 2.079 . S
C158 O155 1.250 . S
C158 O156 1.248 . S
C159 O160 1.264 . S
C159 O167 1.249 . S
O160 C159 1.264 . S
O161 Mg154 1.986 . S
O161 C165 1.246 . S
O162 Mg157 2.032 . S
O162 C165 1.259 . S
O163 Mg154 2.114 . S
O163 C166 1.252 . S
O164 Mg154 2.251 . S
O164 Mg157 2.079 . S
O164 C166 1.273 . S
C165 O161 1.246 . S
C165 O162 1.259 . S
C166 O163 1.252 . S
C166 O164 1.273 . S
O167 Mg154 2.010 . S
O167 C159 1.249 . S
Mg168 O169 2.028 . S
Mg168 O175 1.986 . S
Mg168 O177 2.114 . S
Mg168 O178 2.251 . S
Mg168 O181 2.010 . S
O169 Mg168 2.028 . S
O169 C172 1.250 . S
O170 Mg171 2.028 . S
O170 C172 1.248 . S
Mg171 O170 2.028 . S
Mg171 O176 2.032 . S
Mg171 O178 2.079 . S
C172 O169 1.250 . S
C172 O170 1.248 . S
C173 O174 1.264 . S
C173 O181 1.249 . S
O174 C173 1.264 . S
O175 Mg168 1.986 . S
O175 C179 1.246 . S
O176 Mg171 2.032 . S
O176 C179 1.259 . S
O177 Mg168 2.114 . S
O177 C180 1.252 . S
O178 Mg168 2.251 . S
O178 Mg171 2.079 . S
O178 C180 1.273 . S
C179 O175 1.246 . S
C179 O176 1.259 . S
C180 O177 1.252 . S
C180 O178 1.273 . S
O181 Mg168 2.010 . S
O181 C173 1.249 . S
Mg182 O183 2.028 . S
Mg182 O189 1.986 . S
Mg182 O191 2.114 . S
Mg182 O192 2.251 . S
Mg182 O195 2.010 . S
O183 Mg182 2.028 . S
O183 C186 1.250 . S
O184 Mg185 2.028 . S
O184 C186 1.248 . S
Mg185 O184 2.028 . S
Mg185 O190 2.032 . S
Mg185 O192 2.079 . S
C186 O183 1.250 . S
C186 O184 1.248 . S
C187 O188 1.264 . S
C187 O195 1.249 . S
O188 C187 1.264 . S
O189 Mg182 1.986 . S
O189 C193 1.246 . S
O190 Mg185 2.032 . S
O190 C193 1.259 . S
O191 Mg182 2.114 . S
O191 C194 1.252 . S
O192 Mg182 2.251 . S
O192 Mg185 2.079 . S
O192 C194 1.273 . S
C193 O189 1.246 . S
C193 O190 1.259 . S
C194 O191 1.252 . S
C194 O192 1.273 . S
O195 Mg182 2.010 . S
O195 C187 1.249 . S
Mg196 O197 2.028 . S
Mg196 O203 1.986 1_554 S
Mg196 O205 2.114 . S
Mg196 O206 2.251 . S
Mg196 O209 2.010 . S
O197 Mg196 2.028 . S
O197 C200 1.250 . S
O198 Mg199 2.028 . S
O198 C200 1.248 . S
Mg199 O198 2.028 . S
Mg199 O204 2.032 1_554 S
Mg199 O206 2.079 . S
C200 O197 1.250 . S
C200 O198 1.248 . S
C201 O202 1.264 . S
C201 O209 1.249 . S
O202 C201 1.264 . S
O203 Mg196 1.986 1_556 S
O203 C207 1.246 . S
O204 Mg199 2.032 1_556 S
O204 C207 1.259 . S
O205 Mg196 2.114 . S
O205 C208 1.252 . S
O206 Mg196 2.251 . S
O206 Mg199 2.079 . S
O206 C208 1.273 . S
C207 O203 1.246 . S
C207 O204 1.259 . S
C208 O205 1.252 . S
C208 O206 1.273 . S
O209 Mg196 2.010 . S
O209 C201 1.249 . S
Mg210 O211 2.028 . S
Mg210 O217 1.986 . S
Mg210 O219 2.114 . S
Mg210 O220 2.251 . S
Mg210 O223 2.010 . S
O211 Mg210 2.028 . S
O211 C214 1.250 . S
O212 Mg213 2.028 . S
O212 C214 1.248 . S
Mg213 O212 2.028 . S
Mg213 O218 2.032 . S
Mg213 O220 2.079 . S
C214 O211 1.250 . S
C214 O212 1.248 . S
C215 O216 1.264 . S
C215 O223 1.249 . S
O216 C215 1.264 . S
O217 Mg210 1.986 . S
O217 C221 1.246 . S
O218 Mg213 2.032 . S
O218 C221 1.259 . S
O219 Mg210 2.114 . S
O219 C222 1.252 . S
O220 Mg210 2.251 . S
O220 Mg213 2.079 . S
O220 C222 1.273 . S
C221 O217 1.246 . S
C221 O218 1.259 . S
C222 O219 1.252 . S
C222 O220 1.273 . S
O223 Mg210 2.010 . S
O223 C215 1.249 . S
H224 C242 0.951 . S
H225 C244 0.951 . S
H226 C246 0.950 . S
H227 C247 0.950 . S
H228 C249 0.950 . S
H229 C252 0.950 . S
H230 C253 0.950 . S
H231 C255 0.950 . S
H232 C256 0.950 . S
H233 C257 0.951 . S
H234 C259 0.951 . S
H235 C261 0.950 . S
H236 C262 0.950 . S
H237 C264 0.950 . S
H238 C267 0.950 . S
H239 C268 0.950 . S
H240 C270 0.950 . S
H241 C271 0.950 . S
C242 H224 0.951 . S
C242 C243 1.366 . S
C242 C244 1.388 . S
C243 C242 1.366 . S
C243 C247 1.385 . S
C244 H225 0.951 . S
C244 C242 1.388 . S
C244 C245 1.366 . S
C245 C244 1.366 . S
C245 C246 1.414 . S
C245 C248 1.499 . S
C246 H226 0.950 . S
C246 C245 1.414 . S
C246 C247 1.374 . S
C247 H227 0.950 . S
C247 C243 1.385 . S
C247 C246 1.374 . S
C248 C245 1.499 . S
C248 C249 1.373 . S
C248 C250 1.389 . S
C249 H228 0.950 . S
C249 C248 1.373 . S
C249 C265 1.377 . S
C250 C248 1.389 . S
C250 C251 1.524 . S
C250 C264 1.377 . S
C251 C250 1.524 . S
C251 C252 1.397 . S
C251 C256 1.363 . S
C252 H229 0.950 . S
C252 C251 1.397 . S
C252 C253 1.334 . S
C253 H230 0.950 . S
C253 C252 1.334 . S
C253 C254 1.287 . S
C254 C253 1.287 . S
C254 C255 1.524 . S
C254 H273 0.913 . S
C255 H231 0.950 . S
C255 C254 1.524 . S
C255 C256 1.415 . S
C256 H232 0.950 . S
C256 C251 1.363 . S
C256 C255 1.415 . S
C257 H233 0.951 . S
C257 C258 1.366 . S
C257 C259 1.388 . S
C258 C257 1.366 . S
C258 C262 1.385 . S
C259 H234 0.951 . S
C259 C257 1.388 . S
C259 C260 1.366 . S
C260 C259 1.366 . S
C260 C261 1.414 . S
C260 C263 1.499 . S
C261 H235 0.950 . S
C261 C260 1.414 . S
C261 C262 1.374 . S
C262 H236 0.950 . S
C262 C258 1.385 . S
C262 C261 1.374 . S
C263 C260 1.499 . S
C263 C264 1.373 . S
C263 C265 1.389 . S
C264 H237 0.950 . S
C264 C250 1.377 . S
C264 C263 1.373 . S
C265 C249 1.377 . S
C265 C263 1.389 . S
C265 C266 1.524 . S
C266 C265 1.524 . S
C266 C267 1.397 . S
C266 C271 1.363 . S
C267 H238 0.950 . S
C267 C266 1.397 . S
C267 C268 1.334 . S
C268 H239 0.950 . S
C268 C267 1.334 . S
C268 C269 1.287 . S
C269 C268 1.287 . S
C269 C270 1.524 . S
C269 H272 0.999 . S
C270 H240 0.950 . S
C270 C269 1.524 . S
C270 C271 1.415 . S
C271 H241 0.950 . S
C271 C266 1.363 . S
C271 C270 1.415 . S
H272 C269 0.999 . S
H273 C254 0.913 . S
H274 C292 0.951 . S
H275 C294 0.951 . S
H276 C296 0.950 . S
H277 C297 0.950 . S
H278 C299 0.950 . S
H279 C302 0.950 . S
H280 C303 0.950 . S
H281 C305 0.950 . S
H282 C306 0.950 . S
H283 C307 0.951 . S
H284 C309 0.951 . S
H285 C311 0.950 . S
H286 C312 0.950 . S
H287 C314 0.950 . S
H288 C317 0.950 . S
H289 C318 0.950 . S
H290 C320 0.950 . S
H291 C321 0.950 . S
C292 H274 0.951 . S
C292 C293 1.366 . S
C292 C294 1.388 . S
C293 C292 1.366 . S
C293 C297 1.385 . S
C294 H275 0.951 . S
C294 C292 1.388 . S
C294 C295 1.366 . S
C295 C294 1.366 . S
C295 C296 1.414 . S
C295 C298 1.499 . S
C296 H276 0.950 . S
C296 C295 1.414 . S
C296 C297 1.374 . S
C297 H277 0.950 . S
C297 C293 1.385 . S
C297 C296 1.374 . S
C298 C295 1.499 . S
C298 C299 1.373 1_655 S
C298 C300 1.389 . S
C299 H278 0.950 . S
C299 C298 1.373 1_455 S
C299 C315 1.377 . S
C300 C298 1.389 . S
C300 C301 1.524 . S
C300 C314 1.377 . S
C301 C300 1.524 . S
C301 C302 1.397 . S
C301 C306 1.363 . S
C302 H279 0.950 . S
C302 C301 1.397 . S
C302 C303 1.334 . S
C303 H280 0.950 . S
C303 C302 1.334 . S
C303 C304 1.287 . S
C304 C303 1.287 . S
C304 C305 1.524 . S
C304 H323 0.913 . S
C305 H281 0.950 . S
C305 C304 1.524 . S
C305 C306 1.415 . S
C306 H282 0.950 . S
C306 C301 1.363 . S
C306 C305 1.415 . S
C307 H283 0.951 . S
C307 C308 1.366 . S
C307 C309 1.388 . S
C308 C307 1.366 . S
C308 C312 1.385 . S
C309 H284 0.951 . S
C309 C307 1.388 . S
C309 C310 1.366 . S
C310 C309 1.366 . S
C310 C311 1.414 . S
C310 C313 1.499 . S
C311 H285 0.950 . S
C311 C310 1.414 . S
C311 C312 1.374 . S
C312 H286 0.950 . S
C312 C308 1.385 . S
C312 C311 1.374 . S
C313 C310 1.499 . S
C313 C314 1.373 1_455 S
C313 C315 1.389 . S
C314 H287 0.950 . S
C314 C300 1.377 . S
C314 C313 1.373 1_655 S
C315 C299 1.377 . S
C315 C313 1.389 . S
C315 C316 1.524 . S
C316 C315 1.524 . S
C316 C317 1.397 . S
C316 C321 1.363 . S
C317 H288 0.950 . S
C317 C316 1.397 . S
C317 C318 1.334 . S
C318 H289 0.950 . S
C318 C317 1.334 . S
C318 C319 1.287 . S
C319 C318 1.287 . S
C319 C320 1.524 . S
C319 H322 0.999 . S
C320 H290 0.950 . S
C320 C319 1.524 . S
C320 C321 1.415 . S
C321 H291 0.950 . S
C321 C316 1.363 . S
C321 C320 1.415 . S
H322 C319 0.999 . S
H323 C304 0.913 . S
H324 C342 0.951 . S
H325 C344 0.951 . S
H326 C346 0.950 . S
H327 C347 0.950 . S
H328 C349 0.950 . S
H329 C352 0.950 . S
H330 C353 0.950 . S
H331 C355 0.950 . S
H332 C356 0.950 . S
H333 C357 0.951 . S
H334 C359 0.951 . S
H335 C361 0.950 . S
H336 C362 0.950 . S
H337 C364 0.950 . S
H338 C367 0.950 . S
H339 C368 0.950 . S
H340 C370 0.950 . S
H341 C371 0.950 . S
C342 H324 0.951 . S
C342 C343 1.366 . S
C342 C344 1.388 . S
C343 C342 1.366 . S
C343 C347 1.385 . S
C344 H325 0.951 . S
C344 C342 1.388 . S
C344 C345 1.366 . S
C345 C344 1.366 . S
C345 C346 1.414 . S
C345 C348 1.499 . S
C346 H326 0.950 . S
C346 C345 1.414 . S
C346 C347 1.374 . S
C347 H327 0.950 . S
C347 C343 1.385 . S
C347 C346 1.374 . S
C348 C345 1.499 . S
C348 C349 1.373 . S
C348 C350 1.389 . S
C349 H328 0.950 . S
C349 C348 1.373 . S
C349 C365 1.377 . S
C350 C348 1.389 . S
C350 C351 1.524 . S
C350 C364 1.377 . S
C351 C350 1.524 . S
C351 C352 1.397 . S
C351 C356 1.363 . S
C352 H329 0.950 . S
C352 C351 1.397 . S
C352 C353 1.334 . S
C353 H330 0.950 . S
C353 C352 1.334 . S
C353 C354 1.287 . S
C354 C353 1.287 . S
C354 C355 1.524 . S
C354 H373 0.913 . S
C355 H331 0.950 . S
C355 C354 1.524 . S
C355 C356 1.415 . S
C356 H332 0.950 . S
C356 C351 1.363 . S
C356 C355 1.415 . S
C357 H333 0.951 . S
C357 C358 1.366 . S
C357 C359 1.388 . S
C358 C357 1.366 . S
C358 C362 1.385 . S
C359 H334 0.951 . S
C359 C357 1.388 . S
C359 C360 1.366 . S
C360 C359 1.366 . S
C360 C361 1.414 . S
C360 C363 1.499 . S
C361 H335 0.950 . S
C361 C360 1.414 . S
C361 C362 1.374 . S
C362 H336 0.950 . S
C362 C358 1.385 . S
C362 C361 1.374 . S
C363 C360 1.499 . S
C363 C364 1.373 . S
C363 C365 1.389 . S
C364 H337 0.950 . S
C364 C350 1.377 . S
C364 C363 1.373 . S
C365 C349 1.377 . S
C365 C363 1.389 . S
C365 C366 1.524 . S
C366 C365 1.524 . S
C366 C367 1.397 . S
C366 C371 1.363 . S
C367 H338 0.950 . S
C367 C366 1.397 . S
C367 C368 1.334 . S
C368 H339 0.950 . S
C368 C367 1.334 . S
C368 C369 1.287 . S
C369 C368 1.287 . S
C369 C370 1.524 . S
C369 H372 0.999 . S
C370 H340 0.950 . S
C370 C369 1.524 . S
C370 C371 1.415 . S
C371 H341 0.950 . S
C371 C366 1.363 . S
C371 C370 1.415 . S
H372 C369 0.999 . S
H373 C354 0.913 . S
H374 C392 0.951 . S
H375 C394 0.951 . S
H376 C396 0.950 . S
H377 C397 0.950 . S
H378 C399 0.950 . S
H379 C402 0.950 1_545 S
H380 C403 0.950 . S
H381 C405 0.950 . S
H382 C406 0.950 . S
H383 C407 0.951 . S
H384 C409 0.951 1_554 S
H385 C411 0.950 1_565 S
H386 C412 0.954 . S
H387 C414 0.950 1_565 S
H388 C417 0.950 . S
H389 C418 0.950 . S
H390 C420 0.950 . S
H391 C421 0.950 . S
C392 H374 0.951 . S
C392 C393 1.366 . S
C392 C394 1.388 . S
C393 C392 1.366 . S
C393 C397 1.385 . S
C394 H375 0.951 . S
C394 C392 1.388 . S
C394 C395 1.366 . S
C395 C394 1.366 . S
C395 C396 1.414 . S
C395 C398 1.499 . S
C396 H376 0.950 . S
C396 C395 1.414 . S
C396 C397 1.374 . S
C397 H377 0.950 . S
C397 C393 1.385 . S
C397 C396 1.374 . S
C398 C395 1.499 . S
C398 C399 1.373 . S
C398 C400 1.389 . S
C399 H378 0.950 . S
C399 C398 1.373 . S
C399 C415 1.377 . S
C400 C398 1.389 . S
C400 C401 1.524 1_545 S
C400 C414 1.377 . S
C401 C400 1.524 1_565 S
C401 C402 1.397 . S
C401 C406 1.363 . S
C402 H379 0.950 1_565 S
C402 C401 1.397 . S
C402 C403 1.334 . S
C403 H380 0.950 . S
C403 C402 1.334 . S
C403 C404 1.287 . S
C404 C403 1.287 . S
C404 C405 1.524 . S
C404 H423 0.913 . S
C405 H381 0.950 . S
C405 C404 1.524 . S
C405 C406 1.415 . S
C406 H382 0.950 . S
C406 C401 1.363 . S
C406 C405 1.415 . S
C407 H383 0.951 . S
C407 C408 1.366 . S
C407 C409 1.388 . S
C408 C407 1.366 . S
C408 C412 1.382 1_545 S
C409 H384 0.951 1_556 S
C409 C407 1.388 . S
C409 C410 1.366 . S
C410 C409 1.366 . S
C410 C411 1.414 . S
C410 C413 1.499 1_556 S
C411 H385 0.950 1_545 S
C411 C410 1.414 . S
C411 C412 1.373 1_545 S
C412 H386 0.954 . S
C412 C408 1.382 1_565 S
C412 C411 1.373 1_565 S
C413 C410 1.499 1_554 S
C413 C414 1.373 . S
C413 C415 1.389 . S
C414 H387 0.950 1_545 S
C414 C400 1.377 . S
C414 C413 1.373 . S
C415 C399 1.377 . S
C415 C413 1.389 . S
C415 C416 1.524 . S
C416 C415 1.524 . S
C416 C417 1.397 1_554 S
C416 C421 1.363 . S
C417 H388 0.950 . S
C417 C416 1.397 1_556 S
C417 C418 1.334 . S
C418 H389 0.950 . S
C418 C417 1.334 . S
C418 C419 1.287 . S
C419 C418 1.287 . S
C419 C420 1.524 1_556 S
C419 H422 0.999 . S
C420 H390 0.950 . S
C420 C419 1.524 1_554 S
C420 C421 1.415 . S
C421 H391 0.950 . S
C421 C416 1.363 . S
C421 C420 1.415 . S
H422 C419 0.999 . S
H423 C404 0.913 . S
H424 C442 0.951 . S
H425 C444 0.951 . S
H426 C446 0.950 . S
H427 C447 0.950 . S
H428 C449 0.950 . S
H429 C452 0.950 . S
H430 C453 0.950 . S
H431 C455 0.950 . S
H432 C456 0.950 . S
H433 C457 0.951 . S
H434 C459 0.951 . S
H435 C461 0.950 . S
H436 C462 0.950 . S
H437 C464 0.950 . S
H438 C467 0.950 . S
H439 C468 0.950 . S
H440 C470 0.950 . S
H441 C471 0.950 . S
C442 H424 0.951 . S
C442 C443 1.366 . S
C442 C444 1.388 . S
C443 C442 1.366 . S
C443 C447 1.385 . S
C444 H425 0.951 . S
C444 C442 1.388 . S
C444 C445 1.366 . S
C445 C444 1.366 . S
C445 C446 1.414 . S
C445 C448 1.499 . S
C446 H426 0.950 . S
C446 C445 1.414 . S
C446 C447 1.374 . S
C447 H427 0.950 . S
C447 C443 1.385 . S
C447 C446 1.374 . S
C448 C445 1.499 . S
C448 C449 1.373 . S
C448 C450 1.389 . S
C449 H428 0.950 . S
C449 C448 1.373 . S
C449 C465 1.377 . S
C450 C448 1.389 . S
C450 C451 1.524 . S
C450 C464 1.377 . S
C451 C450 1.524 . S
C451 C452 1.397 . S
C451 C456 1.363 . S
C452 H429 0.950 . S
C452 C451 1.397 . S
C452 C453 1.334 . S
C453 H430 0.950 . S
C453 C452 1.334 . S
C453 C454 1.287 . S
C454 C453 1.287 . S
C454 C455 1.524 . S
C454 H473 0.913 . S
C455 H431 0.950 . S
C455 C454 1.524 . S
C455 C456 1.415 . S
C456 H432 0.950 . S
C456 C451 1.363 . S
C456 C455 1.415 . S
C457 H433 0.951 . S
C457 C458 1.366 . S
C457 C459 1.388 . S
C458 C457 1.366 . S
C458 C462 1.385 . S
C459 H434 0.951 . S
C459 C457 1.388 . S
C459 C460 1.366 . S
C460 C459 1.366 . S
C460 C461 1.414 . S
C460 C463 1.499 . S
C461 H435 0.950 . S
C461 C460 1.414 . S
C461 C462 1.374 . S
C462 H436 0.950 . S
C462 C458 1.385 . S
C462 C461 1.374 . S
C463 C460 1.499 . S
C463 C464 1.373 . S
C463 C465 1.389 . S
C464 H437 0.950 . S
C464 C450 1.377 . S
C464 C463 1.373 . S
C465 C449 1.377 . S
C465 C463 1.389 . S
C465 C466 1.524 . S
C466 C465 1.524 . S
C466 C467 1.397 . S
C466 C471 1.363 . S
C467 H438 0.950 . S
C467 C466 1.397 . S
C467 C468 1.334 . S
C468 H439 0.950 . S
C468 C467 1.334 . S
C468 C469 1.287 . S
C469 C468 1.287 . S
C469 C470 1.524 . S
C469 H472 0.999 . S
C470 H440 0.950 . S
C470 C469 1.524 . S
C470 C471 1.415 . S
C471 H441 0.950 . S
C471 C466 1.363 . S
C471 C470 1.415 . S
H472 C469 0.999 . S
H473 C454 0.913 . S
H474 C492 0.951 . S
H475 C494 0.951 . S
H476 C496 0.950 . S
H477 C497 0.950 . S
H478 C499 0.950 . S
H479 C502 0.950 . S
H480 C503 0.950 . S
H481 C505 0.950 . S
H482 C506 0.950 . S
H483 C507 0.951 . S
H484 C509 0.951 . S
H485 C511 0.950 . S
H486 C512 0.950 . S
H487 C514 0.950 1_565 S
H488 C517 0.950 . S
H489 C518 0.950 . S
H490 C520 0.950 . S
H491 C521 0.950 . S
C492 H474 0.951 . S
C492 C493 1.366 . S
C492 C494 1.388 . S
C493 C492 1.366 . S
C493 C497 1.385 . S
C494 H475 0.951 . S
C494 C492 1.388 . S
C494 C495 1.366 . S
C495 C494 1.366 . S
C495 C496 1.414 . S
C495 C498 1.499 . S
C496 H476 0.950 . S
C496 C495 1.414 . S
C496 C497 1.374 . S
C497 H477 0.950 . S
C497 C493 1.385 . S
C497 C496 1.374 . S
C498 C495 1.499 . S
C498 C499 1.373 . S
C498 C500 1.389 . S
C499 H478 0.950 . S
C499 C498 1.373 . S
C499 C515 1.377 . S
C500 C498 1.389 . S
C500 C501 1.524 1_545 S
C500 C514 1.377 . S
C501 C500 1.524 1_565 S
C501 C502 1.397 . S
C501 C506 1.363 . S
C502 H479 0.950 . S
C502 C501 1.397 . S
C502 C503 1.334 . S
C503 H480 0.950 . S
C503 C502 1.334 . S
C503 C504 1.287 . S
C504 C503 1.287 . S
C504 C505 1.524 . S
C504 H523 0.913 . S
C505 H481 0.950 . S
C505 C504 1.524 . S
C505 C506 1.415 . S
C506 H482 0.950 . S
C506 C501 1.363 . S
C506 C505 1.415 . S
C507 H483 0.951 . S
C507 C508 1.366 . S
C507 C509 1.388 . S
C508 C507 1.366 . S
C508 C512 1.385 . S
C509 H484 0.951 . S
C509 C507 1.388 . S
C509 C510 1.366 . S
C510 C509 1.366 . S
C510 C511 1.414 . S
C510 C513 1.499 . S
C511 H485 0.950 . S
C511 C510 1.414 . S
C511 C512 1.374 . S
C512 H486 0.950 . S
C512 C508 1.385 . S
C512 C511 1.374 . S
C513 C510 1.499 . S
C513 C514 1.373 . S
C513 C515 1.389 . S
C514 H487 0.950 1_545 S
C514 C500 1.377 . S
C514 C513 1.373 . S
C515 C499 1.377 . S
C515 C513 1.389 . S
C515 C516 1.524 . S
C516 C515 1.524 . S
C516 C517 1.397 . S
C516 C521 1.363 . S
C517 H488 0.950 . S
C517 C516 1.397 . S
C517 C518 1.334 . S
C518 H489 0.950 . S
C518 C517 1.334 . S
C518 C519 1.287 . S
C519 C518 1.287 . S
C519 C520 1.524 . S
C519 H522 0.999 . S
C520 H490 0.950 . S
C520 C519 1.524 . S
C520 C521 1.415 . S
C521 H491 0.950 . S
C521 C516 1.363 . S
C521 C520 1.415 . S
H522 C519 0.999 . S
H523 C504 0.913 . S
H524 C542 0.951 . S
H525 C544 0.951 . S
H526 C546 0.950 . S
H527 C547 0.950 . S
H528 C549 0.950 . S
H529 C552 0.950 . S
H530 C553 0.950 . S
H531 C555 0.950 . S
H532 C556 0.950 . S
H533 C557 0.951 . S
H534 C559 0.951 . S
H535 C561 0.950 . S
H536 C562 0.950 . S
H537 C564 0.950 . S
H538 C567 0.950 . S
H539 C568 0.950 . S
H540 C570 0.950 . S
H541 C571 0.950 . S
C542 H524 0.951 . S
C542 C543 1.366 . S
C542 C544 1.388 . S
C543 C542 1.366 . S
C543 C547 1.385 . S
C544 H525 0.951 . S
C544 C542 1.388 . S
C544 C545 1.366 . S
C545 C544 1.366 . S
C545 C546 1.414 . S
C545 C548 1.499 . S
C546 H526 0.950 . S
C546 C545 1.414 . S
C546 C547 1.374 . S
C547 H527 0.950 . S
C547 C543 1.385 . S
C547 C546 1.374 . S
C548 C545 1.499 . S
C548 C549 1.373 . S
C548 C550 1.389 . S
C549 H528 0.950 . S
C549 C548 1.373 . S
C549 C565 1.377 . S
C550 C548 1.389 . S
C550 C551 1.524 . S
C550 C564 1.377 . S
C551 C550 1.524 . S
C551 C552 1.397 . S
C551 C556 1.363 . S
C552 H529 0.950 . S
C552 C551 1.397 . S
C552 C553 1.334 . S
C553 H530 0.950 . S
C553 C552 1.334 . S
C553 C554 1.287 . S
C554 C553 1.287 . S
C554 C555 1.524 . S
C554 H573 0.913 . S
C555 H531 0.950 . S
C555 C554 1.524 . S
C555 C556 1.415 . S
C556 H532 0.950 . S
C556 C551 1.363 . S
C556 C555 1.415 . S
C557 H533 0.951 . S
C557 C558 1.366 . S
C557 C559 1.388 . S
C558 C557 1.366 . S
C558 C562 1.385 . S
C559 H534 0.951 . S
C559 C557 1.388 . S
C559 C560 1.366 . S
C560 C559 1.366 . S
C560 C561 1.414 . S
C560 C563 1.499 . S
C561 H535 0.950 . S
C561 C560 1.414 . S
C561 C562 1.374 . S
C562 H536 0.950 . S
C562 C558 1.385 . S
C562 C561 1.374 . S
C563 C560 1.499 . S
C563 C564 1.373 . S
C563 C565 1.389 . S
C564 H537 0.950 . S
C564 C550 1.377 . S
C564 C563 1.373 . S
C565 C549 1.377 . S
C565 C563 1.389 . S
C565 C566 1.524 . S
C566 C565 1.524 . S
C566 C567 1.397 . S
C566 C571 1.363 . S
C567 H538 0.950 . S
C567 C566 1.397 . S
C567 C568 1.334 . S
C568 H539 0.950 . S
C568 C567 1.334 . S
C568 C569 1.287 . S
C569 C568 1.287 . S
C569 C570 1.524 . S
C569 H572 0.999 . S
C570 H540 0.950 . S
C570 C569 1.524 . S
C570 C571 1.415 . S
C571 H541 0.950 . S
C571 C566 1.363 . S
C571 C570 1.415 . S
H572 C569 0.999 . S
H573 C554 0.913 . S
H574 C592 0.951 . S
H575 C594 0.951 . S
H576 C596 0.950 . S
H577 C597 0.950 . S
H578 C599 0.950 . S
H579 C602 0.945 1_655 S
H580 C603 0.953 . S
H581 C605 0.950 1_554 S
H582 C606 0.950 . S
H583 C607 0.951 . S
H584 C609 0.951 . S
H585 C611 0.950 . S
H586 C612 0.950 . S
H587 C614 0.950 . S
H588 C617 0.950 . S
H589 C618 0.950 . S
H590 C620 0.950 . S
H591 C621 0.950 . S
C592 H574 0.951 . S
C592 C593 1.366 . S
C592 C594 1.388 . S
C593 C592 1.366 . S
C593 C597 1.385 . S
C594 H575 0.951 . S
C594 C592 1.388 . S
C594 C595 1.366 . S
C595 C594 1.366 . S
C595 C596 1.414 . S
C595 C598 1.499 1_556 S
C596 H576 0.950 . S
C596 C595 1.414 . S
C596 C597 1.374 . S
C597 H577 0.950 . S
C597 C593 1.385 . S
C597 C596 1.374 . S
C598 C595 1.499 1_554 S
C598 C599 1.373 . S
C598 C600 1.389 . S
C599 H578 0.950 . S
C599 C598 1.373 . S
C599 C615 1.377 . S
C600 C598 1.389 . S
C600 C601 1.519 1_554 S
C600 C614 1.377 1_455 S
C601 C600 1.519 1_556 S
C601 C602 1.407 . S
C601 C606 1.358 1_546 S
C602 H579 0.945 1_455 S
C602 C601 1.407 . S
C602 C603 1.334 1_545 S
C603 H580 0.953 . S
C603 C602 1.334 1_565 S
C603 C604 1.287 . S
C604 C603 1.287 . S
C604 C605 1.524 . S
C604 H623 0.913 . S
C605 H581 0.950 1_556 S
C605 C604 1.524 . S
C605 C606 1.415 1_556 S
C606 H582 0.950 . S
C606 C601 1.358 1_564 S
C606 C605 1.415 1_554 S
C607 H583 0.951 . S
C607 C608 1.366 . S
C607 C609 1.388 . S
C608 C607 1.366 . S
C608 C612 1.385 . S
C609 H584 0.951 . S
C609 C607 1.388 . S
C609 C610 1.366 . S
C610 C609 1.366 . S
C610 C611 1.414 . S
C610 C613 1.499 . S
C611 H585 0.950 . S
C611 C610 1.414 . S
C611 C612 1.374 . S
C612 H586 0.950 . S
C612 C608 1.385 . S
C612 C611 1.374 . S
C613 C610 1.499 . S
C613 C614 1.373 . S
C613 C615 1.389 1_655 S
C614 H587 0.950 . S
C614 C600 1.377 1_655 S
C614 C613 1.373 . S
C615 C599 1.377 . S
C615 C613 1.389 1_455 S
C615 C616 1.527 . S
C616 C615 1.527 . S
C616 C617 1.401 . S
C616 C621 1.358 1_455 S
C617 H588 0.950 . S
C617 C616 1.401 . S
C617 C618 1.334 . S
C618 H589 0.950 . S
C618 C617 1.334 . S
C618 C619 1.287 . S
C619 C618 1.287 . S
C619 C620 1.524 1_455 S
C619 H622 0.999 . S
C620 H590 0.950 . S
C620 C619 1.524 1_655 S
C620 C621 1.415 . S
C621 H591 0.950 . S
C621 C616 1.358 1_655 S
C621 C620 1.415 . S
H622 C619 0.999 . S
H623 C604 0.913 . S
H624 C642 0.951 . S
H625 C644 0.951 . S
H626 C646 0.950 . S
H627 C647 0.950 . S
H628 C649 0.950 . S
H629 C652 0.950 . S
H630 C653 0.950 . S
H631 C655 0.950 . S
H632 C656 0.950 . S
H633 C657 0.951 . S
H634 C659 0.951 . S
H635 C661 0.950 . S
H636 C662 0.950 . S
H637 C664 0.950 . S
H638 C667 0.950 . S
H639 C668 0.950 . S
H640 C670 0.950 . S
H641 C671 0.950 . S
C642 H624 0.951 . S
C642 C643 1.366 . S
C642 C644 1.388 . S
C643 C642 1.366 . S
C643 C647 1.385 . S
C644 H625 0.951 . S
C644 C642 1.388 . S
C644 C645 1.366 . S
C645 C644 1.366 . S
C645 C646 1.414 . S
C645 C648 1.499 . S
C646 H626 0.950 . S
C646 C645 1.414 . S
C646 C647 1.374 . S
C647 H627 0.950 . S
C647 C643 1.385 . S
C647 C646 1.374 . S
C648 C645 1.499 . S
C648 C649 1.373 . S
C648 C650 1.389 . S
C649 H628 0.950 . S
C649 C648 1.373 . S
C649 C665 1.377 . S
C650 C648 1.389 . S
C650 C651 1.524 . S
C650 C664 1.377 . S
C651 C650 1.524 . S
C651 C652 1.397 . S
C651 C656 1.363 . S
C652 H629 0.950 . S
C652 C651 1.397 . S
C652 C653 1.334 . S
C653 H630 0.950 . S
C653 C652 1.334 . S
C653 C654 1.287 . S
C654 C653 1.287 . S
C654 C655 1.524 . S
C654 H673 0.913 . S
C655 H631 0.950 . S
C655 C654 1.524 . S
C655 C656 1.415 . S
C656 H632 0.950 . S
C656 C651 1.363 . S
C656 C655 1.415 . S
C657 H633 0.951 . S
C657 C658 1.366 . S
C657 C659 1.388 . S
C658 C657 1.366 . S
C658 C662 1.385 . S
C659 H634 0.951 . S
C659 C657 1.388 . S
C659 C660 1.366 . S
C660 C659 1.366 . S
C660 C661 1.414 . S
C660 C663 1.499 . S
C661 H635 0.950 . S
C661 C660 1.414 . S
C661 C662 1.374 . S
C662 H636 0.950 . S
C662 C658 1.385 . S
C662 C661 1.374 . S
C663 C660 1.499 . S
C663 C664 1.373 . S
C663 C665 1.389 . S
C664 H637 0.950 . S
C664 C650 1.377 . S
C664 C663 1.373 . S
C665 C649 1.377 . S
C665 C663 1.389 . S
C665 C666 1.524 . S
C666 C665 1.524 . S
C666 C667 1.397 . S
C666 C671 1.363 . S
C667 H638 0.950 . S
C667 C666 1.397 . S
C667 C668 1.334 . S
C668 H639 0.950 . S
C668 C667 1.334 . S
C668 C669 1.287 . S
C669 C668 1.287 . S
C669 C670 1.524 . S
C669 H672 0.999 . S
C670 H640 0.950 . S
C670 C669 1.524 . S
C670 C671 1.415 . S
C671 H641 0.950 . S
C671 C666 1.363 . S
C671 C670 1.415 . S
H672 C669 0.999 . S
H673 C654 0.913 . S
H674 C692 0.951 . S
H675 C694 0.951 . S
H676 C696 0.950 . S
H677 C697 0.950 . S
H678 C699 0.950 . S
H679 C702 0.950 . S
H680 C703 0.950 . S
H681 C705 0.950 . S
H682 C706 0.950 . S
H683 C707 0.951 . S
H684 C709 0.951 . S
H685 C711 0.950 . S
H686 C712 0.950 . S
H687 C714 0.950 . S
H688 C717 0.950 . S
H689 C718 0.950 . S
H690 C720 0.950 . S
H691 C721 0.950 . S
C692 H674 0.951 . S
C692 C693 1.366 . S
C692 C694 1.388 . S
C693 C692 1.366 . S
C693 C697 1.385 . S
C694 H675 0.951 . S
C694 C692 1.388 . S
C694 C695 1.366 . S
C695 C694 1.366 . S
C695 C696 1.414 . S
C695 C698 1.499 . S
C696 H676 0.950 . S
C696 C695 1.414 . S
C696 C697 1.374 . S
C697 H677 0.950 . S
C697 C693 1.385 . S
C697 C696 1.374 . S
C698 C695 1.499 . S
C698 C699 1.373 . S
C698 C700 1.389 . S
C699 H678 0.950 . S
C699 C698 1.373 . S
C699 C715 1.377 . S
C700 C698 1.389 . S
C700 C701 1.524 . S
C700 C714 1.377 . S
C701 C700 1.524 . S
C701 C702 1.397 . S
C701 C706 1.363 . S
C702 H679 0.950 . S
C702 C701 1.397 . S
C702 C703 1.334 . S
C703 H680 0.950 . S
C703 C702 1.334 . S
C703 C704 1.287 . S
C704 C703 1.287 . S
C704 C705 1.524 . S
C704 H723 0.913 . S
C705 H681 0.950 . S
C705 C704 1.524 . S
C705 C706 1.415 . S
C706 H682 0.950 . S
C706 C701 1.363 . S
C706 C705 1.415 . S
C707 H683 0.951 . S
C707 C708 1.366 . S
C707 C709 1.388 . S
C708 C707 1.366 . S
C708 C712 1.385 . S
C709 H684 0.951 . S
C709 C707 1.388 . S
C709 C710 1.366 . S
C710 C709 1.366 . S
C710 C711 1.414 . S
C710 C713 1.499 . S
C711 H685 0.950 . S
C711 C710 1.414 . S
C711 C712 1.374 . S
C712 H686 0.950 . S
C712 C708 1.385 . S
C712 C711 1.374 . S
C713 C710 1.499 . S
C713 C714 1.373 . S
C713 C715 1.389 . S
C714 H687 0.950 . S
C714 C700 1.377 . S
C714 C713 1.373 . S
C715 C699 1.377 . S
C715 C713 1.389 . S
C715 C716 1.524 . S
C716 C715 1.524 . S
C716 C717 1.397 . S
C716 C721 1.363 . S
C717 H688 0.950 . S
C717 C716 1.397 . S
C717 C718 1.334 . S
C718 H689 0.950 . S
C718 C717 1.334 . S
C718 C719 1.287 . S
C719 C718 1.287 . S
C719 C720 1.524 . S
C719 H722 0.999 . S
C720 H690 0.950 . S
C720 C719 1.524 . S
C720 C721 1.415 . S
C721 H691 0.950 . S
C721 C716 1.363 . S
C721 C720 1.415 . S
H722 C719 0.999 . S
H723 C704 0.913 . S
H724 C742 0.951 . S
H725 C744 0.951 . S
H726 C746 0.950 . S
H727 C747 0.950 . S
H728 C749 0.950 . S
H729 C752 0.950 . S
H730 C753 0.950 . S
H731 C755 0.950 . S
H732 C756 0.950 . S
H733 C757 0.951 . S
H734 C759 0.951 . S
H735 C761 0.950 . S
H736 C762 0.950 . S
H737 C764 0.950 . S
H738 C767 0.950 . S
H739 C768 0.950 . S
H740 C770 0.950 . S
H741 C771 0.950 . S
C742 H724 0.951 . S
C742 C743 1.366 . S
C742 C744 1.388 . S
C743 C742 1.366 . S
C743 C747 1.385 . S
C744 H725 0.951 . S
C744 C742 1.388 . S
C744 C745 1.366 . S
C745 C744 1.366 . S
C745 C746 1.414 . S
C745 C748 1.499 . S
C746 H726 0.950 . S
C746 C745 1.414 . S
C746 C747 1.374 . S
C747 H727 0.950 . S
C747 C743 1.385 . S
C747 C746 1.374 . S
C748 C745 1.499 . S
C748 C749 1.373 . S
C748 C750 1.389 . S
C749 H728 0.950 . S
C749 C748 1.373 . S
C749 C765 1.377 . S
C750 C748 1.389 . S
C750 C751 1.524 . S
C750 C764 1.377 . S
C751 C750 1.524 . S
C751 C752 1.397 . S
C751 C756 1.363 . S
C752 H729 0.950 . S
C752 C751 1.397 . S
C752 C753 1.334 . S
C753 H730 0.950 . S
C753 C752 1.334 . S
C753 C754 1.287 . S
C754 C753 1.287 . S
C754 C755 1.524 . S
C754 H773 0.913 . S
C755 H731 0.950 . S
C755 C754 1.524 . S
C755 C756 1.415 . S
C756 H732 0.950 . S
C756 C751 1.363 . S
C756 C755 1.415 . S
C757 H733 0.951 . S
C757 C758 1.366 . S
C757 C759 1.388 . S
C758 C757 1.366 . S
C758 C762 1.385 . S
C759 H734 0.951 . S
C759 C757 1.388 . S
C759 C760 1.366 . S
C760 C759 1.366 . S
C760 C761 1.414 . S
C760 C763 1.499 . S
C761 H735 0.950 . S
C761 C760 1.414 . S
C761 C762 1.374 . S
C762 H736 0.950 . S
C762 C758 1.385 . S
C762 C761 1.374 . S
C763 C760 1.499 . S
C763 C764 1.373 . S
C763 C765 1.389 . S
C764 H737 0.950 . S
C764 C750 1.377 . S
C764 C763 1.373 . S
C765 C749 1.377 . S
C765 C763 1.389 . S
C765 C766 1.524 . S
C766 C765 1.524 . S
C766 C767 1.397 . S
C766 C771 1.363 . S
C767 H738 0.950 . S
C767 C766 1.397 . S
C767 C768 1.334 . S
C768 H739 0.950 . S
C768 C767 1.334 . S
C768 C769 1.287 . S
C769 C768 1.287 . S
C769 C770 1.524 . S
C769 H772 0.999 . S
C770 H740 0.950 . S
C770 C769 1.524 . S
C770 C771 1.415 . S
C771 H741 0.950 . S
C771 C766 1.363 . S
C771 C770 1.415 . S
H772 C769 0.999 . S
H773 C754 0.913 . S
H774 C792 0.951 . S
H775 C794 0.951 . S
H776 C796 0.950 . S
H777 C797 0.950 . S
H778 C799 0.950 . S
H779 C802 0.950 . S
H780 C803 0.950 . S
H781 C805 0.950 . S
H782 C806 0.950 . S
H783 C807 0.951 . S
H784 C809 0.951 . S
H785 C811 0.950 . S
H786 C812 0.950 . S
H787 C814 0.950 . S
H788 C817 0.950 . S
H789 C818 0.950 . S
H790 C820 0.950 . S
H791 C821 0.950 . S
C792 H774 0.951 . S
C792 C793 1.366 . S
C792 C794 1.388 . S
C793 C792 1.366 . S
C793 C797 1.385 . S
C794 H775 0.951 . S
C794 C792 1.388 . S
C794 C795 1.366 . S
C795 C794 1.366 . S
C795 C796 1.414 . S
C795 C798 1.499 . S
C796 H776 0.950 . S
C796 C795 1.414 . S
C796 C797 1.374 . S
C797 H777 0.950 . S
C797 C793 1.385 . S
C797 C796 1.374 . S
C798 C795 1.499 . S
C798 C799 1.373 . S
C798 C800 1.389 . S
C799 H778 0.950 . S
C799 C798 1.373 . S
C799 C815 1.377 . S
C800 C798 1.389 . S
C800 C801 1.524 . S
C800 C814 1.377 . S
C801 C800 1.524 . S
C801 C802 1.397 . S
C801 C806 1.363 . S
C802 H779 0.950 . S
C802 C801 1.397 . S
C802 C803 1.334 . S
C803 H780 0.950 . S
C803 C802 1.334 . S
C803 C804 1.287 . S
C804 C803 1.287 . S
C804 C805 1.524 . S
C804 H823 0.913 . S
C805 H781 0.950 . S
C805 C804 1.524 . S
C805 C806 1.415 . S
C806 H782 0.950 . S
C806 C801 1.363 . S
C806 C805 1.415 . S
C807 H783 0.951 . S
C807 C808 1.366 . S
C807 C809 1.388 . S
C808 C807 1.366 . S
C808 C812 1.385 . S
C809 H784 0.951 . S
C809 C807 1.388 . S
C809 C810 1.366 . S
C810 C809 1.366 . S
C810 C811 1.414 . S
C810 C813 1.499 . S
C811 H785 0.950 . S
C811 C810 1.414 . S
C811 C812 1.374 . S
C812 H786 0.950 . S
C812 C808 1.385 . S
C812 C811 1.374 . S
C813 C810 1.499 . S
C813 C814 1.373 . S
C813 C815 1.389 . S
C814 H787 0.950 . S
C814 C800 1.377 . S
C814 C813 1.373 . S
C815 C799 1.377 . S
C815 C813 1.389 . S
C815 C816 1.524 . S
C816 C815 1.524 . S
C816 C817 1.397 . S
C816 C821 1.363 . S
C817 H788 0.950 . S
C817 C816 1.397 . S
C817 C818 1.334 . S
C818 H789 0.950 . S
C818 C817 1.334 . S
C818 C819 1.287 . S
C819 C818 1.287 . S
C819 C820 1.524 . S
C819 H822 0.999 . S
C820 H790 0.950 . S
C820 C819 1.524 . S
C820 C821 1.415 . S
C821 H791 0.950 . S
C821 C816 1.363 . S
C821 C820 1.415 . S
H822 C819 0.999 . S
H823 C804 0.913 . S
H824 C842 0.951 . S
H825 C844 0.951 . S
H826 C846 0.950 . S
H827 C847 0.950 . S
H828 C849 0.950 . S
H829 C852 0.950 . S
H830 C853 0.950 . S
H831 C855 0.950 . S
H832 C856 0.950 . S
H833 C857 0.951 . S
H834 C859 0.951 . S
H835 C861 0.950 . S
H836 C862 0.950 . S
H837 C864 0.950 1_556 S
H838 C867 0.950 . S
H839 C868 0.950 . S
H840 C870 0.950 . S
H841 C871 0.950 . S
C842 H824 0.951 . S
C842 C843 1.366 . S
C842 C844 1.388 . S
C843 C842 1.366 . S
C843 C847 1.385 . S
C844 H825 0.951 . S
C844 C842 1.388 . S
C844 C845 1.366 . S
C845 C844 1.366 . S
C845 C846 1.414 . S
C845 C848 1.499 . S
C846 H826 0.950 . S
C846 C845 1.414 . S
C846 C847 1.374 . S
C847 H827 0.950 . S
C847 C843 1.385 . S
C847 C846 1.374 . S
C848 C845 1.499 . S
C848 C849 1.373 . S
C848 C850 1.389 . S
C849 H828 0.950 . S
C849 C848 1.373 . S
C849 C865 1.377 . S
C850 C848 1.389 . S
C850 C851 1.524 . S
C850 C864 1.377 . S
C851 C850 1.524 . S
C851 C852 1.397 . S
C851 C856 1.363 . S
C852 H829 0.950 . S
C852 C851 1.397 . S
C852 C853 1.334 . S
C853 H830 0.950 . S
C853 C852 1.334 . S
C853 C854 1.287 1_554 S
C854 C853 1.287 1_556 S
C854 C855 1.524 . S
C854 H873 0.913 . S
C855 H831 0.950 . S
C855 C854 1.524 . S
C855 C856 1.415 1_556 S
C856 H832 0.950 . S
C856 C851 1.363 . S
C856 C855 1.415 1_554 S
C857 H833 0.951 . S
C857 C858 1.366 . S
C857 C859 1.388 . S
C858 C857 1.366 . S
C858 C862 1.385 . S
C859 H834 0.951 . S
C859 C857 1.388 . S
C859 C860 1.366 . S
C860 C859 1.366 . S
C860 C861 1.414 . S
C860 C863 1.499 1_556 S
C861 H835 0.950 . S
C861 C860 1.414 . S
C861 C862 1.374 . S
C862 H836 0.950 . S
C862 C858 1.385 . S
C862 C861 1.374 . S
C863 C860 1.499 1_554 S
C863 C864 1.373 . S
C863 C865 1.389 . S
C864 H837 0.950 1_554 S
C864 C850 1.377 . S
C864 C863 1.373 . S
C865 C849 1.377 . S
C865 C863 1.389 . S
C865 C866 1.524 . S
C866 C865 1.524 . S
C866 C867 1.397 . S
C866 C871 1.363 . S
C867 H838 0.950 . S
C867 C866 1.397 . S
C867 C868 1.334 . S
C868 H839 0.950 . S
C868 C867 1.334 . S
C868 C869 1.287 . S
C869 C868 1.287 . S
C869 C870 1.524 . S
C869 H872 0.999 . S
C870 H840 0.950 . S
C870 C869 1.524 . S
C870 C871 1.415 . S
C871 H841 0.950 . S
C871 C866 1.363 . S
C871 C870 1.415 . S
H872 C869 0.999 . S
H873 C854 0.913 . S
H874 C892 0.951 . S
H875 C894 0.951 . S
H876 C896 0.950 . S
H877 C897 0.950 . S
H878 C899 0.946 1_455 S
H879 C902 0.934 1_655 S
H880 C903 0.950 . S
H881 C905 0.950 . S
H882 C906 0.950 . S
H883 C907 0.951 . S
H884 C909 0.951 . S
H885 C911 0.950 . S
H886 C912 0.950 . S
H887 C914 0.950 . S
H888 C917 0.950 . S
H889 C918 0.950 . S
H890 C920 0.950 . S
H891 C921 0.950 . S
C892 H874 0.951 . S
C892 C893 1.366 . S
C892 C894 1.388 . S
C893 C892 1.366 . S
C893 C897 1.385 . S
C894 H875 0.951 . S
C894 C892 1.388 . S
C894 C895 1.366 . S
C895 C894 1.366 . S
C895 C896 1.414 . S
C895 C898 1.499 . S
C896 H876 0.950 . S
C896 C895 1.414 . S
C896 C897 1.374 . S
C897 H877 0.950 . S
C897 C893 1.385 . S
C897 C896 1.374 . S
C898 C895 1.499 . S
C898 C899 1.353 1_455 S
C898 C900 1.389 . S
C899 H878 0.946 1_655 S
C899 C898 1.353 1_655 S
C899 C915 1.402 . S
C900 C898 1.389 . S
C900 C901 1.524 . S
C900 C914 1.377 1_455 S
C901 C900 1.524 . S
C901 C902 1.397 . S
C901 C906 1.363 . S
C902 H879 0.934 1_455 S
C902 C901 1.397 . S
C902 C903 1.334 . S
C903 H880 0.950 . S
C903 C902 1.334 . S
C903 C904 1.287 . S
C904 C903 1.287 . S
C904 C905 1.524 . S
C904 H923 0.913 . S
C905 H881 0.950 . S
C905 C904 1.524 . S
C905 C906 1.415 . S
C906 H882 0.950 . S
C906 C901 1.363 . S
C906 C905 1.415 . S
C907 H883 0.951 . S
C907 C908 1.366 . S
C907 C909 1.388 . S
C908 C907 1.366 . S
C908 C912 1.385 . S
C909 H884 0.951 . S
C909 C907 1.388 . S
C909 C910 1.366 . S
C910 C909 1.366 . S
C910 C911 1.414 . S
C910 C913 1.499 . S
C911 H885 0.950 . S
C911 C910 1.414 . S
C911 C912 1.374 . S
C912 H886 0.950 . S
C912 C908 1.385 . S
C912 C911 1.374 . S
C913 C910 1.499 . S
C913 C914 1.373 . S
C913 C915 1.389 . S
C914 H887 0.950 . S
C914 C900 1.377 1_655 S
C914 C913 1.373 . S
C915 C899 1.402 . S
C915 C913 1.389 . S
C915 C916 1.524 . S
C916 C915 1.524 . S
C916 C917 1.397 . S
C916 C921 1.363 . S
C917 H888 0.950 . S
C917 C916 1.397 . S
C917 C918 1.334 . S
C918 H889 0.950 . S
C918 C917 1.334 . S
C918 C919 1.287 . S
C919 C918 1.287 . S
C919 C920 1.524 . S
C919 H922 0.999 . S
C920 H890 0.950 . S
C920 C919 1.524 . S
C920 C921 1.415 . S
C921 H891 0.950 . S
C921 C916 1.363 . S
C921 C920 1.415 . S
H922 C919 0.999 . S
H923 C904 0.913 . S
H924 C942 0.951 . S
H925 C944 0.951 . S
H926 C946 0.950 . S
H927 C947 0.950 . S
H928 C949 0.950 . S
H929 C952 0.939 1_655 S
H930 C953 0.950 . S
H931 C955 0.950 . S
H932 C956 0.950 . S
H933 C957 0.951 . S
H934 C959 0.934 1_554 S
H935 C961 0.950 . S
H936 C962 0.950 . S
H937 C964 0.950 . S
H938 C967 0.950 . S
H939 C968 0.950 . S
H940 C970 0.950 . S
H941 C971 0.950 . S
C942 H924 0.951 . S
C942 C943 1.366 . S
C942 C944 1.388 . S
C943 C942 1.366 . S
C943 C947 1.385 . S
C944 H925 0.951 . S
C944 C942 1.388 . S
C944 C945 1.366 . S
C945 C944 1.366 . S
C945 C946 1.414 . S
C945 C948 1.499 . S
C946 H926 0.950 . S
C946 C945 1.414 . S
C946 C947 1.374 . S
C947 H927 0.950 . S
C947 C943 1.385 . S
C947 C946 1.374 . S
C948 C945 1.499 . S
C948 C949 1.373 . S
C948 C950 1.389 . S
C949 H928 0.950 . S
C949 C948 1.373 . S
C949 C965 1.377 1_455 S
C950 C948 1.389 . S
C950 C951 1.524 . S
C950 C964 1.377 1_455 S
C951 C950 1.524 . S
C951 C952 1.397 . S
C951 C956 1.363 . S
C952 H929 0.939 1_455 S
C952 C951 1.397 . S
C952 C953 1.334 . S
C953 H930 0.950 . S
C953 C952 1.334 . S
C953 C954 1.287 . S
C954 C953 1.287 . S
C954 C955 1.524 . S
C954 H973 0.913 . S
C955 H931 0.950 . S
C955 C954 1.524 . S
C955 C956 1.415 . S
C956 H932 0.950 . S
C956 C951 1.363 . S
C956 C955 1.415 . S
C957 H933 0.951 . S
C957 C958 1.366 . S
C957 C959 1.403 . S
C958 C957 1.366 . S
C958 C962 1.385 . S
C959 H934 0.934 1_556 S
C959 C957 1.403 . S
C959 C960 1.367 . S
C960 C959 1.367 . S
C960 C961 1.414 . S
C960 C963 1.499 1_556 S
C961 H935 0.950 . S
C961 C960 1.414 . S
C961 C962 1.374 . S
C962 H936 0.950 . S
C962 C958 1.385 . S
C962 C961 1.374 . S
C963 C960 1.499 1_554 S
C963 C964 1.373 . S
C963 C965 1.389 . S
C964 H937 0.950 . S
C964 C950 1.377 1_655 S
C964 C963 1.373 . S
C965 C949 1.377 1_655 S
C965 C963 1.389 . S
C965 C966 1.524 . S
C966 C965 1.524 . S
C966 C967 1.397 1_554 S
C966 C971 1.363 . S
C967 H938 0.950 . S
C967 C966 1.397 1_556 S
C967 C968 1.334 . S
C968 H939 0.950 . S
C968 C967 1.334 . S
C968 C969 1.287 . S
C969 C968 1.287 . S
C969 C970 1.524 1_556 S
C969 H972 0.999 . S
C970 H940 0.950 . S
C970 C969 1.524 1_554 S
C970 C971 1.415 . S
C971 H941 0.950 . S
C971 C966 1.363 . S
C971 C970 1.415 . S
H972 C969 0.999 . S
H973 C954 0.913 . S
H974 C992 0.951 . S
H975 C994 0.951 . S
H976 C996 0.950 . S
H977 C997 0.950 . S
H978 C999 0.950 . S
H979 C1002 0.950 . S
H980 C1003 0.950 . S
H981 C1005 0.950 . S
H982 C1006 0.950 . S
H983 C1007 0.951 . S
H984 C1009 0.951 . S
H985 C1011 0.950 . S
H986 C1012 0.950 . S
H987 C1014 0.950 . S
H988 C1017 0.950 . S
H989 C1018 0.950 . S
H990 C1020 0.950 . S
H991 C1021 0.950 . S
C992 H974 0.951 . S
C992 C993 1.366 . S
C992 C994 1.388 . S
C993 C992 1.366 . S
C993 C997 1.385 . S
C994 H975 0.951 . S
C994 C992 1.388 . S
C994 C995 1.366 . S
C995 C994 1.366 . S
C995 C996 1.414 . S
C995 C998 1.499 . S
C996 H976 0.950 . S
C996 C995 1.414 . S
C996 C997 1.374 . S
C997 H977 0.950 . S
C997 C993 1.385 . S
C997 C996 1.374 . S
C998 C995 1.499 . S
C998 C999 1.373 . S
C998 C1000 1.389 . S
C999 H978 0.950 . S
C999 C998 1.373 . S
C999 C1015 1.377 . S
C1000 C998 1.389 . S
C1000 C1001 1.524 . S
C1000 C1014 1.377 . S
C1001 C1000 1.524 . S
C1001 C1002 1.397 . S
C1001 C1006 1.363 . S
C1002 H979 0.950 . S
C1002 C1001 1.397 . S
C1002 C1003 1.334 . S
C1003 H980 0.950 . S
C1003 C1002 1.334 . S
C1003 C1004 1.287 . S
C1004 C1003 1.287 . S
C1004 C1005 1.524 . S
C1004 H1023 0.913 . S
C1005 H981 0.950 . S
C1005 C1004 1.524 . S
C1005 C1006 1.415 . S
C1006 H982 0.950 . S
C1006 C1001 1.363 . S
C1006 C1005 1.415 . S
C1007 H983 0.951 . S
C1007 C1008 1.366 . S
C1007 C1009 1.388 . S
C1008 C1007 1.366 . S
C1008 C1012 1.385 . S
C1009 H984 0.951 . S
C1009 C1007 1.388 . S
C1009 C1010 1.366 . S
C1010 C1009 1.366 . S
C1010 C1011 1.414 . S
C1010 C1013 1.499 . S
C1011 H985 0.950 . S
C1011 C1010 1.414 . S
C1011 C1012 1.374 . S
C1012 H986 0.950 . S
C1012 C1008 1.385 . S
C1012 C1011 1.374 . S
C1013 C1010 1.499 . S
C1013 C1014 1.373 . S
C1013 C1015 1.389 . S
C1014 H987 0.950 . S
C1014 C1000 1.377 . S
C1014 C1013 1.373 . S
C1015 C999 1.377 . S
C1015 C1013 1.389 . S
C1015 C1016 1.524 . S
C1016 C1015 1.524 . S
C1016 C1017 1.397 . S
C1016 C1021 1.363 . S
C1017 H988 0.950 . S
C1017 C1016 1.397 . S
C1017 C1018 1.334 . S
C1018 H989 0.950 . S
C1018 C1017 1.334 . S
C1018 C1019 1.287 . S
C1019 C1018 1.287 . S
C1019 C1020 1.524 . S
C1019 H1022 0.999 . S
C1020 H990 0.950 . S
C1020 C1019 1.524 . S
C1020 C1021 1.415 . S
C1021 H991 0.950 . S
C1021 C1016 1.363 . S
C1021 C1020 1.415 . S
H1022 C1019 0.999 . S
H1023 C1004 0.913 . S
H1024 C1042 0.951 . S
H1025 C1044 0.951 . S
H1026 C1046 0.950 . S
H1027 C1047 0.950 . S
H1028 C1049 0.950 . S
H1029 C1052 0.950 . S
H1030 C1053 0.950 . S
H1031 C1055 0.950 . S
H1032 C1056 0.950 . S
H1033 C1057 0.951 . S
H1034 C1059 0.951 . S
H1035 C1061 0.950 . S
H1036 C1062 0.950 . S
H1037 C1064 0.950 . S
H1038 C1067 0.950 . S
H1039 C1068 0.950 . S
H1040 C1070 0.950 . S
H1041 C1071 0.950 . S
C1042 H1024 0.951 . S
C1042 C1043 1.366 . S
C1042 C1044 1.388 . S
C1043 C1042 1.366 . S
C1043 C1047 1.385 . S
C1044 H1025 0.951 . S
C1044 C1042 1.388 . S
C1044 C1045 1.366 . S
C1045 C1044 1.366 . S
C1045 C1046 1.414 . S
C1045 C1048 1.499 . S
C1046 H1026 0.950 . S
C1046 C1045 1.414 . S
C1046 C1047 1.374 . S
C1047 H1027 0.950 . S
C1047 C1043 1.385 . S
C1047 C1046 1.374 . S
C1048 C1045 1.499 . S
C1048 C1049 1.373 . S
C1048 C1050 1.389 . S
C1049 H1028 0.950 . S
C1049 C1048 1.373 . S
C1049 C1065 1.377 . S
C1050 C1048 1.389 . S
C1050 C1051 1.524 . S
C1050 C1064 1.377 . S
C1051 C1050 1.524 . S
C1051 C1052 1.397 . S
C1051 C1056 1.363 . S
C1052 H1029 0.950 . S
C1052 C1051 1.397 . S
C1052 C1053 1.334 . S
C1053 H1030 0.950 . S
C1053 C1052 1.334 . S
C1053 C1054 1.287 . S
C1054 C1053 1.287 . S
C1054 C1055 1.524 . S
C1054 H1073 0.913 . S
C1055 H1031 0.950 . S
C1055 C1054 1.524 . S
C1055 C1056 1.415 . S
C1056 H1032 0.950 . S
C1056 C1051 1.363 . S
C1056 C1055 1.415 . S
C1057 H1033 0.951 . S
C1057 C1058 1.366 . S
C1057 C1059 1.388 . S
C1058 C1057 1.366 . S
C1058 C1062 1.385 . S
C1059 H1034 0.951 . S
C1059 C1057 1.388 . S
C1059 C1060 1.366 . S
C1060 C1059 1.366 . S
C1060 C1061 1.414 . S
C1060 C1063 1.499 . S
C1061 H1035 0.950 . S
C1061 C1060 1.414 . S
C1061 C1062 1.374 . S
C1062 H1036 0.950 . S
C1062 C1058 1.385 . S
C1062 C1061 1.374 . S
C1063 C1060 1.499 . S
C1063 C1064 1.373 . S
C1063 C1065 1.389 . S
C1064 H1037 0.950 . S
C1064 C1050 1.377 . S
C1064 C1063 1.373 . S
C1065 C1049 1.377 . S
C1065 C1063 1.389 . S
C1065 C1066 1.524 . S
C1066 C1065 1.524 . S
C1066 C1067 1.397 . S
C1066 C1071 1.363 . S
C1067 H1038 0.950 . S
C1067 C1066 1.397 . S
C1067 C1068 1.334 . S
C1068 H1039 0.950 . S
C1068 C1067 1.334 . S
C1068 C1069 1.287 . S
C1069 C1068 1.287 . S
C1069 C1070 1.524 . S
C1069 H1072 0.999 . S
C1070 H1040 0.950 . S
C1070 C1069 1.524 . S
C1070 C1071 1.415 . S
C1071 H1041 0.950 . S
C1071 C1066 1.363 . S
C1071 C1070 1.415 . S
H1072 C1069 0.999 . S
H1073 C1054 0.913 . S
H1074 C1092 0.951 . S
H1075 C1094 0.951 . S
H1076 C1096 0.950 . S
H1077 C1097 0.950 . S
H1078 C1099 0.950 . S
H1079 C1102 0.950 . S
H1080 C1103 0.950 . S
H1081 C1105 0.950 . S
H1082 C1106 0.950 . S
H1083 C1107 0.951 . S
H1084 C1109 0.951 . S
H1085 C1111 0.950 . S
H1086 C1112 0.950 1_545 S
H1087 C1114 0.950 . S
H1088 C1117 0.950 . S
H1089 C1118 0.950 . S
H1090 C1120 0.950 . S
H1091 C1121 0.950 . S
C1092 H1074 0.951 . S
C1092 C1093 1.366 . S
C1092 C1094 1.388 . S
C1093 C1092 1.366 . S
C1093 C1097 1.385 . S
C1094 H1075 0.951 . S
C1094 C1092 1.388 . S
C1094 C1095 1.366 . S
C1095 C1094 1.366 . S
C1095 C1096 1.414 . S
C1095 C1098 1.499 . S
C1096 H1076 0.950 . S
C1096 C1095 1.414 . S
C1096 C1097 1.374 . S
C1097 H1077 0.950 . S
C1097 C1093 1.385 . S
C1097 C1096 1.374 . S
C1098 C1095 1.499 . S
C1098 C1099 1.373 . S
C1098 C1100 1.389 . S
C1099 H1078 0.950 . S
C1099 C1098 1.373 . S
C1099 C1115 1.377 . S
C1100 C1098 1.389 . S
C1100 C1101 1.524 . S
C1100 C1114 1.377 . S
C1101 C1100 1.524 . S
C1101 C1102 1.397 . S
C1101 C1106 1.363 . S
C1102 H1079 0.950 . S
C1102 C1101 1.397 . S
C1102 C1103 1.334 . S
C1103 H1080 0.950 . S
C1103 C1102 1.334 . S
C1103 C1104 1.287 . S
C1104 C1103 1.287 . S
C1104 C1105 1.524 . S
C1104 H1123 0.913 . S
C1105 H1081 0.950 . S
C1105 C1104 1.524 . S
C1105 C1106 1.415 . S
C1106 H1082 0.950 . S
C1106 C1101 1.363 . S
C1106 C1105 1.415 . S
C1107 H1083 0.951 . S
C1107 C1108 1.366 . S
C1107 C1109 1.388 . S
C1108 C1107 1.366 . S
C1108 C1112 1.385 . S
C1109 H1084 0.951 . S
C1109 C1107 1.388 . S
C1109 C1110 1.366 . S
C1110 C1109 1.366 . S
C1110 C1111 1.414 . S
C1110 C1113 1.499 . S
C1111 H1085 0.950 . S
C1111 C1110 1.414 . S
C1111 C1112 1.374 . S
C1112 H1086 0.950 1_565 S
C1112 C1108 1.385 . S
C1112 C1111 1.374 . S
C1113 C1110 1.499 . S
C1113 C1114 1.373 . S
C1113 C1115 1.389 . S
C1114 H1087 0.950 . S
C1114 C1100 1.377 . S
C1114 C1113 1.373 . S
C1115 C1099 1.377 . S
C1115 C1113 1.389 . S
C1115 C1116 1.524 . S
C1116 C1115 1.524 . S
C1116 C1117 1.397 . S
C1116 C1121 1.363 . S
C1117 H1088 0.950 . S
C1117 C1116 1.397 . S
C1117 C1118 1.334 . S
C1118 H1089 0.950 . S
C1118 C1117 1.334 . S
C1118 C1119 1.287 . S
C1119 C1118 1.287 . S
C1119 C1120 1.524 . S
C1119 H1122 0.999 . S
C1120 H1090 0.950 . S
C1120 C1119 1.524 . S
C1120 C1121 1.415 . S
C1121 H1091 0.950 . S
C1121 C1116 1.363 . S
C1121 C1120 1.415 . S
H1122 C1119 0.999 . S
H1123 C1104 0.913 . S
H1124 C1142 0.951 . S
H1125 C1144 0.951 . S
H1126 C1146 0.950 . S
H1127 C1147 0.950 . S
H1128 C1149 0.950 . S
H1129 C1152 0.950 . S
H1130 C1153 0.950 . S
H1131 C1155 0.950 . S
H1132 C1156 0.950 . S
H1133 C1157 0.951 . S
H1134 C1159 0.951 . S
H1135 C1161 0.950 . S
H1136 C1162 0.950 . S
H1137 C1164 0.950 . S
H1138 C1167 0.950 . S
H1139 C1168 0.950 . S
H1140 C1170 0.950 . S
H1141 C1171 0.950 . S
C1142 H1124 0.951 . S
C1142 C1143 1.366 . S
C1142 C1144 1.388 . S
C1143 C1142 1.366 . S
C1143 C1147 1.385 . S
C1144 H1125 0.951 . S
C1144 C1142 1.388 . S
C1144 C1145 1.366 . S
C1145 C1144 1.366 . S
C1145 C1146 1.414 . S
C1145 C1148 1.499 . S
C1146 H1126 0.950 . S
C1146 C1145 1.414 . S
C1146 C1147 1.374 . S
C1147 H1127 0.950 . S
C1147 C1143 1.385 . S
C1147 C1146 1.374 . S
C1148 C1145 1.499 . S
C1148 C1149 1.373 . S
C1148 C1150 1.389 . S
C1149 H1128 0.950 . S
C1149 C1148 1.373 . S
C1149 C1165 1.377 . S
C1150 C1148 1.389 . S
C1150 C1151 1.524 . S
C1150 C1164 1.377 . S
C1151 C1150 1.524 . S
C1151 C1152 1.397 . S
C1151 C1156 1.363 . S
C1152 H1129 0.950 . S
C1152 C1151 1.397 . S
C1152 C1153 1.334 . S
C1153 H1130 0.950 . S
C1153 C1152 1.334 . S
C1153 C1154 1.287 . S
C1154 C1153 1.287 . S
C1154 C1155 1.524 . S
C1154 H1173 0.913 . S
C1155 H1131 0.950 . S
C1155 C1154 1.524 . S
C1155 C1156 1.415 . S
C1156 H1132 0.950 . S
C1156 C1151 1.363 . S
C1156 C1155 1.415 . S
C1157 H1133 0.951 . S
C1157 C1158 1.366 . S
C1157 C1159 1.388 . S
C1158 C1157 1.366 . S
C1158 C1162 1.385 . S
C1159 H1134 0.951 . S
C1159 C1157 1.388 . S
C1159 C1160 1.366 . S
C1160 C1159 1.366 . S
C1160 C1161 1.414 . S
C1160 C1163 1.499 . S
C1161 H1135 0.950 . S
C1161 C1160 1.414 . S
C1161 C1162 1.374 . S
C1162 H1136 0.950 . S
C1162 C1158 1.385 . S
C1162 C1161 1.374 . S
C1163 C1160 1.499 . S
C1163 C1164 1.373 . S
C1163 C1165 1.389 . S
C1164 H1137 0.950 . S
C1164 C1150 1.377 . S
C1164 C1163 1.373 . S
C1165 C1149 1.377 . S
C1165 C1163 1.389 . S
C1165 C1166 1.524 . S
C1166 C1165 1.524 . S
C1166 C1167 1.397 . S
C1166 C1171 1.363 . S
C1167 H1138 0.950 . S
C1167 C1166 1.397 . S
C1167 C1168 1.334 . S
C1168 H1139 0.950 . S
C1168 C1167 1.334 . S
C1168 C1169 1.287 . S
C1169 C1168 1.287 . S
C1169 C1170 1.524 . S
C1169 H1172 0.999 . S
C1170 H1140 0.950 . S
C1170 C1169 1.524 . S
C1170 C1171 1.415 . S
C1171 H1141 0.950 . S
C1171 C1166 1.363 . S
C1171 C1170 1.415 . S
H1172 C1169 0.999 . S
H1173 C1154 0.913 . S
H1174 C1192 0.951 . S
H1175 C1194 0.953 . S
H1176 C1196 0.950 . S
H1177 C1197 0.950 . S
H1178 C1199 0.950 . S
H1179 C1202 0.950 . S
H1180 C1203 0.950 . S
H1181 C1205 0.950 . S
H1182 C1206 0.950 . S
H1183 C1207 0.951 . S
H1184 C1209 0.951 . S
H1185 C1211 0.950 . S
H1186 C1212 0.950 . S
H1187 C1214 0.950 . S
H1188 C1217 0.950 . S
H1189 C1218 0.950 . S
H1190 C1220 0.950 . S
H1191 C1221 0.950 . S
C1192 H1174 0.951 . S
C1192 C1193 1.366 . S
C1192 C1194 1.390 . S
C1193 C1192 1.366 . S
C1193 C1197 1.385 1_554 S
C1194 H1175 0.953 . S
C1194 C1192 1.390 . S
C1194 C1195 1.361 1_554 S
C1195 C1194 1.361 1_556 S
C1195 C1196 1.414 . S
C1195 C1198 1.499 . S
C1196 H1176 0.950 . S
C1196 C1195 1.414 . S
C1196 C1197 1.374 . S
C1197 H1177 0.950 . S
C1197 C1193 1.385 1_556 S
C1197 C1196 1.374 . S
C1198 C1195 1.499 . S
C1198 C1199 1.373 . S
C1198 C1200 1.389 . S
C1199 H1178 0.950 . S
C1199 C1198 1.373 . S
C1199 C1215 1.377 . S
C1200 C1198 1.389 . S
C1200 C1201 1.524 1_556 S
C1200 C1214 1.377 . S
C1201 C1200 1.524 1_554 S
C1201 C1202 1.397 . S
C1201 C1206 1.363 . S
C1202 H1179 0.950 . S
C1202 C1201 1.397 . S
C1202 C1203 1.334 . S
C1203 H1180 0.950 . S
C1203 C1202 1.334 . S
C1203 C1204 1.287 . S
C1204 C1203 1.287 . S
C1204 C1205 1.524 . S
C1204 H1223 0.913 . S
C1205 H1181 0.950 . S
C1205 C1204 1.524 . S
C1205 C1206 1.415 . S
C1206 H1182 0.950 . S
C1206 C1201 1.363 . S
C1206 C1205 1.415 . S
C1207 H1183 0.951 . S
C1207 C1208 1.366 . S
C1207 C1209 1.388 . S
C1208 C1207 1.366 . S
C1208 C1212 1.385 . S
C1209 H1184 0.951 . S
C1209 C1207 1.388 . S
C1209 C1210 1.366 . S
C1210 C1209 1.366 . S
C1210 C1211 1.414 . S
C1210 C1213 1.499 . S
C1211 H1185 0.950 . S
C1211 C1210 1.414 . S
C1211 C1212 1.374 . S
C1212 H1186 0.950 . S
C1212 C1208 1.385 . S
C1212 C1211 1.374 . S
C1213 C1210 1.499 . S
C1213 C1214 1.373 . S
C1213 C1215 1.389 . S
C1214 H1187 0.950 . S
C1214 C1200 1.377 . S
C1214 C1213 1.373 . S
C1215 C1199 1.377 . S
C1215 C1213 1.389 . S
C1215 C1216 1.524 . S
C1216 C1215 1.524 . S
C1216 C1217 1.397 . S
C1216 C1221 1.363 . S
C1217 H1188 0.950 . S
C1217 C1216 1.397 . S
C1217 C1218 1.334 . S
C1218 H1189 0.950 . S
C1218 C1217 1.334 . S
C1218 C1219 1.287 . S
C1219 C1218 1.287 . S
C1219 C1220 1.524 . S
C1219 H1222 0.999 . S
C1220 H1190 0.950 . S
C1220 C1219 1.524 . S
C1220 C1221 1.415 . S
C1221 H1191 0.950 . S
C1221 C1216 1.363 . S
C1221 C1220 1.415 . S
H1222 C1219 0.999 . S
H1223 C1204 0.913 . S
H1224 C1242 0.951 . S
H1225 C1244 0.951 . S
H1226 C1246 0.950 . S
H1227 C1247 0.950 . S
H1228 C1249 0.950 . S
H1229 C1252 0.950 . S
H1230 C1253 0.950 . S
H1231 C1255 0.950 . S
H1232 C1256 0.950 . S
H1233 C1257 0.951 . S
H1234 C1259 0.951 . S
H1235 C1261 0.950 . S
H1236 C1262 0.950 . S
H1237 C1264 0.950 . S
H1238 C1267 0.950 . S
H1239 C1268 0.950 . S
H1240 C1270 0.950 . S
H1241 C1271 0.950 . S
C1242 H1224 0.951 . S
C1242 C1243 1.366 . S
C1242 C1244 1.388 . S
C1243 C1242 1.366 . S
C1243 C1247 1.385 . S
C1244 H1225 0.951 . S
C1244 C1242 1.388 . S
C1244 C1245 1.366 . S
C1245 C1244 1.366 . S
C1245 C1246 1.414 . S
C1245 C1248 1.499 . S
C1246 H1226 0.950 . S
C1246 C1245 1.414 . S
C1246 C1247 1.374 . S
C1247 H1227 0.950 . S
C1247 C1243 1.385 . S
C1247 C1246 1.374 . S
C1248 C1245 1.499 . S
C1248 C1249 1.373 . S
C1248 C1250 1.389 . S
C1249 H1228 0.950 . S
C1249 C1248 1.373 . S
C1249 C1265 1.377 . S
C1250 C1248 1.389 . S
C1250 C1251 1.524 . S
C1250 C1264 1.377 . S
C1251 C1250 1.524 . S
C1251 C1252 1.397 . S
C1251 C1256 1.363 . S
C1252 H1229 0.950 . S
C1252 C1251 1.397 . S
C1252 C1253 1.334 . S
C1253 H1230 0.950 . S
C1253 C1252 1.334 . S
C1253 C1254 1.287 . S
C1254 C1253 1.287 . S
C1254 C1255 1.524 . S
C1254 H1273 0.913 . S
C1255 H1231 0.950 . S
C1255 C1254 1.524 . S
C1255 C1256 1.415 . S
C1256 H1232 0.950 . S
C1256 C1251 1.363 . S
C1256 C1255 1.415 . S
C1257 H1233 0.951 . S
C1257 C1258 1.366 . S
C1257 C1259 1.388 . S
C1258 C1257 1.366 . S
C1258 C1262 1.385 . S
C1259 H1234 0.951 . S
C1259 C1257 1.388 . S
C1259 C1260 1.366 . S
C1260 C1259 1.366 . S
C1260 C1261 1.414 . S
C1260 C1263 1.499 . S
C1261 H1235 0.950 . S
C1261 C1260 1.414 . S
C1261 C1262 1.374 . S
C1262 H1236 0.950 . S
C1262 C1258 1.385 . S
C1262 C1261 1.374 . S
C1263 C1260 1.499 . S
C1263 C1264 1.373 . S
C1263 C1265 1.389 . S
C1264 H1237 0.950 . S
C1264 C1250 1.377 . S
C1264 C1263 1.373 . S
C1265 C1249 1.377 . S
C1265 C1263 1.389 . S
C1265 C1266 1.524 . S
C1266 C1265 1.524 . S
C1266 C1267 1.397 . S
C1266 C1271 1.363 . S
C1267 H1238 0.950 . S
C1267 C1266 1.397 . S
C1267 C1268 1.334 . S
C1268 H1239 0.950 . S
C1268 C1267 1.334 . S
C1268 C1269 1.287 . S
C1269 C1268 1.287 . S
C1269 C1270 1.524 . S
C1269 H1272 0.999 . S
C1270 H1240 0.950 . S
C1270 C1269 1.524 . S
C1270 C1271 1.415 . S
C1271 H1241 0.950 . S
C1271 C1266 1.363 . S
C1271 C1270 1.415 . S
H1272 C1269 0.999 . S
H1273 C1254 0.913 . S
H1274 C1292 0.951 . S
H1275 C1294 0.951 . S
H1276 C1296 0.950 . S
H1277 C1297 0.950 . S
H1278 C1299 0.950 . S
H1279 C1302 0.950 . S
H1280 C1303 0.950 . S
H1281 C1305 0.950 . S
H1282 C1306 0.950 . S
H1283 C1307 0.951 . S
H1284 C1309 0.951 . S
H1285 C1311 0.950 . S
H1286 C1312 0.950 . S
H1287 C1314 0.950 . S
H1288 C1317 0.950 . S
H1289 C1318 0.950 . S
H1290 C1320 0.950 . S
H1291 C1321 0.950 . S
C1292 H1274 0.951 . S
C1292 C1293 1.366 . S
C1292 C1294 1.388 . S
C1293 C1292 1.366 . S
C1293 C1297 1.385 . S
C1294 H1275 0.951 . S
C1294 C1292 1.388 . S
C1294 C1295 1.366 . S
C1295 C1294 1.366 . S
C1295 C1296 1.414 . S
C1295 C1298 1.499 . S
C1296 H1276 0.950 . S
C1296 C1295 1.414 . S
C1296 C1297 1.374 . S
C1297 H1277 0.950 . S
C1297 C1293 1.385 . S
C1297 C1296 1.374 . S
C1298 C1295 1.499 . S
C1298 C1299 1.373 . S
C1298 C1300 1.389 . S
C1299 H1278 0.950 . S
C1299 C1298 1.373 . S
C1299 C1315 1.377 . S
C1300 C1298 1.389 . S
C1300 C1301 1.524 . S
C1300 C1314 1.377 . S
C1301 C1300 1.524 . S
C1301 C1302 1.397 . S
C1301 C1306 1.363 . S
C1302 H1279 0.950 . S
C1302 C1301 1.397 . S
C1302 C1303 1.334 . S
C1303 H1280 0.950 . S
C1303 C1302 1.334 . S
C1303 C1304 1.287 . S
C1304 C1303 1.287 . S
C1304 C1305 1.524 . S
C1304 H1323 0.913 1_565 S
C1305 H1281 0.950 . S
C1305 C1304 1.524 . S
C1305 C1306 1.415 . S
C1306 H1282 0.950 . S
C1306 C1301 1.363 . S
C1306 C1305 1.415 . S
C1307 H1283 0.951 . S
C1307 C1308 1.366 . S
C1307 C1309 1.388 . S
C1308 C1307 1.366 . S
C1308 C1312 1.385 . S
C1309 H1284 0.951 . S
C1309 C1307 1.388 . S
C1309 C1310 1.366 . S
C1310 C1309 1.366 . S
C1310 C1311 1.414 . S
C1310 C1313 1.499 . S
C1311 H1285 0.950 . S
C1311 C1310 1.414 . S
C1311 C1312 1.374 . S
C1312 H1286 0.950 . S
C1312 C1308 1.385 . S
C1312 C1311 1.374 . S
C1313 C1310 1.499 . S
C1313 C1314 1.373 . S
C1313 C1315 1.389 . S
C1314 H1287 0.950 . S
C1314 C1300 1.377 . S
C1314 C1313 1.373 . S
C1315 C1299 1.377 . S
C1315 C1313 1.389 . S
C1315 C1316 1.524 . S
C1316 C1315 1.524 . S
C1316 C1317 1.397 . S
C1316 C1321 1.363 . S
C1317 H1288 0.950 . S
C1317 C1316 1.397 . S
C1317 C1318 1.334 . S
C1318 H1289 0.950 . S
C1318 C1317 1.334 . S
C1318 C1319 1.287 . S
C1319 C1318 1.287 . S
C1319 C1320 1.524 . S
C1319 H1322 0.999 . S
C1320 H1290 0.950 . S
C1320 C1319 1.524 . S
C1320 C1321 1.415 . S
C1321 H1291 0.950 . S
C1321 C1316 1.363 . S
C1321 C1320 1.415 . S
H1322 C1319 0.999 . S
H1323 C1304 0.913 1_545 S
H1324 C1342 0.951 . S
H1325 C1344 0.951 . S
H1326 C1346 0.950 . S
H1327 C1347 0.950 . S
H1328 C1349 0.950 . S
H1329 C1352 0.950 . S
H1330 C1353 0.950 1_556 S
H1331 C1355 0.950 . S
H1332 C1356 0.950 . S
H1333 C1357 0.951 . S
H1334 C1359 0.951 . S
H1335 C1361 0.950 . S
H1336 C1362 0.950 . S
H1337 C1364 0.950 1_554 S
H1338 C1367 0.950 . S
H1339 C1368 0.950 . S
H1340 C1370 0.950 . S
H1341 C1371 0.950 . S
C1342 H1324 0.951 . S
C1342 C1343 1.366 . S
C1342 C1344 1.388 . S
C1343 C1342 1.366 . S
C1343 C1347 1.385 . S
C1344 H1325 0.951 . S
C1344 C1342 1.388 . S
C1344 C1345 1.366 . S
C1345 C1344 1.366 . S
C1345 C1346 1.414 . S
C1345 C1348 1.499 . S
C1346 H1326 0.950 . S
C1346 C1345 1.414 . S
C1346 C1347 1.374 . S
C1347 H1327 0.950 . S
C1347 C1343 1.385 . S
C1347 C1346 1.374 . S
C1348 C1345 1.499 . S
C1348 C1349 1.373 . S
C1348 C1350 1.389 . S
C1349 H1328 0.950 . S
C1349 C1348 1.373 . S
C1349 C1365 1.377 . S
C1350 C1348 1.389 . S
C1350 C1351 1.524 . S
C1350 C1364 1.377 . S
C1351 C1350 1.524 . S
C1351 C1352 1.397 . S
C1351 C1356 1.363 1_556 S
C1352 H1329 0.950 . S
C1352 C1351 1.397 . S
C1352 C1353 1.334 1_556 S
C1353 H1330 0.950 1_554 S
C1353 C1352 1.334 1_554 S
C1353 C1354 1.287 . S
C1354 C1353 1.287 . S
C1354 C1355 1.524 . S
C1354 H1373 0.913 . S
C1355 H1331 0.950 . S
C1355 C1354 1.524 . S
C1355 C1356 1.415 . S
C1356 H1332 0.950 . S
C1356 C1351 1.363 1_554 S
C1356 C1355 1.415 . S
C1357 H1333 0.951 . S
C1357 C1358 1.366 1_556 S
C1357 C1359 1.388 . S
C1358 C1357 1.366 1_554 S
C1358 C1362 1.385 . S
C1359 H1334 0.951 . S
C1359 C1357 1.388 . S
C1359 C1360 1.366 . S
C1360 C1359 1.366 . S
C1360 C1361 1.414 1_556 S
C1360 C1363 1.499 . S
C1361 H1335 0.950 . S
C1361 C1360 1.414 1_554 S
C1361 C1362 1.374 . S
C1362 H1336 0.950 . S
C1362 C1358 1.385 . S
C1362 C1361 1.374 . S
C1363 C1360 1.499 . S
C1363 C1364 1.373 . S
C1363 C1365 1.389 . S
C1364 H1337 0.950 1_556 S
C1364 C1350 1.377 . S
C1364 C1363 1.373 . S
C1365 C1349 1.377 . S
C1365 C1363 1.389 . S
C1365 C1366 1.524 . S
C1366 C1365 1.524 . S
C1366 C1367 1.397 . S
C1366 C1371 1.363 . S
C1367 H1338 0.950 . S
C1367 C1366 1.397 . S
C1367 C1368 1.334 . S
C1368 H1339 0.950 . S
C1368 C1367 1.334 . S
C1368 C1369 1.287 . S
C1369 C1368 1.287 . S
C1369 C1370 1.524 . S
C1369 H1372 0.999 . S
C1370 H1340 0.950 . S
C1370 C1369 1.524 . S
C1370 C1371 1.415 . S
C1371 H1341 0.950 . S
C1371 C1366 1.363 . S
C1371 C1370 1.415 . S
H1372 C1369 0.999 . S
H1373 C1354 0.913 . S
H1374 C1392 0.951 . S
H1375 C1394 0.951 . S
H1376 C1396 0.950 . S
H1377 C1397 0.950 . S
H1378 C1399 0.950 . S
H1379 C1402 0.950 . S
H1380 C1403 0.950 1_556 S
H1381 C1405 0.950 . S
H1382 C1406 0.950 . S
H1383 C1407 0.951 . S
H1384 C1409 0.951 . S
H1385 C1411 0.950 . S
H1386 C1412 0.950 . S
H1387 C1414 0.950 . S
H1388 C1417 0.950 . S
H1389 C1418 0.950 . S
H1390 C1420 0.950 . S
H1391 C1421 0.950 . S
C1392 H1374 0.951 . S
C1392 C1393 1.366 . S
C1392 C1394 1.388 . S
C1393 C1392 1.366 . S
C1393 C1397 1.385 . S
C1394 H1375 0.951 . S
C1394 C1392 1.388 . S
C1394 C1395 1.366 . S
C1395 C1394 1.366 . S
C1395 C1396 1.414 . S
C1395 C1398 1.499 . S
C1396 H1376 0.950 . S
C1396 C1395 1.414 . S
C1396 C1397 1.374 . S
C1397 H1377 0.950 . S
C1397 C1393 1.385 . S
C1397 C1396 1.374 . S
C1398 C1395 1.499 . S
C1398 C1399 1.373 . S
C1398 C1400 1.389 . S
C1399 H1378 0.950 . S
C1399 C1398 1.373 . S
C1399 C1415 1.377 . S
C1400 C1398 1.389 . S
C1400 C1401 1.524 . S
C1400 C1414 1.377 . S
C1401 C1400 1.524 . S
C1401 C1402 1.397 . S
C1401 C1406 1.363 . S
C1402 H1379 0.950 . S
C1402 C1401 1.397 . S
C1402 C1403 1.334 . S
C1403 H1380 0.950 1_554 S
C1403 C1402 1.334 . S
C1403 C1404 1.287 1_554 S
C1404 C1403 1.287 1_556 S
C1404 C1405 1.524 1_556 S
C1404 H1423 0.913 . S
C1405 H1381 0.950 . S
C1405 C1404 1.524 1_554 S
C1405 C1406 1.415 . S
C1406 H1382 0.950 . S
C1406 C1401 1.363 . S
C1406 C1405 1.415 . S
C1407 H1383 0.951 . S
C1407 C1408 1.366 . S
C1407 C1409 1.388 . S
C1408 C1407 1.366 . S
C1408 C1412 1.385 . S
C1409 H1384 0.951 . S
C1409 C1407 1.388 . S
C1409 C1410 1.366 . S
C1410 C1409 1.366 . S
C1410 C1411 1.414 . S
C1410 C1413 1.499 . S
C1411 H1385 0.950 . S
C1411 C1410 1.414 . S
C1411 C1412 1.374 . S
C1412 H1386 0.950 . S
C1412 C1408 1.385 . S
C1412 C1411 1.374 . S
C1413 C1410 1.499 . S
C1413 C1414 1.373 . S
C1413 C1415 1.389 . S
C1414 H1387 0.950 . S
C1414 C1400 1.377 . S
C1414 C1413 1.373 . S
C1415 C1399 1.377 . S
C1415 C1413 1.389 . S
C1415 C1416 1.524 . S
C1416 C1415 1.524 . S
C1416 C1417 1.397 . S
C1416 C1421 1.363 . S
C1417 H1388 0.950 . S
C1417 C1416 1.397 . S
C1417 C1418 1.334 . S
C1418 H1389 0.950 . S
C1418 C1417 1.334 . S
C1418 C1419 1.287 . S
C1419 C1418 1.287 . S
C1419 C1420 1.524 . S
C1419 H1422 0.999 . S
C1420 H1390 0.950 . S
C1420 C1419 1.524 . S
C1420 C1421 1.415 . S
C1421 H1391 0.950 . S
C1421 C1416 1.363 . S
C1421 C1420 1.415 . S
H1422 C1419 0.999 . S
H1423 C1404 0.913 . S
H1424 C1442 0.951 . S
H1425 C1444 0.951 . S
H1426 C1446 0.950 . S
H1427 C1447 0.950 . S
H1428 C1449 0.950 1_554 S
H1429 C1452 0.950 . S
H1430 C1453 0.950 . S
H1431 C1455 0.950 . S
H1432 C1456 0.950 . S
H1433 C1457 0.951 . S
H1434 C1459 0.951 . S
H1435 C1461 0.950 . S
H1436 C1462 0.950 . S
H1437 C1464 0.950 . S
H1438 C1467 0.950 1_556 S
H1439 C1468 0.950 . S
H1440 C1470 0.950 . S
H1441 C1471 0.950 . S
C1442 H1424 0.951 . S
C1442 C1443 1.366 . S
C1442 C1444 1.388 1_554 S
C1443 C1442 1.366 . S
C1443 C1447 1.385 . S
C1444 H1425 0.951 . S
C1444 C1442 1.388 1_556 S
C1444 C1445 1.366 . S
C1445 C1444 1.366 . S
C1445 C1446 1.414 . S
C1445 C1448 1.499 . S
C1446 H1426 0.950 . S
C1446 C1445 1.414 . S
C1446 C1447 1.374 1_556 S
C1447 H1427 0.950 . S
C1447 C1443 1.385 . S
C1447 C1446 1.374 1_554 S
C1448 C1445 1.499 . S
C1448 C1449 1.373 . S
C1448 C1450 1.389 . S
C1449 H1428 0.950 1_556 S
C1449 C1448 1.373 . S
C1449 C1465 1.377 . S
C1450 C1448 1.389 . S
C1450 C1451 1.524 . S
C1450 C1464 1.377 . S
C1451 C1450 1.524 . S
C1451 C1452 1.397 . S
C1451 C1456 1.363 . S
C1452 H1429 0.950 . S
C1452 C1451 1.397 . S
C1452 C1453 1.334 . S
C1453 H1430 0.950 . S
C1453 C1452 1.334 . S
C1453 C1454 1.287 . S
C1454 C1453 1.287 . S
C1454 C1455 1.524 . S
C1454 H1473 0.913 . S
C1455 H1431 0.950 . S
C1455 C1454 1.524 . S
C1455 C1456 1.415 . S
C1456 H1432 0.950 . S
C1456 C1451 1.363 . S
C1456 C1455 1.415 . S
C1457 H1433 0.951 . S
C1457 C1458 1.366 . S
C1457 C1459 1.388 . S
C1458 C1457 1.366 . S
C1458 C1462 1.385 . S
C1459 H1434 0.951 . S
C1459 C1457 1.388 . S
C1459 C1460 1.366 . S
C1460 C1459 1.366 . S
C1460 C1461 1.414 . S
C1460 C1463 1.499 . S
C1461 H1435 0.950 . S
C1461 C1460 1.414 . S
C1461 C1462 1.374 . S
C1462 H1436 0.950 . S
C1462 C1458 1.385 . S
C1462 C1461 1.374 . S
C1463 C1460 1.499 . S
C1463 C1464 1.373 . S
C1463 C1465 1.389 . S
C1464 H1437 0.950 . S
C1464 C1450 1.377 . S
C1464 C1463 1.373 . S
C1465 C1449 1.377 . S
C1465 C1463 1.389 . S
C1465 C1466 1.524 . S
C1466 C1465 1.524 . S
C1466 C1467 1.397 1_556 S
C1466 C1471 1.363 . S
C1467 H1438 0.950 1_554 S
C1467 C1466 1.397 1_554 S
C1467 C1468 1.334 . S
C1468 H1439 0.950 . S
C1468 C1467 1.334 . S
C1468 C1469 1.287 . S
C1469 C1468 1.287 . S
C1469 C1470 1.524 . S
C1469 H1472 0.999 . S
C1470 H1440 0.950 . S
C1470 C1469 1.524 . S
C1470 C1471 1.415 1_554 S
C1471 H1441 0.950 . S
C1471 C1466 1.363 . S
C1471 C1470 1.415 1_556 S
H1472 C1469 0.999 . S
H1473 C1454 0.913 . S
H1474 C1492 0.951 . S
H1475 C1494 0.951 . S
H1476 C1496 0.950 . S
H1477 C1497 0.950 . S
H1478 C1499 0.950 . S
H1479 C1502 0.950 . S
H1480 C1503 0.950 . S
H1481 C1505 0.950 . S
H1482 C1506 0.950 . S
H1483 C1507 0.951 . S
H1484 C1509 0.951 . S
H1485 C1511 0.950 . S
H1486 C1512 0.950 . S
H1487 C1514 0.950 . S
H1488 C1517 0.950 . S
H1489 C1518 0.950 . S
H1490 C1520 0.950 . S
H1491 C1521 0.950 . S
C1492 H1474 0.951 . S
C1492 C1493 1.366 . S
C1492 C1494 1.388 . S
C1493 C1492 1.366 . S
C1493 C1497 1.385 . S
C1494 H1475 0.951 . S
C1494 C1492 1.388 . S
C1494 C1495 1.366 . S
C1495 C1494 1.366 . S
C1495 C1496 1.414 . S
C1495 C1498 1.499 . S
C1496 H1476 0.950 . S
C1496 C1495 1.414 . S
C1496 C1497 1.374 . S
C1497 H1477 0.950 . S
C1497 C1493 1.385 . S
C1497 C1496 1.374 . S
C1498 C1495 1.499 . S
C1498 C1499 1.373 . S
C1498 C1500 1.389 . S
C1499 H1478 0.950 . S
C1499 C1498 1.373 . S
C1499 C1515 1.377 . S
C1500 C1498 1.389 . S
C1500 C1501 1.524 . S
C1500 C1514 1.377 . S
C1501 C1500 1.524 . S
C1501 C1502 1.397 . S
C1501 C1506 1.363 . S
C1502 H1479 0.950 . S
C1502 C1501 1.397 . S
C1502 C1503 1.334 . S
C1503 H1480 0.950 . S
C1503 C1502 1.334 . S
C1503 C1504 1.287 . S
C1504 C1503 1.287 . S
C1504 C1505 1.524 . S
C1504 H1523 0.913 . S
C1505 H1481 0.950 . S
C1505 C1504 1.524 . S
C1505 C1506 1.415 . S
C1506 H1482 0.950 . S
C1506 C1501 1.363 . S
C1506 C1505 1.415 . S
C1507 H1483 0.951 . S
C1507 C1508 1.366 . S
C1507 C1509 1.388 . S
C1508 C1507 1.366 . S
C1508 C1512 1.385 . S
C1509 H1484 0.951 . S
C1509 C1507 1.388 . S
C1509 C1510 1.366 . S
C1510 C1509 1.366 . S
C1510 C1511 1.414 . S
C1510 C1513 1.499 . S
C1511 H1485 0.950 . S
C1511 C1510 1.414 . S
C1511 C1512 1.374 . S
C1512 H1486 0.950 . S
C1512 C1508 1.385 . S
C1512 C1511 1.374 . S
C1513 C1510 1.499 . S
C1513 C1514 1.373 . S
C1513 C1515 1.389 . S
C1514 H1487 0.950 . S
C1514 C1500 1.377 . S
C1514 C1513 1.373 . S
C1515 C1499 1.377 . S
C1515 C1513 1.389 . S
C1515 C1516 1.524 . S
C1516 C1515 1.524 . S
C1516 C1517 1.397 . S
C1516 C1521 1.363 . S
C1517 H1488 0.950 . S
C1517 C1516 1.397 . S
C1517 C1518 1.334 . S
C1518 H1489 0.950 . S
C1518 C1517 1.334 . S
C1518 C1519 1.287 . S
C1519 C1518 1.287 . S
C1519 C1520 1.524 . S
C1519 H1522 0.999 . S
C1520 H1490 0.950 . S
C1520 C1519 1.524 . S
C1520 C1521 1.415 . S
C1521 H1491 0.950 . S
C1521 C1516 1.363 . S
C1521 C1520 1.415 . S
H1522 C1519 0.999 . S
H1523 C1504 0.913 . S
H1524 C1542 0.951 . S
H1525 C1544 0.951 . S
H1526 C1546 0.950 . S
H1527 C1547 0.950 . S
H1528 C1549 0.950 . S
H1529 C1552 0.950 . S
H1530 C1553 0.950 . S
H1531 C1555 0.950 . S
H1532 C1556 0.950 . S
H1533 C1557 0.951 . S
H1534 C1559 0.951 . S
H1535 C1561 0.950 . S
H1536 C1562 0.950 . S
H1537 C1564 0.950 . S
H1538 C1567 0.950 . S
H1539 C1568 0.950 . S
H1540 C1570 0.950 . S
H1541 C1571 0.950 . S
C1542 H1524 0.951 . S
C1542 C1543 1.366 . S
C1542 C1544 1.388 . S
C1543 C1542 1.366 . S
C1543 C1547 1.385 . S
C1544 H1525 0.951 . S
C1544 C1542 1.388 . S
C1544 C1545 1.366 . S
C1545 C1544 1.366 . S
C1545 C1546 1.414 . S
C1545 C1548 1.499 . S
C1546 H1526 0.950 . S
C1546 C1545 1.414 . S
C1546 C1547 1.374 . S
C1547 H1527 0.950 . S
C1547 C1543 1.385 . S
C1547 C1546 1.374 . S
C1548 C1545 1.499 . S
C1548 C1549 1.373 . S
C1548 C1550 1.389 . S
C1549 H1528 0.950 . S
C1549 C1548 1.373 . S
C1549 C1565 1.377 . S
C1550 C1548 1.389 . S
C1550 C1551 1.524 . S
C1550 C1564 1.377 . S
C1551 C1550 1.524 . S
C1551 C1552 1.397 . S
C1551 C1556 1.363 . S
C1552 H1529 0.950 . S
C1552 C1551 1.397 . S
C1552 C1553 1.334 . S
C1553 H1530 0.950 . S
C1553 C1552 1.334 . S
C1553 C1554 1.287 . S
C1554 C1553 1.287 . S
C1554 C1555 1.524 . S
C1554 H1573 0.913 . S
C1555 H1531 0.950 . S
C1555 C1554 1.524 . S
C1555 C1556 1.415 . S
C1556 H1532 0.950 . S
C1556 C1551 1.363 . S
C1556 C1555 1.415 . S
C1557 H1533 0.951 . S
C1557 C1558 1.366 . S
C1557 C1559 1.388 . S
C1558 C1557 1.366 . S
C1558 C1562 1.385 . S
C1559 H1534 0.951 . S
C1559 C1557 1.388 . S
C1559 C1560 1.366 . S
C1560 C1559 1.366 . S
C1560 C1561 1.414 . S
C1560 C1563 1.499 . S
C1561 H1535 0.950 . S
C1561 C1560 1.414 . S
C1561 C1562 1.374 . S
C1562 H1536 0.950 . S
C1562 C1558 1.385 . S
C1562 C1561 1.374 . S
C1563 C1560 1.499 . S
C1563 C1564 1.373 . S
C1563 C1565 1.389 . S
C1564 H1537 0.950 . S
C1564 C1550 1.377 . S
C1564 C1563 1.373 . S
C1565 C1549 1.377 . S
C1565 C1563 1.389 . S
C1565 C1566 1.524 . S
C1566 C1565 1.524 . S
C1566 C1567 1.397 . S
C1566 C1571 1.363 . S
C1567 H1538 0.950 . S
C1567 C1566 1.397 . S
C1567 C1568 1.334 . S
C1568 H1539 0.950 . S
C1568 C1567 1.334 . S
C1568 C1569 1.287 . S
C1569 C1568 1.287 . S
C1569 C1570 1.524 . S
C1569 H1572 0.999 . S
C1570 H1540 0.950 . S
C1570 C1569 1.524 . S
C1570 C1571 1.415 . S
C1571 H1541 0.950 . S
C1571 C1566 1.363 . S
C1571 C1570 1.415 . S
H1572 C1569 0.999 . S
H1573 C1554 0.913 . S
H1574 C1592 0.951 . S
H1575 C1594 0.951 . S
H1576 C1596 0.950 . S
H1577 C1597 0.950 1_545 S
H1578 C1599 0.950 . S
H1579 C1602 0.950 . S
H1580 C1603 0.950 . S
H1581 C1605 0.950 . S
H1582 C1606 0.950 . S
H1583 C1607 0.951 . S
H1584 C1609 0.951 . S
H1585 C1611 0.950 . S
H1586 C1612 0.950 . S
H1587 C1614 0.950 . S
H1588 C1617 0.950 . S
H1589 C1618 0.950 . S
H1590 C1620 0.950 . S
H1591 C1621 0.950 . S
C1592 H1574 0.951 . S
C1592 C1593 1.366 . S
C1592 C1594 1.388 . S
C1593 C1592 1.366 . S
C1593 C1597 1.385 . S
C1594 H1575 0.951 . S
C1594 C1592 1.388 . S
C1594 C1595 1.366 . S
C1595 C1594 1.366 . S
C1595 C1596 1.414 . S
C1595 C1598 1.499 . S
C1596 H1576 0.950 . S
C1596 C1595 1.414 . S
C1596 C1597 1.374 . S
C1597 H1577 0.950 1_565 S
C1597 C1593 1.385 . S
C1597 C1596 1.374 . S
C1598 C1595 1.499 . S
C1598 C1599 1.373 . S
C1598 C1600 1.389 . S
C1599 H1578 0.950 . S
C1599 C1598 1.373 . S
C1599 C1615 1.377 . S
C1600 C1598 1.389 . S
C1600 C1601 1.524 . S
C1600 C1614 1.377 . S
C1601 C1600 1.524 . S
C1601 C1602 1.397 . S
C1601 C1606 1.363 . S
C1602 H1579 0.950 . S
C1602 C1601 1.397 . S
C1602 C1603 1.334 . S
C1603 H1580 0.950 . S
C1603 C1602 1.334 . S
C1603 C1604 1.287 . S
C1604 C1603 1.287 . S
C1604 C1605 1.524 . S
C1604 H1623 0.913 . S
C1605 H1581 0.950 . S
C1605 C1604 1.524 . S
C1605 C1606 1.415 . S
C1606 H1582 0.950 . S
C1606 C1601 1.363 . S
C1606 C1605 1.415 . S
C1607 H1583 0.951 . S
C1607 C1608 1.366 . S
C1607 C1609 1.388 . S
C1608 C1607 1.366 . S
C1608 C1612 1.385 . S
C1609 H1584 0.951 . S
C1609 C1607 1.388 . S
C1609 C1610 1.366 . S
C1610 C1609 1.366 . S
C1610 C1611 1.414 . S
C1610 C1613 1.499 . S
C1611 H1585 0.950 . S
C1611 C1610 1.414 . S
C1611 C1612 1.374 . S
C1612 H1586 0.950 . S
C1612 C1608 1.385 . S
C1612 C1611 1.374 . S
C1613 C1610 1.499 . S
C1613 C1614 1.373 . S
C1613 C1615 1.389 . S
C1614 H1587 0.950 . S
C1614 C1600 1.377 . S
C1614 C1613 1.373 . S
C1615 C1599 1.377 . S
C1615 C1613 1.389 . S
C1615 C1616 1.524 . S
C1616 C1615 1.524 . S
C1616 C1617 1.397 . S
C1616 C1621 1.363 . S
C1617 H1588 0.950 . S
C1617 C1616 1.397 . S
C1617 C1618 1.334 . S
C1618 H1589 0.950 . S
C1618 C1617 1.334 . S
C1618 C1619 1.287 . S
C1619 C1618 1.287 . S
C1619 C1620 1.524 . S
C1619 H1622 0.999 . S
C1620 H1590 0.950 . S
C1620 C1619 1.524 . S
C1620 C1621 1.415 . S
C1621 H1591 0.950 . S
C1621 C1616 1.363 . S
C1621 C1620 1.415 . S
H1622 C1619 0.999 . S
H1623 C1604 0.913 . S
H1624 C1642 0.951 . S
H1625 C1644 0.951 . S
H1626 C1646 0.950 . S
H1627 C1647 0.950 . S
H1628 C1649 0.950 . S
H1629 C1652 0.950 . S
H1630 C1653 0.950 . S
H1631 C1655 0.950 . S
H1632 C1656 0.950 . S
H1633 C1657 0.951 . S
H1634 C1659 0.951 . S
H1635 C1661 0.950 . S
H1636 C1662 0.950 . S
H1637 C1664 0.950 . S
H1638 C1667 0.950 . S
H1639 C1668 0.950 . S
H1640 C1670 0.950 . S
H1641 C1671 0.950 . S
C1642 H1624 0.951 . S
C1642 C1643 1.366 . S
C1642 C1644 1.388 . S
C1643 C1642 1.366 . S
C1643 C1647 1.385 . S
C1644 H1625 0.951 . S
C1644 C1642 1.388 . S
C1644 C1645 1.366 . S
C1645 C1644 1.366 . S
C1645 C1646 1.414 . S
C1645 C1648 1.499 . S
C1646 H1626 0.950 . S
C1646 C1645 1.414 . S
C1646 C1647 1.374 . S
C1647 H1627 0.950 . S
C1647 C1643 1.385 . S
C1647 C1646 1.374 . S
C1648 C1645 1.499 . S
C1648 C1649 1.373 . S
C1648 C1650 1.389 . S
C1649 H1628 0.950 . S
C1649 C1648 1.373 . S
C1649 C1665 1.377 . S
C1650 C1648 1.389 . S
C1650 C1651 1.524 . S
C1650 C1664 1.377 . S
C1651 C1650 1.524 . S
C1651 C1652 1.397 . S
C1651 C1656 1.363 . S
C1652 H1629 0.950 . S
C1652 C1651 1.397 . S
C1652 C1653 1.334 . S
C1653 H1630 0.950 . S
C1653 C1652 1.334 . S
C1653 C1654 1.287 . S
C1654 C1653 1.287 . S
C1654 C1655 1.524 . S
C1654 H1673 0.913 . S
C1655 H1631 0.950 . S
C1655 C1654 1.524 . S
C1655 C1656 1.415 . S
C1656 H1632 0.950 . S
C1656 C1651 1.363 . S
C1656 C1655 1.415 . S
C1657 H1633 0.951 . S
C1657 C1658 1.366 . S
C1657 C1659 1.388 . S
C1658 C1657 1.366 . S
C1658 C1662 1.385 . S
C1659 H1634 0.951 . S
C1659 C1657 1.388 . S
C1659 C1660 1.366 . S
C1660 C1659 1.366 . S
C1660 C1661 1.414 . S
C1660 C1663 1.499 . S
C1661 H1635 0.950 . S
C1661 C1660 1.414 . S
C1661 C1662 1.374 . S
C1662 H1636 0.950 . S
C1662 C1658 1.385 . S
C1662 C1661 1.374 . S
C1663 C1660 1.499 . S
C1663 C1664 1.373 . S
C1663 C1665 1.389 . S
C1664 H1637 0.950 . S
C1664 C1650 1.377 . S
C1664 C1663 1.373 . S
C1665 C1649 1.377 . S
C1665 C1663 1.389 . S
C1665 C1666 1.524 . S
C1666 C1665 1.524 . S
C1666 C1667 1.397 . S
C1666 C1671 1.363 . S
C1667 H1638 0.950 . S
C1667 C1666 1.397 . S
C1667 C1668 1.334 . S
C1668 H1639 0.950 . S
C1668 C1667 1.334 . S
C1668 C1669 1.287 . S
C1669 C1668 1.287 . S
C1669 C1670 1.524 . S
C1669 H1672 0.999 . S
C1670 H1640 0.950 . S
C1670 C1669 1.524 . S
C1670 C1671 1.415 . S
C1671 H1641 0.950 . S
C1671 C1666 1.363 . S
C1671 C1670 1.415 . S
H1672 C1669 0.999 . S
H1673 C1654 0.913 . S
H1674 C1692 0.951 . S
H1675 C1694 0.951 . S
H1676 C1696 0.950 . S
H1677 C1697 0.950 . S
H1678 C1699 0.950 . S
H1679 C1702 0.950 . S
H1680 C1703 0.950 . S
H1681 C1705 0.950 . S
H1682 C1706 0.950 . S
H1683 C1707 0.951 . S
H1684 C1709 0.951 . S
H1685 C1711 0.950 . S
H1686 C1712 0.950 . S
H1687 C1714 0.950 . S
H1688 C1717 0.950 . S
H1689 C1718 0.950 . S
H1690 C1720 0.950 . S
H1691 C1721 0.950 . S
C1692 H1674 0.951 . S
C1692 C1693 1.366 . S
C1692 C1694 1.388 . S
C1693 C1692 1.366 . S
C1693 C1697 1.385 . S
C1694 H1675 0.951 . S
C1694 C1692 1.388 . S
C1694 C1695 1.366 . S
C1695 C1694 1.366 . S
C1695 C1696 1.414 . S
C1695 C1698 1.499 . S
C1696 H1676 0.950 . S
C1696 C1695 1.414 . S
C1696 C1697 1.374 . S
C1697 H1677 0.950 . S
C1697 C1693 1.385 . S
C1697 C1696 1.374 . S
C1698 C1695 1.499 . S
C1698 C1699 1.373 . S
C1698 C1700 1.389 . S
C1699 H1678 0.950 . S
C1699 C1698 1.373 . S
C1699 C1715 1.377 . S
C1700 C1698 1.389 . S
C1700 C1701 1.524 . S
C1700 C1714 1.377 . S
C1701 C1700 1.524 . S
C1701 C1702 1.397 . S
C1701 C1706 1.363 . S
C1702 H1679 0.950 . S
C1702 C1701 1.397 . S
C1702 C1703 1.334 . S
C1703 H1680 0.950 . S
C1703 C1702 1.334 . S
C1703 C1704 1.287 . S
C1704 C1703 1.287 . S
C1704 C1705 1.524 . S
C1704 H1723 0.913 . S
C1705 H1681 0.950 . S
C1705 C1704 1.524 . S
C1705 C1706 1.415 . S
C1706 H1682 0.950 . S
C1706 C1701 1.363 . S
C1706 C1705 1.415 . S
C1707 H1683 0.951 . S
C1707 C1708 1.366 . S
C1707 C1709 1.388 . S
C1708 C1707 1.366 . S
C1708 C1712 1.385 . S
C1709 H1684 0.951 . S
C1709 C1707 1.388 . S
C1709 C1710 1.366 . S
C1710 C1709 1.366 . S
C1710 C1711 1.414 . S
C1710 C1713 1.499 . S
C1711 H1685 0.950 . S
C1711 C1710 1.414 . S
C1711 C1712 1.374 . S
C1712 H1686 0.950 . S
C1712 C1708 1.385 . S
C1712 C1711 1.374 . S
C1713 C1710 1.499 . S
C1713 C1714 1.373 . S
C1713 C1715 1.389 . S
C1714 H1687 0.950 . S
C1714 C1700 1.377 . S
C1714 C1713 1.373 . S
C1715 C1699 1.377 . S
C1715 C1713 1.389 . S
C1715 C1716 1.524 . S
C1716 C1715 1.524 . S
C1716 C1717 1.397 . S
C1716 C1721 1.363 . S
C1717 H1688 0.950 . S
C1717 C1716 1.397 . S
C1717 C1718 1.334 . S
C1718 H1689 0.950 . S
C1718 C1717 1.334 . S
C1718 C1719 1.287 . S
C1719 C1718 1.287 . S
C1719 C1720 1.524 . S
C1719 H1722 0.999 . S
C1720 H1690 0.950 . S
C1720 C1719 1.524 . S
C1720 C1721 1.415 . S
C1721 H1691 0.950 . S
C1721 C1716 1.363 . S
C1721 C1720 1.415 . S
H1722 C1719 0.999 . S
H1723 C1704 0.913 . S
H1724 C1742 0.951 . S
H1725 C1744 0.951 . S
H1726 C1746 0.950 . S
H1727 C1747 0.950 . S
H1728 C1749 0.950 . S
H1729 C1752 0.950 . S
H1730 C1753 0.950 . S
H1731 C1755 0.950 . S
H1732 C1756 0.950 . S
H1733 C1757 0.951 . S
H1734 C1759 0.951 . S
H1735 C1761 0.950 . S
H1736 C1762 0.950 . S
H1737 C1764 0.950 . S
H1738 C1767 0.950 . S
H1739 C1768 0.950 . S
H1740 C1770 0.950 . S
H1741 C1771 0.950 . S
C1742 H1724 0.951 . S
C1742 C1743 1.366 . S
C1742 C1744 1.388 . S
C1743 C1742 1.366 . S
C1743 C1747 1.385 . S
C1744 H1725 0.951 . S
C1744 C1742 1.388 . S
C1744 C1745 1.366 . S
C1745 C1744 1.366 . S
C1745 C1746 1.414 . S
C1745 C1748 1.499 . S
C1746 H1726 0.950 . S
C1746 C1745 1.414 . S
C1746 C1747 1.374 . S
C1747 H1727 0.950 . S
C1747 C1743 1.385 . S
C1747 C1746 1.374 . S
C1748 C1745 1.499 . S
C1748 C1749 1.373 . S
C1748 C1750 1.389 . S
C1749 H1728 0.950 . S
C1749 C1748 1.373 . S
C1749 C1765 1.377 . S
C1750 C1748 1.389 . S
C1750 C1751 1.524 . S
C1750 C1764 1.377 . S
C1751 C1750 1.524 . S
C1751 C1752 1.397 . S
C1751 C1756 1.363 . S
C1752 H1729 0.950 . S
C1752 C1751 1.397 . S
C1752 C1753 1.334 . S
C1753 H1730 0.950 . S
C1753 C1752 1.334 . S
C1753 C1754 1.287 . S
C1754 C1753 1.287 . S
C1754 C1755 1.524 . S
C1754 H1773 0.913 . S
C1755 H1731 0.950 . S
C1755 C1754 1.524 . S
C1755 C1756 1.415 . S
C1756 H1732 0.950 . S
C1756 C1751 1.363 . S
C1756 C1755 1.415 . S
C1757 H1733 0.951 . S
C1757 C1758 1.366 . S
C1757 C1759 1.388 . S
C1758 C1757 1.366 . S
C1758 C1762 1.385 . S
C1759 H1734 0.951 . S
C1759 C1757 1.388 . S
C1759 C1760 1.366 . S
C1760 C1759 1.366 . S
C1760 C1761 1.414 . S
C1760 C1763 1.499 . S
C1761 H1735 0.950 . S
C1761 C1760 1.414 . S
C1761 C1762 1.374 . S
C1762 H1736 0.950 . S
C1762 C1758 1.385 . S
C1762 C1761 1.374 . S
C1763 C1760 1.499 . S
C1763 C1764 1.373 . S
C1763 C1765 1.389 . S
C1764 H1737 0.950 . S
C1764 C1750 1.377 . S
C1764 C1763 1.373 . S
C1765 C1749 1.377 . S
C1765 C1763 1.389 . S
C1765 C1766 1.524 . S
C1766 C1765 1.524 . S
C1766 C1767 1.397 . S
C1766 C1771 1.363 . S
C1767 H1738 0.950 . S
C1767 C1766 1.397 . S
C1767 C1768 1.334 . S
C1768 H1739 0.950 . S
C1768 C1767 1.334 . S
C1768 C1769 1.287 . S
C1769 C1768 1.287 . S
C1769 C1770 1.524 . S
C1769 H1772 0.999 . S
C1770 H1740 0.950 . S
C1770 C1769 1.524 . S
C1770 C1771 1.415 . S
C1771 H1741 0.950 . S
C1771 C1766 1.363 . S
C1771 C1770 1.415 . S
H1772 C1769 0.999 . S
H1773 C1754 0.913 . S
H1774 C1792 0.951 . S
H1775 C1794 0.951 . S
H1776 C1796 0.950 . S
H1777 C1797 0.950 1_554 S
H1778 C1799 0.950 . S
H1779 C1802 0.950 . S
H1780 C1803 0.950 . S
H1781 C1805 0.950 . S
H1782 C1806 0.950 . S
H1783 C1807 0.951 . S
H1784 C1809 0.951 . S
H1785 C1811 0.950 . S
H1786 C1812 0.950 1_545 S
H1787 C1814 0.950 . S
H1788 C1817 0.950 . S
H1789 C1818 0.950 . S
H1790 C1820 0.950 . S
H1791 C1821 0.950 . S
C1792 H1774 0.951 . S
C1792 C1793 1.366 1_556 S
C1792 C1794 1.388 . S
C1793 C1792 1.366 1_554 S
C1793 C1797 1.385 1_554 S
C1794 H1775 0.951 . S
C1794 C1792 1.388 . S
C1794 C1795 1.366 . S
C1795 C1794 1.366 . S
C1795 C1796 1.414 . S
C1795 C1798 1.499 . S
C1796 H1776 0.950 . S
C1796 C1795 1.414 . S
C1796 C1797 1.374 . S
C1797 H1777 0.950 1_556 S
C1797 C1793 1.385 1_556 S
C1797 C1796 1.374 . S
C1798 C1795 1.499 . S
C1798 C1799 1.373 . S
C1798 C1800 1.389 . S
C1799 H1778 0.950 . S
C1799 C1798 1.373 . S
C1799 C1815 1.377 . S
C1800 C1798 1.389 . S
C1800 C1801 1.524 . S
C1800 C1814 1.377 . S
C1801 C1800 1.524 . S
C1801 C1802 1.397 1_556 S
C1801 C1806 1.363 . S
C1802 H1779 0.950 . S
C1802 C1801 1.397 1_554 S
C1802 C1803 1.334 . S
C1803 H1780 0.950 . S
C1803 C1802 1.334 . S
C1803 C1804 1.287 . S
C1804 C1803 1.287 . S
C1804 C1805 1.524 . S
C1804 H1823 0.913 . S
C1805 H1781 0.950 . S
C1805 C1804 1.524 . S
C1805 C1806 1.415 1_554 S
C1806 H1782 0.950 . S
C1806 C1801 1.363 . S
C1806 C1805 1.415 1_556 S
C1807 H1783 0.951 . S
C1807 C1808 1.366 . S
C1807 C1809 1.388 . S
C1808 C1807 1.366 . S
C1808 C1812 1.385 . S
C1809 H1784 0.951 . S
C1809 C1807 1.388 . S
C1809 C1810 1.366 . S
C1810 C1809 1.366 . S
C1810 C1811 1.414 . S
C1810 C1813 1.499 . S
C1811 H1785 0.950 . S
C1811 C1810 1.414 . S
C1811 C1812 1.374 . S
C1812 H1786 0.950 1_565 S
C1812 C1808 1.385 . S
C1812 C1811 1.374 . S
C1813 C1810 1.499 . S
C1813 C1814 1.373 . S
C1813 C1815 1.389 . S
C1814 H1787 0.950 . S
C1814 C1800 1.377 . S
C1814 C1813 1.373 . S
C1815 C1799 1.377 . S
C1815 C1813 1.389 . S
C1815 C1816 1.524 . S
C1816 C1815 1.524 . S
C1816 C1817 1.397 . S
C1816 C1821 1.363 . S
C1817 H1788 0.950 . S
C1817 C1816 1.397 . S
C1817 C1818 1.334 . S
C1818 H1789 0.950 . S
C1818 C1817 1.334 . S
C1818 C1819 1.287 . S
C1819 C1818 1.287 . S
C1819 C1820 1.524 . S
C1819 H1822 0.999 . S
C1820 H1790 0.950 . S
C1820 C1819 1.524 . S
C1820 C1821 1.415 . S
C1821 H1791 0.950 . S
C1821 C1816 1.363 . S
C1821 C1820 1.415 . S
H1822 C1819 0.999 . S
H1823 C1804 0.913 . S
C243 C12 0.937 . S
C258 C179 0.933 . S
C293 C18 0.987 . S
C308 C82 0.993 . S
C343 C32 0.889 . S
C358 C207 0.891 . S
C393 C110 0.994 . S
C408 C54 0.993 . S
C443 C208 0.993 . S
C458 C40 0.993 . S
C493 C109 0.891 . S
C508 C46 0.889 . S
C543 C180 0.993 . S
C558 C4 0.987 . S
C593 C81 0.934 . S
C608 C26 0.937 . S
C643 C67 0.935 . S
C658 C124 0.938 . S
C693 C95 0.890 . S
C708 C144 0.888 . S
C743 C152 0.993 . S
C758 C96 0.994 . S
C793 C68 0.992 . S
C808 C116 0.987 . S
C843 C194 0.992 . S
C858 C130 0.986 . S
C893 C166 0.992 . S
C908 C222 0.993 . S
C943 C158 0.889 . S
C958 C221 0.891 . S
C993 C138 0.937 . S
C1008 C193 0.935 . S
C1043 C159 1.222 . S
C1058 C11 1.393 . S
C1093 C117 1.343 . S
C1108 C19 1.342 1_565 S
C1143 C33 1.222 . S
C1158 C137 1.393 . S
C1193 C151 1.465 . S
C1208 C53 1.465 . S
C1243 C165 1.466 . S
C1258 C39 1.466 . S
C1293 C47 1.222 . S
C1308 C123 1.393 . S
C1343 C131 1.342 . S
C1358 C5 1.342 . S
C1393 C145 1.224 . S
C1408 C25 1.392 . S
C1443 C61 1.322 . S
C1458 C215 1.327 . S
C1493 C172 1.390 . S
C1508 C74 1.391 . S
C1543 C89 1.326 . S
C1558 C187 1.321 . S
C1593 C102 1.413 . S
C1608 C200 1.402 . S
C1643 C88 1.402 . S
C1658 C214 1.402 . S
C1693 C173 1.320 . S
C1708 C103 1.327 . S
C1743 C186 1.391 . S
C1758 C60 1.391 . S
C1793 C201 1.326 . S
C1808 C75 1.321 . S
