# Generated by pormake.
# Topology mdf, (4)-cn, num edge types: 1
# Building blocks:
#     Node 0, Type 0, BuildingBlock: QUQFOY_clean_sbu_3, # of connection points: 4
#     Node 1, Type 0, BuildingBlock: QUQFOY_clean_sbu_3, # of connection points: 4
#     Node 2, Type 0, BuildingBlock: QUQFOY_clean_sbu_3, # of connection points: 4
#     Node 3, Type 0, BuildingBlock: QUQFOY_clean_sbu_3, # of connection points: 4
#     Node 4, Type 0, BuildingBlock: QUQFOY_clean_sbu_3, # of connection points: 4
#     Node 5, Type 0, BuildingBlock: QUQFOY_clean_sbu_3, # of connection points: 4
#     Node 6, Type 0, BuildingBlock: QUQFOY_clean_sbu_3, # of connection points: 4
#     Node 7, Type 0, BuildingBlock: QUQFOY_clean_sbu_3, # of connection points: 4
#     Edge 8, Type (0, 0), BuildingBlock: MIFKUJ_clean_linker_0, # of connection points: 2
#     Edge 9, Type (0, 0), BuildingBlock: MIFKUJ_clean_linker_0, # of connection points: 2
#     Edge 10, Type (0, 0), BuildingBlock: MIFKUJ_clean_linker_0, # of connection points: 2
#     Edge 11, Type (0, 0), BuildingBlock: MIFKUJ_clean_linker_0, # of connection points: 2
#     Edge 12, Type (0, 0), BuildingBlock: MIFKUJ_clean_linker_0, # of connection points: 2
#     Edge 13, Type (0, 0), BuildingBlock: MIFKUJ_clean_linker_0, # of connection points: 2
#     Edge 14, Type (0, 0), BuildingBlock: MIFKUJ_clean_linker_0, # of connection points: 2
#     Edge 15, Type (0, 0), BuildingBlock: MIFKUJ_clean_linker_0, # of connection points: 2
#     Edge 16, Type (0, 0), BuildingBlock: MIFKUJ_clean_linker_0, # of connection points: 2
#     Edge 17, Type (0, 0), BuildingBlock: MIFKUJ_clean_linker_0, # of connection points: 2
#     Edge 18, Type (0, 0), BuildingBlock: MIFKUJ_clean_linker_0, # of connection points: 2
#     Edge 19, Type (0, 0), BuildingBlock: MIFKUJ_clean_linker_0, # of connection points: 2
#     Edge 20, Type (0, 0), BuildingBlock: MIFKUJ_clean_linker_0, # of connection points: 2
#     Edge 21, Type (0, 0), BuildingBlock: MIFKUJ_clean_linker_0, # of connection points: 2
#     Edge 22, Type (0, 0), BuildingBlock: MIFKUJ_clean_linker_0, # of connection points: 2
#     Edge 23, Type (0, 0), BuildingBlock: MIFKUJ_clean_linker_0, # of connection points: 2
# Relax obj value: 0.015
# Max RMSD: 0.038
# Mean RMSD: 0.038
data_MOF--net-mdf--node1-QUQFOY_clean_sbu_3--edge1-MIFKUJ_clean_linker_0
_symmetry_space_group_name_H-M    P1
_symmetry_Int_Tables_number       1
_symmetry_cell_setting            triclinic
loop_
_symmetry_equiv_pos_as_xyz
'x, y, z'
_cell_length_a     50.547788
_cell_length_b     50.560208
_cell_length_c     15.410326
_cell_angle_alpha  90.072089
_cell_angle_beta   90.09504
_cell_angle_gamma 92.004914
loop_
_atom_site_label
_atom_site_type_symbol
_atom_site_fract_x
_atom_site_fract_y
_atom_site_fract_z
_atom_type_partial_charge
C0 C 0.27274 0.53943 0.21452 0.0
O1 O 0.26055 0.52062 0.17501 0.0
Cd2 Cd 0.23932 0.48566 0.25623 0.0
O3 O 0.27271 0.5405 0.29708 0.0
Cd4 Cd 0.25415 0.51876 0.42764 0.0
C5 C 0.29108 0.46599 0.38784 0.0
O6 O 0.21228 0.50775 0.35871 0.0
O7 O 0.2186 0.48855 0.48161 0.0
O8 O 0.24686 0.56445 0.45956 0.0
C9 C 0.20304 0.49338 0.41943 0.0
O10 O 0.27488 0.4615 0.32562 0.0
C11 C 0.25168 0.56354 0.54017 0.0
O12 O 0.28941 0.48666 0.43479 0.0
O13 O 0.25874 0.54144 0.57027 0.0
C14 C 0.43611 0.72724 0.75934 0.0
O15 O 0.45624 0.73647 0.80014 0.0
Cd16 Cd 0.49317 0.75689 0.72824 0.0
O17 O 0.4344 0.72973 0.67721 0.0
Cd18 Cd 0.45786 0.75053 0.55172 0.0
C19 C 0.50717 0.70766 0.57793 0.0
O20 O 0.47343 0.78829 0.63559 0.0
O21 O 0.49016 0.78578 0.50791 0.0
O22 O 0.41221 0.76016 0.52127 0.0
C23 C 0.48847 0.79852 0.57842 0.0
O24 O 0.5125 0.7207 0.647 0.0
C25 C 0.41412 0.75975 0.43933 0.0
O26 O 0.48763 0.71352 0.52991 0.0
O27 O 0.43649 0.75414 0.40795 0.0
C28 C 0.19671 0.96387 0.74323 0.0
O29 O 0.2017 0.98461 0.69899 0.0
Cd30 Cd 0.22914 0.01998 0.75602 0.0
O31 O 0.20601 0.9614 0.81949 0.0
Cd32 Cd 0.23378 0.98431 0.92973 0.0
C33 C 0.19135 0.03483 0.93581 0.0
O34 O 0.26595 -0.00116 0.82096 0.0
O35 O 0.27306 0.01323 0.95107 0.0
O36 O 0.24202 0.93773 0.95298 0.0
C37 C 0.28082 0.01183 0.87312 0.0
O38 O 0.20014 0.04034 0.86035 0.0
C39 C 0.24733 0.93982 0.03311 0.0
O40 O 0.19944 0.01481 0.97721 0.0
O41 O 0.24559 0.96264 0.06695 0.0
C42 C 0.04729 0.75455 0.32478 0.0
O43 O 0.02629 0.74345 0.35454 0.0
Cd44 Cd -0.00326 0.71696 0.26594 0.0
O45 O 0.05405 0.75129 0.24603 0.0
Cd46 Cd 0.04074 0.72805 0.11164 0.0
C47 C 0.9856 0.76463 0.10886 0.0
O48 O 0.02323 0.68868 0.18199 0.0
O49 O 0.01302 0.69207 0.04697 0.0
O50 O 0.0868 0.7163 0.10199 0.0
C51 C 0.01163 0.67861 0.11634 0.0
O52 O 0.97755 0.74969 0.1707 0.0
C53 C 0.09016 0.7231 0.02346 0.0
O54 O 0.00876 0.76256 0.07699 0.0
O55 O 0.07048 0.73298 0.98519 0.0
C56 C 0.77593 0.02725 0.69315 0.0
O57 O 0.76863 0.00775 0.64588 0.0
Cd58 Cd 0.74631 0.97007 0.70977 0.0
O59 O 0.77081 0.02726 0.77401 0.0
Cd60 Cd 0.74846 0.00204 0.89091 0.0
C61 C 0.79197 0.95329 0.86785 0.0
O62 O 0.71211 0.98835 0.79589 0.0
O63 O 0.7123 0.96977 0.92175 0.0
O64 O 0.73995 0.04785 0.92459 0.0
C65 C 0.70062 0.973 0.84991 0.0
O66 O 0.77977 0.94842 0.79685 0.0
C67 C 0.73752 0.0448 0.00578 0.0
O68 O 0.78583 0.97287 0.91519 0.0
O69 O 0.74091 0.02171 0.03548 0.0
C70 C 0.92924 0.24421 0.35156 0.0
O71 O 0.94681 0.25385 0.4026 0.0
Cd72 Cd 0.98655 0.27426 0.34605 0.0
O73 O 0.93123 0.24761 0.26995 0.0
Cd74 Cd 0.95826 0.27077 0.15898 0.0
C75 C 0.00472 0.22592 0.19877 0.0
O76 O 0.97384 0.30782 0.24685 0.0
O77 O -0.00492 0.30171 0.12719 0.0
O78 O 0.91866 0.29156 0.1115 0.0
C79 C 0.99158 0.31582 0.1941 0.0
O80 O 0.00807 0.23805 0.27076 0.0
C81 C 0.91923 0.28376 0.03334 0.0
O82 O 0.98722 0.23306 0.14467 0.0
O83 O 0.9382 0.26919 0.01199 0.0
C84 C 0.71729 0.4476 0.16527 0.0
O85 O 0.72604 0.46649 0.11801 0.0
Cd86 Cd 0.74764 0.50471 0.18007 0.0
O87 O 0.72173 0.44756 0.24665 0.0
Cd88 Cd 0.74675 0.47273 0.35956 0.0
C89 C 0.70218 0.52066 0.33939 0.0
O90 O 0.78264 0.48756 0.26528 0.0
O91 O 0.78182 0.50629 0.39108 0.0
O92 O 0.76178 0.42888 0.39072 0.0
C93 C 0.79371 0.50318 0.31958 0.0
O94 O 0.71322 0.52518 0.26636 0.0
C95 C 0.75978 0.43027 0.47254 0.0
O96 O 0.70985 0.50203 0.38813 0.0
O97 O 0.75103 0.45162 0.50347 0.0
C98 C 0.5468 0.25169 0.76215 0.0
O99 O 0.52697 0.24234 0.80401 0.0
Cd100 Cd 0.49155 0.21757 0.73512 0.0
O101 O 0.54914 0.2473 0.68112 0.0
Cd102 Cd 0.52846 0.22356 0.55705 0.0
C103 C 0.4761 0.26344 0.57526 0.0
O104 O 0.51371 0.18714 0.6462 0.0
O105 O 0.49904 0.18547 0.51537 0.0
O106 O 0.57466 0.21521 0.5313 0.0
C107 C 0.49987 0.17486 0.58978 0.0
O108 O 0.47044 0.25037 0.64389 0.0
C109 C 0.57336 0.2157 0.44916 0.0
O110 O 0.49702 0.259 0.532 0.0
O111 O 0.55106 0.22072 0.41579 0.0
H112 H 0.39087 0.70328 0.69379 0.0
H113 H 0.35822 0.67575 0.77242 0.0
H114 H 0.4003 0.69145 0.01179 0.0
H115 H 0.43311 0.71873 0.934 0.0
H116 H 0.39359 0.63969 0.9816 0.0
H117 H 0.33865 0.71477 0.98659 0.0
H118 H 0.31462 0.75242 0.92789 0.0
H119 H 0.26911 0.69969 0.76256 0.0
H120 H 0.29286 0.66165 0.82044 0.0
H121 H 0.30649 0.57793 0.27796 0.0
H122 H 0.32991 0.6129 0.19718 0.0
H123 H 0.29359 0.58478 0.95946 0.0
H124 H 0.26999 0.54939 0.03986 0.0
H125 H 0.29557 0.64276 0.98507 0.0
H126 H 0.35164 0.56732 0.9886 0.0
H127 H 0.37509 0.53096 0.05792 0.0
H128 H 0.41919 0.58697 0.21592 0.0
H129 H 0.39566 0.62366 0.14849 0.0
C130 C 0.39299 0.70116 0.76336 0.0
C131 C 0.41482 0.71287 0.80745 0.0
C132 C 0.37418 0.68561 0.80825 0.0
C133 C 0.37686 0.68162 0.89785 0.0
C134 C 0.39793 0.69428 0.94255 0.0
C135 C 0.41671 0.7098 0.89788 0.0
C136 C 0.35978 0.66176 0.94311 0.0
C137 C 0.37218 0.64062 0.98336 0.0
C138 C 0.33183 0.66261 0.94322 0.0
C139 C 0.31777 0.68541 0.90709 0.0
C140 C 0.32369 0.71122 0.93712 0.0
C141 C 0.31004 0.73262 0.90426 0.0
C142 C 0.29042 0.72845 0.84129 0.0
C143 C 0.28435 0.70286 0.81125 0.0
C144 C 0.29783 0.68137 0.84427 0.0
C145 C 0.30335 0.57916 0.20855 0.0
C146 C 0.28658 0.56073 0.16513 0.0
C147 C 0.3167 0.5992 0.16265 0.0
C148 C 0.31347 0.60126 0.07262 0.0
C149 C 0.29621 0.58344 0.02909 0.0
C150 C 0.28297 0.56316 0.07496 0.0
C151 C 0.32954 0.62107 0.02399 0.0
C152 C 0.31698 0.64198 0.98291 0.0
C153 C 0.35744 0.62025 0.0237 0.0
C154 C 0.37169 0.59821 0.06409 0.0
C155 C 0.36615 0.57187 0.03868 0.0
C156 C 0.37949 0.5512 0.07754 0.0
C157 C 0.39856 0.55665 0.14146 0.0
C158 C 0.40438 0.58278 0.1665 0.0
C159 C 0.39106 0.60352 0.12795 0.0
H160 H 0.40887 0.54062 0.17143 0.0
H161 H 0.27982 0.74501 0.81606 0.0
H162 H 0.41707 0.78313 0.28014 0.0
H163 H 0.38199 0.80684 0.2075 0.0
H164 H 0.32615 0.77927 0.40175 0.0
H165 H 0.36153 0.75675 0.47702 0.0
H166 H 0.33601 0.79986 0.13482 0.0
H167 H 0.28478 0.82741 0.45336 0.0
H168 H 0.29441 0.8309 0.61019 0.0
H169 H 0.3767 0.84662 0.55495 0.0
H170 H 0.36749 0.84352 0.39789 0.0
H171 H 0.23622 0.88727 0.00595 0.0
H172 H 0.25729 0.84986 0.07528 0.0
H173 H 0.30444 0.9044 0.23261 0.0
H174 H 0.28199 0.9415 0.168 0.0
H175 H 0.29374 0.8654 0.32482 0.0
H176 H 0.32569 0.87247 0.02668 0.0
H177 H 0.32103 0.87228 0.86719 0.0
H178 H 0.2854 0.79398 0.87655 0.0
H179 H 0.28976 0.79375 0.03606 0.0
C180 C 0.39718 0.78167 0.30619 0.0
C181 C 0.39206 0.7685 0.38484 0.0
C182 C 0.37711 0.79522 0.26464 0.0
C183 C 0.35156 0.79547 0.30047 0.0
C184 C 0.34587 0.78003 0.37426 0.0
C185 C 0.36605 0.76704 0.41693 0.0
C186 C 0.33191 0.81399 0.26582 0.0
C187 C 0.32663 0.8141 0.17639 0.0
C188 C 0.31973 0.83271 0.31984 0.0
C189 C 0.32548 0.8349 0.41405 0.0
C190 C 0.30491 0.83167 0.47478 0.0
C191 C 0.31029 0.83357 0.56366 0.0
C192 C 0.33616 0.83888 0.59252 0.0
C193 C 0.35668 0.84241 0.53253 0.0
C194 C 0.3514 0.84057 0.44359 0.0
C195 C 0.25076 0.89113 0.05654 0.0
C196 C 0.25756 0.91722 0.08166 0.0
C197 C 0.26302 0.86977 0.09548 0.0
C198 C 0.28307 0.87419 0.15766 0.0
C199 C 0.28909 0.90031 0.18483 0.0
C200 C 0.27625 0.92157 0.14791 0.0
C201 C 0.29853 0.85205 0.19303 0.0
C202 C 0.30283 0.85103 0.28301 0.0
C203 C 0.31044 0.83306 0.13907 0.0
C204 C 0.30777 0.83323 0.04327 0.0
C205 C 0.31673 0.85528 0.99468 0.0
C206 C 0.31419 0.85522 0.9043 0.0
C207 C 0.30288 0.83315 0.86177 0.0
C208 C 0.29415 0.81106 0.90954 0.0
C209 C 0.29667 0.811 -9e-05 0.0
H210 H 0.30094 0.83315 0.79181 0.0
H211 H 0.34029 0.84031 0.66135 0.0
H212 H 0.03196 0.77957 0.47271 0.0
H213 H 0.0566 0.81447 0.55168 0.0
H214 H 0.12338 0.80528 0.38142 0.0
H215 H 0.09856 0.77111 0.30043 0.0
H216 H 0.10052 0.81953 0.64104 0.0
H217 H 0.15186 0.86407 0.33443 0.0
H218 H 0.14344 0.86762 0.1771 0.0
H219 H 0.05973 0.85974 0.22201 0.0
H220 H 0.06761 0.8565 0.37953 0.0
H221 H 0.20113 0.9113 0.77268 0.0
H222 H 0.17492 0.87489 0.708 0.0
H223 H 0.12835 0.93107 0.56894 0.0
H224 H 0.15582 0.96745 0.62916 0.0
H225 H 0.1377 0.89442 0.46685 0.0
H226 H 0.10607 0.89472 0.75952 0.0
H227 H 0.10946 0.89392 0.91922 0.0
H228 H 0.14413 0.81767 0.90789 0.0
H229 H 0.14127 0.81816 0.7481 0.0
C230 C 0.05201 0.7848 0.45279 0.0
C231 C 0.06323 0.77291 0.37972 0.0
C232 C 0.06606 0.80471 0.49799 0.0
C233 C 0.09158 0.81284 0.47119 0.0
C234 C 0.10344 0.79976 0.40177 0.0
C235 C 0.08928 0.78018 0.35578 0.0
C236 C 0.10534 0.83586 0.51283 0.0
C237 C 0.10865 0.83596 0.60319 0.0
C238 C 0.1153 0.85757 0.46344 0.0
C239 C 0.11037 0.85979 0.36872 0.0
C240 C 0.13166 0.8632 0.31073 0.0
C241 C 0.12698 0.86514 0.22152 0.0
C242 C 0.10107 0.86383 0.18959 0.0
C243 C 0.07979 0.86066 0.2468 0.0
C244 C 0.08435 0.85874 0.33603 0.0
C245 C 0.18524 0.91581 0.72839 0.0
C246 C 0.18039 0.94209 0.70581 0.0
C247 C 0.17013 0.89501 0.692 0.0
C248 C 0.14925 0.90019 0.63491 0.0
C249 C 0.14434 0.92654 0.6128 0.0
C250 C 0.15997 0.94731 0.64722 0.0
C251 C 0.1332 0.87816 0.59555 0.0
C252 C 0.12951 0.87814 0.50523 0.0
C253 C 0.12211 0.85701 0.6455 0.0
C254 C 0.12366 0.85659 0.74173 0.0
C255 C 0.11456 0.87786 0.79105 0.0
C256 C 0.11637 0.87745 0.8816 0.0
C257 C 0.12708 0.8558 0.92363 0.0
C258 C 0.13588 0.83445 0.87524 0.0
C259 C 0.13414 0.83477 0.78469 0.0
H260 H 0.12854 0.85554 0.99369 0.0
H261 H 0.09747 0.86535 0.12057 0.0
H262 H 0.13379 0.69981 0.08913 0.0
H263 H 0.17074 0.68247 0.00798 0.0
H264 H 0.14004 0.71587 0.77242 0.0
H265 H 0.10262 0.73286 0.8532 0.0
H266 H 0.14487 0.66571 0.75344 0.0
H267 H 0.20184 0.73473 0.85533 0.0
H268 H 0.22625 0.76578 0.95226 0.0
H269 H 0.26275 0.70078 0.07868 0.0
H270 H 0.23821 0.66926 0.98373 0.0
H271 H 0.24038 0.61313 0.48761 0.0
H272 H 0.22195 0.64816 0.57505 0.0
H273 H 0.23185 0.60149 0.80601 0.0
H274 H 0.25029 0.56594 0.71843 0.0
H275 H 0.24047 0.66106 0.8223 0.0
H276 H 0.17707 0.5931 0.7235 0.0
H277 H 0.15632 0.56429 0.61148 0.0
H278 H 0.13472 0.63264 0.46593 0.0
H279 H 0.15577 0.66185 0.57651 0.0
C280 C 0.13519 0.70401 0.02036 0.0
C281 C 0.11499 0.7173 0.97726 0.0
C282 C 0.15654 0.69427 0.9741 0.0
C283 C 0.15822 0.69778 0.88394 0.0
C284 C 0.13913 0.71282 0.84195 0.0
C285 C 0.1177 0.7225 0.88815 0.0
C286 C 0.17685 0.68198 0.83227 0.0
C287 C 0.1659 0.66534 0.76752 0.0
C288 C 0.20424 0.68078 0.8518 0.0
C289 C 0.21778 0.69955 0.91306 0.0
C290 C 0.21465 0.72698 0.90489 0.0
C291 C 0.22862 0.74469 0.95929 0.0
C292 C 0.2459 0.73525 0.02197 0.0
C293 C 0.24922 0.70807 0.03049 0.0
C294 C 0.23526 0.69026 0.9764 0.0
C295 C 0.23926 0.61048 0.55726 0.0
C296 C 0.24632 0.58655 0.596 0.0
C297 C 0.22881 0.63059 0.6071 0.0
C298 C 0.22525 0.62719 0.69655 0.0
C299 C 0.23447 0.60439 0.73688 0.0
C300 C 0.24491 0.5841 0.68679 0.0
C301 C 0.20835 0.6455 0.74439 0.0
C302 C 0.21953 0.66215 0.80831 0.0
C303 C 0.18124 0.64717 0.72357 0.0
C304 C 0.16824 0.62964 0.65774 0.0
C305 C 0.1681 0.60197 0.66724 0.0
C306 C 0.15625 0.58558 0.60408 0.0
C307 C 0.14428 0.59663 0.5315 0.0
C308 C 0.14405 0.62411 0.5221 0.0
C309 C 0.15592 0.64059 0.585 0.0
H310 H 0.13512 0.5839 0.48267 0.0
H311 H 0.25685 0.74901 0.06355 0.0
H312 H 0.79533 0.07132 0.77713 0.0
H313 H 0.81692 0.11049 0.71383 0.0
H314 H 0.80842 0.07605 0.45849 0.0
H315 H 0.78728 0.03635 0.52165 0.0
H316 H 0.85567 0.09707 0.47662 0.0
H317 H 0.76908 0.12724 0.52704 0.0
H318 H 0.72827 0.13487 0.60939 0.0
H319 H 0.7724 0.18409 0.78955 0.0
H320 H 0.81351 0.1764 0.70858 0.0
H321 H 0.8936 0.21393 0.25869 0.0
H322 H 0.86264 0.18004 0.31439 0.0
H323 H 0.8847 0.20104 0.5766 0.0
H324 H 0.91598 0.2351 0.52161 0.0
H325 H 0.82819 0.18792 0.54745 0.0
H326 H 0.91555 0.15409 0.49572 0.0
H327 H 0.95491 0.14669 0.40573 0.0
H328 H 0.90659 0.10441 0.21869 0.0
H329 H 0.86685 0.11195 0.30701 0.0
C330 C 0.79802 0.07201 0.70744 0.0
C331 C 0.78952 0.05071 0.65436 0.0
C332 C 0.81016 0.09456 0.67128 0.0
C333 C 0.81374 0.09645 0.58126 0.0
C334 C 0.80563 0.07509 0.5281 0.0
C335 C 0.79362 0.0524 0.56431 0.0
C336 C 0.82704 0.12028 0.54335 0.0
C337 C 0.84931 0.11688 0.49092 0.0
C338 C 0.81902 0.14619 0.56313 0.0
C339 C 0.79438 0.151 0.61211 0.0
C340 C 0.77007 0.13949 0.58456 0.0
C341 C 0.74689 0.14387 0.63093 0.0
C342 C 0.74775 0.1599 0.70486 0.0
C343 C 0.77177 0.17165 0.73233 0.0
C344 C 0.79502 0.16731 0.68611 0.0
C345 C 0.89157 0.21175 0.3283 0.0
C346 C 0.90758 0.22689 0.3858 0.0
C347 C 0.87385 0.19238 0.35987 0.0
C348 C 0.87174 0.18793 0.44931 0.0
C349 C 0.8862 0.20424 0.50725 0.0
C350 C 0.90413 0.22355 0.47571 0.0
C351 C 0.85667 0.16449 0.48157 0.0
C352 C 0.83423 0.16802 0.5329 0.0
C353 C 0.86428 0.13866 0.46002 0.0
C354 C 0.88821 0.13383 0.40747 0.0
C355 C 0.91329 0.14341 0.43505 0.0
C356 C 0.93567 0.13916 0.38442 0.0
C357 C 0.93324 0.12515 0.30642 0.0
C358 C 0.90843 0.11529 0.27905 0.0
C359 C 0.88598 0.11954 0.32938 0.0
H360 H 0.95059 0.12189 0.26729 0.0
H361 H 0.72979 0.16328 0.74076 0.0
H362 H 0.90797 0.26376 0.87071 0.0
H363 H 0.87485 0.2794 0.76781 0.0
H364 H 0.85296 0.33937 0.95134 0.0
H365 H 0.88485 0.32316 0.05483 0.0
H366 H 0.81043 0.31994 0.8781 0.0
H367 H 0.89814 0.35039 0.76851 0.0
H368 H 0.94291 0.34237 0.71266 0.0
H369 H 0.90948 0.29382 0.50852 0.0
H370 H 0.86454 0.30149 0.56353 0.0
H371 H 0.76621 0.4303 0.64909 0.0
H372 H 0.78715 0.39663 0.73686 0.0
H373 H 0.79522 0.34764 0.50958 0.0
H374 H 0.77481 0.38143 0.42127 0.0
H375 H 0.84041 0.35193 0.58931 0.0
H376 H 0.75345 0.3268 0.6788 0.0
H377 H 0.70787 0.33221 0.73128 0.0
H378 H 0.73804 0.36785 0.96614 0.0
H379 H 0.78373 0.36245 0.9154 0.0
C380 C 0.89594 0.28017 0.88898 0.0
C381 C 0.89909 0.29231 0.97062 0.0
C382 C 0.87709 0.28916 0.8301 0.0
C383 C 0.86161 0.31086 0.85123 0.0
C384 C 0.86453 0.32258 0.93341 0.0
C385 C 0.88291 0.31334 0.99251 0.0
C386 C 0.843 0.32238 0.78796 0.0
C387 C 0.81702 0.32702 0.81503 0.0
C388 C 0.85109 0.33058 0.70397 0.0
C389 C 0.87806 0.32631 0.67054 0.0
C390 C 0.90038 0.33795 0.71189 0.0
C391 C 0.92577 0.33348 0.68036 0.0
C392 C 0.92904 0.31756 0.60719 0.0
C393 C 0.90692 0.30614 0.56519 0.0
C394 C 0.8815 0.31057 0.59644 0.0
C395 C 0.77201 0.41216 0.61814 0.0
C396 C 0.76903 0.40862 0.52821 0.0
C397 C 0.78386 0.39282 0.66844 0.0
C398 C 0.79265 0.36947 0.62994 0.0
C399 C 0.78866 0.36547 0.54073 0.0
C400 C 0.77696 0.38483 0.49038 0.0
C401 C 0.80824 0.3506 0.6812 0.0
C402 C 0.83359 0.34447 0.65167 0.0
C403 C 0.79947 0.34079 0.76244 0.0
C404 C 0.77201 0.34427 0.79318 0.0
C405 C 0.75034 0.33587 0.74152 0.0
C406 C 0.72448 0.33883 0.77111 0.0
C407 C 0.72003 0.35021 0.85218 0.0
C408 C 0.74145 0.3588 0.90368 0.0
C409 C 0.76735 0.3557 0.8747 0.0
H410 H 0.69999 0.35231 0.87501 0.0
H411 H 0.94871 0.3141 0.58296 0.0
H412 H 0.68506 0.41097 0.24657 0.0
H413 H 0.6589 0.37489 0.17997 0.0
H414 H 0.68983 0.39718 0.92835 0.0
H415 H 0.71524 0.43378 0.99423 0.0
H416 H 0.6412 0.3887 0.91271 0.0
H417 H 0.70848 0.33889 0.05056 0.0
H418 H 0.73659 0.32319 0.16938 0.0
H419 H 0.66751 0.29424 0.30596 0.0
H420 H 0.639 0.31025 0.18852 0.0
H421 H 0.59074 0.27599 0.69125 0.0
H422 H 0.62256 0.30621 0.76257 0.0
H423 H 0.58097 0.29567 0.00491 0.0
H424 H 0.54903 0.26516 0.93435 0.0
H425 H 0.6358 0.29664 0.02366 0.0
H426 H 0.56912 0.34831 0.88494 0.0
H427 H 0.54199 0.36235 0.7612 0.0
H428 H 0.61235 0.386 0.62161 0.0
H429 H 0.63992 0.37174 0.74414 0.0
C430 C 0.68642 0.40802 0.1771 0.0
C431 C 0.70215 0.42523 0.12554 0.0
C432 C 0.67163 0.38722 0.13915 0.0
C433 C 0.6728 0.38284 0.04924 0.0
C434 C 0.68871 0.39994 0.99792 0.0
C435 C 0.70318 0.42095 0.03561 0.0
C436 C 0.65613 0.36163 0.0077 0.0
C437 C 0.6405 0.36847 0.93628 0.0
C438 C 0.65455 0.33531 0.03954 0.0
C439 C 0.67162 0.3261 0.11111 0.0
C440 C 0.69929 0.32949 0.10635 0.0
C441 C 0.71529 0.32047 0.17341 0.0
C442 C 0.70384 0.30781 0.24537 0.0
C443 C 0.67636 0.30413 0.25033 0.0
C444 C 0.66028 0.31319 0.18354 0.0
C445 C 0.5884 0.27991 0.75988 0.0
C446 C 0.56712 0.26845 0.8069 0.0
C447 C 0.60662 0.2972 0.80043 0.0
C448 C 0.60381 0.30343 0.8885 0.0
C449 C 0.58334 0.29115 0.93668 0.0
C450 C 0.56506 0.27384 0.89615 0.0
C451 C 0.62138 0.32384 0.92912 0.0
C452 C 0.63693 0.31686 0.00025 0.0
C453 C 0.62315 0.34997 0.89672 0.0
C454 C 0.60657 0.35873 0.82334 0.0
C455 C 0.5788 0.35632 0.8276 0.0
C456 C 0.56335 0.36435 0.75773 0.0
C457 C 0.57544 0.375 0.68351 0.0
C458 C 0.60302 0.37771 0.6791 0.0
C459 C 0.61856 0.36969 0.74875 0.0
H460 H 0.56345 0.3812 0.62948 0.0
H461 H 0.71626 0.30079 0.29714 0.0
H462 H 0.74775 0.09747 0.98203 0.0
H463 H 0.72918 0.13414 0.06267 0.0
H464 H 0.68684 0.07808 0.22737 0.0
H465 H 0.70696 0.04162 0.15081 0.0
H466 H 0.68423 0.15014 0.07304 0.0
H467 H 0.66967 0.10255 0.41954 0.0
H468 H 0.69403 0.07391 0.51872 0.0
H469 H 0.76668 0.09435 0.38723 0.0
H470 H 0.74299 0.12382 0.28917 0.0
H471 H 0.57263 0.19539 0.28516 0.0
H472 H 0.60902 0.17471 0.21025 0.0
H473 H 0.66221 0.19843 0.41802 0.0
H474 H 0.62543 0.2179 0.49519 0.0
H475 H 0.66937 0.15114 0.39083 0.0
H476 H 0.66914 0.22327 0.20297 0.0
H477 H 0.65173 0.25796 0.10896 0.0
H478 H 0.62131 0.1988 0.9315 0.0
H479 H 0.63831 0.16364 0.02505 0.0
C480 C 0.73499 0.0931 0.03697 0.0
C481 C 0.72894 0.06677 0.06084 0.0
C482 C 0.72421 0.11405 0.08267 0.0
C483 C 0.70668 0.10909 0.15192 0.0
C484 C 0.70089 0.08266 0.17614 0.0
C485 C 0.7123 0.06175 0.1321 0.0
C486 C 0.69299 0.13126 0.19486 0.0
C487 C 0.68122 0.15045 0.14266 0.0
C488 C 0.6899 0.13262 0.28616 0.0
C489 C 0.70444 0.11526 0.34626 0.0
C490 C 0.69088 0.10114 0.41216 0.0
C491 C 0.70459 0.08476 0.46829 0.0
C492 C 0.73186 0.08224 0.45913 0.0
C493 C 0.74553 0.09621 0.39407 0.0
C494 C 0.73198 0.11284 0.33836 0.0
C495 C 0.59221 0.19672 0.31383 0.0
C496 C 0.59618 0.20807 0.39617 0.0
C497 C 0.61311 0.18499 0.27074 0.0
C498 C 0.63854 0.18502 0.30811 0.0
C499 C 0.64281 0.1979 0.38799 0.0
C500 C 0.62179 0.20913 0.4319 0.0
C501 C 0.65967 0.1691 0.26859 0.0
C502 C 0.67283 0.15112 0.32141 0.0
C503 C 0.66517 0.16977 0.1786 0.0
C504 C 0.65489 0.19076 0.12146 0.0
C505 C 0.65859 0.21761 0.1442 0.0
C506 C 0.64881 0.23738 0.09089 0.0
C507 C 0.63535 0.23061 0.01434 0.0
C508 C 0.63174 0.20402 0.99083 0.0
C509 C 0.64151 0.18415 0.0439 0.0
H510 H 0.62776 0.24595 0.97318 0.0
H511 H 0.74238 0.06951 0.5026 0.0
H512 H 0.29461 0.4163 0.32075 0.0
H513 H 0.32818 0.38407 0.34983 0.0
H514 H 0.36902 0.43983 0.51971 0.0
H515 H 0.33487 0.47205 0.49294 0.0
H516 H 0.37845 0.38206 0.32108 0.0
H517 H 0.39958 0.40665 0.68096 0.0
H518 H 0.3771 0.4254 0.80789 0.0
H519 H 0.30164 0.39979 0.70358 0.0
H520 H 0.32369 0.38063 0.57665 0.0
H521 H 0.48667 0.30505 0.46443 0.0
H522 H 0.45767 0.34144 0.42945 0.0
H523 H 0.39625 0.30567 0.58936 0.0
H524 H 0.42524 0.26993 0.62647 0.0
H525 H 0.39942 0.35553 0.62246 0.0
H526 H 0.39518 0.30328 0.36117 0.0
H527 H 0.41314 0.28044 0.2338 0.0
H528 H 0.44696 0.35407 0.14011 0.0
H529 H 0.42945 0.37729 0.26756 0.0
C530 C 0.31071 0.42178 0.36438 0.0
C531 C 0.31193 0.44674 0.40498 0.0
C532 C 0.32999 0.40332 0.38062 0.0
C533 C 0.35107 0.40937 0.43746 0.0
C534 C 0.35272 0.4345 0.47671 0.0
C535 C 0.33321 0.45293 0.46125 0.0
C536 C 0.3708 0.38901 0.45663 0.0
C537 C 0.38314 0.37636 0.38704 0.0
C538 C 0.37674 0.38127 0.54254 0.0
C539 C 0.36328 0.39251 0.6189 0.0
C540 C 0.3782 0.40498 0.68528 0.0
C541 C 0.36553 0.41568 0.75719 0.0
C542 C 0.33796 0.41388 0.76362 0.0
C543 C 0.32299 0.40127 0.69834 0.0
C544 C 0.33556 0.39052 0.62636 0.0
C545 C 0.46691 0.30489 0.49156 0.0
C546 C 0.45828 0.28462 0.54833 0.0
C547 C 0.45033 0.32568 0.47146 0.0
C548 C 0.42468 0.3263 0.50651 0.0
C549 C 0.41599 0.30581 0.56202 0.0
C550 C 0.43259 0.28529 0.58291 0.0
C551 C 0.40681 0.3483 0.4869 0.0
C552 C 0.39495 0.36138 0.55648 0.0
C553 C 0.40072 0.35587 0.40094 0.0
C554 C 0.41127 0.34196 0.32436 0.0
C555 C 0.40662 0.31456 0.31374 0.0
C556 C 0.41669 0.30155 0.24148 0.0
C557 C 0.43126 0.31578 0.17904 0.0
C558 C 0.43572 0.34306 0.18861 0.0
C559 C 0.42572 0.35616 0.26081 0.0
H560 H 0.43903 0.30568 0.12313 0.0
H561 H 0.32819 0.42218 0.81931 0.0
H562 H 0.66995 0.97873 0.70591 0.0
H563 H 0.63083 0.95198 0.66331 0.0
H564 H 0.63707 0.90605 0.89771 0.0
H565 H 0.67624 0.93276 0.941 0.0
H566 H 0.63161 0.87516 0.75136 0.0
H567 H 0.58929 0.94862 0.88197 0.0
H568 H 0.58014 -0.00433 0.9053 0.0
H569 H 0.55452 0.00233 0.64067 0.0
H570 H 0.56388 0.95538 0.61539 0.0
H571 H 0.48645 0.8314 0.71815 0.0
H572 H 0.51995 0.86468 0.7638 0.0
H573 H 0.56554 0.84915 0.53414 0.0
H574 H 0.53204 0.81596 0.48757 0.0
H575 H 0.54356 0.91095 0.6861 0.0
H576 H 0.62984 0.84355 0.60773 0.0
H577 H 0.63802 0.79598 0.59077 0.0
H578 H 0.57437 0.77671 0.76637 0.0
H579 H 0.56612 0.82414 0.78545 0.0
C580 C 0.66289 0.96307 0.74868 0.0
C581 C 0.67619 0.95778 0.82662 0.0
C582 C 0.64049 0.94788 0.72443 0.0
C583 C 0.63105 0.92715 0.7776 0.0
C584 C 0.6441 0.922 0.8559 0.0
C585 C 0.66639 0.9373 0.88053 0.0
C586 C 0.60831 0.91004 0.74948 0.0
C587 C 0.61237 0.883 0.73719 0.0
C588 C 0.58319 0.9203 0.73156 0.0
C589 C 0.57753 0.94853 0.74658 0.0
C590 C 0.58193 0.96017 0.82853 0.0
C591 C 0.57666 0.98681 0.84215 0.0
C592 C 0.56682 0.002 0.77445 0.0
C593 C 0.56217 0.99055 0.69303 0.0
C594 C 0.56743 0.96391 0.67904 0.0
C595 C 0.50341 0.83538 0.67668 0.0
C596 C 0.5068 0.82092 0.59976 0.0
C597 C 0.52242 0.85446 0.70266 0.0
C598 C 0.54524 0.8591 0.65268 0.0
C599 C 0.54808 0.84566 0.57372 0.0
C600 C 0.52894 0.82675 0.54723 0.0
C601 C 0.56709 0.87628 0.68679 0.0
C602 C 0.56286 0.90323 0.70011 0.0
C603 C 0.59202 0.86594 0.70661 0.0
C604 C 0.59719 0.83738 0.69719 0.0
C605 C 0.61768 0.82915 0.64299 0.0
C606 C 0.62232 0.80222 0.633 0.0
C607 C 0.60667 0.78333 0.67722 0.0
C608 C 0.58642 0.79135 0.73189 0.0
C609 C 0.58174 0.81825 0.74225 0.0
H610 H 0.61026 0.76249 0.66928 0.0
H611 H 0.56274 0.02262 0.78513 0.0
H612 H 0.03376 0.19719 0.3118 0.0
H613 H 0.06308 0.16126 0.2785 0.0
H614 H 0.04412 0.1682 0.0065 0.0
H615 H 0.01391 0.2036 0.03992 0.0
H616 H 0.04673 0.11835 0.04624 0.0
H617 H 0.10282 0.19546 0.09902 0.0
H618 H 0.12055 0.23392 0.18187 0.0
H619 H 0.14434 0.18253 0.38722 0.0
H620 H 0.12643 0.14377 0.30601 0.0
H621 H 0.16024 0.06855 0.84836 0.0
H622 H 0.12646 0.09677 0.90644 0.0
H623 H 0.14167 0.06801 0.16438 0.0
H624 H 0.17565 0.03914 0.10626 0.0
H625 H 0.14011 0.12522 0.14616 0.0
H626 H 0.08756 0.04732 0.07841 0.0
H627 H 0.07155 0.01017 0.98634 0.0
H628 H 0.04285 0.06492 0.79847 0.0
H629 H 0.05905 0.10242 0.8888 0.0
C630 C 0.03576 0.19104 0.24485 0.0
C631 C 0.02168 0.20343 0.17834 0.0
C632 C 0.05263 0.17052 0.22588 0.0
C633 C 0.05628 0.16233 0.13977 0.0
C634 C 0.04171 0.17421 0.07346 0.0
C635 C 0.02449 0.19449 0.09257 0.0
C636 C 0.07561 0.14177 0.11853 0.0
C637 C 0.06718 0.12001 0.0676 0.0
C638 C 0.10221 0.1435 0.14802 0.0
C639 C 0.11301 0.16676 0.1969 0.0
C640 C 0.11165 0.19239 0.16215 0.0
C641 C 0.12176 0.21423 0.20875 0.0
C642 C 0.13349 0.21068 0.28988 0.0
C643 C 0.1352 0.18526 0.32446 0.0
C644 C 0.12509 0.16334 0.27815 0.0
C645 C 0.15648 0.06811 0.91753 0.0
C646 C 0.17071 0.05161 0.97279 0.0
C647 C 0.13703 0.08418 0.95048 0.0
C648 C 0.13146 0.08431 0.03947 0.0
C649 C 0.14567 0.06806 0.09534 0.0
C650 C 0.16498 0.05158 0.0621 0.0
C651 C 0.11124 0.10217 0.07315 0.0
C652 C 0.11954 0.12344 0.12609 0.0
C653 C 0.08465 0.10021 0.04444 0.0
C654 C 0.0747 0.07769 0.99017 0.0
C655 C 0.07802 0.05145 0.01715 0.0
C656 C 0.06887 0.03032 0.96532 0.0
C657 C 0.05623 0.03518 0.88653 0.0
C658 C 0.05266 0.06119 0.8595 0.0
C659 C 0.06179 0.08239 0.91106 0.0
H660 H 0.04917 0.0188 0.84649 0.0
H661 H 0.14131 0.22761 0.32586 0.0
H662 H 0.0066 0.64487 0.25354 0.0
H663 H 0.97176 0.61085 0.27715 0.0
H664 H 0.93875 0.6274 0.02555 0.0
H665 H 0.97364 0.66136 0.00108 0.0
H666 H 0.90221 0.62944 0.15925 0.0
H667 H 0.96724 0.5708 0.05351 0.0
H668 H 0.01093 0.55069 0.04712 0.0
H669 H 0.00189 0.52372 0.30984 0.0
H670 H 0.95829 0.54401 0.31827 0.0
H671 H 0.8264 0.49539 0.18222 0.0
H672 H 0.86575 0.52197 0.14092 0.0
H673 H 0.85555 0.57205 0.36428 0.0
H674 H 0.81625 0.54542 0.40659 0.0
H675 H 0.91357 0.53487 0.23149 0.0
H676 H 0.8676 0.63593 0.29058 0.0
H677 H 0.82356 0.6555 0.29308 0.0
H678 H 0.79437 0.59679 0.11197 0.0
H679 H 0.83831 0.57713 0.10743 0.0
C680 C 0.99217 0.64097 0.20265 0.0
C681 C 0.99274 0.65587 0.12567 0.0
C682 C 0.97235 0.62149 0.21615 0.0
C683 C 0.95274 0.61667 0.15307 0.0
C684 C 0.95375 0.63089 0.07495 0.0
C685 C 0.97373 0.6502 0.06101 0.0
C686 C 0.93003 0.59833 0.17167 0.0
C687 C 0.90469 0.60874 0.17469 0.0
C688 C 0.93334 0.57134 0.19155 0.0
C689 C 0.95958 0.55914 0.18674 0.0
C690 C 0.97466 0.56079 0.1102 0.0
C691 C -0.0006 0.54931 0.10615 0.0
C692 C 0.00921 0.53598 0.17809 0.0
C693 C 0.99428 0.53407 0.25419 0.0
C694 C 0.96954 0.54553 0.2586 0.0
C695 C 0.83263 0.51197 0.22287 0.0
C696 C 0.81817 0.51846 0.29735 0.0
C697 C 0.85516 0.52701 0.1994 0.0
C698 C 0.86338 0.54899 0.2493 0.0
C699 C 0.84936 0.5552 0.32475 0.0
C700 C 0.82697 0.53999 0.34881 0.0
C701 C 0.88592 0.56614 0.22031 0.0
C702 C 0.91117 0.55555 0.21572 0.0
C703 C 0.88256 0.59296 0.19846 0.0
C704 C 0.85618 0.60492 0.19941 0.0
C705 C 0.85181 0.62728 0.25103 0.0
C706 C 0.82686 0.63837 0.25284 0.0
C707 C 0.80616 0.62734 0.20294 0.0
C708 C 0.81039 0.60525 0.15085 0.0
C709 C 0.8353 0.59411 0.14873 0.0
H710 H 0.78685 0.63594 0.20451 0.0
H711 H 0.02835 0.5271 0.17481 0.0
H712 H 0.2985 0.01784 0.7068 0.0
H713 H 0.33851 0.04186 0.65794 0.0
H714 H 0.35903 0.06029 0.92372 0.0
H715 H 0.31868 0.03687 0.97288 0.0
H716 H 0.36429 0.10275 0.82763 0.0
H717 H 0.39225 0.0136 0.80437 0.0
H718 H 0.38963 0.96686 0.75836 0.0
H719 H 0.39185 0.99072 0.49109 0.0
H720 H 0.39412 0.03764 0.53548 0.0
H721 H 0.49282 0.15356 0.7506 0.0
H722 H 0.45831 0.12159 0.79618 0.0
H723 H 0.43055 0.11465 0.53209 0.0
H724 H 0.46512 0.14674 0.48557 0.0
H725 H 0.43016 0.06555 0.62697 0.0
H726 H 0.40064 0.15499 0.65384 0.0
H727 H 0.4048 0.20143 0.70245 0.0
H728 H 0.40656 0.17598 0.96807 0.0
H729 H 0.40288 0.12932 0.92089 0.0
C730 C 0.31161 0.02689 0.75487 0.0
C731 C 0.30545 0.02553 0.84368 0.0
C732 C 0.33456 0.04047 0.72685 0.0
C733 C 0.35193 0.0526 0.78723 0.0
C734 C 0.34591 0.05105 0.87601 0.0
C735 C 0.32286 0.03766 0.90403 0.0
C736 C 0.37571 0.06801 0.75765 0.0
C737 C 0.37888 0.09442 0.78489 0.0
C738 C 0.39446 0.05736 0.70023 0.0
C739 C 0.3931 0.02915 0.67328 0.0
C740 C 0.39196 0.00889 0.73577 0.0
C741 C 0.39058 0.98236 0.70998 0.0
C742 C 0.39051 0.97582 0.62186 0.0
C743 C 0.39188 -0.00419 0.55933 0.0
C744 C 0.39324 0.02238 0.58477 0.0
C745 C 0.47966 0.14495 0.70187 0.0
C746 C 0.48143 0.15291 0.61465 0.0
C747 C 0.45998 0.1267 0.72808 0.0
C748 C 0.44177 0.11609 0.66758 0.0
C749 C 0.44445 0.12271 0.57961 0.0
C750 C 0.46411 0.1411 0.55329 0.0
C751 C 0.41861 0.10002 0.69756 0.0
C752 C 0.41555 0.07365 0.6701 0.0
C753 C 0.39999 0.1106 0.75524 0.0
C754 C 0.40176 0.13866 0.78379 0.0
C755 C 0.40212 0.15928 0.72258 0.0
C756 C 0.40437 0.18565 0.74987 0.0
C757 C 0.40601 0.19165 0.83829 0.0
C758 C 0.40533 0.1713 0.8996 0.0
C759 C 0.40315 0.14489 0.87262 0.0
H760 H 0.40776 0.21207 0.85929 0.0
H761 H 0.38944 0.95527 0.60203 0.0
H762 H 0.80397 0.90572 0.79741 0.0
H763 H 0.83945 0.87688 0.83807 0.0
H764 H 0.86549 0.93269 0.0351 0.0
H765 H 0.82931 0.9615 0.99621 0.0
H766 H 0.89067 0.88139 0.83377 0.0
H767 H 0.89283 0.89917 0.20319 0.0
H768 H 0.86305 0.91245 0.32106 0.0
H769 H 0.79588 0.88183 0.17718 0.0
H770 H 0.82529 0.86809 0.05902 0.0
H771 H -0.00186 0.80957 0.01449 0.0
H772 H 0.96824 0.84465 0.97303 0.0
H773 H 0.90276 0.80065 0.08919 0.0
H774 H 0.93241 0.76618 0.13257 0.0
H775 H 0.9005 0.84953 0.13591 0.0
H776 H 0.91305 0.80415 0.86406 0.0
H777 H 0.939 0.78648 0.74301 0.0
H778 H 0.97006 0.86465 0.68585 0.0
H779 H 0.94451 0.88274 0.80731 0.0
C780 C 0.81718 0.91194 0.84956 0.0
C781 C 0.81368 0.93591 0.89385 0.0
C782 C 0.8376 0.89543 0.87243 0.0
C783 C 0.85514 0.90248 0.93989 0.0
C784 C 0.85199 0.9266 0.9836 0.0
C785 C 0.83131 0.94307 0.96129 0.0
C786 C 0.87621 0.88409 0.96491 0.0
C787 C 0.89292 0.87455 0.9 0.0
C788 C 0.87909 0.87494 0.05105 0.0
C789 C 0.86123 0.88293 0.12191 0.0
C790 C 0.87171 0.89524 0.19686 0.0
C791 C 0.8549 0.90284 0.26368 0.0
C792 C 0.82758 0.89808 0.25646 0.0
C793 C 0.81703 0.88561 0.18254 0.0
C794 C 0.83375 0.87794 0.11559 0.0
C795 C 0.97733 0.80733 0.0305 0.0
C796 C 0.96768 0.78511 0.077 0.0
C797 C 0.96025 0.82739 0.0068 0.0
C798 C 0.93318 0.82532 0.02792 0.0
C799 C 0.92356 0.80288 0.07286 0.0
C800 C 0.94057 0.78309 0.0973 0.0
C801 C 0.91462 0.84639 0.00447 0.0
C802 C 0.8985 0.8566 0.06985 0.0
C803 C 0.91178 0.85557 0.91833 0.0
C804 C 0.92713 0.84474 0.84534 0.0
C805 C 0.92558 0.81754 0.82608 0.0
C806 C 0.94018 0.80745 0.75733 0.0
C807 C 0.95624 0.82442 0.70695 0.0
C808 C 0.95766 0.85153 0.72505 0.0
C809 C 0.94311 0.86171 0.79379 0.0
H810 H 0.96753 0.81658 0.65375 0.0
H811 H 0.8146 0.904 0.30823 0.0
H812 H 0.98275 0.35565 0.30837 0.0
H813 H 0.0132 0.3923 0.3487 0.0
H814 H 0.07161 0.3627 0.17256 0.0
H815 H 0.04077 0.32694 0.12897 0.0
H816 H 0.05689 0.39322 0.42713 0.0
H817 H 0.11295 0.40946 0.09868 0.0
H818 H 0.10311 0.40905 0.94184 0.0
H819 H 0.02158 0.42381 0.99488 0.0
H820 H 0.03099 0.42472 0.15194 0.0
H821 H 0.18613 0.44632 0.49001 0.0
H822 H 0.14461 0.42189 0.45902 0.0
H823 H 0.11892 0.4868 0.30144 0.0
H824 H 0.16104 0.51055 0.32853 0.0
H825 H 0.11093 0.44555 0.21617 0.0
H826 H 0.08926 0.46881 0.50368 0.0
H827 H 0.09433 0.47447 0.66184 0.0
H828 H 0.0989 0.39039 0.69301 0.0
H829 H 0.09427 0.38421 0.53486 0.0
C830 C 0.00198 0.35723 0.27751 0.0
C831 C 0.00941 0.33857 0.21534 0.0
C832 C 0.01938 0.37812 0.30074 0.0
C833 C 0.04461 0.3805 0.26301 0.0
C834 C 0.05201 0.36177 0.20093 0.0
C835 C 0.03443 0.34122 0.17639 0.0
C836 C 0.06378 0.40163 0.29175 0.0
C837 C 0.06857 0.40484 0.38105 0.0
C838 C 0.07849 0.41739 0.23184 0.0
C839 C 0.07266 0.41695 0.13726 0.0
C840 C 0.09295 0.41274 0.07691 0.0
C841 C 0.08744 0.4124 0.98795 0.0
C842 C 0.06173 0.41633 0.95844 0.0
C843 C 0.04148 0.42068 0.01784 0.0
C844 C 0.04688 0.42107 0.10686 0.0
C845 C 0.17142 0.45548 0.44989 0.0
C846 C 0.17677 0.48017 0.41106 0.0
C847 C 0.1476 0.44161 0.43261 0.0
C848 C 0.12847 0.45256 0.3783 0.0
C849 C 0.13339 0.47785 0.34306 0.0
C850 C 0.15742 0.49142 0.35867 0.0
C851 C 0.10458 0.43665 0.35158 0.0
C852 C 0.09897 0.43431 0.26251 0.0
C853 C 0.08847 0.42248 0.41192 0.0
C854 C 0.0916 0.42607 0.50716 0.0
C855 C 0.09158 0.45153 0.54412 0.0
C856 C 0.09433 0.45483 0.63383 0.0
C857 C 0.09697 0.4328 0.68743 0.0
C858 C 0.09686 0.40743 0.65141 0.0
C859 C 0.09415 0.40402 0.56172 0.0
H860 H 0.09904 0.43539 0.75689 0.0
H861 H 0.05752 0.41606 0.88954 0.0
H862 H 0.51542 0.68639 0.41667 0.0
H863 H 0.54641 0.65211 0.37827 0.0
H864 H 0.56769 0.64421 0.64821 0.0
H865 H 0.5378 0.6792 0.68603 0.0
H866 H 0.60994 0.64548 0.56106 0.0
H867 H 0.52781 0.5964 0.52999 0.0
H868 H 0.48245 0.58687 0.47662 0.0
H869 H 0.51086 0.58608 0.21424 0.0
H870 H 0.55637 0.59595 0.26596 0.0
H871 H 0.68183 0.52718 0.50296 0.0
H872 H 0.64635 0.55638 0.54625 0.0
H873 H 0.63688 0.58053 0.2801 0.0
H874 H 0.67236 0.55179 0.23648 0.0
H875 H 0.58816 0.56907 0.36855 0.0
H876 H 0.67035 0.62 0.40549 0.0
H877 H 0.7154 0.62822 0.46347 0.0
H878 H 0.68539 0.62329 0.72369 0.0
H879 H 0.64019 0.61466 0.66716 0.0
C880 C 0.52657 0.67715 0.46776 0.0
C881 C 0.52424 0.68556 0.55428 0.0
C882 C 0.54419 0.65744 0.44588 0.0
C883 C 0.55929 0.64526 0.51042 0.0
C884 C 0.55644 0.6533 0.59705 0.0
C885 C 0.53927 0.6733 0.61865 0.0
C886 C 0.579 0.62511 0.48783 0.0
C887 C 0.60492 0.62854 0.5202 0.0
C888 C 0.5728 0.60317 0.43317 0.0
C889 C 0.54547 0.59717 0.40184 0.0
C890 C 0.52436 0.59439 0.46087 0.0
C891 C 0.49862 0.58889 0.43091 0.0
C892 C 0.49376 0.58594 0.34208 0.0
C893 C 0.51465 0.5884 0.28303 0.0
C894 C 0.54042 0.59392 0.31263 0.0
C895 C 0.67209 0.5386 0.45366 0.0
C896 C 0.68005 0.53729 0.36639 0.0
C897 C 0.65187 0.55528 0.47847 0.0
C898 C 0.63908 0.57065 0.41631 0.0
C899 C 0.64647 0.56879 0.32898 0.0
C900 C 0.66688 0.55246 0.30434 0.0
C901 C 0.61873 0.58953 0.44229 0.0
C902 C 0.59286 0.58591 0.41017 0.0
C903 C 0.62481 0.61109 0.49812 0.0
C904 C 0.65195 0.61639 0.53211 0.0
C905 C 0.6734 0.62044 0.47507 0.0
C906 C 0.69895 0.62521 0.50766 0.0
C907 C 0.70327 0.62619 0.59721 0.0
C908 C 0.68202 0.62247 0.65435 0.0
C909 C 0.65644 0.61766 0.62207 0.0
H910 H 0.72306 0.6299 0.62233 0.0
H911 H 0.47382 0.5817 0.31901 0.0
loop_
_geom_bond_atom_site_label_1
_geom_bond_atom_site_label_2
_geom_bond_distance
_geom_bond_site_symmetry_2
_ccdc_geom_bond_type
C0 O1 1.306 . S
C0 O3 1.160 . S
O1 C0 1.306 . S
O1 Cd2 2.228 . S
Cd2 O1 2.228 . S
Cd2 O6 2.273 . S
Cd2 O10 2.277 . S
O3 C0 1.160 . S
O3 Cd4 2.203 . S
Cd4 O3 2.203 . S
Cd4 O6 2.411 . S
Cd4 O7 2.333 . S
Cd4 O8 2.352 . S
Cd4 O12 2.277 . S
Cd4 O13 2.356 . S
C5 O10 1.209 . S
C5 O12 1.226 . S
O6 Cd2 2.273 . S
O6 Cd4 2.411 . S
O6 C9 1.320 . S
O7 Cd4 2.333 . S
O7 C9 1.214 . S
O8 Cd4 2.352 . S
O8 C11 1.258 . S
C9 O6 1.320 . S
C9 O7 1.214 . S
O10 Cd2 2.277 . S
O10 C5 1.209 . S
C11 O8 1.258 . S
C11 O13 1.282 . S
O12 Cd4 2.277 . S
O12 C5 1.226 . S
O13 Cd4 2.356 . S
O13 C11 1.282 . S
C14 O15 1.306 . S
C14 O17 1.160 . S
O15 C14 1.306 . S
O15 Cd16 2.228 . S
Cd16 O15 2.228 . S
Cd16 O20 2.273 . S
Cd16 O24 2.277 . S
O17 C14 1.160 . S
O17 Cd18 2.203 . S
Cd18 O17 2.203 . S
Cd18 O20 2.411 . S
Cd18 O21 2.333 . S
Cd18 O22 2.352 . S
Cd18 O26 2.277 . S
Cd18 O27 2.356 . S
C19 O24 1.209 . S
C19 O26 1.226 . S
O20 Cd16 2.273 . S
O20 Cd18 2.411 . S
O20 C23 1.320 . S
O21 Cd18 2.333 . S
O21 C23 1.214 . S
O22 Cd18 2.352 . S
O22 C25 1.258 . S
C23 O20 1.320 . S
C23 O21 1.214 . S
O24 Cd16 2.277 . S
O24 C19 1.209 . S
C25 O22 1.258 . S
C25 O27 1.282 . S
O26 Cd18 2.277 . S
O26 C19 1.226 . S
O27 Cd18 2.356 . S
O27 C25 1.282 . S
C28 O29 1.306 . S
C28 O31 1.160 . S
O29 C28 1.306 . S
O29 Cd30 2.228 1_565 S
Cd30 O29 2.228 1_545 S
Cd30 O34 2.273 1_545 S
Cd30 O38 2.277 . S
O31 C28 1.160 . S
O31 Cd32 2.203 . S
Cd32 O31 2.203 . S
Cd32 O34 2.411 . S
Cd32 O35 2.333 1_565 S
Cd32 O36 2.352 . S
Cd32 O40 2.277 . S
Cd32 O41 2.356 1_556 S
C33 O38 1.209 . S
C33 O40 1.226 1_545 S
O34 Cd30 2.273 1_565 S
O34 Cd32 2.411 . S
O34 C37 1.320 1_565 S
O35 Cd32 2.333 1_545 S
O35 C37 1.214 . S
O36 Cd32 2.352 . S
O36 C39 1.258 . S
C37 O34 1.320 1_545 S
C37 O35 1.214 . S
O38 Cd30 2.277 . S
O38 C33 1.209 . S
C39 O36 1.258 . S
C39 O41 1.282 1_556 S
O40 Cd32 2.277 . S
O40 C33 1.226 1_565 S
O41 Cd32 2.356 1_554 S
O41 C39 1.282 1_554 S
C42 O43 1.306 . S
C42 O45 1.160 . S
O43 C42 1.306 . S
O43 Cd44 2.228 1_455 S
Cd44 O43 2.228 1_655 S
Cd44 O48 2.273 1_655 S
Cd44 O52 2.277 . S
O45 C42 1.160 . S
O45 Cd46 2.203 . S
Cd46 O45 2.203 . S
Cd46 O48 2.411 . S
Cd46 O49 2.333 1_455 S
Cd46 O50 2.352 . S
Cd46 O54 2.277 . S
Cd46 O55 2.356 1_554 S
C47 O52 1.209 . S
C47 O54 1.226 1_655 S
O48 Cd44 2.273 1_455 S
O48 Cd46 2.411 . S
O48 C51 1.320 1_455 S
O49 Cd46 2.333 1_655 S
O49 C51 1.214 . S
O50 Cd46 2.352 . S
O50 C53 1.258 . S
C51 O48 1.320 1_655 S
C51 O49 1.214 . S
O52 Cd44 2.277 . S
O52 C47 1.209 . S
C53 O50 1.258 . S
C53 O55 1.282 1_554 S
O54 Cd46 2.277 . S
O54 C47 1.226 1_455 S
O55 Cd46 2.356 1_556 S
O55 C53 1.282 1_556 S
C56 O57 1.306 . S
C56 O59 1.160 . S
O57 C56 1.306 . S
O57 Cd58 2.228 1_545 S
Cd58 O57 2.228 1_565 S
Cd58 O62 2.273 1_565 S
Cd58 O66 2.277 . S
O59 C56 1.160 . S
O59 Cd60 2.203 . S
Cd60 O59 2.203 . S
Cd60 O62 2.411 . S
Cd60 O63 2.333 1_545 S
Cd60 O64 2.352 . S
Cd60 O68 2.277 . S
Cd60 O69 2.356 1_556 S
C61 O66 1.209 . S
C61 O68 1.226 1_565 S
O62 Cd58 2.273 1_545 S
O62 Cd60 2.411 . S
O62 C65 1.320 1_545 S
O63 Cd60 2.333 1_565 S
O63 C65 1.214 . S
O64 Cd60 2.352 . S
O64 C67 1.258 . S
C65 O62 1.320 1_565 S
C65 O63 1.214 . S
O66 Cd58 2.277 . S
O66 C61 1.209 . S
C67 O64 1.258 . S
C67 O69 1.282 1_556 S
O68 Cd60 2.277 . S
O68 C61 1.226 1_545 S
O69 Cd60 2.356 1_554 S
O69 C67 1.282 1_554 S
C70 O71 1.306 . S
C70 O73 1.160 . S
O71 C70 1.306 . S
O71 Cd72 2.228 1_655 S
Cd72 O71 2.228 1_455 S
Cd72 O76 2.273 1_455 S
Cd72 O80 2.277 . S
O73 C70 1.160 . S
O73 Cd74 2.203 . S
Cd74 O73 2.203 . S
Cd74 O76 2.411 . S
Cd74 O77 2.333 1_655 S
Cd74 O78 2.352 . S
Cd74 O82 2.277 . S
Cd74 O83 2.356 1_554 S
C75 O80 1.209 . S
C75 O82 1.226 1_455 S
O76 Cd72 2.273 1_655 S
O76 Cd74 2.411 . S
O76 C79 1.320 1_655 S
O77 Cd74 2.333 1_455 S
O77 C79 1.214 . S
O78 Cd74 2.352 . S
O78 C81 1.258 . S
C79 O76 1.320 1_455 S
C79 O77 1.214 . S
O80 Cd72 2.277 . S
O80 C75 1.209 . S
C81 O78 1.258 . S
C81 O83 1.282 1_554 S
O82 Cd74 2.277 . S
O82 C75 1.226 1_655 S
O83 Cd74 2.356 1_556 S
O83 C81 1.282 1_556 S
C84 O85 1.306 . S
C84 O87 1.160 . S
O85 C84 1.306 . S
O85 Cd86 2.228 . S
Cd86 O85 2.228 . S
Cd86 O90 2.273 . S
Cd86 O94 2.277 . S
O87 C84 1.160 . S
O87 Cd88 2.203 . S
Cd88 O87 2.203 . S
Cd88 O90 2.411 . S
Cd88 O91 2.333 . S
Cd88 O92 2.352 . S
Cd88 O96 2.277 . S
Cd88 O97 2.356 . S
C89 O94 1.209 . S
C89 O96 1.226 . S
O90 Cd86 2.273 . S
O90 Cd88 2.411 . S
O90 C93 1.320 . S
O91 Cd88 2.333 . S
O91 C93 1.214 . S
O92 Cd88 2.352 . S
O92 C95 1.258 . S
C93 O90 1.320 . S
C93 O91 1.214 . S
O94 Cd86 2.277 . S
O94 C89 1.209 . S
C95 O92 1.258 . S
C95 O97 1.282 . S
O96 Cd88 2.277 . S
O96 C89 1.226 . S
O97 Cd88 2.356 . S
O97 C95 1.282 . S
C98 O99 1.306 . S
C98 O101 1.160 . S
O99 C98 1.306 . S
O99 Cd100 2.228 . S
Cd100 O99 2.228 . S
Cd100 O104 2.273 . S
Cd100 O108 2.277 . S
O101 C98 1.160 . S
O101 Cd102 2.203 . S
Cd102 O101 2.203 . S
Cd102 O104 2.411 . S
Cd102 O105 2.333 . S
Cd102 O106 2.352 . S
Cd102 O110 2.277 . S
Cd102 O111 2.356 . S
C103 O108 1.209 . S
C103 O110 1.226 . S
O104 Cd100 2.273 . S
O104 Cd102 2.411 . S
O104 C107 1.320 . S
O105 Cd102 2.333 . S
O105 C107 1.214 . S
O106 Cd102 2.352 . S
O106 C109 1.258 . S
C107 O104 1.320 . S
C107 O105 1.214 . S
O108 Cd100 2.277 . S
O108 C103 1.209 . S
C109 O106 1.258 . S
C109 O111 1.282 . S
O110 Cd102 2.277 . S
O110 C103 1.226 . S
O111 Cd102 2.356 . S
O111 C109 1.282 . S
H112 C130 0.951 . S
H113 C132 0.951 . S
H114 C134 0.950 . S
H115 C135 0.950 . S
H116 C137 0.950 . S
H117 C140 0.950 . S
H118 C141 0.950 . S
H119 C143 0.950 . S
H120 C144 0.950 . S
H121 C145 0.951 . S
H122 C147 0.951 . S
H123 C149 0.950 . S
H124 C150 0.950 . S
H125 C152 0.950 . S
H126 C155 0.950 . S
H127 C156 0.950 . S
H128 C158 0.950 . S
H129 C159 0.950 . S
C130 H112 0.951 . S
C130 C131 1.366 . S
C130 C132 1.388 . S
C131 C130 1.366 . S
C131 C135 1.385 . S
C132 H113 0.951 . S
C132 C130 1.388 . S
C132 C133 1.366 . S
C133 C132 1.366 . S
C133 C134 1.414 . S
C133 C136 1.499 . S
C134 H114 0.950 . S
C134 C133 1.414 . S
C134 C135 1.374 . S
C135 H115 0.950 . S
C135 C131 1.385 . S
C135 C134 1.374 . S
C136 C133 1.499 . S
C136 C137 1.373 1_556 S
C136 C138 1.389 . S
C137 H116 0.950 . S
C137 C136 1.373 1_554 S
C137 C153 1.377 . S
C138 C136 1.389 . S
C138 C139 1.524 . S
C138 C152 1.377 . S
C139 C138 1.524 . S
C139 C140 1.397 . S
C139 C144 1.363 . S
C140 H117 0.950 . S
C140 C139 1.397 . S
C140 C141 1.334 . S
C141 H118 0.950 . S
C141 C140 1.334 . S
C141 C142 1.287 . S
C142 C141 1.287 . S
C142 C143 1.524 . S
C142 H161 0.913 . S
C143 H119 0.950 . S
C143 C142 1.524 . S
C143 C144 1.415 . S
C144 H120 0.950 . S
C144 C139 1.363 . S
C144 C143 1.415 . S
C145 H121 0.951 . S
C145 C146 1.366 . S
C145 C147 1.388 . S
C146 C145 1.366 . S
C146 C150 1.385 . S
C147 H122 0.951 . S
C147 C145 1.388 . S
C147 C148 1.366 . S
C148 C147 1.366 . S
C148 C149 1.414 . S
C148 C151 1.499 . S
C149 H123 0.950 . S
C149 C148 1.414 . S
C149 C150 1.374 . S
C150 H124 0.950 . S
C150 C146 1.385 . S
C150 C149 1.374 . S
C151 C148 1.499 . S
C151 C152 1.373 1_554 S
C151 C153 1.389 . S
C152 H125 0.950 . S
C152 C138 1.377 . S
C152 C151 1.373 1_556 S
C153 C137 1.377 . S
C153 C151 1.389 . S
C153 C154 1.524 . S
C154 C153 1.524 . S
C154 C155 1.397 . S
C154 C159 1.363 . S
C155 H126 0.950 . S
C155 C154 1.397 . S
C155 C156 1.334 . S
C156 H127 0.950 . S
C156 C155 1.334 . S
C156 C157 1.287 . S
C157 C156 1.287 . S
C157 C158 1.524 . S
C157 H160 0.999 . S
C158 H128 0.950 . S
C158 C157 1.524 . S
C158 C159 1.415 . S
C159 H129 0.950 . S
C159 C154 1.363 . S
C159 C158 1.415 . S
H160 C157 0.999 . S
H161 C142 0.913 . S
H162 C180 0.951 . S
H163 C182 0.951 . S
H164 C184 0.950 . S
H165 C185 0.950 . S
H166 C187 0.950 . S
H167 C190 0.950 . S
H168 C191 0.950 . S
H169 C193 0.950 . S
H170 C194 0.950 . S
H171 C195 0.951 . S
H172 C197 0.951 . S
H173 C199 0.950 . S
H174 C200 0.950 . S
H175 C202 0.950 . S
H176 C205 0.950 . S
H177 C206 0.950 . S
H178 C208 0.950 . S
H179 C209 0.950 . S
C180 H162 0.951 . S
C180 C181 1.366 . S
C180 C182 1.388 . S
C181 C180 1.366 . S
C181 C185 1.385 . S
C182 H163 0.951 . S
C182 C180 1.388 . S
C182 C183 1.366 . S
C183 C182 1.366 . S
C183 C184 1.414 . S
C183 C186 1.499 . S
C184 H164 0.950 . S
C184 C183 1.414 . S
C184 C185 1.374 . S
C185 H165 0.950 . S
C185 C181 1.385 . S
C185 C184 1.374 . S
C186 C183 1.499 . S
C186 C187 1.373 . S
C186 C188 1.389 . S
C187 H166 0.950 . S
C187 C186 1.373 . S
C187 C203 1.377 . S
C188 C186 1.389 . S
C188 C189 1.524 . S
C188 C202 1.377 . S
C189 C188 1.524 . S
C189 C190 1.397 . S
C189 C194 1.363 . S
C190 H167 0.950 . S
C190 C189 1.397 . S
C190 C191 1.334 . S
C191 H168 0.950 . S
C191 C190 1.334 . S
C191 C192 1.287 . S
C192 C191 1.287 . S
C192 C193 1.524 . S
C192 H211 0.913 . S
C193 H169 0.950 . S
C193 C192 1.524 . S
C193 C194 1.415 . S
C194 H170 0.950 . S
C194 C189 1.363 . S
C194 C193 1.415 . S
C195 H171 0.951 . S
C195 C196 1.366 . S
C195 C197 1.388 . S
C196 C195 1.366 . S
C196 C200 1.385 . S
C197 H172 0.951 . S
C197 C195 1.388 . S
C197 C198 1.366 . S
C198 C197 1.366 . S
C198 C199 1.414 . S
C198 C201 1.499 . S
C199 H173 0.950 . S
C199 C198 1.414 . S
C199 C200 1.374 . S
C200 H174 0.950 . S
C200 C196 1.385 . S
C200 C199 1.374 . S
C201 C198 1.499 . S
C201 C202 1.373 . S
C201 C203 1.389 . S
C202 H175 0.950 . S
C202 C188 1.377 . S
C202 C201 1.373 . S
C203 C187 1.377 . S
C203 C201 1.389 . S
C203 C204 1.524 . S
C204 C203 1.524 . S
C204 C205 1.397 . S
C204 C209 1.363 . S
C205 H176 0.950 . S
C205 C204 1.397 . S
C205 C206 1.334 1_554 S
C206 H177 0.950 . S
C206 C205 1.334 1_556 S
C206 C207 1.287 . S
C207 C206 1.287 . S
C207 C208 1.524 1_556 S
C207 H210 0.999 . S
C208 H178 0.950 . S
C208 C207 1.524 1_554 S
C208 C209 1.415 . S
C209 H179 0.950 . S
C209 C204 1.363 . S
C209 C208 1.415 . S
H210 C207 0.999 . S
H211 C192 0.913 . S
H212 C230 0.951 . S
H213 C232 0.951 . S
H214 C234 0.950 . S
H215 C235 0.950 . S
H216 C237 0.950 . S
H217 C240 0.950 . S
H218 C241 0.950 . S
H219 C243 0.950 . S
H220 C244 0.950 . S
H221 C245 0.951 . S
H222 C247 0.951 . S
H223 C249 0.950 . S
H224 C250 0.950 . S
H225 C252 0.950 . S
H226 C255 0.950 . S
H227 C256 0.950 . S
H228 C258 0.950 . S
H229 C259 0.950 . S
C230 H212 0.951 . S
C230 C231 1.366 . S
C230 C232 1.388 . S
C231 C230 1.366 . S
C231 C235 1.385 . S
C232 H213 0.951 . S
C232 C230 1.388 . S
C232 C233 1.366 . S
C233 C232 1.366 . S
C233 C234 1.414 . S
C233 C236 1.499 . S
C234 H214 0.950 . S
C234 C233 1.414 . S
C234 C235 1.374 . S
C235 H215 0.950 . S
C235 C231 1.385 . S
C235 C234 1.374 . S
C236 C233 1.499 . S
C236 C237 1.373 . S
C236 C238 1.389 . S
C237 H216 0.950 . S
C237 C236 1.373 . S
C237 C253 1.377 . S
C238 C236 1.389 . S
C238 C239 1.524 . S
C238 C252 1.377 . S
C239 C238 1.524 . S
C239 C240 1.397 . S
C239 C244 1.363 . S
C240 H217 0.950 . S
C240 C239 1.397 . S
C240 C241 1.334 . S
C241 H218 0.950 . S
C241 C240 1.334 . S
C241 C242 1.287 . S
C242 C241 1.287 . S
C242 C243 1.524 . S
C242 H261 0.913 . S
C243 H219 0.950 . S
C243 C242 1.524 . S
C243 C244 1.415 . S
C244 H220 0.950 . S
C244 C239 1.363 . S
C244 C243 1.415 . S
C245 H221 0.951 . S
C245 C246 1.366 . S
C245 C247 1.388 . S
C246 C245 1.366 . S
C246 C250 1.385 . S
C247 H222 0.951 . S
C247 C245 1.388 . S
C247 C248 1.366 . S
C248 C247 1.366 . S
C248 C249 1.414 . S
C248 C251 1.499 . S
C249 H223 0.950 . S
C249 C248 1.414 . S
C249 C250 1.374 . S
C250 H224 0.950 . S
C250 C246 1.385 . S
C250 C249 1.374 . S
C251 C248 1.499 . S
C251 C252 1.373 . S
C251 C253 1.389 . S
C252 H225 0.950 . S
C252 C238 1.377 . S
C252 C251 1.373 . S
C253 C237 1.377 . S
C253 C251 1.389 . S
C253 C254 1.524 . S
C254 C253 1.524 . S
C254 C255 1.397 . S
C254 C259 1.363 . S
C255 H226 0.950 . S
C255 C254 1.397 . S
C255 C256 1.334 . S
C256 H227 0.950 . S
C256 C255 1.334 . S
C256 C257 1.287 . S
C257 C256 1.287 . S
C257 C258 1.524 . S
C257 H260 0.999 . S
C258 H228 0.950 . S
C258 C257 1.524 . S
C258 C259 1.415 . S
C259 H229 0.950 . S
C259 C254 1.363 . S
C259 C258 1.415 . S
H260 C257 0.999 . S
H261 C242 0.913 . S
H262 C280 0.951 1_554 S
H263 C282 0.951 . S
H264 C284 0.950 . S
H265 C285 0.950 . S
H266 C287 0.950 . S
H267 C290 0.950 . S
H268 C291 0.950 . S
H269 C293 0.950 . S
H270 C294 0.950 . S
H271 C295 0.951 . S
H272 C297 0.951 . S
H273 C299 0.950 . S
H274 C300 0.950 . S
H275 C302 0.950 . S
H276 C305 0.950 . S
H277 C306 0.950 . S
H278 C308 0.950 . S
H279 C309 0.950 . S
C280 H262 0.951 1_556 S
C280 C281 1.366 . S
C280 C282 1.388 . S
C281 C280 1.366 . S
C281 C285 1.385 . S
C282 H263 0.951 . S
C282 C280 1.388 . S
C282 C283 1.366 . S
C283 C282 1.366 . S
C283 C284 1.414 . S
C283 C286 1.499 . S
C284 H264 0.950 . S
C284 C283 1.414 . S
C284 C285 1.374 . S
C285 H265 0.950 . S
C285 C281 1.385 . S
C285 C284 1.374 . S
C286 C283 1.499 . S
C286 C287 1.373 . S
C286 C288 1.389 . S
C287 H266 0.950 . S
C287 C286 1.373 . S
C287 C303 1.377 . S
C288 C286 1.389 . S
C288 C289 1.524 . S
C288 C302 1.377 . S
C289 C288 1.524 . S
C289 C290 1.397 . S
C289 C294 1.363 . S
C290 H267 0.950 . S
C290 C289 1.397 . S
C290 C291 1.334 . S
C291 H268 0.950 . S
C291 C290 1.334 . S
C291 C292 1.287 . S
C292 C291 1.287 . S
C292 C293 1.524 . S
C292 H311 0.913 . S
C293 H269 0.950 . S
C293 C292 1.524 . S
C293 C294 1.415 . S
C294 H270 0.950 . S
C294 C289 1.363 . S
C294 C293 1.415 . S
C295 H271 0.951 . S
C295 C296 1.366 . S
C295 C297 1.388 . S
C296 C295 1.366 . S
C296 C300 1.385 . S
C297 H272 0.951 . S
C297 C295 1.388 . S
C297 C298 1.366 . S
C298 C297 1.366 . S
C298 C299 1.414 . S
C298 C301 1.499 . S
C299 H273 0.950 . S
C299 C298 1.414 . S
C299 C300 1.374 . S
C300 H274 0.950 . S
C300 C296 1.385 . S
C300 C299 1.374 . S
C301 C298 1.499 . S
C301 C302 1.373 . S
C301 C303 1.389 . S
C302 H275 0.950 . S
C302 C288 1.377 . S
C302 C301 1.373 . S
C303 C287 1.377 . S
C303 C301 1.389 . S
C303 C304 1.524 . S
C304 C303 1.524 . S
C304 C305 1.397 . S
C304 C309 1.363 . S
C305 H276 0.950 . S
C305 C304 1.397 . S
C305 C306 1.334 . S
C306 H277 0.950 . S
C306 C305 1.334 . S
C306 C307 1.287 . S
C307 C306 1.287 . S
C307 C308 1.524 . S
C307 H310 0.999 . S
C308 H278 0.950 . S
C308 C307 1.524 . S
C308 C309 1.415 . S
C309 H279 0.950 . S
C309 C304 1.363 . S
C309 C308 1.415 . S
H310 C307 0.999 . S
H311 C292 0.913 . S
H312 C330 0.951 . S
H313 C332 0.951 . S
H314 C334 0.950 . S
H315 C335 0.950 . S
H316 C337 0.950 . S
H317 C340 0.950 . S
H318 C341 0.950 . S
H319 C343 0.950 . S
H320 C344 0.950 . S
H321 C345 0.951 . S
H322 C347 0.951 . S
H323 C349 0.950 . S
H324 C350 0.950 . S
H325 C352 0.950 . S
H326 C355 0.950 . S
H327 C356 0.950 . S
H328 C358 0.950 . S
H329 C359 0.950 . S
C330 H312 0.951 . S
C330 C331 1.366 . S
C330 C332 1.388 . S
C331 C330 1.366 . S
C331 C335 1.385 . S
C332 H313 0.951 . S
C332 C330 1.388 . S
C332 C333 1.366 . S
C333 C332 1.366 . S
C333 C334 1.414 . S
C333 C336 1.499 . S
C334 H314 0.950 . S
C334 C333 1.414 . S
C334 C335 1.374 . S
C335 H315 0.950 . S
C335 C331 1.385 . S
C335 C334 1.374 . S
C336 C333 1.499 . S
C336 C337 1.373 . S
C336 C338 1.389 . S
C337 H316 0.950 . S
C337 C336 1.373 . S
C337 C353 1.377 . S
C338 C336 1.389 . S
C338 C339 1.524 . S
C338 C352 1.377 . S
C339 C338 1.524 . S
C339 C340 1.397 . S
C339 C344 1.363 . S
C340 H317 0.950 . S
C340 C339 1.397 . S
C340 C341 1.334 . S
C341 H318 0.950 . S
C341 C340 1.334 . S
C341 C342 1.287 . S
C342 C341 1.287 . S
C342 C343 1.524 . S
C342 H361 0.913 . S
C343 H319 0.950 . S
C343 C342 1.524 . S
C343 C344 1.415 . S
C344 H320 0.950 . S
C344 C339 1.363 . S
C344 C343 1.415 . S
C345 H321 0.951 . S
C345 C346 1.366 . S
C345 C347 1.388 . S
C346 C345 1.366 . S
C346 C350 1.385 . S
C347 H322 0.951 . S
C347 C345 1.388 . S
C347 C348 1.366 . S
C348 C347 1.366 . S
C348 C349 1.414 . S
C348 C351 1.499 . S
C349 H323 0.950 . S
C349 C348 1.414 . S
C349 C350 1.374 . S
C350 H324 0.950 . S
C350 C346 1.385 . S
C350 C349 1.374 . S
C351 C348 1.499 . S
C351 C352 1.373 . S
C351 C353 1.389 . S
C352 H325 0.950 . S
C352 C338 1.377 . S
C352 C351 1.373 . S
C353 C337 1.377 . S
C353 C351 1.389 . S
C353 C354 1.524 . S
C354 C353 1.524 . S
C354 C355 1.397 . S
C354 C359 1.363 . S
C355 H326 0.950 . S
C355 C354 1.397 . S
C355 C356 1.334 . S
C356 H327 0.950 . S
C356 C355 1.334 . S
C356 C357 1.287 . S
C357 C356 1.287 . S
C357 C358 1.524 . S
C357 H360 0.999 . S
C358 H328 0.950 . S
C358 C357 1.524 . S
C358 C359 1.415 . S
C359 H329 0.950 . S
C359 C354 1.363 . S
C359 C358 1.415 . S
H360 C357 0.999 . S
H361 C342 0.913 . S
H362 C380 0.951 . S
H363 C382 0.951 . S
H364 C384 0.950 . S
H365 C385 0.950 1_554 S
H366 C387 0.950 . S
H367 C390 0.950 . S
H368 C391 0.950 . S
H369 C393 0.950 . S
H370 C394 0.950 . S
H371 C395 0.951 . S
H372 C397 0.951 . S
H373 C399 0.950 . S
H374 C400 0.950 . S
H375 C402 0.950 . S
H376 C405 0.950 . S
H377 C406 0.950 . S
H378 C408 0.950 . S
H379 C409 0.950 . S
C380 H362 0.951 . S
C380 C381 1.366 . S
C380 C382 1.388 . S
C381 C380 1.366 . S
C381 C385 1.385 . S
C382 H363 0.951 . S
C382 C380 1.388 . S
C382 C383 1.366 . S
C383 C382 1.366 . S
C383 C384 1.414 . S
C383 C386 1.499 . S
C384 H364 0.950 . S
C384 C383 1.414 . S
C384 C385 1.374 . S
C385 H365 0.950 1_556 S
C385 C381 1.385 . S
C385 C384 1.374 . S
C386 C383 1.499 . S
C386 C387 1.373 . S
C386 C388 1.389 . S
C387 H366 0.950 . S
C387 C386 1.373 . S
C387 C403 1.377 . S
C388 C386 1.389 . S
C388 C389 1.524 . S
C388 C402 1.377 . S
C389 C388 1.524 . S
C389 C390 1.397 . S
C389 C394 1.363 . S
C390 H367 0.950 . S
C390 C389 1.397 . S
C390 C391 1.334 . S
C391 H368 0.950 . S
C391 C390 1.334 . S
C391 C392 1.287 . S
C392 C391 1.287 . S
C392 C393 1.524 . S
C392 H411 0.913 . S
C393 H369 0.950 . S
C393 C392 1.524 . S
C393 C394 1.415 . S
C394 H370 0.950 . S
C394 C389 1.363 . S
C394 C393 1.415 . S
C395 H371 0.951 . S
C395 C396 1.366 . S
C395 C397 1.388 . S
C396 C395 1.366 . S
C396 C400 1.385 . S
C397 H372 0.951 . S
C397 C395 1.388 . S
C397 C398 1.366 . S
C398 C397 1.366 . S
C398 C399 1.414 . S
C398 C401 1.499 . S
C399 H373 0.950 . S
C399 C398 1.414 . S
C399 C400 1.374 . S
C400 H374 0.950 . S
C400 C396 1.385 . S
C400 C399 1.374 . S
C401 C398 1.499 . S
C401 C402 1.373 . S
C401 C403 1.389 . S
C402 H375 0.950 . S
C402 C388 1.377 . S
C402 C401 1.373 . S
C403 C387 1.377 . S
C403 C401 1.389 . S
C403 C404 1.524 . S
C404 C403 1.524 . S
C404 C405 1.397 . S
C404 C409 1.363 . S
C405 H376 0.950 . S
C405 C404 1.397 . S
C405 C406 1.334 . S
C406 H377 0.950 . S
C406 C405 1.334 . S
C406 C407 1.287 . S
C407 C406 1.287 . S
C407 C408 1.524 . S
C407 H410 0.999 . S
C408 H378 0.950 . S
C408 C407 1.524 . S
C408 C409 1.415 . S
C409 H379 0.950 . S
C409 C404 1.363 . S
C409 C408 1.415 . S
H410 C407 0.999 . S
H411 C392 0.913 . S
H412 C430 0.951 . S
H413 C432 0.951 . S
H414 C434 0.950 . S
H415 C435 0.950 . S
H416 C437 0.950 . S
H417 C440 0.950 . S
H418 C441 0.950 . S
H419 C443 0.950 . S
H420 C444 0.950 . S
H421 C445 0.951 . S
H422 C447 0.951 . S
H423 C449 0.950 . S
H424 C450 0.950 . S
H425 C452 0.950 . S
H426 C455 0.950 . S
H427 C456 0.950 . S
H428 C458 0.950 . S
H429 C459 0.950 . S
C430 H412 0.951 . S
C430 C431 1.366 . S
C430 C432 1.388 . S
C431 C430 1.366 . S
C431 C435 1.385 . S
C432 H413 0.951 . S
C432 C430 1.388 . S
C432 C433 1.366 . S
C433 C432 1.366 . S
C433 C434 1.414 . S
C433 C436 1.499 . S
C434 H414 0.950 . S
C434 C433 1.414 . S
C434 C435 1.374 . S
C435 H415 0.950 . S
C435 C431 1.385 . S
C435 C434 1.374 . S
C436 C433 1.499 . S
C436 C437 1.373 1_554 S
C436 C438 1.389 . S
C437 H416 0.950 . S
C437 C436 1.373 1_556 S
C437 C453 1.377 . S
C438 C436 1.389 . S
C438 C439 1.524 . S
C438 C452 1.377 . S
C439 C438 1.524 . S
C439 C440 1.397 . S
C439 C444 1.363 . S
C440 H417 0.950 . S
C440 C439 1.397 . S
C440 C441 1.334 . S
C441 H418 0.950 . S
C441 C440 1.334 . S
C441 C442 1.287 . S
C442 C441 1.287 . S
C442 C443 1.524 . S
C442 H461 0.913 . S
C443 H419 0.950 . S
C443 C442 1.524 . S
C443 C444 1.415 . S
C444 H420 0.950 . S
C444 C439 1.363 . S
C444 C443 1.415 . S
C445 H421 0.951 . S
C445 C446 1.366 . S
C445 C447 1.388 . S
C446 C445 1.366 . S
C446 C450 1.385 . S
C447 H422 0.951 . S
C447 C445 1.388 . S
C447 C448 1.366 . S
C448 C447 1.366 . S
C448 C449 1.414 . S
C448 C451 1.499 . S
C449 H423 0.950 . S
C449 C448 1.414 . S
C449 C450 1.374 . S
C450 H424 0.950 . S
C450 C446 1.385 . S
C450 C449 1.374 . S
C451 C448 1.499 . S
C451 C452 1.373 1_556 S
C451 C453 1.389 . S
C452 H425 0.950 . S
C452 C438 1.377 . S
C452 C451 1.373 1_554 S
C453 C437 1.377 . S
C453 C451 1.389 . S
C453 C454 1.524 . S
C454 C453 1.524 . S
C454 C455 1.397 . S
C454 C459 1.363 . S
C455 H426 0.950 . S
C455 C454 1.397 . S
C455 C456 1.334 . S
C456 H427 0.950 . S
C456 C455 1.334 . S
C456 C457 1.287 . S
C457 C456 1.287 . S
C457 C458 1.524 . S
C457 H460 0.999 . S
C458 H428 0.950 . S
C458 C457 1.524 . S
C458 C459 1.415 . S
C459 H429 0.950 . S
C459 C454 1.363 . S
C459 C458 1.415 . S
H460 C457 0.999 . S
H461 C442 0.913 . S
H462 C480 0.951 . S
H463 C482 0.951 . S
H464 C484 0.950 . S
H465 C485 0.950 . S
H466 C487 0.950 . S
H467 C490 0.950 . S
H468 C491 0.950 . S
H469 C493 0.950 . S
H470 C494 0.950 . S
H471 C495 0.951 . S
H472 C497 0.951 . S
H473 C499 0.950 . S
H474 C500 0.950 . S
H475 C502 0.950 . S
H476 C505 0.950 . S
H477 C506 0.950 . S
H478 C508 0.950 . S
H479 C509 0.950 . S
C480 H462 0.951 . S
C480 C481 1.366 . S
C480 C482 1.388 . S
C481 C480 1.366 . S
C481 C485 1.385 . S
C482 H463 0.951 . S
C482 C480 1.388 . S
C482 C483 1.366 . S
C483 C482 1.366 . S
C483 C484 1.414 . S
C483 C486 1.499 . S
C484 H464 0.950 . S
C484 C483 1.414 . S
C484 C485 1.374 . S
C485 H465 0.950 . S
C485 C481 1.385 . S
C485 C484 1.374 . S
C486 C483 1.499 . S
C486 C487 1.373 . S
C486 C488 1.389 . S
C487 H466 0.950 . S
C487 C486 1.373 . S
C487 C503 1.377 . S
C488 C486 1.389 . S
C488 C489 1.524 . S
C488 C502 1.377 . S
C489 C488 1.524 . S
C489 C490 1.397 . S
C489 C494 1.363 . S
C490 H467 0.950 . S
C490 C489 1.397 . S
C490 C491 1.334 . S
C491 H468 0.950 . S
C491 C490 1.334 . S
C491 C492 1.287 . S
C492 C491 1.287 . S
C492 C493 1.524 . S
C492 H511 0.913 . S
C493 H469 0.950 . S
C493 C492 1.524 . S
C493 C494 1.415 . S
C494 H470 0.950 . S
C494 C489 1.363 . S
C494 C493 1.415 . S
C495 H471 0.951 . S
C495 C496 1.366 . S
C495 C497 1.388 . S
C496 C495 1.366 . S
C496 C500 1.385 . S
C497 H472 0.951 . S
C497 C495 1.388 . S
C497 C498 1.366 . S
C498 C497 1.366 . S
C498 C499 1.414 . S
C498 C501 1.499 . S
C499 H473 0.950 . S
C499 C498 1.414 . S
C499 C500 1.374 . S
C500 H474 0.950 . S
C500 C496 1.385 . S
C500 C499 1.374 . S
C501 C498 1.499 . S
C501 C502 1.373 . S
C501 C503 1.389 . S
C502 H475 0.950 . S
C502 C488 1.377 . S
C502 C501 1.373 . S
C503 C487 1.377 . S
C503 C501 1.389 . S
C503 C504 1.524 . S
C504 C503 1.524 . S
C504 C505 1.397 . S
C504 C509 1.363 . S
C505 H476 0.950 . S
C505 C504 1.397 . S
C505 C506 1.334 . S
C506 H477 0.950 . S
C506 C505 1.334 . S
C506 C507 1.287 . S
C507 C506 1.287 . S
C507 C508 1.524 . S
C507 H510 0.999 . S
C508 H478 0.950 . S
C508 C507 1.524 . S
C508 C509 1.415 . S
C509 H479 0.950 . S
C509 C504 1.363 . S
C509 C508 1.415 . S
H510 C507 0.999 . S
H511 C492 0.913 . S
H512 C530 0.951 . S
H513 C532 0.951 . S
H514 C534 0.950 . S
H515 C535 0.950 . S
H516 C537 0.950 . S
H517 C540 0.950 . S
H518 C541 0.950 . S
H519 C543 0.950 . S
H520 C544 0.950 . S
H521 C545 0.951 . S
H522 C547 0.951 . S
H523 C549 0.950 . S
H524 C550 0.950 . S
H525 C552 0.950 . S
H526 C555 0.950 . S
H527 C556 0.950 . S
H528 C558 0.950 . S
H529 C559 0.950 . S
C530 H512 0.951 . S
C530 C531 1.366 . S
C530 C532 1.388 . S
C531 C530 1.366 . S
C531 C535 1.385 . S
C532 H513 0.951 . S
C532 C530 1.388 . S
C532 C533 1.366 . S
C533 C532 1.366 . S
C533 C534 1.414 . S
C533 C536 1.499 . S
C534 H514 0.950 . S
C534 C533 1.414 . S
C534 C535 1.374 . S
C535 H515 0.950 . S
C535 C531 1.385 . S
C535 C534 1.374 . S
C536 C533 1.499 . S
C536 C537 1.373 . S
C536 C538 1.389 . S
C537 H516 0.950 . S
C537 C536 1.373 . S
C537 C553 1.377 . S
C538 C536 1.389 . S
C538 C539 1.524 . S
C538 C552 1.377 . S
C539 C538 1.524 . S
C539 C540 1.397 . S
C539 C544 1.363 . S
C540 H517 0.950 . S
C540 C539 1.397 . S
C540 C541 1.334 . S
C541 H518 0.950 . S
C541 C540 1.334 . S
C541 C542 1.287 . S
C542 C541 1.287 . S
C542 C543 1.524 . S
C542 H561 0.913 . S
C543 H519 0.950 . S
C543 C542 1.524 . S
C543 C544 1.415 . S
C544 H520 0.950 . S
C544 C539 1.363 . S
C544 C543 1.415 . S
C545 H521 0.951 . S
C545 C546 1.366 . S
C545 C547 1.388 . S
C546 C545 1.366 . S
C546 C550 1.385 . S
C547 H522 0.951 . S
C547 C545 1.388 . S
C547 C548 1.366 . S
C548 C547 1.366 . S
C548 C549 1.414 . S
C548 C551 1.499 . S
C549 H523 0.950 . S
C549 C548 1.414 . S
C549 C550 1.374 . S
C550 H524 0.950 . S
C550 C546 1.385 . S
C550 C549 1.374 . S
C551 C548 1.499 . S
C551 C552 1.373 . S
C551 C553 1.389 . S
C552 H525 0.950 . S
C552 C538 1.377 . S
C552 C551 1.373 . S
C553 C537 1.377 . S
C553 C551 1.389 . S
C553 C554 1.524 . S
C554 C553 1.524 . S
C554 C555 1.397 . S
C554 C559 1.363 . S
C555 H526 0.950 . S
C555 C554 1.397 . S
C555 C556 1.334 . S
C556 H527 0.950 . S
C556 C555 1.334 . S
C556 C557 1.287 . S
C557 C556 1.287 . S
C557 C558 1.524 . S
C557 H560 0.999 . S
C558 H528 0.950 . S
C558 C557 1.524 . S
C558 C559 1.415 . S
C559 H529 0.950 . S
C559 C554 1.363 . S
C559 C558 1.415 . S
H560 C557 0.999 . S
H561 C542 0.913 . S
H562 C580 0.951 . S
H563 C582 0.951 . S
H564 C584 0.950 . S
H565 C585 0.950 . S
H566 C587 0.950 . S
H567 C590 0.950 . S
H568 C591 0.950 1_554 S
H569 C593 0.950 . S
H570 C594 0.950 . S
H571 C595 0.951 . S
H572 C597 0.951 . S
H573 C599 0.950 . S
H574 C600 0.950 . S
H575 C602 0.950 . S
H576 C605 0.950 . S
H577 C606 0.950 . S
H578 C608 0.950 . S
H579 C609 0.950 . S
C580 H562 0.951 . S
C580 C581 1.366 . S
C580 C582 1.388 . S
C581 C580 1.366 . S
C581 C585 1.385 . S
C582 H563 0.951 . S
C582 C580 1.388 . S
C582 C583 1.366 . S
C583 C582 1.366 . S
C583 C584 1.414 . S
C583 C586 1.499 . S
C584 H564 0.950 . S
C584 C583 1.414 . S
C584 C585 1.374 . S
C585 H565 0.950 . S
C585 C581 1.385 . S
C585 C584 1.374 . S
C586 C583 1.499 . S
C586 C587 1.373 . S
C586 C588 1.389 . S
C587 H566 0.950 . S
C587 C586 1.373 . S
C587 C603 1.377 . S
C588 C586 1.389 . S
C588 C589 1.524 . S
C588 C602 1.377 . S
C589 C588 1.524 . S
C589 C590 1.397 . S
C589 C594 1.363 . S
C590 H567 0.950 . S
C590 C589 1.397 . S
C590 C591 1.334 . S
C591 H568 0.950 1_556 S
C591 C590 1.334 . S
C591 C592 1.287 . S
C592 C591 1.287 . S
C592 C593 1.524 . S
C592 H611 0.908 1_556 S
C593 H569 0.950 . S
C593 C592 1.524 . S
C593 C594 1.415 . S
C594 H570 0.950 . S
C594 C589 1.363 . S
C594 C593 1.415 . S
C595 H571 0.951 . S
C595 C596 1.366 . S
C595 C597 1.388 . S
C596 C595 1.366 . S
C596 C600 1.385 . S
C597 H572 0.951 . S
C597 C595 1.388 . S
C597 C598 1.366 . S
C598 C597 1.366 . S
C598 C599 1.414 . S
C598 C601 1.499 . S
C599 H573 0.950 . S
C599 C598 1.414 . S
C599 C600 1.374 . S
C600 H574 0.950 . S
C600 C596 1.385 . S
C600 C599 1.374 . S
C601 C598 1.499 . S
C601 C602 1.373 . S
C601 C603 1.389 . S
C602 H575 0.950 . S
C602 C588 1.377 . S
C602 C601 1.373 . S
C603 C587 1.377 . S
C603 C601 1.389 . S
C603 C604 1.524 . S
C604 C603 1.524 . S
C604 C605 1.397 . S
C604 C609 1.363 . S
C605 H576 0.950 . S
C605 C604 1.397 . S
C605 C606 1.334 . S
C606 H577 0.950 . S
C606 C605 1.334 . S
C606 C607 1.287 . S
C607 C606 1.287 . S
C607 C608 1.524 . S
C607 H610 0.999 . S
C608 H578 0.950 . S
C608 C607 1.524 . S
C608 C609 1.415 . S
C609 H579 0.950 . S
C609 C604 1.363 . S
C609 C608 1.415 . S
H610 C607 0.999 . S
H611 C592 0.908 1_554 S
H612 C630 0.951 . S
H613 C632 0.951 . S
H614 C634 0.950 . S
H615 C635 0.950 . S
H616 C637 0.950 . S
H617 C640 0.950 . S
H618 C641 0.950 . S
H619 C643 0.950 . S
H620 C644 0.950 . S
H621 C645 0.951 . S
H622 C647 0.951 . S
H623 C649 0.950 . S
H624 C650 0.950 . S
H625 C652 0.950 . S
H626 C655 0.950 . S
H627 C656 0.950 . S
H628 C658 0.950 . S
H629 C659 0.950 . S
C630 H612 0.951 . S
C630 C631 1.366 . S
C630 C632 1.388 . S
C631 C630 1.366 . S
C631 C635 1.385 1_554 S
C632 H613 0.951 . S
C632 C630 1.388 . S
C632 C633 1.366 . S
C633 C632 1.366 . S
C633 C634 1.414 1_554 S
C633 C636 1.499 . S
C634 H614 0.950 . S
C634 C633 1.414 1_556 S
C634 C635 1.374 . S
C635 H615 0.950 . S
C635 C631 1.385 1_556 S
C635 C634 1.374 . S
C636 C633 1.499 . S
C636 C637 1.373 1_554 S
C636 C638 1.389 . S
C637 H616 0.950 . S
C637 C636 1.373 1_556 S
C637 C653 1.377 . S
C638 C636 1.389 . S
C638 C639 1.524 . S
C638 C652 1.377 . S
C639 C638 1.524 . S
C639 C640 1.397 . S
C639 C644 1.363 . S
C640 H617 0.950 . S
C640 C639 1.397 . S
C640 C641 1.334 . S
C641 H618 0.950 . S
C641 C640 1.334 . S
C641 C642 1.287 . S
C642 C641 1.287 . S
C642 C643 1.524 . S
C642 H661 0.913 . S
C643 H619 0.950 . S
C643 C642 1.524 . S
C643 C644 1.415 . S
C644 H620 0.950 . S
C644 C639 1.363 . S
C644 C643 1.415 . S
C645 H621 0.951 . S
C645 C646 1.366 . S
C645 C647 1.388 . S
C646 C645 1.366 . S
C646 C650 1.385 1_556 S
C647 H622 0.951 . S
C647 C645 1.388 . S
C647 C648 1.366 . S
C648 C647 1.366 . S
C648 C649 1.414 1_556 S
C648 C651 1.499 . S
C649 H623 0.950 . S
C649 C648 1.414 1_554 S
C649 C650 1.374 . S
C650 H624 0.950 . S
C650 C646 1.385 1_554 S
C650 C649 1.374 . S
C651 C648 1.499 . S
C651 C652 1.373 1_556 S
C651 C653 1.389 . S
C652 H625 0.950 . S
C652 C638 1.377 . S
C652 C651 1.373 1_554 S
C653 C637 1.377 . S
C653 C651 1.389 . S
C653 C654 1.524 . S
C654 C653 1.524 . S
C654 C655 1.397 . S
C654 C659 1.363 . S
C655 H626 0.950 . S
C655 C654 1.397 . S
C655 C656 1.334 . S
C656 H627 0.950 . S
C656 C655 1.334 . S
C656 C657 1.287 . S
C657 C656 1.287 . S
C657 C658 1.524 . S
C657 H660 0.999 . S
C658 H628 0.950 . S
C658 C657 1.524 . S
C658 C659 1.415 . S
C659 H629 0.950 . S
C659 C654 1.363 . S
C659 C658 1.415 . S
H660 C657 0.999 . S
H661 C642 0.913 . S
H662 C680 0.951 . S
H663 C682 0.951 . S
H664 C684 0.950 . S
H665 C685 0.950 . S
H666 C687 0.950 . S
H667 C690 0.950 . S
H668 C691 0.950 1_556 S
H669 C693 0.950 . S
H670 C694 0.950 . S
H671 C695 0.951 . S
H672 C697 0.951 . S
H673 C699 0.950 . S
H674 C700 0.950 . S
H675 C702 0.950 . S
H676 C705 0.950 . S
H677 C706 0.950 . S
H678 C708 0.950 . S
H679 C709 0.950 . S
C680 H662 0.951 . S
C680 C681 1.366 . S
C680 C682 1.388 . S
C681 C680 1.366 . S
C681 C685 1.385 . S
C682 H663 0.951 . S
C682 C680 1.388 . S
C682 C683 1.366 . S
C683 C682 1.366 . S
C683 C684 1.414 . S
C683 C686 1.499 . S
C684 H664 0.950 . S
C684 C683 1.414 . S
C684 C685 1.374 . S
C685 H665 0.950 . S
C685 C681 1.385 . S
C685 C684 1.374 . S
C686 C683 1.499 . S
C686 C687 1.373 . S
C686 C688 1.389 . S
C687 H666 0.950 . S
C687 C686 1.373 . S
C687 C703 1.377 . S
C688 C686 1.389 . S
C688 C689 1.524 . S
C688 C702 1.377 . S
C689 C688 1.524 . S
C689 C690 1.397 . S
C689 C694 1.363 . S
C690 H667 0.950 . S
C690 C689 1.397 . S
C690 C691 1.334 . S
C691 H668 0.950 1_554 S
C691 C690 1.334 . S
C691 C692 1.287 . S
C692 C691 1.287 . S
C692 C693 1.524 . S
C692 H711 0.913 . S
C693 H669 0.950 . S
C693 C692 1.524 . S
C693 C694 1.415 . S
C694 H670 0.950 . S
C694 C689 1.363 . S
C694 C693 1.415 . S
C695 H671 0.951 . S
C695 C696 1.366 . S
C695 C697 1.388 . S
C696 C695 1.366 . S
C696 C700 1.385 . S
C697 H672 0.951 . S
C697 C695 1.388 . S
C697 C698 1.366 . S
C698 C697 1.366 . S
C698 C699 1.414 . S
C698 C701 1.499 . S
C699 H673 0.950 . S
C699 C698 1.414 . S
C699 C700 1.374 . S
C700 H674 0.950 . S
C700 C696 1.385 . S
C700 C699 1.374 . S
C701 C698 1.499 . S
C701 C702 1.373 . S
C701 C703 1.389 . S
C702 H675 0.950 . S
C702 C688 1.377 . S
C702 C701 1.373 . S
C703 C687 1.377 . S
C703 C701 1.389 . S
C703 C704 1.524 . S
C704 C703 1.524 . S
C704 C705 1.397 . S
C704 C709 1.363 . S
C705 H676 0.950 . S
C705 C704 1.397 . S
C705 C706 1.334 . S
C706 H677 0.950 . S
C706 C705 1.334 . S
C706 C707 1.287 . S
C707 C706 1.287 . S
C707 C708 1.524 . S
C707 H710 0.999 . S
C708 H678 0.950 . S
C708 C707 1.524 . S
C708 C709 1.415 . S
C709 H679 0.950 . S
C709 C704 1.363 . S
C709 C708 1.415 . S
H710 C707 0.999 . S
H711 C692 0.913 . S
H712 C730 0.951 . S
H713 C732 0.951 . S
H714 C734 0.950 . S
H715 C735 0.950 . S
H716 C737 0.950 . S
H717 C740 0.950 . S
H718 C741 0.950 . S
H719 C743 0.950 . S
H720 C744 0.950 . S
H721 C745 0.951 . S
H722 C747 0.951 . S
H723 C749 0.950 . S
H724 C750 0.950 . S
H725 C752 0.950 . S
H726 C755 0.950 . S
H727 C756 0.950 . S
H728 C758 0.950 . S
H729 C759 0.950 . S
C730 H712 0.951 . S
C730 C731 1.366 . S
C730 C732 1.388 . S
C731 C730 1.366 . S
C731 C735 1.385 . S
C732 H713 0.951 . S
C732 C730 1.388 . S
C732 C733 1.366 . S
C733 C732 1.366 . S
C733 C734 1.414 . S
C733 C736 1.499 . S
C734 H714 0.950 . S
C734 C733 1.414 . S
C734 C735 1.374 . S
C735 H715 0.950 . S
C735 C731 1.385 . S
C735 C734 1.374 . S
C736 C733 1.499 . S
C736 C737 1.373 . S
C736 C738 1.389 . S
C737 H716 0.950 . S
C737 C736 1.373 . S
C737 C753 1.377 . S
C738 C736 1.389 . S
C738 C739 1.524 . S
C738 C752 1.377 . S
C739 C738 1.524 . S
C739 C740 1.397 . S
C739 C744 1.363 . S
C740 H717 0.950 . S
C740 C739 1.397 . S
C740 C741 1.334 . S
C741 H718 0.950 . S
C741 C740 1.334 . S
C741 C742 1.287 . S
C742 C741 1.287 . S
C742 C743 1.524 . S
C742 H761 0.913 . S
C743 H719 0.950 . S
C743 C742 1.524 . S
C743 C744 1.415 . S
C744 H720 0.950 . S
C744 C739 1.363 . S
C744 C743 1.415 . S
C745 H721 0.951 . S
C745 C746 1.366 . S
C745 C747 1.388 . S
C746 C745 1.366 . S
C746 C750 1.385 . S
C747 H722 0.951 . S
C747 C745 1.388 . S
C747 C748 1.366 . S
C748 C747 1.366 . S
C748 C749 1.414 . S
C748 C751 1.499 . S
C749 H723 0.950 . S
C749 C748 1.414 . S
C749 C750 1.374 . S
C750 H724 0.950 . S
C750 C746 1.385 . S
C750 C749 1.374 . S
C751 C748 1.499 . S
C751 C752 1.373 . S
C751 C753 1.389 . S
C752 H725 0.950 . S
C752 C738 1.377 . S
C752 C751 1.373 . S
C753 C737 1.377 . S
C753 C751 1.389 . S
C753 C754 1.524 . S
C754 C753 1.524 . S
C754 C755 1.397 . S
C754 C759 1.363 . S
C755 H726 0.950 . S
C755 C754 1.397 . S
C755 C756 1.334 . S
C756 H727 0.950 . S
C756 C755 1.334 . S
C756 C757 1.287 1_556 S
C757 C756 1.287 1_554 S
C757 C758 1.524 . S
C757 H760 0.999 . S
C758 H728 0.950 . S
C758 C757 1.524 . S
C758 C759 1.415 1_554 S
C759 H729 0.950 . S
C759 C754 1.363 . S
C759 C758 1.415 1_556 S
H760 C757 0.999 . S
H761 C742 0.913 . S
H762 C780 0.951 . S
H763 C782 0.951 . S
H764 C784 0.950 . S
H765 C785 0.950 . S
H766 C787 0.950 . S
H767 C790 0.950 . S
H768 C791 0.950 . S
H769 C793 0.950 . S
H770 C794 0.950 . S
H771 C795 0.951 . S
H772 C797 0.951 . S
H773 C799 0.950 . S
H774 C800 0.950 . S
H775 C802 0.950 . S
H776 C805 0.950 . S
H777 C806 0.950 . S
H778 C808 0.950 . S
H779 C809 0.950 . S
C780 H762 0.951 . S
C780 C781 1.366 . S
C780 C782 1.388 . S
C781 C780 1.366 . S
C781 C785 1.385 . S
C782 H763 0.951 . S
C782 C780 1.388 . S
C782 C783 1.366 . S
C783 C782 1.366 . S
C783 C784 1.414 . S
C783 C786 1.499 . S
C784 H764 0.950 . S
C784 C783 1.414 . S
C784 C785 1.374 . S
C785 H765 0.950 . S
C785 C781 1.385 . S
C785 C784 1.374 . S
C786 C783 1.499 . S
C786 C787 1.373 . S
C786 C788 1.389 1_556 S
C787 H766 0.950 . S
C787 C786 1.373 . S
C787 C803 1.377 . S
C788 C786 1.389 1_554 S
C788 C789 1.524 . S
C788 C802 1.377 . S
C789 C788 1.524 . S
C789 C790 1.397 . S
C789 C794 1.363 . S
C790 H767 0.950 . S
C790 C789 1.397 . S
C790 C791 1.334 . S
C791 H768 0.950 . S
C791 C790 1.334 . S
C791 C792 1.287 . S
C792 C791 1.287 . S
C792 C793 1.524 . S
C792 H811 0.913 . S
C793 H769 0.950 . S
C793 C792 1.524 . S
C793 C794 1.415 . S
C794 H770 0.950 . S
C794 C789 1.363 . S
C794 C793 1.415 . S
C795 H771 0.951 . S
C795 C796 1.366 . S
C795 C797 1.388 . S
C796 C795 1.366 . S
C796 C800 1.385 . S
C797 H772 0.951 . S
C797 C795 1.388 . S
C797 C798 1.366 . S
C798 C797 1.366 . S
C798 C799 1.414 . S
C798 C801 1.499 . S
C799 H773 0.950 . S
C799 C798 1.414 . S
C799 C800 1.374 . S
C800 H774 0.950 . S
C800 C796 1.385 . S
C800 C799 1.374 . S
C801 C798 1.499 . S
C801 C802 1.373 . S
C801 C803 1.389 1_554 S
C802 H775 0.950 . S
C802 C788 1.377 . S
C802 C801 1.373 . S
C803 C787 1.377 . S
C803 C801 1.389 1_556 S
C803 C804 1.524 . S
C804 C803 1.524 . S
C804 C805 1.397 . S
C804 C809 1.363 . S
C805 H776 0.950 . S
C805 C804 1.397 . S
C805 C806 1.334 . S
C806 H777 0.950 . S
C806 C805 1.334 . S
C806 C807 1.287 . S
C807 C806 1.287 . S
C807 C808 1.524 . S
C807 H810 0.999 . S
C808 H778 0.950 . S
C808 C807 1.524 . S
C808 C809 1.415 . S
C809 H779 0.950 . S
C809 C804 1.363 . S
C809 C808 1.415 . S
H810 C807 0.999 . S
H811 C792 0.913 . S
H812 C830 0.951 . S
H813 C832 0.951 . S
H814 C834 0.950 . S
H815 C835 0.950 . S
H816 C837 0.950 . S
H817 C840 0.950 . S
H818 C841 0.950 . S
H819 C843 0.950 . S
H820 C844 0.950 . S
H821 C845 0.951 . S
H822 C847 0.951 . S
H823 C849 0.950 . S
H824 C850 0.950 . S
H825 C852 0.950 . S
H826 C855 0.950 . S
H827 C856 0.950 . S
H828 C858 0.950 . S
H829 C859 0.950 . S
C830 H812 0.951 . S
C830 C831 1.366 . S
C830 C832 1.388 . S
C831 C830 1.366 . S
C831 C835 1.385 . S
C832 H813 0.951 . S
C832 C830 1.388 . S
C832 C833 1.366 . S
C833 C832 1.366 . S
C833 C834 1.414 . S
C833 C836 1.499 . S
C834 H814 0.950 . S
C834 C833 1.414 . S
C834 C835 1.374 . S
C835 H815 0.950 . S
C835 C831 1.385 . S
C835 C834 1.374 . S
C836 C833 1.499 . S
C836 C837 1.373 . S
C836 C838 1.389 . S
C837 H816 0.950 . S
C837 C836 1.373 . S
C837 C853 1.377 . S
C838 C836 1.389 . S
C838 C839 1.524 . S
C838 C852 1.377 . S
C839 C838 1.524 . S
C839 C840 1.397 . S
C839 C844 1.363 . S
C840 H817 0.950 . S
C840 C839 1.397 . S
C840 C841 1.334 1_554 S
C841 H818 0.950 . S
C841 C840 1.334 1_556 S
C841 C842 1.287 . S
C842 C841 1.287 . S
C842 C843 1.524 1_556 S
C842 H861 0.913 . S
C843 H819 0.950 . S
C843 C842 1.524 1_554 S
C843 C844 1.415 . S
C844 H820 0.950 . S
C844 C839 1.363 . S
C844 C843 1.415 . S
C845 H821 0.951 . S
C845 C846 1.366 . S
C845 C847 1.388 . S
C846 C845 1.366 . S
C846 C850 1.385 . S
C847 H822 0.951 . S
C847 C845 1.388 . S
C847 C848 1.366 . S
C848 C847 1.366 . S
C848 C849 1.414 . S
C848 C851 1.499 . S
C849 H823 0.950 . S
C849 C848 1.414 . S
C849 C850 1.374 . S
C850 H824 0.950 . S
C850 C846 1.385 . S
C850 C849 1.374 . S
C851 C848 1.499 . S
C851 C852 1.373 . S
C851 C853 1.389 . S
C852 H825 0.950 . S
C852 C838 1.377 . S
C852 C851 1.373 . S
C853 C837 1.377 . S
C853 C851 1.389 . S
C853 C854 1.524 . S
C854 C853 1.524 . S
C854 C855 1.397 . S
C854 C859 1.363 . S
C855 H826 0.950 . S
C855 C854 1.397 . S
C855 C856 1.334 . S
C856 H827 0.950 . S
C856 C855 1.334 . S
C856 C857 1.287 . S
C857 C856 1.287 . S
C857 C858 1.524 . S
C857 H860 0.999 . S
C858 H828 0.950 . S
C858 C857 1.524 . S
C858 C859 1.415 . S
C859 H829 0.950 . S
C859 C854 1.363 . S
C859 C858 1.415 . S
H860 C857 0.999 . S
H861 C842 0.913 . S
H862 C880 0.951 . S
H863 C882 0.951 . S
H864 C884 0.950 . S
H865 C885 0.950 . S
H866 C887 0.950 . S
H867 C890 0.950 . S
H868 C891 0.950 . S
H869 C893 0.950 . S
H870 C894 0.950 . S
H871 C895 0.951 . S
H872 C897 0.951 . S
H873 C899 0.950 . S
H874 C900 0.950 . S
H875 C902 0.950 . S
H876 C905 0.950 . S
H877 C906 0.950 . S
H878 C908 0.950 . S
H879 C909 0.950 . S
C880 H862 0.951 . S
C880 C881 1.366 . S
C880 C882 1.388 . S
C881 C880 1.366 . S
C881 C885 1.385 . S
C882 H863 0.951 . S
C882 C880 1.388 . S
C882 C883 1.366 . S
C883 C882 1.366 . S
C883 C884 1.414 . S
C883 C886 1.499 . S
C884 H864 0.950 . S
C884 C883 1.414 . S
C884 C885 1.374 . S
C885 H865 0.950 . S
C885 C881 1.385 . S
C885 C884 1.374 . S
C886 C883 1.499 . S
C886 C887 1.373 . S
C886 C888 1.389 . S
C887 H866 0.950 . S
C887 C886 1.373 . S
C887 C903 1.377 . S
C888 C886 1.389 . S
C888 C889 1.524 . S
C888 C902 1.377 . S
C889 C888 1.524 . S
C889 C890 1.397 . S
C889 C894 1.363 . S
C890 H867 0.950 . S
C890 C889 1.397 . S
C890 C891 1.334 . S
C891 H868 0.950 . S
C891 C890 1.334 . S
C891 C892 1.287 . S
C892 C891 1.287 . S
C892 C893 1.524 . S
C892 H911 0.913 . S
C893 H869 0.950 . S
C893 C892 1.524 . S
C893 C894 1.415 . S
C894 H870 0.950 . S
C894 C889 1.363 . S
C894 C893 1.415 . S
C895 H871 0.951 . S
C895 C896 1.366 . S
C895 C897 1.388 . S
C896 C895 1.366 . S
C896 C900 1.385 . S
C897 H872 0.951 . S
C897 C895 1.388 . S
C897 C898 1.366 . S
C898 C897 1.366 . S
C898 C899 1.414 . S
C898 C901 1.499 . S
C899 H873 0.950 . S
C899 C898 1.414 . S
C899 C900 1.374 . S
C900 H874 0.950 . S
C900 C896 1.385 . S
C900 C899 1.374 . S
C901 C898 1.499 . S
C901 C902 1.373 . S
C901 C903 1.389 . S
C902 H875 0.950 . S
C902 C888 1.377 . S
C902 C901 1.373 . S
C903 C887 1.377 . S
C903 C901 1.389 . S
C903 C904 1.524 . S
C904 C903 1.524 . S
C904 C905 1.397 . S
C904 C909 1.363 . S
C905 H876 0.950 . S
C905 C904 1.397 . S
C905 C906 1.334 . S
C906 H877 0.950 . S
C906 C905 1.334 . S
C906 C907 1.287 . S
C907 C906 1.287 . S
C907 C908 1.524 . S
C907 H910 0.999 . S
C908 H878 0.950 . S
C908 C907 1.524 . S
C908 C909 1.415 . S
C909 H879 0.950 . S
C909 C904 1.363 . S
C909 C908 1.415 . S
H910 C907 0.999 . S
H911 C892 0.913 . S
C131 C14 1.423 . S
C146 C0 1.423 . S
C181 C25 1.413 . S
C196 C39 1.412 1_554 S
C231 C42 1.423 . S
C246 C28 1.423 . S
C281 C53 1.413 1_556 S
C296 C11 1.413 . S
C331 C56 1.423 . S
C346 C70 1.423 . S
C381 C81 1.413 1_556 S
C396 C95 1.413 . S
C431 C84 1.423 . S
C446 C98 1.423 . S
C481 C67 1.413 1_554 S
C496 C109 1.413 . S
C531 C5 1.437 . S
C546 C103 1.437 . S
C581 C65 1.451 . S
C596 C23 1.451 . S
C631 C75 1.437 . S
C646 C33 1.437 . S
C681 C51 1.451 . S
C696 C93 1.451 . S
C731 C37 1.451 . S
C746 C107 1.451 . S
C781 C61 1.437 . S
C796 C47 1.437 . S
C831 C79 1.451 . S
C846 C9 1.451 . S
C881 C19 1.436 . S
C896 C89 1.437 . S
