# Generated by pormake.
# Topology rob, (6)-cn, num edge types: 1
# Building blocks:
#     Node 0, Type 0, BuildingBlock: JUFBIX_clean_sbu_0, # of connection points: 6
#     Node 1, Type 0, BuildingBlock: JUFBIX_clean_sbu_0, # of connection points: 6
#     Node 2, Type 0, BuildingBlock: JUFBIX_clean_sbu_0, # of connection points: 6
#     Node 3, Type 0, BuildingBlock: JUFBIX_clean_sbu_0, # of connection points: 6
#     Edge 4, Type (0, 0), BuildingBlock: UVAHIK_clean_linker_0, # of connection points: 2
#     Edge 5, Type (0, 0), BuildingBlock: UVAHIK_clean_linker_0, # of connection points: 2
#     Edge 6, Type (0, 0), BuildingBlock: UVAHIK_clean_linker_0, # of connection points: 2
#     Edge 7, Type (0, 0), BuildingBlock: UVAHIK_clean_linker_0, # of connection points: 2
#     Edge 8, Type (0, 0), BuildingBlock: UVAHIK_clean_linker_0, # of connection points: 2
#     Edge 9, Type (0, 0), BuildingBlock: UVAHIK_clean_linker_0, # of connection points: 2
#     Edge 10, Type (0, 0), BuildingBlock: UVAHIK_clean_linker_0, # of connection points: 2
#     Edge 11, Type (0, 0), BuildingBlock: UVAHIK_clean_linker_0, # of connection points: 2
#     Edge 12, Type (0, 0), BuildingBlock: UVAHIK_clean_linker_0, # of connection points: 2
#     Edge 13, Type (0, 0), BuildingBlock: UVAHIK_clean_linker_0, # of connection points: 2
#     Edge 14, Type (0, 0), BuildingBlock: UVAHIK_clean_linker_0, # of connection points: 2
#     Edge 15, Type (0, 0), BuildingBlock: UVAHIK_clean_linker_0, # of connection points: 2
# Relax obj value: 0.337
# Max RMSD: 0.250
# Mean RMSD: 0.250
data_MOF--net-rob--node1-JUFBIX_clean_sbu_0--edge1-UVAHIK_clean_linker_0
_symmetry_space_group_name_H-M    P1
_symmetry_Int_Tables_number       1
_symmetry_cell_setting            triclinic
loop_
_symmetry_equiv_pos_as_xyz
'x, y, z'
_cell_length_a     21.540745
_cell_length_b     32.42437
_cell_length_c     35.402031
_cell_angle_alpha  94.826186
_cell_angle_beta   89.969374
_cell_angle_gamma 90.000792
loop_
_atom_site_label
_atom_site_type_symbol
_atom_site_fract_x
_atom_site_fract_y
_atom_site_fract_z
_atom_type_partial_charge
Co0 Co 0.20861 0.26615 0.98257 0.0
C1 C 0.18502 0.185 0.00031 0.0
Co2 Co 0.28746 0.23488 0.00823 0.0
C3 C 0.1276 0.30114 0.92765 0.0
C4 C 0.08386 0.29643 0.98136 0.0
N5 N 0.13856 0.29035 0.96308 0.0
N6 N 0.06819 0.3132 0.92313 0.0
C7 C 0.0408 0.31056 0.95703 0.0
H8 H 0.16143 0.2979 0.90499 0.0
H9 H 0.07465 0.28921 0.01008 0.0
C10 C 0.31125 0.31595 0.99049 0.0
N11 N 0.35668 0.21055 0.02831 0.0
C12 C 0.3642 0.199 0.06377 0.0
C13 C 0.41285 0.20478 0.01182 0.0
N14 N 0.42293 0.1869 0.07027 0.0
C15 C 0.45356 0.19016 0.03747 0.0
C16 C 0.28278 0.22339 0.92934 0.0
O17 O 0.25535 0.31525 0.97882 0.0
O18 O 0.33378 0.28402 0.00395 0.0
O19 O 0.31225 0.21464 0.95867 0.0
O20 O 0.2348 0.24614 0.93313 0.0
O21 O 0.24066 0.18603 0.01231 0.0
H22 H 0.42443 0.21264 0.98357 0.0
H23 H 0.32774 0.20071 0.08487 0.0
O24 O 0.16249 0.21673 0.98651 0.0
O25 O 0.18376 0.28594 0.032 0.0
O26 O 0.26158 0.25542 0.05773 0.0
C27 C 0.21323 0.27774 0.0614 0.0
H28 H 0.99247 0.317 0.96349 0.0
H29 H 0.50274 0.18489 0.03305 0.0
Co30 Co 0.71409 0.76483 0.98219 0.0
C31 C 0.68702 0.68407 -0.00052 0.0
Co32 Co 0.79155 0.73202 0.00762 0.0
C33 C 0.63864 0.79979 0.92559 0.0
C34 C 0.59087 0.79934 0.97848 0.0
N35 N 0.64617 0.79048 0.96175 0.0
N36 N 0.58074 0.81322 0.91887 0.0
C37 C 0.55067 0.81342 0.95223 0.0
H38 H 0.67417 0.79526 0.90405 0.0
H39 H 0.57921 0.79376 0.00733 0.0
C40 C 0.81833 0.81294 0.99029 0.0
N41 N 0.86005 0.70677 0.02734 0.0
C42 C 0.86792 0.69216 0.0616 0.0
C43 C 0.91644 0.70373 0.01086 0.0
N44 N 0.92738 0.6806 0.06742 0.0
C45 C 0.95765 0.68773 0.03522 0.0
C46 C 0.78731 0.7206 0.92899 0.0
O47 O 0.76266 0.81289 0.97844 0.0
O48 O 0.83971 0.78074 0.00384 0.0
O49 O 0.81646 0.71157 0.95826 0.0
O50 O 0.74018 0.74401 0.93287 0.0
O51 O 0.74285 0.68382 0.0112 0.0
H52 H 0.92779 0.71451 0.9836 0.0
H53 H 0.83106 0.69162 0.08227 0.0
O54 O 0.66574 0.71642 0.9861 0.0
O55 O 0.68934 0.78521 0.03164 0.0
O56 O 0.76562 0.75244 0.05707 0.0
C57 C 0.7183 0.77582 0.06094 0.0
H58 H 0.50191 0.82034 0.95667 0.0
H59 H 0.00695 0.68423 0.03019 0.0
Co60 Co 0.20544 0.73174 0.50657 0.0
C61 C 0.18101 0.81302 0.49067 0.0
Co62 Co 0.28443 0.76358 0.48165 0.0
C63 C 0.13158 0.69334 0.56196 0.0
C64 C 0.08023 0.702 0.51156 0.0
N65 N 0.13729 0.70669 0.52705 0.0
N66 N 0.07313 0.68112 0.56911 0.0
C67 C 0.0408 0.68619 0.53728 0.0
H68 H 0.16911 0.69394 0.58229 0.0
H69 H 0.0672 0.71145 0.48409 0.0
C70 C 0.30913 0.68241 0.49755 0.0
N71 N 0.35283 0.78859 0.46114 0.0
C72 C 0.36039 0.7993 0.42539 0.0
C73 C 0.40867 0.79557 0.47774 0.0
N74 N 0.41881 0.81209 0.41887 0.0
C75 C 0.44916 0.8101 0.45192 0.0
C76 C 0.28075 0.77365 0.56024 0.0
O77 O 0.25297 0.6826 0.50874 0.0
O78 O 0.33175 0.71486 0.48513 0.0
O79 O 0.31011 0.78357 0.53126 0.0
O80 O 0.23312 0.75076 0.55574 0.0
O81 O 0.23652 0.81219 0.47835 0.0
H82 H 0.42034 0.78854 0.50621 0.0
H83 H 0.32428 0.79648 0.40411 0.0
O84 O 0.1587 0.78106 0.50421 0.0
O85 O 0.17846 0.71306 0.45743 0.0
O86 O 0.25762 0.74303 0.43223 0.0
C87 C 0.20855 0.7214 0.42826 0.0
H88 H 0.99134 0.68146 0.53371 0.0
H89 H 0.49812 0.81615 0.45646 0.0
Co90 Co 0.71133 0.23432 0.50811 0.0
C91 C 0.68617 0.31505 0.49011 0.0
Co92 Co 0.78985 0.26613 0.48261 0.0
C93 C 0.63516 0.19797 0.56362 0.0
C94 C 0.58644 0.20329 0.51165 0.0
N95 N 0.64252 0.20945 0.52813 0.0
N96 N 0.57658 0.18558 0.57018 0.0
C97 C 0.54592 0.18853 0.53737 0.0
H98 H 0.67157 0.19999 0.58472 0.0
H99 H 0.57476 0.21103 0.48339 0.0
C100 C 0.81481 0.18529 0.50058 0.0
N101 N 0.85949 0.29089 0.46319 0.0
C102 C 0.87033 0.30167 0.42775 0.0
C103 C 0.914 0.29756 0.48153 0.0
N104 N 0.92949 0.31428 0.42327 0.0
C105 C 0.95683 0.31202 0.45721 0.0
C106 C 0.78457 0.27787 0.5614 0.0
O107 O 0.75904 0.18591 0.51239 0.0
O108 O 0.83692 0.21714 0.48676 0.0
O109 O 0.8141 0.28625 0.53206 0.0
O110 O 0.73661 0.2552 0.55763 0.0
O111 O 0.7422 0.31478 0.47865 0.0
H112 H 0.92326 0.29052 0.5103 0.0
H113 H 0.83665 0.29803 0.40504 0.0
O114 O 0.66409 0.28301 0.50361 0.0
O115 O 0.68713 0.21375 0.45854 0.0
O116 O 0.76427 0.24578 0.43316 0.0
C117 C 0.71666 0.2227 0.42927 0.0
H118 H 0.49679 0.18301 0.53298 0.0
H119 H 0.005 0.31892 0.46371 0.0
C120 C 0.58588 0.64752 0.98703 0.0
C121 C 0.6474 0.64687 0.00022 0.0
C122 C 0.5489 0.6121 0.98628 0.0
C123 C 0.53425 0.51138 0.02691 0.0
H124 H 0.43109 0.48316 0.93871 0.0
C125 C 0.4112 0.35387 0.00282 0.0
C126 C 0.34958 0.35373 0.98972 0.0
C127 C 0.44702 0.38979 0.00372 0.0
C128 C 0.45909 0.49086 0.96372 0.0
H129 H 0.7181 0.6086 0.0234 0.0
H130 H 0.6536 0.5466 0.02182 0.0
H131 H 0.49457 0.54564 0.94169 0.0
H132 H 0.27753 0.39114 0.96681 0.0
H133 H 0.34015 0.45409 0.96861 0.0
H134 H 0.49889 0.45658 0.0489 0.0
C135 C 0.63381 0.57468 0.01239 0.0
C136 C 0.49547 0.52666 0.96544 0.0
C137 C 0.67086 0.61014 0.01314 0.0
C138 C 0.32488 0.39021 0.977 0.0
C139 C 0.36082 0.42622 0.97789 0.0
C140 C 0.4979 0.4756 0.02518 0.0
C141 C 0.57253 0.57519 -0.00129 0.0
C142 C 0.53355 0.53729 -0.00297 0.0
C143 C 0.42214 0.42647 0.99156 0.0
C144 C 0.46005 0.46485 0.99352 0.0
H145 H 0.56622 0.67536 0.97702 0.0
H146 H 0.50161 0.61371 0.97614 0.0
H147 H 0.5623 0.51903 0.0519 0.0
H148 H 0.43183 0.32625 0.01266 0.0
H149 H 0.49441 0.38876 0.0138 0.0
C150 C 0.40962 0.64511 0.48525 0.0
C151 C 0.3478 0.64475 0.49798 0.0
C152 C 0.44602 0.60945 0.48449 0.0
C153 C 0.43481 0.49591 0.48207 0.0
H154 H 0.60756 0.50353 0.51273 0.0
C155 C 0.58516 0.35204 0.50142 0.0
C156 C 0.64709 0.35242 0.48887 0.0
C157 C 0.54853 0.38756 0.50168 0.0
C158 C 0.55962 0.50097 0.50362 0.0
H159 H 0.27591 0.60673 0.5203 0.0
H160 H 0.33983 0.54442 0.5193 0.0
H161 H 0.54368 0.56581 0.51614 0.0
H162 H 0.71882 0.39031 0.4662 0.0
H163 H 0.65453 0.45237 0.46638 0.0
H164 H 0.45076 0.43105 0.4696 0.0
C165 C 0.35981 0.57224 0.50946 0.0
C166 C 0.52298 0.53663 0.50564 0.0
C167 C 0.32333 0.60799 0.51026 0.0
C168 C 0.67135 0.38903 0.47613 0.0
C169 C 0.63465 0.42464 0.47645 0.0
C170 C 0.47145 0.46024 0.48006 0.0
C171 C 0.42152 0.57256 0.49644 0.0
C172 C 0.46016 0.53452 0.49488 0.0
C173 C 0.57292 0.42434 0.48942 0.0
C174 C 0.53427 0.46236 0.49083 0.0
H175 H 0.42992 0.67288 0.47549 0.0
H176 H 0.49308 0.61061 0.47385 0.0
H177 H 0.38686 0.49335 0.47299 0.0
H178 H 0.565 0.32438 0.51148 0.0
H179 H 0.50143 0.38642 0.51227 0.0
C180 C 0.08605 0.14606 0.98724 0.0
C181 C 0.14727 0.14697 0.00102 0.0
C182 C 0.05106 0.10976 0.98625 0.0
C183 C 0.04049 0.00892 0.02696 0.0
H184 H 0.94086 0.97852 0.93769 0.0
C185 C 0.9186 0.85046 0.00336 0.0
C186 C 0.85739 0.85038 0.98958 0.0
C187 C 0.95479 0.88626 0.00419 0.0
C188 C 0.96794 0.98678 0.96297 0.0
H189 H 0.21945 0.11058 0.0251 0.0
H190 H 0.15835 0.04705 0.02314 0.0
H191 H 0.00217 0.04191 0.94101 0.0
H192 H 0.78645 0.88772 0.96544 0.0
H193 H 0.84952 0.95029 0.96714 0.0
H194 H 0.00614 0.95381 0.04893 0.0
C195 C 0.1373 0.07457 0.01339 0.0
C196 C 0.00304 0.02311 0.96489 0.0
C197 C 0.17239 0.11092 0.01436 0.0
C198 C 0.83347 0.88672 0.97615 0.0
C199 C 0.86972 0.92253 0.97696 0.0
C200 C 0.00536 0.97258 0.02503 0.0
C201 C 0.07641 0.0735 -0.00097 0.0
C202 C 0.03958 0.03467 -0.00305 0.0
C203 C 0.93064 0.92278 0.99123 0.0
C204 C 0.96859 0.96114 0.99305 0.0
H205 H 0.06516 0.17334 0.9769 0.0
H206 H 0.00395 0.11015 0.9756 0.0
H207 H 0.0675 0.01724 0.05225 0.0
H208 H 0.93855 0.82293 0.01379 0.0
H209 H 0.00186 0.88527 0.01482 0.0
C210 C 0.91452 0.147 0.48796 0.0
C211 C 0.85321 0.14759 0.50162 0.0
C212 C 0.95015 0.11099 0.48739 0.0
C213 C 0.93543 0.99779 0.48692 0.0
H214 H 0.10979 0.00299 0.51417 0.0
C215 C 0.08192 0.85168 0.50434 0.0
C216 C 0.14305 0.851 0.49036 0.0
C217 C 0.04653 0.88782 0.50533 0.0
C218 C 0.06134 0.00108 0.50604 0.0
H219 H 0.78159 0.11099 0.52604 0.0
H220 H 0.84411 0.04817 0.52537 0.0
H221 H 0.0482 0.06631 0.51791 0.0
H222 H 0.21467 0.88763 0.46599 0.0
H223 H 0.15256 0.9507 0.4674 0.0
H224 H 0.94856 0.93257 0.47503 0.0
C225 C 0.86428 0.07546 0.51461 0.0
C226 C 0.02603 0.03735 0.50824 0.0
C227 C 0.82861 0.11152 0.51522 0.0
C228 C 0.16778 0.88716 0.47702 0.0
C229 C 0.13235 0.92336 0.47805 0.0
C230 C 0.97073 0.96153 0.48473 0.0
C231 C 0.92532 0.07472 0.50046 0.0
C232 C 0.96268 0.03611 0.4987 0.0
C233 C 0.07142 0.92414 0.49238 0.0
C234 C 0.03409 0.96276 0.49426 0.0
H235 H 0.93489 0.17424 0.47721 0.0
H236 H 0.99675 0.11133 0.47591 0.0
H237 H 0.887 0.99588 0.47876 0.0
H238 H 0.06147 0.82438 0.51492 0.0
H239 H 3e-05 0.88752 0.51695 0.0
C240 C 0.6468 0.17786 0.38708 0.0
C241 C 0.69358 0.2081 0.39119 0.0
C242 C 0.62089 0.16659 0.35157 0.0
C243 C 0.64089 0.17645 0.24807 0.0
H244 H 0.46159 0.16583 0.24716 0.0
C245 C 0.50349 0.15461 0.10785 0.0
C246 C 0.44997 0.17919 0.10621 0.0
C247 C 0.53311 0.15041 0.14246 0.0
C248 C 0.51167 0.16878 0.24688 0.0
H249 H 0.75138 0.24926 0.36113 0.0
H250 H 0.70498 0.23057 0.29936 0.0
H251 H 0.51626 0.17358 0.3073 0.0
H252 H 0.38519 0.2182 0.13981 0.0
H253 H 0.43678 0.21126 0.19979 0.0
H254 H 0.63574 0.17409 0.1876 0.0
C255 C 0.68907 0.21485 0.32337 0.0
C256 C 0.54321 0.17266 0.28142 0.0
C257 C 0.71546 0.2258 0.35885 0.0
C258 C 0.42566 0.19845 0.14007 0.0
C259 C 0.45535 0.19444 0.17457 0.0
C260 C 0.60925 0.17287 0.21349 0.0
C261 C 0.64066 0.18564 0.31941 0.0
C262 C 0.60813 0.17731 0.28249 0.0
C263 C 0.50993 0.17086 0.17615 0.0
C264 C 0.54412 0.16984 0.21253 0.0
H265 H 0.62942 0.16331 0.41143 0.0
H266 H 0.58464 0.14337 0.34946 0.0
H267 H 0.69097 0.17931 0.24781 0.0
H268 H 0.52282 0.13898 0.08229 0.0
H269 H 0.5745 0.13148 0.14276 0.0
C270 C 0.71618 0.77226 0.13132 0.0
C271 C 0.69473 0.79015 0.09899 0.0
C272 C 0.68909 0.78285 0.1667 0.0
C273 C 0.54205 0.82387 0.20789 0.0
H274 H 0.63303 0.82381 0.30232 0.0
C275 C 0.42275 0.79906 0.34917 0.0
C276 C 0.44611 0.8193 0.38285 0.0
C277 C 0.45293 0.80259 0.31471 0.0
C278 C 0.60697 0.8246 0.27624 0.0
H279 H 0.63064 0.83493 0.07869 0.0
H280 H 0.58458 0.85416 0.14045 0.0
H281 H 0.68936 0.81849 0.2424 0.0
H282 H 0.51771 0.86074 0.40645 0.0
H283 H 0.57025 0.86729 0.34608 0.0
H284 H 0.45976 0.83028 0.24165 0.0
C285 C 0.62106 0.8311 0.13841 0.0
C286 C 0.63924 0.82099 0.24185 0.0
C287 C 0.64771 0.82024 0.10302 0.0
C288 C 0.49912 0.84434 0.38105 0.0
C289 C 0.52925 0.84801 0.3465 0.0
C290 C 0.50987 0.82771 0.24223 0.0
C291 C 0.64036 0.81183 0.17053 0.0
C292 C 0.60706 0.81978 0.20723 0.0
C293 C 0.50706 0.8266 0.31302 0.0
C294 C 0.54179 0.82723 0.27679 0.0
H295 H 0.75229 0.74892 0.12911 0.0
H296 H 0.70469 0.76703 0.19071 0.0
H297 H 0.51558 0.82264 0.18182 0.0
H298 H 0.38271 0.77896 0.34957 0.0
H299 H 0.43511 0.78509 0.28964 0.0
C300 C 0.50253 0.8444 0.87883 0.0
C301 C 0.55312 0.81762 0.88243 0.0
C302 C 0.47164 0.84525 0.84414 0.0
C303 C 0.43833 0.85138 0.75915 0.0
H304 H 0.38911 0.74269 0.71499 0.0
C305 C 0.35434 0.81369 0.60413 0.0
C306 C 0.30385 0.78635 0.59874 0.0
C307 C 0.37981 0.82251 0.64021 0.0
C308 C 0.40208 0.77326 0.72713 0.0
H309 H 0.61171 0.77137 0.85228 0.0
H310 H 0.55777 0.77279 0.79203 0.0
H311 H 0.44619 0.74906 0.77465 0.0
H312 H 0.2387 0.74829 0.6272 0.0
H313 H 0.28381 0.76331 0.69 0.0
H314 H 0.395 0.87538 0.71096 0.0
C315 C 0.54218 0.79318 0.81598 0.0
C316 C 0.4352 0.77686 0.76103 0.0
C317 C 0.57341 0.79269 0.8504 0.0
C318 C 0.27781 0.76931 0.63035 0.0
C319 C 0.30366 0.77779 0.66628 0.0
C320 C 0.40585 0.84771 0.72479 0.0
C321 C 0.49036 0.81886 0.81272 0.0
C322 C 0.45396 0.81587 0.77723 0.0
C323 C 0.35562 0.80381 0.67141 0.0
C324 C 0.38754 0.80857 0.7085 0.0
H325 H 0.48626 0.86409 0.90303 0.0
H326 H 0.43168 0.86526 0.84227 0.0
H327 H 0.45241 0.88177 0.77115 0.0
H328 H 0.37523 0.82746 0.58034 0.0
H329 H 0.4201 0.84249 0.64341 0.0
C330 C 0.49624 0.15335 0.60803 0.0
C331 C 0.54961 0.17805 0.60621 0.0
C332 C 0.46666 0.14935 0.64271 0.0
C333 C 0.48808 0.16859 0.74704 0.0
H334 H 0.30875 0.17894 0.74808 0.0
C335 C 0.35305 0.1786 0.88737 0.0
C336 C 0.30613 0.20876 0.89133 0.0
C337 C 0.37901 0.16714 0.8519 0.0
C338 C 0.35884 0.17613 0.7483 0.0
H339 H 0.61413 0.21748 0.63954 0.0
H340 H 0.56263 0.21087 0.69961 0.0
H341 H 0.36393 0.17324 0.68781 0.0
H342 H 0.24816 0.2496 0.86106 0.0
H343 H 0.29466 0.23059 0.79934 0.0
H344 H 0.48355 0.17392 0.80746 0.0
C345 C 0.54416 0.19381 0.6745 0.0
C346 C 0.39045 0.17227 0.71369 0.0
C347 C 0.5738 0.19763 0.63994 0.0
C348 C 0.2842 0.22621 0.8589 0.0
C349 C 0.31064 0.21507 0.82344 0.0
C350 C 0.45657 0.17274 0.7816 0.0
C351 C 0.48973 0.17011 0.67627 0.0
C352 C 0.45558 0.16931 0.71269 0.0
C353 C 0.35915 0.18592 0.81962 0.0
C354 C 0.39165 0.17734 0.78271 0.0
H355 H 0.477 0.13748 0.58257 0.0
H356 H 0.42537 0.13034 0.64316 0.0
H357 H 0.53816 0.1657 0.74729 0.0
H358 H 0.37046 0.16424 0.9118 0.0
H359 H 0.41533 0.14397 0.84989 0.0
C360 C 0.92352 0.67627 0.13715 0.0
C361 C 0.95544 0.66982 0.10239 0.0
C362 C 0.95391 0.67143 0.17136 0.0
C363 C 0.10347 0.68821 0.21272 0.0
H364 H 0.04266 0.62897 0.29587 0.0
C365 C 0.22394 0.70568 0.35839 0.0
C366 C 0.185 0.70726 0.39027 0.0
C367 C 0.20042 0.69336 0.32239 0.0
C368 C 0.05998 0.64609 0.2731 0.0
H369 H 0.04329 0.64917 0.07692 0.0
H370 H 0.09644 0.64279 0.13665 0.0
H371 H 0.99044 0.62059 0.23449 0.0
H372 H 0.09112 0.69719 0.40963 0.0
H373 H 0.04948 0.67789 0.3471 0.0
H374 H 0.17015 0.71607 0.25136 0.0
C375 C 0.04797 0.65178 0.13708 0.0
C376 C 0.0303 0.64093 0.23794 0.0
C377 C 0.0174 0.65584 0.10286 0.0
C378 C 0.1224 0.69597 0.38559 0.0
C379 C 0.09863 0.68449 0.34963 0.0
C380 C 0.13233 0.69409 0.24803 0.0
C381 C 0.01689 0.66051 0.17157 0.0
C382 C 0.05143 0.66234 0.20765 0.0
C383 C 0.13716 0.68319 0.31745 0.0
C384 C 0.11038 0.67363 0.27892 0.0
H385 H 0.87598 0.68689 0.13839 0.0
H386 H 0.92909 0.67846 0.19775 0.0
H387 H 0.12008 0.70541 0.18978 0.0
H388 H 0.27257 0.71389 0.36127 0.0
H389 H 0.23187 0.692 0.29846 0.0
C390 C 0.02278 0.31171 0.38274 0.0
C391 C 0.95981 0.32182 0.38826 0.0
C392 C 0.05128 0.31578 0.3479 0.0
C393 C 0.01285 0.31729 0.24702 0.0
H394 H 0.18743 0.34453 0.23852 0.0
C395 C 0.13379 0.31536 0.10245 0.0
C396 C 0.18919 0.29239 0.09924 0.0
C397 C 0.1076 0.32626 0.1379 0.0
C398 C 0.13867 0.33684 0.24053 0.0
H399 H 0.87808 0.34591 0.36212 0.0
H400 H 0.92811 0.35361 0.30112 0.0
H401 H 0.13686 0.35213 0.30049 0.0
H402 H 0.26206 0.26444 0.13081 0.0
H403 H 0.21603 0.28352 0.19295 0.0
H404 H 0.01484 0.30161 0.18716 0.0
C405 C 0.95511 0.34173 0.32361 0.0
C406 C 0.10969 0.34111 0.27596 0.0
C407 C 0.92643 0.33738 0.3585 0.0
C408 C 0.21924 0.28204 0.13236 0.0
C409 C 0.1931 0.29315 0.16793 0.0
C410 C 0.04168 0.31334 0.21161 0.0
C411 C 0.01763 0.33031 0.31773 0.0
C412 C 0.04673 0.33058 0.27971 0.0
C413 C 0.13636 0.31462 0.17094 0.0
C414 C 0.10511 0.32237 0.20811 0.0
H415 H 0.04959 0.29895 0.40482 0.0
H416 H 0.09908 0.3059 0.34423 0.0
H417 H 0.96463 0.30823 0.24889 0.0
H418 H 0.10969 0.32416 0.07751 0.0
H419 H 0.06427 0.34328 0.13945 0.0
C420 C 0.86324 0.316 0.60262 0.0
C421 C 0.80826 0.2926 0.59929 0.0
C422 C 0.8893 0.32681 0.63811 0.0
C423 C 0.85842 0.33606 0.74082 0.0
H424 H 0.03294 0.30857 0.74866 0.0
C425 C 0.97503 0.31007 0.88254 0.0
C426 C 0.03781 0.32067 0.88815 0.0
C427 C 0.94644 0.31426 0.84777 0.0
C428 C 0.98458 0.31731 0.74694 0.0
H429 H 0.73593 0.26384 0.63071 0.0
H430 H 0.78173 0.28277 0.6929 0.0
H431 H 0.98265 0.30236 0.68698 0.0
H432 H 0.11909 0.34565 0.8622 0.0
H433 H 0.0689 0.35354 0.80131 0.0
H434 H 0.86017 0.3506 0.80088 0.0
C435 C 0.80444 0.2928 0.66795 0.0
C436 C 0.95569 0.31361 0.71156 0.0
C437 C 0.77842 0.28177 0.63235 0.0
C438 C 0.0709 0.33675 0.85851 0.0
C439 C 0.04213 0.34121 0.82369 0.0
C440 C 0.88744 0.34008 0.77622 0.0
C441 C 0.86083 0.31466 0.67107 0.0
C442 C 0.89211 0.32223 0.70824 0.0
C443 C 0.97979 0.32939 0.81774 0.0
C444 C 0.95058 0.32994 0.77979 0.0
H445 H 0.88715 0.32517 0.57774 0.0
H446 H 0.93235 0.34415 0.63974 0.0
H447 H 0.80953 0.34343 0.73895 0.0
H448 H 0.94845 0.2969 0.9045 0.0
H449 H 0.89881 0.30404 0.84403 0.0
C450 C 0.0734 0.69043 0.63899 0.0
C451 C 0.0477 0.67219 0.60515 0.0
C452 C 0.0446 0.6859 0.67368 0.0
C453 C 0.89075 0.66598 0.71322 0.0
H454 H 0.9847 0.66598 0.80656 0.0
C455 C 0.78823 0.72274 0.8585 0.0
C456 C 0.80981 0.70526 0.891 0.0
C457 C 0.8138 0.71071 0.823 0.0
C458 C 0.95746 0.66523 0.78082 0.0
H459 H 0.97367 0.63296 0.58136 0.0
H460 H 0.92356 0.6245 0.64217 0.0
H461 H 0.03846 0.65681 0.74614 0.0
H462 H 0.87243 0.65978 0.91159 0.0
H463 H 0.91571 0.63796 0.8496 0.0
H464 H 0.80964 0.67404 0.74796 0.0
C465 C 0.96529 0.64308 0.64174 0.0
C466 C 0.98849 0.66053 0.74612 0.0
C467 C 0.99401 0.64782 0.60695 0.0
C468 C 0.85539 0.6742 0.88709 0.0
C469 C 0.88042 0.66183 0.85157 0.0
C470 C 0.8596 0.67034 0.74796 0.0
C471 C 0.98958 0.66279 0.67543 0.0
C472 C 0.95575 0.66196 0.71194 0.0
C473 C 0.861 0.68061 0.8192 0.0
C474 C 0.89276 0.67106 0.7822 0.0
H475 H 0.1141 0.70995 0.63861 0.0
H476 H 0.06405 0.70214 0.69892 0.0
H477 H 0.86405 0.66752 0.68747 0.0
H478 H 0.75317 0.74678 0.86063 0.0
H479 H 0.79823 0.72625 0.79882 0.0
loop_
_geom_bond_atom_site_label_1
_geom_bond_atom_site_label_2
_geom_bond_distance
_geom_bond_site_symmetry_2
_ccdc_geom_bond_type
Co0 N5 2.057 . S
Co0 O17 2.021 . S
Co0 O20 2.062 . S
Co0 O24 2.117 . S
Co0 O25 2.020 1_556 S
C1 O21 1.273 . S
C1 O24 1.244 1_554 S
Co2 N11 2.057 . S
Co2 O18 2.117 . S
Co2 O19 2.020 1_554 S
Co2 O21 2.021 . S
Co2 O26 2.062 . S
C3 N5 1.316 . S
C3 N6 1.347 . S
C3 H8 0.931 . S
C4 N5 1.375 . S
C4 C7 1.350 . S
C4 H9 0.930 . S
N5 Co0 2.057 . S
N5 C3 1.316 . S
N5 C4 1.375 . S
N6 C3 1.347 . S
N6 C7 1.373 . S
C7 C4 1.350 . S
C7 N6 1.373 . S
C7 H28 0.931 . S
H8 C3 0.931 . S
H9 C4 0.930 . S
C10 O17 1.269 . S
C10 O18 1.248 1_556 S
N11 Co2 2.057 . S
N11 C12 1.316 . S
N11 C13 1.375 . S
C12 N11 1.316 . S
C12 N14 1.347 . S
C12 H23 0.931 . S
C13 N11 1.375 . S
C13 C15 1.350 . S
C13 H22 0.930 . S
N14 C12 1.347 . S
N14 C15 1.373 . S
C15 C13 1.350 . S
C15 N14 1.373 . S
C15 H29 0.931 . S
C16 O19 1.256 . S
C16 O20 1.255 . S
O17 Co0 2.021 . S
O17 C10 1.269 . S
O18 Co2 2.117 . S
O18 C10 1.248 1_554 S
O19 Co2 2.020 1_556 S
O19 C16 1.256 . S
O20 Co0 2.062 . S
O20 C16 1.255 . S
O21 C1 1.273 . S
O21 Co2 2.021 . S
H22 C13 0.930 . S
H23 C12 0.931 . S
O24 Co0 2.117 . S
O24 C1 1.244 1_556 S
O25 Co0 2.020 1_554 S
O25 C27 1.256 . S
O26 Co2 2.062 . S
O26 C27 1.255 . S
C27 O25 1.256 . S
C27 O26 1.255 . S
H28 C7 0.931 . S
H29 C15 0.931 . S
Co30 N35 2.057 . S
Co30 O47 2.021 . S
Co30 O50 2.062 . S
Co30 O54 2.117 . S
Co30 O55 2.020 1_556 S
C31 O51 1.273 . S
C31 O54 1.244 1_554 S
Co32 N41 2.057 . S
Co32 O48 2.117 . S
Co32 O49 2.020 1_554 S
Co32 O51 2.021 . S
Co32 O56 2.062 . S
C33 N35 1.316 . S
C33 N36 1.347 . S
C33 H38 0.931 . S
C34 N35 1.375 . S
C34 C37 1.350 . S
C34 H39 0.930 . S
N35 Co30 2.057 . S
N35 C33 1.316 . S
N35 C34 1.375 . S
N36 C33 1.347 . S
N36 C37 1.373 . S
C37 C34 1.350 . S
C37 N36 1.373 . S
C37 H58 0.931 . S
H38 C33 0.931 . S
H39 C34 0.930 . S
C40 O47 1.269 . S
C40 O48 1.248 1_556 S
N41 Co32 2.057 . S
N41 C42 1.316 . S
N41 C43 1.375 . S
C42 N41 1.316 . S
C42 N44 1.347 . S
C42 H53 0.931 . S
C43 N41 1.375 . S
C43 C45 1.350 . S
C43 H52 0.930 . S
N44 C42 1.347 . S
N44 C45 1.373 . S
C45 C43 1.350 . S
C45 N44 1.373 . S
C45 H59 0.931 . S
C46 O49 1.256 . S
C46 O50 1.255 . S
O47 Co30 2.021 . S
O47 C40 1.269 . S
O48 Co32 2.117 . S
O48 C40 1.248 1_554 S
O49 Co32 2.020 1_556 S
O49 C46 1.256 . S
O50 Co30 2.062 . S
O50 C46 1.255 . S
O51 C31 1.273 . S
O51 Co32 2.021 . S
H52 C43 0.930 . S
H53 C42 0.931 . S
O54 Co30 2.117 . S
O54 C31 1.244 1_556 S
O55 Co30 2.020 1_554 S
O55 C57 1.256 . S
O56 Co32 2.062 . S
O56 C57 1.255 . S
C57 O55 1.256 . S
C57 O56 1.255 . S
H58 C37 0.931 . S
H59 C45 0.931 . S
Co60 N65 2.057 . S
Co60 O77 2.021 . S
Co60 O80 2.062 . S
Co60 O84 2.117 . S
Co60 O85 2.020 . S
C61 O81 1.259 . S
C61 O84 1.258 . S
Co62 N71 2.057 . S
Co62 O78 2.117 . S
Co62 O79 2.020 . S
Co62 O81 2.021 . S
Co62 O86 2.062 . S
C63 N65 1.316 . S
C63 N66 1.347 . S
C63 H68 0.931 . S
C64 N65 1.375 . S
C64 C67 1.350 . S
C64 H69 0.930 . S
N65 Co60 2.057 . S
N65 C63 1.316 . S
N65 C64 1.375 . S
N66 C63 1.347 . S
N66 C67 1.373 . S
C67 C64 1.350 . S
C67 N66 1.373 . S
C67 H88 0.931 . S
H68 C63 0.931 . S
H69 C64 0.930 . S
C70 O77 1.259 . S
C70 O78 1.258 . S
N71 Co62 2.057 . S
N71 C72 1.316 . S
N71 C73 1.375 . S
C72 N71 1.316 . S
C72 N74 1.347 . S
C72 H83 0.931 . S
C73 N71 1.375 . S
C73 C75 1.350 . S
C73 H82 0.930 . S
N74 C72 1.347 . S
N74 C75 1.373 . S
C75 C73 1.350 . S
C75 N74 1.373 . S
C75 H89 0.931 . S
C76 O79 1.256 . S
C76 O80 1.255 . S
O77 Co60 2.021 . S
O77 C70 1.259 . S
O78 Co62 2.117 . S
O78 C70 1.258 . S
O79 Co62 2.020 . S
O79 C76 1.256 . S
O80 Co60 2.062 . S
O80 C76 1.255 . S
O81 C61 1.259 . S
O81 Co62 2.021 . S
H82 C73 0.930 . S
H83 C72 0.931 . S
O84 Co60 2.117 . S
O84 C61 1.258 . S
O85 Co60 2.020 . S
O85 C87 1.256 . S
O86 Co62 2.062 . S
O86 C87 1.255 . S
C87 O85 1.256 . S
C87 O86 1.255 . S
H88 C67 0.931 . S
H89 C75 0.931 . S
Co90 N95 2.057 . S
Co90 O107 2.021 . S
Co90 O110 2.062 . S
Co90 O114 2.117 . S
Co90 O115 2.020 . S
C91 O111 1.259 . S
C91 O114 1.258 . S
Co92 N101 2.057 . S
Co92 O108 2.117 . S
Co92 O109 2.020 . S
Co92 O111 2.021 . S
Co92 O116 2.062 . S
C93 N95 1.316 . S
C93 N96 1.347 . S
C93 H98 0.931 . S
C94 N95 1.375 . S
C94 C97 1.350 . S
C94 H99 0.930 . S
N95 Co90 2.057 . S
N95 C93 1.316 . S
N95 C94 1.375 . S
N96 C93 1.347 . S
N96 C97 1.373 . S
C97 C94 1.350 . S
C97 N96 1.373 . S
C97 H118 0.931 . S
H98 C93 0.931 . S
H99 C94 0.930 . S
C100 O107 1.259 . S
C100 O108 1.258 . S
N101 Co92 2.057 . S
N101 C102 1.316 . S
N101 C103 1.375 . S
C102 N101 1.316 . S
C102 N104 1.347 . S
C102 H113 0.931 . S
C103 N101 1.375 . S
C103 C105 1.350 . S
C103 H112 0.930 . S
N104 C102 1.347 . S
N104 C105 1.373 . S
C105 C103 1.350 . S
C105 N104 1.373 . S
C105 H119 0.931 . S
C106 O109 1.256 . S
C106 O110 1.255 . S
O107 Co90 2.021 . S
O107 C100 1.259 . S
O108 Co92 2.117 . S
O108 C100 1.258 . S
O109 Co92 2.020 . S
O109 C106 1.256 . S
O110 Co90 2.062 . S
O110 C106 1.255 . S
O111 C91 1.259 . S
O111 Co92 2.021 . S
H112 C103 0.930 . S
H113 C102 0.931 . S
O114 Co90 2.117 . S
O114 C91 1.258 . S
O115 Co90 2.020 . S
O115 C117 1.256 . S
O116 Co92 2.062 . S
O116 C117 1.255 . S
C117 O115 1.256 . S
C117 O116 1.255 . S
H118 C97 0.931 . S
H119 C105 0.931 . S
C120 C121 1.355 . S
C120 C122 1.327 . S
C120 H145 0.950 . S
C121 C120 1.355 . S
C121 C137 1.343 1_556 S
C122 C120 1.327 . S
C122 C141 1.429 . S
C122 H146 0.950 . S
C123 C140 1.574 . S
C123 C142 1.371 1_554 S
C123 H147 0.949 . S
H124 C128 0.949 . S
C125 C126 1.359 . S
C125 C127 1.327 . S
C125 H148 0.950 . S
C126 C125 1.359 . S
C126 C138 1.338 1_554 S
C127 C125 1.327 . S
C127 C143 1.434 . S
C127 H149 0.950 . S
C128 H124 0.949 . S
C128 C136 1.574 . S
C128 C144 1.366 1_556 S
H129 C137 0.950 . S
H130 C135 0.950 . S
H131 C136 0.949 . S
H132 C138 0.950 . S
H133 C139 0.950 . S
H134 C140 0.949 . S
C135 H130 0.950 . S
C135 C137 1.327 . S
C135 C141 1.428 1_554 S
C136 C128 1.574 . S
C136 H131 0.949 . S
C136 C142 1.366 . S
C137 C121 1.343 1_554 S
C137 H129 0.950 . S
C137 C135 1.327 . S
C138 C126 1.338 1_556 S
C138 H132 0.950 . S
C138 C139 1.327 . S
C139 H133 0.950 . S
C139 C138 1.327 . S
C139 C143 1.423 1_556 S
C140 C123 1.574 . S
C140 H134 0.949 . S
C140 C144 1.371 . S
C141 C122 1.429 . S
C141 C135 1.428 1_556 S
C141 C142 1.523 . S
C142 C123 1.371 1_556 S
C142 C136 1.366 . S
C142 C141 1.523 . S
C143 C127 1.434 . S
C143 C139 1.423 1_554 S
C143 C144 1.523 . S
C144 C128 1.366 1_554 S
C144 C140 1.371 . S
C144 C143 1.523 . S
H145 C120 0.950 . S
H146 C122 0.950 . S
H147 C123 0.949 . S
H148 C125 0.950 . S
H149 C127 0.950 . S
C150 C151 1.349 . S
C150 C152 1.327 . S
C150 H175 0.950 . S
C151 C150 1.349 . S
C151 C167 1.349 . S
C152 C150 1.327 . S
C152 C171 1.429 . S
C152 H176 0.950 . S
C153 C170 1.574 . S
C153 C172 1.368 . S
C153 H177 0.949 . S
H154 C158 0.949 . S
C155 C156 1.349 . S
C155 C157 1.327 . S
C155 H178 0.950 . S
C156 C155 1.349 . S
C156 C168 1.349 . S
C157 C155 1.327 . S
C157 C173 1.429 . S
C157 H179 0.950 . S
C158 H154 0.949 . S
C158 C166 1.574 . S
C158 C174 1.368 . S
H159 C167 0.950 . S
H160 C165 0.950 . S
H161 C166 0.949 . S
H162 C168 0.950 . S
H163 C169 0.950 . S
H164 C170 0.949 . S
C165 H160 0.950 . S
C165 C167 1.327 . S
C165 C171 1.429 . S
C166 C158 1.574 . S
C166 H161 0.949 . S
C166 C172 1.368 . S
C167 C151 1.349 . S
C167 H159 0.950 . S
C167 C165 1.327 . S
C168 C156 1.349 . S
C168 H162 0.950 . S
C168 C169 1.327 . S
C169 H163 0.950 . S
C169 C168 1.327 . S
C169 C173 1.429 . S
C170 C153 1.574 . S
C170 H164 0.949 . S
C170 C174 1.368 . S
C171 C152 1.429 . S
C171 C165 1.429 . S
C171 C172 1.523 . S
C172 C153 1.368 . S
C172 C166 1.368 . S
C172 C171 1.523 . S
C173 C157 1.429 . S
C173 C169 1.429 . S
C173 C174 1.523 . S
C174 C158 1.368 . S
C174 C170 1.368 . S
C174 C173 1.523 . S
H175 C150 0.950 . S
H176 C152 0.950 . S
H177 C153 0.949 . S
H178 C155 0.950 . S
H179 C157 0.950 . S
C180 C181 1.354 . S
C180 C182 1.327 . S
C180 H205 0.950 . S
C181 C180 1.354 . S
C181 C197 1.343 1_556 S
C182 C180 1.327 . S
C182 C201 1.429 . S
C182 H206 0.950 . S
C183 C200 1.574 1_545 S
C183 C202 1.371 1_654 S
C183 H207 0.949 . S
H184 C188 0.949 . S
C185 C186 1.359 . S
C185 C187 1.327 . S
C185 H208 0.950 . S
C186 C185 1.359 . S
C186 C198 1.338 1_554 S
C187 C185 1.327 . S
C187 C203 1.434 . S
C187 H209 0.950 . S
C188 H184 0.949 . S
C188 C196 1.574 1_565 S
C188 C204 1.366 1_456 S
H189 C197 0.950 . S
H190 C195 0.950 . S
H191 C196 0.949 . S
H192 C198 0.950 . S
H193 C199 0.950 . S
H194 C200 0.949 . S
C195 H190 0.950 . S
C195 C197 1.327 . S
C195 C201 1.428 1_554 S
C196 C188 1.574 1_545 S
C196 H191 0.949 . S
C196 C202 1.366 . S
C197 C181 1.343 1_554 S
C197 H189 0.950 . S
C197 C195 1.327 . S
C198 C186 1.338 1_556 S
C198 H192 0.950 . S
C198 C199 1.327 . S
C199 H193 0.950 . S
C199 C198 1.327 . S
C199 C203 1.424 1_556 S
C200 C183 1.574 1_565 S
C200 H194 0.949 . S
C200 C204 1.371 . S
C201 C182 1.429 . S
C201 C195 1.428 1_556 S
C201 C202 1.523 . S
C202 C183 1.371 1_456 S
C202 C196 1.366 . S
C202 C201 1.523 . S
C203 C187 1.434 . S
C203 C199 1.424 1_554 S
C203 C204 1.523 . S
C204 C188 1.366 1_654 S
C204 C200 1.371 . S
C204 C203 1.523 . S
H205 C180 0.950 . S
H206 C182 0.950 . S
H207 C183 0.949 . S
H208 C185 0.950 . S
H209 C187 0.950 . S
C210 C211 1.349 . S
C210 C212 1.327 . S
C210 H235 0.950 . S
C211 C210 1.349 . S
C211 C227 1.349 . S
C212 C210 1.327 . S
C212 C231 1.429 . S
C212 H236 0.950 . S
C213 C230 1.574 1_645 S
C213 C232 1.368 . S
C213 H237 0.949 . S
H214 C218 0.949 . S
C215 C216 1.349 . S
C215 C217 1.327 . S
C215 H238 0.950 . S
C216 C215 1.349 . S
C216 C228 1.349 . S
C217 C215 1.327 . S
C217 C233 1.429 . S
C217 H239 0.950 . S
C218 H214 0.949 . S
C218 C226 1.574 1_465 S
C218 C234 1.368 . S
H219 C227 0.950 . S
H220 C225 0.950 . S
H221 C226 0.949 . S
H222 C228 0.950 . S
H223 C229 0.950 . S
H224 C230 0.949 . S
C225 H220 0.950 . S
C225 C227 1.327 . S
C225 C231 1.429 . S
C226 C218 1.574 1_645 S
C226 H221 0.949 . S
C226 C232 1.368 . S
C227 C211 1.349 . S
C227 H219 0.950 . S
C227 C225 1.327 . S
C228 C216 1.349 . S
C228 H222 0.950 . S
C228 C229 1.327 . S
C229 H223 0.950 . S
C229 C228 1.327 . S
C229 C233 1.429 . S
C230 C213 1.574 1_465 S
C230 H224 0.949 . S
C230 C234 1.368 . S
C231 C212 1.429 . S
C231 C225 1.429 . S
C231 C232 1.523 . S
C232 C213 1.368 . S
C232 C226 1.368 . S
C232 C231 1.523 . S
C233 C217 1.429 . S
C233 C229 1.429 . S
C233 C234 1.523 . S
C234 C218 1.368 . S
C234 C230 1.368 . S
C234 C233 1.523 . S
H235 C210 0.950 . S
H236 C212 0.950 . S
H237 C213 0.949 . S
H238 C215 0.950 . S
H239 C217 0.950 . S
C240 C241 1.349 . S
C240 C242 1.327 . S
C240 H265 0.950 . S
C241 C240 1.349 . S
C241 C257 1.349 . S
C242 C240 1.327 . S
C242 C261 1.429 . S
C242 H266 0.950 . S
C243 C260 1.574 . S
C243 C262 1.368 . S
C243 H267 0.949 . S
H244 C248 0.949 . S
C245 C246 1.349 . S
C245 C247 1.327 . S
C245 H268 0.950 . S
C246 C245 1.349 . S
C246 C258 1.349 . S
C247 C245 1.327 . S
C247 C263 1.429 . S
C247 H269 0.950 . S
C248 H244 0.949 . S
C248 C256 1.574 . S
C248 C264 1.368 . S
H249 C257 0.950 . S
H250 C255 0.950 . S
H251 C256 0.949 . S
H252 C258 0.950 . S
H253 C259 0.950 . S
H254 C260 0.949 . S
C255 H250 0.950 . S
C255 C257 1.327 . S
C255 C261 1.429 . S
C256 C248 1.574 . S
C256 H251 0.949 . S
C256 C262 1.368 . S
C257 C241 1.349 . S
C257 H249 0.950 . S
C257 C255 1.327 . S
C258 C246 1.349 . S
C258 H252 0.950 . S
C258 C259 1.327 . S
C259 H253 0.950 . S
C259 C258 1.327 . S
C259 C263 1.429 . S
C260 C243 1.574 . S
C260 H254 0.949 . S
C260 C264 1.368 . S
C261 C242 1.429 . S
C261 C255 1.429 . S
C261 C262 1.523 . S
C262 C243 1.368 . S
C262 C256 1.368 . S
C262 C261 1.523 . S
C263 C247 1.429 . S
C263 C259 1.429 . S
C263 C264 1.523 . S
C264 C248 1.368 . S
C264 C260 1.368 . S
C264 C263 1.523 . S
H265 C240 0.950 . S
H266 C242 0.950 . S
H267 C243 0.949 . S
H268 C245 0.950 . S
H269 C247 0.950 . S
C270 C271 1.349 . S
C270 C272 1.327 . S
C270 H295 0.950 . S
C271 C270 1.349 . S
C271 C287 1.349 . S
C272 C270 1.327 . S
C272 C291 1.429 . S
C272 H296 0.950 . S
C273 C290 1.574 . S
C273 C292 1.368 . S
C273 H297 0.949 . S
H274 C278 0.949 . S
C275 C276 1.349 . S
C275 C277 1.327 . S
C275 H298 0.950 . S
C276 C275 1.349 . S
C276 C288 1.349 . S
C277 C275 1.327 . S
C277 C293 1.429 . S
C277 H299 0.950 . S
C278 H274 0.949 . S
C278 C286 1.574 . S
C278 C294 1.368 . S
H279 C287 0.950 . S
H280 C285 0.950 . S
H281 C286 0.949 . S
H282 C288 0.950 . S
H283 C289 0.950 . S
H284 C290 0.949 . S
C285 H280 0.950 . S
C285 C287 1.327 . S
C285 C291 1.429 . S
C286 C278 1.574 . S
C286 H281 0.949 . S
C286 C292 1.368 . S
C287 C271 1.349 . S
C287 H279 0.950 . S
C287 C285 1.327 . S
C288 C276 1.349 . S
C288 H282 0.950 . S
C288 C289 1.327 . S
C289 H283 0.950 . S
C289 C288 1.327 . S
C289 C293 1.429 . S
C290 C273 1.574 . S
C290 H284 0.949 . S
C290 C294 1.368 . S
C291 C272 1.429 . S
C291 C285 1.429 . S
C291 C292 1.523 . S
C292 C273 1.368 . S
C292 C286 1.368 . S
C292 C291 1.523 . S
C293 C277 1.429 . S
C293 C289 1.429 . S
C293 C294 1.523 . S
C294 C278 1.368 . S
C294 C290 1.368 . S
C294 C293 1.523 . S
H295 C270 0.950 . S
H296 C272 0.950 . S
H297 C273 0.949 . S
H298 C275 0.950 . S
H299 C277 0.950 . S
C300 C301 1.349 . S
C300 C302 1.327 . S
C300 H325 0.950 . S
C301 C300 1.349 . S
C301 C317 1.349 . S
C302 C300 1.327 . S
C302 C321 1.429 . S
C302 H326 0.950 . S
C303 C320 1.574 . S
C303 C322 1.368 . S
C303 H327 0.949 . S
H304 C308 0.949 . S
C305 C306 1.349 . S
C305 C307 1.327 . S
C305 H328 0.950 . S
C306 C305 1.349 . S
C306 C318 1.349 . S
C307 C305 1.327 . S
C307 C323 1.429 . S
C307 H329 0.950 . S
C308 H304 0.949 . S
C308 C316 1.574 . S
C308 C324 1.368 . S
H309 C317 0.950 . S
H310 C315 0.950 . S
H311 C316 0.949 . S
H312 C318 0.950 . S
H313 C319 0.950 . S
H314 C320 0.949 . S
C315 H310 0.950 . S
C315 C317 1.327 . S
C315 C321 1.429 . S
C316 C308 1.574 . S
C316 H311 0.949 . S
C316 C322 1.368 . S
C317 C301 1.349 . S
C317 H309 0.950 . S
C317 C315 1.327 . S
C318 C306 1.349 . S
C318 H312 0.950 . S
C318 C319 1.327 . S
C319 H313 0.950 . S
C319 C318 1.327 . S
C319 C323 1.429 . S
C320 C303 1.574 . S
C320 H314 0.949 . S
C320 C324 1.368 . S
C321 C302 1.429 . S
C321 C315 1.429 . S
C321 C322 1.523 . S
C322 C303 1.368 . S
C322 C316 1.368 . S
C322 C321 1.523 . S
C323 C307 1.429 . S
C323 C319 1.429 . S
C323 C324 1.523 . S
C324 C308 1.368 . S
C324 C320 1.368 . S
C324 C323 1.523 . S
H325 C300 0.950 . S
H326 C302 0.950 . S
H327 C303 0.949 . S
H328 C305 0.950 . S
H329 C307 0.950 . S
C330 C331 1.349 . S
C330 C332 1.327 . S
C330 H355 0.950 . S
C331 C330 1.349 . S
C331 C347 1.349 . S
C332 C330 1.327 . S
C332 C351 1.429 . S
C332 H356 0.950 . S
C333 C350 1.574 . S
C333 C352 1.368 . S
C333 H357 0.949 . S
H334 C338 0.949 . S
C335 C336 1.349 . S
C335 C337 1.327 . S
C335 H358 0.950 . S
C336 C335 1.349 . S
C336 C348 1.349 . S
C337 C335 1.327 . S
C337 C353 1.429 . S
C337 H359 0.950 . S
C338 H334 0.949 . S
C338 C346 1.574 . S
C338 C354 1.368 . S
H339 C347 0.950 . S
H340 C345 0.950 . S
H341 C346 0.949 . S
H342 C348 0.950 . S
H343 C349 0.950 . S
H344 C350 0.949 . S
C345 H340 0.950 . S
C345 C347 1.327 . S
C345 C351 1.429 . S
C346 C338 1.574 . S
C346 H341 0.949 . S
C346 C352 1.368 . S
C347 C331 1.349 . S
C347 H339 0.950 . S
C347 C345 1.327 . S
C348 C336 1.349 . S
C348 H342 0.950 . S
C348 C349 1.327 . S
C349 H343 0.950 . S
C349 C348 1.327 . S
C349 C353 1.429 . S
C350 C333 1.574 . S
C350 H344 0.949 . S
C350 C354 1.368 . S
C351 C332 1.429 . S
C351 C345 1.429 . S
C351 C352 1.523 . S
C352 C333 1.368 . S
C352 C346 1.368 . S
C352 C351 1.523 . S
C353 C337 1.429 . S
C353 C349 1.429 . S
C353 C354 1.523 . S
C354 C338 1.368 . S
C354 C350 1.368 . S
C354 C353 1.523 . S
H355 C330 0.950 . S
H356 C332 0.950 . S
H357 C333 0.949 . S
H358 C335 0.950 . S
H359 C337 0.950 . S
C360 C361 1.349 . S
C360 C362 1.327 . S
C360 H385 0.950 . S
C361 C360 1.349 . S
C361 C377 1.349 . S
C362 C360 1.327 . S
C362 C381 1.429 . S
C362 H386 0.950 . S
C363 C380 1.574 . S
C363 C382 1.368 . S
C363 H387 0.949 . S
H364 C368 0.949 1_655 S
C365 C366 1.349 . S
C365 C367 1.327 . S
C365 H388 0.950 . S
C366 C365 1.349 . S
C366 C378 1.349 . S
C367 C365 1.327 . S
C367 C383 1.429 . S
C367 H389 0.950 . S
C368 H364 0.949 1_455 S
C368 C376 1.574 1_455 S
C368 C384 1.368 . S
H369 C377 0.950 1_455 S
H370 C375 0.950 . S
H371 C376 0.949 . S
H372 C378 0.950 . S
H373 C379 0.950 . S
H374 C380 0.949 . S
C375 H370 0.950 . S
C375 C377 1.327 1_455 S
C375 C381 1.429 1_455 S
C376 C368 1.574 1_655 S
C376 H371 0.949 . S
C376 C382 1.368 1_655 S
C377 C361 1.349 . S
C377 H369 0.950 1_655 S
C377 C375 1.327 1_655 S
C378 C366 1.349 . S
C378 H372 0.950 . S
C378 C379 1.327 . S
C379 H373 0.950 . S
C379 C378 1.327 . S
C379 C383 1.429 . S
C380 C363 1.574 . S
C380 H374 0.949 . S
C380 C384 1.368 . S
C381 C362 1.429 . S
C381 C375 1.429 1_655 S
C381 C382 1.523 1_655 S
C382 C363 1.368 . S
C382 C376 1.368 1_455 S
C382 C381 1.523 1_455 S
C383 C367 1.429 . S
C383 C379 1.429 . S
C383 C384 1.523 . S
C384 C368 1.368 . S
C384 C380 1.368 . S
C384 C383 1.523 . S
H385 C360 0.950 . S
H386 C362 0.950 . S
H387 C363 0.949 . S
H388 C365 0.950 . S
H389 C367 0.950 . S
C390 C391 1.349 . S
C390 C392 1.327 . S
C390 H415 0.950 . S
C391 C390 1.349 . S
C391 C407 1.349 . S
C392 C390 1.327 . S
C392 C411 1.429 . S
C392 H416 0.950 1_655 S
C393 C410 1.574 1_655 S
C393 C412 1.368 1_655 S
C393 H417 0.949 . S
H394 C398 0.949 . S
C395 C396 1.349 . S
C395 C397 1.327 . S
C395 H418 0.950 . S
C396 C395 1.349 . S
C396 C408 1.349 . S
C397 C395 1.327 . S
C397 C413 1.429 . S
C397 H419 0.950 . S
C398 H394 0.949 . S
C398 C406 1.574 . S
C398 C414 1.368 . S
H399 C407 0.950 . S
H400 C405 0.950 . S
H401 C406 0.949 . S
H402 C408 0.950 . S
H403 C409 0.950 . S
H404 C410 0.949 . S
C405 H400 0.950 . S
C405 C407 1.327 . S
C405 C411 1.429 . S
C406 C398 1.574 . S
C406 H401 0.949 . S
C406 C412 1.368 . S
C407 C391 1.349 . S
C407 H399 0.950 . S
C407 C405 1.327 . S
C408 C396 1.349 . S
C408 H402 0.950 . S
C408 C409 1.327 . S
C409 H403 0.950 . S
C409 C408 1.327 . S
C409 C413 1.429 . S
C410 C393 1.574 1_455 S
C410 H404 0.949 . S
C410 C414 1.368 . S
C411 C392 1.429 . S
C411 C405 1.429 . S
C411 C412 1.523 1_655 S
C412 C393 1.368 1_455 S
C412 C406 1.368 . S
C412 C411 1.523 1_455 S
C413 C397 1.429 . S
C413 C409 1.429 . S
C413 C414 1.523 . S
C414 C398 1.368 . S
C414 C410 1.368 . S
C414 C413 1.523 . S
H415 C390 0.950 . S
H416 C392 0.950 1_455 S
H417 C393 0.949 . S
H418 C395 0.950 . S
H419 C397 0.950 . S
C420 C421 1.349 . S
C420 C422 1.327 . S
C420 H445 0.950 . S
C421 C420 1.349 . S
C421 C437 1.349 . S
C422 C420 1.327 . S
C422 C441 1.429 . S
C422 H446 0.950 . S
C423 C440 1.574 . S
C423 C442 1.368 . S
C423 H447 0.949 . S
H424 C428 0.949 . S
C425 C426 1.349 . S
C425 C427 1.327 . S
C425 H448 0.950 . S
C426 C425 1.349 . S
C426 C438 1.349 . S
C427 C425 1.327 . S
C427 C443 1.429 . S
C427 H449 0.950 1_455 S
C428 H424 0.949 . S
C428 C436 1.574 1_455 S
C428 C444 1.368 1_455 S
H429 C437 0.950 . S
H430 C435 0.950 . S
H431 C436 0.949 . S
H432 C438 0.950 . S
H433 C439 0.950 . S
H434 C440 0.949 . S
C435 H430 0.950 . S
C435 C437 1.327 . S
C435 C441 1.429 . S
C436 C428 1.574 1_655 S
C436 H431 0.949 . S
C436 C442 1.368 . S
C437 C421 1.349 . S
C437 H429 0.950 . S
C437 C435 1.327 . S
C438 C426 1.349 . S
C438 H432 0.950 . S
C438 C439 1.327 . S
C439 H433 0.950 . S
C439 C438 1.327 . S
C439 C443 1.429 . S
C440 C423 1.574 . S
C440 H434 0.949 . S
C440 C444 1.368 . S
C441 C422 1.429 . S
C441 C435 1.429 . S
C441 C442 1.523 . S
C442 C423 1.368 . S
C442 C436 1.368 . S
C442 C441 1.523 . S
C443 C427 1.429 . S
C443 C439 1.429 . S
C443 C444 1.523 1_455 S
C444 C428 1.368 1_655 S
C444 C440 1.368 . S
C444 C443 1.523 1_655 S
H445 C420 0.950 . S
H446 C422 0.950 . S
H447 C423 0.949 . S
H448 C425 0.950 . S
H449 C427 0.950 1_655 S
C450 C451 1.349 . S
C450 C452 1.327 . S
C450 H475 0.950 . S
C451 C450 1.349 . S
C451 C467 1.349 . S
C452 C450 1.327 . S
C452 C471 1.429 . S
C452 H476 0.950 . S
C453 C470 1.574 . S
C453 C472 1.368 . S
C453 H477 0.949 . S
H454 C458 0.949 . S
C455 C456 1.349 . S
C455 C457 1.327 . S
C455 H478 0.950 . S
C456 C455 1.349 . S
C456 C468 1.349 . S
C457 C455 1.327 . S
C457 C473 1.429 . S
C457 H479 0.950 . S
C458 H454 0.949 . S
C458 C466 1.574 1_655 S
C458 C474 1.368 . S
H459 C467 0.950 . S
H460 C465 0.950 1_655 S
H461 C466 0.949 . S
H462 C468 0.950 . S
H463 C469 0.950 . S
H464 C470 0.949 . S
C465 H460 0.950 1_455 S
C465 C467 1.327 . S
C465 C471 1.429 . S
C466 C458 1.574 1_455 S
C466 H461 0.949 . S
C466 C472 1.368 1_455 S
C467 C451 1.349 . S
C467 H459 0.950 . S
C467 C465 1.327 . S
C468 C456 1.349 . S
C468 H462 0.950 . S
C468 C469 1.327 . S
C469 H463 0.950 . S
C469 C468 1.327 . S
C469 C473 1.429 . S
C470 C453 1.574 . S
C470 H464 0.949 . S
C470 C474 1.368 . S
C471 C452 1.429 . S
C471 C465 1.429 . S
C471 C472 1.523 1_455 S
C472 C453 1.368 . S
C472 C466 1.368 1_655 S
C472 C471 1.523 1_655 S
C473 C457 1.429 . S
C473 C469 1.429 . S
C473 C474 1.523 . S
C474 C458 1.368 . S
C474 C470 1.368 . S
C474 C473 1.523 . S
H475 C450 0.950 . S
H476 C452 0.950 . S
H477 C453 0.949 . S
H478 C455 0.950 . S
H479 C457 0.950 . S
C121 C31 1.632 1_556 S
C126 C10 1.632 1_554 S
C151 C70 1.630 . S
C156 C91 1.630 . S
C181 C1 1.632 1_556 S
C186 C40 1.632 1_554 S
C211 C100 1.630 . S
C216 C61 1.630 . S
C241 C117 0.799 . S
C246 N14 0.791 . S
C271 C57 0.799 . S
C276 N74 0.791 . S
C301 N36 0.794 . S
C306 C76 0.802 . S
C331 N96 0.794 . S
C336 C16 0.802 . S
C361 N44 0.794 . S
C366 C87 0.796 . S
C391 N104 0.794 . S
C396 C27 0.796 . S
C421 C106 0.799 . S
C426 N6 0.797 . S
C451 N66 0.794 . S
C456 C46 0.802 . S
