# Generated by pormake.
# Topology uom, (4)-cn, num edge types: 1
# Building blocks:
#     Node 0, Type 0, BuildingBlock: ESEHIV_clean_sbu_0, # of connection points: 4
#     Node 1, Type 0, BuildingBlock: ESEHIV_clean_sbu_0, # of connection points: 4
#     Node 2, Type 0, BuildingBlock: ESEHIV_clean_sbu_0, # of connection points: 4
#     Node 3, Type 0, BuildingBlock: ESEHIV_clean_sbu_0, # of connection points: 4
#     Node 4, Type 0, BuildingBlock: ESEHIV_clean_sbu_0, # of connection points: 4
#     Node 5, Type 0, BuildingBlock: ESEHIV_clean_sbu_0, # of connection points: 4
#     Edge 6, Type (0, 0), BuildingBlock: MIFKUJ_clean_linker_0, # of connection points: 2
#     Edge 7, Type (0, 0), BuildingBlock: MIFKUJ_clean_linker_0, # of connection points: 2
#     Edge 8, Type (0, 0), BuildingBlock: MIFKUJ_clean_linker_0, # of connection points: 2
#     Edge 9, Type (0, 0), BuildingBlock: MIFKUJ_clean_linker_0, # of connection points: 2
#     Edge 10, Type (0, 0), BuildingBlock: MIFKUJ_clean_linker_0, # of connection points: 2
#     Edge 11, Type (0, 0), BuildingBlock: MIFKUJ_clean_linker_0, # of connection points: 2
#     Edge 12, Type (0, 0), BuildingBlock: MIFKUJ_clean_linker_0, # of connection points: 2
#     Edge 13, Type (0, 0), BuildingBlock: MIFKUJ_clean_linker_0, # of connection points: 2
#     Edge 14, Type (0, 0), BuildingBlock: MIFKUJ_clean_linker_0, # of connection points: 2
#     Edge 15, Type (0, 0), BuildingBlock: MIFKUJ_clean_linker_0, # of connection points: 2
#     Edge 16, Type (0, 0), BuildingBlock: MIFKUJ_clean_linker_0, # of connection points: 2
#     Edge 17, Type (0, 0), BuildingBlock: MIFKUJ_clean_linker_0, # of connection points: 2
# Relax obj value: 0.105
# Max RMSD: 0.200
# Mean RMSD: 0.160
data_MOF--net-uom--node1-ESEHIV_clean_sbu_0--edge1-MIFKUJ_clean_linker_0
_symmetry_space_group_name_H-M    P1
_symmetry_Int_Tables_number       1
_symmetry_cell_setting            triclinic
loop_
_symmetry_equiv_pos_as_xyz
'x, y, z'
_cell_length_a     39.485236
_cell_length_b     37.112916
_cell_length_c     60.251659
_cell_angle_alpha  90.008364
_cell_angle_beta   90.05794
_cell_angle_gamma 126.17403
loop_
_atom_site_label
_atom_site_type_symbol
_atom_site_fract_x
_atom_site_fract_y
_atom_site_fract_z
_atom_type_partial_charge
Cu0 Cu 0.32081 0.00813 0.02581 0.0
N1 N 0.33441 0.02961 0.99651 0.0
N2 N 0.33153 0.0306 0.95931 0.0
C3 C 0.31291 0.00675 0.97804 0.0
C4 C 0.36605 0.07008 0.96635 0.0
C5 C 0.36781 0.06928 0.98923 0.0
O6 O 0.3549 0.98543 0.03267 0.0
C7 C 0.23577 0.96792 0.0416 0.0
O8 O 0.25347 0.98415 0.06101 0.0
H9 H 0.2843 0.97309 0.9784 0.0
H10 H 0.39213 0.0955 0.99979 0.0
N11 N 0.33759 0.05558 0.04558 0.0
N12 N 0.34515 0.0922 0.07712 0.0
C13 C 0.34102 0.05637 0.068 0.0
C14 C 0.34056 0.09261 0.04042 0.0
C15 C 0.34531 0.11518 0.05969 0.0
C16 C 0.36472 0.96767 0.01818 0.0
O17 O 0.34589 0.9567 0.99879 0.0
H18 H 0.33712 0.0294 0.0775 0.0
H19 H 0.33706 0.10129 0.02388 0.0
O20 O 0.25806 0.96898 0.02579 0.0
H21 H 0.38912 0.09716 0.95571 0.0
H22 H 0.3472 0.14543 0.06079 0.0
Cu23 Cu 0.32262 0.22809 0.3669 0.0
N24 N 0.30174 0.20076 0.33871 0.0
N25 N 0.2978 0.18044 0.30308 0.0
C26 C 0.32328 0.20227 0.32077 0.0
C27 C 0.25893 0.16436 0.31021 0.0
C28 C 0.2614 0.17665 0.33204 0.0
O29 O 0.37043 0.29017 0.36256 0.0
C30 C 0.3228 0.16514 0.39575 0.0
O31 O 0.34314 0.15398 0.40767 0.0
H32 H 0.35696 0.21983 0.32051 0.0
H33 H 0.23526 0.16797 0.34238 0.0
N34 N 0.28164 0.22729 0.38371 0.0
N35 N 0.24362 0.22591 0.41211 0.0
C36 C 0.27669 0.22573 0.40603 0.0
C37 C 0.2514 0.22964 0.37545 0.0
C38 C 0.22787 0.22834 0.39267 0.0
C39 C 0.4067 0.29991 0.35874 0.0
O40 O 0.4109 0.26744 0.35705 0.0
H41 H 0.29735 0.225 0.41749 0.0
H42 H 0.24701 0.23277 0.35803 0.0
O43 O 0.34352 0.19986 0.38361 0.0
H44 H 0.23058 0.14464 0.30036 0.0
H45 H 0.20125 0.22935 0.39071 0.0
Cu46 Cu 0.06554 0.24777 0.68806 0.0
N47 N 0.01853 0.20978 0.70636 0.0
N48 N 0.98089 0.17943 0.73768 0.0
C49 C 0.015 0.21609 0.72809 0.0
C50 C 0.96166 0.1494 0.721 0.0
C51 C 0.98489 0.16811 0.70184 0.0
O52 O 0.08234 0.3085 0.69067 0.0
C53 C 0.118 0.24048 0.71747 0.0
O54 O 0.1061 0.25541 0.73308 0.0
H55 H 0.03776 0.24671 0.73679 0.0
H56 H 0.97877 0.15167 0.68599 0.0
N57 N 0.05508 0.23051 0.65795 0.0
N58 N 0.06601 0.22023 0.62259 0.0
C59 C 0.08255 0.2335 0.64326 0.0
C60 C 0.01991 0.21465 0.64623 0.0
C61 C 0.02649 0.20828 0.62452 0.0
C62 C 0.05381 0.3145 0.68913 0.0
O63 O 0.0148 0.27963 0.6861 0.0
H64 H 0.11444 0.24632 0.64756 0.0
H65 H 0.99157 0.20856 0.65295 0.0
O66 O 0.10831 0.24087 0.69738 0.0
H67 H 0.93405 0.11534 0.72266 0.0
H68 H 1.00375 0.19572 0.61121 0.0
Cu69 Cu 0.82507 0.00488 0.02362 0.0
N70 N 0.85536 0.05249 1.00332 0.0
N71 N 0.8827 0.08842 0.97093 0.0
C72 C 0.85536 0.0486 0.98101 0.0
C73 C 0.90041 0.11845 0.98767 0.0
C74 C 0.88363 0.09627 1.00753 0.0
O75 O 0.76388 0.97871 0.02025 0.0
C76 C 0.88588 0.98965 0.02362 0.0
O77 O 0.90676 0.03131 0.03026 0.0
H78 H 0.83661 0.01687 0.97244 0.0
H79 H 0.89216 0.11101 0.02391 0.0
N80 N 0.83855 0.02322 0.05356 0.0
N81 N 0.8478 0.01877 0.08995 0.0
C82 C 0.84133 -0.00013 0.06976 0.0
C83 C 0.84365 0.05827 0.06397 0.0
C84 C 0.84914 0.05547 0.08639 0.0
C85 C 0.75451 0.0063 0.0228 0.0
O86 O 0.78547 0.04856 0.02576 0.0
H87 H 0.83733 0.96877 0.06689 0.0
H88 H 0.84276 0.08376 0.05598 0.0
O89 O 0.8467 0.96861 0.01898 0.0
H90 H 0.92395 0.15401 0.98579 0.0
H91 H 0.85371 0.07858 0.0991 0.0
Cu92 Cu 0.8677 0.82259 0.36452 0.0
N93 N 0.88909 0.84722 0.3361 0.0
N94 N 0.89483 0.87044 0.30095 0.0
C95 C 0.86954 0.85148 0.31894 0.0
C96 C 0.9316 0.87858 0.30716 0.0
C97 C 0.92801 0.86437 0.32867 0.0
O98 O 0.81712 0.76185 0.36089 0.0
C99 C 0.8738 0.89127 0.39248 0.0
O100 O 0.8549 0.90516 0.40358 0.0
H101 H 0.83736 0.84052 0.31957 0.0
H102 H 0.95261 0.86747 0.33839 0.0
N103 N 0.90644 0.81938 0.38105 0.0
N104 N 0.94525 0.82064 0.40878 0.0
C105 C 0.91565 0.82655 0.40296 0.0
C106 C 0.93005 0.80721 0.37296 0.0
C107 C 0.95412 0.80831 0.38985 0.0
C108 C 0.78145 0.75405 0.3577 0.0
O109 O 0.77909 0.78783 0.35621 0.0
H110 H 0.90093 0.83586 0.41438 0.0
H111 H 0.92938 0.79756 0.35594 0.0
O112 O 0.85167 0.85616 0.38062 0.0
H113 H 0.95958 0.89469 0.29704 0.0
H114 H 0.9758 0.79963 0.38831 0.0
Cu115 Cu 0.14996 0.82738 0.68007 0.0
N116 N 0.19744 0.86259 0.69843 0.0
N117 N 0.23306 0.89524 0.73001 0.0
C118 C 0.19529 0.87219 0.71979 0.0
C119 C 0.26014 0.90049 0.71437 0.0
C120 C 0.23817 0.88043 0.69496 0.0
O121 O 0.12756 0.76504 0.68446 0.0
C122 C 0.12649 0.88188 0.68409 0.0
O123 O 0.16046 0.90543 0.67185 0.0
H124 H 0.16614 0.86101 0.72787 0.0
H125 H 0.25101 0.87813 0.67967 0.0
N126 N 0.15921 0.84021 0.64937 0.0
N127 N 0.14565 0.84732 0.61397 0.0
C128 C 0.12988 0.83302 0.63468 0.0
C129 C 0.19478 0.85949 0.63755 0.0
C130 C 0.18658 0.8639 0.61583 0.0
C131 C 0.15274 0.75508 0.68028 0.0
O132 O 0.19063 0.78667 0.67321 0.0
H133 H 0.0976 0.81775 0.63926 0.0
H134 H 0.22478 0.87022 0.6442 0.0
O135 O 0.11324 0.84264 0.68992 0.0
H136 H 0.29346 0.91736 0.71679 0.0
H137 H 0.20946 0.87918 0.6026 0.0
H138 H 0.31214 0.13229 0.09489 0.0
H139 H 0.31007 0.14844 0.13381 0.0
H140 H 0.37256 0.08881 0.15179 0.0
H141 H 0.37383 0.07157 0.11251 0.0
H142 H 0.31466 0.06566 0.18125 0.0
H143 H 0.4246 0.20577 0.15115 0.0
H144 H 0.45944 0.26885 0.12489 0.0
H145 H 0.37027 0.29577 0.14046 0.0
H146 H 0.3345 0.23244 0.1666 0.0
H147 H 0.35402 0.164 0.2914 0.0
H148 H 0.36783 0.14987 0.25364 0.0
H149 H 0.28017 0.172 0.227 0.0
H150 H 0.26575 0.18506 0.26454 0.0
H151 H 0.35931 0.21668 0.20333 0.0
H152 H 0.24747 0.0711 0.2318 0.0
H153 H 0.21581 0.00924 0.25871 0.0
H154 H 0.31495 0.99552 0.24702 0.0
H155 H 0.34757 0.05781 0.22026 0.0
C156 C 0.32591 0.12298 0.10703 0.0
C157 C 0.34377 0.1012 0.10042 0.0
C158 C 0.32473 0.13231 0.12941 0.0
C159 C 0.34209 0.12097 0.14593 0.0
C160 C 0.35917 0.09828 0.13947 0.0
C161 C 0.35991 0.08842 0.11699 0.0
C162 C 0.34179 0.13254 0.1698 0.0
C163 C 0.32523 0.09896 0.18607 0.0
C164 C 0.35521 0.17588 0.17637 0.0
C165 C 0.37667 0.21411 0.16071 0.0
C166 C 0.41224 0.22494 0.14886 0.0
C167 C 0.43218 0.26077 0.13402 0.0
C168 C 0.41703 0.28624 0.13098 0.0
C169 C 0.38195 0.27599 0.14282 0.0
C170 C 0.36186 0.24016 0.15768 0.0
C171 C 0.33807 0.16621 0.27743 0.0
C172 C 0.30872 0.17552 0.28093 0.0
C173 C 0.34577 0.15791 0.25589 0.0
C174 C 0.3249 0.15969 0.23744 0.0
C175 C 0.29663 0.17038 0.24091 0.0
C176 C 0.2883 0.17769 0.26238 0.0
C177 C 0.33161 0.14971 0.21449 0.0
C178 C 0.34933 0.18361 0.19845 0.0
C179 C 0.31987 0.10695 0.20823 0.0
C180 C 0.30025 0.06948 0.22426 0.0
C181 C 0.26276 0.05519 0.23514 0.0
C182 C 0.24458 0.01999 0.25033 0.0
C183 C 0.26344 -0.00144 0.25463 0.0
C184 C 0.30044 0.01222 0.2437 0.0
C185 C 0.31877 0.04746 0.22852 0.0
H186 H 0.24931 0.9713 0.26639 0.0
H187 H 0.43251 0.31397 0.11948 0.0
H188 H 0.2695 0.21351 0.45195 0.0
H189 H 0.24434 0.21332 0.48902 0.0
H190 H 0.15667 0.23355 0.46045 0.0
H191 H 0.18226 0.23555 0.42375 0.0
H192 H 0.19294 0.28626 0.49472 0.0
H193 H 0.13145 0.13158 0.47988 0.0
H194 H 0.13405 0.06853 0.47085 0.0
H195 H 0.20116 0.08964 0.53125 0.0
H196 H 0.20073 0.15423 0.5402 0.0
H197 H 0.04725 0.22688 0.58003 0.0
H198 H 0.08125 0.22737 0.54616 0.0
H199 H 0.16591 0.21531 0.58491 0.0
H200 H 0.13129 0.21393 0.61907 0.0
H201 H 0.13819 0.16133 0.54783 0.0
H202 H 0.20026 0.31454 0.56295 0.0
H203 H 0.20175 0.38029 0.5719 0.0
H204 H 0.13504 0.36203 0.51168 0.0
H205 H 0.13261 0.29574 0.50252 0.0
C206 C 0.24508 0.21823 0.4534 0.0
C207 C 0.22839 0.22472 0.43436 0.0
C208 C 0.23042 0.21776 0.47477 0.0
C209 C 0.19828 0.22317 0.47771 0.0
C210 C 0.18155 0.22946 0.4588 0.0
C211 C 0.19628 0.23026 0.43756 0.0
C212 C 0.18192 0.22281 0.50027 0.0
C213 C 0.18061 0.25863 0.50618 0.0
C214 C 0.167 0.18758 0.51575 0.0
C215 C 0.16648 0.14814 0.51058 0.0
C216 C 0.1471 0.12306 0.49115 0.0
C217 C 0.14816 0.08701 0.48604 0.0
C218 C 0.16757 0.07492 0.50049 0.0
C219 C 0.18614 0.09904 0.52006 0.0
C220 C 0.18566 0.13551 0.52511 0.0
C221 C 0.0728 0.22389 0.58147 0.0
C222 C 0.0864 0.22042 0.60246 0.0
C223 C 0.09254 0.22454 0.56199 0.0
C224 C 0.12656 0.22183 0.56285 0.0
C225 C 0.13985 0.21757 0.58372 0.0
C226 C 0.12021 0.21717 0.6033 0.0
C227 C 0.14835 0.22424 0.54191 0.0
C228 C 0.15075 0.18897 0.53636 0.0
C229 C 0.1645 0.26003 0.52674 0.0
C230 C 0.16593 0.29992 0.53215 0.0
C231 C 0.18561 0.32432 0.5517 0.0
C232 C 0.18667 0.36173 0.5568 0.0
C233 C 0.16842 0.37527 0.54239 0.0
C234 C 0.14913 0.35147 0.52283 0.0
C235 C 0.14794 0.314 0.51767 0.0
H236 H 0.16928 0.40424 0.54636 0.0
H237 H 0.16824 0.0469 0.49654 0.0
H238 H 0.955 0.15782 0.952 0.0
H239 H 0.97067 0.1731 0.91254 0.0
H240 H 0.84819 0.05425 0.89647 0.0
H241 H 0.83231 0.03862 0.93607 0.0
H242 H 0.90517 0.06082 0.86984 0.0
H243 H 0.87219 0.16087 0.89219 0.0
H244 H 0.87796 0.21948 0.91497 0.0
H245 H 1.00747 0.31167 0.89661 0.0
H246 H 1.00262 0.2534 0.87394 0.0
H247 H 0.90566 0.11403 0.75618 0.0
H248 H 0.88892 0.0986 0.79557 0.0
H249 H 0.01393 0.21195 0.8124 0.0
H250 H 0.03137 0.22722 0.7731 0.0
H251 H 0.95509 0.20803 0.83841 0.0
H252 H 0.98816 0.1083 0.81611 0.0
H253 H 0.98255 0.05013 0.79303 0.0
H254 H 0.85295 0.95759 0.81115 0.0
H255 H 0.85761 0.01548 0.83407 0.0
C256 C 0.93113 0.13505 0.94016 0.0
C257 C 0.89216 0.0971 0.94741 0.0
C258 C 0.9402 0.14386 0.91748 0.0
C259 C 0.91043 0.11529 0.90134 0.0
C260 C 0.87176 0.07694 0.9085 0.0
C261 C 0.86271 0.06797 0.93122 0.0
C262 C 0.91972 0.12541 0.8771 0.0
C263 C 0.91546 0.0928 0.86296 0.0
C264 C 0.93417 0.16749 0.86799 0.0
C265 C 0.93713 0.20264 0.88154 0.0
C266 C 0.90198 0.19355 0.89314 0.0
C267 C 0.90507 0.22672 0.90601 0.0
C268 C 0.94308 0.26924 0.90728 0.0
C269 C 0.97806 0.2787 0.89563 0.0
C270 C 0.97515 0.24563 0.88275 0.0
C271 C 0.92983 0.13567 0.76814 0.0
C272 C 0.97006 0.17186 0.76112 0.0
C273 C 0.9201 0.12677 0.79078 0.0
C274 C 0.95025 0.15379 0.80707 0.0
C275 C 0.99005 0.19058 0.80021 0.0
C276 C 0.99992 0.19938 0.77757 0.0
C277 C 0.94044 0.14344 0.83122 0.0
C278 C 0.94467 0.17602 0.84532 0.0
C279 C 0.92596 0.10137 0.84027 0.0
C280 C 0.92312 0.06638 0.82663 0.0
C281 C 0.95837 0.07566 0.81503 0.0
C282 C 0.95538 0.04272 0.802 0.0
C283 C 0.91738 0.00022 0.80058 0.0
C284 C 0.88234 0.99055 0.81224 0.0
C285 C 0.88514 0.0234 0.82526 0.0
H286 H 0.91513 0.97475 0.79048 0.0
H287 H 0.94542 0.29488 0.91726 0.0
H288 H 0.88766 0.98088 0.09831 0.0
H289 H 0.89393 0.95398 0.13409 0.0
H290 H 0.81928 0.99038 0.16481 0.0
H291 H 0.81525 0.01959 0.12924 0.0
H292 H 0.87706 0.01145 0.19157 0.0
H293 H 0.78265 0.87614 0.14997 0.0
H294 H 0.76056 0.82472 0.11825 0.0
H295 H 0.86474 0.81904 0.12949 0.0
H296 H 0.88785 0.87099 0.161 0.0
H297 H 0.84021 0.89073 0.292 0.0
H298 H 0.8286 0.91293 0.25604 0.0
H299 H 0.91771 0.89687 0.22559 0.0
H300 H 0.92878 0.874 0.26122 0.0
H301 H 0.85017 0.86355 0.19921 0.0
H302 H 0.94542 -0.00013 0.23955 0.0
H303 H 0.96856 0.05155 0.27122 0.0
H304 H 0.86221 0.05436 0.26237 0.0
H305 H 0.83813 0.00218 0.23082 0.0
C306 C 0.87254 0.98295 0.11273 0.0
C307 C 0.85089 0.00222 0.11099 0.0
C308 C 0.87585 0.96728 0.13321 0.0
C309 C 0.85628 0.96903 0.1523 0.0
C310 C 0.8347 0.98845 0.15048 0.0
C311 C 0.83234 0.00515 0.13013 0.0
C312 C 0.85892 0.95164 0.17424 0.0
C313 C 0.87038 0.97872 0.19319 0.0
C314 C 0.85134 0.90936 0.17658 0.0
C315 C 0.83717 0.87776 0.15773 0.0
C316 C 0.80099 0.86413 0.14558 0.0
C317 C 0.78829 0.8349 0.12762 0.0
C318 C 0.81132 0.81876 0.12178 0.0
C319 C 0.847 0.83168 0.13395 0.0
C320 C 0.85989 0.86098 0.15187 0.0
C321 C 0.85693 0.89143 0.2776 0.0
C322 C 0.88573 0.88094 0.2796 0.0
C323 C 0.85053 0.90447 0.25706 0.0
C324 C 0.87268 0.90717 0.23807 0.0
C325 C 0.90036 0.89529 0.23993 0.0
C326 C 0.90692 0.88254 0.26042 0.0
C327 C 0.86795 0.92325 0.21635 0.0
C328 C 0.85631 0.89603 0.19749 0.0
C329 C 0.87524 0.96528 0.21408 0.0
C330 C 0.88974 -0.00325 0.23299 0.0
C331 C 0.92679 0.01123 0.24448 0.0
C332 C 0.94011 0.04066 0.26238 0.0
C333 C 0.9168 0.05613 0.26885 0.0
C334 C 0.88019 0.04229 0.25737 0.0
C335 C 0.86671 0.01281 0.23947 0.0
H336 H 0.92716 0.07892 0.28271 0.0
H337 H 0.80147 0.79615 0.10787 0.0
H338 H 0.07175 0.8382 0.61169 0.0
H339 H 0.03553 0.83631 0.57833 0.0
H340 H 0.13365 0.853 0.5377 0.0
H341 H 0.16976 0.85423 0.57084 0.0
H342 H 0.11191 0.90661 0.52352 0.0
H343 H 0.03926 0.75118 0.54353 0.0
H344 H 0.99954 0.68626 0.56855 0.0
H345 H 0.90241 0.7049 0.5742 0.0
H346 H 0.94186 0.77033 0.54943 0.0
H347 H 0.02121 0.83849 0.4176 0.0
H348 H 0.05165 0.8446 0.45376 0.0
H349 H 0.9435 0.82305 0.48581 0.0
H350 H 0.91191 0.81526 0.4494 0.0
H351 H 0.96689 0.7757 0.5062 0.0
H352 H 0.03464 0.92556 0.48323 0.0
H353 H 0.07169 0.98778 0.45656 0.0
H354 H 0.17677 0.98143 0.4568 0.0
H355 H 0.1398 0.9181 0.48292 0.0
C356 C 0.08559 0.84103 0.59572 0.0
C357 C 0.1239 0.84622 0.5942 0.0
C358 C 0.06479 0.84011 0.57657 0.0
C359 C 0.08164 0.84426 0.55538 0.0
C360 C 0.12001 0.84994 0.55381 0.0
C361 C 0.14075 0.85071 0.5729 0.0
C362 C 0.05926 0.84216 0.53481 0.0
C363 C 0.08033 0.87781 0.51967 0.0
C364 C 0.01748 0.80531 0.53 0.0
C365 C 0.99373 0.76593 0.54484 0.0
C366 C 0.0096 0.74165 0.55025 0.0
C367 C 0.9871 0.70472 0.56436 0.0
C368 C 0.94854 0.69154 0.57301 0.0
C369 C 0.93232 0.7152 0.56752 0.0
C370 C 0.95472 0.75219 0.55344 0.0
C371 C 1.00352 0.83456 0.43225 0.0
C372 C 0.96382 0.82605 0.43043 0.0
C373 C 0.02126 0.83853 0.45302 0.0
C374 C 1.00015 0.83471 0.47263 0.0
C375 C 0.96049 0.82619 0.47096 0.0
C376 C 0.94261 0.82215 0.45009 0.0
C377 C 0.01985 0.83971 0.49471 0.0
C378 C 0.9983 0.80472 0.51014 0.0
C379 C 0.06105 0.87736 0.49988 0.0
C380 C 0.08426 0.91677 0.48494 0.0
C381 C 0.06554 0.93721 0.47751 0.0
C382 C 0.08645 0.97256 0.46243 0.0
C383 C 0.12646 0.98838 0.45498 0.0
C384 C 0.14571 0.96899 0.46259 0.0
C385 C 0.12476 0.93332 0.47751 0.0
H386 H 0.14266 0.01588 0.44344 0.0
H387 H 0.93116 0.66294 0.58393 0.0
H388 H 0.28739 0.94592 0.94307 0.0
H389 H 0.269 0.92254 0.90431 0.0
H390 H 0.32755 0.05925 0.88498 0.0
H391 H 0.3465 0.08279 0.92365 0.0
H392 H 0.22257 0.92403 0.87399 0.0
H393 H 0.37151 0.07954 0.83438 0.0
H394 H 0.44588 0.1367 0.84383 0.0
H395 H 0.44287 0.04609 0.88954 0.0
H396 H 0.36869 0.98823 0.88015 0.0
H397 H 0.19133 0.91559 0.75696 0.0
H398 H 0.20619 0.93808 0.79598 0.0
H399 H 0.30947 0.92781 0.79464 0.0
H400 H 0.29518 0.90619 0.75559 0.0
H401 H 0.33339 -0.00202 0.81634 0.0
H402 H 0.21045 0.84675 0.81987 0.0
H403 H 0.1378 0.78295 0.81125 0.0
H404 H 0.09179 0.85307 0.83892 0.0
H405 H 0.16425 0.91754 0.84746 0.0
C406 C 0.29604 0.97098 0.93062 0.0
C407 C 0.31877 0.01635 0.93653 0.0
C408 C 0.28553 0.95755 0.90839 0.0
C409 C 0.29737 0.9891 0.89152 0.0
C410 C 0.31884 0.03425 0.89751 0.0
C411 C 0.32969 0.04773 0.91968 0.0
C412 C 0.28808 0.97495 0.86768 0.0
C413 C 0.24682 0.94031 0.8614 0.0
C414 C 0.31969 0.99538 0.85115 0.0
C415 C 0.36444 0.02976 0.85671 0.0
C416 C 0.38678 0.07179 0.84638 0.0
C417 C 0.42889 0.10431 0.85174 0.0
C418 C 0.44904 0.09508 0.86733 0.0
C419 C 0.42718 0.05325 0.87753 0.0
C420 C 0.3851 0.0206 0.87221 0.0
C421 C 0.21703 0.91782 0.76502 0.0
C422 C 0.242 0.90896 0.75306 0.0
C423 C 0.22548 0.93062 0.78741 0.0
C424 C 0.2587 0.93418 0.79854 0.0
C425 C 0.28377 0.92558 0.78655 0.0
C426 C 0.27561 0.91325 0.76413 0.0
C427 C 0.26776 0.94723 0.82254 0.0
C428 C 0.30902 0.98177 0.82888 0.0
C429 C 0.23637 0.92583 0.83919 0.0
C430 C 0.19279 0.88712 0.83411 0.0
C431 C 0.18486 0.84868 0.82398 0.0
C432 C 0.14372 0.81238 0.81913 0.0
C433 C 0.11021 0.81401 0.82448 0.0
C434 C 0.11778 0.85189 0.83475 0.0
C435 C 0.15887 0.8883 0.83962 0.0
H436 H 0.07839 0.78587 0.82072 0.0
H437 H 0.48162 0.12032 0.87147 0.0
H438 H 0.19212 0.94886 1.00193 0.0
H439 H 0.12586 0.93972 0.99594 0.0
H440 H 0.11661 0.9539 0.06626 0.0
H441 H 0.18161 0.96169 0.07234 0.0
H442 H 0.04178 0.8948 0.05186 0.0
H443 H 0.15437 0.04203 0.02649 0.0
H444 H 0.21594 0.09636 1.00369 0.0
H445 H 0.14302 0.03649 0.94434 0.0
H446 H 0.08112 0.98142 0.96681 0.0
H447 H 0.92347 0.98214 0.05886 0.0
H448 H 0.9751 0.96588 0.0589 0.0
H449 H 0.95609 0.93893 0.98865 0.0
H450 H 0.90377 0.95513 0.9887 0.0
H451 H 0.03999 0.9959 0.99888 0.0
H452 H 0.92481 0.85406 0.0253 0.0
H453 H 0.86356 0.80206 0.04881 0.0
H454 H 0.94158 0.85385 0.10693 0.0
H455 H 1.0033 0.90656 0.08378 0.0
C456 C 0.1756 0.94923 1.01616 0.0
C457 C 0.19265 0.95614 0.03764 0.0
C458 C 0.13775 0.94447 1.0127 0.0
C459 C 0.11607 0.94693 0.03058 0.0
C460 C 0.13227 0.95192 0.05207 0.0
C461 C 0.16981 0.95648 0.05553 0.0
C462 C 0.07751 0.94589 0.0272 0.0
C463 C 0.04168 0.91718 0.04034 0.0
C464 C 0.07624 0.97411 1.01182 0.0
C465 C 0.11329 0.00731 0.99831 0.0
C466 C 0.15156 0.04028 1.00857 0.0
C467 C 0.1865 0.07122 0.99572 0.0
C468 C 0.18343 0.06979 0.97258 0.0
C469 C 0.14537 0.03749 0.96226 0.0
C470 C 0.11035 0.00642 0.97505 0.0
C471 C 0.9292 0.97123 0.04354 0.0
C472 C 0.90861 0.96877 0.0239 0.0
C473 C 0.95902 0.96213 0.04354 0.0
C474 C 0.96972 0.95081 0.02381 0.0
C475 C 0.94847 0.94734 1.00416 0.0
C476 C 0.91806 0.95596 1.00422 0.0
C477 C 1.00471 0.94538 0.02379 0.0
C478 C 0.0399 0.97302 1.01013 0.0
C479 C 1.00552 0.91641 0.03879 0.0
C480 C 0.96865 0.88445 0.0528 0.0
C481 C 0.92888 0.85454 0.04311 0.0
C482 C 0.89409 0.82491 0.05636 0.0
C483 C 0.89867 0.82468 0.07934 0.0
C484 C 0.93809 0.85405 0.08912 0.0
C485 C 0.97302 0.88376 0.07593 0.0
H486 H 0.87168 0.80165 0.08955 0.0
H487 H 0.21052 0.09377 0.96265 0.0
H488 H 0.92007 0.92154 0.43035 0.0
H489 H 0.99673 0.96587 0.43377 0.0
H490 H 1.00698 0.96327 0.36257 0.0
H491 H 0.93059 0.92032 0.3593 0.0
H492 H 0.05806 0.94698 0.38459 0.0
H493 H 0.02502 0.0536 0.38752 0.0
H494 H 0.9909 0.0867 0.40241 0.0
H495 H 0.04822 0.10411 0.46594 0.0
H496 H 0.08186 0.07019 0.45149 0.0
H497 H 0.26783 0.1239 0.36184 0.0
H498 H 0.19102 0.07633 0.36378 0.0
H499 H 0.19807 0.09409 0.43489 0.0
H500 H 0.27496 0.14233 0.43271 0.0
H501 H 0.13817 0.09926 0.41699 0.0
H502 H 0.17692 -0.00022 0.41305 0.0
H503 H 0.21195 0.96772 0.3983 0.0
H504 H 0.14474 0.93681 0.33688 0.0
H505 H 0.10956 0.96915 0.3512 0.0
C506 C 0.93884 0.93027 0.4155 0.0
C507 C 0.9196 0.9161 0.39454 0.0
C508 C 0.98248 0.95554 0.41746 0.0
C509 C 1.00751 0.96775 0.39842 0.0
C510 C 0.98821 0.95359 0.3775 0.0
C511 C 0.94462 0.92841 0.37559 0.0
C512 C 0.05389 -0.00353 0.40009 0.0
C513 C 0.07564 0.98044 0.39146 0.0
C514 C 0.07666 0.03952 0.40977 0.0
C515 C 0.05568 0.05903 0.41851 0.0
C516 C 0.02997 0.06405 0.40473 0.0
C517 C 0.01074 0.083 0.41307 0.0
C518 C 0.01729 0.0974 0.43512 0.0
C519 C 0.04308 0.09287 0.44888 0.0
C520 C 0.06223 0.07379 0.44062 0.0
C521 C 0.25277 0.11858 0.3777 0.0
C522 C 0.27685 0.13769 0.39698 0.0
C523 C 0.20905 0.0908 0.37891 0.0
C524 C 0.1888 0.08121 0.39952 0.0
C525 C 0.21299 0.10073 0.41884 0.0
C526 C 0.25677 0.12816 0.41761 0.0
C527 C 0.14242 0.0503 0.40082 0.0
C528 C 0.12066 0.06573 0.41019 0.0
C529 C 0.11961 0.00663 0.39185 0.0
C530 C 0.14078 0.9872 0.38317 0.0
C531 C 0.16975 0.9864 0.39636 0.0
C532 C 0.18962 0.96813 0.38808 0.0
C533 C 0.18064 0.95031 0.36665 0.0
C534 C 0.15168 0.95065 0.35348 0.0
C535 C 0.13172 0.9689 0.36168 0.0
H536 H 0.19607 0.93619 0.36026 0.0
H537 H 1.00245 0.11216 0.44153 0.0
H538 H 0.1554 0.21444 0.69079 0.0
H539 H 0.15305 0.14776 0.69571 0.0
H540 H 0.10234 0.12973 0.76143 0.0
H541 H 0.10467 0.19675 0.75672 0.0
H542 H 0.16616 0.10274 0.74885 0.0
H543 H 0.02814 0.07151 0.7346 0.0
H544 H 0.98284 0.08737 0.71575 0.0
H545 H 0.02515 0.07576 0.65231 0.0
H546 H 0.07048 0.05943 0.67087 0.0
H547 H 0.10175 0.88083 0.72665 0.0
H548 H 0.09185 0.93522 0.74247 0.0
H549 H 0.10496 0.98952 0.67704 0.0
H550 H 0.11459 0.93568 0.66145 0.0
H551 H 0.04833 0.99022 0.70033 0.0
H552 H 0.18938 0.03001 0.71162 0.0
H553 H 0.24066 0.01928 0.72722 0.0
H554 H 0.19985 0.01985 0.79316 0.0
H555 H 0.14789 0.02999 0.7779 0.0
C556 C 0.14531 0.19737 0.70663 0.0
C557 C 0.12968 0.21046 0.72323 0.0
C558 C 0.14404 0.15932 0.70942 0.0
C559 C 0.1271 0.13378 0.72882 0.0
C560 C 0.11566 0.14926 0.74639 0.0
C561 C 0.11708 0.1876 0.74365 0.0
C562 C 0.11434 0.08755 0.72859 0.0
C563 C 0.1397 0.07751 0.73883 0.0
C564 C 0.08017 0.0551 0.71528 0.0
C565 C 0.05264 0.06435 0.7041 0.0
C566 C 0.02783 0.07249 0.71664 0.0
C567 C 1.00215 0.08154 0.706 0.0
C568 C 1.0012 0.08273 0.68283 0.0
C569 C 0.02586 0.07476 0.67025 0.0
C570 C 0.05139 0.0654 0.68081 0.0
C571 C 0.10077 0.9033 0.71566 0.0
C572 C 0.10878 0.90428 0.69288 0.0
C573 C 0.09563 0.9346 0.7247 0.0
C574 C 0.09828 0.96679 0.71096 0.0
C575 C 0.10278 0.96504 0.68797 0.0
C576 C 0.10824 0.93426 0.67905 0.0
C577 C 0.1008 0.00536 0.72007 0.0
C578 C 0.07362 0.01434 0.7113 0.0
C579 C 0.13366 0.03685 0.7345 0.0
C580 C 0.16447 0.03023 0.74363 0.0
C581 C 0.19111 0.02745 0.72943 0.0
C582 C 0.22033 0.02156 0.73821 0.0
C583 C 0.22353 0.01896 0.76116 0.0
C584 C 0.19733 0.02192 0.77539 0.0
C585 C 0.16798 0.0277 0.76669 0.0
H586 H 0.24647 0.01487 0.76792 0.0
H587 H 0.98121 0.08959 0.6746 0.0
H588 H 0.72844 0.0497 0.04467 0.0
H589 H 0.65984 0.03537 0.04493 0.0
H590 H 0.61085 0.92032 1.00313 0.0
H591 H 0.68044 0.93442 1.00301 0.0
H592 H 0.58812 0.97716 0.98868 0.0
H593 H 0.58141 0.90495 0.0562 0.0
H594 H 0.60688 0.89924 0.09247 0.0
H595 H 0.60855 0.00878 0.11723 0.0
H596 H 0.58365 0.01558 0.08099 0.0
H597 H 0.38112 0.91603 0.99503 0.0
H598 H 0.44243 0.91533 0.99707 0.0
H599 H 0.49298 0.01229 0.04995 0.0
H600 H 0.43042 0.01169 0.0485 0.0
H601 H 0.51335 0.95968 0.05851 0.0
H602 H 0.52674 0.03776 0.9923 0.0
H603 H 0.50547 0.0497 0.95615 0.0
H604 H 0.49613 0.93719 0.92894 0.0
H605 H 0.51682 0.92421 0.96503 0.0
C606 C 0.70316 0.02098 0.03561 0.0
C607 C 0.71039 0.99322 0.02383 0.0
C608 C 0.66361 0.01275 0.03585 0.0
C609 C 0.62958 0.97661 0.02416 0.0
C610 C 0.63637 0.94846 1.01236 0.0
C611 C 0.67617 0.95633 1.01241 0.0
C612 C 0.58774 0.96965 0.02406 0.0
C613 C 0.57132 0.97234 1.00392 0.0
C614 C 0.56626 0.96517 0.04395 0.0
C615 C 0.58096 0.96098 0.06581 0.0
C616 C 0.5875 0.92804 0.06932 0.0
C617 C 0.60178 0.92457 0.08989 0.0
C618 C 0.60941 0.95369 0.10713 0.0
C619 C 0.60265 0.98626 0.10385 0.0
C620 C 0.5884 0.9899 0.08331 0.0
C621 C 0.40499 0.93694 1.00731 0.0
C622 C 0.40046 0.96399 0.02157 0.0
C623 C 0.44057 0.93687 1.00831 0.0
C624 C 0.47364 0.96472 0.02323 0.0
C625 C 0.46847 0.99058 0.03811 0.0
C626 C 0.43243 0.99017 0.03732 0.0
C627 C 0.51346 0.96718 0.02307 0.0
C628 C 0.52974 0.96398 0.04319 0.0
C629 C 0.53525 0.97199 1.00317 0.0
C630 C 0.52287 0.97972 0.98144 0.0
C631 C 0.51985 0.01537 0.97865 0.0
C632 C 0.50794 0.02235 0.95817 0.0
C633 C 0.49933 0.99414 0.94028 0.0
C634 C 0.50273 0.95896 0.94282 0.0
C635 C 0.51457 0.95179 0.96329 0.0
H636 H 0.49012 -0.0004 0.92443 0.0
H637 H 0.62047 0.95095 0.12304 0.0
H638 H 0.77459 0.67596 0.35764 0.0
H639 H 0.71023 0.59953 0.35654 0.0
H640 H 0.63627 0.65029 0.35408 0.0
H641 H 0.7003 0.72667 0.35523 0.0
H642 H 0.60524 0.58282 0.38418 0.0
H643 H 0.6494 0.60854 0.30798 0.0
H644 H 0.69899 0.6297 0.27722 0.0
H645 H 0.70871 0.52401 0.29484 0.0
H646 H 0.65959 0.50259 0.32592 0.0
H647 H 0.41009 0.3761 0.3592 0.0
H648 H 0.47271 0.45359 0.35769 0.0
H649 H 0.55085 0.40793 0.354 0.0
H650 H 0.48858 0.3307 0.3549 0.0
H651 H 0.57917 0.47395 0.32635 0.0
H652 H 0.53795 0.4493 0.40296 0.0
H653 H 0.48987 0.42805 0.43451 0.0
H654 H 0.47632 0.53119 0.41723 0.0
H655 H 0.52392 0.55268 0.38538 0.0
C656 C 0.74465 0.67089 0.35678 0.0
C657 C 0.74268 0.70753 0.35648 0.0
C658 C 0.70787 0.62715 0.35609 0.0
C659 C 0.66837 0.61913 0.35507 0.0
C660 C 0.66634 0.65563 0.35486 0.0
C661 C 0.70306 0.69932 0.35543 0.0
C662 C 0.62913 0.57274 0.35456 0.0
C663 C 0.59924 0.55918 0.37136 0.0
C664 C 0.62172 0.54154 0.33814 0.0
C665 C 0.65113 0.55424 0.31941 0.0
C666 C 0.66237 0.59004 0.30541 0.0
C667 C 0.69035 0.60203 0.28789 0.0
C668 C 0.70707 0.57829 0.28411 0.0
C669 C 0.69577 0.54241 0.29781 0.0
C670 C 0.66783 0.5303 0.31536 0.0
C671 C 0.4406 0.38257 0.35799 0.0
C672 C 0.44425 0.34711 0.35725 0.0
C673 C 0.47645 0.42694 0.35725 0.0
C674 C 0.5167 0.43678 0.35605 0.0
C675 C 0.52026 0.40136 0.35493 0.0
C676 C 0.48451 0.3571 0.35551 0.0
C677 C 0.55521 0.48382 0.35606 0.0
C678 C 0.58502 0.49755 0.33916 0.0
C679 C 0.56271 0.51508 0.3725 0.0
C680 C 0.53413 0.50226 0.39165 0.0
C681 C 0.52445 0.46721 0.40578 0.0
C682 C 0.49734 0.45517 0.42374 0.0
C683 C 0.47995 0.47817 0.42784 0.0
C684 C 0.48975 0.51335 0.41401 0.0
C685 C 0.51682 0.52549 0.39602 0.0
H686 H 0.45897 0.4688 0.44175 0.0
H687 H 0.72873 0.58762 0.27054 0.0
H688 H 0.20429 0.72919 0.68016 0.0
H689 H 0.18543 0.65404 0.68311 0.0
H690 H 0.05488 0.60107 0.68919 0.0
H691 H 0.07383 0.67705 0.6868 0.0
H692 H 0.07394 0.55933 0.71712 0.0
H693 H 0.09466 0.59423 0.63988 0.0
H694 H 0.13173 0.6393 0.60659 0.0
H695 H 0.23374 0.63096 0.62 0.0
H696 H 0.19753 0.58634 0.65356 0.0
H697 H 0.99878 0.33617 0.69065 0.0
H698 H 0.01458 0.41042 0.69079 0.0
H699 H 0.14702 0.46991 0.68978 0.0
H700 H 0.13146 0.39541 0.68957 0.0
H701 H 0.12444 0.50699 0.65892 0.0
H702 H 0.10171 0.4712 0.73671 0.0
H703 H 0.06244 0.42481 0.7693 0.0
H704 H 0.96092 0.43277 0.75363 0.0
H705 H 0.99936 0.47872 0.72075 0.0
C706 C 0.1715 0.70167 0.68215 0.0
C707 C 0.14049 0.70911 0.68302 0.0
C708 C 0.16076 0.65859 0.68376 0.0
C709 C 0.11865 0.62171 0.68588 0.0
C710 C 0.08758 0.629 0.68741 0.0
C711 C 0.09841 0.67238 0.68601 0.0
C712 C 0.10748 0.57576 0.68624 0.0
C713 C 0.08443 0.54764 0.70422 0.0
C714 C 0.12174 0.56065 0.6696 0.0
C715 C 0.14352 0.58725 0.64934 0.0
C716 C 0.12512 0.60226 0.63582 0.0
C717 C 0.14597 0.62769 0.61689 0.0
C718 C 0.18511 0.63807 0.61121 0.0
C719 C 0.20344 0.62293 0.62443 0.0
C720 C 0.18274 0.59752 0.64339 0.0
C721 C 0.03133 0.36498 0.69057 0.0
C722 C 0.06389 0.35982 0.6901 0.0
C723 C 0.04028 0.40745 0.69075 0.0
C724 C 0.08197 0.44573 0.69047 0.0
C725 C 0.1146 0.44078 0.69004 0.0
C726 C 0.10568 0.39821 0.68999 0.0
C727 C 0.09136 0.49084 0.6899 0.0
C728 C 0.11396 0.51871 0.67182 0.0
C729 C 0.07632 0.50546 0.70631 0.0
C730 C 0.05326 0.47805 0.72615 0.0
C731 C 0.07087 0.46276 0.74011 0.0
C732 C 0.04879 0.4366 0.75866 0.0
C733 C 0.00917 0.42575 0.7635 0.0
C734 C 0.9916 0.44116 0.74984 0.0
C735 C 0.01354 0.4673 0.73126 0.0
H736 H 0.99212 0.40549 0.77787 0.0
H737 H 0.2012 0.65777 0.59655 0.0
loop_
_geom_bond_atom_site_label_1
_geom_bond_atom_site_label_2
_geom_bond_distance
_geom_bond_site_symmetry_2
_ccdc_geom_bond_type
Cu0 N1 1.999 1_554 S
Cu0 O6 1.974 . S
Cu0 N11 1.985 . S
Cu0 O20 1.959 . S
N1 Cu0 1.999 1_556 S
N1 C3 1.263 . S
N1 C5 1.389 . S
N2 C3 1.358 . S
N2 C4 1.400 . S
C3 N1 1.263 . S
C3 N2 1.358 . S
C3 H9 0.930 1_545 S
C4 N2 1.400 . S
C4 C5 1.351 . S
C4 H21 0.930 . S
C5 N1 1.389 . S
C5 C4 1.351 . S
C5 H10 0.930 . S
O6 Cu0 1.974 . S
O6 C16 1.282 . S
C7 O8 1.261 1_545 S
C7 O20 1.251 . S
O8 C7 1.261 1_565 S
H9 C3 0.930 1_565 S
H10 C5 0.930 . S
N11 Cu0 1.985 . S
N11 C13 1.335 . S
N11 C14 1.390 . S
N12 C13 1.345 . S
N12 C15 1.336 . S
C13 N11 1.335 . S
C13 N12 1.345 . S
C13 H18 0.930 . S
C14 N11 1.390 . S
C14 C15 1.346 . S
C14 H19 0.930 . S
C15 N12 1.336 . S
C15 C14 1.346 . S
C15 H22 0.929 . S
C16 O6 1.282 . S
C16 O17 1.216 1_545 S
O17 C16 1.216 1_565 S
H18 C13 0.930 . S
H19 C14 0.930 . S
O20 Cu0 1.959 . S
O20 C7 1.251 . S
H21 C4 0.930 . S
H22 C15 0.929 . S
Cu23 N24 1.999 . S
Cu23 O29 1.974 . S
Cu23 N34 1.985 . S
Cu23 O43 1.959 . S
N24 Cu23 1.999 . S
N24 C26 1.263 . S
N24 C28 1.389 . S
N25 C26 1.358 . S
N25 C27 1.400 . S
C26 N24 1.263 . S
C26 N25 1.358 . S
C26 H32 0.930 . S
C27 N25 1.400 . S
C27 C28 1.351 . S
C27 H44 0.930 . S
C28 N24 1.389 . S
C28 C27 1.351 . S
C28 H33 0.930 . S
O29 Cu23 1.974 . S
O29 C39 1.282 . S
C30 O31 1.261 . S
C30 O43 1.251 . S
O31 C30 1.261 . S
H32 C26 0.930 . S
H33 C28 0.930 . S
N34 Cu23 1.985 . S
N34 C36 1.335 . S
N34 C37 1.390 . S
N35 C36 1.345 . S
N35 C38 1.336 . S
C36 N34 1.335 . S
C36 N35 1.345 . S
C36 H41 0.930 . S
C37 N34 1.390 . S
C37 C38 1.346 . S
C37 H42 0.930 . S
C38 N35 1.336 . S
C38 C37 1.346 . S
C38 H45 0.929 . S
C39 O29 1.282 . S
C39 O40 1.216 . S
O40 C39 1.216 . S
H41 C36 0.930 . S
H42 C37 0.930 . S
O43 Cu23 1.959 . S
O43 C30 1.251 . S
H44 C27 0.930 . S
H45 C38 0.929 . S
Cu46 N47 1.999 . S
Cu46 O52 1.974 . S
Cu46 N57 1.985 . S
Cu46 O66 1.959 . S
N47 Cu46 1.999 . S
N47 C49 1.263 1_455 S
N47 C51 1.389 . S
N48 C49 1.358 . S
N48 C50 1.400 . S
C49 N47 1.263 1_655 S
C49 N48 1.358 . S
C49 H55 0.930 . S
C50 N48 1.400 . S
C50 C51 1.351 1_655 S
C50 H67 0.930 1_655 S
C51 N47 1.389 . S
C51 C50 1.351 1_455 S
C51 H56 0.930 . S
O52 Cu46 1.974 . S
O52 C62 1.282 1_455 S
C53 O54 1.261 . S
C53 O66 1.251 1_655 S
O54 C53 1.261 . S
H55 C49 0.930 . S
H56 C51 0.930 . S
N57 Cu46 1.985 . S
N57 C59 1.335 . S
N57 C60 1.390 . S
N58 C59 1.345 . S
N58 C61 1.336 . S
C59 N57 1.335 . S
C59 N58 1.345 . S
C59 H64 0.930 . S
C60 N57 1.390 . S
C60 C61 1.346 . S
C60 H65 0.930 . S
C61 N58 1.336 . S
C61 C60 1.346 . S
C61 H68 0.929 . S
C62 O52 1.282 1_655 S
C62 O63 1.216 . S
O63 C62 1.216 . S
H64 C59 0.930 . S
H65 C60 0.930 . S
O66 Cu46 1.959 . S
O66 C53 1.251 1_455 S
H67 C50 0.930 1_455 S
H68 C61 0.929 . S
Cu69 N70 1.999 1_554 S
Cu69 O75 1.974 . S
Cu69 N80 1.985 . S
Cu69 O89 1.959 . S
N70 Cu69 1.999 1_556 S
N70 C72 1.263 . S
N70 C74 1.389 . S
N71 C72 1.358 . S
N71 C73 1.400 . S
C72 N70 1.263 . S
C72 N71 1.358 . S
C72 H78 0.930 . S
C73 N71 1.400 . S
C73 C74 1.351 . S
C73 H90 0.930 . S
C74 N70 1.389 . S
C74 C73 1.351 . S
C74 H79 0.930 1_545 S
O75 Cu69 1.974 . S
O75 C85 1.282 . S
C76 O77 1.261 . S
C76 O89 1.251 . S
O77 C76 1.261 . S
H78 C72 0.930 . S
H79 C74 0.930 1_565 S
N80 Cu69 1.985 . S
N80 C82 1.335 1_545 S
N80 C83 1.390 . S
N81 C82 1.345 . S
N81 C84 1.308 1_565 S
C82 N80 1.335 1_565 S
C82 N81 1.345 . S
C82 H87 0.930 . S
C83 N80 1.390 . S
C83 C84 1.359 . S
C83 H88 0.930 . S
C84 N81 1.308 1_545 S
C84 C83 1.359 . S
C84 H91 0.944 . S
C85 O75 1.282 . S
C85 O86 1.216 . S
O86 C85 1.216 . S
H87 C82 0.930 . S
H88 C83 0.930 . S
O89 Cu69 1.959 . S
O89 C76 1.251 . S
H90 C73 0.930 . S
H91 C84 0.944 . S
Cu92 N93 1.999 . S
Cu92 O98 1.974 . S
Cu92 N103 1.985 . S
Cu92 O112 1.959 . S
N93 Cu92 1.999 . S
N93 C95 1.263 . S
N93 C97 1.389 . S
N94 C95 1.358 . S
N94 C96 1.400 . S
C95 N93 1.263 . S
C95 N94 1.358 . S
C95 H101 0.930 . S
C96 N94 1.400 . S
C96 C97 1.351 . S
C96 H113 0.930 . S
C97 N93 1.389 . S
C97 C96 1.351 . S
C97 H102 0.930 . S
O98 Cu92 1.974 . S
O98 C108 1.282 . S
C99 O100 1.261 . S
C99 O112 1.251 . S
O100 C99 1.261 . S
H101 C95 0.930 . S
H102 C97 0.930 . S
N103 Cu92 1.985 . S
N103 C105 1.335 . S
N103 C106 1.390 . S
N104 C105 1.345 . S
N104 C107 1.336 . S
C105 N103 1.335 . S
C105 N104 1.345 . S
C105 H110 0.930 . S
C106 N103 1.390 . S
C106 C107 1.346 . S
C106 H111 0.930 . S
C107 N104 1.336 . S
C107 C106 1.346 . S
C107 H114 0.929 . S
C108 O98 1.282 . S
C108 O109 1.216 . S
O109 C108 1.216 . S
H110 C105 0.930 . S
H111 C106 0.930 . S
O112 Cu92 1.959 . S
O112 C99 1.251 . S
H113 C96 0.930 . S
H114 C107 0.929 . S
Cu115 N116 1.999 . S
Cu115 O121 1.974 . S
Cu115 N126 1.985 . S
Cu115 O135 1.959 . S
N116 Cu115 1.999 . S
N116 C118 1.263 . S
N116 C120 1.389 . S
N117 C118 1.358 . S
N117 C119 1.400 . S
C118 N116 1.263 . S
C118 N117 1.358 . S
C118 H124 0.930 . S
C119 N117 1.400 . S
C119 C120 1.351 . S
C119 H136 0.930 . S
C120 N116 1.389 . S
C120 C119 1.351 . S
C120 H125 0.930 . S
O121 Cu115 1.974 . S
O121 C131 1.282 . S
C122 O123 1.261 . S
C122 O135 1.251 . S
O123 C122 1.261 . S
H124 C118 0.930 . S
H125 C120 0.930 . S
N126 Cu115 1.985 . S
N126 C128 1.335 . S
N126 C129 1.390 . S
N127 C128 1.345 . S
N127 C130 1.336 . S
C128 N126 1.335 . S
C128 N127 1.345 . S
C128 H133 0.930 . S
C129 N126 1.390 . S
C129 C130 1.346 . S
C129 H134 0.930 . S
C130 N127 1.336 . S
C130 C129 1.346 . S
C130 H137 0.929 . S
C131 O121 1.282 . S
C131 O132 1.216 . S
O132 C131 1.216 . S
H133 C128 0.930 . S
H134 C129 0.930 . S
O135 Cu115 1.959 . S
O135 C122 1.251 . S
H136 C119 0.930 . S
H137 C130 0.929 . S
H138 C156 0.951 . S
H139 C158 0.951 . S
H140 C160 0.950 . S
H141 C161 0.950 . S
H142 C163 0.950 . S
H143 C166 0.950 . S
H144 C167 0.950 . S
H145 C169 0.950 . S
H146 C170 0.950 . S
H147 C171 0.951 . S
H148 C173 0.951 . S
H149 C175 0.950 . S
H150 C176 0.950 . S
H151 C178 0.950 . S
H152 C181 0.950 . S
H153 C182 0.950 . S
H154 C184 0.950 . S
H155 C185 0.950 . S
C156 H138 0.951 . S
C156 C157 1.366 . S
C156 C158 1.388 . S
C157 C156 1.366 . S
C157 C161 1.385 . S
C158 H139 0.951 . S
C158 C156 1.388 . S
C158 C159 1.366 . S
C159 C158 1.366 . S
C159 C160 1.414 . S
C159 C162 1.499 . S
C160 H140 0.950 . S
C160 C159 1.414 . S
C160 C161 1.374 . S
C161 H141 0.950 . S
C161 C157 1.385 . S
C161 C160 1.374 . S
C162 C159 1.499 . S
C162 C163 1.373 . S
C162 C164 1.389 . S
C163 H142 0.950 . S
C163 C162 1.373 . S
C163 C179 1.377 . S
C164 C162 1.389 . S
C164 C165 1.524 . S
C164 C178 1.377 . S
C165 C164 1.524 . S
C165 C166 1.397 . S
C165 C170 1.363 . S
C166 H143 0.950 . S
C166 C165 1.397 . S
C166 C167 1.334 . S
C167 H144 0.950 . S
C167 C166 1.334 . S
C167 C168 1.287 . S
C168 C167 1.287 . S
C168 C169 1.524 . S
C168 H187 0.913 . S
C169 H145 0.950 . S
C169 C168 1.524 . S
C169 C170 1.415 . S
C170 H146 0.950 . S
C170 C165 1.363 . S
C170 C169 1.415 . S
C171 H147 0.951 . S
C171 C172 1.366 . S
C171 C173 1.388 . S
C172 C171 1.366 . S
C172 C176 1.385 . S
C173 H148 0.951 . S
C173 C171 1.388 . S
C173 C174 1.366 . S
C174 C173 1.366 . S
C174 C175 1.414 . S
C174 C177 1.499 . S
C175 H149 0.950 . S
C175 C174 1.414 . S
C175 C176 1.374 . S
C176 H150 0.950 . S
C176 C172 1.385 . S
C176 C175 1.374 . S
C177 C174 1.499 . S
C177 C178 1.373 . S
C177 C179 1.389 . S
C178 H151 0.950 . S
C178 C164 1.377 . S
C178 C177 1.373 . S
C179 C163 1.377 . S
C179 C177 1.389 . S
C179 C180 1.524 . S
C180 C179 1.524 . S
C180 C181 1.397 . S
C180 C185 1.363 . S
C181 H152 0.950 . S
C181 C180 1.397 . S
C181 C182 1.334 . S
C182 H153 0.950 . S
C182 C181 1.334 . S
C182 C183 1.287 . S
C183 C182 1.287 . S
C183 C184 1.524 . S
C183 H186 0.999 . S
C184 H154 0.950 . S
C184 C183 1.524 . S
C184 C185 1.415 . S
C185 H155 0.950 . S
C185 C180 1.363 . S
C185 C184 1.415 . S
H186 C183 0.999 . S
H187 C168 0.913 . S
H188 C206 0.951 . S
H189 C208 0.951 . S
H190 C210 0.950 . S
H191 C211 0.950 . S
H192 C213 0.950 . S
H193 C216 0.950 . S
H194 C217 0.950 . S
H195 C219 0.950 . S
H196 C220 0.950 . S
H197 C221 0.951 . S
H198 C223 0.951 . S
H199 C225 0.950 . S
H200 C226 0.950 . S
H201 C228 0.950 . S
H202 C231 0.950 . S
H203 C232 0.950 . S
H204 C234 0.950 . S
H205 C235 0.950 . S
C206 H188 0.951 . S
C206 C207 1.366 . S
C206 C208 1.388 . S
C207 C206 1.366 . S
C207 C211 1.385 . S
C208 H189 0.951 . S
C208 C206 1.388 . S
C208 C209 1.366 . S
C209 C208 1.366 . S
C209 C210 1.414 . S
C209 C212 1.499 . S
C210 H190 0.950 . S
C210 C209 1.414 . S
C210 C211 1.374 . S
C211 H191 0.950 . S
C211 C207 1.385 . S
C211 C210 1.374 . S
C212 C209 1.499 . S
C212 C213 1.373 . S
C212 C214 1.389 . S
C213 H192 0.950 . S
C213 C212 1.373 . S
C213 C229 1.377 . S
C214 C212 1.389 . S
C214 C215 1.524 . S
C214 C228 1.377 . S
C215 C214 1.524 . S
C215 C216 1.397 . S
C215 C220 1.363 . S
C216 H193 0.950 . S
C216 C215 1.397 . S
C216 C217 1.334 . S
C217 H194 0.950 . S
C217 C216 1.334 . S
C217 C218 1.287 . S
C218 C217 1.287 . S
C218 C219 1.524 . S
C218 H237 0.913 . S
C219 H195 0.950 . S
C219 C218 1.524 . S
C219 C220 1.415 . S
C220 H196 0.950 . S
C220 C215 1.363 . S
C220 C219 1.415 . S
C221 H197 0.951 . S
C221 C222 1.366 . S
C221 C223 1.388 . S
C222 C221 1.366 . S
C222 C226 1.385 . S
C223 H198 0.951 . S
C223 C221 1.388 . S
C223 C224 1.366 . S
C224 C223 1.366 . S
C224 C225 1.414 . S
C224 C227 1.499 . S
C225 H199 0.950 . S
C225 C224 1.414 . S
C225 C226 1.374 . S
C226 H200 0.950 . S
C226 C222 1.385 . S
C226 C225 1.374 . S
C227 C224 1.499 . S
C227 C228 1.373 . S
C227 C229 1.389 . S
C228 H201 0.950 . S
C228 C214 1.377 . S
C228 C227 1.373 . S
C229 C213 1.377 . S
C229 C227 1.389 . S
C229 C230 1.524 . S
C230 C229 1.524 . S
C230 C231 1.397 . S
C230 C235 1.363 . S
C231 H202 0.950 . S
C231 C230 1.397 . S
C231 C232 1.334 . S
C232 H203 0.950 . S
C232 C231 1.334 . S
C232 C233 1.287 . S
C233 C232 1.287 . S
C233 C234 1.524 . S
C233 H236 0.999 . S
C234 H204 0.950 . S
C234 C233 1.524 . S
C234 C235 1.415 . S
C235 H205 0.950 . S
C235 C230 1.363 . S
C235 C234 1.415 . S
H236 C233 0.999 . S
H237 C218 0.913 . S
H238 C256 0.951 . S
H239 C258 0.951 . S
H240 C260 0.950 . S
H241 C261 0.950 . S
H242 C263 0.950 . S
H243 C266 0.950 . S
H244 C267 0.950 . S
H245 C269 0.950 . S
H246 C270 0.950 . S
H247 C271 0.951 . S
H248 C273 0.951 . S
H249 C275 0.950 . S
H250 C276 0.950 1_455 S
H251 C278 0.950 . S
H252 C281 0.950 . S
H253 C282 0.950 . S
H254 C284 0.950 . S
H255 C285 0.950 . S
C256 H238 0.951 . S
C256 C257 1.366 . S
C256 C258 1.388 . S
C257 C256 1.366 . S
C257 C261 1.385 . S
C258 H239 0.951 . S
C258 C256 1.388 . S
C258 C259 1.366 . S
C259 C258 1.366 . S
C259 C260 1.414 . S
C259 C262 1.499 . S
C260 H240 0.950 . S
C260 C259 1.414 . S
C260 C261 1.374 . S
C261 H241 0.950 . S
C261 C257 1.385 . S
C261 C260 1.374 . S
C262 C259 1.499 . S
C262 C263 1.373 . S
C262 C264 1.389 . S
C263 H242 0.950 . S
C263 C262 1.373 . S
C263 C279 1.377 . S
C264 C262 1.389 . S
C264 C265 1.524 . S
C264 C278 1.377 . S
C265 C264 1.524 . S
C265 C266 1.397 . S
C265 C270 1.363 . S
C266 H243 0.950 . S
C266 C265 1.397 . S
C266 C267 1.334 . S
C267 H244 0.950 . S
C267 C266 1.334 . S
C267 C268 1.287 . S
C268 C267 1.287 . S
C268 C269 1.524 . S
C268 H287 0.913 . S
C269 H245 0.950 . S
C269 C268 1.524 . S
C269 C270 1.415 . S
C270 H246 0.950 . S
C270 C265 1.363 . S
C270 C269 1.415 . S
C271 H247 0.951 . S
C271 C272 1.366 . S
C271 C273 1.388 . S
C272 C271 1.366 . S
C272 C276 1.385 . S
C273 H248 0.951 . S
C273 C271 1.388 . S
C273 C274 1.366 . S
C274 C273 1.366 . S
C274 C275 1.414 . S
C274 C277 1.499 . S
C275 H249 0.950 . S
C275 C274 1.414 . S
C275 C276 1.374 . S
C276 H250 0.950 1_655 S
C276 C272 1.385 . S
C276 C275 1.374 . S
C277 C274 1.499 . S
C277 C278 1.373 . S
C277 C279 1.389 . S
C278 H251 0.950 . S
C278 C264 1.377 . S
C278 C277 1.373 . S
C279 C263 1.377 . S
C279 C277 1.389 . S
C279 C280 1.524 . S
C280 C279 1.524 . S
C280 C281 1.397 . S
C280 C285 1.363 . S
C281 H252 0.950 . S
C281 C280 1.397 . S
C281 C282 1.334 . S
C282 H253 0.950 . S
C282 C281 1.334 . S
C282 C283 1.287 . S
C283 C282 1.287 . S
C283 C284 1.524 1_545 S
C283 H286 0.999 1_545 S
C284 H254 0.950 . S
C284 C283 1.524 1_565 S
C284 C285 1.415 1_565 S
C285 H255 0.950 . S
C285 C280 1.363 . S
C285 C284 1.415 1_545 S
H286 C283 0.999 1_565 S
H287 C268 0.913 . S
H288 C306 0.951 . S
H289 C308 0.951 . S
H290 C310 0.950 . S
H291 C311 0.950 . S
H292 C313 0.950 . S
H293 C316 0.950 . S
H294 C317 0.950 . S
H295 C319 0.950 . S
H296 C320 0.950 . S
H297 C321 0.951 . S
H298 C323 0.951 . S
H299 C325 0.950 . S
H300 C326 0.950 . S
H301 C328 0.950 . S
H302 C331 0.950 . S
H303 C332 0.950 . S
H304 C334 0.950 . S
H305 C335 0.950 . S
C306 H288 0.951 . S
C306 C307 1.366 . S
C306 C308 1.388 . S
C307 C306 1.366 . S
C307 C311 1.385 . S
C308 H289 0.951 . S
C308 C306 1.388 . S
C308 C309 1.366 . S
C309 C308 1.366 . S
C309 C310 1.414 . S
C309 C312 1.499 . S
C310 H290 0.950 . S
C310 C309 1.414 . S
C310 C311 1.374 . S
C311 H291 0.950 . S
C311 C307 1.385 . S
C311 C310 1.374 . S
C312 C309 1.499 . S
C312 C313 1.373 . S
C312 C314 1.389 . S
C313 H292 0.950 . S
C313 C312 1.373 . S
C313 C329 1.377 . S
C314 C312 1.389 . S
C314 C315 1.524 . S
C314 C328 1.377 . S
C315 C314 1.524 . S
C315 C316 1.397 . S
C315 C320 1.363 . S
C316 H293 0.950 . S
C316 C315 1.397 . S
C316 C317 1.334 . S
C317 H294 0.950 . S
C317 C316 1.334 . S
C317 C318 1.287 . S
C318 C317 1.287 . S
C318 C319 1.524 . S
C318 H337 0.913 . S
C319 H295 0.950 . S
C319 C318 1.524 . S
C319 C320 1.415 . S
C320 H296 0.950 . S
C320 C315 1.363 . S
C320 C319 1.415 . S
C321 H297 0.951 . S
C321 C322 1.366 . S
C321 C323 1.388 . S
C322 C321 1.366 . S
C322 C326 1.385 . S
C323 H298 0.951 . S
C323 C321 1.388 . S
C323 C324 1.366 . S
C324 C323 1.366 . S
C324 C325 1.414 . S
C324 C327 1.499 . S
C325 H299 0.950 . S
C325 C324 1.414 . S
C325 C326 1.374 . S
C326 H300 0.950 . S
C326 C322 1.385 . S
C326 C325 1.374 . S
C327 C324 1.499 . S
C327 C328 1.373 . S
C327 C329 1.389 . S
C328 H301 0.950 . S
C328 C314 1.377 . S
C328 C327 1.373 . S
C329 C313 1.377 . S
C329 C327 1.389 . S
C329 C330 1.524 . S
C330 C329 1.524 . S
C330 C331 1.397 . S
C330 C335 1.363 . S
C331 H302 0.950 . S
C331 C330 1.397 . S
C331 C332 1.334 . S
C332 H303 0.950 . S
C332 C331 1.334 . S
C332 C333 1.287 . S
C333 C332 1.287 . S
C333 C334 1.524 . S
C333 H336 0.999 . S
C334 H304 0.950 . S
C334 C333 1.524 . S
C334 C335 1.415 . S
C335 H305 0.950 . S
C335 C330 1.363 . S
C335 C334 1.415 . S
H336 C333 0.999 . S
H337 C318 0.913 . S
H338 C356 0.951 . S
H339 C358 0.970 . S
H340 C360 0.950 . S
H341 C361 0.950 . S
H342 C363 0.950 . S
H343 C366 0.950 . S
H344 C367 0.950 . S
H345 C369 0.950 . S
H346 C370 0.950 . S
H347 C371 0.951 . S
H348 C373 0.951 1_455 S
H349 C375 0.950 . S
H350 C376 0.950 . S
H351 C378 0.950 . S
H352 C381 0.950 1_655 S
H353 C382 0.950 1_655 S
H354 C384 0.950 . S
H355 C385 0.950 . S
C356 H338 0.951 . S
C356 C357 1.366 . S
C356 C358 1.388 . S
C357 C356 1.366 . S
C357 C361 1.385 . S
C358 H339 0.970 . S
C358 C356 1.388 . S
C358 C359 1.366 . S
C359 C358 1.366 . S
C359 C360 1.414 . S
C359 C362 1.499 . S
C360 H340 0.950 . S
C360 C359 1.414 . S
C360 C361 1.374 . S
C361 H341 0.950 . S
C361 C357 1.385 . S
C361 C360 1.374 . S
C362 C359 1.499 . S
C362 C363 1.373 . S
C362 C364 1.389 1_455 S
C363 H342 0.950 . S
C363 C362 1.373 . S
C363 C379 1.377 . S
C364 C362 1.389 1_655 S
C364 C365 1.524 . S
C364 C378 1.377 . S
C365 C364 1.524 . S
C365 C366 1.397 1_655 S
C365 C370 1.363 . S
C366 H343 0.950 . S
C366 C365 1.397 1_455 S
C366 C367 1.334 . S
C367 H344 0.950 . S
C367 C366 1.334 . S
C367 C368 1.287 1_455 S
C368 C367 1.287 1_655 S
C368 C369 1.524 . S
C368 H387 0.913 . S
C369 H345 0.950 . S
C369 C368 1.524 . S
C369 C370 1.415 . S
C370 H346 0.950 . S
C370 C365 1.363 . S
C370 C369 1.415 . S
C371 H347 0.951 . S
C371 C372 1.366 . S
C371 C373 1.388 . S
C372 C371 1.366 . S
C372 C376 1.385 . S
C373 H348 0.951 1_655 S
C373 C371 1.388 . S
C373 C374 1.366 . S
C374 C373 1.366 . S
C374 C375 1.414 . S
C374 C377 1.499 . S
C375 H349 0.950 . S
C375 C374 1.414 . S
C375 C376 1.374 . S
C376 H350 0.950 . S
C376 C372 1.385 . S
C376 C375 1.374 . S
C377 C374 1.499 . S
C377 C378 1.373 . S
C377 C379 1.389 1_655 S
C378 H351 0.950 . S
C378 C364 1.377 . S
C378 C377 1.373 . S
C379 C363 1.377 . S
C379 C377 1.389 1_455 S
C379 C380 1.524 . S
C380 C379 1.524 . S
C380 C381 1.397 . S
C380 C385 1.363 . S
C381 H352 0.950 1_455 S
C381 C380 1.397 . S
C381 C382 1.334 . S
C382 H353 0.950 1_455 S
C382 C381 1.334 . S
C382 C383 1.287 . S
C383 C382 1.287 . S
C383 C384 1.524 . S
C383 H386 0.999 . S
C384 H354 0.950 . S
C384 C383 1.524 . S
C384 C385 1.415 . S
C385 H355 0.950 . S
C385 C380 1.363 . S
C385 C384 1.415 . S
H386 C383 0.999 . S
H387 C368 0.913 . S
H388 C406 0.951 . S
H389 C408 0.951 . S
H390 C410 0.950 . S
H391 C411 0.950 . S
H392 C413 0.950 . S
H393 C416 0.950 . S
H394 C417 0.950 . S
H395 C419 0.950 . S
H396 C420 0.950 . S
H397 C421 0.951 . S
H398 C423 0.951 . S
H399 C425 0.950 . S
H400 C426 0.950 . S
H401 C428 0.950 . S
H402 C431 0.950 . S
H403 C432 0.950 . S
H404 C434 0.950 . S
H405 C435 0.950 . S
C406 H388 0.951 . S
C406 C407 1.366 . S
C406 C408 1.388 . S
C407 C406 1.366 . S
C407 C411 1.385 . S
C408 H389 0.951 . S
C408 C406 1.388 . S
C408 C409 1.366 . S
C409 C408 1.366 . S
C409 C410 1.414 . S
C409 C412 1.499 . S
C410 H390 0.950 . S
C410 C409 1.414 . S
C410 C411 1.374 . S
C411 H391 0.950 . S
C411 C407 1.385 . S
C411 C410 1.374 . S
C412 C409 1.499 . S
C412 C413 1.373 . S
C412 C414 1.389 . S
C413 H392 0.950 . S
C413 C412 1.373 . S
C413 C429 1.377 . S
C414 C412 1.389 . S
C414 C415 1.533 . S
C414 C428 1.377 . S
C415 C414 1.533 . S
C415 C416 1.369 1_565 S
C415 C420 1.380 . S
C416 H393 0.950 . S
C416 C415 1.369 1_545 S
C416 C417 1.334 . S
C417 H394 0.950 . S
C417 C416 1.334 . S
C417 C418 1.287 . S
C418 C417 1.287 . S
C418 C419 1.524 . S
C418 H437 0.913 . S
C419 H395 0.950 . S
C419 C418 1.524 . S
C419 C420 1.415 1_545 S
C420 H396 0.950 . S
C420 C415 1.380 . S
C420 C419 1.415 1_565 S
C421 H397 0.951 . S
C421 C422 1.366 . S
C421 C423 1.388 . S
C422 C421 1.366 . S
C422 C426 1.385 . S
C423 H398 0.951 . S
C423 C421 1.388 . S
C423 C424 1.366 . S
C424 C423 1.366 . S
C424 C425 1.414 . S
C424 C427 1.499 . S
C425 H399 0.950 . S
C425 C424 1.414 . S
C425 C426 1.374 . S
C426 H400 0.950 . S
C426 C422 1.385 . S
C426 C425 1.374 . S
C427 C424 1.499 . S
C427 C428 1.373 . S
C427 C429 1.389 . S
C428 H401 0.950 . S
C428 C414 1.377 . S
C428 C427 1.373 . S
C429 C413 1.377 . S
C429 C427 1.389 . S
C429 C430 1.524 . S
C430 C429 1.524 . S
C430 C431 1.397 . S
C430 C435 1.363 . S
C431 H402 0.950 . S
C431 C430 1.397 . S
C431 C432 1.334 . S
C432 H403 0.950 . S
C432 C431 1.334 . S
C432 C433 1.287 . S
C433 C432 1.287 . S
C433 C434 1.524 . S
C433 H436 0.999 . S
C434 H404 0.950 . S
C434 C433 1.524 . S
C434 C435 1.415 . S
C435 H405 0.950 . S
C435 C430 1.363 . S
C435 C434 1.415 . S
H436 C433 0.999 . S
H437 C418 0.913 . S
H438 C456 0.951 1_556 S
H439 C458 0.951 1_556 S
H440 C460 0.950 . S
H441 C461 0.952 . S
H442 C463 0.950 . S
H443 C466 0.950 . S
H444 C467 0.950 . S
H445 C469 0.950 . S
H446 C470 0.950 . S
H447 C471 0.951 . S
H448 C473 0.951 . S
H449 C475 0.950 1_556 S
H450 C476 0.950 1_556 S
H451 C478 0.950 . S
H452 C481 0.950 . S
H453 C482 0.950 . S
H454 C484 0.950 . S
H455 C485 0.950 . S
C456 H438 0.951 1_554 S
C456 C457 1.366 . S
C456 C458 1.388 . S
C457 C456 1.366 . S
C457 C461 1.385 . S
C458 H439 0.951 1_554 S
C458 C456 1.388 . S
C458 C459 1.366 . S
C459 C458 1.366 . S
C459 C460 1.414 . S
C459 C462 1.499 . S
C460 H440 0.950 . S
C460 C459 1.414 . S
C460 C461 1.374 . S
C461 H441 0.952 . S
C461 C457 1.385 . S
C461 C460 1.374 . S
C462 C459 1.499 . S
C462 C463 1.373 1_545 S
C462 C464 1.389 . S
C463 H442 0.950 . S
C463 C462 1.373 1_565 S
C463 C479 1.377 . S
C464 C462 1.389 . S
C464 C465 1.524 . S
C464 C478 1.377 . S
C465 C464 1.524 . S
C465 C466 1.397 . S
C465 C470 1.363 1_554 S
C466 H443 0.950 . S
C466 C465 1.397 . S
C466 C467 1.334 . S
C467 H444 0.950 . S
C467 C466 1.334 . S
C467 C468 1.316 . S
C468 C467 1.316 . S
C468 C469 1.499 1_554 S
C468 H487 0.907 1_554 S
C469 H445 0.950 . S
C469 C468 1.499 1_556 S
C469 C470 1.415 . S
C470 H446 0.950 . S
C470 C465 1.363 1_556 S
C470 C469 1.415 . S
C471 H447 0.951 . S
C471 C472 1.366 . S
C471 C473 1.388 . S
C472 C471 1.366 . S
C472 C476 1.385 . S
C473 H448 0.951 . S
C473 C471 1.388 . S
C473 C474 1.366 1_655 S
C474 C473 1.366 1_455 S
C474 C475 1.414 . S
C474 C477 1.499 . S
C475 H449 0.950 1_554 S
C475 C474 1.414 . S
C475 C476 1.374 1_455 S
C476 H450 0.950 1_554 S
C476 C472 1.385 . S
C476 C475 1.374 1_655 S
C477 C474 1.499 . S
C477 C478 1.373 . S
C477 C479 1.389 1_545 S
C478 H451 0.950 . S
C478 C464 1.377 . S
C478 C477 1.373 . S
C479 C463 1.377 . S
C479 C477 1.389 1_565 S
C479 C480 1.524 . S
C480 C479 1.524 . S
C480 C481 1.397 1_455 S
C480 C485 1.363 . S
C481 H452 0.950 . S
C481 C480 1.397 1_655 S
C481 C482 1.334 . S
C482 H453 0.950 . S
C482 C481 1.334 . S
C482 C483 1.287 . S
C483 C482 1.287 . S
C483 C484 1.524 . S
C483 H486 0.999 . S
C484 H454 0.950 . S
C484 C483 1.524 . S
C484 C485 1.415 1_655 S
C485 H455 0.950 . S
C485 C480 1.363 . S
C485 C484 1.415 1_455 S
H486 C483 0.999 . S
H487 C468 0.907 1_556 S
H488 C506 0.951 . S
H489 C508 0.951 . S
H490 C510 0.950 1_455 S
H491 C511 0.950 . S
H492 C513 0.950 . S
H493 C516 0.950 . S
H494 C517 0.950 . S
H495 C519 0.950 . S
H496 C520 0.950 . S
H497 C521 0.951 . S
H498 C523 0.951 . S
H499 C525 0.950 . S
H500 C526 0.950 . S
H501 C528 0.950 . S
H502 C531 0.950 . S
H503 C532 0.950 . S
H504 C534 0.950 . S
H505 C535 0.950 . S
C506 H488 0.951 . S
C506 C507 1.366 . S
C506 C508 1.388 . S
C507 C506 1.366 . S
C507 C511 1.385 . S
C508 H489 0.951 . S
C508 C506 1.388 . S
C508 C509 1.369 . S
C509 C508 1.369 . S
C509 C510 1.413 . S
C509 C512 1.495 1_655 S
C510 H490 0.950 1_655 S
C510 C509 1.413 . S
C510 C511 1.374 . S
C511 H491 0.950 . S
C511 C507 1.385 . S
C511 C510 1.374 . S
C512 C509 1.495 1_455 S
C512 C513 1.373 . S
C512 C514 1.389 1_565 S
C513 H492 0.950 . S
C513 C512 1.373 . S
C513 C529 1.377 1_565 S
C514 C512 1.389 1_545 S
C514 C515 1.524 . S
C514 C528 1.377 . S
C515 C514 1.524 . S
C515 C516 1.397 1_455 S
C515 C520 1.363 . S
C516 H493 0.950 . S
C516 C515 1.397 1_655 S
C516 C517 1.334 . S
C517 H494 0.950 . S
C517 C516 1.334 . S
C517 C518 1.287 . S
C518 C517 1.287 . S
C518 C519 1.524 . S
C518 H537 0.913 . S
C519 H495 0.950 . S
C519 C518 1.524 . S
C519 C520 1.415 1_655 S
C520 H496 0.950 . S
C520 C515 1.363 . S
C520 C519 1.415 1_455 S
C521 H497 0.951 . S
C521 C522 1.366 . S
C521 C523 1.388 . S
C522 C521 1.366 . S
C522 C526 1.385 . S
C523 H498 0.951 . S
C523 C521 1.388 . S
C523 C524 1.366 . S
C524 C523 1.366 . S
C524 C525 1.414 . S
C524 C527 1.499 . S
C525 H499 0.950 . S
C525 C524 1.414 . S
C525 C526 1.374 . S
C526 H500 0.950 . S
C526 C522 1.385 . S
C526 C525 1.374 . S
C527 C524 1.499 . S
C527 C528 1.373 . S
C527 C529 1.389 . S
C528 H501 0.950 . S
C528 C514 1.377 . S
C528 C527 1.373 . S
C529 C513 1.377 1_545 S
C529 C527 1.389 . S
C529 C530 1.524 . S
C530 C529 1.524 . S
C530 C531 1.397 . S
C530 C535 1.363 1_545 S
C531 H502 0.950 . S
C531 C530 1.397 . S
C531 C532 1.334 . S
C532 H503 0.950 . S
C532 C531 1.334 . S
C532 C533 1.287 . S
C533 C532 1.287 . S
C533 C534 1.524 1_545 S
C533 H536 0.999 1_545 S
C534 H504 0.950 . S
C534 C533 1.524 1_565 S
C534 C535 1.415 . S
C535 H505 0.950 . S
C535 C530 1.363 1_565 S
C535 C534 1.415 . S
H536 C533 0.999 1_565 S
H537 C518 0.913 . S
H538 C556 0.951 . S
H539 C558 0.951 . S
H540 C560 0.950 . S
H541 C561 0.950 . S
H542 C563 0.950 . S
H543 C566 0.948 1_655 S
H544 C567 0.950 . S
H545 C569 0.950 . S
H546 C570 0.950 . S
H547 C571 0.951 . S
H548 C573 0.951 . S
H549 C575 0.946 1_545 S
H550 C576 0.950 . S
H551 C578 0.943 1_565 S
H552 C581 0.950 . S
H553 C582 0.950 . S
H554 C584 0.950 . S
H555 C585 0.950 . S
C556 H538 0.951 . S
C556 C557 1.366 . S
C556 C558 1.388 . S
C557 C556 1.366 . S
C557 C561 1.385 1_455 S
C558 H539 0.951 . S
C558 C556 1.388 . S
C558 C559 1.366 . S
C559 C558 1.366 . S
C559 C560 1.414 . S
C559 C562 1.499 . S
C560 H540 0.950 . S
C560 C559 1.414 . S
C560 C561 1.374 1_455 S
C561 H541 0.950 . S
C561 C557 1.385 1_655 S
C561 C560 1.374 1_655 S
C562 C559 1.499 . S
C562 C563 1.373 . S
C562 C564 1.389 . S
C563 H542 0.950 . S
C563 C562 1.373 . S
C563 C579 1.377 . S
C564 C562 1.389 . S
C564 C565 1.524 . S
C564 C578 1.377 . S
C565 C564 1.524 . S
C565 C566 1.404 1_545 S
C565 C570 1.363 . S
C566 H543 0.948 1_455 S
C566 C565 1.404 1_565 S
C566 C567 1.329 1_455 S
C567 H544 0.950 . S
C567 C566 1.329 1_655 S
C567 C568 1.287 1_565 S
C568 C567 1.287 1_545 S
C568 C569 1.524 1_655 S
C568 H587 0.913 1_545 S
C569 H545 0.950 . S
C569 C568 1.524 1_455 S
C569 C570 1.415 . S
C570 H546 0.950 . S
C570 C565 1.363 . S
C570 C569 1.415 . S
C571 H547 0.951 . S
C571 C572 1.366 . S
C571 C573 1.388 . S
C572 C571 1.366 . S
C572 C576 1.385 . S
C573 H548 0.951 . S
C573 C571 1.388 . S
C573 C574 1.366 . S
C574 C573 1.366 . S
C574 C575 1.412 . S
C574 C577 1.499 1_565 S
C575 H549 0.946 1_565 S
C575 C574 1.412 . S
C575 C576 1.380 . S
C576 H550 0.950 . S
C576 C572 1.385 . S
C576 C575 1.380 . S
C577 C574 1.499 1_545 S
C577 C578 1.373 . S
C577 C579 1.389 . S
C578 H551 0.943 1_545 S
C578 C564 1.377 . S
C578 C577 1.373 . S
C579 C563 1.377 . S
C579 C577 1.389 . S
C579 C580 1.524 . S
C580 C579 1.524 . S
C580 C581 1.397 . S
C580 C585 1.363 . S
C581 H552 0.950 . S
C581 C580 1.397 . S
C581 C582 1.334 . S
C582 H553 0.950 . S
C582 C581 1.334 . S
C582 C583 1.287 . S
C583 C582 1.287 . S
C583 C584 1.524 . S
C583 H586 0.999 . S
C584 H554 0.950 . S
C584 C583 1.524 . S
C584 C585 1.415 . S
C585 H555 0.950 . S
C585 C580 1.363 . S
C585 C584 1.415 . S
H586 C583 0.999 . S
H587 C568 0.913 1_565 S
H588 C606 0.951 . S
H589 C608 0.951 . S
H590 C610 0.947 1_566 S
H591 C611 0.951 1_566 S
H592 C613 0.950 . S
H593 C616 0.950 1_565 S
H594 C617 0.950 . S
H595 C619 0.950 . S
H596 C620 0.950 . S
H597 C621 0.952 1_556 S
H598 C623 0.959 . S
H599 C625 0.950 . S
H600 C626 0.950 . S
H601 C628 0.950 . S
H602 C631 0.950 . S
H603 C632 0.950 . S
H604 C634 0.950 . S
H605 C635 0.950 . S
C606 H588 0.951 . S
C606 C607 1.366 . S
C606 C608 1.388 . S
C607 C606 1.366 . S
C607 C611 1.384 . S
C608 H589 0.951 . S
C608 C606 1.388 . S
C608 C609 1.366 . S
C609 C608 1.366 . S
C609 C610 1.417 . S
C609 C612 1.499 . S
C610 H590 0.947 1_544 S
C610 C609 1.417 . S
C610 C611 1.374 . S
C611 H591 0.951 1_544 S
C611 C607 1.384 . S
C611 C610 1.374 . S
C612 C609 1.499 . S
C612 C613 1.373 1_554 S
C612 C614 1.389 . S
C613 H592 0.950 . S
C613 C612 1.373 1_556 S
C613 C629 1.377 . S
C614 C612 1.389 . S
C614 C615 1.524 . S
C614 C628 1.377 . S
C615 C614 1.524 . S
C615 C616 1.397 . S
C615 C620 1.363 . S
C616 H593 0.950 1_545 S
C616 C615 1.397 . S
C616 C617 1.334 1_545 S
C617 H594 0.950 . S
C617 C616 1.334 1_565 S
C617 C618 1.287 1_565 S
C618 C617 1.287 1_545 S
C618 C619 1.524 . S
C618 H637 0.913 . S
C619 H595 0.950 . S
C619 C618 1.524 . S
C619 C620 1.415 . S
C620 H596 0.950 . S
C620 C615 1.363 . S
C620 C619 1.415 . S
C621 H597 0.952 1_554 S
C621 C622 1.364 1_565 S
C621 C623 1.388 1_554 S
C622 C621 1.364 1_545 S
C622 C626 1.385 . S
C623 H598 0.959 . S
C623 C621 1.388 1_556 S
C623 C624 1.358 1_566 S
C624 C623 1.358 1_544 S
C624 C625 1.414 . S
C624 C627 1.499 . S
C625 H599 0.950 . S
C625 C624 1.414 . S
C625 C626 1.374 . S
C626 H600 0.950 . S
C626 C622 1.385 . S
C626 C625 1.374 . S
C627 C624 1.499 . S
C627 C628 1.373 . S
C627 C629 1.389 1_554 S
C628 H601 0.950 . S
C628 C614 1.377 . S
C628 C627 1.373 . S
C629 C613 1.377 . S
C629 C627 1.389 1_556 S
C629 C630 1.524 . S
C630 C629 1.524 . S
C630 C631 1.397 . S
C630 C635 1.363 1_545 S
C631 H602 0.950 . S
C631 C630 1.397 . S
C631 C632 1.334 . S
C632 H603 0.950 . S
C632 C631 1.334 . S
C632 C633 1.287 . S
C633 C632 1.287 . S
C633 C634 1.524 1_545 S
C633 H636 0.999 . S
C634 H604 0.950 . S
C634 C633 1.524 1_565 S
C634 C635 1.415 . S
C635 H605 0.950 . S
C635 C630 1.363 1_565 S
C635 C634 1.415 . S
H636 C633 0.999 . S
H637 C618 0.913 . S
H638 C656 0.951 . S
H639 C658 0.951 . S
H640 C660 0.950 . S
H641 C661 0.950 . S
H642 C663 0.950 . S
H643 C666 0.950 . S
H644 C667 0.950 . S
H645 C669 0.950 . S
H646 C670 0.950 . S
H647 C671 0.951 . S
H648 C673 0.951 . S
H649 C675 0.950 . S
H650 C676 0.950 . S
H651 C678 0.950 . S
H652 C681 0.950 . S
H653 C682 0.950 . S
H654 C684 0.950 . S
H655 C685 0.950 . S
C656 H638 0.951 . S
C656 C657 1.366 . S
C656 C658 1.388 . S
C657 C656 1.366 . S
C657 C661 1.385 . S
C658 H639 0.951 . S
C658 C656 1.388 . S
C658 C659 1.366 . S
C659 C658 1.366 . S
C659 C660 1.414 . S
C659 C662 1.499 . S
C660 H640 0.950 . S
C660 C659 1.414 . S
C660 C661 1.374 . S
C661 H641 0.950 . S
C661 C657 1.385 . S
C661 C660 1.374 . S
C662 C659 1.499 . S
C662 C663 1.373 . S
C662 C664 1.389 . S
C663 H642 0.950 . S
C663 C662 1.373 . S
C663 C679 1.377 . S
C664 C662 1.389 . S
C664 C665 1.524 . S
C664 C678 1.377 . S
C665 C664 1.524 . S
C665 C666 1.397 . S
C665 C670 1.363 . S
C666 H643 0.950 . S
C666 C665 1.397 . S
C666 C667 1.334 . S
C667 H644 0.950 . S
C667 C666 1.334 . S
C667 C668 1.287 . S
C668 C667 1.287 . S
C668 C669 1.524 . S
C668 H687 0.913 . S
C669 H645 0.950 . S
C669 C668 1.524 . S
C669 C670 1.415 . S
C670 H646 0.950 . S
C670 C665 1.363 . S
C670 C669 1.415 . S
C671 H647 0.951 . S
C671 C672 1.366 . S
C671 C673 1.388 . S
C672 C671 1.366 . S
C672 C676 1.385 . S
C673 H648 0.951 . S
C673 C671 1.388 . S
C673 C674 1.366 . S
C674 C673 1.366 . S
C674 C675 1.414 . S
C674 C677 1.499 . S
C675 H649 0.950 . S
C675 C674 1.414 . S
C675 C676 1.374 . S
C676 H650 0.950 . S
C676 C672 1.385 . S
C676 C675 1.374 . S
C677 C674 1.499 . S
C677 C678 1.373 . S
C677 C679 1.389 . S
C678 H651 0.950 . S
C678 C664 1.377 . S
C678 C677 1.373 . S
C679 C663 1.377 . S
C679 C677 1.389 . S
C679 C680 1.524 . S
C680 C679 1.524 . S
C680 C681 1.397 . S
C680 C685 1.363 . S
C681 H652 0.950 . S
C681 C680 1.397 . S
C681 C682 1.334 . S
C682 H653 0.950 . S
C682 C681 1.334 . S
C682 C683 1.287 . S
C683 C682 1.287 . S
C683 C684 1.524 . S
C683 H686 0.999 . S
C684 H654 0.950 . S
C684 C683 1.524 . S
C684 C685 1.415 . S
C685 H655 0.950 . S
C685 C680 1.363 . S
C685 C684 1.415 . S
H686 C683 0.999 . S
H687 C668 0.913 . S
H688 C706 0.951 . S
H689 C708 0.951 . S
H690 C710 0.950 . S
H691 C711 0.950 . S
H692 C713 0.950 . S
H693 C716 0.950 . S
H694 C717 0.950 . S
H695 C719 0.950 . S
H696 C720 0.950 . S
H697 C721 0.951 . S
H698 C723 0.951 1_655 S
H699 C725 0.950 . S
H700 C726 0.950 . S
H701 C728 0.950 . S
H702 C731 0.950 . S
H703 C732 0.950 . S
H704 C734 0.950 . S
H705 C735 0.950 . S
C706 H688 0.951 . S
C706 C707 1.366 . S
C706 C708 1.388 . S
C707 C706 1.366 . S
C707 C711 1.385 . S
C708 H689 0.951 . S
C708 C706 1.388 . S
C708 C709 1.366 . S
C709 C708 1.366 . S
C709 C710 1.414 . S
C709 C712 1.499 . S
C710 H690 0.950 . S
C710 C709 1.414 . S
C710 C711 1.374 . S
C711 H691 0.950 . S
C711 C707 1.385 . S
C711 C710 1.374 . S
C712 C709 1.499 . S
C712 C713 1.373 . S
C712 C714 1.389 . S
C713 H692 0.950 . S
C713 C712 1.373 . S
C713 C729 1.377 . S
C714 C712 1.389 . S
C714 C715 1.524 . S
C714 C728 1.377 . S
C715 C714 1.524 . S
C715 C716 1.397 . S
C715 C720 1.363 . S
C716 H693 0.950 . S
C716 C715 1.397 . S
C716 C717 1.334 . S
C717 H694 0.950 . S
C717 C716 1.334 . S
C717 C718 1.287 . S
C718 C717 1.287 . S
C718 C719 1.524 . S
C718 H737 0.913 . S
C719 H695 0.950 . S
C719 C718 1.524 . S
C719 C720 1.415 . S
C720 H696 0.950 . S
C720 C715 1.363 . S
C720 C719 1.415 . S
C721 H697 0.951 . S
C721 C722 1.366 1_655 S
C721 C723 1.388 1_655 S
C722 C721 1.366 1_455 S
C722 C726 1.385 . S
C723 H698 0.951 1_455 S
C723 C721 1.388 1_455 S
C723 C724 1.366 . S
C724 C723 1.366 . S
C724 C725 1.414 . S
C724 C727 1.499 . S
C725 H699 0.950 . S
C725 C724 1.414 . S
C725 C726 1.374 . S
C726 H700 0.950 . S
C726 C722 1.385 . S
C726 C725 1.374 . S
C727 C724 1.499 . S
C727 C728 1.373 . S
C727 C729 1.389 . S
C728 H701 0.950 . S
C728 C714 1.377 . S
C728 C727 1.373 . S
C729 C713 1.377 . S
C729 C727 1.389 . S
C729 C730 1.524 . S
C730 C729 1.524 . S
C730 C731 1.397 . S
C730 C735 1.363 1_455 S
C731 H702 0.950 . S
C731 C730 1.397 . S
C731 C732 1.334 . S
C732 H703 0.950 . S
C732 C731 1.334 . S
C732 C733 1.287 1_455 S
C733 C732 1.287 1_655 S
C733 C734 1.524 . S
C733 H736 0.999 . S
C734 H704 0.950 . S
C734 C733 1.524 . S
C734 C735 1.415 . S
C735 H705 0.950 . S
C735 C730 1.363 1_655 S
C735 C734 1.415 . S
H736 C733 0.999 . S
H737 C718 0.913 . S
C157 N12 1.742 . S
C172 N25 1.648 . S
C207 N35 1.711 . S
C222 N58 1.701 . S
C257 N71 1.737 . S
C272 N48 1.714 . S
C307 N81 1.742 . S
C322 N94 1.647 . S
C357 N127 1.704 . S
C372 N104 1.711 . S
C407 N2 1.738 1_565 S
C422 N117 1.712 . S
C457 C7 1.779 . S
C472 C76 1.779 . S
C507 C99 0.361 . S
C522 C30 0.361 . S
C557 C53 1.417 1_455 S
C572 C122 1.414 . S
C607 C85 1.838 . S
C622 C16 1.838 . S
C657 C108 1.156 . S
C672 C39 1.156 . S
C707 C131 2.027 . S
C722 C62 2.028 1_455 S
