# Generated by pormake.
# Topology yfq, (5)-cn, num edge types: 1
# Building blocks:
#     Node 0, Type 0, BuildingBlock: XOMCOT_clean_sbu_0, # of connection points: 5
#     Node 1, Type 0, BuildingBlock: XOMCOT_clean_sbu_0, # of connection points: 5
#     Node 2, Type 0, BuildingBlock: XOMCOT_clean_sbu_0, # of connection points: 5
#     Node 3, Type 0, BuildingBlock: XOMCOT_clean_sbu_0, # of connection points: 5
#     Node 4, Type 0, BuildingBlock: XOMCOT_clean_sbu_0, # of connection points: 5
#     Node 5, Type 0, BuildingBlock: XOMCOT_clean_sbu_0, # of connection points: 5
#     Node 6, Type 0, BuildingBlock: XOMCOT_clean_sbu_0, # of connection points: 5
#     Node 7, Type 0, BuildingBlock: XOMCOT_clean_sbu_0, # of connection points: 5
#     Node 8, Type 0, BuildingBlock: XOMCOT_clean_sbu_0, # of connection points: 5
#     Node 9, Type 0, BuildingBlock: XOMCOT_clean_sbu_0, # of connection points: 5
#     Node 10, Type 0, BuildingBlock: XOMCOT_clean_sbu_0, # of connection points: 5
#     Node 11, Type 0, BuildingBlock: XOMCOT_clean_sbu_0, # of connection points: 5
#     Node 12, Type 0, BuildingBlock: XOMCOT_clean_sbu_0, # of connection points: 5
#     Node 13, Type 0, BuildingBlock: XOMCOT_clean_sbu_0, # of connection points: 5
#     Node 14, Type 0, BuildingBlock: XOMCOT_clean_sbu_0, # of connection points: 5
#     Node 15, Type 0, BuildingBlock: XOMCOT_clean_sbu_0, # of connection points: 5
#     Node 16, Type 0, BuildingBlock: XOMCOT_clean_sbu_0, # of connection points: 5
#     Node 17, Type 0, BuildingBlock: XOMCOT_clean_sbu_0, # of connection points: 5
#     Node 18, Type 0, BuildingBlock: XOMCOT_clean_sbu_0, # of connection points: 5
#     Node 19, Type 0, BuildingBlock: XOMCOT_clean_sbu_0, # of connection points: 5
#     Node 20, Type 0, BuildingBlock: XOMCOT_clean_sbu_0, # of connection points: 5
#     Node 21, Type 0, BuildingBlock: XOMCOT_clean_sbu_0, # of connection points: 5
#     Node 22, Type 0, BuildingBlock: XOMCOT_clean_sbu_0, # of connection points: 5
#     Node 23, Type 0, BuildingBlock: XOMCOT_clean_sbu_0, # of connection points: 5
#     Node 24, Type 0, BuildingBlock: XOMCOT_clean_sbu_0, # of connection points: 5
#     Node 25, Type 0, BuildingBlock: XOMCOT_clean_sbu_0, # of connection points: 5
#     Node 26, Type 0, BuildingBlock: XOMCOT_clean_sbu_0, # of connection points: 5
#     Node 27, Type 0, BuildingBlock: XOMCOT_clean_sbu_0, # of connection points: 5
#     Node 28, Type 0, BuildingBlock: XOMCOT_clean_sbu_0, # of connection points: 5
#     Node 29, Type 0, BuildingBlock: XOMCOT_clean_sbu_0, # of connection points: 5
#     Node 30, Type 0, BuildingBlock: XOMCOT_clean_sbu_0, # of connection points: 5
#     Node 31, Type 0, BuildingBlock: XOMCOT_clean_sbu_0, # of connection points: 5
#     Edge 32, Type (0, 0), BuildingBlock: KIFKEQ_clean_linker_1, # of connection points: 2
#     Edge 33, Type (0, 0), BuildingBlock: KIFKEQ_clean_linker_1, # of connection points: 2
#     Edge 34, Type (0, 0), BuildingBlock: KIFKEQ_clean_linker_1, # of connection points: 2
#     Edge 35, Type (0, 0), BuildingBlock: KIFKEQ_clean_linker_1, # of connection points: 2
#     Edge 36, Type (0, 0), BuildingBlock: KIFKEQ_clean_linker_1, # of connection points: 2
#     Edge 37, Type (0, 0), BuildingBlock: KIFKEQ_clean_linker_1, # of connection points: 2
#     Edge 38, Type (0, 0), BuildingBlock: KIFKEQ_clean_linker_1, # of connection points: 2
#     Edge 39, Type (0, 0), BuildingBlock: KIFKEQ_clean_linker_1, # of connection points: 2
#     Edge 40, Type (0, 0), BuildingBlock: KIFKEQ_clean_linker_1, # of connection points: 2
#     Edge 41, Type (0, 0), BuildingBlock: KIFKEQ_clean_linker_1, # of connection points: 2
#     Edge 42, Type (0, 0), BuildingBlock: KIFKEQ_clean_linker_1, # of connection points: 2
#     Edge 43, Type (0, 0), BuildingBlock: KIFKEQ_clean_linker_1, # of connection points: 2
#     Edge 44, Type (0, 0), BuildingBlock: KIFKEQ_clean_linker_1, # of connection points: 2
#     Edge 45, Type (0, 0), BuildingBlock: KIFKEQ_clean_linker_1, # of connection points: 2
#     Edge 46, Type (0, 0), BuildingBlock: KIFKEQ_clean_linker_1, # of connection points: 2
#     Edge 47, Type (0, 0), BuildingBlock: KIFKEQ_clean_linker_1, # of connection points: 2
#     Edge 48, Type (0, 0), BuildingBlock: KIFKEQ_clean_linker_1, # of connection points: 2
#     Edge 49, Type (0, 0), BuildingBlock: KIFKEQ_clean_linker_1, # of connection points: 2
#     Edge 50, Type (0, 0), BuildingBlock: KIFKEQ_clean_linker_1, # of connection points: 2
#     Edge 51, Type (0, 0), BuildingBlock: KIFKEQ_clean_linker_1, # of connection points: 2
#     Edge 52, Type (0, 0), BuildingBlock: KIFKEQ_clean_linker_1, # of connection points: 2
#     Edge 53, Type (0, 0), BuildingBlock: KIFKEQ_clean_linker_1, # of connection points: 2
#     Edge 54, Type (0, 0), BuildingBlock: KIFKEQ_clean_linker_1, # of connection points: 2
#     Edge 55, Type (0, 0), BuildingBlock: KIFKEQ_clean_linker_1, # of connection points: 2
#     Edge 56, Type (0, 0), BuildingBlock: KIFKEQ_clean_linker_1, # of connection points: 2
#     Edge 57, Type (0, 0), BuildingBlock: KIFKEQ_clean_linker_1, # of connection points: 2
#     Edge 58, Type (0, 0), BuildingBlock: KIFKEQ_clean_linker_1, # of connection points: 2
#     Edge 59, Type (0, 0), BuildingBlock: KIFKEQ_clean_linker_1, # of connection points: 2
#     Edge 60, Type (0, 0), BuildingBlock: KIFKEQ_clean_linker_1, # of connection points: 2
#     Edge 61, Type (0, 0), BuildingBlock: KIFKEQ_clean_linker_1, # of connection points: 2
#     Edge 62, Type (0, 0), BuildingBlock: KIFKEQ_clean_linker_1, # of connection points: 2
#     Edge 63, Type (0, 0), BuildingBlock: KIFKEQ_clean_linker_1, # of connection points: 2
#     Edge 64, Type (0, 0), BuildingBlock: KIFKEQ_clean_linker_1, # of connection points: 2
#     Edge 65, Type (0, 0), BuildingBlock: KIFKEQ_clean_linker_1, # of connection points: 2
#     Edge 66, Type (0, 0), BuildingBlock: KIFKEQ_clean_linker_1, # of connection points: 2
#     Edge 67, Type (0, 0), BuildingBlock: KIFKEQ_clean_linker_1, # of connection points: 2
#     Edge 68, Type (0, 0), BuildingBlock: KIFKEQ_clean_linker_1, # of connection points: 2
#     Edge 69, Type (0, 0), BuildingBlock: KIFKEQ_clean_linker_1, # of connection points: 2
#     Edge 70, Type (0, 0), BuildingBlock: KIFKEQ_clean_linker_1, # of connection points: 2
#     Edge 71, Type (0, 0), BuildingBlock: KIFKEQ_clean_linker_1, # of connection points: 2
#     Edge 72, Type (0, 0), BuildingBlock: KIFKEQ_clean_linker_1, # of connection points: 2
#     Edge 73, Type (0, 0), BuildingBlock: KIFKEQ_clean_linker_1, # of connection points: 2
#     Edge 74, Type (0, 0), BuildingBlock: KIFKEQ_clean_linker_1, # of connection points: 2
#     Edge 75, Type (0, 0), BuildingBlock: KIFKEQ_clean_linker_1, # of connection points: 2
#     Edge 76, Type (0, 0), BuildingBlock: KIFKEQ_clean_linker_1, # of connection points: 2
#     Edge 77, Type (0, 0), BuildingBlock: KIFKEQ_clean_linker_1, # of connection points: 2
#     Edge 78, Type (0, 0), BuildingBlock: KIFKEQ_clean_linker_1, # of connection points: 2
#     Edge 79, Type (0, 0), BuildingBlock: KIFKEQ_clean_linker_1, # of connection points: 2
#     Edge 80, Type (0, 0), BuildingBlock: KIFKEQ_clean_linker_1, # of connection points: 2
#     Edge 81, Type (0, 0), BuildingBlock: KIFKEQ_clean_linker_1, # of connection points: 2
#     Edge 82, Type (0, 0), BuildingBlock: KIFKEQ_clean_linker_1, # of connection points: 2
#     Edge 83, Type (0, 0), BuildingBlock: KIFKEQ_clean_linker_1, # of connection points: 2
#     Edge 84, Type (0, 0), BuildingBlock: KIFKEQ_clean_linker_1, # of connection points: 2
#     Edge 85, Type (0, 0), BuildingBlock: KIFKEQ_clean_linker_1, # of connection points: 2
#     Edge 86, Type (0, 0), BuildingBlock: KIFKEQ_clean_linker_1, # of connection points: 2
#     Edge 87, Type (0, 0), BuildingBlock: KIFKEQ_clean_linker_1, # of connection points: 2
#     Edge 88, Type (0, 0), BuildingBlock: KIFKEQ_clean_linker_1, # of connection points: 2
#     Edge 89, Type (0, 0), BuildingBlock: KIFKEQ_clean_linker_1, # of connection points: 2
#     Edge 90, Type (0, 0), BuildingBlock: KIFKEQ_clean_linker_1, # of connection points: 2
#     Edge 91, Type (0, 0), BuildingBlock: KIFKEQ_clean_linker_1, # of connection points: 2
#     Edge 92, Type (0, 0), BuildingBlock: KIFKEQ_clean_linker_1, # of connection points: 2
#     Edge 93, Type (0, 0), BuildingBlock: KIFKEQ_clean_linker_1, # of connection points: 2
#     Edge 94, Type (0, 0), BuildingBlock: KIFKEQ_clean_linker_1, # of connection points: 2
#     Edge 95, Type (0, 0), BuildingBlock: KIFKEQ_clean_linker_1, # of connection points: 2
#     Edge 96, Type (0, 0), BuildingBlock: KIFKEQ_clean_linker_1, # of connection points: 2
#     Edge 97, Type (0, 0), BuildingBlock: KIFKEQ_clean_linker_1, # of connection points: 2
#     Edge 98, Type (0, 0), BuildingBlock: KIFKEQ_clean_linker_1, # of connection points: 2
#     Edge 99, Type (0, 0), BuildingBlock: KIFKEQ_clean_linker_1, # of connection points: 2
#     Edge 100, Type (0, 0), BuildingBlock: KIFKEQ_clean_linker_1, # of connection points: 2
#     Edge 101, Type (0, 0), BuildingBlock: KIFKEQ_clean_linker_1, # of connection points: 2
#     Edge 102, Type (0, 0), BuildingBlock: KIFKEQ_clean_linker_1, # of connection points: 2
#     Edge 103, Type (0, 0), BuildingBlock: KIFKEQ_clean_linker_1, # of connection points: 2
#     Edge 104, Type (0, 0), BuildingBlock: KIFKEQ_clean_linker_1, # of connection points: 2
#     Edge 105, Type (0, 0), BuildingBlock: KIFKEQ_clean_linker_1, # of connection points: 2
#     Edge 106, Type (0, 0), BuildingBlock: KIFKEQ_clean_linker_1, # of connection points: 2
#     Edge 107, Type (0, 0), BuildingBlock: KIFKEQ_clean_linker_1, # of connection points: 2
#     Edge 108, Type (0, 0), BuildingBlock: KIFKEQ_clean_linker_1, # of connection points: 2
#     Edge 109, Type (0, 0), BuildingBlock: KIFKEQ_clean_linker_1, # of connection points: 2
#     Edge 110, Type (0, 0), BuildingBlock: KIFKEQ_clean_linker_1, # of connection points: 2
#     Edge 111, Type (0, 0), BuildingBlock: KIFKEQ_clean_linker_1, # of connection points: 2
# Relax obj value: 0.370
# Max RMSD: 0.293
# Mean RMSD: 0.293
data_MOF--net-yfq--node1-XOMCOT_clean_sbu_0--edge1-KIFKEQ_clean_linker_1
_symmetry_space_group_name_H-M    P1
_symmetry_Int_Tables_number       1
_symmetry_cell_setting            triclinic
loop_
_symmetry_equiv_pos_as_xyz
'x, y, z'
_cell_length_a     60.702044
_cell_length_b     60.60889
_cell_length_c     58.786241
_cell_angle_alpha  89.917468
_cell_angle_beta   90.045812
_cell_angle_gamma 89.951029
loop_
_atom_site_label
_atom_site_type_symbol
_atom_site_fract_x
_atom_site_fract_y
_atom_site_fract_z
_atom_type_partial_charge
Co0 Co 0.08063 0.23957 0.27183 0.0
C1 C 0.0785 0.2091 0.23232 0.0
C2 C 0.05589 0.19974 0.25839 0.0
C3 C 0.05152 0.18739 0.23922 0.0
N4 N 0.0731 0.21323 0.25425 0.0
N5 N 0.06567 0.19346 0.22268 0.0
H6 H 0.09002 0.21878 0.22277 0.0
H7 H 0.04582 0.20023 0.27355 0.0
C8 C 0.07822 0.20416 0.30755 0.0
O9 O 0.09047 0.19159 0.29445 0.0
N10 N 0.08746 0.26591 0.28879 0.0
C11 C 0.10211 0.28162 0.28307 0.0
C12 C 0.10231 0.29741 0.29991 0.0
C13 C 0.0789 0.27228 0.30886 0.0
N14 N 0.08771 0.29152 0.31617 0.0
C15 C 0.12365 0.23135 0.25394 0.0
C16 C 0.14478 0.22722 0.29536 0.0
C17 C 0.15707 0.2262 0.27529 0.0
C18 C 0.1463 0.22806 0.25441 0.0
C19 C 0.12196 0.22991 0.29409 0.0
N20 N 0.11155 0.23142 0.27349 0.0
H21 H 0.11631 0.23553 0.23792 0.0
H22 H 0.11289 0.23204 0.30972 0.0
H23 H 0.11202 0.28152 0.26779 0.0
H24 H 0.06672 0.26279 0.31802 0.0
O25 O 0.081 0.25637 0.24373 0.0
O26 O 0.05175 0.25092 0.26565 0.0
O27 O 0.07334 0.22376 0.30123 0.0
C28 C 0.06 0.25913 0.24705 0.0
H29 H 0.0377 0.17632 0.23708 0.0
H30 H 0.11232 0.31216 0.29996 0.0
H31 H 0.15282 0.22669 0.31181 0.0
H32 H 0.15552 0.22856 0.23864 0.0
Co33 Co 0.01289 0.822 0.50831 0.0
C34 C 0.04483 0.82645 0.47048 0.0
C35 C 0.06014 0.81164 0.49942 0.0
C36 C 0.07457 0.81066 0.4813 0.0
N37 N 0.04149 0.82199 0.49281 0.0
N38 N 0.06482 0.81993 0.463 0.0
H39 H 0.03203 0.832 0.4591 0.0
H40 H 0.06257 0.80356 0.51561 0.0
C41 C 0.04305 0.82602 0.54936 0.0
O42 O 0.05352 0.84273 0.54007 0.0
N43 N 0.98434 0.82154 0.52311 0.0
C44 C 0.96604 0.83193 0.51577 0.0
C45 C 0.94997 0.83008 0.53219 0.0
C46 C 0.97913 0.81342 0.54383 0.0
N47 N 0.95825 0.81856 0.54992 0.0
C48 C 0.01496 0.86671 0.49294 0.0
C49 C 0.0053 0.88595 0.53434 0.0
C50 C 0.00706 0.89923 0.51494 0.0
C51 C 0.01234 0.88945 0.49416 0.0
C52 C 0.00866 0.86321 0.53248 0.0
N53 N 0.01343 0.85383 0.51191 0.0
H54 H 0.01686 0.85949 0.47643 0.0
H55 H 0.0063 0.85305 0.54737 0.0
H56 H 0.9648 0.8411 0.50002 0.0
H57 H 0.9905 0.80436 0.55445 0.0
O58 O -0.0016 0.82018 0.47891 0.0
O59 O 0.00953 0.79171 0.49998 0.0
O60 O 0.02725 0.81667 0.53879 0.0
C61 C 0.00067 0.79896 0.48127 0.0
H62 H 0.09044 0.80254 0.48135 0.0
H63 H 0.93381 0.83761 0.53155 0.0
H64 H 0.00084 0.89301 0.55062 0.0
H65 H 0.01309 0.89917 0.47868 0.0
Co66 Co 0.39365 0.78417 0.76636 0.0
C67 C 0.39474 0.81095 0.72401 0.0
C68 C 0.39769 0.83184 0.7531 0.0
C69 C 0.3998 0.84461 0.73375 0.0
N70 N 0.39406 0.81064 0.74706 0.0
N71 N 0.3981 0.83134 0.71551 0.0
H72 H 0.39355 0.79642 0.71344 0.0
H73 H 0.40015 0.83773 0.77019 0.0
C74 C 0.38299 0.81663 0.80471 0.0
O75 O 0.365 0.82422 0.79503 0.0
N76 N 0.39391 0.75787 0.78527 0.0
C77 C 0.38243 0.73919 0.78159 0.0
C78 C 0.38576 0.72506 0.79966 0.0
C79 C 0.40449 0.75467 0.80528 0.0
N80 N 0.39963 0.73479 0.81451 0.0
C81 C 0.35205 0.78206 0.74479 0.0
C82 C 0.32703 0.77533 0.7834 0.0
C83 C 0.31698 0.77346 0.76194 0.0
C84 C 0.32981 0.77727 0.74255 0.0
C85 C 0.34955 0.77995 0.78486 0.0
N86 N 0.36176 0.78328 0.76565 0.0
H87 H 0.36173 0.78326 0.72954 0.0
H88 H 0.35737 0.77972 0.80138 0.0
H89 H 0.37192 0.73629 0.76703 0.0
H90 H 0.41499 0.76684 0.81324 0.0
O91 O 0.39924 0.76587 0.74013 0.0
O92 O 0.42476 0.78158 0.76211 0.0
O93 O 0.3949 0.80217 0.79488 0.0
C94 C 0.41991 0.76954 0.74451 0.0
H95 H 0.40367 0.86204 0.73317 0.0
H96 H 0.37851 0.70888 0.80176 0.0
H97 H 0.3178 0.77251 0.79888 0.0
H98 H 0.32316 0.77523 0.72559 0.0
Co99 Co 0.48888 0.15457 0.01474 0.0
C100 C 0.46086 0.14539 0.97497 0.0
C101 C 0.44241 0.16123 1.00127 0.0
C102 C 0.42983 0.16095 0.98168 0.0
N103 N 0.46188 0.15123 0.99714 0.0
N104 N 0.44166 0.15127 0.96507 0.0
H105 H 0.47467 0.13901 0.96553 0.0
H106 H 0.43845 0.17013 0.01665 0.0
C107 C 0.45532 0.14383 0.05203 0.0
O108 O 0.44557 0.12838 0.04005 0.0
N109 N 0.51578 0.15815 0.03192 0.0
C110 C 0.53582 0.1503 0.02644 0.0
C111 C 0.55 0.15427 0.0443 0.0
C112 C 0.51801 0.16691 0.05288 0.0
N113 N 0.53876 0.16463 0.06101 0.0
C114 C 0.50143 0.11385 0.99434 0.0
C115 C 0.49569 0.08724 0.032 0.0
C116 C 0.50175 0.0775 0.01126 0.0
C117 C 0.50529 0.09132 0.9925 0.0
C118 C 0.4925 0.11007 0.03321 0.0
N119 N 0.49407 0.1229 0.01416 0.0
H120 H 0.50483 0.12401 0.97974 0.0
H121 H 0.48908 0.11725 0.04957 0.0
H122 H 0.53968 0.14163 0.01088 0.0
H123 H 0.50462 0.17456 0.06207 0.0
O124 O 0.50409 0.163 0.98695 0.0
O125 O 0.48684 0.18582 0.01052 0.0
O126 O 0.47218 0.15389 0.0443 0.0
C127 C 0.49758 0.1829 0.99168 0.0
H128 H 0.4142 0.16926 0.97926 0.0
H129 H 0.56705 0.14912 0.04518 0.0
H130 H 0.49319 0.07742 0.04717 0.0
H131 H 0.51121 0.08489 0.97645 0.0
Co132 Co 0.09459 0.75241 0.24669 0.0
C133 C 0.10064 0.78209 0.28592 0.0
C134 C 0.08161 0.79762 0.25985 0.0
C135 C 0.0801 0.81014 0.27942 0.0
N136 N 0.09473 0.78002 0.26382 0.0
N137 N 0.09184 0.80009 0.29592 0.0
H138 H 0.10913 0.76953 0.29539 0.0
H139 H 0.07187 0.79997 0.24464 0.0
C140 C 0.10088 0.78652 0.20897 0.0
O141 O 0.11329 0.79918 0.22178 0.0
N142 N 0.09385 0.72497 0.23008 0.0
C143 C 0.10608 0.70676 0.23382 0.0
C144 C 0.10167 0.6917 0.21684 0.0
C145 C 0.08194 0.72067 0.21124 0.0
N146 N 0.0865 0.7005 0.20269 0.0
C147 C 0.1368 0.7459 0.26692 0.0
C148 C 0.1616 0.74966 0.22781 0.0
C149 C 0.17235 0.74556 0.24856 0.0
C150 C 0.15953 0.74377 0.26826 0.0
C151 C 0.13868 0.75215 0.22733 0.0
N152 N 0.12661 0.751 0.24691 0.0
H153 H 0.12743 0.74255 0.28203 0.0
H154 H 0.13073 0.75404 0.21104 0.0
H155 H 0.11772 0.70476 0.2476 0.0
H156 H 0.07069 0.73236 0.20354 0.0
O157 O 0.08849 0.73677 0.27481 0.0
O158 O 0.06341 0.75072 0.25122 0.0
O159 O 0.09336 0.76831 0.21658 0.0
C160 C 0.06791 0.74058 0.27014 0.0
H161 H 0.06932 0.82416 0.28193 0.0
H162 H 0.10912 0.67557 0.215 0.0
H163 H 0.17067 0.75031 0.21198 0.0
H164 H 0.16688 0.74054 0.28471 0.0
Co165 Co 0.46272 0.84332 0.4988 0.0
C166 C 0.43829 0.86117 0.53712 0.0
C167 C 0.41672 0.8438 0.51465 0.0
C168 C 0.4059 0.84723 0.53493 0.0
N169 N 0.437 0.85285 0.51582 0.0
N170 N 0.41966 0.85778 0.54922 0.0
H171 H 0.45352 0.867 0.54454 0.0
H172 H 0.41114 0.83306 0.50114 0.0
C173 C 0.43224 0.8599 0.46044 0.0
O174 O 0.41634 0.86647 0.47392 0.0
N175 N 0.48884 0.83315 0.48254 0.0
C176 C 0.50869 0.82824 0.49159 0.0
C177 C 0.52272 0.82174 0.47448 0.0
C178 C 0.49101 0.82886 0.46003 0.0
N179 N 0.51162 0.82219 0.45462 0.0
C180 C 0.49357 0.87326 0.51875 0.0
C181 C 0.47706 0.91114 0.49889 0.0
C182 C 0.4948 0.91283 0.51405 0.0
C183 C 0.50315 0.89355 0.52394 0.0
C184 C 0.468 0.89054 0.49414 0.0
N185 N 0.47639 0.87185 0.50382 0.0
H186 H 0.49956 0.85878 0.52741 0.0
H187 H 0.45385 0.88995 0.48319 0.0
H188 H 0.51276 0.82883 0.50945 0.0
H189 H 0.47785 0.83048 0.44779 0.0
O190 O 0.47243 0.82815 0.52598 0.0
O191 O 0.4514 0.81379 0.49878 0.0
O192 O 0.45043 0.85262 0.46835 0.0
C193 C 0.46117 0.81149 0.51833 0.0
H194 H 0.39028 0.83999 0.53972 0.0
H195 H 0.53968 0.81661 0.47661 0.0
H196 H 0.47009 0.92566 0.49086 0.0
H197 H 0.5165 0.89418 0.53616 0.0
Co198 Co 0.40399 0.222 0.75119 0.0
C199 C 0.40469 0.1899 0.78936 0.0
C200 C 0.42437 0.17872 0.76158 0.0
C201 C 0.42816 0.16517 0.78001 0.0
N202 N 0.40932 0.19416 0.76724 0.0
N203 N 0.41596 0.1724 0.79766 0.0
H204 H 0.39542 0.20094 0.80006 0.0
H205 H 0.43371 0.17845 0.74596 0.0
C206 C 0.40716 0.19046 0.71166 0.0
O207 O 0.39242 0.17765 0.72135 0.0
N208 N 0.39936 0.24977 0.73568 0.0
C209 C 0.38424 0.26528 0.74074 0.0
C210 C 0.3849 0.28145 0.72422 0.0
C211 C 0.40919 0.25676 0.71642 0.0
N212 N 0.40058 0.27603 0.70893 0.0
C213 C 0.35994 0.21205 0.76481 0.0
C214 C 0.34122 0.21547 0.72207 0.0
C215 C 0.32748 0.21262 0.741 0.0
C216 C 0.33719 0.21057 0.76253 0.0
C217 C 0.36399 0.21691 0.72514 0.0
N218 N 0.37314 0.21499 0.74632 0.0
H219 H 0.36667 0.21234 0.78169 0.0
H220 H 0.37414 0.22067 0.71057 0.0
H221 H 0.37303 0.26449 0.75501 0.0
H222 H 0.42172 0.24746 0.70754 0.0
O223 O 0.40163 0.23689 0.78031 0.0
O224 O 0.43252 0.23182 0.76068 0.0
O225 O 0.4132 0.20832 0.72133 0.0
C226 C 0.42288 0.23924 0.77888 0.0
H227 H 0.4402 0.15203 0.78064 0.0
H228 H 0.37443 0.29588 0.72337 0.0
H229 H 0.33443 0.21736 0.70514 0.0
H230 H 0.32724 0.20927 0.77776 0.0
Co231 Co 0.99132 0.15686 1.00732 0.0
C232 C 0.02271 0.1583 0.04597 0.0
C233 C 0.02914 0.18386 0.02176 0.0
C234 C 0.04184 0.18759 0.04083 0.0
N235 N 0.01726 0.1653 0.02484 0.0
N236 N 0.03758 0.17159 0.05617 0.0
H237 H 0.01465 0.14494 0.05464 0.0
H238 H 0.02732 0.19498 1.00747 0.0
C239 C 0.02678 0.1624 0.9716 0.0
O240 O 0.04081 0.15167 0.98459 0.0
N241 N 0.96539 0.14878 0.99032 0.0
C242 C 0.94925 0.13488 0.99683 0.0
C243 C 0.93456 0.13251 0.97905 0.0
C244 C 0.96041 0.15464 0.96883 0.0
N245 N 0.94179 0.14482 0.96146 0.0
C246 C -0.00194 0.11392 0.02578 0.0
C247 C 0.0103 0.09324 0.98595 0.0
C248 C 0.00849 0.08068 1.00593 0.0
C249 C 0.00223 0.09138 0.02599 0.0
C250 C 0.00576 0.11585 0.98648 0.0
N251 N 0.00052 0.12613 1.00644 0.0
H252 H 0.99162 0.12117 0.04108 0.0
H253 H 0.0055 0.12471 0.97057 0.0
H254 H 0.94849 0.12665 0.01315 0.0
H255 H 0.97021 0.16584 0.95868 0.0
O256 O 0.97458 0.15653 0.03546 0.0
O257 O 0.97902 0.18551 0.01292 0.0
O258 O 0.00678 0.16478 0.9779 0.0
C259 C 0.97124 0.17741 0.03176 0.0
H260 H 0.05188 0.20203 0.04392 0.0
H261 H 0.92012 0.12205 0.97882 0.0
H262 H 0.01458 0.08562 0.9699 0.0
H263 H -0.00062 0.08228 0.04157 0.0
Co264 Co 0.90312 0.77892 0.75057 0.0
C265 C 0.89505 0.80681 0.78969 0.0
C266 C 0.91168 0.82511 0.76366 0.0
C267 C 0.91271 0.83686 0.78379 0.0
N268 N 0.90074 0.80616 0.76752 0.0
N269 N 0.9026 0.82506 0.80026 0.0
H270 H 0.88752 0.79301 0.79838 0.0
H271 H 0.92043 0.82894 0.74812 0.0
C272 C 0.88945 0.7889 0.70275 0.0
O273 O 0.87566 0.77223 0.70405 0.0
N274 N 0.9061 0.75098 0.73423 0.0
C275 C 0.8997 0.7308 0.74134 0.0
C276 C 0.90434 0.71559 0.72475 0.0
C277 C 0.9157 0.74735 0.71377 0.0
N278 N 0.91421 0.72598 0.70724 0.0
C279 C 0.86438 0.75953 0.76968 0.0
C280 C 0.83425 0.78684 0.74851 0.0
C281 C 0.82657 0.76969 0.76243 0.0
C282 C 0.84201 0.75633 0.77356 0.0
C283 C 0.85687 0.78953 0.74525 0.0
N284 N 0.87157 0.77496 0.75449 0.0
H285 H 0.87588 0.74998 0.77956 0.0
H286 H 0.86248 0.80349 0.73545 0.0
H287 H 0.89239 0.72692 0.7575 0.0
H288 H 0.92351 0.76013 0.70378 0.0
O289 O 0.91334 0.76451 0.77806 0.0
O290 O 0.93454 0.78115 0.75239 0.0
O291 O 0.89987 0.79516 0.72057 0.0
C292 C 0.9328 0.77098 0.77178 0.0
H293 H 0.92221 0.85173 0.78657 0.0
H294 H 0.90015 0.69826 0.72542 0.0
H295 H 0.82294 0.79801 0.74009 0.0
H296 H 0.8369 0.74375 0.78554 0.0
Co297 Co 0.96688 0.13754 0.50203 0.0
C298 C 0.94099 0.138 0.54478 0.0
C299 C 0.92185 0.15029 0.51699 0.0
C300 C 0.91011 0.15332 0.53683 0.0
N301 N 0.94115 0.14023 0.52185 0.0
N302 N 0.9223 0.14573 0.55433 0.0
H303 H 0.95488 0.13224 0.55459 0.0
H304 H 0.91721 0.1568 0.50058 0.0
C305 C 0.93135 0.13312 0.46534 0.0
O306 O 0.92093 0.11704 0.47578 0.0
N307 N 0.99242 0.13574 0.48247 0.0
C308 C 0.01001 0.12238 0.48465 0.0
C309 C 0.02423 0.12647 0.46685 0.0
C310 C -0.00377 0.1479 0.46364 0.0
N311 N 0.01555 0.14253 0.45359 0.0
C312 C 0.9661 0.09458 0.52144 0.0
C313 C 0.96459 0.07121 0.48118 0.0
C314 C 0.96636 0.05962 0.50181 0.0
C315 C 0.96701 0.0717 0.52209 0.0
C316 C 0.96393 0.09427 0.48131 0.0
N317 N 0.96426 0.10566 0.50135 0.0
H318 H 0.96818 0.10335 0.53714 0.0
H319 H 0.96405 0.10294 0.46525 0.0
H320 H 0.01221 0.11037 0.49809 0.0
H321 H 0.98513 0.16061 0.45766 0.0
O322 O 0.98613 0.14036 0.52816 0.0
O323 O 0.97293 0.16802 0.50713 0.0
O324 O 0.9485 0.14182 0.47404 0.0
C325 C 0.98471 0.16144 0.52431 0.0
H326 H 0.8946 0.162 0.53838 0.0
H327 H 0.03959 0.11793 0.46377 0.0
H328 H 0.96427 0.06262 0.46505 0.0
H329 H 0.96937 0.06367 0.53837 0.0
Co330 Co 0.58845 0.24121 0.25552 0.0
C331 C 0.59279 0.21043 0.29472 0.0
C332 C 0.57617 0.19512 0.26688 0.0
C333 C 0.57505 0.18126 0.2855 0.0
N334 N 0.58769 0.21338 0.27247 0.0
N335 N 0.58553 0.19099 0.30303 0.0
H336 H 0.59929 0.2232 0.30556 0.0
H337 H 0.56757 0.19268 0.25098 0.0
C338 C 0.59359 0.20856 0.21664 0.0
O339 O 0.60937 0.19793 0.22735 0.0
N340 N 0.58848 0.26875 0.23888 0.0
C341 C 0.60051 0.28693 0.24315 0.0
C342 C 0.59712 0.30189 0.22576 0.0
C343 C 0.57781 0.27292 0.21921 0.0
N344 N 0.58293 0.29298 0.21061 0.0
C345 C 0.63224 0.24099 0.27324 0.0
C346 C 0.65388 0.2433 0.23198 0.0
C347 C 0.66614 0.24254 0.25215 0.0
C348 C 0.6551 0.24144 0.27292 0.0
C349 C 0.63089 0.24227 0.23307 0.0
N350 N 0.62037 0.24043 0.25355 0.0
H351 H 0.6242 0.24215 0.28941 0.0
H352 H 0.62156 0.24366 0.21748 0.0
H353 H 0.61155 0.28884 0.25747 0.0
H354 H 0.56668 0.26135 0.21127 0.0
O355 O 0.58526 0.2571 0.284 0.0
O356 O 0.5579 0.24508 0.26204 0.0
O357 O 0.58446 0.22534 0.22571 0.0
C358 C 0.56419 0.25484 0.28061 0.0
H359 H 0.56622 0.16578 0.28635 0.0
H360 H 0.60517 0.31772 0.22401 0.0
H361 H 0.66198 0.2448 0.21564 0.0
H362 H 0.66408 0.24184 0.28886 0.0
Co363 Co 0.48944 0.83634 1.00559 0.0
C364 C 0.52112 0.83258 0.044 0.0
C365 C 0.52738 0.80853 0.01827 0.0
C366 C 0.54018 0.80362 0.03699 0.0
N367 N 0.51559 0.82697 0.02245 0.0
N368 N 0.53606 0.81869 0.05329 0.0
H369 H 0.51292 0.84518 0.0536 0.0
H370 H 0.52538 0.79816 1.00345 0.0
C371 C 0.52368 0.83073 0.96915 0.0
O372 O 0.53759 0.84155 0.98213 0.0
N373 N 0.46325 0.845 0.98934 0.0
C374 C 0.44948 0.86172 0.99436 0.0
C375 C 0.4337 0.8631 0.97751 0.0
C376 C 0.45566 0.83628 0.96983 0.0
N377 N 0.43765 0.84706 0.96214 0.0
C378 C 0.50073 0.87907 0.02284 0.0
C379 C 0.50621 0.89921 0.98105 0.0
C380 C 0.50809 0.91182 1.00087 0.0
C381 C 0.50553 0.9015 0.02195 0.0
C382 C 0.50188 0.87665 0.98274 0.0
N383 N 0.49971 0.86667 1.00351 0.0
H384 H 0.49623 0.87221 0.03902 0.0
H385 H 0.49899 0.86756 0.96726 0.0
H386 H 0.4511 0.87245 1.00895 0.0
H387 H 0.46364 0.82279 0.96105 0.0
O388 O 0.47352 0.83789 0.03417 0.0
O389 O 0.4763 0.80832 0.01216 0.0
O390 O 0.50382 0.82783 0.97574 0.0
C391 C 0.46922 0.81709 0.03097 0.0
H392 H 0.55015 0.78895 0.03912 0.0
H393 H 0.4205 0.87508 0.97658 0.0
H394 H 0.50736 0.90686 0.96443 0.0
H395 H 0.50574 0.91099 0.03756 0.0
Co396 Co 0.88878 0.21842 0.7711 0.0
C397 C 0.88865 0.19081 0.72939 0.0
C398 C 0.9001 0.17249 0.75815 0.0
C399 C 0.90281 0.15977 0.73895 0.0
N400 N 0.89074 0.1919 0.75231 0.0
N401 N 0.89567 0.17138 0.72082 0.0
H402 H 0.88417 0.20467 0.7188 0.0
H403 H 0.9063 0.16833 0.77482 0.0
C404 C 0.88125 0.1838 0.80818 0.0
O405 O 0.86545 0.17375 0.79697 0.0
N406 N 0.88764 0.24474 0.78966 0.0
C407 C 0.87655 0.26351 0.78533 0.0
C408 C 0.88046 0.27816 0.80282 0.0
C409 C 0.89825 0.24823 0.80951 0.0
N410 N 0.89411 0.26853 0.81811 0.0
C411 C 0.84671 0.21997 0.75003 0.0
C412 C 0.8219 0.2204 0.78939 0.0
C413 C 0.81123 0.22265 0.76831 0.0
C414 C 0.82402 0.22234 0.7485 0.0
C415 C 0.84482 0.21831 0.79015 0.0
N416 N 0.85689 0.21766 0.77056 0.0
H417 H 0.85614 0.22129 0.73465 0.0
H418 H 0.85289 0.21811 0.80652 0.0
H419 H 0.86639 0.26635 0.77049 0.0
H420 H 0.90868 0.23603 0.81748 0.0
O421 O 0.89363 0.2366 0.74449 0.0
O422 O 0.91968 0.2226 0.76708 0.0
O423 O 0.89088 0.20063 0.79979 0.0
C424 C 0.9144 0.23418 0.74927 0.0
H425 H 0.91051 0.14367 0.73834 0.0
H426 H 0.87391 0.29472 0.8039 0.0
H427 H 0.81275 0.22076 0.80518 0.0
H428 H 0.81675 0.22501 0.7319 0.0
Co429 Co 0.53345 0.14522 0.52086 0.0
C430 C 0.56205 0.14654 0.48012 0.0
C431 C 0.57605 0.16506 0.50742 0.0
C432 C 0.58753 0.16976 0.48777 0.0
N433 N 0.56004 0.15029 0.50277 0.0
N434 N 0.57851 0.15826 0.47051 0.0
H435 H 0.55004 0.13763 0.47017 0.0
H436 H 0.57792 0.17377 0.52332 0.0
C437 C 0.56623 0.14897 0.55963 0.0
O438 O 0.57912 0.13397 0.55052 0.0
N439 N 0.5068 0.14093 0.53835 0.0
C440 C 0.49158 0.12505 0.53528 0.0
C441 C 0.47605 0.12672 0.55228 0.0
C442 C 0.50019 0.15228 0.55687 0.0
N443 N 0.48151 0.14383 0.56583 0.0
C444 C 0.54369 0.10097 0.50758 0.0
C445 C 0.54141 0.08292 0.55074 0.0
C446 C 0.54346 0.06881 0.532 0.0
C447 C 0.54514 0.07817 0.51024 0.0
C448 C 0.53987 0.10564 0.5473 0.0
N449 N 0.54099 0.11445 0.52591 0.0
H450 H 0.54321 0.10754 0.49061 0.0
H451 H 0.53651 0.11603 0.5618 0.0
H452 H 0.49208 0.11277 0.52195 0.0
H453 H 0.50924 0.16597 0.56407 0.0
O454 O 0.51646 0.14228 0.49305 0.0
O455 O 0.52311 0.1736 0.51166 0.0
O456 O 0.54858 0.155 0.54959 0.0
C457 C 0.51426 0.1636 0.49438 0.0
H458 H 0.60042 0.18197 0.48609 0.0
H459 H 0.4619 0.1161 0.55456 0.0
H460 H 0.53998 0.07645 0.56785 0.0
H461 H 0.54601 0.06794 0.49518 0.0
Co462 Co 0.58272 0.74335 0.26707 0.0
C463 C 0.57814 0.77405 0.22789 0.0
C464 C 0.55411 0.78054 0.25359 0.0
C465 C 0.54922 0.79322 0.23476 0.0
N466 N 0.57255 0.76875 0.24949 0.0
N467 N 0.56426 0.78893 0.21849 0.0
H468 H 0.59095 0.76597 0.21843 0.0
H469 H 0.54387 0.77878 0.26853 0.0
C470 C 0.57607 0.7784 0.30297 0.0
O471 O 0.58632 0.79281 0.29003 0.0
N472 N 0.59227 0.71799 0.28418 0.0
C473 C 0.60974 0.70487 0.28011 0.0
C474 C 0.61111 0.6894 0.2973 0.0
C475 C 0.58313 0.71032 0.30345 0.0
N476 N 0.59432 0.69287 0.31191 0.0
C477 C 0.6246 0.75356 0.24805 0.0
C478 C 0.64558 0.76508 0.28796 0.0
C479 C 0.65772 0.76468 0.26765 0.0
C480 C 0.64683 0.75887 0.24755 0.0
C481 C 0.62321 0.7595 0.28771 0.0
N482 N 0.61278 0.75447 0.26775 0.0
H483 H 0.61741 0.74725 0.23269 0.0
H484 H 0.61471 0.75818 0.30375 0.0
H485 H 0.62087 0.70664 0.26586 0.0
H486 H 0.56893 0.7178 0.31145 0.0
O487 O 0.58414 0.72644 0.23915 0.0
O488 O 0.55489 0.7293 0.26145 0.0
O489 O 0.57421 0.75836 0.29654 0.0
C490 C 0.56351 0.72189 0.24269 0.0
H491 H 0.53465 0.80331 0.23255 0.0
H492 H 0.6235 0.67664 0.29893 0.0
H493 H 0.65339 0.76897 0.30402 0.0
H494 H 0.65565 0.75705 0.23166 0.0
Co495 Co 0.98769 0.83842 0.01245 0.0
C496 C 0.95603 0.84424 0.97427 0.0
C497 C 0.94021 0.83027 1.00334 0.0
C498 C 0.92561 0.82999 0.98533 0.0
N499 N 0.95929 0.83965 0.9966 0.0
N500 N 0.93566 0.83874 0.96698 0.0
H501 H 0.96899 0.84907 0.96276 0.0
H502 H 0.93749 0.82243 0.0196 0.0
C503 C 0.95711 0.84602 0.05266 0.0
O504 O 0.94758 0.86286 0.04253 0.0
N505 N 0.01582 0.8366 0.02791 0.0
C506 C 0.0349 0.84597 0.02143 0.0
C507 C 0.05043 0.84239 0.0382 0.0
C508 C 0.01999 0.82733 0.04836 0.0
N509 N 0.041 0.83073 0.05523 0.0
C510 C 0.98936 0.88219 0.99462 0.0
C511 C -0.00425 0.90356 0.03559 0.0
C512 C -0.00537 0.91591 0.01548 0.0
C513 C 0.9915 0.905 0.99484 0.0
C514 C -0.00693 0.88066 0.03463 0.0
N515 N 0.98925 0.87033 0.01434 0.0
H516 H 0.98873 0.87411 0.97843 0.0
H517 H -0.0054 0.8712 0.05013 0.0
H518 H 0.0372 0.85525 1.00589 0.0
H519 H 0.00765 0.81892 0.05834 0.0
O520 O 0.00222 0.83413 0.98338 0.0
O521 O 0.98911 0.8076 1.00582 0.0
O522 O 0.97265 0.83554 0.04284 0.0
C523 C -0.00144 0.81325 0.98685 0.0
H524 H 0.90932 0.82276 0.98551 0.0
H525 H 0.06729 0.84812 0.03785 0.0
H526 H -0.00132 0.9115 0.0518 0.0
H527 H 0.99145 0.91398 0.97888 0.0
Co528 Co 0.58902 0.71976 0.77243 0.0
C529 C 0.59525 0.69251 0.73137 0.0
C530 C 0.58515 0.67263 0.75949 0.0
C531 C 0.5837 0.66016 0.73991 0.0
N532 N 0.59279 0.69297 0.75428 0.0
N533 N 0.58976 0.67288 0.72222 0.0
H534 H 0.59861 0.70688 0.72108 0.0
H535 H 0.57857 0.66783 0.77582 0.0
C536 C 0.60121 0.68743 0.81 0.0
O537 O 0.61693 0.67808 0.79807 0.0
N538 N 0.58452 0.74639 0.79004 0.0
C539 C 0.59145 0.76675 0.78442 0.0
C540 C 0.58599 0.78103 0.80172 0.0
C541 C 0.57481 0.74854 0.8106 0.0
N542 N 0.57562 0.76959 0.8183 0.0
C543 C 0.63164 0.72828 0.75382 0.0
C544 C 0.65324 0.7333 0.79491 0.0
C545 C 0.66492 0.7364 0.77464 0.0
C546 C 0.65387 0.73383 0.75391 0.0
C547 C 0.63092 0.7279 0.79404 0.0
N548 N 0.62052 0.72488 0.77365 0.0
H549 H 0.62325 0.72754 0.73775 0.0
H550 H 0.62187 0.72695 0.8098 0.0
H551 H 0.60015 0.77087 0.76893 0.0
H552 H 0.56776 0.73488 0.81992 0.0
O553 O 0.58216 0.73611 0.74509 0.0
O554 O 0.55809 0.71783 0.76668 0.0
O555 O 0.58934 0.7028 0.80171 0.0
C556 C 0.56206 0.72958 0.74861 0.0
H557 H 0.57645 0.64391 0.7385 0.0
H558 H 0.58945 0.79853 0.80193 0.0
H559 H 0.66109 0.73575 0.81127 0.0
H560 H 0.66229 0.73626 0.73786 0.0
Co561 Co 0.49803 0.34832 0.02118 0.0
C562 C 0.52807 0.3498 0.9815 0.0
C563 C 0.54343 0.33405 1.0099 0.0
C564 C 0.55647 0.33094 0.99094 0.0
N565 N 0.52563 0.34622 1.00412 0.0
N566 N 0.54666 0.34081 0.97304 0.0
H567 H 0.51522 0.35614 0.97064 0.0
H568 H 0.54584 0.32606 0.02615 0.0
C569 C 0.53108 0.35339 0.05959 0.0
O570 O 0.54201 0.36848 0.04818 0.0
N571 N 0.47066 0.34948 0.03787 0.0
C572 C 0.45353 0.36335 0.03487 0.0
C573 C 0.43813 0.35926 0.05163 0.0
C574 C 0.46533 0.33689 0.05595 0.0
N575 N 0.4456 0.34257 0.06476 0.0
C576 C 0.49968 0.39169 1.00227 0.0
C577 C 0.49605 0.41445 0.04278 0.0
C578 C 0.49655 0.42615 0.02224 0.0
C579 C 0.49864 0.41458 1.00188 0.0
C580 C 0.4978 0.39142 0.04244 0.0
N581 N 0.49981 0.38032 0.0223 0.0
H582 H 0.49903 0.38323 0.98631 0.0
H583 H 0.49638 0.38249 0.05828 0.0
H584 H 0.45256 0.37587 0.02177 0.0
H585 H 0.47598 0.32424 0.06291 0.0
O586 O 0.4818 0.34503 0.99293 0.0
O587 O 0.49317 0.31769 0.01539 0.0
O588 O 0.51389 0.34455 0.05106 0.0
C589 C 0.48341 0.32394 0.99677 0.0
H590 H 0.57121 0.32091 0.99015 0.0
H591 H 0.42268 0.36788 0.054 0.0
H592 H 0.49389 0.42296 0.05881 0.0
H593 H 0.49821 0.42311 0.98566 0.0
Co594 Co 0.90838 0.24631 0.26617 0.0
C595 C 0.90579 0.27919 0.22912 0.0
C596 C 0.93073 0.28757 0.25332 0.0
C597 C 0.93309 0.30097 0.23448 0.0
N598 N 0.91352 0.27389 0.25 0.0
N599 N 0.91752 0.29546 0.21911 0.0
H600 H 0.89322 0.27002 0.22043 0.0
H601 H 0.9421 0.28646 0.26745 0.0
C602 C 0.90914 0.28062 0.30371 0.0
O603 O 0.89687 0.29408 0.29156 0.0
N604 N 0.90347 0.21879 0.2819 0.0
C605 C 0.89195 0.20127 0.27432 0.0
C606 C 0.89024 0.18606 0.29173 0.0
C607 C 0.9086 0.21407 0.30366 0.0
N608 N 0.90055 0.19429 0.31018 0.0
C609 C 0.86538 0.24744 0.24696 0.0
C610 C 0.84247 0.2577 0.28605 0.0
C611 C 0.8308 0.2549 0.26563 0.0
C612 C 0.84262 0.24941 0.24603 0.0
C613 C 0.86541 0.25535 0.28625 0.0
N614 N 0.87672 0.25133 0.26659 0.0
H615 H 0.87368 0.24192 0.23184 0.0
H616 H 0.87377 0.25603 0.3024 0.0
H617 H 0.88463 0.19999 0.2576 0.0
H618 H 0.91779 0.22496 0.31469 0.0
O619 O 0.91086 0.23091 0.2373 0.0
O620 O 0.93849 0.23815 0.26074 0.0
O621 O 0.9138 0.26137 0.29634 0.0
C622 C 0.93187 0.2302 0.24139 0.0
H623 H 0.94652 0.31233 0.2315 0.0
H624 H 0.88133 0.17061 0.29114 0.0
H625 H 0.83399 0.26135 0.3018 0.0
H626 H 0.83433 0.2458 0.23014 0.0
Co627 Co 0.96724 0.64809 0.51366 0.0
C628 C 0.93545 0.64879 0.47534 0.0
C629 C 0.92354 0.66783 0.50328 0.0
C630 C 0.91004 0.67146 0.48479 0.0
N631 N 0.93946 0.65332 0.49754 0.0
N632 N 0.91772 0.65964 0.46705 0.0
H633 H 0.94669 0.6397 0.46464 0.0
H634 H 0.92279 0.67695 0.51902 0.0
C635 C 0.93747 0.6541 0.55467 0.0
O636 O 0.92398 0.63868 0.54743 0.0
N637 N -0.00498 0.64348 0.52923 0.0
C638 C 0.01071 0.62861 0.52396 0.0
C639 C 0.02635 0.62851 0.54101 0.0
C640 C 0.00139 0.65235 0.54921 0.0
N641 N 0.0203 0.64329 0.55697 0.0
C642 C 0.95446 0.60391 0.50279 0.0
C643 C 0.96154 0.58674 0.54579 0.0
C644 C 0.95721 0.57237 0.52772 0.0
C645 C 0.95297 0.58122 0.50617 0.0
C646 C 0.96255 0.6094 0.54174 0.0
N647 N 0.95935 0.61774 0.52036 0.0
H648 H 0.95325 0.61004 0.4857 0.0
H649 H 0.96728 0.62009 0.55558 0.0
H650 H 0.01023 0.6178 0.50934 0.0
H651 H 0.99207 0.66474 0.55828 0.0
O652 O 0.98193 0.64381 0.48463 0.0
O653 O 0.97769 0.67582 0.50266 0.0
O654 O 0.95438 0.65938 0.54302 0.0
C655 C 0.98489 0.66507 0.48504 0.0
H656 H 0.89656 0.68311 0.48417 0.0
H657 H 0.0404 0.61755 0.54217 0.0
H658 H 0.96512 0.58046 0.56265 0.0
H659 H 0.95019 0.57059 0.49164 0.0
Co660 Co 0.57476 0.25989 0.76165 0.0
C661 C 0.5748 0.29305 0.79861 0.0
C662 C 0.55508 0.30383 0.77061 0.0
C663 C 0.55171 0.31798 0.78867 0.0
N664 N 0.56989 0.28825 0.77669 0.0
N665 N 0.56412 0.31107 0.80631 0.0
H666 H 0.58365 0.28208 0.80982 0.0
H667 H 0.54575 0.30386 0.75496 0.0
C668 C 0.57321 0.29017 0.72076 0.0
O669 O 0.58772 0.30332 0.73029 0.0
N670 N 0.57908 0.23156 0.74716 0.0
C671 C 0.59372 0.21597 0.75344 0.0
C672 C 0.59505 0.20038 0.73644 0.0
C673 C 0.57141 0.22507 0.72668 0.0
N674 N 0.58108 0.20621 0.71961 0.0
C675 C 0.61892 0.26895 0.776 0.0
C676 C 0.63819 0.26175 0.73409 0.0
C677 C 0.65157 0.26449 0.75325 0.0
C678 C 0.64177 0.26881 0.77425 0.0
C679 C 0.61535 0.26259 0.73649 0.0
N680 N 0.60591 0.26589 0.75735 0.0
H681 H 0.61196 0.26967 0.79272 0.0
H682 H 0.6053 0.2589 0.72183 0.0
H683 H 0.60376 0.21665 0.76863 0.0
H684 H 0.56015 0.23469 0.71642 0.0
O685 O 0.57589 0.24574 0.79133 0.0
O686 O 0.54575 0.2512 0.7705 0.0
O687 O 0.56666 0.27288 0.73114 0.0
C688 C 0.55463 0.244 0.78923 0.0
H689 H 0.53998 0.33143 0.78917 0.0
H690 H 0.60606 0.18632 0.7361 0.0
H691 H 0.64531 0.25792 0.71766 0.0
H692 H 0.65164 0.27024 0.78954 0.0
Co693 Co 0.98485 0.32966 1.00408 0.0
C694 C 0.95271 0.33205 0.04179 0.0
C695 C 0.94441 0.30674 0.01799 0.0
C696 C 0.93157 0.30412 0.03713 0.0
N697 N 0.95766 0.32438 0.02081 0.0
N698 N 0.93703 0.31991 0.05226 0.0
H699 H 0.9618 0.34486 0.05021 0.0
H700 H 0.94551 0.29528 1.00395 0.0
C701 C 0.94944 0.329 0.96795 0.0
O702 O 0.93607 0.33949 0.98178 0.0
N703 N 0.01205 0.33441 0.98795 0.0
C704 C 0.0291 0.34708 0.99455 0.0
C705 C 0.0454 0.34573 0.97829 0.0
C706 C 0.0181 0.32551 0.96792 0.0
N707 N 0.03839 0.33223 0.96155 0.0
C708 C 0.9842 0.37267 0.02354 0.0
C709 C 0.97293 0.39577 0.98476 0.0
C710 C 0.97635 0.40738 1.00509 0.0
C711 C 0.98226 0.39548 0.02456 0.0
C712 C 0.97524 0.37281 0.98446 0.0
N713 N 0.97989 0.3614 1.00396 0.0
H714 H 0.99002 0.36427 0.03852 0.0
H715 H 0.97405 0.36454 0.96831 0.0
H716 H 0.02963 0.35664 0.01006 0.0
H717 H 0.00802 0.31407 0.9584 0.0
O718 O 0.00076 0.32695 0.03258 0.0
O719 O -0.00701 0.2994 1.0092 0.0
O720 O 0.96929 0.32498 0.97397 0.0
C721 C 0.00129 0.30593 0.02845 0.0
H722 H 0.92071 0.29034 0.04048 0.0
H723 H 0.06104 0.35429 0.97858 0.0
H724 H 0.96886 0.40432 0.96912 0.0
H725 H 0.98625 0.40374 0.04036 0.0
Co726 Co 0.89792 0.73689 0.25067 0.0
C727 C 0.89266 0.70854 0.29124 0.0
C728 C 0.90288 0.68925 0.26277 0.0
C729 C 0.90371 0.67621 0.28211 0.0
N730 N 0.89561 0.70959 0.26843 0.0
N731 N 0.89751 0.68856 0.30004 0.0
H732 H 0.88896 0.72262 0.30171 0.0
H733 H 0.90909 0.6846 0.24625 0.0
C734 C 0.88775 0.7052 0.21148 0.0
O735 O 0.87007 0.69714 0.22133 0.0
N736 N 0.90071 0.76399 0.23354 0.0
C737 C 0.89198 0.78371 0.23895 0.0
C738 C 0.89626 0.79832 0.22151 0.0
C739 C 0.91028 0.76683 0.21304 0.0
N740 N 0.90769 0.78766 0.20516 0.0
C741 C 0.85518 0.74208 0.26995 0.0
C742 C 0.83236 0.74718 0.2296 0.0
C743 C 0.8209 0.7477 0.25024 0.0
C744 C 0.83254 0.74526 0.27055 0.0
C745 C 0.85513 0.74345 0.22976 0.0
N746 N 0.86613 0.74023 0.24981 0.0
H747 H 0.86389 0.74197 0.28581 0.0
H748 H 0.86397 0.74365 0.21382 0.0
H749 H 0.88259 0.78705 0.2542 0.0
H750 H 0.91884 0.75385 0.20404 0.0
O751 O 0.90423 0.75294 0.2785 0.0
O752 O 0.92891 0.73668 0.25608 0.0
O753 O 0.89914 0.72015 0.22117 0.0
C754 C 0.92464 0.74763 0.27454 0.0
H755 H 0.91017 0.65959 0.28313 0.0
H756 H 0.89067 0.81526 0.22065 0.0
H757 H 0.82383 0.74957 0.21359 0.0
H758 H 0.82427 0.74645 0.28684 0.0
Co759 Co 0.51864 0.64098 0.50055 0.0
C760 C 0.54067 0.64411 0.54579 0.0
C761 C 0.56405 0.64841 0.51895 0.0
C762 C 0.57483 0.65062 0.53947 0.0
N763 N 0.5426 0.64378 0.5228 0.0
N764 N 0.56007 0.64796 0.55631 0.0
H765 H 0.52532 0.64186 0.55481 0.0
H766 H 0.57148 0.65119 0.50259 0.0
C767 C 0.5557 0.63369 0.4658 0.0
O768 O 0.56376 0.61608 0.47588 0.0
N769 N 0.49486 0.63905 0.47855 0.0
C770 C 0.47727 0.62553 0.4791 0.0
C771 C 0.46436 0.62971 0.46025 0.0
C772 C 0.49218 0.6516 0.45972 0.0
N773 N 0.47372 0.64614 0.44813 0.0
C774 C 0.51841 0.59909 0.52203 0.0
C775 C 0.51883 0.5737 0.483 0.0
C776 C 0.51591 0.56349 0.50416 0.0
C777 C 0.51606 0.57636 0.52382 0.0
C778 C 0.52087 0.59667 0.48193 0.0
N779 N 0.52077 0.60905 0.50136 0.0
H780 H 0.51697 0.60874 0.53728 0.0
H781 H 0.5214 0.60456 0.46545 0.0
H782 H 0.47408 0.61346 0.49227 0.0
H783 H 0.50361 0.66435 0.45452 0.0
O784 O 0.49705 0.64468 0.5244 0.0
O785 O 0.51241 0.67166 0.50401 0.0
O786 O 0.53944 0.64417 0.47427 0.0
C787 C 0.49868 0.6656 0.5198 0.0
H788 H 0.592 0.6549 0.54178 0.0
H789 H 0.44905 0.62154 0.45599 0.0
H790 H 0.51828 0.56418 0.46742 0.0
H791 H 0.51355 0.56898 0.54041 0.0
Co792 Co 0.39849 0.24732 0.25038 0.0
C793 C 0.39315 0.27868 0.28868 0.0
C794 C 0.41067 0.29322 0.2609 0.0
C795 C 0.41171 0.30732 0.27922 0.0
N796 N 0.39875 0.2753 0.26668 0.0
N797 N 0.40083 0.29804 0.29679 0.0
H798 H 0.38601 0.26621 0.29946 0.0
H799 H 0.41962 0.29514 0.24514 0.0
C800 C 0.3895 0.2806 0.21286 0.0
O801 O 0.3751 0.29112 0.22554 0.0
N802 N 0.39879 0.21962 0.23421 0.0
C803 C 0.38672 0.20145 0.23853 0.0
C804 C 0.39026 0.18638 0.22132 0.0
C805 C 0.40972 0.21531 0.21477 0.0
N806 N 0.40474 0.19516 0.20645 0.0
C807 C 0.35735 0.2411 0.27245 0.0
C808 C 0.33058 0.24531 0.23473 0.0
C809 C 0.32091 0.24166 0.25611 0.0
C810 C 0.33474 0.23905 0.27496 0.0
C811 C 0.35352 0.24684 0.23291 0.0
N812 N 0.36654 0.24587 0.25186 0.0
H813 H 0.36743 0.238 0.28714 0.0
H814 H 0.36067 0.24829 0.2162 0.0
H815 H 0.37565 0.19952 0.2528 0.0
H816 H 0.42043 0.22705 0.20639 0.0
O817 O 0.40543 0.23232 0.27864 0.0
O818 O 0.42987 0.24565 0.25413 0.0
O819 O 0.39884 0.26309 0.22017 0.0
C820 C 0.42587 0.23605 0.27347 0.0
H821 H 0.42102 0.32252 0.27993 0.0
H822 H 0.38263 0.17032 0.21975 0.0
H823 H 0.32063 0.24692 0.21954 0.0
H824 H 0.32827 0.2349 0.29158 0.0
Co825 Co 0.48135 0.66665 1.00337 0.0
C826 C 0.44793 0.66606 0.03962 0.0
C827 C 0.44 0.68993 0.01412 0.0
C828 C 0.42663 0.69345 0.03276 0.0
N829 N 0.45338 0.67263 0.01839 0.0
N830 N 0.43186 0.6785 0.04894 0.0
H831 H 0.45756 0.65459 0.04941 0.0
H832 H 0.44134 0.70067 0.99948 0.0
C833 C 0.44871 0.66827 0.96441 0.0
O834 O 0.43491 0.65596 0.97605 0.0
N835 N 0.50927 0.66096 0.98895 0.0
C836 C 0.52537 0.64764 0.99669 0.0
C837 C 0.54192 0.64688 0.98069 0.0
C838 C 0.51615 0.66819 0.9685 0.0
N839 N 0.53607 0.65978 0.96293 0.0
C840 C 0.47748 0.62364 0.02232 0.0
C841 C 0.47067 0.60083 0.98236 0.0
C842 C 0.47198 0.58906 1.00291 0.0
C843 C 0.47555 0.60086 0.02299 0.0
C844 C 0.47281 0.62386 0.98247 0.0
N845 N 0.47536 0.6351 1.00245 0.0
H846 H 0.48202 0.63177 0.03785 0.0
H847 H 0.47337 0.63236 0.96636 0.0
H848 H 0.52494 0.6388 0.01268 0.0
H849 H 0.50649 0.67889 0.95766 0.0
O850 O 0.4957 0.66826 0.03288 0.0
O851 O 0.49022 0.69649 1.0096 0.0
O852 O 0.46773 0.67275 0.97251 0.0
C853 C 0.49713 0.68933 0.02922 0.0
H854 H 0.41524 0.70703 0.03482 0.0
H855 H 0.55706 0.63753 0.98208 0.0
H856 H 0.46853 0.59236 0.96631 0.0
H857 H 0.478 0.59252 0.0391 0.0
Co858 Co 0.09053 0.70969 0.74734 0.0
C859 C 0.08954 0.68365 0.78994 0.0
C860 C 0.07417 0.66581 0.76295 0.0
C861 C 0.07038 0.65479 0.78317 0.0
N862 N 0.08653 0.68389 0.76708 0.0
N863 N 0.0799 0.66623 0.80019 0.0
H864 H 0.09738 0.69683 0.79924 0.0
H865 H 0.06658 0.66182 0.74687 0.0
C866 C 0.08868 0.67537 0.70969 0.0
O867 O 0.10488 0.66387 0.71864 0.0
N868 N 0.0937 0.73569 0.72833 0.0
C869 C 0.10762 0.75267 0.73176 0.0
C870 C 0.10525 0.76752 0.71414 0.0
C871 C 0.08293 0.7405 0.70885 0.0
N872 N 0.08977 0.75981 0.69969 0.0
C873 C 0.13467 0.70088 0.76165 0.0
C874 C 0.15358 0.70813 0.71954 0.0
C875 C 0.16698 0.70717 0.73888 0.0
C876 C 0.15746 0.70238 0.75993 0.0
C877 C 0.13082 0.70585 0.72192 0.0
N878 N 0.12156 0.70326 0.74296 0.0
H879 H 0.1277 0.69986 0.77837 0.0
H880 H 0.12056 0.70825 0.7071 0.0
H881 H 0.11903 0.75392 0.74584 0.0
H882 H 0.07028 0.73015 0.70158 0.0
O883 O 0.09277 0.72842 0.77393 0.0
O884 O 0.06178 0.71935 0.75577 0.0
O885 O 0.08152 0.69267 0.71954 0.0
C886 C 0.07144 0.72982 0.77228 0.0
H887 H 0.05986 0.64054 0.78534 0.0
H888 H 0.11466 0.78252 0.71185 0.0
H889 H 0.16048 0.71208 0.70304 0.0
H890 H 0.16734 0.70203 0.77529 0.0
Co891 Co 0.01757 0.33826 0.50423 0.0
C892 C 0.04508 0.34632 0.54479 0.0
C893 C 0.06425 0.33339 0.51739 0.0
C894 C 0.07692 0.33307 0.53689 0.0
N895 N 0.04432 0.34211 0.5222 0.0
N896 N 0.06469 0.34094 0.55417 0.0
H897 H 0.03097 0.35109 0.55476 0.0
H898 H 0.06858 0.3257 0.50142 0.0
C899 C 0.05033 0.35421 0.4682 0.0
O900 O 0.06177 0.36649 0.48229 0.0
N901 N 0.99095 0.3339 0.48661 0.0
C902 C 0.97079 0.34196 0.49144 0.0
C903 C 0.95699 0.33777 0.47334 0.0
C904 C 0.98906 0.32454 0.46583 0.0
N905 N 0.96849 0.32682 0.45731 0.0
C906 C 0.00152 0.37584 0.52838 0.0
C907 C 0.00383 0.4056 0.49284 0.0
C908 C -0.00387 0.41271 0.51402 0.0
C909 C -0.00525 0.39752 0.53185 0.0
C910 C 0.01012 0.38362 0.48997 0.0
N911 N 0.00974 0.36919 0.50787 0.0
H912 H -0.00053 0.3643 0.54213 0.0
H913 H 0.0145 0.37827 0.47313 0.0
H914 H 0.96658 0.35089 0.50674 0.0
H915 H 0.00265 0.31708 0.45673 0.0
O916 O 0.00315 0.32606 0.53081 0.0
O917 O 0.02252 0.30711 0.50533 0.0
O918 O 0.03347 0.34348 0.47481 0.0
C919 C 0.01153 0.30738 0.52428 0.0
H920 H 0.093 0.32551 0.53867 0.0
H921 H 0.93987 0.34262 0.47191 0.0
H922 H 0.00441 0.41678 0.47845 0.0
H923 H 0.98853 0.40237 0.54838 0.0
Co924 Co 0.41518 0.74454 0.26385 0.0
C925 C 0.41111 0.71154 0.22744 0.0
C926 C 0.43532 0.70181 0.25191 0.0
C927 C 0.43711 0.68827 0.23315 0.0
N928 N 0.41888 0.7164 0.24838 0.0
N929 N 0.42198 0.69461 0.21759 0.0
H930 H 0.39988 0.72199 0.21826 0.0
H931 H 0.44659 0.70228 0.26616 0.0
C932 C 0.41395 0.71065 0.30152 0.0
O933 O 0.40127 0.69816 0.28879 0.0
N934 N 0.41165 0.77272 0.27854 0.0
C935 C 0.40025 0.79001 0.27022 0.0
C936 C 0.40027 0.80659 0.28617 0.0
C937 C 0.41855 0.77896 0.29936 0.0
N938 N 0.41172 0.79961 0.30451 0.0
C939 C 0.37213 0.7453 0.24457 0.0
C940 C 0.34873 0.73578 0.28357 0.0
C941 C 0.33726 0.73855 0.263 0.0
C942 C 0.34933 0.74389 0.2435 0.0
C943 C 0.3717 0.73774 0.28394 0.0
N944 N 0.38326 0.74119 0.26431 0.0
H945 H 0.38065 0.75045 0.22944 0.0
H946 H 0.37994 0.737 0.30016 0.0
H947 H 0.39216 0.79039 0.25383 0.0
H948 H 0.42778 0.76839 0.31075 0.0
O949 O 0.41841 0.75905 0.23455 0.0
O950 O 0.44571 0.75093 0.25811 0.0
O951 O 0.41968 0.72982 0.29457 0.0
C952 C 0.43944 0.75861 0.23847 0.0
H953 H 0.44967 0.67586 0.2306 0.0
H954 H 0.39239 0.82252 0.2844 0.0
H955 H 0.34012 0.73224 0.29927 0.0
H956 H 0.34126 0.74757 0.2275 0.0
Co957 Co -0.00304 0.64969 0.01422 0.0
C958 C 0.02749 0.64523 0.97499 0.0
C959 C 0.04416 0.65853 1.00387 0.0
C960 C 0.05823 0.65918 0.98546 0.0
N961 N 0.02489 0.64931 0.99749 0.0
N962 N 0.04765 0.65086 0.96721 0.0
H963 H 0.01421 0.64052 0.96383 0.0
H964 H 0.04739 0.66595 0.02022 0.0
C965 C 0.02862 0.64231 0.05346 0.0
O966 O 0.03759 0.62534 0.04309 0.0
N967 N 0.96928 0.65071 0.03051 0.0
C968 C 0.95081 0.63936 0.02561 0.0
C969 C 0.93563 0.64296 0.04266 0.0
C970 C 0.96503 0.6613 0.0502 0.0
N971 N 0.94462 0.65674 0.05811 0.0
C972 C -0.0033 0.60583 0.99655 0.0
C973 C 0.99097 0.58432 0.0376 0.0
C974 C 0.9924 0.57199 0.01754 0.0
C975 C -0.00477 0.58297 0.99686 0.0
C976 C -0.00701 0.60728 0.03655 0.0
N977 N -0.00356 0.61772 0.01621 0.0
H978 H -0.00291 0.61391 0.98032 0.0
H979 H 0.99124 0.61671 0.05203 0.0
H980 H 0.94881 0.62866 0.01104 0.0
H981 H 0.97694 0.67145 0.05904 0.0
O982 O 0.98137 0.65349 0.98566 0.0
O983 O -0.00563 0.68045 1.00755 0.0
O984 O 0.01286 0.65296 0.04415 0.0
C985 C 0.98446 0.67449 0.98894 0.0
H986 H 0.07456 0.66631 0.98537 0.0
H987 H 0.91934 0.6358 0.04372 0.0
H988 H 0.98827 0.57632 0.05384 0.0
H989 H -0.00452 0.574 0.98093 0.0
Co990 Co 0.0933 0.26772 0.77101 0.0
C991 C 0.09905 0.29252 0.72862 0.0
C992 C 0.09453 0.31467 0.75665 0.0
C993 C 0.09433 0.32672 0.73664 0.0
N994 N 0.09743 0.2932 0.7515 0.0
N995 N 0.09687 0.31266 0.71906 0.0
H996 H 0.10048 0.27738 0.719 0.0
H997 H 0.09125 0.32097 0.7735 0.0
C998 C 0.1087 0.28011 0.81755 0.0
O999 O 0.1199 0.26156 0.81854 0.0
N1000 N 0.0886 0.24181 0.79026 0.0
C1001 C 0.0959 0.22109 0.78674 0.0
C1002 C 0.08926 0.2079 0.80442 0.0
C1003 C 0.07687 0.24061 0.80986 0.0
N1004 N 0.07732 0.22009 0.81914 0.0
C1005 C 0.12885 0.24406 0.75049 0.0
C1006 C 0.1627 0.26754 0.77038 0.0
C1007 C 0.16776 0.24986 0.756 0.0
C1008 C 0.15056 0.23839 0.74557 0.0
C1009 C 0.1407 0.27286 0.77457 0.0
N1010 N 0.12407 0.26022 0.7659 0.0
H1011 H 0.11588 0.23529 0.74184 0.0
H1012 H 0.13723 0.28742 0.78443 0.0
H1013 H 0.10537 0.2155 0.77242 0.0
H1014 H 0.06842 0.25459 0.81725 0.0
O1015 O 0.08014 0.25206 0.74574 0.0
O1016 O 0.06224 0.27314 0.77057 0.0
O1017 O 0.09954 0.28601 0.79892 0.0
C1018 C 0.06181 0.26111 0.75231 0.0
H1019 H 0.09085 0.34418 0.73506 0.0
H1020 H 0.09345 0.19066 0.80638 0.0
H1021 H 0.17563 0.27743 0.77794 0.0
H1022 H 0.15382 0.22493 0.73394 0.0
Co1023 Co 0.46776 0.32589 0.5141 0.0
C1024 C 0.44037 0.33024 0.47293 0.0
C1025 C 0.42053 0.32057 0.5012 0.0
C1026 C 0.40812 0.3187 0.48153 0.0
N1027 N 0.44084 0.32807 0.49584 0.0
N1028 N 0.42085 0.32452 0.46376 0.0
H1029 H 0.45463 0.33403 0.46272 0.0
H1030 H 0.41558 0.3147 0.51777 0.0
C1031 C 0.43591 0.33504 0.55328 0.0
O1032 O 0.42814 0.35324 0.54412 0.0
N1033 N 0.49455 0.32312 0.53182 0.0
C1034 C 0.51425 0.33198 0.52664 0.0
C1035 C 0.52827 0.32897 0.54482 0.0
C1036 C 0.4969 0.31465 0.55295 0.0
N1037 N 0.51732 0.31818 0.56147 0.0
C1038 C 0.47094 0.36968 0.49637 0.0
C1039 C 0.47839 0.39056 0.53743 0.0
C1040 C 0.47825 0.40297 0.51734 0.0
C1041 C 0.47438 0.39235 0.49667 0.0
C1042 C 0.47433 0.36788 0.53642 0.0
N1043 N 0.47033 0.35776 0.51605 0.0
H1044 H 0.4697 0.36173 0.48016 0.0
H1045 H 0.47504 0.35836 0.55195 0.0
H1046 H 0.51783 0.34096 0.51117 0.0
H1047 H 0.48376 0.30654 0.56209 0.0
O1048 O 0.48471 0.32082 0.4866 0.0
O1049 O 0.46828 0.29504 0.50766 0.0
O1050 O 0.45048 0.32361 0.54307 0.0
C1051 C 0.47958 0.30017 0.48966 0.0
H1052 H 0.39178 0.31168 0.48025 0.0
H1053 H 0.5449 0.33526 0.54602 0.0
H1054 H 0.48172 0.39828 0.55368 0.0
H1055 H 0.47489 0.40137 0.48075 0.0
H1056 H 0.07523 0.18774 0.07446 0.0
H1057 H 0.01455 0.15481 0.09202 0.0
H1058 H 0.08474 0.19009 0.11465 0.0
H1059 H 0.02313 0.15844 0.13193 0.0
H1060 H 0.04743 0.15674 0.20388 0.0
H1061 H 0.04314 0.14852 0.1636 0.0
H1062 H 0.07616 0.20958 0.14676 0.0
H1063 H 0.08171 0.21689 0.18644 0.0
C1064 C 0.06385 0.18115 0.08689 0.0
C1065 C 0.04399 0.17141 0.07988 0.0
C1066 C 0.06919 0.1826 0.11002 0.0
C1067 C 0.05459 0.17477 0.12685 0.0
C1068 C 0.03504 0.16442 0.1197 0.0
C1069 C 0.02996 0.16252 0.09659 0.0
C1070 C 0.05386 0.16835 0.19157 0.0
C1071 C 0.0645 0.18774 0.19875 0.0
C1072 C 0.05131 0.1637 0.16836 0.0
C1073 C 0.05904 0.17848 0.15163 0.0
C1074 C 0.07022 0.19752 0.15888 0.0
C1075 C 0.07317 0.20191 0.18199 0.0
H1076 H 0.09547 0.79277 0.44378 0.0
H1077 H 0.05058 0.8461 0.42837 0.0
H1078 H 0.10477 0.78987 0.4037 0.0
H1079 H 0.0588 0.84225 0.38817 0.0
H1080 H 0.09245 0.7698 0.33003 0.0
H1081 H 0.08832 0.77632 0.37034 0.0
H1082 H 0.08403 0.84648 0.35781 0.0
H1083 H 0.08769 0.83973 0.31693 0.0
C1084 C 0.08765 0.804 0.43196 0.0
C1085 C 0.07199 0.81947 0.43949 0.0
C1086 C 0.09279 0.80214 0.40881 0.0
C1087 C 0.08231 0.81558 0.39247 0.0
C1088 C 0.06734 0.83166 0.40012 0.0
C1089 C 0.06236 0.83365 0.42327 0.0
C1090 C 0.09106 0.78669 0.33576 0.0
C1091 C 0.09061 0.80429 0.32012 0.0
C1092 C 0.0887 0.79045 0.35907 0.0
C1093 C 0.08598 0.81196 0.36757 0.0
C1094 C 0.08582 0.82965 0.35196 0.0
C1095 C 0.088 0.82584 0.32851 0.0
H1096 H 0.41849 0.80661 0.68362 0.0
H1097 H 0.38589 0.86905 0.69408 0.0
H1098 H 0.42431 0.81588 0.64371 0.0
H1099 H 0.39159 0.87835 0.65378 0.0
H1100 H 0.38285 0.86664 0.57343 0.0
H1101 H 0.37797 0.86238 0.61468 0.0
H1102 H 0.44653 0.84461 0.62132 0.0
H1103 H 0.45138 0.84887 0.58037 0.0
C1104 C 0.41248 0.82229 0.67735 0.0
C1105 C 0.40165 0.83708 0.69197 0.0
C1106 C 0.41599 0.82769 0.65453 0.0
C1107 C 0.40847 0.84787 0.64565 0.0
C1108 C 0.39752 0.86266 0.66018 0.0
C1109 C 0.39436 0.85741 0.6832 0.0
C1110 C 0.39691 0.8622 0.58383 0.0
C1111 C 0.41749 0.85822 0.57367 0.0
C1112 C 0.39416 0.85984 0.60739 0.0
C1113 C 0.41185 0.85304 0.62117 0.0
C1114 C 0.43258 0.84974 0.61109 0.0
C1115 C 0.4354 0.85242 0.58765 0.0
H1116 H 0.44925 0.14905 0.81774 0.0
H1117 H 0.3874 0.18154 0.83217 0.0
H1118 H 0.45416 0.14155 0.85788 0.0
H1119 H 0.39309 0.17527 0.87256 0.0
H1120 H 0.40204 0.14731 0.94417 0.0
H1121 H 0.39453 0.14987 0.9033 0.0
H1122 H 0.4638 0.16112 0.89085 0.0
H1123 H 0.47116 0.15799 0.93124 0.0
C1124 C 0.43657 0.15453 0.82932 0.0
C1125 C 0.41801 0.1662 0.82142 0.0
C1126 C 0.43957 0.15047 0.85255 0.0
C1127 C 0.42423 0.1581 0.86867 0.0
C1128 C 0.40526 0.16903 0.86075 0.0
C1129 C 0.40214 0.17291 0.83748 0.0
C1130 C 0.4156 0.15017 0.93258 0.0
C1131 C 0.4372 0.15211 0.94094 0.0
C1132 C 0.41133 0.15175 0.90917 0.0
C1133 C 0.42857 0.15555 0.89359 0.0
C1134 C 0.45014 0.15758 0.90211 0.0
C1135 C 0.4544 0.15578 0.92539 0.0
H1136 H 0.94947 0.86543 0.93272 0.0
H1137 H 0.90462 0.81212 0.94782 0.0
H1138 H 0.93966 0.8631 0.89262 0.0
H1139 H 0.89405 0.81047 0.90793 0.0
H1140 H 0.9046 0.79326 0.83285 0.0
H1141 H 0.91031 0.79812 0.87326 0.0
H1142 H 0.91173 0.86882 0.86404 0.0
H1143 H 0.90607 0.86386 0.8231 0.0
C1144 C 0.93738 0.85331 0.92755 0.0
C1145 C 0.92807 0.8388 0.9436 0.0
C1146 C 0.93153 0.85216 0.90454 0.0
C1147 C 0.91614 0.83649 0.8969 0.0
C1148 C 0.90623 0.82252 0.91308 0.0
C1149 C 0.91211 0.82364 0.9361 0.0
C1150 C 0.9056 0.80991 0.83934 0.0
C1151 C 0.90461 0.82821 0.82459 0.0
C1152 C 0.90894 0.8127 0.86268 0.0
C1153 C 0.91139 0.83387 0.87208 0.0
C1154 C 0.91015 0.85224 0.85741 0.0
C1155 C 0.90684 0.84943 0.83395 0.0
H1156 H 0.92523 0.14303 0.70194 0.0
H1157 H 0.87169 0.18723 0.6854 0.0
H1158 H 0.93052 0.13536 0.66172 0.0
H1159 H 0.87759 0.18024 0.64504 0.0
H1160 H 0.88225 0.14782 0.57472 0.0
H1161 H 0.87467 0.15265 0.61524 0.0
H1162 H 0.94458 0.15453 0.62885 0.0
H1163 H 0.9521 0.14969 0.58866 0.0
C1164 C 0.91445 0.15101 0.68979 0.0
C1165 C 0.89808 0.16586 0.69702 0.0
C1166 C 0.91767 0.1468 0.66664 0.0
C1167 C 0.90462 0.15732 0.65007 0.0
C1168 C 0.88787 0.17173 0.6573 0.0
C1169 C 0.88464 0.17594 0.68047 0.0
C1170 C 0.89598 0.14931 0.58637 0.0
C1171 C 0.91777 0.1482 0.57834 0.0
C1172 C 0.89164 0.1521 0.60961 0.0
C1173 C 0.90901 0.15387 0.62537 0.0
C1174 C 0.93078 0.15276 0.61731 0.0
C1175 C 0.9351 0.14996 0.59415 0.0
H1176 H 0.6166 0.20106 0.33436 0.0
H1177 H 0.55561 0.16555 0.32545 0.0
H1178 H 0.61647 0.19189 0.37474 0.0
H1179 H 0.55534 0.15647 0.36589 0.0
H1180 H 0.57045 0.12901 0.43662 0.0
H1181 H 0.57323 0.13547 0.39571 0.0
H1182 H 0.59654 0.2016 0.40858 0.0
H1183 H 0.59383 0.19511 0.44929 0.0
C1184 C 0.60313 0.19131 0.34103 0.0
C1185 C 0.58608 0.18414 0.32662 0.0
C1186 C 0.60302 0.18608 0.36423 0.0
C1187 C 0.58582 0.17354 0.37372 0.0
C1188 C 0.56902 0.16591 0.35919 0.0
C1189 C 0.56916 0.17112 0.33594 0.0
C1190 C 0.57622 0.1449 0.4307 0.0
C1191 C 0.58195 0.16149 0.44636 0.0
C1192 C 0.57775 0.14864 0.40722 0.0
C1193 C 0.58507 0.16909 0.39874 0.0
C1194 C 0.59118 0.18552 0.41441 0.0
C1195 C 0.58967 0.18177 0.43787 0.0
H1196 H 0.51456 0.83556 0.09022 0.0
H1197 H 0.57295 0.79962 0.07056 0.0
H1198 H 0.52309 0.8296 0.12967 0.0
H1199 H 0.58265 0.7951 0.11046 0.0
H1200 H 0.57933 0.76627 0.18167 0.0
H1201 H 0.57396 0.77523 0.14214 0.0
H1202 H 0.54324 0.83687 0.16144 0.0
H1203 H 0.54715 0.8268 0.20136 0.0
C1204 C 0.52943 0.82659 0.09419 0.0
C1205 C 0.5427 0.81751 0.07694 0.0
C1206 C 0.53455 0.8234 0.11712 0.0
C1207 C 0.55353 0.81163 0.12363 0.0
C1208 C 0.5675 0.80364 0.10633 0.0
C1209 C 0.56203 0.80634 0.08334 0.0
C1210 C 0.57137 0.78171 0.17763 0.0
C1211 C 0.56322 0.79555 0.19487 0.0
C1212 C 0.56851 0.78706 0.1547 0.0
C1213 C 0.55799 0.80679 0.14822 0.0
C1214 C 0.55083 0.8212 0.16554 0.0
C1215 C 0.55319 0.81553 0.18852 0.0
H1216 H 0.59702 0.63682 0.57947 0.0
H1217 H 0.53199 0.66443 0.58783 0.0
H1218 H 0.60411 0.64187 0.62018 0.0
H1219 H 0.53903 0.66944 0.62843 0.0
H1220 H 0.57211 0.70098 0.69146 0.0
H1221 H 0.56467 0.69385 0.65136 0.0
H1222 H 0.59005 0.62768 0.65893 0.0
H1223 H 0.59748 0.63492 0.69938 0.0
C1224 C 0.58425 0.64394 0.59001 0.0
C1225 C 0.56396 0.65026 0.58043 0.0
C1226 C 0.58824 0.64666 0.61332 0.0
C1227 C 0.57214 0.65609 0.62749 0.0
C1228 C 0.5518 0.66226 0.61792 0.0
C1229 C 0.5477 0.65923 0.59471 0.0
C1230 C 0.57631 0.68498 0.68454 0.0
C1231 C 0.58564 0.66856 0.69847 0.0
C1232 C 0.57182 0.68082 0.66163 0.0
C1233 C 0.57677 0.66021 0.65198 0.0
C1234 C 0.58619 0.64377 0.66587 0.0
C1235 C 0.59036 0.64784 0.68896 0.0
H1236 H 0.5361 0.36907 0.93904 0.0
H1237 H 0.56866 0.30708 0.95259 0.0
H1238 H 0.54142 0.36361 0.89831 0.0
H1239 H 0.57407 0.30164 0.9119 0.0
H1240 H 0.59619 0.30715 0.83808 0.0
H1241 H 0.59359 0.31569 0.87852 0.0
H1242 H 0.52718 0.3394 0.86848 0.0
H1243 H 0.52977 0.33077 0.82807 0.0
C1244 C 0.54446 0.3543 0.93334 0.0
C1245 C 0.55188 0.3385 0.94916 0.0
C1246 C 0.54746 0.35114 0.90998 0.0
C1247 C 0.55806 0.33213 0.90177 0.0
C1248 C 0.56607 0.31662 0.91761 0.0
C1249 C 0.56302 0.31976 0.941 0.0
C1250 C 0.58104 0.31422 0.84449 0.0
C1251 C 0.56318 0.31818 0.82977 0.0
C1252 C 0.57954 0.31907 0.8677 0.0
C1253 C 0.56014 0.32812 0.87683 0.0
C1254 C 0.54248 0.33269 0.862 0.0
C1255 C 0.54397 0.32778 0.83877 0.0
H1256 H 0.90176 0.27138 0.18348 0.0
H1257 H 0.93198 0.33378 0.20032 0.0
H1258 H 0.90424 0.2801 0.14356 0.0
H1259 H 0.93384 0.34295 0.15992 0.0
H1260 H 0.96143 0.33646 0.08735 0.0
H1261 H 0.95415 0.33278 0.12752 0.0
H1262 H 0.89201 0.30121 0.11253 0.0
H1263 H 0.89976 0.30421 0.07195 0.0
C1264 C 0.90852 0.28723 0.17881 0.0
C1265 C 0.91687 0.30179 0.19536 0.0
C1266 C 0.90986 0.2923 0.15567 0.0
C1267 C 0.91931 0.31223 0.1483 0.0
C1268 C 0.92685 0.32723 0.16486 0.0
C1269 C 0.92573 0.32202 0.18808 0.0
C1270 C 0.94604 0.32898 0.09241 0.0
C1271 C 0.93133 0.32031 0.07618 0.0
C1272 C 0.9418 0.32696 0.11568 0.0
C1273 C 0.92256 0.31651 0.12348 0.0
C1274 C 0.90728 0.30888 0.10724 0.0
C1275 C 0.91166 0.31066 0.08392 0.0
H1276 H 0.90689 0.71661 0.33471 0.0
H1277 H 0.89285 0.64828 0.31996 0.0
H1278 H 0.90979 0.7081 0.37472 0.0
H1279 H 0.89546 0.63966 0.36065 0.0
H1280 H 0.92687 0.63104 0.43258 0.0
H1281 H 0.92113 0.63706 0.39204 0.0
H1282 H 0.88805 0.69852 0.40673 0.0
H1283 H 0.89483 0.69318 0.44698 0.0
C1284 C 0.90403 0.69976 0.33998 0.0
C1285 C 0.89933 0.68317 0.32397 0.0
C1286 C 0.90567 0.69487 0.36311 0.0
C1287 C 0.90253 0.67324 0.37111 0.0
C1288 C 0.89808 0.6565 0.35513 0.0
C1289 C 0.89655 0.66141 0.33181 0.0
C1290 C 0.91844 0.6459 0.42721 0.0
C1291 C 0.91169 0.66177 0.44327 0.0
C1292 C 0.9149 0.64921 0.40389 0.0
C1293 C 0.9044 0.66844 0.39598 0.0
C1294 C 0.89666 0.68374 0.4121 0.0
C1295 C 0.90031 0.68051 0.43536 0.0
H1296 H 0.45022 0.31247 0.43141 0.0
H1297 H 0.3816 0.32829 0.44177 0.0
H1298 H 0.44369 0.30802 0.39107 0.0
H1299 H 0.37492 0.32367 0.40081 0.0
H1300 H 0.37127 0.28785 0.3298 0.0
H1301 H 0.37479 0.29506 0.37056 0.0
H1302 H 0.43518 0.33066 0.3581 0.0
H1303 H 0.43212 0.32283 0.31772 0.0
C1304 C 0.43375 0.31538 0.42504 0.0
C1305 C 0.4165 0.32123 0.43983 0.0
C1306 C 0.43 0.31277 0.40181 0.0
C1307 C 0.40887 0.31587 0.39259 0.0
C1308 C 0.39141 0.32117 0.40738 0.0
C1309 C 0.3952 0.32382 0.4308 0.0
C1310 C 0.38526 0.29727 0.33578 0.0
C1311 C 0.40149 0.30459 0.32043 0.0
C1312 C 0.38716 0.30158 0.35912 0.0
C1313 C 0.40539 0.31323 0.36764 0.0
C1314 C 0.42111 0.32132 0.35217 0.0
C1315 C 0.4192 0.31706 0.3289 0.0
H1316 H 0.43502 0.64466 0.07908 0.0
H1317 H 0.41623 0.71329 0.07363 0.0
H1318 H 0.43131 0.6467 0.12031 0.0
H1319 H 0.41164 0.71489 0.11481 0.0
H1320 H 0.38779 0.70138 0.18844 0.0
H1321 H 0.38794 0.69657 0.14729 0.0
H1322 H 0.45344 0.6692 0.15091 0.0
H1323 H 0.45388 0.67485 0.19193 0.0
C1324 C 0.42993 0.66014 0.08657 0.0
C1325 C 0.42622 0.67888 0.07287 0.0
C1326 C 0.42776 0.66125 0.11021 0.0
C1327 C 0.42135 0.68098 0.12074 0.0
C1328 C 0.41649 0.69941 0.10709 0.0
C1329 C 0.419 0.69843 0.08343 0.0
C1330 C 0.40232 0.69442 0.18057 0.0
C1331 C 0.42094 0.6888 0.19371 0.0
C1332 C 0.40232 0.69162 0.15696 0.0
C1333 C 0.42073 0.68265 0.14593 0.0
C1334 C 0.43895 0.67604 0.15903 0.0
C1335 C 0.43912 0.67918 0.18263 0.0
H1336 H 0.0798 0.67616 0.94793 0.0
H1337 H 0.03156 0.62597 0.93252 0.0
H1338 H 0.08969 0.67814 0.90795 0.0
H1339 H 0.04053 0.62891 0.89237 0.0
H1340 H 0.07235 0.62751 0.82226 0.0
H1341 H 0.06663 0.62215 0.86305 0.0
H1342 H 0.07482 0.69217 0.87378 0.0
H1343 H 0.08098 0.69737 0.83354 0.0
C1344 C 0.07134 0.66544 0.93613 0.0
C1345 C 0.05467 0.65106 0.94364 0.0
C1346 C 0.07683 0.66679 0.91303 0.0
C1347 C 0.06575 0.6539 0.89673 0.0
C1348 C 0.04957 0.63901 0.90433 0.0
C1349 C 0.04419 0.63756 0.92744 0.0
C1350 C 0.07296 0.64172 0.83336 0.0
C1351 C 0.07718 0.66284 0.82443 0.0
C1352 C 0.06963 0.63868 0.85678 0.0
C1353 C 0.07029 0.65672 0.87187 0.0
C1354 C 0.07465 0.67778 0.86289 0.0
C1355 C 0.07813 0.68078 0.8396 0.0
H1356 H 0.10943 0.34915 0.69567 0.0
H1357 H 0.07572 0.28689 0.68862 0.0
H1358 H 0.10214 0.35732 0.65535 0.0
H1359 H 0.06848 0.29497 0.64867 0.0
H1360 H 0.03647 0.32885 0.58754 0.0
H1361 H 0.04496 0.32304 0.62765 0.0
H1362 H 0.11256 0.34156 0.61541 0.0
H1363 H 0.10396 0.34744 0.57498 0.0
C1364 C 0.10056 0.33723 0.68548 0.0
C1365 C 0.09332 0.31732 0.69524 0.0
C1366 C 0.09648 0.34183 0.66245 0.0
C1367 C 0.08468 0.3268 0.64889 0.0
C1368 C 0.07748 0.30693 0.65871 0.0
C1369 C 0.08184 0.3022 0.68154 0.0
C1370 C 0.05306 0.33206 0.59343 0.0
C1371 C 0.06953 0.33878 0.57812 0.0
C1372 C 0.05798 0.32849 0.61637 0.0
C1373 C 0.07944 0.33178 0.62467 0.0
C1374 C 0.09585 0.33902 0.60952 0.0
C1375 C 0.09098 0.34227 0.58641 0.0
H1376 H 0.96816 0.20405 0.24147 0.0
H1377 H 0.93254 0.25166 0.20131 0.0
H1378 H 0.00227 0.21495 0.22293 0.0
H1379 H 0.96701 0.26434 0.18448 0.0
H1380 H 0.02402 0.28567 0.24883 0.0
H1381 H 0.99088 0.27774 0.22711 0.0
H1382 H 0.02799 0.23408 0.18368 0.0
H1383 H 0.06165 0.24429 0.20388 0.0
C1384 C 0.96745 0.21588 0.22764 0.0
C1385 C 0.94796 0.2274 0.22309 0.0
C1386 C 0.98696 0.22216 0.21695 0.0
C1387 C 0.98722 0.2408 0.20266 0.0
C1388 C 0.96719 0.24988 0.19534 0.0
C1389 C 0.94749 0.24272 0.20515 0.0
C1390 C 0.02542 0.27593 0.23346 0.0
C1391 C 0.04508 0.26493 0.22837 0.0
C1392 C 0.00645 0.27134 0.22095 0.0
C1393 C 0.0069 0.25486 0.20414 0.0
C1394 C 0.02726 0.24684 0.19655 0.0
C1395 C 0.04647 0.2525 0.20829 0.0
H1396 H 0.02428 0.68501 0.48127 0.0
H1397 H 0.96278 0.67457 0.44629 0.0
H1398 H 0.02912 0.71964 0.46129 0.0
H1399 H 0.96713 0.70972 0.42661 0.0
H1400 H 0.96298 0.77675 0.4731 0.0
H1401 H 0.96161 0.74076 0.45499 0.0
H1402 H 0.02843 0.74935 0.43128 0.0
H1403 H 0.02956 0.78552 0.44944 0.0
C1404 C 0.01253 0.68949 0.46815 0.0
C1405 C -0.00694 0.67748 0.46551 0.0
C1406 C 0.01524 0.70938 0.45659 0.0
C1407 C -0.00191 0.71775 0.44291 0.0
C1408 C 0.98045 0.70379 0.43727 0.0
C1409 C 0.97797 0.68364 0.44856 0.0
C1410 C 0.9768 0.77149 0.46278 0.0
C1411 C -0.00361 0.78356 0.46274 0.0
C1412 C 0.97607 0.75089 0.45225 0.0
C1413 C -0.00483 0.742 0.44216 0.0
C1414 C 0.01358 0.75572 0.43909 0.0
C1415 C 0.01423 0.77639 0.44951 0.0
H1416 H 0.43459 0.72777 0.7434 0.0
H1417 H 0.44453 0.7923 0.71443 0.0
H1418 H 0.47054 0.71632 0.73006 0.0
H1419 H 0.48015 0.78064 0.69933 0.0
H1420 H 0.53691 0.70066 0.72545 0.0
H1421 H 0.50114 0.70866 0.70826 0.0
H1422 H 0.51139 0.77821 0.72154 0.0
H1423 H 0.54754 0.77003 0.73691 0.0
C1424 C 0.44415 0.73907 0.73307 0.0
C1425 C 0.43733 0.76087 0.73016 0.0
C1426 C 0.46476 0.73254 0.72516 0.0
C1427 C 0.4787 0.74781 0.71414 0.0
C1428 C 0.4702 0.76871 0.70841 0.0
C1429 C 0.4498 0.77537 0.71686 0.0
C1430 C 0.53166 0.71769 0.7237 0.0
C1431 C 0.54434 0.73479 0.73284 0.0
C1432 C 0.51123 0.7223 0.71397 0.0
C1433 C 0.50287 0.74396 0.71437 0.0
C1434 C 0.51704 0.76129 0.72091 0.0
C1435 C 0.53776 0.75669 0.72997 0.0
H1436 H 0.52926 0.21391 0.98642 0.0
H1437 H 0.46609 0.19259 0.96129 0.0
H1438 H 0.52249 0.25073 0.9711 0.0
H1439 H 0.459 0.22947 0.94628 0.0
H1440 H 0.50528 0.31679 0.95748 0.0
H1441 H 0.50904 0.28034 0.94026 0.0
H1442 H 0.45442 0.2571 0.98074 0.0
H1443 H 0.45158 0.2931 0.99871 0.0
C1444 C 0.51455 0.2168 0.9764 0.0
C1445 C 0.49817 0.20068 0.97497 0.0
C1446 C 0.51064 0.23782 0.96752 0.0
C1447 C 0.49007 0.24294 0.95775 0.0
C1448 C 0.47497 0.22589 0.95367 0.0
C1449 C 0.47902 0.20483 0.96228 0.0
C1450 C 0.49334 0.30421 0.96173 0.0
C1451 C 0.47827 0.30747 0.97951 0.0
C1452 C 0.4955 0.28338 0.95184 0.0
C1453 C 0.48219 0.26591 0.95935 0.0
C1454 C 0.4648 0.27032 0.97449 0.0
C1455 C 0.46311 0.29091 0.98483 0.0
H1456 H 0.95218 0.78235 0.27914 0.0
H1457 H 0.9372 0.71779 0.30563 0.0
H1458 H 0.9896 0.77918 0.29374 0.0
H1459 H 0.97449 0.71454 0.32056 0.0
H1460 H 0.05723 0.76793 0.30428 0.0
H1461 H 0.02073 0.77071 0.32148 0.0
H1462 H 0.00227 0.70958 0.28886 0.0
H1463 H 0.03864 0.70715 0.27165 0.0
C1464 C 0.95652 0.76814 0.28943 0.0
C1465 C 0.94202 0.75036 0.2914 0.0
C1466 C 0.97793 0.76627 0.29787 0.0
C1467 C 0.98503 0.74638 0.30793 0.0
C1468 C 0.96945 0.72996 0.31278 0.0
C1469 C 0.94806 0.73188 0.30437 0.0
C1470 C 0.04573 0.75451 0.30195 0.0
C1471 C 0.0505 0.73729 0.28683 0.0
C1472 C 0.02485 0.75613 0.31171 0.0
C1473 C 0.00861 0.74052 0.30635 0.0
C1474 C 0.01449 0.72178 0.29354 0.0
C1475 C 0.03527 0.72034 0.28358 0.0
H1476 H 0.50342 0.68471 0.56125 0.0
H1477 H 0.46303 0.68362 0.50098 0.0
H1478 H 0.48656 0.71978 0.57264 0.0
H1479 H 0.44662 0.71848 0.51157 0.0
H1480 H 0.4931 0.79276 0.5442 0.0
H1481 H 0.49487 0.75422 0.55545 0.0
H1482 H 0.42763 0.74505 0.53284 0.0
H1483 H 0.42659 0.7834 0.52024 0.0
C1484 C 0.49026 0.69162 0.55102 0.0
C1485 C 0.48441 0.6819 0.5303 0.0
C1486 C 0.48071 0.71168 0.55738 0.0
C1487 C 0.46554 0.72222 0.54284 0.0
C1488 C 0.45805 0.71092 0.52339 0.0
C1489 C 0.46753 0.69097 0.51713 0.0
C1490 C 0.47854 0.7826 0.54226 0.0
C1491 C 0.46003 0.79057 0.53066 0.0
C1492 C 0.4794 0.76052 0.54895 0.0
C1493 C 0.46157 0.74632 0.5444 0.0
C1494 C 0.44188 0.75538 0.53587 0.0
C1495 C 0.44127 0.77726 0.52862 0.0
H1496 H 0.42688 0.2182 0.81936 0.0
H1497 H 0.45022 0.27422 0.78112 0.0
H1498 H 0.46101 0.21785 0.84131 0.0
H1499 H 0.48352 0.27497 0.80404 0.0
H1500 H 0.54569 0.26899 0.82605 0.0
H1501 H 0.50878 0.27058 0.84218 0.0
H1502 H 0.49361 0.20801 0.81094 0.0
H1503 H 0.52995 0.20723 0.79372 0.0
C1504 C 0.43863 0.23136 0.81672 0.0
C1505 C 0.43631 0.24598 0.79832 0.0
C1506 C 0.45809 0.23123 0.82944 0.0
C1507 C 0.47499 0.24617 0.82418 0.0
C1508 C 0.47073 0.26329 0.80856 0.0
C1509 C 0.4517 0.26287 0.79531 0.0
C1510 C 0.53495 0.25493 0.82384 0.0
C1511 C 0.54029 0.23822 0.80827 0.0
C1512 C 0.51383 0.2558 0.83323 0.0
C1513 C 0.49823 0.23971 0.82733 0.0
C1514 C 0.5053 0.2207 0.81572 0.0
C1515 C 0.52613 0.2202 0.80577 0.0
H1516 H 0.98894 0.17749 0.07371 0.0
H1517 H 0.94324 0.21239 0.03072 0.0
H1518 H 0.00016 0.2122 0.0911 0.0
H1519 H 0.95248 0.2467 0.04982 0.0
H1520 H 0.98232 0.30676 0.06978 0.0
H1521 H 0.97017 0.27324 0.08914 0.0
H1522 H 0.01518 0.2351 0.04819 0.0
H1523 H 0.02544 0.26825 0.02732 0.0
C1524 C 0.97998 0.19231 0.06935 0.0
C1525 C 0.96598 0.19259 0.05034 0.0
C1526 C 0.9863 0.21216 0.07947 0.0
C1527 C 0.97749 0.23207 0.07141 0.0
C1528 C 0.95955 0.23149 0.05627 0.0
C1529 C 0.95419 0.21184 0.04528 0.0
C1530 C 0.99043 0.29137 0.06581 0.0
C1531 C 0.00432 0.28982 0.04677 0.0
C1532 C 0.9836 0.27224 0.07704 0.0
C1533 C 0.99165 0.25169 0.07 0.0
C1534 C 0.00887 0.25085 0.05402 0.0
C1535 C 0.01475 0.26978 0.04199 0.0
H1536 H 0.949 0.73309 0.78953 0.0
H1537 H 0.95928 0.80338 0.78697 0.0
H1538 H 0.9859 0.72801 0.80459 0.0
H1539 H -0.00417 0.79878 0.8037 0.0
H1540 H 0.05981 0.77223 0.76807 0.0
H1541 H 0.02558 0.78711 0.78228 0.0
H1542 H 0.01803 0.73014 0.82614 0.0
H1543 H 0.05197 0.71484 0.81052 0.0
C1544 C 0.95896 0.74749 0.79319 0.0
C1545 C 0.95197 0.76846 0.78648 0.0
C1546 C 0.98007 0.74472 0.80212 0.0
C1547 C -0.00574 0.76301 0.80471 0.0
C1548 C 0.98569 0.7843 0.80115 0.0
C1549 C 0.96484 0.78697 0.79158 0.0
C1550 C 0.05138 0.76355 0.78165 0.0
C1551 C 0.05817 0.74247 0.78817 0.0
C1552 C 0.03166 0.77206 0.78996 0.0
C1553 C 0.01848 0.75938 0.80479 0.0
C1554 C 0.0274 0.73996 0.81417 0.0
C1555 C 0.04698 0.73131 0.80552 0.0
H1556 H 0.97483 0.28715 0.54019 0.0
H1557 H 0.04573 0.28337 0.53954 0.0
H1558 H 0.9729 0.24921 0.55368 0.0
H1559 H 0.04413 0.24579 0.55445 0.0
H1560 H 0.02427 0.17975 0.51753 0.0
H1561 H 0.03475 0.21609 0.53066 0.0
H1562 H 0.97853 0.21696 0.57595 0.0
H1563 H 0.96784 0.18054 0.5619 0.0
C1564 C 0.98998 0.2784 0.54396 0.0
C1565 C 0.01035 0.28757 0.53829 0.0
C1566 C 0.98898 0.25672 0.55193 0.0
C1567 C 0.00843 0.24419 0.55457 0.0
C1568 C 0.02888 0.25475 0.55194 0.0
C1569 C 0.02982 0.27617 0.54341 0.0
C1570 C 0.0149 0.1873 0.53115 0.0
C1571 C -0.00465 0.17769 0.53875 0.0
C1572 C 0.02086 0.20816 0.53882 0.0
C1573 C 0.00713 0.21975 0.55402 0.0
C1574 C 0.98917 0.20866 0.5639 0.0
C1575 C 0.98316 0.18778 0.55607 0.0
H1576 H 0.43082 0.2608 0.31114 0.0
H1577 H 0.46082 0.20846 0.2724 0.0
H1578 H 0.4661 0.26821 0.32978 0.0
H1579 H 0.49567 0.21485 0.29196 0.0
H1580 H 0.55686 0.22965 0.31756 0.0
H1581 H 0.51975 0.22301 0.33178 0.0
H1582 H 0.49705 0.28156 0.2971 0.0
H1583 H 0.53385 0.28738 0.28182 0.0
C1584 C 0.44464 0.25001 0.30769 0.0
C1585 C 0.44339 0.23414 0.29036 0.0
C1586 C 0.46473 0.25419 0.31845 0.0
C1587 C 0.48348 0.24205 0.31235 0.0
C1588 C 0.48133 0.2242 0.29723 0.0
C1589 C 0.46148 0.22056 0.28593 0.0
C1590 C 0.54426 0.24188 0.31421 0.0
C1591 C 0.54793 0.25884 0.29838 0.0
C1592 C 0.52303 0.23807 0.32242 0.0
C1593 C 0.5056 0.25158 0.31521 0.0
C1594 C 0.51028 0.27096 0.30297 0.0
C1595 C 0.53134 0.27435 0.2942 0.0
H1596 H 0.48581 0.81745 0.07346 0.0
H1597 H 0.44033 0.78287 0.0302 0.0
H1598 H 0.49591 0.78276 0.09188 0.0
H1599 H 0.4483 0.74871 0.05028 0.0
H1600 H 0.52222 0.72629 0.02988 0.0
H1601 H 0.51195 0.75936 0.05072 0.0
H1602 H 0.4644 0.72188 0.08919 0.0
H1603 H 0.47642 0.68828 0.06994 0.0
C1604 C 0.4767 0.80275 0.06919 0.0
C1605 C 0.46318 0.80245 0.04983 0.0
C1606 C 0.48232 0.78293 0.07992 0.0
C1607 C 0.47326 0.76308 0.07206 0.0
C1608 C 0.45562 0.76385 0.05655 0.0
C1609 C 0.45099 0.78342 0.04499 0.0
C1610 C 0.51089 0.72481 0.04403 0.0
C1611 C 0.49972 0.705 0.04799 0.0
C1612 C 0.50499 0.74371 0.05606 0.0
C1613 C 0.48708 0.74313 0.07123 0.0
C1614 C 0.47828 0.72268 0.07766 0.0
C1615 C 0.48506 0.70352 0.06644 0.0
H1616 H 0.93275 0.27374 0.75579 0.0
H1617 H 0.93539 0.21581 0.71351 0.0
H1618 H 0.96961 0.28377 0.74407 0.0
H1619 H 0.97237 0.22608 0.70077 0.0
H1620 H 0.03728 0.29485 0.73676 0.0
H1621 H -3e-05 0.29266 0.72142 0.0
H1622 H 0.0039 0.22135 0.72386 0.0
H1623 H 0.04164 0.22387 0.73765 0.0
C1624 C 0.94091 0.26388 0.74293 0.0
C1625 C 0.93163 0.24409 0.73555 0.0
C1626 C 0.96207 0.26959 0.73606 0.0
C1627 C 0.97425 0.2554 0.72184 0.0
C1628 C 0.96361 0.23706 0.71213 0.0
C1629 C 0.94244 0.23128 0.7192 0.0
C1630 C 0.03022 0.27878 0.73327 0.0
C1631 C 0.04172 0.25949 0.73887 0.0
C1632 C 0.00896 0.27749 0.72447 0.0
C1633 C -0.00136 0.25687 0.72207 0.0
C1634 C 0.01123 0.23755 0.7254 0.0
C1635 C 0.03277 0.2389 0.73358 0.0
H1636 H 0.51941 0.28346 0.47814 0.0
H1637 H 0.44988 0.27836 0.46435 0.0
H1638 H 0.52507 0.24672 0.46259 0.0
H1639 H 0.45542 0.24183 0.44788 0.0
H1640 H 0.47262 0.17856 0.49327 0.0
H1641 H 0.46194 0.21295 0.47538 0.0
H1642 H 0.52356 0.21415 0.43847 0.0
H1643 H 0.5341 0.17951 0.45675 0.0
C1644 C 0.50559 0.2749 0.47053 0.0
C1645 C 0.48424 0.28323 0.47274 0.0
C1646 C 0.50875 0.25387 0.46144 0.0
C1647 C 0.49052 0.24105 0.45461 0.0
C1648 C 0.46968 0.2511 0.45348 0.0
C1649 C 0.4665 0.27195 0.46288 0.0
C1650 C 0.4832 0.1855 0.48025 0.0
C1651 C 0.50413 0.17671 0.47642 0.0
C1652 C 0.47714 0.20527 0.46988 0.0
C1653 C 0.49224 0.21667 0.45594 0.0
C1654 C 0.51178 0.20595 0.44942 0.0
C1655 C 0.51776 0.18607 0.45977 0.0
H1656 H 0.43735 0.73701 0.19835 0.0
H1657 H 0.47808 0.78105 0.23761 0.0
H1658 H 0.4702 0.72123 0.1808 0.0
H1659 H 0.51058 0.76717 0.21815 0.0
H1660 H 0.56657 0.73488 0.19889 0.0
H1661 H 0.53351 0.74634 0.17832 0.0
H1662 H 0.49419 0.70532 0.22242 0.0
H1663 H 0.52679 0.69618 0.24451 0.0
C1664 C 0.45316 0.74446 0.20195 0.0
C1665 C 0.45544 0.75965 0.21986 0.0
C1666 C 0.47191 0.73555 0.19166 0.0
C1667 C 0.49284 0.74281 0.19839 0.0
C1668 C 0.49456 0.76136 0.21264 0.0
C1669 C 0.47598 0.76933 0.22387 0.0
C1670 C 0.551 0.72745 0.20338 0.0
C1671 C 0.54887 0.71571 0.22387 0.0
C1672 C 0.53212 0.73381 0.19141 0.0
C1673 C 0.51136 0.72715 0.19922 0.0
C1674 C 0.51008 0.7108 0.21618 0.0
C1675 C 0.52875 0.70554 0.22892 0.0
H1676 H 0.00932 0.68137 0.9516 0.0
H1677 H 0.95254 0.70544 0.98791 0.0
H1678 H 0.01424 0.71755 0.93408 0.0
H1679 H 0.95674 0.74126 0.9697 0.0
H1680 H 0.97081 0.80574 0.95196 0.0
H1681 H 0.96475 0.76927 0.93562 0.0
H1682 H 0.02524 0.74651 0.96642 0.0
H1683 H 0.03072 0.78268 0.98343 0.0
C1684 C -0.00298 0.69395 0.95462 0.0
C1685 C 0.98065 0.69088 0.97116 0.0
C1686 C -0.00017 0.71464 0.94454 0.0
C1687 C 0.98604 0.73221 0.95074 0.0
C1688 C 0.96753 0.72796 0.96447 0.0
C1689 C 0.96509 0.70748 0.97497 0.0
C1690 C 0.98345 0.7933 0.95405 0.0
C1691 C 0.00115 0.79675 0.96901 0.0
C1692 C 0.97998 0.77245 0.94465 0.0
C1693 C -0.00564 0.75506 0.95 0.0
C1694 C 0.01396 0.75966 0.96188 0.0
C1695 C 0.01714 0.78035 0.97169 0.0
H1696 H 0.05137 0.28684 0.34272 0.0
H1697 H 0.11267 0.32275 0.3374 0.0
H1698 H 0.04355 0.30516 0.37829 0.0
H1699 H 0.10411 0.34217 0.37253 0.0
H1700 H 0.09201 0.34981 0.45098 0.0
H1701 H 0.10163 0.33665 0.41287 0.0
H1702 H 0.03291 0.33936 0.39361 0.0
H1703 H 0.02342 0.35144 0.43178 0.0
C1704 C 0.0632 0.29867 0.34901 0.0
C1705 C 0.08273 0.30313 0.33702 0.0
C1706 C 0.05852 0.30953 0.36935 0.0
C1707 C 0.07307 0.32538 0.37825 0.0
C1708 C 0.09257 0.32999 0.36627 0.0
C1709 C 0.09735 0.31898 0.34593 0.0
C1710 C 0.07913 0.34806 0.43835 0.0
C1711 C 0.057 0.35143 0.44428 0.0
C1712 C 0.08458 0.34049 0.41653 0.0
C1713 C 0.06798 0.33644 0.40027 0.0
C1714 C 0.04605 0.34158 0.40586 0.0
C1715 C 0.04062 0.34875 0.42766 0.0
H1716 H 0.9221 0.81868 0.6928 0.0
H1717 H 0.87427 0.77583 0.66106 0.0
H1718 H 0.93809 0.82658 0.65562 0.0
H1719 H 0.89054 0.78339 0.62403 0.0
H1720 H 0.91435 0.81605 0.5583 0.0
H1721 H 0.89639 0.81126 0.59504 0.0
H1722 H 0.96004 0.80678 0.6276 0.0
H1723 H 0.97799 0.81236 0.59101 0.0
C1724 C 0.91477 0.81119 0.67789 0.0
C1725 C 0.89687 0.7966 0.67999 0.0
C1726 C 0.92412 0.81552 0.65658 0.0
C1727 C 0.91579 0.80543 0.63682 0.0
C1728 C 0.8973 0.79159 0.63882 0.0
C1729 C 0.88795 0.78725 0.66012 0.0
C1730 C 0.92454 0.8142 0.57329 0.0
C1731 C 0.94766 0.81463 0.57159 0.0
C1732 C 0.91422 0.81126 0.59437 0.0
C1733 C 0.92674 0.80873 0.61435 0.0
C1734 C 0.94986 0.80901 0.61264 0.0
C1735 C 0.96018 0.81189 0.59155 0.0
H1736 H 0.41711 0.65311 0.93505 0.0
H1737 H 0.46529 0.70477 0.9432 0.0
H1738 H 0.40605 0.66879 0.89865 0.0
H1739 H 0.45335 0.72146 0.90764 0.0
H1740 H 0.44027 0.73778 0.83327 0.0
H1741 H 0.45285 0.72104 0.86879 0.0
H1742 H 0.38704 0.69616 0.88071 0.0
H1743 H 0.3752 0.71175 0.84457 0.0
C1744 C 0.4252 0.66797 0.92913 0.0
C1745 C 0.4421 0.67764 0.94203 0.0
C1746 C 0.41873 0.67718 0.90827 0.0
C1747 C 0.42859 0.69667 0.89993 0.0
C1748 C 0.44554 0.70628 0.91299 0.0
C1749 C 0.45234 0.69677 0.93359 0.0
C1750 C 0.4286 0.72873 0.8436 0.0
C1751 C 0.40682 0.72594 0.83609 0.0
C1752 C 0.43572 0.71917 0.8641 0.0
C1753 C 0.42109 0.70698 0.87792 0.0
C1754 C 0.39911 0.70476 0.87048 0.0
C1755 C 0.39218 0.71387 0.84977 0.0
H1756 H 0.58141 0.17089 0.07389 0.0
H1757 H 0.51462 0.17174 0.09935 0.0
H1758 H 0.59498 0.18048 0.11164 0.0
H1759 H 0.52822 0.18163 0.13686 0.0
H1760 H 0.55855 0.22446 0.19262 0.0
H1761 H 0.5458 0.21351 0.15517 0.0
H1762 H 0.59811 0.16535 0.15109 0.0
H1763 H 0.61118 0.17654 0.1888 0.0
C1764 C 0.56959 0.17296 0.08747 0.0
C1765 C 0.54685 0.17059 0.08336 0.0
C1766 C 0.57741 0.17845 0.10916 0.0
C1767 C 0.5627 0.18186 0.12726 0.0
C1768 C 0.53999 0.17943 0.12321 0.0
C1769 C 0.53218 0.17383 0.10159 0.0
C1770 C 0.56743 0.21153 0.18383 0.0
C1771 C 0.58594 0.20139 0.1938 0.0
C1772 C 0.55998 0.20515 0.16236 0.0
C1773 C 0.57085 0.18848 0.15016 0.0
C1774 C 0.58945 0.17836 0.16 0.0
C1775 C 0.59687 0.18468 0.18165 0.0
H1776 H 0.0564 0.62068 0.08297 0.0
H1777 H 0.02016 0.68148 0.07438 0.0
H1778 H 0.0698 0.63362 0.11981 0.0
H1779 H 0.03419 0.69478 0.11044 0.0
H1780 H 0.04571 0.70606 0.18512 0.0
H1781 H 0.03134 0.69081 0.14979 0.0
H1782 H 0.0939 0.65874 0.13762 0.0
H1783 H 0.10783 0.67344 0.17344 0.0
C1784 C 0.05142 0.63685 0.08886 0.0
C1785 C 0.03715 0.64998 0.07575 0.0
C1786 C 0.05919 0.64436 0.10995 0.0
C1787 C 0.05306 0.66528 0.11829 0.0
C1788 C 0.03892 0.67841 0.10496 0.0
C1789 C 0.03097 0.67081 0.0841 0.0
C1790 C 0.05634 0.69574 0.17487 0.0
C1791 C 0.07789 0.69098 0.18204 0.0
C1792 C 0.04817 0.68704 0.15452 0.0
C1793 C 0.06147 0.6736 0.1406 0.0
C1794 C 0.083 0.66869 0.14797 0.0
C1795 C 0.09106 0.67717 0.16849 0.0
H1796 H 0.5824 0.81726 0.32594 0.0
H1797 H 0.54747 0.7553 0.32997 0.0
H1798 H 0.56611 0.82857 0.36212 0.0
H1799 H 0.53117 0.76669 0.36605 0.0
H1800 H 0.48929 0.80505 0.41861 0.0
H1801 H 0.50443 0.79507 0.38141 0.0
H1802 H 0.56873 0.81702 0.40308 0.0
H1803 H 0.55361 0.82715 0.44005 0.0
C1804 C 0.57125 0.80606 0.3345 0.0
C1805 C 0.56633 0.78534 0.32504 0.0
C1806 C 0.56197 0.81252 0.35528 0.0
C1807 C 0.54731 0.79854 0.36695 0.0
C1808 C 0.54222 0.77793 0.35738 0.0
C1809 C 0.55171 0.77135 0.33677 0.0
C1810 C 0.5066 0.80789 0.41536 0.0
C1811 C 0.52026 0.81677 0.43239 0.0
C1812 C 0.51532 0.80201 0.39412 0.0
C1813 C 0.53781 0.8052 0.3893 0.0
C1814 C 0.55132 0.81447 0.40618 0.0
C1815 C 0.54269 0.82007 0.42746 0.0
H1816 H 0.43956 0.27581 0.68667 0.0
H1817 H 0.37332 0.30162 0.68332 0.0
H1818 H 0.4475 0.29186 0.64959 0.0
H1819 H 0.38123 0.31763 0.64605 0.0
H1820 H 0.41169 0.35755 0.5856 0.0
H1821 H 0.40319 0.34526 0.62445 0.0
H1822 H 0.43592 0.28331 0.61117 0.0
H1823 H 0.44444 0.29541 0.57299 0.0
C1824 C 0.42668 0.28489 0.67801 0.0
C1825 C 0.40574 0.28718 0.68788 0.0
C1826 C 0.43121 0.29411 0.65674 0.0
C1827 C 0.41489 0.30578 0.64469 0.0
C1828 C 0.3942 0.30887 0.65493 0.0
C1829 C 0.38967 0.29967 0.6763 0.0
C1830 C 0.4169 0.34127 0.591 0.0
C1831 C 0.42893 0.32759 0.57622 0.0
C1832 C 0.41205 0.33424 0.61323 0.0
C1833 C 0.41921 0.31344 0.62104 0.0
C1834 C 0.43066 0.29964 0.60597 0.0
C1835 C 0.43544 0.30659 0.58394 0.0
H1836 H 0.96391 0.14932 0.92205 0.0
H1837 H 0.89847 0.14389 0.95011 0.0
H1838 H 0.94839 0.15558 0.88445 0.0
H1839 H 0.88272 0.15059 0.91226 0.0
H1840 H 0.86453 0.14997 0.83472 0.0
H1841 H 0.87863 0.13733 0.87176 0.0
H1842 H 0.92928 0.18728 0.869 0.0
H1843 H 0.91589 0.19934 0.83249 0.0
C1844 C 0.94617 0.14952 0.92015 0.0
C1845 C 0.93239 0.14658 0.93905 0.0
C1846 C 0.93725 0.15306 0.89861 0.0
C1847 C 0.91431 0.15398 0.89545 0.0
C1848 C 0.90045 0.14989 0.91415 0.0
C1849 C 0.90944 0.14616 0.93579 0.0
C1850 C 0.87872 0.15812 0.84207 0.0
C1851 C 0.88905 0.17566 0.83058 0.0
C1852 C 0.88672 0.15096 0.86327 0.0
C1853 C 0.90524 0.16114 0.87316 0.0
C1854 C 0.9153 0.17874 0.86168 0.0
C1855 C 0.9074 0.18583 0.84073 0.0
H1856 H 0.9187 0.74725 0.6666 0.0
H1857 H 0.92183 0.68275 0.69793 0.0
H1858 H 0.92422 0.73037 0.62934 0.0
H1859 H 0.92681 0.666 0.66074 0.0
H1860 H 0.90865 0.64268 0.58865 0.0
H1861 H 0.9038 0.66071 0.62552 0.0
H1862 H 0.9529 0.7091 0.60736 0.0
H1863 H 0.95778 0.69119 0.5706 0.0
C1864 C 0.92081 0.72955 0.66567 0.0
C1865 C 0.91958 0.7164 0.6854 0.0
C1866 C 0.92387 0.71986 0.64426 0.0
C1867 C 0.92562 0.69681 0.64208 0.0
C1868 C 0.92502 0.68376 0.66181 0.0
C1869 C 0.92216 0.69342 0.68317 0.0
C1870 C 0.91831 0.65722 0.59247 0.0
C1871 C 0.93361 0.66543 0.57667 0.0
C1872 C 0.91564 0.66747 0.61363 0.0
C1873 C 0.92803 0.68629 0.61936 0.0
C1874 C 0.94301 0.69474 0.60339 0.0
C1875 C 0.94586 0.68437 0.58237 0.0
H1876 H 0.05836 0.14129 0.43975 0.0
H1877 H -0.00615 0.16482 0.42004 0.0
H1878 H 0.07372 0.15629 0.40478 0.0
H1879 H 0.00937 0.18008 0.38527 0.0
H1880 H 0.04942 0.22416 0.33689 0.0
H1881 H 0.03455 0.20955 0.37239 0.0
H1882 H 0.07239 0.14985 0.36334 0.0
H1883 H 0.08741 0.16449 0.3279 0.0
C1884 C 0.04737 0.14951 0.42799 0.0
C1885 C 0.02477 0.15175 0.43292 0.0
C1886 C 0.05623 0.15816 0.40789 0.0
C1887 C 0.0428 0.16941 0.3922 0.0
C1888 C 0.02026 0.17179 0.39713 0.0
C1889 C 0.01135 0.16303 0.41717 0.0
C1890 C 0.05464 0.20794 0.34248 0.0
C1891 C 0.06962 0.1955 0.32948 0.0
C1892 C 0.046 0.19951 0.36278 0.0
C1893 C 0.05222 0.1785 0.37071 0.0
C1894 C 0.0674 0.16618 0.35785 0.0
C1895 C 0.07593 0.17454 0.33746 0.0
H1896 H 0.56725 0.36729 0.08407 0.0
H1897 H 0.51244 0.32188 0.08658 0.0
H1898 H 0.58023 0.35317 0.12079 0.0
H1899 H 0.52521 0.30812 0.12305 0.0
H1900 H 0.5679 0.27068 0.17361 0.0
H1901 H 0.5558 0.28606 0.13756 0.0
H1902 H 0.57019 0.35168 0.16182 0.0
H1903 H 0.58216 0.3363 0.19821 0.0
C1904 C 0.55792 0.35441 0.09245 0.0
C1905 C 0.53886 0.34568 0.08225 0.0
C1906 C 0.5653 0.34639 0.11353 0.0
C1907 C 0.55385 0.32938 0.12479 0.0
C1908 C 0.53465 0.32094 0.1147 0.0
C1909 C 0.52725 0.32897 0.09377 0.0
C1910 C 0.56827 0.28841 0.17151 0.0
C1911 C 0.57586 0.30221 0.18908 0.0
C1912 C 0.56136 0.29724 0.15071 0.0
C1913 C 0.56189 0.32013 0.14681 0.0
C1914 C 0.56976 0.33396 0.16419 0.0
C1915 C 0.57661 0.32512 0.18508 0.0
H1916 H 0.4341 0.80826 0.93992 0.0
H1917 H 0.41546 0.87697 0.93627 0.0
H1918 H 0.41887 0.80229 0.90214 0.0
H1919 H 0.4 0.87089 0.89831 0.0
H1920 H 0.35967 0.84141 0.83595 0.0
H1921 H 0.37051 0.84948 0.87539 0.0
H1922 H 0.43231 0.81582 0.86453 0.0
H1923 H 0.42179 0.80786 0.82575 0.0
C1924 C 0.4267 0.82208 0.93108 0.0
C1925 C 0.42635 0.84316 0.94095 0.0
C1926 C 0.41792 0.81865 0.90947 0.0
C1927 C 0.40856 0.83621 0.89717 0.0
C1928 C 0.40707 0.85706 0.90745 0.0
C1929 C 0.41592 0.86051 0.92917 0.0
C1930 C 0.37563 0.83596 0.84199 0.0
C1931 C 0.38971 0.82376 0.82777 0.0
C1932 C 0.38181 0.84056 0.86452 0.0
C1933 C 0.40206 0.83287 0.87311 0.0
C1934 C 0.41637 0.82146 0.85857 0.0
C1935 C 0.41032 0.817 0.83625 0.0
H1936 H 0.907 0.32792 0.95212 0.0
H1937 H 0.97389 0.31282 0.93254 0.0
H1938 H 0.89379 0.31358 0.91589 0.0
H1939 H 0.96081 0.29914 0.89604 0.0
H1940 H 0.92876 0.25406 0.84379 0.0
H1941 H 0.94174 0.26901 0.87959 0.0
H1942 H 0.89209 0.32001 0.87613 0.0
H1943 H 0.87827 0.30436 0.84095 0.0
C1944 C 0.91893 0.32179 0.93998 0.0
C1945 C 0.9415 0.32147 0.94532 0.0
C1946 C 0.91136 0.31363 0.9191 0.0
C1947 C 0.92618 0.30507 0.90293 0.0
C1948 C 0.94882 0.30517 0.90816 0.0
C1949 C 0.95636 0.31318 0.92909 0.0
C1950 C 0.92038 0.26831 0.85065 0.0
C1951 C 0.90231 0.27784 0.83921 0.0
C1952 C 0.92807 0.27712 0.87117 0.0
C1953 C 0.91806 0.29582 0.88087 0.0
C1954 C 0.9001 0.30545 0.86941 0.0
C1955 C 0.89231 0.29657 0.84894 0.0
H1956 H 0.47836 0.18538 0.58238 0.0
H1957 H 0.45958 0.118 0.59575 0.0
H1958 H 0.45954 0.19713 0.61696 0.0
H1959 H 0.44144 0.12942 0.63071 0.0
H1960 H 0.3938 0.15834 0.68195 0.0
H1961 H 0.41096 0.14772 0.64613 0.0
H1962 H 0.46168 0.19671 0.65668 0.0
H1963 H 0.44393 0.20793 0.69186 0.0
C1964 C 0.47036 0.17306 0.59285 0.0
C1965 C 0.47039 0.15079 0.58629 0.0
C1966 C 0.45961 0.17975 0.61276 0.0
C1967 C 0.44888 0.16427 0.62681 0.0
C1968 C 0.44905 0.14194 0.6202 0.0
C1969 C 0.45954 0.13533 0.60015 0.0
C1970 C 0.40858 0.16687 0.67656 0.0
C1971 C 0.41748 0.18396 0.68979 0.0
C1972 C 0.41854 0.16069 0.65605 0.0
C1973 C 0.43784 0.17126 0.64838 0.0
C1974 C 0.44667 0.1884 0.66169 0.0
C1975 C 0.43655 0.19476 0.68203 0.0
H1976 H 0.55462 0.68769 0.33187 0.0
H1977 H 0.62363 0.67195 0.33955 0.0
H1978 H 0.54715 0.67189 0.36909 0.0
H1979 H 0.61606 0.65591 0.37702 0.0
H1980 H 0.58422 0.61268 0.4363 0.0
H1981 H 0.59479 0.6251 0.39799 0.0
H1982 H 0.55744 0.685 0.40773 0.0
H1983 H 0.54694 0.67285 0.44539 0.0
C1984 C 0.56821 0.68085 0.3415 0.0
C1985 C 0.58977 0.68144 0.3329 0.0
C1986 C 0.56393 0.67175 0.36281 0.0
C1987 C 0.58109 0.66299 0.3761 0.0
C1988 C 0.60252 0.66251 0.36711 0.0
C1989 C 0.60683 0.67169 0.34567 0.0
C1990 C 0.57852 0.62859 0.43029 0.0
C1991 C 0.56451 0.64162 0.44379 0.0
C1992 C 0.58455 0.63567 0.40841 0.0
C1993 C 0.57654 0.6558 0.39975 0.0
C1994 C 0.5634 0.66916 0.41371 0.0
C1995 C 0.55747 0.66219 0.43539 0.0
H1996 H 0.08599 0.76007 0.1749 0.0
H1997 H 0.10184 0.82798 0.1898 0.0
H1998 H 0.07297 0.77071 0.13743 0.0
H1999 H 0.08813 0.83885 0.15224 0.0
H2000 H 0.07751 0.84813 0.07553 0.0
H2001 H 0.09375 0.8374 0.11177 0.0
H2002 H 0.04239 0.78891 0.12094 0.0
H2003 H 0.02687 0.79876 0.08431 0.0
C2004 C 0.08665 0.77734 0.17019 0.0
C2005 C 0.09478 0.79321 0.18547 0.0
C2006 C 0.07904 0.78348 0.14867 0.0
C2007 C 0.07912 0.80571 0.14182 0.0
C2008 C 0.08792 0.82155 0.15683 0.0
C2009 C 0.09574 0.81535 0.1784 0.0
C2010 C 0.06981 0.83496 0.08506 0.0
C2011 C 0.05081 0.82432 0.07674 0.0
C2012 C 0.07901 0.82899 0.10607 0.0
C2013 C 0.06947 0.81223 0.11938 0.0
C2014 C 0.05046 0.80165 0.11107 0.0
C2015 C 0.04134 0.80754 0.09007 0.0
H2016 H 0.58851 0.80736 0.83946 0.0
H2017 H 0.54532 0.75115 0.8469 0.0
H2018 H 0.57541 0.82198 0.87532 0.0
H2019 H 0.53294 0.76539 0.88349 0.0
H2020 H 0.49893 0.80955 0.93673 0.0
H2021 H 0.51127 0.79454 0.9004 0.0
H2022 H 0.57769 0.81564 0.91528 0.0
H2023 H 0.56528 0.83108 0.95126 0.0
C2024 C 0.57618 0.79806 0.84863 0.0
C2025 C 0.56795 0.77804 0.83997 0.0
C2026 C 0.56885 0.80636 0.86948 0.0
C2027 C 0.55313 0.79488 0.88246 0.0
C2028 C 0.54488 0.77484 0.87389 0.0
C2029 C 0.5522 0.76652 0.85295 0.0
C2030 C 0.51617 0.81103 0.93223 0.0
C2031 C 0.53109 0.82164 0.94693 0.0
C2032 C 0.52328 0.80227 0.91144 0.0
C2033 C 0.5455 0.80386 0.90479 0.0
C2034 C 0.5604 0.81439 0.91959 0.0
C2035 C 0.55329 0.82319 0.94033 0.0
H2036 H 0.42507 0.26862 0.18761 0.0
H2037 H 0.36903 0.31258 0.18712 0.0
H2038 H 0.43724 0.28359 0.15159 0.0
H2039 H 0.38067 0.327 0.15017 0.0
H2040 H 0.42196 0.36437 0.09663 0.0
H2041 H 0.40709 0.34927 0.13195 0.0
H2042 H 0.43062 0.28452 0.11279 0.0
H2043 H 0.44625 0.30001 0.07814 0.0
C2044 C 0.41512 0.2813 0.17962 0.0
C2045 C 0.39603 0.28938 0.19028 0.0
C2046 C 0.42204 0.28982 0.15876 0.0
C2047 C 0.40991 0.30646 0.14768 0.0
C2048 C 0.39064 0.31442 0.15826 0.0
C2049 C 0.38385 0.30606 0.17939 0.0
C2050 C 0.42374 0.34689 0.09998 0.0
C2051 C 0.4354 0.33338 0.08476 0.0
C2052 C 0.41515 0.33817 0.12019 0.0
C2053 C 0.41776 0.31564 0.12549 0.0
C2054 C 0.42876 0.30204 0.10972 0.0
C2055 C 0.43765 0.31085 0.08976 0.0
H2056 H 0.89988 0.116 0.43628 0.0
H2057 H 0.94621 0.16968 0.44364 0.0
H2058 H 0.88943 0.13035 0.39863 0.0
H2059 H 0.93626 0.18342 0.40651 0.0
H2060 H 0.90103 0.21647 0.34995 0.0
H2061 H 0.90524 0.20109 0.38791 0.0
H2062 H 0.90625 0.13532 0.35973 0.0
H2063 H 0.90178 0.15087 0.32147 0.0
C2064 C 0.90773 0.13084 0.42998 0.0
C2065 C 0.92386 0.14166 0.44301 0.0
C2066 C 0.90187 0.13896 0.4084 0.0
C2067 C 0.91191 0.15812 0.39968 0.0
C2068 C 0.92789 0.16889 0.41286 0.0
C2069 C 0.93374 0.16083 0.43417 0.0
C2070 C 0.9022 0.19874 0.35181 0.0
C2071 C 0.90153 0.1849 0.33268 0.0
C2072 C 0.90452 0.18991 0.37358 0.0
C2073 C 0.90639 0.167 0.3768 0.0
C2074 C 0.90473 0.15303 0.3578 0.0
C2075 C 0.90227 0.16192 0.33592 0.0
H2076 H -0.00033 0.65457 0.59605 0.0
H2077 H 0.06357 0.63937 0.56794 0.0
H2078 H 0.01629 0.66056 0.63311 0.0
H2079 H 0.08044 0.64573 0.60519 0.0
H2080 H 0.10012 0.64115 0.68109 0.0
H2081 H 0.08369 0.63212 0.64415 0.0
H2082 H 0.03897 0.68719 0.65114 0.0
H2083 H 0.05458 0.69559 0.68792 0.0
C2084 C 0.01734 0.65279 0.59771 0.0
C2085 C 0.03034 0.64678 0.57894 0.0
C2086 C 0.0269 0.65618 0.61902 0.0
C2087 C 0.04977 0.65384 0.62216 0.0
C2088 C 0.06276 0.64746 0.60346 0.0
C2089 C 0.05313 0.64391 0.5821 0.0
C2090 C 0.08667 0.65118 0.67476 0.0
C2091 C 0.0787 0.66908 0.68755 0.0
C2092 C 0.07736 0.64612 0.65352 0.0
C2093 C 0.05991 0.65886 0.64467 0.0
C2094 C 0.05206 0.67673 0.65753 0.0
C2095 C 0.06122 0.68168 0.67865 0.0
H2096 H 0.54483 0.20482 0.69301 0.0
H2097 H 0.6133 0.18586 0.69556 0.0
H2098 H 0.54213 0.19046 0.65442 0.0
H2099 H 0.61093 0.17205 0.6567 0.0
H2100 H 0.59287 0.13161 0.59296 0.0
H2101 H 0.59652 0.14436 0.63222 0.0
H2102 H 0.55338 0.1993 0.61725 0.0
H2103 H 0.54914 0.18612 0.57855 0.0
C2104 C 0.55932 0.19763 0.68525 0.0
C2105 C 0.57924 0.19648 0.69732 0.0
C2106 C 0.55786 0.1895 0.66306 0.0
C2107 C 0.57639 0.18028 0.65222 0.0
C2108 C 0.59624 0.17877 0.66451 0.0
C2109 C 0.59762 0.18669 0.68682 0.0
C2110 C 0.58436 0.14652 0.59806 0.0
C2111 C 0.57064 0.15778 0.58268 0.0
C2112 C 0.58645 0.15386 0.62057 0.0
C2113 C 0.57501 0.17274 0.62809 0.0
C2114 C 0.56196 0.18438 0.61235 0.0
C2115 C 0.55969 0.17692 0.59003 0.0
H2116 H 0.12129 0.27001 0.86112 0.0
H2117 H 0.08129 0.31562 0.82235 0.0
H2118 H 0.10551 0.28439 0.8963 0.0
H2119 H 0.06561 0.32989 0.85752 0.0
H2120 H 0.02044 0.32284 0.92059 0.0
H2121 H 0.03988 0.31257 0.88587 0.0
H2122 H 0.10208 0.31845 0.92102 0.0
H2123 H 0.08254 0.3285 0.95593 0.0
C2124 C 0.10952 0.28342 0.86009 0.0
C2125 C 0.10247 0.29155 0.83887 0.0
C2126 C 0.10048 0.29164 0.88027 0.0
C2127 C 0.08412 0.30806 0.87962 0.0
C2128 C 0.07794 0.31699 0.8585 0.0
C2129 C 0.08707 0.30891 0.83836 0.0
C2130 C 0.03825 0.32185 0.92094 0.0
C2131 C 0.04996 0.32643 0.94101 0.0
C2132 C 0.0494 0.31622 0.901 0.0
C2133 C 0.07252 0.31484 0.90071 0.0
C2134 C 0.08426 0.31935 0.92077 0.0
C2135 C 0.0731 0.32524 0.94069 0.0
H2136 H 0.91483 0.83063 0.19403 0.0
H2137 H 0.91589 0.76459 0.16645 0.0
H2138 H 0.92609 0.84529 0.15717 0.0
H2139 H 0.92725 0.77924 0.12977 0.0
H2140 H 0.97154 0.80992 0.07609 0.0
H2141 H 0.95945 0.79648 0.11286 0.0
H2142 H 0.91311 0.85038 0.11762 0.0
H2143 H 0.92558 0.86424 0.08065 0.0
C2144 C 0.9173 0.81923 0.18012 0.0
C2145 C 0.91454 0.79637 0.18336 0.0
C2146 C 0.92374 0.82766 0.15896 0.0
C2147 C 0.92765 0.81346 0.14052 0.0
C2148 C 0.92474 0.79063 0.14371 0.0
C2149 C 0.91827 0.78221 0.16482 0.0
C2150 C 0.95883 0.81905 0.08491 0.0
C2151 C 0.94956 0.83823 0.07533 0.0
C2152 C 0.95176 0.81119 0.10599 0.0
C2153 C 0.9352 0.82224 0.11816 0.0
C2154 C 0.92602 0.84156 0.10875 0.0
C2155 C 0.93308 0.84944 0.08752 0.0
H2156 H 0.3972 0.67683 0.32705 0.0
H2157 H 0.44919 0.72533 0.32637 0.0
H2158 H 0.41117 0.66212 0.36277 0.0
H2159 H 0.46406 0.7099 0.36145 0.0
H2160 H 0.47618 0.68896 0.43498 0.0
H2161 H 0.46104 0.70539 0.40038 0.0
H2162 H 0.43852 0.641 0.37887 0.0
H2163 H 0.45272 0.62508 0.41397 0.0
C2164 C 0.41173 0.68428 0.33448 0.0
C2165 C 0.42205 0.70225 0.32381 0.0
C2166 C 0.41994 0.6757 0.35495 0.0
C2167 C 0.43901 0.68455 0.36517 0.0
C2168 C 0.44919 0.70273 0.3545 0.0
C2169 C 0.44072 0.71156 0.33422 0.0
C2170 C 0.46802 0.67839 0.42277 0.0
C2171 C 0.46553 0.65576 0.42725 0.0
C2172 C 0.45937 0.68777 0.40281 0.0
C2173 C 0.44833 0.67466 0.38659 0.0
C2174 C 0.4463 0.65188 0.39104 0.0
C2175 C 0.45458 0.64264 0.41115 0.0
H2176 H 0.46427 0.18159 0.07495 0.0
H2177 H 0.42784 0.12067 0.08082 0.0
H2178 H 0.45194 0.19263 0.11232 0.0
H2179 H 0.41603 0.13139 0.11909 0.0
H2180 H 0.38151 0.16928 0.17754 0.0
H2181 H 0.39337 0.15574 0.14039 0.0
H2182 H 0.45719 0.18572 0.15086 0.0
H2183 H 0.44488 0.1999 0.18743 0.0
C2184 C 0.45379 0.17037 0.08437 0.0
C2185 C 0.44717 0.15014 0.07491 0.0
C2186 C 0.44681 0.17667 0.10599 0.0
C2187 C 0.4332 0.16282 0.11906 0.0
C2188 C 0.42636 0.1426 0.10952 0.0
C2189 C 0.43318 0.13638 0.08761 0.0
C2190 C 0.39812 0.17278 0.1719 0.0
C2191 C 0.41222 0.18581 0.18528 0.0
C2192 C 0.40497 0.16496 0.15062 0.0
C2193 C 0.4262 0.16979 0.14235 0.0
C2194 C 0.44052 0.18215 0.15625 0.0
C2195 C 0.43354 0.19022 0.17731 0.0
H2196 H 0.59842 0.71611 0.84466 0.0
H2197 H 0.59543 0.64663 0.82923 0.0
H2198 H 0.58571 0.70888 0.88311 0.0
H2199 H 0.58168 0.63924 0.86778 0.0
H2200 H 0.56749 0.63327 0.94428 0.0
H2201 H 0.58731 0.63924 0.90871 0.0
H2202 H 0.55074 0.69958 0.89798 0.0
H2203 H 0.53197 0.69429 0.93385 0.0
C2204 C 0.59526 0.6992 0.84969 0.0
C2205 C 0.59773 0.68191 0.83407 0.0
C2206 C 0.58777 0.69506 0.87165 0.0
C2207 C 0.58212 0.67355 0.8784 0.0
C2208 C 0.58592 0.656 0.86316 0.0
C2209 C 0.59379 0.66016 0.84113 0.0
C2210 C 0.56394 0.64799 0.93452 0.0
C2211 C 0.54808 0.6633 0.94204 0.0
C2212 C 0.57514 0.65127 0.91397 0.0
C2213 C 0.57075 0.66994 0.90051 0.0
C2214 C 0.55491 0.68521 0.90808 0.0
C2215 C 0.54383 0.682 0.92858 0.0
H2216 H 0.07777 0.83899 0.57638 0.0
H2217 H 0.02374 0.79272 0.57349 0.0
H2218 H 0.08922 0.82317 0.61281 0.0
H2219 H 0.03465 0.77754 0.60995 0.0
H2220 H 0.07364 0.73875 0.66254 0.0
H2221 H 0.06269 0.75519 0.62648 0.0
H2222 H 0.07914 0.81982 0.65234 0.0
H2223 H 0.09033 0.80326 0.68838 0.0
C2224 C 0.06822 0.8256 0.58356 0.0
C2225 C 0.04984 0.81716 0.57191 0.0
C2226 C 0.07472 0.81658 0.60452 0.0
C2227 C 0.06294 0.79895 0.61435 0.0
C2228 C 0.04439 0.79079 0.60278 0.0
C2229 C 0.038 0.79969 0.58187 0.0
C2230 C 0.07472 0.75648 0.66065 0.0
C2231 C 0.08283 0.76966 0.67845 0.0
C2232 C 0.06844 0.76596 0.63992 0.0
C2233 C 0.06996 0.7889 0.63642 0.0
C2234 C 0.07805 0.80208 0.65424 0.0
C2235 C 0.08442 0.79258 0.67497 0.0
H2236 H 0.89119 0.31018 0.33367 0.0
H2237 H 0.94669 0.26664 0.32454 0.0
H2238 H 0.9052 0.32074 0.37093 0.0
H2239 H 0.96175 0.2783 0.36085 0.0
H2240 H 0.97563 0.28808 0.43591 0.0
H2241 H 0.9607 0.27645 0.3993 0.0
H2242 H 0.92992 0.34049 0.39138 0.0
H2243 H 0.9436 0.35109 0.42871 0.0
C2244 C 0.90657 0.3031 0.33955 0.0
C2245 C 0.91778 0.28754 0.32621 0.0
C2246 C 0.9148 0.30928 0.36091 0.0
C2247 C 0.93482 0.30053 0.36926 0.0
C2248 C 0.94609 0.28513 0.35558 0.0
C2249 C 0.93754 0.27853 0.33454 0.0
C2250 C 0.96565 0.29954 0.42621 0.0
C2251 C 0.96064 0.32039 0.43514 0.0
C2252 C 0.95715 0.29301 0.40508 0.0
C2253 C 0.9439 0.30742 0.392 0.0
C2254 C 0.93943 0.32855 0.40093 0.0
C2255 C 0.94744 0.3348 0.42231 0.0
H2256 H 0.44529 0.79452 0.33449 0.0
H2257 H 0.38537 0.83126 0.32255 0.0
H2258 H 0.44986 0.81313 0.37087 0.0
H2259 H 0.39034 0.85044 0.3586 0.0
H2260 H 0.39311 0.85355 0.43842 0.0
H2261 H 0.38824 0.84151 0.39911 0.0
H2262 H 0.45811 0.84904 0.38746 0.0
H2263 H 0.46292 0.86104 0.4267 0.0
C2264 C 0.43314 0.80662 0.33957 0.0
C2265 C 0.41494 0.81132 0.3256 0.0
C2266 C 0.4359 0.81752 0.3603 0.0
C2267 C 0.4205 0.83337 0.3676 0.0
C2268 C 0.40243 0.83825 0.35353 0.0
C2269 C 0.3997 0.82739 0.33275 0.0
C2270 C 0.40731 0.85321 0.42727 0.0
C2271 C 0.42845 0.85781 0.43572 0.0
C2272 C 0.40455 0.84626 0.40475 0.0
C2273 C 0.42287 0.84388 0.39029 0.0
C2274 C 0.44375 0.85014 0.39833 0.0
C2275 C 0.44649 0.85708 0.42078 0.0
H2276 H 0.92775 0.71173 0.19185 0.0
H2277 H 0.86483 0.68059 0.17989 0.0
H2278 H 0.94045 0.69991 0.15484 0.0
H2279 H 0.87735 0.66929 0.14205 0.0
H2280 H 0.91608 0.63412 0.08487 0.0
H2281 H 0.90147 0.64542 0.12172 0.0
H2282 H 0.9365 0.70726 0.116 0.0
H2283 H 0.95155 0.69554 0.07958 0.0
C2284 C 0.9165 0.70247 0.18121 0.0
C2285 C 0.89519 0.69719 0.18887 0.0
C2286 C 0.92377 0.69581 0.15979 0.0
C2287 C 0.9099 0.68385 0.14515 0.0
C2288 C 0.8886 0.67832 0.15288 0.0
C2289 C 0.88136 0.68485 0.17455 0.0
C2290 C 0.92049 0.65019 0.09143 0.0
C2291 C 0.93509 0.66388 0.07936 0.0
C2292 C 0.91206 0.65672 0.11257 0.0
C2293 C 0.91788 0.67721 0.12207 0.0
C2294 C 0.93203 0.69112 0.1096 0.0
C2295 C 0.94064 0.68447 0.08863 0.0
H2296 H 0.06359 0.15176 0.94703 0.0
H2297 H 0.00619 0.19392 0.94579 0.0
H2298 H 0.07501 0.16658 0.91015 0.0
H2299 H 0.01789 0.20897 0.90906 0.0
H2300 H 0.06412 0.24524 0.85533 0.0
H2301 H 0.0513 0.23197 0.89238 0.0
H2302 H 0.05817 0.16475 0.86953 0.0
H2303 H 0.06997 0.17768 0.83246 0.0
C2304 C 0.05347 0.16424 0.93896 0.0
C2305 C 0.03394 0.17156 0.94933 0.0
C2306 C 0.05998 0.17269 0.91782 0.0
C2307 C 0.04734 0.18894 0.90673 0.0
C2308 C 0.02802 0.19658 0.91727 0.0
C2309 C 0.02128 0.18783 0.93823 0.0
C2310 C 0.06257 0.22764 0.85799 0.0
C2311 C 0.06839 0.21262 0.84071 0.0
C2312 C 0.05531 0.22006 0.8793 0.0
C2313 C 0.05402 0.19731 0.88393 0.0
C2314 C 0.05939 0.18236 0.86661 0.0
C2315 C 0.06627 0.18988 0.8453 0.0
H2316 H 0.53978 0.2691 0.69849 0.0
H2317 H 0.58734 0.32152 0.6903 0.0
H2318 H 0.52633 0.27563 0.66004 0.0
H2319 H 0.57367 0.32815 0.65174 0.0
H2320 H 0.55993 0.31535 0.57563 0.0
H2321 H 0.5732 0.3092 0.61421 0.0
H2322 H 0.50614 0.30392 0.63795 0.0
H2323 H 0.49275 0.31046 0.59952 0.0
C2324 C 0.54735 0.28208 0.68853 0.0
C2325 C 0.56469 0.29478 0.69753 0.0
C2326 C 0.53952 0.28589 0.6665 0.0
C2327 C 0.54892 0.3024 0.6528 0.0
C2328 C 0.56623 0.31515 0.66178 0.0
C2329 C 0.57396 0.31145 0.68393 0.0
C2330 C 0.54794 0.31307 0.58903 0.0
C2331 C 0.5252 0.31349 0.58424 0.0
C2332 C 0.55559 0.30955 0.6112 0.0
C2333 C 0.54074 0.30616 0.62919 0.0
C2334 C 0.51804 0.30626 0.62444 0.0
C2335 C 0.51036 0.30994 0.60229 0.0
H2336 H 0.18494 0.19619 0.25663 0.0
H2337 H 0.18315 0.25741 0.29383 0.0
H2338 H 0.22489 0.19937 0.25283 0.0
H2339 H 0.22272 0.26157 0.28892 0.0
H2340 H 0.29618 0.25565 0.29215 0.0
H2341 H 0.2574 0.24959 0.29894 0.0
H2342 H 0.25123 0.21938 0.2326 0.0
H2343 H 0.29064 0.22345 0.22678 0.0
C2344 C 0.19326 0.2102 0.26415 0.0
C2345 C 0.18126 0.22642 0.27574 0.0
C2346 C 0.21604 0.21225 0.26172 0.0
C2347 C 0.22709 0.23085 0.27035 0.0
C2348 C 0.21494 0.24682 0.28239 0.0
C2349 C 0.19227 0.2445 0.28523 0.0
C2350 C 0.28668 0.24735 0.27913 0.0
C2351 C 0.29668 0.23979 0.25902 0.0
C2352 C 0.26426 0.24419 0.28289 0.0
C2353 C 0.25107 0.23392 0.26638 0.0
C2354 C 0.26093 0.22693 0.24594 0.0
C2355 C 0.28351 0.22967 0.24238 0.0
H2356 H 0.96863 0.91742 0.5291 0.0
H2357 H 0.03222 0.9337 0.50108 0.0
H2358 H 0.9569 0.95569 0.52471 0.0
H2359 H 0.02114 0.97226 0.49776 0.0
H2360 H 0.98979 0.03396 0.47202 0.0
H2361 H -0.00149 -0.00497 0.47555 0.0
H2362 H 0.96082 0.9918 0.53786 0.0
H2363 H 0.95054 0.03023 0.53325 0.0
C2364 C 0.98026 0.92941 0.52256 0.0
C2365 C 0.0013 0.92281 0.5155 0.0
C2366 C 0.97358 0.95132 0.52001 0.0
C2367 C 0.98798 0.9671 0.51065 0.0
C2368 C 0.00939 0.96049 0.50444 0.0
C2369 C 0.01589 0.93852 0.50662 0.0
C2370 C 0.98283 0.02483 0.48612 0.0
C2371 C 0.9696 0.03534 0.50245 0.0
C2372 C 0.98821 0.00255 0.48842 0.0
C2373 C 0.98078 0.99031 0.50727 0.0
C2374 C 0.96682 0.00061 0.52309 0.0
C2375 C 0.96114 0.02278 0.52059 0.0
H2376 H 0.17994 0.74761 0.72558 0.0
H2377 H 0.20447 0.68605 0.75238 0.0
H2378 H 0.21558 0.76468 0.73189 0.0
H2379 H 0.24088 0.70254 0.75735 0.0
H2380 H 0.29522 0.74286 0.78801 0.0
H2381 H 0.25917 0.72697 0.78116 0.0
H2382 H 0.25177 0.76812 0.72143 0.0
H2383 H 0.28667 0.78559 0.72968 0.0
C2384 C 0.19333 0.73755 0.73205 0.0
C2385 C 0.18969 0.71553 0.7383 0.0
C2386 C 0.21379 0.7473 0.73572 0.0
C2387 C 0.2312 0.73509 0.74533 0.0
C2388 C 0.22775 0.71264 0.75049 0.0
C2389 C 0.20707 0.70304 0.7473 0.0
C2390 C 0.28563 0.74901 0.77381 0.0
C2391 C 0.29399 0.76547 0.75933 0.0
C2392 C 0.26511 0.73949 0.76954 0.0
C2393 C 0.25263 0.74589 0.75045 0.0
C2394 C 0.26074 0.76279 0.73638 0.0
C2395 C 0.28099 0.77265 0.74095 0.0
H2396 H 0.48125 0.93986 0.97809 0.0
H2397 H 0.53822 0.93807 0.02193 0.0
H2398 H 0.48065 0.97989 0.98025 0.0
H2399 H 0.53862 0.97837 0.02318 0.0
H2400 H 0.51683 0.04764 0.04308 0.0
H2401 H 0.5194 0.00783 0.03936 0.0
H2402 H 0.49707 0.01267 0.96965 0.0
H2403 H 0.49237 0.05201 0.97407 0.0
C2404 C 0.49403 0.94818 0.98767 0.0
C2405 C 0.50983 0.93604 0.99976 0.0
C2406 C 0.49377 0.97114 0.9889 0.0
C2407 C 0.50958 0.98249 1.00194 0.0
C2408 C 0.52591 0.97023 0.01337 0.0
C2409 C 0.52588 0.9472 0.01248 0.0
C2410 C 0.51211 0.0402 0.02708 0.0
C2411 C 0.50432 0.05318 1.00893 0.0
C2412 C 0.51399 0.01733 0.02479 0.0
C2413 C 0.50848 0.00691 1.00417 0.0
C2414 C 0.50113 0.01997 0.98591 0.0
C2415 C 0.49881 0.04272 0.98835 0.0
H2416 H 0.31231 0.72247 0.2279 0.0
H2417 H 0.30672 0.75118 0.29505 0.0
H2418 H 0.27235 0.72375 0.22386 0.0
H2419 H 0.26661 0.75101 0.29127 0.0
H2420 H 0.19577 0.71765 0.27642 0.0
H2421 H 0.23562 0.71521 0.28076 0.0
H2422 H 0.24416 0.76296 0.22709 0.0
H2423 H 0.2042 0.76673 0.22354 0.0
C2424 C 0.30265 0.72901 0.24183 0.0
C2425 C 0.31285 0.73703 0.2617 0.0
C2426 C 0.2798 0.72957 0.23949 0.0
C2427 C 0.26669 0.7376 0.2572 0.0
C2428 C 0.27659 0.74473 0.27745 0.0
C2429 C 0.29951 0.74463 0.27963 0.0
C2430 C 0.20601 0.72798 0.26576 0.0
C2431 C 0.19665 0.74268 0.24984 0.0
C2432 C 0.2288 0.72638 0.26818 0.0
C2433 C 0.24268 0.73898 0.25433 0.0
C2434 C 0.23359 0.75308 0.23789 0.0
C2435 C 0.21075 0.75507 0.23578 0.0
H2436 H 0.51525 0.04698 0.56033 0.0
H2437 H 0.5651 0.03583 0.50911 0.0
H2438 H 0.50611 0.00799 0.55993 0.0
H2439 H 0.55508 -0.0031 0.50788 0.0
H2440 H 0.53816 0.92457 0.5185 0.0
H2441 H 0.55293 0.96112 0.52735 0.0
H2442 H 0.48662 0.98685 0.53141 0.0
H2443 H 0.47198 0.9504 0.52343 0.0
C2444 C 0.52464 0.03616 0.54935 0.0
C2445 C 0.54078 0.0446 0.53457 0.0
C2446 C 0.51916 0.01384 0.5489 0.0
C2447 C 0.52957 -0.00053 0.53356 0.0
C2448 C 0.54677 0.00755 0.51991 0.0
C2449 C 0.55235 0.0299 0.52045 0.0
C2450 C 0.52679 0.93802 0.52162 0.0
C2451 C 0.50392 0.9347 0.52009 0.0
C2452 C 0.53524 0.95893 0.52653 0.0
C2453 C 0.52095 0.97685 0.53013 0.0
C2454 C 0.49809 0.97334 0.52907 0.0
C2455 C 0.48968 0.95252 0.52414 0.0
H2456 H 0.19953 0.24294 0.78773 0.0
H2457 H 0.1878 0.24182 0.71527 0.0
H2458 H 0.23753 0.23115 0.78143 0.0
H2459 H 0.22595 0.23001 0.70894 0.0
H2460 H 0.30371 0.24079 0.71405 0.0
H2461 H 0.26421 0.24792 0.71569 0.0
H2462 H 0.25687 0.19641 0.76588 0.0
H2463 H 0.29629 0.18873 0.76383 0.0
C2464 C 0.20515 0.24025 0.77047 0.0
C2465 C 0.19084 0.24329 0.75198 0.0
C2466 C 0.22676 0.23329 0.76688 0.0
C2467 C 0.23451 0.22951 0.74472 0.0
C2468 C 0.22029 0.23279 0.72618 0.0
C2469 C 0.19855 0.23946 0.7298 0.0
C2470 C 0.29362 0.23048 0.7249 0.0
C2471 C 0.30319 0.21433 0.739 0.0
C2472 C 0.27102 0.23466 0.7259 0.0
C2473 C 0.25766 0.22291 0.74115 0.0
C2474 C 0.26695 0.20593 0.75427 0.0
C2475 C 0.28948 0.20158 0.7531 0.0
H2476 H 0.96708 0.94632 0.99738 0.0
H2477 H 0.02883 0.93949 0.03305 0.0
H2478 H 0.97281 0.98595 0.99436 0.0
H2479 H 0.03528 0.97915 0.02921 0.0
H2480 H 0.02623 0.0541 0.03895 0.0
H2481 H 0.02352 0.0142 0.04178 0.0
H2482 H -0.00561 0.01193 0.97468 0.0
H2483 H -0.00454 0.0519 0.97263 0.0
C2484 C 0.98192 0.95343 1.00454 0.0
C2485 C -0.0025 0.94004 0.01548 0.0
C2486 C 0.98537 0.97606 1.00259 0.0
C2487 C 0.0047 0.98575 0.0112 0.0
C2488 C 0.02014 0.97229 0.02253 0.0
C2489 C 0.01649 0.94963 0.02478 0.0
C2490 C 0.01921 0.04508 0.0248 0.0
C2491 C 0.01069 0.05628 1.00574 0.0
C2492 C 0.0179 0.02214 0.02632 0.0
C2493 C 0.00836 0.00984 1.00864 0.0
C2494 C 0.00128 0.02093 0.9889 0.0
C2495 C 0.00227 0.04389 0.98753 0.0
H2496 H 0.80558 0.73003 0.76461 0.0
H2497 H 0.79358 0.8003 0.76736 0.0
H2498 H 0.76642 0.72313 0.76974 0.0
H2499 H 0.75422 0.7933 0.7721 0.0
H2500 H 0.68478 0.76856 0.7496 0.0
H2501 H 0.72395 0.77748 0.74812 0.0
H2502 H 0.73707 0.72786 0.79922 0.0
H2503 H 0.69787 0.71864 0.80038 0.0
C2504 C 0.79462 0.74401 0.76656 0.0
C2505 C 0.8027 0.76572 0.76561 0.0
C2506 C 0.7722 0.74003 0.7695 0.0
C2507 C 0.75735 0.75768 0.77141 0.0
C2508 C 0.76534 0.77941 0.77048 0.0
C2509 C 0.78783 0.7834 0.76767 0.0
C2510 C 0.69606 0.75958 0.7605 0.0
C2511 C 0.68839 0.74278 0.77495 0.0
C2512 C 0.7184 0.76483 0.75983 0.0
C2513 C 0.7335 0.7533 0.7735 0.0
C2514 C 0.72577 0.73686 0.78835 0.0
C2515 C 0.70338 0.7317 0.78914 0.0
H2516 H 0.80114 0.24059 0.2976 0.0
H2517 H 0.80513 0.27152 0.23141 0.0
H2518 H 0.76129 0.23897 0.2941 0.0
H2519 H 0.76553 0.26822 0.2271 0.0
H2520 H 0.69108 0.27541 0.23414 0.0
H2521 H 0.73076 0.28059 0.23856 0.0
H2522 H 0.73498 0.2182 0.27422 0.0
H2523 H 0.69521 0.21382 0.27073 0.0
C2524 C 0.79354 0.24722 0.28238 0.0
C2525 C 0.80639 0.25599 0.2647 0.0
C2526 C 0.77068 0.24591 0.28018 0.0
C2527 C 0.76017 0.25305 0.26012 0.0
C2528 C 0.77297 0.26262 0.24283 0.0
C2529 C 0.79577 0.26424 0.24518 0.0
C2530 C 0.70066 0.26276 0.24266 0.0
C2531 C 0.69031 0.24423 0.25206 0.0
C2532 C 0.72335 0.26569 0.24523 0.0
C2533 C 0.73609 0.24992 0.25697 0.0
C2534 C 0.72565 0.23098 0.26564 0.0
C2535 C 0.70296 0.22828 0.2634 0.0
H2536 H 0.78571 0.24755 0.79697 0.0
H2537 H 0.78238 0.20812 0.73582 0.0
H2538 H 0.74719 0.25735 0.79241 0.0
H2539 H 0.74453 0.21955 0.73011 0.0
H2540 H 0.67037 0.22671 0.73856 0.0
H2541 H 0.70864 0.21551 0.74286 0.0
H2542 H 0.72432 0.27989 0.77025 0.0
H2543 H 0.6856 0.29043 0.76709 0.0
C2544 C 0.77677 0.24084 0.78263 0.0
C2545 C 0.78724 0.22711 0.76671 0.0
C2546 C 0.75475 0.24686 0.77973 0.0
C2547 C 0.74278 0.23957 0.76067 0.0
C2548 C 0.75312 0.2254 0.74508 0.0
C2549 C 0.77498 0.21905 0.7482 0.0
C2550 C 0.68216 0.23853 0.74511 0.0
C2551 C 0.67525 0.25944 0.75237 0.0
C2552 C 0.7041 0.23216 0.74761 0.0
C2553 C 0.71962 0.24672 0.75707 0.0
C2554 C 0.71274 0.26803 0.76343 0.0
C2555 C 0.69069 0.27424 0.76134 0.0
H2556 H 0.68305 0.78456 0.23495 0.0
H2557 H 0.68757 0.75071 0.29958 0.0
H2558 H 0.72268 0.78146 0.2303 0.0
H2559 H 0.72735 0.74927 0.29581 0.0
H2560 H 0.79053 0.72054 0.26859 0.0
H2561 H 0.75142 0.72765 0.27397 0.0
H2562 H 0.75876 0.79117 0.24112 0.0
H2563 H 0.79786 0.78329 0.23481 0.0
C2564 C 0.69255 0.77684 0.24839 0.0
C2565 C 0.68203 0.76743 0.26739 0.0
C2566 C 0.71535 0.7753 0.24583 0.0
C2567 C 0.7282 0.76464 0.26243 0.0
C2568 C 0.71787 0.75696 0.28234 0.0
C2569 C 0.69504 0.75818 0.28473 0.0
C2570 C 0.78361 0.73587 0.2623 0.0
C2571 C 0.79696 0.75133 0.2512 0.0
C2572 C 0.76131 0.74014 0.26566 0.0
C2573 C 0.75196 0.76019 0.25837 0.0
C2574 C 0.76535 0.77551 0.24683 0.0
C2575 C 0.78768 0.77104 0.24315 0.0
H2576 H 0.45348 0.5625 0.03528 0.0
H2577 H 0.49048 0.5601 0.97255 0.0
H2578 H 0.4595 0.52334 0.04082 0.0
H2579 H 0.4949 0.52046 0.97706 0.0
H2580 H 0.52381 0.45722 1.00474 0.0
H2581 H 0.51599 0.49633 0.99917 0.0
H2582 H 0.45191 0.48734 0.03009 0.0
H2583 H 0.46054 0.44853 0.03676 0.0
C2584 C 0.4626 0.55352 0.02245 0.0
C2585 C 0.47187 0.56456 1.0037 0.0
C2586 C 0.46584 0.53094 0.0255 0.0
C2587 C 0.47803 0.51869 1.0096 0.0
C2588 C 0.48597 0.52946 0.99001 0.0
C2589 C 0.48306 0.55217 0.98717 0.0
C2590 C 0.50826 0.46384 0.01067 0.0
C2591 C 0.49286 0.45013 0.0214 0.0
C2592 C 0.50358 0.48613 1.00718 0.0
C2593 C 0.48316 0.49503 0.01388 0.0
C2594 C 0.4679 0.48121 0.02495 0.0
C2595 C 0.4728 0.459 0.02884 0.0
H2596 H 0.9301 0.53934 0.513 0.0
H2597 H 0.99183 0.55139 0.54739 0.0
H2598 H 0.93866 0.49983 0.51161 0.0
H2599 H 0.00035 0.51204 0.54593 0.0
H2600 H 0.95767 0.42759 0.53238 0.0
H2601 H 0.94666 0.46604 0.53869 0.0
H2602 H 0.00835 0.48804 0.51005 0.0
H2603 H 0.01925 0.44969 0.50359 0.0
C2604 C 0.94526 0.53345 0.52063 0.0
C2605 C 0.9603 0.54833 0.53031 0.0
C2606 C 0.95012 0.51093 0.51988 0.0
C2607 C 0.97024 0.50306 0.52848 0.0
C2608 C 0.98482 0.5178 0.53903 0.0
C2609 C 0.97983 0.54023 0.54007 0.0
C2610 C 0.96883 0.4407 0.52751 0.0
C2611 C 0.98928 0.43582 0.51751 0.0
C2612 C 0.96252 0.4626 0.53104 0.0
C2613 C 0.97675 0.47986 0.525 0.0
C2614 C -0.00278 0.47495 0.51508 0.0
C2615 C 0.00336 0.4531 0.51121 0.0
H2616 H 0.95876 0.54796 0.03552 0.0
H2617 H 0.02014 0.54194 0.9991 0.0
H2618 H 0.95257 0.50831 0.03148 0.0
H2619 H 0.01463 0.50227 0.99585 0.0
H2620 H 0.99036 0.43676 0.97271 0.0
H2621 H 0.99267 0.47665 0.97593 0.0
H2622 H 0.96466 0.47311 0.04345 0.0
H2623 H 0.96079 0.43342 0.03951 0.0
C2624 C 0.97111 0.53799 0.02707 0.0
C2625 C 0.98989 0.54783 0.0176 0.0
C2626 C 0.9676 0.51533 0.02472 0.0
C2627 C 0.98298 0.50211 0.01309 0.0
C2628 C 0.00214 0.512 1.00434 0.0
C2629 C 0.00546 0.53465 1.00641 0.0
C2630 C 0.98414 0.44452 0.988 0.0
C2631 C 0.97558 0.43184 1.00594 0.0
C2632 C 0.98584 0.46739 0.99003 0.0
C2633 C 0.97926 0.47808 0.01015 0.0
C2634 C 0.96984 0.46549 0.02769 0.0
C2635 C 0.96788 0.44266 0.02554 0.0
H2636 H 0.45288 0.43589 0.50037 0.0
H2637 H 0.51499 0.42316 0.53371 0.0
H2638 H 0.46234 0.47505 0.49724 0.0
H2639 H 0.52467 0.46237 0.5302 0.0
H2640 H 0.54012 0.52835 0.4893 0.0
H2641 H 0.53108 0.48901 0.49382 0.0
H2642 H 0.47025 0.50673 0.52717 0.0
H2643 H 0.47943 0.54581 0.52301 0.0
C2644 C 0.46846 0.44159 0.50717 0.0
C2645 C 0.48318 0.42674 0.51741 0.0
C2646 C 0.47387 0.46387 0.50536 0.0
C2647 C 0.49425 0.47154 0.51338 0.0
C2648 C 0.50893 0.45671 0.52377 0.0
C2649 C 0.50333 0.43445 0.52597 0.0
C2650 C 0.52485 0.5237 0.49753 0.0
C2651 C 0.51046 0.53989 0.50587 0.0
C2652 C 0.51977 0.50135 0.50025 0.0
C2653 C 0.50003 0.49502 0.5109 0.0
C2654 C 0.48553 0.51127 0.51888 0.0
C2655 C 0.49079 0.53352 0.51655 0.0
loop_
_geom_bond_atom_site_label_1
_geom_bond_atom_site_label_2
_geom_bond_distance
_geom_bond_site_symmetry_2
_ccdc_geom_bond_type
Co0 N4 2.148 . S
Co0 N10 2.128 . S
Co0 N20 2.194 . S
Co0 O25 2.351 . S
Co0 O26 2.155 . S
Co0 O27 2.096 . S
C1 N4 1.301 . S
C1 N5 1.328 . S
C1 H6 0.930 . S
C2 C3 1.333 . S
C2 N4 1.317 . S
C2 H7 0.930 . S
C3 C2 1.333 . S
C3 N5 1.350 . S
C3 H29 0.931 . S
N4 Co0 2.148 . S
N4 C1 1.301 . S
N4 C2 1.317 . S
N5 C1 1.328 . S
N5 C3 1.350 . S
H6 C1 0.930 . S
H7 C2 0.930 . S
C8 O9 1.224 . S
C8 O27 1.247 . S
O9 C8 1.224 . S
N10 Co0 2.128 . S
N10 C11 1.355 . S
N10 C13 1.311 . S
C11 N10 1.355 . S
C11 C12 1.363 . S
C11 H23 0.929 . S
C12 C11 1.363 . S
C12 N14 1.375 . S
C12 H30 0.931 . S
C13 N10 1.311 . S
C13 N14 1.347 . S
C13 H24 0.929 . S
N14 C12 1.375 . S
N14 C13 1.347 . S
C15 C18 1.365 . S
C15 N20 1.328 . S
C15 H21 0.929 . S
C16 C17 1.362 . S
C16 C19 1.378 . S
C16 H31 0.929 . S
C17 C16 1.362 . S
C17 C18 1.366 . S
C18 C15 1.365 . S
C18 C17 1.366 . S
C18 H32 0.930 . S
C19 C16 1.378 . S
C19 N20 1.315 . S
C19 H22 0.930 . S
N20 Co0 2.194 . S
N20 C15 1.328 . S
N20 C19 1.315 . S
H21 C15 0.929 . S
H22 C19 0.930 . S
H23 C11 0.929 . S
H24 C13 0.929 . S
O25 Co0 2.351 . S
O25 C28 1.244 . S
O26 Co0 2.155 . S
O26 C28 1.240 . S
O27 Co0 2.096 . S
O27 C8 1.247 . S
C28 O25 1.244 . S
C28 O26 1.240 . S
H29 C3 0.931 . S
H30 C12 0.931 . S
H31 C16 0.929 . S
H32 C18 0.930 . S
Co33 N37 2.148 . S
Co33 N43 2.128 . S
Co33 N53 2.194 . S
Co33 O58 2.351 . S
Co33 O59 2.155 . S
Co33 O60 2.096 . S
C34 N37 1.301 . S
C34 N38 1.328 . S
C34 H39 0.930 . S
C35 C36 1.333 . S
C35 N37 1.317 . S
C35 H40 0.930 . S
C36 C35 1.333 . S
C36 N38 1.350 . S
C36 H62 0.931 . S
N37 Co33 2.148 . S
N37 C34 1.301 . S
N37 C35 1.317 . S
N38 C34 1.328 . S
N38 C36 1.350 . S
H39 C34 0.930 . S
H40 C35 0.930 . S
C41 O42 1.224 . S
C41 O60 1.247 . S
O42 C41 1.224 . S
N43 Co33 2.128 . S
N43 C44 1.355 1_455 S
N43 C46 1.311 . S
C44 N43 1.355 1_655 S
C44 C45 1.363 . S
C44 H56 0.929 . S
C45 C44 1.363 . S
C45 N47 1.375 . S
C45 H63 0.931 . S
C46 N43 1.311 . S
C46 N47 1.347 1_455 S
C46 H57 0.929 . S
N47 C45 1.375 . S
N47 C46 1.347 1_655 S
C48 C51 1.365 . S
C48 N53 1.328 . S
C48 H54 0.929 . S
C49 C50 1.362 . S
C49 C52 1.378 . S
C49 H64 0.929 . S
C50 C49 1.362 . S
C50 C51 1.366 . S
C51 C48 1.365 . S
C51 C50 1.366 . S
C51 H65 0.930 1_455 S
C52 C49 1.378 . S
C52 N53 1.315 . S
C52 H55 0.930 . S
N53 Co33 2.194 . S
N53 C48 1.328 . S
N53 C52 1.315 . S
H54 C48 0.929 . S
H55 C52 0.930 . S
H56 C44 0.929 . S
H57 C46 0.929 . S
O58 Co33 2.351 . S
O58 C61 1.244 . S
O59 Co33 2.155 . S
O59 C61 1.240 . S
O60 Co33 2.096 . S
O60 C41 1.247 . S
C61 O58 1.244 . S
C61 O59 1.240 . S
H62 C36 0.931 . S
H63 C45 0.931 . S
H64 C49 0.929 . S
H65 C51 0.930 1_655 S
Co66 N70 2.148 . S
Co66 N76 2.128 . S
Co66 N86 2.194 . S
Co66 O91 2.351 . S
Co66 O92 2.155 . S
Co66 O93 2.096 . S
C67 N70 1.301 . S
C67 N71 1.328 . S
C67 H72 0.930 . S
C68 C69 1.333 . S
C68 N70 1.317 . S
C68 H73 0.930 . S
C69 C68 1.333 . S
C69 N71 1.350 . S
C69 H95 0.931 . S
N70 Co66 2.148 . S
N70 C67 1.301 . S
N70 C68 1.317 . S
N71 C67 1.328 . S
N71 C69 1.350 . S
H72 C67 0.930 . S
H73 C68 0.930 . S
C74 O75 1.224 . S
C74 O93 1.247 . S
O75 C74 1.224 . S
N76 Co66 2.128 . S
N76 C77 1.355 . S
N76 C79 1.311 . S
C77 N76 1.355 . S
C77 C78 1.363 . S
C77 H89 0.929 . S
C78 C77 1.363 . S
C78 N80 1.375 . S
C78 H96 0.931 . S
C79 N76 1.311 . S
C79 N80 1.347 . S
C79 H90 0.929 . S
N80 C78 1.375 . S
N80 C79 1.347 . S
C81 C84 1.365 . S
C81 N86 1.328 . S
C81 H87 0.929 . S
C82 C83 1.362 . S
C82 C85 1.378 . S
C82 H97 0.929 . S
C83 C82 1.362 . S
C83 C84 1.366 . S
C84 C81 1.365 . S
C84 C83 1.366 . S
C84 H98 0.930 . S
C85 C82 1.378 . S
C85 N86 1.315 . S
C85 H88 0.930 . S
N86 Co66 2.194 . S
N86 C81 1.328 . S
N86 C85 1.315 . S
H87 C81 0.929 . S
H88 C85 0.930 . S
H89 C77 0.929 . S
H90 C79 0.929 . S
O91 Co66 2.351 . S
O91 C94 1.244 . S
O92 Co66 2.155 . S
O92 C94 1.240 . S
O93 Co66 2.096 . S
O93 C74 1.247 . S
C94 O91 1.244 . S
C94 O92 1.240 . S
H95 C69 0.931 . S
H96 C78 0.931 . S
H97 C82 0.929 . S
H98 C84 0.930 . S
Co99 N103 2.148 1_554 S
Co99 N109 2.128 . S
Co99 N119 2.194 . S
Co99 O124 2.351 1_554 S
Co99 O125 2.155 . S
Co99 O126 2.096 . S
C100 N103 1.301 . S
C100 N104 1.328 . S
C100 H105 0.930 . S
C101 C102 1.333 . S
C101 N103 1.317 . S
C101 H106 0.930 1_556 S
C102 C101 1.333 . S
C102 N104 1.350 . S
C102 H128 0.931 . S
N103 Co99 2.148 1_556 S
N103 C100 1.301 . S
N103 C101 1.317 . S
N104 C100 1.328 . S
N104 C102 1.350 . S
H105 C100 0.930 . S
H106 C101 0.930 1_554 S
C107 O108 1.224 . S
C107 O126 1.247 . S
O108 C107 1.224 . S
N109 Co99 2.128 . S
N109 C110 1.355 . S
N109 C112 1.311 . S
C110 N109 1.355 . S
C110 C111 1.363 . S
C110 H122 0.929 . S
C111 C110 1.363 . S
C111 N113 1.375 . S
C111 H129 0.931 . S
C112 N109 1.311 . S
C112 N113 1.347 . S
C112 H123 0.929 . S
N113 C111 1.375 . S
N113 C112 1.347 . S
C114 C117 1.365 . S
C114 N119 1.328 1_556 S
C114 H120 0.929 . S
C115 C116 1.362 . S
C115 C118 1.378 . S
C115 H130 0.929 . S
C116 C115 1.362 . S
C116 C117 1.366 1_554 S
C117 C114 1.365 . S
C117 C116 1.366 1_556 S
C117 H131 0.930 . S
C118 C115 1.378 . S
C118 N119 1.315 . S
C118 H121 0.930 . S
N119 Co99 2.194 . S
N119 C114 1.328 1_554 S
N119 C118 1.315 . S
H120 C114 0.929 . S
H121 C118 0.930 . S
H122 C110 0.929 . S
H123 C112 0.929 . S
O124 Co99 2.351 1_556 S
O124 C127 1.244 . S
O125 Co99 2.155 . S
O125 C127 1.240 1_554 S
O126 Co99 2.096 . S
O126 C107 1.247 . S
C127 O124 1.244 . S
C127 O125 1.240 1_556 S
H128 C102 0.931 . S
H129 C111 0.931 . S
H130 C115 0.929 . S
H131 C117 0.930 . S
Co132 N136 2.148 . S
Co132 N142 2.128 . S
Co132 N152 2.194 . S
Co132 O157 2.351 . S
Co132 O158 2.155 . S
Co132 O159 2.096 . S
C133 N136 1.301 . S
C133 N137 1.328 . S
C133 H138 0.930 . S
C134 C135 1.333 . S
C134 N136 1.317 . S
C134 H139 0.930 . S
C135 C134 1.333 . S
C135 N137 1.350 . S
C135 H161 0.931 . S
N136 Co132 2.148 . S
N136 C133 1.301 . S
N136 C134 1.317 . S
N137 C133 1.328 . S
N137 C135 1.350 . S
H138 C133 0.930 . S
H139 C134 0.930 . S
C140 O141 1.224 . S
C140 O159 1.247 . S
O141 C140 1.224 . S
N142 Co132 2.128 . S
N142 C143 1.355 . S
N142 C145 1.311 . S
C143 N142 1.355 . S
C143 C144 1.363 . S
C143 H155 0.929 . S
C144 C143 1.363 . S
C144 N146 1.375 . S
C144 H162 0.931 . S
C145 N142 1.311 . S
C145 N146 1.347 . S
C145 H156 0.929 . S
N146 C144 1.375 . S
N146 C145 1.347 . S
C147 C150 1.365 . S
C147 N152 1.328 . S
C147 H153 0.929 . S
C148 C149 1.362 . S
C148 C151 1.378 . S
C148 H163 0.929 . S
C149 C148 1.362 . S
C149 C150 1.366 . S
C150 C147 1.365 . S
C150 C149 1.366 . S
C150 H164 0.930 . S
C151 C148 1.378 . S
C151 N152 1.315 . S
C151 H154 0.930 . S
N152 Co132 2.194 . S
N152 C147 1.328 . S
N152 C151 1.315 . S
H153 C147 0.929 . S
H154 C151 0.930 . S
H155 C143 0.929 . S
H156 C145 0.929 . S
O157 Co132 2.351 . S
O157 C160 1.244 . S
O158 Co132 2.155 . S
O158 C160 1.240 . S
O159 Co132 2.096 . S
O159 C140 1.247 . S
C160 O157 1.244 . S
C160 O158 1.240 . S
H161 C135 0.931 . S
H162 C144 0.931 . S
H163 C148 0.929 . S
H164 C150 0.930 . S
Co165 N169 2.148 . S
Co165 N175 2.128 . S
Co165 N185 2.194 . S
Co165 O190 2.351 . S
Co165 O191 2.155 . S
Co165 O192 2.096 . S
C166 N169 1.301 . S
C166 N170 1.328 . S
C166 H171 0.930 . S
C167 C168 1.333 . S
C167 N169 1.317 . S
C167 H172 0.930 . S
C168 C167 1.333 . S
C168 N170 1.350 . S
C168 H194 0.931 . S
N169 Co165 2.148 . S
N169 C166 1.301 . S
N169 C167 1.317 . S
N170 C166 1.328 . S
N170 C168 1.350 . S
H171 C166 0.930 . S
H172 C167 0.930 . S
C173 O174 1.224 . S
C173 O192 1.247 . S
O174 C173 1.224 . S
N175 Co165 2.128 . S
N175 C176 1.355 . S
N175 C178 1.311 . S
C176 N175 1.355 . S
C176 C177 1.363 . S
C176 H188 0.929 . S
C177 C176 1.363 . S
C177 N179 1.375 . S
C177 H195 0.931 . S
C178 N175 1.311 . S
C178 N179 1.347 . S
C178 H189 0.929 . S
N179 C177 1.375 . S
N179 C178 1.347 . S
C180 C183 1.365 . S
C180 N185 1.328 . S
C180 H186 0.929 . S
C181 C182 1.362 . S
C181 C184 1.378 . S
C181 H196 0.929 . S
C182 C181 1.362 . S
C182 C183 1.366 . S
C183 C180 1.365 . S
C183 C182 1.366 . S
C183 H197 0.930 . S
C184 C181 1.378 . S
C184 N185 1.315 . S
C184 H187 0.930 . S
N185 Co165 2.194 . S
N185 C180 1.328 . S
N185 C184 1.315 . S
H186 C180 0.929 . S
H187 C184 0.930 . S
H188 C176 0.929 . S
H189 C178 0.929 . S
O190 Co165 2.351 . S
O190 C193 1.244 . S
O191 Co165 2.155 . S
O191 C193 1.240 . S
O192 Co165 2.096 . S
O192 C173 1.247 . S
C193 O190 1.244 . S
C193 O191 1.240 . S
H194 C168 0.931 . S
H195 C177 0.931 . S
H196 C181 0.929 . S
H197 C183 0.930 . S
Co198 N202 2.148 . S
Co198 N208 2.128 . S
Co198 N218 2.194 . S
Co198 O223 2.351 . S
Co198 O224 2.155 . S
Co198 O225 2.096 . S
C199 N202 1.301 . S
C199 N203 1.328 . S
C199 H204 0.930 . S
C200 C201 1.333 . S
C200 N202 1.317 . S
C200 H205 0.930 . S
C201 C200 1.333 . S
C201 N203 1.350 . S
C201 H227 0.931 . S
N202 Co198 2.148 . S
N202 C199 1.301 . S
N202 C200 1.317 . S
N203 C199 1.328 . S
N203 C201 1.350 . S
H204 C199 0.930 . S
H205 C200 0.930 . S
C206 O207 1.224 . S
C206 O225 1.247 . S
O207 C206 1.224 . S
N208 Co198 2.128 . S
N208 C209 1.355 . S
N208 C211 1.311 . S
C209 N208 1.355 . S
C209 C210 1.363 . S
C209 H221 0.929 . S
C210 C209 1.363 . S
C210 N212 1.375 . S
C210 H228 0.931 . S
C211 N208 1.311 . S
C211 N212 1.347 . S
C211 H222 0.929 . S
N212 C210 1.375 . S
N212 C211 1.347 . S
C213 C216 1.365 . S
C213 N218 1.328 . S
C213 H219 0.929 . S
C214 C215 1.362 . S
C214 C217 1.378 . S
C214 H229 0.929 . S
C215 C214 1.362 . S
C215 C216 1.366 . S
C216 C213 1.365 . S
C216 C215 1.366 . S
C216 H230 0.930 . S
C217 C214 1.378 . S
C217 N218 1.315 . S
C217 H220 0.930 . S
N218 Co198 2.194 . S
N218 C213 1.328 . S
N218 C217 1.315 . S
H219 C213 0.929 . S
H220 C217 0.930 . S
H221 C209 0.929 . S
H222 C211 0.929 . S
O223 Co198 2.351 . S
O223 C226 1.244 . S
O224 Co198 2.155 . S
O224 C226 1.240 . S
O225 Co198 2.096 . S
O225 C206 1.247 . S
C226 O223 1.244 . S
C226 O224 1.240 . S
H227 C201 0.931 . S
H228 C210 0.931 . S
H229 C214 0.929 . S
H230 C216 0.930 . S
Co231 N235 2.148 1_556 S
Co231 N241 2.128 . S
Co231 N251 2.194 . S
Co231 O256 2.351 1_556 S
Co231 O257 2.155 . S
Co231 O258 2.096 . S
C232 N235 1.301 . S
C232 N236 1.328 . S
C232 H237 0.930 . S
C233 C234 1.333 . S
C233 N235 1.317 . S
C233 H238 0.930 1_554 S
C234 C233 1.333 . S
C234 N236 1.350 . S
C234 H260 0.931 . S
N235 Co231 2.148 1_554 S
N235 C232 1.301 . S
N235 C233 1.317 . S
N236 C232 1.328 . S
N236 C234 1.350 . S
H237 C232 0.930 . S
H238 C233 0.930 1_556 S
C239 O240 1.224 . S
C239 O258 1.247 . S
O240 C239 1.224 . S
N241 Co231 2.128 . S
N241 C242 1.355 1_455 S
N241 C244 1.311 . S
C242 N241 1.355 1_655 S
C242 C243 1.363 . S
C242 H254 0.929 . S
C243 C242 1.363 . S
C243 N245 1.375 . S
C243 H261 0.931 . S
C244 N241 1.311 . S
C244 N245 1.347 1_455 S
C244 H255 0.929 . S
N245 C243 1.375 . S
N245 C244 1.347 1_655 S
C246 C249 1.365 . S
C246 N251 1.328 1_554 S
C246 H252 0.929 . S
C247 C248 1.362 . S
C247 C250 1.378 . S
C247 H262 0.929 . S
C248 C247 1.362 . S
C248 C249 1.366 1_556 S
C249 C246 1.365 . S
C249 C248 1.366 1_554 S
C249 H263 0.930 1_455 S
C250 C247 1.378 . S
C250 N251 1.315 . S
C250 H253 0.930 . S
N251 Co231 2.194 . S
N251 C246 1.328 1_556 S
N251 C250 1.315 . S
H252 C246 0.929 . S
H253 C250 0.930 . S
H254 C242 0.929 . S
H255 C244 0.929 . S
O256 Co231 2.351 1_554 S
O256 C259 1.244 . S
O257 Co231 2.155 . S
O257 C259 1.240 1_556 S
O258 Co231 2.096 . S
O258 C239 1.247 . S
C259 O256 1.244 . S
C259 O257 1.240 1_554 S
H260 C234 0.931 . S
H261 C243 0.931 . S
H262 C247 0.929 . S
H263 C249 0.930 1_655 S
Co264 N268 2.148 . S
Co264 N274 2.128 . S
Co264 N284 2.194 . S
Co264 O289 2.351 . S
Co264 O290 2.155 . S
Co264 O291 2.096 . S
C265 N268 1.301 . S
C265 N269 1.328 . S
C265 H270 0.930 . S
C266 C267 1.333 . S
C266 N268 1.317 . S
C266 H271 0.930 . S
C267 C266 1.333 . S
C267 N269 1.350 . S
C267 H293 0.931 . S
N268 Co264 2.148 . S
N268 C265 1.301 . S
N268 C266 1.317 . S
N269 C265 1.328 . S
N269 C267 1.350 . S
H270 C265 0.930 . S
H271 C266 0.930 . S
C272 O273 1.224 . S
C272 O291 1.247 . S
O273 C272 1.224 . S
N274 Co264 2.128 . S
N274 C275 1.355 . S
N274 C277 1.311 . S
C275 N274 1.355 . S
C275 C276 1.363 . S
C275 H287 0.929 . S
C276 C275 1.363 . S
C276 N278 1.375 . S
C276 H294 0.931 . S
C277 N274 1.311 . S
C277 N278 1.347 . S
C277 H288 0.929 . S
N278 C276 1.375 . S
N278 C277 1.347 . S
C279 C282 1.365 . S
C279 N284 1.328 . S
C279 H285 0.929 . S
C280 C281 1.362 . S
C280 C283 1.378 . S
C280 H295 0.929 . S
C281 C280 1.362 . S
C281 C282 1.366 . S
C282 C279 1.365 . S
C282 C281 1.366 . S
C282 H296 0.930 . S
C283 C280 1.378 . S
C283 N284 1.315 . S
C283 H286 0.930 . S
N284 Co264 2.194 . S
N284 C279 1.328 . S
N284 C283 1.315 . S
H285 C279 0.929 . S
H286 C283 0.930 . S
H287 C275 0.929 . S
H288 C277 0.929 . S
O289 Co264 2.351 . S
O289 C292 1.244 . S
O290 Co264 2.155 . S
O290 C292 1.240 . S
O291 Co264 2.096 . S
O291 C272 1.247 . S
C292 O289 1.244 . S
C292 O290 1.240 . S
H293 C267 0.931 . S
H294 C276 0.931 . S
H295 C280 0.929 . S
H296 C282 0.930 . S
Co297 N301 2.148 . S
Co297 N307 2.128 . S
Co297 N317 2.194 . S
Co297 O322 2.351 . S
Co297 O323 2.155 . S
Co297 O324 2.096 . S
C298 N301 1.301 . S
C298 N302 1.328 . S
C298 H303 0.930 . S
C299 C300 1.333 . S
C299 N301 1.317 . S
C299 H304 0.930 . S
C300 C299 1.333 . S
C300 N302 1.350 . S
C300 H326 0.931 . S
N301 Co297 2.148 . S
N301 C298 1.301 . S
N301 C299 1.317 . S
N302 C298 1.328 . S
N302 C300 1.350 . S
H303 C298 0.930 . S
H304 C299 0.930 . S
C305 O306 1.224 . S
C305 O324 1.247 . S
O306 C305 1.224 . S
N307 Co297 2.128 . S
N307 C308 1.355 1_655 S
N307 C310 1.311 . S
C308 N307 1.355 1_455 S
C308 C309 1.363 . S
C308 H320 0.929 . S
C309 C308 1.363 . S
C309 N311 1.375 . S
C309 H327 0.931 . S
C310 N307 1.311 . S
C310 N311 1.347 1_655 S
C310 H321 0.929 . S
N311 C309 1.375 . S
N311 C310 1.347 1_455 S
C312 C315 1.365 . S
C312 N317 1.328 . S
C312 H318 0.929 . S
C313 C314 1.362 . S
C313 C316 1.378 . S
C313 H328 0.929 . S
C314 C313 1.362 . S
C314 C315 1.366 . S
C315 C312 1.365 . S
C315 C314 1.366 . S
C315 H329 0.930 1_655 S
C316 C313 1.378 . S
C316 N317 1.315 . S
C316 H319 0.930 . S
N317 Co297 2.194 . S
N317 C312 1.328 . S
N317 C316 1.315 . S
H318 C312 0.929 . S
H319 C316 0.930 . S
H320 C308 0.929 . S
H321 C310 0.929 . S
O322 Co297 2.351 . S
O322 C325 1.244 . S
O323 Co297 2.155 . S
O323 C325 1.240 . S
O324 Co297 2.096 . S
O324 C305 1.247 . S
C325 O322 1.244 . S
C325 O323 1.240 . S
H326 C300 0.931 . S
H327 C309 0.931 . S
H328 C313 0.929 . S
H329 C315 0.930 1_455 S
Co330 N334 2.148 . S
Co330 N340 2.128 . S
Co330 N350 2.194 . S
Co330 O355 2.351 . S
Co330 O356 2.155 . S
Co330 O357 2.096 . S
C331 N334 1.301 . S
C331 N335 1.328 . S
C331 H336 0.930 . S
C332 C333 1.333 . S
C332 N334 1.317 . S
C332 H337 0.930 . S
C333 C332 1.333 . S
C333 N335 1.350 . S
C333 H359 0.931 . S
N334 Co330 2.148 . S
N334 C331 1.301 . S
N334 C332 1.317 . S
N335 C331 1.328 . S
N335 C333 1.350 . S
H336 C331 0.930 . S
H337 C332 0.930 . S
C338 O339 1.224 . S
C338 O357 1.247 . S
O339 C338 1.224 . S
N340 Co330 2.128 . S
N340 C341 1.355 . S
N340 C343 1.311 . S
C341 N340 1.355 . S
C341 C342 1.363 . S
C341 H353 0.929 . S
C342 C341 1.363 . S
C342 N344 1.375 . S
C342 H360 0.931 . S
C343 N340 1.311 . S
C343 N344 1.347 . S
C343 H354 0.929 . S
N344 C342 1.375 . S
N344 C343 1.347 . S
C345 C348 1.365 . S
C345 N350 1.328 . S
C345 H351 0.929 . S
C346 C347 1.362 . S
C346 C349 1.378 . S
C346 H361 0.929 . S
C347 C346 1.362 . S
C347 C348 1.366 . S
C348 C345 1.365 . S
C348 C347 1.366 . S
C348 H362 0.930 . S
C349 C346 1.378 . S
C349 N350 1.315 . S
C349 H352 0.930 . S
N350 Co330 2.194 . S
N350 C345 1.328 . S
N350 C349 1.315 . S
H351 C345 0.929 . S
H352 C349 0.930 . S
H353 C341 0.929 . S
H354 C343 0.929 . S
O355 Co330 2.351 . S
O355 C358 1.244 . S
O356 Co330 2.155 . S
O356 C358 1.240 . S
O357 Co330 2.096 . S
O357 C338 1.247 . S
C358 O355 1.244 . S
C358 O356 1.240 . S
H359 C333 0.931 . S
H360 C342 0.931 . S
H361 C346 0.929 . S
H362 C348 0.930 . S
Co363 N367 2.148 1_556 S
Co363 N373 2.128 . S
Co363 N383 2.194 . S
Co363 O388 2.351 1_556 S
Co363 O389 2.155 . S
Co363 O390 2.096 . S
C364 N367 1.301 . S
C364 N368 1.328 . S
C364 H369 0.930 . S
C365 C366 1.333 . S
C365 N367 1.317 . S
C365 H370 0.930 1_554 S
C366 C365 1.333 . S
C366 N368 1.350 . S
C366 H392 0.931 . S
N367 Co363 2.148 1_554 S
N367 C364 1.301 . S
N367 C365 1.317 . S
N368 C364 1.328 . S
N368 C366 1.350 . S
H369 C364 0.930 . S
H370 C365 0.930 1_556 S
C371 O372 1.224 . S
C371 O390 1.247 . S
O372 C371 1.224 . S
N373 Co363 2.128 . S
N373 C374 1.355 . S
N373 C376 1.311 . S
C374 N373 1.355 . S
C374 C375 1.363 . S
C374 H386 0.929 . S
C375 C374 1.363 . S
C375 N377 1.375 . S
C375 H393 0.931 . S
C376 N373 1.311 . S
C376 N377 1.347 . S
C376 H387 0.929 . S
N377 C375 1.375 . S
N377 C376 1.347 . S
C378 C381 1.365 . S
C378 N383 1.328 1_554 S
C378 H384 0.929 . S
C379 C380 1.362 . S
C379 C382 1.378 . S
C379 H394 0.929 . S
C380 C379 1.362 . S
C380 C381 1.366 1_556 S
C381 C378 1.365 . S
C381 C380 1.366 1_554 S
C381 H395 0.930 . S
C382 C379 1.378 . S
C382 N383 1.315 . S
C382 H385 0.930 . S
N383 Co363 2.194 . S
N383 C378 1.328 1_556 S
N383 C382 1.315 . S
H384 C378 0.929 . S
H385 C382 0.930 . S
H386 C374 0.929 . S
H387 C376 0.929 . S
O388 Co363 2.351 1_554 S
O388 C391 1.244 . S
O389 Co363 2.155 . S
O389 C391 1.240 1_556 S
O390 Co363 2.096 . S
O390 C371 1.247 . S
C391 O388 1.244 . S
C391 O389 1.240 1_554 S
H392 C366 0.931 . S
H393 C375 0.931 . S
H394 C379 0.929 . S
H395 C381 0.930 . S
Co396 N400 2.148 . S
Co396 N406 2.128 . S
Co396 N416 2.194 . S
Co396 O421 2.351 . S
Co396 O422 2.155 . S
Co396 O423 2.096 . S
C397 N400 1.301 . S
C397 N401 1.328 . S
C397 H402 0.930 . S
C398 C399 1.333 . S
C398 N400 1.317 . S
C398 H403 0.930 . S
C399 C398 1.333 . S
C399 N401 1.350 . S
C399 H425 0.931 . S
N400 Co396 2.148 . S
N400 C397 1.301 . S
N400 C398 1.317 . S
N401 C397 1.328 . S
N401 C399 1.350 . S
H402 C397 0.930 . S
H403 C398 0.930 . S
C404 O405 1.224 . S
C404 O423 1.247 . S
O405 C404 1.224 . S
N406 Co396 2.128 . S
N406 C407 1.355 . S
N406 C409 1.311 . S
C407 N406 1.355 . S
C407 C408 1.363 . S
C407 H419 0.929 . S
C408 C407 1.363 . S
C408 N410 1.375 . S
C408 H426 0.931 . S
C409 N406 1.311 . S
C409 N410 1.347 . S
C409 H420 0.929 . S
N410 C408 1.375 . S
N410 C409 1.347 . S
C411 C414 1.365 . S
C411 N416 1.328 . S
C411 H417 0.929 . S
C412 C413 1.362 . S
C412 C415 1.378 . S
C412 H427 0.929 . S
C413 C412 1.362 . S
C413 C414 1.366 . S
C414 C411 1.365 . S
C414 C413 1.366 . S
C414 H428 0.930 . S
C415 C412 1.378 . S
C415 N416 1.315 . S
C415 H418 0.930 . S
N416 Co396 2.194 . S
N416 C411 1.328 . S
N416 C415 1.315 . S
H417 C411 0.929 . S
H418 C415 0.930 . S
H419 C407 0.929 . S
H420 C409 0.929 . S
O421 Co396 2.351 . S
O421 C424 1.244 . S
O422 Co396 2.155 . S
O422 C424 1.240 . S
O423 Co396 2.096 . S
O423 C404 1.247 . S
C424 O421 1.244 . S
C424 O422 1.240 . S
H425 C399 0.931 . S
H426 C408 0.931 . S
H427 C412 0.929 . S
H428 C414 0.930 . S
Co429 N433 2.148 . S
Co429 N439 2.128 . S
Co429 N449 2.194 . S
Co429 O454 2.351 . S
Co429 O455 2.155 . S
Co429 O456 2.096 . S
C430 N433 1.301 . S
C430 N434 1.328 . S
C430 H435 0.930 . S
C431 C432 1.333 . S
C431 N433 1.317 . S
C431 H436 0.930 . S
C432 C431 1.333 . S
C432 N434 1.350 . S
C432 H458 0.931 . S
N433 Co429 2.148 . S
N433 C430 1.301 . S
N433 C431 1.317 . S
N434 C430 1.328 . S
N434 C432 1.350 . S
H435 C430 0.930 . S
H436 C431 0.930 . S
C437 O438 1.224 . S
C437 O456 1.247 . S
O438 C437 1.224 . S
N439 Co429 2.128 . S
N439 C440 1.355 . S
N439 C442 1.311 . S
C440 N439 1.355 . S
C440 C441 1.363 . S
C440 H452 0.929 . S
C441 C440 1.363 . S
C441 N443 1.375 . S
C441 H459 0.931 . S
C442 N439 1.311 . S
C442 N443 1.347 . S
C442 H453 0.929 . S
N443 C441 1.375 . S
N443 C442 1.347 . S
C444 C447 1.365 . S
C444 N449 1.328 . S
C444 H450 0.929 . S
C445 C446 1.362 . S
C445 C448 1.378 . S
C445 H460 0.929 . S
C446 C445 1.362 . S
C446 C447 1.366 . S
C447 C444 1.365 . S
C447 C446 1.366 . S
C447 H461 0.930 . S
C448 C445 1.378 . S
C448 N449 1.315 . S
C448 H451 0.930 . S
N449 Co429 2.194 . S
N449 C444 1.328 . S
N449 C448 1.315 . S
H450 C444 0.929 . S
H451 C448 0.930 . S
H452 C440 0.929 . S
H453 C442 0.929 . S
O454 Co429 2.351 . S
O454 C457 1.244 . S
O455 Co429 2.155 . S
O455 C457 1.240 . S
O456 Co429 2.096 . S
O456 C437 1.247 . S
C457 O454 1.244 . S
C457 O455 1.240 . S
H458 C432 0.931 . S
H459 C441 0.931 . S
H460 C445 0.929 . S
H461 C447 0.930 . S
Co462 N466 2.148 . S
Co462 N472 2.128 . S
Co462 N482 2.194 . S
Co462 O487 2.351 . S
Co462 O488 2.155 . S
Co462 O489 2.096 . S
C463 N466 1.301 . S
C463 N467 1.328 . S
C463 H468 0.930 . S
C464 C465 1.333 . S
C464 N466 1.317 . S
C464 H469 0.930 . S
C465 C464 1.333 . S
C465 N467 1.350 . S
C465 H491 0.931 . S
N466 Co462 2.148 . S
N466 C463 1.301 . S
N466 C464 1.317 . S
N467 C463 1.328 . S
N467 C465 1.350 . S
H468 C463 0.930 . S
H469 C464 0.930 . S
C470 O471 1.224 . S
C470 O489 1.247 . S
O471 C470 1.224 . S
N472 Co462 2.128 . S
N472 C473 1.355 . S
N472 C475 1.311 . S
C473 N472 1.355 . S
C473 C474 1.363 . S
C473 H485 0.929 . S
C474 C473 1.363 . S
C474 N476 1.375 . S
C474 H492 0.931 . S
C475 N472 1.311 . S
C475 N476 1.347 . S
C475 H486 0.929 . S
N476 C474 1.375 . S
N476 C475 1.347 . S
C477 C480 1.365 . S
C477 N482 1.328 . S
C477 H483 0.929 . S
C478 C479 1.362 . S
C478 C481 1.378 . S
C478 H493 0.929 . S
C479 C478 1.362 . S
C479 C480 1.366 . S
C480 C477 1.365 . S
C480 C479 1.366 . S
C480 H494 0.930 . S
C481 C478 1.378 . S
C481 N482 1.315 . S
C481 H484 0.930 . S
N482 Co462 2.194 . S
N482 C477 1.328 . S
N482 C481 1.315 . S
H483 C477 0.929 . S
H484 C481 0.930 . S
H485 C473 0.929 . S
H486 C475 0.929 . S
O487 Co462 2.351 . S
O487 C490 1.244 . S
O488 Co462 2.155 . S
O488 C490 1.240 . S
O489 Co462 2.096 . S
O489 C470 1.247 . S
C490 O487 1.244 . S
C490 O488 1.240 . S
H491 C465 0.931 . S
H492 C474 0.931 . S
H493 C478 0.929 . S
H494 C480 0.930 . S
Co495 N499 2.148 1_554 S
Co495 N505 2.128 . S
Co495 N515 2.194 . S
Co495 O520 2.351 1_554 S
Co495 O521 2.155 . S
Co495 O522 2.096 . S
C496 N499 1.301 . S
C496 N500 1.328 . S
C496 H501 0.930 . S
C497 C498 1.333 . S
C497 N499 1.317 . S
C497 H502 0.930 1_556 S
C498 C497 1.333 . S
C498 N500 1.350 . S
C498 H524 0.931 . S
N499 Co495 2.148 1_556 S
N499 C496 1.301 . S
N499 C497 1.317 . S
N500 C496 1.328 . S
N500 C498 1.350 . S
H501 C496 0.930 . S
H502 C497 0.930 1_554 S
C503 O504 1.224 . S
C503 O522 1.247 . S
O504 C503 1.224 . S
N505 Co495 2.128 . S
N505 C506 1.355 1_655 S
N505 C508 1.311 . S
C506 N505 1.355 1_455 S
C506 C507 1.363 . S
C506 H518 0.929 . S
C507 C506 1.363 . S
C507 N509 1.375 . S
C507 H525 0.931 . S
C508 N505 1.311 . S
C508 N509 1.347 1_655 S
C508 H519 0.929 . S
N509 C507 1.375 . S
N509 C508 1.347 1_455 S
C510 C513 1.365 . S
C510 N515 1.328 1_556 S
C510 H516 0.929 . S
C511 C512 1.362 . S
C511 C514 1.378 . S
C511 H526 0.929 . S
C512 C511 1.362 . S
C512 C513 1.366 1_554 S
C513 C510 1.365 . S
C513 C512 1.366 1_556 S
C513 H527 0.930 1_655 S
C514 C511 1.378 . S
C514 N515 1.315 . S
C514 H517 0.930 . S
N515 Co495 2.194 . S
N515 C510 1.328 1_554 S
N515 C514 1.315 . S
H516 C510 0.929 . S
H517 C514 0.930 . S
H518 C506 0.929 . S
H519 C508 0.929 . S
O520 Co495 2.351 1_556 S
O520 C523 1.244 . S
O521 Co495 2.155 . S
O521 C523 1.240 1_554 S
O522 Co495 2.096 . S
O522 C503 1.247 . S
C523 O520 1.244 . S
C523 O521 1.240 1_556 S
H524 C498 0.931 . S
H525 C507 0.931 . S
H526 C511 0.929 . S
H527 C513 0.930 1_455 S
Co528 N532 2.148 . S
Co528 N538 2.128 . S
Co528 N548 2.194 . S
Co528 O553 2.351 . S
Co528 O554 2.155 . S
Co528 O555 2.096 . S
C529 N532 1.301 . S
C529 N533 1.328 . S
C529 H534 0.930 . S
C530 C531 1.333 . S
C530 N532 1.317 . S
C530 H535 0.930 . S
C531 C530 1.333 . S
C531 N533 1.350 . S
C531 H557 0.931 . S
N532 Co528 2.148 . S
N532 C529 1.301 . S
N532 C530 1.317 . S
N533 C529 1.328 . S
N533 C531 1.350 . S
H534 C529 0.930 . S
H535 C530 0.930 . S
C536 O537 1.224 . S
C536 O555 1.247 . S
O537 C536 1.224 . S
N538 Co528 2.128 . S
N538 C539 1.355 . S
N538 C541 1.311 . S
C539 N538 1.355 . S
C539 C540 1.363 . S
C539 H551 0.929 . S
C540 C539 1.363 . S
C540 N542 1.375 . S
C540 H558 0.931 . S
C541 N538 1.311 . S
C541 N542 1.347 . S
C541 H552 0.929 . S
N542 C540 1.375 . S
N542 C541 1.347 . S
C543 C546 1.365 . S
C543 N548 1.328 . S
C543 H549 0.929 . S
C544 C545 1.362 . S
C544 C547 1.378 . S
C544 H559 0.929 . S
C545 C544 1.362 . S
C545 C546 1.366 . S
C546 C543 1.365 . S
C546 C545 1.366 . S
C546 H560 0.930 . S
C547 C544 1.378 . S
C547 N548 1.315 . S
C547 H550 0.930 . S
N548 Co528 2.194 . S
N548 C543 1.328 . S
N548 C547 1.315 . S
H549 C543 0.929 . S
H550 C547 0.930 . S
H551 C539 0.929 . S
H552 C541 0.929 . S
O553 Co528 2.351 . S
O553 C556 1.244 . S
O554 Co528 2.155 . S
O554 C556 1.240 . S
O555 Co528 2.096 . S
O555 C536 1.247 . S
C556 O553 1.244 . S
C556 O554 1.240 . S
H557 C531 0.931 . S
H558 C540 0.931 . S
H559 C544 0.929 . S
H560 C546 0.930 . S
Co561 N565 2.148 1_554 S
Co561 N571 2.128 . S
Co561 N581 2.194 . S
Co561 O586 2.351 1_554 S
Co561 O587 2.155 . S
Co561 O588 2.096 . S
C562 N565 1.301 . S
C562 N566 1.328 . S
C562 H567 0.930 . S
C563 C564 1.333 . S
C563 N565 1.317 . S
C563 H568 0.930 1_556 S
C564 C563 1.333 . S
C564 N566 1.350 . S
C564 H590 0.931 . S
N565 Co561 2.148 1_556 S
N565 C562 1.301 . S
N565 C563 1.317 . S
N566 C562 1.328 . S
N566 C564 1.350 . S
H567 C562 0.930 . S
H568 C563 0.930 1_554 S
C569 O570 1.224 . S
C569 O588 1.247 . S
O570 C569 1.224 . S
N571 Co561 2.128 . S
N571 C572 1.355 . S
N571 C574 1.311 . S
C572 N571 1.355 . S
C572 C573 1.363 . S
C572 H584 0.929 . S
C573 C572 1.363 . S
C573 N575 1.375 . S
C573 H591 0.931 . S
C574 N571 1.311 . S
C574 N575 1.347 . S
C574 H585 0.929 . S
N575 C573 1.375 . S
N575 C574 1.347 . S
C576 C579 1.365 . S
C576 N581 1.328 1_556 S
C576 H582 0.929 . S
C577 C578 1.362 . S
C577 C580 1.378 . S
C577 H592 0.929 . S
C578 C577 1.362 . S
C578 C579 1.366 1_554 S
C579 C576 1.365 . S
C579 C578 1.366 1_556 S
C579 H593 0.930 . S
C580 C577 1.378 . S
C580 N581 1.315 . S
C580 H583 0.930 . S
N581 Co561 2.194 . S
N581 C576 1.328 1_554 S
N581 C580 1.315 . S
H582 C576 0.929 . S
H583 C580 0.930 . S
H584 C572 0.929 . S
H585 C574 0.929 . S
O586 Co561 2.351 1_556 S
O586 C589 1.244 . S
O587 Co561 2.155 . S
O587 C589 1.240 1_554 S
O588 Co561 2.096 . S
O588 C569 1.247 . S
C589 O586 1.244 . S
C589 O587 1.240 1_556 S
H590 C564 0.931 . S
H591 C573 0.931 . S
H592 C577 0.929 . S
H593 C579 0.930 . S
Co594 N598 2.148 . S
Co594 N604 2.128 . S
Co594 N614 2.194 . S
Co594 O619 2.351 . S
Co594 O620 2.155 . S
Co594 O621 2.096 . S
C595 N598 1.301 . S
C595 N599 1.328 . S
C595 H600 0.930 . S
C596 C597 1.333 . S
C596 N598 1.317 . S
C596 H601 0.930 . S
C597 C596 1.333 . S
C597 N599 1.350 . S
C597 H623 0.931 . S
N598 Co594 2.148 . S
N598 C595 1.301 . S
N598 C596 1.317 . S
N599 C595 1.328 . S
N599 C597 1.350 . S
H600 C595 0.930 . S
H601 C596 0.930 . S
C602 O603 1.224 . S
C602 O621 1.247 . S
O603 C602 1.224 . S
N604 Co594 2.128 . S
N604 C605 1.355 . S
N604 C607 1.311 . S
C605 N604 1.355 . S
C605 C606 1.363 . S
C605 H617 0.929 . S
C606 C605 1.363 . S
C606 N608 1.375 . S
C606 H624 0.931 . S
C607 N604 1.311 . S
C607 N608 1.347 . S
C607 H618 0.929 . S
N608 C606 1.375 . S
N608 C607 1.347 . S
C609 C612 1.365 . S
C609 N614 1.328 . S
C609 H615 0.929 . S
C610 C611 1.362 . S
C610 C613 1.378 . S
C610 H625 0.929 . S
C611 C610 1.362 . S
C611 C612 1.366 . S
C612 C609 1.365 . S
C612 C611 1.366 . S
C612 H626 0.930 . S
C613 C610 1.378 . S
C613 N614 1.315 . S
C613 H616 0.930 . S
N614 Co594 2.194 . S
N614 C609 1.328 . S
N614 C613 1.315 . S
H615 C609 0.929 . S
H616 C613 0.930 . S
H617 C605 0.929 . S
H618 C607 0.929 . S
O619 Co594 2.351 . S
O619 C622 1.244 . S
O620 Co594 2.155 . S
O620 C622 1.240 . S
O621 Co594 2.096 . S
O621 C602 1.247 . S
C622 O619 1.244 . S
C622 O620 1.240 . S
H623 C597 0.931 . S
H624 C606 0.931 . S
H625 C610 0.929 . S
H626 C612 0.930 . S
Co627 N631 2.148 . S
Co627 N637 2.128 . S
Co627 N647 2.194 . S
Co627 O652 2.351 . S
Co627 O653 2.155 . S
Co627 O654 2.096 . S
C628 N631 1.301 . S
C628 N632 1.328 . S
C628 H633 0.930 . S
C629 C630 1.333 . S
C629 N631 1.317 . S
C629 H634 0.930 . S
C630 C629 1.333 . S
C630 N632 1.350 . S
C630 H656 0.931 . S
N631 Co627 2.148 . S
N631 C628 1.301 . S
N631 C629 1.317 . S
N632 C628 1.328 . S
N632 C630 1.350 . S
H633 C628 0.930 . S
H634 C629 0.930 . S
C635 O636 1.224 . S
C635 O654 1.247 . S
O636 C635 1.224 . S
N637 Co627 2.128 . S
N637 C638 1.355 1_655 S
N637 C640 1.311 . S
C638 N637 1.355 1_455 S
C638 C639 1.363 . S
C638 H650 0.929 . S
C639 C638 1.363 . S
C639 N641 1.375 . S
C639 H657 0.931 . S
C640 N637 1.311 . S
C640 N641 1.347 1_655 S
C640 H651 0.929 . S
N641 C639 1.375 . S
N641 C640 1.347 1_455 S
C642 C645 1.365 . S
C642 N647 1.328 . S
C642 H648 0.929 . S
C643 C644 1.362 . S
C643 C646 1.378 . S
C643 H658 0.929 . S
C644 C643 1.362 . S
C644 C645 1.366 . S
C645 C642 1.365 . S
C645 C644 1.366 . S
C645 H659 0.930 1_655 S
C646 C643 1.378 . S
C646 N647 1.315 . S
C646 H649 0.930 . S
N647 Co627 2.194 . S
N647 C642 1.328 . S
N647 C646 1.315 . S
H648 C642 0.929 . S
H649 C646 0.930 . S
H650 C638 0.929 . S
H651 C640 0.929 . S
O652 Co627 2.351 . S
O652 C655 1.244 . S
O653 Co627 2.155 . S
O653 C655 1.240 . S
O654 Co627 2.096 . S
O654 C635 1.247 . S
C655 O652 1.244 . S
C655 O653 1.240 . S
H656 C630 0.931 . S
H657 C639 0.931 . S
H658 C643 0.929 . S
H659 C645 0.930 1_455 S
Co660 N664 2.148 . S
Co660 N670 2.128 . S
Co660 N680 2.194 . S
Co660 O685 2.351 . S
Co660 O686 2.155 . S
Co660 O687 2.096 . S
C661 N664 1.301 . S
C661 N665 1.328 . S
C661 H666 0.930 . S
C662 C663 1.333 . S
C662 N664 1.317 . S
C662 H667 0.930 . S
C663 C662 1.333 . S
C663 N665 1.350 . S
C663 H689 0.931 . S
N664 Co660 2.148 . S
N664 C661 1.301 . S
N664 C662 1.317 . S
N665 C661 1.328 . S
N665 C663 1.350 . S
H666 C661 0.930 . S
H667 C662 0.930 . S
C668 O669 1.224 . S
C668 O687 1.247 . S
O669 C668 1.224 . S
N670 Co660 2.128 . S
N670 C671 1.355 . S
N670 C673 1.311 . S
C671 N670 1.355 . S
C671 C672 1.363 . S
C671 H683 0.929 . S
C672 C671 1.363 . S
C672 N674 1.375 . S
C672 H690 0.931 . S
C673 N670 1.311 . S
C673 N674 1.347 . S
C673 H684 0.929 . S
N674 C672 1.375 . S
N674 C673 1.347 . S
C675 C678 1.365 . S
C675 N680 1.328 . S
C675 H681 0.929 . S
C676 C677 1.362 . S
C676 C679 1.378 . S
C676 H691 0.929 . S
C677 C676 1.362 . S
C677 C678 1.366 . S
C678 C675 1.365 . S
C678 C677 1.366 . S
C678 H692 0.930 . S
C679 C676 1.378 . S
C679 N680 1.315 . S
C679 H682 0.930 . S
N680 Co660 2.194 . S
N680 C675 1.328 . S
N680 C679 1.315 . S
H681 C675 0.929 . S
H682 C679 0.930 . S
H683 C671 0.929 . S
H684 C673 0.929 . S
O685 Co660 2.351 . S
O685 C688 1.244 . S
O686 Co660 2.155 . S
O686 C688 1.240 . S
O687 Co660 2.096 . S
O687 C668 1.247 . S
C688 O685 1.244 . S
C688 O686 1.240 . S
H689 C663 0.931 . S
H690 C672 0.931 . S
H691 C676 0.929 . S
H692 C678 0.930 . S
Co693 N697 2.148 1_556 S
Co693 N703 2.128 . S
Co693 N713 2.194 . S
Co693 O718 2.351 1_556 S
Co693 O719 2.155 . S
Co693 O720 2.096 . S
C694 N697 1.301 . S
C694 N698 1.328 . S
C694 H699 0.930 . S
C695 C696 1.333 . S
C695 N697 1.317 . S
C695 H700 0.930 1_554 S
C696 C695 1.333 . S
C696 N698 1.350 . S
C696 H722 0.931 . S
N697 Co693 2.148 1_554 S
N697 C694 1.301 . S
N697 C695 1.317 . S
N698 C694 1.328 . S
N698 C696 1.350 . S
H699 C694 0.930 . S
H700 C695 0.930 1_556 S
C701 O702 1.224 . S
C701 O720 1.247 . S
O702 C701 1.224 . S
N703 Co693 2.128 . S
N703 C704 1.355 1_655 S
N703 C706 1.311 . S
C704 N703 1.355 1_455 S
C704 C705 1.363 . S
C704 H716 0.929 . S
C705 C704 1.363 . S
C705 N707 1.375 . S
C705 H723 0.931 . S
C706 N703 1.311 . S
C706 N707 1.347 1_655 S
C706 H717 0.929 . S
N707 C705 1.375 . S
N707 C706 1.347 1_455 S
C708 C711 1.365 . S
C708 N713 1.328 1_554 S
C708 H714 0.929 . S
C709 C710 1.362 . S
C709 C712 1.378 . S
C709 H724 0.929 . S
C710 C709 1.362 . S
C710 C711 1.366 1_556 S
C711 C708 1.365 . S
C711 C710 1.366 1_554 S
C711 H725 0.930 1_655 S
C712 C709 1.378 . S
C712 N713 1.315 . S
C712 H715 0.930 . S
N713 Co693 2.194 . S
N713 C708 1.328 1_556 S
N713 C712 1.315 . S
H714 C708 0.929 . S
H715 C712 0.930 . S
H716 C704 0.929 . S
H717 C706 0.929 . S
O718 Co693 2.351 1_554 S
O718 C721 1.244 . S
O719 Co693 2.155 . S
O719 C721 1.240 1_556 S
O720 Co693 2.096 . S
O720 C701 1.247 . S
C721 O718 1.244 . S
C721 O719 1.240 1_554 S
H722 C696 0.931 . S
H723 C705 0.931 . S
H724 C709 0.929 . S
H725 C711 0.930 1_455 S
Co726 N730 2.148 . S
Co726 N736 2.128 . S
Co726 N746 2.194 . S
Co726 O751 2.351 . S
Co726 O752 2.155 . S
Co726 O753 2.096 . S
C727 N730 1.301 . S
C727 N731 1.328 . S
C727 H732 0.930 . S
C728 C729 1.333 . S
C728 N730 1.317 . S
C728 H733 0.930 . S
C729 C728 1.333 . S
C729 N731 1.350 . S
C729 H755 0.931 . S
N730 Co726 2.148 . S
N730 C727 1.301 . S
N730 C728 1.317 . S
N731 C727 1.328 . S
N731 C729 1.350 . S
H732 C727 0.930 . S
H733 C728 0.930 . S
C734 O735 1.224 . S
C734 O753 1.247 . S
O735 C734 1.224 . S
N736 Co726 2.128 . S
N736 C737 1.355 . S
N736 C739 1.311 . S
C737 N736 1.355 . S
C737 C738 1.363 . S
C737 H749 0.929 . S
C738 C737 1.363 . S
C738 N740 1.375 . S
C738 H756 0.931 . S
C739 N736 1.311 . S
C739 N740 1.347 . S
C739 H750 0.929 . S
N740 C738 1.375 . S
N740 C739 1.347 . S
C741 C744 1.365 . S
C741 N746 1.328 . S
C741 H747 0.929 . S
C742 C743 1.362 . S
C742 C745 1.378 . S
C742 H757 0.929 . S
C743 C742 1.362 . S
C743 C744 1.366 . S
C744 C741 1.365 . S
C744 C743 1.366 . S
C744 H758 0.930 . S
C745 C742 1.378 . S
C745 N746 1.315 . S
C745 H748 0.930 . S
N746 Co726 2.194 . S
N746 C741 1.328 . S
N746 C745 1.315 . S
H747 C741 0.929 . S
H748 C745 0.930 . S
H749 C737 0.929 . S
H750 C739 0.929 . S
O751 Co726 2.351 . S
O751 C754 1.244 . S
O752 Co726 2.155 . S
O752 C754 1.240 . S
O753 Co726 2.096 . S
O753 C734 1.247 . S
C754 O751 1.244 . S
C754 O752 1.240 . S
H755 C729 0.931 . S
H756 C738 0.931 . S
H757 C742 0.929 . S
H758 C744 0.930 . S
Co759 N763 2.148 . S
Co759 N769 2.128 . S
Co759 N779 2.194 . S
Co759 O784 2.351 . S
Co759 O785 2.155 . S
Co759 O786 2.096 . S
C760 N763 1.301 . S
C760 N764 1.328 . S
C760 H765 0.930 . S
C761 C762 1.333 . S
C761 N763 1.317 . S
C761 H766 0.930 . S
C762 C761 1.333 . S
C762 N764 1.350 . S
C762 H788 0.931 . S
N763 Co759 2.148 . S
N763 C760 1.301 . S
N763 C761 1.317 . S
N764 C760 1.328 . S
N764 C762 1.350 . S
H765 C760 0.930 . S
H766 C761 0.930 . S
C767 O768 1.224 . S
C767 O786 1.247 . S
O768 C767 1.224 . S
N769 Co759 2.128 . S
N769 C770 1.355 . S
N769 C772 1.311 . S
C770 N769 1.355 . S
C770 C771 1.363 . S
C770 H782 0.929 . S
C771 C770 1.363 . S
C771 N773 1.375 . S
C771 H789 0.931 . S
C772 N769 1.311 . S
C772 N773 1.347 . S
C772 H783 0.929 . S
N773 C771 1.375 . S
N773 C772 1.347 . S
C774 C777 1.365 . S
C774 N779 1.328 . S
C774 H780 0.929 . S
C775 C776 1.362 . S
C775 C778 1.378 . S
C775 H790 0.929 . S
C776 C775 1.362 . S
C776 C777 1.366 . S
C777 C774 1.365 . S
C777 C776 1.366 . S
C777 H791 0.930 . S
C778 C775 1.378 . S
C778 N779 1.315 . S
C778 H781 0.930 . S
N779 Co759 2.194 . S
N779 C774 1.328 . S
N779 C778 1.315 . S
H780 C774 0.929 . S
H781 C778 0.930 . S
H782 C770 0.929 . S
H783 C772 0.929 . S
O784 Co759 2.351 . S
O784 C787 1.244 . S
O785 Co759 2.155 . S
O785 C787 1.240 . S
O786 Co759 2.096 . S
O786 C767 1.247 . S
C787 O784 1.244 . S
C787 O785 1.240 . S
H788 C762 0.931 . S
H789 C771 0.931 . S
H790 C775 0.929 . S
H791 C777 0.930 . S
Co792 N796 2.148 . S
Co792 N802 2.128 . S
Co792 N812 2.194 . S
Co792 O817 2.351 . S
Co792 O818 2.155 . S
Co792 O819 2.096 . S
C793 N796 1.301 . S
C793 N797 1.328 . S
C793 H798 0.930 . S
C794 C795 1.333 . S
C794 N796 1.317 . S
C794 H799 0.930 . S
C795 C794 1.333 . S
C795 N797 1.350 . S
C795 H821 0.931 . S
N796 Co792 2.148 . S
N796 C793 1.301 . S
N796 C794 1.317 . S
N797 C793 1.328 . S
N797 C795 1.350 . S
H798 C793 0.930 . S
H799 C794 0.930 . S
C800 O801 1.224 . S
C800 O819 1.247 . S
O801 C800 1.224 . S
N802 Co792 2.128 . S
N802 C803 1.355 . S
N802 C805 1.311 . S
C803 N802 1.355 . S
C803 C804 1.363 . S
C803 H815 0.929 . S
C804 C803 1.363 . S
C804 N806 1.375 . S
C804 H822 0.931 . S
C805 N802 1.311 . S
C805 N806 1.347 . S
C805 H816 0.929 . S
N806 C804 1.375 . S
N806 C805 1.347 . S
C807 C810 1.365 . S
C807 N812 1.328 . S
C807 H813 0.929 . S
C808 C809 1.362 . S
C808 C811 1.378 . S
C808 H823 0.929 . S
C809 C808 1.362 . S
C809 C810 1.366 . S
C810 C807 1.365 . S
C810 C809 1.366 . S
C810 H824 0.930 . S
C811 C808 1.378 . S
C811 N812 1.315 . S
C811 H814 0.930 . S
N812 Co792 2.194 . S
N812 C807 1.328 . S
N812 C811 1.315 . S
H813 C807 0.929 . S
H814 C811 0.930 . S
H815 C803 0.929 . S
H816 C805 0.929 . S
O817 Co792 2.351 . S
O817 C820 1.244 . S
O818 Co792 2.155 . S
O818 C820 1.240 . S
O819 Co792 2.096 . S
O819 C800 1.247 . S
C820 O817 1.244 . S
C820 O818 1.240 . S
H821 C795 0.931 . S
H822 C804 0.931 . S
H823 C808 0.929 . S
H824 C810 0.930 . S
Co825 N829 2.148 1_556 S
Co825 N835 2.128 . S
Co825 N845 2.194 . S
Co825 O850 2.351 1_556 S
Co825 O851 2.155 . S
Co825 O852 2.096 . S
C826 N829 1.301 . S
C826 N830 1.328 . S
C826 H831 0.930 . S
C827 C828 1.333 . S
C827 N829 1.317 . S
C827 H832 0.930 1_554 S
C828 C827 1.333 . S
C828 N830 1.350 . S
C828 H854 0.931 . S
N829 Co825 2.148 1_554 S
N829 C826 1.301 . S
N829 C827 1.317 . S
N830 C826 1.328 . S
N830 C828 1.350 . S
H831 C826 0.930 . S
H832 C827 0.930 1_556 S
C833 O834 1.224 . S
C833 O852 1.247 . S
O834 C833 1.224 . S
N835 Co825 2.128 . S
N835 C836 1.355 . S
N835 C838 1.311 . S
C836 N835 1.355 . S
C836 C837 1.363 . S
C836 H848 0.929 . S
C837 C836 1.363 . S
C837 N839 1.375 . S
C837 H855 0.931 . S
C838 N835 1.311 . S
C838 N839 1.347 . S
C838 H849 0.929 . S
N839 C837 1.375 . S
N839 C838 1.347 . S
C840 C843 1.365 . S
C840 N845 1.328 1_554 S
C840 H846 0.929 . S
C841 C842 1.362 . S
C841 C844 1.378 . S
C841 H856 0.929 . S
C842 C841 1.362 . S
C842 C843 1.366 1_556 S
C843 C840 1.365 . S
C843 C842 1.366 1_554 S
C843 H857 0.930 . S
C844 C841 1.378 . S
C844 N845 1.315 . S
C844 H847 0.930 . S
N845 Co825 2.194 . S
N845 C840 1.328 1_556 S
N845 C844 1.315 . S
H846 C840 0.929 . S
H847 C844 0.930 . S
H848 C836 0.929 . S
H849 C838 0.929 . S
O850 Co825 2.351 1_554 S
O850 C853 1.244 . S
O851 Co825 2.155 . S
O851 C853 1.240 1_556 S
O852 Co825 2.096 . S
O852 C833 1.247 . S
C853 O850 1.244 . S
C853 O851 1.240 1_554 S
H854 C828 0.931 . S
H855 C837 0.931 . S
H856 C841 0.929 . S
H857 C843 0.930 . S
Co858 N862 2.148 . S
Co858 N868 2.128 . S
Co858 N878 2.194 . S
Co858 O883 2.351 . S
Co858 O884 2.155 . S
Co858 O885 2.096 . S
C859 N862 1.301 . S
C859 N863 1.328 . S
C859 H864 0.930 . S
C860 C861 1.333 . S
C860 N862 1.317 . S
C860 H865 0.930 . S
C861 C860 1.333 . S
C861 N863 1.350 . S
C861 H887 0.931 . S
N862 Co858 2.148 . S
N862 C859 1.301 . S
N862 C860 1.317 . S
N863 C859 1.328 . S
N863 C861 1.350 . S
H864 C859 0.930 . S
H865 C860 0.930 . S
C866 O867 1.224 . S
C866 O885 1.247 . S
O867 C866 1.224 . S
N868 Co858 2.128 . S
N868 C869 1.355 . S
N868 C871 1.311 . S
C869 N868 1.355 . S
C869 C870 1.363 . S
C869 H881 0.929 . S
C870 C869 1.363 . S
C870 N872 1.375 . S
C870 H888 0.931 . S
C871 N868 1.311 . S
C871 N872 1.347 . S
C871 H882 0.929 . S
N872 C870 1.375 . S
N872 C871 1.347 . S
C873 C876 1.365 . S
C873 N878 1.328 . S
C873 H879 0.929 . S
C874 C875 1.362 . S
C874 C877 1.378 . S
C874 H889 0.929 . S
C875 C874 1.362 . S
C875 C876 1.366 . S
C876 C873 1.365 . S
C876 C875 1.366 . S
C876 H890 0.930 . S
C877 C874 1.378 . S
C877 N878 1.315 . S
C877 H880 0.930 . S
N878 Co858 2.194 . S
N878 C873 1.328 . S
N878 C877 1.315 . S
H879 C873 0.929 . S
H880 C877 0.930 . S
H881 C869 0.929 . S
H882 C871 0.929 . S
O883 Co858 2.351 . S
O883 C886 1.244 . S
O884 Co858 2.155 . S
O884 C886 1.240 . S
O885 Co858 2.096 . S
O885 C866 1.247 . S
C886 O883 1.244 . S
C886 O884 1.240 . S
H887 C861 0.931 . S
H888 C870 0.931 . S
H889 C874 0.929 . S
H890 C876 0.930 . S
Co891 N895 2.148 . S
Co891 N901 2.128 . S
Co891 N911 2.194 . S
Co891 O916 2.351 . S
Co891 O917 2.155 . S
Co891 O918 2.096 . S
C892 N895 1.301 . S
C892 N896 1.328 . S
C892 H897 0.930 . S
C893 C894 1.333 . S
C893 N895 1.317 . S
C893 H898 0.930 . S
C894 C893 1.333 . S
C894 N896 1.350 . S
C894 H920 0.931 . S
N895 Co891 2.148 . S
N895 C892 1.301 . S
N895 C893 1.317 . S
N896 C892 1.328 . S
N896 C894 1.350 . S
H897 C892 0.930 . S
H898 C893 0.930 . S
C899 O900 1.224 . S
C899 O918 1.247 . S
O900 C899 1.224 . S
N901 Co891 2.128 . S
N901 C902 1.355 1_455 S
N901 C904 1.311 . S
C902 N901 1.355 1_655 S
C902 C903 1.363 . S
C902 H914 0.929 . S
C903 C902 1.363 . S
C903 N905 1.375 . S
C903 H921 0.931 . S
C904 N901 1.311 . S
C904 N905 1.347 1_455 S
C904 H915 0.929 . S
N905 C903 1.375 . S
N905 C904 1.347 1_655 S
C906 C909 1.365 . S
C906 N911 1.328 . S
C906 H912 0.929 . S
C907 C908 1.362 . S
C907 C910 1.378 . S
C907 H922 0.929 . S
C908 C907 1.362 . S
C908 C909 1.366 . S
C909 C906 1.365 . S
C909 C908 1.366 . S
C909 H923 0.930 1_455 S
C910 C907 1.378 . S
C910 N911 1.315 . S
C910 H913 0.930 . S
N911 Co891 2.194 . S
N911 C906 1.328 . S
N911 C910 1.315 . S
H912 C906 0.929 . S
H913 C910 0.930 . S
H914 C902 0.929 . S
H915 C904 0.929 . S
O916 Co891 2.351 . S
O916 C919 1.244 . S
O917 Co891 2.155 . S
O917 C919 1.240 . S
O918 Co891 2.096 . S
O918 C899 1.247 . S
C919 O916 1.244 . S
C919 O917 1.240 . S
H920 C894 0.931 . S
H921 C903 0.931 . S
H922 C907 0.929 . S
H923 C909 0.930 1_655 S
Co924 N928 2.148 . S
Co924 N934 2.128 . S
Co924 N944 2.194 . S
Co924 O949 2.351 . S
Co924 O950 2.155 . S
Co924 O951 2.096 . S
C925 N928 1.301 . S
C925 N929 1.328 . S
C925 H930 0.930 . S
C926 C927 1.333 . S
C926 N928 1.317 . S
C926 H931 0.930 . S
C927 C926 1.333 . S
C927 N929 1.350 . S
C927 H953 0.931 . S
N928 Co924 2.148 . S
N928 C925 1.301 . S
N928 C926 1.317 . S
N929 C925 1.328 . S
N929 C927 1.350 . S
H930 C925 0.930 . S
H931 C926 0.930 . S
C932 O933 1.224 . S
C932 O951 1.247 . S
O933 C932 1.224 . S
N934 Co924 2.128 . S
N934 C935 1.355 . S
N934 C937 1.311 . S
C935 N934 1.355 . S
C935 C936 1.363 . S
C935 H947 0.929 . S
C936 C935 1.363 . S
C936 N938 1.375 . S
C936 H954 0.931 . S
C937 N934 1.311 . S
C937 N938 1.347 . S
C937 H948 0.929 . S
N938 C936 1.375 . S
N938 C937 1.347 . S
C939 C942 1.365 . S
C939 N944 1.328 . S
C939 H945 0.929 . S
C940 C941 1.362 . S
C940 C943 1.378 . S
C940 H955 0.929 . S
C941 C940 1.362 . S
C941 C942 1.366 . S
C942 C939 1.365 . S
C942 C941 1.366 . S
C942 H956 0.930 . S
C943 C940 1.378 . S
C943 N944 1.315 . S
C943 H946 0.930 . S
N944 Co924 2.194 . S
N944 C939 1.328 . S
N944 C943 1.315 . S
H945 C939 0.929 . S
H946 C943 0.930 . S
H947 C935 0.929 . S
H948 C937 0.929 . S
O949 Co924 2.351 . S
O949 C952 1.244 . S
O950 Co924 2.155 . S
O950 C952 1.240 . S
O951 Co924 2.096 . S
O951 C932 1.247 . S
C952 O949 1.244 . S
C952 O950 1.240 . S
H953 C927 0.931 . S
H954 C936 0.931 . S
H955 C940 0.929 . S
H956 C942 0.930 . S
Co957 N961 2.148 1_554 S
Co957 N967 2.128 . S
Co957 N977 2.194 . S
Co957 O982 2.351 1_554 S
Co957 O983 2.155 . S
Co957 O984 2.096 . S
C958 N961 1.301 . S
C958 N962 1.328 . S
C958 H963 0.930 . S
C959 C960 1.333 . S
C959 N961 1.317 . S
C959 H964 0.930 1_556 S
C960 C959 1.333 . S
C960 N962 1.350 . S
C960 H986 0.931 . S
N961 Co957 2.148 1_556 S
N961 C958 1.301 . S
N961 C959 1.317 . S
N962 C958 1.328 . S
N962 C960 1.350 . S
H963 C958 0.930 . S
H964 C959 0.930 1_554 S
C965 O966 1.224 . S
C965 O984 1.247 . S
O966 C965 1.224 . S
N967 Co957 2.128 . S
N967 C968 1.355 1_455 S
N967 C970 1.311 . S
C968 N967 1.355 1_655 S
C968 C969 1.363 . S
C968 H980 0.929 . S
C969 C968 1.363 . S
C969 N971 1.375 . S
C969 H987 0.931 . S
C970 N967 1.311 . S
C970 N971 1.347 1_455 S
C970 H981 0.929 . S
N971 C969 1.375 . S
N971 C970 1.347 1_655 S
C972 C975 1.365 . S
C972 N977 1.328 1_556 S
C972 H978 0.929 . S
C973 C974 1.362 . S
C973 C976 1.378 . S
C973 H988 0.929 . S
C974 C973 1.362 . S
C974 C975 1.366 1_554 S
C975 C972 1.365 . S
C975 C974 1.366 1_556 S
C975 H989 0.930 1_455 S
C976 C973 1.378 . S
C976 N977 1.315 . S
C976 H979 0.930 . S
N977 Co957 2.194 . S
N977 C972 1.328 1_554 S
N977 C976 1.315 . S
H978 C972 0.929 . S
H979 C976 0.930 . S
H980 C968 0.929 . S
H981 C970 0.929 . S
O982 Co957 2.351 1_556 S
O982 C985 1.244 . S
O983 Co957 2.155 . S
O983 C985 1.240 1_554 S
O984 Co957 2.096 . S
O984 C965 1.247 . S
C985 O982 1.244 . S
C985 O983 1.240 1_556 S
H986 C960 0.931 . S
H987 C969 0.931 . S
H988 C973 0.929 . S
H989 C975 0.930 1_655 S
Co990 N994 2.148 . S
Co990 N1000 2.128 . S
Co990 N1010 2.194 . S
Co990 O1015 2.351 . S
Co990 O1016 2.155 . S
Co990 O1017 2.096 . S
C991 N994 1.301 . S
C991 N995 1.328 . S
C991 H996 0.930 . S
C992 C993 1.333 . S
C992 N994 1.317 . S
C992 H997 0.930 . S
C993 C992 1.333 . S
C993 N995 1.350 . S
C993 H1019 0.931 . S
N994 Co990 2.148 . S
N994 C991 1.301 . S
N994 C992 1.317 . S
N995 C991 1.328 . S
N995 C993 1.350 . S
H996 C991 0.930 . S
H997 C992 0.930 . S
C998 O999 1.224 . S
C998 O1017 1.247 . S
O999 C998 1.224 . S
N1000 Co990 2.128 . S
N1000 C1001 1.355 . S
N1000 C1003 1.311 . S
C1001 N1000 1.355 . S
C1001 C1002 1.363 . S
C1001 H1013 0.929 . S
C1002 C1001 1.363 . S
C1002 N1004 1.375 . S
C1002 H1020 0.931 . S
C1003 N1000 1.311 . S
C1003 N1004 1.347 . S
C1003 H1014 0.929 . S
N1004 C1002 1.375 . S
N1004 C1003 1.347 . S
C1005 C1008 1.365 . S
C1005 N1010 1.328 . S
C1005 H1011 0.929 . S
C1006 C1007 1.362 . S
C1006 C1009 1.378 . S
C1006 H1021 0.929 . S
C1007 C1006 1.362 . S
C1007 C1008 1.366 . S
C1008 C1005 1.365 . S
C1008 C1007 1.366 . S
C1008 H1022 0.930 . S
C1009 C1006 1.378 . S
C1009 N1010 1.315 . S
C1009 H1012 0.930 . S
N1010 Co990 2.194 . S
N1010 C1005 1.328 . S
N1010 C1009 1.315 . S
H1011 C1005 0.929 . S
H1012 C1009 0.930 . S
H1013 C1001 0.929 . S
H1014 C1003 0.929 . S
O1015 Co990 2.351 . S
O1015 C1018 1.244 . S
O1016 Co990 2.155 . S
O1016 C1018 1.240 . S
O1017 Co990 2.096 . S
O1017 C998 1.247 . S
C1018 O1015 1.244 . S
C1018 O1016 1.240 . S
H1019 C993 0.931 . S
H1020 C1002 0.931 . S
H1021 C1006 0.929 . S
H1022 C1008 0.930 . S
Co1023 N1027 2.148 . S
Co1023 N1033 2.128 . S
Co1023 N1043 2.194 . S
Co1023 O1048 2.351 . S
Co1023 O1049 2.155 . S
Co1023 O1050 2.096 . S
C1024 N1027 1.301 . S
C1024 N1028 1.328 . S
C1024 H1029 0.930 . S
C1025 C1026 1.333 . S
C1025 N1027 1.317 . S
C1025 H1030 0.930 . S
C1026 C1025 1.333 . S
C1026 N1028 1.350 . S
C1026 H1052 0.931 . S
N1027 Co1023 2.148 . S
N1027 C1024 1.301 . S
N1027 C1025 1.317 . S
N1028 C1024 1.328 . S
N1028 C1026 1.350 . S
H1029 C1024 0.930 . S
H1030 C1025 0.930 . S
C1031 O1032 1.224 . S
C1031 O1050 1.247 . S
O1032 C1031 1.224 . S
N1033 Co1023 2.128 . S
N1033 C1034 1.355 . S
N1033 C1036 1.311 . S
C1034 N1033 1.355 . S
C1034 C1035 1.363 . S
C1034 H1046 0.929 . S
C1035 C1034 1.363 . S
C1035 N1037 1.375 . S
C1035 H1053 0.931 . S
C1036 N1033 1.311 . S
C1036 N1037 1.347 . S
C1036 H1047 0.929 . S
N1037 C1035 1.375 . S
N1037 C1036 1.347 . S
C1038 C1041 1.365 . S
C1038 N1043 1.328 . S
C1038 H1044 0.929 . S
C1039 C1040 1.362 . S
C1039 C1042 1.378 . S
C1039 H1054 0.929 . S
C1040 C1039 1.362 . S
C1040 C1041 1.366 . S
C1041 C1038 1.365 . S
C1041 C1040 1.366 . S
C1041 H1055 0.930 . S
C1042 C1039 1.378 . S
C1042 N1043 1.315 . S
C1042 H1045 0.930 . S
N1043 Co1023 2.194 . S
N1043 C1038 1.328 . S
N1043 C1042 1.315 . S
H1044 C1038 0.929 . S
H1045 C1042 0.930 . S
H1046 C1034 0.929 . S
H1047 C1036 0.929 . S
O1048 Co1023 2.351 . S
O1048 C1051 1.244 . S
O1049 Co1023 2.155 . S
O1049 C1051 1.240 . S
O1050 Co1023 2.096 . S
O1050 C1031 1.247 . S
C1051 O1048 1.244 . S
C1051 O1049 1.240 . S
H1052 C1026 0.931 . S
H1053 C1035 0.931 . S
H1054 C1039 0.929 . S
H1055 C1041 0.930 . S
H1056 C1064 0.950 . S
H1057 C1069 0.950 . S
H1058 C1066 0.950 . S
H1059 C1068 0.950 . S
H1060 C1070 0.950 . S
H1061 C1072 0.950 . S
H1062 C1074 0.950 . S
H1063 C1075 0.950 . S
C1064 H1056 0.950 . S
C1064 C1065 1.386 . S
C1064 C1066 1.391 . S
C1065 C1064 1.386 . S
C1065 C1069 1.393 . S
C1066 H1058 0.950 . S
C1066 C1064 1.391 . S
C1066 C1067 1.400 . S
C1067 C1066 1.400 . S
C1067 C1068 1.398 . S
C1067 C1073 1.491 . S
C1068 H1059 0.950 . S
C1068 C1067 1.398 . S
C1068 C1069 1.391 . S
C1069 H1057 0.950 . S
C1069 C1065 1.393 . S
C1069 C1068 1.391 . S
C1070 H1060 0.950 . S
C1070 C1071 1.386 . S
C1070 C1072 1.391 . S
C1071 C1070 1.386 . S
C1071 C1075 1.393 . S
C1072 H1061 0.950 . S
C1072 C1070 1.391 . S
C1072 C1073 1.400 . S
C1073 C1067 1.491 . S
C1073 C1072 1.400 . S
C1073 C1074 1.398 . S
C1074 H1062 0.950 . S
C1074 C1073 1.398 . S
C1074 C1075 1.391 . S
C1075 H1063 0.950 . S
C1075 C1071 1.393 . S
C1075 C1074 1.391 . S
H1076 C1084 0.950 . S
H1077 C1089 0.950 . S
H1078 C1086 0.950 . S
H1079 C1088 0.950 . S
H1080 C1090 0.950 . S
H1081 C1092 0.950 . S
H1082 C1094 0.950 . S
H1083 C1095 0.950 . S
C1084 H1076 0.950 . S
C1084 C1085 1.386 . S
C1084 C1086 1.391 . S
C1085 C1084 1.386 . S
C1085 C1089 1.393 . S
C1086 H1078 0.950 . S
C1086 C1084 1.391 . S
C1086 C1087 1.400 . S
C1087 C1086 1.400 . S
C1087 C1088 1.398 . S
C1087 C1093 1.491 . S
C1088 H1079 0.950 . S
C1088 C1087 1.398 . S
C1088 C1089 1.391 . S
C1089 H1077 0.950 . S
C1089 C1085 1.393 . S
C1089 C1088 1.391 . S
C1090 H1080 0.950 . S
C1090 C1091 1.386 . S
C1090 C1092 1.391 . S
C1091 C1090 1.386 . S
C1091 C1095 1.393 . S
C1092 H1081 0.950 . S
C1092 C1090 1.391 . S
C1092 C1093 1.400 . S
C1093 C1087 1.491 . S
C1093 C1092 1.400 . S
C1093 C1094 1.398 . S
C1094 H1082 0.950 . S
C1094 C1093 1.398 . S
C1094 C1095 1.391 . S
C1095 H1083 0.950 . S
C1095 C1091 1.393 . S
C1095 C1094 1.391 . S
H1096 C1104 0.950 . S
H1097 C1109 0.950 . S
H1098 C1106 0.950 . S
H1099 C1108 0.950 . S
H1100 C1110 0.950 . S
H1101 C1112 0.950 . S
H1102 C1114 0.950 . S
H1103 C1115 0.950 . S
C1104 H1096 0.950 . S
C1104 C1105 1.386 . S
C1104 C1106 1.391 . S
C1105 C1104 1.386 . S
C1105 C1109 1.393 . S
C1106 H1098 0.950 . S
C1106 C1104 1.391 . S
C1106 C1107 1.400 . S
C1107 C1106 1.400 . S
C1107 C1108 1.398 . S
C1107 C1113 1.491 . S
C1108 H1099 0.950 . S
C1108 C1107 1.398 . S
C1108 C1109 1.391 . S
C1109 H1097 0.950 . S
C1109 C1105 1.393 . S
C1109 C1108 1.391 . S
C1110 H1100 0.950 . S
C1110 C1111 1.386 . S
C1110 C1112 1.391 . S
C1111 C1110 1.386 . S
C1111 C1115 1.393 . S
C1112 H1101 0.950 . S
C1112 C1110 1.391 . S
C1112 C1113 1.400 . S
C1113 C1107 1.491 . S
C1113 C1112 1.400 . S
C1113 C1114 1.398 . S
C1114 H1102 0.950 . S
C1114 C1113 1.398 . S
C1114 C1115 1.391 . S
C1115 H1103 0.950 . S
C1115 C1111 1.393 . S
C1115 C1114 1.391 . S
H1116 C1124 0.950 . S
H1117 C1129 0.950 . S
H1118 C1126 0.950 . S
H1119 C1128 0.950 . S
H1120 C1130 0.950 . S
H1121 C1132 0.950 . S
H1122 C1134 0.950 . S
H1123 C1135 0.950 . S
C1124 H1116 0.950 . S
C1124 C1125 1.386 . S
C1124 C1126 1.391 . S
C1125 C1124 1.386 . S
C1125 C1129 1.393 . S
C1126 H1118 0.950 . S
C1126 C1124 1.391 . S
C1126 C1127 1.400 . S
C1127 C1126 1.400 . S
C1127 C1128 1.398 . S
C1127 C1133 1.491 . S
C1128 H1119 0.950 . S
C1128 C1127 1.398 . S
C1128 C1129 1.391 . S
C1129 H1117 0.950 . S
C1129 C1125 1.393 . S
C1129 C1128 1.391 . S
C1130 H1120 0.950 . S
C1130 C1131 1.386 . S
C1130 C1132 1.391 . S
C1131 C1130 1.386 . S
C1131 C1135 1.393 . S
C1132 H1121 0.950 . S
C1132 C1130 1.391 . S
C1132 C1133 1.400 . S
C1133 C1127 1.491 . S
C1133 C1132 1.400 . S
C1133 C1134 1.398 . S
C1134 H1122 0.950 . S
C1134 C1133 1.398 . S
C1134 C1135 1.391 . S
C1135 H1123 0.950 . S
C1135 C1131 1.393 . S
C1135 C1134 1.391 . S
H1136 C1144 0.950 . S
H1137 C1149 0.950 . S
H1138 C1146 0.950 . S
H1139 C1148 0.950 . S
H1140 C1150 0.950 . S
H1141 C1152 0.950 . S
H1142 C1154 0.950 . S
H1143 C1155 0.950 . S
C1144 H1136 0.950 . S
C1144 C1145 1.386 . S
C1144 C1146 1.391 . S
C1145 C1144 1.386 . S
C1145 C1149 1.393 . S
C1146 H1138 0.950 . S
C1146 C1144 1.391 . S
C1146 C1147 1.400 . S
C1147 C1146 1.400 . S
C1147 C1148 1.398 . S
C1147 C1153 1.491 . S
C1148 H1139 0.950 . S
C1148 C1147 1.398 . S
C1148 C1149 1.391 . S
C1149 H1137 0.950 . S
C1149 C1145 1.393 . S
C1149 C1148 1.391 . S
C1150 H1140 0.950 . S
C1150 C1151 1.386 . S
C1150 C1152 1.391 . S
C1151 C1150 1.386 . S
C1151 C1155 1.393 . S
C1152 H1141 0.950 . S
C1152 C1150 1.391 . S
C1152 C1153 1.400 . S
C1153 C1147 1.491 . S
C1153 C1152 1.400 . S
C1153 C1154 1.398 . S
C1154 H1142 0.950 . S
C1154 C1153 1.398 . S
C1154 C1155 1.391 . S
C1155 H1143 0.950 . S
C1155 C1151 1.393 . S
C1155 C1154 1.391 . S
H1156 C1164 0.950 . S
H1157 C1169 0.950 . S
H1158 C1166 0.950 . S
H1159 C1168 0.950 . S
H1160 C1170 0.950 . S
H1161 C1172 0.950 . S
H1162 C1174 0.950 . S
H1163 C1175 0.950 . S
C1164 H1156 0.950 . S
C1164 C1165 1.386 . S
C1164 C1166 1.391 . S
C1165 C1164 1.386 . S
C1165 C1169 1.393 . S
C1166 H1158 0.950 . S
C1166 C1164 1.391 . S
C1166 C1167 1.400 . S
C1167 C1166 1.400 . S
C1167 C1168 1.398 . S
C1167 C1173 1.491 . S
C1168 H1159 0.950 . S
C1168 C1167 1.398 . S
C1168 C1169 1.391 . S
C1169 H1157 0.950 . S
C1169 C1165 1.393 . S
C1169 C1168 1.391 . S
C1170 H1160 0.950 . S
C1170 C1171 1.386 . S
C1170 C1172 1.391 . S
C1171 C1170 1.386 . S
C1171 C1175 1.393 . S
C1172 H1161 0.950 . S
C1172 C1170 1.391 . S
C1172 C1173 1.400 . S
C1173 C1167 1.491 . S
C1173 C1172 1.400 . S
C1173 C1174 1.398 . S
C1174 H1162 0.950 . S
C1174 C1173 1.398 . S
C1174 C1175 1.391 . S
C1175 H1163 0.950 . S
C1175 C1171 1.393 . S
C1175 C1174 1.391 . S
H1176 C1184 0.950 . S
H1177 C1189 0.950 . S
H1178 C1186 0.950 . S
H1179 C1188 0.950 . S
H1180 C1190 0.950 . S
H1181 C1192 0.950 . S
H1182 C1194 0.950 . S
H1183 C1195 0.950 . S
C1184 H1176 0.950 . S
C1184 C1185 1.386 . S
C1184 C1186 1.391 . S
C1185 C1184 1.386 . S
C1185 C1189 1.393 . S
C1186 H1178 0.950 . S
C1186 C1184 1.391 . S
C1186 C1187 1.400 . S
C1187 C1186 1.400 . S
C1187 C1188 1.398 . S
C1187 C1193 1.491 . S
C1188 H1179 0.950 . S
C1188 C1187 1.398 . S
C1188 C1189 1.391 . S
C1189 H1177 0.950 . S
C1189 C1185 1.393 . S
C1189 C1188 1.391 . S
C1190 H1180 0.950 . S
C1190 C1191 1.386 . S
C1190 C1192 1.391 . S
C1191 C1190 1.386 . S
C1191 C1195 1.393 . S
C1192 H1181 0.950 . S
C1192 C1190 1.391 . S
C1192 C1193 1.400 . S
C1193 C1187 1.491 . S
C1193 C1192 1.400 . S
C1193 C1194 1.398 . S
C1194 H1182 0.950 . S
C1194 C1193 1.398 . S
C1194 C1195 1.391 . S
C1195 H1183 0.950 . S
C1195 C1191 1.393 . S
C1195 C1194 1.391 . S
H1196 C1204 0.950 . S
H1197 C1209 0.950 . S
H1198 C1206 0.950 . S
H1199 C1208 0.950 . S
H1200 C1210 0.950 . S
H1201 C1212 0.950 . S
H1202 C1214 0.950 . S
H1203 C1215 0.950 . S
C1204 H1196 0.950 . S
C1204 C1205 1.386 . S
C1204 C1206 1.391 . S
C1205 C1204 1.386 . S
C1205 C1209 1.393 . S
C1206 H1198 0.950 . S
C1206 C1204 1.391 . S
C1206 C1207 1.400 . S
C1207 C1206 1.400 . S
C1207 C1208 1.398 . S
C1207 C1213 1.491 . S
C1208 H1199 0.950 . S
C1208 C1207 1.398 . S
C1208 C1209 1.391 . S
C1209 H1197 0.950 . S
C1209 C1205 1.393 . S
C1209 C1208 1.391 . S
C1210 H1200 0.950 . S
C1210 C1211 1.386 . S
C1210 C1212 1.391 . S
C1211 C1210 1.386 . S
C1211 C1215 1.393 . S
C1212 H1201 0.950 . S
C1212 C1210 1.391 . S
C1212 C1213 1.400 . S
C1213 C1207 1.491 . S
C1213 C1212 1.400 . S
C1213 C1214 1.398 . S
C1214 H1202 0.950 . S
C1214 C1213 1.398 . S
C1214 C1215 1.391 . S
C1215 H1203 0.950 . S
C1215 C1211 1.393 . S
C1215 C1214 1.391 . S
H1216 C1224 0.950 . S
H1217 C1229 0.950 . S
H1218 C1226 0.950 . S
H1219 C1228 0.950 . S
H1220 C1230 0.950 . S
H1221 C1232 0.950 . S
H1222 C1234 0.950 . S
H1223 C1235 0.950 . S
C1224 H1216 0.950 . S
C1224 C1225 1.386 . S
C1224 C1226 1.391 . S
C1225 C1224 1.386 . S
C1225 C1229 1.393 . S
C1226 H1218 0.950 . S
C1226 C1224 1.391 . S
C1226 C1227 1.400 . S
C1227 C1226 1.400 . S
C1227 C1228 1.398 . S
C1227 C1233 1.491 . S
C1228 H1219 0.950 . S
C1228 C1227 1.398 . S
C1228 C1229 1.391 . S
C1229 H1217 0.950 . S
C1229 C1225 1.393 . S
C1229 C1228 1.391 . S
C1230 H1220 0.950 . S
C1230 C1231 1.386 . S
C1230 C1232 1.391 . S
C1231 C1230 1.386 . S
C1231 C1235 1.393 . S
C1232 H1221 0.950 . S
C1232 C1230 1.391 . S
C1232 C1233 1.400 . S
C1233 C1227 1.491 . S
C1233 C1232 1.400 . S
C1233 C1234 1.398 . S
C1234 H1222 0.950 . S
C1234 C1233 1.398 . S
C1234 C1235 1.391 . S
C1235 H1223 0.950 . S
C1235 C1231 1.393 . S
C1235 C1234 1.391 . S
H1236 C1244 0.950 . S
H1237 C1249 0.950 . S
H1238 C1246 0.950 . S
H1239 C1248 0.950 . S
H1240 C1250 0.950 . S
H1241 C1252 0.950 . S
H1242 C1254 0.950 . S
H1243 C1255 0.950 . S
C1244 H1236 0.950 . S
C1244 C1245 1.386 . S
C1244 C1246 1.391 . S
C1245 C1244 1.386 . S
C1245 C1249 1.393 . S
C1246 H1238 0.950 . S
C1246 C1244 1.391 . S
C1246 C1247 1.400 . S
C1247 C1246 1.400 . S
C1247 C1248 1.398 . S
C1247 C1253 1.491 . S
C1248 H1239 0.950 . S
C1248 C1247 1.398 . S
C1248 C1249 1.391 . S
C1249 H1237 0.950 . S
C1249 C1245 1.393 . S
C1249 C1248 1.391 . S
C1250 H1240 0.950 . S
C1250 C1251 1.386 . S
C1250 C1252 1.391 . S
C1251 C1250 1.386 . S
C1251 C1255 1.393 . S
C1252 H1241 0.950 . S
C1252 C1250 1.391 . S
C1252 C1253 1.400 . S
C1253 C1247 1.491 . S
C1253 C1252 1.400 . S
C1253 C1254 1.398 . S
C1254 H1242 0.950 . S
C1254 C1253 1.398 . S
C1254 C1255 1.391 . S
C1255 H1243 0.950 . S
C1255 C1251 1.393 . S
C1255 C1254 1.391 . S
H1256 C1264 0.950 . S
H1257 C1269 0.950 . S
H1258 C1266 0.950 . S
H1259 C1268 0.950 . S
H1260 C1270 0.950 . S
H1261 C1272 0.950 . S
H1262 C1274 0.950 . S
H1263 C1275 0.950 . S
C1264 H1256 0.950 . S
C1264 C1265 1.386 . S
C1264 C1266 1.391 . S
C1265 C1264 1.386 . S
C1265 C1269 1.393 . S
C1266 H1258 0.950 . S
C1266 C1264 1.391 . S
C1266 C1267 1.400 . S
C1267 C1266 1.400 . S
C1267 C1268 1.398 . S
C1267 C1273 1.491 . S
C1268 H1259 0.950 . S
C1268 C1267 1.398 . S
C1268 C1269 1.391 . S
C1269 H1257 0.950 . S
C1269 C1265 1.393 . S
C1269 C1268 1.391 . S
C1270 H1260 0.950 . S
C1270 C1271 1.386 . S
C1270 C1272 1.391 . S
C1271 C1270 1.386 . S
C1271 C1275 1.393 . S
C1272 H1261 0.950 . S
C1272 C1270 1.391 . S
C1272 C1273 1.400 . S
C1273 C1267 1.491 . S
C1273 C1272 1.400 . S
C1273 C1274 1.398 . S
C1274 H1262 0.950 . S
C1274 C1273 1.398 . S
C1274 C1275 1.391 . S
C1275 H1263 0.950 . S
C1275 C1271 1.393 . S
C1275 C1274 1.391 . S
H1276 C1284 0.950 . S
H1277 C1289 0.950 . S
H1278 C1286 0.950 . S
H1279 C1288 0.950 . S
H1280 C1290 0.950 . S
H1281 C1292 0.950 . S
H1282 C1294 0.950 . S
H1283 C1295 0.950 . S
C1284 H1276 0.950 . S
C1284 C1285 1.386 . S
C1284 C1286 1.391 . S
C1285 C1284 1.386 . S
C1285 C1289 1.393 . S
C1286 H1278 0.950 . S
C1286 C1284 1.391 . S
C1286 C1287 1.400 . S
C1287 C1286 1.400 . S
C1287 C1288 1.398 . S
C1287 C1293 1.491 . S
C1288 H1279 0.950 . S
C1288 C1287 1.398 . S
C1288 C1289 1.391 . S
C1289 H1277 0.950 . S
C1289 C1285 1.393 . S
C1289 C1288 1.391 . S
C1290 H1280 0.950 . S
C1290 C1291 1.386 . S
C1290 C1292 1.391 . S
C1291 C1290 1.386 . S
C1291 C1295 1.393 . S
C1292 H1281 0.950 . S
C1292 C1290 1.391 . S
C1292 C1293 1.400 . S
C1293 C1287 1.491 . S
C1293 C1292 1.400 . S
C1293 C1294 1.398 . S
C1294 H1282 0.950 . S
C1294 C1293 1.398 . S
C1294 C1295 1.391 . S
C1295 H1283 0.950 . S
C1295 C1291 1.393 . S
C1295 C1294 1.391 . S
H1296 C1304 0.950 . S
H1297 C1309 0.950 . S
H1298 C1306 0.950 . S
H1299 C1308 0.950 . S
H1300 C1310 0.950 . S
H1301 C1312 0.950 . S
H1302 C1314 0.950 . S
H1303 C1315 0.950 . S
C1304 H1296 0.950 . S
C1304 C1305 1.386 . S
C1304 C1306 1.391 . S
C1305 C1304 1.386 . S
C1305 C1309 1.393 . S
C1306 H1298 0.950 . S
C1306 C1304 1.391 . S
C1306 C1307 1.400 . S
C1307 C1306 1.400 . S
C1307 C1308 1.398 . S
C1307 C1313 1.491 . S
C1308 H1299 0.950 . S
C1308 C1307 1.398 . S
C1308 C1309 1.391 . S
C1309 H1297 0.950 . S
C1309 C1305 1.393 . S
C1309 C1308 1.391 . S
C1310 H1300 0.950 . S
C1310 C1311 1.386 . S
C1310 C1312 1.391 . S
C1311 C1310 1.386 . S
C1311 C1315 1.393 . S
C1312 H1301 0.950 . S
C1312 C1310 1.391 . S
C1312 C1313 1.400 . S
C1313 C1307 1.491 . S
C1313 C1312 1.400 . S
C1313 C1314 1.398 . S
C1314 H1302 0.950 . S
C1314 C1313 1.398 . S
C1314 C1315 1.391 . S
C1315 H1303 0.950 . S
C1315 C1311 1.393 . S
C1315 C1314 1.391 . S
H1316 C1324 0.950 . S
H1317 C1329 0.950 . S
H1318 C1326 0.950 . S
H1319 C1328 0.950 . S
H1320 C1330 0.950 . S
H1321 C1332 0.950 . S
H1322 C1334 0.950 . S
H1323 C1335 0.950 . S
C1324 H1316 0.950 . S
C1324 C1325 1.386 . S
C1324 C1326 1.391 . S
C1325 C1324 1.386 . S
C1325 C1329 1.393 . S
C1326 H1318 0.950 . S
C1326 C1324 1.391 . S
C1326 C1327 1.400 . S
C1327 C1326 1.400 . S
C1327 C1328 1.398 . S
C1327 C1333 1.491 . S
C1328 H1319 0.950 . S
C1328 C1327 1.398 . S
C1328 C1329 1.391 . S
C1329 H1317 0.950 . S
C1329 C1325 1.393 . S
C1329 C1328 1.391 . S
C1330 H1320 0.950 . S
C1330 C1331 1.386 . S
C1330 C1332 1.391 . S
C1331 C1330 1.386 . S
C1331 C1335 1.393 . S
C1332 H1321 0.950 . S
C1332 C1330 1.391 . S
C1332 C1333 1.400 . S
C1333 C1327 1.491 . S
C1333 C1332 1.400 . S
C1333 C1334 1.398 . S
C1334 H1322 0.950 . S
C1334 C1333 1.398 . S
C1334 C1335 1.391 . S
C1335 H1323 0.950 . S
C1335 C1331 1.393 . S
C1335 C1334 1.391 . S
H1336 C1344 0.950 . S
H1337 C1349 0.950 . S
H1338 C1346 0.950 . S
H1339 C1348 0.950 . S
H1340 C1350 0.950 . S
H1341 C1352 0.950 . S
H1342 C1354 0.950 . S
H1343 C1355 0.950 . S
C1344 H1336 0.950 . S
C1344 C1345 1.386 . S
C1344 C1346 1.391 . S
C1345 C1344 1.386 . S
C1345 C1349 1.393 . S
C1346 H1338 0.950 . S
C1346 C1344 1.391 . S
C1346 C1347 1.400 . S
C1347 C1346 1.400 . S
C1347 C1348 1.398 . S
C1347 C1353 1.491 . S
C1348 H1339 0.950 . S
C1348 C1347 1.398 . S
C1348 C1349 1.391 . S
C1349 H1337 0.950 . S
C1349 C1345 1.393 . S
C1349 C1348 1.391 . S
C1350 H1340 0.950 . S
C1350 C1351 1.386 . S
C1350 C1352 1.391 . S
C1351 C1350 1.386 . S
C1351 C1355 1.393 . S
C1352 H1341 0.950 . S
C1352 C1350 1.391 . S
C1352 C1353 1.400 . S
C1353 C1347 1.491 . S
C1353 C1352 1.400 . S
C1353 C1354 1.398 . S
C1354 H1342 0.950 . S
C1354 C1353 1.398 . S
C1354 C1355 1.391 . S
C1355 H1343 0.950 . S
C1355 C1351 1.393 . S
C1355 C1354 1.391 . S
H1356 C1364 0.950 . S
H1357 C1369 0.950 . S
H1358 C1366 0.950 . S
H1359 C1368 0.950 . S
H1360 C1370 0.950 . S
H1361 C1372 0.950 . S
H1362 C1374 0.950 . S
H1363 C1375 0.950 . S
C1364 H1356 0.950 . S
C1364 C1365 1.386 . S
C1364 C1366 1.391 . S
C1365 C1364 1.386 . S
C1365 C1369 1.393 . S
C1366 H1358 0.950 . S
C1366 C1364 1.391 . S
C1366 C1367 1.400 . S
C1367 C1366 1.400 . S
C1367 C1368 1.398 . S
C1367 C1373 1.491 . S
C1368 H1359 0.950 . S
C1368 C1367 1.398 . S
C1368 C1369 1.391 . S
C1369 H1357 0.950 . S
C1369 C1365 1.393 . S
C1369 C1368 1.391 . S
C1370 H1360 0.950 . S
C1370 C1371 1.386 . S
C1370 C1372 1.391 . S
C1371 C1370 1.386 . S
C1371 C1375 1.393 . S
C1372 H1361 0.950 . S
C1372 C1370 1.391 . S
C1372 C1373 1.400 . S
C1373 C1367 1.491 . S
C1373 C1372 1.400 . S
C1373 C1374 1.398 . S
C1374 H1362 0.950 . S
C1374 C1373 1.398 . S
C1374 C1375 1.391 . S
C1375 H1363 0.950 . S
C1375 C1371 1.393 . S
C1375 C1374 1.391 . S
H1376 C1384 0.950 . S
H1377 C1389 0.950 . S
H1378 C1386 0.950 . S
H1379 C1388 0.950 . S
H1380 C1390 0.950 . S
H1381 C1392 0.950 . S
H1382 C1394 0.950 . S
H1383 C1395 0.950 . S
C1384 H1376 0.950 . S
C1384 C1385 1.386 . S
C1384 C1386 1.391 . S
C1385 C1384 1.386 . S
C1385 C1389 1.393 . S
C1386 H1378 0.950 . S
C1386 C1384 1.391 . S
C1386 C1387 1.400 . S
C1387 C1386 1.400 . S
C1387 C1388 1.398 . S
C1387 C1393 1.491 1_655 S
C1388 H1379 0.950 . S
C1388 C1387 1.398 . S
C1388 C1389 1.391 . S
C1389 H1377 0.950 . S
C1389 C1385 1.393 . S
C1389 C1388 1.391 . S
C1390 H1380 0.950 . S
C1390 C1391 1.386 . S
C1390 C1392 1.391 . S
C1391 C1390 1.386 . S
C1391 C1395 1.393 . S
C1392 H1381 0.950 . S
C1392 C1390 1.391 . S
C1392 C1393 1.400 . S
C1393 C1387 1.491 1_455 S
C1393 C1392 1.400 . S
C1393 C1394 1.398 . S
C1394 H1382 0.950 . S
C1394 C1393 1.398 . S
C1394 C1395 1.391 . S
C1395 H1383 0.950 . S
C1395 C1391 1.393 . S
C1395 C1394 1.391 . S
H1396 C1404 0.950 . S
H1397 C1409 0.950 . S
H1398 C1406 0.950 . S
H1399 C1408 0.950 . S
H1400 C1410 0.950 . S
H1401 C1412 0.950 . S
H1402 C1414 0.950 . S
H1403 C1415 0.950 . S
C1404 H1396 0.950 . S
C1404 C1405 1.386 1_455 S
C1404 C1406 1.391 . S
C1405 C1404 1.386 1_655 S
C1405 C1409 1.393 . S
C1406 H1398 0.950 . S
C1406 C1404 1.391 . S
C1406 C1407 1.375 1_455 S
C1407 C1406 1.375 1_655 S
C1407 C1408 1.426 . S
C1407 C1413 1.488 1_655 S
C1408 H1399 0.950 . S
C1408 C1407 1.426 . S
C1408 C1409 1.391 . S
C1409 H1397 0.950 . S
C1409 C1405 1.393 . S
C1409 C1408 1.391 . S
C1410 H1400 0.950 . S
C1410 C1411 1.386 1_655 S
C1410 C1412 1.391 . S
C1411 C1410 1.386 1_455 S
C1411 C1415 1.393 . S
C1412 H1401 0.950 . S
C1412 C1410 1.391 . S
C1412 C1413 1.375 1_655 S
C1413 C1407 1.488 1_455 S
C1413 C1412 1.375 1_455 S
C1413 C1414 1.426 . S
C1414 H1402 0.950 . S
C1414 C1413 1.426 . S
C1414 C1415 1.391 . S
C1415 H1403 0.950 . S
C1415 C1411 1.393 . S
C1415 C1414 1.391 . S
H1416 C1424 0.950 . S
H1417 C1429 0.950 . S
H1418 C1426 0.950 . S
H1419 C1428 0.950 . S
H1420 C1430 0.950 . S
H1421 C1432 0.950 . S
H1422 C1434 0.950 . S
H1423 C1435 0.950 . S
C1424 H1416 0.950 . S
C1424 C1425 1.386 . S
C1424 C1426 1.391 . S
C1425 C1424 1.386 . S
C1425 C1429 1.393 . S
C1426 H1418 0.950 . S
C1426 C1424 1.391 . S
C1426 C1427 1.400 . S
C1427 C1426 1.400 . S
C1427 C1428 1.398 . S
C1427 C1433 1.491 . S
C1428 H1419 0.950 . S
C1428 C1427 1.398 . S
C1428 C1429 1.391 . S
C1429 H1417 0.950 . S
C1429 C1425 1.393 . S
C1429 C1428 1.391 . S
C1430 H1420 0.950 . S
C1430 C1431 1.386 . S
C1430 C1432 1.391 . S
C1431 C1430 1.386 . S
C1431 C1435 1.393 . S
C1432 H1421 0.950 . S
C1432 C1430 1.391 . S
C1432 C1433 1.400 . S
C1433 C1427 1.491 . S
C1433 C1432 1.400 . S
C1433 C1434 1.398 . S
C1434 H1422 0.950 . S
C1434 C1433 1.398 . S
C1434 C1435 1.391 . S
C1435 H1423 0.950 . S
C1435 C1431 1.393 . S
C1435 C1434 1.391 . S
H1436 C1444 0.950 . S
H1437 C1449 0.950 . S
H1438 C1446 0.950 . S
H1439 C1448 0.950 . S
H1440 C1450 0.950 . S
H1441 C1452 0.950 . S
H1442 C1454 0.950 . S
H1443 C1455 0.950 . S
C1444 H1436 0.950 . S
C1444 C1445 1.386 1_554 S
C1444 C1446 1.391 . S
C1445 C1444 1.386 1_556 S
C1445 C1449 1.393 . S
C1446 H1438 0.950 . S
C1446 C1444 1.391 . S
C1446 C1447 1.400 1_554 S
C1447 C1446 1.400 1_556 S
C1447 C1448 1.398 . S
C1447 C1453 1.491 . S
C1448 H1439 0.950 . S
C1448 C1447 1.398 . S
C1448 C1449 1.391 . S
C1449 H1437 0.950 . S
C1449 C1445 1.393 . S
C1449 C1448 1.391 . S
C1450 H1440 0.950 . S
C1450 C1451 1.386 . S
C1450 C1452 1.391 . S
C1451 C1450 1.386 . S
C1451 C1455 1.393 1_556 S
C1452 H1441 0.950 . S
C1452 C1450 1.391 . S
C1452 C1453 1.400 . S
C1453 C1447 1.491 . S
C1453 C1452 1.400 . S
C1453 C1454 1.398 1_556 S
C1454 H1442 0.950 . S
C1454 C1453 1.398 1_554 S
C1454 C1455 1.391 . S
C1455 H1443 0.950 . S
C1455 C1451 1.393 1_554 S
C1455 C1454 1.391 . S
H1456 C1464 0.950 . S
H1457 C1469 0.950 . S
H1458 C1466 0.950 . S
H1459 C1468 0.950 . S
H1460 C1470 0.950 . S
H1461 C1472 0.950 . S
H1462 C1474 0.950 . S
H1463 C1475 0.950 . S
C1464 H1456 0.950 . S
C1464 C1465 1.386 . S
C1464 C1466 1.391 . S
C1465 C1464 1.386 . S
C1465 C1469 1.393 . S
C1466 H1458 0.950 . S
C1466 C1464 1.391 . S
C1466 C1467 1.400 . S
C1467 C1466 1.400 . S
C1467 C1468 1.398 . S
C1467 C1473 1.491 1_655 S
C1468 H1459 0.950 . S
C1468 C1467 1.398 . S
C1468 C1469 1.391 . S
C1469 H1457 0.950 . S
C1469 C1465 1.393 . S
C1469 C1468 1.391 . S
C1470 H1460 0.950 . S
C1470 C1471 1.386 . S
C1470 C1472 1.391 . S
C1471 C1470 1.386 . S
C1471 C1475 1.393 . S
C1472 H1461 0.950 . S
C1472 C1470 1.391 . S
C1472 C1473 1.400 . S
C1473 C1467 1.491 1_455 S
C1473 C1472 1.400 . S
C1473 C1474 1.398 . S
C1474 H1462 0.950 . S
C1474 C1473 1.398 . S
C1474 C1475 1.391 . S
C1475 H1463 0.950 . S
C1475 C1471 1.393 . S
C1475 C1474 1.391 . S
H1476 C1484 0.950 . S
H1477 C1489 0.950 . S
H1478 C1486 0.950 . S
H1479 C1488 0.950 . S
H1480 C1490 0.950 . S
H1481 C1492 0.950 . S
H1482 C1494 0.950 . S
H1483 C1495 0.950 . S
C1484 H1476 0.950 . S
C1484 C1485 1.386 . S
C1484 C1486 1.391 . S
C1485 C1484 1.386 . S
C1485 C1489 1.393 . S
C1486 H1478 0.950 . S
C1486 C1484 1.391 . S
C1486 C1487 1.400 . S
C1487 C1486 1.400 . S
C1487 C1488 1.398 . S
C1487 C1493 1.491 . S
C1488 H1479 0.950 . S
C1488 C1487 1.398 . S
C1488 C1489 1.391 . S
C1489 H1477 0.950 . S
C1489 C1485 1.393 . S
C1489 C1488 1.391 . S
C1490 H1480 0.950 . S
C1490 C1491 1.386 . S
C1490 C1492 1.391 . S
C1491 C1490 1.386 . S
C1491 C1495 1.393 . S
C1492 H1481 0.950 . S
C1492 C1490 1.391 . S
C1492 C1493 1.400 . S
C1493 C1487 1.491 . S
C1493 C1492 1.400 . S
C1493 C1494 1.398 . S
C1494 H1482 0.950 . S
C1494 C1493 1.398 . S
C1494 C1495 1.391 . S
C1495 H1483 0.950 . S
C1495 C1491 1.393 . S
C1495 C1494 1.391 . S
H1496 C1504 0.950 . S
H1497 C1509 0.950 . S
H1498 C1506 0.950 . S
H1499 C1508 0.950 . S
H1500 C1510 0.950 . S
H1501 C1512 0.950 . S
H1502 C1514 0.950 . S
H1503 C1515 0.950 . S
C1504 H1496 0.950 . S
C1504 C1505 1.386 . S
C1504 C1506 1.391 . S
C1505 C1504 1.386 . S
C1505 C1509 1.393 . S
C1506 H1498 0.950 . S
C1506 C1504 1.391 . S
C1506 C1507 1.400 . S
C1507 C1506 1.400 . S
C1507 C1508 1.398 . S
C1507 C1513 1.491 . S
C1508 H1499 0.950 . S
C1508 C1507 1.398 . S
C1508 C1509 1.391 . S
C1509 H1497 0.950 . S
C1509 C1505 1.393 . S
C1509 C1508 1.391 . S
C1510 H1500 0.950 . S
C1510 C1511 1.386 . S
C1510 C1512 1.391 . S
C1511 C1510 1.386 . S
C1511 C1515 1.393 . S
C1512 H1501 0.950 . S
C1512 C1510 1.391 . S
C1512 C1513 1.400 . S
C1513 C1507 1.491 . S
C1513 C1512 1.400 . S
C1513 C1514 1.398 . S
C1514 H1502 0.950 . S
C1514 C1513 1.398 . S
C1514 C1515 1.391 . S
C1515 H1503 0.950 . S
C1515 C1511 1.393 . S
C1515 C1514 1.391 . S
H1516 C1524 0.940 1_556 S
H1517 C1529 0.950 . S
H1518 C1526 0.947 1_556 S
H1519 C1528 0.950 . S
H1520 C1530 0.950 . S
H1521 C1532 0.950 . S
H1522 C1534 0.950 . S
H1523 C1535 0.950 . S
C1524 H1516 0.940 1_554 S
C1524 C1525 1.386 . S
C1524 C1526 1.391 . S
C1525 C1524 1.386 . S
C1525 C1529 1.393 1_455 S
C1526 H1518 0.947 1_554 S
C1526 C1524 1.391 . S
C1526 C1527 1.410 . S
C1527 C1526 1.410 . S
C1527 C1528 1.389 1_455 S
C1527 C1533 1.490 1_455 S
C1528 H1519 0.950 . S
C1528 C1527 1.389 1_655 S
C1528 C1529 1.391 . S
C1529 H1517 0.950 . S
C1529 C1525 1.393 1_655 S
C1529 C1528 1.391 . S
C1530 H1520 0.950 . S
C1530 C1531 1.386 . S
C1530 C1532 1.391 . S
C1531 C1530 1.386 . S
C1531 C1535 1.393 1_655 S
C1532 H1521 0.950 . S
C1532 C1530 1.391 . S
C1532 C1533 1.410 . S
C1533 C1527 1.490 1_655 S
C1533 C1532 1.410 . S
C1533 C1534 1.389 1_655 S
C1534 H1522 0.950 . S
C1534 C1533 1.389 1_455 S
C1534 C1535 1.391 . S
C1535 H1523 0.950 . S
C1535 C1531 1.393 1_455 S
C1535 C1534 1.391 . S
H1536 C1544 0.950 . S
H1537 C1549 0.950 . S
H1538 C1546 0.950 . S
H1539 C1548 0.950 . S
H1540 C1550 0.950 . S
H1541 C1552 0.950 . S
H1542 C1554 0.950 . S
H1543 C1555 0.950 . S
C1544 H1536 0.950 . S
C1544 C1545 1.386 . S
C1544 C1546 1.391 . S
C1545 C1544 1.386 . S
C1545 C1549 1.393 . S
C1546 H1538 0.950 . S
C1546 C1544 1.391 . S
C1546 C1547 1.400 . S
C1547 C1546 1.400 . S
C1547 C1548 1.398 . S
C1547 C1553 1.491 1_655 S
C1548 H1539 0.950 . S
C1548 C1547 1.398 . S
C1548 C1549 1.391 . S
C1549 H1537 0.950 . S
C1549 C1545 1.393 . S
C1549 C1548 1.391 . S
C1550 H1540 0.950 . S
C1550 C1551 1.386 . S
C1550 C1552 1.391 . S
C1551 C1550 1.386 . S
C1551 C1555 1.393 . S
C1552 H1541 0.950 . S
C1552 C1550 1.391 . S
C1552 C1553 1.400 . S
C1553 C1547 1.491 1_455 S
C1553 C1552 1.400 . S
C1553 C1554 1.398 . S
C1554 H1542 0.950 . S
C1554 C1553 1.398 . S
C1554 C1555 1.391 . S
C1555 H1543 0.950 . S
C1555 C1551 1.393 . S
C1555 C1554 1.391 . S
H1556 C1564 0.950 . S
H1557 C1569 0.950 . S
H1558 C1566 0.950 . S
H1559 C1568 0.950 . S
H1560 C1570 0.950 . S
H1561 C1572 0.950 . S
H1562 C1574 0.950 . S
H1563 C1575 0.950 . S
C1564 H1556 0.950 . S
C1564 C1565 1.386 1_655 S
C1564 C1566 1.391 . S
C1565 C1564 1.386 1_455 S
C1565 C1569 1.393 . S
C1566 H1558 0.950 . S
C1566 C1564 1.391 . S
C1566 C1567 1.382 1_655 S
C1567 C1566 1.382 1_455 S
C1567 C1568 1.417 . S
C1567 C1573 1.490 1_455 S
C1568 H1559 0.950 . S
C1568 C1567 1.417 . S
C1568 C1569 1.391 . S
C1569 H1557 0.950 . S
C1569 C1565 1.393 . S
C1569 C1568 1.391 . S
C1570 H1560 0.950 . S
C1570 C1571 1.386 1_455 S
C1570 C1572 1.391 . S
C1571 C1570 1.386 1_655 S
C1571 C1575 1.393 . S
C1572 H1561 0.950 . S
C1572 C1570 1.391 . S
C1572 C1573 1.382 1_455 S
C1573 C1567 1.490 1_655 S
C1573 C1572 1.382 1_655 S
C1573 C1574 1.417 . S
C1574 H1562 0.950 . S
C1574 C1573 1.417 . S
C1574 C1575 1.391 . S
C1575 H1563 0.950 . S
C1575 C1571 1.393 . S
C1575 C1574 1.391 . S
H1576 C1584 0.950 . S
H1577 C1589 0.950 . S
H1578 C1586 0.950 . S
H1579 C1588 0.950 . S
H1580 C1590 0.950 . S
H1581 C1592 0.950 . S
H1582 C1594 0.950 . S
H1583 C1595 0.950 . S
C1584 H1576 0.950 . S
C1584 C1585 1.386 . S
C1584 C1586 1.391 . S
C1585 C1584 1.386 . S
C1585 C1589 1.393 . S
C1586 H1578 0.950 . S
C1586 C1584 1.391 . S
C1586 C1587 1.400 . S
C1587 C1586 1.400 . S
C1587 C1588 1.398 . S
C1587 C1593 1.491 . S
C1588 H1579 0.950 . S
C1588 C1587 1.398 . S
C1588 C1589 1.391 . S
C1589 H1577 0.950 . S
C1589 C1585 1.393 . S
C1589 C1588 1.391 . S
C1590 H1580 0.950 . S
C1590 C1591 1.386 . S
C1590 C1592 1.391 . S
C1591 C1590 1.386 . S
C1591 C1595 1.393 . S
C1592 H1581 0.950 . S
C1592 C1590 1.391 . S
C1592 C1593 1.400 . S
C1593 C1587 1.491 . S
C1593 C1592 1.400 . S
C1593 C1594 1.398 . S
C1594 H1582 0.950 . S
C1594 C1593 1.398 . S
C1594 C1595 1.391 . S
C1595 H1583 0.950 . S
C1595 C1591 1.393 . S
C1595 C1594 1.391 . S
H1596 C1604 0.950 . S
H1597 C1609 0.950 . S
H1598 C1606 0.950 . S
H1599 C1608 0.950 . S
H1600 C1610 0.950 . S
H1601 C1612 0.950 . S
H1602 C1614 0.950 . S
H1603 C1615 0.950 . S
C1604 H1596 0.950 . S
C1604 C1605 1.386 . S
C1604 C1606 1.391 . S
C1605 C1604 1.386 . S
C1605 C1609 1.393 1_554 S
C1606 H1598 0.950 . S
C1606 C1604 1.391 . S
C1606 C1607 1.400 . S
C1607 C1606 1.400 . S
C1607 C1608 1.398 1_554 S
C1607 C1613 1.491 . S
C1608 H1599 0.950 . S
C1608 C1607 1.398 1_556 S
C1608 C1609 1.391 . S
C1609 H1597 0.950 . S
C1609 C1605 1.393 1_556 S
C1609 C1608 1.391 . S
C1610 H1600 0.950 . S
C1610 C1611 1.386 1_556 S
C1610 C1612 1.391 . S
C1611 C1610 1.386 1_554 S
C1611 C1615 1.393 . S
C1612 H1601 0.950 . S
C1612 C1610 1.391 . S
C1612 C1613 1.400 1_556 S
C1613 C1607 1.491 . S
C1613 C1612 1.400 1_554 S
C1613 C1614 1.398 . S
C1614 H1602 0.950 . S
C1614 C1613 1.398 . S
C1614 C1615 1.391 . S
C1615 H1603 0.950 . S
C1615 C1611 1.393 . S
C1615 C1614 1.391 . S
H1616 C1624 0.950 . S
H1617 C1629 0.950 . S
H1618 C1626 0.950 . S
H1619 C1628 0.950 . S
H1620 C1630 0.950 . S
H1621 C1632 0.950 . S
H1622 C1634 0.950 . S
H1623 C1635 0.950 . S
C1624 H1616 0.950 . S
C1624 C1625 1.386 . S
C1624 C1626 1.391 . S
C1625 C1624 1.386 . S
C1625 C1629 1.393 . S
C1626 H1618 0.950 . S
C1626 C1624 1.391 . S
C1626 C1627 1.400 . S
C1627 C1626 1.400 . S
C1627 C1628 1.398 . S
C1627 C1633 1.491 1_655 S
C1628 H1619 0.950 . S
C1628 C1627 1.398 . S
C1628 C1629 1.391 . S
C1629 H1617 0.950 . S
C1629 C1625 1.393 . S
C1629 C1628 1.391 . S
C1630 H1620 0.950 . S
C1630 C1631 1.386 . S
C1630 C1632 1.391 . S
C1631 C1630 1.386 . S
C1631 C1635 1.393 . S
C1632 H1621 0.950 . S
C1632 C1630 1.391 . S
C1632 C1633 1.400 . S
C1633 C1627 1.491 1_455 S
C1633 C1632 1.400 . S
C1633 C1634 1.398 . S
C1634 H1622 0.950 . S
C1634 C1633 1.398 . S
C1634 C1635 1.391 . S
C1635 H1623 0.950 . S
C1635 C1631 1.393 . S
C1635 C1634 1.391 . S
H1636 C1644 0.950 . S
H1637 C1649 0.950 . S
H1638 C1646 0.950 . S
H1639 C1648 0.950 . S
H1640 C1650 0.950 . S
H1641 C1652 0.950 . S
H1642 C1654 0.950 . S
H1643 C1655 0.950 . S
C1644 H1636 0.950 . S
C1644 C1645 1.386 . S
C1644 C1646 1.391 . S
C1645 C1644 1.386 . S
C1645 C1649 1.393 . S
C1646 H1638 0.950 . S
C1646 C1644 1.391 . S
C1646 C1647 1.400 . S
C1647 C1646 1.400 . S
C1647 C1648 1.398 . S
C1647 C1653 1.491 . S
C1648 H1639 0.950 . S
C1648 C1647 1.398 . S
C1648 C1649 1.391 . S
C1649 H1637 0.950 . S
C1649 C1645 1.393 . S
C1649 C1648 1.391 . S
C1650 H1640 0.950 . S
C1650 C1651 1.386 . S
C1650 C1652 1.391 . S
C1651 C1650 1.386 . S
C1651 C1655 1.393 . S
C1652 H1641 0.950 . S
C1652 C1650 1.391 . S
C1652 C1653 1.400 . S
C1653 C1647 1.491 . S
C1653 C1652 1.400 . S
C1653 C1654 1.398 . S
C1654 H1642 0.950 . S
C1654 C1653 1.398 . S
C1654 C1655 1.391 . S
C1655 H1643 0.950 . S
C1655 C1651 1.393 . S
C1655 C1654 1.391 . S
H1656 C1664 0.950 . S
H1657 C1669 0.950 . S
H1658 C1666 0.950 . S
H1659 C1668 0.950 . S
H1660 C1670 0.950 . S
H1661 C1672 0.950 . S
H1662 C1674 0.950 . S
H1663 C1675 0.950 . S
C1664 H1656 0.950 . S
C1664 C1665 1.386 . S
C1664 C1666 1.391 . S
C1665 C1664 1.386 . S
C1665 C1669 1.393 . S
C1666 H1658 0.950 . S
C1666 C1664 1.391 . S
C1666 C1667 1.400 . S
C1667 C1666 1.400 . S
C1667 C1668 1.398 . S
C1667 C1673 1.491 . S
C1668 H1659 0.950 . S
C1668 C1667 1.398 . S
C1668 C1669 1.391 . S
C1669 H1657 0.950 . S
C1669 C1665 1.393 . S
C1669 C1668 1.391 . S
C1670 H1660 0.950 . S
C1670 C1671 1.386 . S
C1670 C1672 1.391 . S
C1671 C1670 1.386 . S
C1671 C1675 1.393 . S
C1672 H1661 0.950 . S
C1672 C1670 1.391 . S
C1672 C1673 1.400 . S
C1673 C1667 1.491 . S
C1673 C1672 1.400 . S
C1673 C1674 1.398 . S
C1674 H1662 0.950 . S
C1674 C1673 1.398 . S
C1674 C1675 1.391 . S
C1675 H1663 0.950 . S
C1675 C1671 1.393 . S
C1675 C1674 1.391 . S
H1676 C1684 0.950 . S
H1677 C1689 0.942 1_554 S
H1678 C1686 0.950 . S
H1679 C1688 0.939 1_554 S
H1680 C1690 0.950 . S
H1681 C1692 0.969 . S
H1682 C1694 0.950 . S
H1683 C1695 0.950 . S
C1684 H1676 0.950 . S
C1684 C1685 1.386 . S
C1684 C1686 1.391 . S
C1685 C1684 1.386 . S
C1685 C1689 1.401 1_455 S
C1686 H1678 0.950 . S
C1686 C1684 1.391 . S
C1686 C1687 1.406 . S
C1687 C1686 1.406 . S
C1687 C1688 1.405 1_455 S
C1687 C1693 1.490 1_455 S
C1688 H1679 0.939 1_556 S
C1688 C1687 1.405 1_655 S
C1688 C1689 1.391 . S
C1689 H1677 0.942 1_556 S
C1689 C1685 1.401 1_655 S
C1689 C1688 1.391 . S
C1690 H1680 0.950 . S
C1690 C1691 1.386 1_554 S
C1690 C1692 1.393 . S
C1691 C1690 1.386 1_556 S
C1691 C1695 1.393 1_655 S
C1692 H1681 0.969 . S
C1692 C1690 1.393 . S
C1692 C1693 1.389 1_554 S
C1693 C1687 1.490 1_655 S
C1693 C1692 1.389 1_556 S
C1693 C1694 1.393 1_655 S
C1694 H1682 0.950 . S
C1694 C1693 1.393 1_455 S
C1694 C1695 1.391 . S
C1695 H1683 0.950 . S
C1695 C1691 1.393 1_455 S
C1695 C1694 1.391 . S
H1696 C1704 0.950 . S
H1697 C1709 0.950 . S
H1698 C1706 0.950 . S
H1699 C1708 0.950 . S
H1700 C1710 0.950 . S
H1701 C1712 0.950 . S
H1702 C1714 0.950 . S
H1703 C1715 0.950 . S
C1704 H1696 0.950 . S
C1704 C1705 1.386 . S
C1704 C1706 1.391 . S
C1705 C1704 1.386 . S
C1705 C1709 1.393 . S
C1706 H1698 0.950 . S
C1706 C1704 1.391 . S
C1706 C1707 1.400 . S
C1707 C1706 1.400 . S
C1707 C1708 1.398 . S
C1707 C1713 1.491 . S
C1708 H1699 0.950 . S
C1708 C1707 1.398 . S
C1708 C1709 1.391 . S
C1709 H1697 0.950 . S
C1709 C1705 1.393 . S
C1709 C1708 1.391 . S
C1710 H1700 0.950 . S
C1710 C1711 1.386 . S
C1710 C1712 1.391 . S
C1711 C1710 1.386 . S
C1711 C1715 1.393 . S
C1712 H1701 0.950 . S
C1712 C1710 1.391 . S
C1712 C1713 1.400 . S
C1713 C1707 1.491 . S
C1713 C1712 1.400 . S
C1713 C1714 1.398 . S
C1714 H1702 0.950 . S
C1714 C1713 1.398 . S
C1714 C1715 1.391 . S
C1715 H1703 0.950 . S
C1715 C1711 1.393 . S
C1715 C1714 1.391 . S
H1716 C1724 0.950 . S
H1717 C1729 0.950 . S
H1718 C1726 0.950 . S
H1719 C1728 0.950 . S
H1720 C1730 0.950 . S
H1721 C1732 0.950 . S
H1722 C1734 0.950 . S
H1723 C1735 0.950 1_455 S
C1724 H1716 0.950 . S
C1724 C1725 1.386 . S
C1724 C1726 1.391 . S
C1725 C1724 1.386 . S
C1725 C1729 1.393 . S
C1726 H1718 0.950 . S
C1726 C1724 1.391 . S
C1726 C1727 1.400 . S
C1727 C1726 1.400 . S
C1727 C1728 1.398 . S
C1727 C1733 1.491 . S
C1728 H1719 0.950 . S
C1728 C1727 1.398 . S
C1728 C1729 1.391 . S
C1729 H1717 0.950 . S
C1729 C1725 1.393 . S
C1729 C1728 1.391 . S
C1730 H1720 0.950 . S
C1730 C1731 1.386 . S
C1730 C1732 1.391 . S
C1731 C1730 1.386 . S
C1731 C1735 1.393 . S
C1732 H1721 0.950 . S
C1732 C1730 1.391 . S
C1732 C1733 1.400 . S
C1733 C1727 1.491 . S
C1733 C1732 1.400 . S
C1733 C1734 1.398 . S
C1734 H1722 0.950 . S
C1734 C1733 1.398 . S
C1734 C1735 1.391 . S
C1735 H1723 0.950 1_655 S
C1735 C1731 1.393 . S
C1735 C1734 1.391 . S
H1736 C1744 0.950 . S
H1737 C1749 0.950 . S
H1738 C1746 0.950 . S
H1739 C1748 0.950 . S
H1740 C1750 0.950 . S
H1741 C1752 0.950 . S
H1742 C1754 0.950 . S
H1743 C1755 0.950 . S
C1744 H1736 0.950 . S
C1744 C1745 1.386 . S
C1744 C1746 1.391 . S
C1745 C1744 1.386 . S
C1745 C1749 1.393 . S
C1746 H1738 0.950 . S
C1746 C1744 1.391 . S
C1746 C1747 1.400 . S
C1747 C1746 1.400 . S
C1747 C1748 1.398 . S
C1747 C1753 1.491 . S
C1748 H1739 0.950 . S
C1748 C1747 1.398 . S
C1748 C1749 1.391 . S
C1749 H1737 0.950 . S
C1749 C1745 1.393 . S
C1749 C1748 1.391 . S
C1750 H1740 0.950 . S
C1750 C1751 1.386 . S
C1750 C1752 1.391 . S
C1751 C1750 1.386 . S
C1751 C1755 1.393 . S
C1752 H1741 0.950 . S
C1752 C1750 1.391 . S
C1752 C1753 1.400 . S
C1753 C1747 1.491 . S
C1753 C1752 1.400 . S
C1753 C1754 1.398 . S
C1754 H1742 0.950 . S
C1754 C1753 1.398 . S
C1754 C1755 1.391 . S
C1755 H1743 0.950 . S
C1755 C1751 1.393 . S
C1755 C1754 1.391 . S
H1756 C1764 0.950 . S
H1757 C1769 0.950 . S
H1758 C1766 0.950 . S
H1759 C1768 0.950 . S
H1760 C1770 0.950 . S
H1761 C1772 0.950 . S
H1762 C1774 0.950 . S
H1763 C1775 0.950 . S
C1764 H1756 0.950 . S
C1764 C1765 1.386 . S
C1764 C1766 1.391 . S
C1765 C1764 1.386 . S
C1765 C1769 1.393 . S
C1766 H1758 0.950 . S
C1766 C1764 1.391 . S
C1766 C1767 1.400 . S
C1767 C1766 1.400 . S
C1767 C1768 1.398 . S
C1767 C1773 1.491 . S
C1768 H1759 0.950 . S
C1768 C1767 1.398 . S
C1768 C1769 1.391 . S
C1769 H1757 0.950 . S
C1769 C1765 1.393 . S
C1769 C1768 1.391 . S
C1770 H1760 0.950 . S
C1770 C1771 1.386 . S
C1770 C1772 1.391 . S
C1771 C1770 1.386 . S
C1771 C1775 1.393 . S
C1772 H1761 0.950 . S
C1772 C1770 1.391 . S
C1772 C1773 1.400 . S
C1773 C1767 1.491 . S
C1773 C1772 1.400 . S
C1773 C1774 1.398 . S
C1774 H1762 0.950 . S
C1774 C1773 1.398 . S
C1774 C1775 1.391 . S
C1775 H1763 0.950 . S
C1775 C1771 1.393 . S
C1775 C1774 1.391 . S
H1776 C1784 0.950 . S
H1777 C1789 0.950 . S
H1778 C1786 0.950 . S
H1779 C1788 0.950 . S
H1780 C1790 0.950 . S
H1781 C1792 0.950 . S
H1782 C1794 0.950 . S
H1783 C1795 0.950 . S
C1784 H1776 0.950 . S
C1784 C1785 1.386 . S
C1784 C1786 1.391 . S
C1785 C1784 1.386 . S
C1785 C1789 1.393 . S
C1786 H1778 0.950 . S
C1786 C1784 1.391 . S
C1786 C1787 1.400 . S
C1787 C1786 1.400 . S
C1787 C1788 1.398 . S
C1787 C1793 1.491 . S
C1788 H1779 0.950 . S
C1788 C1787 1.398 . S
C1788 C1789 1.391 . S
C1789 H1777 0.950 . S
C1789 C1785 1.393 . S
C1789 C1788 1.391 . S
C1790 H1780 0.950 . S
C1790 C1791 1.386 . S
C1790 C1792 1.391 . S
C1791 C1790 1.386 . S
C1791 C1795 1.393 . S
C1792 H1781 0.950 . S
C1792 C1790 1.391 . S
C1792 C1793 1.400 . S
C1793 C1787 1.491 . S
C1793 C1792 1.400 . S
C1793 C1794 1.398 . S
C1794 H1782 0.950 . S
C1794 C1793 1.398 . S
C1794 C1795 1.391 . S
C1795 H1783 0.950 . S
C1795 C1791 1.393 . S
C1795 C1794 1.391 . S
H1796 C1804 0.950 . S
H1797 C1809 0.950 . S
H1798 C1806 0.950 . S
H1799 C1808 0.950 . S
H1800 C1810 0.950 . S
H1801 C1812 0.950 . S
H1802 C1814 0.950 . S
H1803 C1815 0.950 . S
C1804 H1796 0.950 . S
C1804 C1805 1.386 . S
C1804 C1806 1.391 . S
C1805 C1804 1.386 . S
C1805 C1809 1.393 . S
C1806 H1798 0.950 . S
C1806 C1804 1.391 . S
C1806 C1807 1.400 . S
C1807 C1806 1.400 . S
C1807 C1808 1.398 . S
C1807 C1813 1.491 . S
C1808 H1799 0.950 . S
C1808 C1807 1.398 . S
C1808 C1809 1.391 . S
C1809 H1797 0.950 . S
C1809 C1805 1.393 . S
C1809 C1808 1.391 . S
C1810 H1800 0.950 . S
C1810 C1811 1.386 . S
C1810 C1812 1.391 . S
C1811 C1810 1.386 . S
C1811 C1815 1.393 . S
C1812 H1801 0.950 . S
C1812 C1810 1.391 . S
C1812 C1813 1.400 . S
C1813 C1807 1.491 . S
C1813 C1812 1.400 . S
C1813 C1814 1.398 . S
C1814 H1802 0.950 . S
C1814 C1813 1.398 . S
C1814 C1815 1.391 . S
C1815 H1803 0.950 . S
C1815 C1811 1.393 . S
C1815 C1814 1.391 . S
H1816 C1824 0.950 . S
H1817 C1829 0.950 . S
H1818 C1826 0.950 . S
H1819 C1828 0.950 . S
H1820 C1830 0.950 . S
H1821 C1832 0.950 . S
H1822 C1834 0.950 . S
H1823 C1835 0.950 . S
C1824 H1816 0.950 . S
C1824 C1825 1.386 . S
C1824 C1826 1.391 . S
C1825 C1824 1.386 . S
C1825 C1829 1.393 . S
C1826 H1818 0.950 . S
C1826 C1824 1.391 . S
C1826 C1827 1.400 . S
C1827 C1826 1.400 . S
C1827 C1828 1.398 . S
C1827 C1833 1.491 . S
C1828 H1819 0.950 . S
C1828 C1827 1.398 . S
C1828 C1829 1.391 . S
C1829 H1817 0.950 . S
C1829 C1825 1.393 . S
C1829 C1828 1.391 . S
C1830 H1820 0.950 . S
C1830 C1831 1.386 . S
C1830 C1832 1.391 . S
C1831 C1830 1.386 . S
C1831 C1835 1.393 . S
C1832 H1821 0.950 . S
C1832 C1830 1.391 . S
C1832 C1833 1.400 . S
C1833 C1827 1.491 . S
C1833 C1832 1.400 . S
C1833 C1834 1.398 . S
C1834 H1822 0.950 . S
C1834 C1833 1.398 . S
C1834 C1835 1.391 . S
C1835 H1823 0.950 . S
C1835 C1831 1.393 . S
C1835 C1834 1.391 . S
H1836 C1844 0.950 1_455 S
H1837 C1849 0.950 . S
H1838 C1846 0.950 . S
H1839 C1848 0.950 . S
H1840 C1850 0.950 . S
H1841 C1852 0.950 . S
H1842 C1854 0.950 . S
H1843 C1855 0.950 . S
C1844 H1836 0.950 1_655 S
C1844 C1845 1.386 . S
C1844 C1846 1.391 . S
C1845 C1844 1.386 . S
C1845 C1849 1.393 . S
C1846 H1838 0.950 . S
C1846 C1844 1.391 . S
C1846 C1847 1.400 . S
C1847 C1846 1.400 . S
C1847 C1848 1.398 . S
C1847 C1853 1.491 . S
C1848 H1839 0.950 . S
C1848 C1847 1.398 . S
C1848 C1849 1.391 . S
C1849 H1837 0.950 . S
C1849 C1845 1.393 . S
C1849 C1848 1.391 . S
C1850 H1840 0.950 . S
C1850 C1851 1.386 . S
C1850 C1852 1.391 . S
C1851 C1850 1.386 . S
C1851 C1855 1.393 . S
C1852 H1841 0.950 . S
C1852 C1850 1.391 . S
C1852 C1853 1.400 . S
C1853 C1847 1.491 . S
C1853 C1852 1.400 . S
C1853 C1854 1.398 . S
C1854 H1842 0.950 . S
C1854 C1853 1.398 . S
C1854 C1855 1.391 . S
C1855 H1843 0.950 . S
C1855 C1851 1.393 . S
C1855 C1854 1.391 . S
H1856 C1864 0.950 . S
H1857 C1869 0.950 . S
H1858 C1866 0.950 . S
H1859 C1868 0.950 . S
H1860 C1870 0.950 . S
H1861 C1872 0.950 . S
H1862 C1874 0.950 . S
H1863 C1875 0.950 . S
C1864 H1856 0.950 . S
C1864 C1865 1.386 . S
C1864 C1866 1.391 . S
C1865 C1864 1.386 . S
C1865 C1869 1.393 . S
C1866 H1858 0.950 . S
C1866 C1864 1.391 . S
C1866 C1867 1.400 . S
C1867 C1866 1.400 . S
C1867 C1868 1.398 . S
C1867 C1873 1.491 . S
C1868 H1859 0.950 . S
C1868 C1867 1.398 . S
C1868 C1869 1.391 . S
C1869 H1857 0.950 . S
C1869 C1865 1.393 . S
C1869 C1868 1.391 . S
C1870 H1860 0.950 . S
C1870 C1871 1.386 . S
C1870 C1872 1.391 . S
C1871 C1870 1.386 . S
C1871 C1875 1.393 . S
C1872 H1861 0.950 . S
C1872 C1870 1.391 . S
C1872 C1873 1.400 . S
C1873 C1867 1.491 . S
C1873 C1872 1.400 . S
C1873 C1874 1.398 . S
C1874 H1862 0.950 . S
C1874 C1873 1.398 . S
C1874 C1875 1.391 . S
C1875 H1863 0.950 . S
C1875 C1871 1.393 . S
C1875 C1874 1.391 . S
H1876 C1884 0.950 1_655 S
H1877 C1889 0.950 . S
H1878 C1886 0.950 . S
H1879 C1888 0.950 . S
H1880 C1890 0.950 . S
H1881 C1892 0.950 . S
H1882 C1894 0.950 . S
H1883 C1895 0.950 . S
C1884 H1876 0.950 1_455 S
C1884 C1885 1.386 . S
C1884 C1886 1.391 . S
C1885 C1884 1.386 . S
C1885 C1889 1.393 . S
C1886 H1878 0.950 . S
C1886 C1884 1.391 . S
C1886 C1887 1.400 . S
C1887 C1886 1.400 . S
C1887 C1888 1.398 . S
C1887 C1893 1.491 . S
C1888 H1879 0.950 . S
C1888 C1887 1.398 . S
C1888 C1889 1.391 . S
C1889 H1877 0.950 . S
C1889 C1885 1.393 . S
C1889 C1888 1.391 . S
C1890 H1880 0.950 . S
C1890 C1891 1.386 . S
C1890 C1892 1.391 . S
C1891 C1890 1.386 . S
C1891 C1895 1.393 . S
C1892 H1881 0.950 . S
C1892 C1890 1.391 . S
C1892 C1893 1.400 . S
C1893 C1887 1.491 . S
C1893 C1892 1.400 . S
C1893 C1894 1.398 . S
C1894 H1882 0.950 . S
C1894 C1893 1.398 . S
C1894 C1895 1.391 . S
C1895 H1883 0.950 . S
C1895 C1891 1.393 . S
C1895 C1894 1.391 . S
H1896 C1904 0.950 . S
H1897 C1909 0.950 . S
H1898 C1906 0.950 . S
H1899 C1908 0.950 . S
H1900 C1910 0.950 . S
H1901 C1912 0.950 . S
H1902 C1914 0.950 . S
H1903 C1915 0.950 . S
C1904 H1896 0.950 . S
C1904 C1905 1.386 . S
C1904 C1906 1.391 . S
C1905 C1904 1.386 . S
C1905 C1909 1.393 . S
C1906 H1898 0.950 . S
C1906 C1904 1.391 . S
C1906 C1907 1.400 . S
C1907 C1906 1.400 . S
C1907 C1908 1.398 . S
C1907 C1913 1.491 . S
C1908 H1899 0.950 . S
C1908 C1907 1.398 . S
C1908 C1909 1.391 . S
C1909 H1897 0.950 . S
C1909 C1905 1.393 . S
C1909 C1908 1.391 . S
C1910 H1900 0.950 . S
C1910 C1911 1.386 . S
C1910 C1912 1.391 . S
C1911 C1910 1.386 . S
C1911 C1915 1.393 . S
C1912 H1901 0.950 . S
C1912 C1910 1.391 . S
C1912 C1913 1.400 . S
C1913 C1907 1.491 . S
C1913 C1912 1.400 . S
C1913 C1914 1.398 . S
C1914 H1902 0.950 . S
C1914 C1913 1.398 . S
C1914 C1915 1.391 . S
C1915 H1903 0.950 . S
C1915 C1911 1.393 . S
C1915 C1914 1.391 . S
H1916 C1924 0.950 . S
H1917 C1929 0.950 . S
H1918 C1926 0.950 . S
H1919 C1928 0.950 . S
H1920 C1930 0.950 . S
H1921 C1932 0.950 . S
H1922 C1934 0.950 . S
H1923 C1935 0.950 . S
C1924 H1916 0.950 . S
C1924 C1925 1.386 . S
C1924 C1926 1.391 . S
C1925 C1924 1.386 . S
C1925 C1929 1.393 . S
C1926 H1918 0.950 . S
C1926 C1924 1.391 . S
C1926 C1927 1.400 . S
C1927 C1926 1.400 . S
C1927 C1928 1.398 . S
C1927 C1933 1.491 . S
C1928 H1919 0.950 . S
C1928 C1927 1.398 . S
C1928 C1929 1.391 . S
C1929 H1917 0.950 . S
C1929 C1925 1.393 . S
C1929 C1928 1.391 . S
C1930 H1920 0.950 . S
C1930 C1931 1.386 . S
C1930 C1932 1.391 . S
C1931 C1930 1.386 . S
C1931 C1935 1.393 . S
C1932 H1921 0.950 . S
C1932 C1930 1.391 . S
C1932 C1933 1.400 . S
C1933 C1927 1.491 . S
C1933 C1932 1.400 . S
C1933 C1934 1.398 . S
C1934 H1922 0.950 . S
C1934 C1933 1.398 . S
C1934 C1935 1.391 . S
C1935 H1923 0.950 . S
C1935 C1931 1.393 . S
C1935 C1934 1.391 . S
H1936 C1944 0.950 . S
H1937 C1949 0.950 . S
H1938 C1946 0.950 . S
H1939 C1948 0.950 . S
H1940 C1950 0.950 . S
H1941 C1952 0.950 . S
H1942 C1954 0.950 . S
H1943 C1955 0.950 . S
C1944 H1936 0.950 . S
C1944 C1945 1.386 . S
C1944 C1946 1.391 . S
C1945 C1944 1.386 . S
C1945 C1949 1.393 . S
C1946 H1938 0.950 . S
C1946 C1944 1.391 . S
C1946 C1947 1.400 . S
C1947 C1946 1.400 . S
C1947 C1948 1.398 . S
C1947 C1953 1.491 . S
C1948 H1939 0.950 . S
C1948 C1947 1.398 . S
C1948 C1949 1.391 . S
C1949 H1937 0.950 . S
C1949 C1945 1.393 . S
C1949 C1948 1.391 . S
C1950 H1940 0.950 . S
C1950 C1951 1.386 . S
C1950 C1952 1.391 . S
C1951 C1950 1.386 . S
C1951 C1955 1.393 . S
C1952 H1941 0.950 . S
C1952 C1950 1.391 . S
C1952 C1953 1.400 . S
C1953 C1947 1.491 . S
C1953 C1952 1.400 . S
C1953 C1954 1.398 . S
C1954 H1942 0.950 . S
C1954 C1953 1.398 . S
C1954 C1955 1.391 . S
C1955 H1943 0.950 . S
C1955 C1951 1.393 . S
C1955 C1954 1.391 . S
H1956 C1964 0.950 . S
H1957 C1969 0.950 . S
H1958 C1966 0.950 . S
H1959 C1968 0.950 . S
H1960 C1970 0.950 . S
H1961 C1972 0.950 . S
H1962 C1974 0.950 . S
H1963 C1975 0.950 . S
C1964 H1956 0.950 . S
C1964 C1965 1.386 . S
C1964 C1966 1.391 . S
C1965 C1964 1.386 . S
C1965 C1969 1.393 . S
C1966 H1958 0.950 . S
C1966 C1964 1.391 . S
C1966 C1967 1.400 . S
C1967 C1966 1.400 . S
C1967 C1968 1.398 . S
C1967 C1973 1.491 . S
C1968 H1959 0.950 . S
C1968 C1967 1.398 . S
C1968 C1969 1.391 . S
C1969 H1957 0.950 . S
C1969 C1965 1.393 . S
C1969 C1968 1.391 . S
C1970 H1960 0.950 . S
C1970 C1971 1.386 . S
C1970 C1972 1.391 . S
C1971 C1970 1.386 . S
C1971 C1975 1.393 . S
C1972 H1961 0.950 . S
C1972 C1970 1.391 . S
C1972 C1973 1.400 . S
C1973 C1967 1.491 . S
C1973 C1972 1.400 . S
C1973 C1974 1.398 . S
C1974 H1962 0.950 . S
C1974 C1973 1.398 . S
C1974 C1975 1.391 . S
C1975 H1963 0.950 . S
C1975 C1971 1.393 . S
C1975 C1974 1.391 . S
H1976 C1984 0.950 . S
H1977 C1989 0.950 . S
H1978 C1986 0.950 . S
H1979 C1988 0.950 . S
H1980 C1990 0.950 . S
H1981 C1992 0.950 . S
H1982 C1994 0.950 . S
H1983 C1995 0.950 . S
C1984 H1976 0.950 . S
C1984 C1985 1.386 . S
C1984 C1986 1.391 . S
C1985 C1984 1.386 . S
C1985 C1989 1.393 . S
C1986 H1978 0.950 . S
C1986 C1984 1.391 . S
C1986 C1987 1.400 . S
C1987 C1986 1.400 . S
C1987 C1988 1.398 . S
C1987 C1993 1.491 . S
C1988 H1979 0.950 . S
C1988 C1987 1.398 . S
C1988 C1989 1.391 . S
C1989 H1977 0.950 . S
C1989 C1985 1.393 . S
C1989 C1988 1.391 . S
C1990 H1980 0.950 . S
C1990 C1991 1.386 . S
C1990 C1992 1.391 . S
C1991 C1990 1.386 . S
C1991 C1995 1.393 . S
C1992 H1981 0.950 . S
C1992 C1990 1.391 . S
C1992 C1993 1.400 . S
C1993 C1987 1.491 . S
C1993 C1992 1.400 . S
C1993 C1994 1.398 . S
C1994 H1982 0.950 . S
C1994 C1993 1.398 . S
C1994 C1995 1.391 . S
C1995 H1983 0.950 . S
C1995 C1991 1.393 . S
C1995 C1994 1.391 . S
H1996 C2004 0.950 . S
H1997 C2009 0.950 . S
H1998 C2006 0.950 . S
H1999 C2008 0.950 . S
H2000 C2010 0.933 1_655 S
H2001 C2012 0.950 . S
H2002 C2014 0.950 . S
H2003 C2015 0.950 . S
C2004 H1996 0.950 . S
C2004 C2005 1.386 . S
C2004 C2006 1.391 . S
C2005 C2004 1.386 . S
C2005 C2009 1.393 . S
C2006 H1998 0.950 . S
C2006 C2004 1.391 . S
C2006 C2007 1.400 . S
C2007 C2006 1.400 . S
C2007 C2008 1.398 . S
C2007 C2013 1.491 . S
C2008 H1999 0.950 . S
C2008 C2007 1.398 . S
C2008 C2009 1.391 . S
C2009 H1997 0.950 . S
C2009 C2005 1.393 . S
C2009 C2008 1.391 . S
C2010 H2000 0.933 1_455 S
C2010 C2011 1.386 . S
C2010 C2012 1.391 . S
C2011 C2010 1.386 . S
C2011 C2015 1.393 . S
C2012 H2001 0.950 . S
C2012 C2010 1.391 . S
C2012 C2013 1.400 . S
C2013 C2007 1.491 . S
C2013 C2012 1.400 . S
C2013 C2014 1.398 . S
C2014 H2002 0.950 . S
C2014 C2013 1.398 . S
C2014 C2015 1.391 . S
C2015 H2003 0.950 . S
C2015 C2011 1.393 . S
C2015 C2014 1.391 . S
H2016 C2024 0.950 . S
H2017 C2029 0.950 . S
H2018 C2026 0.950 . S
H2019 C2028 0.950 . S
H2020 C2030 0.950 . S
H2021 C2032 0.950 . S
H2022 C2034 0.950 . S
H2023 C2035 0.950 . S
C2024 H2016 0.950 . S
C2024 C2025 1.386 . S
C2024 C2026 1.391 . S
C2025 C2024 1.386 . S
C2025 C2029 1.393 . S
C2026 H2018 0.950 . S
C2026 C2024 1.391 . S
C2026 C2027 1.400 . S
C2027 C2026 1.400 . S
C2027 C2028 1.398 . S
C2027 C2033 1.491 . S
C2028 H2019 0.950 . S
C2028 C2027 1.398 . S
C2028 C2029 1.391 . S
C2029 H2017 0.950 . S
C2029 C2025 1.393 . S
C2029 C2028 1.391 . S
C2030 H2020 0.950 . S
C2030 C2031 1.386 . S
C2030 C2032 1.391 . S
C2031 C2030 1.386 . S
C2031 C2035 1.393 . S
C2032 H2021 0.950 . S
C2032 C2030 1.391 . S
C2032 C2033 1.400 . S
C2033 C2027 1.491 . S
C2033 C2032 1.400 . S
C2033 C2034 1.398 . S
C2034 H2022 0.950 . S
C2034 C2033 1.398 . S
C2034 C2035 1.391 . S
C2035 H2023 0.950 . S
C2035 C2031 1.393 . S
C2035 C2034 1.391 . S
H2036 C2044 0.950 . S
H2037 C2049 0.950 . S
H2038 C2046 0.950 . S
H2039 C2048 0.950 . S
H2040 C2050 0.950 . S
H2041 C2052 0.950 . S
H2042 C2054 0.950 . S
H2043 C2055 0.950 . S
C2044 H2036 0.950 . S
C2044 C2045 1.386 . S
C2044 C2046 1.391 . S
C2045 C2044 1.386 . S
C2045 C2049 1.393 . S
C2046 H2038 0.950 . S
C2046 C2044 1.391 . S
C2046 C2047 1.400 . S
C2047 C2046 1.400 . S
C2047 C2048 1.398 . S
C2047 C2053 1.491 . S
C2048 H2039 0.950 . S
C2048 C2047 1.398 . S
C2048 C2049 1.391 . S
C2049 H2037 0.950 . S
C2049 C2045 1.393 . S
C2049 C2048 1.391 . S
C2050 H2040 0.950 . S
C2050 C2051 1.386 . S
C2050 C2052 1.391 . S
C2051 C2050 1.386 . S
C2051 C2055 1.393 . S
C2052 H2041 0.950 . S
C2052 C2050 1.391 . S
C2052 C2053 1.400 . S
C2053 C2047 1.491 . S
C2053 C2052 1.400 . S
C2053 C2054 1.398 . S
C2054 H2042 0.950 . S
C2054 C2053 1.398 . S
C2054 C2055 1.391 . S
C2055 H2043 0.950 . S
C2055 C2051 1.393 . S
C2055 C2054 1.391 . S
H2056 C2064 0.950 . S
H2057 C2069 0.950 . S
H2058 C2066 0.950 . S
H2059 C2068 0.950 . S
H2060 C2070 0.950 . S
H2061 C2072 0.950 . S
H2062 C2074 0.950 . S
H2063 C2075 0.950 . S
C2064 H2056 0.950 . S
C2064 C2065 1.386 . S
C2064 C2066 1.391 . S
C2065 C2064 1.386 . S
C2065 C2069 1.393 . S
C2066 H2058 0.950 . S
C2066 C2064 1.391 . S
C2066 C2067 1.400 . S
C2067 C2066 1.400 . S
C2067 C2068 1.398 . S
C2067 C2073 1.491 . S
C2068 H2059 0.950 . S
C2068 C2067 1.398 . S
C2068 C2069 1.391 . S
C2069 H2057 0.950 . S
C2069 C2065 1.393 . S
C2069 C2068 1.391 . S
C2070 H2060 0.950 . S
C2070 C2071 1.386 . S
C2070 C2072 1.391 . S
C2071 C2070 1.386 . S
C2071 C2075 1.393 . S
C2072 H2061 0.950 . S
C2072 C2070 1.391 . S
C2072 C2073 1.400 . S
C2073 C2067 1.491 . S
C2073 C2072 1.400 . S
C2073 C2074 1.398 . S
C2074 H2062 0.950 . S
C2074 C2073 1.398 . S
C2074 C2075 1.391 . S
C2075 H2063 0.950 . S
C2075 C2071 1.393 . S
C2075 C2074 1.391 . S
H2076 C2084 0.950 1_655 S
H2077 C2089 0.950 . S
H2078 C2086 0.950 . S
H2079 C2088 0.950 . S
H2080 C2090 0.950 . S
H2081 C2092 0.950 . S
H2082 C2094 0.950 . S
H2083 C2095 0.950 . S
C2084 H2076 0.950 1_455 S
C2084 C2085 1.386 . S
C2084 C2086 1.391 . S
C2085 C2084 1.386 . S
C2085 C2089 1.393 . S
C2086 H2078 0.950 . S
C2086 C2084 1.391 . S
C2086 C2087 1.400 . S
C2087 C2086 1.400 . S
C2087 C2088 1.398 . S
C2087 C2093 1.491 . S
C2088 H2079 0.950 . S
C2088 C2087 1.398 . S
C2088 C2089 1.391 . S
C2089 H2077 0.950 . S
C2089 C2085 1.393 . S
C2089 C2088 1.391 . S
C2090 H2080 0.950 . S
C2090 C2091 1.386 . S
C2090 C2092 1.391 . S
C2091 C2090 1.386 . S
C2091 C2095 1.393 . S
C2092 H2081 0.950 . S
C2092 C2090 1.391 . S
C2092 C2093 1.400 . S
C2093 C2087 1.491 . S
C2093 C2092 1.400 . S
C2093 C2094 1.398 . S
C2094 H2082 0.950 . S
C2094 C2093 1.398 . S
C2094 C2095 1.391 . S
C2095 H2083 0.950 . S
C2095 C2091 1.393 . S
C2095 C2094 1.391 . S
H2096 C2104 0.950 . S
H2097 C2109 0.950 . S
H2098 C2106 0.950 . S
H2099 C2108 0.950 . S
H2100 C2110 0.950 . S
H2101 C2112 0.950 . S
H2102 C2114 0.950 . S
H2103 C2115 0.950 . S
C2104 H2096 0.950 . S
C2104 C2105 1.386 . S
C2104 C2106 1.391 . S
C2105 C2104 1.386 . S
C2105 C2109 1.393 . S
C2106 H2098 0.950 . S
C2106 C2104 1.391 . S
C2106 C2107 1.400 . S
C2107 C2106 1.400 . S
C2107 C2108 1.398 . S
C2107 C2113 1.491 . S
C2108 H2099 0.950 . S
C2108 C2107 1.398 . S
C2108 C2109 1.391 . S
C2109 H2097 0.950 . S
C2109 C2105 1.393 . S
C2109 C2108 1.391 . S
C2110 H2100 0.950 . S
C2110 C2111 1.386 . S
C2110 C2112 1.391 . S
C2111 C2110 1.386 . S
C2111 C2115 1.393 . S
C2112 H2101 0.950 . S
C2112 C2110 1.391 . S
C2112 C2113 1.400 . S
C2113 C2107 1.491 . S
C2113 C2112 1.400 . S
C2113 C2114 1.398 . S
C2114 H2102 0.950 . S
C2114 C2113 1.398 . S
C2114 C2115 1.391 . S
C2115 H2103 0.950 . S
C2115 C2111 1.393 . S
C2115 C2114 1.391 . S
H2116 C2124 0.950 . S
H2117 C2129 0.950 . S
H2118 C2126 0.950 . S
H2119 C2128 0.950 . S
H2120 C2130 0.950 1_655 S
H2121 C2132 0.950 . S
H2122 C2134 0.950 . S
H2123 C2135 0.950 . S
C2124 H2116 0.950 . S
C2124 C2125 1.386 . S
C2124 C2126 1.391 . S
C2125 C2124 1.386 . S
C2125 C2129 1.393 . S
C2126 H2118 0.950 . S
C2126 C2124 1.391 . S
C2126 C2127 1.400 . S
C2127 C2126 1.400 . S
C2127 C2128 1.398 . S
C2127 C2133 1.491 . S
C2128 H2119 0.950 . S
C2128 C2127 1.398 . S
C2128 C2129 1.391 . S
C2129 H2117 0.950 . S
C2129 C2125 1.393 . S
C2129 C2128 1.391 . S
C2130 H2120 0.950 1_455 S
C2130 C2131 1.386 . S
C2130 C2132 1.391 . S
C2131 C2130 1.386 . S
C2131 C2135 1.393 . S
C2132 H2121 0.950 . S
C2132 C2130 1.391 . S
C2132 C2133 1.400 . S
C2133 C2127 1.491 . S
C2133 C2132 1.400 . S
C2133 C2134 1.398 . S
C2134 H2122 0.950 . S
C2134 C2133 1.398 . S
C2134 C2135 1.391 . S
C2135 H2123 0.950 . S
C2135 C2131 1.393 . S
C2135 C2134 1.391 . S
H2136 C2144 0.950 . S
H2137 C2149 0.950 . S
H2138 C2146 0.950 . S
H2139 C2148 0.950 . S
H2140 C2150 0.950 . S
H2141 C2152 0.950 . S
H2142 C2154 0.950 . S
H2143 C2155 0.950 . S
C2144 H2136 0.950 . S
C2144 C2145 1.386 . S
C2144 C2146 1.391 . S
C2145 C2144 1.386 . S
C2145 C2149 1.393 . S
C2146 H2138 0.950 . S
C2146 C2144 1.391 . S
C2146 C2147 1.400 . S
C2147 C2146 1.400 . S
C2147 C2148 1.398 . S
C2147 C2153 1.491 . S
C2148 H2139 0.950 . S
C2148 C2147 1.398 . S
C2148 C2149 1.391 . S
C2149 H2137 0.950 . S
C2149 C2145 1.393 . S
C2149 C2148 1.391 . S
C2150 H2140 0.950 . S
C2150 C2151 1.386 . S
C2150 C2152 1.391 . S
C2151 C2150 1.386 . S
C2151 C2155 1.393 . S
C2152 H2141 0.950 . S
C2152 C2150 1.391 . S
C2152 C2153 1.400 . S
C2153 C2147 1.491 . S
C2153 C2152 1.400 . S
C2153 C2154 1.398 . S
C2154 H2142 0.950 . S
C2154 C2153 1.398 . S
C2154 C2155 1.391 . S
C2155 H2143 0.950 . S
C2155 C2151 1.393 . S
C2155 C2154 1.391 . S
H2156 C2164 0.950 . S
H2157 C2169 0.950 . S
H2158 C2166 0.950 . S
H2159 C2168 0.950 . S
H2160 C2170 0.950 . S
H2161 C2172 0.950 . S
H2162 C2174 0.950 . S
H2163 C2175 0.950 . S
C2164 H2156 0.950 . S
C2164 C2165 1.386 . S
C2164 C2166 1.391 . S
C2165 C2164 1.386 . S
C2165 C2169 1.393 . S
C2166 H2158 0.950 . S
C2166 C2164 1.391 . S
C2166 C2167 1.400 . S
C2167 C2166 1.400 . S
C2167 C2168 1.398 . S
C2167 C2173 1.491 . S
C2168 H2159 0.950 . S
C2168 C2167 1.398 . S
C2168 C2169 1.391 . S
C2169 H2157 0.950 . S
C2169 C2165 1.393 . S
C2169 C2168 1.391 . S
C2170 H2160 0.950 . S
C2170 C2171 1.386 . S
C2170 C2172 1.391 . S
C2171 C2170 1.386 . S
C2171 C2175 1.393 . S
C2172 H2161 0.950 . S
C2172 C2170 1.391 . S
C2172 C2173 1.400 . S
C2173 C2167 1.491 . S
C2173 C2172 1.400 . S
C2173 C2174 1.398 . S
C2174 H2162 0.950 . S
C2174 C2173 1.398 . S
C2174 C2175 1.391 . S
C2175 H2163 0.950 . S
C2175 C2171 1.393 . S
C2175 C2174 1.391 . S
H2176 C2184 0.950 . S
H2177 C2189 0.950 . S
H2178 C2186 0.950 . S
H2179 C2188 0.950 . S
H2180 C2190 0.950 . S
H2181 C2192 0.950 . S
H2182 C2194 0.950 . S
H2183 C2195 0.950 . S
C2184 H2176 0.950 . S
C2184 C2185 1.386 . S
C2184 C2186 1.391 . S
C2185 C2184 1.386 . S
C2185 C2189 1.393 . S
C2186 H2178 0.950 . S
C2186 C2184 1.391 . S
C2186 C2187 1.400 . S
C2187 C2186 1.400 . S
C2187 C2188 1.398 . S
C2187 C2193 1.491 . S
C2188 H2179 0.950 . S
C2188 C2187 1.398 . S
C2188 C2189 1.391 . S
C2189 H2177 0.950 . S
C2189 C2185 1.393 . S
C2189 C2188 1.391 . S
C2190 H2180 0.950 . S
C2190 C2191 1.386 . S
C2190 C2192 1.391 . S
C2191 C2190 1.386 . S
C2191 C2195 1.393 . S
C2192 H2181 0.950 . S
C2192 C2190 1.391 . S
C2192 C2193 1.400 . S
C2193 C2187 1.491 . S
C2193 C2192 1.400 . S
C2193 C2194 1.398 . S
C2194 H2182 0.950 . S
C2194 C2193 1.398 . S
C2194 C2195 1.391 . S
C2195 H2183 0.950 . S
C2195 C2191 1.393 . S
C2195 C2194 1.391 . S
H2196 C2204 0.950 . S
H2197 C2209 0.950 . S
H2198 C2206 0.950 . S
H2199 C2208 0.950 . S
H2200 C2210 0.950 . S
H2201 C2212 0.950 . S
H2202 C2214 0.950 . S
H2203 C2215 0.950 . S
C2204 H2196 0.950 . S
C2204 C2205 1.386 . S
C2204 C2206 1.391 . S
C2205 C2204 1.386 . S
C2205 C2209 1.393 . S
C2206 H2198 0.950 . S
C2206 C2204 1.391 . S
C2206 C2207 1.400 . S
C2207 C2206 1.400 . S
C2207 C2208 1.398 . S
C2207 C2213 1.491 . S
C2208 H2199 0.950 . S
C2208 C2207 1.398 . S
C2208 C2209 1.391 . S
C2209 H2197 0.950 . S
C2209 C2205 1.393 . S
C2209 C2208 1.391 . S
C2210 H2200 0.950 . S
C2210 C2211 1.386 . S
C2210 C2212 1.391 . S
C2211 C2210 1.386 . S
C2211 C2215 1.393 . S
C2212 H2201 0.950 . S
C2212 C2210 1.391 . S
C2212 C2213 1.400 . S
C2213 C2207 1.491 . S
C2213 C2212 1.400 . S
C2213 C2214 1.398 . S
C2214 H2202 0.950 . S
C2214 C2213 1.398 . S
C2214 C2215 1.391 . S
C2215 H2203 0.950 . S
C2215 C2211 1.393 . S
C2215 C2214 1.391 . S
H2216 C2224 0.950 . S
H2217 C2229 0.950 . S
H2218 C2226 0.950 . S
H2219 C2228 0.950 . S
H2220 C2230 0.950 . S
H2221 C2232 0.950 . S
H2222 C2234 0.950 . S
H2223 C2235 0.950 . S
C2224 H2216 0.950 . S
C2224 C2225 1.386 . S
C2224 C2226 1.391 . S
C2225 C2224 1.386 . S
C2225 C2229 1.393 . S
C2226 H2218 0.950 . S
C2226 C2224 1.391 . S
C2226 C2227 1.400 . S
C2227 C2226 1.400 . S
C2227 C2228 1.398 . S
C2227 C2233 1.491 . S
C2228 H2219 0.950 . S
C2228 C2227 1.398 . S
C2228 C2229 1.391 . S
C2229 H2217 0.950 . S
C2229 C2225 1.393 . S
C2229 C2228 1.391 . S
C2230 H2220 0.950 . S
C2230 C2231 1.386 . S
C2230 C2232 1.391 . S
C2231 C2230 1.386 . S
C2231 C2235 1.393 . S
C2232 H2221 0.950 . S
C2232 C2230 1.391 . S
C2232 C2233 1.400 . S
C2233 C2227 1.491 . S
C2233 C2232 1.400 . S
C2233 C2234 1.398 . S
C2234 H2222 0.950 . S
C2234 C2233 1.398 . S
C2234 C2235 1.391 . S
C2235 H2223 0.950 . S
C2235 C2231 1.393 . S
C2235 C2234 1.391 . S
H2236 C2244 0.950 . S
H2237 C2249 0.950 . S
H2238 C2246 0.950 . S
H2239 C2248 0.950 . S
H2240 C2250 0.950 1_455 S
H2241 C2252 0.950 . S
H2242 C2254 0.950 . S
H2243 C2255 0.950 . S
C2244 H2236 0.950 . S
C2244 C2245 1.386 . S
C2244 C2246 1.391 . S
C2245 C2244 1.386 . S
C2245 C2249 1.393 . S
C2246 H2238 0.950 . S
C2246 C2244 1.391 . S
C2246 C2247 1.400 . S
C2247 C2246 1.400 . S
C2247 C2248 1.398 . S
C2247 C2253 1.491 . S
C2248 H2239 0.950 . S
C2248 C2247 1.398 . S
C2248 C2249 1.391 . S
C2249 H2237 0.950 . S
C2249 C2245 1.393 . S
C2249 C2248 1.391 . S
C2250 H2240 0.950 1_655 S
C2250 C2251 1.386 . S
C2250 C2252 1.391 . S
C2251 C2250 1.386 . S
C2251 C2255 1.393 . S
C2252 H2241 0.950 . S
C2252 C2250 1.391 . S
C2252 C2253 1.400 . S
C2253 C2247 1.491 . S
C2253 C2252 1.400 . S
C2253 C2254 1.398 . S
C2254 H2242 0.950 . S
C2254 C2253 1.398 . S
C2254 C2255 1.391 . S
C2255 H2243 0.950 . S
C2255 C2251 1.393 . S
C2255 C2254 1.391 . S
H2256 C2264 0.950 . S
H2257 C2269 0.950 . S
H2258 C2266 0.950 . S
H2259 C2268 0.950 . S
H2260 C2270 0.950 . S
H2261 C2272 0.950 . S
H2262 C2274 0.950 . S
H2263 C2275 0.950 . S
C2264 H2256 0.950 . S
C2264 C2265 1.386 . S
C2264 C2266 1.391 . S
C2265 C2264 1.386 . S
C2265 C2269 1.393 . S
C2266 H2258 0.950 . S
C2266 C2264 1.391 . S
C2266 C2267 1.400 . S
C2267 C2266 1.400 . S
C2267 C2268 1.398 . S
C2267 C2273 1.491 . S
C2268 H2259 0.950 . S
C2268 C2267 1.398 . S
C2268 C2269 1.391 . S
C2269 H2257 0.950 . S
C2269 C2265 1.393 . S
C2269 C2268 1.391 . S
C2270 H2260 0.950 . S
C2270 C2271 1.386 . S
C2270 C2272 1.391 . S
C2271 C2270 1.386 . S
C2271 C2275 1.393 . S
C2272 H2261 0.950 . S
C2272 C2270 1.391 . S
C2272 C2273 1.400 . S
C2273 C2267 1.491 . S
C2273 C2272 1.400 . S
C2273 C2274 1.398 . S
C2274 H2262 0.950 . S
C2274 C2273 1.398 . S
C2274 C2275 1.391 . S
C2275 H2263 0.950 . S
C2275 C2271 1.393 . S
C2275 C2274 1.391 . S
H2276 C2284 0.950 . S
H2277 C2289 0.950 . S
H2278 C2286 0.950 . S
H2279 C2288 0.950 . S
H2280 C2290 0.950 . S
H2281 C2292 0.950 . S
H2282 C2294 0.950 . S
H2283 C2295 0.950 . S
C2284 H2276 0.950 . S
C2284 C2285 1.386 . S
C2284 C2286 1.391 . S
C2285 C2284 1.386 . S
C2285 C2289 1.393 . S
C2286 H2278 0.950 . S
C2286 C2284 1.391 . S
C2286 C2287 1.400 . S
C2287 C2286 1.400 . S
C2287 C2288 1.398 . S
C2287 C2293 1.491 . S
C2288 H2279 0.950 . S
C2288 C2287 1.398 . S
C2288 C2289 1.391 . S
C2289 H2277 0.950 . S
C2289 C2285 1.393 . S
C2289 C2288 1.391 . S
C2290 H2280 0.950 . S
C2290 C2291 1.386 . S
C2290 C2292 1.391 . S
C2291 C2290 1.386 . S
C2291 C2295 1.393 . S
C2292 H2281 0.950 . S
C2292 C2290 1.391 . S
C2292 C2293 1.400 . S
C2293 C2287 1.491 . S
C2293 C2292 1.400 . S
C2293 C2294 1.398 . S
C2294 H2282 0.950 . S
C2294 C2293 1.398 . S
C2294 C2295 1.391 . S
C2295 H2283 0.950 . S
C2295 C2291 1.393 . S
C2295 C2294 1.391 . S
H2296 C2304 0.950 . S
H2297 C2309 0.950 . S
H2298 C2306 0.950 . S
H2299 C2308 0.950 . S
H2300 C2310 0.950 . S
H2301 C2312 0.950 . S
H2302 C2314 0.950 . S
H2303 C2315 0.950 . S
C2304 H2296 0.950 . S
C2304 C2305 1.386 . S
C2304 C2306 1.391 . S
C2305 C2304 1.386 . S
C2305 C2309 1.393 . S
C2306 H2298 0.950 . S
C2306 C2304 1.391 . S
C2306 C2307 1.400 . S
C2307 C2306 1.400 . S
C2307 C2308 1.398 . S
C2307 C2313 1.491 . S
C2308 H2299 0.950 . S
C2308 C2307 1.398 . S
C2308 C2309 1.391 . S
C2309 H2297 0.950 . S
C2309 C2305 1.393 . S
C2309 C2308 1.391 . S
C2310 H2300 0.950 . S
C2310 C2311 1.386 . S
C2310 C2312 1.391 . S
C2311 C2310 1.386 . S
C2311 C2315 1.393 . S
C2312 H2301 0.950 . S
C2312 C2310 1.391 . S
C2312 C2313 1.400 . S
C2313 C2307 1.491 . S
C2313 C2312 1.400 . S
C2313 C2314 1.398 . S
C2314 H2302 0.950 . S
C2314 C2313 1.398 . S
C2314 C2315 1.391 . S
C2315 H2303 0.950 . S
C2315 C2311 1.393 . S
C2315 C2314 1.391 . S
H2316 C2324 0.950 . S
H2317 C2329 0.950 . S
H2318 C2326 0.950 . S
H2319 C2328 0.950 . S
H2320 C2330 0.950 . S
H2321 C2332 0.950 . S
H2322 C2334 0.950 . S
H2323 C2335 0.950 . S
C2324 H2316 0.950 . S
C2324 C2325 1.386 . S
C2324 C2326 1.391 . S
C2325 C2324 1.386 . S
C2325 C2329 1.393 . S
C2326 H2318 0.950 . S
C2326 C2324 1.391 . S
C2326 C2327 1.400 . S
C2327 C2326 1.400 . S
C2327 C2328 1.398 . S
C2327 C2333 1.491 . S
C2328 H2319 0.950 . S
C2328 C2327 1.398 . S
C2328 C2329 1.391 . S
C2329 H2317 0.950 . S
C2329 C2325 1.393 . S
C2329 C2328 1.391 . S
C2330 H2320 0.950 . S
C2330 C2331 1.386 . S
C2330 C2332 1.391 . S
C2331 C2330 1.386 . S
C2331 C2335 1.393 . S
C2332 H2321 0.950 . S
C2332 C2330 1.391 . S
C2332 C2333 1.400 . S
C2333 C2327 1.491 . S
C2333 C2332 1.400 . S
C2333 C2334 1.398 . S
C2334 H2322 0.950 . S
C2334 C2333 1.398 . S
C2334 C2335 1.391 . S
C2335 H2323 0.950 . S
C2335 C2331 1.393 . S
C2335 C2334 1.391 . S
H2336 C2344 0.950 . S
H2337 C2349 0.950 . S
H2338 C2346 0.950 . S
H2339 C2348 0.950 . S
H2340 C2350 0.950 . S
H2341 C2352 0.950 . S
H2342 C2354 0.950 . S
H2343 C2355 0.950 . S
C2344 H2336 0.950 . S
C2344 C2345 1.386 . S
C2344 C2346 1.391 . S
C2345 C2344 1.386 . S
C2345 C2349 1.393 . S
C2346 H2338 0.950 . S
C2346 C2344 1.391 . S
C2346 C2347 1.400 . S
C2347 C2346 1.400 . S
C2347 C2348 1.398 . S
C2347 C2353 1.491 . S
C2348 H2339 0.950 . S
C2348 C2347 1.398 . S
C2348 C2349 1.391 . S
C2349 H2337 0.950 . S
C2349 C2345 1.393 . S
C2349 C2348 1.391 . S
C2350 H2340 0.950 . S
C2350 C2351 1.386 . S
C2350 C2352 1.391 . S
C2351 C2350 1.386 . S
C2351 C2355 1.393 . S
C2352 H2341 0.950 . S
C2352 C2350 1.391 . S
C2352 C2353 1.400 . S
C2353 C2347 1.491 . S
C2353 C2352 1.400 . S
C2353 C2354 1.398 . S
C2354 H2342 0.950 . S
C2354 C2353 1.398 . S
C2354 C2355 1.391 . S
C2355 H2343 0.950 . S
C2355 C2351 1.393 . S
C2355 C2354 1.391 . S
H2356 C2364 0.950 . S
H2357 C2369 0.950 . S
H2358 C2366 0.950 . S
H2359 C2368 0.950 . S
H2360 C2370 0.950 . S
H2361 C2372 0.950 . S
H2362 C2374 0.950 . S
H2363 C2375 0.950 . S
C2364 H2356 0.950 . S
C2364 C2365 1.386 1_655 S
C2364 C2366 1.391 . S
C2365 C2364 1.386 1_455 S
C2365 C2369 1.393 . S
C2366 H2358 0.950 . S
C2366 C2364 1.391 . S
C2366 C2367 1.400 1_655 S
C2367 C2366 1.400 1_455 S
C2367 C2368 1.398 . S
C2367 C2373 1.491 1_465 S
C2368 H2359 0.950 . S
C2368 C2367 1.398 . S
C2368 C2369 1.391 . S
C2369 H2357 0.950 . S
C2369 C2365 1.393 . S
C2369 C2368 1.391 . S
C2370 H2360 0.950 . S
C2370 C2371 1.386 1_455 S
C2370 C2372 1.391 . S
C2371 C2370 1.386 1_655 S
C2371 C2375 1.393 . S
C2372 H2361 0.950 . S
C2372 C2370 1.391 . S
C2372 C2373 1.400 1_455 S
C2373 C2367 1.491 1_645 S
C2373 C2372 1.400 1_655 S
C2373 C2374 1.398 . S
C2374 H2362 0.950 . S
C2374 C2373 1.398 . S
C2374 C2375 1.391 . S
C2375 H2363 0.950 . S
C2375 C2371 1.393 . S
C2375 C2374 1.391 . S
H2376 C2384 0.950 . S
H2377 C2389 0.950 . S
H2378 C2386 0.950 . S
H2379 C2388 0.950 . S
H2380 C2390 0.950 . S
H2381 C2392 0.950 . S
H2382 C2394 0.950 . S
H2383 C2395 0.950 . S
C2384 H2376 0.950 . S
C2384 C2385 1.386 . S
C2384 C2386 1.391 . S
C2385 C2384 1.386 . S
C2385 C2389 1.393 . S
C2386 H2378 0.950 . S
C2386 C2384 1.391 . S
C2386 C2387 1.400 . S
C2387 C2386 1.400 . S
C2387 C2388 1.398 . S
C2387 C2393 1.491 . S
C2388 H2379 0.950 . S
C2388 C2387 1.398 . S
C2388 C2389 1.391 . S
C2389 H2377 0.950 . S
C2389 C2385 1.393 . S
C2389 C2388 1.391 . S
C2390 H2380 0.950 . S
C2390 C2391 1.386 . S
C2390 C2392 1.391 . S
C2391 C2390 1.386 . S
C2391 C2395 1.393 . S
C2392 H2381 0.950 . S
C2392 C2390 1.391 . S
C2392 C2393 1.400 . S
C2393 C2387 1.491 . S
C2393 C2392 1.400 . S
C2393 C2394 1.398 . S
C2394 H2382 0.950 . S
C2394 C2393 1.398 . S
C2394 C2395 1.391 . S
C2395 H2383 0.950 . S
C2395 C2391 1.393 . S
C2395 C2394 1.391 . S
H2396 C2404 0.950 . S
H2397 C2409 0.950 . S
H2398 C2406 0.950 . S
H2399 C2408 0.950 . S
H2400 C2410 0.950 . S
H2401 C2412 0.950 . S
H2402 C2414 0.950 . S
H2403 C2415 0.950 . S
C2404 H2396 0.950 . S
C2404 C2405 1.368 1_556 S
C2404 C2406 1.391 . S
C2405 C2404 1.368 1_554 S
C2405 C2409 1.411 . S
C2406 H2398 0.950 . S
C2406 C2404 1.391 . S
C2406 C2407 1.401 1_556 S
C2407 C2406 1.401 1_554 S
C2407 C2408 1.398 . S
C2407 C2413 1.491 1_564 S
C2408 H2399 0.950 . S
C2408 C2407 1.398 . S
C2408 C2409 1.391 . S
C2409 H2397 0.950 . S
C2409 C2405 1.411 . S
C2409 C2408 1.391 . S
C2410 H2400 0.950 . S
C2410 C2411 1.368 1_554 S
C2410 C2412 1.391 . S
C2411 C2410 1.368 1_556 S
C2411 C2415 1.411 . S
C2412 H2401 0.950 . S
C2412 C2410 1.391 . S
C2412 C2413 1.401 1_554 S
C2413 C2407 1.491 1_546 S
C2413 C2412 1.401 1_556 S
C2413 C2414 1.398 . S
C2414 H2402 0.950 . S
C2414 C2413 1.398 . S
C2414 C2415 1.391 . S
C2415 H2403 0.950 . S
C2415 C2411 1.411 . S
C2415 C2414 1.391 . S
H2416 C2424 0.950 . S
H2417 C2429 0.950 . S
H2418 C2426 0.950 . S
H2419 C2428 0.950 . S
H2420 C2430 0.950 . S
H2421 C2432 0.950 . S
H2422 C2434 0.950 . S
H2423 C2435 0.950 . S
C2424 H2416 0.950 . S
C2424 C2425 1.386 . S
C2424 C2426 1.391 . S
C2425 C2424 1.386 . S
C2425 C2429 1.393 . S
C2426 H2418 0.950 . S
C2426 C2424 1.391 . S
C2426 C2427 1.400 . S
C2427 C2426 1.400 . S
C2427 C2428 1.398 . S
C2427 C2433 1.491 . S
C2428 H2419 0.950 . S
C2428 C2427 1.398 . S
C2428 C2429 1.391 . S
C2429 H2417 0.950 . S
C2429 C2425 1.393 . S
C2429 C2428 1.391 . S
C2430 H2420 0.950 . S
C2430 C2431 1.386 . S
C2430 C2432 1.391 . S
C2431 C2430 1.386 . S
C2431 C2435 1.393 . S
C2432 H2421 0.950 . S
C2432 C2430 1.391 . S
C2432 C2433 1.400 . S
C2433 C2427 1.491 . S
C2433 C2432 1.400 . S
C2433 C2434 1.398 . S
C2434 H2422 0.950 . S
C2434 C2433 1.398 . S
C2434 C2435 1.391 . S
C2435 H2423 0.950 . S
C2435 C2431 1.393 . S
C2435 C2434 1.391 . S
H2436 C2444 0.950 . S
H2437 C2449 0.950 . S
H2438 C2446 0.950 . S
H2439 C2448 0.950 . S
H2440 C2450 0.950 . S
H2441 C2452 0.950 . S
H2442 C2454 0.950 . S
H2443 C2455 0.950 . S
C2444 H2436 0.950 . S
C2444 C2445 1.386 . S
C2444 C2446 1.391 . S
C2445 C2444 1.386 . S
C2445 C2449 1.393 . S
C2446 H2438 0.950 . S
C2446 C2444 1.391 . S
C2446 C2447 1.400 . S
C2447 C2446 1.400 . S
C2447 C2448 1.398 . S
C2447 C2453 1.491 1_545 S
C2448 H2439 0.950 . S
C2448 C2447 1.398 . S
C2448 C2449 1.391 . S
C2449 H2437 0.950 . S
C2449 C2445 1.393 . S
C2449 C2448 1.391 . S
C2450 H2440 0.950 . S
C2450 C2451 1.386 . S
C2450 C2452 1.391 . S
C2451 C2450 1.386 . S
C2451 C2455 1.393 . S
C2452 H2441 0.950 . S
C2452 C2450 1.391 . S
C2452 C2453 1.400 . S
C2453 C2447 1.491 1_565 S
C2453 C2452 1.400 . S
C2453 C2454 1.398 . S
C2454 H2442 0.950 . S
C2454 C2453 1.398 . S
C2454 C2455 1.391 . S
C2455 H2443 0.950 . S
C2455 C2451 1.393 . S
C2455 C2454 1.391 . S
H2456 C2464 0.950 . S
H2457 C2469 0.950 . S
H2458 C2466 0.950 . S
H2459 C2468 0.950 . S
H2460 C2470 0.950 . S
H2461 C2472 0.950 . S
H2462 C2474 0.950 . S
H2463 C2475 0.950 . S
C2464 H2456 0.950 . S
C2464 C2465 1.386 . S
C2464 C2466 1.391 . S
C2465 C2464 1.386 . S
C2465 C2469 1.393 . S
C2466 H2458 0.950 . S
C2466 C2464 1.391 . S
C2466 C2467 1.400 . S
C2467 C2466 1.400 . S
C2467 C2468 1.398 . S
C2467 C2473 1.491 . S
C2468 H2459 0.950 . S
C2468 C2467 1.398 . S
C2468 C2469 1.391 . S
C2469 H2457 0.950 . S
C2469 C2465 1.393 . S
C2469 C2468 1.391 . S
C2470 H2460 0.950 . S
C2470 C2471 1.386 . S
C2470 C2472 1.391 . S
C2471 C2470 1.386 . S
C2471 C2475 1.393 . S
C2472 H2461 0.950 . S
C2472 C2470 1.391 . S
C2472 C2473 1.400 . S
C2473 C2467 1.491 . S
C2473 C2472 1.400 . S
C2473 C2474 1.398 . S
C2474 H2462 0.950 . S
C2474 C2473 1.398 . S
C2474 C2475 1.391 . S
C2475 H2463 0.950 . S
C2475 C2471 1.393 . S
C2475 C2474 1.391 . S
H2476 C2484 0.950 . S
H2477 C2489 0.950 1_455 S
H2478 C2486 0.950 . S
H2479 C2488 0.950 . S
H2480 C2490 0.950 . S
H2481 C2492 0.950 . S
H2482 C2494 0.950 . S
H2483 C2495 0.950 1_655 S
C2484 H2476 0.950 . S
C2484 C2485 1.382 . S
C2484 C2486 1.391 . S
C2485 C2484 1.382 . S
C2485 C2489 1.397 1_556 S
C2486 H2478 0.950 . S
C2486 C2484 1.391 . S
C2486 C2487 1.399 1_556 S
C2487 C2486 1.399 1_554 S
C2487 C2488 1.399 1_655 S
C2487 C2493 1.491 1_664 S
C2488 H2479 0.950 . S
C2488 C2487 1.399 1_455 S
C2488 C2489 1.391 1_455 S
C2489 H2477 0.950 1_655 S
C2489 C2485 1.397 1_554 S
C2489 C2488 1.391 1_655 S
C2490 H2480 0.950 . S
C2490 C2491 1.382 . S
C2490 C2492 1.391 . S
C2491 C2490 1.382 . S
C2491 C2495 1.397 1_554 S
C2492 H2481 0.950 . S
C2492 C2490 1.391 . S
C2492 C2493 1.399 1_554 S
C2493 C2487 1.491 1_446 S
C2493 C2492 1.399 1_556 S
C2493 C2494 1.399 1_455 S
C2494 H2482 0.950 . S
C2494 C2493 1.399 1_655 S
C2494 C2495 1.391 1_655 S
C2495 H2483 0.950 1_455 S
C2495 C2491 1.397 1_556 S
C2495 C2494 1.391 1_455 S
H2496 C2504 0.950 . S
H2497 C2509 0.950 . S
H2498 C2506 0.950 . S
H2499 C2508 0.950 . S
H2500 C2510 0.950 . S
H2501 C2512 0.950 . S
H2502 C2514 0.950 . S
H2503 C2515 0.950 . S
C2504 H2496 0.950 . S
C2504 C2505 1.386 . S
C2504 C2506 1.391 . S
C2505 C2504 1.386 . S
C2505 C2509 1.393 . S
C2506 H2498 0.950 . S
C2506 C2504 1.391 . S
C2506 C2507 1.400 . S
C2507 C2506 1.400 . S
C2507 C2508 1.398 . S
C2507 C2513 1.491 . S
C2508 H2499 0.950 . S
C2508 C2507 1.398 . S
C2508 C2509 1.391 . S
C2509 H2497 0.950 . S
C2509 C2505 1.393 . S
C2509 C2508 1.391 . S
C2510 H2500 0.950 . S
C2510 C2511 1.386 . S
C2510 C2512 1.391 . S
C2511 C2510 1.386 . S
C2511 C2515 1.393 . S
C2512 H2501 0.950 . S
C2512 C2510 1.391 . S
C2512 C2513 1.400 . S
C2513 C2507 1.491 . S
C2513 C2512 1.400 . S
C2513 C2514 1.398 . S
C2514 H2502 0.950 . S
C2514 C2513 1.398 . S
C2514 C2515 1.391 . S
C2515 H2503 0.950 . S
C2515 C2511 1.393 . S
C2515 C2514 1.391 . S
H2516 C2524 0.950 . S
H2517 C2529 0.950 . S
H2518 C2526 0.950 . S
H2519 C2528 0.950 . S
H2520 C2530 0.950 . S
H2521 C2532 0.950 . S
H2522 C2534 0.950 . S
H2523 C2535 0.950 . S
C2524 H2516 0.950 . S
C2524 C2525 1.386 . S
C2524 C2526 1.391 . S
C2525 C2524 1.386 . S
C2525 C2529 1.393 . S
C2526 H2518 0.950 . S
C2526 C2524 1.391 . S
C2526 C2527 1.400 . S
C2527 C2526 1.400 . S
C2527 C2528 1.398 . S
C2527 C2533 1.491 . S
C2528 H2519 0.950 . S
C2528 C2527 1.398 . S
C2528 C2529 1.391 . S
C2529 H2517 0.950 . S
C2529 C2525 1.393 . S
C2529 C2528 1.391 . S
C2530 H2520 0.950 . S
C2530 C2531 1.386 . S
C2530 C2532 1.391 . S
C2531 C2530 1.386 . S
C2531 C2535 1.393 . S
C2532 H2521 0.950 . S
C2532 C2530 1.391 . S
C2532 C2533 1.400 . S
C2533 C2527 1.491 . S
C2533 C2532 1.400 . S
C2533 C2534 1.398 . S
C2534 H2522 0.950 . S
C2534 C2533 1.398 . S
C2534 C2535 1.391 . S
C2535 H2523 0.950 . S
C2535 C2531 1.393 . S
C2535 C2534 1.391 . S
H2536 C2544 0.950 . S
H2537 C2549 0.950 . S
H2538 C2546 0.950 . S
H2539 C2548 0.950 . S
H2540 C2550 0.950 . S
H2541 C2552 0.950 . S
H2542 C2554 0.950 . S
H2543 C2555 0.950 . S
C2544 H2536 0.950 . S
C2544 C2545 1.386 . S
C2544 C2546 1.391 . S
C2545 C2544 1.386 . S
C2545 C2549 1.393 . S
C2546 H2538 0.950 . S
C2546 C2544 1.391 . S
C2546 C2547 1.400 . S
C2547 C2546 1.400 . S
C2547 C2548 1.398 . S
C2547 C2553 1.491 . S
C2548 H2539 0.950 . S
C2548 C2547 1.398 . S
C2548 C2549 1.391 . S
C2549 H2537 0.950 . S
C2549 C2545 1.393 . S
C2549 C2548 1.391 . S
C2550 H2540 0.950 . S
C2550 C2551 1.386 . S
C2550 C2552 1.391 . S
C2551 C2550 1.386 . S
C2551 C2555 1.393 . S
C2552 H2541 0.950 . S
C2552 C2550 1.391 . S
C2552 C2553 1.400 . S
C2553 C2547 1.491 . S
C2553 C2552 1.400 . S
C2553 C2554 1.398 . S
C2554 H2542 0.950 . S
C2554 C2553 1.398 . S
C2554 C2555 1.391 . S
C2555 H2543 0.950 . S
C2555 C2551 1.393 . S
C2555 C2554 1.391 . S
H2556 C2564 0.950 . S
H2557 C2569 0.950 . S
H2558 C2566 0.950 . S
H2559 C2568 0.950 . S
H2560 C2570 0.950 . S
H2561 C2572 0.950 . S
H2562 C2574 0.950 . S
H2563 C2575 0.950 . S
C2564 H2556 0.950 . S
C2564 C2565 1.386 . S
C2564 C2566 1.391 . S
C2565 C2564 1.386 . S
C2565 C2569 1.393 . S
C2566 H2558 0.950 . S
C2566 C2564 1.391 . S
C2566 C2567 1.400 . S
C2567 C2566 1.400 . S
C2567 C2568 1.398 . S
C2567 C2573 1.491 . S
C2568 H2559 0.950 . S
C2568 C2567 1.398 . S
C2568 C2569 1.391 . S
C2569 H2557 0.950 . S
C2569 C2565 1.393 . S
C2569 C2568 1.391 . S
C2570 H2560 0.950 . S
C2570 C2571 1.386 . S
C2570 C2572 1.391 . S
C2571 C2570 1.386 . S
C2571 C2575 1.393 . S
C2572 H2561 0.950 . S
C2572 C2570 1.391 . S
C2572 C2573 1.400 . S
C2573 C2567 1.491 . S
C2573 C2572 1.400 . S
C2573 C2574 1.398 . S
C2574 H2562 0.950 . S
C2574 C2573 1.398 . S
C2574 C2575 1.391 . S
C2575 H2563 0.950 . S
C2575 C2571 1.393 . S
C2575 C2574 1.391 . S
H2576 C2584 0.950 . S
H2577 C2589 0.950 . S
H2578 C2586 0.950 . S
H2579 C2588 0.950 . S
H2580 C2590 0.950 . S
H2581 C2592 0.950 . S
H2582 C2594 0.950 . S
H2583 C2595 0.950 . S
C2584 H2576 0.950 . S
C2584 C2585 1.389 . S
C2584 C2586 1.391 . S
C2585 C2584 1.389 . S
C2585 C2589 1.389 1_556 S
C2586 H2578 0.950 . S
C2586 C2584 1.391 . S
C2586 C2587 1.404 . S
C2587 C2586 1.404 . S
C2587 C2588 1.395 1_556 S
C2587 C2593 1.490 1_556 S
C2588 H2579 0.950 . S
C2588 C2587 1.395 1_554 S
C2588 C2589 1.391 . S
C2589 H2577 0.950 . S
C2589 C2585 1.389 1_554 S
C2589 C2588 1.391 . S
C2590 H2580 0.950 . S
C2590 C2591 1.389 . S
C2590 C2592 1.391 . S
C2591 C2590 1.389 . S
C2591 C2595 1.389 1_554 S
C2592 H2581 0.950 . S
C2592 C2590 1.391 . S
C2592 C2593 1.404 . S
C2593 C2587 1.490 1_554 S
C2593 C2592 1.404 . S
C2593 C2594 1.395 1_554 S
C2594 H2582 0.950 . S
C2594 C2593 1.395 1_556 S
C2594 C2595 1.391 . S
C2595 H2583 0.950 . S
C2595 C2591 1.389 1_556 S
C2595 C2594 1.391 . S
H2596 C2604 0.950 . S
H2597 C2609 0.950 . S
H2598 C2606 0.950 . S
H2599 C2608 0.950 . S
H2600 C2610 0.950 . S
H2601 C2612 0.950 . S
H2602 C2614 0.950 . S
H2603 C2615 0.950 . S
C2604 H2596 0.950 . S
C2604 C2605 1.386 1_455 S
C2604 C2606 1.391 . S
C2605 C2604 1.386 1_655 S
C2605 C2609 1.393 . S
C2606 H2598 0.950 . S
C2606 C2604 1.391 . S
C2606 C2607 1.400 1_455 S
C2607 C2606 1.400 1_655 S
C2607 C2608 1.398 . S
C2607 C2613 1.491 1_655 S
C2608 H2599 0.950 . S
C2608 C2607 1.398 . S
C2608 C2609 1.391 . S
C2609 H2597 0.950 . S
C2609 C2605 1.393 . S
C2609 C2608 1.391 . S
C2610 H2600 0.950 . S
C2610 C2611 1.386 1_655 S
C2610 C2612 1.391 . S
C2611 C2610 1.386 1_455 S
C2611 C2615 1.393 . S
C2612 H2601 0.950 . S
C2612 C2610 1.391 . S
C2612 C2613 1.400 1_655 S
C2613 C2607 1.491 1_455 S
C2613 C2612 1.400 1_455 S
C2613 C2614 1.398 . S
C2614 H2602 0.950 . S
C2614 C2613 1.398 . S
C2614 C2615 1.391 . S
C2615 H2603 0.950 . S
C2615 C2611 1.393 . S
C2615 C2614 1.391 . S
H2616 C2624 0.950 . S
H2617 C2629 0.950 . S
H2618 C2626 0.950 . S
H2619 C2628 0.950 . S
H2620 C2630 0.950 . S
H2621 C2632 0.950 . S
H2622 C2634 0.950 . S
H2623 C2635 0.950 . S
C2624 H2616 0.950 . S
C2624 C2625 1.386 1_654 S
C2624 C2626 1.391 . S
C2625 C2624 1.386 1_456 S
C2625 C2629 1.393 . S
C2626 H2618 0.950 . S
C2626 C2624 1.391 . S
C2626 C2627 1.391 1_654 S
C2627 C2626 1.391 1_456 S
C2627 C2628 1.409 . S
C2627 C2633 1.490 1_456 S
C2628 H2619 0.950 . S
C2628 C2627 1.409 . S
C2628 C2629 1.391 . S
C2629 H2617 0.950 . S
C2629 C2625 1.393 . S
C2629 C2628 1.391 . S
C2630 H2620 0.950 . S
C2630 C2631 1.386 1_456 S
C2630 C2632 1.391 . S
C2631 C2630 1.386 1_654 S
C2631 C2635 1.393 . S
C2632 H2621 0.950 . S
C2632 C2630 1.391 . S
C2632 C2633 1.391 1_456 S
C2633 C2627 1.490 1_654 S
C2633 C2632 1.391 1_654 S
C2633 C2634 1.409 . S
C2634 H2622 0.950 . S
C2634 C2633 1.409 . S
C2634 C2635 1.391 . S
C2635 H2623 0.950 . S
C2635 C2631 1.393 . S
C2635 C2634 1.391 . S
H2636 C2644 0.950 . S
H2637 C2649 0.950 . S
H2638 C2646 0.950 . S
H2639 C2648 0.950 . S
H2640 C2650 0.950 . S
H2641 C2652 0.950 . S
H2642 C2654 0.950 . S
H2643 C2655 0.950 . S
C2644 H2636 0.950 . S
C2644 C2645 1.386 . S
C2644 C2646 1.391 . S
C2645 C2644 1.386 . S
C2645 C2649 1.393 . S
C2646 H2638 0.950 . S
C2646 C2644 1.391 . S
C2646 C2647 1.400 . S
C2647 C2646 1.400 . S
C2647 C2648 1.398 . S
C2647 C2653 1.491 . S
C2648 H2639 0.950 . S
C2648 C2647 1.398 . S
C2648 C2649 1.391 . S
C2649 H2637 0.950 . S
C2649 C2645 1.393 . S
C2649 C2648 1.391 . S
C2650 H2640 0.950 . S
C2650 C2651 1.386 . S
C2650 C2652 1.391 . S
C2651 C2650 1.386 . S
C2651 C2655 1.393 . S
C2652 H2641 0.950 . S
C2652 C2650 1.391 . S
C2652 C2653 1.400 . S
C2653 C2647 1.491 . S
C2653 C2652 1.400 . S
C2653 C2654 1.398 . S
C2654 H2642 0.950 . S
C2654 C2653 1.398 . S
C2654 C2655 1.391 . S
C2655 H2643 0.950 . S
C2655 C2651 1.393 . S
C2655 C2654 1.391 . S
C1065 N236 1.705 . S
C1071 N5 1.708 . S
C1085 N38 1.706 . S
C1091 N137 1.707 . S
C1105 N71 1.706 . S
C1111 N170 1.707 . S
C1125 N203 1.704 . S
C1131 N104 1.709 . S
C1145 N500 1.704 . S
C1151 N269 1.709 . S
C1165 N401 1.708 . S
C1171 N302 1.705 . S
C1185 N335 1.705 . S
C1191 N434 1.707 . S
C1205 N368 1.704 . S
C1211 N467 1.709 . S
C1225 N764 1.707 . S
C1231 N533 1.706 . S
C1245 N566 1.706 . S
C1251 N665 1.706 . S
C1265 N599 1.709 . S
C1271 N698 1.705 . S
C1285 N731 1.709 . S
C1291 N632 1.705 . S
C1305 N1028 1.704 . S
C1311 N797 1.709 . S
C1325 N830 1.706 . S
C1331 N929 1.707 . S
C1345 N962 1.709 . S
C1351 N863 1.704 . S
C1365 N995 1.706 . S
C1371 N896 1.708 . S
C1385 C622 0.581 . S
C1391 C28 0.527 . S
C1405 C655 0.582 . S
C1411 C61 0.527 . S
C1425 C94 0.583 . S
C1431 C556 0.612 . S
C1445 C127 0.598 . S
C1451 C589 0.603 . S
C1465 C754 0.579 . S
C1471 C160 0.613 . S
C1485 C787 0.554 . S
C1491 C193 0.534 . S
C1505 C226 0.544 . S
C1511 C688 0.609 . S
C1525 C259 0.551 . S
C1531 C721 0.612 . S
C1545 C292 0.533 . S
C1551 C886 0.599 . S
C1565 C919 0.536 . S
C1571 C325 0.602 . S
C1585 C820 0.612 . S
C1591 C358 0.551 . S
C1605 C391 0.609 . S
C1611 C853 0.590 . S
C1625 C424 0.574 . S
C1631 C1018 0.527 . S
C1645 C1051 0.562 . S
C1651 C457 0.614 . S
C1665 C952 0.582 . S
C1671 C490 0.527 . S
C1685 C985 0.614 . S
C1691 C523 0.559 . S
C1705 N14 1.046 . S
C1711 C899 1.022 . S
C1725 C272 1.007 . S
C1731 N47 1.044 . S
C1745 C833 1.009 . S
C1751 N80 1.007 . S
C1765 N113 1.030 . S
C1771 C338 1.036 . S
C1785 C965 1.009 . S
C1791 N146 1.007 . S
C1805 C470 1.031 . S
C1811 N179 1.017 . S
C1825 N212 1.046 . S
C1831 C1031 1.013 . S
C1845 N245 1.032 . S
C1851 C404 0.993 . S
C1865 N278 1.025 . S
C1871 C635 1.035 . S
C1885 N311 1.033 . S
C1891 C8 1.036 . S
C1905 C569 1.034 . S
C1911 N344 1.038 . S
C1925 N377 1.012 . S
C1931 C74 1.024 . S
C1945 C701 1.035 . S
C1951 N410 1.036 . S
C1965 N443 1.012 . S
C1971 C206 1.025 . S
C1985 N476 1.007 . S
C1991 C767 1.008 . S
C2005 C140 0.993 . S
C2011 N509 1.016 . S
C2025 N542 1.008 . S
C2031 C371 1.004 . S
C2045 C800 1.015 . S
C2051 N575 1.046 . S
C2065 C305 1.027 . S
C2071 N608 1.014 . S
C2085 N641 1.025 . S
C2091 C866 0.991 . S
C2105 N674 1.045 . S
C2111 C437 1.010 . S
C2125 C998 1.023 . S
C2131 N707 1.011 . S
C2145 N740 1.033 . S
C2151 C503 1.036 . S
C2165 C932 1.025 . S
C2171 N773 1.012 . S
C2185 C107 1.022 . S
C2191 N806 1.010 . S
C2205 C536 0.997 . S
C2211 N839 1.011 . S
C2225 C41 1.032 . S
C2231 N872 1.041 . S
C2245 C602 0.997 . S
C2251 N905 1.037 . S
C2265 N938 1.010 . S
C2271 C173 1.000 . S
C2285 C734 1.014 . S
C2291 N971 1.008 . S
C2305 C239 0.992 . S
C2311 N1004 1.028 . S
C2325 C668 1.035 . S
C2331 N1037 1.035 . S
C2345 C17 1.217 . S
C2351 C809 1.217 . S
C2365 C50 1.211 . S
C2371 C314 1.211 . S
C2385 C875 1.219 . S
C2391 C83 1.219 . S
C2405 C380 1.216 1_554 S
C2411 C116 1.216 1_556 S
C2425 C941 1.214 . S
C2431 C149 1.214 . S
C2445 C446 1.218 . S
C2451 C182 1.218 . S
C2465 C1007 1.218 . S
C2471 C215 1.218 . S
C2485 C512 1.210 1_556 S
C2491 C248 1.210 1_554 S
C2505 C281 1.215 . S
C2511 C545 1.215 . S
C2525 C611 1.210 . S
C2531 C347 1.210 . S
C2545 C413 1.219 . S
C2551 C677 1.219 . S
C2565 C479 1.209 . S
C2571 C743 1.209 . S
C2585 C842 1.213 . S
C2591 C578 1.213 . S
C2605 C644 1.214 . S
C2611 C908 1.214 . S
C2625 C974 1.219 1_556 S
C2631 C710 1.219 1_554 S
C2645 C1040 1.212 . S
C2651 C776 1.212 . S
