# Generated by pormake.
# Topology ttw, (5)-cn, num edge types: 1
# Building blocks:
#     Node 0, Type 0, BuildingBlock: BEQFEK_clean_sbu_0, # of connection points: 5
#     Node 1, Type 0, BuildingBlock: BEQFEK_clean_sbu_0, # of connection points: 5
#     Node 2, Type 0, BuildingBlock: BEQFEK_clean_sbu_0, # of connection points: 5
#     Node 3, Type 0, BuildingBlock: BEQFEK_clean_sbu_0, # of connection points: 5
#     Node 4, Type 0, BuildingBlock: BEQFEK_clean_sbu_0, # of connection points: 5
#     Node 5, Type 0, BuildingBlock: BEQFEK_clean_sbu_0, # of connection points: 5
#     Edge 6, Type (0, 0), BuildingBlock: ZUJKAS_clean_linker_0, # of connection points: 2
#     Edge 7, Type (0, 0), BuildingBlock: ZUJKAS_clean_linker_0, # of connection points: 2
#     Edge 8, Type (0, 0), BuildingBlock: ZUJKAS_clean_linker_0, # of connection points: 2
#     Edge 9, Type (0, 0), BuildingBlock: ZUJKAS_clean_linker_0, # of connection points: 2
#     Edge 10, Type (0, 0), BuildingBlock: ZUJKAS_clean_linker_0, # of connection points: 2
#     Edge 11, Type (0, 0), BuildingBlock: ZUJKAS_clean_linker_0, # of connection points: 2
#     Edge 12, Type (0, 0), BuildingBlock: ZUJKAS_clean_linker_0, # of connection points: 2
#     Edge 13, Type (0, 0), BuildingBlock: ZUJKAS_clean_linker_0, # of connection points: 2
#     Edge 14, Type (0, 0), BuildingBlock: ZUJKAS_clean_linker_0, # of connection points: 2
#     Edge 15, Type (0, 0), BuildingBlock: ZUJKAS_clean_linker_0, # of connection points: 2
#     Edge 16, Type (0, 0), BuildingBlock: ZUJKAS_clean_linker_0, # of connection points: 2
#     Edge 17, Type (0, 0), BuildingBlock: ZUJKAS_clean_linker_0, # of connection points: 2
#     Edge 18, Type (0, 0), BuildingBlock: ZUJKAS_clean_linker_0, # of connection points: 2
#     Edge 19, Type (0, 0), BuildingBlock: ZUJKAS_clean_linker_0, # of connection points: 2
#     Edge 20, Type (0, 0), BuildingBlock: ZUJKAS_clean_linker_0, # of connection points: 2
# Relax obj value: 0.118
# Max RMSD: 0.171
# Mean RMSD: 0.158
data_MOF--net-ttw--node1-BEQFEK_clean_sbu_0--edge1-ZUJKAS_clean_linker_0
_symmetry_space_group_name_H-M    P1
_symmetry_Int_Tables_number       1
_symmetry_cell_setting            triclinic
loop_
_symmetry_equiv_pos_as_xyz
'x, y, z'
_cell_length_a     70.957729
_cell_length_b     74.126644
_cell_length_c     23.972395
_cell_angle_alpha  91.300053
_cell_angle_beta   90.057258
_cell_angle_gamma 125.763
loop_
_atom_site_label
_atom_site_type_symbol
_atom_site_fract_x
_atom_site_fract_y
_atom_site_fract_z
_atom_type_partial_charge
Co0 Co 0.17266 0.52977 0.03659 0.0
Co1 Co 0.17256 0.53454 0.16761 0.0
C2 C 0.20372 0.52522 0.1113 0.0
O3 O 0.19587 0.52514 0.06338 0.0
O4 O 0.19619 0.52851 0.15586 0.0
C5 C 0.1755 0.51474 0.92628 0.0
O6 O 0.18718 0.50858 0.95185 0.0
C7 C 0.16787 0.52411 0.28731 0.0
C8 C 0.16107 0.54762 0.32212 0.0
C9 C 0.1637 0.53124 0.33701 0.0
N10 N 0.16772 0.53581 0.24546 0.0
N11 N 0.16372 0.54987 0.26663 0.0
C12 C 0.17056 0.5057 0.27856 0.0
H13 H 0.16519 0.49868 0.23534 0.0
H14 H 0.16009 0.49238 0.3089 0.0
H15 H 0.18912 0.51242 0.28452 0.0
C16 C 0.12274 0.49578 0.05545 0.0
N17 N 0.14444 0.51129 0.07461 0.0
N18 N 0.14421 0.51313 0.1293 0.0
C19 C 0.12222 0.4989 0.1467 0.0
C20 C 0.1079 0.48741 0.10043 0.0
C21 C 0.11664 0.48883 0.99524 0.0
H22 H 0.12843 0.48495 0.97794 0.0
H23 H 0.09843 0.474 0.98941 0.0
H24 H 0.11928 0.50283 0.97165 0.0
O25 O 0.18567 0.56164 0.0487 0.0
O26 O 0.1856 0.56464 0.14091 0.0
H27 H 0.12176 0.51466 0.22199 0.0
H28 H 0.09578 0.48701 0.20981 0.0
C29 C 0.11493 0.49772 0.20586 0.0
H30 H 0.12244 0.49112 0.23187 0.0
H31 H 0.16271 0.56095 0.24309 0.0
O32 O 0.16765 0.52364 0.95459 0.0
C33 C 0.19 0.57327 0.09315 0.0
Co34 Co 0.47362 0.15954 0.14807 0.0
Co35 Co 0.47402 0.15666 0.01704 0.0
C36 C 0.47023 0.19031 0.07555 0.0
O37 O 0.47113 0.18336 0.12291 0.0
O38 O 0.47065 0.18118 0.03032 0.0
C39 C 0.45429 0.15805 0.25549 0.0
O40 O 0.43973 0.15987 0.22673 0.0
C41 C 0.46514 0.15481 0.89492 0.0
C42 C 0.48183 0.13905 0.86419 0.0
C43 C 0.47016 0.14774 0.8465 0.0
N44 N 0.47329 0.1502 0.93898 0.0
N45 N 0.48326 0.14083 0.92017 0.0
C46 C 0.45534 0.16798 0.89967 0.0
H47 H 0.46794 0.18378 0.92288 0.0
H48 H 0.43914 0.1586 0.92405 0.0
H49 H 0.45186 0.17203 0.85849 0.0
C50 C 0.43903 0.11125 0.13101 0.0
N51 N 0.45193 0.13192 0.11097 0.0
N52 N 0.45146 0.13061 0.05608 0.0
C53 C 0.43778 0.10899 0.03958 0.0
C54 C 0.42981 0.09593 0.08652 0.0
C55 C 0.43825 0.10633 0.19152 0.0
H56 H 0.4306 0.11358 0.21507 0.0
H57 H 0.4276 0.08818 0.1985 0.0
H58 H 0.45617 0.11426 0.20786 0.0
O59 O 0.50553 0.16867 0.13458 0.0
O60 O 0.50565 0.16724 0.04213 0.0
H61 H 0.45137 0.10161 0.97038 0.0
H62 H 0.42026 0.08346 0.97437 0.0
C63 C 0.4357 0.10088 0.98059 0.0
H64 H 0.43425 0.11149 0.95174 0.0
H65 H 0.4914 0.13598 0.94563 0.0
O66 O 0.46947 0.15724 0.22993 0.0
C67 C 0.51593 0.17117 0.08909 0.0
Co68 Co 0.48416 0.64516 0.04176 0.0
Co69 Co 0.48436 0.64873 0.17269 0.0
C70 C 0.49499 0.68635 0.1059 0.0
O71 O 0.4917 0.67488 0.06174 0.0
O72 O 0.4932 0.67867 0.15421 0.0
C73 C 0.50688 0.66112 0.9372 0.0
O74 O 0.52337 0.6779 0.96827 0.0
C75 C 0.49282 0.6576 0.29648 0.0
C76 C 0.47179 0.62279 0.32368 0.0
C77 C 0.48576 0.6446 0.34358 0.0
N78 N 0.4835 0.64394 0.251 0.0
N79 N 0.47099 0.62321 0.26782 0.0
C80 C 0.50714 0.68242 0.29473 0.0
H81 H 0.50241 0.68767 0.25757 0.0
H82 H 0.52574 0.68905 0.29199 0.0
H83 H 0.50473 0.68954 0.33296 0.0
C84 C 0.51604 0.63281 0.06807 0.0
N85 N 0.50306 0.63989 0.08316 0.0
N86 N 0.50431 0.64287 0.1377 0.0
C87 C 0.51883 0.63858 0.15895 0.0
C88 C 0.52657 0.63176 0.11568 0.0
C89 C 0.51622 0.62499 0.01007 0.0
H90 H 0.49954 0.61845 0.98815 0.0
H91 H 0.53046 0.63923 0.98667 0.0
H92 H 0.51905 0.61177 0.0105 0.0
O93 O 0.4511 0.62213 0.05588 0.0
O94 O 0.45164 0.62623 0.1478 0.0
H95 H 0.51198 0.6269 0.24234 0.0
H96 H 0.54238 0.64372 0.22511 0.0
C97 C 0.52569 0.64165 0.21937 0.0
H98 H 0.52752 0.65654 0.23719 0.0
H99 H 0.46179 0.60928 0.24096 0.0
O100 O 0.48893 0.64497 0.96047 0.0
C101 C 0.44063 0.61684 0.10216 0.0
Co102 Co 0.8013 0.34655 0.15917 0.0
Co103 Co 0.80094 0.34779 0.028 0.0
C104 C 0.76153 0.30954 0.08749 0.0
O105 O 0.77157 0.31855 0.13437 0.0
O106 O 0.77099 0.31882 0.0417 0.0
C107 C 0.8007 0.32802 0.26434 0.0
O108 O 0.7943 0.31027 0.23392 0.0
C109 C 0.8006 0.33989 0.90458 0.0
C110 C 0.82173 0.37478 0.87809 0.0
C111 C 0.80976 0.35306 0.8578 0.0
N112 N 0.80711 0.35338 0.9502 0.0
N113 N 0.81972 0.37416 0.93381 0.0
C114 C 0.78518 0.31504 0.90583 0.0
H115 H 0.77427 0.30933 0.94335 0.0
H116 H 0.79612 0.30885 0.90727 0.0
H117 H 0.77386 0.30787 0.86791 0.0
C118 C 0.84746 0.35628 0.13795 0.0
N119 N 0.8267 0.35084 0.12007 0.0
N120 N 0.82618 0.35049 0.06516 0.0
C121 C 0.84646 0.35525 0.04632 0.0
C122 C 0.86071 0.35925 0.09176 0.0
C123 C 0.85535 0.36126 0.19783 0.0
H124 H 0.84865 0.36987 0.21896 0.0
H125 H 0.84824 0.34539 0.21903 0.0
H126 H 0.87456 0.37182 0.20196 0.0
O127 O 0.79932 0.37169 0.14758 0.0
O128 O 0.79817 0.37158 0.05519 0.0
H129 H 0.85628 0.37207 0.96903 0.0
H130 H 0.86746 0.35589 0.97994 0.0
C131 C 0.85226 0.3564 0.98592 0.0
H132 H 0.83716 0.34222 0.96235 0.0
H133 H 0.82691 0.38799 0.96083 0.0
O134 O 0.80483 0.34511 0.24053 0.0
C135 C 0.79791 0.37958 0.10246 0.0
Co136 Co 0.41052 0.84344 0.11419 0.0
Co137 Co 0.40415 0.83836 0.98394 0.0
C138 C 0.4403 0.83649 0.03997 0.0
O139 O 0.43426 0.83962 0.08709 0.0
O140 O 0.43022 0.83559 0.99485 0.0
C141 C 0.42602 0.8449 0.2252 0.0
O142 O 0.43292 0.83349 0.20211 0.0
C143 C 0.41201 0.84461 0.86281 0.0
C144 C 0.37726 0.83373 0.83296 0.0
C145 C 0.3994 0.84195 0.81507 0.0
N146 N 0.39789 0.83825 0.90673 0.0
N147 N 0.37713 0.83165 0.88853 0.0
C148 C 0.43736 0.85459 0.86766 0.0
H149 H 0.44435 0.86331 0.9088 0.0
H150 H 0.44714 0.86642 0.83378 0.0
H151 H 0.43978 0.84111 0.8646 0.0
C152 C 0.41367 0.88411 0.0934 0.0
N153 N 0.41186 0.86586 0.07518 0.0
N154 N 0.40982 0.86423 0.02042 0.0
C155 C 0.41042 0.88161 0.00195 0.0
C156 C 0.41279 0.89472 0.04759 0.0
C157 C 0.41421 0.89002 0.15381 0.0
H158 H 0.40053 0.87501 0.17607 0.0
H159 H 0.43125 0.89579 0.17251 0.0
H160 H 0.41145 0.90319 0.15976 0.0
O161 O 0.37945 0.81493 0.10507 0.0
O162 O 0.37551 0.81136 0.01287 0.0
H163 H 0.39091 0.87378 0.92618 0.0
H164 H 0.41432 0.90292 0.9358 0.0
C165 C 0.40902 0.88575 0.94179 0.0
H166 H 0.42048 0.88317 0.91705 0.0
H167 H 0.36294 0.82599 0.91426 0.0
O168 O 0.41617 0.85112 0.19499 0.0
C169 C 0.36776 0.80407 0.06123 0.0
Co170 Co 0.63138 0.46151 0.16083 0.0
Co171 Co 0.63187 0.46303 0.02972 0.0
C172 C 0.67047 0.46753 0.09171 0.0
O173 O 0.66046 0.46565 0.13754 0.0
O174 O 0.66149 0.46686 0.04493 0.0
C175 C 0.65157 0.48024 0.26906 0.0
O176 O 0.67019 0.49405 0.24017 0.0
C177 C 0.64239 0.47366 0.90982 0.0
C178 C 0.6071 0.45938 0.87653 0.0
C179 C 0.63004 0.4704 0.86089 0.0
N180 N 0.62731 0.46488 0.95209 0.0
N181 N 0.60629 0.45634 0.93175 0.0
C182 C 0.66809 0.48606 0.91737 0.0
H183 H 0.67357 0.49406 0.95963 0.0
H184 H 0.67749 0.4989 0.88536 0.0
H185 H 0.67274 0.47417 0.91336 0.0
C186 C 0.6241 0.49665 0.14701 0.0
N187 N 0.6284 0.48238 0.12627 0.0
N188 N 0.63015 0.48404 0.07172 0.0
C189 C 0.6278 0.49997 0.05612 0.0
C190 C 0.62362 0.50837 0.1032 0.0
C191 C 0.61814 0.4972 0.20663 0.0
H192 H 0.60906 0.4804 0.22418 0.0
H193 H 0.6344 0.50871 0.2312 0.0
H194 H 0.60688 0.50298 0.2107 0.0
O195 O 0.6046 0.43086 0.14093 0.0
O196 O 0.60567 0.43233 0.04861 0.0
H197 H 0.61356 0.49553 0.97417 0.0
H198 H 0.63415 0.52425 0.99621 0.0
C199 C 0.6301 0.50736 0.99739 0.0
H200 H 0.64412 0.50754 0.97646 0.0
H201 H 0.59135 0.44848 0.95577 0.0
O202 O 0.6329 0.46523 0.24336 0.0
C203 C 0.59652 0.42164 0.09302 0.0
H204 H 0.08136 0.44944 0.15891 0.0
H205 H 0.03876 0.42319 0.15712 0.0
H206 H 0.0348 0.46346 0.03721 0.0
H207 H 0.07722 0.48961 0.03902 0.0
H208 H 0.00664 0.43238 0.18357 0.0
H209 H 0.99432 0.401 0.96494 0.0
H210 H 0.02208 0.41581 0.00107 0.0
H211 H 0.01192 0.4308 0.97122 0.0
C212 C 0.07129 0.45255 0.13214 0.0
C213 C 0.08239 0.47136 0.09883 0.0
C214 C 0.04707 0.43759 0.13102 0.0
C215 C 0.0337 0.4412 0.09627 0.0
C216 C 0.04483 0.46008 0.06324 0.0
H217 H 0.8943 0.39527 0.0355 0.0
H218 H 0.93607 0.41269 0.03774 0.0
C219 C 0.069 0.47501 0.0644 0.0
C220 C 0.00805 0.42588 0.09625 0.0
H221 H 0.96063 0.39402 0.01012 0.0
C222 C 0.99652 0.42368 0.14593 0.0
C223 C 0.99499 0.41457 0.04703 0.0
C224 C 0.00645 0.41546 0.99316 0.0
C225 C 0.97222 0.41133 0.14704 0.0
C226 C 0.95921 0.40068 0.09732 0.0
C227 C 0.97071 0.40226 0.04811 0.0
C228 C 0.9338 0.38923 0.09451 0.0
C229 C 0.96071 0.41063 0.20067 0.0
C230 C 0.91871 0.37007 0.12504 0.0
C231 C 0.89479 0.36002 0.12352 0.0
C232 C 0.88573 0.36895 0.09123 0.0
C233 C 0.90084 0.38787 0.06 0.0
C234 C 0.92467 0.39788 0.06146 0.0
H235 H 0.97344 0.42303 0.23236 0.0
H236 H 0.94745 0.41378 0.19281 0.0
H237 H 0.95177 0.39385 0.21835 0.0
H238 H 0.92543 0.36299 0.15018 0.0
H239 H 0.88339 0.34536 0.14773 0.0
H240 H 0.38048 0.8986 1.00033 0.0
H241 H 0.37987 0.93143 0.00296 0.0
H242 H 0.44385 0.96779 0.09934 0.0
H243 H 0.44459 0.93511 0.09632 0.0
H244 H 0.38085 0.95549 0.10284 0.0
H245 H 0.45578 0.00761 0.96437 0.0
H246 H 0.44001 0.97775 0.96619 0.0
H247 H 0.46115 0.99517 0.01984 0.0
C248 C 0.39448 0.91372 0.02154 0.0
C249 C 0.41266 0.91453 0.04789 0.0
C250 C 0.39405 0.93233 0.02328 0.0
C251 C 0.41192 0.95201 0.05089 0.0
C252 C 0.43006 0.9528 0.07727 0.0
H253 H 0.4555 0.08336 0.12951 0.0
H254 H 0.44809 0.04681 0.1215 0.0
C255 C 0.43043 0.93418 0.07575 0.0
C256 C 0.4116 0.97175 0.05304 0.0
H257 H 0.44298 0.02609 0.01685 0.0
C258 C 0.39424 0.9709 0.08356 0.0
C259 C 0.42903 0.99168 0.0275 0.0
C260 C 0.44746 0.99315 0.99217 0.0
C261 C 0.39454 0.9899 0.0915 0.0
C262 C 0.41249 0.01004 0.06761 0.0
C263 C 0.42933 0.01062 0.03542 0.0
C264 C 0.41511 0.03115 0.07785 0.0
C265 C 0.37629 0.98858 0.12718 0.0
C266 C 0.39876 0.03429 0.05688 0.0
C267 C 0.40288 0.05518 0.06203 0.0
C268 C 0.42341 0.07309 0.08793 0.0
C269 C 0.43936 0.06969 0.11022 0.0
C270 C 0.43523 0.0489 0.10529 0.0
H271 H 0.36618 0.97292 0.15062 0.0
H272 H 0.38441 0.00292 0.15738 0.0
H273 H 0.36405 0.98928 0.10013 0.0
H274 H 0.3833 0.02087 0.03482 0.0
H275 H 0.39047 0.05756 0.04424 0.0
H276 H 0.63842 0.54302 0.17703 0.0
H277 H 0.62412 0.56616 0.18476 0.0
H278 H 0.58008 0.53217 0.03948 0.0
H279 H 0.59297 0.50807 0.03417 0.0
H280 H 0.62484 0.59494 0.11767 0.0
H281 H 0.53371 0.52382 0.15041 0.0
H282 H 0.5573 0.52103 0.15188 0.0
H283 H 0.54447 0.52047 0.08634 0.0
C284 C 0.62555 0.54043 0.1471 0.0
C285 C 0.61669 0.5237 0.10522 0.0
C286 C 0.61754 0.55373 0.15128 0.0
C287 C 0.60066 0.55054 0.11341 0.0
C288 C 0.59265 0.53452 0.07003 0.0
H289 H 0.56147 0.63912 0.04867 0.0
H290 H 0.58084 0.62059 0.05129 0.0
C291 C 0.60033 0.52101 0.06646 0.0
C292 C 0.59105 0.56361 0.11958 0.0
H293 H 0.53995 0.55807 0.12721 0.0
C294 C 0.60629 0.58693 0.12031 0.0
C295 C 0.56689 0.55314 0.12433 0.0
C296 C 0.54969 0.52825 0.12884 0.0
C297 C 0.59796 0.60005 0.12395 0.0
C298 C 0.57369 0.5895 0.12504 0.0
C299 C 0.55854 0.5662 0.12575 0.0
C300 C 0.56336 0.60206 0.12531 0.0
C301 C 0.61528 0.62502 0.12749 0.0
C302 C 0.54667 0.59743 0.16505 0.0
C303 C 0.53498 0.60732 0.16225 0.0
C304 C 0.54004 0.62238 0.12025 0.0
C305 C 0.55716 0.62748 0.08132 0.0
C306 C 0.56852 0.61719 0.08337 0.0
H307 H 0.63222 0.62997 0.14511 0.0
H308 H 0.61841 0.6317 0.08492 0.0
H309 H 0.60882 0.63283 0.15365 0.0
H310 H 0.54224 0.58569 0.19753 0.0
H311 H 0.52148 0.60262 0.19201 0.0
H312 H 0.18862 0.51778 0.38604 0.0
H313 H 0.18827 0.50903 0.48396 0.0
H314 H 0.13756 0.52208 0.51816 0.0
H315 H 0.13711 0.52994 0.42012 0.0
H316 H 0.20076 0.53767 0.57241 0.0
H317 H 0.11001 0.4644 0.59764 0.0
H318 H 0.12277 0.47409 0.53001 0.0
H319 H 0.11164 0.48721 0.56763 0.0
C320 C 0.17675 0.51797 0.41384 0.0
C321 C 0.16247 0.52405 0.39491 0.0
C322 C 0.17678 0.51322 0.47002 0.0
C323 C 0.16254 0.51445 0.50821 0.0
C324 C 0.1482 0.52039 0.48927 0.0
H325 H 0.15021 0.52349 0.86109 0.0
H326 H 0.14712 0.52158 0.75916 0.0
C327 C 0.14813 0.52509 0.43325 0.0
C328 C 0.16407 0.51149 0.56866 0.0
H329 H 0.13122 0.48411 0.68204 0.0
C330 C 0.18564 0.52571 0.59626 0.0
C331 C 0.14431 0.49591 0.59974 0.0
C332 C 0.12093 0.47939 0.57213 0.0
C333 C 0.18779 0.52542 0.65439 0.0
C334 C 0.16788 0.51034 0.6856 0.0
C335 C 0.14643 0.49572 0.65793 0.0
C336 C 0.16884 0.51021 0.74728 0.0
C337 C 0.21113 0.54186 0.68229 0.0
C338 C 0.18172 0.50402 0.77428 0.0
C339 C 0.18353 0.50507 0.83254 0.0
C340 C 0.17247 0.51234 0.86478 0.0
C341 C 0.15906 0.51795 0.83752 0.0
C342 C 0.15722 0.51682 0.7793 0.0
H343 H 0.22367 0.55506 0.65365 0.0
H344 H 0.20932 0.54984 0.71965 0.0
H345 H 0.21849 0.53297 0.69626 0.0
H346 H 0.19056 0.49858 0.75025 0.0
H347 H 0.1939 0.50053 0.8522 0.0
H348 H 0.42171 0.15528 0.32376 0.0
H349 H 0.42095 0.15454 0.42611 0.0
H350 H 0.4838 0.15812 0.42855 0.0
H351 H 0.4847 0.15874 0.32679 0.0
H352 H 0.42277 0.12224 0.49792 0.0
H353 H 0.49593 0.21122 0.53267 0.0
H354 H 0.47901 0.20065 0.46846 0.0
H355 H 0.50084 0.19616 0.48203 0.0
C356 C 0.43536 0.1559 0.3461 0.0
C357 C 0.45332 0.15716 0.31713 0.0
C358 C 0.43487 0.15545 0.40447 0.0
C359 C 0.45245 0.15652 0.43463 0.0
C360 C 0.47022 0.15754 0.40588 0.0
H361 H 0.49958 0.15871 0.76111 0.0
H362 H 0.49289 0.16085 0.66233 0.0
C363 C 0.47065 0.15782 0.34771 0.0
C364 C 0.45241 0.15644 0.49628 0.0
H365 H 0.48414 0.18799 0.61088 0.0
C366 C 0.43593 0.13665 0.52292 0.0
C367 C 0.46963 0.17532 0.52837 0.0
C368 C 0.48729 0.19714 0.50165 0.0
C369 C 0.43699 0.1349 0.58093 0.0
C370 C 0.45471 0.15362 0.61293 0.0
C371 C 0.4706 0.17366 0.58629 0.0
C372 C 0.45833 0.15238 0.67325 0.0
C373 C 0.41991 0.11274 0.60696 0.0
C374 C 0.44115 0.147 0.71231 0.0
C375 C 0.44489 0.14558 0.76893 0.0
C376 C 0.46604 0.14996 0.78737 0.0
C377 C 0.48318 0.15541 0.74814 0.0
C378 C 0.4794 0.1567 0.69174 0.0
H379 H 0.41077 0.09896 0.57515 0.0
H380 H 0.42879 0.10889 0.6375 0.0
H381 H 0.40664 0.11337 0.62948 0.0
H382 H 0.42485 0.14382 0.69903 0.0
H383 H 0.43107 0.14062 0.79796 0.0
H384 H 0.5427 0.6928 0.87325 0.0
H385 H 0.5433 0.695 0.77123 0.0
H386 H 0.4747 0.63341 0.7601 0.0
H387 H 0.47389 0.63097 0.86158 0.0
H388 H 0.53512 0.66101 0.68558 0.0
H389 H 0.47087 0.68085 0.67772 0.0
H390 H 0.48725 0.68477 0.74027 0.0
H391 H 0.46258 0.65745 0.71923 0.0
C392 C 0.5278 0.67965 0.84907 0.0
C393 C 0.50817 0.66178 0.87558 0.0
C394 C 0.52819 0.68096 0.79087 0.0
C395 C 0.50891 0.66455 0.75845 0.0
C396 C 0.48961 0.6464 0.78461 0.0
H397 H 0.45657 0.62365 0.42915 0.0
H398 H 0.46492 0.6318 0.52888 0.0
C399 C 0.48923 0.645 0.8426 0.0
C400 C 0.50861 0.66629 0.69719 0.0
H401 H 0.47885 0.67004 0.59173 0.0
C402 C 0.52311 0.66333 0.66485 0.0
C403 C 0.49296 0.66941 0.67063 0.0
C404 C 0.47764 0.6735 0.70364 0.0
C405 C 0.52143 0.66214 0.60628 0.0
C406 C 0.50511 0.6644 0.57972 0.0
C407 C 0.49133 0.66831 0.61221 0.0
C408 C 0.50035 0.66053 0.51882 0.0
C409 C 0.5362 0.65728 0.57344 0.0
C410 C 0.51743 0.6742 0.47997 0.0
C411 C 0.51271 0.66951 0.42262 0.0
C412 C 0.49076 0.65121 0.40346 0.0
C413 C 0.47364 0.63788 0.44261 0.0
C414 C 0.47835 0.64255 0.49961 0.0
H415 H 0.54474 0.65198 0.60059 0.0
H416 H 0.52555 0.64405 0.54108 0.0
H417 H 0.54995 0.67251 0.552 0.0
H418 H 0.53446 0.6883 0.49398 0.0
H419 H 0.52645 0.67975 0.39363 0.0
H420 H 0.80765 0.31772 0.80899 0.0
H421 H 0.80618 0.30927 0.70891 0.0
H422 H 0.80715 0.36637 0.67119 0.0
H423 H 0.80795 0.3746 0.77068 0.0
H424 H 0.77177 0.30436 0.62006 0.0
H425 H 0.86456 0.37351 0.59033 0.0
H426 H 0.85309 0.36143 0.65743 0.0
H427 H 0.84809 0.38063 0.6297 0.0
C428 C 0.80689 0.32811 0.77953 0.0
C429 C 0.80751 0.34663 0.79788 0.0
C430 C 0.80632 0.32339 0.72236 0.0
C431 C 0.80672 0.3373 0.68294 0.0
C432 C 0.80703 0.35557 0.70112 0.0
H433 H 0.81064 0.36106 0.33851 0.0
H434 H 0.81229 0.36088 0.44005 0.0
C435 C 0.80749 0.36022 0.75796 0.0
C436 C 0.80726 0.33327 0.62252 0.0
H437 H 0.84097 0.35704 0.50831 0.0
C438 C 0.78696 0.31559 0.59549 0.0
C439 C 0.82714 0.34803 0.59099 0.0
C440 C 0.84956 0.3669 0.61847 0.0
C441 C 0.78564 0.313 0.53703 0.0
C442 C 0.80532 0.32828 0.50525 0.0
C443 C 0.8259 0.34539 0.53272 0.0
C444 C 0.80446 0.32799 0.44343 0.0
C445 C 0.76286 0.29469 0.50969 0.0
C446 C 0.79978 0.30964 0.41151 0.0
C447 C 0.79869 0.30963 0.35318 0.0
C448 C 0.80247 0.32807 0.32589 0.0
C449 C 0.8076 0.34656 0.3581 0.0
C450 C 0.80857 0.34651 0.41621 0.0
H451 H 0.74823 0.28737 0.53922 0.0
H452 H 0.75878 0.30098 0.47343 0.0
H453 H 0.76417 0.28123 0.49428 0.0
H454 H 0.79703 0.29537 0.43165 0.0
H455 H 0.79486 0.29519 0.32956 0.0
H456 H 0.40993 0.86453 0.28717 0.0
H457 H 0.41013 0.86803 0.38888 0.0
H458 H 0.44653 0.83783 0.40321 0.0
H459 H 0.44648 0.83426 0.3015 0.0
H460 H 0.38899 0.82949 0.45777 0.0
H461 H 0.48217 0.89317 0.51252 0.0
H462 H 0.4702 0.89054 0.44375 0.0
H463 H 0.47586 0.87106 0.46508 0.0
C464 C 0.41827 0.8589 0.31187 0.0
C465 C 0.42806 0.84898 0.28629 0.0
C466 C 0.41839 0.86095 0.36992 0.0
C467 C 0.42852 0.85336 0.40334 0.0
C468 C 0.43896 0.8441 0.37801 0.0
H469 H 0.42793 0.8341 0.75991 0.0
H470 H 0.43647 0.83817 0.66004 0.0
C471 C 0.43877 0.84195 0.31992 0.0
C472 C 0.42612 0.85315 0.46456 0.0
H473 H 0.45661 0.87455 0.58757 0.0
C474 C 0.40374 0.83942 0.4862 0.0
C475 C 0.44547 0.86592 0.50127 0.0
C476 C 0.46981 0.88116 0.47972 0.0
C477 C 0.40013 0.83796 0.54383 0.0
C478 C 0.41942 0.85105 0.5807 0.0
C479 C 0.44188 0.86465 0.55911 0.0
C480 C 0.41639 0.85082 0.64178 0.0
C481 C 0.37573 0.82205 0.56468 0.0
C482 C 0.40289 0.85724 0.66465 0.0
C483 C 0.39798 0.85491 0.72142 0.0
C484 C 0.40687 0.84653 0.75653 0.0
C485 C 0.42124 0.84102 0.73406 0.0
C486 C 0.42601 0.84321 0.67702 0.0
H487 H 0.36418 0.80904 0.53258 0.0
H488 H 0.37559 0.81376 0.60285 0.0
H489 H 0.36838 0.8314 0.57511 0.0
H490 H 0.39568 0.86356 0.6383 0.0
H491 H 0.38696 0.85938 0.73777 0.0
H492 H 0.68893 0.50938 0.33725 0.0
H493 H 0.69056 0.51065 0.43944 0.0
H494 H 0.618 0.45582 0.44276 0.0
H495 H 0.61622 0.45425 0.34086 0.0
H496 H 0.66527 0.51717 0.5161 0.0
H497 H 0.64881 0.43496 0.54081 0.0
H498 H 0.65693 0.44892 0.47513 0.0
H499 H 0.62734 0.43371 0.49775 0.0
C500 C 0.67332 0.49757 0.35971 0.0
C501 C 0.65248 0.48161 0.33086 0.0
C502 C 0.67429 0.49833 0.41809 0.0
C503 C 0.65452 0.48307 0.4486 0.0
C504 C 0.6336 0.46742 0.41997 0.0
H505 H 0.6132 0.48311 0.78144 0.0
H506 H 0.62287 0.48876 0.68276 0.0
C507 C 0.63259 0.46665 0.36169 0.0
C508 C 0.65551 0.48367 0.51044 0.0
H509 H 0.64447 0.45136 0.62234 0.0
C510 C 0.66099 0.50289 0.53941 0.0
C511 C 0.65037 0.46519 0.54079 0.0
C512 C 0.64576 0.4446 0.51209 0.0
C513 C 0.66035 0.5037 0.59792 0.0
C514 C 0.65373 0.48469 0.62806 0.0
C515 C 0.64935 0.46587 0.59919 0.0
C516 C 0.64962 0.48332 0.68896 0.0
C517 C 0.6666 0.52486 0.62688 0.0
C518 C 0.66123 0.47808 0.72525 0.0
C519 C 0.6556 0.47468 0.78183 0.0
C520 C 0.6382 0.47638 0.80291 0.0
C521 C 0.62684 0.48188 0.76653 0.0
C522 C 0.63248 0.48531 0.71018 0.0
H523 H 0.67819 0.53956 0.60095 0.0
H524 H 0.65051 0.52376 0.63412 0.0
H525 H 0.67531 0.52752 0.66785 0.0
H526 H 0.67426 0.47613 0.70952 0.0
H527 H 0.66414 0.46976 0.80826 0.0
H528 H 0.2333 0.53649 0.20022 0.0
H529 H 0.27154 0.54355 0.19729 0.0
H530 H 0.2586 0.51945 0.02628 0.0
H531 H 0.22052 0.51262 0.0284 0.0
H532 H 0.29047 0.51861 0.16468 0.0
H533 H 0.31325 0.58662 0.02191 0.0
H534 H 0.28717 0.57244 0.0625 0.0
H535 H 0.28873 0.55925 0.00067 0.0
C536 C 0.23832 0.53215 0.16241 0.0
C537 C 0.22408 0.52446 0.11413 0.0
C538 C 0.26017 0.53617 0.16086 0.0
C539 C 0.268 0.53244 0.11122 0.0
C540 C 0.25296 0.52278 0.06468 0.0
H541 H 0.41099 0.5927 0.01396 0.0
H542 H 0.36854 0.56819 0.01476 0.0
C543 C 0.23121 0.51889 0.06602 0.0
C544 C 0.29275 0.54133 0.10595 0.0
H545 H 0.34267 0.58253 0.0443 0.0
C546 C 0.30191 0.53247 0.13809 0.0
C547 C 0.30756 0.55944 0.07126 0.0
C548 C 0.29882 0.57017 0.03738 0.0
C549 C 0.32565 0.54137 0.13655 0.0
C550 C 0.34054 0.55982 0.10282 0.0
C551 C 0.33121 0.5683 0.06983 0.0
C552 C 0.3661 0.5718 0.10376 0.0
C553 C 0.33453 0.53091 0.1709 0.0
C554 C 0.37882 0.58179 0.15362 0.0
C555 C 0.40306 0.59578 0.15335 0.0
C556 C 0.41508 0.60028 0.10304 0.0
C557 C 0.40231 0.58967 0.05339 0.0
C558 C 0.37804 0.57561 0.05378 0.0
H559 H 0.32049 0.51323 0.17906 0.0
H560 H 0.34897 0.5318 0.14987 0.0
H561 H 0.34107 0.53994 0.21181 0.0
H562 H 0.37 0.57957 0.19245 0.0
H563 H 0.41232 0.60366 0.19237 0.0
H564 H 0.54453 0.18156 1.00044 0.0
H565 H 0.58626 0.19931 0.00295 0.0
H566 H 0.5855 0.19816 0.18275 0.0
H567 H 0.54373 0.18077 0.18082 0.0
H568 H 0.61769 0.23914 0.14379 0.0
H569 H 0.62583 0.1775 0.03407 0.0
H570 H 0.60916 0.18414 0.995 0.0
H571 H 0.59854 0.17049 0.06047 0.0
C572 C 0.55313 0.18476 0.04058 0.0
C573 C 0.54077 0.17984 0.09048 0.0
C574 C 0.57699 0.19474 0.04187 0.0
C575 C 0.58894 0.19976 0.09299 0.0
C576 C 0.57657 0.19429 0.14282 0.0
H577 H 0.73681 0.2839 0.17594 0.0
H578 H 0.69512 0.25464 0.17832 0.0
C579 C 0.5527 0.18438 0.14162 0.0
C580 C 0.61463 0.21286 0.09458 0.0
H581 H 0.6607 0.21465 0.044 0.0
C582 C 0.62709 0.23364 0.12268 0.0
C583 C 0.62684 0.2057 0.06662 0.0
C584 C 0.61441 0.18314 0.03778 0.0
C585 C 0.65141 0.24778 0.12218 0.0
C586 C 0.66362 0.24079 0.0935 0.0
C587 C 0.65124 0.2199 0.06598 0.0
C588 C 0.68923 0.25554 0.09023 0.0
C589 C 0.66382 0.27042 0.15073 0.0
C590 C 0.69985 0.26486 0.0393 0.0
C591 C 0.72373 0.28156 0.03764 0.0
C592 C 0.73733 0.28919 0.087 0.0
C593 C 0.72682 0.27863 0.13725 0.0
C594 C 0.703 0.26192 0.13877 0.0
H595 H 0.65179 0.27499 0.16076 0.0
H596 H 0.67188 0.27039 0.19037 0.0
H597 H 0.67785 0.28342 0.12415 0.0
H598 H 0.68947 0.26004 0.00134 0.0
H599 H 0.73126 0.28924 0.9982 0.0
H600 H 0.49828 0.70688 0.00949 0.0
H601 H 0.49912 0.73991 0.99942 0.0
H602 H 0.50215 0.74887 0.17843 0.0
H603 H 0.5007 0.71533 0.18912 0.0
H604 H 0.46702 0.74744 0.13236 0.0
H605 H 0.54647 0.80618 0.01478 0.0
H606 H 0.52912 0.7792 0.9811 0.0
H607 H 0.54194 0.78247 0.04883 0.0
C608 C 0.49957 0.71606 0.04687 0.0
C609 C 0.49917 0.70828 0.10021 0.0
C610 C 0.50032 0.73515 0.04093 0.0
C611 C 0.50101 0.74706 0.08811 0.0
C612 C 0.50177 0.73999 0.14142 0.0
H613 H 0.47071 0.8443 0.12296 0.0
H614 H 0.49027 0.82625 0.1329 0.0
C615 C 0.5009 0.72079 0.14746 0.0
C616 C 0.49756 0.76481 0.08174 0.0
H617 H 0.5165 0.81227 0.01224 0.0
C618 C 0.47811 0.76182 0.10692 0.0
C619 C 0.51191 0.78347 0.04808 0.0
C620 C 0.53365 0.78815 0.02212 0.0
C621 C 0.47215 0.7765 0.0979 0.0
C622 C 0.48612 0.7948 0.06315 0.0
C623 C 0.50583 0.79815 0.03871 0.0
C624 C 0.47972 0.81005 0.0513 0.0
C625 C 0.45049 0.77197 0.12424 0.0
C626 C 0.46842 0.80783 0.00081 0.0
C627 C 0.45719 0.81815 0.99486 0.0
C628 C 0.457 0.83066 0.03959 0.0
C629 C 0.47024 0.83451 0.08802 0.0
C630 C 0.48151 0.82429 0.09378 0.0
H631 H 0.43974 0.75532 0.14305 0.0
H632 H 0.45548 0.78472 0.15761 0.0
H633 H 0.43972 0.77308 0.09279 0.0
H634 H 0.46688 0.79685 0.96762 0.0
H635 H 0.4472 0.81491 0.957 0.0
H636 H 0.79052 0.3978 0.01481 0.0
H637 H 0.77806 0.42221 0.01884 0.0
H638 H 0.78404 0.4258 0.19846 0.0
H639 H 0.79604 0.40088 0.19501 0.0
H640 H 0.74168 0.41194 0.16273 0.0
H641 H 0.80688 0.48727 0.04888 0.0
H642 H 0.79687 0.46231 0.0092 0.0
H643 H 0.81258 0.46806 0.07394 0.0
C644 C 0.78967 0.40412 0.05521 0.0
C645 C 0.79401 0.39715 0.10467 0.0
C646 C 0.78277 0.41831 0.05736 0.0
C647 C 0.78038 0.42606 0.1089 0.0
C648 C 0.78591 0.4201 0.15822 0.0
H649 H 0.6985 0.47668 0.18199 0.0
H650 H 0.72921 0.47125 0.18861 0.0
C651 C 0.79271 0.40581 0.15616 0.0
C652 C 0.76877 0.43739 0.11144 0.0
H653 H 0.76879 0.47952 0.0564 0.0
C654 C 0.74787 0.42699 0.14046 0.0
C655 C 0.77677 0.4569 0.08191 0.0
C656 C 0.79964 0.4694 0.05219 0.0
C657 C 0.73418 0.43491 0.13868 0.0
C658 C 0.7418 0.45402 0.10778 0.0
C659 C 0.76303 0.46487 0.08002 0.0
C660 C 0.72703 0.46192 0.10146 0.0
C661 C 0.71109 0.42209 0.1677 0.0
C662 C 0.71667 0.45975 0.0495 0.0
C663 C 0.6992 0.46301 0.04539 0.0
C664 C 0.69179 0.46834 0.09334 0.0
C665 C 0.70353 0.4722 0.14444 0.0
C666 C 0.7211 0.46913 0.14836 0.0
H667 H 0.70573 0.40535 0.17983 0.0
H668 H 0.71245 0.43141 0.2062 0.0
H669 H 0.69726 0.42006 0.14049 0.0
H670 H 0.72112 0.45427 0.01279 0.0
H671 H 0.6906 0.46005 0.00538 0.0
H672 H 0.20772 0.59889 0.00053 0.0
H673 H 0.2334 0.63952 0.99841 0.0
H674 H 0.22622 0.64353 0.17593 0.0
H675 H 0.2007 0.60299 0.17878 0.0
H676 H 0.22908 0.67485 0.03808 0.0
H677 H 0.29669 0.67335 0.15112 0.0
H678 H 0.27155 0.64879 0.11817 0.0
H679 H 0.26886 0.65924 0.18372 0.0
C680 C 0.21127 0.60838 0.03901 0.0
C681 C 0.20243 0.59766 0.08997 0.0
C682 C 0.22592 0.6316 0.03766 0.0
C683 C 0.23195 0.64442 0.08715 0.0
C684 C 0.222 0.63385 0.13744 0.0
H685 H 0.34495 0.7832 0.15685 0.0
H686 H 0.30969 0.74543 0.1649 0.0
C687 C 0.2074 0.61067 0.13891 0.0
C688 C 0.25013 0.66866 0.08689 0.0
H689 H 0.30593 0.70841 0.12974 0.0
C690 C 0.24586 0.68227 0.05827 0.0
C691 C 0.27197 0.67819 0.11331 0.0
C692 C 0.27773 0.66419 0.143 0.0
C693 C 0.26295 0.7053 0.05552 0.0
C694 C 0.28494 0.71476 0.08114 0.0
C695 C 0.28901 0.70114 0.1104 0.0
C696 C 0.30451 0.73849 0.07587 0.0
C697 C 0.25724 0.71928 0.02564 0.0
C698 C 0.31319 0.74716 0.02312 0.0
C699 C 0.33329 0.76876 0.01832 0.0
C700 C 0.34528 0.78201 0.06629 0.0
C701 C 0.3362 0.77345 0.11906 0.0
C702 C 0.31603 0.75188 0.12377 0.0
H703 H 0.23821 0.71112 0.02401 0.0
H704 H 0.26593 0.73596 0.0462 0.0
H705 H 0.26336 0.72153 0.98207 0.0
H706 H 0.30492 0.73696 0.98564 0.0
H707 H 0.33982 0.77477 0.97702 0.0
H708 H 0.47513 0.21705 0.1633 0.0
H709 H 0.48774 0.25537 0.15929 0.0
H710 H 0.48284 0.25 0.97957 0.0
H711 H 0.47062 0.21169 0.98305 0.0
H712 H 0.52573 0.283 0.0172 0.0
H713 H 0.46176 0.29017 0.12678 0.0
H714 H 0.47039 0.27599 0.16719 0.0
H715 H 0.45502 0.26378 0.10182 0.0
C716 C 0.47607 0.22374 0.12287 0.0
C717 C 0.47223 0.21135 0.07341 0.0
C718 C 0.48312 0.24568 0.12071 0.0
C719 C 0.48615 0.25555 0.06915 0.0
C720 C 0.48058 0.24268 0.01984 0.0
H721 H 0.57216 0.39756 0.99876 0.0
H722 H 0.54254 0.35746 0.98963 0.0
C723 C 0.47361 0.22076 0.02192 0.0
C724 C 0.49875 0.28 0.06667 0.0
H725 H 0.50056 0.32407 0.12042 0.0
C726 C 0.51998 0.29196 0.03879 0.0
C727 C 0.49135 0.29166 0.09538 0.0
C728 C 0.46826 0.27971 0.12402 0.0
C729 C 0.53452 0.31525 0.04089 0.0
C730 C 0.52744 0.32693 0.07088 0.0
C731 C 0.50592 0.31504 0.0975 0.0
C732 C 0.54289 0.35147 0.07737 0.0
C733 C 0.55786 0.32713 0.01322 0.0
C734 C 0.55215 0.36147 0.13014 0.0
C735 C 0.56901 0.38442 0.13565 0.0
C736 C 0.57692 0.39775 0.08838 0.0
C737 C 0.56671 0.38777 0.03595 0.0
C738 C 0.54978 0.36485 0.03058 0.0
H739 H 0.56268 0.31567 0.00234 0.0
H740 H 0.55725 0.33451 0.97412 0.0
H741 H 0.57171 0.34079 0.04079 0.0
H742 H 0.54699 0.35139 0.16678 0.0
H743 H 0.57641 0.39157 0.17666 0.0
loop_
_geom_bond_atom_site_label_1
_geom_bond_atom_site_label_2
_geom_bond_distance
_geom_bond_site_symmetry_2
_ccdc_geom_bond_type
Co0 O3 1.970 . S
Co0 N17 1.989 . S
Co0 O25 1.967 . S
Co0 O32 1.920 1_554 S
Co1 O4 1.966 . S
Co1 N10 2.022 . S
Co1 N18 1.993 . S
Co1 O26 1.941 . S
C2 O3 1.258 . S
C2 O4 1.263 . S
O3 Co0 1.970 . S
O3 C2 1.258 . S
O4 Co1 1.966 . S
O4 C2 1.263 . S
C5 O6 1.235 . S
C5 O32 1.289 . S
O6 C5 1.235 . S
C7 C9 1.400 . S
C7 N10 1.351 . S
C7 C12 1.501 . S
C8 C9 1.387 . S
C8 N11 1.341 . S
C9 C7 1.400 . S
C9 C8 1.387 . S
N10 Co1 2.022 . S
N10 C7 1.351 . S
N10 N11 1.365 . S
N11 C8 1.341 . S
N11 N10 1.365 . S
N11 H31 0.862 . S
C12 C7 1.501 . S
C12 H13 0.961 . S
C12 H14 0.961 . S
C12 H15 0.960 . S
H13 C12 0.961 . S
H14 C12 0.961 . S
H15 C12 0.960 . S
C16 N17 1.342 . S
C16 C20 1.401 . S
C16 C21 1.499 1_554 S
N17 Co0 1.989 . S
N17 C16 1.342 . S
N17 N18 1.388 . S
N18 Co1 1.993 . S
N18 N17 1.388 . S
N18 C19 1.346 . S
C19 N18 1.346 . S
C19 C20 1.396 . S
C19 C29 1.510 . S
C20 C16 1.401 . S
C20 C19 1.396 . S
C21 C16 1.499 1_556 S
C21 H22 0.959 . S
C21 H23 0.960 . S
C21 H24 0.961 . S
H22 C21 0.959 . S
H23 C21 0.960 . S
H24 C21 0.961 . S
O25 Co0 1.967 . S
O25 C33 1.258 . S
O26 Co1 1.941 . S
O26 C33 1.266 . S
H27 C29 0.959 . S
H28 C29 0.961 . S
C29 C19 1.510 . S
C29 H27 0.959 . S
C29 H28 0.961 . S
C29 H30 0.960 . S
H30 C29 0.960 . S
H31 N11 0.862 . S
O32 Co0 1.920 1_556 S
O32 C5 1.289 . S
C33 O25 1.258 . S
C33 O26 1.266 . S
Co34 O37 1.970 . S
Co34 N51 1.989 . S
Co34 O59 1.967 . S
Co34 O66 1.920 . S
Co35 O38 1.966 . S
Co35 N44 2.022 1_554 S
Co35 N52 1.993 . S
Co35 O60 1.941 . S
C36 O37 1.258 . S
C36 O38 1.263 . S
O37 Co34 1.970 . S
O37 C36 1.258 . S
O38 Co35 1.966 . S
O38 C36 1.263 . S
C39 O40 1.235 . S
C39 O66 1.289 . S
O40 C39 1.235 . S
C41 C43 1.400 . S
C41 N44 1.351 . S
C41 C46 1.501 . S
C42 C43 1.387 . S
C42 N45 1.341 . S
C43 C41 1.400 . S
C43 C42 1.387 . S
N44 Co35 2.022 1_556 S
N44 C41 1.351 . S
N44 N45 1.365 . S
N45 C42 1.341 . S
N45 N44 1.365 . S
N45 H65 0.862 . S
C46 C41 1.501 . S
C46 H47 0.961 . S
C46 H48 0.961 . S
C46 H49 0.960 . S
H47 C46 0.961 . S
H48 C46 0.961 . S
H49 C46 0.960 . S
C50 N51 1.342 . S
C50 C54 1.401 . S
C50 C55 1.499 . S
N51 Co34 1.989 . S
N51 C50 1.342 . S
N51 N52 1.388 . S
N52 Co35 1.993 . S
N52 N51 1.388 . S
N52 C53 1.346 . S
C53 N52 1.346 . S
C53 C54 1.396 . S
C53 C63 1.510 1_554 S
C54 C50 1.401 . S
C54 C53 1.396 . S
C55 C50 1.499 . S
C55 H56 0.959 . S
C55 H57 0.960 . S
C55 H58 0.961 . S
H56 C55 0.959 . S
H57 C55 0.960 . S
H58 C55 0.961 . S
O59 Co34 1.967 . S
O59 C67 1.258 . S
O60 Co35 1.941 . S
O60 C67 1.266 . S
H61 C63 0.959 . S
H62 C63 0.961 . S
C63 C53 1.510 1_556 S
C63 H61 0.959 . S
C63 H62 0.961 . S
C63 H64 0.960 . S
H64 C63 0.960 . S
H65 N45 0.862 . S
O66 Co34 1.920 . S
O66 C39 1.289 . S
C67 O59 1.258 . S
C67 O60 1.266 . S
Co68 O71 1.970 . S
Co68 N85 1.989 . S
Co68 O93 1.967 . S
Co68 O100 1.920 1_554 S
Co69 O72 1.966 . S
Co69 N78 2.022 . S
Co69 N86 1.993 . S
Co69 O94 1.941 . S
C70 O71 1.258 . S
C70 O72 1.263 . S
O71 Co68 1.970 . S
O71 C70 1.258 . S
O72 Co69 1.966 . S
O72 C70 1.263 . S
C73 O74 1.235 . S
C73 O100 1.289 . S
O74 C73 1.235 . S
C75 C77 1.400 . S
C75 N78 1.351 . S
C75 C80 1.501 . S
C76 C77 1.387 . S
C76 N79 1.341 . S
C77 C75 1.400 . S
C77 C76 1.387 . S
N78 Co69 2.022 . S
N78 C75 1.351 . S
N78 N79 1.365 . S
N79 C76 1.341 . S
N79 N78 1.365 . S
N79 H99 0.862 . S
C80 C75 1.501 . S
C80 H81 0.961 . S
C80 H82 0.961 . S
C80 H83 0.960 . S
H81 C80 0.961 . S
H82 C80 0.961 . S
H83 C80 0.960 . S
C84 N85 1.342 . S
C84 C88 1.401 . S
C84 C89 1.499 1_554 S
N85 Co68 1.989 . S
N85 C84 1.342 . S
N85 N86 1.388 . S
N86 Co69 1.993 . S
N86 N85 1.388 . S
N86 C87 1.346 . S
C87 N86 1.346 . S
C87 C88 1.396 . S
C87 C97 1.510 . S
C88 C84 1.401 . S
C88 C87 1.396 . S
C89 C84 1.499 1_556 S
C89 H90 0.959 . S
C89 H91 0.960 . S
C89 H92 0.961 . S
H90 C89 0.959 . S
H91 C89 0.960 . S
H92 C89 0.961 . S
O93 Co68 1.967 . S
O93 C101 1.258 . S
O94 Co69 1.941 . S
O94 C101 1.266 . S
H95 C97 0.959 . S
H96 C97 0.961 . S
C97 C87 1.510 . S
C97 H95 0.959 . S
C97 H96 0.961 . S
C97 H98 0.960 . S
H98 C97 0.960 . S
H99 N79 0.862 . S
O100 Co68 1.920 1_556 S
O100 C73 1.289 . S
C101 O93 1.258 . S
C101 O94 1.266 . S
Co102 O105 1.970 . S
Co102 N119 1.989 . S
Co102 O127 1.967 . S
Co102 O134 1.920 . S
Co103 O106 1.966 . S
Co103 N112 2.022 1_554 S
Co103 N120 1.993 . S
Co103 O128 1.941 . S
C104 O105 1.258 . S
C104 O106 1.263 . S
O105 Co102 1.970 . S
O105 C104 1.258 . S
O106 Co103 1.966 . S
O106 C104 1.263 . S
C107 O108 1.235 . S
C107 O134 1.289 . S
O108 C107 1.235 . S
C109 C111 1.400 . S
C109 N112 1.351 . S
C109 C114 1.501 . S
C110 C111 1.387 . S
C110 N113 1.341 . S
C111 C109 1.400 . S
C111 C110 1.387 . S
N112 Co103 2.022 1_556 S
N112 C109 1.351 . S
N112 N113 1.365 . S
N113 C110 1.341 . S
N113 N112 1.365 . S
N113 H133 0.862 . S
C114 C109 1.501 . S
C114 H115 0.961 . S
C114 H116 0.961 . S
C114 H117 0.960 . S
H115 C114 0.961 . S
H116 C114 0.961 . S
H117 C114 0.960 . S
C118 N119 1.342 . S
C118 C122 1.401 . S
C118 C123 1.499 . S
N119 Co102 1.989 . S
N119 C118 1.342 . S
N119 N120 1.388 . S
N120 Co103 1.993 . S
N120 N119 1.388 . S
N120 C121 1.346 . S
C121 N120 1.346 . S
C121 C122 1.396 . S
C121 C131 1.510 1_554 S
C122 C118 1.401 . S
C122 C121 1.396 . S
C123 C118 1.499 . S
C123 H124 0.959 . S
C123 H125 0.960 . S
C123 H126 0.961 . S
H124 C123 0.959 . S
H125 C123 0.960 . S
H126 C123 0.961 . S
O127 Co102 1.967 . S
O127 C135 1.258 . S
O128 Co103 1.941 . S
O128 C135 1.266 . S
H129 C131 0.959 . S
H130 C131 0.961 . S
C131 C121 1.510 1_556 S
C131 H129 0.959 . S
C131 H130 0.961 . S
C131 H132 0.960 . S
H132 C131 0.960 . S
H133 N113 0.862 . S
O134 Co102 1.920 . S
O134 C107 1.289 . S
C135 O127 1.258 . S
C135 O128 1.266 . S
Co136 O139 1.970 . S
Co136 N153 1.989 . S
Co136 O161 1.967 . S
Co136 O168 1.920 . S
Co137 O140 1.966 1_556 S
Co137 N146 2.022 . S
Co137 N154 1.993 1_556 S
Co137 O162 1.941 1_556 S
C138 O139 1.258 . S
C138 O140 1.263 . S
O139 Co136 1.970 . S
O139 C138 1.258 . S
O140 Co137 1.966 1_554 S
O140 C138 1.263 . S
C141 O142 1.235 . S
C141 O168 1.289 . S
O142 C141 1.235 . S
C143 C145 1.400 . S
C143 N146 1.351 . S
C143 C148 1.501 . S
C144 C145 1.387 . S
C144 N147 1.341 . S
C145 C143 1.400 . S
C145 C144 1.387 . S
N146 Co137 2.022 . S
N146 C143 1.351 . S
N146 N147 1.365 . S
N147 C144 1.341 . S
N147 N146 1.365 . S
N147 H167 0.862 . S
C148 C143 1.501 . S
C148 H149 0.961 . S
C148 H150 0.961 . S
C148 H151 0.960 . S
H149 C148 0.961 . S
H150 C148 0.961 . S
H151 C148 0.960 . S
C152 N153 1.342 . S
C152 C156 1.401 . S
C152 C157 1.499 . S
N153 Co136 1.989 . S
N153 C152 1.342 . S
N153 N154 1.388 . S
N154 Co137 1.993 1_554 S
N154 N153 1.388 . S
N154 C155 1.346 . S
C155 N154 1.346 . S
C155 C156 1.396 . S
C155 C165 1.510 1_554 S
C156 C152 1.401 . S
C156 C155 1.396 . S
C157 C152 1.499 . S
C157 H158 0.959 . S
C157 H159 0.960 . S
C157 H160 0.961 . S
H158 C157 0.959 . S
H159 C157 0.960 . S
H160 C157 0.961 . S
O161 Co136 1.967 . S
O161 C169 1.258 . S
O162 Co137 1.941 1_554 S
O162 C169 1.266 . S
H163 C165 0.959 . S
H164 C165 0.961 . S
C165 C155 1.510 1_556 S
C165 H163 0.959 . S
C165 H164 0.961 . S
C165 H166 0.960 . S
H166 C165 0.960 . S
H167 N147 0.862 . S
O168 Co136 1.920 . S
O168 C141 1.289 . S
C169 O161 1.258 . S
C169 O162 1.266 . S
Co170 O173 1.970 . S
Co170 N187 1.989 . S
Co170 O195 1.967 . S
Co170 O202 1.920 . S
Co171 O174 1.966 . S
Co171 N180 2.022 1_554 S
Co171 N188 1.993 . S
Co171 O196 1.941 . S
C172 O173 1.258 . S
C172 O174 1.263 . S
O173 Co170 1.970 . S
O173 C172 1.258 . S
O174 Co171 1.966 . S
O174 C172 1.263 . S
C175 O176 1.235 . S
C175 O202 1.289 . S
O176 C175 1.235 . S
C177 C179 1.400 . S
C177 N180 1.351 . S
C177 C182 1.501 . S
C178 C179 1.387 . S
C178 N181 1.341 . S
C179 C177 1.400 . S
C179 C178 1.387 . S
N180 Co171 2.022 1_556 S
N180 C177 1.351 . S
N180 N181 1.365 . S
N181 C178 1.341 . S
N181 N180 1.365 . S
N181 H201 0.862 . S
C182 C177 1.501 . S
C182 H183 0.961 . S
C182 H184 0.961 . S
C182 H185 0.960 . S
H183 C182 0.961 . S
H184 C182 0.961 . S
H185 C182 0.960 . S
C186 N187 1.342 . S
C186 C190 1.401 . S
C186 C191 1.499 . S
N187 Co170 1.989 . S
N187 C186 1.342 . S
N187 N188 1.388 . S
N188 Co171 1.993 . S
N188 N187 1.388 . S
N188 C189 1.346 . S
C189 N188 1.346 . S
C189 C190 1.396 . S
C189 C199 1.510 1_554 S
C190 C186 1.401 . S
C190 C189 1.396 . S
C191 C186 1.499 . S
C191 H192 0.959 . S
C191 H193 0.960 . S
C191 H194 0.961 . S
H192 C191 0.959 . S
H193 C191 0.960 . S
H194 C191 0.961 . S
O195 Co170 1.967 . S
O195 C203 1.258 . S
O196 Co171 1.941 . S
O196 C203 1.266 . S
H197 C199 0.959 . S
H198 C199 0.961 . S
C199 C189 1.510 1_556 S
C199 H197 0.959 . S
C199 H198 0.961 . S
C199 H200 0.960 . S
H200 C199 0.960 . S
H201 N181 0.862 . S
O202 Co170 1.920 . S
O202 C175 1.289 . S
C203 O195 1.258 . S
C203 O196 1.266 . S
H204 C212 0.929 . S
H205 C214 0.930 . S
H206 C216 0.930 . S
H207 C219 0.929 . S
H208 C222 0.930 . S
H209 C224 0.960 . S
H210 C224 0.960 . S
H211 C224 0.960 . S
C212 H204 0.929 . S
C212 C213 1.377 . S
C212 C214 1.384 . S
C213 C212 1.377 . S
C213 C219 1.390 . S
C214 H205 0.930 . S
C214 C212 1.384 . S
C214 C215 1.372 . S
C215 C214 1.372 . S
C215 C216 1.400 . S
C215 C220 1.490 . S
C216 H206 0.930 . S
C216 C215 1.400 . S
C216 C219 1.386 . S
H217 C233 0.930 . S
H218 C234 0.931 . S
C219 H207 0.929 . S
C219 C213 1.390 . S
C219 C216 1.386 . S
C220 C215 1.490 . S
C220 C222 1.395 . S
C220 C223 1.403 . S
H221 C227 0.930 . S
C222 H208 0.930 . S
C222 C220 1.395 . S
C222 C225 1.403 1_455 S
C223 C220 1.403 . S
C223 C224 1.524 1_554 S
C223 C227 1.400 1_455 S
C224 H209 0.960 . S
C224 H210 0.960 . S
C224 H211 0.960 . S
C224 C223 1.524 1_556 S
C225 C222 1.403 1_655 S
C225 C226 1.392 . S
C225 C229 1.495 . S
C226 C225 1.392 . S
C226 C227 1.385 . S
C226 C228 1.478 . S
C227 H221 0.930 . S
C227 C223 1.400 1_655 S
C227 C226 1.385 . S
C228 C226 1.478 . S
C228 C230 1.381 . S
C228 C234 1.383 . S
C229 C225 1.495 . S
C229 H235 0.959 . S
C229 H236 0.961 . S
C229 H237 0.960 . S
C230 C228 1.381 . S
C230 C231 1.394 . S
C230 H238 0.930 . S
C231 C230 1.394 . S
C231 C232 1.383 . S
C231 H239 0.929 . S
C232 C231 1.383 . S
C232 C233 1.377 . S
C233 H217 0.930 . S
C233 C232 1.377 . S
C233 C234 1.379 . S
C234 H218 0.931 . S
C234 C228 1.383 . S
C234 C233 1.379 . S
H235 C229 0.959 . S
H236 C229 0.961 . S
H237 C229 0.960 . S
H238 C230 0.930 . S
H239 C231 0.929 . S
H240 C248 0.929 . S
H241 C250 0.930 . S
H242 C252 0.930 . S
H243 C255 0.929 . S
H244 C258 0.930 . S
H245 C260 0.960 1_545 S
H246 C260 0.960 . S
H247 C260 0.960 1_554 S
C248 H240 0.929 . S
C248 C249 1.377 . S
C248 C250 1.384 . S
C249 C248 1.377 . S
C249 C255 1.390 . S
C250 H241 0.930 . S
C250 C248 1.384 . S
C250 C251 1.372 . S
C251 C250 1.372 . S
C251 C252 1.400 . S
C251 C256 1.490 . S
C252 H242 0.930 . S
C252 C251 1.400 . S
C252 C255 1.386 . S
H253 C269 0.930 . S
H254 C270 0.931 . S
C255 H243 0.929 . S
C255 C249 1.390 . S
C255 C252 1.386 . S
C256 C251 1.490 . S
C256 C258 1.395 . S
C256 C259 1.403 . S
H257 C263 0.930 . S
C258 H244 0.930 . S
C258 C256 1.395 . S
C258 C261 1.403 . S
C259 C256 1.403 . S
C259 C260 1.524 1_554 S
C259 C263 1.400 1_565 S
C260 H245 0.960 1_565 S
C260 H246 0.960 . S
C260 H247 0.960 1_556 S
C260 C259 1.524 1_556 S
C261 C258 1.403 . S
C261 C262 1.392 1_565 S
C261 C265 1.495 . S
C262 C261 1.392 1_545 S
C262 C263 1.385 . S
C262 C264 1.478 . S
C263 H257 0.930 . S
C263 C259 1.400 1_545 S
C263 C262 1.385 . S
C264 C262 1.478 . S
C264 C266 1.381 . S
C264 C270 1.383 . S
C265 C261 1.495 . S
C265 H271 0.959 . S
C265 H272 0.961 1_565 S
C265 H273 0.960 . S
C266 C264 1.381 . S
C266 C267 1.394 . S
C266 H274 0.930 . S
C267 C266 1.394 . S
C267 C268 1.383 . S
C267 H275 0.929 . S
C268 C267 1.383 . S
C268 C269 1.377 . S
C269 H253 0.930 . S
C269 C268 1.377 . S
C269 C270 1.379 . S
C270 H254 0.931 . S
C270 C264 1.383 . S
C270 C269 1.379 . S
H271 C265 0.959 . S
H272 C265 0.961 1_545 S
H273 C265 0.960 . S
H274 C266 0.930 . S
H275 C267 0.929 . S
H276 C284 0.929 . S
H277 C286 0.930 . S
H278 C288 0.930 . S
H279 C291 0.929 . S
H280 C294 0.930 . S
H281 C296 0.960 . S
H282 C296 0.960 . S
H283 C296 0.960 . S
C284 H276 0.929 . S
C284 C285 1.377 . S
C284 C286 1.384 . S
C285 C284 1.377 . S
C285 C291 1.390 . S
C286 H277 0.930 . S
C286 C284 1.384 . S
C286 C287 1.372 . S
C287 C286 1.372 . S
C287 C288 1.400 . S
C287 C292 1.490 . S
C288 H278 0.930 . S
C288 C287 1.400 . S
C288 C291 1.386 . S
H289 C305 0.930 . S
H290 C306 0.931 . S
C291 H279 0.929 . S
C291 C285 1.390 . S
C291 C288 1.386 . S
C292 C287 1.490 . S
C292 C294 1.395 . S
C292 C295 1.403 . S
H293 C299 0.930 . S
C294 H280 0.930 . S
C294 C292 1.395 . S
C294 C297 1.403 . S
C295 C292 1.403 . S
C295 C296 1.524 . S
C295 C299 1.400 . S
C296 H281 0.960 . S
C296 H282 0.960 . S
C296 H283 0.960 . S
C296 C295 1.524 . S
C297 C294 1.403 . S
C297 C298 1.392 . S
C297 C301 1.495 . S
C298 C297 1.392 . S
C298 C299 1.385 . S
C298 C300 1.478 . S
C299 H293 0.930 . S
C299 C295 1.400 . S
C299 C298 1.385 . S
C300 C298 1.478 . S
C300 C302 1.381 . S
C300 C306 1.383 . S
C301 C297 1.495 . S
C301 H307 0.959 . S
C301 H308 0.961 . S
C301 H309 0.960 . S
C302 C300 1.381 . S
C302 C303 1.394 . S
C302 H310 0.930 . S
C303 C302 1.394 . S
C303 C304 1.383 . S
C303 H311 0.929 . S
C304 C303 1.383 . S
C304 C305 1.377 . S
C305 H289 0.930 . S
C305 C304 1.377 . S
C305 C306 1.379 . S
C306 H290 0.931 . S
C306 C300 1.383 . S
C306 C305 1.379 . S
H307 C301 0.959 . S
H308 C301 0.961 . S
H309 C301 0.960 . S
H310 C302 0.930 . S
H311 C303 0.929 . S
H312 C320 0.929 . S
H313 C322 0.930 . S
H314 C324 0.930 . S
H315 C327 0.929 . S
H316 C330 0.930 . S
H317 C332 0.960 . S
H318 C332 0.960 . S
H319 C332 0.960 . S
C320 H312 0.929 . S
C320 C321 1.377 . S
C320 C322 1.384 . S
C321 C320 1.377 . S
C321 C327 1.390 . S
C322 H313 0.930 . S
C322 C320 1.384 . S
C322 C323 1.372 . S
C323 C322 1.372 . S
C323 C324 1.400 . S
C323 C328 1.490 . S
C324 H314 0.930 . S
C324 C323 1.400 . S
C324 C327 1.386 . S
H325 C341 0.930 . S
H326 C342 0.931 . S
C327 H315 0.929 . S
C327 C321 1.390 . S
C327 C324 1.386 . S
C328 C323 1.490 . S
C328 C330 1.395 . S
C328 C331 1.403 . S
H329 C335 0.930 . S
C330 H316 0.930 . S
C330 C328 1.395 . S
C330 C333 1.403 . S
C331 C328 1.403 . S
C331 C332 1.524 . S
C331 C335 1.400 . S
C332 H317 0.960 . S
C332 H318 0.960 . S
C332 H319 0.960 . S
C332 C331 1.524 . S
C333 C330 1.403 . S
C333 C334 1.392 . S
C333 C337 1.495 . S
C334 C333 1.392 . S
C334 C335 1.385 . S
C334 C336 1.478 . S
C335 H329 0.930 . S
C335 C331 1.400 . S
C335 C334 1.385 . S
C336 C334 1.478 . S
C336 C338 1.381 . S
C336 C342 1.383 . S
C337 C333 1.495 . S
C337 H343 0.959 . S
C337 H344 0.961 . S
C337 H345 0.960 . S
C338 C336 1.381 . S
C338 C339 1.394 . S
C338 H346 0.930 . S
C339 C338 1.394 . S
C339 C340 1.383 . S
C339 H347 0.929 . S
C340 C339 1.383 . S
C340 C341 1.377 . S
C341 H325 0.930 . S
C341 C340 1.377 . S
C341 C342 1.379 . S
C342 H326 0.931 . S
C342 C336 1.383 . S
C342 C341 1.379 . S
H343 C337 0.959 . S
H344 C337 0.961 . S
H345 C337 0.960 . S
H346 C338 0.930 . S
H347 C339 0.929 . S
H348 C356 0.929 . S
H349 C358 0.930 . S
H350 C360 0.930 . S
H351 C363 0.929 . S
H352 C366 0.930 . S
H353 C368 0.960 . S
H354 C368 0.960 . S
H355 C368 0.960 . S
C356 H348 0.929 . S
C356 C357 1.377 . S
C356 C358 1.384 . S
C357 C356 1.377 . S
C357 C363 1.390 . S
C358 H349 0.930 . S
C358 C356 1.384 . S
C358 C359 1.372 . S
C359 C358 1.372 . S
C359 C360 1.400 . S
C359 C364 1.490 . S
C360 H350 0.930 . S
C360 C359 1.400 . S
C360 C363 1.386 . S
H361 C377 0.930 . S
H362 C378 0.931 . S
C363 H351 0.929 . S
C363 C357 1.390 . S
C363 C360 1.386 . S
C364 C359 1.490 . S
C364 C366 1.395 . S
C364 C367 1.403 . S
H365 C371 0.930 . S
C366 H352 0.930 . S
C366 C364 1.395 . S
C366 C369 1.403 . S
C367 C364 1.403 . S
C367 C368 1.524 . S
C367 C371 1.400 . S
C368 H353 0.960 . S
C368 H354 0.960 . S
C368 H355 0.960 . S
C368 C367 1.524 . S
C369 C366 1.403 . S
C369 C370 1.392 . S
C369 C373 1.495 . S
C370 C369 1.392 . S
C370 C371 1.385 . S
C370 C372 1.478 . S
C371 H365 0.930 . S
C371 C367 1.400 . S
C371 C370 1.385 . S
C372 C370 1.478 . S
C372 C374 1.381 . S
C372 C378 1.383 . S
C373 C369 1.495 . S
C373 H379 0.959 . S
C373 H380 0.961 . S
C373 H381 0.960 . S
C374 C372 1.381 . S
C374 C375 1.394 . S
C374 H382 0.930 . S
C375 C374 1.394 . S
C375 C376 1.383 . S
C375 H383 0.929 . S
C376 C375 1.383 . S
C376 C377 1.377 . S
C377 H361 0.930 . S
C377 C376 1.377 . S
C377 C378 1.379 . S
C378 H362 0.931 . S
C378 C372 1.383 . S
C378 C377 1.379 . S
H379 C373 0.959 . S
H380 C373 0.961 . S
H381 C373 0.960 . S
H382 C374 0.930 . S
H383 C375 0.929 . S
H384 C392 0.929 . S
H385 C394 0.930 . S
H386 C396 0.930 . S
H387 C399 0.929 . S
H388 C402 0.930 . S
H389 C404 0.960 . S
H390 C404 0.960 . S
H391 C404 0.960 . S
C392 H384 0.929 . S
C392 C393 1.377 . S
C392 C394 1.384 . S
C393 C392 1.377 . S
C393 C399 1.390 . S
C394 H385 0.930 . S
C394 C392 1.384 . S
C394 C395 1.372 . S
C395 C394 1.372 . S
C395 C396 1.400 . S
C395 C400 1.490 . S
C396 H386 0.930 . S
C396 C395 1.400 . S
C396 C399 1.386 . S
H397 C413 0.930 . S
H398 C414 0.931 . S
C399 H387 0.929 . S
C399 C393 1.390 . S
C399 C396 1.386 . S
C400 C395 1.490 . S
C400 C402 1.395 . S
C400 C403 1.403 . S
H401 C407 0.930 . S
C402 H388 0.930 . S
C402 C400 1.395 . S
C402 C405 1.403 . S
C403 C400 1.403 . S
C403 C404 1.524 . S
C403 C407 1.400 . S
C404 H389 0.960 . S
C404 H390 0.960 . S
C404 H391 0.960 . S
C404 C403 1.524 . S
C405 C402 1.403 . S
C405 C406 1.392 . S
C405 C409 1.495 . S
C406 C405 1.392 . S
C406 C407 1.385 . S
C406 C408 1.478 . S
C407 H401 0.930 . S
C407 C403 1.400 . S
C407 C406 1.385 . S
C408 C406 1.478 . S
C408 C410 1.381 . S
C408 C414 1.383 . S
C409 C405 1.495 . S
C409 H415 0.959 . S
C409 H416 0.961 . S
C409 H417 0.960 . S
C410 C408 1.381 . S
C410 C411 1.394 . S
C410 H418 0.930 . S
C411 C410 1.394 . S
C411 C412 1.383 . S
C411 H419 0.929 . S
C412 C411 1.383 . S
C412 C413 1.377 . S
C413 H397 0.930 . S
C413 C412 1.377 . S
C413 C414 1.379 . S
C414 H398 0.931 . S
C414 C408 1.383 . S
C414 C413 1.379 . S
H415 C409 0.959 . S
H416 C409 0.961 . S
H417 C409 0.960 . S
H418 C410 0.930 . S
H419 C411 0.929 . S
H420 C428 0.929 . S
H421 C430 0.930 . S
H422 C432 0.930 . S
H423 C435 0.929 . S
H424 C438 0.930 . S
H425 C440 0.960 . S
H426 C440 0.960 . S
H427 C440 0.960 . S
C428 H420 0.929 . S
C428 C429 1.377 . S
C428 C430 1.384 . S
C429 C428 1.377 . S
C429 C435 1.390 . S
C430 H421 0.930 . S
C430 C428 1.384 . S
C430 C431 1.372 . S
C431 C430 1.372 . S
C431 C432 1.400 . S
C431 C436 1.490 . S
C432 H422 0.930 . S
C432 C431 1.400 . S
C432 C435 1.386 . S
H433 C449 0.930 . S
H434 C450 0.931 . S
C435 H423 0.929 . S
C435 C429 1.390 . S
C435 C432 1.386 . S
C436 C431 1.490 . S
C436 C438 1.395 . S
C436 C439 1.403 . S
H437 C443 0.930 . S
C438 H424 0.930 . S
C438 C436 1.395 . S
C438 C441 1.403 . S
C439 C436 1.403 . S
C439 C440 1.524 . S
C439 C443 1.400 . S
C440 H425 0.960 . S
C440 H426 0.960 . S
C440 H427 0.960 . S
C440 C439 1.524 . S
C441 C438 1.403 . S
C441 C442 1.392 . S
C441 C445 1.495 . S
C442 C441 1.392 . S
C442 C443 1.385 . S
C442 C444 1.478 . S
C443 H437 0.930 . S
C443 C439 1.400 . S
C443 C442 1.385 . S
C444 C442 1.478 . S
C444 C446 1.381 . S
C444 C450 1.383 . S
C445 C441 1.495 . S
C445 H451 0.959 . S
C445 H452 0.961 . S
C445 H453 0.960 . S
C446 C444 1.381 . S
C446 C447 1.394 . S
C446 H454 0.930 . S
C447 C446 1.394 . S
C447 C448 1.383 . S
C447 H455 0.929 . S
C448 C447 1.383 . S
C448 C449 1.377 . S
C449 H433 0.930 . S
C449 C448 1.377 . S
C449 C450 1.379 . S
C450 H434 0.931 . S
C450 C444 1.383 . S
C450 C449 1.379 . S
H451 C445 0.959 . S
H452 C445 0.961 . S
H453 C445 0.960 . S
H454 C446 0.930 . S
H455 C447 0.929 . S
H456 C464 0.929 . S
H457 C466 0.930 . S
H458 C468 0.930 . S
H459 C471 0.929 . S
H460 C474 0.930 . S
H461 C476 0.960 . S
H462 C476 0.960 . S
H463 C476 0.960 . S
C464 H456 0.929 . S
C464 C465 1.377 . S
C464 C466 1.384 . S
C465 C464 1.377 . S
C465 C471 1.390 . S
C466 H457 0.930 . S
C466 C464 1.384 . S
C466 C467 1.372 . S
C467 C466 1.372 . S
C467 C468 1.400 . S
C467 C472 1.490 . S
C468 H458 0.930 . S
C468 C467 1.400 . S
C468 C471 1.386 . S
H469 C485 0.930 . S
H470 C486 0.931 . S
C471 H459 0.929 . S
C471 C465 1.390 . S
C471 C468 1.386 . S
C472 C467 1.490 . S
C472 C474 1.395 . S
C472 C475 1.403 . S
H473 C479 0.930 . S
C474 H460 0.930 . S
C474 C472 1.395 . S
C474 C477 1.403 . S
C475 C472 1.403 . S
C475 C476 1.524 . S
C475 C479 1.400 . S
C476 H461 0.960 . S
C476 H462 0.960 . S
C476 H463 0.960 . S
C476 C475 1.524 . S
C477 C474 1.403 . S
C477 C478 1.392 . S
C477 C481 1.495 . S
C478 C477 1.392 . S
C478 C479 1.385 . S
C478 C480 1.478 . S
C479 H473 0.930 . S
C479 C475 1.400 . S
C479 C478 1.385 . S
C480 C478 1.478 . S
C480 C482 1.381 . S
C480 C486 1.383 . S
C481 C477 1.495 . S
C481 H487 0.959 . S
C481 H488 0.961 . S
C481 H489 0.960 . S
C482 C480 1.381 . S
C482 C483 1.394 . S
C482 H490 0.930 . S
C483 C482 1.394 . S
C483 C484 1.383 . S
C483 H491 0.929 . S
C484 C483 1.383 . S
C484 C485 1.377 . S
C485 H469 0.930 . S
C485 C484 1.377 . S
C485 C486 1.379 . S
C486 H470 0.931 . S
C486 C480 1.383 . S
C486 C485 1.379 . S
H487 C481 0.959 . S
H488 C481 0.961 . S
H489 C481 0.960 . S
H490 C482 0.930 . S
H491 C483 0.929 . S
H492 C500 0.929 . S
H493 C502 0.930 . S
H494 C504 0.930 . S
H495 C507 0.929 . S
H496 C510 0.930 . S
H497 C512 0.960 . S
H498 C512 0.960 . S
H499 C512 0.960 . S
C500 H492 0.929 . S
C500 C501 1.377 . S
C500 C502 1.384 . S
C501 C500 1.377 . S
C501 C507 1.390 . S
C502 H493 0.930 . S
C502 C500 1.384 . S
C502 C503 1.372 . S
C503 C502 1.372 . S
C503 C504 1.400 . S
C503 C508 1.490 . S
C504 H494 0.930 . S
C504 C503 1.400 . S
C504 C507 1.386 . S
H505 C521 0.930 . S
H506 C522 0.931 . S
C507 H495 0.929 . S
C507 C501 1.390 . S
C507 C504 1.386 . S
C508 C503 1.490 . S
C508 C510 1.395 . S
C508 C511 1.403 . S
H509 C515 0.930 . S
C510 H496 0.930 . S
C510 C508 1.395 . S
C510 C513 1.403 . S
C511 C508 1.403 . S
C511 C512 1.524 . S
C511 C515 1.400 . S
C512 H497 0.960 . S
C512 H498 0.960 . S
C512 H499 0.960 . S
C512 C511 1.524 . S
C513 C510 1.403 . S
C513 C514 1.392 . S
C513 C517 1.495 . S
C514 C513 1.392 . S
C514 C515 1.385 . S
C514 C516 1.478 . S
C515 H509 0.930 . S
C515 C511 1.400 . S
C515 C514 1.385 . S
C516 C514 1.478 . S
C516 C518 1.381 . S
C516 C522 1.383 . S
C517 C513 1.495 . S
C517 H523 0.959 . S
C517 H524 0.961 . S
C517 H525 0.960 . S
C518 C516 1.381 . S
C518 C519 1.394 . S
C518 H526 0.930 . S
C519 C518 1.394 . S
C519 C520 1.383 . S
C519 H527 0.929 . S
C520 C519 1.383 . S
C520 C521 1.377 . S
C521 H505 0.930 . S
C521 C520 1.377 . S
C521 C522 1.379 . S
C522 H506 0.931 . S
C522 C516 1.383 . S
C522 C521 1.379 . S
H523 C517 0.959 . S
H524 C517 0.961 . S
H525 C517 0.960 . S
H526 C518 0.930 . S
H527 C519 0.929 . S
H528 C536 0.929 . S
H529 C538 0.930 . S
H530 C540 0.930 . S
H531 C543 0.929 . S
H532 C546 0.930 . S
H533 C548 0.960 . S
H534 C548 0.960 . S
H535 C548 0.960 . S
C536 H528 0.929 . S
C536 C537 1.377 . S
C536 C538 1.384 . S
C537 C536 1.377 . S
C537 C543 1.390 . S
C538 H529 0.930 . S
C538 C536 1.384 . S
C538 C539 1.372 . S
C539 C538 1.372 . S
C539 C540 1.400 . S
C539 C544 1.490 . S
C540 H530 0.930 . S
C540 C539 1.400 . S
C540 C543 1.386 . S
H541 C557 0.930 . S
H542 C558 0.931 . S
C543 H531 0.929 . S
C543 C537 1.390 . S
C543 C540 1.386 . S
C544 C539 1.490 . S
C544 C546 1.395 . S
C544 C547 1.403 . S
H545 C551 0.930 . S
C546 H532 0.930 . S
C546 C544 1.395 . S
C546 C549 1.403 . S
C547 C544 1.403 . S
C547 C548 1.524 . S
C547 C551 1.400 . S
C548 H533 0.960 . S
C548 H534 0.960 . S
C548 H535 0.960 . S
C548 C547 1.524 . S
C549 C546 1.403 . S
C549 C550 1.392 . S
C549 C553 1.495 . S
C550 C549 1.392 . S
C550 C551 1.385 . S
C550 C552 1.478 . S
C551 H545 0.930 . S
C551 C547 1.400 . S
C551 C550 1.385 . S
C552 C550 1.478 . S
C552 C554 1.381 . S
C552 C558 1.383 . S
C553 C549 1.495 . S
C553 H559 0.959 . S
C553 H560 0.961 . S
C553 H561 0.960 . S
C554 C552 1.381 . S
C554 C555 1.394 . S
C554 H562 0.930 . S
C555 C554 1.394 . S
C555 C556 1.383 . S
C555 H563 0.929 . S
C556 C555 1.383 . S
C556 C557 1.377 . S
C557 H541 0.930 . S
C557 C556 1.377 . S
C557 C558 1.379 . S
C558 H542 0.931 . S
C558 C552 1.383 . S
C558 C557 1.379 . S
H559 C553 0.959 . S
H560 C553 0.961 . S
H561 C553 0.960 . S
H562 C554 0.930 . S
H563 C555 0.929 . S
H564 C572 0.929 . S
H565 C574 0.930 . S
H566 C576 0.930 . S
H567 C579 0.929 . S
H568 C582 0.930 . S
H569 C584 0.960 . S
H570 C584 0.960 . S
H571 C584 0.960 1_554 S
C572 H564 0.929 . S
C572 C573 1.377 . S
C572 C574 1.384 . S
C573 C572 1.377 . S
C573 C579 1.390 . S
C574 H565 0.930 . S
C574 C572 1.384 . S
C574 C575 1.372 . S
C575 C574 1.372 . S
C575 C576 1.400 . S
C575 C580 1.490 . S
C576 H566 0.930 . S
C576 C575 1.400 . S
C576 C579 1.386 . S
H577 C593 0.930 . S
H578 C594 0.931 . S
C579 H567 0.929 . S
C579 C573 1.390 . S
C579 C576 1.386 . S
C580 C575 1.490 . S
C580 C582 1.395 . S
C580 C583 1.403 . S
H581 C587 0.930 . S
C582 H568 0.930 . S
C582 C580 1.395 . S
C582 C585 1.403 . S
C583 C580 1.403 . S
C583 C584 1.524 1_554 S
C583 C587 1.400 . S
C584 H569 0.960 . S
C584 H570 0.960 . S
C584 H571 0.960 1_556 S
C584 C583 1.524 1_556 S
C585 C582 1.403 . S
C585 C586 1.392 . S
C585 C589 1.495 . S
C586 C585 1.392 . S
C586 C587 1.385 . S
C586 C588 1.478 . S
C587 H581 0.930 . S
C587 C583 1.400 . S
C587 C586 1.385 . S
C588 C586 1.478 . S
C588 C590 1.381 . S
C588 C594 1.383 . S
C589 C585 1.495 . S
C589 H595 0.959 . S
C589 H596 0.961 . S
C589 H597 0.960 . S
C590 C588 1.381 . S
C590 C591 1.394 . S
C590 H598 0.930 . S
C591 C590 1.394 . S
C591 C592 1.383 . S
C591 H599 0.929 . S
C592 C591 1.383 . S
C592 C593 1.377 . S
C593 H577 0.930 . S
C593 C592 1.377 . S
C593 C594 1.379 . S
C594 H578 0.931 . S
C594 C588 1.383 . S
C594 C593 1.379 . S
H595 C589 0.959 . S
H596 C589 0.961 . S
H597 C589 0.960 . S
H598 C590 0.930 . S
H599 C591 0.929 . S
H600 C608 0.929 . S
H601 C610 0.930 . S
H602 C612 0.930 . S
H603 C615 0.929 . S
H604 C618 0.930 . S
H605 C620 0.960 . S
H606 C620 0.960 . S
H607 C620 0.960 . S
C608 H600 0.929 . S
C608 C609 1.377 . S
C608 C610 1.384 . S
C609 C608 1.377 . S
C609 C615 1.390 . S
C610 H601 0.930 . S
C610 C608 1.384 . S
C610 C611 1.372 . S
C611 C610 1.372 . S
C611 C612 1.400 . S
C611 C616 1.490 . S
C612 H602 0.930 . S
C612 C611 1.400 . S
C612 C615 1.386 . S
H613 C629 0.930 . S
H614 C630 0.931 . S
C615 H603 0.929 . S
C615 C609 1.390 . S
C615 C612 1.386 . S
C616 C611 1.490 . S
C616 C618 1.395 . S
C616 C619 1.403 . S
H617 C623 0.930 . S
C618 H604 0.930 . S
C618 C616 1.395 . S
C618 C621 1.403 . S
C619 C616 1.403 . S
C619 C620 1.524 . S
C619 C623 1.400 . S
C620 H605 0.960 . S
C620 H606 0.960 . S
C620 H607 0.960 . S
C620 C619 1.524 . S
C621 C618 1.403 . S
C621 C622 1.392 . S
C621 C625 1.495 . S
C622 C621 1.392 . S
C622 C623 1.385 . S
C622 C624 1.478 . S
C623 H617 0.930 . S
C623 C619 1.400 . S
C623 C622 1.385 . S
C624 C622 1.478 . S
C624 C626 1.381 . S
C624 C630 1.383 . S
C625 C621 1.495 . S
C625 H631 0.959 . S
C625 H632 0.961 . S
C625 H633 0.960 . S
C626 C624 1.381 . S
C626 C627 1.394 . S
C626 H634 0.930 1_554 S
C627 C626 1.394 . S
C627 C628 1.383 . S
C627 H635 0.929 1_554 S
C628 C627 1.383 . S
C628 C629 1.377 . S
C629 H613 0.930 . S
C629 C628 1.377 . S
C629 C630 1.379 . S
C630 H614 0.931 . S
C630 C624 1.383 . S
C630 C629 1.379 . S
H631 C625 0.959 . S
H632 C625 0.961 . S
H633 C625 0.960 . S
H634 C626 0.930 1_556 S
H635 C627 0.929 1_556 S
H636 C644 0.929 . S
H637 C646 0.930 . S
H638 C648 0.930 . S
H639 C651 0.929 . S
H640 C654 0.930 . S
H641 C656 0.960 . S
H642 C656 0.960 . S
H643 C656 0.960 . S
C644 H636 0.929 . S
C644 C645 1.377 . S
C644 C646 1.384 . S
C645 C644 1.377 . S
C645 C651 1.390 . S
C646 H637 0.930 . S
C646 C644 1.384 . S
C646 C647 1.372 . S
C647 C646 1.372 . S
C647 C648 1.400 . S
C647 C652 1.490 . S
C648 H638 0.930 . S
C648 C647 1.400 . S
C648 C651 1.386 . S
H649 C665 0.930 . S
H650 C666 0.931 . S
C651 H639 0.929 . S
C651 C645 1.390 . S
C651 C648 1.386 . S
C652 C647 1.490 . S
C652 C654 1.395 . S
C652 C655 1.403 . S
H653 C659 0.930 . S
C654 H640 0.930 . S
C654 C652 1.395 . S
C654 C657 1.403 . S
C655 C652 1.403 . S
C655 C656 1.524 . S
C655 C659 1.400 . S
C656 H641 0.960 . S
C656 H642 0.960 . S
C656 H643 0.960 . S
C656 C655 1.524 . S
C657 C654 1.403 . S
C657 C658 1.392 . S
C657 C661 1.495 . S
C658 C657 1.392 . S
C658 C659 1.385 . S
C658 C660 1.478 . S
C659 H653 0.930 . S
C659 C655 1.400 . S
C659 C658 1.385 . S
C660 C658 1.478 . S
C660 C662 1.381 . S
C660 C666 1.383 . S
C661 C657 1.495 . S
C661 H667 0.959 . S
C661 H668 0.961 . S
C661 H669 0.960 . S
C662 C660 1.381 . S
C662 C663 1.394 . S
C662 H670 0.930 . S
C663 C662 1.394 . S
C663 C664 1.383 . S
C663 H671 0.929 . S
C664 C663 1.383 . S
C664 C665 1.377 . S
C665 H649 0.930 . S
C665 C664 1.377 . S
C665 C666 1.379 . S
C666 H650 0.931 . S
C666 C660 1.383 . S
C666 C665 1.379 . S
H667 C661 0.959 . S
H668 C661 0.961 . S
H669 C661 0.960 . S
H670 C662 0.930 . S
H671 C663 0.929 . S
H672 C680 0.929 . S
H673 C682 0.930 1_556 S
H674 C684 0.930 . S
H675 C687 0.929 . S
H676 C690 0.930 . S
H677 C692 0.960 . S
H678 C692 0.960 . S
H679 C692 0.960 . S
C680 H672 0.929 . S
C680 C681 1.377 . S
C680 C682 1.384 . S
C681 C680 1.377 . S
C681 C687 1.390 . S
C682 H673 0.930 1_554 S
C682 C680 1.384 . S
C682 C683 1.372 . S
C683 C682 1.372 . S
C683 C684 1.400 . S
C683 C688 1.490 . S
C684 H674 0.930 . S
C684 C683 1.400 . S
C684 C687 1.386 . S
H685 C701 0.930 . S
H686 C702 0.931 . S
C687 H675 0.929 . S
C687 C681 1.390 . S
C687 C684 1.386 . S
C688 C683 1.490 . S
C688 C690 1.395 . S
C688 C691 1.403 . S
H689 C695 0.930 . S
C690 H676 0.930 . S
C690 C688 1.395 . S
C690 C693 1.403 . S
C691 C688 1.403 . S
C691 C692 1.524 . S
C691 C695 1.400 . S
C692 H677 0.960 . S
C692 H678 0.960 . S
C692 H679 0.960 . S
C692 C691 1.524 . S
C693 C690 1.403 . S
C693 C694 1.392 . S
C693 C697 1.495 . S
C694 C693 1.392 . S
C694 C695 1.385 . S
C694 C696 1.478 . S
C695 H689 0.930 . S
C695 C691 1.400 . S
C695 C694 1.385 . S
C696 C694 1.478 . S
C696 C698 1.381 . S
C696 C702 1.383 . S
C697 C693 1.495 . S
C697 H703 0.959 . S
C697 H704 0.961 . S
C697 H705 0.960 1_554 S
C698 C696 1.381 . S
C698 C699 1.394 . S
C698 H706 0.930 1_554 S
C699 C698 1.394 . S
C699 C700 1.383 . S
C699 H707 0.929 1_554 S
C700 C699 1.383 . S
C700 C701 1.377 . S
C701 H685 0.930 . S
C701 C700 1.377 . S
C701 C702 1.379 . S
C702 H686 0.931 . S
C702 C696 1.383 . S
C702 C701 1.379 . S
H703 C697 0.959 . S
H704 C697 0.961 . S
H705 C697 0.960 1_556 S
H706 C698 0.930 1_556 S
H707 C699 0.929 1_556 S
H708 C716 0.929 . S
H709 C718 0.930 . S
H710 C720 0.930 . S
H711 C723 0.929 . S
H712 C726 0.930 . S
H713 C728 0.960 . S
H714 C728 0.960 . S
H715 C728 0.960 . S
C716 H708 0.929 . S
C716 C717 1.377 . S
C716 C718 1.384 . S
C717 C716 1.377 . S
C717 C723 1.390 . S
C718 H709 0.930 . S
C718 C716 1.384 . S
C718 C719 1.372 . S
C719 C718 1.372 . S
C719 C720 1.400 . S
C719 C724 1.490 . S
C720 H710 0.930 . S
C720 C719 1.400 . S
C720 C723 1.386 . S
H721 C737 0.930 . S
H722 C738 0.931 . S
C723 H711 0.929 . S
C723 C717 1.390 . S
C723 C720 1.386 . S
C724 C719 1.490 . S
C724 C726 1.395 . S
C724 C727 1.403 . S
H725 C731 0.930 . S
C726 H712 0.930 . S
C726 C724 1.395 . S
C726 C729 1.403 . S
C727 C724 1.403 . S
C727 C728 1.524 . S
C727 C731 1.400 . S
C728 H713 0.960 . S
C728 H714 0.960 . S
C728 H715 0.960 . S
C728 C727 1.524 . S
C729 C726 1.403 . S
C729 C730 1.392 . S
C729 C733 1.495 . S
C730 C729 1.392 . S
C730 C731 1.385 . S
C730 C732 1.478 . S
C731 H725 0.930 . S
C731 C727 1.400 . S
C731 C730 1.385 . S
C732 C730 1.478 . S
C732 C734 1.381 . S
C732 C738 1.383 . S
C733 C729 1.495 . S
C733 H739 0.959 . S
C733 H740 0.961 . S
C733 H741 0.960 . S
C734 C732 1.381 . S
C734 C735 1.394 . S
C734 H742 0.930 . S
C735 C734 1.394 . S
C735 C736 1.383 . S
C735 H743 0.929 . S
C736 C735 1.383 . S
C736 C737 1.377 . S
C737 H721 0.930 . S
C737 C736 1.377 . S
C737 C738 1.379 . S
C738 H722 0.931 . S
C738 C732 1.383 . S
C738 C737 1.379 . S
H739 C733 0.959 . S
H740 C733 0.961 . S
H741 C733 0.960 . S
H742 C734 0.930 . S
H743 C735 0.929 . S
C213 C20 1.249 . S
C232 C122 1.246 . S
C249 C156 1.420 . S
C268 C54 1.417 . S
C285 C190 1.272 . S
C304 C88 1.268 . S
C321 C9 1.409 . S
C340 C5 1.480 . S
C357 C39 1.484 . S
C376 C43 1.404 . S
C393 C73 1.488 . S
C412 C77 1.389 . S
C429 C111 1.394 . S
C448 C107 1.475 . S
C465 C141 1.476 . S
C484 C145 1.352 . S
C501 C175 1.486 . S
C520 C179 1.419 . S
C537 C2 0.878 . S
C556 C101 0.905 . S
C573 C67 0.980 . S
C592 C104 0.947 . S
C609 C70 0.908 . S
C628 C138 0.890 . S
C645 C135 0.726 . S
C664 C172 0.690 . S
C681 C33 0.706 . S
C700 C169 0.748 . S
C717 C36 1.091 . S
C736 C203 1.111 . S
