# Generated by pormake.
# Topology dei, (4)-cn, num edge types: 1
# Building blocks:
#     Node 0, Type 0, BuildingBlock: QUQFOY_clean_sbu_3, # of connection points: 4
#     Node 1, Type 0, BuildingBlock: QUQFOY_clean_sbu_3, # of connection points: 4
#     Node 2, Type 0, BuildingBlock: QUQFOY_clean_sbu_3, # of connection points: 4
#     Node 3, Type 0, BuildingBlock: QUQFOY_clean_sbu_3, # of connection points: 4
#     Node 4, Type 0, BuildingBlock: QUQFOY_clean_sbu_3, # of connection points: 4
#     Node 5, Type 0, BuildingBlock: QUQFOY_clean_sbu_3, # of connection points: 4
#     Node 6, Type 0, BuildingBlock: QUQFOY_clean_sbu_3, # of connection points: 4
#     Node 7, Type 0, BuildingBlock: QUQFOY_clean_sbu_3, # of connection points: 4
#     Node 8, Type 0, BuildingBlock: QUQFOY_clean_sbu_3, # of connection points: 4
#     Node 9, Type 0, BuildingBlock: QUQFOY_clean_sbu_3, # of connection points: 4
#     Node 10, Type 0, BuildingBlock: QUQFOY_clean_sbu_3, # of connection points: 4
#     Node 11, Type 0, BuildingBlock: QUQFOY_clean_sbu_3, # of connection points: 4
#     Node 12, Type 0, BuildingBlock: QUQFOY_clean_sbu_3, # of connection points: 4
#     Node 13, Type 0, BuildingBlock: QUQFOY_clean_sbu_3, # of connection points: 4
#     Node 14, Type 0, BuildingBlock: QUQFOY_clean_sbu_3, # of connection points: 4
#     Node 15, Type 0, BuildingBlock: QUQFOY_clean_sbu_3, # of connection points: 4
#     Node 16, Type 0, BuildingBlock: QUQFOY_clean_sbu_3, # of connection points: 4
#     Node 17, Type 0, BuildingBlock: QUQFOY_clean_sbu_3, # of connection points: 4
#     Node 18, Type 0, BuildingBlock: QUQFOY_clean_sbu_3, # of connection points: 4
#     Node 19, Type 0, BuildingBlock: QUQFOY_clean_sbu_3, # of connection points: 4
#     Node 20, Type 0, BuildingBlock: QUQFOY_clean_sbu_3, # of connection points: 4
#     Node 21, Type 0, BuildingBlock: QUQFOY_clean_sbu_3, # of connection points: 4
#     Node 22, Type 0, BuildingBlock: QUQFOY_clean_sbu_3, # of connection points: 4
#     Node 23, Type 0, BuildingBlock: QUQFOY_clean_sbu_3, # of connection points: 4
#     Node 24, Type 0, BuildingBlock: QUQFOY_clean_sbu_3, # of connection points: 4
#     Node 25, Type 0, BuildingBlock: QUQFOY_clean_sbu_3, # of connection points: 4
#     Node 26, Type 0, BuildingBlock: QUQFOY_clean_sbu_3, # of connection points: 4
#     Node 27, Type 0, BuildingBlock: QUQFOY_clean_sbu_3, # of connection points: 4
#     Node 28, Type 0, BuildingBlock: QUQFOY_clean_sbu_3, # of connection points: 4
#     Node 29, Type 0, BuildingBlock: QUQFOY_clean_sbu_3, # of connection points: 4
#     Node 30, Type 0, BuildingBlock: QUQFOY_clean_sbu_3, # of connection points: 4
#     Node 31, Type 0, BuildingBlock: QUQFOY_clean_sbu_3, # of connection points: 4
#     Edge 32, Type (0, 0), BuildingBlock: OJICUG_clean_linker_0, # of connection points: 2
#     Edge 33, Type (0, 0), BuildingBlock: OJICUG_clean_linker_0, # of connection points: 2
#     Edge 34, Type (0, 0), BuildingBlock: OJICUG_clean_linker_0, # of connection points: 2
#     Edge 35, Type (0, 0), BuildingBlock: OJICUG_clean_linker_0, # of connection points: 2
#     Edge 36, Type (0, 0), BuildingBlock: OJICUG_clean_linker_0, # of connection points: 2
#     Edge 37, Type (0, 0), BuildingBlock: OJICUG_clean_linker_0, # of connection points: 2
#     Edge 38, Type (0, 0), BuildingBlock: OJICUG_clean_linker_0, # of connection points: 2
#     Edge 39, Type (0, 0), BuildingBlock: OJICUG_clean_linker_0, # of connection points: 2
#     Edge 40, Type (0, 0), BuildingBlock: OJICUG_clean_linker_0, # of connection points: 2
#     Edge 41, Type (0, 0), BuildingBlock: OJICUG_clean_linker_0, # of connection points: 2
#     Edge 42, Type (0, 0), BuildingBlock: OJICUG_clean_linker_0, # of connection points: 2
#     Edge 43, Type (0, 0), BuildingBlock: OJICUG_clean_linker_0, # of connection points: 2
#     Edge 44, Type (0, 0), BuildingBlock: OJICUG_clean_linker_0, # of connection points: 2
#     Edge 45, Type (0, 0), BuildingBlock: OJICUG_clean_linker_0, # of connection points: 2
#     Edge 46, Type (0, 0), BuildingBlock: OJICUG_clean_linker_0, # of connection points: 2
#     Edge 47, Type (0, 0), BuildingBlock: OJICUG_clean_linker_0, # of connection points: 2
#     Edge 48, Type (0, 0), BuildingBlock: OJICUG_clean_linker_0, # of connection points: 2
#     Edge 49, Type (0, 0), BuildingBlock: OJICUG_clean_linker_0, # of connection points: 2
#     Edge 50, Type (0, 0), BuildingBlock: OJICUG_clean_linker_0, # of connection points: 2
#     Edge 51, Type (0, 0), BuildingBlock: OJICUG_clean_linker_0, # of connection points: 2
#     Edge 52, Type (0, 0), BuildingBlock: OJICUG_clean_linker_0, # of connection points: 2
#     Edge 53, Type (0, 0), BuildingBlock: OJICUG_clean_linker_0, # of connection points: 2
#     Edge 54, Type (0, 0), BuildingBlock: OJICUG_clean_linker_0, # of connection points: 2
#     Edge 55, Type (0, 0), BuildingBlock: OJICUG_clean_linker_0, # of connection points: 2
#     Edge 56, Type (0, 0), BuildingBlock: OJICUG_clean_linker_0, # of connection points: 2
#     Edge 57, Type (0, 0), BuildingBlock: OJICUG_clean_linker_0, # of connection points: 2
#     Edge 58, Type (0, 0), BuildingBlock: OJICUG_clean_linker_0, # of connection points: 2
#     Edge 59, Type (0, 0), BuildingBlock: OJICUG_clean_linker_0, # of connection points: 2
#     Edge 60, Type (0, 0), BuildingBlock: OJICUG_clean_linker_0, # of connection points: 2
#     Edge 61, Type (0, 0), BuildingBlock: OJICUG_clean_linker_0, # of connection points: 2
#     Edge 62, Type (0, 0), BuildingBlock: OJICUG_clean_linker_0, # of connection points: 2
#     Edge 63, Type (0, 0), BuildingBlock: OJICUG_clean_linker_0, # of connection points: 2
#     Edge 64, Type (0, 0), BuildingBlock: OJICUG_clean_linker_0, # of connection points: 2
#     Edge 65, Type (0, 0), BuildingBlock: OJICUG_clean_linker_0, # of connection points: 2
#     Edge 66, Type (0, 0), BuildingBlock: OJICUG_clean_linker_0, # of connection points: 2
#     Edge 67, Type (0, 0), BuildingBlock: OJICUG_clean_linker_0, # of connection points: 2
#     Edge 68, Type (0, 0), BuildingBlock: OJICUG_clean_linker_0, # of connection points: 2
#     Edge 69, Type (0, 0), BuildingBlock: OJICUG_clean_linker_0, # of connection points: 2
#     Edge 70, Type (0, 0), BuildingBlock: OJICUG_clean_linker_0, # of connection points: 2
#     Edge 71, Type (0, 0), BuildingBlock: OJICUG_clean_linker_0, # of connection points: 2
#     Edge 72, Type (0, 0), BuildingBlock: OJICUG_clean_linker_0, # of connection points: 2
#     Edge 73, Type (0, 0), BuildingBlock: OJICUG_clean_linker_0, # of connection points: 2
#     Edge 74, Type (0, 0), BuildingBlock: OJICUG_clean_linker_0, # of connection points: 2
#     Edge 75, Type (0, 0), BuildingBlock: OJICUG_clean_linker_0, # of connection points: 2
#     Edge 76, Type (0, 0), BuildingBlock: OJICUG_clean_linker_0, # of connection points: 2
#     Edge 77, Type (0, 0), BuildingBlock: OJICUG_clean_linker_0, # of connection points: 2
#     Edge 78, Type (0, 0), BuildingBlock: OJICUG_clean_linker_0, # of connection points: 2
#     Edge 79, Type (0, 0), BuildingBlock: OJICUG_clean_linker_0, # of connection points: 2
#     Edge 80, Type (0, 0), BuildingBlock: OJICUG_clean_linker_0, # of connection points: 2
#     Edge 81, Type (0, 0), BuildingBlock: OJICUG_clean_linker_0, # of connection points: 2
#     Edge 82, Type (0, 0), BuildingBlock: OJICUG_clean_linker_0, # of connection points: 2
#     Edge 83, Type (0, 0), BuildingBlock: OJICUG_clean_linker_0, # of connection points: 2
#     Edge 84, Type (0, 0), BuildingBlock: OJICUG_clean_linker_0, # of connection points: 2
#     Edge 85, Type (0, 0), BuildingBlock: OJICUG_clean_linker_0, # of connection points: 2
#     Edge 86, Type (0, 0), BuildingBlock: OJICUG_clean_linker_0, # of connection points: 2
#     Edge 87, Type (0, 0), BuildingBlock: OJICUG_clean_linker_0, # of connection points: 2
#     Edge 88, Type (0, 0), BuildingBlock: OJICUG_clean_linker_0, # of connection points: 2
#     Edge 89, Type (0, 0), BuildingBlock: OJICUG_clean_linker_0, # of connection points: 2
#     Edge 90, Type (0, 0), BuildingBlock: OJICUG_clean_linker_0, # of connection points: 2
#     Edge 91, Type (0, 0), BuildingBlock: OJICUG_clean_linker_0, # of connection points: 2
#     Edge 92, Type (0, 0), BuildingBlock: OJICUG_clean_linker_0, # of connection points: 2
#     Edge 93, Type (0, 0), BuildingBlock: OJICUG_clean_linker_0, # of connection points: 2
#     Edge 94, Type (0, 0), BuildingBlock: OJICUG_clean_linker_0, # of connection points: 2
#     Edge 95, Type (0, 0), BuildingBlock: OJICUG_clean_linker_0, # of connection points: 2
# Relax obj value: 0.242
# Max RMSD: 0.074
# Mean RMSD: 0.074
data_MOF--net-dei--node1-QUQFOY_clean_sbu_3--edge1-OJICUG_clean_linker_0
_symmetry_space_group_name_H-M    P1
_symmetry_Int_Tables_number       1
_symmetry_cell_setting            triclinic
loop_
_symmetry_equiv_pos_as_xyz
'x, y, z'
_cell_length_a     44.368359
_cell_length_b     44.211837
_cell_length_c     61.824034
_cell_angle_alpha  90.121287
_cell_angle_beta   90.123864
_cell_angle_gamma 90.097247
loop_
_atom_site_label
_atom_site_type_symbol
_atom_site_fract_x
_atom_site_fract_y
_atom_site_fract_z
_atom_type_partial_charge
C0 C 0.08128 0.61598 0.04472 0.0
O1 O 0.05519 0.62302 0.038 0.0
Cd2 Cd 0.03968 0.62598 0.00183 0.0
O3 O 0.10207 0.60884 0.03135 0.0
Cd4 Cd 0.10506 0.60252 -0.00948 0.0
C5 C 0.09378 0.67751 -0.01618 0.0
O6 O 0.05646 0.57963 -0.01229 0.0
O7 O 0.07015 0.60009 0.95809 0.0
O8 O 0.13068 0.55568 0.00032 0.0
C9 C 0.0515 0.58319 -0.03218 0.0
O10 O 0.0667 0.66967 -0.01224 0.0
C11 C 0.14544 0.55262 -0.01708 0.0
O12 O 0.11517 0.65819 -0.0149 0.0
O13 O 0.14437 0.57474 -0.03021 0.0
C14 C 0.62071 0.8464 0.29516 0.0
O15 O 0.61786 0.81804 0.29291 0.0
Cd16 Cd 0.60836 0.79504 0.2591 0.0
O17 O 0.62214 0.86389 0.27877 0.0
Cd18 Cd 0.62806 0.85837 0.2383 0.0
C19 C 0.55363 0.84428 0.23702 0.0
O20 O 0.6505 0.80917 0.23878 0.0
O21 O 0.62884 0.81929 0.20868 0.0
O22 O 0.67529 0.88391 0.24634 0.0
C23 C 0.64544 0.80148 0.21945 0.0
O24 O 0.56283 0.81918 0.24474 0.0
C25 C 0.67844 0.8969 0.22824 0.0
O26 O 0.57219 0.86597 0.23366 0.0
O27 O 0.65621 0.89496 0.21519 0.0
C28 C 0.38104 0.3747 0.5458 0.0
O29 O 0.40931 0.37217 0.54351 0.0
Cd30 Cd 0.43202 0.36223 0.50978 0.0
O31 O 0.36343 0.3755 0.52941 0.0
Cd32 Cd 0.36848 0.38053 0.48883 0.0
C33 C 0.38346 0.30607 0.48831 0.0
O34 O 0.41721 0.40387 0.48906 0.0
O35 O 0.40731 0.38128 0.45924 0.0
O36 O 0.34221 0.42761 0.49616 0.0
C37 C 0.42491 0.39844 0.46983 0.0
O38 O 0.40838 0.31586 0.49595 0.0
C39 C 0.32918 0.42998 0.47799 0.0
O40 O 0.36161 0.32429 0.48473 0.0
O41 O 0.33151 0.40737 0.46527 0.0
C42 C 0.85631 0.1335 0.79571 0.0
O43 O 0.85904 0.16186 0.7934 0.0
Cd44 Cd 0.86853 0.18456 0.7596 0.0
O45 O 0.85504 0.11583 0.77934 0.0
Cd46 Cd 0.8493 0.12085 0.73881 0.0
C47 C 0.92366 0.13542 0.7379 0.0
O48 O 0.82654 0.16988 0.73916 0.0
O49 O 0.8484 0.1598 0.70918 0.0
O50 O 0.80227 0.09491 0.74666 0.0
C51 C 0.83163 0.17755 0.71988 0.0
O52 O 0.91427 0.16053 0.74553 0.0
C53 C 0.79924 0.08182 0.72853 0.0
O54 O 0.90525 0.11359 0.73447 0.0
O55 O 0.82144 0.08394 0.71556 0.0
C56 C 0.09645 0.37659 0.88536 0.0
O57 O 0.06814 0.37407 0.88743 0.0
Cd58 Cd 0.04487 0.36402 0.92089 0.0
O59 O 0.11382 0.37732 0.90189 0.0
Cd60 Cd 0.10808 0.38214 0.94251 0.0
C61 C 0.0929 0.30775 0.94246 0.0
O62 O 0.05945 0.40558 0.94194 0.0
O63 O 0.06863 0.38259 -0.02836 0.0
O64 O 0.13521 0.42903 0.93598 0.0
C65 C 0.05132 0.39991 0.96104 0.0
O66 O 0.06815 0.31759 0.93465 0.0
C67 C 0.1473 0.43133 0.9545 0.0
O68 O 0.11474 0.32594 0.94636 0.0
O69 O 0.14415 0.40873 -0.03295 0.0
C70 C 0.85696 0.8457 0.13307 0.0
O71 O 0.85989 0.8173 0.13489 0.0
Cd72 Cd 0.86906 0.79332 0.16829 0.0
O73 O 0.85543 0.8628 0.14972 0.0
Cd74 Cd 0.84953 0.85641 0.19011 0.0
C75 C 0.92396 0.84192 0.19123 0.0
O76 O 0.82677 0.80736 0.18846 0.0
O77 O 0.84765 0.81639 0.21903 0.0
O78 O 0.80273 0.88284 0.18245 0.0
C79 C 0.8313 0.79894 0.20766 0.0
O80 O 0.91467 0.81703 0.1831 0.0
C81 C 0.79983 0.89548 0.20074 0.0
O82 O 0.90548 0.86353 0.19492 0.0
O83 O 0.82196 0.8928 0.21378 0.0
C84 C 0.38112 0.60617 0.38122 0.0
O85 O 0.40936 0.60898 0.38367 0.0
Cd86 Cd 0.43185 0.61901 0.41757 0.0
O87 O 0.36346 0.60524 0.39751 0.0
Cd88 Cd 0.36838 0.60047 0.43814 0.0
C89 C 0.38337 0.67496 0.43897 0.0
O90 O 0.41712 0.57724 0.43824 0.0
O91 O 0.407 0.59986 0.46798 0.0
O92 O 0.34215 0.55329 0.43071 0.0
C93 C 0.42464 0.58268 0.45754 0.0
O94 O 0.40832 0.66529 0.43143 0.0
C95 C 0.32907 0.55086 0.44882 0.0
O96 O 0.36148 0.65667 0.44234 0.0
O97 O 0.33135 0.57348 0.46155 0.0
C98 C 0.62079 0.13322 0.63374 0.0
O99 O 0.61804 0.16157 0.6361 0.0
Cd100 Cd 0.60867 0.18437 0.66993 0.0
O101 O 0.62209 0.11559 0.65007 0.0
Cd102 Cd 0.62783 0.12074 0.69062 0.0
C103 C 0.55349 0.13526 0.69166 0.0
O104 O 0.65071 0.16978 0.69025 0.0
O105 O 0.62895 0.15985 0.72027 0.0
O106 O 0.67476 0.09475 0.68274 0.0
C107 C 0.64572 0.17755 0.70954 0.0
O108 O 0.56292 0.16034 0.68404 0.0
C109 C 0.67776 0.08176 0.70086 0.0
O110 O 0.57186 0.11345 0.69503 0.0
O111 O 0.65558 0.08396 0.71385 0.0
C112 C 0.88124 0.37419 0.88403 0.0
O113 O 0.9095 0.3717 0.88647 0.0
Cd114 Cd 0.93205 0.36216 0.92034 0.0
O115 O 0.86357 0.37515 0.90032 0.0
Cd116 Cd 0.86843 0.38055 0.9409 0.0
C117 C 0.88345 0.30616 0.94164 0.0
O118 O 0.91707 0.40406 0.94081 0.0
O119 O 0.90718 0.38177 -0.02935 0.0
O120 O 0.84191 0.42734 0.93325 0.0
C121 C 0.92471 0.39892 0.96011 0.0
O122 O 0.9084 0.3159 0.93412 0.0
C123 C 0.82909 0.43006 0.95145 0.0
O124 O 0.86157 0.32437 0.94506 0.0
O125 O 0.83159 0.4077 0.96432 0.0
C126 C 0.35584 0.13314 0.63365 0.0
O127 O 0.35873 0.16149 0.63597 0.0
Cd128 Cd 0.36835 0.18439 0.66977 0.0
O129 O 0.35453 0.11556 0.65 0.0
Cd130 Cd 0.34903 0.1209 0.69054 0.0
C131 C 0.42343 0.13532 0.69161 0.0
O132 O 0.3263 0.16994 0.69007 0.0
O133 O 0.34824 0.16014 0.7201 0.0
O134 O 0.3019 0.09489 0.68282 0.0
C135 C 0.33143 0.17778 0.70935 0.0
O136 O 0.41408 0.1604 0.68395 0.0
C137 C 0.29904 0.082 0.70099 0.0
O138 O 0.40498 0.11355 0.695 0.0
O139 O 0.32137 0.08424 0.71391 0.0
C140 C 0.5939 0.60623 0.38214 0.0
O141 O 0.56568 0.60896 0.38463 0.0
Cd142 Cd 0.54347 0.6188 0.41853 0.0
O143 O 0.61172 0.60529 0.3984 0.0
Cd144 Cd 0.60729 0.60036 0.43903 0.0
C145 C 0.59237 0.67481 0.43982 0.0
O146 O 0.55863 0.57699 0.43896 0.0
O147 O 0.5687 0.59942 0.46881 0.0
O148 O 0.63365 0.55341 0.43143 0.0
C149 C 0.55105 0.58229 0.45824 0.0
O150 O 0.56734 0.66508 0.43232 0.0
C151 C 0.6468 0.55093 0.44955 0.0
O152 O 0.61425 0.65657 0.44319 0.0
O153 O 0.64447 0.57343 0.46237 0.0
C154 C 0.12121 0.84527 0.13353 0.0
O155 O 0.11845 0.81689 0.13568 0.0
Cd156 Cd 0.10924 0.79372 0.16937 0.0
O157 O 0.12255 0.86277 0.14999 0.0
Cd158 Cd 0.12832 0.85745 0.19049 0.0
C159 C 0.05399 0.84235 0.19149 0.0
O160 O 0.15133 0.80855 0.18968 0.0
O161 O 0.1302 0.81827 0.21997 0.0
O162 O 0.17495 0.88402 0.18255 0.0
C163 C 0.14671 0.80064 0.20897 0.0
O164 O 0.06345 0.81737 0.18369 0.0
C165 C 0.17793 0.89705 0.20071 0.0
O166 O 0.07233 0.86422 0.19501 0.0
O167 O 0.15587 0.89454 0.21377 0.0
C168 C 0.88912 0.60577 0.04547 0.0
O169 O 0.91699 0.60965 0.04189 0.0
Cd170 Cd 0.93649 0.61959 0.00714 0.0
O171 O 0.87019 0.60427 0.02988 0.0
Cd172 Cd 0.87167 0.60071 -0.01098 0.0
C173 C 0.8862 0.67533 -0.01207 0.0
O174 O 0.92034 0.57746 -0.01293 0.0
O175 O 0.90812 0.60016 0.95782 0.0
O176 O 0.8454 0.55389 -0.00272 0.0
C177 C 0.92641 0.58284 -0.03246 0.0
O178 O 0.91181 0.66578 -0.00564 0.0
C179 C 0.83127 0.55137 -0.02046 0.0
O180 O 0.86415 0.65692 -0.01455 0.0
O181 O 0.8331 0.57377 -0.03334 0.0
C182 C 0.12098 0.13375 0.79646 0.0
O183 O 0.11807 0.16207 0.79414 0.0
Cd184 Cd 0.10877 0.18485 0.76035 0.0
O185 O 0.12239 0.11607 0.7801 0.0
Cd186 Cd 0.12807 0.12123 0.73957 0.0
C187 C 0.05371 0.13565 0.73828 0.0
O188 O 0.15097 0.17024 0.74029 0.0
O189 O 0.12924 0.16052 0.71014 0.0
O190 O 0.17505 0.09512 0.74728 0.0
C191 C 0.14602 0.17814 0.72103 0.0
O192 O 0.06307 0.16077 0.74598 0.0
C193 C 0.17788 0.08222 0.72908 0.0
O194 O 0.07213 0.11387 0.73493 0.0
O195 O 0.1556 0.08452 0.71613 0.0
C196 C 0.59553 0.3741 0.54584 0.0
O197 O 0.56725 0.3715 0.5435 0.0
Cd198 Cd 0.54448 0.36168 0.5097 0.0
O199 O 0.61309 0.37504 0.52949 0.0
Cd200 Cd 0.60793 0.38027 0.48893 0.0
C201 C 0.59299 0.30578 0.48821 0.0
O202 O 0.55925 0.40353 0.48917 0.0
O203 O 0.56897 0.3811 0.45929 0.0
O204 O 0.63431 0.42733 0.49645 0.0
C205 C 0.55147 0.39822 0.46991 0.0
O206 O 0.56808 0.31544 0.49582 0.0
C207 C 0.64722 0.42988 0.47828 0.0
O208 O 0.61482 0.32409 0.48472 0.0
O209 O 0.64479 0.40737 0.46547 0.0
C210 C 0.35656 0.84694 0.29488 0.0
O211 O 0.35924 0.81858 0.29256 0.0
Cd212 Cd 0.36848 0.79568 0.25873 0.0
O213 O 0.35525 0.86451 0.27851 0.0
Cd214 Cd 0.34937 0.85926 0.23802 0.0
C215 C 0.42365 0.84465 0.23687 0.0
O216 O 0.32638 0.81024 0.23843 0.0
O217 O 0.34793 0.82027 0.20834 0.0
O218 O 0.30256 0.88528 0.24611 0.0
C219 C 0.3312 0.80257 0.21909 0.0
O220 O 0.41422 0.81959 0.24452 0.0
C221 C 0.29943 0.89828 0.228 0.0
O222 O 0.4053 0.86648 0.23352 0.0
O223 O 0.32151 0.8961 0.21493 0.0
C224 C 0.59515 0.10724 0.54587 0.0
O225 O 0.56688 0.10974 0.54347 0.0
Cd226 Cd 0.54424 0.11927 0.50962 0.0
O227 O 0.61277 0.10623 0.52956 0.0
Cd228 Cd 0.60785 0.10069 0.48899 0.0
C229 C 0.59294 0.17514 0.48823 0.0
O230 O 0.55913 0.07739 0.48911 0.0
O231 O 0.56905 0.09962 0.45924 0.0
O232 O 0.63409 0.05373 0.49667 0.0
C233 C 0.55144 0.08259 0.46983 0.0
O234 O 0.56799 0.16546 0.49578 0.0
C235 C 0.64714 0.05104 0.47855 0.0
O236 O 0.61478 0.15688 0.48478 0.0
O237 O 0.64483 0.07343 0.4657 0.0
C238 C 0.12203 0.3503 0.79768 0.0
O239 O 0.1191 0.32194 0.79543 0.0
Cd240 Cd 0.10933 0.29882 0.7617 0.0
O241 O 0.12324 0.36779 0.78127 0.0
Cd242 Cd 0.12853 0.36211 0.74071 0.0
C243 C 0.05412 0.34751 0.73963 0.0
O244 O 0.15123 0.31299 0.74114 0.0
O245 O 0.12913 0.3229 0.71118 0.0
O246 O 0.17581 0.38799 0.74815 0.0
C247 C 0.14596 0.3052 0.72186 0.0
O248 O 0.06353 0.32251 0.7474 0.0
C249 C 0.17851 0.40087 0.72996 0.0
O250 O 0.07252 0.36932 0.7362 0.0
O251 O 0.15603 0.3987 0.71717 0.0
C252 C 0.883 0.87369 0.04581 0.0
O253 O 0.91129 0.87132 0.04353 0.0
Cd254 Cd 0.93392 0.86191 0.0097 0.0
O255 O 0.86543 0.87468 0.02942 0.0
Cd256 Cd 0.87037 0.88036 -0.01108 0.0
C257 C 0.8853 0.80592 -0.01189 0.0
O258 O 0.91902 0.90384 -0.0107 0.0
O259 O 0.90925 0.88159 0.95932 0.0
O260 O 0.8439 0.92717 -0.00332 0.0
C261 C 0.92677 0.8987 -0.02997 0.0
O262 O 0.91028 0.81562 -0.00429 0.0
C263 C 0.8308 0.92978 -0.02145 0.0
O264 O 0.86345 0.82418 -0.01535 0.0
O265 O 0.83324 0.90742 -0.03438 0.0
C266 C 0.35491 0.63044 0.2933 0.0
O267 O 0.35782 0.65879 0.29107 0.0
Cd268 Cd 0.36709 0.68181 0.25739 0.0
O269 O 0.35347 0.61286 0.27688 0.0
Cd270 Cd 0.34786 0.6184 0.23628 0.0
C271 C 0.42212 0.63293 0.23533 0.0
O272 O 0.32488 0.66733 0.23712 0.0
O273 O 0.34698 0.65804 0.20713 0.0
O274 O 0.30112 0.59143 0.24335 0.0
C275 C 0.33006 0.67547 0.21795 0.0
O276 O 0.41278 0.65797 0.24309 0.0
C277 C 0.29839 0.57925 0.22488 0.0
O278 O 0.40369 0.61114 0.23183 0.0
O279 O 0.32065 0.58229 0.21207 0.0
C280 C 0.59493 0.87335 0.38279 0.0
O281 O 0.56664 0.87108 0.38511 0.0
Cd282 Cd 0.54407 0.8615 0.41893 0.0
O283 O 0.61256 0.87424 0.39916 0.0
Cd284 Cd 0.60774 0.87992 0.4397 0.0
C285 C 0.59262 0.80549 0.44023 0.0
O286 O 0.5591 0.90327 0.43962 0.0
O287 O 0.56911 0.88082 0.46942 0.0
O288 O 0.63397 0.92694 0.43203 0.0
C289 C 0.55152 0.89795 0.45889 0.0
O290 O 0.56769 0.81522 0.43265 0.0
C291 C 0.64713 0.92965 0.45014 0.0
O292 O 0.61453 0.82373 0.44379 0.0
O293 O 0.6449 0.90724 0.46299 0.0
C294 C 0.3556 0.34925 0.63358 0.0
O295 O 0.35838 0.3209 0.63586 0.0
Cd296 Cd 0.36811 0.29805 0.66958 0.0
O297 O 0.35449 0.36688 0.64997 0.0
Cd298 Cd 0.34919 0.36163 0.69053 0.0
C299 C 0.42356 0.34706 0.69137 0.0
O300 O 0.32629 0.31258 0.69008 0.0
O301 O 0.34844 0.32253 0.72005 0.0
O302 O 0.30205 0.38758 0.68305 0.0
C303 C 0.33153 0.30483 0.70933 0.0
O304 O 0.41403 0.32199 0.68368 0.0
C305 C 0.29942 0.40058 0.70123 0.0
O306 O 0.40523 0.36887 0.69486 0.0
O307 O 0.32187 0.39843 0.71404 0.0
C308 C 0.88189 0.1077 0.88354 0.0
O309 O 0.91015 0.1103 0.88599 0.0
Cd310 Cd 0.93262 0.11996 0.91992 0.0
O311 O 0.86422 0.10662 0.89982 0.0
Cd312 Cd 0.86903 0.10105 0.94037 0.0
C313 C 0.88373 0.17556 0.94138 0.0
O314 O 0.91782 0.07802 0.94033 0.0
O315 O 0.90765 0.10025 -0.02979 0.0
O316 O 0.84299 0.05394 0.93246 0.0
C317 C 0.92536 0.08329 0.95965 0.0
O318 O 0.90873 0.16602 0.93385 0.0
C319 C 0.82988 0.05114 0.95054 0.0
O320 O 0.86191 0.15717 0.94472 0.0
O321 O 0.83204 0.07355 0.96348 0.0
C322 C 0.10288 0.6336 0.13574 0.0
O323 O 0.09409 0.65959 0.14168 0.0
Cd324 Cd 0.09719 0.68007 0.17668 0.0
O325 O 0.11467 0.61516 0.1492 0.0
Cd326 Cd 0.12539 0.61744 0.18947 0.0
C327 C 0.05087 0.62648 0.20003 0.0
O328 O 0.14609 0.66733 0.18836 0.0
O329 O 0.12989 0.65563 0.21977 0.0
O330 O 0.17266 0.59262 0.17974 0.0
C331 C 0.14482 0.6739 0.20817 0.0
O332 O 0.05686 0.6539 0.19543 0.0
C333 C 0.17667 0.5791 0.19758 0.0
O334 O 0.07085 0.60588 0.19772 0.0
O335 O 0.15502 0.58045 0.21103 0.0
C336 C 0.38192 0.87369 0.38268 0.0
O337 O 0.4102 0.8714 0.38515 0.0
Cd338 Cd 0.4326 0.86174 0.41905 0.0
O339 O 0.36422 0.87455 0.39895 0.0
Cd340 Cd 0.3688 0.8801 0.43953 0.0
C341 C 0.3837 0.80564 0.43994 0.0
O342 O 0.41747 0.90347 0.43963 0.0
O343 O 0.40743 0.88104 0.4694 0.0
O344 O 0.34262 0.92707 0.43177 0.0
C345 C 0.42507 0.89817 0.45891 0.0
O346 O 0.4087 0.81542 0.43252 0.0
C347 C 0.32945 0.92974 0.44984 0.0
O348 O 0.36185 0.82388 0.44345 0.0
O349 O 0.33165 0.90734 0.4627 0.0
C350 C 0.864 0.62454 0.13439 0.0
O351 O 0.87037 0.6522 0.1373 0.0
Cd352 Cd 0.87514 0.67491 0.17168 0.0
O353 O 0.85773 0.60716 0.15025 0.0
Cd354 Cd 0.84878 0.61345 0.19041 0.0
C355 C 0.92341 0.62343 0.19735 0.0
O356 O 0.82868 0.66358 0.18793 0.0
O357 O 0.84626 0.65363 0.21936 0.0
O358 O 0.80105 0.58882 0.18179 0.0
C359 C 0.83141 0.67154 0.20742 0.0
O360 O 0.91713 0.64947 0.18977 0.0
C361 C 0.79712 0.57628 0.19998 0.0
O362 O 0.90327 0.60275 0.19838 0.0
O363 O 0.81894 0.57817 0.21334 0.0
C364 C 0.09524 0.10866 0.88426 0.0
O365 O 0.06697 0.11109 0.8866 0.0
Cd366 Cd 0.04441 0.12075 0.9204 0.0
O367 O 0.11289 0.10787 0.90062 0.0
Cd368 Cd 0.10809 0.10273 0.9412 0.0
C369 C 0.09278 0.17704 0.94194 0.0
O370 O 0.05958 0.07899 0.94088 0.0
O371 O 0.06929 0.10138 -0.02919 0.0
O372 O 0.13498 0.05616 0.93353 0.0
C373 C 0.05184 0.08415 0.96015 0.0
O374 O 0.0679 0.16717 0.9343 0.0
C375 C 0.14789 0.0536 0.95173 0.0
O376 O 0.11472 0.15892 0.94547 0.0
O377 O 0.14518 0.07592 -0.03534 0.0
C378 C 0.62119 0.34862 0.63366 0.0
O379 O 0.61831 0.32028 0.63599 0.0
Cd380 Cd 0.60872 0.29763 0.66979 0.0
O381 O 0.6225 0.36631 0.65002 0.0
Cd382 Cd 0.6281 0.36128 0.69057 0.0
C383 C 0.55367 0.34687 0.69146 0.0
O384 O 0.65079 0.31222 0.69019 0.0
O385 O 0.62898 0.32229 0.72018 0.0
O386 O 0.67521 0.38717 0.68281 0.0
C387 C 0.64574 0.30455 0.70947 0.0
O388 O 0.56302 0.32175 0.68382 0.0
C389 C 0.67821 0.40021 0.70096 0.0
O390 O 0.57213 0.36866 0.69491 0.0
O391 O 0.65597 0.3981 0.7139 0.0
C392 C 0.3813 0.10731 0.54584 0.0
O393 O 0.40957 0.10989 0.54352 0.0
Cd394 Cd 0.43215 0.11959 0.50973 0.0
O395 O 0.36366 0.1063 0.52948 0.0
Cd396 Cd 0.36858 0.10089 0.48891 0.0
C397 C 0.38351 0.1754 0.48828 0.0
O398 O 0.41728 0.07767 0.48914 0.0
O399 O 0.40735 0.09995 0.45927 0.0
O400 O 0.34231 0.05385 0.49647 0.0
C401 C 0.42493 0.08289 0.46987 0.0
O402 O 0.40846 0.16576 0.4959 0.0
C403 C 0.32929 0.05113 0.47831 0.0
O404 O 0.36166 0.15708 0.48474 0.0
O405 O 0.33161 0.07354 0.46547 0.0
C406 C 0.61912 0.63063 0.29414 0.0
O407 O 0.61638 0.65896 0.29174 0.0
Cd408 Cd 0.60739 0.68158 0.25785 0.0
O409 O 0.62046 0.61286 0.27783 0.0
Cd410 Cd 0.62619 0.61778 0.23728 0.0
C411 C 0.55207 0.63271 0.23576 0.0
O412 O 0.64962 0.66655 0.23796 0.0
O413 O 0.62785 0.65698 0.20781 0.0
O414 O 0.6726 0.59083 0.24511 0.0
C415 C 0.64479 0.67445 0.21869 0.0
O416 O 0.56158 0.6578 0.24343 0.0
C417 C 0.67541 0.57809 0.22684 0.0
O418 O 0.57033 0.61078 0.23252 0.0
O419 O 0.65333 0.5809 0.21379 0.0
C420 C 0.09683 0.87203 0.04567 0.0
O421 O 0.06878 0.8681 0.04286 0.0
Cd422 Cd 0.04702 0.85992 0.0085 0.0
O423 O 0.11471 0.87483 0.02962 0.0
Cd424 Cd 0.10996 0.88163 -0.01083 0.0
C425 C 0.09723 0.80691 -0.01419 0.0
O426 O 0.06074 0.90378 -0.01029 0.0
O427 O 0.07114 0.8829 0.95939 0.0
O428 O 0.13549 0.92898 -0.00254 0.0
C429 C 0.05329 0.8993 -0.02973 0.0
O430 O 0.07164 0.81516 -0.00691 0.0
C431 C 0.14863 0.93211 -0.02058 0.0
O432 O 0.11866 0.82606 -0.01638 0.0
O433 O 0.14665 0.90988 -0.03367 0.0
C434 C 0.85606 0.3485 0.79608 0.0
O435 O 0.85885 0.32016 0.79367 0.0
Cd436 Cd 0.86864 0.29757 0.75984 0.0
O437 O 0.85492 0.36619 0.77977 0.0
Cd438 Cd 0.84959 0.36126 0.73919 0.0
C439 C 0.924 0.34695 0.73864 0.0
O440 O 0.82676 0.31221 0.73936 0.0
O441 O 0.84875 0.32226 0.70945 0.0
O442 O 0.80257 0.38717 0.74698 0.0
C443 C 0.83189 0.30452 0.72007 0.0
O444 O 0.91453 0.32182 0.74614 0.0
C445 C 0.79963 0.40019 0.72886 0.0
O446 O 0.90561 0.36871 0.73515 0.0
O447 O 0.82188 0.39806 0.71593 0.0
C448 C 0.06971 0.63357 0.10379 0.0
C449 C 0.09716 0.62493 0.1131 0.0
H450 H 0.0432 0.63726 0.07531 0.0
C451 C 0.11924 0.61127 0.10009 0.0
H452 H 0.05227 0.64401 0.11351 0.0
C453 C 0.11428 0.60777 0.07773 0.0
C454 C 0.087 0.61746 0.06834 0.0
H455 H 0.14069 0.60462 0.10698 0.0
H456 H 0.13188 0.59806 0.06782 0.0
C457 C 0.0646 0.62971 0.0818 0.0
C458 C 0.59244 0.88793 0.344 0.0
C459 C 0.60702 0.8721 0.36069 0.0
H460 H 0.58639 0.89288 0.30975 0.0
C461 C 0.62969 0.85128 0.35554 0.0
H462 H 0.57478 0.90403 0.34768 0.0
C463 C 0.63566 0.8443 0.33391 0.0
C464 C 0.61974 0.85879 0.31722 0.0
H465 H 0.64098 0.83861 0.36816 0.0
H466 H 0.6516 0.82649 0.33023 0.0
C467 C 0.59912 0.88166 0.32237 0.0
C468 C 0.37706 0.38418 0.60616 0.0
C469 C 0.35637 0.36141 0.61149 0.0
H470 H 0.4014 0.40605 0.58066 0.0
C471 C 0.34027 0.34669 0.59491 0.0
H472 H 0.38992 0.39556 0.61868 0.0
C473 C 0.34617 0.35328 0.57323 0.0
C474 C 0.36894 0.37395 0.5679 0.0
H475 H 0.32428 0.32895 0.59873 0.0
H476 H 0.33478 0.3404 0.56071 0.0
C477 C 0.38366 0.39006 0.58448 0.0
C478 C 0.88458 0.09268 0.8448 0.0
C479 C 0.86987 0.10865 0.86138 0.0
H480 H 0.89077 0.08734 0.8106 0.0
C481 C 0.84713 0.1293 0.85605 0.0
H482 H 0.9023 0.0767 0.84862 0.0
C483 C 0.8412 0.13599 0.83437 0.0
C484 C 0.85724 0.12137 0.8178 0.0
H485 H 0.83575 0.14207 0.86858 0.0
H486 H 0.8252 0.15369 0.83056 0.0
C487 C 0.87794 0.09865 0.82312 0.0
C488 C 0.13125 0.35468 0.85807 0.0
C489 C 0.10883 0.37572 0.86333 0.0
H490 H 0.15282 0.32982 0.83264 0.0
C491 C 0.0945 0.39193 0.84671 0.0
H492 H 0.14232 0.3417 0.87063 0.0
C493 C 0.10109 0.38577 0.82504 0.0
C494 C 0.12137 0.36264 0.81978 0.0
H495 H 0.07701 0.40818 0.85047 0.0
H496 H 0.08848 0.39725 0.81248 0.0
C497 C 0.13713 0.34783 0.8364 0.0
C498 C 0.84781 0.85178 0.07282 0.0
C499 C 0.87083 0.87236 0.06788 0.0
H500 H 0.82555 0.82686 0.09786 0.0
C501 C 0.88565 0.88779 0.08473 0.0
H502 H 0.83633 0.83943 0.06007 0.0
C503 C 0.87889 0.88128 0.1063 0.0
C504 C 0.85793 0.85857 0.1112 0.0
H505 H 0.90357 0.90371 0.08122 0.0
H506 H 0.89182 0.89211 0.11903 0.0
C507 C 0.84175 0.84455 0.09437 0.0
C508 C 0.34556 0.62619 0.35359 0.0
C509 C 0.36911 0.60651 0.35903 0.0
H510 H 0.32275 0.64949 0.32796 0.0
C511 C 0.38438 0.59093 0.34253 0.0
H512 H 0.3337 0.63864 0.36605 0.0
C513 C 0.37752 0.59642 0.32081 0.0
C514 C 0.35596 0.61825 0.31538 0.0
H515 H 0.40269 0.57568 0.34642 0.0
H516 H 0.3908 0.58553 0.30835 0.0
C517 C 0.33937 0.63241 0.33187 0.0
C518 C 0.63589 0.1357 0.59508 0.0
C519 C 0.61987 0.12103 0.61162 0.0
H520 H 0.64131 0.14179 0.56089 0.0
C521 C 0.59919 0.09821 0.60625 0.0
H522 H 0.65188 0.15348 0.59893 0.0
C523 C 0.59255 0.09219 0.58456 0.0
C524 C 0.60722 0.10822 0.56802 0.0
H525 H 0.58639 0.08686 0.61875 0.0
H526 H 0.57484 0.07614 0.5807 0.0
C527 C 0.62995 0.12897 0.57339 0.0
C528 C 0.84079 0.34577 0.8347 0.0
C529 C 0.8568 0.3606 0.81822 0.0
H530 H 0.83529 0.3395 0.86886 0.0
C531 C 0.87733 0.38351 0.82368 0.0
H532 H 0.82491 0.32793 0.83077 0.0
C533 C 0.88387 0.38947 0.8454 0.0
C534 C 0.86923 0.37328 0.86188 0.0
H535 H 0.89013 0.39498 0.81124 0.0
H536 H 0.90148 0.40559 0.84933 0.0
C537 C 0.84662 0.35244 0.85641 0.0
C538 C 0.34058 0.13551 0.59497 0.0
C539 C 0.35665 0.12091 0.61154 0.0
H540 H 0.3351 0.1416 0.56077 0.0
C541 C 0.37734 0.09819 0.60621 0.0
H542 H 0.32459 0.15322 0.5988 0.0
C543 C 0.38396 0.09221 0.58452 0.0
C544 C 0.36924 0.10819 0.56796 0.0
H545 H 0.39019 0.0869 0.61873 0.0
H546 H 0.40168 0.07625 0.5807 0.0
C547 C 0.34649 0.12883 0.57329 0.0
C548 C 0.59047 0.59087 0.34349 0.0
C549 C 0.6057 0.60673 0.35995 0.0
H550 H 0.58381 0.58528 0.30933 0.0
C551 C 0.62889 0.62684 0.35445 0.0
H552 H 0.57242 0.57529 0.34743 0.0
C553 C 0.63476 0.63315 0.33272 0.0
C554 C 0.61822 0.61867 0.31628 0.0
H555 H 0.64069 0.63951 0.36688 0.0
H556 H 0.65113 0.65048 0.32877 0.0
C557 C 0.59703 0.59645 0.32176 0.0
C558 C 0.0995 0.88014 0.10616 0.0
C559 C 0.12042 0.85764 0.1115 0.0
H560 H 0.07532 0.90214 0.0806 0.0
C561 C 0.13694 0.84347 0.09498 0.0
H562 H 0.08631 0.89109 0.11865 0.0
C563 C 0.13133 0.85042 0.0733 0.0
C564 C 0.10844 0.87087 0.06792 0.0
H565 H 0.15311 0.82592 0.09881 0.0
H566 H 0.1431 0.838 0.06078 0.0
C567 C 0.09318 0.88636 0.08447 0.0
C568 C 0.85201 0.61862 0.07445 0.0
C569 C 0.87898 0.60463 0.06816 0.0
H570 H 0.82613 0.63609 0.10099 0.0
C571 C 0.89824 0.59278 0.08413 0.0
H572 H 0.83691 0.62811 0.06246 0.0
C573 C 0.89164 0.59659 0.10604 0.0
C574 C 0.86597 0.61274 0.11227 0.0
H575 H 0.91914 0.58179 0.07966 0.0
H576 H 0.90772 0.58894 0.11805 0.0
C577 C 0.8458 0.6231 0.09641 0.0
C578 C 0.13623 0.13632 0.83513 0.0
C579 C 0.12007 0.12166 0.81856 0.0
H580 H 0.14171 0.14266 0.86932 0.0
C581 C 0.09918 0.09908 0.8239 0.0
H582 H 0.15237 0.15392 0.83129 0.0
C583 C 0.09248 0.09332 0.84558 0.0
C584 C 0.10729 0.10937 0.86214 0.0
H585 H 0.08626 0.08776 0.81138 0.0
H586 H 0.07463 0.07747 0.8494 0.0
C587 C 0.13023 0.12985 0.85681 0.0
C588 C 0.59313 0.38945 0.58451 0.0
C589 C 0.60769 0.37329 0.56796 0.0
H590 H 0.58705 0.39499 0.61871 0.0
C591 C 0.63033 0.35254 0.57331 0.0
H592 H 0.57549 0.4055 0.58067 0.0
C593 C 0.63627 0.34593 0.595 0.0
C594 C 0.62035 0.36072 0.61155 0.0
H595 H 0.64159 0.33963 0.56081 0.0
H596 H 0.65217 0.32814 0.59884 0.0
C597 C 0.59978 0.38355 0.6062 0.0
C598 C 0.37808 0.88216 0.32226 0.0
C599 C 0.35748 0.85923 0.31697 0.0
H600 H 0.40228 0.90454 0.34774 0.0
C601 C 0.34145 0.84466 0.33354 0.0
H602 H 0.39088 0.89344 0.30972 0.0
C603 C 0.34729 0.85162 0.35521 0.0
C604 C 0.36994 0.87249 0.36052 0.0
H605 H 0.32551 0.82682 0.32974 0.0
H606 H 0.33593 0.83889 0.36774 0.0
C607 C 0.38464 0.8884 0.34393 0.0
C608 C 0.00477 0.55304 -0.0318 0.0
C609 C 0.02069 0.57782 0.95984 0.0
H610 H 0.96168 0.53507 -0.02331 0.0
C611 C 0.00485 0.60069 0.94892 0.0
H612 H 0.01654 0.53509 -0.0234 0.0
C613 C 0.97324 0.6007 0.94898 0.0
C614 C 0.95746 0.57785 0.96 0.0
H615 H 0.01667 0.62015 0.94249 0.0
H616 H 0.96141 0.62011 0.94253 0.0
C617 C 0.9734 0.55307 -0.03171 0.0
C618 C 0.67329 0.72208 0.22319 0.0
C619 C 0.65008 0.70623 0.21267 0.0
H620 H 0.69023 0.76518 0.2331 0.0
C621 C 0.62902 0.72231 0.20018 0.0
H622 H 0.69 0.71017 0.23272 0.0
C623 C 0.62916 0.75404 0.2004 0.0
C624 C 0.65036 0.76974 0.21311 0.0
H625 H 0.61086 0.71057 0.19195 0.0
H626 H 0.61112 0.76605 0.19232 0.0
C627 C 0.67342 0.75355 0.22341 0.0
C628 C 0.47262 0.42684 0.47372 0.0
C629 C 0.45655 0.4034 0.46358 0.0
H630 H 0.51578 0.4438 0.48316 0.0
C631 C 0.4723 0.38189 0.45124 0.0
H632 H 0.46096 0.4439 0.48312 0.0
C633 C 0.50391 0.38183 0.45126 0.0
C634 C 0.51985 0.40329 0.46362 0.0
H635 H 0.46039 0.36356 0.44329 0.0
H636 H 0.51567 0.36346 0.44333 0.0
C637 C 0.50398 0.42679 0.47374 0.0
C638 C 0.80342 0.25678 0.72376 0.0
C639 C 0.82682 0.27279 0.71371 0.0
H640 H 0.78638 0.21355 0.73308 0.0
C641 C 0.84819 0.25689 0.70139 0.0
H642 H 0.78649 0.26856 0.73316 0.0
C643 C 0.84812 0.22516 0.70135 0.0
C644 C 0.82669 0.20928 0.71362 0.0
H645 H 0.8665 0.26876 0.69353 0.0
H646 H 0.86638 0.21327 0.69345 0.0
C647 C 0.80336 0.22531 0.72372 0.0
C648 C 0.97209 0.38301 -0.02093 0.0
C649 C 0.95626 0.40423 -0.03347 0.0
H650 H 0.01554 0.3651 -0.01261 0.0
C651 C 0.9722 0.42769 0.95644 0.0
H652 H 0.96027 0.36468 -0.01302 0.0
C653 C 0.00356 0.42794 0.95667 0.0
C654 C 0.01955 0.40472 -0.03301 0.0
H655 H 0.96047 0.44453 0.9469 0.0
H656 H 0.01529 0.44497 0.9473 0.0
C657 C 0.0037 0.38326 -0.02071 0.0
C658 C 0.80396 0.75088 0.20173 0.0
C659 C 0.82606 0.76697 0.21326 0.0
H660 H 0.78812 0.7076 0.19129 0.0
C661 C 0.84607 0.7511 0.22675 0.0
H662 H 0.78803 0.7626 0.19143 0.0
C663 C 0.84606 0.71936 0.22671 0.0
C664 C 0.82607 0.70342 0.21317 0.0
H665 H 0.86335 0.76302 0.23579 0.0
H666 H 0.86335 0.70749 0.2357 0.0
C667 C 0.80399 0.71941 0.20166 0.0
C668 C 0.47199 0.59922 0.47638 0.0
C669 C 0.45615 0.57759 0.4641 0.0
H670 H 0.51546 0.61757 0.4844 0.0
C671 C 0.47207 0.55388 0.4543 0.0
H672 H 0.46018 0.61776 0.48406 0.0
C673 C 0.50343 0.55375 0.45451 0.0
C674 C 0.51942 0.57735 0.46451 0.0
H675 H 0.46032 0.53674 0.44495 0.0
H676 H 0.51515 0.53653 0.4453 0.0
C677 C 0.5036 0.5991 0.47658 0.0
C678 C 0.67405 0.22534 0.70561 0.0
C679 C 0.65077 0.20932 0.71579 0.0
H680 H 0.69093 0.26857 0.69613 0.0
C681 C 0.62946 0.22523 0.72817 0.0
H682 H 0.69093 0.21355 0.69617 0.0
C683 C 0.62946 0.25696 0.72814 0.0
C684 C 0.65076 0.27284 0.71574 0.0
H685 H 0.61125 0.21335 0.73614 0.0
H686 H 0.61125 0.26885 0.7361 0.0
C687 C 0.67405 0.25681 0.70558 0.0
C688 C 0.34782 0.25724 0.72798 0.0
C689 C 0.32651 0.27307 0.71554 0.0
H690 H 0.366 0.21367 0.73601 0.0
C691 C 0.30321 0.25699 0.70531 0.0
H692 H 0.36604 0.26916 0.73599 0.0
C693 C 0.30318 0.22552 0.70532 0.0
C694 C 0.32646 0.20955 0.71556 0.0
H695 H 0.28632 0.26872 0.69582 0.0
H696 H 0.28627 0.2137 0.69584 0.0
C697 C 0.34779 0.22551 0.72799 0.0
C698 C 0.17383 0.72112 0.20387 0.0
C699 C 0.15104 0.7053 0.21474 0.0
H700 H 0.19064 0.76422 0.19405 0.0
C701 C 0.13078 0.72134 0.22791 0.0
H702 H 0.18984 0.7092 0.19375 0.0
C703 C 0.13116 0.75307 0.22803 0.0
C704 C 0.1518 0.76881 0.21498 0.0
H705 H 0.11291 0.70959 0.23637 0.0
H706 H 0.1136 0.76509 0.23662 0.0
C707 C 0.17424 0.75259 0.20402 0.0
C708 C 0.17425 0.22594 0.72548 0.0
C709 C 0.15106 0.20996 0.71503 0.0
H710 H 0.19103 0.26911 0.73535 0.0
C711 C 0.1298 0.22594 0.70264 0.0
H712 H 0.19109 0.2141 0.73494 0.0
C713 C 0.12977 0.25767 0.70288 0.0
C714 C 0.15097 0.27348 0.71552 0.0
H715 H 0.11165 0.2141 0.69447 0.0
H716 H 0.1116 0.26959 0.69487 0.0
C717 C 0.1742 0.2574 0.72573 0.0
C718 C 0.30232 0.72343 0.22268 0.0
C719 C 0.32523 0.70738 0.2121 0.0
H720 H 0.28604 0.76665 0.23271 0.0
C721 C 0.34644 0.72332 0.19965 0.0
H722 H 0.2855 0.71164 0.23217 0.0
C723 C 0.34673 0.75504 0.19995 0.0
C724 C 0.32584 0.7709 0.21271 0.0
H725 H 0.36436 0.71143 0.19137 0.0
H726 H 0.36488 0.76691 0.19189 0.0
C727 C 0.30263 0.75489 0.22299 0.0
C728 C 0.47238 0.09919 0.45124 0.0
C729 C 0.4565 0.07777 0.46356 0.0
H730 H 0.51587 0.11743 0.44333 0.0
C731 C 0.47241 0.05427 0.47362 0.0
H732 H 0.46058 0.11757 0.44336 0.0
C733 C 0.50376 0.05419 0.4736 0.0
C734 C 0.51979 0.0776 0.46352 0.0
H735 H 0.46064 0.03729 0.48301 0.0
H736 H 0.51546 0.03715 0.48298 0.0
C737 C 0.50399 0.09911 0.45122 0.0
C738 C 0.9743 0.88271 0.95136 0.0
C739 C 0.95838 0.90396 0.96383 0.0
H740 H 0.01782 0.86467 0.94339 0.0
C741 C 0.97428 0.92738 -0.02587 0.0
H742 H 0.96252 0.86439 0.9433 0.0
C743 C 0.00564 0.92754 -0.02582 0.0
C744 C 0.02168 0.9043 0.96391 0.0
H745 H 0.96249 0.94423 -0.01637 0.0
H746 H 0.01732 0.94449 -0.01627 0.0
C747 C 0.00592 0.88288 0.9514 0.0
C748 C 0.47269 0.92671 0.45536 0.0
C749 C 0.45668 0.90317 0.46531 0.0
H750 H 0.51581 0.94372 0.44604 0.0
C751 C 0.47249 0.88155 0.4775 0.0
H752 H 0.46098 0.94383 0.44608 0.0
C753 C 0.5041 0.88149 0.47748 0.0
C754 C 0.51997 0.90305 0.46527 0.0
H755 H 0.46062 0.86314 0.48529 0.0
H756 H 0.5159 0.86303 0.48526 0.0
C757 C 0.50405 0.92664 0.45534 0.0
C758 C 0.00444 0.05527 0.95616 0.0
C759 C 0.02024 0.07885 -0.03365 0.0
H760 H 0.96148 0.03797 0.94656 0.0
C761 C 0.00424 0.10022 -0.02135 0.0
H762 H 0.01631 0.03833 0.94679 0.0
C763 C 0.97263 0.10001 -0.02148 0.0
C764 C 0.95696 0.07843 -0.03391 0.0
H765 H 0.01595 0.11866 -0.01337 0.0
H766 H 0.96067 0.11829 -0.0136 0.0
C767 C 0.97309 0.05507 0.95603 0.0
C768 C 0.15754 0.46823 -0.0155 0.0
C769 C 0.15793 0.46137 0.96229 0.0
H770 H 0.15376 0.50291 0.00858 0.0
C771 C 0.16169 0.48524 0.94748 0.0
H772 H 0.15472 0.45044 -0.00365 0.0
C773 C 0.16133 0.51541 0.95451 0.0
C774 C 0.15691 0.52231 -0.02353 0.0
H775 H 0.16231 0.48075 0.93026 0.0
H776 H 0.16156 0.53319 0.94248 0.0
C777 C 0.1569 0.4984 -0.00849 0.0
C778 C 0.76264 0.90856 0.22981 0.0
C779 C 0.76972 0.90659 0.20771 0.0
H780 H 0.7278 0.90764 0.25372 0.0
C781 C 0.74611 0.90884 0.19252 0.0
H782 H 0.78021 0.907 0.24195 0.0
C783 C 0.71596 0.90934 0.19927 0.0
C784 C 0.70882 0.90738 0.22135 0.0
H785 H 0.75077 0.90765 0.17535 0.0
H786 H 0.69836 0.90834 0.18712 0.0
C787 C 0.7325 0.90885 0.23656 0.0
C788 C 0.31626 0.48417 0.48549 0.0
C789 C 0.31818 0.46003 0.47063 0.0
H790 H 0.31739 0.53221 0.49021 0.0
C791 C 0.31619 0.46655 0.44844 0.0
H792 H 0.31748 0.47995 0.50273 0.0
C793 C 0.31626 0.49661 0.44127 0.0
C794 C 0.31812 0.52075 0.45613 0.0
H795 H 0.31751 0.44858 0.43655 0.0
H796 H 0.3175 0.50083 0.42404 0.0
C797 C 0.31611 0.51423 0.47832 0.0
C798 C 0.74536 0.06914 0.73672 0.0
C799 C 0.76896 0.07096 0.72156 0.0
H800 H 0.69764 0.07033 0.74205 0.0
C801 C 0.76178 0.06895 0.69946 0.0
H802 H 0.75009 0.07039 0.75389 0.0
C803 C 0.7316 0.06905 0.69267 0.0
C804 C 0.708 0.07093 0.70783 0.0
H805 H 0.77933 0.07021 0.68734 0.0
H806 H 0.72687 0.07023 0.67549 0.0
C807 C 0.71518 0.06901 0.72993 0.0
C808 C 0.81663 0.51433 0.95058 0.0
C809 C 0.81954 0.5213 -0.02733 0.0
H810 H 0.81678 0.47951 0.92644 0.0
C811 C 0.8179 0.49752 -0.01224 0.0
H812 H 0.81771 0.53203 0.93852 0.0
C813 C 0.81721 0.46731 -0.01916 0.0
C814 C 0.81839 0.4603 0.95868 0.0
H815 H 0.81982 0.50211 0.00492 0.0
H816 H 0.81878 0.44959 -0.00715 0.0
C817 C 0.81618 0.48412 0.94365 0.0
C818 C 0.23183 0.06954 0.73709 0.0
C819 C 0.20804 0.07137 0.722 0.0
H820 H 0.27962 0.07066 0.74225 0.0
C821 C 0.21494 0.06933 0.69988 0.0
H822 H 0.22731 0.0708 0.75428 0.0
C823 C 0.24503 0.06938 0.69299 0.0
C824 C 0.26883 0.07125 0.70807 0.0
H825 H 0.19725 0.0706 0.68782 0.0
H826 H 0.24955 0.07054 0.67579 0.0
C827 C 0.26192 0.06936 0.73019 0.0
C828 C 0.65996 0.46671 0.44887 0.0
C829 C 0.65813 0.46004 0.47104 0.0
H830 H 0.65838 0.50115 0.42459 0.0
C831 C 0.6601 0.48408 0.48598 0.0
H832 H 0.65861 0.44881 0.43692 0.0
C833 C 0.6601 0.51419 0.47891 0.0
C834 C 0.65791 0.52085 0.45675 0.0
H835 H 0.65901 0.47974 0.5032 0.0
H836 H 0.65885 0.53208 0.49087 0.0
C837 C 0.65975 0.49682 0.4418 0.0
C838 C 0.23159 0.91042 0.19236 0.0
C839 C 0.20809 0.90832 0.20759 0.0
H840 H 0.27928 0.9097 0.18689 0.0
C841 C 0.21537 0.91044 0.22967 0.0
H842 H 0.22677 0.90911 0.1752 0.0
C843 C 0.24558 0.91067 0.23637 0.0
C844 C 0.26911 0.90898 0.22114 0.0
H845 H 0.1979 0.909 0.24184 0.0
H846 H 0.25042 0.90953 0.25353 0.0
C847 C 0.26179 0.91085 0.19906 0.0
C848 C 0.66005 -0.00301 0.48643 0.0
C849 C 0.65812 0.02086 0.47142 0.0
H850 H 0.65889 0.94904 0.49144 0.0
C851 C 0.6601 0.01394 0.44927 0.0
H852 H 0.65884 0.00152 0.50363 0.0
C853 C 0.65999 0.98375 0.44229 0.0
C854 C 0.65813 0.95988 0.45729 0.0
H855 H 0.65877 0.0317 0.43727 0.0
H856 H 0.65873 0.97922 0.42508 0.0
C857 C 0.66017 0.9668 0.47944 0.0
C858 C 0.21535 0.41339 0.70056 0.0
C859 C 0.20867 0.41156 0.72272 0.0
H860 H 0.2497 0.4119 0.67629 0.0
C861 C 0.23262 0.41343 0.73767 0.0
H862 H 0.19753 0.41208 0.68859 0.0
C863 C 0.26264 0.41347 0.73061 0.0
C864 C 0.26932 0.41141 0.70846 0.0
H865 H 0.22828 0.41232 0.75489 0.0
H866 H 0.28046 0.41223 0.74258 0.0
C867 C 0.24537 0.4132 0.6935 0.0
C868 C 0.81746 0.96679 0.94938 0.0
C869 C 0.81957 0.95989 -0.0285 0.0
H870 H 0.81849 0.00153 0.9253 0.0
C871 C 0.81751 0.98373 -0.01342 0.0
H872 H 0.81887 0.94904 0.93732 0.0
C873 C 0.81715 0.01392 -0.02031 0.0
C874 C 0.81907 0.02086 0.95757 0.0
H875 H 0.8188 0.9792 0.00377 0.0
H876 H 0.81834 0.03168 -0.00824 0.0
C877 C 0.81732 -0.00302 0.94249 0.0
C878 C 0.26103 0.56842 0.19533 0.0
C879 C 0.2683 0.56846 0.21747 0.0
H880 H 0.22595 0.57132 0.17155 0.0
C881 C 0.24484 0.5648 0.23255 0.0
H882 H 0.27849 0.57118 0.18328 0.0
C883 C 0.21465 0.5647 0.22583 0.0
C884 C 0.20729 0.56855 0.20389 0.0
H885 H 0.24967 0.56452 0.24974 0.0
H886 H 0.19718 0.56445 0.23803 0.0
C887 C 0.23081 0.5686 0.18862 0.0
C888 C 0.3164 -0.00299 0.4861 0.0
C889 C 0.31835 0.0209 0.47111 0.0
H890 H 0.31758 0.94906 0.4911 0.0
C891 C 0.31646 0.014 0.44895 0.0
H892 H 0.31755 0.00154 0.50331 0.0
C893 C 0.31661 0.98381 0.44195 0.0
C894 C 0.31843 0.95993 0.45696 0.0
H895 H 0.31781 0.03177 0.43696 0.0
H896 H 0.31793 0.9793 0.42475 0.0
C897 C 0.31633 0.96683 0.4791 0.0
C898 C 0.7289 0.56409 0.23515 0.0
C899 C 0.70546 0.56689 0.21987 0.0
H900 H 0.77657 0.56409 0.24081 0.0
C901 C 0.71276 0.56552 0.19779 0.0
H902 H 0.72406 0.56482 0.25231 0.0
C903 C 0.74297 0.56528 0.19119 0.0
C904 C 0.76648 0.56615 0.20654 0.0
H905 H 0.69533 0.56756 0.18559 0.0
H906 H 0.74786 0.56694 0.17408 0.0
C907 C 0.75909 0.56361 0.22855 0.0
C908 C 0.16186 0.96956 0.95054 0.0
C909 C 0.15941 0.9625 -0.02739 0.0
H910 H 0.16073 0.00439 0.92653 0.0
C911 C 0.16072 0.9863 -0.01222 0.0
H912 H 0.16104 0.95186 0.93842 0.0
C913 C 0.16069 0.01652 -0.01903 0.0
C914 C 0.15912 0.02353 0.95884 0.0
H915 H 0.15914 0.98166 0.00494 0.0
H916 H 0.15892 0.0342 -0.00695 0.0
C917 C 0.16161 -0.00022 0.94372 0.0
C918 C 0.74575 0.41287 0.73696 0.0
C919 C 0.76941 0.41099 0.72184 0.0
H920 H 0.69801 0.41173 0.74219 0.0
C921 C 0.76231 0.41292 0.69973 0.0
H922 H 0.75042 0.41168 0.75414 0.0
C923 C 0.73215 0.41281 0.69288 0.0
C924 C 0.70849 0.411 0.70799 0.0
H925 H 0.77989 0.41161 0.68764 0.0
H926 H 0.72748 0.41157 0.67569 0.0
C927 C 0.7156 0.41299 0.73011 0.0
C928 C 0.12602 0.75742 -0.01256 0.0
C929 C 0.10091 0.77433 -0.01949 0.0
H930 H 0.14376 0.7129 -0.00614 0.0
C931 C 0.07629 0.7589 -0.0286 0.0
H932 H 0.14523 0.76873 -0.00532 0.0
C933 C 0.07552 0.72739 -0.02919 0.0
C934 C 0.09925 0.7102 -0.0205 0.0
H935 H 0.05672 0.77126 -0.03425 0.0
H936 H 0.05536 0.71644 -0.03532 0.0
C937 C 0.12518 0.72549 -0.01304 0.0
C938 C 0.50471 0.87439 0.23574 0.0
C939 C 0.52067 0.84714 0.23278 0.0
H940 H 0.46102 0.89529 0.23931 0.0
C941 C 0.50422 0.82071 0.22818 0.0
H942 H 0.51674 0.89513 0.23937 0.0
C943 C 0.47283 0.8208 0.22815 0.0
C944 C 0.45663 0.84733 0.23271 0.0
H945 H 0.51569 0.79942 0.22547 0.0
H946 H 0.46117 0.79957 0.22541 0.0
C947 C 0.47284 0.87448 0.23571 0.0
C948 C 0.35378 0.22468 0.48665 0.0
C949 C 0.381 0.20858 0.48436 0.0
H950 H 0.33289 0.26859 0.48966 0.0
C951 C 0.40758 0.22502 0.48053 0.0
H952 H 0.33291 0.21268 0.48965 0.0
C953 C 0.40757 0.25652 0.48054 0.0
C954 C 0.38097 0.27287 0.48437 0.0
H955 H 0.42889 0.21348 0.47832 0.0
H956 H 0.42886 0.26814 0.47833 0.0
C957 C 0.35377 0.25666 0.48666 0.0
C958 C 0.97301 0.15925 0.72944 0.0
C959 C 0.95667 0.13273 0.73384 0.0
H960 H 0.01597 0.1806 0.72693 0.0
C961 C 0.97275 0.10556 0.73675 0.0
H962 H 0.96146 0.1805 0.72677 0.0
C963 C 0.00463 0.10561 0.73685 0.0
C964 C 0.02072 0.13284 0.73403 0.0
H965 H 0.96082 0.08475 0.74023 0.0
H966 H 0.01654 0.08484 0.74039 0.0
C967 C 0.00441 0.15931 0.72953 0.0
C968 C 0.06848 0.2266 0.94943 0.0
C969 C 0.09516 0.21025 0.94592 0.0
H970 H 0.04717 0.26966 0.95152 0.0
C971 C 0.12244 0.22643 0.94408 0.0
H972 H 0.04711 0.215 0.9513 0.0
C973 C 0.12248 0.25841 0.94422 0.0
C974 C 0.09523 0.27453 0.9462 0.0
H975 H 0.14339 0.2145 0.94135 0.0
H976 H 0.14345 0.2704 0.94159 0.0
C977 C 0.06851 0.2581 0.94956 0.0
C978 C 0.97298 0.87199 0.19298 0.0
C979 C 0.95693 0.84468 0.19551 0.0
H980 H 0.01674 0.893 0.18977 0.0
C981 C 0.9733 0.81815 0.1997 0.0
H982 H 0.96102 0.89282 0.18968 0.0
C983 C 0.00469 0.81825 0.19975 0.0
C984 C 0.02098 0.84489 0.19561 0.0
H985 H 0.96176 0.79678 0.20207 0.0
H986 H 0.01628 0.79696 0.20218 0.0
C987 C 0.00485 0.8721 0.19303 0.0
C988 C 0.40755 0.72444 0.4472 0.0
C989 C 0.38094 0.70812 0.4431 0.0
H990 H 0.42895 0.76748 0.44988 0.0
C991 C 0.35378 0.72432 0.44079 0.0
H992 H 0.42881 0.71281 0.44944 0.0
C993 C 0.35386 0.75631 0.44105 0.0
C994 C 0.3811 0.77241 0.44362 0.0
H995 H 0.33289 0.71241 0.43759 0.0
H996 H 0.33303 0.76832 0.43803 0.0
C997 C 0.40763 0.75595 0.44747 0.0
C998 C 0.47246 0.10536 0.69288 0.0
C999 C 0.45644 0.13258 0.69575 0.0
H1000 H 0.5162 0.08452 0.68938 0.0
C1001 C 0.47283 0.15909 0.70022 0.0
H1002 H 0.46048 0.08455 0.68936 0.0
C1003 C 0.50423 0.15907 0.70023 0.0
C1004 C 0.52049 0.13255 0.69577 0.0
H1005 H 0.46133 0.18038 0.70287 0.0
H1006 H 0.51584 0.18035 0.70289 0.0
C1007 C 0.50433 0.10534 0.69289 0.0
C1008 C 0.85382 0.25673 0.94297 0.0
C1009 C 0.88096 0.27298 0.94556 0.0
H1010 H 0.83308 0.21271 0.93965 0.0
C1011 C 0.90753 0.2567 0.94964 0.0
H1012 H 0.83297 0.26862 0.93976 0.0
C1013 C 0.9076 0.22519 0.94958 0.0
C1014 C 0.8811 0.20871 0.94543 0.0
H1015 H 0.92877 0.26836 0.95208 0.0
H1016 H 0.92889 0.21368 0.95198 0.0
C1017 C 0.85389 0.22475 0.9429 0.0
C1018 C 0.62223 0.75614 0.44164 0.0
C1019 C 0.59507 0.77228 0.44406 0.0
H1020 H 0.643 0.7122 0.43843 0.0
C1021 C 0.56846 0.75589 0.44789 0.0
H1022 H 0.64312 0.7681 0.43863 0.0
C1023 C 0.5684 0.72438 0.44778 0.0
C1024 C 0.59494 0.708 0.44382 0.0
H1025 H 0.5472 0.76747 0.45019 0.0
H1026 H 0.54709 0.7128 0.45 0.0
C1027 C 0.62217 0.72415 0.44152 0.0
C1028 C 0.90941 0.72511 -0.02064 0.0
C1029 C 0.88322 0.70849 -0.0159 0.0
H1030 H 0.93022 0.76841 -0.02351 0.0
C1031 C 0.85607 0.72441 -0.01272 0.0
H1032 H 0.93062 0.71373 -0.02356 0.0
C1033 C 0.85583 0.75639 -0.01274 0.0
C1034 C 0.88275 0.77276 -0.01592 0.0
H1035 H 0.8355 0.71228 -0.00902 0.0
H1036 H 0.8351 0.76818 -0.00902 0.0
C1037 C 0.90918 0.75662 -0.02063 0.0
C1038 C 0.56891 0.25616 0.48028 0.0
C1039 C 0.59549 0.27259 0.48425 0.0
H1040 H 0.54761 0.21304 0.47797 0.0
C1041 C 0.62269 0.25649 0.48668 0.0
H1042 H 0.54763 0.26771 0.47797 0.0
C1043 C 0.62268 0.22451 0.48669 0.0
C1044 C 0.59547 0.20831 0.48426 0.0
H1045 H 0.64355 0.26849 0.48979 0.0
H1046 H 0.64353 0.21258 0.4898 0.0
C1047 C 0.5689 0.22466 0.48028 0.0
C1048 C 0.97353 0.3233 0.7306 0.0
C1049 C 0.95707 0.34979 0.73481 0.0
H1050 H 0.01656 0.30218 0.72837 0.0
C1051 C 0.97306 0.37709 0.73771 0.0
H1052 H 0.96206 0.30195 0.72793 0.0
C1053 C 0.00494 0.37723 0.73796 0.0
C1054 C 0.02114 0.35006 0.73532 0.0
H1055 H 0.96105 0.39788 0.74103 0.0
H1056 H 0.01677 0.39812 0.74147 0.0
C1057 C 0.00492 0.32344 0.73085 0.0
C1058 C 0.47106 0.60293 0.23409 0.0
C1059 C 0.45509 0.63018 0.23125 0.0
H1060 H 0.51476 0.58205 0.23771 0.0
C1061 C 0.4715 0.65667 0.2269 0.0
H1062 H 0.45906 0.58215 0.23751 0.0
C1063 C 0.5029 0.65662 0.22701 0.0
C1064 C 0.5191 0.63007 0.23148 0.0
H1065 H 0.46002 0.67797 0.22428 0.0
H1066 H 0.51454 0.67788 0.22447 0.0
C1067 C 0.50292 0.60288 0.23421 0.0
C1068 C 0.47277 0.37692 0.69274 0.0
C1069 C 0.4566 0.34972 0.69548 0.0
H1070 H 0.51663 0.39768 0.68937 0.0
C1071 C 0.47285 0.32316 0.69981 0.0
H1072 H 0.46091 0.39776 0.68933 0.0
C1073 C 0.50425 0.32311 0.69984 0.0
C1074 C 0.52066 0.34962 0.69553 0.0
H1075 H 0.46124 0.30188 0.70236 0.0
H1076 H 0.51574 0.3018 0.7024 0.0
C1077 C 0.50465 0.37687 0.69276 0.0
C1078 C 0.97201 0.59389 0.19536 0.0
C1079 C 0.95516 0.6181 0.20386 0.0
H1080 H 0.01636 0.5772 0.1877 0.0
C1081 C 0.97039 0.64121 0.21501 0.0
H1082 H 0.96084 0.57596 0.18646 0.0
C1083 C 0.00181 0.64183 0.21584 0.0
C1084 C 0.01895 0.61949 0.20537 0.0
H1085 H 0.95801 0.6601 0.22176 0.0
H1086 H 0.01276 0.66122 0.22322 0.0
C1087 C 0.00379 0.59459 0.1961 0.0
loop_
_geom_bond_atom_site_label_1
_geom_bond_atom_site_label_2
_geom_bond_distance
_geom_bond_site_symmetry_2
_ccdc_geom_bond_type
C0 O1 1.306 . S
C0 O3 1.160 . S
O1 C0 1.306 . S
O1 Cd2 2.228 . S
Cd2 O1 2.228 . S
Cd2 O6 2.273 . S
Cd2 O10 2.277 . S
O3 C0 1.160 . S
O3 Cd4 2.203 . S
Cd4 O3 2.203 . S
Cd4 O6 2.411 . S
Cd4 O7 2.333 1_554 S
Cd4 O8 2.352 . S
Cd4 O12 2.277 . S
Cd4 O13 2.356 1_554 S
C5 O10 1.209 . S
C5 O12 1.226 . S
O6 Cd2 2.273 . S
O6 Cd4 2.411 . S
O6 C9 1.320 . S
O7 Cd4 2.333 1_556 S
O7 C9 1.214 1_556 S
O8 Cd4 2.352 . S
O8 C11 1.258 . S
C9 O6 1.320 . S
C9 O7 1.214 1_554 S
O10 Cd2 2.277 . S
O10 C5 1.209 . S
C11 O8 1.258 . S
C11 O13 1.282 1_554 S
O12 Cd4 2.277 . S
O12 C5 1.226 . S
O13 Cd4 2.356 1_556 S
O13 C11 1.282 1_556 S
C14 O15 1.306 . S
C14 O17 1.160 . S
O15 C14 1.306 . S
O15 Cd16 2.228 . S
Cd16 O15 2.228 . S
Cd16 O20 2.273 . S
Cd16 O24 2.277 . S
O17 C14 1.160 . S
O17 Cd18 2.203 . S
Cd18 O17 2.203 . S
Cd18 O20 2.411 . S
Cd18 O21 2.333 . S
Cd18 O22 2.352 . S
Cd18 O26 2.277 . S
Cd18 O27 2.356 . S
C19 O24 1.209 . S
C19 O26 1.226 . S
O20 Cd16 2.273 . S
O20 Cd18 2.411 . S
O20 C23 1.320 . S
O21 Cd18 2.333 . S
O21 C23 1.214 . S
O22 Cd18 2.352 . S
O22 C25 1.258 . S
C23 O20 1.320 . S
C23 O21 1.214 . S
O24 Cd16 2.277 . S
O24 C19 1.209 . S
C25 O22 1.258 . S
C25 O27 1.282 . S
O26 Cd18 2.277 . S
O26 C19 1.226 . S
O27 Cd18 2.356 . S
O27 C25 1.282 . S
C28 O29 1.306 . S
C28 O31 1.160 . S
O29 C28 1.306 . S
O29 Cd30 2.228 . S
Cd30 O29 2.228 . S
Cd30 O34 2.273 . S
Cd30 O38 2.277 . S
O31 C28 1.160 . S
O31 Cd32 2.203 . S
Cd32 O31 2.203 . S
Cd32 O34 2.411 . S
Cd32 O35 2.333 . S
Cd32 O36 2.352 . S
Cd32 O40 2.277 . S
Cd32 O41 2.356 . S
C33 O38 1.209 . S
C33 O40 1.226 . S
O34 Cd30 2.273 . S
O34 Cd32 2.411 . S
O34 C37 1.320 . S
O35 Cd32 2.333 . S
O35 C37 1.214 . S
O36 Cd32 2.352 . S
O36 C39 1.258 . S
C37 O34 1.320 . S
C37 O35 1.214 . S
O38 Cd30 2.277 . S
O38 C33 1.209 . S
C39 O36 1.258 . S
C39 O41 1.282 . S
O40 Cd32 2.277 . S
O40 C33 1.226 . S
O41 Cd32 2.356 . S
O41 C39 1.282 . S
C42 O43 1.306 . S
C42 O45 1.160 . S
O43 C42 1.306 . S
O43 Cd44 2.228 . S
Cd44 O43 2.228 . S
Cd44 O48 2.273 . S
Cd44 O52 2.277 . S
O45 C42 1.160 . S
O45 Cd46 2.203 . S
Cd46 O45 2.203 . S
Cd46 O48 2.411 . S
Cd46 O49 2.333 . S
Cd46 O50 2.352 . S
Cd46 O54 2.277 . S
Cd46 O55 2.356 . S
C47 O52 1.209 . S
C47 O54 1.226 . S
O48 Cd44 2.273 . S
O48 Cd46 2.411 . S
O48 C51 1.320 . S
O49 Cd46 2.333 . S
O49 C51 1.214 . S
O50 Cd46 2.352 . S
O50 C53 1.258 . S
C51 O48 1.320 . S
C51 O49 1.214 . S
O52 Cd44 2.277 . S
O52 C47 1.209 . S
C53 O50 1.258 . S
C53 O55 1.282 . S
O54 Cd46 2.277 . S
O54 C47 1.226 . S
O55 Cd46 2.356 . S
O55 C53 1.282 . S
C56 O57 1.306 . S
C56 O59 1.160 . S
O57 C56 1.306 . S
O57 Cd58 2.228 . S
Cd58 O57 2.228 . S
Cd58 O62 2.273 . S
Cd58 O66 2.277 . S
O59 C56 1.160 . S
O59 Cd60 2.203 . S
Cd60 O59 2.203 . S
Cd60 O62 2.411 . S
Cd60 O63 2.333 1_556 S
Cd60 O64 2.352 . S
Cd60 O68 2.277 . S
Cd60 O69 2.356 1_556 S
C61 O66 1.209 . S
C61 O68 1.226 . S
O62 Cd58 2.273 . S
O62 Cd60 2.411 . S
O62 C65 1.320 . S
O63 Cd60 2.333 1_554 S
O63 C65 1.214 1_554 S
O64 Cd60 2.352 . S
O64 C67 1.258 . S
C65 O62 1.320 . S
C65 O63 1.214 1_556 S
O66 Cd58 2.277 . S
O66 C61 1.209 . S
C67 O64 1.258 . S
C67 O69 1.282 1_556 S
O68 Cd60 2.277 . S
O68 C61 1.226 . S
O69 Cd60 2.356 1_554 S
O69 C67 1.282 1_554 S
C70 O71 1.306 . S
C70 O73 1.160 . S
O71 C70 1.306 . S
O71 Cd72 2.228 . S
Cd72 O71 2.228 . S
Cd72 O76 2.273 . S
Cd72 O80 2.277 . S
O73 C70 1.160 . S
O73 Cd74 2.203 . S
Cd74 O73 2.203 . S
Cd74 O76 2.411 . S
Cd74 O77 2.333 . S
Cd74 O78 2.352 . S
Cd74 O82 2.277 . S
Cd74 O83 2.356 . S
C75 O80 1.209 . S
C75 O82 1.226 . S
O76 Cd72 2.273 . S
O76 Cd74 2.411 . S
O76 C79 1.320 . S
O77 Cd74 2.333 . S
O77 C79 1.214 . S
O78 Cd74 2.352 . S
O78 C81 1.258 . S
C79 O76 1.320 . S
C79 O77 1.214 . S
O80 Cd72 2.277 . S
O80 C75 1.209 . S
C81 O78 1.258 . S
C81 O83 1.282 . S
O82 Cd74 2.277 . S
O82 C75 1.226 . S
O83 Cd74 2.356 . S
O83 C81 1.282 . S
C84 O85 1.306 . S
C84 O87 1.160 . S
O85 C84 1.306 . S
O85 Cd86 2.228 . S
Cd86 O85 2.228 . S
Cd86 O90 2.273 . S
Cd86 O94 2.277 . S
O87 C84 1.160 . S
O87 Cd88 2.203 . S
Cd88 O87 2.203 . S
Cd88 O90 2.411 . S
Cd88 O91 2.333 . S
Cd88 O92 2.352 . S
Cd88 O96 2.277 . S
Cd88 O97 2.356 . S
C89 O94 1.209 . S
C89 O96 1.226 . S
O90 Cd86 2.273 . S
O90 Cd88 2.411 . S
O90 C93 1.320 . S
O91 Cd88 2.333 . S
O91 C93 1.214 . S
O92 Cd88 2.352 . S
O92 C95 1.258 . S
C93 O90 1.320 . S
C93 O91 1.214 . S
O94 Cd86 2.277 . S
O94 C89 1.209 . S
C95 O92 1.258 . S
C95 O97 1.282 . S
O96 Cd88 2.277 . S
O96 C89 1.226 . S
O97 Cd88 2.356 . S
O97 C95 1.282 . S
C98 O99 1.306 . S
C98 O101 1.160 . S
O99 C98 1.306 . S
O99 Cd100 2.228 . S
Cd100 O99 2.228 . S
Cd100 O104 2.273 . S
Cd100 O108 2.277 . S
O101 C98 1.160 . S
O101 Cd102 2.203 . S
Cd102 O101 2.203 . S
Cd102 O104 2.411 . S
Cd102 O105 2.333 . S
Cd102 O106 2.352 . S
Cd102 O110 2.277 . S
Cd102 O111 2.356 . S
C103 O108 1.209 . S
C103 O110 1.226 . S
O104 Cd100 2.273 . S
O104 Cd102 2.411 . S
O104 C107 1.320 . S
O105 Cd102 2.333 . S
O105 C107 1.214 . S
O106 Cd102 2.352 . S
O106 C109 1.258 . S
C107 O104 1.320 . S
C107 O105 1.214 . S
O108 Cd100 2.277 . S
O108 C103 1.209 . S
C109 O106 1.258 . S
C109 O111 1.282 . S
O110 Cd102 2.277 . S
O110 C103 1.226 . S
O111 Cd102 2.356 . S
O111 C109 1.282 . S
C112 O113 1.306 . S
C112 O115 1.160 . S
O113 C112 1.306 . S
O113 Cd114 2.228 . S
Cd114 O113 2.228 . S
Cd114 O118 2.273 . S
Cd114 O122 2.277 . S
O115 C112 1.160 . S
O115 Cd116 2.203 . S
Cd116 O115 2.203 . S
Cd116 O118 2.411 . S
Cd116 O119 2.333 1_556 S
Cd116 O120 2.352 . S
Cd116 O124 2.277 . S
Cd116 O125 2.356 1_556 S
C117 O122 1.209 . S
C117 O124 1.226 . S
O118 Cd114 2.273 . S
O118 Cd116 2.411 . S
O118 C121 1.320 . S
O119 Cd116 2.333 1_554 S
O119 C121 1.214 1_554 S
O120 Cd116 2.352 . S
O120 C123 1.258 . S
C121 O118 1.320 . S
C121 O119 1.214 1_556 S
O122 Cd114 2.277 . S
O122 C117 1.209 . S
C123 O120 1.258 . S
C123 O125 1.282 1_556 S
O124 Cd116 2.277 . S
O124 C117 1.226 . S
O125 Cd116 2.356 1_554 S
O125 C123 1.282 1_554 S
C126 O127 1.306 . S
C126 O129 1.160 . S
O127 C126 1.306 . S
O127 Cd128 2.228 . S
Cd128 O127 2.228 . S
Cd128 O132 2.273 . S
Cd128 O136 2.277 . S
O129 C126 1.160 . S
O129 Cd130 2.203 . S
Cd130 O129 2.203 . S
Cd130 O132 2.411 . S
Cd130 O133 2.333 . S
Cd130 O134 2.352 . S
Cd130 O138 2.277 . S
Cd130 O139 2.356 . S
C131 O136 1.209 . S
C131 O138 1.226 . S
O132 Cd128 2.273 . S
O132 Cd130 2.411 . S
O132 C135 1.320 . S
O133 Cd130 2.333 . S
O133 C135 1.214 . S
O134 Cd130 2.352 . S
O134 C137 1.258 . S
C135 O132 1.320 . S
C135 O133 1.214 . S
O136 Cd128 2.277 . S
O136 C131 1.209 . S
C137 O134 1.258 . S
C137 O139 1.282 . S
O138 Cd130 2.277 . S
O138 C131 1.226 . S
O139 Cd130 2.356 . S
O139 C137 1.282 . S
C140 O141 1.306 . S
C140 O143 1.160 . S
O141 C140 1.306 . S
O141 Cd142 2.228 . S
Cd142 O141 2.228 . S
Cd142 O146 2.273 . S
Cd142 O150 2.277 . S
O143 C140 1.160 . S
O143 Cd144 2.203 . S
Cd144 O143 2.203 . S
Cd144 O146 2.411 . S
Cd144 O147 2.333 . S
Cd144 O148 2.352 . S
Cd144 O152 2.277 . S
Cd144 O153 2.356 . S
C145 O150 1.209 . S
C145 O152 1.226 . S
O146 Cd142 2.273 . S
O146 Cd144 2.411 . S
O146 C149 1.320 . S
O147 Cd144 2.333 . S
O147 C149 1.214 . S
O148 Cd144 2.352 . S
O148 C151 1.258 . S
C149 O146 1.320 . S
C149 O147 1.214 . S
O150 Cd142 2.277 . S
O150 C145 1.209 . S
C151 O148 1.258 . S
C151 O153 1.282 . S
O152 Cd144 2.277 . S
O152 C145 1.226 . S
O153 Cd144 2.356 . S
O153 C151 1.282 . S
C154 O155 1.306 . S
C154 O157 1.160 . S
O155 C154 1.306 . S
O155 Cd156 2.228 . S
Cd156 O155 2.228 . S
Cd156 O160 2.273 . S
Cd156 O164 2.277 . S
O157 C154 1.160 . S
O157 Cd158 2.203 . S
Cd158 O157 2.203 . S
Cd158 O160 2.411 . S
Cd158 O161 2.333 . S
Cd158 O162 2.352 . S
Cd158 O166 2.277 . S
Cd158 O167 2.356 . S
C159 O164 1.209 . S
C159 O166 1.226 . S
O160 Cd156 2.273 . S
O160 Cd158 2.411 . S
O160 C163 1.320 . S
O161 Cd158 2.333 . S
O161 C163 1.214 . S
O162 Cd158 2.352 . S
O162 C165 1.258 . S
C163 O160 1.320 . S
C163 O161 1.214 . S
O164 Cd156 2.277 . S
O164 C159 1.209 . S
C165 O162 1.258 . S
C165 O167 1.282 . S
O166 Cd158 2.277 . S
O166 C159 1.226 . S
O167 Cd158 2.356 . S
O167 C165 1.282 . S
C168 O169 1.306 . S
C168 O171 1.160 . S
O169 C168 1.306 . S
O169 Cd170 2.228 . S
Cd170 O169 2.228 . S
Cd170 O174 2.273 . S
Cd170 O178 2.277 . S
O171 C168 1.160 . S
O171 Cd172 2.203 . S
Cd172 O171 2.203 . S
Cd172 O174 2.411 . S
Cd172 O175 2.333 1_554 S
Cd172 O176 2.352 . S
Cd172 O180 2.277 . S
Cd172 O181 2.356 1_554 S
C173 O178 1.209 . S
C173 O180 1.226 . S
O174 Cd170 2.273 . S
O174 Cd172 2.411 . S
O174 C177 1.320 . S
O175 Cd172 2.333 1_556 S
O175 C177 1.214 1_556 S
O176 Cd172 2.352 . S
O176 C179 1.258 . S
C177 O174 1.320 . S
C177 O175 1.214 1_554 S
O178 Cd170 2.277 . S
O178 C173 1.209 . S
C179 O176 1.258 . S
C179 O181 1.282 1_554 S
O180 Cd172 2.277 . S
O180 C173 1.226 . S
O181 Cd172 2.356 1_556 S
O181 C179 1.282 1_556 S
C182 O183 1.306 . S
C182 O185 1.160 . S
O183 C182 1.306 . S
O183 Cd184 2.228 . S
Cd184 O183 2.228 . S
Cd184 O188 2.273 . S
Cd184 O192 2.277 . S
O185 C182 1.160 . S
O185 Cd186 2.203 . S
Cd186 O185 2.203 . S
Cd186 O188 2.411 . S
Cd186 O189 2.333 . S
Cd186 O190 2.352 . S
Cd186 O194 2.277 . S
Cd186 O195 2.356 . S
C187 O192 1.209 . S
C187 O194 1.226 . S
O188 Cd184 2.273 . S
O188 Cd186 2.411 . S
O188 C191 1.320 . S
O189 Cd186 2.333 . S
O189 C191 1.214 . S
O190 Cd186 2.352 . S
O190 C193 1.258 . S
C191 O188 1.320 . S
C191 O189 1.214 . S
O192 Cd184 2.277 . S
O192 C187 1.209 . S
C193 O190 1.258 . S
C193 O195 1.282 . S
O194 Cd186 2.277 . S
O194 C187 1.226 . S
O195 Cd186 2.356 . S
O195 C193 1.282 . S
C196 O197 1.306 . S
C196 O199 1.160 . S
O197 C196 1.306 . S
O197 Cd198 2.228 . S
Cd198 O197 2.228 . S
Cd198 O202 2.273 . S
Cd198 O206 2.277 . S
O199 C196 1.160 . S
O199 Cd200 2.203 . S
Cd200 O199 2.203 . S
Cd200 O202 2.411 . S
Cd200 O203 2.333 . S
Cd200 O204 2.352 . S
Cd200 O208 2.277 . S
Cd200 O209 2.356 . S
C201 O206 1.209 . S
C201 O208 1.226 . S
O202 Cd198 2.273 . S
O202 Cd200 2.411 . S
O202 C205 1.320 . S
O203 Cd200 2.333 . S
O203 C205 1.214 . S
O204 Cd200 2.352 . S
O204 C207 1.258 . S
C205 O202 1.320 . S
C205 O203 1.214 . S
O206 Cd198 2.277 . S
O206 C201 1.209 . S
C207 O204 1.258 . S
C207 O209 1.282 . S
O208 Cd200 2.277 . S
O208 C201 1.226 . S
O209 Cd200 2.356 . S
O209 C207 1.282 . S
C210 O211 1.306 . S
C210 O213 1.160 . S
O211 C210 1.306 . S
O211 Cd212 2.228 . S
Cd212 O211 2.228 . S
Cd212 O216 2.273 . S
Cd212 O220 2.277 . S
O213 C210 1.160 . S
O213 Cd214 2.203 . S
Cd214 O213 2.203 . S
Cd214 O216 2.411 . S
Cd214 O217 2.333 . S
Cd214 O218 2.352 . S
Cd214 O222 2.277 . S
Cd214 O223 2.356 . S
C215 O220 1.209 . S
C215 O222 1.226 . S
O216 Cd212 2.273 . S
O216 Cd214 2.411 . S
O216 C219 1.320 . S
O217 Cd214 2.333 . S
O217 C219 1.214 . S
O218 Cd214 2.352 . S
O218 C221 1.258 . S
C219 O216 1.320 . S
C219 O217 1.214 . S
O220 Cd212 2.277 . S
O220 C215 1.209 . S
C221 O218 1.258 . S
C221 O223 1.282 . S
O222 Cd214 2.277 . S
O222 C215 1.226 . S
O223 Cd214 2.356 . S
O223 C221 1.282 . S
C224 O225 1.306 . S
C224 O227 1.160 . S
O225 C224 1.306 . S
O225 Cd226 2.228 . S
Cd226 O225 2.228 . S
Cd226 O230 2.273 . S
Cd226 O234 2.277 . S
O227 C224 1.160 . S
O227 Cd228 2.203 . S
Cd228 O227 2.203 . S
Cd228 O230 2.411 . S
Cd228 O231 2.333 . S
Cd228 O232 2.352 . S
Cd228 O236 2.277 . S
Cd228 O237 2.356 . S
C229 O234 1.209 . S
C229 O236 1.226 . S
O230 Cd226 2.273 . S
O230 Cd228 2.411 . S
O230 C233 1.320 . S
O231 Cd228 2.333 . S
O231 C233 1.214 . S
O232 Cd228 2.352 . S
O232 C235 1.258 . S
C233 O230 1.320 . S
C233 O231 1.214 . S
O234 Cd226 2.277 . S
O234 C229 1.209 . S
C235 O232 1.258 . S
C235 O237 1.282 . S
O236 Cd228 2.277 . S
O236 C229 1.226 . S
O237 Cd228 2.356 . S
O237 C235 1.282 . S
C238 O239 1.306 . S
C238 O241 1.160 . S
O239 C238 1.306 . S
O239 Cd240 2.228 . S
Cd240 O239 2.228 . S
Cd240 O244 2.273 . S
Cd240 O248 2.277 . S
O241 C238 1.160 . S
O241 Cd242 2.203 . S
Cd242 O241 2.203 . S
Cd242 O244 2.411 . S
Cd242 O245 2.333 . S
Cd242 O246 2.352 . S
Cd242 O250 2.277 . S
Cd242 O251 2.356 . S
C243 O248 1.209 . S
C243 O250 1.226 . S
O244 Cd240 2.273 . S
O244 Cd242 2.411 . S
O244 C247 1.320 . S
O245 Cd242 2.333 . S
O245 C247 1.214 . S
O246 Cd242 2.352 . S
O246 C249 1.258 . S
C247 O244 1.320 . S
C247 O245 1.214 . S
O248 Cd240 2.277 . S
O248 C243 1.209 . S
C249 O246 1.258 . S
C249 O251 1.282 . S
O250 Cd242 2.277 . S
O250 C243 1.226 . S
O251 Cd242 2.356 . S
O251 C249 1.282 . S
C252 O253 1.306 . S
C252 O255 1.160 . S
O253 C252 1.306 . S
O253 Cd254 2.228 . S
Cd254 O253 2.228 . S
Cd254 O258 2.273 . S
Cd254 O262 2.277 . S
O255 C252 1.160 . S
O255 Cd256 2.203 . S
Cd256 O255 2.203 . S
Cd256 O258 2.411 . S
Cd256 O259 2.333 1_554 S
Cd256 O260 2.352 . S
Cd256 O264 2.277 . S
Cd256 O265 2.356 1_554 S
C257 O262 1.209 . S
C257 O264 1.226 . S
O258 Cd254 2.273 . S
O258 Cd256 2.411 . S
O258 C261 1.320 . S
O259 Cd256 2.333 1_556 S
O259 C261 1.214 1_556 S
O260 Cd256 2.352 . S
O260 C263 1.258 . S
C261 O258 1.320 . S
C261 O259 1.214 1_554 S
O262 Cd254 2.277 . S
O262 C257 1.209 . S
C263 O260 1.258 . S
C263 O265 1.282 1_554 S
O264 Cd256 2.277 . S
O264 C257 1.226 . S
O265 Cd256 2.356 1_556 S
O265 C263 1.282 1_556 S
C266 O267 1.306 . S
C266 O269 1.160 . S
O267 C266 1.306 . S
O267 Cd268 2.228 . S
Cd268 O267 2.228 . S
Cd268 O272 2.273 . S
Cd268 O276 2.277 . S
O269 C266 1.160 . S
O269 Cd270 2.203 . S
Cd270 O269 2.203 . S
Cd270 O272 2.411 . S
Cd270 O273 2.333 . S
Cd270 O274 2.352 . S
Cd270 O278 2.277 . S
Cd270 O279 2.356 . S
C271 O276 1.209 . S
C271 O278 1.226 . S
O272 Cd268 2.273 . S
O272 Cd270 2.411 . S
O272 C275 1.320 . S
O273 Cd270 2.333 . S
O273 C275 1.214 . S
O274 Cd270 2.352 . S
O274 C277 1.258 . S
C275 O272 1.320 . S
C275 O273 1.214 . S
O276 Cd268 2.277 . S
O276 C271 1.209 . S
C277 O274 1.258 . S
C277 O279 1.282 . S
O278 Cd270 2.277 . S
O278 C271 1.226 . S
O279 Cd270 2.356 . S
O279 C277 1.282 . S
C280 O281 1.306 . S
C280 O283 1.160 . S
O281 C280 1.306 . S
O281 Cd282 2.228 . S
Cd282 O281 2.228 . S
Cd282 O286 2.273 . S
Cd282 O290 2.277 . S
O283 C280 1.160 . S
O283 Cd284 2.203 . S
Cd284 O283 2.203 . S
Cd284 O286 2.411 . S
Cd284 O287 2.333 . S
Cd284 O288 2.352 . S
Cd284 O292 2.277 . S
Cd284 O293 2.356 . S
C285 O290 1.209 . S
C285 O292 1.226 . S
O286 Cd282 2.273 . S
O286 Cd284 2.411 . S
O286 C289 1.320 . S
O287 Cd284 2.333 . S
O287 C289 1.214 . S
O288 Cd284 2.352 . S
O288 C291 1.258 . S
C289 O286 1.320 . S
C289 O287 1.214 . S
O290 Cd282 2.277 . S
O290 C285 1.209 . S
C291 O288 1.258 . S
C291 O293 1.282 . S
O292 Cd284 2.277 . S
O292 C285 1.226 . S
O293 Cd284 2.356 . S
O293 C291 1.282 . S
C294 O295 1.306 . S
C294 O297 1.160 . S
O295 C294 1.306 . S
O295 Cd296 2.228 . S
Cd296 O295 2.228 . S
Cd296 O300 2.273 . S
Cd296 O304 2.277 . S
O297 C294 1.160 . S
O297 Cd298 2.203 . S
Cd298 O297 2.203 . S
Cd298 O300 2.411 . S
Cd298 O301 2.333 . S
Cd298 O302 2.352 . S
Cd298 O306 2.277 . S
Cd298 O307 2.356 . S
C299 O304 1.209 . S
C299 O306 1.226 . S
O300 Cd296 2.273 . S
O300 Cd298 2.411 . S
O300 C303 1.320 . S
O301 Cd298 2.333 . S
O301 C303 1.214 . S
O302 Cd298 2.352 . S
O302 C305 1.258 . S
C303 O300 1.320 . S
C303 O301 1.214 . S
O304 Cd296 2.277 . S
O304 C299 1.209 . S
C305 O302 1.258 . S
C305 O307 1.282 . S
O306 Cd298 2.277 . S
O306 C299 1.226 . S
O307 Cd298 2.356 . S
O307 C305 1.282 . S
C308 O309 1.306 . S
C308 O311 1.160 . S
O309 C308 1.306 . S
O309 Cd310 2.228 . S
Cd310 O309 2.228 . S
Cd310 O314 2.273 . S
Cd310 O318 2.277 . S
O311 C308 1.160 . S
O311 Cd312 2.203 . S
Cd312 O311 2.203 . S
Cd312 O314 2.411 . S
Cd312 O315 2.333 1_556 S
Cd312 O316 2.352 . S
Cd312 O320 2.277 . S
Cd312 O321 2.356 1_556 S
C313 O318 1.209 . S
C313 O320 1.226 . S
O314 Cd310 2.273 . S
O314 Cd312 2.411 . S
O314 C317 1.320 . S
O315 Cd312 2.333 1_554 S
O315 C317 1.214 1_554 S
O316 Cd312 2.352 . S
O316 C319 1.258 . S
C317 O314 1.320 . S
C317 O315 1.214 1_556 S
O318 Cd310 2.277 . S
O318 C313 1.209 . S
C319 O316 1.258 . S
C319 O321 1.282 1_556 S
O320 Cd312 2.277 . S
O320 C313 1.226 . S
O321 Cd312 2.356 1_554 S
O321 C319 1.282 1_554 S
C322 O323 1.306 . S
C322 O325 1.160 . S
O323 C322 1.306 . S
O323 Cd324 2.228 . S
Cd324 O323 2.228 . S
Cd324 O328 2.273 . S
Cd324 O332 2.277 . S
O325 C322 1.160 . S
O325 Cd326 2.203 . S
Cd326 O325 2.203 . S
Cd326 O328 2.411 . S
Cd326 O329 2.333 . S
Cd326 O330 2.352 . S
Cd326 O334 2.277 . S
Cd326 O335 2.356 . S
C327 O332 1.209 . S
C327 O334 1.226 . S
O328 Cd324 2.273 . S
O328 Cd326 2.411 . S
O328 C331 1.320 . S
O329 Cd326 2.333 . S
O329 C331 1.214 . S
O330 Cd326 2.352 . S
O330 C333 1.258 . S
C331 O328 1.320 . S
C331 O329 1.214 . S
O332 Cd324 2.277 . S
O332 C327 1.209 . S
C333 O330 1.258 . S
C333 O335 1.282 . S
O334 Cd326 2.277 . S
O334 C327 1.226 . S
O335 Cd326 2.356 . S
O335 C333 1.282 . S
C336 O337 1.306 . S
C336 O339 1.160 . S
O337 C336 1.306 . S
O337 Cd338 2.228 . S
Cd338 O337 2.228 . S
Cd338 O342 2.273 . S
Cd338 O346 2.277 . S
O339 C336 1.160 . S
O339 Cd340 2.203 . S
Cd340 O339 2.203 . S
Cd340 O342 2.411 . S
Cd340 O343 2.333 . S
Cd340 O344 2.352 . S
Cd340 O348 2.277 . S
Cd340 O349 2.356 . S
C341 O346 1.209 . S
C341 O348 1.226 . S
O342 Cd338 2.273 . S
O342 Cd340 2.411 . S
O342 C345 1.320 . S
O343 Cd340 2.333 . S
O343 C345 1.214 . S
O344 Cd340 2.352 . S
O344 C347 1.258 . S
C345 O342 1.320 . S
C345 O343 1.214 . S
O346 Cd338 2.277 . S
O346 C341 1.209 . S
C347 O344 1.258 . S
C347 O349 1.282 . S
O348 Cd340 2.277 . S
O348 C341 1.226 . S
O349 Cd340 2.356 . S
O349 C347 1.282 . S
C350 O351 1.306 . S
C350 O353 1.160 . S
O351 C350 1.306 . S
O351 Cd352 2.228 . S
Cd352 O351 2.228 . S
Cd352 O356 2.273 . S
Cd352 O360 2.277 . S
O353 C350 1.160 . S
O353 Cd354 2.203 . S
Cd354 O353 2.203 . S
Cd354 O356 2.411 . S
Cd354 O357 2.333 . S
Cd354 O358 2.352 . S
Cd354 O362 2.277 . S
Cd354 O363 2.356 . S
C355 O360 1.209 . S
C355 O362 1.226 . S
O356 Cd352 2.273 . S
O356 Cd354 2.411 . S
O356 C359 1.320 . S
O357 Cd354 2.333 . S
O357 C359 1.214 . S
O358 Cd354 2.352 . S
O358 C361 1.258 . S
C359 O356 1.320 . S
C359 O357 1.214 . S
O360 Cd352 2.277 . S
O360 C355 1.209 . S
C361 O358 1.258 . S
C361 O363 1.282 . S
O362 Cd354 2.277 . S
O362 C355 1.226 . S
O363 Cd354 2.356 . S
O363 C361 1.282 . S
C364 O365 1.306 . S
C364 O367 1.160 . S
O365 C364 1.306 . S
O365 Cd366 2.228 . S
Cd366 O365 2.228 . S
Cd366 O370 2.273 . S
Cd366 O374 2.277 . S
O367 C364 1.160 . S
O367 Cd368 2.203 . S
Cd368 O367 2.203 . S
Cd368 O370 2.411 . S
Cd368 O371 2.333 1_556 S
Cd368 O372 2.352 . S
Cd368 O376 2.277 . S
Cd368 O377 2.356 1_556 S
C369 O374 1.209 . S
C369 O376 1.226 . S
O370 Cd366 2.273 . S
O370 Cd368 2.411 . S
O370 C373 1.320 . S
O371 Cd368 2.333 1_554 S
O371 C373 1.214 1_554 S
O372 Cd368 2.352 . S
O372 C375 1.258 . S
C373 O370 1.320 . S
C373 O371 1.214 1_556 S
O374 Cd366 2.277 . S
O374 C369 1.209 . S
C375 O372 1.258 . S
C375 O377 1.282 1_556 S
O376 Cd368 2.277 . S
O376 C369 1.226 . S
O377 Cd368 2.356 1_554 S
O377 C375 1.282 1_554 S
C378 O379 1.306 . S
C378 O381 1.160 . S
O379 C378 1.306 . S
O379 Cd380 2.228 . S
Cd380 O379 2.228 . S
Cd380 O384 2.273 . S
Cd380 O388 2.277 . S
O381 C378 1.160 . S
O381 Cd382 2.203 . S
Cd382 O381 2.203 . S
Cd382 O384 2.411 . S
Cd382 O385 2.333 . S
Cd382 O386 2.352 . S
Cd382 O390 2.277 . S
Cd382 O391 2.356 . S
C383 O388 1.209 . S
C383 O390 1.226 . S
O384 Cd380 2.273 . S
O384 Cd382 2.411 . S
O384 C387 1.320 . S
O385 Cd382 2.333 . S
O385 C387 1.214 . S
O386 Cd382 2.352 . S
O386 C389 1.258 . S
C387 O384 1.320 . S
C387 O385 1.214 . S
O388 Cd380 2.277 . S
O388 C383 1.209 . S
C389 O386 1.258 . S
C389 O391 1.282 . S
O390 Cd382 2.277 . S
O390 C383 1.226 . S
O391 Cd382 2.356 . S
O391 C389 1.282 . S
C392 O393 1.306 . S
C392 O395 1.160 . S
O393 C392 1.306 . S
O393 Cd394 2.228 . S
Cd394 O393 2.228 . S
Cd394 O398 2.273 . S
Cd394 O402 2.277 . S
O395 C392 1.160 . S
O395 Cd396 2.203 . S
Cd396 O395 2.203 . S
Cd396 O398 2.411 . S
Cd396 O399 2.333 . S
Cd396 O400 2.352 . S
Cd396 O404 2.277 . S
Cd396 O405 2.356 . S
C397 O402 1.209 . S
C397 O404 1.226 . S
O398 Cd394 2.273 . S
O398 Cd396 2.411 . S
O398 C401 1.320 . S
O399 Cd396 2.333 . S
O399 C401 1.214 . S
O400 Cd396 2.352 . S
O400 C403 1.258 . S
C401 O398 1.320 . S
C401 O399 1.214 . S
O402 Cd394 2.277 . S
O402 C397 1.209 . S
C403 O400 1.258 . S
C403 O405 1.282 . S
O404 Cd396 2.277 . S
O404 C397 1.226 . S
O405 Cd396 2.356 . S
O405 C403 1.282 . S
C406 O407 1.306 . S
C406 O409 1.160 . S
O407 C406 1.306 . S
O407 Cd408 2.228 . S
Cd408 O407 2.228 . S
Cd408 O412 2.273 . S
Cd408 O416 2.277 . S
O409 C406 1.160 . S
O409 Cd410 2.203 . S
Cd410 O409 2.203 . S
Cd410 O412 2.411 . S
Cd410 O413 2.333 . S
Cd410 O414 2.352 . S
Cd410 O418 2.277 . S
Cd410 O419 2.356 . S
C411 O416 1.209 . S
C411 O418 1.226 . S
O412 Cd408 2.273 . S
O412 Cd410 2.411 . S
O412 C415 1.320 . S
O413 Cd410 2.333 . S
O413 C415 1.214 . S
O414 Cd410 2.352 . S
O414 C417 1.258 . S
C415 O412 1.320 . S
C415 O413 1.214 . S
O416 Cd408 2.277 . S
O416 C411 1.209 . S
C417 O414 1.258 . S
C417 O419 1.282 . S
O418 Cd410 2.277 . S
O418 C411 1.226 . S
O419 Cd410 2.356 . S
O419 C417 1.282 . S
C420 O421 1.306 . S
C420 O423 1.160 . S
O421 C420 1.306 . S
O421 Cd422 2.228 . S
Cd422 O421 2.228 . S
Cd422 O426 2.273 . S
Cd422 O430 2.277 . S
O423 C420 1.160 . S
O423 Cd424 2.203 . S
Cd424 O423 2.203 . S
Cd424 O426 2.411 . S
Cd424 O427 2.333 1_554 S
Cd424 O428 2.352 . S
Cd424 O432 2.277 . S
Cd424 O433 2.356 1_554 S
C425 O430 1.209 . S
C425 O432 1.226 . S
O426 Cd422 2.273 . S
O426 Cd424 2.411 . S
O426 C429 1.320 . S
O427 Cd424 2.333 1_556 S
O427 C429 1.214 1_556 S
O428 Cd424 2.352 . S
O428 C431 1.258 . S
C429 O426 1.320 . S
C429 O427 1.214 1_554 S
O430 Cd422 2.277 . S
O430 C425 1.209 . S
C431 O428 1.258 . S
C431 O433 1.282 1_554 S
O432 Cd424 2.277 . S
O432 C425 1.226 . S
O433 Cd424 2.356 1_556 S
O433 C431 1.282 1_556 S
C434 O435 1.306 . S
C434 O437 1.160 . S
O435 C434 1.306 . S
O435 Cd436 2.228 . S
Cd436 O435 2.228 . S
Cd436 O440 2.273 . S
Cd436 O444 2.277 . S
O437 C434 1.160 . S
O437 Cd438 2.203 . S
Cd438 O437 2.203 . S
Cd438 O440 2.411 . S
Cd438 O441 2.333 . S
Cd438 O442 2.352 . S
Cd438 O446 2.277 . S
Cd438 O447 2.356 . S
C439 O444 1.209 . S
C439 O446 1.226 . S
O440 Cd436 2.273 . S
O440 Cd438 2.411 . S
O440 C443 1.320 . S
O441 Cd438 2.333 . S
O441 C443 1.214 . S
O442 Cd438 2.352 . S
O442 C445 1.258 . S
C443 O440 1.320 . S
C443 O441 1.214 . S
O444 Cd436 2.277 . S
O444 C439 1.209 . S
C445 O442 1.258 . S
C445 O447 1.282 . S
O446 Cd438 2.277 . S
O446 C439 1.226 . S
O447 Cd438 2.356 . S
O447 C445 1.282 . S
C448 C449 1.387 . S
C448 H452 0.950 . S
C448 C457 1.390 . S
C449 C448 1.387 . S
C449 C451 1.387 . S
H450 C457 0.950 . S
C451 C449 1.387 . S
C451 C453 1.390 . S
C451 H455 0.950 . S
H452 C448 0.950 . S
C453 C451 1.390 . S
C453 C454 1.387 . S
C453 H456 0.950 . S
C454 C453 1.387 . S
C454 C457 1.387 . S
H455 C451 0.950 . S
H456 C453 0.950 . S
C457 C448 1.390 . S
C457 H450 0.950 . S
C457 C454 1.387 . S
C458 C459 1.387 . S
C458 H462 0.950 . S
C458 C467 1.390 . S
C459 C458 1.387 . S
C459 C461 1.387 . S
H460 C467 0.950 . S
C461 C459 1.387 . S
C461 C463 1.390 . S
C461 H465 0.950 . S
H462 C458 0.950 . S
C463 C461 1.390 . S
C463 C464 1.387 . S
C463 H466 0.950 . S
C464 C463 1.387 . S
C464 C467 1.387 . S
H465 C461 0.950 . S
H466 C463 0.950 . S
C467 C458 1.390 . S
C467 H460 0.950 . S
C467 C464 1.387 . S
C468 C469 1.387 . S
C468 H472 0.950 . S
C468 C477 1.390 . S
C469 C468 1.387 . S
C469 C471 1.387 . S
H470 C477 0.950 . S
C471 C469 1.387 . S
C471 C473 1.390 . S
C471 H475 0.950 . S
H472 C468 0.950 . S
C473 C471 1.390 . S
C473 C474 1.387 . S
C473 H476 0.950 . S
C474 C473 1.387 . S
C474 C477 1.387 . S
H475 C471 0.950 . S
H476 C473 0.950 . S
C477 C468 1.390 . S
C477 H470 0.950 . S
C477 C474 1.387 . S
C478 C479 1.387 . S
C478 H482 0.950 . S
C478 C487 1.390 . S
C479 C478 1.387 . S
C479 C481 1.387 . S
H480 C487 0.950 . S
C481 C479 1.387 . S
C481 C483 1.390 . S
C481 H485 0.950 . S
H482 C478 0.950 . S
C483 C481 1.390 . S
C483 C484 1.387 . S
C483 H486 0.950 . S
C484 C483 1.387 . S
C484 C487 1.387 . S
H485 C481 0.950 . S
H486 C483 0.950 . S
C487 C478 1.390 . S
C487 H480 0.950 . S
C487 C484 1.387 . S
C488 C489 1.387 . S
C488 H492 0.950 . S
C488 C497 1.390 . S
C489 C488 1.387 . S
C489 C491 1.387 . S
H490 C497 0.950 . S
C491 C489 1.387 . S
C491 C493 1.390 . S
C491 H495 0.950 . S
H492 C488 0.950 . S
C493 C491 1.390 . S
C493 C494 1.387 . S
C493 H496 0.950 . S
C494 C493 1.387 . S
C494 C497 1.387 . S
H495 C491 0.950 . S
H496 C493 0.950 . S
C497 C488 1.390 . S
C497 H490 0.950 . S
C497 C494 1.387 . S
C498 C499 1.387 . S
C498 H502 0.950 . S
C498 C507 1.390 . S
C499 C498 1.387 . S
C499 C501 1.387 . S
H500 C507 0.950 . S
C501 C499 1.387 . S
C501 C503 1.390 . S
C501 H505 0.950 . S
H502 C498 0.950 . S
C503 C501 1.390 . S
C503 C504 1.387 . S
C503 H506 0.950 . S
C504 C503 1.387 . S
C504 C507 1.387 . S
H505 C501 0.950 . S
H506 C503 0.950 . S
C507 C498 1.390 . S
C507 H500 0.950 . S
C507 C504 1.387 . S
C508 C509 1.387 . S
C508 H512 0.950 . S
C508 C517 1.390 . S
C509 C508 1.387 . S
C509 C511 1.387 . S
H510 C517 0.950 . S
C511 C509 1.387 . S
C511 C513 1.390 . S
C511 H515 0.950 . S
H512 C508 0.950 . S
C513 C511 1.390 . S
C513 C514 1.387 . S
C513 H516 0.950 . S
C514 C513 1.387 . S
C514 C517 1.387 . S
H515 C511 0.950 . S
H516 C513 0.950 . S
C517 C508 1.390 . S
C517 H510 0.950 . S
C517 C514 1.387 . S
C518 C519 1.387 . S
C518 H522 0.950 . S
C518 C527 1.390 . S
C519 C518 1.387 . S
C519 C521 1.387 . S
H520 C527 0.950 . S
C521 C519 1.387 . S
C521 C523 1.390 . S
C521 H525 0.950 . S
H522 C518 0.950 . S
C523 C521 1.390 . S
C523 C524 1.387 . S
C523 H526 0.950 . S
C524 C523 1.387 . S
C524 C527 1.387 . S
H525 C521 0.950 . S
H526 C523 0.950 . S
C527 C518 1.390 . S
C527 H520 0.950 . S
C527 C524 1.387 . S
C528 C529 1.387 . S
C528 H532 0.950 . S
C528 C537 1.390 . S
C529 C528 1.387 . S
C529 C531 1.387 . S
H530 C537 0.950 . S
C531 C529 1.387 . S
C531 C533 1.390 . S
C531 H535 0.950 . S
H532 C528 0.950 . S
C533 C531 1.390 . S
C533 C534 1.387 . S
C533 H536 0.950 . S
C534 C533 1.387 . S
C534 C537 1.387 . S
H535 C531 0.950 . S
H536 C533 0.950 . S
C537 C528 1.390 . S
C537 H530 0.950 . S
C537 C534 1.387 . S
C538 C539 1.387 . S
C538 H542 0.950 . S
C538 C547 1.390 . S
C539 C538 1.387 . S
C539 C541 1.387 . S
H540 C547 0.950 . S
C541 C539 1.387 . S
C541 C543 1.390 . S
C541 H545 0.950 . S
H542 C538 0.950 . S
C543 C541 1.390 . S
C543 C544 1.387 . S
C543 H546 0.950 . S
C544 C543 1.387 . S
C544 C547 1.387 . S
H545 C541 0.950 . S
H546 C543 0.950 . S
C547 C538 1.390 . S
C547 H540 0.950 . S
C547 C544 1.387 . S
C548 C549 1.387 . S
C548 H552 0.950 . S
C548 C557 1.390 . S
C549 C548 1.387 . S
C549 C551 1.387 . S
H550 C557 0.950 . S
C551 C549 1.387 . S
C551 C553 1.390 . S
C551 H555 0.950 . S
H552 C548 0.950 . S
C553 C551 1.390 . S
C553 C554 1.387 . S
C553 H556 0.950 . S
C554 C553 1.387 . S
C554 C557 1.387 . S
H555 C551 0.950 . S
H556 C553 0.950 . S
C557 C548 1.390 . S
C557 H550 0.950 . S
C557 C554 1.387 . S
C558 C559 1.387 . S
C558 H562 0.950 . S
C558 C567 1.390 . S
C559 C558 1.387 . S
C559 C561 1.387 . S
H560 C567 0.950 . S
C561 C559 1.387 . S
C561 C563 1.390 . S
C561 H565 0.950 . S
H562 C558 0.950 . S
C563 C561 1.390 . S
C563 C564 1.387 . S
C563 H566 0.950 . S
C564 C563 1.387 . S
C564 C567 1.387 . S
H565 C561 0.950 . S
H566 C563 0.950 . S
C567 C558 1.390 . S
C567 H560 0.950 . S
C567 C564 1.387 . S
C568 C569 1.387 . S
C568 H572 0.950 . S
C568 C577 1.390 . S
C569 C568 1.387 . S
C569 C571 1.387 . S
H570 C577 0.950 . S
C571 C569 1.387 . S
C571 C573 1.390 . S
C571 H575 0.950 . S
H572 C568 0.950 . S
C573 C571 1.390 . S
C573 C574 1.387 . S
C573 H576 0.950 . S
C574 C573 1.387 . S
C574 C577 1.387 . S
H575 C571 0.950 . S
H576 C573 0.950 . S
C577 C568 1.390 . S
C577 H570 0.950 . S
C577 C574 1.387 . S
C578 C579 1.387 . S
C578 H582 0.950 . S
C578 C587 1.390 . S
C579 C578 1.387 . S
C579 C581 1.387 . S
H580 C587 0.950 . S
C581 C579 1.387 . S
C581 C583 1.390 . S
C581 H585 0.950 . S
H582 C578 0.950 . S
C583 C581 1.390 . S
C583 C584 1.387 . S
C583 H586 0.950 . S
C584 C583 1.387 . S
C584 C587 1.387 . S
H585 C581 0.950 . S
H586 C583 0.950 . S
C587 C578 1.390 . S
C587 H580 0.950 . S
C587 C584 1.387 . S
C588 C589 1.387 . S
C588 H592 0.950 . S
C588 C597 1.390 . S
C589 C588 1.387 . S
C589 C591 1.387 . S
H590 C597 0.950 . S
C591 C589 1.387 . S
C591 C593 1.390 . S
C591 H595 0.950 . S
H592 C588 0.950 . S
C593 C591 1.390 . S
C593 C594 1.387 . S
C593 H596 0.950 . S
C594 C593 1.387 . S
C594 C597 1.387 . S
H595 C591 0.950 . S
H596 C593 0.950 . S
C597 C588 1.390 . S
C597 H590 0.950 . S
C597 C594 1.387 . S
C598 C599 1.387 . S
C598 H602 0.950 . S
C598 C607 1.390 . S
C599 C598 1.387 . S
C599 C601 1.387 . S
H600 C607 0.950 . S
C601 C599 1.387 . S
C601 C603 1.390 . S
C601 H605 0.950 . S
H602 C598 0.950 . S
C603 C601 1.390 . S
C603 C604 1.387 . S
C603 H606 0.950 . S
C604 C603 1.387 . S
C604 C607 1.387 . S
H605 C601 0.950 . S
H606 C603 0.950 . S
C607 C598 1.390 . S
C607 H600 0.950 . S
C607 C604 1.387 . S
C608 C609 1.387 . S
C608 H612 0.950 . S
C608 C617 1.390 1_455 S
C609 C608 1.387 . S
C609 C611 1.387 . S
H610 C617 0.950 . S
C611 C609 1.387 . S
C611 C613 1.390 1_455 S
C611 H615 0.950 . S
H612 C608 0.950 . S
C613 C611 1.390 1_655 S
C613 C614 1.387 . S
C613 H616 0.950 . S
C614 C613 1.387 . S
C614 C617 1.387 . S
H615 C611 0.950 . S
H616 C613 0.950 . S
C617 C608 1.390 1_655 S
C617 H610 0.950 . S
C617 C614 1.387 . S
C618 C619 1.387 . S
C618 H622 0.950 . S
C618 C627 1.390 . S
C619 C618 1.387 . S
C619 C621 1.387 . S
H620 C627 0.950 . S
C621 C619 1.387 . S
C621 C623 1.390 . S
C621 H625 0.950 . S
H622 C618 0.950 . S
C623 C621 1.390 . S
C623 C624 1.387 . S
C623 H626 0.950 . S
C624 C623 1.387 . S
C624 C627 1.387 . S
H625 C621 0.950 . S
H626 C623 0.950 . S
C627 C618 1.390 . S
C627 H620 0.950 . S
C627 C624 1.387 . S
C628 C629 1.387 . S
C628 H632 0.950 . S
C628 C637 1.390 . S
C629 C628 1.387 . S
C629 C631 1.387 . S
H630 C637 0.950 . S
C631 C629 1.387 . S
C631 C633 1.390 . S
C631 H635 0.950 . S
H632 C628 0.950 . S
C633 C631 1.390 . S
C633 C634 1.387 . S
C633 H636 0.950 . S
C634 C633 1.387 . S
C634 C637 1.387 . S
H635 C631 0.950 . S
H636 C633 0.950 . S
C637 C628 1.390 . S
C637 H630 0.950 . S
C637 C634 1.387 . S
C638 C639 1.387 . S
C638 H642 0.950 . S
C638 C647 1.390 . S
C639 C638 1.387 . S
C639 C641 1.387 . S
H640 C647 0.950 . S
C641 C639 1.387 . S
C641 C643 1.390 . S
C641 H645 0.950 . S
H642 C638 0.950 . S
C643 C641 1.390 . S
C643 C644 1.387 . S
C643 H646 0.950 . S
C644 C643 1.387 . S
C644 C647 1.387 . S
H645 C641 0.950 . S
H646 C643 0.950 . S
C647 C638 1.390 . S
C647 H640 0.950 . S
C647 C644 1.387 . S
C648 C649 1.387 . S
C648 H652 0.950 . S
C648 C657 1.390 1_655 S
C649 C648 1.387 . S
C649 C651 1.387 . S
H650 C657 0.950 . S
C651 C649 1.387 . S
C651 C653 1.390 1_655 S
C651 H655 0.950 . S
H652 C648 0.950 . S
C653 C651 1.390 1_455 S
C653 C654 1.387 . S
C653 H656 0.950 . S
C654 C653 1.387 . S
C654 C657 1.387 . S
H655 C651 0.950 . S
H656 C653 0.950 . S
C657 C648 1.390 1_455 S
C657 H650 0.950 . S
C657 C654 1.387 . S
C658 C659 1.387 . S
C658 H662 0.950 . S
C658 C667 1.390 . S
C659 C658 1.387 . S
C659 C661 1.387 . S
H660 C667 0.950 . S
C661 C659 1.387 . S
C661 C663 1.390 . S
C661 H665 0.950 . S
H662 C658 0.950 . S
C663 C661 1.390 . S
C663 C664 1.387 . S
C663 H666 0.950 . S
C664 C663 1.387 . S
C664 C667 1.387 . S
H665 C661 0.950 . S
H666 C663 0.950 . S
C667 C658 1.390 . S
C667 H660 0.950 . S
C667 C664 1.387 . S
C668 C669 1.387 . S
C668 H672 0.950 . S
C668 C677 1.390 . S
C669 C668 1.387 . S
C669 C671 1.387 . S
H670 C677 0.950 . S
C671 C669 1.387 . S
C671 C673 1.390 . S
C671 H675 0.950 . S
H672 C668 0.950 . S
C673 C671 1.390 . S
C673 C674 1.387 . S
C673 H676 0.950 . S
C674 C673 1.387 . S
C674 C677 1.387 . S
H675 C671 0.950 . S
H676 C673 0.950 . S
C677 C668 1.390 . S
C677 H670 0.950 . S
C677 C674 1.387 . S
C678 C679 1.387 . S
C678 H682 0.950 . S
C678 C687 1.390 . S
C679 C678 1.387 . S
C679 C681 1.387 . S
H680 C687 0.950 . S
C681 C679 1.387 . S
C681 C683 1.390 . S
C681 H685 0.950 . S
H682 C678 0.950 . S
C683 C681 1.390 . S
C683 C684 1.387 . S
C683 H686 0.950 . S
C684 C683 1.387 . S
C684 C687 1.387 . S
H685 C681 0.950 . S
H686 C683 0.950 . S
C687 C678 1.390 . S
C687 H680 0.950 . S
C687 C684 1.387 . S
C688 C689 1.387 . S
C688 H692 0.950 . S
C688 C697 1.390 . S
C689 C688 1.387 . S
C689 C691 1.387 . S
H690 C697 0.950 . S
C691 C689 1.387 . S
C691 C693 1.390 . S
C691 H695 0.950 . S
H692 C688 0.950 . S
C693 C691 1.390 . S
C693 C694 1.387 . S
C693 H696 0.950 . S
C694 C693 1.387 . S
C694 C697 1.387 . S
H695 C691 0.950 . S
H696 C693 0.950 . S
C697 C688 1.390 . S
C697 H690 0.950 . S
C697 C694 1.387 . S
C698 C699 1.387 . S
C698 H702 0.950 . S
C698 C707 1.390 . S
C699 C698 1.387 . S
C699 C701 1.387 . S
H700 C707 0.950 . S
C701 C699 1.387 . S
C701 C703 1.390 . S
C701 H705 0.950 . S
H702 C698 0.950 . S
C703 C701 1.390 . S
C703 C704 1.387 . S
C703 H706 0.950 . S
C704 C703 1.387 . S
C704 C707 1.387 . S
H705 C701 0.950 . S
H706 C703 0.950 . S
C707 C698 1.390 . S
C707 H700 0.950 . S
C707 C704 1.387 . S
C708 C709 1.387 . S
C708 H712 0.950 . S
C708 C717 1.390 . S
C709 C708 1.387 . S
C709 C711 1.387 . S
H710 C717 0.950 . S
C711 C709 1.387 . S
C711 C713 1.390 . S
C711 H715 0.950 . S
H712 C708 0.950 . S
C713 C711 1.390 . S
C713 C714 1.387 . S
C713 H716 0.950 . S
C714 C713 1.387 . S
C714 C717 1.387 . S
H715 C711 0.950 . S
H716 C713 0.950 . S
C717 C708 1.390 . S
C717 H710 0.950 . S
C717 C714 1.387 . S
C718 C719 1.387 . S
C718 H722 0.950 . S
C718 C727 1.390 . S
C719 C718 1.387 . S
C719 C721 1.387 . S
H720 C727 0.950 . S
C721 C719 1.387 . S
C721 C723 1.390 . S
C721 H725 0.950 . S
H722 C718 0.950 . S
C723 C721 1.390 . S
C723 C724 1.387 . S
C723 H726 0.950 . S
C724 C723 1.387 . S
C724 C727 1.387 . S
H725 C721 0.950 . S
H726 C723 0.950 . S
C727 C718 1.390 . S
C727 H720 0.950 . S
C727 C724 1.387 . S
C728 C729 1.387 . S
C728 H732 0.950 . S
C728 C737 1.390 . S
C729 C728 1.387 . S
C729 C731 1.387 . S
H730 C737 0.950 . S
C731 C729 1.387 . S
C731 C733 1.390 . S
C731 H735 0.950 . S
H732 C728 0.950 . S
C733 C731 1.390 . S
C733 C734 1.387 . S
C733 H736 0.950 . S
C734 C733 1.387 . S
C734 C737 1.387 . S
H735 C731 0.950 . S
H736 C733 0.950 . S
C737 C728 1.390 . S
C737 H730 0.950 . S
C737 C734 1.387 . S
C738 C739 1.387 . S
C738 H742 0.950 . S
C738 C747 1.390 1_655 S
C739 C738 1.387 . S
C739 C741 1.387 . S
H740 C747 0.950 . S
C741 C739 1.387 . S
C741 C743 1.390 1_655 S
C741 H745 0.950 . S
H742 C738 0.950 . S
C743 C741 1.390 1_455 S
C743 C744 1.387 . S
C743 H746 0.950 . S
C744 C743 1.387 . S
C744 C747 1.387 . S
H745 C741 0.950 . S
H746 C743 0.950 . S
C747 C738 1.390 1_455 S
C747 H740 0.950 . S
C747 C744 1.387 . S
C748 C749 1.387 . S
C748 H752 0.950 . S
C748 C757 1.390 . S
C749 C748 1.387 . S
C749 C751 1.387 . S
H750 C757 0.950 . S
C751 C749 1.387 . S
C751 C753 1.390 . S
C751 H755 0.950 . S
H752 C748 0.950 . S
C753 C751 1.390 . S
C753 C754 1.387 . S
C753 H756 0.950 . S
C754 C753 1.387 . S
C754 C757 1.387 . S
H755 C751 0.950 . S
H756 C753 0.950 . S
C757 C748 1.390 . S
C757 H750 0.950 . S
C757 C754 1.387 . S
C758 C759 1.387 . S
C758 H762 0.950 . S
C758 C767 1.390 1_455 S
C759 C758 1.387 . S
C759 C761 1.387 . S
H760 C767 0.950 . S
C761 C759 1.387 . S
C761 C763 1.390 1_455 S
C761 H765 0.950 . S
H762 C758 0.950 . S
C763 C761 1.390 1_655 S
C763 C764 1.387 . S
C763 H766 0.950 . S
C764 C763 1.387 . S
C764 C767 1.387 . S
H765 C761 0.950 . S
H766 C763 0.950 . S
C767 C758 1.390 1_655 S
C767 H760 0.950 . S
C767 C764 1.387 . S
C768 C769 1.390 . S
C768 H772 0.953 . S
C768 C777 1.386 1_556 S
C769 C768 1.390 . S
C769 C771 1.390 . S
H770 C777 0.953 . S
C771 C769 1.390 . S
C771 C773 1.386 1_556 S
C771 H775 0.953 . S
H772 C768 0.953 . S
C773 C771 1.386 1_554 S
C773 C774 1.390 . S
C773 H776 0.953 . S
C774 C773 1.390 . S
C774 C777 1.390 . S
H775 C771 0.953 . S
H776 C773 0.953 . S
C777 C768 1.386 1_554 S
C777 H770 0.953 . S
C777 C774 1.390 . S
C778 C779 1.387 . S
C778 H782 0.950 . S
C778 C787 1.390 . S
C779 C778 1.387 . S
C779 C781 1.387 . S
H780 C787 0.950 . S
C781 C779 1.387 . S
C781 C783 1.390 . S
C781 H785 0.950 . S
H782 C778 0.950 . S
C783 C781 1.390 . S
C783 C784 1.387 . S
C783 H786 0.950 . S
C784 C783 1.387 . S
C784 C787 1.387 . S
H785 C781 0.950 . S
H786 C783 0.950 . S
C787 C778 1.390 . S
C787 H780 0.950 . S
C787 C784 1.387 . S
C788 C789 1.387 . S
C788 H792 0.950 . S
C788 C797 1.390 . S
C789 C788 1.387 . S
C789 C791 1.387 . S
H790 C797 0.950 . S
C791 C789 1.387 . S
C791 C793 1.390 . S
C791 H795 0.950 . S
H792 C788 0.950 . S
C793 C791 1.390 . S
C793 C794 1.387 . S
C793 H796 0.950 . S
C794 C793 1.387 . S
C794 C797 1.387 . S
H795 C791 0.950 . S
H796 C793 0.950 . S
C797 C788 1.390 . S
C797 H790 0.950 . S
C797 C794 1.387 . S
C798 C799 1.387 . S
C798 H802 0.950 . S
C798 C807 1.390 . S
C799 C798 1.387 . S
C799 C801 1.387 . S
H800 C807 0.950 . S
C801 C799 1.387 . S
C801 C803 1.390 . S
C801 H805 0.950 . S
H802 C798 0.950 . S
C803 C801 1.390 . S
C803 C804 1.387 . S
C803 H806 0.950 . S
C804 C803 1.387 . S
C804 C807 1.387 . S
H805 C801 0.950 . S
H806 C803 0.950 . S
C807 C798 1.390 . S
C807 H800 0.950 . S
C807 C804 1.387 . S
C808 C809 1.389 . S
C808 H812 0.952 . S
C808 C817 1.387 1_554 S
C809 C808 1.389 . S
C809 C811 1.389 . S
H810 C817 0.952 . S
C811 C809 1.389 . S
C811 C813 1.387 1_554 S
C811 H815 0.952 . S
H812 C808 0.952 . S
C813 C811 1.387 1_556 S
C813 C814 1.389 . S
C813 H816 0.952 . S
C814 C813 1.389 . S
C814 C817 1.389 . S
H815 C811 0.952 . S
H816 C813 0.952 . S
C817 C808 1.387 1_556 S
C817 H810 0.952 . S
C817 C814 1.389 . S
C818 C819 1.387 . S
C818 H822 0.950 . S
C818 C827 1.390 . S
C819 C818 1.387 . S
C819 C821 1.387 . S
H820 C827 0.950 . S
C821 C819 1.387 . S
C821 C823 1.390 . S
C821 H825 0.950 . S
H822 C818 0.950 . S
C823 C821 1.390 . S
C823 C824 1.387 . S
C823 H826 0.950 . S
C824 C823 1.387 . S
C824 C827 1.387 . S
H825 C821 0.950 . S
H826 C823 0.950 . S
C827 C818 1.390 . S
C827 H820 0.950 . S
C827 C824 1.387 . S
C828 C829 1.387 . S
C828 H832 0.950 . S
C828 C837 1.390 . S
C829 C828 1.387 . S
C829 C831 1.387 . S
H830 C837 0.950 . S
C831 C829 1.387 . S
C831 C833 1.390 . S
C831 H835 0.950 . S
H832 C828 0.950 . S
C833 C831 1.390 . S
C833 C834 1.387 . S
C833 H836 0.950 . S
C834 C833 1.387 . S
C834 C837 1.387 . S
H835 C831 0.950 . S
H836 C833 0.950 . S
C837 C828 1.390 . S
C837 H830 0.950 . S
C837 C834 1.387 . S
C838 C839 1.387 . S
C838 H842 0.950 . S
C838 C847 1.390 . S
C839 C838 1.387 . S
C839 C841 1.387 . S
H840 C847 0.950 . S
C841 C839 1.387 . S
C841 C843 1.390 . S
C841 H845 0.950 . S
H842 C838 0.950 . S
C843 C841 1.390 . S
C843 C844 1.387 . S
C843 H846 0.950 . S
C844 C843 1.387 . S
C844 C847 1.387 . S
H845 C841 0.950 . S
H846 C843 0.950 . S
C847 C838 1.390 . S
C847 H840 0.950 . S
C847 C844 1.387 . S
C848 C849 1.387 . S
C848 H852 0.950 . S
C848 C857 1.390 1_545 S
C849 C848 1.387 . S
C849 C851 1.387 . S
H850 C857 0.950 . S
C851 C849 1.387 . S
C851 C853 1.390 1_545 S
C851 H855 0.950 . S
H852 C848 0.950 . S
C853 C851 1.390 1_565 S
C853 C854 1.387 . S
C853 H856 0.950 . S
C854 C853 1.387 . S
C854 C857 1.387 . S
H855 C851 0.950 . S
H856 C853 0.950 . S
C857 C848 1.390 1_565 S
C857 H850 0.950 . S
C857 C854 1.387 . S
C858 C859 1.387 . S
C858 H862 0.950 . S
C858 C867 1.390 . S
C859 C858 1.387 . S
C859 C861 1.387 . S
H860 C867 0.950 . S
C861 C859 1.387 . S
C861 C863 1.390 . S
C861 H865 0.950 . S
H862 C858 0.950 . S
C863 C861 1.390 . S
C863 C864 1.387 . S
C863 H866 0.950 . S
C864 C863 1.387 . S
C864 C867 1.387 . S
H865 C861 0.950 . S
H866 C863 0.950 . S
C867 C858 1.390 . S
C867 H860 0.950 . S
C867 C864 1.387 . S
C868 C869 1.390 . S
C868 H872 0.953 . S
C868 C877 1.386 1_564 S
C869 C868 1.390 . S
C869 C871 1.390 . S
H870 C877 0.953 . S
C871 C869 1.390 . S
C871 C873 1.386 1_564 S
C871 H875 0.953 . S
H872 C868 0.953 . S
C873 C871 1.386 1_546 S
C873 C874 1.390 . S
C873 H876 0.953 . S
C874 C873 1.390 . S
C874 C877 1.390 . S
H875 C871 0.953 . S
H876 C873 0.953 . S
C877 C868 1.386 1_546 S
C877 H870 0.953 . S
C877 C874 1.390 . S
C878 C879 1.387 . S
C878 H882 0.950 . S
C878 C887 1.390 . S
C879 C878 1.387 . S
C879 C881 1.387 . S
H880 C887 0.950 . S
C881 C879 1.387 . S
C881 C883 1.390 . S
C881 H885 0.950 . S
H882 C878 0.950 . S
C883 C881 1.390 . S
C883 C884 1.387 . S
C883 H886 0.950 . S
C884 C883 1.387 . S
C884 C887 1.387 . S
H885 C881 0.950 . S
H886 C883 0.950 . S
C887 C878 1.390 . S
C887 H880 0.950 . S
C887 C884 1.387 . S
C888 C889 1.387 . S
C888 H892 0.950 . S
C888 C897 1.390 1_545 S
C889 C888 1.387 . S
C889 C891 1.387 . S
H890 C897 0.950 . S
C891 C889 1.387 . S
C891 C893 1.390 1_545 S
C891 H895 0.950 . S
H892 C888 0.950 . S
C893 C891 1.390 1_565 S
C893 C894 1.387 . S
C893 H896 0.950 . S
C894 C893 1.387 . S
C894 C897 1.387 . S
H895 C891 0.950 . S
H896 C893 0.950 . S
C897 C888 1.390 1_565 S
C897 H890 0.950 . S
C897 C894 1.387 . S
C898 C899 1.387 . S
C898 H902 0.950 . S
C898 C907 1.390 . S
C899 C898 1.387 . S
C899 C901 1.387 . S
H900 C907 0.950 . S
C901 C899 1.387 . S
C901 C903 1.390 . S
C901 H905 0.950 . S
H902 C898 0.950 . S
C903 C901 1.390 . S
C903 C904 1.387 . S
C903 H906 0.950 . S
C904 C903 1.387 . S
C904 C907 1.387 . S
H905 C901 0.950 . S
H906 C903 0.950 . S
C907 C898 1.390 . S
C907 H900 0.950 . S
C907 C904 1.387 . S
C908 C909 1.390 . S
C908 H912 0.953 . S
C908 C917 1.386 1_564 S
C909 C908 1.390 . S
C909 C911 1.390 . S
H910 C917 0.953 . S
C911 C909 1.390 . S
C911 C913 1.386 1_564 S
C911 H915 0.953 . S
H912 C908 0.953 . S
C913 C911 1.386 1_546 S
C913 C914 1.390 . S
C913 H916 0.953 . S
C914 C913 1.390 . S
C914 C917 1.390 . S
H915 C911 0.953 . S
H916 C913 0.953 . S
C917 C908 1.386 1_546 S
C917 H910 0.953 . S
C917 C914 1.390 . S
C918 C919 1.387 . S
C918 H922 0.950 . S
C918 C927 1.390 . S
C919 C918 1.387 . S
C919 C921 1.387 . S
H920 C927 0.950 . S
C921 C919 1.387 . S
C921 C923 1.390 . S
C921 H925 0.950 . S
H922 C918 0.950 . S
C923 C921 1.390 . S
C923 C924 1.387 . S
C923 H926 0.950 . S
C924 C923 1.387 . S
C924 C927 1.387 . S
H925 C921 0.950 . S
H926 C923 0.950 . S
C927 C918 1.390 . S
C927 H920 0.950 . S
C927 C924 1.387 . S
C928 C929 1.387 . S
C928 H932 0.950 . S
C928 C937 1.390 . S
C929 C928 1.387 . S
C929 C931 1.387 1_554 S
H930 C937 0.950 . S
C931 C929 1.387 1_556 S
C931 C933 1.390 . S
C931 H935 0.950 . S
H932 C928 0.950 . S
C933 C931 1.390 . S
C933 C934 1.387 1_556 S
C933 H936 0.950 . S
C934 C933 1.387 1_554 S
C934 C937 1.387 . S
H935 C931 0.950 . S
H936 C933 0.950 . S
C937 C928 1.390 . S
C937 H930 0.950 . S
C937 C934 1.387 . S
C938 C939 1.387 . S
C938 H942 0.950 . S
C938 C947 1.390 . S
C939 C938 1.387 . S
C939 C941 1.387 . S
H940 C947 0.950 . S
C941 C939 1.387 . S
C941 C943 1.390 . S
C941 H945 0.950 . S
H942 C938 0.950 . S
C943 C941 1.390 . S
C943 C944 1.387 . S
C943 H946 0.950 . S
C944 C943 1.387 . S
C944 C947 1.387 . S
H945 C941 0.950 . S
H946 C943 0.950 . S
C947 C938 1.390 . S
C947 H940 0.950 . S
C947 C944 1.387 . S
C948 C949 1.387 . S
C948 H952 0.950 . S
C948 C957 1.390 . S
C949 C948 1.387 . S
C949 C951 1.387 . S
H950 C957 0.950 . S
C951 C949 1.387 . S
C951 C953 1.390 . S
C951 H955 0.950 . S
H952 C948 0.950 . S
C953 C951 1.390 . S
C953 C954 1.387 . S
C953 H956 0.950 . S
C954 C953 1.387 . S
C954 C957 1.387 . S
H955 C951 0.950 . S
H956 C953 0.950 . S
C957 C948 1.390 . S
C957 H950 0.950 . S
C957 C954 1.387 . S
C958 C959 1.387 . S
C958 H962 0.950 . S
C958 C967 1.390 1_655 S
C959 C958 1.387 . S
C959 C961 1.387 . S
H960 C967 0.950 . S
C961 C959 1.387 . S
C961 C963 1.390 1_655 S
C961 H965 0.950 . S
H962 C958 0.950 . S
C963 C961 1.390 1_455 S
C963 C964 1.387 . S
C963 H966 0.950 . S
C964 C963 1.387 . S
C964 C967 1.387 . S
H965 C961 0.950 . S
H966 C963 0.950 . S
C967 C958 1.390 1_455 S
C967 H960 0.950 . S
C967 C964 1.387 . S
C968 C969 1.387 . S
C968 H972 0.950 . S
C968 C977 1.390 . S
C969 C968 1.387 . S
C969 C971 1.387 . S
H970 C977 0.950 . S
C971 C969 1.387 . S
C971 C973 1.390 . S
C971 H975 0.950 . S
H972 C968 0.950 . S
C973 C971 1.390 . S
C973 C974 1.387 . S
C973 H976 0.950 . S
C974 C973 1.387 . S
C974 C977 1.387 . S
H975 C971 0.950 . S
H976 C973 0.950 . S
C977 C968 1.390 . S
C977 H970 0.950 . S
C977 C974 1.387 . S
C978 C979 1.387 . S
C978 H982 0.950 . S
C978 C987 1.390 1_655 S
C979 C978 1.387 . S
C979 C981 1.387 . S
H980 C987 0.950 . S
C981 C979 1.387 . S
C981 C983 1.390 1_655 S
C981 H985 0.950 . S
H982 C978 0.950 . S
C983 C981 1.390 1_455 S
C983 C984 1.387 . S
C983 H986 0.950 . S
C984 C983 1.387 . S
C984 C987 1.387 . S
H985 C981 0.950 . S
H986 C983 0.950 . S
C987 C978 1.390 1_455 S
C987 H980 0.950 . S
C987 C984 1.387 . S
C988 C989 1.387 . S
C988 H992 0.950 . S
C988 C997 1.390 . S
C989 C988 1.387 . S
C989 C991 1.387 . S
H990 C997 0.950 . S
C991 C989 1.387 . S
C991 C993 1.390 . S
C991 H995 0.950 . S
H992 C988 0.950 . S
C993 C991 1.390 . S
C993 C994 1.387 . S
C993 H996 0.950 . S
C994 C993 1.387 . S
C994 C997 1.387 . S
H995 C991 0.950 . S
H996 C993 0.950 . S
C997 C988 1.390 . S
C997 H990 0.950 . S
C997 C994 1.387 . S
C998 C999 1.387 . S
C998 H1002 0.950 . S
C998 C1007 1.390 . S
C999 C998 1.387 . S
C999 C1001 1.387 . S
H1000 C1007 0.950 . S
C1001 C999 1.387 . S
C1001 C1003 1.390 . S
C1001 H1005 0.950 . S
H1002 C998 0.950 . S
C1003 C1001 1.390 . S
C1003 C1004 1.387 . S
C1003 H1006 0.950 . S
C1004 C1003 1.387 . S
C1004 C1007 1.387 . S
H1005 C1001 0.950 . S
H1006 C1003 0.950 . S
C1007 C998 1.390 . S
C1007 H1000 0.950 . S
C1007 C1004 1.387 . S
C1008 C1009 1.387 . S
C1008 H1012 0.950 . S
C1008 C1017 1.390 . S
C1009 C1008 1.387 . S
C1009 C1011 1.387 1_556 S
H1010 C1017 0.950 . S
C1011 C1009 1.387 1_554 S
C1011 C1013 1.390 . S
C1011 H1015 0.950 . S
H1012 C1008 0.950 . S
C1013 C1011 1.390 . S
C1013 C1014 1.387 1_554 S
C1013 H1016 0.950 . S
C1014 C1013 1.387 1_556 S
C1014 C1017 1.387 . S
H1015 C1011 0.950 . S
H1016 C1013 0.950 . S
C1017 C1008 1.390 . S
C1017 H1010 0.950 . S
C1017 C1014 1.387 . S
C1018 C1019 1.387 . S
C1018 H1022 0.950 . S
C1018 C1027 1.390 . S
C1019 C1018 1.387 . S
C1019 C1021 1.387 . S
H1020 C1027 0.950 . S
C1021 C1019 1.387 . S
C1021 C1023 1.390 . S
C1021 H1025 0.950 . S
H1022 C1018 0.950 . S
C1023 C1021 1.390 . S
C1023 C1024 1.387 . S
C1023 H1026 0.950 . S
C1024 C1023 1.387 . S
C1024 C1027 1.387 . S
H1025 C1021 0.950 . S
H1026 C1023 0.950 . S
C1027 C1018 1.390 . S
C1027 H1020 0.950 . S
C1027 C1024 1.387 . S
C1028 C1029 1.387 . S
C1028 H1032 0.950 . S
C1028 C1037 1.390 . S
C1029 C1028 1.387 . S
C1029 C1031 1.387 . S
H1030 C1037 0.950 . S
C1031 C1029 1.387 . S
C1031 C1033 1.390 . S
C1031 H1035 0.950 . S
H1032 C1028 0.950 . S
C1033 C1031 1.390 . S
C1033 C1034 1.387 . S
C1033 H1036 0.950 . S
C1034 C1033 1.387 . S
C1034 C1037 1.387 . S
H1035 C1031 0.950 . S
H1036 C1033 0.950 . S
C1037 C1028 1.390 . S
C1037 H1030 0.950 . S
C1037 C1034 1.387 . S
C1038 C1039 1.387 . S
C1038 H1042 0.950 . S
C1038 C1047 1.390 . S
C1039 C1038 1.387 . S
C1039 C1041 1.387 . S
H1040 C1047 0.950 . S
C1041 C1039 1.387 . S
C1041 C1043 1.390 . S
C1041 H1045 0.950 . S
H1042 C1038 0.950 . S
C1043 C1041 1.390 . S
C1043 C1044 1.387 . S
C1043 H1046 0.950 . S
C1044 C1043 1.387 . S
C1044 C1047 1.387 . S
H1045 C1041 0.950 . S
H1046 C1043 0.950 . S
C1047 C1038 1.390 . S
C1047 H1040 0.950 . S
C1047 C1044 1.387 . S
C1048 C1049 1.387 . S
C1048 H1052 0.950 . S
C1048 C1057 1.390 1_655 S
C1049 C1048 1.387 . S
C1049 C1051 1.387 . S
H1050 C1057 0.950 . S
C1051 C1049 1.387 . S
C1051 C1053 1.390 1_655 S
C1051 H1055 0.950 . S
H1052 C1048 0.950 . S
C1053 C1051 1.390 1_455 S
C1053 C1054 1.387 . S
C1053 H1056 0.950 . S
C1054 C1053 1.387 . S
C1054 C1057 1.387 . S
H1055 C1051 0.950 . S
H1056 C1053 0.950 . S
C1057 C1048 1.390 1_455 S
C1057 H1050 0.950 . S
C1057 C1054 1.387 . S
C1058 C1059 1.387 . S
C1058 H1062 0.950 . S
C1058 C1067 1.390 . S
C1059 C1058 1.387 . S
C1059 C1061 1.387 . S
H1060 C1067 0.950 . S
C1061 C1059 1.387 . S
C1061 C1063 1.390 . S
C1061 H1065 0.950 . S
H1062 C1058 0.950 . S
C1063 C1061 1.390 . S
C1063 C1064 1.387 . S
C1063 H1066 0.950 . S
C1064 C1063 1.387 . S
C1064 C1067 1.387 . S
H1065 C1061 0.950 . S
H1066 C1063 0.950 . S
C1067 C1058 1.390 . S
C1067 H1060 0.950 . S
C1067 C1064 1.387 . S
C1068 C1069 1.387 . S
C1068 H1072 0.950 . S
C1068 C1077 1.390 . S
C1069 C1068 1.387 . S
C1069 C1071 1.387 . S
H1070 C1077 0.950 . S
C1071 C1069 1.387 . S
C1071 C1073 1.390 . S
C1071 H1075 0.950 . S
H1072 C1068 0.950 . S
C1073 C1071 1.390 . S
C1073 C1074 1.387 . S
C1073 H1076 0.950 . S
C1074 C1073 1.387 . S
C1074 C1077 1.387 . S
H1075 C1071 0.950 . S
H1076 C1073 0.950 . S
C1077 C1068 1.390 . S
C1077 H1070 0.950 . S
C1077 C1074 1.387 . S
C1078 C1079 1.387 . S
C1078 H1082 0.950 . S
C1078 C1087 1.390 1_655 S
C1079 C1078 1.387 . S
C1079 C1081 1.387 . S
H1080 C1087 0.950 . S
C1081 C1079 1.387 . S
C1081 C1083 1.390 1_655 S
C1081 H1085 0.950 . S
H1082 C1078 0.950 . S
C1083 C1081 1.390 1_455 S
C1083 C1084 1.387 . S
C1083 H1086 0.950 . S
C1084 C1083 1.387 . S
C1084 C1087 1.387 . S
H1085 C1081 0.950 . S
H1086 C1083 0.950 . S
C1087 C1078 1.390 1_455 S
C1087 H1080 0.950 . S
C1087 C1084 1.387 . S
C449 C322 1.703 . S
C454 C0 1.703 . S
C459 C280 1.702 . S
C464 C14 1.703 . S
C469 C294 1.701 . S
C474 C28 1.701 . S
C479 C308 1.700 . S
C484 C42 1.702 . S
C489 C56 1.702 . S
C494 C238 1.700 . S
C499 C252 1.701 . S
C504 C70 1.701 . S
C509 C84 1.701 . S
C514 C266 1.701 . S
C519 C98 1.701 . S
C524 C224 1.703 . S
C529 C434 1.702 . S
C534 C112 1.700 . S
C539 C126 1.703 . S
C544 C392 1.701 . S
C549 C140 1.703 . S
C554 C406 1.701 . S
C559 C154 1.702 . S
C564 C420 1.703 . S
C569 C168 1.700 . S
C574 C350 1.701 . S
C579 C182 1.702 . S
C584 C364 1.700 . S
C589 C196 1.703 . S
C594 C378 1.702 . S
C599 C210 1.701 . S
C604 C336 1.703 . S
C609 C9 1.407 . S
C614 C177 1.406 . S
C619 C415 1.407 . S
C624 C23 1.406 . S
C629 C37 1.407 . S
C634 C205 1.406 . S
C639 C443 1.407 . S
C644 C51 1.406 . S
C649 C121 1.407 . S
C654 C65 1.406 . S
C659 C79 1.406 . S
C664 C359 1.407 . S
C669 C93 1.406 . S
C674 C149 1.407 . S
C679 C107 1.406 . S
C684 C387 1.407 . S
C689 C303 1.407 . S
C694 C135 1.406 . S
C699 C331 1.407 . S
C704 C163 1.406 . S
C709 C191 1.406 . S
C714 C247 1.407 . S
C719 C275 1.407 . S
C724 C219 1.406 . S
C729 C401 1.407 . S
C734 C233 1.407 . S
C739 C261 1.406 . S
C744 C429 1.407 . S
C749 C345 1.406 . S
C754 C289 1.407 . S
C759 C373 1.406 . S
C764 C317 1.407 . S
C769 C67 1.390 . S
C774 C11 1.390 . S
C779 C81 1.390 . S
C784 C25 1.390 . S
C789 C39 1.390 . S
C794 C95 1.390 . S
C799 C53 1.390 . S
C804 C109 1.390 . S
C809 C179 1.391 . S
C814 C123 1.391 . S
C819 C193 1.391 . S
C824 C137 1.391 . S
C829 C207 1.390 . S
C834 C151 1.390 . S
C839 C165 1.391 . S
C844 C221 1.391 . S
C849 C235 1.390 . S
C854 C291 1.390 . S
C859 C249 1.391 . S
C864 C305 1.391 . S
C869 C263 1.390 . S
C874 C319 1.390 . S
C879 C277 1.390 . S
C884 C333 1.390 . S
C889 C403 1.390 . S
C894 C347 1.390 . S
C899 C417 1.391 . S
C904 C361 1.391 . S
C909 C431 1.390 . S
C914 C375 1.390 . S
C919 C445 1.390 . S
C924 C389 1.390 . S
C929 C425 1.567 . S
C934 C5 1.565 . S
C939 C19 1.565 . S
C944 C215 1.567 . S
C949 C397 1.567 . S
C954 C33 1.565 . S
C959 C47 1.567 . S
C964 C187 1.565 . S
C969 C369 1.566 . S
C974 C61 1.566 . S
C979 C75 1.565 . S
C984 C159 1.567 . S
C989 C89 1.567 . S
C994 C341 1.565 . S
C999 C131 1.567 . S
C1004 C103 1.565 . S
C1009 C117 1.567 . S
C1014 C313 1.565 . S
C1019 C285 1.565 . S
C1024 C145 1.567 . S
C1029 C173 1.565 . S
C1034 C257 1.567 . S
C1039 C201 1.565 . S
C1044 C229 1.567 . S
C1049 C439 1.565 . S
C1054 C243 1.567 . S
C1059 C271 1.565 . S
C1064 C411 1.567 . S
C1069 C299 1.565 . S
C1074 C383 1.567 . S
C1079 C355 1.567 . S
C1084 C327 1.565 . S
