# Generated by pormake.
# Topology nia-e, (7)-cn, num edge types: 1
# Building blocks:
#     Node 0, Type 0, BuildingBlock: OLANEW_clean_sbu_0, # of connection points: 7
#     Node 1, Type 0, BuildingBlock: OLANEW_clean_sbu_0, # of connection points: 7
#     Node 2, Type 0, BuildingBlock: OLANEW_clean_sbu_0, # of connection points: 7
#     Node 3, Type 0, BuildingBlock: OLANEW_clean_sbu_0, # of connection points: 7
#     Node 4, Type 0, BuildingBlock: OLANEW_clean_sbu_0, # of connection points: 7
#     Node 5, Type 0, BuildingBlock: OLANEW_clean_sbu_0, # of connection points: 7
#     Node 6, Type 0, BuildingBlock: OLANEW_clean_sbu_0, # of connection points: 7
#     Node 7, Type 0, BuildingBlock: OLANEW_clean_sbu_0, # of connection points: 7
#     Node 8, Type 0, BuildingBlock: OLANEW_clean_sbu_0, # of connection points: 7
#     Node 9, Type 0, BuildingBlock: OLANEW_clean_sbu_0, # of connection points: 7
#     Node 10, Type 0, BuildingBlock: OLANEW_clean_sbu_0, # of connection points: 7
#     Node 11, Type 0, BuildingBlock: OLANEW_clean_sbu_0, # of connection points: 7
#     Edge 12, Type (0, 0), None
#     Edge 13, Type (0, 0), None
#     Edge 14, Type (0, 0), None
#     Edge 15, Type (0, 0), None
#     Edge 16, Type (0, 0), None
#     Edge 17, Type (0, 0), None
#     Edge 18, Type (0, 0), None
#     Edge 19, Type (0, 0), None
#     Edge 20, Type (0, 0), None
#     Edge 21, Type (0, 0), None
#     Edge 22, Type (0, 0), None
#     Edge 23, Type (0, 0), None
#     Edge 24, Type (0, 0), None
#     Edge 25, Type (0, 0), None
#     Edge 26, Type (0, 0), None
#     Edge 27, Type (0, 0), None
#     Edge 28, Type (0, 0), None
#     Edge 29, Type (0, 0), None
#     Edge 30, Type (0, 0), None
#     Edge 31, Type (0, 0), None
#     Edge 32, Type (0, 0), None
#     Edge 33, Type (0, 0), None
#     Edge 34, Type (0, 0), None
#     Edge 35, Type (0, 0), None
#     Edge 36, Type (0, 0), None
#     Edge 37, Type (0, 0), None
#     Edge 38, Type (0, 0), None
#     Edge 39, Type (0, 0), None
#     Edge 40, Type (0, 0), None
#     Edge 41, Type (0, 0), None
#     Edge 42, Type (0, 0), None
#     Edge 43, Type (0, 0), None
#     Edge 44, Type (0, 0), None
#     Edge 45, Type (0, 0), None
#     Edge 46, Type (0, 0), None
#     Edge 47, Type (0, 0), None
#     Edge 48, Type (0, 0), None
#     Edge 49, Type (0, 0), None
#     Edge 50, Type (0, 0), None
#     Edge 51, Type (0, 0), None
#     Edge 52, Type (0, 0), None
#     Edge 53, Type (0, 0), None
# Relax obj value: 0.214
# Max RMSD: 0.287
# Mean RMSD: 0.287
data_MOF--net-nia-e--node1-OLANEW_clean_sbu_0--edge1-none
_symmetry_space_group_name_H-M    P1
_symmetry_Int_Tables_number       1
_symmetry_cell_setting            triclinic
loop_
_symmetry_equiv_pos_as_xyz
'x, y, z'
_cell_length_a     27.995877
_cell_length_b     27.995903
_cell_length_c     36.180936
_cell_angle_alpha  90.000045
_cell_angle_beta   90.000064
_cell_angle_gamma 120.00075
loop_
_atom_site_label
_atom_site_type_symbol
_atom_site_fract_x
_atom_site_fract_y
_atom_site_fract_z
_atom_type_partial_charge
Cd0 Cd 0.11954 0.1788 0.10052 0.0
C1 C 1.01118 0.11482 0.13465 0.0
C2 C 0.20427 0.46856 0.04451 0.0
O3 O 0.19079 0.4868 0.01508 0.0
Cd4 Cd 0.07874 0.11769 0.21002 0.0
C5 C 0.26063 0.47861 0.04984 0.0
C6 C 0.36096 0.48934 0.07283 0.0
C7 C 0.31397 0.46469 0.09531 0.0
N8 N 0.26753 0.46092 0.08247 0.0
C9 C 0.30567 0.50327 0.02567 0.0
C10 C 0.35634 0.50873 0.03761 0.0
Co11 Co 0.2072 0.42771 0.11282 0.0
C12 C 0.30768 0.44198 0.13285 0.0
O13 O 0.34786 0.4391 0.1496 0.0
C14 C 0.24022 0.38521 0.1801 0.0
C15 C 0.23522 0.33355 0.175 0.0
C16 C 0.21537 0.29448 0.20315 0.0
C17 C 0.20731 0.31008 0.23837 0.0
C18 C 0.20576 0.35917 0.24375 0.0
C19 C 0.22494 0.39832 0.21462 0.0
C20 C 0.18557 0.23539 0.19328 0.0
C21 C 0.1087 0.42027 0.06834 0.0
C22 C 0.08171 0.39716 0.03436 0.0
C23 C 0.07864 0.42839 0.09613 0.0
C24 C 0.02273 0.41048 0.09152 0.0
C25 C 0.99615 0.38633 0.05842 0.0
C26 C 0.02589 0.3817 0.02873 0.0
N27 N 0.16744 0.44093 0.07257 0.0
N28 N 0.25636 0.42107 0.14835 0.0
N29 N 0.18259 0.35371 0.09268 0.0
C30 C 0.1902 0.3427 0.05479 0.0
C31 C 0.14522 0.32005 0.03023 0.0
C32 C 0.24208 0.35447 0.04187 0.0
C33 C 0.15174 0.30988 0.9931 0.0
H34 H 0.10493 0.31044 0.0402 0.0
C35 C 0.2045 0.32383 0.98036 0.0
C36 C 0.25001 0.34708 1.00437 0.0
C37 C 0.10378 0.2856 0.9675 0.0
H38 H 0.27621 0.36919 0.06097 0.0
H39 H 0.21041 0.31761 0.95154 0.0
C40 C 0.30596 0.36535 0.98986 0.0
O41 O 0.11003 0.27409 0.93216 0.0
O42 O 0.05832 0.27578 0.97821 0.0
O43 O 0.34652 0.39906 1.00701 0.0
O44 O 0.3125 0.34574 0.95727 0.0
H45 H 0.07931 0.25813 0.91507 0.0
H46 H 0.34873 0.35728 0.94724 0.0
N47 N 0.14781 0.3934 0.14382 0.0
C48 C 0.14459 0.42531 0.17005 0.0
C49 C 0.10509 0.39984 0.19792 0.0
C50 C 0.07236 0.34155 0.1975 0.0
C51 C 0.08002 0.30998 0.17 0.0
C52 C 0.12018 0.33811 0.14297 0.0
N53 N 0.22324 0.49667 0.13735 0.0
C54 C 0.18632 0.48456 0.1656 0.0
O55 O 0.1869 0.52309 0.18667 0.0
C56 C 0.13877 0.3149 0.113 0.0
O57 O 0.19118 0.20786 0.04846 0.0
O58 O 0.10989 0.13754 0.04051 0.0
C59 C 0.25955 0.55162 0.12326 0.0
C60 C 0.31602 0.57023 0.11536 0.0
C61 C 0.34063 0.60576 0.08467 0.0
C62 C 0.30237 0.61147 0.06241 0.0
C63 C 0.2674 0.62445 0.08263 0.0
C64 C 0.23858 0.58599 0.1111 0.0
O65 O 0.01639 0.12573 0.10054 0.0
O66 O 0.05313 0.14318 0.15451 0.0
O67 O 0.1666 0.22209 0.16041 0.0
O68 O 0.1646 0.20041 0.21935 0.0
O69 O 0.10705 0.26221 0.10061 0.0
C70 C 0.11634 0.05734 0.14906 0.0
O71 O 0.10297 0.05567 0.18281 0.0
O72 O 0.11964 0.09495 0.1273 0.0
C73 C 0.15799 0.16799 0.0279 0.0
H74 H 0.3997 0.49366 0.08203 0.0
H75 H 0.30214 0.51819 0.9988 0.0
H76 H 0.39197 0.52803 0.01963 0.0
H77 H 0.2422 0.32224 0.14769 0.0
H78 H 0.19272 0.27974 0.2604 0.0
H79 H 0.2256 0.43697 0.21819 0.0
H80 H 0.10451 0.39273 0.01176 0.0
H81 H 0.09844 0.45157 0.12052 0.0
H82 H 0.95335 0.37517 0.0553 0.0
H83 H 0.10047 0.42375 0.21968 0.0
H84 H 0.04197 0.32079 0.21897 0.0
H85 H 0.05631 0.26537 0.17044 0.0
H86 H 0.33923 0.55731 0.13242 0.0
H87 H 0.31284 0.62556 0.03424 0.0
H88 H 0.20134 0.58239 0.12282 0.0
Cd89 Cd 0.94968 0.11506 0.60051 0.0
C90 C 0.9053 1.0067 0.63465 0.0
C91 C 0.74466 0.1998 0.54451 0.0
O92 O 0.71294 0.18632 0.51508 0.0
Cd93 Cd 0.96999 0.07427 0.71002 0.0
C94 C 0.79096 0.25616 0.54984 0.0
C95 C 0.88056 0.35649 0.57282 0.0
C96 C 0.85822 0.30951 0.59531 0.0
N97 N 0.81555 0.26306 0.58247 0.0
C98 C 0.81134 0.3012 0.52567 0.0
C99 C 0.85655 0.35188 0.53761 0.0
Co100 Co 0.78843 0.20273 0.61282 0.0
C101 C 0.87465 0.30322 0.63285 0.0
O102 O 0.9177 0.34339 0.6496 0.0
C103 C 0.86395 0.23575 0.6801 0.0
C104 C 0.91062 0.23076 0.675 0.0
C105 C 0.92983 0.2109 0.70314 0.0
C106 C 0.90618 0.20284 0.73837 0.0
C107 C 0.85553 0.20129 0.74374 0.0
C108 C 0.83556 0.22047 0.71462 0.0
C109 C 0.95912 0.1811 0.69327 0.0
C110 C 0.69738 0.10423 0.56834 0.0
C111 C 0.6935 0.07724 0.53436 0.0
C112 C 0.6592 0.07417 0.59613 0.0
C113 C 0.62121 0.01826 0.59152 0.0
C114 C 0.61878 0.99168 0.55842 0.0
C115 C 0.65315 0.02142 0.52874 0.0
N116 N 0.73545 0.16297 0.57257 0.0
N117 N 0.84423 0.2519 0.64835 0.0
N118 N 0.83783 0.17813 0.59268 0.0
C119 C 0.85646 0.18575 0.55479 0.0
C120 C 0.83412 0.14076 0.53023 0.0
C121 C 0.89657 0.23763 0.54187 0.0
C122 C 0.85081 0.14729 0.4931 0.0
H123 H 0.80344 0.10047 0.5402 0.0
C124 C 0.88962 0.20005 0.48036 0.0
C125 C 0.91187 0.24556 0.50438 0.0
C126 C 0.82714 0.09933 0.4675 0.0
H127 H 0.91597 0.27175 0.56098 0.0
H128 H 0.90175 0.20596 0.45154 0.0
C129 C 0.94957 0.30152 0.48987 0.0
O130 O 0.8449 0.10559 0.43215 0.0
O131 O 0.79151 0.05387 0.47821 0.0
O132 O 0.95641 0.34207 0.50702 0.0
O133 O 0.97571 0.30806 0.45727 0.0
H134 H 0.83015 0.07487 0.41507 0.0
H135 H 1.00039 0.34429 0.44725 0.0
N136 N 0.76336 0.14335 0.64382 0.0
C137 C 0.72822 0.14012 0.67005 0.0
C138 C 0.71419 0.10062 0.69792 0.0
C139 C 0.73975 0.0679 0.69749 0.0
C140 C 0.77899 0.07556 0.67 0.0
C141 C 0.79101 0.11572 0.64297 0.0
N142 N 0.73551 0.21877 0.63734 0.0
C143 C 0.7107 0.18185 0.6656 0.0
O144 O 0.67275 0.18243 0.68667 0.0
C145 C 0.83282 0.1343 0.613 0.0
O146 O 0.9923 0.18671 0.54846 0.0
O147 O 0.98122 0.10538 0.54049 0.0
C148 C 0.71687 0.25508 0.62326 0.0
C149 C 0.75474 0.31156 0.61536 0.0
C150 C 0.74381 0.33616 0.58467 0.0
C151 C 0.69984 0.2979 0.56241 0.0
C152 C 0.65189 0.26293 0.58263 0.0
C153 C 0.66153 0.23411 0.6111 0.0
O154 O 0.8996 0.01191 0.60054 0.0
O155 O 0.91889 0.04866 0.65451 0.0
O156 O 0.95345 0.16213 0.6604 0.0
O157 O 0.97313 0.16013 0.71934 0.0
O158 O 0.85379 0.10259 0.60061 0.0
C159 C 0.06795 0.11187 0.64905 0.0
O160 O 0.05623 0.09849 0.6828 0.0
O161 O 0.03364 0.11517 0.62729 0.0
C162 C 0.99892 0.1535 0.52789 0.0
H163 H 0.91498 0.39524 0.58203 0.0
H164 H 0.79289 0.29767 0.4988 0.0
H165 H 0.87288 0.3875 0.51963 0.0
H166 H 0.92891 0.23774 0.64769 0.0
H167 H 0.92193 0.18825 0.7604 0.0
H168 H 0.79757 0.22114 0.71819 0.0
H169 H 0.72073 0.10004 0.51176 0.0
H170 H 0.65582 0.09396 0.62052 0.0
H171 H 0.58714 0.94887 0.55531 0.0
H172 H 0.68566 0.096 0.71968 0.0
H173 H 0.73012 0.0375 0.71897 0.0
H174 H 0.79989 0.05185 0.67043 0.0
H175 H 0.79086 0.33476 0.63242 0.0
H176 H 0.69622 0.30837 0.53424 0.0
H177 H 0.62789 0.19687 0.62282 0.0
Cd178 Cd 0.84357 0.94521 0.10052 0.0
C179 C 0.90756 0.90082 0.13465 0.0
C180 C 0.55381 0.74019 0.04451 0.0
O181 O 0.53557 0.70848 0.01508 0.0
Cd182 Cd 0.90469 0.9655 0.21002 0.0
C183 C 0.54376 0.78651 0.04984 0.0
C184 C 0.53307 0.87612 0.07282 0.0
C185 C 0.5577 0.85378 0.0953 0.0
N186 N 0.56146 0.8111 0.08246 0.0
C187 C 0.51912 0.8069 0.02567 0.0
C188 C 0.51366 0.85211 0.0376 0.0
Co189 Co 0.59466 0.78397 0.11281 0.0
C190 C 0.58042 0.8702 0.13285 0.0
O191 O 0.5833 0.91326 0.14959 0.0
C192 C 0.63717 0.85949 0.1801 0.0
C193 C 0.68884 0.90616 0.175 0.0
C194 C 0.7279 0.92536 0.20315 0.0
C195 C 0.7123 0.9017 0.23837 0.0
C196 C 0.6632 0.85106 0.24375 0.0
C197 C 0.62405 0.8311 0.21462 0.0
C198 C 0.78699 0.95464 0.19328 0.0
C199 C 0.60209 0.69291 0.06834 0.0
C200 C 0.6252 0.68903 0.03436 0.0
C201 C 0.59398 0.65473 0.09613 0.0
C202 C 0.61189 0.61673 0.09152 0.0
C203 C 0.63604 0.6143 0.05842 0.0
C204 C 0.64067 0.64868 0.02873 0.0
N205 N 0.58144 0.73099 0.07257 0.0
N206 N 0.60131 0.83978 0.14835 0.0
N207 N 0.66867 0.83336 0.09268 0.0
C208 C 0.67968 0.85198 0.05479 0.0
C209 C 0.70232 0.82963 0.03023 0.0
C210 C 0.66792 0.89209 0.04186 0.0
C211 C 0.7125 0.84632 0.9931 0.0
H212 H 0.71193 0.79895 0.0402 0.0
C213 C 0.69855 0.88513 0.98036 0.0
C214 C 0.67531 0.9074 1.00436 0.0
C215 C 0.73678 0.82264 0.9675 0.0
H216 H 0.6532 0.9115 0.06096 0.0
H217 H 0.70478 0.89726 0.95153 0.0
C218 C 0.65705 0.9451 0.98985 0.0
O219 O 0.74829 0.8404 0.93216 0.0
O220 O 0.74659 0.78699 0.97821 0.0
O221 O 0.62334 0.95194 1.007 0.0
O222 O 0.67667 0.97124 0.95726 0.0
H223 H 0.76424 0.82563 0.91508 0.0
H224 H 0.66514 0.99593 0.94723 0.0
N225 N 0.62896 0.75889 0.14382 0.0
C226 C 0.59705 0.72376 0.17005 0.0
C227 C 0.62251 0.70973 0.19792 0.0
C228 C 0.6808 0.73528 0.1975 0.0
C229 C 0.71238 0.77451 0.17 0.0
C230 C 0.68425 0.78654 0.14297 0.0
N231 N 0.5257 0.73106 0.13734 0.0
C232 C 0.5378 0.70624 0.1656 0.0
O233 O 0.49927 0.66831 0.18668 0.0
C234 C 0.70747 0.82834 0.113 0.0
O235 O 0.81451 0.98778 0.04845 0.0
O236 O 0.88484 0.97682 0.04051 0.0
C237 C 0.47074 0.71243 0.12326 0.0
C238 C 0.45216 0.75031 0.11534 0.0
C239 C 0.41662 0.73937 0.08465 0.0
C240 C 0.41088 0.69538 0.06241 0.0
C241 C 0.3979 0.64746 0.08266 0.0
C242 C 0.43635 0.65708 0.11114 0.0
O243 O 0.89664 0.89512 0.10053 0.0
O244 O 0.87919 0.91441 0.15451 0.0
O245 O 0.80029 0.94898 0.16041 0.0
O246 O 0.82197 0.96864 0.21935 0.0
O247 O 0.76016 0.84931 0.10061 0.0
C248 C 0.96502 0.06348 0.14907 0.0
O249 O 0.9667 0.05175 0.18281 0.0
O250 O 0.92742 0.02917 0.12731 0.0
C251 C 0.85439 0.99447 0.0279 0.0
H252 H 0.52875 0.91055 0.08202 0.0
H253 H 0.50419 0.78844 0.9988 0.0
H254 H 0.49438 0.86845 0.01962 0.0
H255 H 0.70015 0.92444 0.14769 0.0
H256 H 0.74264 0.91746 0.26041 0.0
H257 H 0.58539 0.79311 0.21819 0.0
H258 H 0.62963 0.71625 0.01176 0.0
H259 H 0.5708 0.65135 0.12052 0.0
H260 H 0.6472 0.58266 0.05531 0.0
H261 H 0.5986 0.6812 0.21968 0.0
H262 H 0.70156 0.72564 0.21897 0.0
H263 H 0.75699 0.79541 0.17044 0.0
H264 H 0.46508 0.78644 0.13239 0.0
H265 H 0.39677 0.69173 0.03424 0.0
H266 H 0.43991 0.62343 0.12287 0.0
Cd267 Cd 0.90731 0.8391 0.60052 0.0
C268 C 0.01567 0.90308 0.63465 0.0
C269 C 0.82256 0.54934 0.54451 0.0
O270 O 0.83604 0.53109 0.51508 0.0
Cd271 Cd 0.94812 0.90022 0.71002 0.0
C272 C 0.7662 0.53929 0.54984 0.0
C273 C 0.66589 0.5286 0.57281 0.0
C274 C 0.71287 0.55323 0.5953 0.0
N275 N 0.75931 0.55699 0.58246 0.0
C276 C 0.72117 0.51465 0.52566 0.0
C277 C 0.6705 0.50919 0.5376 0.0
Co278 Co 0.81964 0.59019 0.61281 0.0
C279 C 0.71916 0.57595 0.63284 0.0
O280 O 0.67899 0.57883 0.64959 0.0
C281 C 0.78663 0.6327 0.68009 0.0
C282 C 0.79162 0.68437 0.675 0.0
C283 C 0.81148 0.72343 0.70315 0.0
C284 C 0.81953 0.70783 0.73837 0.0
C285 C 0.82108 0.65873 0.74374 0.0
C286 C 0.8019 0.61958 0.71462 0.0
C287 C 0.84129 0.78252 0.69328 0.0
C288 C 0.91813 0.59762 0.56834 0.0
C289 C 0.94513 0.62073 0.53436 0.0
C290 C 0.94819 0.58951 0.59613 0.0
C291 C 1.0041 0.60742 0.59152 0.0
C292 C 0.03068 0.63156 0.55842 0.0
C293 C 1.00094 0.63619 0.52873 0.0
N294 N 0.8594 0.57697 0.57257 0.0
N295 N 0.77047 0.59684 0.64835 0.0
N296 N 0.84426 0.6642 0.59268 0.0
C297 C 0.83665 0.67521 0.55478 0.0
C298 C 0.88165 0.69785 0.53023 0.0
C299 C 0.78478 0.66345 0.54186 0.0
C300 C 0.87514 0.70803 0.4931 0.0
H301 H 0.92193 0.70746 0.5402 0.0
C302 C 0.82238 0.69408 0.48035 0.0
C303 C 0.77687 0.67084 0.50436 0.0
C304 C 0.9231 0.73231 0.4675 0.0
H305 H 0.75065 0.64873 0.56095 0.0
H306 H 0.81649 0.70031 0.45153 0.0
C307 C 0.72092 0.65258 0.48984 0.0
O308 O 0.91686 0.74382 0.43216 0.0
O309 O 0.96856 0.74213 0.47822 0.0
O310 O 0.68036 0.61886 0.50698 0.0
O311 O 0.71439 0.6722 0.45725 0.0
H312 H 0.94759 0.75978 0.41508 0.0
H313 H 0.67817 0.66067 0.44722 0.0
N314 N 0.87902 0.6245 0.64382 0.0
C315 C 0.88224 0.59258 0.67005 0.0
C316 C 0.92173 0.61805 0.69792 0.0
C317 C 0.95447 0.67634 0.6975 0.0
C318 C 0.94682 0.70792 0.67 0.0
C319 C 0.90666 0.67978 0.64297 0.0
N320 N 0.80358 0.52123 0.63734 0.0
C321 C 0.84051 0.53334 0.6656 0.0
O322 O 0.83991 0.4948 0.68668 0.0
C323 C 0.88808 0.703 0.613 0.0
O324 O 0.83568 0.81003 0.54845 0.0
O325 O 0.91695 0.8804 0.54052 0.0
C326 C 0.76726 0.46628 0.62326 0.0
C327 C 0.71079 0.44769 0.61534 0.0
C328 C 0.68619 0.41215 0.58465 0.0
C329 C 0.72445 0.40641 0.56241 0.0
C330 C 0.75939 0.39343 0.58266 0.0
C331 C 0.78822 0.43188 0.61114 0.0
O332 O 1.01046 0.89217 0.60054 0.0
O333 O 0.97372 0.87472 0.65451 0.0
O334 O 0.86025 0.79582 0.66041 0.0
O335 O 0.86226 0.8175 0.71935 0.0
O336 O 0.9198 0.75569 0.60061 0.0
C337 C 0.91049 0.96055 0.64907 0.0
O338 O 0.92388 0.96223 0.68282 0.0
O339 O 0.90719 0.92294 0.62731 0.0
C340 C 0.86886 0.84992 0.52791 0.0
H341 H 0.62714 0.52428 0.58202 0.0
H342 H 0.7247 0.49972 0.49879 0.0
H343 H 0.63487 0.48991 0.51962 0.0
H344 H 0.78465 0.69568 0.64769 0.0
H345 H 0.83412 0.73817 0.76041 0.0
H346 H 0.80123 0.58093 0.71819 0.0
H347 H 0.92232 0.62516 0.51176 0.0
H348 H 0.9284 0.56633 0.62052 0.0
H349 H 0.07348 0.64272 0.55531 0.0
H350 H 0.92635 0.59414 0.71968 0.0
H351 H 0.98486 0.69709 0.71897 0.0
H352 H 0.97053 0.75253 0.67044 0.0
H353 H 0.68759 0.46061 0.63239 0.0
H354 H 0.71399 0.3923 0.53424 0.0
H355 H 0.82543 0.43544 0.62287 0.0
Cd356 Cd 0.07717 0.90283 0.10051 0.0
C357 C 0.12151 0.01117 0.13464 0.0
C358 C 0.2822 0.81809 0.04451 0.0
O359 O 0.31392 0.83157 0.01508 0.0
Cd360 Cd 0.05686 0.94364 0.21002 0.0
C361 C 0.23589 0.76173 0.04984 0.0
C362 C 0.14628 0.6614 0.07282 0.0
C363 C 0.16862 0.70839 0.0953 0.0
N364 N 0.21129 0.75483 0.08247 0.0
C365 C 0.21551 0.71669 0.02567 0.0
C366 C 0.1703 0.66602 0.0376 0.0
Co367 Co 0.23841 0.81516 0.11282 0.0
C368 C 0.15219 0.71468 0.13285 0.0
O369 O 0.10913 0.6745 0.14959 0.0
C370 C 0.16289 0.78214 0.18009 0.0
C371 C 0.11622 0.78714 0.175 0.0
C372 C 0.09701 0.80699 0.20314 0.0
C373 C 0.12066 0.81505 0.23837 0.0
C374 C 0.17131 0.8166 0.24374 0.0
C375 C 0.19127 0.79741 0.21462 0.0
C376 C 0.06773 0.8368 0.19327 0.0
C377 C 0.32947 0.91366 0.06834 0.0
C378 C 0.33335 0.94065 0.03436 0.0
C379 C 0.36764 0.94373 0.09613 0.0
C380 C 0.40564 0.99964 0.09152 0.0
C381 C 0.40807 0.02622 0.05843 0.0
C382 C 0.3737 0.99647 0.02874 0.0
N383 N 0.2914 0.85492 0.07257 0.0
N384 N 0.1826 0.76599 0.14835 0.0
N385 N 0.18902 0.83977 0.09268 0.0
C386 C 0.1704 0.83215 0.05478 0.0
C387 C 0.19274 0.87714 0.03023 0.0
C388 C 0.13029 0.78027 0.04186 0.0
C389 C 0.17606 0.87062 0.99309 0.0
H390 H 0.22341 0.91743 0.0402 0.0
C391 C 0.13725 0.81786 0.98035 0.0
C392 C 0.11499 0.77235 1.00436 0.0
C393 C 0.19973 0.91858 0.96749 0.0
H394 H 0.11089 0.74615 0.06096 0.0
H395 H 0.12512 0.81195 0.95153 0.0
C396 C 0.0773 0.71639 0.98985 0.0
O397 O 0.18198 0.91232 0.93215 0.0
O398 O 0.23537 0.96404 0.97821 0.0
O399 O 0.07045 0.67584 1.007 0.0
O400 O 0.05116 0.70986 0.95726 0.0
H401 H 0.19675 0.94305 0.91506 0.0
H402 H 0.02648 0.67363 0.94723 0.0
N403 N 0.26348 0.87454 0.14382 0.0
C404 C 0.29862 0.87777 0.17005 0.0
C405 C 0.31264 0.91727 0.19792 0.0
C406 C 0.28708 0.95 0.19749 0.0
C407 C 0.24785 0.94234 0.16999 0.0
C408 C 0.23583 0.90217 0.14296 0.0
N409 N 0.29132 0.79912 0.13735 0.0
C410 C 0.31614 0.83604 0.1656 0.0
O411 O 0.35408 0.83546 0.18668 0.0
C412 C 0.19403 0.88359 0.113 0.0
O413 O 0.03459 0.8312 0.04844 0.0
O414 O 0.04554 0.91248 0.04051 0.0
C415 C 0.30996 0.7628 0.12327 0.0
C416 C 0.27209 0.70633 0.11536 0.0
C417 C 0.28305 0.68174 0.08467 0.0
C418 C 0.327 0.71998 0.06241 0.0
C419 C 0.37492 0.75495 0.08264 0.0
C420 C 0.36531 0.78378 0.11112 0.0
O421 O 0.12725 1.00599 0.10053 0.0
O422 O 0.10794 0.96923 0.1545 0.0
O423 O 0.07339 0.85577 0.1604 0.0
O424 O 0.05372 0.85778 0.21934 0.0
O425 O 0.17306 0.91531 0.1006 0.0
C426 C 0.95889 0.906 0.14906 0.0
O427 O 0.97061 0.91939 0.18281 0.0
O428 O 0.9932 0.90271 0.1273 0.0
C429 C 0.0279 0.86439 0.0279 0.0
H430 H 0.11186 0.62266 0.08203 0.0
H431 H 0.23397 0.72023 0.9988 0.0
H432 H 0.15396 0.63039 0.01963 0.0
H433 H 0.09793 0.78017 0.14768 0.0
H434 H 0.10491 0.82964 0.2604 0.0
H435 H 0.22926 0.79675 0.21819 0.0
H436 H 0.30612 0.91785 0.01176 0.0
H437 H 0.37103 0.92393 0.12053 0.0
H438 H 0.43971 0.06902 0.05531 0.0
H439 H 0.34117 0.92189 0.21968 0.0
H440 H 0.29671 0.98039 0.21896 0.0
H441 H 0.22695 0.96605 0.17043 0.0
H442 H 0.23596 0.68312 0.13241 0.0
H443 H 0.33062 0.7095 0.03424 0.0
H444 H 0.39896 0.821 0.12284 0.0
Cd445 Cd 0.18328 0.07269 0.60051 0.0
C446 C 0.11928 0.11703 0.63463 0.0
C447 C 0.47305 0.27772 0.54451 0.0
O448 O 0.49129 0.30944 0.51508 0.0
Cd449 Cd 0.12216 0.05239 0.71002 0.0
C450 C 0.4831 0.23141 0.54984 0.0
C451 C 0.49381 0.14181 0.57282 0.0
C452 C 0.46917 0.16414 0.5953 0.0
N453 N 0.4654 0.20682 0.58247 0.0
C454 C 0.50775 0.21103 0.52567 0.0
C455 C 0.51321 0.16582 0.53761 0.0
Co456 Co 0.43219 0.23394 0.61282 0.0
C457 C 0.44645 0.14772 0.63285 0.0
O458 O 0.44357 0.10466 0.6496 0.0
C459 C 0.38969 0.15842 0.6801 0.0
C460 C 0.33802 0.11175 0.675 0.0
C461 C 0.29895 0.09254 0.70315 0.0
C462 C 0.31456 0.1162 0.73837 0.0
C463 C 0.36365 0.16684 0.74375 0.0
C464 C 0.4028 0.18681 0.71462 0.0
C465 C 0.23986 0.06326 0.69328 0.0
C466 C 0.42476 0.325 0.56834 0.0
C467 C 0.40165 0.32888 0.53436 0.0
C468 C 0.43287 0.36318 0.59613 0.0
C469 C 0.41496 0.40117 0.59152 0.0
C470 C 0.39081 0.4036 0.55842 0.0
C471 C 0.38618 0.36923 0.52873 0.0
N472 N 0.44542 0.28692 0.57257 0.0
N473 N 0.42555 0.17813 0.64835 0.0
N474 N 0.35819 0.18454 0.59268 0.0
C475 C 0.34718 0.16593 0.55479 0.0
C476 C 0.32454 0.18827 0.53023 0.0
C477 C 0.35895 0.12581 0.54187 0.0
C478 C 0.31437 0.17158 0.49309 0.0
H479 H 0.31493 0.21894 0.5402 0.0
C480 C 0.32832 0.13278 0.48036 0.0
C481 C 0.35157 0.11051 0.50437 0.0
C482 C 0.29009 0.19526 0.46749 0.0
H483 H 0.37367 0.10641 0.56097 0.0
H484 H 0.3221 0.12064 0.45153 0.0
C485 C 0.36983 0.07282 0.48986 0.0
O486 O 0.27859 0.1775 0.43215 0.0
O487 O 0.28028 0.2309 0.4782 0.0
O488 O 0.40354 0.06597 0.507 0.0
O489 O 0.35023 0.04668 0.45726 0.0
H490 H 0.26263 0.19227 0.41507 0.0
H491 H 0.36177 0.02199 0.44723 0.0
N492 N 0.39788 0.25901 0.64382 0.0
C493 C 0.42979 0.29415 0.67005 0.0
C494 C 0.40432 0.30817 0.69792 0.0
C495 C 0.34603 0.28261 0.69749 0.0
C496 C 0.31445 0.24338 0.66999 0.0
C497 C 0.34259 0.23136 0.64296 0.0
N498 N 0.50115 0.28685 0.63735 0.0
C499 C 0.48904 0.31167 0.6656 0.0
O500 O 0.52757 0.34961 0.68668 0.0
C501 C 0.31938 0.18956 0.613 0.0
O502 O 0.21236 0.03013 0.54845 0.0
O503 O 0.14199 0.04103 0.54052 0.0
C504 C 0.5561 0.30549 0.62327 0.0
C505 C 0.5747 0.26762 0.61536 0.0
C506 C 0.61025 0.27857 0.58467 0.0
C507 C 0.61596 0.32253 0.56241 0.0
C508 C 0.62892 0.37045 0.58264 0.0
C509 C 0.59048 0.36084 0.61112 0.0
O510 O 0.13021 0.12277 0.60052 0.0
O511 O 0.14765 0.10347 0.6545 0.0
O512 O 0.22656 0.06892 0.66041 0.0
O513 O 0.20489 0.04926 0.71935 0.0
O514 O 0.26669 0.16859 0.6006 0.0
C515 C 0.06183 0.95442 0.64907 0.0
O516 O 0.06016 0.96614 0.68281 0.0
O517 O 0.09944 0.98873 0.62731 0.0
C518 C 0.17246 0.02341 0.5279 0.0
H519 H 0.49813 0.10738 0.58203 0.0
H520 H 0.52268 0.22949 0.4988 0.0
H521 H 0.53251 0.14948 0.51963 0.0
H522 H 0.32671 0.09346 0.64769 0.0
H523 H 0.28421 0.10044 0.7604 0.0
H524 H 0.44146 0.22479 0.71819 0.0
H525 H 0.39722 0.30165 0.51176 0.0
H526 H 0.45604 0.36656 0.62052 0.0
H527 H 0.37965 0.43525 0.55531 0.0
H528 H 0.42822 0.3367 0.71968 0.0
H529 H 0.32527 0.29225 0.71896 0.0
H530 H 0.26984 0.22248 0.67043 0.0
H531 H 0.56178 0.23149 0.63241 0.0
H532 H 0.63007 0.32615 0.53424 0.0
H533 H 0.58689 0.39448 0.62284 0.0
Cd534 Cd 0.84357 0.90283 0.41919 0.0
C535 C 0.90755 0.01119 0.38505 0.0
C536 C 0.55381 0.81808 0.47521 0.0
O537 O 0.53557 0.83155 0.50464 0.0
Cd538 Cd 0.90468 0.94363 0.30968 0.0
C539 C 0.54375 0.76171 0.46987 0.0
C540 C 0.53303 0.66139 0.44688 0.0
C541 C 0.55768 0.70838 0.4244 0.0
N542 N 0.56145 0.75482 0.43724 0.0
C543 C 0.5191 0.71667 0.49404 0.0
C544 C 0.51363 0.666 0.4821 0.0
Co545 Co 0.59465 0.81516 0.4069 0.0
C546 C 0.58039 0.71468 0.38685 0.0
O547 O 0.58327 0.67451 0.3701 0.0
C548 C 0.63715 0.78215 0.33961 0.0
C549 C 0.68882 0.78715 0.3447 0.0
C550 C 0.72789 0.80701 0.31656 0.0
C551 C 0.71229 0.81508 0.28134 0.0
C552 C 0.6632 0.81663 0.27597 0.0
C553 C 0.62404 0.79744 0.30509 0.0
C554 C 0.78698 0.8368 0.32643 0.0
C555 C 0.60209 0.91364 0.45138 0.0
C556 C 0.6252 0.94064 0.48536 0.0
C557 C 0.59397 0.94371 0.4236 0.0
C558 C 0.61188 0.99962 0.42821 0.0
C559 C 0.63603 0.0262 0.4613 0.0
C560 C 0.64066 0.99645 0.49099 0.0
N561 N 0.58144 0.85491 0.44715 0.0
N562 N 0.60129 0.766 0.37135 0.0
N563 N 0.66866 0.83976 0.42703 0.0
C564 C 0.67967 0.83215 0.46492 0.0
C565 C 0.70231 0.87713 0.48948 0.0
C566 C 0.6679 0.78026 0.47784 0.0
C567 C 0.71248 0.8706 0.52662 0.0
H568 H 0.71193 0.91742 0.47952 0.0
C569 C 0.69852 0.81784 0.53935 0.0
C570 C 0.67528 0.77233 0.51533 0.0
C571 C 0.73676 0.91856 0.55222 0.0
H572 H 0.65318 0.74614 0.45873 0.0
H573 H 0.70475 0.81193 0.56817 0.0
C574 C 0.65701 0.71637 0.52984 0.0
O575 O 0.74826 0.91229 0.58756 0.0
O576 O 0.74658 0.96402 0.54151 0.0
O577 O 0.62331 0.67582 0.51269 0.0
O578 O 0.67661 0.70983 0.56243 0.0
H579 H 0.76422 0.94301 0.60465 0.0
H580 H 0.66507 0.6736 0.57246 0.0
N581 N 0.62896 0.87455 0.3759 0.0
C582 C 0.59705 0.87777 0.34967 0.0
C583 C 0.62252 0.91727 0.3218 0.0
C584 C 0.68081 0.95001 0.32223 0.0
C585 C 0.71238 0.94234 0.34972 0.0
C586 C 0.68425 0.90218 0.37675 0.0
N587 N 0.5257 0.79912 0.38237 0.0
C588 C 0.5378 0.83604 0.35412 0.0
O589 O 0.49927 0.83546 0.33305 0.0
C590 C 0.70747 0.88359 0.40671 0.0
O591 O 0.81451 0.8312 0.47125 0.0
O592 O 0.88485 0.91248 0.47919 0.0
C593 C 0.47074 0.7628 0.39645 0.0
C594 C 0.45214 0.70633 0.40436 0.0
C595 C 0.4166 0.68173 0.43505 0.0
C596 C 0.41089 0.71999 0.4573 0.0
C597 C 0.3979 0.75495 0.43708 0.0
C598 C 0.43636 0.78377 0.4086 0.0
O599 O 0.89664 1.00599 0.41916 0.0
O600 O 0.87919 0.96924 0.36519 0.0
O601 O 0.80028 0.85577 0.3593 0.0
O602 O 0.82196 0.85776 0.30036 0.0
O603 O 0.76015 0.91531 0.41911 0.0
C604 C 0.96503 0.90602 0.37064 0.0
O605 O 0.9667 0.9194 0.3369 0.0
O606 O 0.92743 0.90273 0.3924 0.0
C607 C 0.8544 0.86438 0.4918 0.0
H608 H 0.52871 0.62265 0.43767 0.0
H609 H 0.50418 0.7202 0.52091 0.0
H610 H 0.49434 0.63037 0.50007 0.0
H611 H 0.70013 0.78016 0.37202 0.0
H612 H 0.74264 0.82967 0.2593 0.0
H613 H 0.58539 0.79677 0.30152 0.0
H614 H 0.62964 0.91784 0.50796 0.0
H615 H 0.57079 0.92391 0.3992 0.0
H616 H 0.64719 0.069 0.46442 0.0
H617 H 0.59861 0.9219 0.30005 0.0
H618 H 0.70157 0.98041 0.30076 0.0
H619 H 0.75699 0.96606 0.34928 0.0
H620 H 0.46506 0.68312 0.38731 0.0
H621 H 0.39679 0.70952 0.48547 0.0
H622 H 0.43995 0.82099 0.39688 0.0
Cd623 Cd 0.94968 0.8391 0.91918 0.0
C624 C 0.9053 0.90308 0.88505 0.0
C625 C 0.74468 0.54934 0.9752 0.0
O626 O 0.71297 0.5311 1.00464 0.0
Cd627 Cd 0.96999 0.90022 0.80968 0.0
C628 C 0.79099 0.53929 0.96987 0.0
C629 C 0.88059 0.52858 0.94688 0.0
C630 C 0.85825 0.55322 0.9244 0.0
N631 N 0.81557 0.55699 0.93724 0.0
C632 C 0.81138 0.51464 0.99404 0.0
C633 C 0.85659 0.50918 0.9821 0.0
Co634 Co 0.78844 0.59019 0.9069 0.0
C635 C 0.87466 0.57593 0.88685 0.0
O636 O 0.91771 0.57881 0.8701 0.0
C637 C 0.86395 0.63269 0.83961 0.0
C638 C 0.91062 0.68436 0.8447 0.0
C639 C 0.92983 0.72343 0.81655 0.0
C640 C 0.90616 0.70783 0.78133 0.0
C641 C 0.85551 0.65873 0.77597 0.0
C642 C 0.83555 0.61958 0.80509 0.0
C643 C 0.95912 0.78252 0.82642 0.0
C644 C 0.69738 0.59762 0.95138 0.0
C645 C 0.69351 0.62073 0.98536 0.0
C646 C 0.6592 0.58949 0.92359 0.0
C647 C 0.6212 0.6074 0.92821 0.0
C648 C 0.61877 0.63155 0.9613 0.0
C649 C 0.65315 0.63619 0.99099 0.0
N650 N 0.73547 0.57697 0.94715 0.0
N651 N 0.84424 0.59683 0.87135 0.0
N652 N 0.83784 0.6642 0.92703 0.0
C653 C 0.85646 0.67521 0.96492 0.0
C654 C 0.83412 0.69785 0.98948 0.0
C655 C 0.89658 0.66344 0.97784 0.0
C656 C 0.85082 0.70802 0.02661 0.0
H657 H 0.80344 0.70746 0.97951 0.0
C658 C 0.88963 0.69408 0.03935 0.0
C659 C 0.91189 0.67083 0.01533 0.0
C660 C 0.82715 0.7323 0.05222 0.0
H661 H 0.91598 0.64872 0.95873 0.0
H662 H 0.90177 0.7003 0.06817 0.0
C663 C 0.94959 0.65257 0.02984 0.0
O664 O 0.84491 0.74381 0.08756 0.0
O665 O 0.7915 0.74212 0.04151 0.0
O666 O 0.95643 0.61886 0.01269 0.0
O667 O 0.97574 0.67218 0.06243 0.0
H668 H 0.83015 0.75977 0.10464 0.0
H669 H 1.00043 0.66064 0.07246 0.0
N670 N 0.76336 0.62449 0.8759 0.0
C671 C 0.72822 0.59258 0.84967 0.0
C672 C 0.71418 0.61804 0.8218 0.0
C673 C 0.73974 0.67633 0.82222 0.0
C674 C 0.77898 0.70791 0.84972 0.0
C675 C 0.79101 0.67978 0.87675 0.0
N676 N 0.73552 0.52123 0.88237 0.0
C677 C 0.7107 0.53333 0.85412 0.0
O678 O 0.67276 0.4948 0.83305 0.0
C679 C 0.83282 0.703 0.90671 0.0
O680 O 0.99225 0.81003 0.97125 0.0
O681 O 0.98134 0.88039 0.97918 0.0
C682 C 0.71689 0.46628 0.89645 0.0
C683 C 0.75476 0.44768 0.90436 0.0
C684 C 0.74383 0.41214 0.93505 0.0
C685 C 0.69985 0.40642 0.9573 0.0
C686 C 0.6519 0.39343 0.93708 0.0
C687 C 0.66154 0.4319 0.9086 0.0
O688 O 0.8996 0.89217 0.91917 0.0
O689 O 0.91889 0.87472 0.86519 0.0
O690 O 0.95346 0.79582 0.85929 0.0
O691 O 0.97313 0.8175 0.80035 0.0
O692 O 0.85379 0.75569 0.9191 0.0
C693 C 0.06795 0.96057 0.87064 0.0
O694 O 0.05624 0.96223 0.83689 0.0
O695 O 0.03364 0.92296 0.8924 0.0
C696 C 0.99897 0.84993 0.99179 0.0
H697 H 0.91501 0.52426 0.93767 0.0
H698 H 0.79293 0.49972 0.02091 0.0
H699 H 0.87293 0.48989 1.00007 0.0
H700 H 0.92891 0.69567 0.87201 0.0
H701 H 0.92191 0.73817 0.7593 0.0
H702 H 0.79756 0.58092 0.80152 0.0
H703 H 0.72074 0.62517 1.00796 0.0
H704 H 0.65582 0.56632 0.8992 0.0
H705 H 0.58712 0.64271 0.96442 0.0
H706 H 0.68565 0.59413 0.80004 0.0
H707 H 0.7301 0.69709 0.80075 0.0
H708 H 0.79987 0.75252 0.84928 0.0
H709 H 0.79089 0.4606 0.88731 0.0
H710 H 0.69622 0.39232 0.98547 0.0
H711 H 0.6279 0.43548 0.89688 0.0
Cd712 Cd 0.11954 0.9452 0.41919 0.0
C713 C 1.0112 0.90086 0.38506 0.0
C714 C 0.20428 0.74018 0.4752 0.0
O715 O 0.19081 0.70847 0.50463 0.0
Cd716 Cd 0.07874 0.96551 0.30969 0.0
C717 C 0.26065 0.78648 0.46986 0.0
C718 C 0.36097 0.87607 0.44687 0.0
C719 C 0.31398 0.85373 0.42439 0.0
N720 N 0.26754 0.81107 0.43724 0.0
C721 C 0.30569 0.80686 0.49403 0.0
C722 C 0.35636 0.85206 0.48209 0.0
Co723 Co 0.2072 0.78394 0.40689 0.0
C724 C 0.30769 0.87015 0.38685 0.0
O725 O 0.34786 0.9132 0.37009 0.0
C726 C 0.24021 0.85945 0.33961 0.0
C727 C 0.23522 0.90613 0.3447 0.0
C728 C 0.21536 0.92533 0.31656 0.0
C729 C 0.20728 0.90167 0.28133 0.0
C730 C 0.20573 0.85102 0.27597 0.0
C731 C 0.22493 0.83106 0.30509 0.0
C732 C 0.18556 0.95463 0.32643 0.0
C733 C 0.10871 0.6929 0.45138 0.0
C734 C 0.08172 0.68902 0.48536 0.0
C735 C 0.07864 0.65471 0.42359 0.0
C736 C 0.02273 0.61671 0.4282 0.0
C737 C 0.99616 0.61429 0.4613 0.0
C738 C 0.02591 0.64867 0.49099 0.0
N739 N 0.16744 0.73097 0.44714 0.0
N740 N 0.25636 0.83974 0.37135 0.0
N741 N 0.1826 0.83335 0.42703 0.0
C742 C 0.19023 0.85198 0.46492 0.0
C743 C 0.14526 0.82965 0.48949 0.0
C744 C 0.24212 0.89209 0.47783 0.0
C745 C 0.1518 0.84635 0.52662 0.0
H746 H 0.10496 0.79897 0.47952 0.0
C747 C 0.20456 0.88515 0.53934 0.0
C748 C 0.25006 0.9074 0.51533 0.0
C749 C 0.10385 0.82268 0.55223 0.0
H750 H 0.27624 0.91149 0.45872 0.0
H751 H 0.21048 0.89729 0.56817 0.0
C752 C 0.30603 0.9451 0.52982 0.0
O753 O 0.11012 0.84044 0.58757 0.0
O754 O 0.05838 0.78704 0.54152 0.0
O755 O 0.34657 0.95195 0.51266 0.0
O756 O 0.31258 0.97123 0.56242 0.0
H757 H 0.0794 0.82569 0.60466 0.0
H758 H 0.34881 0.99591 0.57245 0.0
N759 N 0.14781 0.75887 0.3759 0.0
C760 C 0.14457 0.72373 0.34966 0.0
C761 C 0.10507 0.7097 0.3218 0.0
C762 C 0.07235 0.73526 0.32223 0.0
C763 C 0.08001 0.7745 0.34973 0.0
C764 C 0.12018 0.78653 0.37675 0.0
N765 N 0.22323 0.73102 0.38236 0.0
C766 C 0.1863 0.70621 0.35411 0.0
O767 O 0.18687 0.66825 0.33304 0.0
C768 C 0.13878 0.82833 0.40671 0.0
O769 O 0.19118 0.98778 0.47125 0.0
O770 O 0.10989 0.97683 0.47919 0.0
C771 C 0.25954 0.71238 0.39644 0.0
C772 C 0.31602 0.75024 0.40434 0.0
C773 C 0.3406 0.73929 0.43503 0.0
C774 C 0.30236 0.69535 0.4573 0.0
C775 C 0.26737 0.64739 0.43709 0.0
C776 C 0.23855 0.65704 0.40862 0.0
O777 O 0.01638 0.89511 0.41918 0.0
O778 O 0.05314 0.91443 0.3652 0.0
O779 O 0.1666 0.94897 0.3593 0.0
O780 O 0.1646 0.96865 0.30036 0.0
O781 O 0.10706 0.84931 0.41911 0.0
C782 C 0.11635 0.06347 0.37065 0.0
O783 O 0.10297 0.05176 0.3369 0.0
O784 O 0.11965 0.02916 0.3924 0.0
C785 C 0.158 0.99448 0.4918 0.0
H786 H 0.39972 0.91049 0.43765 0.0
H787 H 0.30216 0.78841 0.5209 0.0
H788 H 0.39199 0.8684 0.50006 0.0
H789 H 0.2422 0.92442 0.37202 0.0
H790 H 0.19269 0.91742 0.2593 0.0
H791 H 0.22559 0.79307 0.30151 0.0
H792 H 0.10452 0.71626 0.50796 0.0
H793 H 0.09844 0.65133 0.3992 0.0
H794 H 0.95336 0.58265 0.46442 0.0
H795 H 0.10044 0.68117 0.30004 0.0
H796 H 0.04194 0.72563 0.30076 0.0
H797 H 0.0563 0.7954 0.34929 0.0
H798 H 0.33923 0.78636 0.38728 0.0
H799 H 0.31285 0.69174 0.48547 0.0
H800 H 0.20131 0.6234 0.39691 0.0
Cd801 Cd 0.18329 0.11507 0.91919 0.0
C802 C 0.11928 1.00673 0.88506 0.0
C803 C 0.47305 0.19981 0.9752 0.0
O804 O 0.49129 0.18634 1.00464 0.0
Cd805 Cd 0.12217 0.07428 0.80968 0.0
C806 C 0.48311 0.25618 0.96986 0.0
C807 C 0.49385 0.3565 0.94687 0.0
C808 C 0.46919 0.30951 0.9244 0.0
N809 N 0.46541 0.26307 0.93724 0.0
C810 C 0.50777 0.30122 0.99403 0.0
C811 C 0.51325 0.35189 0.98209 0.0
Co812 Co 0.4322 0.20273 0.9069 0.0
C813 C 0.44648 0.30321 0.88685 0.0
O814 O 0.4436 0.34339 0.8701 0.0
C815 C 0.3897 0.23574 0.83961 0.0
C816 C 0.33803 0.23075 0.8447 0.0
C817 C 0.29897 0.21089 0.81656 0.0
C818 C 0.31456 0.20282 0.78134 0.0
C819 C 0.36365 0.20126 0.77597 0.0
C820 C 0.40281 0.22046 0.80509 0.0
C821 C 0.23987 0.1811 0.82643 0.0
C822 C 0.42476 0.10424 0.95138 0.0
C823 C 0.40165 0.07725 0.98536 0.0
C824 C 0.43288 0.07417 0.92359 0.0
C825 C 0.41497 0.01827 0.92821 0.0
C826 C 0.39082 0.99169 0.9613 0.0
C827 C 0.38619 0.02144 0.99099 0.0
N828 N 0.44542 0.16297 0.94715 0.0
N829 N 0.42556 0.25189 0.87135 0.0
N830 N 0.3582 0.17813 0.92703 0.0
C831 C 0.3472 0.18576 0.96492 0.0
C832 C 0.32455 0.14078 0.98949 0.0
C833 C 0.35897 0.23764 0.97784 0.0
C834 C 0.3144 0.14732 0.02662 0.0
H835 H 0.31493 0.10049 0.97952 0.0
C836 C 0.32836 0.20008 0.03935 0.0
C837 C 0.3516 0.24558 0.01533 0.0
C838 C 0.29011 0.09936 0.05223 0.0
H839 H 0.37369 0.27176 0.95873 0.0
H840 H 0.32214 0.206 0.06817 0.0
C841 C 0.36988 0.30154 0.02983 0.0
O842 O 0.27862 0.10563 0.08757 0.0
O843 O 0.28028 0.0539 0.04152 0.0
O844 O 0.40358 0.34209 0.01268 0.0
O845 O 0.3503 0.30809 0.06244 0.0
H846 H 0.26266 0.07492 0.10466 0.0
H847 H 0.36184 0.34433 0.07246 0.0
N848 N 0.39788 0.14334 0.8759 0.0
C849 C 0.42979 0.14011 0.84967 0.0
C850 C 0.40432 0.10061 0.8218 0.0
C851 C 0.34603 0.06788 0.82223 0.0
C852 C 0.31445 0.07555 0.84973 0.0
C853 C 0.3426 0.11571 0.87675 0.0
N854 N 0.50115 0.21876 0.88237 0.0
C855 C 0.48904 0.18183 0.85411 0.0
O856 O 0.52757 0.18241 0.83304 0.0
C857 C 0.31939 0.1343 0.90672 0.0
O858 O 0.21236 0.1867 0.97126 0.0
O859 O 0.14198 0.10544 0.97918 0.0
C860 C 0.55611 0.25507 0.89645 0.0
C861 C 0.57472 0.31155 0.90434 0.0
C862 C 0.61026 0.33614 0.93503 0.0
C863 C 0.61596 0.29789 0.9573 0.0
C864 C 0.62893 0.26291 0.9371 0.0
C865 C 0.59046 0.23409 0.90862 0.0
O866 O 0.13022 0.01192 0.91917 0.0
O867 O 0.14766 0.04867 0.8652 0.0
O868 O 0.22657 0.16213 0.8593 0.0
O869 O 0.2049 0.16014 0.80036 0.0
O870 O 0.2667 0.10259 0.91911 0.0
C871 C 0.06182 0.11188 0.87064 0.0
O872 O 0.06016 0.09851 0.8369 0.0
O873 O 0.09943 0.11518 0.8924 0.0
C874 C 0.17245 0.15353 0.9918 0.0
H875 H 0.49818 0.39525 0.93766 0.0
H876 H 0.5227 0.29769 0.0209 0.0
H877 H 0.53255 0.38752 1.00006 0.0
H878 H 0.32673 0.23773 0.87202 0.0
H879 H 0.28422 0.18823 0.7593 0.0
H880 H 0.44146 0.22112 0.80152 0.0
H881 H 0.39721 0.10005 1.00796 0.0
H882 H 0.45606 0.09397 0.8992 0.0
H883 H 0.37966 0.94889 0.96442 0.0
H884 H 0.42822 0.09598 0.80004 0.0
H885 H 0.32526 0.03748 0.80076 0.0
H886 H 0.26984 0.05183 0.84929 0.0
H887 H 0.56181 0.33476 0.88728 0.0
H888 H 0.63005 0.30838 0.98547 0.0
H889 H 0.58686 0.19685 0.89691 0.0
Cd890 Cd 0.07716 0.1788 0.41919 0.0
C891 C 0.12151 0.1148 0.38507 0.0
C892 C 0.28217 0.46856 0.4752 0.0
O893 O 0.31389 0.48681 0.50463 0.0
Cd894 Cd 0.05686 0.11767 0.30968 0.0
C895 C 0.23586 0.47861 0.46987 0.0
C896 C 0.14625 0.48931 0.44688 0.0
C897 C 0.16859 0.46467 0.42441 0.0
N898 N 0.21127 0.46091 0.43724 0.0
C899 C 0.21547 0.50326 0.49404 0.0
C900 C 0.17026 0.50872 0.4821 0.0
Co901 Co 0.2384 0.42771 0.4069 0.0
C902 C 0.15217 0.44195 0.38686 0.0
O903 O 0.10912 0.43906 0.37011 0.0
C904 C 0.16289 0.3852 0.33961 0.0
C905 C 0.11622 0.33352 0.3447 0.0
C906 C 0.09701 0.29446 0.31656 0.0
C907 C 0.12068 0.31007 0.28133 0.0
C908 C 0.17133 0.35916 0.27597 0.0
C909 C 0.19129 0.39832 0.30509 0.0
C910 C 0.06772 0.23537 0.32642 0.0
C911 C 0.32946 0.42028 0.45138 0.0
C912 C 0.33335 0.39717 0.48536 0.0
C913 C 0.36765 0.4284 0.42359 0.0
C914 C 0.40565 0.4105 0.4282 0.0
C915 C 0.40808 0.38635 0.4613 0.0
C916 C 0.3737 0.38172 0.49099 0.0
N917 N 0.29138 0.44094 0.44715 0.0
N918 N 0.18259 0.42106 0.37136 0.0
N919 N 0.18901 0.3537 0.42704 0.0
C920 C 0.17039 0.34269 0.46493 0.0
C921 C 0.19274 0.32005 0.48949 0.0
C922 C 0.13028 0.35446 0.47785 0.0
C923 C 0.17605 0.30988 0.52662 0.0
H924 H 0.22341 0.31044 0.47952 0.0
C925 C 0.13724 0.32383 0.53936 0.0
C926 C 0.11498 0.34707 0.51535 0.0
C927 C 0.19973 0.28561 0.55222 0.0
H928 H 0.11087 0.36917 0.45875 0.0
H929 H 0.12511 0.31761 0.56818 0.0
C930 C 0.07728 0.36533 0.52986 0.0
O931 O 0.18197 0.2741 0.58756 0.0
O932 O 0.23537 0.27579 0.54151 0.0
O933 O 0.07043 0.39904 0.51271 0.0
O934 O 0.05113 0.34572 0.56245 0.0
H935 H 0.19674 0.25814 0.60465 0.0
H936 H 0.02644 0.35726 0.57248 0.0
N937 N 0.26348 0.3934 0.3759 0.0
C938 C 0.29862 0.42531 0.34967 0.0
C939 C 0.31265 0.39984 0.3218 0.0
C940 C 0.2871 0.34155 0.32223 0.0
C941 C 0.24786 0.30998 0.34972 0.0
C942 C 0.23583 0.33811 0.37675 0.0
N943 N 0.29131 0.49666 0.38237 0.0
C944 C 0.31613 0.48456 0.35411 0.0
O945 O 0.35407 0.52309 0.33304 0.0
C946 C 0.19403 0.31489 0.40672 0.0
O947 O 0.03464 0.2079 0.47127 0.0
O948 O 0.04541 0.13744 0.47916 0.0
C949 C 0.30995 0.55162 0.39644 0.0
C950 C 0.27207 0.57021 0.40436 0.0
C951 C 0.28303 0.60576 0.43505 0.0
C952 C 0.32699 0.61148 0.45731 0.0
C953 C 0.37491 0.62445 0.43706 0.0
C954 C 0.3653 0.58601 0.40858 0.0
O955 O 0.12725 0.12573 0.41918 0.0
O956 O 0.10794 0.14317 0.3652 0.0
O957 O 0.07338 0.22206 0.35929 0.0
O958 O 0.05372 0.2004 0.30035 0.0
O959 O 0.17306 0.26221 0.41911 0.0
C960 C 0.95889 0.05735 0.37063 0.0
O961 O 0.9706 0.05567 0.33688 0.0
O962 O 0.9932 0.09495 0.39238 0.0
C963 C 0.02785 0.16795 0.49179 0.0
H964 H 0.11182 0.49362 0.43768 0.0
H965 H 0.23393 0.51819 0.52091 0.0
H966 H 0.15392 0.52801 0.50007 0.0
H967 H 0.09793 0.32221 0.37202 0.0
H968 H 0.10493 0.27973 0.2593 0.0
H969 H 0.22927 0.43697 0.30152 0.0
H970 H 0.30611 0.39274 0.50796 0.0
H971 H 0.37103 0.45158 0.3992 0.0
H972 H 0.43972 0.37519 0.46442 0.0
H973 H 0.34118 0.42375 0.30004 0.0
H974 H 0.29673 0.32079 0.30076 0.0
H975 H 0.22697 0.26537 0.34929 0.0
H976 H 0.23593 0.55729 0.38731 0.0
H977 H 0.33063 0.6256 0.48547 0.0
H978 H 0.39894 0.58243 0.39686 0.0
Cd979 Cd 0.90731 0.07269 0.91919 0.0
C980 C 0.01566 0.11704 0.88507 0.0
C981 C 0.82255 0.2777 0.9752 0.0
O982 O 0.83602 0.30942 1.00463 0.0
Cd983 Cd 0.94813 0.05239 0.80968 0.0
C984 C 0.76619 0.23139 0.96986 0.0
C985 C 0.66587 0.14179 0.94688 0.0
C986 C 0.71286 0.16413 0.9244 0.0
N987 N 0.7593 0.2068 0.93724 0.0
C988 C 0.72115 0.211 0.99403 0.0
C989 C 0.67048 0.16579 0.98209 0.0
Co990 Co 0.81963 0.23393 0.9069 0.0
C991 C 0.71916 0.14771 0.88685 0.0
O992 O 0.67899 0.10465 0.8701 0.0
C993 C 0.78663 0.15842 0.83961 0.0
C994 C 0.79163 0.11175 0.8447 0.0
C995 C 0.81149 0.09255 0.81656 0.0
C996 C 0.81956 0.11621 0.78133 0.0
C997 C 0.82111 0.16686 0.77597 0.0
C998 C 0.80191 0.18682 0.80509 0.0
C999 C 0.84129 0.06326 0.82643 0.0
C1000 C 0.91812 0.32499 0.95138 0.0
C1001 C 0.94511 0.32887 0.98536 0.0
C1002 C 0.94819 0.36317 0.92359 0.0
C1003 C 1.0041 0.40117 0.9282 0.0
C1004 C 0.03068 0.4036 0.9613 0.0
C1005 C 1.00093 0.36922 0.99099 0.0
N1006 N 0.85939 0.28691 0.94714 0.0
N1007 N 0.77048 0.17813 0.87135 0.0
N1008 N 0.84424 0.18454 0.92703 0.0
C1009 C 0.83662 0.16591 0.96492 0.0
C1010 C 0.88161 0.18826 0.98949 0.0
C1011 C 0.78474 0.1258 0.97784 0.0
C1012 C 0.87508 0.17157 0.02662 0.0
H1013 H 0.9219 0.21893 0.97952 0.0
C1014 C 0.82232 0.13276 0.03935 0.0
C1015 C 0.77682 0.1105 0.01534 0.0
C1016 C 0.92304 0.19525 0.05222 0.0
H1017 H 0.75062 0.1064 0.95874 0.0
H1018 H 0.81641 0.12063 0.06818 0.0
C1019 C 0.72086 0.0728 0.02984 0.0
O1020 O 0.91678 0.17749 0.08756 0.0
O1021 O 0.9685 0.23088 0.04151 0.0
O1022 O 0.6803 0.06595 0.01269 0.0
O1023 O 0.71431 0.04666 0.06244 0.0
H1024 H 0.94749 0.19225 0.10465 0.0
H1025 H 0.67809 0.02198 0.07247 0.0
N1026 N 0.87902 0.25901 0.8759 0.0
C1027 C 0.88225 0.29415 0.84966 0.0
C1028 C 0.92175 0.30818 0.8218 0.0
C1029 C 0.95449 0.28262 0.82223 0.0
C1030 C 0.94682 0.24339 0.84972 0.0
C1031 C 0.90666 0.23136 0.87675 0.0
N1032 N 0.80359 0.28685 0.88236 0.0
C1033 C 0.84052 0.31167 0.85411 0.0
O1034 O 0.83994 0.34961 0.83304 0.0
C1035 C 0.88807 0.18956 0.90672 0.0
O1036 O 0.83568 0.03014 0.97126 0.0
O1037 O 0.91694 0.04102 0.97918 0.0
C1038 C 0.76727 0.30548 0.89644 0.0
C1039 C 0.7108 0.26761 0.90436 0.0
C1040 C 0.68622 0.27857 0.93505 0.0
C1041 C 0.72446 0.32253 0.95731 0.0
C1042 C 0.75941 0.37045 0.93706 0.0
C1043 C 0.78824 0.36083 0.90858 0.0
O1044 O 1.01047 0.12278 0.91918 0.0
O1045 O 0.97371 0.10347 0.8652 0.0
O1046 O 0.86026 0.06892 0.8593 0.0
O1047 O 0.86227 0.04925 0.80035 0.0
O1048 O 0.91979 0.16859 0.91911 0.0
C1049 C 0.91048 0.95442 0.87063 0.0
O1050 O 0.92388 0.96614 0.83689 0.0
O1051 O 0.90719 0.98873 0.89239 0.0
C1052 C 0.86885 0.0234 0.9918 0.0
H1053 H 0.62713 0.10736 0.93767 0.0
H1054 H 0.72467 0.22946 0.0209 0.0
H1055 H 0.63485 0.14946 1.00007 0.0
H1056 H 0.78465 0.09346 0.87202 0.0
H1057 H 0.83415 0.10047 0.7593 0.0
H1058 H 0.80124 0.2248 0.80152 0.0
H1059 H 0.92231 0.30164 1.00796 0.0
H1060 H 0.9284 0.36656 0.8992 0.0
H1061 H 0.07348 0.43524 0.96442 0.0
H1062 H 0.92638 0.33671 0.80004 0.0
H1063 H 0.98489 0.29226 0.80076 0.0
H1064 H 0.97054 0.22249 0.84929 0.0
H1065 H 0.68759 0.23147 0.88731 0.0
H1066 H 0.71398 0.32617 0.98547 0.0
H1067 H 0.82546 0.39448 0.89686 0.0
loop_
_geom_bond_atom_site_label_1
_geom_bond_atom_site_label_2
_geom_bond_distance
_geom_bond_site_symmetry_2
_ccdc_geom_bond_type
Cd0 O57 2.350 . S
Cd0 O58 2.277 . S
Cd0 O65 2.173 . S
Cd0 O67 2.263 . S
Cd0 O69 2.366 . S
Cd0 O72 2.329 . S
C1 O65 1.277 . S
C1 O66 1.230 . S
C2 O3 1.246 . S
C2 C5 1.481 . S
C2 N27 1.329 . S
O3 C2 1.246 . S
Cd4 O66 2.250 . S
Cd4 O68 2.308 . S
Cd4 O71 2.352 . S
C5 C2 1.481 . S
C5 N8 1.327 . S
C5 C9 1.407 . S
C6 C7 1.346 . S
C6 C10 1.390 . S
C6 H74 0.930 . S
C7 C6 1.346 . S
C7 N8 1.342 . S
C7 C12 1.516 . S
N8 C5 1.327 . S
N8 C7 1.342 . S
N8 Co11 1.864 . S
C9 C5 1.407 . S
C9 C10 1.364 . S
C9 H75 0.930 . S
C10 C6 1.390 . S
C10 C9 1.364 . S
C10 H76 0.931 . S
Co11 N8 1.864 . S
Co11 N27 1.955 . S
Co11 N28 1.958 . S
Co11 N29 1.953 . S
Co11 N47 1.869 . S
Co11 N53 1.974 . S
C12 C7 1.516 . S
C12 O13 1.238 . S
C12 N28 1.324 . S
O13 C12 1.238 . S
C14 C15 1.394 . S
C14 C19 1.395 . S
C14 N28 1.427 . S
C15 C14 1.394 . S
C15 C16 1.380 . S
C15 H77 0.929 . S
C16 C15 1.380 . S
C16 C17 1.384 . S
C16 C20 1.495 . S
C17 C16 1.384 . S
C17 C18 1.382 . S
C17 H78 0.930 . S
C18 C17 1.382 . S
C18 C19 1.398 . S
C19 C14 1.395 . S
C19 C18 1.398 . S
C19 H79 0.930 . S
C20 C16 1.495 . S
C20 O67 1.258 . S
C20 O68 1.274 . S
C21 C22 1.385 . S
C21 C23 1.381 . S
C21 N27 1.432 . S
C22 C21 1.385 . S
C22 C26 1.388 1_554 S
C22 H80 0.929 1_554 S
C23 C21 1.381 . S
C23 C24 1.371 . S
C23 H81 0.932 . S
C24 C23 1.371 . S
C24 C25 1.400 1_455 S
C25 C24 1.400 1_655 S
C25 C26 1.351 1_654 S
C25 H82 0.930 . S
C26 C22 1.388 1_556 S
C26 C25 1.351 1_456 S
N27 C2 1.329 . S
N27 Co11 1.955 . S
N27 C21 1.432 . S
N28 Co11 1.958 . S
N28 C12 1.324 . S
N28 C14 1.427 . S
N29 Co11 1.953 . S
N29 C30 1.436 . S
N29 C56 1.316 . S
C30 N29 1.436 . S
C30 C31 1.421 . S
C30 C32 1.360 . S
C31 C30 1.421 . S
C31 C33 1.379 1_554 S
C31 H34 0.930 1_554 S
C32 C30 1.360 . S
C32 C36 1.393 . S
C32 H38 0.931 . S
C33 C31 1.379 1_556 S
C33 C35 1.417 . S
C33 C37 1.505 . S
H34 C31 0.930 1_556 S
C35 C33 1.417 . S
C35 C36 1.352 1_556 S
C35 H39 0.929 . S
C36 C32 1.393 . S
C36 C35 1.352 1_554 S
C36 C40 1.482 . S
C37 C33 1.505 . S
C37 O41 1.259 . S
C37 O42 1.229 . S
H38 C32 0.931 . S
H39 C35 0.929 . S
C40 C36 1.482 . S
C40 O43 1.207 . S
C40 O44 1.289 . S
O41 C37 1.259 . S
O41 H45 0.822 . S
O42 C37 1.229 . S
O43 C40 1.207 . S
O44 C40 1.289 . S
O44 H46 0.819 . S
H45 O41 0.822 . S
H46 O44 0.819 . S
N47 Co11 1.869 . S
N47 C48 1.330 . S
N47 C52 1.325 . S
C48 N47 1.330 . S
C48 C49 1.359 . S
C48 C54 1.504 . S
C49 C48 1.359 . S
C49 C50 1.366 . S
C49 H83 0.929 . S
C50 C49 1.366 . S
C50 C51 1.415 . S
C50 H84 0.932 1_455 S
C51 C50 1.415 . S
C51 C52 1.366 . S
C51 H85 0.931 . S
C52 N47 1.325 . S
C52 C51 1.366 . S
C52 C56 1.516 . S
N53 Co11 1.974 . S
N53 C54 1.309 . S
N53 C59 1.423 . S
C54 C48 1.504 . S
C54 N53 1.309 . S
C54 O55 1.258 . S
O55 C54 1.258 . S
C56 N29 1.316 . S
C56 C52 1.516 . S
C56 O69 1.263 . S
O57 Cd0 2.350 . S
O57 C73 1.270 . S
O58 Cd0 2.277 . S
O58 C73 1.248 . S
C59 N53 1.423 . S
C59 C60 1.370 . S
C59 C64 1.403 . S
C60 C59 1.370 . S
C60 C61 1.389 . S
C60 H86 0.931 . S
C61 C60 1.389 . S
C61 C62 1.389 . S
C62 C61 1.389 . S
C62 C63 1.379 . S
C62 H87 0.929 . S
C63 C62 1.379 . S
C63 C64 1.405 . S
C64 C59 1.403 . S
C64 C63 1.405 . S
C64 H88 0.932 . S
O65 Cd0 2.173 . S
O65 C1 1.277 . S
O66 C1 1.230 . S
O66 Cd4 2.250 . S
O67 Cd0 2.263 . S
O67 C20 1.258 . S
O68 Cd4 2.308 . S
O68 C20 1.274 . S
O69 Cd0 2.366 . S
O69 C56 1.263 . S
C70 O71 1.235 . S
C70 O72 1.270 . S
O71 Cd4 2.352 . S
O71 C70 1.235 . S
O72 Cd0 2.329 . S
O72 C70 1.270 . S
C73 O57 1.270 . S
C73 O58 1.248 . S
H74 C6 0.930 . S
H75 C9 0.930 . S
H76 C10 0.931 . S
H77 C15 0.929 . S
H78 C17 0.930 . S
H79 C19 0.930 . S
H80 C22 0.929 1_556 S
H81 C23 0.932 . S
H82 C25 0.930 . S
H83 C49 0.929 . S
H84 C50 0.932 1_655 S
H85 C51 0.931 . S
H86 C60 0.931 . S
H87 C62 0.929 . S
H88 C64 0.932 . S
Cd89 O146 2.350 1_655 S
Cd89 O147 2.277 . S
Cd89 O154 2.173 . S
Cd89 O156 2.263 . S
Cd89 O158 2.366 . S
Cd89 O161 2.329 1_655 S
C90 O154 1.277 . S
C90 O155 1.230 . S
C91 O92 1.246 . S
C91 C94 1.481 . S
C91 N116 1.329 . S
O92 C91 1.246 . S
Cd93 O155 2.250 1_455 S
Cd93 O157 2.308 1_455 S
Cd93 O160 2.352 . S
C94 C91 1.481 . S
C94 N97 1.327 . S
C94 C98 1.407 . S
C95 C96 1.346 . S
C95 C99 1.390 . S
C95 H163 0.930 . S
C96 C95 1.346 . S
C96 N97 1.342 . S
C96 C101 1.516 . S
N97 C94 1.327 . S
N97 C96 1.342 . S
N97 Co100 1.864 . S
C98 C94 1.407 . S
C98 C99 1.364 . S
C98 H164 0.930 . S
C99 C95 1.390 . S
C99 C98 1.364 . S
C99 H165 0.931 . S
Co100 N97 1.864 . S
Co100 N116 1.955 . S
Co100 N117 1.958 . S
Co100 N118 1.953 . S
Co100 N136 1.869 . S
Co100 N142 1.974 . S
C101 C96 1.516 . S
C101 O102 1.238 . S
C101 N117 1.324 . S
O102 C101 1.238 . S
C103 C104 1.394 . S
C103 C108 1.395 . S
C103 N117 1.427 . S
C104 C103 1.394 . S
C104 C105 1.380 . S
C104 H166 0.929 . S
C105 C104 1.380 . S
C105 C106 1.384 . S
C105 C109 1.495 . S
C106 C105 1.384 . S
C106 C107 1.382 . S
C106 H167 0.930 . S
C107 C106 1.382 . S
C107 C108 1.398 . S
C108 C103 1.395 . S
C108 C107 1.398 . S
C108 H168 0.930 . S
C109 C105 1.495 . S
C109 O156 1.258 . S
C109 O157 1.274 . S
C110 C111 1.385 . S
C110 C112 1.381 . S
C110 N116 1.432 . S
C111 C110 1.385 . S
C111 C115 1.388 . S
C111 H169 0.929 . S
C112 C110 1.381 . S
C112 C113 1.371 . S
C112 H170 0.932 . S
C113 C112 1.371 . S
C113 C114 1.400 1_545 S
C114 C113 1.400 1_565 S
C114 C115 1.351 1_565 S
C114 H171 0.930 . S
C115 C111 1.388 . S
C115 C114 1.351 1_545 S
N116 C91 1.329 . S
N116 Co100 1.955 . S
N116 C110 1.432 . S
N117 Co100 1.958 . S
N117 C101 1.324 . S
N117 C103 1.427 . S
N118 Co100 1.953 . S
N118 C119 1.436 . S
N118 C145 1.316 . S
C119 N118 1.436 . S
C119 C120 1.421 . S
C119 C121 1.360 . S
C120 C119 1.421 . S
C120 C122 1.379 . S
C120 H123 0.929 . S
C121 C119 1.360 . S
C121 C125 1.393 . S
C121 H127 0.931 . S
C122 C120 1.379 . S
C122 C124 1.417 . S
C122 C126 1.505 . S
H123 C120 0.929 . S
C124 C122 1.417 . S
C124 C125 1.352 . S
C124 H128 0.929 . S
C125 C121 1.393 . S
C125 C124 1.352 . S
C125 C129 1.482 . S
C126 C122 1.505 . S
C126 O130 1.259 . S
C126 O131 1.229 . S
H127 C121 0.931 . S
H128 C124 0.929 . S
C129 C125 1.482 . S
C129 O132 1.207 . S
C129 O133 1.289 1_655 S
O130 C126 1.259 . S
O130 H134 0.822 . S
O131 C126 1.229 . S
O132 C129 1.207 . S
O133 C129 1.289 1_455 S
O133 H135 0.819 . S
H134 O130 0.822 . S
H135 O133 0.819 . S
N136 Co100 1.869 . S
N136 C137 1.330 . S
N136 C141 1.325 . S
C137 N136 1.330 . S
C137 C138 1.359 . S
C137 C143 1.504 . S
C138 C137 1.359 . S
C138 C139 1.366 . S
C138 H172 0.929 . S
C139 C138 1.366 . S
C139 C140 1.415 . S
C139 H173 0.932 1_545 S
C140 C139 1.415 . S
C140 C141 1.366 . S
C140 H174 0.931 . S
C141 N136 1.325 . S
C141 C140 1.366 . S
C141 C145 1.516 . S
N142 Co100 1.974 . S
N142 C143 1.309 . S
N142 C148 1.423 . S
C143 C137 1.504 . S
C143 N142 1.309 . S
C143 O144 1.258 . S
O144 C143 1.258 . S
C145 N118 1.316 . S
C145 C141 1.516 . S
C145 O158 1.263 . S
O146 Cd89 2.350 1_455 S
O146 C162 1.270 . S
O147 Cd89 2.277 . S
O147 C162 1.248 1_655 S
C148 N142 1.423 . S
C148 C149 1.370 . S
C148 C153 1.403 . S
C149 C148 1.370 . S
C149 C150 1.389 . S
C149 H175 0.931 . S
C150 C149 1.389 . S
C150 C151 1.389 . S
C151 C150 1.389 . S
C151 C152 1.379 . S
C151 H176 0.929 . S
C152 C151 1.379 . S
C152 C153 1.405 . S
C153 C148 1.403 . S
C153 C152 1.405 . S
C153 H177 0.932 . S
O154 Cd89 2.173 . S
O154 C90 1.277 . S
O155 C90 1.230 . S
O155 Cd93 2.250 1_655 S
O156 Cd89 2.263 . S
O156 C109 1.258 . S
O157 Cd93 2.308 1_655 S
O157 C109 1.274 . S
O158 Cd89 2.366 . S
O158 C145 1.263 . S
C159 O160 1.235 . S
C159 O161 1.270 . S
O160 Cd93 2.352 . S
O160 C159 1.235 . S
O161 Cd89 2.329 1_455 S
O161 C159 1.270 . S
C162 O146 1.270 . S
C162 O147 1.248 1_455 S
H163 C95 0.930 . S
H164 C98 0.930 . S
H165 C99 0.931 . S
H166 C104 0.929 . S
H167 C106 0.930 . S
H168 C108 0.930 . S
H169 C111 0.929 . S
H170 C112 0.932 . S
H171 C114 0.930 . S
H172 C138 0.929 . S
H173 C139 0.932 1_565 S
H174 C140 0.931 . S
H175 C149 0.931 . S
H176 C151 0.929 . S
H177 C153 0.932 . S
Cd178 O235 2.350 1_565 S
Cd178 O236 2.277 . S
Cd178 O243 2.173 . S
Cd178 O245 2.263 . S
Cd178 O247 2.366 . S
Cd178 O250 2.329 1_565 S
C179 O243 1.277 . S
C179 O244 1.230 . S
C180 O181 1.246 . S
C180 C183 1.481 . S
C180 N205 1.329 . S
O181 C180 1.246 . S
Cd182 O244 2.250 1_545 S
Cd182 O246 2.308 1_545 S
Cd182 O249 2.352 . S
C183 C180 1.481 . S
C183 N186 1.327 . S
C183 C187 1.407 . S
C184 C185 1.346 . S
C184 C188 1.390 . S
C184 H252 0.930 . S
C185 C184 1.346 . S
C185 N186 1.342 . S
C185 C190 1.516 . S
N186 C183 1.327 . S
N186 C185 1.342 . S
N186 Co189 1.864 . S
C187 C183 1.407 . S
C187 C188 1.364 . S
C187 H253 0.930 . S
C188 C184 1.390 . S
C188 C187 1.364 . S
C188 H254 0.931 . S
Co189 N186 1.864 . S
Co189 N205 1.955 . S
Co189 N206 1.958 . S
Co189 N207 1.953 . S
Co189 N225 1.869 . S
Co189 N231 1.974 . S
C190 C185 1.516 . S
C190 O191 1.238 . S
C190 N206 1.324 . S
O191 C190 1.238 . S
C192 C193 1.394 . S
C192 C197 1.395 . S
C192 N206 1.427 . S
C193 C192 1.394 . S
C193 C194 1.380 . S
C193 H255 0.929 . S
C194 C193 1.380 . S
C194 C195 1.384 . S
C194 C198 1.495 . S
C195 C194 1.384 . S
C195 C196 1.382 . S
C195 H256 0.930 . S
C196 C195 1.382 . S
C196 C197 1.398 . S
C197 C192 1.395 . S
C197 C196 1.398 . S
C197 H257 0.930 . S
C198 C194 1.495 . S
C198 O245 1.258 . S
C198 O246 1.274 . S
C199 C200 1.385 . S
C199 C201 1.381 . S
C199 N205 1.432 . S
C200 C199 1.385 . S
C200 C204 1.388 1_554 S
C200 H258 0.929 1_554 S
C201 C199 1.381 . S
C201 C202 1.371 . S
C201 H259 0.932 . S
C202 C201 1.371 . S
C202 C203 1.400 . S
C203 C202 1.400 . S
C203 C204 1.351 1_554 S
C203 H260 0.930 . S
C204 C200 1.388 1_556 S
C204 C203 1.351 1_556 S
N205 C180 1.329 . S
N205 Co189 1.955 . S
N205 C199 1.432 . S
N206 Co189 1.958 . S
N206 C190 1.324 . S
N206 C192 1.427 . S
N207 Co189 1.953 . S
N207 C208 1.436 . S
N207 C234 1.316 . S
C208 N207 1.436 . S
C208 C209 1.421 . S
C208 C210 1.360 . S
C209 C208 1.421 . S
C209 C211 1.379 1_554 S
C209 H212 0.930 1_554 S
C210 C208 1.360 . S
C210 C214 1.393 . S
C210 H216 0.931 . S
C211 C209 1.379 1_556 S
C211 C213 1.417 . S
C211 C215 1.505 . S
H212 C209 0.930 1_556 S
C213 C211 1.417 . S
C213 C214 1.352 1_556 S
C213 H217 0.929 . S
C214 C210 1.393 . S
C214 C213 1.352 1_554 S
C214 C218 1.482 . S
C215 C211 1.505 . S
C215 O219 1.259 . S
C215 O220 1.229 . S
H216 C210 0.931 . S
H217 C213 0.929 . S
C218 C214 1.482 . S
C218 O221 1.207 . S
C218 O222 1.289 1_565 S
O219 C215 1.259 . S
O219 H223 0.822 . S
O220 C215 1.229 . S
O221 C218 1.207 . S
O222 C218 1.289 1_545 S
O222 H224 0.819 . S
H223 O219 0.822 . S
H224 O222 0.819 . S
N225 Co189 1.869 . S
N225 C226 1.330 . S
N225 C230 1.325 . S
C226 N225 1.330 . S
C226 C227 1.359 . S
C226 C232 1.504 . S
C227 C226 1.359 . S
C227 C228 1.366 . S
C227 H261 0.929 . S
C228 C227 1.366 . S
C228 C229 1.415 . S
C228 H262 0.932 . S
C229 C228 1.415 . S
C229 C230 1.366 . S
C229 H263 0.931 . S
C230 N225 1.325 . S
C230 C229 1.366 . S
C230 C234 1.516 . S
N231 Co189 1.974 . S
N231 C232 1.309 . S
N231 C237 1.423 . S
C232 C226 1.504 . S
C232 N231 1.309 . S
C232 O233 1.258 . S
O233 C232 1.258 . S
C234 N207 1.316 . S
C234 C230 1.516 . S
C234 O247 1.263 . S
O235 Cd178 2.350 1_545 S
O235 C251 1.270 . S
O236 Cd178 2.277 . S
O236 C251 1.248 1_565 S
C237 N231 1.423 . S
C237 C238 1.370 . S
C237 C242 1.403 . S
C238 C237 1.370 . S
C238 C239 1.389 . S
C238 H264 0.931 . S
C239 C238 1.389 . S
C239 C240 1.389 . S
C240 C239 1.389 . S
C240 C241 1.379 . S
C240 H265 0.929 . S
C241 C240 1.379 . S
C241 C242 1.405 . S
C242 C237 1.403 . S
C242 C241 1.405 . S
C242 H266 0.932 . S
O243 Cd178 2.173 . S
O243 C179 1.277 . S
O244 C179 1.230 . S
O244 Cd182 2.250 1_565 S
O245 Cd178 2.263 . S
O245 C198 1.258 . S
O246 Cd182 2.308 1_565 S
O246 C198 1.274 . S
O247 Cd178 2.366 . S
O247 C234 1.263 . S
C248 O249 1.235 . S
C248 O250 1.270 . S
O249 Cd182 2.352 . S
O249 C248 1.235 . S
O250 Cd178 2.329 1_545 S
O250 C248 1.270 . S
C251 O235 1.270 . S
C251 O236 1.248 1_545 S
H252 C184 0.930 . S
H253 C187 0.930 . S
H254 C188 0.931 . S
H255 C193 0.929 . S
H256 C195 0.930 . S
H257 C197 0.930 . S
H258 C200 0.929 1_556 S
H259 C201 0.932 . S
H260 C203 0.930 . S
H261 C227 0.929 . S
H262 C228 0.932 . S
H263 C229 0.931 . S
H264 C238 0.931 . S
H265 C240 0.929 . S
H266 C242 0.932 . S
Cd267 O324 2.350 . S
Cd267 O325 2.277 . S
Cd267 O332 2.173 . S
Cd267 O334 2.263 . S
Cd267 O336 2.366 . S
Cd267 O339 2.329 . S
C268 O332 1.277 . S
C268 O333 1.230 . S
C269 O270 1.246 . S
C269 C272 1.481 . S
C269 N294 1.329 . S
O270 C269 1.246 . S
Cd271 O333 2.250 . S
Cd271 O335 2.308 . S
Cd271 O338 2.352 . S
C272 C269 1.481 . S
C272 N275 1.327 . S
C272 C276 1.407 . S
C273 C274 1.346 . S
C273 C277 1.390 . S
C273 H341 0.930 . S
C274 C273 1.346 . S
C274 N275 1.342 . S
C274 C279 1.516 . S
N275 C272 1.327 . S
N275 C274 1.342 . S
N275 Co278 1.864 . S
C276 C272 1.407 . S
C276 C277 1.364 . S
C276 H342 0.930 . S
C277 C273 1.390 . S
C277 C276 1.364 . S
C277 H343 0.931 . S
Co278 N275 1.864 . S
Co278 N294 1.955 . S
Co278 N295 1.958 . S
Co278 N296 1.953 . S
Co278 N314 1.869 . S
Co278 N320 1.974 . S
C279 C274 1.516 . S
C279 O280 1.238 . S
C279 N295 1.324 . S
O280 C279 1.238 . S
C281 C282 1.394 . S
C281 C286 1.395 . S
C281 N295 1.427 . S
C282 C281 1.394 . S
C282 C283 1.380 . S
C282 H344 0.929 . S
C283 C282 1.380 . S
C283 C284 1.384 . S
C283 C287 1.495 . S
C284 C283 1.384 . S
C284 C285 1.382 . S
C284 H345 0.930 . S
C285 C284 1.382 . S
C285 C286 1.398 . S
C286 C281 1.395 . S
C286 C285 1.398 . S
C286 H346 0.930 . S
C287 C283 1.495 . S
C287 O334 1.258 . S
C287 O335 1.274 . S
C288 C289 1.385 . S
C288 C290 1.381 . S
C288 N294 1.432 . S
C289 C288 1.385 . S
C289 C293 1.388 . S
C289 H347 0.929 . S
C290 C288 1.381 . S
C290 C291 1.371 . S
C290 H348 0.932 . S
C291 C290 1.371 . S
C291 C292 1.400 1_655 S
C292 C291 1.400 1_455 S
C292 C293 1.351 1_455 S
C292 H349 0.930 . S
C293 C289 1.388 . S
C293 C292 1.351 1_655 S
N294 C269 1.329 . S
N294 Co278 1.955 . S
N294 C288 1.432 . S
N295 Co278 1.958 . S
N295 C279 1.324 . S
N295 C281 1.427 . S
N296 Co278 1.953 . S
N296 C297 1.436 . S
N296 C323 1.316 . S
C297 N296 1.436 . S
C297 C298 1.421 . S
C297 C299 1.360 . S
C298 C297 1.421 . S
C298 C300 1.379 . S
C298 H301 0.929 . S
C299 C297 1.360 . S
C299 C303 1.393 . S
C299 H305 0.931 . S
C300 C298 1.379 . S
C300 C302 1.417 . S
C300 C304 1.505 . S
H301 C298 0.929 . S
C302 C300 1.417 . S
C302 C303 1.352 . S
C302 H306 0.929 . S
C303 C299 1.393 . S
C303 C302 1.352 . S
C303 C307 1.482 . S
C304 C300 1.505 . S
C304 O308 1.259 . S
C304 O309 1.229 . S
H305 C299 0.931 . S
H306 C302 0.929 . S
C307 C303 1.482 . S
C307 O310 1.207 . S
C307 O311 1.289 . S
O308 C304 1.259 . S
O308 H312 0.822 . S
O309 C304 1.229 . S
O310 C307 1.207 . S
O311 C307 1.289 . S
O311 H313 0.819 . S
H312 O308 0.822 . S
H313 O311 0.819 . S
N314 Co278 1.869 . S
N314 C315 1.330 . S
N314 C319 1.325 . S
C315 N314 1.330 . S
C315 C316 1.359 . S
C315 C321 1.504 . S
C316 C315 1.359 . S
C316 C317 1.366 . S
C316 H350 0.929 . S
C317 C316 1.366 . S
C317 C318 1.415 . S
C317 H351 0.932 1_655 S
C318 C317 1.415 . S
C318 C319 1.366 . S
C318 H352 0.931 . S
C319 N314 1.325 . S
C319 C318 1.366 . S
C319 C323 1.516 . S
N320 Co278 1.974 . S
N320 C321 1.309 . S
N320 C326 1.423 . S
C321 C315 1.504 . S
C321 N320 1.309 . S
C321 O322 1.258 . S
O322 C321 1.258 . S
C323 N296 1.316 . S
C323 C319 1.516 . S
C323 O336 1.263 . S
O324 Cd267 2.350 . S
O324 C340 1.270 . S
O325 Cd267 2.277 . S
O325 C340 1.248 . S
C326 N320 1.423 . S
C326 C327 1.370 . S
C326 C331 1.403 . S
C327 C326 1.370 . S
C327 C328 1.389 . S
C327 H353 0.931 . S
C328 C327 1.389 . S
C328 C329 1.389 . S
C329 C328 1.389 . S
C329 C330 1.379 . S
C329 H354 0.929 . S
C330 C329 1.379 . S
C330 C331 1.405 . S
C331 C326 1.403 . S
C331 C330 1.405 . S
C331 H355 0.932 . S
O332 Cd267 2.173 . S
O332 C268 1.277 . S
O333 C268 1.230 . S
O333 Cd271 2.250 . S
O334 Cd267 2.263 . S
O334 C287 1.258 . S
O335 Cd271 2.308 . S
O335 C287 1.274 . S
O336 Cd267 2.366 . S
O336 C323 1.263 . S
C337 O338 1.235 . S
C337 O339 1.270 . S
O338 Cd271 2.352 . S
O338 C337 1.235 . S
O339 Cd267 2.329 . S
O339 C337 1.270 . S
C340 O324 1.270 . S
C340 O325 1.248 . S
H341 C273 0.930 . S
H342 C276 0.930 . S
H343 C277 0.931 . S
H344 C282 0.929 . S
H345 C284 0.930 . S
H346 C286 0.930 . S
H347 C289 0.929 . S
H348 C290 0.932 . S
H349 C292 0.930 . S
H350 C316 0.929 . S
H351 C317 0.932 1_455 S
H352 C318 0.931 . S
H353 C327 0.931 . S
H354 C329 0.929 . S
H355 C331 0.932 . S
Cd356 O413 2.350 1_455 S
Cd356 O414 2.277 . S
Cd356 O421 2.173 . S
Cd356 O423 2.263 . S
Cd356 O425 2.366 . S
Cd356 O428 2.329 1_455 S
C357 O421 1.277 . S
C357 O422 1.230 . S
C358 O359 1.246 . S
C358 C361 1.481 . S
C358 N383 1.329 . S
O359 C358 1.246 . S
Cd360 O422 2.250 1_655 S
Cd360 O424 2.308 1_655 S
Cd360 O427 2.352 . S
C361 C358 1.481 . S
C361 N364 1.327 . S
C361 C365 1.407 . S
C362 C363 1.346 . S
C362 C366 1.390 . S
C362 H430 0.930 . S
C363 C362 1.346 . S
C363 N364 1.342 . S
C363 C368 1.516 . S
N364 C361 1.327 . S
N364 C363 1.342 . S
N364 Co367 1.864 . S
C365 C361 1.407 . S
C365 C366 1.364 . S
C365 H431 0.930 . S
C366 C362 1.390 . S
C366 C365 1.364 . S
C366 H432 0.931 . S
Co367 N364 1.864 . S
Co367 N383 1.955 . S
Co367 N384 1.958 . S
Co367 N385 1.953 . S
Co367 N403 1.869 . S
Co367 N409 1.974 . S
C368 C363 1.516 . S
C368 O369 1.238 . S
C368 N384 1.324 . S
O369 C368 1.238 . S
C370 C371 1.394 . S
C370 C375 1.395 . S
C370 N384 1.427 . S
C371 C370 1.394 . S
C371 C372 1.380 . S
C371 H433 0.929 . S
C372 C371 1.380 . S
C372 C373 1.384 . S
C372 C376 1.495 . S
C373 C372 1.384 . S
C373 C374 1.382 . S
C373 H434 0.930 . S
C374 C373 1.382 . S
C374 C375 1.398 . S
C375 C370 1.395 . S
C375 C374 1.398 . S
C375 H435 0.930 . S
C376 C372 1.495 . S
C376 O423 1.258 . S
C376 O424 1.274 . S
C377 C378 1.385 . S
C377 C379 1.381 . S
C377 N383 1.432 . S
C378 C377 1.385 . S
C378 C382 1.388 1_554 S
C378 H436 0.929 1_554 S
C379 C377 1.381 . S
C379 C380 1.371 . S
C379 H437 0.932 . S
C380 C379 1.371 . S
C380 C381 1.400 1_565 S
C381 C380 1.400 1_545 S
C381 C382 1.351 1_544 S
C381 H438 0.930 . S
C382 C378 1.388 1_556 S
C382 C381 1.351 1_566 S
N383 C358 1.329 . S
N383 Co367 1.955 . S
N383 C377 1.432 . S
N384 Co367 1.958 . S
N384 C368 1.324 . S
N384 C370 1.427 . S
N385 Co367 1.953 . S
N385 C386 1.436 . S
N385 C412 1.316 . S
C386 N385 1.436 . S
C386 C387 1.421 . S
C386 C388 1.360 . S
C387 C386 1.421 . S
C387 C389 1.379 1_554 S
C387 H390 0.930 1_554 S
C388 C386 1.360 . S
C388 C392 1.393 . S
C388 H394 0.931 . S
C389 C387 1.379 1_556 S
C389 C391 1.417 . S
C389 C393 1.505 . S
H390 C387 0.930 1_556 S
C391 C389 1.417 . S
C391 C392 1.352 1_556 S
C391 H395 0.929 . S
C392 C388 1.393 . S
C392 C391 1.352 1_554 S
C392 C396 1.482 . S
C393 C389 1.505 . S
C393 O397 1.259 . S
C393 O398 1.229 . S
H394 C388 0.931 . S
H395 C391 0.929 . S
C396 C392 1.482 . S
C396 O399 1.207 . S
C396 O400 1.289 1_455 S
O397 C393 1.259 . S
O397 H401 0.822 . S
O398 C393 1.229 . S
O399 C396 1.207 . S
O400 C396 1.289 1_655 S
O400 H402 0.819 . S
H401 O397 0.822 . S
H402 O400 0.819 . S
N403 Co367 1.869 . S
N403 C404 1.330 . S
N403 C408 1.325 . S
C404 N403 1.330 . S
C404 C405 1.359 . S
C404 C410 1.504 . S
C405 C404 1.359 . S
C405 C406 1.366 . S
C405 H439 0.929 . S
C406 C405 1.366 . S
C406 C407 1.415 . S
C406 H440 0.932 1_565 S
C407 C406 1.415 . S
C407 C408 1.366 . S
C407 H441 0.931 . S
C408 N403 1.325 . S
C408 C407 1.366 . S
C408 C412 1.516 . S
N409 Co367 1.974 . S
N409 C410 1.309 . S
N409 C415 1.423 . S
C410 C404 1.504 . S
C410 N409 1.309 . S
C410 O411 1.258 . S
O411 C410 1.258 . S
C412 N385 1.316 . S
C412 C408 1.516 . S
C412 O425 1.263 . S
O413 Cd356 2.350 1_655 S
O413 C429 1.270 . S
O414 Cd356 2.277 . S
O414 C429 1.248 1_455 S
C415 N409 1.423 . S
C415 C416 1.370 . S
C415 C420 1.403 . S
C416 C415 1.370 . S
C416 C417 1.389 . S
C416 H442 0.931 . S
C417 C416 1.389 . S
C417 C418 1.389 . S
C418 C417 1.389 . S
C418 C419 1.379 . S
C418 H443 0.929 . S
C419 C418 1.379 . S
C419 C420 1.405 . S
C420 C415 1.403 . S
C420 C419 1.405 . S
C420 H444 0.932 . S
O421 Cd356 2.173 . S
O421 C357 1.277 . S
O422 C357 1.230 . S
O422 Cd360 2.250 1_455 S
O423 Cd356 2.263 . S
O423 C376 1.258 . S
O424 Cd360 2.308 1_455 S
O424 C376 1.274 . S
O425 Cd356 2.366 . S
O425 C412 1.263 . S
C426 O427 1.235 . S
C426 O428 1.270 . S
O427 Cd360 2.352 . S
O427 C426 1.235 . S
O428 Cd356 2.329 1_655 S
O428 C426 1.270 . S
C429 O413 1.270 . S
C429 O414 1.248 1_655 S
H430 C362 0.930 . S
H431 C365 0.930 . S
H432 C366 0.931 . S
H433 C371 0.929 . S
H434 C373 0.930 . S
H435 C375 0.930 . S
H436 C378 0.929 1_556 S
H437 C379 0.932 . S
H438 C381 0.930 . S
H439 C405 0.929 . S
H440 C406 0.932 1_545 S
H441 C407 0.931 . S
H442 C416 0.931 . S
H443 C418 0.929 . S
H444 C420 0.932 . S
Cd445 O502 2.350 1_545 S
Cd445 O503 2.277 . S
Cd445 O510 2.173 . S
Cd445 O512 2.263 . S
Cd445 O514 2.366 . S
Cd445 O517 2.329 1_545 S
C446 O510 1.277 . S
C446 O511 1.230 . S
C447 O448 1.246 . S
C447 C450 1.481 . S
C447 N472 1.329 . S
O448 C447 1.246 . S
Cd449 O511 2.250 1_565 S
Cd449 O513 2.308 1_565 S
Cd449 O516 2.352 . S
C450 C447 1.481 . S
C450 N453 1.327 . S
C450 C454 1.407 . S
C451 C452 1.346 . S
C451 C455 1.390 . S
C451 H519 0.930 . S
C452 C451 1.346 . S
C452 N453 1.342 . S
C452 C457 1.516 . S
N453 C450 1.327 . S
N453 C452 1.342 . S
N453 Co456 1.864 . S
C454 C450 1.407 . S
C454 C455 1.364 . S
C454 H520 0.930 . S
C455 C451 1.390 . S
C455 C454 1.364 . S
C455 H521 0.931 . S
Co456 N453 1.864 . S
Co456 N472 1.955 . S
Co456 N473 1.958 . S
Co456 N474 1.953 . S
Co456 N492 1.869 . S
Co456 N498 1.974 . S
C457 C452 1.516 . S
C457 O458 1.238 . S
C457 N473 1.324 . S
O458 C457 1.238 . S
C459 C460 1.394 . S
C459 C464 1.395 . S
C459 N473 1.427 . S
C460 C459 1.394 . S
C460 C461 1.380 . S
C460 H522 0.929 . S
C461 C460 1.380 . S
C461 C462 1.384 . S
C461 C465 1.495 . S
C462 C461 1.384 . S
C462 C463 1.382 . S
C462 H523 0.930 . S
C463 C462 1.382 . S
C463 C464 1.398 . S
C464 C459 1.395 . S
C464 C463 1.398 . S
C464 H524 0.930 . S
C465 C461 1.495 . S
C465 O512 1.258 . S
C465 O513 1.274 . S
C466 C467 1.385 . S
C466 C468 1.381 . S
C466 N472 1.432 . S
C467 C466 1.385 . S
C467 C471 1.388 . S
C467 H525 0.929 . S
C468 C466 1.381 . S
C468 C469 1.371 . S
C468 H526 0.932 . S
C469 C468 1.371 . S
C469 C470 1.400 . S
C470 C469 1.400 . S
C470 C471 1.351 . S
C470 H527 0.930 . S
C471 C467 1.388 . S
C471 C470 1.351 . S
N472 C447 1.329 . S
N472 Co456 1.955 . S
N472 C466 1.432 . S
N473 Co456 1.958 . S
N473 C457 1.324 . S
N473 C459 1.427 . S
N474 Co456 1.953 . S
N474 C475 1.436 . S
N474 C501 1.316 . S
C475 N474 1.436 . S
C475 C476 1.421 . S
C475 C477 1.360 . S
C476 C475 1.421 . S
C476 C478 1.379 . S
C476 H479 0.929 . S
C477 C475 1.360 . S
C477 C481 1.393 . S
C477 H483 0.931 . S
C478 C476 1.379 . S
C478 C480 1.417 . S
C478 C482 1.505 . S
H479 C476 0.929 . S
C480 C478 1.417 . S
C480 C481 1.352 . S
C480 H484 0.929 . S
C481 C477 1.393 . S
C481 C480 1.352 . S
C481 C485 1.482 . S
C482 C478 1.505 . S
C482 O486 1.259 . S
C482 O487 1.229 . S
H483 C477 0.931 . S
H484 C480 0.929 . S
C485 C481 1.482 . S
C485 O488 1.207 . S
C485 O489 1.289 1_545 S
O486 C482 1.259 . S
O486 H490 0.822 . S
O487 C482 1.229 . S
O488 C485 1.207 . S
O489 C485 1.289 1_565 S
O489 H491 0.819 . S
H490 O486 0.822 . S
H491 O489 0.819 . S
N492 Co456 1.869 . S
N492 C493 1.330 . S
N492 C497 1.325 . S
C493 N492 1.330 . S
C493 C494 1.359 . S
C493 C499 1.504 . S
C494 C493 1.359 . S
C494 C495 1.366 . S
C494 H528 0.929 . S
C495 C494 1.366 . S
C495 C496 1.415 . S
C495 H529 0.932 . S
C496 C495 1.415 . S
C496 C497 1.366 . S
C496 H530 0.931 . S
C497 N492 1.325 . S
C497 C496 1.366 . S
C497 C501 1.516 . S
N498 Co456 1.974 . S
N498 C499 1.309 . S
N498 C504 1.423 . S
C499 C493 1.504 . S
C499 N498 1.309 . S
C499 O500 1.258 . S
O500 C499 1.258 . S
C501 N474 1.316 . S
C501 C497 1.516 . S
C501 O514 1.263 . S
O502 Cd445 2.350 1_565 S
O502 C518 1.270 . S
O503 Cd445 2.277 . S
O503 C518 1.248 1_545 S
C504 N498 1.423 . S
C504 C505 1.370 . S
C504 C509 1.403 . S
C505 C504 1.370 . S
C505 C506 1.389 . S
C505 H531 0.931 . S
C506 C505 1.389 . S
C506 C507 1.389 . S
C507 C506 1.389 . S
C507 C508 1.379 . S
C507 H532 0.929 . S
C508 C507 1.379 . S
C508 C509 1.405 . S
C509 C504 1.403 . S
C509 C508 1.405 . S
C509 H533 0.932 . S
O510 Cd445 2.173 . S
O510 C446 1.277 . S
O511 C446 1.230 . S
O511 Cd449 2.250 1_545 S
O512 Cd445 2.263 . S
O512 C465 1.258 . S
O513 Cd449 2.308 1_545 S
O513 C465 1.274 . S
O514 Cd445 2.366 . S
O514 C501 1.263 . S
C515 O516 1.235 . S
C515 O517 1.270 . S
O516 Cd449 2.352 . S
O516 C515 1.235 . S
O517 Cd445 2.329 1_565 S
O517 C515 1.270 . S
C518 O502 1.270 . S
C518 O503 1.248 1_565 S
H519 C451 0.930 . S
H520 C454 0.930 . S
H521 C455 0.931 . S
H522 C460 0.929 . S
H523 C462 0.930 . S
H524 C464 0.930 . S
H525 C467 0.929 . S
H526 C468 0.932 . S
H527 C470 0.930 . S
H528 C494 0.929 . S
H529 C495 0.932 . S
H530 C496 0.931 . S
H531 C505 0.931 . S
H532 C507 0.929 . S
H533 C509 0.932 . S
Cd534 O591 2.350 . S
Cd534 O592 2.277 . S
Cd534 O599 2.173 . S
Cd534 O601 2.263 . S
Cd534 O603 2.366 . S
Cd534 O606 2.329 . S
C535 O599 1.277 . S
C535 O600 1.230 . S
C536 O537 1.246 . S
C536 C539 1.481 . S
C536 N561 1.329 . S
O537 C536 1.246 . S
Cd538 O600 2.250 . S
Cd538 O602 2.308 . S
Cd538 O605 2.352 . S
C539 C536 1.481 . S
C539 N542 1.327 . S
C539 C543 1.407 . S
C540 C541 1.346 . S
C540 C544 1.390 . S
C540 H608 0.930 . S
C541 C540 1.346 . S
C541 N542 1.342 . S
C541 C546 1.516 . S
N542 C539 1.327 . S
N542 C541 1.342 . S
N542 Co545 1.864 . S
C543 C539 1.407 . S
C543 C544 1.364 . S
C543 H609 0.930 . S
C544 C540 1.390 . S
C544 C543 1.364 . S
C544 H610 0.931 . S
Co545 N542 1.864 . S
Co545 N561 1.955 . S
Co545 N562 1.958 . S
Co545 N563 1.953 . S
Co545 N581 1.869 . S
Co545 N587 1.974 . S
C546 C541 1.516 . S
C546 O547 1.238 . S
C546 N562 1.324 . S
O547 C546 1.238 . S
C548 C549 1.394 . S
C548 C553 1.395 . S
C548 N562 1.427 . S
C549 C548 1.394 . S
C549 C550 1.380 . S
C549 H611 0.929 . S
C550 C549 1.380 . S
C550 C551 1.384 . S
C550 C554 1.495 . S
C551 C550 1.384 . S
C551 C552 1.382 . S
C551 H612 0.930 . S
C552 C551 1.382 . S
C552 C553 1.398 . S
C553 C548 1.395 . S
C553 C552 1.398 . S
C553 H613 0.930 . S
C554 C550 1.495 . S
C554 O601 1.258 . S
C554 O602 1.274 . S
C555 C556 1.385 . S
C555 C557 1.381 . S
C555 N561 1.432 . S
C556 C555 1.385 . S
C556 C560 1.388 . S
C556 H614 0.929 . S
C557 C555 1.381 . S
C557 C558 1.371 . S
C557 H615 0.932 . S
C558 C557 1.371 . S
C558 C559 1.400 1_565 S
C559 C558 1.400 1_545 S
C559 C560 1.351 1_545 S
C559 H616 0.930 . S
C560 C556 1.388 . S
C560 C559 1.351 1_565 S
N561 C536 1.329 . S
N561 Co545 1.955 . S
N561 C555 1.432 . S
N562 Co545 1.958 . S
N562 C546 1.324 . S
N562 C548 1.427 . S
N563 Co545 1.953 . S
N563 C564 1.436 . S
N563 C590 1.316 . S
C564 N563 1.436 . S
C564 C565 1.421 . S
C564 C566 1.360 . S
C565 C564 1.421 . S
C565 C567 1.379 . S
C565 H568 0.929 . S
C566 C564 1.360 . S
C566 C570 1.393 . S
C566 H572 0.931 . S
C567 C565 1.379 . S
C567 C569 1.417 . S
C567 C571 1.505 . S
H568 C565 0.929 . S
C569 C567 1.417 . S
C569 C570 1.352 . S
C569 H573 0.929 . S
C570 C566 1.393 . S
C570 C569 1.352 . S
C570 C574 1.482 . S
C571 C567 1.505 . S
C571 O575 1.259 . S
C571 O576 1.229 . S
H572 C566 0.931 . S
H573 C569 0.929 . S
C574 C570 1.482 . S
C574 O577 1.207 . S
C574 O578 1.289 . S
O575 C571 1.259 . S
O575 H579 0.822 . S
O576 C571 1.229 . S
O577 C574 1.207 . S
O578 C574 1.289 . S
O578 H580 0.819 . S
H579 O575 0.822 . S
H580 O578 0.819 . S
N581 Co545 1.869 . S
N581 C582 1.330 . S
N581 C586 1.325 . S
C582 N581 1.330 . S
C582 C583 1.359 . S
C582 C588 1.504 . S
C583 C582 1.359 . S
C583 C584 1.366 . S
C583 H617 0.929 . S
C584 C583 1.366 . S
C584 C585 1.415 . S
C584 H618 0.932 1_565 S
C585 C584 1.415 . S
C585 C586 1.366 . S
C585 H619 0.931 . S
C586 N581 1.325 . S
C586 C585 1.366 . S
C586 C590 1.516 . S
N587 Co545 1.974 . S
N587 C588 1.309 . S
N587 C593 1.423 . S
C588 C582 1.504 . S
C588 N587 1.309 . S
C588 O589 1.258 . S
O589 C588 1.258 . S
C590 N563 1.316 . S
C590 C586 1.516 . S
C590 O603 1.263 . S
O591 Cd534 2.350 . S
O591 C607 1.270 . S
O592 Cd534 2.277 . S
O592 C607 1.248 . S
C593 N587 1.423 . S
C593 C594 1.370 . S
C593 C598 1.403 . S
C594 C593 1.370 . S
C594 C595 1.389 . S
C594 H620 0.931 . S
C595 C594 1.389 . S
C595 C596 1.389 . S
C596 C595 1.389 . S
C596 C597 1.379 . S
C596 H621 0.929 . S
C597 C596 1.379 . S
C597 C598 1.405 . S
C598 C593 1.403 . S
C598 C597 1.405 . S
C598 H622 0.932 . S
O599 Cd534 2.173 . S
O599 C535 1.277 . S
O600 C535 1.230 . S
O600 Cd538 2.250 . S
O601 Cd534 2.263 . S
O601 C554 1.258 . S
O602 Cd538 2.308 . S
O602 C554 1.274 . S
O603 Cd534 2.366 . S
O603 C590 1.263 . S
C604 O605 1.235 . S
C604 O606 1.270 . S
O605 Cd538 2.352 . S
O605 C604 1.235 . S
O606 Cd534 2.329 . S
O606 C604 1.270 . S
C607 O591 1.270 . S
C607 O592 1.248 . S
H608 C540 0.930 . S
H609 C543 0.930 . S
H610 C544 0.931 . S
H611 C549 0.929 . S
H612 C551 0.930 . S
H613 C553 0.930 . S
H614 C556 0.929 . S
H615 C557 0.932 . S
H616 C559 0.930 . S
H617 C583 0.929 . S
H618 C584 0.932 1_545 S
H619 C585 0.931 . S
H620 C594 0.931 . S
H621 C596 0.929 . S
H622 C598 0.932 . S
Cd623 O680 2.350 1_655 S
Cd623 O681 2.277 . S
Cd623 O688 2.173 . S
Cd623 O690 2.263 . S
Cd623 O692 2.366 . S
Cd623 O695 2.329 1_655 S
C624 O688 1.277 . S
C624 O689 1.230 . S
C625 O626 1.246 . S
C625 C628 1.481 . S
C625 N650 1.329 . S
O626 C625 1.246 . S
Cd627 O689 2.250 1_455 S
Cd627 O691 2.308 1_455 S
Cd627 O694 2.352 . S
C628 C625 1.481 . S
C628 N631 1.327 . S
C628 C632 1.407 . S
C629 C630 1.346 . S
C629 C633 1.390 . S
C629 H697 0.930 . S
C630 C629 1.346 . S
C630 N631 1.342 . S
C630 C635 1.516 . S
N631 C628 1.327 . S
N631 C630 1.342 . S
N631 Co634 1.864 . S
C632 C628 1.407 . S
C632 C633 1.364 . S
C632 H698 0.930 . S
C633 C629 1.390 . S
C633 C632 1.364 . S
C633 H699 0.931 . S
Co634 N631 1.864 . S
Co634 N650 1.955 . S
Co634 N651 1.958 . S
Co634 N652 1.953 . S
Co634 N670 1.869 . S
Co634 N676 1.974 . S
C635 C630 1.516 . S
C635 O636 1.238 . S
C635 N651 1.324 . S
O636 C635 1.238 . S
C637 C638 1.394 . S
C637 C642 1.395 . S
C637 N651 1.427 . S
C638 C637 1.394 . S
C638 C639 1.380 . S
C638 H700 0.929 . S
C639 C638 1.380 . S
C639 C640 1.384 . S
C639 C643 1.495 . S
C640 C639 1.384 . S
C640 C641 1.382 . S
C640 H701 0.930 . S
C641 C640 1.382 . S
C641 C642 1.398 . S
C642 C637 1.395 . S
C642 C641 1.398 . S
C642 H702 0.930 . S
C643 C639 1.495 . S
C643 O690 1.258 . S
C643 O691 1.274 . S
C644 C645 1.385 . S
C644 C646 1.381 . S
C644 N650 1.432 . S
C645 C644 1.385 . S
C645 C649 1.388 1_556 S
C645 H703 0.929 1_556 S
C646 C644 1.381 . S
C646 C647 1.371 . S
C646 H704 0.932 . S
C647 C646 1.371 . S
C647 C648 1.400 . S
C648 C647 1.400 . S
C648 C649 1.351 1_556 S
C648 H705 0.930 . S
C649 C645 1.388 1_554 S
C649 C648 1.351 1_554 S
N650 C625 1.329 . S
N650 Co634 1.955 . S
N650 C644 1.432 . S
N651 Co634 1.958 . S
N651 C635 1.324 . S
N651 C637 1.427 . S
N652 Co634 1.953 . S
N652 C653 1.436 . S
N652 C679 1.316 . S
C653 N652 1.436 . S
C653 C654 1.421 . S
C653 C655 1.360 . S
C654 C653 1.421 . S
C654 C656 1.379 1_556 S
C654 H657 0.930 1_556 S
C655 C653 1.360 . S
C655 C659 1.393 . S
C655 H661 0.931 . S
C656 C654 1.379 1_554 S
C656 C658 1.417 . S
C656 C660 1.505 . S
H657 C654 0.930 1_554 S
C658 C656 1.417 . S
C658 C659 1.352 1_554 S
C658 H662 0.929 . S
C659 C655 1.393 . S
C659 C658 1.352 1_556 S
C659 C663 1.482 . S
C660 C656 1.505 . S
C660 O664 1.259 . S
C660 O665 1.229 . S
H661 C655 0.931 . S
H662 C658 0.929 . S
C663 C659 1.482 . S
C663 O666 1.207 . S
C663 O667 1.289 1_655 S
O664 C660 1.259 . S
O664 H668 0.822 . S
O665 C660 1.229 . S
O666 C663 1.207 . S
O667 C663 1.289 1_455 S
O667 H669 0.819 . S
H668 O664 0.822 . S
H669 O667 0.819 . S
N670 Co634 1.869 . S
N670 C671 1.330 . S
N670 C675 1.325 . S
C671 N670 1.330 . S
C671 C672 1.359 . S
C671 C677 1.504 . S
C672 C671 1.359 . S
C672 C673 1.366 . S
C672 H706 0.929 . S
C673 C672 1.366 . S
C673 C674 1.415 . S
C673 H707 0.932 . S
C674 C673 1.415 . S
C674 C675 1.366 . S
C674 H708 0.931 . S
C675 N670 1.325 . S
C675 C674 1.366 . S
C675 C679 1.516 . S
N676 Co634 1.974 . S
N676 C677 1.309 . S
N676 C682 1.423 . S
C677 C671 1.504 . S
C677 N676 1.309 . S
C677 O678 1.258 . S
O678 C677 1.258 . S
C679 N652 1.316 . S
C679 C675 1.516 . S
C679 O692 1.263 . S
O680 Cd623 2.350 1_455 S
O680 C696 1.270 . S
O681 Cd623 2.277 . S
O681 C696 1.248 1_655 S
C682 N676 1.423 . S
C682 C683 1.370 . S
C682 C687 1.403 . S
C683 C682 1.370 . S
C683 C684 1.389 . S
C683 H709 0.931 . S
C684 C683 1.389 . S
C684 C685 1.389 . S
C685 C684 1.389 . S
C685 C686 1.379 . S
C685 H710 0.929 . S
C686 C685 1.379 . S
C686 C687 1.405 . S
C687 C682 1.403 . S
C687 C686 1.405 . S
C687 H711 0.932 . S
O688 Cd623 2.173 . S
O688 C624 1.277 . S
O689 C624 1.230 . S
O689 Cd627 2.250 1_655 S
O690 Cd623 2.263 . S
O690 C643 1.258 . S
O691 Cd627 2.308 1_655 S
O691 C643 1.274 . S
O692 Cd623 2.366 . S
O692 C679 1.263 . S
C693 O694 1.235 . S
C693 O695 1.270 . S
O694 Cd627 2.352 . S
O694 C693 1.235 . S
O695 Cd623 2.329 1_455 S
O695 C693 1.270 . S
C696 O680 1.270 . S
C696 O681 1.248 1_455 S
H697 C629 0.930 . S
H698 C632 0.930 . S
H699 C633 0.931 . S
H700 C638 0.929 . S
H701 C640 0.930 . S
H702 C642 0.930 . S
H703 C645 0.929 1_554 S
H704 C646 0.932 . S
H705 C648 0.930 . S
H706 C672 0.929 . S
H707 C673 0.932 . S
H708 C674 0.931 . S
H709 C683 0.931 . S
H710 C685 0.929 . S
H711 C687 0.932 . S
Cd712 O769 2.350 1_565 S
Cd712 O770 2.277 . S
Cd712 O777 2.173 . S
Cd712 O779 2.263 . S
Cd712 O781 2.366 . S
Cd712 O784 2.329 1_565 S
C713 O777 1.277 . S
C713 O778 1.230 . S
C714 O715 1.246 . S
C714 C717 1.481 . S
C714 N739 1.329 . S
O715 C714 1.246 . S
Cd716 O778 2.250 1_545 S
Cd716 O780 2.308 1_545 S
Cd716 O783 2.352 . S
C717 C714 1.481 . S
C717 N720 1.327 . S
C717 C721 1.407 . S
C718 C719 1.346 . S
C718 C722 1.390 . S
C718 H786 0.930 . S
C719 C718 1.346 . S
C719 N720 1.342 . S
C719 C724 1.516 . S
N720 C717 1.327 . S
N720 C719 1.342 . S
N720 Co723 1.864 . S
C721 C717 1.407 . S
C721 C722 1.364 . S
C721 H787 0.930 . S
C722 C718 1.390 . S
C722 C721 1.364 . S
C722 H788 0.931 . S
Co723 N720 1.864 . S
Co723 N739 1.955 . S
Co723 N740 1.958 . S
Co723 N741 1.953 . S
Co723 N759 1.869 . S
Co723 N765 1.974 . S
C724 C719 1.516 . S
C724 O725 1.238 . S
C724 N740 1.324 . S
O725 C724 1.238 . S
C726 C727 1.394 . S
C726 C731 1.395 . S
C726 N740 1.427 . S
C727 C726 1.394 . S
C727 C728 1.380 . S
C727 H789 0.929 . S
C728 C727 1.380 . S
C728 C729 1.384 . S
C728 C732 1.495 . S
C729 C728 1.384 . S
C729 C730 1.382 . S
C729 H790 0.930 . S
C730 C729 1.382 . S
C730 C731 1.398 . S
C731 C726 1.395 . S
C731 C730 1.398 . S
C731 H791 0.930 . S
C732 C728 1.495 . S
C732 O779 1.258 . S
C732 O780 1.274 . S
C733 C734 1.385 . S
C733 C735 1.381 . S
C733 N739 1.432 . S
C734 C733 1.385 . S
C734 C738 1.388 . S
C734 H792 0.929 . S
C735 C733 1.381 . S
C735 C736 1.371 . S
C735 H793 0.932 . S
C736 C735 1.371 . S
C736 C737 1.400 1_455 S
C737 C736 1.400 1_655 S
C737 C738 1.351 1_655 S
C737 H794 0.930 . S
C738 C734 1.388 . S
C738 C737 1.351 1_455 S
N739 C714 1.329 . S
N739 Co723 1.955 . S
N739 C733 1.432 . S
N740 Co723 1.958 . S
N740 C724 1.324 . S
N740 C726 1.427 . S
N741 Co723 1.953 . S
N741 C742 1.436 . S
N741 C768 1.316 . S
C742 N741 1.436 . S
C742 C743 1.421 . S
C742 C744 1.360 . S
C743 C742 1.421 . S
C743 C745 1.379 . S
C743 H746 0.929 . S
C744 C742 1.360 . S
C744 C748 1.393 . S
C744 H750 0.931 . S
C745 C743 1.379 . S
C745 C747 1.417 . S
C745 C749 1.505 . S
H746 C743 0.929 . S
C747 C745 1.417 . S
C747 C748 1.352 . S
C747 H751 0.929 . S
C748 C744 1.393 . S
C748 C747 1.352 . S
C748 C752 1.482 . S
C749 C745 1.505 . S
C749 O753 1.259 . S
C749 O754 1.229 . S
H750 C744 0.931 . S
H751 C747 0.929 . S
C752 C748 1.482 . S
C752 O755 1.207 . S
C752 O756 1.289 1_565 S
O753 C749 1.259 . S
O753 H757 0.822 . S
O754 C749 1.229 . S
O755 C752 1.207 . S
O756 C752 1.289 1_545 S
O756 H758 0.819 . S
H757 O753 0.822 . S
H758 O756 0.819 . S
N759 Co723 1.869 . S
N759 C760 1.330 . S
N759 C764 1.325 . S
C760 N759 1.330 . S
C760 C761 1.359 . S
C760 C766 1.504 . S
C761 C760 1.359 . S
C761 C762 1.366 . S
C761 H795 0.929 . S
C762 C761 1.366 . S
C762 C763 1.415 . S
C762 H796 0.932 1_455 S
C763 C762 1.415 . S
C763 C764 1.366 . S
C763 H797 0.931 . S
C764 N759 1.325 . S
C764 C763 1.366 . S
C764 C768 1.516 . S
N765 Co723 1.974 . S
N765 C766 1.309 . S
N765 C771 1.423 . S
C766 C760 1.504 . S
C766 N765 1.309 . S
C766 O767 1.258 . S
O767 C766 1.258 . S
C768 N741 1.316 . S
C768 C764 1.516 . S
C768 O781 1.263 . S
O769 Cd712 2.350 1_545 S
O769 C785 1.270 . S
O770 Cd712 2.277 . S
O770 C785 1.248 1_565 S
C771 N765 1.423 . S
C771 C772 1.370 . S
C771 C776 1.403 . S
C772 C771 1.370 . S
C772 C773 1.389 . S
C772 H798 0.931 . S
C773 C772 1.389 . S
C773 C774 1.389 . S
C774 C773 1.389 . S
C774 C775 1.379 . S
C774 H799 0.929 . S
C775 C774 1.379 . S
C775 C776 1.405 . S
C776 C771 1.403 . S
C776 C775 1.405 . S
C776 H800 0.932 . S
O777 Cd712 2.173 . S
O777 C713 1.277 . S
O778 C713 1.230 . S
O778 Cd716 2.250 1_565 S
O779 Cd712 2.263 . S
O779 C732 1.258 . S
O780 Cd716 2.308 1_565 S
O780 C732 1.274 . S
O781 Cd712 2.366 . S
O781 C768 1.263 . S
C782 O783 1.235 . S
C782 O784 1.270 . S
O783 Cd716 2.352 . S
O783 C782 1.235 . S
O784 Cd712 2.329 1_545 S
O784 C782 1.270 . S
C785 O769 1.270 . S
C785 O770 1.248 1_545 S
H786 C718 0.930 . S
H787 C721 0.930 . S
H788 C722 0.931 . S
H789 C727 0.929 . S
H790 C729 0.930 . S
H791 C731 0.930 . S
H792 C734 0.929 . S
H793 C735 0.932 . S
H794 C737 0.930 . S
H795 C761 0.929 . S
H796 C762 0.932 1_655 S
H797 C763 0.931 . S
H798 C772 0.931 . S
H799 C774 0.929 . S
H800 C776 0.932 . S
Cd801 O858 2.350 . S
Cd801 O859 2.277 . S
Cd801 O866 2.173 . S
Cd801 O868 2.263 . S
Cd801 O870 2.366 . S
Cd801 O873 2.329 . S
C802 O866 1.277 . S
C802 O867 1.230 . S
C803 O804 1.246 . S
C803 C806 1.481 . S
C803 N828 1.329 . S
O804 C803 1.246 . S
Cd805 O867 2.250 . S
Cd805 O869 2.308 . S
Cd805 O872 2.352 . S
C806 C803 1.481 . S
C806 N809 1.327 . S
C806 C810 1.407 . S
C807 C808 1.346 . S
C807 C811 1.390 . S
C807 H875 0.930 . S
C808 C807 1.346 . S
C808 N809 1.342 . S
C808 C813 1.516 . S
N809 C806 1.327 . S
N809 C808 1.342 . S
N809 Co812 1.864 . S
C810 C806 1.407 . S
C810 C811 1.364 . S
C810 H876 0.930 . S
C811 C807 1.390 . S
C811 C810 1.364 . S
C811 H877 0.931 . S
Co812 N809 1.864 . S
Co812 N828 1.955 . S
Co812 N829 1.958 . S
Co812 N830 1.953 . S
Co812 N848 1.869 . S
Co812 N854 1.974 . S
C813 C808 1.516 . S
C813 O814 1.238 . S
C813 N829 1.324 . S
O814 C813 1.238 . S
C815 C816 1.394 . S
C815 C820 1.395 . S
C815 N829 1.427 . S
C816 C815 1.394 . S
C816 C817 1.380 . S
C816 H878 0.929 . S
C817 C816 1.380 . S
C817 C818 1.384 . S
C817 C821 1.495 . S
C818 C817 1.384 . S
C818 C819 1.382 . S
C818 H879 0.930 . S
C819 C818 1.382 . S
C819 C820 1.398 . S
C820 C815 1.395 . S
C820 C819 1.398 . S
C820 H880 0.930 . S
C821 C817 1.495 . S
C821 O868 1.258 . S
C821 O869 1.274 . S
C822 C823 1.385 . S
C822 C824 1.381 . S
C822 N828 1.432 . S
C823 C822 1.385 . S
C823 C827 1.388 1_556 S
C823 H881 0.929 1_556 S
C824 C822 1.381 . S
C824 C825 1.371 . S
C824 H882 0.932 . S
C825 C824 1.371 . S
C825 C826 1.400 1_545 S
C826 C825 1.400 1_565 S
C826 C827 1.351 1_566 S
C826 H883 0.930 . S
C827 C823 1.388 1_554 S
C827 C826 1.351 1_544 S
N828 C803 1.329 . S
N828 Co812 1.955 . S
N828 C822 1.432 . S
N829 Co812 1.958 . S
N829 C813 1.324 . S
N829 C815 1.427 . S
N830 Co812 1.953 . S
N830 C831 1.436 . S
N830 C857 1.316 . S
C831 N830 1.436 . S
C831 C832 1.421 . S
C831 C833 1.360 . S
C832 C831 1.421 . S
C832 C834 1.379 1_556 S
C832 H835 0.930 1_556 S
C833 C831 1.360 . S
C833 C837 1.393 . S
C833 H839 0.931 . S
C834 C832 1.379 1_554 S
C834 C836 1.417 . S
C834 C838 1.505 . S
H835 C832 0.930 1_554 S
C836 C834 1.417 . S
C836 C837 1.352 1_554 S
C836 H840 0.929 . S
C837 C833 1.393 . S
C837 C836 1.352 1_556 S
C837 C841 1.482 . S
C838 C834 1.505 . S
C838 O842 1.259 . S
C838 O843 1.229 . S
H839 C833 0.931 . S
H840 C836 0.929 . S
C841 C837 1.482 . S
C841 O844 1.207 . S
C841 O845 1.289 . S
O842 C838 1.259 . S
O842 H846 0.822 . S
O843 C838 1.229 . S
O844 C841 1.207 . S
O845 C841 1.289 . S
O845 H847 0.819 . S
H846 O842 0.822 . S
H847 O845 0.819 . S
N848 Co812 1.869 . S
N848 C849 1.330 . S
N848 C853 1.325 . S
C849 N848 1.330 . S
C849 C850 1.359 . S
C849 C855 1.504 . S
C850 C849 1.359 . S
C850 C851 1.366 . S
C850 H884 0.929 . S
C851 C850 1.366 . S
C851 C852 1.415 . S
C851 H885 0.932 1_545 S
C852 C851 1.415 . S
C852 C853 1.366 . S
C852 H886 0.931 . S
C853 N848 1.325 . S
C853 C852 1.366 . S
C853 C857 1.516 . S
N854 Co812 1.974 . S
N854 C855 1.309 . S
N854 C860 1.423 . S
C855 C849 1.504 . S
C855 N854 1.309 . S
C855 O856 1.258 . S
O856 C855 1.258 . S
C857 N830 1.316 . S
C857 C853 1.516 . S
C857 O870 1.263 . S
O858 Cd801 2.350 . S
O858 C874 1.270 . S
O859 Cd801 2.277 . S
O859 C874 1.248 . S
C860 N854 1.423 . S
C860 C861 1.370 . S
C860 C865 1.403 . S
C861 C860 1.370 . S
C861 C862 1.389 . S
C861 H887 0.931 . S
C862 C861 1.389 . S
C862 C863 1.389 . S
C863 C862 1.389 . S
C863 C864 1.379 . S
C863 H888 0.929 . S
C864 C863 1.379 . S
C864 C865 1.405 . S
C865 C860 1.403 . S
C865 C864 1.405 . S
C865 H889 0.932 . S
O866 Cd801 2.173 . S
O866 C802 1.277 . S
O867 C802 1.230 . S
O867 Cd805 2.250 . S
O868 Cd801 2.263 . S
O868 C821 1.258 . S
O869 Cd805 2.308 . S
O869 C821 1.274 . S
O870 Cd801 2.366 . S
O870 C857 1.263 . S
C871 O872 1.235 . S
C871 O873 1.270 . S
O872 Cd805 2.352 . S
O872 C871 1.235 . S
O873 Cd801 2.329 . S
O873 C871 1.270 . S
C874 O858 1.270 . S
C874 O859 1.248 . S
H875 C807 0.930 . S
H876 C810 0.930 . S
H877 C811 0.931 . S
H878 C816 0.929 . S
H879 C818 0.930 . S
H880 C820 0.930 . S
H881 C823 0.929 1_554 S
H882 C824 0.932 . S
H883 C826 0.930 . S
H884 C850 0.929 . S
H885 C851 0.932 1_565 S
H886 C852 0.931 . S
H887 C861 0.931 . S
H888 C863 0.929 . S
H889 C865 0.932 . S
Cd890 O947 2.350 1_455 S
Cd890 O948 2.277 . S
Cd890 O955 2.173 . S
Cd890 O957 2.263 . S
Cd890 O959 2.366 . S
Cd890 O962 2.329 1_455 S
C891 O955 1.277 . S
C891 O956 1.230 . S
C892 O893 1.246 . S
C892 C895 1.481 . S
C892 N917 1.329 . S
O893 C892 1.246 . S
Cd894 O956 2.250 1_655 S
Cd894 O958 2.308 1_655 S
Cd894 O961 2.352 . S
C895 C892 1.481 . S
C895 N898 1.327 . S
C895 C899 1.407 . S
C896 C897 1.346 . S
C896 C900 1.390 . S
C896 H964 0.930 . S
C897 C896 1.346 . S
C897 N898 1.342 . S
C897 C902 1.516 . S
N898 C895 1.327 . S
N898 C897 1.342 . S
N898 Co901 1.864 . S
C899 C895 1.407 . S
C899 C900 1.364 . S
C899 H965 0.930 . S
C900 C896 1.390 . S
C900 C899 1.364 . S
C900 H966 0.931 . S
Co901 N898 1.864 . S
Co901 N917 1.955 . S
Co901 N918 1.958 . S
Co901 N919 1.953 . S
Co901 N937 1.869 . S
Co901 N943 1.974 . S
C902 C897 1.516 . S
C902 O903 1.238 . S
C902 N918 1.324 . S
O903 C902 1.238 . S
C904 C905 1.394 . S
C904 C909 1.395 . S
C904 N918 1.427 . S
C905 C904 1.394 . S
C905 C906 1.380 . S
C905 H967 0.929 . S
C906 C905 1.380 . S
C906 C907 1.384 . S
C906 C910 1.495 . S
C907 C906 1.384 . S
C907 C908 1.382 . S
C907 H968 0.930 . S
C908 C907 1.382 . S
C908 C909 1.398 . S
C909 C904 1.395 . S
C909 C908 1.398 . S
C909 H969 0.930 . S
C910 C906 1.495 . S
C910 O957 1.258 . S
C910 O958 1.274 . S
C911 C912 1.385 . S
C911 C913 1.381 . S
C911 N917 1.432 . S
C912 C911 1.385 . S
C912 C916 1.388 . S
C912 H970 0.929 . S
C913 C911 1.381 . S
C913 C914 1.371 . S
C913 H971 0.932 . S
C914 C913 1.371 . S
C914 C915 1.400 . S
C915 C914 1.400 . S
C915 C916 1.351 . S
C915 H972 0.930 . S
C916 C912 1.388 . S
C916 C915 1.351 . S
N917 C892 1.329 . S
N917 Co901 1.955 . S
N917 C911 1.432 . S
N918 Co901 1.958 . S
N918 C902 1.324 . S
N918 C904 1.427 . S
N919 Co901 1.953 . S
N919 C920 1.436 . S
N919 C946 1.316 . S
C920 N919 1.436 . S
C920 C921 1.421 . S
C920 C922 1.360 . S
C921 C920 1.421 . S
C921 C923 1.379 . S
C921 H924 0.929 . S
C922 C920 1.360 . S
C922 C926 1.393 . S
C922 H928 0.931 . S
C923 C921 1.379 . S
C923 C925 1.417 . S
C923 C927 1.505 . S
H924 C921 0.929 . S
C925 C923 1.417 . S
C925 C926 1.352 . S
C925 H929 0.929 . S
C926 C922 1.393 . S
C926 C925 1.352 . S
C926 C930 1.482 . S
C927 C923 1.505 . S
C927 O931 1.259 . S
C927 O932 1.229 . S
H928 C922 0.931 . S
H929 C925 0.929 . S
C930 C926 1.482 . S
C930 O933 1.207 . S
C930 O934 1.289 1_455 S
O931 C927 1.259 . S
O931 H935 0.822 . S
O932 C927 1.229 . S
O933 C930 1.207 . S
O934 C930 1.289 1_655 S
O934 H936 0.819 . S
H935 O931 0.822 . S
H936 O934 0.819 . S
N937 Co901 1.869 . S
N937 C938 1.330 . S
N937 C942 1.325 . S
C938 N937 1.330 . S
C938 C939 1.359 . S
C938 C944 1.504 . S
C939 C938 1.359 . S
C939 C940 1.366 . S
C939 H973 0.929 . S
C940 C939 1.366 . S
C940 C941 1.415 . S
C940 H974 0.932 . S
C941 C940 1.415 . S
C941 C942 1.366 . S
C941 H975 0.931 . S
C942 N937 1.325 . S
C942 C941 1.366 . S
C942 C946 1.516 . S
N943 Co901 1.974 . S
N943 C944 1.309 . S
N943 C949 1.423 . S
C944 C938 1.504 . S
C944 N943 1.309 . S
C944 O945 1.258 . S
O945 C944 1.258 . S
C946 N919 1.316 . S
C946 C942 1.516 . S
C946 O959 1.263 . S
O947 Cd890 2.350 1_655 S
O947 C963 1.270 . S
O948 Cd890 2.277 . S
O948 C963 1.248 1_455 S
C949 N943 1.423 . S
C949 C950 1.370 . S
C949 C954 1.403 . S
C950 C949 1.370 . S
C950 C951 1.389 . S
C950 H976 0.931 . S
C951 C950 1.389 . S
C951 C952 1.389 . S
C952 C951 1.389 . S
C952 C953 1.379 . S
C952 H977 0.929 . S
C953 C952 1.379 . S
C953 C954 1.405 . S
C954 C949 1.403 . S
C954 C953 1.405 . S
C954 H978 0.932 . S
O955 Cd890 2.173 . S
O955 C891 1.277 . S
O956 C891 1.230 . S
O956 Cd894 2.250 1_455 S
O957 Cd890 2.263 . S
O957 C910 1.258 . S
O958 Cd894 2.308 1_455 S
O958 C910 1.274 . S
O959 Cd890 2.366 . S
O959 C946 1.263 . S
C960 O961 1.235 . S
C960 O962 1.270 . S
O961 Cd894 2.352 . S
O961 C960 1.235 . S
O962 Cd890 2.329 1_655 S
O962 C960 1.270 . S
C963 O947 1.270 . S
C963 O948 1.248 1_655 S
H964 C896 0.930 . S
H965 C899 0.930 . S
H966 C900 0.931 . S
H967 C905 0.929 . S
H968 C907 0.930 . S
H969 C909 0.930 . S
H970 C912 0.929 . S
H971 C913 0.932 . S
H972 C915 0.930 . S
H973 C939 0.929 . S
H974 C940 0.932 . S
H975 C941 0.931 . S
H976 C950 0.931 . S
H977 C952 0.929 . S
H978 C954 0.932 . S
Cd979 O1036 2.350 1_545 S
Cd979 O1037 2.277 . S
Cd979 O1044 2.173 . S
Cd979 O1046 2.263 . S
Cd979 O1048 2.366 . S
Cd979 O1051 2.329 1_545 S
C980 O1044 1.277 . S
C980 O1045 1.230 . S
C981 O982 1.246 . S
C981 C984 1.481 . S
C981 N1006 1.329 . S
O982 C981 1.246 . S
Cd983 O1045 2.250 1_565 S
Cd983 O1047 2.308 1_565 S
Cd983 O1050 2.352 . S
C984 C981 1.481 . S
C984 N987 1.327 . S
C984 C988 1.407 . S
C985 C986 1.346 . S
C985 C989 1.390 . S
C985 H1053 0.930 . S
C986 C985 1.346 . S
C986 N987 1.342 . S
C986 C991 1.516 . S
N987 C984 1.327 . S
N987 C986 1.342 . S
N987 Co990 1.864 . S
C988 C984 1.407 . S
C988 C989 1.364 . S
C988 H1054 0.930 . S
C989 C985 1.390 . S
C989 C988 1.364 . S
C989 H1055 0.931 . S
Co990 N987 1.864 . S
Co990 N1006 1.955 . S
Co990 N1007 1.958 . S
Co990 N1008 1.953 . S
Co990 N1026 1.869 . S
Co990 N1032 1.974 . S
C991 C986 1.516 . S
C991 O992 1.238 . S
C991 N1007 1.324 . S
O992 C991 1.238 . S
C993 C994 1.394 . S
C993 C998 1.395 . S
C993 N1007 1.427 . S
C994 C993 1.394 . S
C994 C995 1.380 . S
C994 H1056 0.929 . S
C995 C994 1.380 . S
C995 C996 1.384 . S
C995 C999 1.495 . S
C996 C995 1.384 . S
C996 C997 1.382 . S
C996 H1057 0.930 . S
C997 C996 1.382 . S
C997 C998 1.398 . S
C998 C993 1.395 . S
C998 C997 1.398 . S
C998 H1058 0.930 . S
C999 C995 1.495 . S
C999 O1046 1.258 . S
C999 O1047 1.274 . S
C1000 C1001 1.385 . S
C1000 C1002 1.381 . S
C1000 N1006 1.432 . S
C1001 C1000 1.385 . S
C1001 C1005 1.388 1_556 S
C1001 H1059 0.929 1_556 S
C1002 C1000 1.381 . S
C1002 C1003 1.371 . S
C1002 H1060 0.932 . S
C1003 C1002 1.371 . S
C1003 C1004 1.400 1_655 S
C1004 C1003 1.400 1_455 S
C1004 C1005 1.351 1_456 S
C1004 H1061 0.930 . S
C1005 C1001 1.388 1_554 S
C1005 C1004 1.351 1_654 S
N1006 C981 1.329 . S
N1006 Co990 1.955 . S
N1006 C1000 1.432 . S
N1007 Co990 1.958 . S
N1007 C991 1.324 . S
N1007 C993 1.427 . S
N1008 Co990 1.953 . S
N1008 C1009 1.436 . S
N1008 C1035 1.316 . S
C1009 N1008 1.436 . S
C1009 C1010 1.421 . S
C1009 C1011 1.360 . S
C1010 C1009 1.421 . S
C1010 C1012 1.379 1_556 S
C1010 H1013 0.930 1_556 S
C1011 C1009 1.360 . S
C1011 C1015 1.393 . S
C1011 H1017 0.931 . S
C1012 C1010 1.379 1_554 S
C1012 C1014 1.417 . S
C1012 C1016 1.505 . S
H1013 C1010 0.930 1_554 S
C1014 C1012 1.417 . S
C1014 C1015 1.352 1_554 S
C1014 H1018 0.929 . S
C1015 C1011 1.393 . S
C1015 C1014 1.352 1_556 S
C1015 C1019 1.482 . S
C1016 C1012 1.505 . S
C1016 O1020 1.259 . S
C1016 O1021 1.229 . S
H1017 C1011 0.931 . S
H1018 C1014 0.929 . S
C1019 C1015 1.482 . S
C1019 O1022 1.207 . S
C1019 O1023 1.289 1_545 S
O1020 C1016 1.259 . S
O1020 H1024 0.822 . S
O1021 C1016 1.229 . S
O1022 C1019 1.207 . S
O1023 C1019 1.289 1_565 S
O1023 H1025 0.819 . S
H1024 O1020 0.822 . S
H1025 O1023 0.819 . S
N1026 Co990 1.869 . S
N1026 C1027 1.330 . S
N1026 C1031 1.325 . S
C1027 N1026 1.330 . S
C1027 C1028 1.359 . S
C1027 C1033 1.504 . S
C1028 C1027 1.359 . S
C1028 C1029 1.366 . S
C1028 H1062 0.929 . S
C1029 C1028 1.366 . S
C1029 C1030 1.415 . S
C1029 H1063 0.932 1_655 S
C1030 C1029 1.415 . S
C1030 C1031 1.366 . S
C1030 H1064 0.931 . S
C1031 N1026 1.325 . S
C1031 C1030 1.366 . S
C1031 C1035 1.516 . S
N1032 Co990 1.974 . S
N1032 C1033 1.309 . S
N1032 C1038 1.423 . S
C1033 C1027 1.504 . S
C1033 N1032 1.309 . S
C1033 O1034 1.258 . S
O1034 C1033 1.258 . S
C1035 N1008 1.316 . S
C1035 C1031 1.516 . S
C1035 O1048 1.263 . S
O1036 Cd979 2.350 1_565 S
O1036 C1052 1.270 . S
O1037 Cd979 2.277 . S
O1037 C1052 1.248 1_545 S
C1038 N1032 1.423 . S
C1038 C1039 1.370 . S
C1038 C1043 1.403 . S
C1039 C1038 1.370 . S
C1039 C1040 1.389 . S
C1039 H1065 0.931 . S
C1040 C1039 1.389 . S
C1040 C1041 1.389 . S
C1041 C1040 1.389 . S
C1041 C1042 1.379 . S
C1041 H1066 0.929 . S
C1042 C1041 1.379 . S
C1042 C1043 1.405 . S
C1043 C1038 1.403 . S
C1043 C1042 1.405 . S
C1043 H1067 0.932 . S
O1044 Cd979 2.173 . S
O1044 C980 1.277 . S
O1045 C980 1.230 . S
O1045 Cd983 2.250 1_545 S
O1046 Cd979 2.263 . S
O1046 C999 1.258 . S
O1047 Cd983 2.308 1_545 S
O1047 C999 1.274 . S
O1048 Cd979 2.366 . S
O1048 C1035 1.263 . S
C1049 O1050 1.235 . S
C1049 O1051 1.270 . S
O1050 Cd983 2.352 . S
O1050 C1049 1.235 . S
O1051 Cd979 2.329 1_565 S
O1051 C1049 1.270 . S
C1052 O1036 1.270 . S
C1052 O1037 1.248 1_565 S
H1053 C985 0.930 . S
H1054 C988 0.930 . S
H1055 C989 0.931 . S
H1056 C994 0.929 . S
H1057 C996 0.930 . S
H1058 C998 0.930 . S
H1059 C1001 0.929 1_554 S
H1060 C1002 0.932 . S
H1061 C1004 0.930 . S
H1062 C1028 0.929 . S
H1063 C1029 0.932 1_455 S
H1064 C1030 0.931 . S
H1065 C1039 0.931 . S
H1066 C1041 0.929 . S
H1067 C1043 0.932 . S
C63 C417 3.856 . S
C506 C152 3.856 . S
C61 C241 3.856 . S
C150 C330 3.856 . S
C419 C239 3.856 . S
C328 C508 3.856 . S
C597 C773 3.856 . S
C686 C862 3.856 . S
C951 C775 3.856 . S
C1040 C864 3.856 . S
C595 C953 3.856 . S
C1042 C684 3.856 . S
C908 C18 2.433 . S
C997 C107 2.433 . S
C552 C196 2.433 . S
C641 C285 2.433 . S
C374 C730 2.433 . S
C819 C463 2.433 . S
C874 C73 2.514 1_556 S
C963 C162 2.514 1_655 S
C251 C1052 2.514 1_544 S
C607 C340 2.514 . S
C696 C429 2.514 1_456 S
C785 C518 2.514 1_545 S
C649 C204 1.634 1_554 S
C738 C293 1.634 1_455 S
C827 C382 1.634 1_544 S
C916 C471 1.634 . S
C26 C1005 1.634 1_456 S
C115 C560 1.634 1_545 S
C357 C70 1.574 1_565 S
C446 C159 1.574 . S
C248 C1 1.574 1_655 S
C90 C337 1.574 1_545 S
C179 C426 1.574 . S
C268 C515 1.574 1_655 S
C604 C713 1.574 1_655 S
C802 C693 1.574 1_545 S
C891 C782 1.574 . S
C871 C980 1.574 1_455 S
C960 C535 1.574 1_545 S
C624 C1049 1.574 . S
