# Generated by pormake.
# Topology wkj, (6)-cn, num edge types: 1
# Building blocks:
#     Node 0, Type 0, BuildingBlock: NUHQIS_clean_sbu_0, # of connection points: 6
#     Node 1, Type 0, BuildingBlock: NUHQIS_clean_sbu_0, # of connection points: 6
#     Node 2, Type 0, BuildingBlock: NUHQIS_clean_sbu_0, # of connection points: 6
#     Node 3, Type 0, BuildingBlock: NUHQIS_clean_sbu_0, # of connection points: 6
#     Node 4, Type 0, BuildingBlock: NUHQIS_clean_sbu_0, # of connection points: 6
#     Node 5, Type 0, BuildingBlock: NUHQIS_clean_sbu_0, # of connection points: 6
#     Node 6, Type 0, BuildingBlock: NUHQIS_clean_sbu_0, # of connection points: 6
#     Node 7, Type 0, BuildingBlock: NUHQIS_clean_sbu_0, # of connection points: 6
#     Node 8, Type 0, BuildingBlock: NUHQIS_clean_sbu_0, # of connection points: 6
#     Node 9, Type 0, BuildingBlock: NUHQIS_clean_sbu_0, # of connection points: 6
#     Node 10, Type 0, BuildingBlock: NUHQIS_clean_sbu_0, # of connection points: 6
#     Node 11, Type 0, BuildingBlock: NUHQIS_clean_sbu_0, # of connection points: 6
#     Edge 12, Type (0, 0), BuildingBlock: CIFDUS_clean_linker_0, # of connection points: 2
#     Edge 13, Type (0, 0), BuildingBlock: CIFDUS_clean_linker_0, # of connection points: 2
#     Edge 14, Type (0, 0), BuildingBlock: CIFDUS_clean_linker_0, # of connection points: 2
#     Edge 15, Type (0, 0), BuildingBlock: CIFDUS_clean_linker_0, # of connection points: 2
#     Edge 16, Type (0, 0), BuildingBlock: CIFDUS_clean_linker_0, # of connection points: 2
#     Edge 17, Type (0, 0), BuildingBlock: CIFDUS_clean_linker_0, # of connection points: 2
#     Edge 18, Type (0, 0), BuildingBlock: CIFDUS_clean_linker_0, # of connection points: 2
#     Edge 19, Type (0, 0), BuildingBlock: CIFDUS_clean_linker_0, # of connection points: 2
#     Edge 20, Type (0, 0), BuildingBlock: CIFDUS_clean_linker_0, # of connection points: 2
#     Edge 21, Type (0, 0), BuildingBlock: CIFDUS_clean_linker_0, # of connection points: 2
#     Edge 22, Type (0, 0), BuildingBlock: CIFDUS_clean_linker_0, # of connection points: 2
#     Edge 23, Type (0, 0), BuildingBlock: CIFDUS_clean_linker_0, # of connection points: 2
#     Edge 24, Type (0, 0), BuildingBlock: CIFDUS_clean_linker_0, # of connection points: 2
#     Edge 25, Type (0, 0), BuildingBlock: CIFDUS_clean_linker_0, # of connection points: 2
#     Edge 26, Type (0, 0), BuildingBlock: CIFDUS_clean_linker_0, # of connection points: 2
#     Edge 27, Type (0, 0), BuildingBlock: CIFDUS_clean_linker_0, # of connection points: 2
#     Edge 28, Type (0, 0), BuildingBlock: CIFDUS_clean_linker_0, # of connection points: 2
#     Edge 29, Type (0, 0), BuildingBlock: CIFDUS_clean_linker_0, # of connection points: 2
#     Edge 30, Type (0, 0), BuildingBlock: CIFDUS_clean_linker_0, # of connection points: 2
#     Edge 31, Type (0, 0), BuildingBlock: CIFDUS_clean_linker_0, # of connection points: 2
#     Edge 32, Type (0, 0), BuildingBlock: CIFDUS_clean_linker_0, # of connection points: 2
#     Edge 33, Type (0, 0), BuildingBlock: CIFDUS_clean_linker_0, # of connection points: 2
#     Edge 34, Type (0, 0), BuildingBlock: CIFDUS_clean_linker_0, # of connection points: 2
#     Edge 35, Type (0, 0), BuildingBlock: CIFDUS_clean_linker_0, # of connection points: 2
#     Edge 36, Type (0, 0), BuildingBlock: CIFDUS_clean_linker_0, # of connection points: 2
#     Edge 37, Type (0, 0), BuildingBlock: CIFDUS_clean_linker_0, # of connection points: 2
#     Edge 38, Type (0, 0), BuildingBlock: CIFDUS_clean_linker_0, # of connection points: 2
#     Edge 39, Type (0, 0), BuildingBlock: CIFDUS_clean_linker_0, # of connection points: 2
#     Edge 40, Type (0, 0), BuildingBlock: CIFDUS_clean_linker_0, # of connection points: 2
#     Edge 41, Type (0, 0), BuildingBlock: CIFDUS_clean_linker_0, # of connection points: 2
#     Edge 42, Type (0, 0), BuildingBlock: CIFDUS_clean_linker_0, # of connection points: 2
#     Edge 43, Type (0, 0), BuildingBlock: CIFDUS_clean_linker_0, # of connection points: 2
#     Edge 44, Type (0, 0), BuildingBlock: CIFDUS_clean_linker_0, # of connection points: 2
#     Edge 45, Type (0, 0), BuildingBlock: CIFDUS_clean_linker_0, # of connection points: 2
#     Edge 46, Type (0, 0), BuildingBlock: CIFDUS_clean_linker_0, # of connection points: 2
#     Edge 47, Type (0, 0), BuildingBlock: CIFDUS_clean_linker_0, # of connection points: 2
# Relax obj value: 0.881
# Max RMSD: 0.177
# Mean RMSD: 0.177
data_MOF--net-wkj--node1-NUHQIS_clean_sbu_0--edge1-CIFDUS_clean_linker_0
_symmetry_space_group_name_H-M    P1
_symmetry_Int_Tables_number       1
_symmetry_cell_setting            triclinic
loop_
_symmetry_equiv_pos_as_xyz
'x, y, z'
_cell_length_a     43.53572
_cell_length_b     44.062699
_cell_length_c     26.871427
_cell_angle_alpha  89.058054
_cell_angle_beta   90.506972
_cell_angle_gamma 119.79355
loop_
_atom_site_label
_atom_site_type_symbol
_atom_site_fract_x
_atom_site_fract_y
_atom_site_fract_z
_atom_type_partial_charge
Tb0 Tb 0.49029 0.08264 0.39015 0.0
Eu1 Eu 0.56845 0.11919 0.35815 0.0
C2 C 0.52738 0.1625 0.35181 0.0
C3 C 0.50691 0.05809 0.27907 0.0
C4 C 0.40542 0.06635 0.44198 0.0
C5 C 0.34962 0.05495 0.4773 0.0
C6 C 0.36859 0.05107 0.4386 0.0
C7 C 0.42345 0.08806 0.48193 0.0
C8 C 0.40462 0.09163 0.52077 0.0
C9 C 0.36732 0.07362 0.5202 0.0
C10 C 0.42499 0.05864 0.40516 0.0
O11 O 0.51031 0.05306 0.431 0.0
O12 O 0.56578 0.07369 0.39792 0.0
O13 O 0.5709 0.12612 0.44769 0.0
O14 O 0.51254 0.09958 0.46948 0.0
C15 C 0.54185 0.05574 0.4314 0.0
O16 O 0.6146 0.12954 0.31324 0.0
O17 O 0.62014 0.16367 0.3736 0.0
O18 O 0.55026 0.15633 0.32971 0.0
O19 O 0.50543 0.13905 0.38408 0.0
O20 O 0.48442 0.05347 0.31619 0.0
O21 O 0.54067 0.08323 0.28672 0.0
C22 C 0.54656 0.11573 0.48443 0.0
O23 O 0.4438 0.08414 0.37424 0.0
O24 O 0.44276 0.04417 0.42254 0.0
C25 C 0.65295 0.1908 0.30118 0.0
C26 C 0.67034 0.24529 0.23138 0.0
C27 C 0.66983 0.21436 0.21741 0.0
C28 C 0.66118 0.18734 0.25202 0.0
C29 C 0.65809 0.22345 0.31652 0.0
C30 C 0.6666 0.25041 0.28186 0.0
C31 C 0.63493 0.15965 0.33426 0.0
H32 H 0.321 0.04134 0.47518 0.0
H33 H 0.35442 0.03486 0.40723 0.0
H34 H 0.45201 0.10066 0.48448 0.0
H35 H 0.4194 0.10601 0.55308 0.0
H36 H 0.67245 0.20943 0.17875 0.0
H37 H 0.65821 0.1628 0.23937 0.0
H38 H 0.65294 0.22741 0.35453 0.0
H39 H 0.66725 0.2741 0.29379 0.0
Tb40 Tb 0.37272 0.46316 0.72978 0.0
Eu41 Eu 0.42858 0.54142 0.69921 0.0
C42 C 0.3419 0.51036 0.68407 0.0
C43 C 0.41007 0.47393 0.61646 0.0
C44 C 0.3293 0.37155 0.78787 0.0
C45 C 0.3167 0.34164 0.86805 0.0
C46 C 0.3188 0.36863 0.83779 0.0
C47 C 0.33606 0.34601 0.76823 0.0
C48 C 0.33437 0.31925 0.79871 0.0
C49 C 0.32513 0.31719 0.84898 0.0
C50 C 0.33154 0.39989 0.7554 0.0
O51 O 0.42685 0.47456 0.72851 0.0
O52 O 0.46062 0.52908 0.7526 0.0
O53 O 0.42907 0.54628 0.78756 0.0
O54 O 0.38846 0.4899 0.80921 0.0
C55 C 0.44994 0.49618 0.75986 0.0
O56 O 0.47189 0.58045 0.65309 0.0
O57 O 0.44574 0.5967 0.70565 0.0
O58 O 0.37456 0.53695 0.68324 0.0
O59 O 0.33578 0.47928 0.6989 0.0
O60 O 0.38413 0.45322 0.64873 0.0
O61 O 0.43016 0.50764 0.63019 0.0
C62 C 0.41212 0.52291 0.82437 0.0
O63 O 0.33181 0.42654 0.77609 0.0
O64 O 0.35387 0.4098 0.71881 0.0
C65 C 0.4563 0.62245 0.62775 0.0
C66 C 0.42702 0.65208 0.56298 0.0
C67 C 0.45719 0.67379 0.5913 0.0
C68 C 0.47147 0.65895 0.62425 0.0
C69 C 0.42691 0.60103 0.59835 0.0
C70 C 0.4124 0.61562 0.56652 0.0
C71 C 0.4664 0.60568 0.66703 0.0
H72 H 0.30987 0.34069 0.90695 0.0
H73 H 0.31271 0.38744 0.85372 0.0
H74 H 0.34339 0.34714 0.72955 0.0
H75 H 0.34105 0.30067 0.78342 0.0
H76 H 0.46934 0.70197 0.58828 0.0
H77 H 0.49381 0.6758 0.64747 0.0
H78 H 0.41456 0.57279 0.60092 0.0
H79 H 0.38992 0.59821 0.54389 0.0
Tb80 Tb 0.90955 0.37907 1.06054 0.0
Eu81 Eu 0.87768 0.42927 1.03927 0.0
C82 C 0.82844 0.34401 1.0255 0.0
C83 C 0.93491 0.42687 0.95303 0.0
C84 C 0.92062 0.30737 1.11035 0.0
C85 C 0.9345 0.26733 0.15435 0.0
C86 C 0.93861 0.28848 1.11273 0.0
C87 C 0.89511 0.30147 1.14633 0.0
C88 C 0.89157 0.28108 0.18833 0.0
C89 C 0.91348 0.26617 0.19479 0.0
C90 C 0.93238 0.33721 1.07609 0.0
O91 O 0.95088 0.43202 1.06327 0.0
O92 O 0.9222 0.45804 1.09242 0.0
O93 O 0.87262 0.42329 1.12821 0.0
O94 O 0.89398 0.38557 1.14137 0.0
C95 C 0.94809 0.45139 1.0966 0.0
O96 O 0.8772 0.47371 1.00201 0.0
O97 O 0.8365 0.44173 1.05523 0.0
O98 O 0.8333 0.37514 1.01274 0.0
O99 O 0.8533 0.34161 1.0502 0.0
O100 O 0.93201 0.3998 0.98112 0.0
O101 O 0.91689 0.44227 0.96949 0.0
C102 C 0.88098 0.40516 0.16101 0.0
O103 O 0.91063 0.3337 1.04013 0.0
O104 O 0.94461 0.3672 1.09802 0.0
C105 C 0.81797 0.46074 0.98511 0.0
C106 C 0.76418 0.43303 0.91293 0.0
C107 C 0.79911 0.45765 0.89928 0.0
C108 C 0.82587 0.47132 0.9351 0.0
C109 C 0.78224 0.44038 0.99946 0.0
C110 C 0.75557 0.42632 0.96356 0.0
C111 C 0.84631 0.46571 1.02047 0.0
H112 H 0.95067 0.25502 0.15713 0.0
H113 H 0.9579 0.29225 1.08456 0.0
H114 H 0.88052 0.31547 1.14446 0.0
H115 H 0.87481 0.28081 0.21803 0.0
H116 H 0.80657 0.46326 0.86044 0.0
H117 H 0.853 0.48761 0.92296 0.0
H118 H 0.77517 0.43258 1.038 0.0
H119 H 0.72882 0.40759 0.97498 0.0
Tb120 Tb 0.51931 0.89671 0.38975 0.0
Eu121 Eu 0.43965 0.87222 0.36355 0.0
C122 C 0.47224 0.82064 0.34385 0.0
C123 C 0.50697 0.92906 0.28262 0.0
C124 C 0.60447 0.91937 0.45657 0.0
C125 C 0.62523 0.89675 0.52416 0.0
C126 C 0.60484 0.89115 0.48134 0.0
C127 C 0.62635 0.95338 0.47366 0.0
C128 C 0.64655 0.95896 0.5165 0.0
C129 C 0.64572 0.93064 0.54275 0.0
C130 C 0.58232 0.91363 0.41216 0.0
O131 O 0.50835 0.93903 0.39725 0.0
O132 O 0.45099 0.91486 0.41635 0.0
O133 O 0.43667 0.86533 0.45181 0.0
O134 O 0.49405 0.88057 0.46964 0.0
C135 C 0.48375 0.93688 0.42685 0.0
O136 O 0.40019 0.86591 0.30723 0.0
O137 O 0.38333 0.84493 0.38107 0.0
O138 O 0.44394 0.82279 0.3543 0.0
O139 O 0.50352 0.84874 0.34715 0.0
O140 O 0.52874 0.92365 0.31267 0.0
O141 O 0.47276 0.9136 0.29722 0.0
C142 C 0.46105 0.87054 0.48672 0.0
O143 O 0.55711 0.88171 0.40484 0.0
O144 O 0.57184 0.93614 0.40266 0.0
C145 C 0.34963 0.8097 0.31433 0.0
C146 C 0.32029 0.74503 0.26535 0.0
C147 C 0.32404 0.77516 0.24048 0.0
C148 C 0.33849 0.80711 0.26479 0.0
C149 C 0.34209 0.77892 0.34089 0.0
C150 C 0.32736 0.74687 0.31667 0.0
C151 C 0.37358 0.84456 0.33519 0.0
H152 H 0.62427 0.8745 0.54341 0.0
H153 H 0.58893 0.86465 0.46821 0.0
H154 H 0.62725 0.97566 0.4546 0.0
H155 H 0.66149 0.98538 0.53026 0.0
H156 H 0.31924 0.77517 0.20089 0.0
H157 H 0.34368 0.83034 0.24365 0.0
H158 H 0.34984 0.77986 0.37949 0.0
H159 H 0.32419 0.72413 0.33723 0.0
Tb160 Tb 0.58362 0.48549 0.7319 0.0
Eu161 Eu 0.54777 0.40793 0.69754 0.0
C162 C 0.63345 0.45454 0.69145 0.0
C163 C 0.54995 0.47186 0.61684 0.0
C164 C 0.61887 0.5779 0.78215 0.0
C165 C 0.64786 0.64012 0.79765 0.0
C166 C 0.64461 0.61226 0.7699 0.0
C167 C 0.59576 0.57145 0.82189 0.0
C168 C 0.59907 0.59937 0.84991 0.0
C169 C 0.62537 0.634 0.83825 0.0
C170 C 0.61593 0.54992 0.75073 0.0
O171 O 0.53127 0.4624 0.76478 0.0
O172 O 0.50173 0.40618 0.7352 0.0
O173 O 0.54673 0.40186 0.78681 0.0
O174 O 0.57263 0.45903 0.81054 0.0
C175 C 0.50397 0.43035 0.76479 0.0
O176 O 0.51655 0.3663 0.64464 0.0
O177 O 0.53905 0.35525 0.70952 0.0
O178 O 0.60558 0.42346 0.68814 0.0
O179 O 0.62965 0.48117 0.70506 0.0
O180 O 0.56428 0.49318 0.65537 0.0
O181 O 0.54305 0.43869 0.62469 0.0
C182 C 0.55641 0.42484 0.82427 0.0
O183 O 0.62498 0.52795 0.76939 0.0
O184 O 0.58777 0.53459 0.72299 0.0
C185 C 0.5426 0.3309 0.6339 0.0
C186 C 0.58555 0.3255 0.56107 0.0
C187 C 0.54998 0.3154 0.55054 0.0
C188 C 0.52872 0.31817 0.58671 0.0
C189 C 0.57637 0.33611 0.64646 0.0
C190 C 0.5976 0.33325 0.61034 0.0
C191 C 0.52488 0.3445 0.66592 0.0
H192 H 0.66811 0.66643 0.78752 0.0
H193 H 0.66227 0.61756 0.73869 0.0
H194 H 0.57548 0.54498 0.83132 0.0
H195 H 0.5817 0.59373 0.88153 0.0
H196 H 0.53977 0.30935 0.51293 0.0
H197 H 0.50265 0.31358 0.57634 0.0
H198 H 0.58775 0.34539 0.68287 0.0
H199 H 0.62468 0.34068 0.61968 0.0
Tb200 Tb 0.08817 0.62479 1.05546 0.0
Eu201 Eu 0.10869 0.56702 1.04296 0.0
C202 C 0.16608 0.64978 1.01449 0.0
C203 C 0.05256 0.57002 0.95619 0.0
C204 C 0.05598 0.68491 1.09702 0.0
C205 C 0.06275 0.72685 0.15981 0.0
C206 C 0.07695 0.71671 1.12136 0.0
C207 C 0.01986 0.66492 1.10881 0.0
C208 C 0.00569 0.6751 1.14699 0.0
C209 C 0.0273 0.70543 0.17418 0.0
C210 C 0.07215 0.67246 1.06059 0.0
O211 O 0.05397 0.58959 1.11106 0.0
O212 O 0.05781 0.54178 1.08733 0.0
O213 O 0.11826 0.57451 1.12953 0.0
O214 O 0.10657 0.61951 1.13702 0.0
C215 C 0.04621 0.55728 1.11744 0.0
O216 O 0.11118 0.52748 0.99758 0.0
O217 O 0.13307 0.53729 1.07148 0.0
O218 O 0.16011 0.61763 1.02193 0.0
O219 O 0.14053 0.65674 1.02149 0.0
O220 O 0.05504 0.59587 0.98525 0.0
O221 O 0.0716 0.55535 0.9714 0.0
C222 C 0.11549 0.59683 0.15947 0.0
O223 O 0.10329 0.67686 1.07188 0.0
O224 O 0.05168 0.64173 1.04169 0.0
C225 C 0.16615 0.5298 1.00843 0.0
C226 C 0.23077 0.55784 0.95624 0.0
C227 C 0.199 0.53158 0.93504 0.0
C228 C 0.16711 0.51766 0.96097 0.0
C229 C 0.19833 0.55271 1.03208 0.0
C230 C 0.23036 0.5664 1.00632 0.0
C231 C 0.13191 0.5233 1.02881 0.0
H232 H 0.07991 0.75048 0.17997 0.0
H233 H 0.1047 0.73297 1.11209 0.0
H234 H 0.00279 0.64057 1.09017 0.0
H235 H 0.97839 0.65773 0.15754 0.0
H236 H 0.1978 0.52418 0.89657 0.0
H237 H 0.14278 0.49972 0.94212 0.0
H238 H 0.19865 0.56215 1.06915 0.0
H239 H 0.25433 0.58579 1.02434 0.0
Tb240 Tb 0.89504 0.50642 0.57572 0.0
Eu241 Eu 0.87444 0.42784 0.59698 0.0
C242 C 0.81767 0.4561 0.61826 0.0
C243 C 0.92483 0.49296 0.68363 0.0
C244 C 0.93144 0.59577 0.51569 0.0
C245 C 0.93781 0.6129 0.42873 0.0
C246 C 0.92134 0.58751 0.46586 0.0
C247 C 0.95812 0.62959 0.52792 0.0
C248 C 0.97489 0.6549 0.49068 0.0
C249 C 0.96477 0.64674 0.44084 0.0
C250 C 0.91469 0.56975 0.55563 0.0
O251 O 0.93872 0.4966 0.57143 0.0
O252 O 0.91865 0.44317 0.54314 0.0
O253 O 0.87036 0.4267 0.50806 0.0
O254 O 0.88112 0.48272 0.49535 0.0
C255 C 0.93999 0.47645 0.53765 0.0
O256 O 0.87606 0.38826 0.6459 0.0
O257 O 0.8425 0.37243 0.58111 0.0
O258 O 0.82284 0.42956 0.60946 0.0
O259 O 0.84417 0.48818 0.61372 0.0
O260 O 0.9168 0.51355 0.65551 0.0
O261 O 0.91329 0.46039 0.66596 0.0
C262 C 0.87397 0.45164 0.4754 0.0
O263 O 0.88293 0.54387 0.54743 0.0
O264 O 0.93457 0.55936 0.57777 0.0
C265 C 0.81816 0.3395 0.65446 0.0
C266 C 0.76161 0.31665 0.72172 0.0
C267 C 0.7946 0.32152 0.73785 0.0
C268 C 0.82271 0.33295 0.70444 0.0
C269 C 0.78376 0.3294 0.63714 0.0
C270 C 0.75574 0.31817 0.67058 0.0
C271 C 0.8494 0.36237 0.62342 0.0
H272 H 0.93019 0.60577 0.39034 0.0
H273 H 0.90109 0.56143 0.45556 0.0
H274 H 0.96621 0.6363 0.56628 0.0
H275 H -0.00419 0.68074 0.5007 0.0
H276 H 0.80002 0.3206 0.77711 0.0
H277 H 0.84873 0.33988 0.71864 0.0
H278 H 0.77902 0.33324 0.59853 0.0
H279 H 0.73049 0.31422 0.65715 0.0
Tb280 Tb 0.40196 0.90798 0.90047 0.0
Eu281 Eu 0.43553 0.86334 0.9323 0.0
C282 C 0.35211 0.82832 0.94167 0.0
C283 C 0.43888 0.92703 1.01208 0.0
C284 C 0.35644 0.95508 0.84172 0.0
C285 C 0.30853 0.9574 0.79812 0.0
C286 C 0.32012 0.94218 0.83404 0.0
C287 C 0.38117 0.98422 0.81416 0.0
C288 C 0.36956 -0.00037 0.77845 0.0
C289 C 0.33315 0.98607 0.76973 0.0
C290 C 0.36724 0.93843 0.88043 0.0
O291 O 0.45152 0.93117 0.85912 0.0
O292 O 0.48271 0.90977 0.90164 0.0
O293 O 0.43467 0.85892 0.84295 0.0
O294 O 0.40602 0.88887 0.82146 0.0
C295 C 0.47978 0.92775 0.86488 0.0
O296 O 0.45799 0.84565 0.99153 0.0
O297 O 0.45282 0.82549 0.91769 0.0
O298 O 0.37757 0.82194 0.93182 0.0
O299 O 0.35927 0.86119 0.94064 0.0
O300 O 0.42833 0.93779 0.97205 0.0
O301 O 0.43979 0.89706 1.00582 0.0
C302 C 0.42202 0.87099 0.80628 0.0
O303 O 0.35448 0.90477 0.8769 0.0
O304 O 0.40009 0.95465 0.89569 0.0
C305 C 0.43892 0.78574 0.98528 0.0
C306 C 0.38977 0.72539 1.03809 0.0
C307 C 0.42215 0.74974 1.06015 0.0
C308 C 0.44646 0.77958 1.0339 0.0
C309 C 0.40907 0.75928 0.96092 0.0
C310 C 0.38495 0.72911 0.98696 0.0
C311 C 0.45834 0.8216 0.96437 0.0
H312 H 0.28038 0.94644 0.79195 0.0
H313 H 0.30065 0.92002 0.85559 0.0
H314 H 0.40933 -0.0052 0.81965 0.0
H315 H 0.38911 0.0213 0.75626 0.0
H316 H 0.42719 0.74814 1.09934 0.0
H317 H 0.46949 0.79943 1.05325 0.0
H318 H 0.40275 0.76301 0.92305 0.0
H319 H 0.36087 0.71046 0.96831 0.0
Tb320 Tb 0.43925 0.33586 0.24308 0.0
Eu321 Eu 0.50588 0.40155 0.2514 0.0
C322 C 0.49629 0.32951 0.29636 0.0
C323 C 0.44774 0.38927 0.34156 0.0
C324 C 0.36911 0.25356 0.19061 0.0
C325 C 0.36207 0.22665 1.10995 0.0
C326 C 0.37989 0.23752 0.15537 0.0
C327 C 0.33773 0.25454 0.18211 0.0
C328 C 0.32019 0.24405 1.13666 0.0
C329 C 0.33337 0.23189 1.09891 0.0
C330 C 0.39237 0.27278 0.23283 0.0
O331 O 0.41328 0.35771 0.20413 0.0
O332 O 0.46631 0.40837 0.20009 0.0
O333 O 0.50906 0.40521 0.16714 0.0
O334 O 0.46682 0.34852 0.16076 0.0
C335 C 0.43288 0.38802 0.1846 0.0
O336 O 0.54149 0.45047 0.28928 0.0
O337 O 0.56005 0.43442 0.22628 0.0
O338 O 0.51708 0.35515 0.26604 0.0
O339 O 0.46657 0.32823 0.30534 0.0
O340 O 0.42786 0.35935 0.31525 0.0
O341 O 0.47976 0.41016 0.32276 0.0
C342 C 0.49227 0.37863 1.13729 0.0
O343 O 0.42624 0.28426 0.22708 0.0
O344 O 0.38664 0.29643 0.2525 0.0
C345 C 0.60027 0.45988 0.29233 0.0
C346 C 0.6468 0.4498 0.35459 0.0
C347 C 0.64543 0.44313 0.30354 0.0
C348 C 0.62253 0.44836 0.27255 0.0
C349 C 0.60513 0.47087 0.34192 0.0
C350 C 0.62827 0.46592 0.37279 0.0
C351 C 0.56911 0.4555 0.26378 0.0
H352 H 0.37228 0.2164 1.08221 0.0
H353 H 0.4034 0.23543 0.16149 0.0
H354 H 0.32812 0.26588 0.20903 0.0
H355 H 0.29822 0.24855 1.12982 0.0
H356 H 0.65968 0.431 0.28853 0.0
H357 H 0.6202 0.44059 0.23405 0.0
H358 H 0.58894 0.48055 0.35797 0.0
H359 H 0.62865 0.47125 0.41208 0.0
Tb360 Tb 0.08091 0.48671 0.56994 0.0
Eu361 Eu 0.12711 0.56398 0.59703 0.0
C362 C 0.16051 0.51501 0.60953 0.0
C363 C 0.06357 0.50362 0.68098 0.0
C364 C 0.03449 0.39588 0.51179 0.0
C365 C 0.03416 0.34754 0.46922 0.0
C366 C 0.04862 0.37375 0.50464 0.0
C367 C 0.00492 0.3908 0.48393 0.0
C368 C 0.99026 0.36433 0.44863 0.0
C369 C 0.00502 0.34273 0.44068 0.0
C370 C 0.0502 0.42244 0.55058 0.0
O371 O 0.05685 0.51296 0.5292 0.0
O372 O 0.08141 0.56675 0.56588 0.0
O373 O 0.12961 0.56872 0.50736 0.0
O374 O 0.10177 0.51022 0.49121 0.0
C375 C 0.06118 0.54476 0.53233 0.0
O376 O 0.14439 0.60423 0.65396 0.0
O377 O 0.17021 0.61708 0.58259 0.0
O378 O 0.16743 0.54586 0.59395 0.0
O379 O 0.12695 0.49056 0.61306 0.0
O380 O 0.0515 0.48272 0.64185 0.0
O381 O 0.09399 0.53422 0.67264 0.0
C382 C 0.11794 0.54344 0.47308 0.0
O383 O 0.08441 0.44313 0.54843 0.0
O384 O 0.03353 0.43872 0.56434 0.0
C385 C 0.20651 0.63828 0.65384 0.0
C386 C 0.26063 0.64044 0.71462 0.0
C387 C 0.23806 0.6523 0.73237 0.0
C388 C 0.21129 0.65123 0.70219 0.0
C389 C 0.23176 0.63072 0.63399 0.0
C390 C 0.25875 0.63206 0.66405 0.0
C391 C 0.17218 0.62643 0.62867 0.0
H392 H 0.04596 0.33122 0.46378 0.0
H393 H 0.07106 0.37688 0.52642 0.0
H394 H 0.99335 0.40734 0.48905 0.0
H395 H 0.96812 0.36149 0.4264 0.0
H396 H 0.23838 0.65882 0.7711 0.0
H397 H 0.19232 0.6574 0.71821 0.0
H398 H 0.22909 0.62101 0.59652 0.0
H399 H 0.27612 0.62351 0.6489 0.0
Tb400 Tb 0.61669 0.09183 0.90565 0.0
Eu401 Eu 0.55783 0.11251 0.92591 0.0
C402 C 0.64223 0.16816 0.94865 0.0
C403 C 0.57115 0.05971 1.01137 0.0
C404 C 0.67564 0.0596 0.85224 0.0
C405 C 0.69452 0.0586 0.76819 0.0
C406 C 0.68205 0.07277 0.80331 0.0
C407 C 0.68246 0.03265 0.86586 0.0
C408 C 0.69458 0.01821 0.83061 0.0
C409 C 0.70041 0.03089 0.7814 0.0
C410 C 0.66248 0.07373 0.89014 0.0
O411 O 0.56379 0.04857 0.89802 0.0
O412 O 0.53023 0.07016 0.87046 0.0
O413 O 0.56395 0.12 0.83817 0.0
O414 O 0.60706 0.10575 0.82392 0.0
C415 C 0.54229 0.04887 0.86438 0.0
O416 O 0.51798 0.1122 0.97569 0.0
O417 O 0.52979 0.1403 0.90589 0.0
O418 O 0.61025 0.16343 0.94026 0.0
O419 O 0.64817 0.14192 0.94372 0.0
O420 O 0.60057 0.06843 0.98492 0.0
O421 O 0.55004 0.07153 0.99271 0.0
C422 C 0.58402 0.11534 0.80492 0.0
O423 O 0.66791 0.10534 0.88303 0.0
O424 O 0.63097 0.05275 0.9074 0.0
C425 C 0.52127 0.16754 0.97487 0.0
C426 C 0.54985 0.22769 1.03387 0.0
C427 C 0.52391 0.19507 1.05331 0.0
C428 C 0.50977 0.16525 1.02402 0.0
C429 C 0.5434 0.20084 0.95353 0.0
C430 C 0.55752 0.23067 0.98283 0.0
C431 C 0.51475 0.13549 0.94904 0.0
H432 H 0.69793 0.06819 0.73011 0.0
H433 H 0.67685 0.09351 0.79199 0.0
H434 H 0.67781 0.02237 0.90365 0.0
H435 H 0.69856 -0.00338 0.84139 0.0
H436 H 0.51738 0.19171 1.09256 0.0
H437 H 0.49229 0.14002 1.04111 0.0
H438 H 0.55218 0.20371 0.9153 0.0
H439 H 0.57702 0.25551 0.96669 0.0
Tb440 Tb 0.52992 0.6081 0.23734 0.0
Eu441 Eu 0.44963 0.56281 0.26448 0.0
C442 C 0.48769 0.64813 0.27059 0.0
C443 C 0.50875 0.56308 0.34913 0.0
C444 C 0.60788 0.67909 0.17674 0.0
C445 C 0.59515 0.71204 1.11484 0.0
C446 C 0.58832 0.69503 0.16111 0.0
C447 C 0.63721 0.68444 0.14911 0.0
C448 C 0.64378 0.70101 1.1027 0.0
C449 C 0.62087 0.71232 1.08321 0.0
C450 C 0.59309 0.6505 0.21353 0.0
O451 O 0.52948 0.56075 0.25145 0.0
O452 O 0.47003 0.5295 0.23596 0.0
O453 O 0.44532 0.55785 0.17698 0.0
O454 O 0.50372 0.59153 0.15733 0.0
C455 C 0.50096 0.53177 0.243 0.0
O456 O 0.40638 0.53368 0.31724 0.0
O457 O 0.39464 0.53575 0.23953 0.0
O458 O 0.45874 0.61797 0.27752 0.0
O459 O 0.51646 0.6489 0.25438 0.0
O460 O 0.53309 0.58792 0.31796 0.0
O461 O 0.4748 0.54982 0.33546 0.0
C462 C 0.46988 0.57074 1.14127 0.0
O463 O 0.5774 0.65457 0.25183 0.0
O464 O 0.57429 0.61967 0.19412 0.0
C465 C 0.35897 0.54302 0.29819 0.0
C466 C 0.33451 0.58387 0.34427 0.0
C467 C 0.32605 0.55079 0.36414 0.0
C468 C 0.33835 0.53061 0.34132 0.0
C469 C 0.36286 0.57344 0.27439 0.0
C470 C 0.35032 0.5935 0.297 0.0
C471 C 0.38205 0.52881 0.28459 0.0
H472 H 0.57774 0.72145 1.1017 0.0
H473 H 0.56565 0.69144 0.18222 0.0
H474 H 0.65262 0.67239 0.16077 0.0
H475 H 0.66401 0.70069 1.07997 0.0
H476 H 0.31393 0.54238 0.40049 0.0
H477 H 0.33486 0.50715 0.36011 0.0
H478 H 0.37846 0.58358 0.24077 0.0
H479 H 0.35674 0.61854 0.28038 0.0
H480 H 0.47883 0.18374 0.37798 0.0
H481 H 0.57741 0.22021 0.30008 0.0
H482 H 0.57899 0.27519 0.27936 0.0
H483 H 0.55016 0.31247 0.27668 0.0
H484 H 0.45205 0.2754 0.35658 0.0
H485 H 0.45249 0.22239 0.38083 0.0
C486 C 0.50067 0.20354 0.35625 0.0
C487 C 0.52769 0.19681 0.34043 0.0
C488 C 0.5013 0.2355 0.34328 0.0
C489 C 0.55575 0.22365 0.31254 0.0
C490 C 0.55667 0.2554 0.30022 0.0
C491 C 0.52905 0.29307 0.29982 0.0
C492 C 0.50098 0.29881 0.3141 0.0
C493 C 0.52928 0.26162 0.3144 0.0
C494 C 0.47411 0.27256 0.34428 0.0
C495 C 0.47418 0.24172 0.35839 0.0
H496 H 0.26861 0.46427 0.68762 0.0
H497 H 0.34524 0.56951 0.64255 0.0
H498 H 0.29756 0.58 0.61578 0.0
H499 H 0.23342 0.5601 0.60531 0.0
H500 H 0.15642 0.45508 0.65027 0.0
H501 H 0.20417 0.44422 0.67662 0.0
C502 C 0.27505 0.48956 0.67196 0.0
C503 C 0.31128 0.51597 0.66755 0.0
C504 C 0.24699 0.4957 0.65652 0.0
C505 C 0.31822 0.54847 0.64695 0.0
C506 C 0.29068 0.55458 0.6314 0.0
C507 C 0.22687 0.53474 0.62085 0.0
C508 C 0.19061 0.50852 0.62554 0.0
C509 C 0.25485 0.52851 0.63607 0.0
C510 C 0.18353 0.47595 0.64589 0.0
C511 C 0.21109 0.46968 0.66111 0.0
H512 H 0.75916 0.32904 0.99564 0.0
H513 H 0.82232 0.27971 1.02275 0.0
H514 H 0.77232 0.22324 1.00259 0.0
H515 H 0.71033 0.18606 0.97718 0.0
H516 H 0.64457 0.23244 0.95219 0.0
H517 H 0.69483 0.29028 0.97138 0.0
C518 C 0.76209 0.30601 0.9971 0.0
C519 C 0.79544 0.30964 1.01117 0.0
C520 C 0.73226 0.27232 0.98581 0.0
C521 C 0.79769 0.27872 1.01267 0.0
C522 C 0.7688 0.24591 1.00095 0.0
C523 C 0.70667 0.20866 0.976 0.0
C524 C 0.67297 0.20406 0.96291 0.0
C525 C 0.73587 0.24216 0.98759 0.0
C526 C 0.66966 0.2344 0.962 0.0
C527 C 0.69872 0.26783 0.97295 0.0
H528 H 0.43287 0.66345 0.28625 0.0
H529 H 0.54669 0.71226 0.2822 0.0
H530 H 0.55206 0.76824 0.30332 0.0
H531 H 0.52527 0.80459 0.32465 0.0
H532 H 0.41161 0.75712 0.32773 0.0
H533 H 0.40582 0.70094 0.30493 0.0
C534 C 0.45888 0.68625 0.29015 0.0
C535 C 0.48931 0.68273 0.28275 0.0
C536 C 0.462 0.71931 0.30215 0.0
C537 C 0.52261 0.71333 0.28745 0.0
C538 C 0.5258 0.74573 0.29973 0.0
C539 C 0.4991 0.78205 0.3204 0.0
C540 C 0.46896 0.78587 0.32838 0.0
C541 C 0.49579 0.74922 0.30744 0.0
C542 C 0.43549 0.7557 0.32228 0.0
C543 C 0.43209 0.7232 0.30923 0.0
H544 H 0.65369 0.4056 0.66493 0.0
H545 H 0.69748 0.51597 0.68996 0.0
H546 H 0.75656 0.52601 0.67058 0.0
H547 H 0.79706 0.50419 0.64581 0.0
H548 H 0.75393 0.39381 0.62213 0.0
H549 H 0.69458 0.38352 0.64128 0.0
C550 C 0.67605 0.43193 0.66623 0.0
C551 C 0.67021 0.45994 0.67919 0.0
C552 C 0.71072 0.43771 0.65505 0.0
C553 C 0.70028 0.49369 0.68038 0.0
C554 C 0.73446 0.49953 0.66919 0.0
C555 C 0.77482 0.47776 0.64493 0.0
C556 C 0.78087 0.4499 0.63223 0.0
C557 C 0.7402 0.47185 0.65643 0.0
C558 C 0.75095 0.41601 0.6316 0.0
C559 C 0.71662 0.41004 0.64255 0.0
H560 H 0.32639 0.75605 0.94414 0.0
H561 H 0.2938 0.83197 0.97256 0.0
H562 H 0.23495 0.78492 0.99652 0.0
H563 H 0.19169 0.72166 1.01022 0.0
H564 H 0.22392 0.64551 0.98174 0.0
H565 H 0.28246 0.69251 0.95623 0.0
C566 C 0.30652 0.76251 0.95549 0.0
C567 C 0.31541 0.79833 0.9563 0.0
C568 C 0.272 0.73485 0.96921 0.0
C569 C 0.28854 0.80526 0.9713 0.0
C570 C 0.25454 0.77809 0.98513 0.0
C571 C 0.21143 0.71512 0.99852 0.0
C572 C 0.20256 0.67932 0.99827 0.0
C573 C 0.2458 0.7427 0.98437 0.0
C574 C 0.22923 0.67225 0.98281 0.0
C575 C 0.26306 0.69938 0.96815 0.0
H576 H 0.6213 0.26206 1.02882 0.0
H577 H 0.53501 0.2522 1.11849 0.0
H578 H 0.57309 0.26996 0.19164 0.0
H579 H 0.62219 0.26685 0.23186 0.0
H580 H 0.70558 0.27007 1.14257 0.0
H581 H 0.67809 0.27778 1.06759 0.0
C582 C 0.61124 0.26556 1.06377 0.0
C583 C 0.57495 0.25437 1.0688 0.0
C584 C 0.6327 0.27369 1.10618 0.0
C585 C 0.5626 0.25964 1.11415 0.0
C586 C 0.58434 0.26948 0.15614 0.0
C587 C 0.63539 0.27106 0.19633 0.0
C588 C 0.66508 0.2665 0.19243 0.0
C589 C 0.61826 0.2733 0.15321 0.0
C590 C 0.68211 0.27247 1.14622 0.0
C591 C 0.6662 0.27654 1.10328 0.0
H592 H 0.39002 0.64894 0.35306 0.0
H593 H 0.28727 0.57969 0.41572 0.0
H594 H 0.30701 0.60864 0.49577 0.0
H595 H 0.35886 0.63617 0.55081 0.0
H596 H 0.46293 0.69771 0.48763 0.0
H597 H 0.43737 0.69134 0.405 0.0
C598 C 0.37112 0.64158 0.38306 0.0
C599 C 0.33774 0.61121 0.37908 0.0
C600 C 0.38349 0.65679 0.42956 0.0
C601 C 0.31354 0.60227 0.41842 0.0
C602 C 0.32497 0.61865 0.46436 0.0
C603 C 0.37564 0.64978 0.51909 0.0
C604 C 0.41264 0.66596 0.52452 0.0
C605 C 0.36084 0.64337 0.47127 0.0
C606 C 0.43438 0.68445 0.48403 0.0
C607 C 0.4197 0.68028 0.43654 0.0
H608 H 0.73429 0.36321 0.91847 0.0
H609 H 0.74446 0.44684 0.82193 0.0
H610 H 0.73134 0.40936 0.74977 0.0
H611 H 0.73692 0.36165 0.71477 0.0
H612 H 0.73717 0.28273 0.81154 0.0
H613 H 0.72525 0.30882 0.88295 0.0
C614 C 0.73179 0.37262 0.88191 0.0
C615 C 0.74101 0.40789 0.87516 0.0
C616 C 0.72694 0.35184 0.84048 0.0
C617 C 0.73783 0.41987 0.82772 0.0
C618 C 0.7307 0.39852 0.78646 0.0
C619 C 0.7325 0.34904 0.75107 0.0
C620 C 0.73877 0.32084 0.75823 0.0
C621 C 0.72818 0.36563 0.79221 0.0
C622 C 0.73298 0.30477 0.8054 0.0
C623 C 0.72646 0.31989 0.84627 0.0
H624 H 0.38752 0.691 1.12556 0.0
H625 H 0.32173 0.71143 1.02559 0.0
H626 H 0.28229 0.70431 1.09293 0.0
H627 H 0.28113 0.71595 0.18135 0.0
H628 H 0.35469 0.7078 0.28155 0.0
H629 H 0.3751 0.68562 0.21515 0.0
C630 C 0.3639 0.69276 1.11829 0.0
C631 C 0.35876 0.70356 1.07086 0.0
C632 C 0.34308 0.69202 0.15839 0.0
C633 C 0.32692 0.70368 1.06153 0.0
C634 C 0.30453 0.7003 1.10058 0.0
C635 C 0.3008 0.70821 0.18899 0.0
C636 C 0.31795 0.71576 0.23545 0.0
C637 C 0.31456 0.6982 0.14956 0.0
C638 C 0.3418 0.70357 0.24572 0.0
C639 C 0.35393 0.69123 0.20739 0.0
H640 H 0.62992 0.38224 0.35307 0.0
H641 H 0.68833 0.47653 0.43757 0.0
H642 H 0.68399 0.44179 0.51176 0.0
H643 H 0.64697 0.38669 0.55536 0.0
H644 H 0.58107 0.29321 0.47234 0.0
H645 H 0.60593 0.32521 0.39449 0.0
C646 C 0.64328 0.39527 0.38705 0.0
C647 C 0.65862 0.43181 0.39039 0.0
C648 C 0.63848 0.37506 0.43012 0.0
C649 C 0.67585 0.44837 0.43454 0.0
C650 C 0.67306 0.42847 0.477 0.0
C651 C 0.6393 0.37277 0.52046 0.0
C652 C 0.61126 0.33794 0.5194 0.0
C653 C 0.65186 0.39192 0.47598 0.0
C654 C 0.60198 0.32026 0.4739 0.0
C655 C 0.61596 0.33868 0.42938 0.0
H656 H 0.25544 0.54046 0.87409 0.0
H657 H 0.27437 0.62908 0.96251 0.0
H658 H 0.30006 0.6677 0.89101 0.0
H659 H 0.29521 0.67198 0.80062 0.0
H660 H 0.26513 0.58078 0.71168 0.0
H661 H 0.26682 0.54854 0.78442 0.0
C662 C 0.26599 0.56836 0.87806 0.0
C663 C 0.26076 0.5813 0.92285 0.0
C664 C 0.27789 0.59018 0.8357 0.0
C665 C 0.27674 0.61783 0.92825 0.0
C666 C 0.29105 0.64011 0.88701 0.0
C667 C 0.2902 0.64542 0.79696 0.0
C668 C 0.2784 0.62843 0.75112 0.0
C669 C 0.2883 0.62596 0.83983 0.0
C670 C 0.2737 0.59457 0.74644 0.0
C671 C 0.27407 0.57574 0.78846 0.0
H672 H 0.47273 0.00248 1.04107 0.0
H673 H 0.42612 0.90071 1.11117 0.0
H674 H 0.43748 0.92813 0.19308 0.0
H675 H 0.46427 0.98218 0.25069 0.0
H676 H 0.51849 0.0839 0.18028 0.0
H677 H 0.50109 0.05642 1.0985 0.0
C678 C 0.46471 0.98562 1.07375 0.0
C679 C 0.44778 0.94769 1.06569 0.0
C680 C 0.47327 0.00244 1.12371 0.0
C681 C 0.43896 0.92895 1.11209 0.0
C682 C 0.44558 0.94517 0.16056 0.0
C683 C 0.47254 -0.00099 0.21797 0.0
C684 C 0.49369 0.03698 0.22588 0.0
C685 C 0.46343 0.98215 0.168 0.0
C686 C 0.50295 0.05565 0.17944 0.0
C687 C 0.4926 0.0394 1.13105 0.0
H688 H 0.46036 0.45617 0.38642 0.0
H689 H 0.40599 0.34659 0.42359 0.0
H690 H 0.39042 0.35993 0.50505 0.0
H691 H 0.39179 0.40349 0.5719 0.0
H692 H 0.44497 0.5128 0.53094 0.0
H693 H 0.45728 0.49834 0.44916 0.0
C694 C 0.44517 0.4346 0.41156 0.0
C695 C 0.43549 0.3994 0.39437 0.0
C696 C 0.4352 0.44274 0.46068 0.0
C697 C 0.41481 0.37372 0.43145 0.0
C698 C 0.40572 0.38165 0.47983 0.0
C699 C 0.40668 0.42483 0.54595 0.0
C700 C 0.41712 0.46055 0.56245 0.0
C701 C 0.41573 0.41622 0.49614 0.0
C702 C 0.43617 0.48555 0.52399 0.0
C703 C 0.44405 0.4771 0.47563 0.0
H704 H 0.98921 0.45449 0.71336 0.0
H705 H 0.09046 0.52414 0.77872 0.0
H706 H 0.06384 0.50707 0.86188 0.0
H707 H 0.01046 0.47327 0.9216 0.0
H708 H 0.90843 0.40722 0.85567 0.0
H709 H 0.93568 0.42193 0.77276 0.0
C710 C 0.00612 0.46636 0.74527 0.0
C711 C 0.0436 0.49166 0.73554 0.0
C712 C 0.98966 0.45677 0.79578 0.0
C713 C 0.06248 0.50528 0.78095 0.0
C714 C 0.04677 0.4951 0.83013 0.0
C715 C -0.00642 0.4615 0.88963 0.0
C716 C 0.95566 0.43788 0.89903 0.0
C717 C 0.01011 0.47099 0.8391 0.0
C718 C 0.93672 0.42481 0.85356 0.0
C719 C 0.95282 0.43349 0.80458 0.0
H720 H 0.50436 0.92202 0.17137 0.0
H721 H 0.54824 0.00244 0.28172 0.0
H722 H 0.57175 0.04711 0.21532 0.0
H723 H 0.57845 0.06678 1.1226 0.0
H724 H 0.53675 0.98628 1.01227 0.0
H725 H 0.51597 0.94159 1.07864 0.0
C726 C 0.51899 0.94921 0.18193 0.0
C727 C 0.52264 0.95685 0.23535 0.0
C728 C 0.53361 0.97639 1.14146 0.0
C729 C 0.54328 -0.00643 0.24363 0.0
C730 C 0.55724 0.01998 0.2044 0.0
C731 C 0.56482 0.03957 1.11205 0.0
C732 C 0.55935 0.03193 1.05865 0.0
C733 C 0.55225 0.01237 0.1525 0.0
C734 C 0.54185 -0.00485 1.05035 0.0
C735 C 0.52962 0.96875 1.08956 0.0
H736 H 0.5439 0.5341 0.58499 0.0
H737 H 0.53793 0.44244 0.52074 0.0
H738 H 0.52814 0.46118 0.43852 0.0
H739 H 0.52052 0.504 0.3795 0.0
H740 H 0.52124 0.59289 0.44465 0.0
H741 H 0.53364 0.57555 0.52639 0.0
C742 C 0.54056 0.5177 0.55352 0.0
C743 C 0.54244 0.48572 0.56317 0.0
C744 C 0.53387 0.52876 0.50366 0.0
C745 C 0.53719 0.46661 0.51846 0.0
C746 C 0.53151 0.47774 0.46983 0.0
C747 C 0.52311 0.52 0.41105 0.0
C748 C 0.51922 0.5509 0.40187 0.0
C749 C 0.52971 0.50889 0.46092 0.0
C750 C 0.52369 0.56963 0.44667 0.0
C751 C 0.53087 0.5593 0.49497 0.0
H752 H 0.06059 0.57519 0.84507 0.0
H753 H 0.97811 0.52764 0.95498 0.0
H754 H 0.93411 0.50095 0.88834 0.0
H755 H 0.91592 0.48798 0.79532 0.0
H756 H -0.00169 0.53795 0.68564 0.0
H757 H 0.04206 0.56495 0.75232 0.0
C758 C 0.03307 0.55921 0.85551 0.0
C759 C 0.02476 0.5545 0.90893 0.0
C760 C 0.00626 0.54335 0.81487 0.0
C761 C 0.98756 0.53305 0.91696 0.0
C762 C 0.96154 0.51725 0.87756 0.0
C763 C 0.94336 0.50463 0.78497 0.0
C764 C 0.95188 0.50919 0.73154 0.0
C765 C 0.96997 0.52153 0.82567 0.0
C766 C 0.98881 0.53227 0.72364 0.0
C767 C 0.01467 0.54833 0.76304 0.0
H768 H 0.51106 0.04264 0.52209 0.0
H769 H 0.60176 0.04941 0.44954 0.0
H770 H 0.59741 0.00244 0.50329 0.0
H771 H 0.54291 0.94919 0.47673 0.0
H772 H 0.44287 0.94385 0.49972 0.0
H773 H 0.4695 0.98741 0.56465 0.0
C774 C 0.53015 0.03374 0.51864 0.0
C775 C 0.5527 0.04465 0.47699 0.0
C776 C 0.52251 0.00189 0.54107 0.0
C777 C 0.58111 0.03812 0.47743 0.0
C778 C 0.57846 0.01124 0.50865 0.0
C779 C 0.52701 0.95773 0.49652 0.0
C780 C 0.49299 0.94819 0.4786 0.0
C781 C 0.54408 0.98776 0.52547 0.0
C782 C 0.47056 0.95423 0.50887 0.0
C783 C 0.486 0.97892 0.5464 0.0
H784 H 0.40047 0.43565 0.802 0.0
H785 H 0.49563 0.53072 0.83832 0.0
H786 H 0.5078 0.49923 0.90391 0.0
H787 H 0.52092 0.45991 0.85491 0.0
H788 H 0.43599 0.37291 0.77968 0.0
H789 H 0.39409 0.37876 0.83302 0.0
C790 C 0.42388 0.44949 0.82498 0.0
C791 C 0.44999 0.48361 0.8108 0.0
C792 C 0.43381 0.43012 0.85625 0.0
C793 C 0.47725 0.50316 0.84462 0.0
C794 C 0.48357 0.48498 0.88267 0.0
C795 C 0.49293 0.44135 0.85107 0.0
C796 C 0.48109 0.41967 0.809 0.0
C797 C 0.46912 0.44902 0.87451 0.0
C798 C 0.44574 0.39278 0.80801 0.0
C799 C 0.42194 0.3962 0.83881 0.0
H800 H 0.93473 0.47614 0.18006 0.0
H801 H 0.9916 0.42563 1.1297 0.0
H802 H 0.03332 0.45194 0.1972 0.0
H803 H 0.06307 0.51479 0.1694 0.0
H804 H 0.0067 0.57103 0.18483 0.0
H805 H 0.96485 0.52509 0.24076 0.0
C806 C 0.95588 0.47006 0.18497 0.0
C807 C 0.96279 0.45289 1.14658 0.0
C808 C 0.98314 0.48977 0.21873 0.0
C809 C 0.98736 0.44155 0.15586 0.0
C810 C 0.01109 0.45655 0.19519 0.0
C811 C 0.04171 0.51707 0.1862 0.0
C812 C 0.03384 0.5423 0.16717 0.0
C813 C 0.01475 0.48817 0.21158 0.0
C814 C 0.0104 0.54903 0.19407 0.0
C815 C 0.98687 0.52284 0.22659 0.0
H816 H 0.05024 0.52168 0.43802 0.0
H817 H 0.04934 0.60145 0.52658 0.0
H818 H -0.0013 0.59531 0.47944 0.0
H819 H 0.94808 0.53701 0.49955 0.0
H820 H 0.95214 0.44581 0.45614 0.0
H821 H -0.00354 0.48079 0.39356 0.0
C822 C 0.03942 0.53859 0.4457 0.0
C823 C 0.04953 0.55801 0.48981 0.0
C824 C 0.00612 0.52938 0.42623 0.0
C825 C 0.03934 0.58329 0.49602 0.0
C826 C 0.01024 0.57955 0.46865 0.0
C827 C 0.9588 0.52496 0.47584 0.0
C828 C 0.95172 0.4908 0.48722 0.0
C829 C 0.98898 0.54642 0.44779 0.0
C830 C 0.9606 0.47336 0.45197 0.0
C831 C 0.98563 0.49356 0.41582 0.0
H832 H 0.46861 0.94023 0.76973 0.0
H833 H 0.54697 0.93463 0.86141 0.0
H834 H 0.59341 0.98188 0.81268 0.0
H835 H 0.59203 0.03621 0.82641 0.0
H836 H 0.49895 0.04019 0.783 0.0
H837 H 0.48483 -0.00582 0.72321 0.0
C838 C 0.4962 0.94904 0.77802 0.0
C839 C 0.50479 0.93833 0.82309 0.0
C840 C 0.52188 0.98075 0.75715 0.0
C841 C 0.5397 0.94549 0.83002 0.0
C842 C 0.56617 0.97253 0.80161 0.0
C843 C 0.56862 0.02681 0.80325 0.0
C844 C 0.54352 0.037 0.81404 0.0
C845 C 0.55647 -0.00468 0.7783 0.0
C846 C 0.51662 0.02969 0.77926 0.0
C847 C 0.50889 0.00343 0.7449 0.0
H848 H 0.52075 0.50831 0.16152 0.0
H849 H 0.4829 0.47884 0.30993 0.0
H850 H 0.42305 0.43838 0.28083 0.0
H851 H 0.38518 0.40706 0.21225 0.0
H852 H 0.43706 0.40864 1.07994 0.0
H853 H 0.48244 0.47022 1.09229 0.0
C854 C 0.4989 0.49297 0.18671 0.0
C855 C 0.50226 0.50044 0.23724 0.0
C856 C 0.46544 0.46962 0.16848 0.0
C857 C 0.47798 0.47552 0.27043 0.0
C858 C 0.44337 0.4546 0.25408 0.0
C859 C 0.40652 0.42198 0.18604 0.0
C860 C 0.4154 0.40316 0.15385 0.0
C861 C 0.43652 0.45195 0.20271 0.0
C862 C 0.4355 0.42216 1.11226 0.0
C863 C 0.46181 0.45689 1.11988 0.0
H864 H 0.35405 0.05354 0.74443 0.0
H865 H 0.28643 0.94714 0.69815 0.0
H866 H 0.28172 0.96753 0.61523 0.0
H867 H 0.31086 0.01316 0.55258 0.0
H868 H 0.38082 0.11975 0.59659 0.0
H869 H 0.36972 0.10183 0.68403 0.0
C870 C 0.33743 0.03502 0.71649 0.0
C871 C 0.32149 -0.00103 0.72664 0.0
C872 C 0.33573 0.04687 0.66839 0.0
C873 C 0.29925 0.97505 0.69091 0.0
C874 C 0.29676 0.98668 0.64335 0.0
C875 C 0.32243 0.03298 0.58094 0.0
C876 C 0.34813 0.06745 0.56806 0.0
C877 C 0.31692 0.02229 0.63091 0.0
C878 C 0.3621 0.09269 0.60565 0.0
C879 C 0.35593 0.08244 0.65567 0.0
H880 H 0.37494 0.25364 1.01661 0.0
H881 H 0.26644 0.21153 1.06339 0.0
H882 H 0.25273 0.23074 0.98473 0.0
H883 H 0.27479 0.26946 0.91062 0.0
H884 H 0.38315 0.31093 0.86471 0.0
H885 H 0.39353 0.2811 0.93476 0.0
C886 C 0.34788 0.24722 1.00907 0.0
C887 C 0.32201 0.23203 1.0466 0.0
C888 C 0.34032 0.25872 0.96417 0.0
C889 C 0.28714 0.22413 1.03575 0.0
C890 C 0.27927 0.23514 0.99081 0.0
C891 C 0.30032 0.27105 0.91541 0.0
C892 C 0.32832 0.29252 0.88332 0.0
C893 C 0.30616 0.25416 0.95602 0.0
C894 C 0.36128 0.29441 0.88917 0.0
C895 C 0.36726 0.27758 0.92934 0.0
H896 H 0.97769 0.28021 0.23075 0.0
H897 H 0.86898 0.23861 0.2763 0.0
H898 H 0.88836 0.25512 0.36204 0.0
H899 H 0.93708 0.29422 0.41803 0.0
H900 H 0.04515 0.33618 0.36988 0.0
H901 H 0.02489 0.3058 0.29121 0.0
C902 C 0.95779 0.27311 0.25936 0.0
C903 C 0.92198 0.25977 0.24638 0.0
C904 C 0.96916 0.28356 0.3081 0.0
C905 C 0.89692 0.25031 0.2848 0.0
C906 C 0.90798 0.25992 0.33386 0.0
C907 C 0.95606 0.29597 0.39062 0.0
C908 C 0.99245 0.31798 0.39901 0.0
C909 C 0.94421 0.27887 0.34502 0.0
C910 C 0.01698 0.31955 0.36401 0.0
C911 C 0.00541 0.30231 0.31893 0.0
H912 H 0.66364 0.96183 0.76538 0.0
H913 H 0.75047 0.05802 0.70823 0.0
H914 H 0.74722 0.03001 0.62901 0.0
H915 H 0.70987 0.9836 0.57128 0.0
H916 H 0.61766 0.89092 0.62672 0.0
H917 H 0.63386 0.91111 0.71164 0.0
C918 C 0.68281 0.97617 0.73629 0.0
C919 C 0.7068 0.01196 0.74187 0.0
C920 C 0.67945 0.96049 0.69025 0.0
C921 C 0.73145 0.03049 0.70409 0.0
C922 C 0.72946 0.01455 0.65886 0.0
C923 C 0.69386 0.96749 0.60215 0.0
C924 C 0.66205 0.93648 0.5927 0.0
C925 C 0.70198 0.98036 0.65055 0.0
C926 C 0.64214 0.91511 0.63289 0.0
C927 C 0.65113 0.92685 0.68153 0.0
H928 H 0.67333 0.73813 1.0129 0.0
H929 H 0.55982 0.6889 1.02873 0.0
H930 H 0.55178 0.66625 0.9454 0.0
H931 H 0.57569 0.64588 0.87989 0.0
H932 H 0.68857 0.68751 0.87039 0.0
H933 H 0.69797 0.72684 0.93867 0.0
C934 C 0.64685 0.72314 0.99764 0.0
C935 C 0.61736 0.71393 1.02822 0.0
C936 C 0.64216 0.7075 0.95112 0.0
C937 C 0.58328 0.69609 1.00688 0.0
C938 C 0.57848 0.68239 0.95923 0.0
C939 C 0.60237 0.664 0.89228 0.0
C940 C 0.63125 0.66306 0.87111 0.0
C941 C 0.60754 0.68548 0.93299 0.0
C942 C 0.66578 0.68747 0.8863 0.0
C943 C 0.67121 0.70989 0.9256 0.0
H944 H 0.06256 0.7207 0.26139 0.0
H945 H 0.96295 0.69905 0.19601 0.0
H946 H 0.93537 0.68481 0.27825 0.0
H947 H 0.93691 0.66558 0.36416 0.0
H948 H 0.03592 0.68389 0.42749 0.0
H949 H 0.0668 0.71338 0.35085 0.0
C950 C 0.03523 0.7144 0.26527 0.0
C951 C 0.01454 0.71007 0.22271 0.0
C952 C 0.01934 0.70499 0.31223 0.0
C953 C 0.97915 0.70183 0.22834 0.0
C954 C 0.96335 0.69349 0.27524 0.0
C955 C 0.96539 0.67689 0.3614 0.0
C956 C 0.98413 0.67209 0.4006 0.0
C957 C 0.98269 0.6928 0.31681 0.0
C958 C 0.02104 0.68724 0.39747 0.0
C959 C 0.03862 0.70385 0.35359 0.0
H960 H 0.51081 0.1097 0.58152 0.0
H961 H 0.6101 0.12519 0.52607 0.0
H962 H 0.63017 0.12537 0.61157 0.0
H963 H 0.62125 0.12093 0.70738 0.0
H964 H 0.52351 0.11031 0.76167 0.0
H965 H 0.50326 0.10861 0.67644 0.0
C966 C 0.53713 0.11348 0.58718 0.0
C967 C 0.55828 0.1177 0.54293 0.0
C968 C 0.54966 0.11439 0.63913 0.0
C969 C 0.59221 0.12224 0.55586 0.0
C970 C 0.60404 0.12218 0.60634 0.0
C971 C 0.59545 0.11838 0.70153 0.0
C972 C 0.57468 0.11576 0.74567 0.0
C973 C 0.58334 0.1183 0.64934 0.0
C974 C 0.5414 0.11265 0.73223 0.0
C975 C 0.52928 0.11156 0.68183 0.0
H976 H 0.38661 0.49096 0.92805 0.0
H977 H 0.47085 0.58373 0.85931 0.0
H978 H 0.49626 0.60566 0.94104 0.0
H979 H 0.49703 0.60136 1.03746 0.0
H980 H 0.41099 0.51021 1.1066 0.0
H981 H 0.38646 0.48738 1.02465 0.0
C982 C 0.41047 0.51621 0.92982 0.0
C983 C 0.42543 0.53476 0.88245 0.0
C984 C 0.42587 0.53009 0.98011 0.0
C985 C 0.4569 0.5675 0.89119 0.0
C986 C 0.47215 0.58059 0.93969 0.0
C987 C 0.47289 0.57633 1.03575 0.0
C988 C 0.4571 0.55846 1.08322 0.0
C989 C 0.45731 0.56259 0.9855 0.0
C990 C 0.42525 0.52605 1.07458 0.0
C991 C 0.41062 0.51242 1.02599 0.0
H992 H 0.87241 0.4555 0.22418 0.0
H993 H 0.88578 0.36545 0.24169 0.0
H994 H 0.88407 0.36993 0.33242 0.0
H995 H 0.87906 0.39924 0.41237 0.0
H996 H 0.86983 0.49167 0.39475 0.0
H997 H 0.8698 0.48616 0.30403 0.0
C998 C 0.87475 0.43631 0.24708 0.0
C999 C 0.87874 0.40928 0.22146 0.0
C1000 C 0.87452 0.43955 0.30221 0.0
C1001 C 0.8823 0.38633 0.25616 0.0
C1002 C 0.88137 0.38903 0.30975 0.0
C1003 C 0.87672 0.41842 0.38942 0.0
C1004 C 0.87372 0.44604 0.415 0.0
C1005 C 0.87746 0.41546 0.33428 0.0
C1006 C 0.87171 0.46986 0.38029 0.0
C1007 C 0.87176 0.46665 0.32671 0.0
H1008 H 0.49203 0.8653 0.58589 0.0
H1009 H 0.40487 0.87508 0.52742 0.0
H1010 H 0.38612 0.87732 0.61189 0.0
H1011 H 0.39248 0.87697 0.70738 0.0
H1012 H 0.47582 0.86128 0.76654 0.0
H1013 H 0.49599 0.86095 0.68192 0.0
C1014 C 0.4687 0.86776 0.59063 0.0
C1015 C 0.4507 0.87007 0.54555 0.0
C1016 C 0.45647 0.868 0.64233 0.0
C1017 C 0.42038 0.87303 0.55763 0.0
C1018 C 0.40924 0.87443 0.60759 0.0
C1019 C 0.415 0.87315 0.70276 0.0
C1020 C 0.43174 0.86902 0.74789 0.0
C1021 C 0.4267 0.87194 0.65121 0.0
C1022 C 0.46102 0.86426 0.73612 0.0
C1023 C 0.47309 0.86421 0.68612 0.0
H1024 H 0.56294 0.45998 0.92069 0.0
H1025 H 0.51749 0.3559 0.86319 0.0
H1026 H 0.4936 0.33163 0.94586 0.0
H1027 H 0.48376 0.33807 1.04023 0.0
H1028 H 0.52888 0.44366 1.09351 0.0
H1029 H 0.55232 0.46642 1.01184 0.0
C1030 C 0.54811 0.43182 0.92527 0.0
C1031 C 0.54352 0.41081 0.88146 0.0
C1032 C 0.53315 0.4171 0.97512 0.0
C1033 C 0.52305 0.37422 0.8929 0.0
C1034 C 0.50873 0.35981 0.94171 0.0
C1035 C 0.49848 0.36617 1.03493 0.0
C1036 C 0.50346 0.38804 1.07829 0.0
C1037 C 0.51318 0.38062 0.98426 0.0
C1038 C 0.52349 0.42446 1.06517 0.0
C1039 C 0.53753 0.43825 1.01665 0.0
H1040 H 0.1213 0.60172 0.4104 0.0
H1041 H 0.11671 0.50254 0.39333 0.0
H1042 H 0.11694 0.50963 0.30273 0.0
H1043 H 0.11806 0.54322 0.22332 0.0
H1044 H 0.11742 0.63996 0.23888 0.0
H1045 H 0.11974 0.63441 0.32989 0.0
C1046 C 0.12078 0.58147 0.38753 0.0
C1047 C 0.11982 0.55132 0.41307 0.0
C1048 C 0.11987 0.58532 0.33243 0.0
C1049 C 0.11803 0.52619 0.37869 0.0
C1050 C 0.11805 0.5303 0.32527 0.0
C1051 C 0.1185 0.56358 0.24584 0.0
C1052 C 0.1179 0.59275 0.21984 0.0
C1053 C 0.11894 0.55968 0.30075 0.0
C1054 C 0.11813 0.61737 0.25387 0.0
C1055 C 0.11941 0.61404 0.30752 0.0
loop_
_geom_bond_atom_site_label_1
_geom_bond_atom_site_label_2
_geom_bond_distance
_geom_bond_site_symmetry_2
_ccdc_geom_bond_type
Tb0 C10 2.825 . S
Tb0 O11 2.347 . S
Tb0 O14 2.366 . S
Tb0 O19 2.418 . S
Tb0 O20 2.384 . S
Tb0 O23 2.479 . S
Tb0 O24 2.471 . S
Eu1 O12 2.418 . S
Eu1 O13 2.384 . S
Eu1 O16 2.479 . S
Eu1 O17 2.471 . S
Eu1 O18 2.347 . S
Eu1 O21 2.366 . S
Eu1 C31 2.825 . S
C2 O18 1.259 . S
C2 O19 1.265 . S
C3 O20 1.255 . S
C3 O21 1.265 . S
C4 C6 1.380 . S
C4 C7 1.374 . S
C4 C10 1.507 . S
C5 C6 1.384 . S
C5 C9 1.387 . S
C5 H32 0.930 . S
C6 C4 1.380 . S
C6 C5 1.384 . S
C6 H33 0.931 . S
C7 C4 1.374 . S
C7 C8 1.390 . S
C7 H34 0.930 . S
C8 C7 1.390 . S
C8 C9 1.391 . S
C8 H35 0.930 . S
C9 C5 1.387 . S
C9 C8 1.391 . S
C10 Tb0 2.825 . S
C10 C4 1.507 . S
C10 O23 1.238 . S
C10 O24 1.247 . S
O11 Tb0 2.347 . S
O11 C15 1.259 . S
O12 Eu1 2.418 . S
O12 C15 1.265 . S
O13 Eu1 2.384 . S
O13 C22 1.255 . S
O14 Tb0 2.366 . S
O14 C22 1.265 . S
C15 O11 1.259 . S
C15 O12 1.265 . S
O16 Eu1 2.479 . S
O16 C31 1.238 . S
O17 Eu1 2.471 . S
O17 C31 1.247 . S
O18 Eu1 2.347 . S
O18 C2 1.259 . S
O19 Tb0 2.418 . S
O19 C2 1.265 . S
O20 Tb0 2.384 . S
O20 C3 1.255 . S
O21 Eu1 2.366 . S
O21 C3 1.265 . S
C22 O13 1.255 . S
C22 O14 1.265 . S
O23 Tb0 2.479 . S
O23 C10 1.238 . S
O24 Tb0 2.471 . S
O24 C10 1.247 . S
C25 C28 1.380 . S
C25 C29 1.374 . S
C25 C31 1.507 . S
C26 C27 1.387 . S
C26 C30 1.391 . S
C27 C26 1.387 . S
C27 C28 1.384 . S
C27 H36 0.930 . S
C28 C25 1.380 . S
C28 C27 1.384 . S
C28 H37 0.931 . S
C29 C25 1.374 . S
C29 C30 1.390 . S
C29 H38 0.930 . S
C30 C26 1.391 . S
C30 C29 1.390 . S
C30 H39 0.930 . S
C31 Eu1 2.825 . S
C31 O16 1.238 . S
C31 O17 1.247 . S
C31 C25 1.507 . S
H32 C5 0.930 . S
H33 C6 0.931 . S
H34 C7 0.930 . S
H35 C8 0.930 . S
H36 C27 0.930 . S
H37 C28 0.931 . S
H38 C29 0.930 . S
H39 C30 0.930 . S
Tb40 C50 2.825 . S
Tb40 O51 2.347 . S
Tb40 O54 2.366 . S
Tb40 O59 2.418 . S
Tb40 O60 2.384 . S
Tb40 O63 2.479 . S
Tb40 O64 2.471 . S
Eu41 O52 2.418 . S
Eu41 O53 2.384 . S
Eu41 O56 2.479 . S
Eu41 O57 2.471 . S
Eu41 O58 2.347 . S
Eu41 O61 2.366 . S
Eu41 C71 2.825 . S
C42 O58 1.259 . S
C42 O59 1.265 . S
C43 O60 1.255 . S
C43 O61 1.265 . S
C44 C46 1.380 . S
C44 C47 1.374 . S
C44 C50 1.507 . S
C45 C46 1.384 . S
C45 C49 1.387 . S
C45 H72 0.930 . S
C46 C44 1.380 . S
C46 C45 1.384 . S
C46 H73 0.931 . S
C47 C44 1.374 . S
C47 C48 1.390 . S
C47 H74 0.930 . S
C48 C47 1.390 . S
C48 C49 1.391 . S
C48 H75 0.930 . S
C49 C45 1.387 . S
C49 C48 1.391 . S
C50 Tb40 2.825 . S
C50 C44 1.507 . S
C50 O63 1.238 . S
C50 O64 1.247 . S
O51 Tb40 2.347 . S
O51 C55 1.259 . S
O52 Eu41 2.418 . S
O52 C55 1.265 . S
O53 Eu41 2.384 . S
O53 C62 1.255 . S
O54 Tb40 2.366 . S
O54 C62 1.265 . S
C55 O51 1.259 . S
C55 O52 1.265 . S
O56 Eu41 2.479 . S
O56 C71 1.238 . S
O57 Eu41 2.471 . S
O57 C71 1.247 . S
O58 Eu41 2.347 . S
O58 C42 1.259 . S
O59 Tb40 2.418 . S
O59 C42 1.265 . S
O60 Tb40 2.384 . S
O60 C43 1.255 . S
O61 Eu41 2.366 . S
O61 C43 1.265 . S
C62 O53 1.255 . S
C62 O54 1.265 . S
O63 Tb40 2.479 . S
O63 C50 1.238 . S
O64 Tb40 2.471 . S
O64 C50 1.247 . S
C65 C68 1.380 . S
C65 C69 1.374 . S
C65 C71 1.507 . S
C66 C67 1.387 . S
C66 C70 1.391 . S
C67 C66 1.387 . S
C67 C68 1.384 . S
C67 H76 0.930 . S
C68 C65 1.380 . S
C68 C67 1.384 . S
C68 H77 0.931 . S
C69 C65 1.374 . S
C69 C70 1.390 . S
C69 H78 0.930 . S
C70 C66 1.391 . S
C70 C69 1.390 . S
C70 H79 0.930 . S
C71 Eu41 2.825 . S
C71 O56 1.238 . S
C71 O57 1.247 . S
C71 C65 1.507 . S
H72 C45 0.930 . S
H73 C46 0.931 . S
H74 C47 0.930 . S
H75 C48 0.930 . S
H76 C67 0.930 . S
H77 C68 0.931 . S
H78 C69 0.930 . S
H79 C70 0.930 . S
Tb80 C90 2.825 1_556 S
Tb80 O91 2.347 . S
Tb80 O94 2.366 . S
Tb80 O99 2.418 . S
Tb80 O100 2.384 . S
Tb80 O103 2.479 . S
Tb80 O104 2.471 . S
Eu81 O92 2.418 . S
Eu81 O93 2.384 . S
Eu81 O96 2.479 . S
Eu81 O97 2.471 . S
Eu81 O98 2.347 . S
Eu81 O101 2.366 . S
Eu81 C111 2.825 . S
C82 O98 1.259 . S
C82 O99 1.265 . S
C83 O100 1.255 . S
C83 O101 1.265 . S
C84 C86 1.380 . S
C84 C87 1.374 . S
C84 C90 1.507 . S
C85 C86 1.384 . S
C85 C89 1.387 . S
C85 H112 0.930 . S
C86 C84 1.380 . S
C86 C85 1.384 . S
C86 H113 0.931 . S
C87 C84 1.374 . S
C87 C88 1.390 . S
C87 H114 0.930 . S
C88 C87 1.390 . S
C88 C89 1.391 . S
C88 H115 0.930 . S
C89 C85 1.387 . S
C89 C88 1.391 . S
C90 Tb80 2.825 1_554 S
C90 C84 1.507 . S
C90 O103 1.238 1_554 S
C90 O104 1.247 1_554 S
O91 Tb80 2.347 . S
O91 C95 1.259 . S
O92 Eu81 2.418 . S
O92 C95 1.265 . S
O93 Eu81 2.384 . S
O93 C102 1.255 . S
O94 Tb80 2.366 . S
O94 C102 1.265 . S
C95 O91 1.259 . S
C95 O92 1.265 . S
O96 Eu81 2.479 . S
O96 C111 1.238 . S
O97 Eu81 2.471 . S
O97 C111 1.247 . S
O98 Eu81 2.347 . S
O98 C82 1.259 . S
O99 Tb80 2.418 . S
O99 C82 1.265 . S
O100 Tb80 2.384 . S
O100 C83 1.255 . S
O101 Eu81 2.366 . S
O101 C83 1.265 . S
C102 O93 1.255 . S
C102 O94 1.265 . S
O103 Tb80 2.479 . S
O103 C90 1.238 1_556 S
O104 Tb80 2.471 . S
O104 C90 1.247 1_556 S
C105 C108 1.380 . S
C105 C109 1.374 . S
C105 C111 1.507 . S
C106 C107 1.387 . S
C106 C110 1.391 . S
C107 C106 1.387 . S
C107 C108 1.384 . S
C107 H116 0.930 . S
C108 C105 1.380 . S
C108 C107 1.384 . S
C108 H117 0.931 . S
C109 C105 1.374 . S
C109 C110 1.390 . S
C109 H118 0.930 . S
C110 C106 1.391 . S
C110 C109 1.390 . S
C110 H119 0.930 . S
C111 Eu81 2.825 . S
C111 O96 1.238 . S
C111 O97 1.247 . S
C111 C105 1.507 . S
H112 C85 0.930 . S
H113 C86 0.931 . S
H114 C87 0.930 . S
H115 C88 0.930 . S
H116 C107 0.930 . S
H117 C108 0.931 . S
H118 C109 0.930 . S
H119 C110 0.930 . S
Tb120 C130 2.825 . S
Tb120 O131 2.347 . S
Tb120 O134 2.366 . S
Tb120 O139 2.418 . S
Tb120 O140 2.384 . S
Tb120 O143 2.479 . S
Tb120 O144 2.471 . S
Eu121 O132 2.418 . S
Eu121 O133 2.384 . S
Eu121 O136 2.479 . S
Eu121 O137 2.471 . S
Eu121 O138 2.347 . S
Eu121 O141 2.366 . S
Eu121 C151 2.825 . S
C122 O138 1.259 . S
C122 O139 1.265 . S
C123 O140 1.255 . S
C123 O141 1.265 . S
C124 C126 1.380 . S
C124 C127 1.374 . S
C124 C130 1.507 . S
C125 C126 1.384 . S
C125 C129 1.387 . S
C125 H152 0.930 . S
C126 C124 1.380 . S
C126 C125 1.384 . S
C126 H153 0.931 . S
C127 C124 1.374 . S
C127 C128 1.390 . S
C127 H154 0.930 . S
C128 C127 1.390 . S
C128 C129 1.391 . S
C128 H155 0.930 . S
C129 C125 1.387 . S
C129 C128 1.391 . S
C130 Tb120 2.825 . S
C130 C124 1.507 . S
C130 O143 1.238 . S
C130 O144 1.247 . S
O131 Tb120 2.347 . S
O131 C135 1.259 . S
O132 Eu121 2.418 . S
O132 C135 1.265 . S
O133 Eu121 2.384 . S
O133 C142 1.255 . S
O134 Tb120 2.366 . S
O134 C142 1.265 . S
C135 O131 1.259 . S
C135 O132 1.265 . S
O136 Eu121 2.479 . S
O136 C151 1.238 . S
O137 Eu121 2.471 . S
O137 C151 1.247 . S
O138 Eu121 2.347 . S
O138 C122 1.259 . S
O139 Tb120 2.418 . S
O139 C122 1.265 . S
O140 Tb120 2.384 . S
O140 C123 1.255 . S
O141 Eu121 2.366 . S
O141 C123 1.265 . S
C142 O133 1.255 . S
C142 O134 1.265 . S
O143 Tb120 2.479 . S
O143 C130 1.238 . S
O144 Tb120 2.471 . S
O144 C130 1.247 . S
C145 C148 1.380 . S
C145 C149 1.374 . S
C145 C151 1.507 . S
C146 C147 1.387 . S
C146 C150 1.391 . S
C147 C146 1.387 . S
C147 C148 1.384 . S
C147 H156 0.930 . S
C148 C145 1.380 . S
C148 C147 1.384 . S
C148 H157 0.931 . S
C149 C145 1.374 . S
C149 C150 1.390 . S
C149 H158 0.930 . S
C150 C146 1.391 . S
C150 C149 1.390 . S
C150 H159 0.930 . S
C151 Eu121 2.825 . S
C151 O136 1.238 . S
C151 O137 1.247 . S
C151 C145 1.507 . S
H152 C125 0.930 . S
H153 C126 0.931 . S
H154 C127 0.930 . S
H155 C128 0.930 . S
H156 C147 0.930 . S
H157 C148 0.931 . S
H158 C149 0.930 . S
H159 C150 0.930 . S
Tb160 C170 2.825 . S
Tb160 O171 2.347 . S
Tb160 O174 2.366 . S
Tb160 O179 2.418 . S
Tb160 O180 2.384 . S
Tb160 O183 2.479 . S
Tb160 O184 2.471 . S
Eu161 O172 2.418 . S
Eu161 O173 2.384 . S
Eu161 O176 2.479 . S
Eu161 O177 2.471 . S
Eu161 O178 2.347 . S
Eu161 O181 2.366 . S
Eu161 C191 2.825 . S
C162 O178 1.259 . S
C162 O179 1.265 . S
C163 O180 1.255 . S
C163 O181 1.265 . S
C164 C166 1.380 . S
C164 C167 1.374 . S
C164 C170 1.507 . S
C165 C166 1.384 . S
C165 C169 1.387 . S
C165 H192 0.930 . S
C166 C164 1.380 . S
C166 C165 1.384 . S
C166 H193 0.931 . S
C167 C164 1.374 . S
C167 C168 1.390 . S
C167 H194 0.930 . S
C168 C167 1.390 . S
C168 C169 1.391 . S
C168 H195 0.930 . S
C169 C165 1.387 . S
C169 C168 1.391 . S
C170 Tb160 2.825 . S
C170 C164 1.507 . S
C170 O183 1.238 . S
C170 O184 1.247 . S
O171 Tb160 2.347 . S
O171 C175 1.259 . S
O172 Eu161 2.418 . S
O172 C175 1.265 . S
O173 Eu161 2.384 . S
O173 C182 1.255 . S
O174 Tb160 2.366 . S
O174 C182 1.265 . S
C175 O171 1.259 . S
C175 O172 1.265 . S
O176 Eu161 2.479 . S
O176 C191 1.238 . S
O177 Eu161 2.471 . S
O177 C191 1.247 . S
O178 Eu161 2.347 . S
O178 C162 1.259 . S
O179 Tb160 2.418 . S
O179 C162 1.265 . S
O180 Tb160 2.384 . S
O180 C163 1.255 . S
O181 Eu161 2.366 . S
O181 C163 1.265 . S
C182 O173 1.255 . S
C182 O174 1.265 . S
O183 Tb160 2.479 . S
O183 C170 1.238 . S
O184 Tb160 2.471 . S
O184 C170 1.247 . S
C185 C188 1.380 . S
C185 C189 1.374 . S
C185 C191 1.507 . S
C186 C187 1.387 . S
C186 C190 1.391 . S
C187 C186 1.387 . S
C187 C188 1.384 . S
C187 H196 0.930 . S
C188 C185 1.380 . S
C188 C187 1.384 . S
C188 H197 0.931 . S
C189 C185 1.374 . S
C189 C190 1.390 . S
C189 H198 0.930 . S
C190 C186 1.391 . S
C190 C189 1.390 . S
C190 H199 0.930 . S
C191 Eu161 2.825 . S
C191 O176 1.238 . S
C191 O177 1.247 . S
C191 C185 1.507 . S
H192 C165 0.930 . S
H193 C166 0.931 . S
H194 C167 0.930 . S
H195 C168 0.930 . S
H196 C187 0.930 . S
H197 C188 0.931 . S
H198 C189 0.930 . S
H199 C190 0.930 . S
Tb200 C210 2.825 1_556 S
Tb200 O211 2.347 . S
Tb200 O214 2.366 . S
Tb200 O219 2.418 . S
Tb200 O220 2.384 . S
Tb200 O223 2.479 . S
Tb200 O224 2.471 . S
Eu201 O212 2.418 . S
Eu201 O213 2.384 . S
Eu201 O216 2.479 . S
Eu201 O217 2.471 . S
Eu201 O218 2.347 . S
Eu201 O221 2.366 . S
Eu201 C231 2.825 . S
C202 O218 1.259 . S
C202 O219 1.265 . S
C203 O220 1.255 . S
C203 O221 1.265 . S
C204 C206 1.380 . S
C204 C207 1.374 . S
C204 C210 1.507 . S
C205 C206 1.384 . S
C205 C209 1.387 . S
C205 H232 0.930 . S
C206 C204 1.380 . S
C206 C205 1.384 . S
C206 H233 0.931 . S
C207 C204 1.374 . S
C207 C208 1.390 . S
C207 H234 0.930 . S
C208 C207 1.390 . S
C208 C209 1.391 . S
C208 H235 0.930 . S
C209 C205 1.387 . S
C209 C208 1.391 . S
C210 Tb200 2.825 1_554 S
C210 C204 1.507 . S
C210 O223 1.238 1_554 S
C210 O224 1.247 1_554 S
O211 Tb200 2.347 . S
O211 C215 1.259 . S
O212 Eu201 2.418 . S
O212 C215 1.265 . S
O213 Eu201 2.384 . S
O213 C222 1.255 . S
O214 Tb200 2.366 . S
O214 C222 1.265 . S
C215 O211 1.259 . S
C215 O212 1.265 . S
O216 Eu201 2.479 . S
O216 C231 1.238 . S
O217 Eu201 2.471 . S
O217 C231 1.247 . S
O218 Eu201 2.347 . S
O218 C202 1.259 . S
O219 Tb200 2.418 . S
O219 C202 1.265 . S
O220 Tb200 2.384 . S
O220 C203 1.255 . S
O221 Eu201 2.366 . S
O221 C203 1.265 . S
C222 O213 1.255 . S
C222 O214 1.265 . S
O223 Tb200 2.479 . S
O223 C210 1.238 1_556 S
O224 Tb200 2.471 . S
O224 C210 1.247 1_556 S
C225 C228 1.380 . S
C225 C229 1.374 . S
C225 C231 1.507 . S
C226 C227 1.387 . S
C226 C230 1.391 . S
C227 C226 1.387 . S
C227 C228 1.384 . S
C227 H236 0.930 . S
C228 C225 1.380 . S
C228 C227 1.384 . S
C228 H237 0.931 . S
C229 C225 1.374 . S
C229 C230 1.390 . S
C229 H238 0.930 . S
C230 C226 1.391 . S
C230 C229 1.390 . S
C230 H239 0.930 . S
C231 Eu201 2.825 . S
C231 O216 1.238 . S
C231 O217 1.247 . S
C231 C225 1.507 . S
H232 C205 0.930 . S
H233 C206 0.931 . S
H234 C207 0.930 . S
H235 C208 0.930 . S
H236 C227 0.930 . S
H237 C228 0.931 . S
H238 C229 0.930 . S
H239 C230 0.930 . S
Tb240 C250 2.825 . S
Tb240 O251 2.347 . S
Tb240 O254 2.366 . S
Tb240 O259 2.418 . S
Tb240 O260 2.384 . S
Tb240 O263 2.479 . S
Tb240 O264 2.471 . S
Eu241 O252 2.418 . S
Eu241 O253 2.384 . S
Eu241 O256 2.479 . S
Eu241 O257 2.471 . S
Eu241 O258 2.347 . S
Eu241 O261 2.366 . S
Eu241 C271 2.825 . S
C242 O258 1.259 . S
C242 O259 1.265 . S
C243 O260 1.255 . S
C243 O261 1.265 . S
C244 C246 1.380 . S
C244 C247 1.374 . S
C244 C250 1.507 . S
C245 C246 1.384 . S
C245 C249 1.387 . S
C245 H272 0.930 . S
C246 C244 1.380 . S
C246 C245 1.384 . S
C246 H273 0.931 . S
C247 C244 1.374 . S
C247 C248 1.390 . S
C247 H274 0.930 . S
C248 C247 1.390 . S
C248 C249 1.391 . S
C248 H275 0.930 . S
C249 C245 1.387 . S
C249 C248 1.391 . S
C250 Tb240 2.825 . S
C250 C244 1.507 . S
C250 O263 1.238 . S
C250 O264 1.247 . S
O251 Tb240 2.347 . S
O251 C255 1.259 . S
O252 Eu241 2.418 . S
O252 C255 1.265 . S
O253 Eu241 2.384 . S
O253 C262 1.255 . S
O254 Tb240 2.366 . S
O254 C262 1.265 . S
C255 O251 1.259 . S
C255 O252 1.265 . S
O256 Eu241 2.479 . S
O256 C271 1.238 . S
O257 Eu241 2.471 . S
O257 C271 1.247 . S
O258 Eu241 2.347 . S
O258 C242 1.259 . S
O259 Tb240 2.418 . S
O259 C242 1.265 . S
O260 Tb240 2.384 . S
O260 C243 1.255 . S
O261 Eu241 2.366 . S
O261 C243 1.265 . S
C262 O253 1.255 . S
C262 O254 1.265 . S
O263 Tb240 2.479 . S
O263 C250 1.238 . S
O264 Tb240 2.471 . S
O264 C250 1.247 . S
C265 C268 1.380 . S
C265 C269 1.374 . S
C265 C271 1.507 . S
C266 C267 1.387 . S
C266 C270 1.391 . S
C267 C266 1.387 . S
C267 C268 1.384 . S
C267 H276 0.930 . S
C268 C265 1.380 . S
C268 C267 1.384 . S
C268 H277 0.931 . S
C269 C265 1.374 . S
C269 C270 1.390 . S
C269 H278 0.930 . S
C270 C266 1.391 . S
C270 C269 1.390 . S
C270 H279 0.930 . S
C271 Eu241 2.825 . S
C271 O256 1.238 . S
C271 O257 1.247 . S
C271 C265 1.507 . S
H272 C245 0.930 . S
H273 C246 0.931 . S
H274 C247 0.930 . S
H275 C248 0.930 . S
H276 C267 0.930 . S
H277 C268 0.931 . S
H278 C269 0.930 . S
H279 C270 0.930 . S
Tb280 C290 2.825 . S
Tb280 O291 2.347 . S
Tb280 O294 2.366 . S
Tb280 O299 2.418 . S
Tb280 O300 2.384 . S
Tb280 O303 2.479 . S
Tb280 O304 2.471 . S
Eu281 O292 2.418 . S
Eu281 O293 2.384 . S
Eu281 O296 2.479 . S
Eu281 O297 2.471 . S
Eu281 O298 2.347 . S
Eu281 O301 2.366 . S
Eu281 C311 2.825 . S
C282 O298 1.259 . S
C282 O299 1.265 . S
C283 O300 1.255 . S
C283 O301 1.265 . S
C284 C286 1.380 . S
C284 C287 1.374 . S
C284 C290 1.507 . S
C285 C286 1.384 . S
C285 C289 1.387 . S
C285 H312 0.930 . S
C286 C284 1.380 . S
C286 C285 1.384 . S
C286 H313 0.931 . S
C287 C284 1.374 . S
C287 C288 1.390 . S
C287 H314 0.930 . S
C288 C287 1.390 . S
C288 C289 1.391 . S
C288 H315 0.930 . S
C289 C285 1.387 . S
C289 C288 1.391 . S
C290 Tb280 2.825 . S
C290 C284 1.507 . S
C290 O303 1.238 . S
C290 O304 1.247 . S
O291 Tb280 2.347 . S
O291 C295 1.259 . S
O292 Eu281 2.418 . S
O292 C295 1.265 . S
O293 Eu281 2.384 . S
O293 C302 1.255 . S
O294 Tb280 2.366 . S
O294 C302 1.265 . S
C295 O291 1.259 . S
C295 O292 1.265 . S
O296 Eu281 2.479 . S
O296 C311 1.238 . S
O297 Eu281 2.471 . S
O297 C311 1.247 . S
O298 Eu281 2.347 . S
O298 C282 1.259 . S
O299 Tb280 2.418 . S
O299 C282 1.265 . S
O300 Tb280 2.384 . S
O300 C283 1.255 . S
O301 Eu281 2.366 . S
O301 C283 1.265 . S
C302 O293 1.255 . S
C302 O294 1.265 . S
O303 Tb280 2.479 . S
O303 C290 1.238 . S
O304 Tb280 2.471 . S
O304 C290 1.247 . S
C305 C308 1.380 . S
C305 C309 1.374 . S
C305 C311 1.507 . S
C306 C307 1.387 . S
C306 C310 1.391 . S
C307 C306 1.387 . S
C307 C308 1.384 . S
C307 H316 0.930 . S
C308 C305 1.380 . S
C308 C307 1.384 . S
C308 H317 0.931 . S
C309 C305 1.374 . S
C309 C310 1.390 . S
C309 H318 0.930 . S
C310 C306 1.391 . S
C310 C309 1.390 . S
C310 H319 0.930 . S
C311 Eu281 2.825 . S
C311 O296 1.238 . S
C311 O297 1.247 . S
C311 C305 1.507 . S
H312 C285 0.930 . S
H313 C286 0.931 . S
H314 C287 0.930 . S
H315 C288 0.930 . S
H316 C307 0.930 . S
H317 C308 0.931 . S
H318 C309 0.930 . S
H319 C310 0.930 . S
Tb320 C330 2.825 1_554 S
Tb320 O331 2.347 . S
Tb320 O334 2.366 . S
Tb320 O339 2.418 . S
Tb320 O340 2.384 . S
Tb320 O343 2.479 . S
Tb320 O344 2.471 . S
Eu321 O332 2.418 . S
Eu321 O333 2.384 . S
Eu321 O336 2.479 . S
Eu321 O337 2.471 . S
Eu321 O338 2.347 . S
Eu321 O341 2.366 . S
Eu321 C351 2.825 . S
C322 O338 1.259 . S
C322 O339 1.265 . S
C323 O340 1.255 . S
C323 O341 1.265 . S
C324 C326 1.380 . S
C324 C327 1.374 . S
C324 C330 1.507 . S
C325 C326 1.384 . S
C325 C329 1.387 . S
C325 H352 0.930 . S
C326 C324 1.380 . S
C326 C325 1.384 . S
C326 H353 0.931 . S
C327 C324 1.374 . S
C327 C328 1.390 . S
C327 H354 0.930 . S
C328 C327 1.390 . S
C328 C329 1.391 . S
C328 H355 0.930 . S
C329 C325 1.387 . S
C329 C328 1.391 . S
C330 Tb320 2.825 1_556 S
C330 C324 1.507 . S
C330 O343 1.238 1_556 S
C330 O344 1.247 1_556 S
O331 Tb320 2.347 . S
O331 C335 1.259 . S
O332 Eu321 2.418 . S
O332 C335 1.265 . S
O333 Eu321 2.384 . S
O333 C342 1.255 . S
O334 Tb320 2.366 . S
O334 C342 1.265 . S
C335 O331 1.259 . S
C335 O332 1.265 . S
O336 Eu321 2.479 . S
O336 C351 1.238 . S
O337 Eu321 2.471 . S
O337 C351 1.247 . S
O338 Eu321 2.347 . S
O338 C322 1.259 . S
O339 Tb320 2.418 . S
O339 C322 1.265 . S
O340 Tb320 2.384 . S
O340 C323 1.255 . S
O341 Eu321 2.366 . S
O341 C323 1.265 . S
C342 O333 1.255 . S
C342 O334 1.265 . S
O343 Tb320 2.479 . S
O343 C330 1.238 1_554 S
O344 Tb320 2.471 . S
O344 C330 1.247 1_554 S
C345 C348 1.380 . S
C345 C349 1.374 . S
C345 C351 1.507 . S
C346 C347 1.387 . S
C346 C350 1.391 . S
C347 C346 1.387 . S
C347 C348 1.384 . S
C347 H356 0.930 . S
C348 C345 1.380 . S
C348 C347 1.384 . S
C348 H357 0.931 . S
C349 C345 1.374 . S
C349 C350 1.390 . S
C349 H358 0.930 . S
C350 C346 1.391 . S
C350 C349 1.390 . S
C350 H359 0.930 . S
C351 Eu321 2.825 . S
C351 O336 1.238 . S
C351 O337 1.247 . S
C351 C345 1.507 . S
H352 C325 0.930 . S
H353 C326 0.931 . S
H354 C327 0.930 . S
H355 C328 0.930 . S
H356 C347 0.930 . S
H357 C348 0.931 . S
H358 C349 0.930 . S
H359 C350 0.930 . S
Tb360 C370 2.825 . S
Tb360 O371 2.347 . S
Tb360 O374 2.366 . S
Tb360 O379 2.418 . S
Tb360 O380 2.384 . S
Tb360 O383 2.479 . S
Tb360 O384 2.471 . S
Eu361 O372 2.418 . S
Eu361 O373 2.384 . S
Eu361 O376 2.479 . S
Eu361 O377 2.471 . S
Eu361 O378 2.347 . S
Eu361 O381 2.366 . S
Eu361 C391 2.825 . S
C362 O378 1.259 . S
C362 O379 1.265 . S
C363 O380 1.255 . S
C363 O381 1.265 . S
C364 C366 1.380 . S
C364 C367 1.374 . S
C364 C370 1.507 . S
C365 C366 1.384 . S
C365 C369 1.387 . S
C365 H392 0.930 . S
C366 C364 1.380 . S
C366 C365 1.384 . S
C366 H393 0.931 . S
C367 C364 1.374 . S
C367 C368 1.390 . S
C367 H394 0.930 . S
C368 C367 1.390 . S
C368 C369 1.391 . S
C368 H395 0.930 . S
C369 C365 1.387 . S
C369 C368 1.391 . S
C370 Tb360 2.825 . S
C370 C364 1.507 . S
C370 O383 1.238 . S
C370 O384 1.247 . S
O371 Tb360 2.347 . S
O371 C375 1.259 . S
O372 Eu361 2.418 . S
O372 C375 1.265 . S
O373 Eu361 2.384 . S
O373 C382 1.255 . S
O374 Tb360 2.366 . S
O374 C382 1.265 . S
C375 O371 1.259 . S
C375 O372 1.265 . S
O376 Eu361 2.479 . S
O376 C391 1.238 . S
O377 Eu361 2.471 . S
O377 C391 1.247 . S
O378 Eu361 2.347 . S
O378 C362 1.259 . S
O379 Tb360 2.418 . S
O379 C362 1.265 . S
O380 Tb360 2.384 . S
O380 C363 1.255 . S
O381 Eu361 2.366 . S
O381 C363 1.265 . S
C382 O373 1.255 . S
C382 O374 1.265 . S
O383 Tb360 2.479 . S
O383 C370 1.238 . S
O384 Tb360 2.471 . S
O384 C370 1.247 . S
C385 C388 1.380 . S
C385 C389 1.374 . S
C385 C391 1.507 . S
C386 C387 1.387 . S
C386 C390 1.391 . S
C387 C386 1.387 . S
C387 C388 1.384 . S
C387 H396 0.930 . S
C388 C385 1.380 . S
C388 C387 1.384 . S
C388 H397 0.931 . S
C389 C385 1.374 . S
C389 C390 1.390 . S
C389 H398 0.930 . S
C390 C386 1.391 . S
C390 C389 1.390 . S
C390 H399 0.930 . S
C391 Eu361 2.825 . S
C391 O376 1.238 . S
C391 O377 1.247 . S
C391 C385 1.507 . S
H392 C365 0.930 . S
H393 C366 0.931 . S
H394 C367 0.930 . S
H395 C368 0.930 . S
H396 C387 0.930 . S
H397 C388 0.931 . S
H398 C389 0.930 . S
H399 C390 0.930 . S
Tb400 C410 2.825 . S
Tb400 O411 2.347 . S
Tb400 O414 2.366 . S
Tb400 O419 2.418 . S
Tb400 O420 2.384 . S
Tb400 O423 2.479 . S
Tb400 O424 2.471 . S
Eu401 O412 2.418 . S
Eu401 O413 2.384 . S
Eu401 O416 2.479 . S
Eu401 O417 2.471 . S
Eu401 O418 2.347 . S
Eu401 O421 2.366 . S
Eu401 C431 2.825 . S
C402 O418 1.259 . S
C402 O419 1.265 . S
C403 O420 1.255 . S
C403 O421 1.265 . S
C404 C406 1.380 . S
C404 C407 1.374 . S
C404 C410 1.507 . S
C405 C406 1.384 . S
C405 C409 1.387 . S
C405 H432 0.930 . S
C406 C404 1.380 . S
C406 C405 1.384 . S
C406 H433 0.931 . S
C407 C404 1.374 . S
C407 C408 1.390 . S
C407 H434 0.930 . S
C408 C407 1.390 . S
C408 C409 1.391 . S
C408 H435 0.930 . S
C409 C405 1.387 . S
C409 C408 1.391 . S
C410 Tb400 2.825 . S
C410 C404 1.507 . S
C410 O423 1.238 . S
C410 O424 1.247 . S
O411 Tb400 2.347 . S
O411 C415 1.259 . S
O412 Eu401 2.418 . S
O412 C415 1.265 . S
O413 Eu401 2.384 . S
O413 C422 1.255 . S
O414 Tb400 2.366 . S
O414 C422 1.265 . S
C415 O411 1.259 . S
C415 O412 1.265 . S
O416 Eu401 2.479 . S
O416 C431 1.238 . S
O417 Eu401 2.471 . S
O417 C431 1.247 . S
O418 Eu401 2.347 . S
O418 C402 1.259 . S
O419 Tb400 2.418 . S
O419 C402 1.265 . S
O420 Tb400 2.384 . S
O420 C403 1.255 . S
O421 Eu401 2.366 . S
O421 C403 1.265 . S
C422 O413 1.255 . S
C422 O414 1.265 . S
O423 Tb400 2.479 . S
O423 C410 1.238 . S
O424 Tb400 2.471 . S
O424 C410 1.247 . S
C425 C428 1.380 . S
C425 C429 1.374 . S
C425 C431 1.507 . S
C426 C427 1.387 . S
C426 C430 1.391 . S
C427 C426 1.387 . S
C427 C428 1.384 . S
C427 H436 0.930 . S
C428 C425 1.380 . S
C428 C427 1.384 . S
C428 H437 0.931 . S
C429 C425 1.374 . S
C429 C430 1.390 . S
C429 H438 0.930 . S
C430 C426 1.391 . S
C430 C429 1.390 . S
C430 H439 0.930 . S
C431 Eu401 2.825 . S
C431 O416 1.238 . S
C431 O417 1.247 . S
C431 C425 1.507 . S
H432 C405 0.930 . S
H433 C406 0.931 . S
H434 C407 0.930 . S
H435 C408 0.930 . S
H436 C427 0.930 . S
H437 C428 0.931 . S
H438 C429 0.930 . S
H439 C430 0.930 . S
Tb440 C450 2.825 1_554 S
Tb440 O451 2.347 . S
Tb440 O454 2.366 . S
Tb440 O459 2.418 . S
Tb440 O460 2.384 . S
Tb440 O463 2.479 . S
Tb440 O464 2.471 . S
Eu441 O452 2.418 . S
Eu441 O453 2.384 . S
Eu441 O456 2.479 . S
Eu441 O457 2.471 . S
Eu441 O458 2.347 . S
Eu441 O461 2.366 . S
Eu441 C471 2.825 . S
C442 O458 1.259 . S
C442 O459 1.265 . S
C443 O460 1.255 . S
C443 O461 1.265 . S
C444 C446 1.380 . S
C444 C447 1.374 . S
C444 C450 1.507 . S
C445 C446 1.384 . S
C445 C449 1.387 . S
C445 H472 0.930 . S
C446 C444 1.380 . S
C446 C445 1.384 . S
C446 H473 0.931 . S
C447 C444 1.374 . S
C447 C448 1.390 . S
C447 H474 0.930 . S
C448 C447 1.390 . S
C448 C449 1.391 . S
C448 H475 0.930 . S
C449 C445 1.387 . S
C449 C448 1.391 . S
C450 Tb440 2.825 1_556 S
C450 C444 1.507 . S
C450 O463 1.238 1_556 S
C450 O464 1.247 1_556 S
O451 Tb440 2.347 . S
O451 C455 1.259 . S
O452 Eu441 2.418 . S
O452 C455 1.265 . S
O453 Eu441 2.384 . S
O453 C462 1.255 . S
O454 Tb440 2.366 . S
O454 C462 1.265 . S
C455 O451 1.259 . S
C455 O452 1.265 . S
O456 Eu441 2.479 . S
O456 C471 1.238 . S
O457 Eu441 2.471 . S
O457 C471 1.247 . S
O458 Eu441 2.347 . S
O458 C442 1.259 . S
O459 Tb440 2.418 . S
O459 C442 1.265 . S
O460 Tb440 2.384 . S
O460 C443 1.255 . S
O461 Eu441 2.366 . S
O461 C443 1.265 . S
C462 O453 1.255 . S
C462 O454 1.265 . S
O463 Tb440 2.479 . S
O463 C450 1.238 1_554 S
O464 Tb440 2.471 . S
O464 C450 1.247 1_554 S
C465 C468 1.380 . S
C465 C469 1.374 . S
C465 C471 1.507 . S
C466 C467 1.387 . S
C466 C470 1.391 . S
C467 C466 1.387 . S
C467 C468 1.384 . S
C467 H476 0.930 . S
C468 C465 1.380 . S
C468 C467 1.384 . S
C468 H477 0.931 . S
C469 C465 1.374 . S
C469 C470 1.390 . S
C469 H478 0.930 . S
C470 C466 1.391 . S
C470 C469 1.390 . S
C470 H479 0.930 . S
C471 Eu441 2.825 . S
C471 O456 1.238 . S
C471 O457 1.247 . S
C471 C465 1.507 . S
H472 C445 0.930 . S
H473 C446 0.931 . S
H474 C447 0.930 . S
H475 C448 0.930 . S
H476 C467 0.930 . S
H477 C468 0.931 . S
H478 C469 0.930 . S
H479 C470 0.930 . S
H480 C486 0.930 . S
H481 C489 0.930 . S
H482 C490 0.930 . S
H483 C491 0.930 . S
H484 C494 0.930 . S
H485 C495 0.930 . S
C486 H480 0.930 . S
C486 C487 1.355 . S
C486 C488 1.415 . S
C487 C486 1.355 . S
C487 C489 1.419 . S
C488 C486 1.415 . S
C488 C493 1.425 . S
C488 C495 1.409 . S
C489 H481 0.930 . S
C489 C487 1.419 . S
C489 C490 1.362 . S
C490 H482 0.930 . S
C490 C489 1.362 . S
C490 C493 1.409 . S
C491 H483 0.930 . S
C491 C492 1.355 . S
C491 C493 1.415 . S
C492 C491 1.355 . S
C492 C494 1.419 . S
C493 C488 1.425 . S
C493 C490 1.409 . S
C493 C491 1.415 . S
C494 H484 0.930 . S
C494 C492 1.419 . S
C494 C495 1.362 . S
C495 H485 0.930 . S
C495 C488 1.409 . S
C495 C494 1.362 . S
H496 C502 0.930 . S
H497 C505 0.930 . S
H498 C506 0.930 . S
H499 C507 0.930 . S
H500 C510 0.930 . S
H501 C511 0.930 . S
C502 H496 0.930 . S
C502 C503 1.355 . S
C502 C504 1.415 . S
C503 C502 1.355 . S
C503 C505 1.419 . S
C504 C502 1.415 . S
C504 C509 1.425 . S
C504 C511 1.409 . S
C505 H497 0.930 . S
C505 C503 1.419 . S
C505 C506 1.362 . S
C506 H498 0.930 . S
C506 C505 1.362 . S
C506 C509 1.409 . S
C507 H499 0.930 . S
C507 C508 1.355 . S
C507 C509 1.415 . S
C508 C507 1.355 . S
C508 C510 1.419 . S
C509 C504 1.425 . S
C509 C506 1.409 . S
C509 C507 1.415 . S
C510 H500 0.930 . S
C510 C508 1.419 . S
C510 C511 1.362 . S
C511 H501 0.930 . S
C511 C504 1.409 . S
C511 C510 1.362 . S
H512 C518 0.930 . S
H513 C521 0.930 . S
H514 C522 0.930 . S
H515 C523 0.930 . S
H516 C526 0.930 . S
H517 C527 0.930 . S
C518 H512 0.930 . S
C518 C519 1.355 . S
C518 C520 1.415 . S
C519 C518 1.355 . S
C519 C521 1.419 . S
C520 C518 1.415 . S
C520 C525 1.425 . S
C520 C527 1.409 . S
C521 H513 0.930 . S
C521 C519 1.419 . S
C521 C522 1.362 . S
C522 H514 0.930 . S
C522 C521 1.362 . S
C522 C525 1.409 . S
C523 H515 0.930 . S
C523 C524 1.355 . S
C523 C525 1.415 . S
C524 C523 1.355 . S
C524 C526 1.419 . S
C525 C520 1.425 . S
C525 C522 1.409 . S
C525 C523 1.415 . S
C526 H516 0.930 . S
C526 C524 1.419 . S
C526 C527 1.362 . S
C527 H517 0.930 . S
C527 C520 1.409 . S
C527 C526 1.362 . S
H528 C534 0.930 . S
H529 C537 0.930 . S
H530 C538 0.930 . S
H531 C539 0.930 . S
H532 C542 0.930 . S
H533 C543 0.930 . S
C534 H528 0.930 . S
C534 C535 1.355 . S
C534 C536 1.415 . S
C535 C534 1.355 . S
C535 C537 1.419 . S
C536 C534 1.415 . S
C536 C541 1.425 . S
C536 C543 1.409 . S
C537 H529 0.930 . S
C537 C535 1.419 . S
C537 C538 1.362 . S
C538 H530 0.930 . S
C538 C537 1.362 . S
C538 C541 1.409 . S
C539 H531 0.930 . S
C539 C540 1.355 . S
C539 C541 1.415 . S
C540 C539 1.355 . S
C540 C542 1.419 . S
C541 C536 1.425 . S
C541 C538 1.409 . S
C541 C539 1.415 . S
C542 H532 0.930 . S
C542 C540 1.419 . S
C542 C543 1.362 . S
C543 H533 0.930 . S
C543 C536 1.409 . S
C543 C542 1.362 . S
H544 C550 0.930 . S
H545 C553 0.930 . S
H546 C554 0.930 . S
H547 C555 0.930 . S
H548 C558 0.930 . S
H549 C559 0.930 . S
C550 H544 0.930 . S
C550 C551 1.355 . S
C550 C552 1.415 . S
C551 C550 1.355 . S
C551 C553 1.419 . S
C552 C550 1.415 . S
C552 C557 1.425 . S
C552 C559 1.409 . S
C553 H545 0.930 . S
C553 C551 1.419 . S
C553 C554 1.362 . S
C554 H546 0.930 . S
C554 C553 1.362 . S
C554 C557 1.409 . S
C555 H547 0.930 . S
C555 C556 1.355 . S
C555 C557 1.415 . S
C556 C555 1.355 . S
C556 C558 1.419 . S
C557 C552 1.425 . S
C557 C554 1.409 . S
C557 C555 1.415 . S
C558 H548 0.930 . S
C558 C556 1.419 . S
C558 C559 1.362 . S
C559 H549 0.930 . S
C559 C552 1.409 . S
C559 C558 1.362 . S
H560 C566 0.930 . S
H561 C569 0.930 . S
H562 C570 0.930 . S
H563 C571 0.930 . S
H564 C574 0.930 . S
H565 C575 0.930 . S
C566 H560 0.930 . S
C566 C567 1.355 . S
C566 C568 1.415 . S
C567 C566 1.355 . S
C567 C569 1.419 . S
C568 C566 1.415 . S
C568 C573 1.425 . S
C568 C575 1.409 . S
C569 H561 0.930 . S
C569 C567 1.419 . S
C569 C570 1.362 . S
C570 H562 0.930 . S
C570 C569 1.362 . S
C570 C573 1.409 . S
C571 H563 0.930 . S
C571 C572 1.355 . S
C571 C573 1.415 . S
C572 C571 1.355 . S
C572 C574 1.419 . S
C573 C568 1.425 . S
C573 C570 1.409 . S
C573 C571 1.415 . S
C574 H564 0.930 . S
C574 C572 1.419 . S
C574 C575 1.362 . S
C575 H565 0.930 . S
C575 C568 1.409 . S
C575 C574 1.362 . S
H576 C582 0.930 . S
H577 C585 0.930 . S
H578 C586 0.930 . S
H579 C587 0.930 . S
H580 C590 0.930 . S
H581 C591 0.930 . S
C582 H576 0.930 . S
C582 C583 1.355 1_554 S
C582 C584 1.415 . S
C583 C582 1.355 1_556 S
C583 C585 1.419 . S
C584 C582 1.415 . S
C584 C589 1.425 1_554 S
C584 C591 1.409 . S
C585 H577 0.930 . S
C585 C583 1.419 . S
C585 C586 1.362 . S
C586 H578 0.930 . S
C586 C585 1.362 . S
C586 C589 1.409 . S
C587 H579 0.930 . S
C587 C588 1.355 1_556 S
C587 C589 1.415 . S
C588 C587 1.355 1_554 S
C588 C590 1.419 . S
C589 C584 1.425 1_556 S
C589 C586 1.409 . S
C589 C587 1.415 . S
C590 H580 0.930 . S
C590 C588 1.419 . S
C590 C591 1.362 . S
C591 H581 0.930 . S
C591 C584 1.409 . S
C591 C590 1.362 . S
H592 C598 0.930 . S
H593 C601 0.930 . S
H594 C602 0.930 . S
H595 C603 0.930 . S
H596 C606 0.930 . S
H597 C607 0.930 . S
C598 H592 0.930 . S
C598 C599 1.355 . S
C598 C600 1.415 . S
C599 C598 1.355 . S
C599 C601 1.419 . S
C600 C598 1.415 . S
C600 C605 1.425 . S
C600 C607 1.409 . S
C601 H593 0.930 . S
C601 C599 1.419 . S
C601 C602 1.362 . S
C602 H594 0.930 . S
C602 C601 1.362 . S
C602 C605 1.409 . S
C603 H595 0.930 . S
C603 C604 1.355 . S
C603 C605 1.415 . S
C604 C603 1.355 . S
C604 C606 1.419 . S
C605 C600 1.425 . S
C605 C602 1.409 . S
C605 C603 1.415 . S
C606 H596 0.930 . S
C606 C604 1.419 . S
C606 C607 1.362 . S
C607 H597 0.930 . S
C607 C600 1.409 . S
C607 C606 1.362 . S
H608 C614 0.930 . S
H609 C617 0.930 . S
H610 C618 0.930 . S
H611 C619 0.930 . S
H612 C622 0.930 . S
H613 C623 0.930 . S
C614 H608 0.930 . S
C614 C615 1.355 . S
C614 C616 1.415 . S
C615 C614 1.355 . S
C615 C617 1.419 . S
C616 C614 1.415 . S
C616 C621 1.425 . S
C616 C623 1.409 . S
C617 H609 0.930 . S
C617 C615 1.419 . S
C617 C618 1.362 . S
C618 H610 0.930 . S
C618 C617 1.362 . S
C618 C621 1.409 . S
C619 H611 0.930 . S
C619 C620 1.355 . S
C619 C621 1.415 . S
C620 C619 1.355 . S
C620 C622 1.419 . S
C621 C616 1.425 . S
C621 C618 1.409 . S
C621 C619 1.415 . S
C622 H612 0.930 . S
C622 C620 1.419 . S
C622 C623 1.362 . S
C623 H613 0.930 . S
C623 C616 1.409 . S
C623 C622 1.362 . S
H624 C630 0.930 . S
H625 C633 0.930 . S
H626 C634 0.930 . S
H627 C635 0.930 . S
H628 C638 0.930 . S
H629 C639 0.930 . S
C630 H624 0.930 . S
C630 C631 1.355 . S
C630 C632 1.415 . S
C631 C630 1.355 . S
C631 C633 1.419 1_556 S
C632 C630 1.415 . S
C632 C637 1.425 1_556 S
C632 C639 1.409 . S
C633 H625 0.930 . S
C633 C631 1.419 1_554 S
C633 C634 1.362 . S
C634 H626 0.930 . S
C634 C633 1.362 . S
C634 C637 1.409 . S
C635 H627 0.930 . S
C635 C636 1.355 . S
C635 C637 1.415 . S
C636 C635 1.355 . S
C636 C638 1.419 1_554 S
C637 C632 1.425 1_554 S
C637 C634 1.409 . S
C637 C635 1.415 . S
C638 H628 0.930 . S
C638 C636 1.419 1_556 S
C638 C639 1.362 . S
C639 H629 0.930 . S
C639 C632 1.409 . S
C639 C638 1.362 . S
H640 C646 0.930 . S
H641 C649 0.930 . S
H642 C650 0.930 . S
H643 C651 0.930 . S
H644 C654 0.930 . S
H645 C655 0.930 . S
C646 H640 0.930 . S
C646 C647 1.355 . S
C646 C648 1.415 . S
C647 C646 1.355 . S
C647 C649 1.419 . S
C648 C646 1.415 . S
C648 C653 1.425 . S
C648 C655 1.409 . S
C649 H641 0.930 . S
C649 C647 1.419 . S
C649 C650 1.362 . S
C650 H642 0.930 . S
C650 C649 1.362 . S
C650 C653 1.409 . S
C651 H643 0.930 . S
C651 C652 1.355 . S
C651 C653 1.415 . S
C652 C651 1.355 . S
C652 C654 1.419 . S
C653 C648 1.425 . S
C653 C650 1.409 . S
C653 C651 1.415 . S
C654 H644 0.930 . S
C654 C652 1.419 . S
C654 C655 1.362 . S
C655 H645 0.930 . S
C655 C648 1.409 . S
C655 C654 1.362 . S
H656 C662 0.930 . S
H657 C665 0.930 . S
H658 C666 0.930 . S
H659 C667 0.930 . S
H660 C670 0.930 . S
H661 C671 0.930 . S
C662 H656 0.930 . S
C662 C663 1.355 . S
C662 C664 1.415 . S
C663 C662 1.355 . S
C663 C665 1.419 . S
C664 C662 1.415 . S
C664 C669 1.425 . S
C664 C671 1.409 . S
C665 H657 0.930 . S
C665 C663 1.419 . S
C665 C666 1.362 . S
C666 H658 0.930 . S
C666 C665 1.362 . S
C666 C669 1.409 . S
C667 H659 0.930 . S
C667 C668 1.355 . S
C667 C669 1.415 . S
C668 C667 1.355 . S
C668 C670 1.419 . S
C669 C664 1.425 . S
C669 C666 1.409 . S
C669 C667 1.415 . S
C670 H660 0.930 . S
C670 C668 1.419 . S
C670 C671 1.362 . S
C671 H661 0.930 . S
C671 C664 1.409 . S
C671 C670 1.362 . S
H672 C678 0.930 1_545 S
H673 C681 0.930 . S
H674 C682 0.930 . S
H675 C683 0.930 1_565 S
H676 C686 0.930 . S
H677 C687 0.930 . S
C678 H672 0.930 1_565 S
C678 C679 1.355 . S
C678 C680 1.415 1_565 S
C679 C678 1.355 . S
C679 C681 1.419 . S
C680 C678 1.415 1_545 S
C680 C685 1.425 1_546 S
C680 C687 1.409 . S
C681 H673 0.930 . S
C681 C679 1.419 . S
C681 C682 1.362 1_556 S
C682 H674 0.930 . S
C682 C681 1.362 1_554 S
C682 C685 1.409 . S
C683 H675 0.930 1_545 S
C683 C684 1.355 . S
C683 C685 1.415 1_545 S
C684 C683 1.355 . S
C684 C686 1.419 . S
C685 C680 1.425 1_564 S
C685 C682 1.409 . S
C685 C683 1.415 1_565 S
C686 H676 0.930 . S
C686 C684 1.419 . S
C686 C687 1.362 1_554 S
C687 H677 0.930 . S
C687 C680 1.409 . S
C687 C686 1.362 1_556 S
H688 C694 0.930 . S
H689 C697 0.930 . S
H690 C698 0.930 . S
H691 C699 0.930 . S
H692 C702 0.930 . S
H693 C703 0.930 . S
C694 H688 0.930 . S
C694 C695 1.355 . S
C694 C696 1.415 . S
C695 C694 1.355 . S
C695 C697 1.419 . S
C696 C694 1.415 . S
C696 C701 1.425 . S
C696 C703 1.409 . S
C697 H689 0.930 . S
C697 C695 1.419 . S
C697 C698 1.362 . S
C698 H690 0.930 . S
C698 C697 1.362 . S
C698 C701 1.409 . S
C699 H691 0.930 . S
C699 C700 1.355 . S
C699 C701 1.415 . S
C700 C699 1.355 . S
C700 C702 1.419 . S
C701 C696 1.425 . S
C701 C698 1.409 . S
C701 C699 1.415 . S
C702 H692 0.930 . S
C702 C700 1.419 . S
C702 C703 1.362 . S
C703 H693 0.930 . S
C703 C696 1.409 . S
C703 C702 1.362 . S
H704 C710 0.930 1_655 S
H705 C713 0.930 . S
H706 C714 0.930 . S
H707 C715 0.930 1_455 S
H708 C718 0.930 . S
H709 C719 0.930 . S
C710 H704 0.930 1_455 S
C710 C711 1.355 . S
C710 C712 1.415 1_455 S
C711 C710 1.355 . S
C711 C713 1.419 . S
C712 C710 1.415 1_655 S
C712 C717 1.425 1_655 S
C712 C719 1.409 . S
C713 H705 0.930 . S
C713 C711 1.419 . S
C713 C714 1.362 . S
C714 H706 0.930 . S
C714 C713 1.362 . S
C714 C717 1.409 . S
C715 H707 0.930 1_655 S
C715 C716 1.355 . S
C715 C717 1.415 1_655 S
C716 C715 1.355 . S
C716 C718 1.419 . S
C717 C712 1.425 1_455 S
C717 C714 1.409 . S
C717 C715 1.415 1_455 S
C718 H708 0.930 . S
C718 C716 1.419 . S
C718 C719 1.362 . S
C719 H709 0.930 . S
C719 C712 1.409 . S
C719 C718 1.362 . S
H720 C726 0.930 . S
H721 C729 0.930 . S
H722 C730 0.927 . S
H723 C731 0.930 . S
H724 C734 0.930 . S
H725 C735 0.927 . S
C726 H720 0.930 . S
C726 C727 1.355 . S
C726 C728 1.415 . S
C727 C726 1.355 . S
C727 C729 1.419 . S
C728 C726 1.415 . S
C728 C733 1.425 1_564 S
C728 C735 1.421 1_554 S
C729 H721 0.930 . S
C729 C727 1.419 . S
C729 C730 1.352 1_565 S
C730 H722 0.927 . S
C730 C729 1.352 1_545 S
C730 C733 1.423 1_554 S
C731 H723 0.930 . S
C731 C732 1.355 . S
C731 C733 1.415 . S
C732 C731 1.355 . S
C732 C734 1.419 . S
C733 C728 1.425 1_546 S
C733 C730 1.423 1_556 S
C733 C731 1.415 . S
C734 H724 0.930 . S
C734 C732 1.419 . S
C734 C735 1.354 1_545 S
C735 H725 0.927 . S
C735 C728 1.421 1_556 S
C735 C734 1.354 1_565 S
H736 C742 0.930 . S
H737 C745 0.930 . S
H738 C746 0.930 . S
H739 C747 0.930 . S
H740 C750 0.930 . S
H741 C751 0.930 . S
C742 H736 0.930 . S
C742 C743 1.355 . S
C742 C744 1.415 . S
C743 C742 1.355 . S
C743 C745 1.419 . S
C744 C742 1.415 . S
C744 C749 1.425 . S
C744 C751 1.409 . S
C745 H737 0.930 . S
C745 C743 1.419 . S
C745 C746 1.362 . S
C746 H738 0.930 . S
C746 C745 1.362 . S
C746 C749 1.409 . S
C747 H739 0.930 . S
C747 C748 1.355 . S
C747 C749 1.415 . S
C748 C747 1.355 . S
C748 C750 1.419 . S
C749 C744 1.425 . S
C749 C746 1.409 . S
C749 C747 1.415 . S
C750 H740 0.930 . S
C750 C748 1.419 . S
C750 C751 1.362 . S
C751 H741 0.930 . S
C751 C744 1.409 . S
C751 C750 1.362 . S
H752 C758 0.930 . S
H753 C761 0.930 . S
H754 C762 0.930 . S
H755 C763 0.930 . S
H756 C766 0.930 . S
H757 C767 0.930 . S
C758 H752 0.930 . S
C758 C759 1.355 . S
C758 C760 1.415 1_455 S
C759 C758 1.355 . S
C759 C761 1.419 . S
C760 C758 1.415 1_655 S
C760 C765 1.425 1_655 S
C760 C767 1.409 . S
C761 H753 0.930 . S
C761 C759 1.419 . S
C761 C762 1.362 . S
C762 H754 0.930 . S
C762 C761 1.362 . S
C762 C765 1.409 . S
C763 H755 0.930 . S
C763 C764 1.355 . S
C763 C765 1.415 1_655 S
C764 C763 1.355 . S
C764 C766 1.419 . S
C765 C760 1.425 1_455 S
C765 C762 1.409 . S
C765 C763 1.415 1_455 S
C766 H756 0.930 . S
C766 C764 1.419 . S
C766 C767 1.362 . S
C767 H757 0.930 . S
C767 C760 1.409 . S
C767 C766 1.362 . S
H768 C774 0.930 . S
H769 C777 0.930 . S
H770 C778 0.930 . S
H771 C779 0.930 . S
H772 C782 0.930 . S
H773 C783 0.930 . S
C774 H768 0.930 . S
C774 C775 1.355 . S
C774 C776 1.415 1_545 S
C775 C774 1.355 . S
C775 C777 1.419 . S
C776 C774 1.415 1_565 S
C776 C781 1.425 1_565 S
C776 C783 1.409 . S
C777 H769 0.930 . S
C777 C775 1.419 . S
C777 C778 1.362 . S
C778 H770 0.930 . S
C778 C777 1.362 . S
C778 C781 1.409 . S
C779 H771 0.930 . S
C779 C780 1.355 . S
C779 C781 1.415 1_565 S
C780 C779 1.355 . S
C780 C782 1.419 . S
C781 C776 1.425 1_545 S
C781 C778 1.409 . S
C781 C779 1.415 1_545 S
C782 H772 0.930 . S
C782 C780 1.419 . S
C782 C783 1.362 . S
C783 H773 0.930 . S
C783 C776 1.409 . S
C783 C782 1.362 . S
H784 C790 0.930 . S
H785 C793 0.930 . S
H786 C794 0.930 . S
H787 C795 0.930 . S
H788 C798 0.930 . S
H789 C799 0.930 . S
C790 H784 0.930 . S
C790 C791 1.355 . S
C790 C792 1.415 . S
C791 C790 1.355 . S
C791 C793 1.419 . S
C792 C790 1.415 . S
C792 C797 1.425 . S
C792 C799 1.409 . S
C793 H785 0.930 . S
C793 C791 1.419 . S
C793 C794 1.362 . S
C794 H786 0.930 . S
C794 C793 1.362 . S
C794 C797 1.409 . S
C795 H787 0.930 . S
C795 C796 1.355 . S
C795 C797 1.415 . S
C796 C795 1.355 . S
C796 C798 1.419 . S
C797 C792 1.425 . S
C797 C794 1.409 . S
C797 C795 1.415 . S
C798 H788 0.930 . S
C798 C796 1.419 . S
C798 C799 1.362 . S
C799 H789 0.930 . S
C799 C792 1.409 . S
C799 C798 1.362 . S
H800 C806 0.930 . S
H801 C809 0.930 . S
H802 C810 0.930 . S
H803 C811 0.930 . S
H804 C814 0.930 . S
H805 C815 0.930 . S
C806 H800 0.930 . S
C806 C807 1.355 . S
C806 C808 1.415 . S
C807 C806 1.355 . S
C807 C809 1.419 . S
C808 C806 1.415 . S
C808 C813 1.425 1_655 S
C808 C815 1.409 . S
C809 H801 0.930 . S
C809 C807 1.419 . S
C809 C810 1.362 1_655 S
C810 H802 0.930 . S
C810 C809 1.362 1_455 S
C810 C813 1.409 . S
C811 H803 0.930 . S
C811 C812 1.355 . S
C811 C813 1.415 . S
C812 C811 1.355 . S
C812 C814 1.419 . S
C813 C808 1.425 1_455 S
C813 C810 1.409 . S
C813 C811 1.415 . S
C814 H804 0.930 . S
C814 C812 1.419 . S
C814 C815 1.362 1_455 S
C815 H805 0.930 . S
C815 C808 1.409 . S
C815 C814 1.362 1_655 S
H816 C822 0.930 . S
H817 C825 0.930 . S
H818 C826 0.930 . S
H819 C827 0.930 . S
H820 C830 0.930 . S
H821 C831 0.930 . S
C822 H816 0.930 . S
C822 C823 1.355 . S
C822 C824 1.415 1_455 S
C823 C822 1.355 . S
C823 C825 1.419 . S
C824 C822 1.415 1_655 S
C824 C829 1.425 1_655 S
C824 C831 1.409 . S
C825 H817 0.930 . S
C825 C823 1.419 . S
C825 C826 1.362 . S
C826 H818 0.930 . S
C826 C825 1.362 . S
C826 C829 1.409 . S
C827 H819 0.930 . S
C827 C828 1.355 . S
C827 C829 1.415 1_655 S
C828 C827 1.355 . S
C828 C830 1.419 . S
C829 C824 1.425 1_455 S
C829 C826 1.409 . S
C829 C827 1.415 1_455 S
C830 H820 0.930 . S
C830 C828 1.419 . S
C830 C831 1.362 . S
C831 H821 0.930 . S
C831 C824 1.409 . S
C831 C830 1.362 . S
H832 C838 0.930 . S
H833 C841 0.930 . S
H834 C842 0.930 . S
H835 C843 0.930 . S
H836 C846 0.930 . S
H837 C847 0.930 . S
C838 H832 0.930 . S
C838 C839 1.355 . S
C838 C840 1.415 1_565 S
C839 C838 1.355 . S
C839 C841 1.419 . S
C840 C838 1.415 1_545 S
C840 C845 1.425 1_545 S
C840 C847 1.409 . S
C841 H833 0.930 . S
C841 C839 1.419 . S
C841 C842 1.362 . S
C842 H834 0.930 . S
C842 C841 1.362 . S
C842 C845 1.409 . S
C843 H835 0.930 . S
C843 C844 1.355 . S
C843 C845 1.415 1_545 S
C844 C843 1.355 . S
C844 C846 1.419 . S
C845 C840 1.425 1_565 S
C845 C842 1.409 . S
C845 C843 1.415 1_565 S
C846 H836 0.930 . S
C846 C844 1.419 . S
C846 C847 1.362 . S
C847 H837 0.930 . S
C847 C840 1.409 . S
C847 C846 1.362 . S
H848 C854 0.930 . S
H849 C857 0.930 . S
H850 C858 0.930 . S
H851 C859 0.930 . S
H852 C862 0.930 . S
H853 C863 0.930 . S
C854 H848 0.930 . S
C854 C855 1.355 . S
C854 C856 1.415 . S
C855 C854 1.355 . S
C855 C857 1.419 . S
C856 C854 1.415 . S
C856 C861 1.425 . S
C856 C863 1.409 . S
C857 H849 0.930 . S
C857 C855 1.419 . S
C857 C858 1.362 . S
C858 H850 0.930 . S
C858 C857 1.362 . S
C858 C861 1.409 . S
C859 H851 0.930 . S
C859 C860 1.355 . S
C859 C861 1.415 . S
C860 C859 1.355 . S
C860 C862 1.419 . S
C861 C856 1.425 . S
C861 C858 1.409 . S
C861 C859 1.415 . S
C862 H852 0.930 . S
C862 C860 1.419 . S
C862 C863 1.362 . S
C863 H853 0.930 . S
C863 C856 1.409 . S
C863 C862 1.362 . S
H864 C870 0.930 . S
H865 C873 0.930 . S
H866 C874 0.930 . S
H867 C875 0.930 . S
H868 C878 0.930 . S
H869 C879 0.930 . S
C870 H864 0.930 . S
C870 C871 1.355 . S
C870 C872 1.415 . S
C871 C870 1.355 . S
C871 C873 1.419 . S
C872 C870 1.415 . S
C872 C877 1.425 1_565 S
C872 C879 1.409 1_565 S
C873 H865 0.930 . S
C873 C871 1.419 . S
C873 C874 1.362 . S
C874 H866 0.930 . S
C874 C873 1.362 . S
C874 C877 1.409 1_565 S
C875 H867 0.930 . S
C875 C876 1.355 . S
C875 C877 1.415 . S
C876 C875 1.355 . S
C876 C878 1.419 . S
C877 C872 1.425 1_545 S
C877 C874 1.409 1_545 S
C877 C875 1.415 . S
C878 H868 0.930 . S
C878 C876 1.419 . S
C878 C879 1.362 . S
C879 H869 0.930 . S
C879 C872 1.409 1_545 S
C879 C878 1.362 . S
H880 C886 0.930 . S
H881 C889 0.930 . S
H882 C890 0.930 . S
H883 C891 0.930 . S
H884 C894 0.930 . S
H885 C895 0.930 . S
C886 H880 0.930 . S
C886 C887 1.355 . S
C886 C888 1.415 . S
C887 C886 1.355 . S
C887 C889 1.419 . S
C888 C886 1.415 . S
C888 C893 1.425 . S
C888 C895 1.409 . S
C889 H881 0.930 . S
C889 C887 1.419 . S
C889 C890 1.362 . S
C890 H882 0.930 . S
C890 C889 1.362 . S
C890 C893 1.409 . S
C891 H883 0.930 . S
C891 C892 1.355 . S
C891 C893 1.415 . S
C892 C891 1.355 . S
C892 C894 1.419 . S
C893 C888 1.425 . S
C893 C890 1.409 . S
C893 C891 1.415 . S
C894 H884 0.930 . S
C894 C892 1.419 . S
C894 C895 1.362 . S
C895 H885 0.930 . S
C895 C888 1.409 . S
C895 C894 1.362 . S
H896 C902 0.930 . S
H897 C905 0.930 . S
H898 C906 0.930 . S
H899 C907 0.930 . S
H900 C910 0.930 . S
H901 C911 0.930 . S
C902 H896 0.930 . S
C902 C903 1.355 . S
C902 C904 1.417 1_655 S
C903 C902 1.355 . S
C903 C905 1.419 . S
C904 C902 1.417 1_455 S
C904 C909 1.425 1_455 S
C904 C911 1.407 . S
C905 H897 0.930 . S
C905 C903 1.419 . S
C905 C906 1.362 . S
C906 H898 0.930 . S
C906 C905 1.362 . S
C906 C909 1.413 . S
C907 H899 0.930 . S
C907 C908 1.355 . S
C907 C909 1.411 1_455 S
C908 C907 1.355 . S
C908 C910 1.419 . S
C909 C904 1.425 1_655 S
C909 C906 1.413 . S
C909 C907 1.411 1_655 S
C910 H900 0.930 . S
C910 C908 1.419 . S
C910 C911 1.362 . S
C911 H901 0.930 . S
C911 C904 1.407 . S
C911 C910 1.362 . S
H912 C918 0.930 . S
H913 C921 0.930 . S
H914 C922 0.930 1_565 S
H915 C923 0.930 . S
H916 C926 0.930 . S
H917 C927 0.930 1_545 S
C918 H912 0.930 . S
C918 C919 1.355 . S
C918 C920 1.415 . S
C919 C918 1.355 . S
C919 C921 1.419 . S
C920 C918 1.415 . S
C920 C925 1.425 1_545 S
C920 C927 1.409 1_545 S
C921 H913 0.930 . S
C921 C919 1.419 . S
C921 C922 1.362 . S
C922 H914 0.930 1_545 S
C922 C921 1.362 . S
C922 C925 1.409 1_545 S
C923 H915 0.930 . S
C923 C924 1.355 . S
C923 C925 1.415 . S
C924 C923 1.355 . S
C924 C926 1.419 . S
C925 C920 1.425 1_565 S
C925 C922 1.409 1_565 S
C925 C923 1.415 . S
C926 H916 0.930 . S
C926 C924 1.419 . S
C926 C927 1.362 . S
C927 H917 0.930 1_565 S
C927 C920 1.409 1_565 S
C927 C926 1.362 . S
H928 C934 0.930 . S
H929 C937 0.930 . S
H930 C938 0.930 . S
H931 C939 0.930 . S
H932 C942 0.930 . S
H933 C943 0.930 . S
C934 H928 0.930 . S
C934 C935 1.355 . S
C934 C936 1.415 . S
C935 C934 1.355 . S
C935 C937 1.419 . S
C936 C934 1.415 . S
C936 C941 1.425 . S
C936 C943 1.409 . S
C937 H929 0.930 . S
C937 C935 1.419 . S
C937 C938 1.362 . S
C938 H930 0.930 . S
C938 C937 1.362 . S
C938 C941 1.409 . S
C939 H931 0.930 . S
C939 C940 1.355 . S
C939 C941 1.415 . S
C940 C939 1.355 . S
C940 C942 1.419 . S
C941 C936 1.425 . S
C941 C938 1.409 . S
C941 C939 1.415 . S
C942 H932 0.930 . S
C942 C940 1.419 . S
C942 C943 1.362 . S
C943 H933 0.930 . S
C943 C936 1.409 . S
C943 C942 1.362 . S
H944 C950 0.930 . S
H945 C953 0.930 . S
H946 C954 0.930 1_655 S
H947 C955 0.930 . S
H948 C958 0.930 . S
H949 C959 0.930 1_455 S
C950 H944 0.930 . S
C950 C951 1.355 . S
C950 C952 1.415 . S
C951 C950 1.355 . S
C951 C953 1.419 . S
C952 C950 1.415 . S
C952 C957 1.425 1_455 S
C952 C959 1.409 1_455 S
C953 H945 0.930 . S
C953 C951 1.419 . S
C953 C954 1.362 . S
C954 H946 0.930 1_455 S
C954 C953 1.362 . S
C954 C957 1.409 1_455 S
C955 H947 0.930 . S
C955 C956 1.355 . S
C955 C957 1.415 . S
C956 C955 1.355 . S
C956 C958 1.419 . S
C957 C952 1.425 1_655 S
C957 C954 1.409 1_655 S
C957 C955 1.415 . S
C958 H948 0.930 . S
C958 C956 1.419 . S
C958 C959 1.362 . S
C959 H949 0.930 1_655 S
C959 C952 1.409 1_655 S
C959 C958 1.362 . S
H960 C966 0.930 . S
H961 C969 0.930 . S
H962 C970 0.930 . S
H963 C971 0.930 . S
H964 C974 0.930 . S
H965 C975 0.930 . S
C966 H960 0.930 . S
C966 C967 1.355 . S
C966 C968 1.415 . S
C967 C966 1.355 . S
C967 C969 1.419 . S
C968 C966 1.415 . S
C968 C973 1.425 . S
C968 C975 1.409 . S
C969 H961 0.930 . S
C969 C967 1.419 . S
C969 C970 1.362 . S
C970 H962 0.930 . S
C970 C969 1.362 . S
C970 C973 1.409 . S
C971 H963 0.930 . S
C971 C972 1.355 . S
C971 C973 1.415 . S
C972 C971 1.355 . S
C972 C974 1.419 . S
C973 C968 1.425 . S
C973 C970 1.409 . S
C973 C971 1.415 . S
C974 H964 0.930 . S
C974 C972 1.419 . S
C974 C975 1.362 . S
C975 H965 0.930 . S
C975 C968 1.409 . S
C975 C974 1.362 . S
H976 C982 0.930 . S
H977 C985 0.930 . S
H978 C986 0.930 . S
H979 C987 0.930 . S
H980 C990 0.930 . S
H981 C991 0.930 . S
C982 H976 0.930 . S
C982 C983 1.355 . S
C982 C984 1.415 . S
C983 C982 1.355 . S
C983 C985 1.419 . S
C984 C982 1.415 . S
C984 C989 1.425 . S
C984 C991 1.409 . S
C985 H977 0.930 . S
C985 C983 1.419 . S
C985 C986 1.362 . S
C986 H978 0.930 . S
C986 C985 1.362 . S
C986 C989 1.409 . S
C987 H979 0.930 . S
C987 C988 1.355 . S
C987 C989 1.415 . S
C988 C987 1.355 . S
C988 C990 1.419 . S
C989 C984 1.425 . S
C989 C986 1.409 . S
C989 C987 1.415 . S
C990 H980 0.930 . S
C990 C988 1.419 . S
C990 C991 1.362 . S
C991 H981 0.930 . S
C991 C984 1.409 . S
C991 C990 1.362 . S
H992 C998 0.930 . S
H993 C1001 0.930 . S
H994 C1002 0.930 . S
H995 C1003 0.930 . S
H996 C1006 0.930 . S
H997 C1007 0.930 . S
C998 H992 0.930 . S
C998 C999 1.355 . S
C998 C1000 1.415 . S
C999 C998 1.355 . S
C999 C1001 1.419 . S
C1000 C998 1.415 . S
C1000 C1005 1.425 . S
C1000 C1007 1.409 . S
C1001 H993 0.930 . S
C1001 C999 1.419 . S
C1001 C1002 1.362 . S
C1002 H994 0.930 . S
C1002 C1001 1.362 . S
C1002 C1005 1.409 . S
C1003 H995 0.930 . S
C1003 C1004 1.355 . S
C1003 C1005 1.415 . S
C1004 C1003 1.355 . S
C1004 C1006 1.419 . S
C1005 C1000 1.425 . S
C1005 C1002 1.409 . S
C1005 C1003 1.415 . S
C1006 H996 0.930 . S
C1006 C1004 1.419 . S
C1006 C1007 1.362 . S
C1007 H997 0.930 . S
C1007 C1000 1.409 . S
C1007 C1006 1.362 . S
H1008 C1014 0.930 . S
H1009 C1017 0.930 . S
H1010 C1018 0.930 . S
H1011 C1019 0.930 . S
H1012 C1022 0.930 . S
H1013 C1023 0.930 . S
C1014 H1008 0.930 . S
C1014 C1015 1.355 . S
C1014 C1016 1.415 . S
C1015 C1014 1.355 . S
C1015 C1017 1.419 . S
C1016 C1014 1.415 . S
C1016 C1021 1.425 . S
C1016 C1023 1.409 . S
C1017 H1009 0.930 . S
C1017 C1015 1.419 . S
C1017 C1018 1.362 . S
C1018 H1010 0.930 . S
C1018 C1017 1.362 . S
C1018 C1021 1.409 . S
C1019 H1011 0.930 . S
C1019 C1020 1.355 . S
C1019 C1021 1.415 . S
C1020 C1019 1.355 . S
C1020 C1022 1.419 . S
C1021 C1016 1.425 . S
C1021 C1018 1.409 . S
C1021 C1019 1.415 . S
C1022 H1012 0.930 . S
C1022 C1020 1.419 . S
C1022 C1023 1.362 . S
C1023 H1013 0.930 . S
C1023 C1016 1.409 . S
C1023 C1022 1.362 . S
H1024 C1030 0.930 . S
H1025 C1033 0.930 . S
H1026 C1034 0.930 . S
H1027 C1035 0.930 . S
H1028 C1038 0.930 . S
H1029 C1039 0.930 . S
C1030 H1024 0.930 . S
C1030 C1031 1.355 . S
C1030 C1032 1.415 . S
C1031 C1030 1.355 . S
C1031 C1033 1.419 . S
C1032 C1030 1.415 . S
C1032 C1037 1.425 . S
C1032 C1039 1.409 . S
C1033 H1025 0.930 . S
C1033 C1031 1.419 . S
C1033 C1034 1.362 . S
C1034 H1026 0.930 . S
C1034 C1033 1.362 . S
C1034 C1037 1.409 . S
C1035 H1027 0.930 . S
C1035 C1036 1.355 . S
C1035 C1037 1.415 . S
C1036 C1035 1.355 . S
C1036 C1038 1.419 . S
C1037 C1032 1.425 . S
C1037 C1034 1.409 . S
C1037 C1035 1.415 . S
C1038 H1028 0.930 . S
C1038 C1036 1.419 . S
C1038 C1039 1.362 . S
C1039 H1029 0.930 . S
C1039 C1032 1.409 . S
C1039 C1038 1.362 . S
H1040 C1046 0.930 . S
H1041 C1049 0.930 . S
H1042 C1050 0.930 . S
H1043 C1051 0.930 . S
H1044 C1054 0.930 . S
H1045 C1055 0.930 . S
C1046 H1040 0.930 . S
C1046 C1047 1.355 . S
C1046 C1048 1.415 . S
C1047 C1046 1.355 . S
C1047 C1049 1.419 . S
C1048 C1046 1.415 . S
C1048 C1053 1.425 . S
C1048 C1055 1.409 . S
C1049 H1041 0.930 . S
C1049 C1047 1.419 . S
C1049 C1050 1.362 . S
C1050 H1042 0.930 . S
C1050 C1049 1.362 . S
C1050 C1053 1.409 . S
C1051 H1043 0.930 . S
C1051 C1052 1.355 . S
C1051 C1053 1.415 . S
C1052 C1051 1.355 . S
C1052 C1054 1.419 . S
C1053 C1048 1.425 . S
C1053 C1050 1.409 . S
C1053 C1051 1.415 . S
C1054 H1044 0.930 . S
C1054 C1052 1.419 . S
C1054 C1055 1.362 . S
C1055 H1045 0.930 . S
C1055 C1048 1.409 . S
C1055 C1054 1.362 . S
C487 C2 1.143 . S
C492 C322 1.157 . S
C503 C42 1.235 . S
C508 C362 1.214 . S
C519 C82 1.167 . S
C524 C402 1.205 . S
C535 C442 1.151 . S
C540 C122 1.184 . S
C551 C162 1.235 . S
C556 C242 1.227 . S
C567 C282 1.173 . S
C572 C202 1.211 . S
C583 C426 1.793 . S
C588 C26 1.819 . S
C599 C466 1.773 . S
C604 C66 1.764 . S
C615 C106 1.813 . S
C620 C266 1.788 . S
C631 C306 1.863 . S
C636 C146 1.868 . S
C647 C346 1.805 . S
C652 C186 1.832 . S
C663 C226 1.865 . S
C668 C386 1.867 . S
C679 C283 4.409 . S
C684 C3 4.405 . S
C695 C323 4.406 . S
C700 C43 4.408 . S
C711 C363 4.403 . S
C716 C83 4.410 . S
C727 C123 4.410 . S
C732 C403 4.398 . S
C743 C163 4.398 . S
C748 C443 4.405 . S
C759 C203 4.410 . S
C764 C243 4.403 . S
C775 C15 0.676 . S
C780 C135 0.710 . S
C791 C55 0.726 . S
C796 C175 0.674 . S
C807 C95 0.781 . S
C812 C215 0.826 . S
C823 C375 0.676 . S
C828 C255 0.710 . S
C839 C295 0.709 . S
C844 C415 0.676 . S
C855 C455 0.724 . S
C860 C335 0.807 . S
C871 C289 0.834 . S
C876 C9 0.789 . S
C887 C329 0.706 . S
C892 C49 0.679 . S
C903 C89 0.887 . S
C908 C369 0.867 . S
C919 C409 0.724 . S
C924 C129 0.689 . S
C935 C449 0.832 . S
C940 C169 0.786 . S
C951 C209 0.705 . S
C956 C249 0.679 . S
C967 C22 4.643 . S
C972 C422 4.648 . S
C983 C62 4.652 . S
C988 C462 4.641 1_556 S
C999 C102 4.645 1_554 S
C1004 C262 4.657 . S
C1015 C142 4.656 . S
C1020 C302 4.641 . S
C1031 C182 4.643 . S
C1036 C342 4.649 1_556 S
C1047 C382 4.656 . S
C1052 C222 4.641 1_554 S
