# Generated by pormake.
# Topology smc, (6)-cn, num edge types: 1
# Building blocks:
#     Node 0, Type 0, BuildingBlock: KUMJIN_clean_sbu_0, # of connection points: 6
#     Node 1, Type 0, BuildingBlock: KUMJIN_clean_sbu_0, # of connection points: 6
#     Node 2, Type 0, BuildingBlock: KUMJIN_clean_sbu_0, # of connection points: 6
#     Node 3, Type 0, BuildingBlock: KUMJIN_clean_sbu_0, # of connection points: 6
#     Node 4, Type 0, BuildingBlock: KUMJIN_clean_sbu_0, # of connection points: 6
#     Node 5, Type 0, BuildingBlock: KUMJIN_clean_sbu_0, # of connection points: 6
#     Node 6, Type 0, BuildingBlock: KUMJIN_clean_sbu_0, # of connection points: 6
#     Node 7, Type 0, BuildingBlock: KUMJIN_clean_sbu_0, # of connection points: 6
#     Node 8, Type 0, BuildingBlock: KUMJIN_clean_sbu_0, # of connection points: 6
#     Edge 9, Type (0, 0), BuildingBlock: ZUJKAS_clean_linker_0, # of connection points: 2
#     Edge 10, Type (0, 0), BuildingBlock: ZUJKAS_clean_linker_0, # of connection points: 2
#     Edge 11, Type (0, 0), BuildingBlock: ZUJKAS_clean_linker_0, # of connection points: 2
#     Edge 12, Type (0, 0), BuildingBlock: ZUJKAS_clean_linker_0, # of connection points: 2
#     Edge 13, Type (0, 0), BuildingBlock: ZUJKAS_clean_linker_0, # of connection points: 2
#     Edge 14, Type (0, 0), BuildingBlock: ZUJKAS_clean_linker_0, # of connection points: 2
#     Edge 15, Type (0, 0), BuildingBlock: ZUJKAS_clean_linker_0, # of connection points: 2
#     Edge 16, Type (0, 0), BuildingBlock: ZUJKAS_clean_linker_0, # of connection points: 2
#     Edge 17, Type (0, 0), BuildingBlock: ZUJKAS_clean_linker_0, # of connection points: 2
#     Edge 18, Type (0, 0), BuildingBlock: ZUJKAS_clean_linker_0, # of connection points: 2
#     Edge 19, Type (0, 0), BuildingBlock: ZUJKAS_clean_linker_0, # of connection points: 2
#     Edge 20, Type (0, 0), BuildingBlock: ZUJKAS_clean_linker_0, # of connection points: 2
#     Edge 21, Type (0, 0), BuildingBlock: ZUJKAS_clean_linker_0, # of connection points: 2
#     Edge 22, Type (0, 0), BuildingBlock: ZUJKAS_clean_linker_0, # of connection points: 2
#     Edge 23, Type (0, 0), BuildingBlock: ZUJKAS_clean_linker_0, # of connection points: 2
#     Edge 24, Type (0, 0), BuildingBlock: ZUJKAS_clean_linker_0, # of connection points: 2
#     Edge 25, Type (0, 0), BuildingBlock: ZUJKAS_clean_linker_0, # of connection points: 2
#     Edge 26, Type (0, 0), BuildingBlock: ZUJKAS_clean_linker_0, # of connection points: 2
#     Edge 27, Type (0, 0), BuildingBlock: ZUJKAS_clean_linker_0, # of connection points: 2
#     Edge 28, Type (0, 0), BuildingBlock: ZUJKAS_clean_linker_0, # of connection points: 2
#     Edge 29, Type (0, 0), BuildingBlock: ZUJKAS_clean_linker_0, # of connection points: 2
#     Edge 30, Type (0, 0), BuildingBlock: ZUJKAS_clean_linker_0, # of connection points: 2
#     Edge 31, Type (0, 0), BuildingBlock: ZUJKAS_clean_linker_0, # of connection points: 2
#     Edge 32, Type (0, 0), BuildingBlock: ZUJKAS_clean_linker_0, # of connection points: 2
#     Edge 33, Type (0, 0), BuildingBlock: ZUJKAS_clean_linker_0, # of connection points: 2
#     Edge 34, Type (0, 0), BuildingBlock: ZUJKAS_clean_linker_0, # of connection points: 2
#     Edge 35, Type (0, 0), BuildingBlock: ZUJKAS_clean_linker_0, # of connection points: 2
# Relax obj value: 0.108
# Max RMSD: 0.278
# Mean RMSD: 0.278
data_MOF--net-smc--node1-KUMJIN_clean_sbu_0--edge1-ZUJKAS_clean_linker_0
_symmetry_space_group_name_H-M    P1
_symmetry_Int_Tables_number       1
_symmetry_cell_setting            triclinic
loop_
_symmetry_equiv_pos_as_xyz
'x, y, z'
_cell_length_a     46.600025
_cell_length_b     46.654049
_cell_length_c     52.961921
_cell_angle_alpha  89.99042
_cell_angle_beta   89.915119
_cell_angle_gamma 120.03382
loop_
_atom_site_label
_atom_site_type_symbol
_atom_site_fract_x
_atom_site_fract_y
_atom_site_fract_z
_atom_type_partial_charge
Eu0 Eu 0.04849 0.49995 0.99761 0.0
C1 C 0.02736 0.37574 0.05853 0.0
C2 C 0.06511 0.36169 0.038 0.0
C3 C 0.05255 0.34969 0.08261 0.0
C4 C 0.04428 0.37555 0.03718 0.0
C5 C 0.03071 0.36217 0.08138 0.0
C6 C 0.06979 0.34953 0.06097 0.0
C7 C 0.98841 0.37149 0.09939 0.0
N8 N 1.0063 0.38777 0.05663 0.0
C9 C 0.98576 0.38446 0.07627 0.0
C10 C 1.01135 0.36075 0.10209 0.0
Eu11 Eu 1.00506 0.41187 0.01745 0.0
N12 N 0.03887 0.38714 0.01525 0.0
C13 C 0.05129 0.38294 0.99306 0.0
C14 C 0.07975 0.35948 0.01557 0.0
C15 C 0.07234 0.36965 0.99293 0.0
H16 H 0.96803 0.39279 0.07434 0.0
H17 H 0.0829 0.36734 0.97536 0.0
H18 H 0.08596 0.33911 0.06203 0.0
H19 H 0.97277 0.36979 0.11512 0.0
H20 H 0.04595 0.39073 0.97539 0.0
H21 H 1.01206 0.54577 0.0801 0.0
H22 H 0.09598 0.34909 0.0154 0.0
H23 H 0.0396 0.51143 0.93525 0.0
H24 H 0.03441 0.51522 0.05831 0.0
H25 H 1.01349 0.53528 0.90885 0.0
H26 H 0.05574 0.33948 0.10006 0.0
H27 H 0.98802 0.57382 0.05583 0.0
H28 H 0.97368 0.58796 0.01403 0.0
H29 H 1.01329 0.35063 0.12 0.0
H30 H 0.97204 0.58322 0.96789 0.0
N31 N 0.0234 0.52504 0.02125 0.0
C32 C 0.02422 0.52705 0.04704 0.0
C33 C 0.99793 0.56033 0.04594 0.0
C34 C 0.99714 0.55838 0.0196 0.0
C35 C 1.01145 0.54452 0.05969 0.0
C36 C 1.0103 0.54041 1.00755 0.0
H37 H 0.98593 0.56303 0.92873 0.0
N38 N 0.02283 0.521 0.97015 0.0
C39 C 1.01166 0.5357 0.92921 0.0
C40 C 1.00954 0.5379 0.9814 0.0
C41 C 0.02568 0.52142 0.94433 0.0
C42 C 0.99631 0.55149 0.9405 0.0
C43 C 0.99577 0.55343 0.96682 0.0
O44 O 0.08982 0.53602 0.97439 0.0
O45 O 0.05439 0.45673 1.00732 0.0
O46 O 0.03301 0.43909 0.05185 0.0
O47 O 0.06477 0.49441 0.0384 0.0
O48 O 0.08006 0.48416 0.976 0.0
O49 O 0.08766 0.54674 0.01373 0.0
O50 O 0.951 0.38139 0.02038 0.0
O51 O 0.99993 0.45558 1.00649 0.0
O52 O 1.01738 0.46661 0.96449 0.0
O53 O 1.01143 0.4156 0.97506 0.0
O54 O 0.97255 0.42836 0.03735 0.0
O55 O 0.97768 0.3652 0.99669 0.0
C56 C 0.07557 0.46016 0.99074 0.0
C57 C 0.11153 0.59291 0.98556 0.0
C58 C 0.14566 0.65336 0.99063 0.0
C59 C 0.13876 0.6209 0.99684 0.0
C60 C 0.12519 0.65731 0.97325 0.0
C61 C 0.09253 0.59826 0.96764 0.0
C62 C 0.099 0.62999 0.96177 0.0
C63 C 0.05513 0.4704 0.05582 0.0
C64 C 0.10278 0.55832 0.99221 0.0
C65 C 0.98261 0.57113 0.97881 0.0
C66 C 0.98354 0.57382 1.0051 0.0
C67 C 0.97906 0.45305 0.02285 0.0
C68 C 0.92836 0.32381 0.01645 0.0
C69 C 0.8936 0.30702 0.01339 0.0
C70 C 0.87349 0.27538 0.02417 0.0
C71 C 0.88885 0.26077 0.03771 0.0
C72 C 0.94294 0.30862 0.03008 0.0
C73 C 0.92325 0.27725 0.04055 0.0
C74 C 1.00968 0.43587 0.95861 0.0
C75 C 0.94898 0.35765 1.00634 0.0
H76 H 0.15425 0.61751 0.01035 0.0
H77 H 0.13 0.6818 0.96802 0.0
H78 H 0.07279 0.57803 0.95779 0.0
H79 H 0.08381 0.63343 0.94802 0.0
H80 H 0.88224 0.3189 1.00317 0.0
H81 H 0.87424 0.23637 0.04596 0.0
H82 H 0.96952 0.32106 0.03272 0.0
H83 H 0.9347 0.26569 0.05101 0.0
Eu84 Eu 0.55331 0.55933 0.99931 0.0
C85 C 0.68005 0.6645 0.05614 0.0
C86 C 0.6929 0.71571 0.03522 0.0
C87 C 0.70614 0.71616 0.07966 0.0
C88 C 0.67927 0.68105 0.03474 0.0
C89 C 0.69405 0.68192 0.07872 0.0
C90 C 0.7056 0.73304 0.05793 0.0
C91 C 0.68524 0.63078 0.0972 0.0
N92 N 0.66781 0.63132 0.05466 0.0
C93 C 0.67158 0.61457 0.07439 0.0
C94 C 0.69603 0.66449 0.09952 0.0
Eu95 Eu 0.64237 0.6052 0.01598 0.0
N96 N 0.66682 0.66355 0.01312 0.0
C97 C 0.6702 0.67961 0.99082 0.0
C98 C 0.69426 0.73201 0.0127 0.0
C99 C 0.68344 0.71394 0.99031 0.0
H100 H 0.66326 0.58851 0.07281 0.0
H101 H 0.68516 0.7264 0.97266 0.0
H102 H 0.71581 0.75961 0.05874 0.0
H103 H 0.68739 0.61724 0.11298 0.0
H104 H 0.66192 0.66599 0.97338 0.0
H105 H 0.51585 0.48526 0.08638 0.0
H106 H 0.70451 0.75859 0.01226 0.0
H107 H 0.53808 0.53276 0.93834 0.0
H108 H 0.5436 0.53592 0.06149 0.0
H109 H 0.51329 0.48042 0.9149 0.0
H110 H 0.71663 0.72993 0.09692 0.0
H111 H 0.48662 0.43087 0.06523 0.0
H112 H 0.46946 0.39837 0.02521 0.0
H113 H 0.70655 0.67696 0.11722 0.0
H114 H 0.47057 0.397 0.97894 0.0
N115 N 0.53073 0.51155 0.02575 0.0
C116 C 0.53106 0.51286 0.05156 0.0
C117 C 0.49875 0.45328 0.05398 0.0
C118 C 0.49838 0.45188 0.02763 0.0
C119 C 0.51525 0.4839 0.06597 0.0
C120 C 0.51475 0.48178 0.01378 0.0
H121 H 0.48754 0.42721 0.93788 0.0
N122 N 0.53115 0.51005 0.97463 0.0
C123 C 0.5142 0.48018 0.93532 0.0
C124 C 0.51535 0.481 0.98759 0.0
C125 C 0.5291 0.5099 0.94877 0.0
C126 C 0.49951 0.45024 0.94835 0.0
C127 C 0.49929 0.45032 0.97474 0.0
O128 O 0.51531 0.56126 0.97626 0.0
O129 O 0.59709 0.60924 1.00603 0.0
O130 O 0.61731 0.60945 0.05043 0.0
O131 O 0.56122 0.58486 0.03899 0.0
O132 O 0.56742 0.60477 0.97557 0.0
O133 O 0.50751 0.55328 0.01638 0.0
O134 O 0.67207 0.58076 0.01706 0.0
O135 O 0.59826 0.55578 1.0069 0.0
O136 O 0.58472 0.56073 0.96501 0.0
O137 O 0.63681 0.60579 0.97368 0.0
O138 O 0.62681 0.55732 0.03729 0.0
O139 O 0.68964 0.62567 0.99565 0.0
C140 C 0.59267 0.62554 0.98872 0.0
C141 C 0.45938 0.52734 0.9903 0.0
C142 C 0.39921 0.50217 0.99679 0.0
C143 C 0.43201 0.5285 1.00094 0.0
C144 C 0.3943 0.47505 0.98206 0.0
C145 C 0.45306 0.50024 0.97499 0.0
C146 C 0.421 0.47425 0.97117 0.0
C147 C 0.58643 0.60122 0.0552 0.0
C148 C 0.49431 0.55406 0.99485 0.0
C149 C 0.483 0.42069 0.98851 0.0
C150 C 0.48237 0.42148 0.01486 0.0
C151 C 0.60165 0.53831 0.0235 0.0
C152 C 0.72983 0.61551 0.01497 0.0
C153 C 0.74552 0.59644 0.01244 0.0
C154 C 0.77606 0.60627 0.0245 0.0
C155 C 0.79082 0.63565 0.03874 0.0
C156 C 0.74523 0.64479 0.02919 0.0
C157 C 0.77558 0.65478 0.04092 0.0
C158 C 0.61526 0.58334 0.95805 0.0
C159 C 0.69654 0.60357 1.00414 0.0
H160 H 0.43614 0.54949 0.01237 0.0
H161 H 0.36952 0.45473 0.97839 0.0
H162 H 0.47273 0.49909 0.96559 0.0
H163 H 0.41682 0.45352 0.95941 0.0
H164 H 0.73355 0.57359 1.00174 0.0
H165 H 0.81437 0.64396 0.04806 0.0
H166 H 0.73369 0.6598 0.03144 0.0
H167 H 0.78724 0.67736 0.05191 0.0
Eu168 Eu 0.4894 0.99895 0.99757 0.0
C169 C 0.38926 0.02581 0.05353 0.0
C170 C 0.3392 0.99143 0.02984 0.0
C171 C 0.33585 0.99973 0.07483 0.0
C172 C 0.37401 1.01126 0.03104 0.0
C173 C 0.37034 0.02101 0.07555 0.0
C174 C 0.32029 0.98497 0.05199 0.0
C175 C 0.42053 0.06127 0.09652 0.0
N176 N 0.42256 0.04626 0.05349 0.0
C177 C 0.43819 0.06527 0.07416 0.0
C178 C 0.38654 0.03856 0.09737 0.0
Eu179 Eu 0.45137 0.04884 0.01581 0.0
N180 N 0.39304 0.01826 0.01002 0.0
C181 C 0.37857 1.00884 0.9868 0.0
C182 C 0.32441 0.97962 1.00628 0.0
C183 C 0.34415 0.98892 0.98461 0.0
H184 H 0.46457 0.08245 0.07365 0.0
H185 H 0.33291 0.98062 0.96622 0.0
H186 H 0.29356 0.96942 0.05151 0.0
H187 H 0.43316 0.07554 0.11311 0.0
H188 H 0.39351 0.0156 0.9699 0.0
H189 H 0.56413 0.03035 0.08429 0.0
H190 H 0.29776 0.96421 1.00454 0.0
H191 H 0.51489 1.00633 0.93657 0.0
H192 H 0.51351 1.01008 0.05992 0.0
H193 H 0.56692 0.02776 0.91279 0.0
H194 H 0.32091 0.99534 0.09163 0.0
H195 H 0.61804 0.05226 0.0627 0.0
H196 H 0.65 0.06529 0.0225 0.0
H197 H 0.37291 0.03549 0.1147 0.0
H198 H 0.65083 0.06515 0.97619 0.0
N199 N 0.53727 0.01998 0.02388 0.0
C200 C 0.53627 0.01924 0.04972 0.0
C201 C 0.59561 0.04317 0.05163 0.0
C202 C 0.59672 0.04368 0.02527 0.0
C203 C 0.56525 0.03085 0.06387 0.0
C204 C 0.56679 0.03169 0.01164 0.0
H205 H 0.62033 0.0519 0.93537 0.0
N206 N 0.53844 0.02092 0.97257 0.0
C207 C 0.56751 0.02966 0.93317 0.0
C208 C 0.56737 0.03224 0.9854 0.0
C209 C 0.53808 0.01803 0.9468 0.0
C210 C 0.59754 0.04309 0.94598 0.0
C211 C 0.59775 0.04404 0.97236 0.0
O212 O 0.47405 0.95476 0.97482 0.0
O213 O 0.44189 0.99756 1.00628 0.0
O214 O 0.44799 0.01987 0.05052 0.0
O215 O 0.46392 0.98184 0.0372 0.0
O216 O 0.44299 0.97305 0.97407 0.0
O217 O 0.49842 0.95905 0.01032 0.0
O218 O 0.47502 0.10209 0.02329 0.0
O219 O 0.49838 0.04959 1.00551 0.0
O220 O 0.49311 0.03154 0.96383 0.0
O221 O 0.45385 0.04715 0.97311 0.0
O222 O 0.50048 0.07789 0.0363 0.0
O223 O 0.4389 0.08058 0.99352 0.0
C224 C 0.42397 0.9783 0.98883 0.0
C225 C 0.50841 0.93053 0.97673 0.0
C226 C 0.53763 0.89879 0.97658 0.0
C227 C 0.51791 0.90966 0.98921 0.0
C228 C 0.54783 0.90931 0.95164 0.0
C229 C 0.51785 0.93902 0.95135 0.0
C230 C 0.53785 0.92906 0.93916 0.0
C231 C 0.45206 0.99424 0.05452 0.0
C232 C 0.48748 0.94221 0.98941 0.0
C233 C 0.62736 0.05592 0.98593 0.0
C234 C 0.62687 0.05589 0.0123 0.0
C235 C 0.51746 0.0696 0.02194 0.0
C236 C 0.44336 0.12757 0.01449 0.0
C237 C 0.46168 0.16235 0.01203 0.0
C238 C 0.44794 0.182 0.01958 0.0
C239 C 0.41572 0.16613 0.02986 0.0
C240 C 0.41135 0.11249 0.02482 0.0
C241 C 0.39769 0.13172 0.03246 0.0
C242 C 0.4744 0.04443 0.95744 0.0
C243 C 0.45789 0.10729 1.00642 0.0
H244 H 0.50989 0.90181 0.00845 0.0
H245 H 0.56258 0.90116 0.94137 0.0
H246 H 0.50933 0.95291 0.94056 0.0
H247 H 0.5451 0.93613 0.9197 0.0
H248 H 0.48637 0.17398 1.00395 0.0
H249 H 0.40456 0.18037 0.03628 0.0
H250 H 0.39692 0.08586 0.02696 0.0
H251 H 0.37301 0.11991 0.04049 0.0
Eu252 Eu 0.71995 0.82592 0.33332 0.0
C253 C 0.6815 0.69883 0.39568 0.0
C254 C 0.71341 0.67755 0.37505 0.0
C255 C 0.69888 0.66552 0.4194 0.0
C256 C 0.69707 0.69612 0.37433 0.0
C257 C 0.68147 0.68285 0.41828 0.0
C258 C 0.715 0.66305 0.39786 0.0
C259 C 0.64458 0.69977 0.43628 0.0
N260 N 0.66455 0.71536 0.39386 0.0
C261 C 0.64525 0.71511 0.41343 0.0
C262 C 0.66299 0.6838 0.43879 0.0
Eu263 Eu 0.66654 0.7406 0.3546 0.0
N264 N 0.69405 0.70946 0.35242 0.0
C265 C 0.70441 0.70279 0.33018 0.0
C266 C 0.72639 0.67291 0.35259 0.0
C267 C 0.72138 0.68515 0.32999 0.0
H268 H 0.63091 0.72736 0.41154 0.0
H269 H 0.73042 0.68084 0.31238 0.0
H270 H 0.72765 0.64891 0.39882 0.0
H271 H 0.62978 0.70017 0.45189 0.0
H272 H 0.70037 0.7117 0.31251 0.0
H273 H 0.6907 0.87475 0.41816 0.0
H274 H 0.73921 0.65892 0.35236 0.0
H275 H 0.7151 0.84268 0.27219 0.0
H276 H 0.70464 0.83837 0.39496 0.0
H277 H 0.70131 0.87823 0.24682 0.0
H278 H 0.69935 0.65327 0.43665 0.0
H279 H 0.67928 0.91407 0.39531 0.0
H280 H 0.67521 0.93818 0.35435 0.0
H281 H 0.66215 0.67164 0.45644 0.0
H282 H 0.67769 0.93883 0.30805 0.0
N283 N 0.70143 0.856 0.35848 0.0
C284 C 0.70011 0.85517 0.3843 0.0
C285 C 0.68534 0.89787 0.38479 0.0
C286 C 0.68662 0.89874 0.35844 0.0
C287 C 0.69188 0.87582 0.39775 0.0
C288 C 0.69431 0.87689 0.34555 0.0
H289 H 0.68542 0.91544 0.26797 0.0
N290 N 0.70206 0.85533 0.30729 0.0
C291 C 0.69874 0.87761 0.26716 0.0
C292 C 0.69466 0.87655 0.31933 0.0
C293 C 0.70558 0.85671 0.2816 0.0
C294 C 0.69002 0.89871 0.27917 0.0
C295 C 0.68855 0.89888 0.30553 0.0
O296 O 0.7645 0.85159 0.31023 0.0
O297 O 0.71924 0.77939 0.34431 0.0
O298 O 0.69712 0.7665 0.38866 0.0
O299 O 0.73656 0.81908 0.37361 0.0
O300 O 0.7428 0.80159 0.31077 0.0
O301 O 0.7618 0.87444 0.3448 0.0
O302 O 0.61273 0.71295 0.36102 0.0
O303 O 0.66811 0.78713 0.34159 0.0
O304 O 0.68631 0.79603 0.29994 0.0
O305 O 0.67016 0.74203 0.31199 0.0
O306 O 0.6396 0.76443 0.37315 0.0
O307 O 0.63432 0.69604 0.33295 0.0
C308 C 0.73746 0.7785 0.32677 0.0
C309 C 0.79111 0.91047 0.31003 0.0
C310 C 0.82216 0.9714 0.30843 0.0
C311 C 0.8106 0.94147 0.32213 0.0
C312 C 0.81381 0.96987 0.2828 0.0
C313 C 0.78489 0.91021 0.28399 0.0
C314 C 0.79556 0.93956 0.2707 0.0
C315 C 0.72374 0.79585 0.39173 0.0
C316 C 0.77824 0.87842 0.32388 0.0
C317 C 0.68212 0.92136 0.31836 0.0
C318 C 0.68079 0.92104 0.34473 0.0
C319 C 0.64876 0.78861 0.35752 0.0
C320 C 0.58573 0.6552 0.35355 0.0
C321 C 0.55099 0.63938 0.35039 0.0
C322 C 0.53047 0.606 0.35776 0.0
C323 C 0.5453 0.58911 0.36872 0.0
C324 C 0.59969 0.63766 0.36455 0.0
C325 C 0.57956 0.60488 0.37213 0.0
C326 C 0.67259 0.76382 0.29497 0.0
C327 C 0.60732 0.6897 0.34495 0.0
H328 H 0.81678 0.94231 0.34194 0.0
H329 H 0.82249 0.99233 0.27181 0.0
H330 H 0.77195 0.88726 0.27361 0.0
H331 H 0.79012 0.9388 0.25077 0.0
H332 H 0.5401 0.65278 0.34178 0.0
H333 H 0.5303 0.56367 0.37492 0.0
H334 H 0.62621 0.6492 0.36709 0.0
H335 H 0.59057 0.59156 0.38063 0.0
Eu336 Eu 0.21851 0.89847 0.32999 0.0
C337 C 0.34627 0.99589 0.38807 0.0
C338 C 0.36375 0.04775 0.36638 0.0
C339 C 0.37538 0.04777 0.41112 0.0
C340 C 0.34757 1.01286 0.3663 0.0
C341 C 0.3607 1.01315 0.41062 0.0
C342 C 0.37694 0.06505 0.38903 0.0
C343 C 0.34721 0.96092 0.42994 0.0
N344 N 0.33171 0.96241 0.38698 0.0
C345 C 0.3333 0.9449 0.40712 0.0
C346 C 0.36053 0.99513 0.43181 0.0
Eu347 Eu 0.30631 0.93691 0.34822 0.0
N348 N 0.33471 0.9954 0.34471 0.0
C349 C 0.33979 1.01142 0.32216 0.0
C350 C 0.36709 0.06423 0.34355 0.0
C351 C 0.35559 0.046 0.32127 0.0
H352 H 0.32285 0.91842 0.4058 0.0
H353 H 0.35878 0.05853 0.30341 0.0
H354 H 0.38912 0.09183 0.38952 0.0
H355 H 0.34758 0.94687 0.44607 0.0
H356 H 0.33105 0.99764 0.3048 0.0
H357 H 0.17866 0.82122 0.41563 0.0
H358 H 0.37934 0.09101 0.3428 0.0
H359 H 0.1987 0.87537 0.26937 0.0
H360 H 0.20797 0.87267 0.39181 0.0
H361 H 0.16843 0.82416 0.24448 0.0
H362 H 0.38629 0.06147 0.42833 0.0
H363 H 0.14667 0.76791 0.39336 0.0
H364 H 0.12726 0.73713 0.35269 0.0
H365 H 0.37126 1.00747 0.44952 0.0
H366 H 0.12525 0.73779 0.30639 0.0
N367 N 0.19285 0.84988 0.3556 0.0
C368 C 0.19396 0.85015 0.38143 0.0
C369 C 0.15936 0.79069 0.38259 0.0
C370 C 0.15806 0.79036 0.35623 0.0
C371 C 0.17737 0.82071 0.39521 0.0
C372 C 0.17514 0.82072 0.34302 0.0
H373 H 0.14083 0.76985 0.26603 0.0
N374 N 0.1914 0.85039 0.30445 0.0
C375 C 0.17039 0.82281 0.26476 0.0
C376 C 0.17452 0.821 0.3168 0.0
C377 C 0.18807 0.85175 0.27889 0.0
C378 C 0.15471 0.79227 0.277 0.0
C379 C 0.15614 0.79107 0.30332 0.0
O380 O 0.18826 0.91342 0.30859 0.0
O381 O 0.26427 0.94624 0.33847 0.0
O382 O 0.28175 0.94311 0.38234 0.0
O383 O 0.22643 0.92266 0.3702 0.0
O384 O 0.23831 0.94492 0.30648 0.0
O385 O 0.16959 0.88825 0.34406 0.0
O386 O 0.33461 0.9113 0.35281 0.0
O387 O 0.26055 0.88993 0.33735 0.0
O388 O 0.24806 0.89618 0.29559 0.0
O389 O 0.30205 0.93692 0.30565 0.0
O390 O 0.28628 0.88746 0.36827 0.0
O391 O 0.35252 0.9528 0.32738 0.0
C392 C 0.26275 0.96412 0.32098 0.0
C393 C 0.12963 0.87823 0.31154 0.0
C394 C 0.06846 0.84728 0.31279 0.0
C395 C 0.09944 0.8669 0.32501 0.0
C396 C 0.06835 0.83927 0.28717 0.0
C397 C 0.12806 0.87056 0.2857 0.0
C398 C 0.09781 0.8509 0.27382 0.0
C399 C 0.25145 0.93707 0.38683 0.0
C400 C 0.1627 0.8993 0.32366 0.0
C401 C 0.13929 0.76097 0.31646 0.0
C402 C 0.14033 0.7606 0.34283 0.0
C403 C 0.26158 0.87054 0.35344 0.0
C404 C 0.39255 0.94344 0.34786 0.0
C405 C 0.40789 0.92401 0.34542 0.0
C406 C 0.43957 0.93477 0.35589 0.0
C407 C 0.45566 0.96543 0.36848 0.0
C408 C 0.40925 0.97386 0.36054 0.0
C409 C 0.44063 0.98476 0.37071 0.0
C410 C 0.27987 0.9159 0.28952 0.0
C411 C 0.3587 0.93125 0.33805 0.0
H412 H 0.10003 0.87335 0.34473 0.0
H413 H 0.04524 0.82481 0.2771 0.0
H414 H 0.15022 0.88018 0.27431 0.0
H415 H 0.09719 0.84513 0.25396 0.0
H416 H 0.3949 0.90032 0.33588 0.0
H417 H 0.48014 0.9747 0.37643 0.0
H418 H 0.39802 0.98918 0.36265 0.0
H419 H 0.45335 1.00829 0.38043 0.0
Eu420 Eu 0.15086 0.33316 0.32862 0.0
C421 C 0.04382 0.3352 0.3887 0.0
C422 C 0.99629 0.29925 0.36304 0.0
C423 C 0.99137 0.29665 0.40872 0.0
C424 C 0.03016 0.32352 0.36515 0.0
C425 C 0.02415 0.32284 0.41067 0.0
C426 C 0.97745 0.28485 0.38492 0.0
C427 C 0.06927 0.36574 0.43456 0.0
N428 N 0.07546 0.36069 0.38996 0.0
C429 C 0.08774 0.3772 0.41229 0.0
C430 C 0.03756 0.33803 0.43383 0.0
Eu431 Eu 0.10675 0.37453 0.35172 0.0
N432 N 0.04896 0.33822 0.34434 0.0
C433 C 0.03411 0.33281 0.32119 0.0
C434 C 0.98185 0.29157 0.33909 0.0
C435 C 1.00056 0.30928 0.31821 0.0
H436 H 0.11264 0.39798 0.41318 0.0
H437 H 0.98929 0.30448 0.29969 0.0
H438 H 0.95164 0.2657 0.38361 0.0
H439 H 0.07964 0.37814 0.45228 0.0
H440 H 0.0478 0.34575 0.30466 0.0
H441 H 0.23068 0.36115 0.41189 0.0
H442 H 0.95593 0.27319 0.33667 0.0
H443 H 0.17319 0.34636 0.26685 0.0
H444 H 0.17837 0.33804 0.38915 0.0
H445 H 0.22398 0.37511 0.24127 0.0
H446 H 0.97614 0.28636 0.42543 0.0
H447 H 0.28374 0.39084 0.38876 0.0
H448 H 0.31363 0.41057 0.34769 0.0
H449 H 0.02325 0.32922 0.4511 0.0
H450 H 0.31185 0.41531 0.30165 0.0
N451 N 0.2004 0.35573 0.353 0.0
C452 C 0.2008 0.35154 0.37854 0.0
C453 C 0.26059 0.38094 0.37853 0.0
C454 C 0.26025 0.38427 0.35233 0.0
C455 C 0.23072 0.36433 0.39164 0.0
C456 C 0.22939 0.37106 0.33984 0.0
H457 H 0.27877 0.40262 0.26201 0.0
N458 N 0.1985 0.3607 0.30216 0.0
C459 C 0.22563 0.37545 0.26166 0.0
C460 C 0.2284 0.3738 0.3138 0.0
C461 C 0.19686 0.35982 0.27632 0.0
C462 C 0.25647 0.39076 0.27343 0.0
C463 C 0.2582 0.38954 0.29972 0.0
O464 O 0.14317 0.29256 0.30376 0.0
O465 O 0.10076 0.32521 0.33879 0.0
O466 O 0.11965 0.35471 0.38576 0.0
O467 O 0.12568 0.31257 0.36794 0.0
O468 O 0.10508 0.30581 0.30462 0.0
O469 O 0.16052 0.29392 0.3417 0.0
O470 O 0.12743 0.42332 0.3335 0.0
O471 O 0.15607 0.38132 0.34044 0.0
O472 O 0.14974 0.36719 0.29724 0.0
O473 O 0.10492 0.37319 0.30904 0.0
O474 O 0.15486 0.40447 0.37349 0.0
O475 O 0.08905 0.40888 0.36104 0.0
C476 C 0.08433 0.30699 0.32023 0.0
C477 C 0.17953 0.27092 0.30983 0.0
C478 C 0.20884 0.23927 0.31187 0.0
C479 C 0.18495 0.24674 0.32167 0.0
C480 C 0.2271 0.25639 0.29036 0.0
C481 C 0.19749 0.28635 0.2878 0.0
C482 C 0.22134 0.27956 0.27843 0.0
C483 C 0.11878 0.3263 0.38747 0.0
C484 C 0.15468 0.27944 0.31971 0.0
C485 C 0.2888 0.40304 0.31217 0.0
C486 C 0.28981 0.40032 0.33838 0.0
C487 C 0.17384 0.40044 0.35786 0.0
C488 C 0.13014 0.46572 0.35965 0.0
C489 C 0.1341 0.495 0.3484 0.0
C490 C 0.15272 0.52578 0.36079 0.0
C491 C 0.16738 0.52699 0.38417 0.0
C492 C 0.14513 0.46785 0.38309 0.0
C493 C 0.16362 0.49822 0.3952 0.0
C494 C 0.12715 0.37593 0.29224 0.0
C495 C 0.11075 0.43302 0.34715 0.0
H496 H 0.17071 0.23385 0.33828 0.0
H497 H 0.24522 0.25103 0.28217 0.0
H498 H 0.19275 0.30326 0.27733 0.0
H499 H 0.23503 0.29191 0.26151 0.0
H500 H 0.12274 0.49386 0.33031 0.0
H501 H 0.18178 0.55035 0.39393 0.0
H502 H 0.14256 0.44606 0.3922 0.0
H503 H 0.17504 0.49943 0.41325 0.0
Eu504 Eu 0.39207 0.16465 0.6641 0.0
C505 C 0.36227 0.04131 0.72679 0.0
C506 C 0.39717 0.02371 0.70609 0.0
C507 C 0.38644 1.01453 0.75116 0.0
C508 C 0.37783 0.0392 0.70526 0.0
C509 C 0.36559 0.02817 0.74985 0.0
C510 C 0.40222 1.0123 0.7293 0.0
C511 C 0.3247 0.03968 0.76779 0.0
N512 N 0.34217 0.05445 0.72479 0.0
C513 C 0.32218 0.05234 0.74448 0.0
C514 C 0.34697 0.02812 0.77064 0.0
Eu515 Eu 0.34172 0.07846 0.68541 0.0
N516 N 0.37202 0.05008 0.68316 0.0
C517 C 0.38204 0.04321 0.66084 0.0
C518 C 0.40974 0.01899 0.68344 0.0
C519 C 0.40156 0.02818 0.66067 0.0
H520 H 0.30514 0.06152 0.74241 0.0
H521 H 0.41035 0.02379 0.64297 0.0
H522 H 0.41735 1.00072 0.73038 0.0
H523 H 0.30956 0.03897 0.78357 0.0
H524 H 0.37596 0.05024 0.64311 0.0
H525 H 0.36479 0.21687 0.7476 0.0
H526 H 0.42476 1.00725 0.68326 0.0
H527 H 0.38775 0.18036 0.60264 0.0
H528 H 0.37918 0.18022 0.72531 0.0
H529 H 0.36961 0.21185 0.57631 0.0
H530 H 0.38969 1.0047 0.76878 0.0
H531 H 0.34966 0.25278 0.72383 0.0
H532 H 0.33856 0.27072 0.68225 0.0
H533 H 0.34884 0.01828 0.7887 0.0
H534 H 0.33751 0.26755 0.636 0.0
N535 N 0.37247 0.19434 0.6884 0.0
C536 C 0.37274 0.19535 0.71423 0.0
C537 C 0.35572 0.23633 0.71368 0.0
C538 C 0.35468 0.23483 0.68732 0.0
C539 C 0.36437 0.21621 0.72717 0.0
C540 C 0.36347 0.21346 0.67498 0.0
H541 H 0.34839 0.24535 0.59647 0.0
N542 N 0.37262 0.19195 0.63725 0.0
C543 C 0.36701 0.21161 0.59663 0.0
C544 C 0.36309 0.21187 0.64877 0.0
C545 C 0.37648 0.19311 0.61159 0.0
C546 C 0.35524 0.2306 0.60809 0.0
C547 C 0.35389 0.23154 0.63443 0.0
O548 O 0.43667 0.19249 0.64136 0.0
O549 O 0.39332 0.11909 0.67477 0.0
O550 O 0.37059 0.1054 0.71958 0.0
O551 O 0.4087 0.15845 0.70454 0.0
O552 O 0.41699 0.14233 0.64152 0.0
O553 O 0.43278 0.21313 0.67676 0.0
O554 O 0.28764 0.05117 0.68963 0.0
O555 O 0.34112 0.12435 0.67341 0.0
O556 O 0.35806 0.13372 0.63112 0.0
O557 O 0.34545 0.08058 0.6428 0.0
O558 O 0.31365 0.10004 0.70518 0.0
O559 O 0.31108 0.03147 0.66585 0.0
C560 C 0.41207 0.11916 0.65731 0.0
C561 C 0.46196 0.25132 0.6431 0.0
C562 C 0.49251 0.3124 0.64349 0.0
C563 C 0.48088 0.2817 0.65618 0.0
C564 C 0.48485 0.31205 0.61777 0.0
C565 C 0.45595 0.25236 0.61718 0.0
C566 C 0.46685 0.28236 0.60481 0.0
C567 C 0.39626 0.13528 0.72269 0.0
C568 C 0.44959 0.21861 0.65584 0.0
C569 C 0.34463 0.25232 0.64672 0.0
C570 C 0.34529 0.25416 0.67307 0.0
C571 C 0.32178 0.12459 0.69007 0.0
C572 C 0.2613 0.99308 0.68653 0.0
C573 C 0.22693 0.97673 0.68172 0.0
C574 C 0.20554 0.94513 0.69215 0.0
C575 C 0.2193 0.9306 0.7077 0.0
C576 C 0.27426 0.9778 0.70186 0.0
C577 C 0.25332 0.94679 0.71242 0.0
C578 C 0.34574 0.10169 0.62607 0.0
C579 C 0.28334 0.02628 0.67588 0.0
H580 H 0.48653 0.28146 0.67599 0.0
H581 H 0.49374 0.33493 0.60732 0.0
H582 H 0.44316 0.22996 0.60614 0.0
H583 H 0.4618 0.2826 0.58489 0.0
H584 H 0.21703 0.98846 0.66965 0.0
H585 H 0.20371 0.90679 0.71655 0.0
H586 H 0.30055 0.98983 0.70572 0.0
H587 H 0.26349 0.93527 0.72439 0.0
Eu588 Eu 0.88936 0.23111 0.66567 0.0
C589 C 1.01102 0.32425 0.73088 0.0
C590 C 0.02914 0.37759 0.71145 0.0
C591 C 0.0374 0.37421 0.75641 0.0
C592 C 1.01372 0.34281 0.70976 0.0
C593 C 0.02357 0.33977 0.75433 0.0
C594 C 0.04011 0.39309 0.73501 0.0
C595 C 1.01099 0.28659 0.7712 0.0
N596 N 0.99776 0.29109 0.72814 0.0
C597 C 0.99903 0.27237 0.74751 0.0
C598 C 0.02279 0.32034 0.77475 0.0
Eu599 Eu 0.97529 0.26834 0.68803 0.0
N600 N 1.00322 0.32707 0.68726 0.0
C601 C 1.01019 0.34489 0.6654 0.0
C602 C 0.03411 0.39581 0.68927 0.0
C603 C 0.02514 0.37941 0.66609 0.0
H604 H 0.98979 0.24623 0.74489 0.0
H605 H 0.02966 0.39332 0.64875 0.0
H606 H 0.05164 0.41973 0.73674 0.0
H607 H 1.01106 0.27151 0.7867 0.0
H608 H 1.00338 0.3326 0.64734 0.0
H609 H 0.83973 0.14947 0.74858 0.0
H610 H 0.04578 0.42255 0.68975 0.0
H611 H 0.87513 0.21124 0.60399 0.0
H612 H 0.87164 0.20205 0.72667 0.0
H613 H 0.84728 0.16143 0.57739 0.0
H614 H 0.04681 0.38656 0.77434 0.0
H615 H 0.81009 0.09741 0.72443 0.0
H616 H 0.79484 0.06883 0.68272 0.0
H617 H 0.03211 0.33132 0.7931 0.0
H618 H 0.79768 0.07192 0.63645 0.0
N619 N 0.86101 0.1812 0.68963 0.0
C620 C 0.85909 0.18011 0.71544 0.0
C621 C 0.82412 0.12071 0.71448 0.0
C622 C 0.8257 0.12177 0.68813 0.0
C623 C 0.84082 0.15002 0.72816 0.0
C624 C 0.84445 0.15276 0.67601 0.0
H625 H 0.81747 0.10604 0.59717 0.0
N626 N 0.86465 0.18441 0.63853 0.0
C627 C 0.84733 0.159 0.59771 0.0
C628 C 0.84648 0.15441 0.64983 0.0
C629 C 0.8637 0.18714 0.61287 0.0
C630 C 0.83039 0.12784 0.60895 0.0
C631 C 0.82925 0.12525 0.63528 0.0
O632 O 0.86032 0.24577 0.64244 0.0
O633 O 0.93401 0.27822 0.67728 0.0
O634 O 0.94697 0.26882 0.72203 0.0
O635 O 0.89426 0.25363 0.70612 0.0
O636 O 0.91053 0.27931 0.64442 0.0
O637 O 0.84011 0.22155 0.67808 0.0
O638 O 1.00297 0.24192 0.69129 0.0
O639 O 0.9306 0.22176 0.67457 0.0
O640 O 0.92192 0.23173 0.63238 0.0
O641 O 0.97431 0.27234 0.64554 0.0
O642 O 0.95408 0.21796 0.70657 0.0
O643 O 0.0233 0.28662 0.66929 0.0
C644 C 0.93354 0.29733 0.66039 0.0
C645 C 0.80159 0.21097 0.64446 0.0
C646 C 0.7405 0.18035 0.64494 0.0
C647 C 0.77119 0.20008 0.65742 0.0
C648 C 0.74086 0.17171 0.61954 0.0
C649 C 0.80062 0.20264 0.61882 0.0
C650 C 0.77061 0.18282 0.60667 0.0
C651 C 0.91688 0.26433 0.72466 0.0
C652 C 0.83421 0.23218 0.65701 0.0
C653 C 0.81087 0.09451 0.64734 0.0
C654 C 0.80915 0.09277 0.67369 0.0
C655 C 0.93041 0.20175 0.69075 0.0
C656 C 0.06111 0.27441 0.68997 0.0
C657 C 0.07735 0.25615 0.68574 0.0
C658 C 0.10746 0.26495 0.69808 0.0
C659 C 0.12123 0.29244 0.71435 0.0
C660 C 0.07556 0.3019 0.70612 0.0
C661 C 0.10546 0.31084 0.71818 0.0
C662 C 0.95392 0.25272 0.62793 0.0
C663 C 0.02841 0.26367 0.67852 0.0
H664 H 0.77141 0.20701 0.67697 0.0
H665 H 0.71797 0.15718 0.60924 0.0
H666 H 0.82305 0.21187 0.60782 0.0
H667 H 0.7704 0.17656 0.58696 0.0
H668 H 0.0662 0.23474 0.67342 0.0
H669 H 0.14441 0.29987 0.72397 0.0
H670 H 0.06364 0.31635 0.70954 0.0
H671 H 0.11638 0.33203 0.73068 0.0
Eu672 Eu 0.82365 0.66533 0.66685 0.0
C673 C 0.72644 0.69176 0.72811 0.0
C674 C 0.67389 0.65444 0.70847 0.0
C675 C 0.67602 0.66651 0.75331 0.0
C676 C 0.70861 0.67496 0.70702 0.0
C677 C 0.7103 0.68845 0.75137 0.0
C678 C 0.65783 0.64955 0.73187 0.0
C679 C 0.76249 0.73118 0.76824 0.0
N680 N 0.75949 0.71274 0.72552 0.0
C681 C 0.77736 0.7336 0.74477 0.0
C682 C 0.72894 0.70806 0.77171 0.0
Eu683 Eu 0.78362 0.71286 0.68597 0.0
N684 N 0.72493 0.68049 0.68472 0.0
C685 C 0.70763 0.66892 0.66274 0.0
C686 C 0.65628 0.64044 0.6862 0.0
C687 C 0.67317 0.64826 0.66317 0.0
H688 H 0.80338 0.75129 0.74224 0.0
H689 H 0.65971 0.63829 0.64575 0.0
H690 H 0.63123 0.63351 0.73343 0.0
H691 H 0.77694 0.74703 0.78367 0.0
H692 H 0.72037 0.67464 0.64483 0.0
H693 H 0.89529 0.69265 0.75503 0.0
H694 H 0.6296 0.62448 0.68648 0.0
H695 H 0.85218 0.68001 0.60624 0.0
H696 H 0.84598 0.67531 0.72988 0.0
H697 H 0.90507 0.7038 0.58371 0.0
H698 H 0.66321 0.66326 0.77109 0.0
H699 H 0.94966 0.71361 0.73441 0.0
H700 H 0.98279 0.72711 0.69486 0.0
H701 H 0.71749 0.7062 0.78991 0.0
H702 H 0.9854 0.73002 0.64864 0.0
N703 N 0.87072 0.6865 0.69418 0.0
C704 C 0.86887 0.68446 0.71999 0.0
C705 C 0.92778 0.70611 0.72296 0.0
C706 C 0.92984 0.70813 0.69667 0.0
C707 C 0.89718 0.69432 0.73465 0.0
C708 C 0.9006 0.69822 0.68252 0.0
H709 H 0.95715 0.7233 0.6074 0.0
N710 N 0.87391 0.69102 0.64307 0.0
C711 C 0.90475 0.7036 0.60415 0.0
C712 C 0.90223 0.70069 0.65637 0.0
C713 C 0.87477 0.69114 0.61717 0.0
C714 C 0.934 0.71429 0.61756 0.0
C715 C 0.93297 0.71233 0.6439 0.0
O716 O 0.8171 0.62511 0.642 0.0
O717 O 0.77518 0.66187 0.67573 0.0
O718 O 0.78275 0.68521 0.72071 0.0
O719 O 0.79729 0.64674 0.70606 0.0
O720 O 0.77709 0.63717 0.64384 0.0
O721 O 0.8291 0.62401 0.68119 0.0
O722 O 0.80871 0.76697 0.68881 0.0
O723 O 0.83101 0.7152 0.67435 0.0
O724 O 0.82401 0.69714 0.6333 0.0
O725 O 0.78125 0.70717 0.64347 0.0
O726 O 0.83377 0.74388 0.70494 0.0
O727 O 0.76516 0.74136 0.66572 0.0
C728 C 0.75759 0.64203 0.65835 0.0
C729 C 0.85084 0.60121 0.65146 0.0
C730 C 0.87921 0.56924 0.65759 0.0
C731 C 0.85453 0.5769 0.66486 0.0
C732 C 0.90017 0.58627 0.63722 0.0
C733 C 0.87121 0.61631 0.63034 0.0
C734 C 0.896 0.60941 0.62362 0.0
C735 C 0.78605 0.65903 0.72393 0.0
C736 C 0.82565 0.61049 0.65901 0.0
C737 C 0.96173 0.72129 0.65796 0.0
C738 C 0.96025 0.7196 0.68426 0.0
C739 C 0.85055 0.73574 0.69024 0.0
C740 C 0.77497 0.79117 0.6856 0.0
C741 C 0.79322 0.82583 0.68196 0.0
C742 C 0.78256 0.84654 0.69298 0.0
C743 C 0.75316 0.83184 0.70733 0.0
C744 C 0.7458 0.77732 0.70004 0.0
C745 C 0.73498 0.79757 0.71075 0.0
C746 C 0.80255 0.70689 0.62716 0.0
C747 C 0.78713 0.76979 0.67516 0.0
H748 H 0.83838 0.56406 0.68068 0.0
H749 H 0.91919 0.5808 0.63127 0.0
H750 H 0.86778 0.63314 0.61861 0.0
H751 H 0.9117 0.62167 0.60748 0.0
H752 H 0.81599 0.83665 0.67108 0.0
H753 H 0.74399 0.84686 0.71577 0.0
H754 H 0.73143 0.75085 0.70311 0.0
H755 H 0.71241 0.78666 0.72183 0.0
H756 H 0.35049 0.45592 0.02662 0.0
H757 H 0.29435 0.44686 0.03208 0.0
H758 H 0.32245 0.53765 0.99208 0.0
H759 H 0.37898 0.54697 0.98681 0.0
H760 H 0.27639 0.52381 0.0337 0.0
H761 H 0.23513 0.41712 0.96841 0.0
H762 H 0.25704 0.41591 0.9959 0.0
H763 H 0.27824 0.44775 0.97263 0.0
C764 C 0.34498 0.4745 0.01972 0.0
C765 C 0.36913 0.50218 1.00631 0.0
C766 C 0.31279 0.46914 0.02263 0.0
C767 C 0.3039 0.49115 0.01199 0.0
C768 C 0.32867 0.52022 1.00035 0.0
H769 H 0.11911 0.46245 0.95598 0.0
H770 H 0.17296 0.46697 0.96343 0.0
C771 C 0.36104 0.52569 0.99752 0.0
C772 C 0.26837 0.48228 0.01095 0.0
H773 H 0.19363 0.42639 0.98517 0.0
C774 C 0.25823 0.50241 0.02324 0.0
C775 C 0.24468 0.4545 0.99706 0.0
C776 C 0.25423 0.43267 0.98254 0.0
C777 C 0.22514 0.49557 0.02195 0.0
C778 C 0.20145 0.46767 0.00815 0.0
C779 C 0.21161 0.44749 0.996 0.0
C780 C 0.16693 0.46095 1.00394 0.0
C781 C 0.21608 0.51894 0.0346 0.0
C782 C 0.14476 0.45447 0.02409 0.0
C783 C 0.11369 0.45166 0.01979 0.0
C784 C 0.10426 0.4552 0.99528 0.0
C785 C 0.12566 0.4596 0.97507 0.0
C786 C 0.15653 0.4623 0.97932 0.0
H787 H 0.23834 0.54247 0.04031 0.0
H788 H 0.2008 0.52479 0.02184 0.0
H789 H 0.20122 0.50698 0.05179 0.0
H790 H 0.15181 0.45248 0.0432 0.0
H791 H 0.09773 0.44807 0.03573 0.0
H792 H 0.49612 0.83848 0.99827 0.0
H793 H 0.50877 0.79427 1.00715 0.0
H794 H 0.61105 0.86008 0.98722 0.0
H795 H 0.59863 0.90421 0.97883 0.0
H796 H 0.5302 0.76783 0.97126 0.0
H797 H 0.62172 0.81514 0.04885 0.0
H798 H 0.59624 0.83302 0.04123 0.0
H799 H 0.63322 0.84413 0.0233 0.0
C800 C 0.52151 0.84383 0.99673 0.0
C801 C 0.54637 0.87487 0.98791 0.0
C802 C 0.5287 0.81846 1.00157 0.0
C803 C 0.56096 0.82375 0.998 0.0
C804 C 0.58613 0.85537 0.9906 0.0
H805 H 0.60819 0.67244 0.95261 0.0
H806 H 0.60332 0.72238 0.95567 0.0
C807 C 0.57895 0.88061 0.98569 0.0
C808 C 0.5676 0.79554 0.99908 0.0
H809 H 0.61887 0.77032 0.02454 0.0
C810 C 0.5494 0.76831 0.9831 0.0
C811 C 0.59255 0.7959 0.01459 0.0
C812 C 0.61183 0.82347 0.03315 0.0
C813 C 0.55591 0.74197 0.98173 0.0
C814 C 0.58185 0.74302 0.99638 0.0
C815 C 0.59945 0.76976 0.01293 0.0
C816 C 0.59004 0.7159 0.9953 0.0
C817 C 0.53457 0.71299 0.96479 0.0
C818 C 0.58588 0.6965 0.01676 0.0
C819 C 0.58906 0.66823 0.015 0.0
C820 C 0.59721 0.65914 0.992 0.0
C821 C 0.60266 0.67929 0.97075 0.0
C822 C 0.59955 0.70763 0.97245 0.0
H823 H 0.51085 0.71194 0.96002 0.0
H824 H 0.54805 0.71551 0.94689 0.0
H825 H 0.52888 0.68923 0.97382 0.0
H826 H 0.57816 0.70204 0.03452 0.0
H827 H 0.58239 0.65205 0.0311 0.0
H828 H 0.38256 0.93642 0.95332 0.0
H829 H 0.3326 0.88277 0.95996 0.0
H830 H 0.33871 0.90122 0.04008 0.0
H831 H 0.38869 0.95526 0.0334 0.0
H832 H 0.33359 0.83939 0.02666 0.0
H833 H 0.23681 0.85541 0.9791 0.0
H834 H 0.27322 0.86843 0.96009 0.0
H835 H 0.27598 0.89004 0.98892 0.0
C836 C 0.37276 0.92946 0.97229 0.0
C837 C 0.38976 0.95009 0.99284 0.0
C838 C 0.34417 0.89872 0.97608 0.0
C839 C 0.33181 0.88778 1.00053 0.0
C840 C 0.34779 0.909 0.02104 0.0
H841 H 0.1441 0.70225 0.01739 0.0
H842 H 0.18993 0.75868 0.02406 0.0
C843 C 0.37634 0.93999 0.0172 0.0
C844 C 0.30379 0.85331 1.00451 0.0
H845 H 0.22416 0.79966 0.98631 0.0
C846 C 0.3095 0.83076 0.01812 0.0
C847 C 0.27225 0.84201 0.99356 0.0
C848 C 0.264 0.86528 0.9798 0.0
C849 C 0.28498 0.79707 0.02027 0.0
C850 C 0.25397 0.78541 0.00822 0.0
C851 C 0.24793 0.8083 0.9954 0.0
C852 C 0.22748 0.74966 0.00816 0.0
C853 C 0.29255 0.77434 0.03549 0.0
C854 C 0.23327 0.72516 0.99784 0.0
C855 C 0.20701 0.6926 0.99435 0.0
C856 C 0.17443 0.68401 1.00088 0.0
C857 C 0.16902 0.70805 0.01245 0.0
C858 C 0.19519 0.74042 0.01606 0.0
H859 H 0.31247 0.78833 0.04951 0.0
H860 H 0.27018 0.75533 0.0456 0.0
H861 H 0.30123 0.76149 0.0226 0.0
H862 H 0.25772 0.73162 0.99109 0.0
H863 H 0.21179 0.67484 0.98486 0.0
H864 H 0.51376 0.22511 0.03005 0.0
H865 H 0.54297 0.28586 0.02943 0.0
H866 H 0.45423 0.28318 1.00298 0.0
H867 H 0.42497 0.2227 1.00354 0.0
H868 H 0.55561 0.33271 0.99169 0.0
H869 H 0.47604 0.33931 0.06671 0.0
H870 H 0.47615 0.30159 0.0594 0.0
H871 H 0.45318 0.31479 0.04007 0.0
C872 C 0.50057 0.23744 0.02381 0.0
C873 C 0.46684 0.21892 0.01718 0.0
C874 C 0.51728 0.27221 0.02356 0.0
C875 C 0.50063 0.28918 0.01669 0.0
C876 C 0.46741 0.27074 0.009 0.0
H877 H 0.58669 0.49969 0.98107 0.0
H878 H 0.56413 0.43964 0.97915 0.0
C879 C 0.4507 0.23609 0.00933 0.0
C880 C 0.5176 0.32606 0.01809 0.0
H881 H 0.51254 0.38949 0.04586 0.0
C882 C 0.54621 0.34517 1.00352 0.0
C883 C 0.50577 0.34241 0.03389 0.0
C884 C 0.4763 0.32353 0.05111 0.0
C885 C 0.56278 0.38006 1.00386 0.0
C886 C 0.5501 0.3964 0.01887 0.0
C887 C 0.52201 0.37719 0.03394 0.0
C888 C 0.56549 0.43326 0.01959 0.0
C889 C 0.59415 0.39896 0.98858 0.0
C890 C 0.5734 0.44994 0.04289 0.0
C891 C 0.58544 0.48408 0.04399 0.0
C892 C 0.5893 0.50226 0.02187 0.0
C893 C 0.58291 0.48603 0.99847 0.0
C894 C 0.57057 0.45177 0.99736 0.0
H895 H 0.60611 0.38386 0.98508 0.0
H896 H 0.58801 0.4054 0.96996 0.0
H897 H 0.61225 0.4222 0.99819 0.0
H898 H 0.56992 0.43645 0.06034 0.0
H899 H 0.59096 0.49617 0.06223 0.0
H900 H 0.56134 0.09709 0.06015 0.0
H901 H 0.62134 0.134 0.05748 0.0
H902 H 0.61569 0.12922 0.97616 0.0
H903 H 0.55551 0.0913 0.97892 0.0
H904 H 0.66802 0.12576 0.99169 0.0
H905 H 0.66935 0.23034 0.0414 0.0
H906 H 0.65045 0.19376 0.06055 0.0
H907 H 0.63137 0.19463 0.03119 0.0
C908 C 0.57298 0.10385 0.04172 0.0
C909 C 0.55394 0.09082 0.01978 0.0
C910 C 0.60725 0.12525 0.04017 0.0
C911 C 0.62318 0.13518 0.0166 0.0
C912 C 0.60409 0.12217 0.99458 0.0
H913 H 0.83591 0.26725 0.98185 0.0
H914 H 0.77522 0.23474 0.97793 0.0
C915 C 0.56974 0.10039 0.99615 0.0
C916 C 0.65974 0.15859 0.01514 0.0
H917 H 0.7218 0.2324 0.03796 0.0
C918 C 0.67967 0.14915 1.00164 0.0
C919 C 0.6752 0.1896 0.02771 0.0
C920 C 0.65542 0.20284 0.04078 0.0
C921 C 0.71449 0.16885 1.00152 0.0
C922 C 0.7299 0.19907 0.015 0.0
C923 C 0.71001 0.20909 0.02781 0.0
C924 C 0.76663 0.21977 0.01716 0.0
C925 C 0.73467 0.15665 0.98773 0.0
C926 C 0.78192 0.22282 0.04058 0.0
C927 C 0.81646 0.24128 0.04285 0.0
C928 C 0.83659 0.25747 0.02179 0.0
C929 C 0.82116 0.2552 0.99845 0.0
C930 C 0.78651 0.23641 0.99614 0.0
H931 H 0.71932 0.13049 0.98156 0.0
H932 H 0.74611 0.17223 0.97075 0.0
H933 H 0.755 0.15879 0.99994 0.0
H934 H 0.76711 0.21042 0.0571 0.0
H935 H 0.82745 0.24285 0.06117 0.0
H936 H 0.94995 0.4669 0.06145 0.0
H937 H 0.91227 0.48916 0.05938 0.0
H938 H 0.91758 0.49006 0.97803 0.0
H939 H 0.95479 0.46697 0.98015 0.0
H940 H 0.92591 0.5486 0.0397 0.0
H941 H 0.81823 0.44743 0.98982 0.0
H942 H 0.8506 0.44198 1.0036 0.0
H943 H 0.85714 0.46262 0.97372 0.0
C944 C 0.94291 0.47171 0.04314 0.0
C945 C 0.95615 0.46635 0.021 0.0
C946 C 0.92135 0.48439 0.04195 0.0
C947 C 0.91186 0.49121 0.01856 0.0
C948 C 0.92408 0.48461 0.99632 0.0
H949 H 0.79027 0.58163 0.98211 0.0
H950 H 0.82302 0.55361 0.97966 0.0
C951 C 0.94573 0.47189 0.99753 0.0
C952 C 0.89078 0.50697 0.01777 0.0
H953 H 0.81667 0.49676 0.99708 0.0
C954 C 0.90219 0.53736 0.03016 0.0
C955 C 0.85962 0.49228 1.00551 0.0
C956 C 0.84544 0.45914 0.99258 0.0
C957 C 0.88384 0.55379 0.03024 0.0
C958 C 0.85219 0.5387 0.01865 0.0
C959 C 0.8408 0.50836 1.00606 0.0
C960 C 0.83041 0.55372 0.02003 0.0
C961 C 0.89912 0.58759 0.04229 0.0
C962 C 0.82255 0.56211 0.04351 0.0
C963 C 0.80429 0.57843 0.04488 0.0
C964 C 0.7927 0.5861 0.02285 0.0
C965 C 0.79888 0.57605 0.99941 0.0
C966 C 0.81766 0.56011 0.998 0.0
H967 H 0.92663 0.60004 0.04228 0.0
H968 H 0.89167 0.60381 0.03237 0.0
H969 H 0.89087 0.58489 0.06225 0.0
H970 H 0.83094 0.55643 0.06086 0.0
H971 H 0.79942 0.58532 0.06325 0.0
H972 H 0.76368 0.77127 0.37177 0.0
H973 H 0.81975 0.77956 0.37725 0.0
H974 H 0.83083 0.77984 0.29641 0.0
H975 H 0.77566 0.77288 0.29096 0.0
H976 H 0.85698 0.74957 0.3614 0.0
H977 H 0.90464 0.87236 0.31667 0.0
H978 H 0.86218 0.84751 0.32696 0.0
H979 H 0.87521 0.83927 0.29714 0.0
C980 C 0.77787 0.77256 0.35523 0.0
C981 C 0.76556 0.77234 0.33093 0.0
C982 C 0.80998 0.7773 0.35835 0.0
C983 C 0.83012 0.78158 0.33721 0.0
C984 C 0.81631 0.7777 0.31303 0.0
H985 H 1.0137 0.78552 0.31189 0.0
H986 H 0.95693 0.77014 0.32268 0.0
C987 C 0.78455 0.77333 0.30994 0.0
C988 C 0.86616 0.79252 0.33994 0.0
H989 H 0.94304 0.85293 0.32061 0.0
C990 C 0.87584 0.77232 0.3527 0.0
C991 C 0.89107 0.82269 0.32926 0.0
C992 C 0.88285 0.8469 0.31698 0.0
C993 C 0.90943 0.78061 0.35386 0.0
C994 C 0.93407 0.8096 0.34152 0.0
C995 C 0.92443 0.83055 0.3299 0.0
C996 C 0.96943 0.81767 0.33871 0.0
C997 C 0.91807 0.75818 0.3684 0.0
C998 C 0.99602 0.8496 0.34415 0.0
C999 C 0.0288 0.85864 0.33766 0.0
C1000 C 0.0357 0.83603 0.32537 0.0
C1001 C 1.00932 0.80359 0.32131 0.0
C1002 C 0.9767 0.79463 0.3277 0.0
H1003 H 0.90009 0.74539 0.38396 0.0
H1004 H 0.9169 0.73886 0.35553 0.0
H1005 H 0.94338 0.77209 0.37653 0.0
H1006 H 0.99125 0.86799 0.35253 0.0
H1007 H 0.04838 0.8839 0.34079 0.0
H1008 H 0.16266 0.17469 0.32295 0.0
H1009 H 0.17334 0.12895 0.33094 0.0
H1010 H 0.27853 0.19797 0.33039 0.0
H1011 H 0.26793 0.24349 0.32319 0.0
H1012 H 0.20423 0.10909 0.29912 0.0
H1013 H 0.27302 0.14142 0.38913 0.0
H1014 H 0.25047 0.16135 0.37864 0.0
H1015 H 0.29167 0.17497 0.367 0.0
C1016 C 0.18798 0.18019 0.32549 0.0
C1017 C 0.21442 0.21275 0.32246 0.0
C1018 C 0.19412 0.15399 0.3298 0.0
C1019 C 0.22681 0.15984 0.33145 0.0
C1020 C 0.2531 0.19262 0.32974 0.0
H1021 H 0.28404 0.01468 0.2872 0.0
H1022 H 0.27823 0.06403 0.29055 0.0
C1023 C 0.24699 0.21871 0.32546 0.0
C1024 C 0.23368 0.13171 0.33226 0.0
H1025 H 0.27863 0.10247 0.36281 0.0
C1026 C 0.22027 0.10754 0.31322 0.0
C1027 C 0.25439 0.12928 0.35071 0.0
C1028 C 0.26792 0.15296 0.37267 0.0
C1029 C 0.2275 0.08168 0.31176 0.0
C1030 C 0.24961 0.08025 0.32942 0.0
C1031 C 0.26231 0.10386 0.34889 0.0
C1032 C 0.25847 0.0535 0.3286 0.0
C1033 C 0.21074 0.05574 0.29153 0.0
C1034 C 0.25148 0.03223 0.34934 0.0
C1035 C 0.25558 1.00451 0.34758 0.0
C1036 C 0.26729 0.99762 0.32525 0.0
C1037 C 0.27573 0.01975 0.30488 0.0
C1038 C 0.27191 0.04769 0.30668 0.0
H1039 H 0.18797 0.05503 0.28442 0.0
H1040 H 0.22795 0.06167 0.27533 0.0
H1041 H 0.20392 0.03074 0.29867 0.0
H1042 H 0.2409 0.03589 0.36643 0.0
H1043 H 0.24687 0.98706 0.36295 0.0
H1044 H 0.03398 0.27707 0.2861 0.0
H1045 H 0.98532 0.22103 0.28872 0.0
H1046 H 1.01687 0.2085 0.3623 0.0
H1047 H 0.06599 0.26347 0.3587 0.0
H1048 H 0.98922 0.16298 0.29449 0.0
H1049 H 0.91681 0.17454 0.37317 0.0
H1050 H 0.94767 0.20988 0.35569 0.0
H1051 H 0.96015 0.19101 0.37953 0.0
C1052 C 0.02975 0.26271 0.30318 0.0
C1053 C 0.05224 0.27578 0.32335 0.0
C1054 C 1.00209 0.23065 0.30463 0.0
C1055 C 0.99669 0.21082 0.32611 0.0
C1056 C 1.01946 0.22374 0.34607 0.0
H1057 H 0.88309 0.994 0.33007 0.0
H1058 H 0.92541 0.0522 0.33738 0.0
C1059 C 0.04712 0.25561 0.34445 0.0
C1060 C 0.96943 0.17554 0.32663 0.0
H1061 H 0.90016 0.11987 0.35922 0.0
C1062 C 0.96971 0.15361 0.30861 0.0
C1063 C 0.94392 0.16325 0.34504 0.0
C1064 C 0.94179 0.18586 0.36437 0.0
C1065 C 0.9455 0.11978 0.30863 0.0
C1066 C 0.92035 0.10729 0.32732 0.0
C1067 C 0.91972 0.12929 0.34515 0.0
C1068 C 0.89353 0.07181 0.32744 0.0
C1069 C 0.94668 0.09769 0.28833 0.0
C1070 C 0.86111 0.06332 0.3207 0.0
C1071 C 0.83698 0.03017 0.31659 0.0
C1072 C 0.84462 1.00471 0.31942 0.0
C1073 C 0.87636 1.01299 0.32805 0.0
C1074 C 0.90064 0.04628 0.33195 0.0
H1075 H 0.96381 0.11215 0.27272 0.0
H1076 H 0.95538 0.08156 0.29667 0.0
H1077 H 0.9216 0.08148 0.28034 0.0
H1078 H 0.85497 0.0825 0.31716 0.0
H1079 H 0.81278 0.02454 0.30982 0.0
H1080 H 0.24844 0.82516 0.39015 0.0
H1081 H 0.2279 0.76578 0.38543 0.0
H1082 H 0.22451 0.77508 0.30463 0.0
H1083 H 0.24499 0.83467 0.30937 0.0
H1084 H 0.16829 0.71892 0.32374 0.0
H1085 H 0.28301 0.72602 0.35995 0.0
H1086 H 0.26594 0.7434 0.38136 0.0
H1087 H 0.28104 0.76231 0.35097 0.0
C1088 C 0.24319 0.81448 0.37139 0.0
C1089 C 0.24764 0.83437 0.35019 0.0
C1090 C 0.23162 0.78058 0.36869 0.0
C1091 C 0.22503 0.76592 0.34464 0.0
C1092 C 0.22943 0.78577 0.32337 0.0
H1093 H 0.20121 0.56803 0.32876 0.0
H1094 H 0.21742 0.626 0.32026 0.0
C1095 C 0.241 0.81977 0.32609 0.0
C1096 C 0.21398 0.73002 0.3419 0.0
H1097 H 0.23547 0.672 0.35703 0.0
C1098 C 0.18304 0.7087 0.33089 0.0
C1099 C 0.23352 0.71661 0.35064 0.0
C1100 C 0.26787 0.7383 0.36116 0.0
C1101 C 0.17052 0.67428 0.32946 0.0
C1102 C 0.18931 0.66069 0.33948 0.0
C1103 C 0.22084 0.68222 0.34951 0.0
C1104 C 0.17642 0.62426 0.34089 0.0
C1105 C 0.13732 0.65283 0.31716 0.0
C1106 C 0.14757 0.60363 0.35479 0.0
C1107 C 0.13822 0.57049 0.35945 0.0
C1108 C 0.15745 0.55729 0.35024 0.0
C1109 C 0.18551 0.57742 0.33547 0.0
C1110 C 0.19492 0.6106 0.33084 0.0
H1111 H 0.13115 0.66728 0.30376 0.0
H1112 H 0.13674 0.63181 0.30686 0.0
H1113 H 0.1178 0.64261 0.33195 0.0
H1114 H 0.1333 0.61362 0.36331 0.0
H1115 H 0.11704 0.5557 0.37149 0.0
H1116 H 0.21622 0.42777 0.3971 0.0
H1117 H 0.276 0.46675 0.39569 0.0
H1118 H 0.27257 0.46605 0.31426 0.0
H1119 H 0.21246 0.42812 0.31579 0.0
H1120 H 0.32327 0.45816 0.3779 0.0
H1121 H 0.32778 0.56325 0.32603 0.0
H1122 H 0.28962 0.5295 0.33826 0.0
H1123 H 0.30632 0.52522 0.30873 0.0
C1124 C 0.22827 0.4362 0.37892 0.0
C1125 C 0.20997 0.42415 0.35655 0.0
C1126 C 0.26244 0.45847 0.3781 0.0
C1127 C 0.27907 0.4697 0.35487 0.0
C1128 C 0.26048 0.45845 0.33246 0.0
H1129 H 0.49089 0.54403 0.33853 0.0
H1130 H 0.43039 0.51233 0.33685 0.0
C1131 C 0.22618 0.43629 0.33331 0.0
C1132 C 0.31596 0.49154 0.35429 0.0
H1133 H 0.37929 0.56424 0.33074 0.0
C1134 C 0.33541 0.48137 0.36759 0.0
C1135 C 0.33208 0.52224 0.34127 0.0
C1136 C 0.31287 0.5359 0.32799 0.0
C1137 C 0.37021 0.50047 0.36787 0.0
C1138 C 0.38641 0.53047 0.35399 0.0
C1139 C 0.36702 0.54108 0.3411 0.0
C1140 C 0.42338 0.55108 0.35285 0.0
C1141 C 0.38921 0.48852 0.38353 0.0
C1142 C 0.43992 0.58419 0.36109 0.0
C1143 C 0.47474 0.60263 0.36177 0.0
C1144 C 0.49371 0.58826 0.35429 0.0
C1145 C 0.47705 0.55564 0.34493 0.0
C1146 C 0.44239 0.5374 0.34405 0.0
H1147 H 0.37345 0.47112 0.39858 0.0
H1148 H 0.39784 0.47512 0.37117 0.0
H1149 H 0.4112 0.50953 0.3925 0.0
H1150 H 0.42588 0.59546 0.36778 0.0
H1151 H 0.48676 0.62764 0.36911 0.0
H1152 H 0.44544 0.90239 0.31441 0.0
H1153 H 0.47709 0.8733 0.31107 0.0
H1154 H 0.50367 0.89313 0.38964 0.0
H1155 H 0.47197 0.92172 0.39316 0.0
H1156 H 0.54564 0.90067 0.32038 0.0
H1157 H 0.47218 0.79406 0.38362 0.0
H1158 H 0.45607 0.81902 0.37072 0.0
H1159 H 0.4829 0.8331 0.3978 0.0
C1160 C 0.45754 0.90001 0.33107 0.0
C1161 C 0.45619 0.91448 0.35404 0.0
C1162 C 0.47578 0.88353 0.3291 0.0
C1163 C 0.49254 0.88067 0.35017 0.0
C1164 C 0.49058 0.89448 0.37321 0.0
H1165 H 0.62284 0.8091 0.39427 0.0
H1166 H 0.58593 0.83184 0.38989 0.0
C1167 C 0.47265 0.91112 0.37513 0.0
C1168 C 0.51376 0.86514 0.34797 0.0
H1169 H 0.52702 0.80572 0.37397 0.0
C1170 C 0.54143 0.87966 0.33188 0.0
C1171 C 0.50823 0.83765 0.36287 0.0
C1172 C 0.47805 0.8198 0.37955 0.0
C1173 C 0.56469 0.86874 0.33133 0.0
C1174 C 0.55996 0.84197 0.34699 0.0
C1175 C 0.53132 0.82656 0.36223 0.0
C1176 C 0.58476 0.83037 0.34899 0.0
C1177 C 0.59483 0.88725 0.31482 0.0
C1178 C 0.59731 0.82231 0.32755 0.0
C1179 C 0.61956 0.81038 0.3301 0.0
C1180 C 0.62905 0.80541 0.35415 0.0
C1181 C 0.61631 0.81311 0.37549 0.0
C1182 C 0.59494 0.82588 0.37296 0.0
H1183 H 0.60044 0.91298 0.31103 0.0
H1184 H 0.61668 0.88826 0.32375 0.0
H1185 H 0.59036 0.87436 0.29641 0.0
H1186 H 0.58931 0.8244 0.30882 0.0
H1187 H 0.62828 0.80382 0.31331 0.0
H1188 H 0.72159 0.21778 0.67304 0.0
H1189 H 0.66487 0.20325 0.68471 0.0
H1190 H 0.62817 0.10547 0.65389 0.0
H1191 H 0.68456 0.11939 0.64324 0.0
H1192 H 0.61754 0.19013 0.65247 0.0
H1193 H 0.571 0.08137 0.71498 0.0
H1194 H 0.61453 0.10715 0.70784 0.0
H1195 H 0.58761 0.07454 0.68656 0.0
C1196 C 0.70156 0.19281 0.66965 0.0
C1197 C 0.70768 0.16984 0.65709 0.0
C1198 C 0.66903 0.18457 0.67612 0.0
C1199 C 0.64194 0.1531 0.67038 0.0
C1200 C 0.64837 0.12963 0.65912 0.0
H1201 H 0.45059 0.11391 0.62159 0.0
H1202 H 0.50525 0.11963 0.62732 0.0
C1203 C 0.68076 0.13778 0.65276 0.0
C1204 C 0.60698 0.14608 0.67307 0.0
H1205 H 0.52902 0.08733 0.69222 0.0
C1206 C 0.59839 0.16788 0.66155 0.0
C1207 C 0.58169 0.11725 0.68513 0.0
C1208 C 0.58927 0.09397 0.69955 0.0
C1209 C 0.56538 0.161 0.6607 0.0
C1210 C 0.53981 0.131 0.67108 0.0
C1211 C 0.54844 0.10995 0.68376 0.0
C1212 C 0.50414 0.12112 0.66812 0.0
C1213 C 0.55822 0.18602 0.64854 0.0
C1214 C 0.48408 0.11737 0.68917 0.0
C1215 C 0.45237 0.11347 0.68589 0.0
C1216 C 0.44033 0.11338 0.66152 0.0
C1217 C 0.4593 0.11417 0.6406 0.0
C1218 C 0.4907 0.11776 0.64386 0.0
H1219 H 0.58048 0.21118 0.64844 0.0
H1220 H 0.55065 0.17876 0.62864 0.0
H1221 H 0.53782 0.18719 0.65847 0.0
H1222 H 0.49365 0.11936 0.70811 0.0
H1223 H 0.43826 0.11259 0.70238 0.0
H1224 H 0.94441 0.33073 0.70583 0.0
H1225 H 0.9403 0.38052 0.71334 0.0
H1226 H 0.92959 0.38925 0.63326 0.0
H1227 H 0.93423 0.34014 0.6258 0.0
H1228 H 0.96701 0.44897 0.65408 0.0
H1229 H 0.85195 0.37784 0.71073 0.0
H1230 H 0.88797 0.37784 0.72276 0.0
H1231 H 0.87036 0.35797 0.69319 0.0
C1232 C 0.94176 0.34362 0.68985 0.0
C1233 C 0.9392 0.3312 0.66524 0.0
C1234 C 0.93907 0.37194 0.69416 0.0
C1235 C 0.93357 0.3882 0.67393 0.0
C1236 C 0.93344 0.37709 0.64926 0.0
H1237 H 0.83675 0.5026 0.65523 0.0
H1238 H 0.85066 0.45912 0.66337 0.0
C1239 C 0.9362 0.34899 0.64499 0.0
C1240 C 0.92648 0.41583 0.67794 0.0
H1241 H 0.86952 0.43394 0.70293 0.0
C1242 C 0.94592 0.4458 0.66502 0.0
C1243 C 0.8986 0.4116 0.69188 0.0
C1244 C 0.87578 0.37954 0.70529 0.0
C1245 C 0.93794 0.47119 0.66511 0.0
C1246 C 0.9101 0.46705 0.67908 0.0
C1247 C 0.89099 0.43733 0.69243 0.0
C1248 C 0.89938 0.49242 0.67855 0.0
C1249 C 0.95855 0.50155 0.64913 0.0
C1250 C 0.92123 0.52538 0.68565 0.0
C1251 C 0.91332 0.55019 0.68089 0.0
C1252 C 0.88304 0.54248 0.66951 0.0
C1253 C 0.85999 0.50914 0.66442 0.0
C1254 C 0.86808 0.48434 0.6689 0.0
H1255 H 0.97341 0.49722 0.6348 0.0
H1256 H 0.94267 0.50944 0.63921 0.0
H1257 H 0.97603 0.52215 0.66144 0.0
H1258 H 0.94516 0.53224 0.69372 0.0
H1259 H 0.93167 0.57573 0.68477 0.0
H1260 H 0.72199 0.61621 0.70257 0.0
H1261 H 0.67358 0.56047 0.70779 0.0
H1262 H 0.66749 0.54782 0.62697 0.0
H1263 H 0.7163 0.6027 0.62187 0.0
H1264 H 0.6075 0.52405 0.69019 0.0
H1265 H 0.68306 0.47346 0.65091 0.0
H1266 H 0.70085 0.51618 0.66032 0.0
H1267 H 0.6811 0.50271 0.63003 0.0
C1268 C 0.71001 0.60169 0.68597 0.0
C1269 C 0.72343 0.61355 0.66185 0.0
C1270 C 0.68228 0.56981 0.68894 0.0
C1271 C 0.66751 0.54937 0.6678 0.0
C1272 C 0.679 0.5626 0.64363 0.0
H1273 H 0.48702 0.36795 0.64057 0.0
H1274 H 0.52874 0.42444 0.65141 0.0
C1275 C 0.70673 0.59416 0.64071 0.0
C1276 C 0.64177 0.51362 0.67065 0.0
H1277 H 0.62473 0.43607 0.65326 0.0
C1278 C 0.61136 0.50476 0.68235 0.0
C1279 C 0.64697 0.48817 0.66112 0.0
C1280 C 0.67989 0.49552 0.65014 0.0
C1281 C 0.58552 0.47144 0.6835 0.0
C1282 C 0.58989 0.44627 0.67221 0.0
C1283 C 0.62095 0.45509 0.66172 0.0
C1284 C 0.56224 0.41118 0.66929 0.0
C1285 C 0.55386 0.46367 0.69692 0.0
C1286 C 0.56664 0.3843 0.67573 0.0
C1287 C 0.54278 0.35168 0.66914 0.0
C1288 C 0.5141 0.34525 0.65578 0.0
C1289 C 0.50889 0.37197 0.65073 0.0
C1290 C 0.53269 0.40443 0.65719 0.0
H1291 H 0.55866 0.4819 0.71215 0.0
H1292 H 0.53666 0.46519 0.68324 0.0
H1293 H 0.5415 0.43845 0.70529 0.0
H1294 H 0.58919 0.38868 0.68497 0.0
H1295 H 0.54777 0.33182 0.67311 0.0
H1296 H 0.79806 0.89341 0.72951 0.0
H1297 H 0.82575 0.95355 0.72461 0.0
H1298 H 0.83856 0.94374 0.64508 0.0
H1299 H 0.8105 0.88319 0.64983 0.0
H1300 H 0.89137 0.99848 0.70479 0.0
H1301 H 0.79126 0.99991 0.64859 0.0
H1302 H 0.78433 0.96428 0.66685 0.0
H1303 H 0.80661 0.97358 0.63755 0.0
C1304 C 0.80669 0.90398 0.71093 0.0
C1305 C 0.80177 0.88337 0.69002 0.0
C1306 C 0.82264 0.93842 0.70818 0.0
C1307 C 0.83384 0.95322 0.68442 0.0
C1308 C 0.82972 0.93288 0.66355 0.0
H1309 H 0.91644 0.16523 0.64692 0.0
H1310 H 0.89478 0.1052 0.6433 0.0
C1311 C 0.81395 0.8983 0.66633 0.0
C1312 C 0.84978 0.98993 0.68185 0.0
H1313 H 0.83774 0.05139 0.65834 0.0
C1314 C 0.87969 1.01005 0.69456 0.0
C1315 C 0.83478 1.00512 0.66828 0.0
C1316 C 0.80236 0.98476 0.65462 0.0
C1317 C 0.89472 0.0448 0.6944 0.0
C1318 C 0.87895 0.06002 0.68181 0.0
C1319 C 0.84966 0.03991 0.66829 0.0
C1320 C 0.89153 0.09642 0.68364 0.0
C1321 C 0.9276 0.06482 0.70757 0.0
C1322 C 0.89633 0.11153 0.70741 0.0
C1323 C 0.90873 0.14563 0.70945 0.0
C1324 C 0.91558 0.1654 0.6878 0.0
C1325 C 0.91063 0.15043 0.66393 0.0
C1326 C 0.8984 0.11618 0.66187 0.0
H1327 H 0.94146 0.05118 0.70828 0.0
H1328 H 0.94331 0.08894 0.698 0.0
H1329 H 0.92321 0.06963 0.72731 0.0
H1330 H 0.89042 0.0969 0.7245 0.0
H1331 H 0.91261 0.15656 0.72807 0.0
H1332 H 0.88371 0.76578 0.64673 0.0
H1333 H 0.94247 0.80732 0.64227 0.0
H1334 H 0.95756 0.79504 0.72114 0.0
H1335 H 0.89812 0.75775 0.72614 0.0
H1336 H 0.99171 0.85305 0.71352 0.0
H1337 H 1.01844 0.79949 0.62947 0.0
H1338 H 0.99293 0.8169 0.6217 0.0
H1339 H 0.97729 0.78145 0.64205 0.0
C1340 C 0.89981 0.77196 0.663 0.0
C1341 C 0.88666 0.75779 0.68665 0.0
C1342 C 0.93361 0.79551 0.66042 0.0
C1343 C 0.95544 0.80392 0.6811 0.0
C1344 C 0.94186 0.78938 0.70469 0.0
H1345 H 0.1646 0.87871 0.68399 0.0
H1346 H 0.10445 0.84832 0.67983 0.0
C1347 C 0.90784 0.76755 0.70756 0.0
C1348 C 0.99198 0.82857 0.67901 0.0
H1349 H 0.06272 0.84975 0.64525 0.0
C1350 C 1.00704 0.85188 0.6986 0.0
C1351 C 1.01261 0.82836 0.65923 0.0
C1352 C 0.99951 0.80505 0.63706 0.0
C1353 C 0.04158 0.87311 0.69988 0.0
C1354 C 0.062 0.87218 0.68048 0.0
C1355 C 0.04708 0.85028 0.66023 0.0
C1356 C 0.09897 0.89166 0.68182 0.0
C1357 C 0.05593 0.89525 0.72264 0.0
C1358 C 0.11631 0.9264 0.68376 0.0
C1359 C 0.15093 0.94394 0.68654 0.0
C1360 C 0.169 0.92714 0.68723 0.0
C1361 C 0.15159 0.8925 0.68418 0.0
C1362 C 0.1171 0.87504 0.68155 0.0
H1363 H 0.03787 0.88738 0.73847 0.0
H1364 H 0.07855 0.89541 0.72942 0.0
H1365 H 0.06283 0.92094 0.7174 0.0
H1366 H 0.10306 0.93995 0.6834 0.0
H1367 H 0.16338 0.97055 0.68885 0.0
H1368 H 0.30276 0.14555 0.64779 0.0
H1369 H 0.26648 0.16985 0.64636 0.0
H1370 H 0.25529 0.16037 0.7273 0.0
H1371 H 0.29264 0.13791 0.7288 0.0
H1372 H 0.20245 0.14486 0.65981 0.0
H1373 H 0.2785 0.25428 0.7192 0.0
H1374 H 0.29293 0.22691 0.70904 0.0
H1375 H 0.26677 0.21687 0.73639 0.0
C1376 C 0.29322 0.14956 0.66528 0.0
C1377 C 0.30151 0.141 0.6885 0.0
C1378 C 0.27217 0.16307 0.66445 0.0
C1379 C 0.25858 0.16774 0.6868 0.0
C1380 C 0.26615 0.15814 0.70986 0.0
H1381 H 0.12779 0.2382 0.73465 0.0
H1382 H 0.16162 0.21199 0.72987 0.0
C1383 C 0.28739 0.14508 0.71069 0.0
C1384 C 0.23567 0.18156 0.68621 0.0
H1385 H 0.22211 0.24044 0.71297 0.0
C1386 C 0.2069 0.16597 0.67125 0.0
C1387 C 0.24114 0.20901 0.70122 0.0
C1388 C 0.27168 0.22791 0.71721 0.0
C1389 C 0.18308 0.17623 0.67164 0.0
C1390 C 0.1885 0.20343 0.68694 0.0
C1391 C 0.21762 0.21943 0.70137 0.0
C1392 C 0.16435 0.21559 0.68907 0.0
C1393 C 0.15177 0.15698 0.65645 0.0
C1394 C 0.15382 0.22586 0.66774 0.0
C1395 C 0.13388 0.24042 0.67048 0.0
C1396 C 0.12474 0.24564 0.69462 0.0
C1397 C 0.13461 0.23465 0.71583 0.0
C1398 C 0.15398 0.21968 0.71308 0.0
H1399 H 0.14696 0.13169 0.65193 0.0
H1400 H 0.12996 0.15481 0.66669 0.0
H1401 H 0.15438 0.17004 0.63835 0.0
H1402 H 0.16203 0.22385 0.64904 0.0
H1403 H 0.12694 0.24901 0.65383 0.0
H1404 H 0.17385 0.39914 0.25343 0.0
H1405 H 0.17108 0.42361 0.213 0.0
H1406 H 0.07485 0.40834 0.2333 0.0
H1407 H 0.07747 0.38453 0.27326 0.0
H1408 H 0.12605 0.39917 0.17281 0.0
H1409 H 0.12359 0.50578 0.2158 0.0
H1410 H 0.13477 0.47976 0.23352 0.0
H1411 H 0.09183 0.46728 0.22864 0.0
C1412 C 0.15196 0.40064 0.2492 0.0
C1413 C 0.12585 0.3895 0.26684 0.0
C1414 C 0.15049 0.41488 0.22607 0.0
C1415 C 0.12303 0.41857 0.22019 0.0
C1416 C 0.09673 0.40671 0.2375 0.0
H1417 H 0.02482 0.45517 0.10116 0.0
H1418 H 0.0471 0.44775 0.14083 0.0
C1419 C 0.0982 0.39269 0.26046 0.0
C1420 C 0.12109 0.4343 0.19603 0.0
H1421 H 0.10369 0.49258 0.17301 0.0
C1422 C 0.12186 0.42003 0.17283 0.0
C1423 C 0.11573 0.46169 0.19585 0.0
C1424 C 0.11678 0.47974 0.21978 0.0
C1425 C 0.11546 0.43107 0.1498 0.0
C1426 C 0.10842 0.45732 0.14985 0.0
C1427 C 0.10902 0.47246 0.1729 0.0
C1428 C 0.09693 0.4669 0.12664 0.0
C1429 C 0.11455 0.41348 0.12567 0.0
C1430 C 0.11784 0.48162 0.10563 0.0
C1431 C 0.10519 0.48661 0.08294 0.0
C1432 C 0.07137 0.47662 0.08086 0.0
C1433 C 0.0511 0.46371 0.10235 0.0
C1434 C 0.06376 0.45915 0.12499 0.0
H1435 H 0.11524 0.39036 0.12921 0.0
H1436 H 0.09185 0.40729 0.11477 0.0
H1437 H 0.13623 0.43013 0.1138 0.0
H1438 H 0.14359 0.48802 0.10647 0.0
H1439 H 0.12124 0.49594 0.06657 0.0
H1440 H 0.62571 0.70061 0.28359 0.0
H1441 H 0.60647 0.67537 0.24241 0.0
H1442 H 0.66849 0.76974 0.20663 0.0
H1443 H 0.68859 0.79535 0.24819 0.0
H1444 H 0.5742 0.68705 0.20308 0.0
H1445 H 0.69809 0.70949 0.17302 0.0
H1446 H 0.68898 0.7145 0.20531 0.0
H1447 H 0.69666 0.74581 0.18224 0.0
C1448 C 0.63543 0.71625 0.26707 0.0
C1449 C 0.65913 0.75017 0.26942 0.0
C1450 C 0.62414 0.70166 0.24342 0.0
C1451 C 0.6363 0.7204 0.22129 0.0
C1452 C 0.65909 0.75456 0.22342 0.0
H1453 H 0.61852 0.66646 0.06427 0.0
H1454 H 0.6262 0.6945 0.10424 0.0
C1455 C 0.67037 0.76933 0.24726 0.0
C1456 C 0.62573 0.70354 0.19623 0.0
H1457 H 0.65475 0.6838 0.1436 0.0
C1458 C 0.59182 0.68643 0.19001 0.0
C1459 C 0.64859 0.70231 0.17927 0.0
C1460 C 0.68509 0.71872 0.18528 0.0
C1461 C 0.58031 0.66878 0.16714 0.0
C1462 C 0.60321 0.66762 0.15019 0.0
C1463 C 0.63708 0.68464 0.15651 0.0
C1464 C 0.59328 0.65027 0.12525 0.0
C1465 C 0.54385 0.65218 0.16111 0.0
C1466 C 0.57113 0.61587 0.12321 0.0
C1467 C 0.56593 0.59961 0.09977 0.0
C1468 C 0.58297 0.61752 0.07814 0.0
C1469 C 0.60402 0.65199 0.08026 0.0
C1470 C 0.60889 0.66811 0.10333 0.0
H1471 H 0.531 0.66215 0.17277 0.0
H1472 H 0.53989 0.65531 0.14086 0.0
H1473 H 0.53222 0.62528 0.16505 0.0
H1474 H 0.5593 0.60131 0.13991 0.0
H1475 H 0.5505 0.57293 0.09896 0.0
H1476 H 0.46145 0.02368 0.09991 0.0
H1477 H 0.42738 1.00081 0.13766 0.0
H1478 H 0.37607 0.90466 0.10251 0.0
H1479 H 0.41044 0.92777 0.06432 0.0
H1480 H 0.35712 0.97185 0.13635 0.0
H1481 H 0.39548 0.88549 0.1757 0.0
H1482 H 0.42135 0.91835 0.15405 0.0
H1483 H 0.38534 0.88196 0.14263 0.0
C1484 C 0.44359 0.99742 0.10046 0.0
C1485 C 0.43875 0.97754 0.07914 0.0
C1486 C 0.42391 0.98441 0.12202 0.0
C1487 C 0.39895 0.95103 0.123 0.0
C1488 C 0.39534 0.93044 0.10235 0.0
H1489 H 0.24591 0.8942 0.24383 0.0
H1490 H 0.26996 0.89754 0.20176 0.0
C1491 C 0.4152 0.94358 0.0806 0.0
C1492 C 0.3757 0.93905 0.14504 0.0
H1493 H 0.3551 0.89119 0.1983 0.0
C1494 C 0.3563 0.95384 0.14973 0.0
C1495 C 0.37468 0.91565 0.16255 0.0
C1496 C 0.39539 0.89945 0.15873 0.0
C1497 C 0.33689 0.94678 0.17176 0.0
C1498 C 0.3365 0.924 0.18964 0.0
C1499 C 0.3551 0.90841 0.18455 0.0
C1500 C 0.32054 0.91932 0.21503 0.0
C1501 C 0.31834 0.96508 0.17639 0.0
C1502 C 0.34061 0.92957 0.23659 0.0
C1503 C 0.32699 0.9277 0.26047 0.0
C1504 C 0.29271 0.91528 0.26371 0.0
C1505 C 0.2723 0.90389 0.2422 0.0
C1506 C 0.28611 0.90602 0.21806 0.0
H1507 H 0.32525 0.98552 0.16263 0.0
H1508 H 0.29132 0.94758 0.1747 0.0
H1509 H 0.3232 0.97556 0.19576 0.0
H1510 H 0.36716 0.93984 0.23489 0.0
H1511 H 0.34366 0.93635 0.27646 0.0
H1512 H 0.45284 1.01116 0.9127 0.0
H1513 H 0.44817 0.03404 0.87214 0.0
H1514 H 0.49714 0.13213 0.90445 0.0
H1515 H 0.49992 0.10884 0.9452 0.0
H1516 H 0.44682 0.12488 0.88144 0.0
H1517 H 0.50771 0.08091 0.81502 0.0
H1518 H 0.47476 0.04675 0.83154 0.0
H1519 H 0.51026 0.07747 0.84876 0.0
C1520 C 0.46331 0.03768 0.91083 0.0
C1521 C 0.47719 0.05835 0.93187 0.0
C1522 C 0.4608 0.05086 0.88759 0.0
C1523 C 0.4728 0.0851 0.88481 0.0
C1524 C 0.48771 0.10573 0.90583 0.0
H1525 H 0.46276 0.16197 0.73365 0.0
H1526 H 0.48567 0.15512 0.77367 0.0
C1527 C 0.48956 0.09248 0.9291 0.0
C1528 C 0.46711 0.09908 0.86099 0.0
H1529 H 0.4715 0.09813 0.79644 0.0
C1530 C 0.45276 0.11933 0.86293 0.0
C1531 C 0.47522 0.09262 0.8366 0.0
C1532 C 0.49318 0.07356 0.83286 0.0
C1533 C 0.44527 0.13212 0.84146 0.0
C1534 C 0.45109 0.12362 0.81706 0.0
C1535 C 0.46664 0.10449 0.81504 0.0
C1536 C 0.43874 0.13193 0.79363 0.0
C1537 C 0.43123 0.15477 0.8453 0.0
C1538 C 0.405 0.12201 0.79153 0.0
C1539 C 0.3922 0.12652 0.76902 0.0
C1540 C 0.41252 0.14047 0.74768 0.0
C1541 C 0.44661 0.1518 0.74991 0.0
C1542 C 0.45958 0.1474 0.77267 0.0
H1543 H 0.44002 0.16862 0.86334 0.0
H1544 H 0.43816 0.17287 0.82962 0.0
H1545 H 0.4038 0.13972 0.84633 0.0
H1546 H 0.38806 0.10925 0.80696 0.0
H1547 H 0.36579 0.11728 0.76785 0.0
H1548 H 0.98331 0.45762 0.92113 0.0
H1549 H 0.95967 0.43056 0.88041 0.0
H1550 H 0.98572 0.35604 0.89706 0.0
H1551 H 1.0092 0.38258 0.93721 0.0
H1552 H 0.98738 0.41262 0.83803 0.0
H1553 H 0.88539 0.30167 0.88387 0.0
H1554 H 0.90995 0.3402 0.90051 0.0
H1555 H 0.92542 0.31211 0.89596 0.0
C1556 C 0.98447 0.4358 0.91593 0.0
C1557 C 0.99814 0.42235 0.93266 0.0
C1558 C 0.97074 0.4202 0.89269 0.0
C1559 C 0.97021 0.39076 0.88584 0.0
C1560 C 0.98504 0.37821 0.90208 0.0
H1561 H 0.93142 0.25119 0.77098 0.0
H1562 H 0.93918 0.28287 0.80954 0.0
C1563 C 0.99864 0.39362 0.92511 0.0
C1564 C 0.95401 0.37245 0.86207 0.0
H1565 H 0.89689 0.2954 0.84067 0.0
C1566 C 0.96714 0.38722 0.83855 0.0
C1567 C 0.92747 0.33927 0.86263 0.0
C1568 C 0.91098 0.32245 0.88709 0.0
C1569 C 0.95586 0.36908 0.81583 0.0
C1570 C 0.93043 0.33539 0.81658 0.0
C1571 C 0.91633 0.32116 0.84 0.0
C1572 C 0.92096 0.31353 0.79382 0.0
C1573 C 0.97245 0.38555 0.79131 0.0
C1574 C 0.90657 0.31899 0.7723 0.0
C1575 C 0.90155 0.30031 0.75016 0.0
C1576 C 0.91119 0.27617 0.74915 0.0
C1577 C 0.92352 0.26943 0.77122 0.0
C1578 C 0.92818 0.28772 0.79327 0.0
H1579 H 0.99564 0.40949 0.79439 0.0
H1580 H 0.97837 0.36913 0.78003 0.0
H1581 H 0.95525 0.39038 0.78003 0.0
H1582 H 0.90037 0.33847 0.77231 0.0
H1583 H 0.89244 0.30641 0.73338 0.0
H1584 H 0.79712 0.68787 0.76964 0.0
H1585 H 0.76317 0.66507 0.80741 0.0
H1586 H 0.70977 0.56952 0.77154 0.0
H1587 H 0.74423 0.59248 0.73341 0.0
H1588 H 0.69284 0.63811 0.80371 0.0
H1589 H 0.72505 0.5484 0.84578 0.0
H1590 H 0.75318 0.58139 0.82507 0.0
H1591 H 0.71719 0.54619 0.81234 0.0
C1592 C 0.77891 0.6617 0.77007 0.0
C1593 C 0.77328 0.64203 0.7485 0.0
C1594 C 0.75934 0.64873 0.79165 0.0
C1595 C 0.73371 0.61562 0.79236 0.0
C1596 C 0.72956 0.59509 0.77156 0.0
H1597 H 0.5936 0.5333 0.92235 0.0
H1598 H 0.61724 0.5367 0.88 0.0
C1599 C 0.7494 0.60817 0.74981 0.0
C1600 C 0.70973 0.60433 0.81386 0.0
H1601 H 0.68602 0.55719 0.86761 0.0
C1602 C 0.69107 0.6201 0.81751 0.0
C1603 C 0.70706 0.58057 0.83174 0.0
C1604 C 0.72671 0.56313 0.82879 0.0
C1605 C 0.67093 0.61378 0.83894 0.0
C1606 C 0.66968 0.59145 0.8576 0.0
C1607 C 0.68696 0.57433 0.85336 0.0
C1608 C 0.65391 0.58875 0.88274 0.0
C1609 C 0.65167 0.6317 0.84166 0.0
C1610 C 0.66657 0.61671 0.89836 0.0
C1611 C 0.65321 0.61483 0.92234 0.0
C1612 C 0.62671 0.5849 0.93151 0.0
C1613 C 0.61361 0.55684 0.91576 0.0
C1614 C 0.6273 0.5587 0.89164 0.0
H1615 H 0.64682 0.63931 0.823 0.0
H1616 H 0.62764 0.61601 0.8514 0.0
H1617 H 0.66635 0.65444 0.85304 0.0
H1618 H 0.68736 0.64004 0.89218 0.0
H1619 H 0.66406 0.63699 0.93383 0.0
H1620 H 0.79065 0.82213 0.4011 0.0
H1621 H 0.81473 0.81291 0.43961 0.0
H1622 H 0.71892 0.76799 0.47563 0.0
H1623 H 0.69506 0.77715 0.43764 0.0
H1624 H 0.81113 0.82707 0.49695 0.0
H1625 H 0.74767 0.69471 0.46969 0.0
H1626 H 0.75458 0.72718 0.44768 0.0
H1627 H 0.72116 0.71237 0.47015 0.0
C1628 C 0.77507 0.81142 0.41757 0.0
C1629 C 0.74089 0.80017 0.41627 0.0
C1630 C 0.78878 0.8059 0.43951 0.0
C1631 C 0.7685 0.78925 0.4604 0.0
C1632 C 0.73501 0.78054 0.45971 0.0
H1633 H 0.75007 0.70603 0.60407 0.0
H1634 H 0.74779 0.72738 0.56259 0.0
C1635 C 0.72142 0.78591 0.43797 0.0
C1636 C 0.78077 0.77796 0.48213 0.0
H1637 H 0.76582 0.70711 0.51262 0.0
C1638 C 0.8019 0.80093 0.50014 0.0
C1639 C 0.76884 0.74383 0.48631 0.0
C1640 C 0.74706 0.71806 0.46731 0.0
C1641 C 0.80968 0.7904 0.52285 0.0
C1642 C 0.79608 0.75613 0.52758 0.0
C1643 C 0.77631 0.73337 0.50902 0.0
C1644 C 0.79858 0.74316 0.55275 0.0
C1645 C 0.83088 0.81574 0.54231 0.0
C1646 C 0.82785 0.74433 0.56099 0.0
C1647 C 0.8292 0.73169 0.58486 0.0
C1648 C 0.80134 0.71791 0.60093 0.0
C1649 C 0.77208 0.71653 0.59234 0.0
C1650 C 0.77069 0.72878 0.56856 0.0
H1651 H 0.8387 0.84141 0.5362 0.0
H1652 H 0.81701 0.81063 0.56038 0.0
H1653 H 0.85335 0.81392 0.546 0.0
H1654 H 0.84964 0.7551 0.54901 0.0
H1655 H 0.85222 0.73353 0.59097 0.0
H1656 H 0.28573 1.00228 0.39634 0.0
H1657 H 0.29467 0.03001 0.43684 0.0
H1658 H 0.22456 0.93742 0.4716 0.0
H1659 H 0.21512 0.90929 0.43041 0.0
H1660 H 0.25165 0.0353 0.47442 0.0
H1661 H 0.31555 0.96879 0.50804 0.0
H1662 H 0.30642 0.9704 0.47514 0.0
H1663 H 0.27403 0.94342 0.49637 0.0
C1664 C 0.27101 0.98796 0.41232 0.0
C1665 C 0.24891 0.95369 0.40993 0.0
C1666 C 0.27645 1.00389 0.4356 0.0
C1667 C 0.26048 0.98591 0.45738 0.0
C1668 C 0.23725 0.95184 0.45504 0.0
H1669 H 0.30119 0.03746 0.61561 0.0
H1670 H 0.2797 1.01136 0.57507 0.0
C1671 C 0.23149 0.93582 0.43146 0.0
C1672 C 0.27059 1.00265 0.48251 0.0
H1673 H 0.3132 1.00657 0.53613 0.0
C1674 C 0.2649 0.02888 0.48803 0.0
C1675 C 0.28843 0.99474 0.50009 0.0
C1676 C 0.29681 0.96801 0.49469 0.0
C1677 C 0.27588 0.04686 0.51082 0.0
C1678 C 0.29379 0.03897 0.52842 0.0
C1679 C 0.29951 1.01276 0.52278 0.0
C1680 C 0.30579 0.05644 0.55325 0.0
C1681 C 0.26758 0.07366 0.51604 0.0
C1682 C 0.3276 0.09091 0.55492 0.0
C1683 C 0.34001 0.10624 0.57848 0.0
C1684 C 0.33125 0.08735 0.60081 0.0
C1685 C 0.30898 0.053 0.59895 0.0
C1686 C 0.29651 0.03787 0.57563 0.0
H1687 H 0.24664 0.07077 0.50418 0.0
H1688 H 0.26103 0.07363 0.53621 0.0
H1689 H 0.28949 0.09811 0.51165 0.0
H1690 H 0.33578 0.10587 0.53796 0.0
H1691 H 0.35724 0.13256 0.579 0.0
H1692 H 1.01836 0.29336 0.61412 0.0
H1693 H 0.04426 0.30011 0.57329 0.0
H1694 H 0.95084 0.22714 0.54151 0.0
H1695 H 0.92435 0.21928 0.58314 0.0
H1696 H 1.00346 0.21966 0.52476 0.0
H1697 H 0.03707 0.35067 0.51433 0.0
H1698 H 0.0523 0.34367 0.54339 0.0
H1699 H 1.00828 0.324 0.53809 0.0
C1700 C 1.00289 0.27862 0.59862 0.0
C1701 C 0.96879 0.25601 0.60219 0.0
C1702 C 1.01795 0.28277 0.57505 0.0
C1703 C 0.99951 0.26486 0.55399 0.0
C1704 C 0.96562 0.24162 0.55738 0.0
H1705 H 0.05713 0.27367 0.39645 0.0
H1706 H 0.02923 0.25529 0.4367 0.0
C1707 C 0.95039 0.23726 0.58122 0.0
C1708 C 1.01624 0.27059 0.5288 0.0
H1709 H 0.06557 0.33208 0.48734 0.0
C1710 C 1.01671 0.24416 0.51642 0.0
C1711 C 0.03366 0.30257 0.51776 0.0
C1712 C 0.03255 0.33176 0.52895 0.0
C1713 C 0.03492 0.24906 0.49391 0.0
C1714 C 0.05305 0.28124 0.48331 0.0
C1715 C 0.05215 0.3075 0.49552 0.0
C1716 C 0.07198 0.28824 0.45904 0.0
C1717 C 0.03531 0.21987 0.48206 0.0
C1718 C 0.10567 0.31282 0.45774 0.0
C1719 C 0.1221 0.32286 0.43436 0.0
C1720 C 0.10532 0.30847 0.41172 0.0
C1721 C 0.07187 0.28336 0.41321 0.0
C1722 C 0.0555 0.2732 0.43651 0.0
H1723 H 0.02842 0.19951 0.49588 0.0
H1724 H 1.01704 0.21011 0.46644 0.0
H1725 H 0.06012 0.2272 0.47413 0.0
H1726 H 0.1189 0.32528 0.47475 0.0
H1727 H 0.14738 0.34331 0.43384 0.0
loop_
_geom_bond_atom_site_label_1
_geom_bond_atom_site_label_2
_geom_bond_distance
_geom_bond_site_symmetry_2
_ccdc_geom_bond_type
Eu0 N31 2.657 1_556 S
Eu0 N38 2.609 . S
Eu0 O44 2.558 . S
Eu0 O45 2.612 1_556 S
Eu0 O47 2.339 1_556 S
Eu0 O48 2.563 . S
Eu0 O49 2.419 1_556 S
Eu0 O51 2.380 1_456 S
Eu0 O52 2.432 . S
Eu0 C64 2.848 . S
C1 C4 1.429 . S
C1 C5 1.411 . S
C1 N8 1.377 . S
C2 C4 1.420 1_556 S
C2 C6 1.423 1_556 S
C2 C14 1.392 . S
C3 C5 1.420 . S
C3 C6 1.351 . S
C3 H26 0.931 . S
C4 C1 1.429 . S
C4 C2 1.420 1_554 S
C4 N12 1.362 1_554 S
C5 C1 1.411 . S
C5 C3 1.420 . S
C5 C10 1.395 . S
C6 C2 1.423 1_554 S
C6 C3 1.351 . S
C6 H18 0.930 . S
C7 C9 1.400 1_455 S
C7 C10 1.386 . S
C7 H19 0.930 1_455 S
N8 C1 1.377 . S
N8 C9 1.321 1_455 S
N8 Eu11 2.609 1_455 S
C9 C7 1.400 1_655 S
C9 N8 1.321 1_655 S
C9 H16 0.930 . S
C10 C5 1.395 . S
C10 C7 1.386 . S
C10 H29 0.930 . S
Eu11 N8 2.609 1_655 S
Eu11 N12 2.657 1_654 S
Eu11 O45 2.380 1_655 S
Eu11 O46 2.432 1_655 S
Eu11 O50 2.558 . S
Eu11 O51 2.612 . S
Eu11 O53 2.339 1_554 S
Eu11 O54 2.563 . S
Eu11 O55 2.419 1_554 S
Eu11 C75 2.848 . S
N12 C4 1.362 1_556 S
N12 Eu11 2.657 1_456 S
N12 C13 1.334 . S
C13 N12 1.334 . S
C13 C15 1.413 . S
C13 H20 0.929 . S
C14 C2 1.392 . S
C14 C15 1.367 . S
C14 H22 0.930 . S
C15 C13 1.413 . S
C15 C14 1.367 . S
C15 H17 0.930 . S
H16 C9 0.930 . S
H17 C15 0.930 . S
H18 C6 0.930 . S
H19 C7 0.930 1_655 S
H20 C13 0.929 . S
H21 C35 0.930 . S
H22 C14 0.930 . S
H23 C41 0.930 . S
H24 C32 0.929 1_455 S
H25 C39 0.930 . S
H26 C3 0.931 . S
H27 C33 0.930 . S
H28 C66 0.928 . S
H29 C10 0.930 . S
H30 C65 0.931 . S
N31 Eu0 2.657 1_554 S
N31 C32 1.334 1_455 S
N31 C36 1.357 1_454 S
C32 H24 0.929 1_655 S
C32 N31 1.334 1_655 S
C32 C35 1.413 . S
C33 H27 0.930 . S
C33 C34 1.392 . S
C33 C35 1.367 . S
C34 C33 1.392 . S
C34 C36 1.417 1_554 S
C34 C66 1.423 1_554 S
C35 H21 0.930 . S
C35 C32 1.413 . S
C35 C33 1.367 . S
C36 N31 1.357 1_656 S
C36 C34 1.417 1_556 S
C36 C40 1.436 1_655 S
H37 C42 0.930 1_655 S
N38 Eu0 2.609 . S
N38 C40 1.377 . S
N38 C41 1.321 . S
C39 H25 0.930 . S
C39 C41 1.400 . S
C39 C42 1.386 . S
C40 C36 1.436 1_455 S
C40 N38 1.377 . S
C40 C43 1.411 1_455 S
C41 H23 0.930 . S
C41 N38 1.321 . S
C41 C39 1.400 . S
C42 H37 0.930 1_455 S
C42 C39 1.386 . S
C42 C43 1.395 1_455 S
C43 C40 1.411 1_655 S
C43 C42 1.395 1_655 S
C43 C65 1.420 . S
O44 Eu0 2.558 . S
O44 C64 1.257 . S
O45 Eu0 2.612 1_554 S
O45 Eu11 2.380 1_455 S
O45 C56 1.267 1_554 S
O46 Eu11 2.432 1_455 S
O46 C63 1.264 . S
O47 Eu0 2.339 1_554 S
O47 C63 1.254 . S
O48 Eu0 2.563 . S
O48 C56 1.252 . S
O49 Eu0 2.419 1_554 S
O49 C64 1.249 1_554 S
O50 Eu11 2.558 . S
O50 C75 1.257 . S
O51 Eu0 2.380 1_654 S
O51 Eu11 2.612 . S
O51 C67 1.276 . S
O52 Eu0 2.432 . S
O52 C74 1.264 1_455 S
O53 Eu11 2.339 1_556 S
O53 C74 1.254 . S
O54 Eu11 2.563 . S
O54 C67 1.235 . S
O55 Eu11 2.419 1_556 S
O55 C75 1.249 1_556 S
C56 O45 1.267 1_556 S
C56 O48 1.252 . S
C57 C59 1.393 1_556 S
C57 C61 1.395 . S
C57 C64 1.492 . S
C58 C59 1.392 . S
C58 C60 1.386 1_554 S
C59 C57 1.393 1_554 S
C59 C58 1.392 . S
C59 H76 0.930 . S
C60 C58 1.386 1_556 S
C60 C62 1.395 . S
C60 H77 0.930 . S
C61 C57 1.395 . S
C61 C62 1.379 . S
C61 H78 0.930 . S
C62 C60 1.395 . S
C62 C61 1.379 . S
C62 H79 0.930 . S
C63 O46 1.264 . S
C63 O47 1.254 . S
C64 Eu0 2.848 . S
C64 O44 1.257 . S
C64 O49 1.249 1_556 S
C64 C57 1.492 . S
C65 H30 0.931 . S
C65 C43 1.420 . S
C65 C66 1.351 . S
C66 H28 0.928 . S
C66 C34 1.423 1_556 S
C66 C65 1.351 . S
C67 O51 1.276 . S
C67 O54 1.235 . S
C68 C69 1.393 1_554 S
C68 C72 1.395 . S
C68 C75 1.492 . S
C69 C68 1.393 1_556 S
C69 C70 1.394 . S
C69 H80 0.930 . S
C70 C69 1.394 . S
C70 C71 1.359 1_556 S
C71 C70 1.359 1_554 S
C71 C73 1.395 . S
C71 H81 0.930 . S
C72 C68 1.395 . S
C72 C73 1.379 . S
C72 H82 0.930 . S
C73 C71 1.395 . S
C73 C72 1.379 . S
C73 H83 0.930 . S
C74 O52 1.264 1_655 S
C74 O53 1.254 . S
C75 Eu11 2.848 . S
C75 O50 1.257 . S
C75 O55 1.249 1_554 S
C75 C68 1.492 . S
H76 C59 0.930 . S
H77 C60 0.930 . S
H78 C61 0.930 . S
H79 C62 0.930 . S
H80 C69 0.930 . S
H81 C71 0.930 . S
H82 C72 0.930 . S
H83 C73 0.930 . S
Eu84 N115 2.657 1_556 S
Eu84 N122 2.609 . S
Eu84 O128 2.558 . S
Eu84 O129 2.612 1_556 S
Eu84 O131 2.339 1_556 S
Eu84 O132 2.563 . S
Eu84 O133 2.419 1_556 S
Eu84 O135 2.380 1_556 S
Eu84 O136 2.432 . S
Eu84 C148 2.848 . S
C85 C88 1.429 . S
C85 C89 1.411 . S
C85 N92 1.377 . S
C86 C88 1.420 1_556 S
C86 C90 1.423 1_556 S
C86 C98 1.392 . S
C87 C89 1.420 . S
C87 C90 1.351 . S
C87 H110 0.931 . S
C88 C85 1.429 . S
C88 C86 1.420 1_554 S
C88 N96 1.362 1_554 S
C89 C85 1.411 . S
C89 C87 1.420 . S
C89 C94 1.395 . S
C90 C86 1.423 1_554 S
C90 C87 1.351 . S
C90 H102 0.930 . S
C91 C93 1.400 . S
C91 C94 1.386 . S
C91 H103 0.930 . S
N92 C85 1.377 . S
N92 C93 1.321 . S
N92 Eu95 2.609 . S
C93 C91 1.400 . S
C93 N92 1.321 . S
C93 H100 0.930 . S
C94 C89 1.395 . S
C94 C91 1.386 . S
C94 H113 0.930 . S
Eu95 N92 2.609 . S
Eu95 N96 2.657 1_554 S
Eu95 O129 2.380 . S
Eu95 O130 2.432 . S
Eu95 O134 2.558 . S
Eu95 O135 2.612 . S
Eu95 O137 2.339 1_554 S
Eu95 O138 2.563 . S
Eu95 O139 2.419 1_554 S
Eu95 C159 2.848 . S
N96 C88 1.362 1_556 S
N96 Eu95 2.657 1_556 S
N96 C97 1.334 . S
C97 N96 1.334 . S
C97 C99 1.413 . S
C97 H104 0.929 . S
C98 C86 1.392 . S
C98 C99 1.367 . S
C98 H106 0.930 . S
C99 C97 1.413 . S
C99 C98 1.367 . S
C99 H101 0.930 . S
H100 C93 0.930 . S
H101 C99 0.930 . S
H102 C90 0.930 . S
H103 C91 0.930 . S
H104 C97 0.929 . S
H105 C119 0.930 . S
H106 C98 0.930 . S
H107 C125 0.930 . S
H108 C116 0.929 . S
H109 C123 0.930 . S
H110 C87 0.931 . S
H111 C117 0.930 . S
H112 C150 0.932 1_554 S
H113 C94 0.930 . S
H114 C149 0.931 . S
N115 Eu84 2.657 1_554 S
N115 C116 1.334 . S
N115 C120 1.358 1_554 S
C116 H108 0.929 . S
C116 N115 1.334 . S
C116 C119 1.413 . S
C117 H111 0.930 . S
C117 C118 1.392 . S
C117 C119 1.367 . S
C118 C117 1.392 . S
C118 C120 1.417 1_554 S
C118 C150 1.423 1_554 S
C119 H105 0.930 . S
C119 C116 1.413 . S
C119 C117 1.367 . S
C120 N115 1.358 1_556 S
C120 C118 1.417 1_556 S
C120 C124 1.436 . S
H121 C126 0.930 . S
N122 Eu84 2.609 . S
N122 C124 1.377 . S
N122 C125 1.321 . S
C123 H109 0.930 . S
C123 C125 1.400 . S
C123 C126 1.386 . S
C124 C120 1.436 . S
C124 N122 1.377 . S
C124 C127 1.411 . S
C125 H107 0.930 . S
C125 N122 1.321 . S
C125 C123 1.400 . S
C126 H121 0.930 . S
C126 C123 1.386 . S
C126 C127 1.395 . S
C127 C124 1.411 . S
C127 C126 1.395 . S
C127 C149 1.420 . S
O128 Eu84 2.558 . S
O128 C148 1.257 . S
O129 Eu84 2.612 1_554 S
O129 Eu95 2.380 . S
O129 C140 1.267 1_554 S
O130 Eu95 2.432 . S
O130 C147 1.264 . S
O131 Eu84 2.339 1_554 S
O131 C147 1.254 . S
O132 Eu84 2.563 . S
O132 C140 1.252 . S
O133 Eu84 2.419 1_554 S
O133 C148 1.249 1_554 S
O134 Eu95 2.558 . S
O134 C159 1.257 . S
O135 Eu84 2.380 1_554 S
O135 Eu95 2.612 . S
O135 C151 1.276 . S
O136 Eu84 2.432 . S
O136 C158 1.264 . S
O137 Eu95 2.339 1_556 S
O137 C158 1.254 . S
O138 Eu95 2.563 . S
O138 C151 1.235 . S
O139 Eu95 2.419 1_556 S
O139 C159 1.249 1_556 S
C140 O129 1.267 1_556 S
C140 O132 1.252 . S
C141 C143 1.393 1_556 S
C141 C145 1.395 . S
C141 C148 1.492 . S
C142 C143 1.392 . S
C142 C144 1.386 1_554 S
C143 C141 1.393 1_554 S
C143 C142 1.392 . S
C143 H160 0.930 . S
C144 C142 1.386 1_556 S
C144 C146 1.395 . S
C144 H161 0.930 . S
C145 C141 1.395 . S
C145 C146 1.379 . S
C145 H162 0.930 . S
C146 C144 1.395 . S
C146 C145 1.379 . S
C146 H163 0.930 . S
C147 O130 1.264 . S
C147 O131 1.254 . S
C148 Eu84 2.848 . S
C148 O128 1.257 . S
C148 O133 1.249 1_556 S
C148 C141 1.492 . S
C149 H114 0.931 . S
C149 C127 1.420 . S
C149 C150 1.351 . S
C150 H112 0.932 1_556 S
C150 C118 1.423 1_556 S
C150 C149 1.351 . S
C151 O135 1.276 . S
C151 O138 1.235 . S
C152 C153 1.393 1_554 S
C152 C156 1.395 . S
C152 C159 1.492 . S
C153 C152 1.393 1_556 S
C153 C154 1.394 . S
C153 H164 0.930 . S
C154 C153 1.394 . S
C154 C155 1.359 1_556 S
C155 C154 1.359 1_554 S
C155 C157 1.395 . S
C155 H165 0.930 . S
C156 C152 1.395 . S
C156 C157 1.379 . S
C156 H166 0.930 . S
C157 C155 1.395 . S
C157 C156 1.379 . S
C157 H167 0.930 . S
C158 O136 1.264 . S
C158 O137 1.254 . S
C159 Eu95 2.848 . S
C159 O134 1.257 . S
C159 O139 1.249 1_554 S
C159 C152 1.492 . S
H160 C143 0.930 . S
H161 C144 0.930 . S
H162 C145 0.930 . S
H163 C146 0.930 . S
H164 C153 0.930 . S
H165 C155 0.930 . S
H166 C156 0.930 . S
H167 C157 0.930 . S
Eu168 N199 2.657 1_566 S
Eu168 N206 2.611 1_565 S
Eu168 O212 2.558 . S
Eu168 O213 2.612 1_556 S
Eu168 O215 2.339 1_556 S
Eu168 O216 2.563 . S
Eu168 O217 2.419 1_556 S
Eu168 O219 2.380 1_566 S
Eu168 O220 2.432 1_565 S
Eu168 C232 2.848 . S
C169 C172 1.425 1_545 S
C169 C173 1.417 1_545 S
C169 N176 1.375 . S
C170 C172 1.420 1_556 S
C170 C174 1.423 1_556 S
C170 C182 1.392 . S
C171 C173 1.420 . S
C171 C174 1.351 . S
C171 H194 0.931 . S
C172 C169 1.425 1_565 S
C172 C170 1.420 1_554 S
C172 N180 1.362 1_564 S
C173 C169 1.417 1_565 S
C173 C171 1.420 . S
C173 C178 1.388 1_565 S
C174 C170 1.423 1_554 S
C174 C171 1.351 . S
C174 H186 0.930 . S
C175 C177 1.400 . S
C175 C178 1.382 . S
C175 H187 0.930 . S
N176 C169 1.375 . S
N176 C177 1.321 . S
N176 Eu179 2.609 . S
C177 C175 1.400 . S
C177 N176 1.321 . S
C177 H184 0.930 . S
C178 C173 1.388 1_545 S
C178 C175 1.382 . S
C178 H197 0.942 1_545 S
Eu179 N176 2.609 . S
Eu179 N180 2.657 1_554 S
Eu179 O213 2.380 1_545 S
Eu179 O214 2.432 . S
Eu179 O218 2.558 . S
Eu179 O219 2.612 . S
Eu179 O221 2.339 1_554 S
Eu179 O222 2.563 . S
Eu179 O223 2.419 1_554 S
Eu179 C243 2.848 . S
N180 C172 1.362 1_546 S
N180 Eu179 2.657 1_556 S
N180 C181 1.334 1_545 S
C181 N180 1.334 1_565 S
C181 C183 1.413 . S
C181 H188 0.929 1_565 S
C182 C170 1.392 . S
C182 C183 1.367 . S
C182 H190 0.930 . S
C183 C181 1.413 . S
C183 C182 1.367 . S
C183 H185 0.930 . S
H184 C177 0.930 . S
H185 C183 0.930 . S
H186 C174 0.930 . S
H187 C175 0.930 . S
H188 C181 0.929 1_545 S
H189 C203 0.930 . S
H190 C182 0.930 . S
H191 C209 0.930 . S
H192 C200 0.929 . S
H193 C207 0.929 . S
H194 C171 0.931 . S
H195 C201 0.930 . S
H196 C234 0.928 . S
H197 C178 0.942 1_565 S
H198 C233 0.931 . S
N199 Eu168 2.657 1_544 S
N199 C200 1.334 . S
N199 C204 1.357 1_554 S
C200 H192 0.929 . S
C200 N199 1.334 . S
C200 C203 1.413 . S
C201 H195 0.930 . S
C201 C202 1.392 . S
C201 C203 1.367 . S
C202 C201 1.392 . S
C202 C204 1.417 1_554 S
C202 C234 1.423 1_554 S
C203 H189 0.930 . S
C203 C200 1.413 . S
C203 C201 1.367 . S
C204 N199 1.357 1_556 S
C204 C202 1.417 1_556 S
C204 C208 1.437 . S
H205 C210 0.930 . S
N206 Eu168 2.611 1_545 S
N206 C208 1.375 . S
N206 C209 1.319 1_545 S
C207 H193 0.929 . S
C207 C209 1.400 . S
C207 C210 1.386 1_565 S
C208 C204 1.437 . S
C208 N206 1.375 . S
C208 C211 1.411 . S
C209 H191 0.930 . S
C209 N206 1.319 1_565 S
C209 C207 1.400 . S
C210 H205 0.930 . S
C210 C207 1.386 1_545 S
C210 C211 1.395 . S
C211 C208 1.411 . S
C211 C210 1.395 . S
C211 C233 1.420 . S
O212 Eu168 2.558 . S
O212 C232 1.257 . S
O213 Eu168 2.612 1_554 S
O213 Eu179 2.380 1_565 S
O213 C224 1.267 1_554 S
O214 Eu179 2.432 . S
O214 C231 1.264 1_545 S
O215 Eu168 2.339 1_554 S
O215 C231 1.254 . S
O216 Eu168 2.563 . S
O216 C224 1.252 . S
O217 Eu168 2.419 1_554 S
O217 C232 1.249 1_554 S
O218 Eu179 2.558 . S
O218 C243 1.257 . S
O219 Eu168 2.380 1_544 S
O219 Eu179 2.612 . S
O219 C235 1.276 . S
O220 Eu168 2.432 1_545 S
O220 C242 1.264 . S
O221 Eu179 2.339 1_556 S
O221 C242 1.254 . S
O222 Eu179 2.563 . S
O222 C235 1.235 . S
O223 Eu179 2.419 1_556 S
O223 C243 1.249 1_556 S
C224 O213 1.267 1_556 S
C224 O216 1.252 . S
C225 C227 1.393 1_556 S
C225 C229 1.395 . S
C225 C232 1.492 . S
C226 C227 1.392 . S
C226 C228 1.386 1_554 S
C227 C225 1.393 1_554 S
C227 C226 1.392 . S
C227 H244 0.930 . S
C228 C226 1.386 1_556 S
C228 C230 1.395 . S
C228 H245 0.930 . S
C229 C225 1.395 . S
C229 C230 1.379 . S
C229 H246 0.930 . S
C230 C228 1.395 . S
C230 C229 1.379 . S
C230 H247 0.930 . S
C231 O214 1.264 1_565 S
C231 O215 1.254 . S
C232 Eu168 2.848 . S
C232 O212 1.257 . S
C232 O217 1.249 1_556 S
C232 C225 1.492 . S
C233 H198 0.931 . S
C233 C211 1.420 . S
C233 C234 1.351 . S
C234 H196 0.928 . S
C234 C202 1.423 1_556 S
C234 C233 1.351 . S
C235 O219 1.276 . S
C235 O222 1.235 . S
C236 C237 1.393 1_554 S
C236 C240 1.395 . S
C236 C243 1.492 . S
C237 C236 1.393 1_556 S
C237 C238 1.394 . S
C237 H248 0.930 . S
C238 C237 1.394 . S
C238 C239 1.359 1_556 S
C239 C238 1.359 1_554 S
C239 C241 1.395 . S
C239 H249 0.930 . S
C240 C236 1.395 . S
C240 C241 1.379 . S
C240 H250 0.930 . S
C241 C239 1.395 . S
C241 C240 1.379 . S
C241 H251 0.930 . S
C242 O220 1.264 . S
C242 O221 1.254 . S
C243 Eu179 2.848 . S
C243 O218 1.257 . S
C243 O223 1.249 1_554 S
C243 C236 1.492 . S
H244 C227 0.930 . S
H245 C228 0.930 . S
H246 C229 0.930 . S
H247 C230 0.930 . S
H248 C237 0.930 . S
H249 C239 0.930 . S
H250 C240 0.930 . S
H251 C241 0.930 . S
Eu252 N283 2.657 . S
Eu252 N290 2.609 . S
Eu252 O296 2.558 . S
Eu252 O297 2.612 . S
Eu252 O299 2.339 . S
Eu252 O300 2.563 . S
Eu252 O301 2.419 . S
Eu252 O303 2.380 . S
Eu252 O304 2.432 . S
Eu252 C316 2.848 . S
C253 C256 1.429 . S
C253 C257 1.411 . S
C253 N260 1.377 . S
C254 C256 1.420 . S
C254 C258 1.423 . S
C254 C266 1.392 . S
C255 C257 1.420 . S
C255 C258 1.351 . S
C255 H278 0.931 . S
C256 C253 1.429 . S
C256 C254 1.420 . S
C256 N264 1.362 . S
C257 C253 1.411 . S
C257 C255 1.420 . S
C257 C262 1.395 . S
C258 C254 1.423 . S
C258 C255 1.351 . S
C258 H270 0.930 . S
C259 C261 1.400 . S
C259 C262 1.386 . S
C259 H271 0.930 . S
N260 C253 1.377 . S
N260 C261 1.321 . S
N260 Eu263 2.609 . S
C261 C259 1.400 . S
C261 N260 1.321 . S
C261 H268 0.930 . S
C262 C257 1.395 . S
C262 C259 1.386 . S
C262 H281 0.930 . S
Eu263 N260 2.609 . S
Eu263 N264 2.657 . S
Eu263 O297 2.380 . S
Eu263 O298 2.432 . S
Eu263 O302 2.558 . S
Eu263 O303 2.612 . S
Eu263 O305 2.339 . S
Eu263 O306 2.563 . S
Eu263 O307 2.419 . S
Eu263 C327 2.848 . S
N264 C256 1.362 . S
N264 Eu263 2.657 . S
N264 C265 1.334 . S
C265 N264 1.334 . S
C265 C267 1.413 . S
C265 H272 0.929 . S
C266 C254 1.392 . S
C266 C267 1.367 . S
C266 H274 0.930 . S
C267 C265 1.413 . S
C267 C266 1.367 . S
C267 H269 0.930 . S
H268 C261 0.930 . S
H269 C267 0.930 . S
H270 C258 0.930 . S
H271 C259 0.930 . S
H272 C265 0.929 . S
H273 C287 0.930 . S
H274 C266 0.930 . S
H275 C293 0.930 . S
H276 C284 0.929 . S
H277 C291 0.930 . S
H278 C255 0.931 . S
H279 C285 0.930 . S
H280 C318 0.930 . S
H281 C262 0.930 . S
H282 C317 0.931 . S
N283 Eu252 2.657 . S
N283 C284 1.334 . S
N283 C288 1.362 . S
C284 H276 0.929 . S
C284 N283 1.334 . S
C284 C287 1.413 . S
C285 H279 0.930 . S
C285 C286 1.392 . S
C285 C287 1.367 . S
C286 C285 1.392 . S
C286 C288 1.420 . S
C286 C318 1.423 . S
C287 H273 0.930 . S
C287 C284 1.413 . S
C287 C285 1.367 . S
C288 N283 1.362 . S
C288 C286 1.420 . S
C288 C292 1.429 . S
H289 C294 0.930 . S
N290 Eu252 2.609 . S
N290 C292 1.377 . S
N290 C293 1.321 . S
C291 H277 0.930 . S
C291 C293 1.400 . S
C291 C294 1.386 . S
C292 C288 1.429 . S
C292 N290 1.377 . S
C292 C295 1.411 . S
C293 H275 0.930 . S
C293 N290 1.321 . S
C293 C291 1.400 . S
C294 H289 0.930 . S
C294 C291 1.386 . S
C294 C295 1.395 . S
C295 C292 1.411 . S
C295 C294 1.395 . S
C295 C317 1.420 . S
O296 Eu252 2.558 . S
O296 C316 1.257 . S
O297 Eu252 2.612 . S
O297 Eu263 2.380 . S
O297 C308 1.276 . S
O298 Eu263 2.432 . S
O298 C315 1.264 . S
O299 Eu252 2.339 . S
O299 C315 1.254 . S
O300 Eu252 2.563 . S
O300 C308 1.235 . S
O301 Eu252 2.419 . S
O301 C316 1.249 . S
O302 Eu263 2.558 . S
O302 C327 1.257 . S
O303 Eu252 2.380 . S
O303 Eu263 2.612 . S
O303 C319 1.276 . S
O304 Eu252 2.432 . S
O304 C326 1.264 . S
O305 Eu263 2.339 . S
O305 C326 1.254 . S
O306 Eu263 2.563 . S
O306 C319 1.235 . S
O307 Eu263 2.419 . S
O307 C327 1.249 . S
C308 O297 1.276 . S
C308 O300 1.235 . S
C309 C311 1.393 . S
C309 C313 1.395 . S
C309 C316 1.492 . S
C310 C311 1.392 . S
C310 C312 1.364 1_565 S
C311 C309 1.393 . S
C311 C310 1.392 . S
C311 H328 0.930 . S
C312 C310 1.364 1_545 S
C312 C314 1.399 1_545 S
C312 H329 0.949 . S
C313 C309 1.395 . S
C313 C314 1.379 . S
C313 H330 0.930 . S
C314 C312 1.399 1_565 S
C314 C313 1.379 . S
C314 H331 0.930 1_565 S
C315 O298 1.264 . S
C315 O299 1.254 . S
C316 Eu252 2.848 . S
C316 O296 1.257 . S
C316 O301 1.249 . S
C316 C309 1.492 . S
C317 H282 0.931 . S
C317 C295 1.420 . S
C317 C318 1.351 . S
C318 H280 0.930 . S
C318 C286 1.423 . S
C318 C317 1.351 . S
C319 O303 1.276 . S
C319 O306 1.235 . S
C320 C321 1.393 . S
C320 C324 1.395 . S
C320 C327 1.492 . S
C321 C320 1.393 . S
C321 C322 1.392 . S
C321 H332 0.930 . S
C322 C321 1.392 . S
C322 C323 1.386 . S
C323 C322 1.386 . S
C323 C325 1.395 . S
C323 H333 0.930 . S
C324 C320 1.395 . S
C324 C325 1.379 . S
C324 H334 0.930 . S
C325 C323 1.395 . S
C325 C324 1.379 . S
C325 H335 0.930 . S
C326 O304 1.264 . S
C326 O305 1.254 . S
C327 Eu263 2.848 . S
C327 O302 1.257 . S
C327 O307 1.249 . S
C327 C320 1.492 . S
H328 C311 0.930 . S
H329 C312 0.949 . S
H330 C313 0.930 . S
H331 C314 0.930 1_545 S
H332 C321 0.930 . S
H333 C323 0.930 . S
H334 C324 0.930 . S
H335 C325 0.930 . S
Eu336 N367 2.657 . S
Eu336 N374 2.609 . S
Eu336 O380 2.558 . S
Eu336 O381 2.612 . S
Eu336 O383 2.339 . S
Eu336 O384 2.563 . S
Eu336 O385 2.419 . S
Eu336 O387 2.380 . S
Eu336 O388 2.432 . S
Eu336 C400 2.848 . S
C337 C340 1.429 . S
C337 C341 1.411 . S
C337 N344 1.377 . S
C338 C340 1.420 1_545 S
C338 C342 1.423 . S
C338 C350 1.392 . S
C339 C341 1.420 1_545 S
C339 C342 1.351 . S
C339 H362 0.931 . S
C340 C337 1.429 . S
C340 C338 1.420 1_565 S
C340 N348 1.362 . S
C341 C337 1.411 . S
C341 C339 1.420 1_565 S
C341 C346 1.395 . S
C342 C338 1.423 . S
C342 C339 1.351 . S
C342 H354 0.930 . S
C343 C345 1.400 . S
C343 C346 1.386 . S
C343 H355 0.930 . S
N344 C337 1.377 . S
N344 C345 1.321 . S
N344 Eu347 2.609 . S
C345 C343 1.400 . S
C345 N344 1.321 . S
C345 H352 0.930 . S
C346 C341 1.395 . S
C346 C343 1.386 . S
C346 H365 0.930 1_565 S
Eu347 N344 2.609 . S
Eu347 N348 2.657 . S
Eu347 O381 2.380 . S
Eu347 O382 2.432 . S
Eu347 O386 2.558 . S
Eu347 O387 2.612 . S
Eu347 O389 2.339 . S
Eu347 O390 2.563 . S
Eu347 O391 2.419 . S
Eu347 C411 2.848 . S
N348 C340 1.362 . S
N348 Eu347 2.657 . S
N348 C349 1.334 . S
C349 N348 1.334 . S
C349 C351 1.413 . S
C349 H356 0.929 . S
C350 C338 1.392 . S
C350 C351 1.367 1_545 S
C350 H358 0.930 . S
C351 C349 1.413 . S
C351 C350 1.367 1_565 S
C351 H353 0.930 . S
H352 C345 0.930 . S
H353 C351 0.930 . S
H354 C342 0.930 . S
H355 C343 0.930 . S
H356 C349 0.929 . S
H357 C371 0.930 . S
H358 C350 0.930 . S
H359 C377 0.930 . S
H360 C368 0.929 . S
H361 C375 0.930 . S
H362 C339 0.931 . S
H363 C369 0.930 . S
H364 C402 0.930 . S
H365 C346 0.930 1_545 S
H366 C401 0.931 . S
N367 Eu336 2.657 . S
N367 C368 1.334 . S
N367 C372 1.362 . S
C368 H360 0.929 . S
C368 N367 1.334 . S
C368 C371 1.413 . S
C369 H363 0.930 . S
C369 C370 1.392 . S
C369 C371 1.367 . S
C370 C369 1.392 . S
C370 C372 1.420 . S
C370 C402 1.423 . S
C371 H357 0.930 . S
C371 C368 1.413 . S
C371 C369 1.367 . S
C372 N367 1.362 . S
C372 C370 1.420 . S
C372 C376 1.429 . S
H373 C378 0.930 . S
N374 Eu336 2.609 . S
N374 C376 1.377 . S
N374 C377 1.321 . S
C375 H361 0.930 . S
C375 C377 1.400 . S
C375 C378 1.386 . S
C376 C372 1.429 . S
C376 N374 1.377 . S
C376 C379 1.411 . S
C377 H359 0.930 . S
C377 N374 1.321 . S
C377 C375 1.400 . S
C378 H373 0.930 . S
C378 C375 1.386 . S
C378 C379 1.395 . S
C379 C376 1.411 . S
C379 C378 1.395 . S
C379 C401 1.420 . S
O380 Eu336 2.558 . S
O380 C400 1.257 . S
O381 Eu336 2.612 . S
O381 Eu347 2.380 . S
O381 C392 1.276 . S
O382 Eu347 2.432 . S
O382 C399 1.264 . S
O383 Eu336 2.339 . S
O383 C399 1.254 . S
O384 Eu336 2.563 . S
O384 C392 1.235 . S
O385 Eu336 2.419 . S
O385 C400 1.249 . S
O386 Eu347 2.558 . S
O386 C411 1.257 . S
O387 Eu336 2.380 . S
O387 Eu347 2.612 . S
O387 C403 1.276 . S
O388 Eu336 2.432 . S
O388 C410 1.264 . S
O389 Eu347 2.339 . S
O389 C410 1.254 . S
O390 Eu347 2.563 . S
O390 C403 1.235 . S
O391 Eu347 2.419 . S
O391 C411 1.249 . S
C392 O381 1.276 . S
C392 O384 1.235 . S
C393 C395 1.393 . S
C393 C397 1.395 . S
C393 C400 1.492 . S
C394 C395 1.392 . S
C394 C396 1.386 . S
C395 C393 1.393 . S
C395 C394 1.392 . S
C395 H412 0.930 . S
C396 C394 1.386 . S
C396 C398 1.395 . S
C396 H413 0.930 1_455 S
C397 C393 1.395 . S
C397 C398 1.379 . S
C397 H414 0.930 . S
C398 C396 1.395 . S
C398 C397 1.379 . S
C398 H415 0.930 . S
C399 O382 1.264 . S
C399 O383 1.254 . S
C400 Eu336 2.848 . S
C400 O380 1.257 . S
C400 O385 1.249 . S
C400 C393 1.492 . S
C401 H366 0.931 . S
C401 C379 1.420 . S
C401 C402 1.351 . S
C402 H364 0.930 . S
C402 C370 1.423 . S
C402 C401 1.351 . S
C403 O387 1.276 . S
C403 O390 1.235 . S
C404 C405 1.393 . S
C404 C408 1.395 . S
C404 C411 1.492 . S
C405 C404 1.393 . S
C405 C406 1.392 . S
C405 H416 0.930 . S
C406 C405 1.392 . S
C406 C407 1.386 . S
C407 C406 1.386 . S
C407 C409 1.395 . S
C407 H417 0.930 . S
C408 C404 1.395 . S
C408 C409 1.379 . S
C408 H418 0.930 . S
C409 C407 1.395 . S
C409 C408 1.379 . S
C409 H419 0.930 . S
C410 O388 1.264 . S
C410 O389 1.254 . S
C411 Eu347 2.848 . S
C411 O386 1.257 . S
C411 O391 1.249 . S
C411 C404 1.492 . S
H412 C395 0.930 . S
H413 C396 0.930 1_655 S
H414 C397 0.930 . S
H415 C398 0.930 . S
H416 C405 0.930 . S
H417 C407 0.930 . S
H418 C408 0.930 . S
H419 C409 0.930 . S
Eu420 N451 2.657 . S
Eu420 N458 2.609 . S
Eu420 O464 2.558 . S
Eu420 O465 2.612 . S
Eu420 O467 2.339 . S
Eu420 O468 2.563 . S
Eu420 O469 2.419 . S
Eu420 O471 2.380 . S
Eu420 O472 2.432 . S
Eu420 C484 2.848 . S
C421 C424 1.429 . S
C421 C425 1.411 . S
C421 N428 1.377 . S
C422 C424 1.420 . S
C422 C426 1.423 1_455 S
C422 C434 1.392 . S
C423 C425 1.420 1_655 S
C423 C426 1.351 . S
C423 H446 0.931 . S
C424 C421 1.429 . S
C424 C422 1.420 . S
C424 N432 1.362 . S
C425 C421 1.411 . S
C425 C423 1.420 1_455 S
C425 C430 1.395 . S
C426 C422 1.423 1_655 S
C426 C423 1.351 . S
C426 H438 0.930 . S
C427 C429 1.400 . S
C427 C430 1.386 . S
C427 H439 0.930 . S
N428 C421 1.377 . S
N428 C429 1.321 . S
N428 Eu431 2.609 . S
C429 C427 1.400 . S
C429 N428 1.321 . S
C429 H436 0.930 . S
C430 C425 1.395 . S
C430 C427 1.386 . S
C430 H449 0.930 . S
Eu431 N428 2.609 . S
Eu431 N432 2.657 . S
Eu431 O465 2.380 . S
Eu431 O466 2.432 . S
Eu431 O470 2.558 . S
Eu431 O471 2.612 . S
Eu431 O473 2.339 . S
Eu431 O474 2.563 . S
Eu431 O475 2.419 . S
Eu431 C495 2.848 . S
N432 C424 1.362 . S
N432 Eu431 2.657 . S
N432 C433 1.334 . S
C433 N432 1.334 . S
C433 C435 1.413 . S
C433 H440 0.929 . S
C434 C422 1.392 . S
C434 C435 1.367 . S
C434 H442 0.930 1_455 S
C435 C433 1.413 . S
C435 C434 1.367 . S
C435 H437 0.930 . S
H436 C429 0.930 . S
H437 C435 0.930 . S
H438 C426 0.930 . S
H439 C427 0.930 . S
H440 C433 0.929 . S
H441 C455 0.930 . S
H442 C434 0.930 1_655 S
H443 C461 0.930 . S
H444 C452 0.929 . S
H445 C459 0.930 . S
H446 C423 0.931 . S
H447 C453 0.930 . S
H448 C486 0.930 . S
H449 C430 0.930 . S
H450 C485 0.931 . S
N451 Eu420 2.657 . S
N451 C452 1.334 . S
N451 C456 1.362 . S
C452 H444 0.929 . S
C452 N451 1.334 . S
C452 C455 1.413 . S
C453 H447 0.930 . S
C453 C454 1.392 . S
C453 C455 1.367 . S
C454 C453 1.392 . S
C454 C456 1.420 . S
C454 C486 1.423 . S
C455 H441 0.930 . S
C455 C452 1.413 . S
C455 C453 1.367 . S
C456 N451 1.362 . S
C456 C454 1.420 . S
C456 C460 1.429 . S
H457 C462 0.930 . S
N458 Eu420 2.609 . S
N458 C460 1.377 . S
N458 C461 1.321 . S
C459 H445 0.930 . S
C459 C461 1.400 . S
C459 C462 1.386 . S
C460 C456 1.429 . S
C460 N458 1.377 . S
C460 C463 1.411 . S
C461 H443 0.930 . S
C461 N458 1.321 . S
C461 C459 1.400 . S
C462 H457 0.930 . S
C462 C459 1.386 . S
C462 C463 1.395 . S
C463 C460 1.411 . S
C463 C462 1.395 . S
C463 C485 1.420 . S
O464 Eu420 2.558 . S
O464 C484 1.257 . S
O465 Eu420 2.612 . S
O465 Eu431 2.380 . S
O465 C476 1.276 . S
O466 Eu431 2.432 . S
O466 C483 1.264 . S
O467 Eu420 2.339 . S
O467 C483 1.254 . S
O468 Eu420 2.563 . S
O468 C476 1.235 . S
O469 Eu420 2.419 . S
O469 C484 1.249 . S
O470 Eu431 2.558 . S
O470 C495 1.257 . S
O471 Eu420 2.380 . S
O471 Eu431 2.612 . S
O471 C487 1.276 . S
O472 Eu420 2.432 . S
O472 C494 1.264 . S
O473 Eu431 2.339 . S
O473 C494 1.254 . S
O474 Eu431 2.563 . S
O474 C487 1.235 . S
O475 Eu431 2.419 . S
O475 C495 1.249 . S
C476 O465 1.276 . S
C476 O468 1.235 . S
C477 C479 1.393 . S
C477 C481 1.395 . S
C477 C484 1.492 . S
C478 C479 1.392 . S
C478 C480 1.386 . S
C479 C477 1.393 . S
C479 C478 1.392 . S
C479 H496 0.930 . S
C480 C478 1.386 . S
C480 C482 1.395 . S
C480 H497 0.930 . S
C481 C477 1.395 . S
C481 C482 1.379 . S
C481 H498 0.930 . S
C482 C480 1.395 . S
C482 C481 1.379 . S
C482 H499 0.930 . S
C483 O466 1.264 . S
C483 O467 1.254 . S
C484 Eu420 2.848 . S
C484 O464 1.257 . S
C484 O469 1.249 . S
C484 C477 1.492 . S
C485 H450 0.931 . S
C485 C463 1.420 . S
C485 C486 1.351 . S
C486 H448 0.930 . S
C486 C454 1.423 . S
C486 C485 1.351 . S
C487 O471 1.276 . S
C487 O474 1.235 . S
C488 C489 1.393 . S
C488 C492 1.395 . S
C488 C495 1.492 . S
C489 C488 1.393 . S
C489 C490 1.392 . S
C489 H500 0.930 . S
C490 C489 1.392 . S
C490 C491 1.386 . S
C491 C490 1.386 . S
C491 C493 1.395 . S
C491 H501 0.930 . S
C492 C488 1.395 . S
C492 C493 1.379 . S
C492 H502 0.930 . S
C493 C491 1.395 . S
C493 C492 1.379 . S
C493 H503 0.930 . S
C494 O472 1.264 . S
C494 O473 1.254 . S
C495 Eu431 2.848 . S
C495 O470 1.257 . S
C495 O475 1.249 . S
C495 C488 1.492 . S
H496 C479 0.930 . S
H497 C480 0.930 . S
H498 C481 0.930 . S
H499 C482 0.930 . S
H500 C489 0.930 . S
H501 C491 0.930 . S
H502 C492 0.930 . S
H503 C493 0.930 . S
Eu504 N535 2.657 . S
Eu504 N542 2.609 . S
Eu504 O548 2.558 . S
Eu504 O549 2.612 . S
Eu504 O551 2.339 . S
Eu504 O552 2.563 . S
Eu504 O553 2.419 . S
Eu504 O555 2.380 . S
Eu504 O556 2.432 . S
Eu504 C568 2.848 . S
C505 C508 1.429 . S
C505 C509 1.411 . S
C505 N512 1.377 . S
C506 C508 1.420 . S
C506 C510 1.423 . S
C506 C518 1.392 . S
C507 C509 1.420 . S
C507 C510 1.351 . S
C507 H530 0.899 1_545 S
C508 C505 1.429 . S
C508 C506 1.420 . S
C508 N516 1.362 . S
C509 C505 1.411 . S
C509 C507 1.420 . S
C509 C514 1.395 . S
C510 C506 1.423 . S
C510 C507 1.351 . S
C510 H522 0.930 . S
C511 C513 1.400 . S
C511 C514 1.386 . S
C511 H523 0.930 . S
N512 C505 1.377 . S
N512 C513 1.321 . S
N512 Eu515 2.609 . S
C513 C511 1.400 . S
C513 N512 1.321 . S
C513 H520 0.930 . S
C514 C509 1.395 . S
C514 C511 1.386 . S
C514 H533 0.930 . S
Eu515 N512 2.609 . S
Eu515 N516 2.657 . S
Eu515 O549 2.380 . S
Eu515 O550 2.432 . S
Eu515 O554 2.558 . S
Eu515 O555 2.612 . S
Eu515 O557 2.339 . S
Eu515 O558 2.563 . S
Eu515 O559 2.419 . S
Eu515 C579 2.848 . S
N516 C508 1.362 . S
N516 Eu515 2.657 . S
N516 C517 1.334 . S
C517 N516 1.334 . S
C517 C519 1.413 . S
C517 H524 0.929 . S
C518 C506 1.392 . S
C518 C519 1.367 . S
C518 H526 0.930 . S
C519 C517 1.413 . S
C519 C518 1.367 . S
C519 H521 0.930 . S
H520 C513 0.930 . S
H521 C519 0.930 . S
H522 C510 0.930 . S
H523 C511 0.930 . S
H524 C517 0.929 . S
H525 C539 0.930 . S
H526 C518 0.930 . S
H527 C545 0.930 . S
H528 C536 0.929 . S
H529 C543 0.930 . S
H530 C507 0.899 1_565 S
H531 C537 0.930 . S
H532 C570 0.930 . S
H533 C514 0.930 . S
H534 C569 0.931 . S
N535 Eu504 2.657 . S
N535 C536 1.334 . S
N535 C540 1.362 . S
C536 H528 0.929 . S
C536 N535 1.334 . S
C536 C539 1.413 . S
C537 H531 0.930 . S
C537 C538 1.392 . S
C537 C539 1.367 . S
C538 C537 1.392 . S
C538 C540 1.420 . S
C538 C570 1.423 . S
C539 H525 0.930 . S
C539 C536 1.413 . S
C539 C537 1.367 . S
C540 N535 1.362 . S
C540 C538 1.420 . S
C540 C544 1.429 . S
H541 C546 0.930 . S
N542 Eu504 2.609 . S
N542 C544 1.377 . S
N542 C545 1.321 . S
C543 H529 0.930 . S
C543 C545 1.400 . S
C543 C546 1.386 . S
C544 C540 1.429 . S
C544 N542 1.377 . S
C544 C547 1.411 . S
C545 H527 0.930 . S
C545 N542 1.321 . S
C545 C543 1.400 . S
C546 H541 0.930 . S
C546 C543 1.386 . S
C546 C547 1.395 . S
C547 C544 1.411 . S
C547 C546 1.395 . S
C547 C569 1.420 . S
O548 Eu504 2.558 . S
O548 C568 1.257 . S
O549 Eu504 2.612 . S
O549 Eu515 2.380 . S
O549 C560 1.276 . S
O550 Eu515 2.432 . S
O550 C567 1.264 . S
O551 Eu504 2.339 . S
O551 C567 1.254 . S
O552 Eu504 2.563 . S
O552 C560 1.235 . S
O553 Eu504 2.419 . S
O553 C568 1.249 . S
O554 Eu515 2.558 . S
O554 C579 1.257 . S
O555 Eu504 2.380 . S
O555 Eu515 2.612 . S
O555 C571 1.276 . S
O556 Eu504 2.432 . S
O556 C578 1.264 . S
O557 Eu515 2.339 . S
O557 C578 1.254 . S
O558 Eu515 2.563 . S
O558 C571 1.235 . S
O559 Eu515 2.419 . S
O559 C579 1.249 . S
C560 O549 1.276 . S
C560 O552 1.235 . S
C561 C563 1.393 . S
C561 C565 1.395 . S
C561 C568 1.492 . S
C562 C563 1.392 . S
C562 C564 1.386 . S
C563 C561 1.393 . S
C563 C562 1.392 . S
C563 H580 0.930 . S
C564 C562 1.386 . S
C564 C566 1.395 . S
C564 H581 0.930 . S
C565 C561 1.395 . S
C565 C566 1.379 . S
C565 H582 0.930 . S
C566 C564 1.395 . S
C566 C565 1.379 . S
C566 H583 0.930 . S
C567 O550 1.264 . S
C567 O551 1.254 . S
C568 Eu504 2.848 . S
C568 O548 1.257 . S
C568 O553 1.249 . S
C568 C561 1.492 . S
C569 H534 0.931 . S
C569 C547 1.420 . S
C569 C570 1.351 . S
C570 H532 0.930 . S
C570 C538 1.423 . S
C570 C569 1.351 . S
C571 O555 1.276 . S
C571 O558 1.235 . S
C572 C573 1.393 1_545 S
C572 C576 1.395 1_545 S
C572 C579 1.492 . S
C573 C572 1.393 1_565 S
C573 C574 1.392 . S
C573 H584 0.930 1_565 S
C574 C573 1.392 . S
C574 C575 1.386 . S
C575 C574 1.386 . S
C575 C577 1.395 . S
C575 H585 0.930 . S
C576 C572 1.395 1_565 S
C576 C577 1.379 . S
C576 H586 0.930 . S
C577 C575 1.395 . S
C577 C576 1.379 . S
C577 H587 0.930 . S
C578 O556 1.264 . S
C578 O557 1.254 . S
C579 Eu515 2.848 . S
C579 O554 1.257 . S
C579 O559 1.249 . S
C579 C572 1.492 . S
H580 C563 0.930 . S
H581 C564 0.930 . S
H582 C565 0.930 . S
H583 C566 0.930 . S
H584 C573 0.930 1_545 S
H585 C575 0.930 . S
H586 C576 0.930 . S
H587 C577 0.930 . S
Eu588 N619 2.657 . S
Eu588 N626 2.609 . S
Eu588 O632 2.558 . S
Eu588 O633 2.612 . S
Eu588 O635 2.339 . S
Eu588 O636 2.563 . S
Eu588 O637 2.419 . S
Eu588 O639 2.380 . S
Eu588 O640 2.432 . S
Eu588 C652 2.848 . S
C589 C592 1.429 . S
C589 C593 1.411 . S
C589 N596 1.377 . S
C590 C592 1.420 . S
C590 C594 1.421 1_655 S
C590 C602 1.392 . S
C591 C593 1.420 1_455 S
C591 C594 1.353 . S
C591 H614 0.931 . S
C592 C589 1.429 . S
C592 C590 1.420 . S
C592 N600 1.362 . S
C593 C589 1.411 . S
C593 C591 1.420 1_655 S
C593 C598 1.395 . S
C594 C590 1.421 1_455 S
C594 C591 1.353 . S
C594 H606 0.930 . S
C595 C597 1.400 . S
C595 C598 1.386 . S
C595 H607 0.930 . S
N596 C589 1.377 . S
N596 C597 1.321 . S
N596 Eu599 2.609 . S
C597 C595 1.400 . S
C597 N596 1.321 . S
C597 H604 0.930 . S
C598 C593 1.395 . S
C598 C595 1.386 . S
C598 H617 0.930 1_655 S
Eu599 N596 2.609 . S
Eu599 N600 2.657 . S
Eu599 O633 2.380 . S
Eu599 O634 2.432 . S
Eu599 O638 2.558 . S
Eu599 O639 2.612 . S
Eu599 O641 2.339 . S
Eu599 O642 2.563 . S
Eu599 O643 2.419 . S
Eu599 C663 2.848 . S
N600 C592 1.362 . S
N600 Eu599 2.657 . S
N600 C601 1.334 . S
C601 N600 1.334 . S
C601 C603 1.413 . S
C601 H608 0.929 . S
C602 C590 1.392 . S
C602 C603 1.367 . S
C602 H610 0.930 . S
C603 C601 1.413 . S
C603 C602 1.367 . S
C603 H605 0.930 . S
H604 C597 0.930 . S
H605 C603 0.930 . S
H606 C594 0.930 . S
H607 C595 0.930 . S
H608 C601 0.929 . S
H609 C623 0.930 . S
H610 C602 0.930 . S
H611 C629 0.930 . S
H612 C620 0.929 . S
H613 C627 0.930 . S
H614 C591 0.931 . S
H615 C621 0.930 . S
H616 C654 0.930 . S
H617 C598 0.930 1_455 S
H618 C653 0.931 . S
N619 Eu588 2.657 . S
N619 C620 1.334 . S
N619 C624 1.362 . S
C620 H612 0.929 . S
C620 N619 1.334 . S
C620 C623 1.413 . S
C621 H615 0.930 . S
C621 C622 1.392 . S
C621 C623 1.367 . S
C622 C621 1.392 . S
C622 C624 1.420 . S
C622 C654 1.423 . S
C623 H609 0.930 . S
C623 C620 1.413 . S
C623 C621 1.367 . S
C624 N619 1.362 . S
C624 C622 1.420 . S
C624 C628 1.429 . S
H625 C630 0.930 . S
N626 Eu588 2.609 . S
N626 C628 1.377 . S
N626 C629 1.321 . S
C627 H613 0.930 . S
C627 C629 1.400 . S
C627 C630 1.386 . S
C628 C624 1.429 . S
C628 N626 1.377 . S
C628 C631 1.411 . S
C629 H611 0.930 . S
C629 N626 1.321 . S
C629 C627 1.400 . S
C630 H625 0.930 . S
C630 C627 1.386 . S
C630 C631 1.395 . S
C631 C628 1.411 . S
C631 C630 1.395 . S
C631 C653 1.420 . S
O632 Eu588 2.558 . S
O632 C652 1.257 . S
O633 Eu588 2.612 . S
O633 Eu599 2.380 . S
O633 C644 1.276 . S
O634 Eu599 2.432 . S
O634 C651 1.264 . S
O635 Eu588 2.339 . S
O635 C651 1.254 . S
O636 Eu588 2.563 . S
O636 C644 1.235 . S
O637 Eu588 2.419 . S
O637 C652 1.249 . S
O638 Eu599 2.558 . S
O638 C663 1.257 . S
O639 Eu588 2.380 . S
O639 Eu599 2.612 . S
O639 C655 1.276 . S
O640 Eu588 2.432 . S
O640 C662 1.264 . S
O641 Eu599 2.339 . S
O641 C662 1.254 . S
O642 Eu599 2.563 . S
O642 C655 1.235 . S
O643 Eu599 2.419 . S
O643 C663 1.249 . S
C644 O633 1.276 . S
C644 O636 1.235 . S
C645 C647 1.393 . S
C645 C649 1.395 . S
C645 C652 1.492 . S
C646 C647 1.392 . S
C646 C648 1.386 . S
C647 C645 1.393 . S
C647 C646 1.392 . S
C647 H664 0.930 . S
C648 C646 1.386 . S
C648 C650 1.395 . S
C648 H665 0.930 . S
C649 C645 1.395 . S
C649 C650 1.379 . S
C649 H666 0.930 . S
C650 C648 1.395 . S
C650 C649 1.379 . S
C650 H667 0.930 . S
C651 O634 1.264 . S
C651 O635 1.254 . S
C652 Eu588 2.848 . S
C652 O632 1.257 . S
C652 O637 1.249 . S
C652 C645 1.492 . S
C653 H618 0.931 . S
C653 C631 1.420 . S
C653 C654 1.351 . S
C654 H616 0.930 . S
C654 C622 1.423 . S
C654 C653 1.351 . S
C655 O639 1.276 . S
C655 O642 1.235 . S
C656 C657 1.393 . S
C656 C660 1.395 . S
C656 C663 1.492 1_455 S
C657 C656 1.393 . S
C657 C658 1.392 . S
C657 H668 0.930 . S
C658 C657 1.392 . S
C658 C659 1.386 . S
C659 C658 1.386 . S
C659 C661 1.395 . S
C659 H669 0.930 . S
C660 C656 1.395 . S
C660 C661 1.379 . S
C660 H670 0.930 . S
C661 C659 1.395 . S
C661 C660 1.379 . S
C661 H671 0.930 . S
C662 O640 1.264 . S
C662 O641 1.254 . S
C663 Eu599 2.848 . S
C663 O638 1.257 . S
C663 O643 1.249 . S
C663 C656 1.492 1_655 S
H664 C647 0.930 . S
H665 C648 0.930 . S
H666 C649 0.930 . S
H667 C650 0.930 . S
H668 C657 0.930 . S
H669 C659 0.930 . S
H670 C660 0.930 . S
H671 C661 0.930 . S
Eu672 N703 2.657 . S
Eu672 N710 2.609 . S
Eu672 O716 2.558 . S
Eu672 O717 2.612 . S
Eu672 O719 2.339 . S
Eu672 O720 2.563 . S
Eu672 O721 2.419 . S
Eu672 O723 2.380 . S
Eu672 O724 2.432 . S
Eu672 C736 2.848 . S
C673 C676 1.429 . S
C673 C677 1.411 . S
C673 N680 1.377 . S
C674 C676 1.420 . S
C674 C678 1.423 . S
C674 C686 1.392 . S
C675 C677 1.420 . S
C675 C678 1.351 . S
C675 H698 0.931 . S
C676 C673 1.429 . S
C676 C674 1.420 . S
C676 N684 1.362 . S
C677 C673 1.411 . S
C677 C675 1.420 . S
C677 C682 1.395 . S
C678 C674 1.423 . S
C678 C675 1.351 . S
C678 H690 0.930 . S
C679 C681 1.400 . S
C679 C682 1.386 . S
C679 H691 0.930 . S
N680 C673 1.377 . S
N680 C681 1.321 . S
N680 Eu683 2.609 . S
C681 C679 1.400 . S
C681 N680 1.321 . S
C681 H688 0.930 . S
C682 C677 1.395 . S
C682 C679 1.386 . S
C682 H701 0.930 . S
Eu683 N680 2.609 . S
Eu683 N684 2.657 . S
Eu683 O717 2.380 . S
Eu683 O718 2.432 . S
Eu683 O722 2.558 . S
Eu683 O723 2.612 . S
Eu683 O725 2.339 . S
Eu683 O726 2.563 . S
Eu683 O727 2.419 . S
Eu683 C747 2.848 . S
N684 C676 1.362 . S
N684 Eu683 2.657 . S
N684 C685 1.334 . S
C685 N684 1.334 . S
C685 C687 1.413 . S
C685 H692 0.929 . S
C686 C674 1.392 . S
C686 C687 1.367 . S
C686 H694 0.930 . S
C687 C685 1.413 . S
C687 C686 1.367 . S
C687 H689 0.930 . S
H688 C681 0.930 . S
H689 C687 0.930 . S
H690 C678 0.930 . S
H691 C679 0.930 . S
H692 C685 0.929 . S
H693 C707 0.930 . S
H694 C686 0.930 . S
H695 C713 0.930 . S
H696 C704 0.929 . S
H697 C711 0.930 . S
H698 C675 0.931 . S
H699 C705 0.930 . S
H700 C738 0.930 . S
H701 C682 0.930 . S
H702 C737 0.931 . S
N703 Eu672 2.657 . S
N703 C704 1.334 . S
N703 C708 1.362 . S
C704 H696 0.929 . S
C704 N703 1.334 . S
C704 C707 1.413 . S
C705 H699 0.930 . S
C705 C706 1.392 . S
C705 C707 1.367 . S
C706 C705 1.392 . S
C706 C708 1.420 . S
C706 C738 1.423 . S
C707 H693 0.930 . S
C707 C704 1.413 . S
C707 C705 1.367 . S
C708 N703 1.362 . S
C708 C706 1.420 . S
C708 C712 1.429 . S
H709 C714 0.930 . S
N710 Eu672 2.609 . S
N710 C712 1.377 . S
N710 C713 1.321 . S
C711 H697 0.930 . S
C711 C713 1.400 . S
C711 C714 1.386 . S
C712 C708 1.429 . S
C712 N710 1.377 . S
C712 C715 1.411 . S
C713 H695 0.930 . S
C713 N710 1.321 . S
C713 C711 1.400 . S
C714 H709 0.930 . S
C714 C711 1.386 . S
C714 C715 1.395 . S
C715 C712 1.411 . S
C715 C714 1.395 . S
C715 C737 1.420 . S
O716 Eu672 2.558 . S
O716 C736 1.257 . S
O717 Eu672 2.612 . S
O717 Eu683 2.380 . S
O717 C728 1.276 . S
O718 Eu683 2.432 . S
O718 C735 1.264 . S
O719 Eu672 2.339 . S
O719 C735 1.254 . S
O720 Eu672 2.563 . S
O720 C728 1.235 . S
O721 Eu672 2.419 . S
O721 C736 1.249 . S
O722 Eu683 2.558 . S
O722 C747 1.257 . S
O723 Eu672 2.380 . S
O723 Eu683 2.612 . S
O723 C739 1.276 . S
O724 Eu672 2.432 . S
O724 C746 1.264 . S
O725 Eu683 2.339 . S
O725 C746 1.254 . S
O726 Eu683 2.563 . S
O726 C739 1.235 . S
O727 Eu683 2.419 . S
O727 C747 1.249 . S
C728 O717 1.276 . S
C728 O720 1.235 . S
C729 C731 1.393 . S
C729 C733 1.395 . S
C729 C736 1.492 . S
C730 C731 1.392 . S
C730 C732 1.386 . S
C731 C729 1.393 . S
C731 C730 1.392 . S
C731 H748 0.930 . S
C732 C730 1.386 . S
C732 C734 1.395 . S
C732 H749 0.930 . S
C733 C729 1.395 . S
C733 C734 1.379 . S
C733 H750 0.930 . S
C734 C732 1.395 . S
C734 C733 1.379 . S
C734 H751 0.930 . S
C735 O718 1.264 . S
C735 O719 1.254 . S
C736 Eu672 2.848 . S
C736 O716 1.257 . S
C736 O721 1.249 . S
C736 C729 1.492 . S
C737 H702 0.931 . S
C737 C715 1.420 . S
C737 C738 1.351 . S
C738 H700 0.930 . S
C738 C706 1.423 . S
C738 C737 1.351 . S
C739 O723 1.276 . S
C739 O726 1.235 . S
C740 C741 1.393 . S
C740 C744 1.395 . S
C740 C747 1.492 . S
C741 C740 1.393 . S
C741 C742 1.392 . S
C741 H752 0.930 . S
C742 C741 1.392 . S
C742 C743 1.386 . S
C743 C742 1.386 . S
C743 C745 1.395 . S
C743 H753 0.930 . S
C744 C740 1.395 . S
C744 C745 1.379 . S
C744 H754 0.930 . S
C745 C743 1.395 . S
C745 C744 1.379 . S
C745 H755 0.930 . S
C746 O724 1.264 . S
C746 O725 1.254 . S
C747 Eu683 2.848 . S
C747 O722 1.257 . S
C747 O727 1.249 . S
C747 C740 1.492 . S
H748 C731 0.930 . S
H749 C732 0.930 . S
H750 C733 0.930 . S
H751 C734 0.930 . S
H752 C741 0.930 . S
H753 C743 0.930 . S
H754 C744 0.930 . S
H755 C745 0.930 . S
H756 C764 0.929 . S
H757 C766 0.930 . S
H758 C768 0.930 . S
H759 C771 0.929 . S
H760 C774 0.930 . S
H761 C776 0.960 . S
H762 C776 0.960 . S
H763 C776 0.960 . S
C764 H756 0.929 . S
C764 C765 1.377 . S
C764 C766 1.384 . S
C765 C764 1.377 . S
C765 C771 1.390 1_554 S
C766 H757 0.930 . S
C766 C764 1.384 . S
C766 C767 1.372 . S
C767 C766 1.372 . S
C767 C768 1.400 1_554 S
C767 C772 1.490 . S
C768 H758 0.930 . S
C768 C767 1.400 1_556 S
C768 C771 1.386 . S
H769 C785 0.930 . S
H770 C786 0.931 . S
C771 H759 0.929 . S
C771 C765 1.390 1_556 S
C771 C768 1.386 . S
C772 C767 1.490 . S
C772 C774 1.395 . S
C772 C775 1.403 1_554 S
H773 C779 0.930 . S
C774 H760 0.930 . S
C774 C772 1.395 . S
C774 C777 1.403 . S
C775 C772 1.403 1_556 S
C775 C776 1.524 . S
C775 C779 1.400 . S
C776 H761 0.960 . S
C776 H762 0.960 . S
C776 H763 0.960 . S
C776 C775 1.524 . S
C777 C774 1.403 . S
C777 C778 1.392 . S
C777 C781 1.495 . S
C778 C777 1.392 . S
C778 C779 1.385 1_554 S
C778 C780 1.478 . S
C779 H773 0.930 . S
C779 C775 1.400 . S
C779 C778 1.385 1_556 S
C780 C778 1.478 . S
C780 C782 1.381 . S
C780 C786 1.383 1_554 S
C781 C777 1.495 . S
C781 H787 0.959 . S
C781 H788 0.961 . S
C781 H789 0.960 . S
C782 C780 1.381 . S
C782 C783 1.394 . S
C782 H790 0.930 . S
C783 C782 1.394 . S
C783 C784 1.383 . S
C783 H791 0.929 . S
C784 C783 1.383 . S
C784 C785 1.377 1_554 S
C785 H769 0.930 . S
C785 C784 1.377 1_556 S
C785 C786 1.379 . S
C786 H770 0.931 . S
C786 C780 1.383 1_556 S
C786 C785 1.379 . S
H787 C781 0.959 . S
H788 C781 0.961 . S
H789 C781 0.960 . S
H790 C782 0.930 . S
H791 C783 0.929 . S
H792 C800 0.929 . S
H793 C802 0.930 . S
H794 C804 0.910 1_556 S
H795 C807 0.929 1_556 S
H796 C810 0.930 1_556 S
H797 C812 0.960 . S
H798 C812 0.960 . S
H799 C812 0.960 . S
C800 H792 0.929 . S
C800 C801 1.377 . S
C800 C802 1.384 . S
C801 C800 1.377 . S
C801 C807 1.390 . S
C802 H793 0.930 . S
C802 C800 1.384 . S
C802 C803 1.372 . S
C803 C802 1.372 . S
C803 C804 1.419 . S
C803 C808 1.490 . S
C804 H794 0.910 1_554 S
C804 C803 1.419 . S
C804 C807 1.388 . S
H805 C821 0.930 . S
H806 C822 0.931 . S
C807 H795 0.929 1_554 S
C807 C801 1.390 . S
C807 C804 1.388 . S
C808 C803 1.490 . S
C808 C810 1.395 . S
C808 C811 1.403 . S
H809 C815 0.930 . S
C810 H796 0.930 1_554 S
C810 C808 1.395 . S
C810 C813 1.402 1_554 S
C811 C808 1.403 . S
C811 C812 1.524 . S
C811 C815 1.400 . S
C812 H797 0.960 . S
C812 H798 0.960 . S
C812 H799 0.960 . S
C812 C811 1.524 . S
C813 C810 1.402 1_556 S
C813 C814 1.389 1_556 S
C813 C817 1.499 . S
C814 C813 1.389 1_554 S
C814 C815 1.385 . S
C814 C816 1.478 . S
C815 H809 0.930 . S
C815 C811 1.400 . S
C815 C814 1.385 . S
C816 C814 1.478 . S
C816 C818 1.381 . S
C816 C822 1.383 1_554 S
C817 C813 1.499 . S
C817 H823 0.959 . S
C817 H824 0.961 . S
C817 H825 0.930 1_556 S
C818 C816 1.381 . S
C818 C819 1.394 . S
C818 H826 0.930 . S
C819 C818 1.394 . S
C819 C820 1.383 . S
C819 H827 0.929 . S
C820 C819 1.383 . S
C820 C821 1.377 1_554 S
C821 H805 0.930 . S
C821 C820 1.377 1_556 S
C821 C822 1.379 . S
C822 H806 0.931 . S
C822 C816 1.383 1_556 S
C822 C821 1.379 . S
H823 C817 0.959 . S
H824 C817 0.961 . S
H825 C817 0.930 1_554 S
H826 C818 0.930 . S
H827 C819 0.929 . S
H828 C836 0.929 . S
H829 C838 0.930 . S
H830 C840 0.930 . S
H831 C843 0.929 . S
H832 C846 0.930 . S
H833 C848 0.960 . S
H834 C848 0.960 . S
H835 C848 0.960 1_554 S
C836 H828 0.929 . S
C836 C837 1.377 1_556 S
C836 C838 1.384 . S
C837 C836 1.377 1_554 S
C837 C843 1.390 . S
C838 H829 0.930 . S
C838 C836 1.384 . S
C838 C839 1.372 1_556 S
C839 C838 1.372 1_554 S
C839 C840 1.400 . S
C839 C844 1.490 . S
C840 H830 0.930 . S
C840 C839 1.400 . S
C840 C843 1.386 . S
H841 C857 0.930 . S
H842 C858 0.931 . S
C843 H831 0.929 . S
C843 C837 1.390 . S
C843 C840 1.386 . S
C844 C839 1.490 . S
C844 C846 1.395 . S
C844 C847 1.403 . S
H845 C851 0.930 . S
C846 H832 0.930 . S
C846 C844 1.395 . S
C846 C849 1.403 . S
C847 C844 1.403 . S
C847 C848 1.524 1_554 S
C847 C851 1.400 . S
C848 H833 0.960 . S
C848 H834 0.960 . S
C848 H835 0.960 1_556 S
C848 C847 1.524 1_556 S
C849 C846 1.403 . S
C849 C850 1.392 . S
C849 C853 1.495 . S
C850 C849 1.392 . S
C850 C851 1.385 . S
C850 C852 1.478 . S
C851 H845 0.930 . S
C851 C847 1.400 . S
C851 C850 1.385 . S
C852 C850 1.478 . S
C852 C854 1.381 1_554 S
C852 C858 1.383 . S
C853 C849 1.495 . S
C853 H859 0.959 . S
C853 H860 0.961 . S
C853 H861 0.960 . S
C854 C852 1.381 1_556 S
C854 C855 1.394 . S
C854 H862 0.930 . S
C855 C854 1.394 . S
C855 C856 1.383 1_556 S
C855 H863 0.929 . S
C856 C855 1.383 1_554 S
C856 C857 1.377 . S
C857 H841 0.930 . S
C857 C856 1.377 . S
C857 C858 1.379 . S
C858 H842 0.931 . S
C858 C852 1.383 . S
C858 C857 1.379 . S
H859 C853 0.959 . S
H860 C853 0.961 . S
H861 C853 0.960 . S
H862 C854 0.930 . S
H863 C855 0.929 . S
H864 C872 0.929 1_554 S
H865 C874 0.921 1_554 S
H866 C876 0.930 . S
H867 C879 0.929 . S
H868 C882 0.930 . S
H869 C884 0.960 . S
H870 C884 0.960 . S
H871 C884 0.960 . S
C872 H864 0.929 1_556 S
C872 C873 1.377 . S
C872 C874 1.386 . S
C873 C872 1.377 . S
C873 C879 1.390 . S
C874 H865 0.921 1_556 S
C874 C872 1.386 . S
C874 C875 1.379 . S
C875 C874 1.379 . S
C875 C876 1.400 . S
C875 C880 1.490 . S
C876 H866 0.930 . S
C876 C875 1.400 . S
C876 C879 1.386 . S
H877 C893 0.930 . S
H878 C894 0.931 . S
C879 H867 0.929 . S
C879 C873 1.390 . S
C879 C876 1.386 . S
C880 C875 1.490 . S
C880 C882 1.395 . S
C880 C883 1.403 1_556 S
H881 C887 0.930 . S
C882 H868 0.930 . S
C882 C880 1.395 . S
C882 C885 1.403 . S
C883 C880 1.403 1_554 S
C883 C884 1.524 . S
C883 C887 1.400 . S
C884 H869 0.960 . S
C884 H870 0.960 . S
C884 H871 0.960 . S
C884 C883 1.524 . S
C885 C882 1.403 . S
C885 C886 1.392 . S
C885 C889 1.495 . S
C886 C885 1.392 . S
C886 C887 1.385 1_556 S
C886 C888 1.478 . S
C887 H881 0.930 . S
C887 C883 1.400 . S
C887 C886 1.385 1_554 S
C888 C886 1.478 . S
C888 C890 1.381 1_556 S
C888 C894 1.383 . S
C889 C885 1.495 . S
C889 H895 0.959 . S
C889 H896 0.961 . S
C889 H897 0.960 . S
C890 C888 1.381 1_554 S
C890 C891 1.394 . S
C890 H898 0.930 . S
C891 C890 1.394 . S
C891 C892 1.383 . S
C891 H899 0.929 . S
C892 C891 1.383 . S
C892 C893 1.377 1_554 S
C893 H877 0.930 . S
C893 C892 1.377 1_556 S
C893 C894 1.379 . S
C894 H878 0.931 . S
C894 C888 1.383 . S
C894 C893 1.379 . S
H895 C889 0.959 . S
H896 C889 0.961 . S
H897 C889 0.960 . S
H898 C890 0.930 . S
H899 C891 0.929 . S
H900 C908 0.929 . S
H901 C910 0.930 . S
H902 C912 0.930 . S
H903 C915 0.929 . S
H904 C918 0.930 1_554 S
H905 C920 0.960 . S
H906 C920 0.960 1_554 S
H907 C920 0.960 . S
C908 H900 0.929 . S
C908 C909 1.377 . S
C908 C910 1.384 . S
C909 C908 1.377 . S
C909 C915 1.390 1_554 S
C910 H901 0.930 . S
C910 C908 1.384 . S
C910 C911 1.395 . S
C911 C910 1.395 . S
C911 C912 1.378 1_554 S
C911 C916 1.489 1_554 S
C912 H902 0.930 . S
C912 C911 1.378 1_556 S
C912 C915 1.386 . S
H913 C929 0.930 . S
H914 C930 0.931 . S
C915 H903 0.929 . S
C915 C909 1.390 1_556 S
C915 C912 1.386 . S
C916 C911 1.489 1_556 S
C916 C918 1.394 . S
C916 C919 1.403 . S
H917 C923 0.930 . S
C918 H904 0.930 1_556 S
C918 C916 1.394 . S
C918 C921 1.403 . S
C919 C916 1.403 . S
C919 C920 1.524 . S
C919 C923 1.400 . S
C920 H905 0.960 . S
C920 H906 0.960 1_556 S
C920 H907 0.960 . S
C920 C919 1.524 . S
C921 C918 1.403 . S
C921 C922 1.392 . S
C921 C925 1.495 . S
C922 C921 1.392 . S
C922 C923 1.385 . S
C922 C924 1.478 . S
C923 H917 0.930 . S
C923 C919 1.400 . S
C923 C922 1.385 . S
C924 C922 1.478 . S
C924 C926 1.381 1_556 S
C924 C930 1.383 . S
C925 C921 1.495 . S
C925 H931 0.955 1_556 S
C925 H932 0.961 . S
C925 H933 0.960 1_556 S
C926 C924 1.381 1_554 S
C926 C927 1.394 . S
C926 H934 0.930 . S
C927 C926 1.394 . S
C927 C928 1.383 1_554 S
C927 H935 0.929 . S
C928 C927 1.383 1_556 S
C928 C929 1.377 . S
C929 H913 0.930 . S
C929 C928 1.377 . S
C929 C930 1.379 . S
C930 H914 0.931 . S
C930 C924 1.383 . S
C930 C929 1.379 . S
H931 C925 0.955 1_554 S
H932 C925 0.961 . S
H933 C925 0.960 1_554 S
H934 C926 0.930 . S
H935 C927 0.929 . S
H936 C944 0.929 . S
H937 C946 0.930 . S
H938 C948 0.930 . S
H939 C951 0.929 . S
H940 C954 0.930 . S
H941 C956 0.960 . S
H942 C956 0.960 . S
H943 C956 0.960 . S
C944 H936 0.929 . S
C944 C945 1.377 . S
C944 C946 1.384 . S
C945 C944 1.377 . S
C945 C951 1.390 1_554 S
C946 H937 0.930 . S
C946 C944 1.384 . S
C946 C947 1.398 . S
C947 C946 1.398 . S
C947 C948 1.375 1_554 S
C947 C952 1.488 1_554 S
C948 H938 0.930 . S
C948 C947 1.375 1_556 S
C948 C951 1.386 . S
H949 C965 0.930 . S
H950 C966 0.931 . S
C951 H939 0.929 . S
C951 C945 1.390 1_556 S
C951 C948 1.386 . S
C952 C947 1.488 1_556 S
C952 C954 1.383 1_556 S
C952 C955 1.415 . S
H953 C959 0.930 . S
C954 H940 0.930 . S
C954 C952 1.383 1_554 S
C954 C957 1.403 . S
C955 C952 1.415 . S
C955 C956 1.524 . S
C955 C959 1.400 . S
C956 H941 0.960 . S
C956 H942 0.960 . S
C956 H943 0.960 . S
C956 C955 1.524 . S
C957 C954 1.403 . S
C957 C958 1.392 1_554 S
C957 C961 1.495 . S
C958 C957 1.392 1_556 S
C958 C959 1.385 . S
C958 C960 1.478 . S
C959 H953 0.930 . S
C959 C955 1.400 . S
C959 C958 1.385 . S
C960 C958 1.478 . S
C960 C962 1.381 1_556 S
C960 C966 1.383 . S
C961 C957 1.495 . S
C961 H967 0.959 . S
C961 H968 0.961 . S
C961 H969 0.960 . S
C962 C960 1.381 1_554 S
C962 C963 1.394 . S
C962 H970 0.930 . S
C963 C962 1.394 . S
C963 C964 1.383 1_554 S
C963 H971 0.929 . S
C964 C963 1.383 1_556 S
C964 C965 1.377 . S
C965 H949 0.930 . S
C965 C964 1.377 . S
C965 C966 1.379 . S
C966 H950 0.931 . S
C966 C960 1.383 . S
C966 C965 1.379 . S
H967 C961 0.959 . S
H968 C961 0.961 . S
H969 C961 0.960 . S
H970 C962 0.930 . S
H971 C963 0.929 . S
H972 C980 0.929 . S
H973 C982 0.930 . S
H974 C984 0.930 . S
H975 C987 0.929 . S
H976 C990 0.930 . S
H977 C992 0.960 . S
H978 C992 0.960 . S
H979 C992 0.960 . S
C980 H972 0.929 . S
C980 C981 1.377 . S
C980 C982 1.384 . S
C981 C980 1.377 . S
C981 C987 1.390 . S
C982 H973 0.930 . S
C982 C980 1.384 . S
C982 C983 1.372 . S
C983 C982 1.372 . S
C983 C984 1.400 . S
C983 C988 1.490 . S
C984 H974 0.930 . S
C984 C983 1.400 . S
C984 C987 1.386 . S
H985 C1001 0.930 . S
H986 C1002 0.931 . S
C987 H975 0.929 . S
C987 C981 1.390 . S
C987 C984 1.386 . S
C988 C983 1.490 . S
C988 C990 1.395 . S
C988 C991 1.403 . S
H989 C995 0.930 . S
C990 H976 0.930 . S
C990 C988 1.395 . S
C990 C993 1.403 . S
C991 C988 1.403 . S
C991 C992 1.524 . S
C991 C995 1.400 . S
C992 H977 0.960 . S
C992 H978 0.960 . S
C992 H979 0.960 . S
C992 C991 1.524 . S
C993 C990 1.403 . S
C993 C994 1.392 . S
C993 C997 1.495 . S
C994 C993 1.392 . S
C994 C995 1.385 . S
C994 C996 1.478 . S
C995 H989 0.930 . S
C995 C991 1.400 . S
C995 C994 1.385 . S
C996 C994 1.478 . S
C996 C998 1.381 . S
C996 C1002 1.383 . S
C997 C993 1.495 . S
C997 H1003 0.959 . S
C997 H1004 0.961 . S
C997 H1005 0.960 . S
C998 C996 1.381 . S
C998 C999 1.394 1_655 S
C998 H1006 0.930 . S
C999 C998 1.394 1_455 S
C999 C1000 1.383 . S
C999 H1007 0.929 . S
C1000 C999 1.383 . S
C1000 C1001 1.377 1_455 S
C1001 H985 0.930 . S
C1001 C1000 1.377 1_655 S
C1001 C1002 1.379 . S
C1002 H986 0.931 . S
C1002 C996 1.383 . S
C1002 C1001 1.379 . S
H1003 C997 0.959 . S
H1004 C997 0.961 . S
H1005 C997 0.960 . S
H1006 C998 0.930 . S
H1007 C999 0.929 . S
H1008 C1016 0.929 . S
H1009 C1018 0.930 . S
H1010 C1020 0.930 . S
H1011 C1023 0.929 . S
H1012 C1026 0.930 . S
H1013 C1028 0.960 . S
H1014 C1028 0.960 . S
H1015 C1028 0.960 . S
C1016 H1008 0.929 . S
C1016 C1017 1.377 . S
C1016 C1018 1.384 . S
C1017 C1016 1.377 . S
C1017 C1023 1.390 . S
C1018 H1009 0.930 . S
C1018 C1016 1.384 . S
C1018 C1019 1.372 . S
C1019 C1018 1.372 . S
C1019 C1020 1.400 . S
C1019 C1024 1.490 . S
C1020 H1010 0.930 . S
C1020 C1019 1.400 . S
C1020 C1023 1.386 . S
H1021 C1037 0.930 . S
H1022 C1038 0.932 . S
C1023 H1011 0.929 . S
C1023 C1017 1.390 . S
C1023 C1020 1.386 . S
C1024 C1019 1.490 . S
C1024 C1026 1.395 . S
C1024 C1027 1.403 . S
H1025 C1031 0.930 . S
C1026 H1012 0.930 . S
C1026 C1024 1.395 . S
C1026 C1029 1.403 . S
C1027 C1024 1.403 . S
C1027 C1028 1.524 . S
C1027 C1031 1.400 . S
C1028 H1013 0.960 . S
C1028 H1014 0.960 . S
C1028 H1015 0.960 . S
C1028 C1027 1.524 . S
C1029 C1026 1.403 . S
C1029 C1030 1.392 . S
C1029 C1033 1.495 1_545 S
C1030 C1029 1.392 . S
C1030 C1031 1.385 . S
C1030 C1032 1.478 1_545 S
C1031 H1025 0.930 . S
C1031 C1027 1.400 . S
C1031 C1030 1.385 . S
C1032 C1030 1.478 1_565 S
C1032 C1034 1.381 . S
C1032 C1038 1.383 1_565 S
C1033 C1029 1.495 1_565 S
C1033 H1039 0.959 1_565 S
C1033 H1040 0.961 . S
C1033 H1041 0.960 . S
C1034 C1032 1.381 . S
C1034 C1035 1.394 . S
C1034 H1042 0.930 . S
C1035 C1034 1.394 . S
C1035 C1036 1.383 . S
C1035 H1043 0.929 . S
C1036 C1035 1.383 . S
C1036 C1037 1.377 . S
C1037 H1021 0.930 . S
C1037 C1036 1.377 . S
C1037 C1038 1.377 1_565 S
C1038 H1022 0.932 . S
C1038 C1032 1.383 1_545 S
C1038 C1037 1.377 1_545 S
H1039 C1033 0.959 1_545 S
H1040 C1033 0.961 . S
H1041 C1033 0.960 . S
H1042 C1034 0.930 . S
H1043 C1035 0.929 . S
H1044 C1052 0.929 . S
H1045 C1054 0.930 . S
H1046 C1056 0.930 . S
H1047 C1059 0.929 . S
H1048 C1062 0.930 1_455 S
H1049 C1064 0.960 . S
H1050 C1064 0.960 . S
H1051 C1064 0.960 . S
C1052 H1044 0.929 . S
C1052 C1053 1.377 . S
C1052 C1054 1.384 . S
C1053 C1052 1.377 . S
C1053 C1059 1.390 . S
C1054 H1045 0.930 . S
C1054 C1052 1.384 . S
C1054 C1055 1.372 . S
C1055 C1054 1.372 . S
C1055 C1056 1.400 . S
C1055 C1060 1.490 1_455 S
C1056 H1046 0.930 . S
C1056 C1055 1.400 . S
C1056 C1059 1.386 . S
H1057 C1073 0.930 1_565 S
H1058 C1074 0.931 . S
C1059 H1047 0.929 . S
C1059 C1053 1.390 . S
C1059 C1056 1.386 . S
C1060 C1055 1.490 1_655 S
C1060 C1062 1.395 . S
C1060 C1063 1.403 . S
H1061 C1067 0.930 . S
C1062 H1048 0.930 1_655 S
C1062 C1060 1.395 . S
C1062 C1065 1.403 . S
C1063 C1060 1.403 . S
C1063 C1064 1.524 . S
C1063 C1067 1.400 . S
C1064 H1049 0.960 . S
C1064 H1050 0.960 . S
C1064 H1051 0.960 . S
C1064 C1063 1.524 . S
C1065 C1062 1.403 . S
C1065 C1066 1.392 . S
C1065 C1069 1.495 . S
C1066 C1065 1.392 . S
C1066 C1067 1.385 . S
C1066 C1068 1.478 . S
C1067 H1061 0.930 . S
C1067 C1063 1.400 . S
C1067 C1066 1.385 . S
C1068 C1066 1.478 . S
C1068 C1070 1.381 . S
C1068 C1074 1.383 . S
C1069 C1065 1.495 . S
C1069 H1075 0.959 . S
C1069 H1076 0.961 . S
C1069 H1077 0.960 . S
C1070 C1068 1.381 . S
C1070 C1071 1.394 . S
C1070 H1078 0.930 . S
C1071 C1070 1.394 . S
C1071 C1072 1.363 1_545 S
C1071 H1079 0.929 . S
C1072 C1071 1.363 1_565 S
C1072 C1073 1.378 1_565 S
C1073 H1057 0.930 1_545 S
C1073 C1072 1.378 1_545 S
C1073 C1074 1.379 . S
C1074 H1058 0.931 . S
C1074 C1068 1.383 . S
C1074 C1073 1.379 . S
H1075 C1069 0.959 . S
H1076 C1069 0.961 . S
H1077 C1069 0.960 . S
H1078 C1070 0.930 . S
H1079 C1071 0.929 . S
H1080 C1088 0.929 . S
H1081 C1090 0.930 . S
H1082 C1092 0.930 . S
H1083 C1095 0.929 . S
H1084 C1098 0.930 . S
H1085 C1100 0.960 . S
H1086 C1100 0.960 . S
H1087 C1100 0.960 . S
C1088 H1080 0.929 . S
C1088 C1089 1.377 . S
C1088 C1090 1.384 . S
C1089 C1088 1.377 . S
C1089 C1095 1.390 . S
C1090 H1081 0.930 . S
C1090 C1088 1.384 . S
C1090 C1091 1.372 . S
C1091 C1090 1.372 . S
C1091 C1092 1.400 . S
C1091 C1096 1.490 . S
C1092 H1082 0.930 . S
C1092 C1091 1.400 . S
C1092 C1095 1.386 . S
H1093 C1109 0.930 . S
H1094 C1110 0.931 . S
C1095 H1083 0.929 . S
C1095 C1089 1.390 . S
C1095 C1092 1.386 . S
C1096 C1091 1.490 . S
C1096 C1098 1.395 . S
C1096 C1099 1.403 . S
H1097 C1103 0.930 . S
C1098 H1084 0.930 . S
C1098 C1096 1.395 . S
C1098 C1101 1.403 . S
C1099 C1096 1.403 . S
C1099 C1100 1.524 . S
C1099 C1103 1.400 . S
C1100 H1085 0.960 . S
C1100 H1086 0.960 . S
C1100 H1087 0.960 . S
C1100 C1099 1.524 . S
C1101 C1098 1.403 . S
C1101 C1102 1.392 . S
C1101 C1105 1.495 . S
C1102 C1101 1.392 . S
C1102 C1103 1.385 . S
C1102 C1104 1.478 . S
C1103 H1097 0.930 . S
C1103 C1099 1.400 . S
C1103 C1102 1.385 . S
C1104 C1102 1.478 . S
C1104 C1106 1.381 . S
C1104 C1110 1.383 . S
C1105 C1101 1.495 . S
C1105 H1111 0.959 . S
C1105 H1112 0.961 . S
C1105 H1113 0.960 . S
C1106 C1104 1.381 . S
C1106 C1107 1.394 . S
C1106 H1114 0.930 . S
C1107 C1106 1.394 . S
C1107 C1108 1.383 . S
C1107 H1115 0.929 . S
C1108 C1107 1.383 . S
C1108 C1109 1.377 . S
C1109 H1093 0.930 . S
C1109 C1108 1.377 . S
C1109 C1110 1.379 . S
C1110 H1094 0.931 . S
C1110 C1104 1.383 . S
C1110 C1109 1.379 . S
H1111 C1105 0.959 . S
H1112 C1105 0.961 . S
H1113 C1105 0.960 . S
H1114 C1106 0.930 . S
H1115 C1107 0.929 . S
H1116 C1124 0.929 . S
H1117 C1126 0.930 . S
H1118 C1128 0.930 . S
H1119 C1131 0.929 . S
H1120 C1134 0.930 . S
H1121 C1136 0.960 . S
H1122 C1136 0.960 . S
H1123 C1136 0.960 . S
C1124 H1116 0.929 . S
C1124 C1125 1.377 . S
C1124 C1126 1.384 . S
C1125 C1124 1.377 . S
C1125 C1131 1.390 . S
C1126 H1117 0.930 . S
C1126 C1124 1.384 . S
C1126 C1127 1.372 . S
C1127 C1126 1.372 . S
C1127 C1128 1.400 . S
C1127 C1132 1.490 . S
C1128 H1118 0.930 . S
C1128 C1127 1.400 . S
C1128 C1131 1.386 . S
H1129 C1145 0.930 . S
H1130 C1146 0.931 . S
C1131 H1119 0.929 . S
C1131 C1125 1.390 . S
C1131 C1128 1.386 . S
C1132 C1127 1.490 . S
C1132 C1134 1.395 . S
C1132 C1135 1.403 . S
H1133 C1139 0.930 . S
C1134 H1120 0.930 . S
C1134 C1132 1.395 . S
C1134 C1137 1.403 . S
C1135 C1132 1.403 . S
C1135 C1136 1.524 . S
C1135 C1139 1.400 . S
C1136 H1121 0.960 . S
C1136 H1122 0.960 . S
C1136 H1123 0.960 . S
C1136 C1135 1.524 . S
C1137 C1134 1.403 . S
C1137 C1138 1.392 . S
C1137 C1141 1.495 . S
C1138 C1137 1.392 . S
C1138 C1139 1.385 . S
C1138 C1140 1.478 . S
C1139 H1133 0.930 . S
C1139 C1135 1.400 . S
C1139 C1138 1.385 . S
C1140 C1138 1.478 . S
C1140 C1142 1.381 . S
C1140 C1146 1.383 . S
C1141 C1137 1.495 . S
C1141 H1147 0.959 . S
C1141 H1148 0.961 . S
C1141 H1149 0.960 . S
C1142 C1140 1.381 . S
C1142 C1143 1.394 . S
C1142 H1150 0.930 . S
C1143 C1142 1.394 . S
C1143 C1144 1.383 . S
C1143 H1151 0.929 . S
C1144 C1143 1.383 . S
C1144 C1145 1.377 . S
C1145 H1129 0.930 . S
C1145 C1144 1.377 . S
C1145 C1146 1.379 . S
C1146 H1130 0.931 . S
C1146 C1140 1.383 . S
C1146 C1145 1.379 . S
H1147 C1141 0.959 . S
H1148 C1141 0.961 . S
H1149 C1141 0.960 . S
H1150 C1142 0.930 . S
H1151 C1143 0.929 . S
H1152 C1160 0.929 . S
H1153 C1162 0.930 . S
H1154 C1164 0.930 . S
H1155 C1167 0.929 . S
H1156 C1170 0.930 . S
H1157 C1172 0.960 . S
H1158 C1172 0.960 . S
H1159 C1172 0.960 . S
C1160 H1152 0.929 . S
C1160 C1161 1.377 . S
C1160 C1162 1.384 . S
C1161 C1160 1.377 . S
C1161 C1167 1.390 . S
C1162 H1153 0.930 . S
C1162 C1160 1.384 . S
C1162 C1163 1.372 . S
C1163 C1162 1.372 . S
C1163 C1164 1.400 . S
C1163 C1168 1.490 . S
C1164 H1154 0.930 . S
C1164 C1163 1.400 . S
C1164 C1167 1.386 . S
H1165 C1181 0.930 . S
H1166 C1182 0.931 . S
C1167 H1155 0.929 . S
C1167 C1161 1.390 . S
C1167 C1164 1.386 . S
C1168 C1163 1.490 . S
C1168 C1170 1.395 . S
C1168 C1171 1.403 . S
H1169 C1175 0.930 . S
C1170 H1156 0.930 . S
C1170 C1168 1.395 . S
C1170 C1173 1.403 . S
C1171 C1168 1.403 . S
C1171 C1172 1.524 . S
C1171 C1175 1.400 . S
C1172 H1157 0.960 . S
C1172 H1158 0.960 . S
C1172 H1159 0.960 . S
C1172 C1171 1.524 . S
C1173 C1170 1.403 . S
C1173 C1174 1.392 . S
C1173 C1177 1.495 . S
C1174 C1173 1.392 . S
C1174 C1175 1.385 . S
C1174 C1176 1.478 . S
C1175 H1169 0.930 . S
C1175 C1171 1.400 . S
C1175 C1174 1.385 . S
C1176 C1174 1.478 . S
C1176 C1178 1.381 . S
C1176 C1182 1.383 . S
C1177 C1173 1.495 . S
C1177 H1183 0.959 . S
C1177 H1184 0.961 . S
C1177 H1185 0.960 . S
C1178 C1176 1.381 . S
C1178 C1179 1.394 . S
C1178 H1186 0.930 . S
C1179 C1178 1.394 . S
C1179 C1180 1.383 . S
C1179 H1187 0.929 . S
C1180 C1179 1.383 . S
C1180 C1181 1.377 . S
C1181 H1165 0.930 . S
C1181 C1180 1.377 . S
C1181 C1182 1.379 . S
C1182 H1166 0.931 . S
C1182 C1176 1.383 . S
C1182 C1181 1.379 . S
H1183 C1177 0.959 . S
H1184 C1177 0.961 . S
H1185 C1177 0.960 . S
H1186 C1178 0.930 . S
H1187 C1179 0.929 . S
H1188 C1196 0.929 . S
H1189 C1198 0.930 . S
H1190 C1200 0.930 . S
H1191 C1203 0.929 . S
H1192 C1206 0.930 . S
H1193 C1208 0.960 . S
H1194 C1208 0.960 . S
H1195 C1208 0.960 . S
C1196 H1188 0.929 . S
C1196 C1197 1.377 . S
C1196 C1198 1.384 . S
C1197 C1196 1.377 . S
C1197 C1203 1.390 . S
C1198 H1189 0.930 . S
C1198 C1196 1.384 . S
C1198 C1199 1.372 . S
C1199 C1198 1.372 . S
C1199 C1200 1.400 . S
C1199 C1204 1.490 . S
C1200 H1190 0.930 . S
C1200 C1199 1.400 . S
C1200 C1203 1.386 . S
H1201 C1217 0.930 . S
H1202 C1218 0.931 . S
C1203 H1191 0.929 . S
C1203 C1197 1.390 . S
C1203 C1200 1.386 . S
C1204 C1199 1.490 . S
C1204 C1206 1.395 . S
C1204 C1207 1.403 . S
H1205 C1211 0.930 . S
C1206 H1192 0.930 . S
C1206 C1204 1.395 . S
C1206 C1209 1.403 . S
C1207 C1204 1.403 . S
C1207 C1208 1.524 . S
C1207 C1211 1.400 . S
C1208 H1193 0.960 . S
C1208 H1194 0.960 . S
C1208 H1195 0.960 . S
C1208 C1207 1.524 . S
C1209 C1206 1.403 . S
C1209 C1210 1.392 . S
C1209 C1213 1.495 . S
C1210 C1209 1.392 . S
C1210 C1211 1.385 . S
C1210 C1212 1.478 . S
C1211 H1205 0.930 . S
C1211 C1207 1.400 . S
C1211 C1210 1.385 . S
C1212 C1210 1.478 . S
C1212 C1214 1.381 . S
C1212 C1218 1.383 . S
C1213 C1209 1.495 . S
C1213 H1219 0.959 . S
C1213 H1220 0.961 . S
C1213 H1221 0.960 . S
C1214 C1212 1.381 . S
C1214 C1215 1.394 . S
C1214 H1222 0.930 . S
C1215 C1214 1.394 . S
C1215 C1216 1.383 . S
C1215 H1223 0.929 . S
C1216 C1215 1.383 . S
C1216 C1217 1.377 . S
C1217 H1201 0.930 . S
C1217 C1216 1.377 . S
C1217 C1218 1.379 . S
C1218 H1202 0.931 . S
C1218 C1212 1.383 . S
C1218 C1217 1.379 . S
H1219 C1213 0.959 . S
H1220 C1213 0.961 . S
H1221 C1213 0.960 . S
H1222 C1214 0.930 . S
H1223 C1215 0.929 . S
H1224 C1232 0.929 . S
H1225 C1234 0.930 . S
H1226 C1236 0.930 . S
H1227 C1239 0.929 . S
H1228 C1242 0.930 . S
H1229 C1244 0.960 . S
H1230 C1244 0.960 . S
H1231 C1244 0.960 . S
C1232 H1224 0.929 . S
C1232 C1233 1.377 . S
C1232 C1234 1.384 . S
C1233 C1232 1.377 . S
C1233 C1239 1.390 . S
C1234 H1225 0.930 . S
C1234 C1232 1.384 . S
C1234 C1235 1.372 . S
C1235 C1234 1.372 . S
C1235 C1236 1.400 . S
C1235 C1240 1.490 . S
C1236 H1226 0.930 . S
C1236 C1235 1.400 . S
C1236 C1239 1.386 . S
H1237 C1253 0.930 . S
H1238 C1254 0.931 . S
C1239 H1227 0.929 . S
C1239 C1233 1.390 . S
C1239 C1236 1.386 . S
C1240 C1235 1.490 . S
C1240 C1242 1.395 . S
C1240 C1243 1.403 . S
H1241 C1247 0.930 . S
C1242 H1228 0.930 . S
C1242 C1240 1.395 . S
C1242 C1245 1.403 . S
C1243 C1240 1.403 . S
C1243 C1244 1.524 . S
C1243 C1247 1.400 . S
C1244 H1229 0.960 . S
C1244 H1230 0.960 . S
C1244 H1231 0.960 . S
C1244 C1243 1.524 . S
C1245 C1242 1.403 . S
C1245 C1246 1.392 . S
C1245 C1249 1.495 . S
C1246 C1245 1.392 . S
C1246 C1247 1.385 . S
C1246 C1248 1.478 . S
C1247 H1241 0.930 . S
C1247 C1243 1.400 . S
C1247 C1246 1.385 . S
C1248 C1246 1.478 . S
C1248 C1250 1.381 . S
C1248 C1254 1.383 . S
C1249 C1245 1.495 . S
C1249 H1255 0.959 . S
C1249 H1256 0.961 . S
C1249 H1257 0.960 . S
C1250 C1248 1.381 . S
C1250 C1251 1.394 . S
C1250 H1258 0.930 . S
C1251 C1250 1.394 . S
C1251 C1252 1.383 . S
C1251 H1259 0.929 . S
C1252 C1251 1.383 . S
C1252 C1253 1.377 . S
C1253 H1237 0.930 . S
C1253 C1252 1.377 . S
C1253 C1254 1.379 . S
C1254 H1238 0.931 . S
C1254 C1248 1.383 . S
C1254 C1253 1.379 . S
H1255 C1249 0.959 . S
H1256 C1249 0.961 . S
H1257 C1249 0.960 . S
H1258 C1250 0.930 . S
H1259 C1251 0.929 . S
H1260 C1268 0.929 . S
H1261 C1270 0.930 . S
H1262 C1272 0.930 . S
H1263 C1275 0.929 . S
H1264 C1278 0.930 . S
H1265 C1280 0.960 . S
H1266 C1280 0.960 . S
H1267 C1280 0.960 . S
C1268 H1260 0.929 . S
C1268 C1269 1.377 . S
C1268 C1270 1.384 . S
C1269 C1268 1.377 . S
C1269 C1275 1.390 . S
C1270 H1261 0.930 . S
C1270 C1268 1.384 . S
C1270 C1271 1.372 . S
C1271 C1270 1.372 . S
C1271 C1272 1.400 . S
C1271 C1276 1.490 . S
C1272 H1262 0.930 . S
C1272 C1271 1.400 . S
C1272 C1275 1.386 . S
H1273 C1289 0.930 . S
H1274 C1290 0.931 . S
C1275 H1263 0.929 . S
C1275 C1269 1.390 . S
C1275 C1272 1.386 . S
C1276 C1271 1.490 . S
C1276 C1278 1.395 . S
C1276 C1279 1.403 . S
H1277 C1283 0.930 . S
C1278 H1264 0.930 . S
C1278 C1276 1.395 . S
C1278 C1281 1.403 . S
C1279 C1276 1.403 . S
C1279 C1280 1.524 . S
C1279 C1283 1.400 . S
C1280 H1265 0.960 . S
C1280 H1266 0.960 . S
C1280 H1267 0.960 . S
C1280 C1279 1.524 . S
C1281 C1278 1.403 . S
C1281 C1282 1.392 . S
C1281 C1285 1.495 . S
C1282 C1281 1.392 . S
C1282 C1283 1.385 . S
C1282 C1284 1.478 . S
C1283 H1277 0.930 . S
C1283 C1279 1.400 . S
C1283 C1282 1.385 . S
C1284 C1282 1.478 . S
C1284 C1286 1.381 . S
C1284 C1290 1.383 . S
C1285 C1281 1.495 . S
C1285 H1291 0.959 . S
C1285 H1292 0.961 . S
C1285 H1293 0.960 . S
C1286 C1284 1.381 . S
C1286 C1287 1.394 . S
C1286 H1294 0.930 . S
C1287 C1286 1.394 . S
C1287 C1288 1.383 . S
C1287 H1295 0.929 . S
C1288 C1287 1.383 . S
C1288 C1289 1.377 . S
C1289 H1273 0.930 . S
C1289 C1288 1.377 . S
C1289 C1290 1.379 . S
C1290 H1274 0.931 . S
C1290 C1284 1.383 . S
C1290 C1289 1.379 . S
H1291 C1285 0.959 . S
H1292 C1285 0.961 . S
H1293 C1285 0.960 . S
H1294 C1286 0.930 . S
H1295 C1287 0.929 . S
H1296 C1304 0.929 . S
H1297 C1306 0.930 . S
H1298 C1308 0.930 . S
H1299 C1311 0.929 . S
H1300 C1314 0.930 . S
H1301 C1316 0.960 . S
H1302 C1316 0.960 . S
H1303 C1316 0.960 . S
C1304 H1296 0.929 . S
C1304 C1305 1.377 . S
C1304 C1306 1.384 . S
C1305 C1304 1.377 . S
C1305 C1311 1.390 . S
C1306 H1297 0.930 . S
C1306 C1304 1.384 . S
C1306 C1307 1.372 . S
C1307 C1306 1.372 . S
C1307 C1308 1.400 . S
C1307 C1312 1.490 . S
C1308 H1298 0.930 . S
C1308 C1307 1.400 . S
C1308 C1311 1.386 . S
H1309 C1325 0.930 . S
H1310 C1326 0.931 . S
C1311 H1299 0.929 . S
C1311 C1305 1.390 . S
C1311 C1308 1.386 . S
C1312 C1307 1.490 . S
C1312 C1314 1.395 . S
C1312 C1315 1.403 . S
H1313 C1319 0.930 . S
C1314 H1300 0.930 . S
C1314 C1312 1.395 . S
C1314 C1317 1.403 1_565 S
C1315 C1312 1.403 . S
C1315 C1316 1.524 . S
C1315 C1319 1.400 1_565 S
C1316 H1301 0.960 . S
C1316 H1302 0.960 . S
C1316 H1303 0.960 . S
C1316 C1315 1.524 . S
C1317 C1314 1.403 1_545 S
C1317 C1318 1.392 . S
C1317 C1321 1.495 . S
C1318 C1317 1.392 . S
C1318 C1319 1.385 . S
C1318 C1320 1.478 . S
C1319 H1313 0.930 . S
C1319 C1315 1.400 1_545 S
C1319 C1318 1.385 . S
C1320 C1318 1.478 . S
C1320 C1322 1.381 . S
C1320 C1326 1.383 . S
C1321 C1317 1.495 . S
C1321 H1327 0.959 . S
C1321 H1328 0.961 . S
C1321 H1329 0.960 . S
C1322 C1320 1.381 . S
C1322 C1323 1.394 . S
C1322 H1330 0.930 . S
C1323 C1322 1.394 . S
C1323 C1324 1.383 . S
C1323 H1331 0.929 . S
C1324 C1323 1.383 . S
C1324 C1325 1.377 . S
C1325 H1309 0.930 . S
C1325 C1324 1.377 . S
C1325 C1326 1.379 . S
C1326 H1310 0.931 . S
C1326 C1320 1.383 . S
C1326 C1325 1.379 . S
H1327 C1321 0.959 . S
H1328 C1321 0.961 . S
H1329 C1321 0.960 . S
H1330 C1322 0.930 . S
H1331 C1323 0.929 . S
H1332 C1340 0.929 . S
H1333 C1342 0.930 . S
H1334 C1344 0.930 . S
H1335 C1347 0.929 . S
H1336 C1350 0.928 . S
H1337 C1352 0.960 . S
H1338 C1352 0.960 1_655 S
H1339 C1352 0.960 1_655 S
C1340 H1332 0.929 . S
C1340 C1341 1.377 . S
C1340 C1342 1.384 . S
C1341 C1340 1.377 . S
C1341 C1347 1.390 . S
C1342 H1333 0.930 . S
C1342 C1340 1.384 . S
C1342 C1343 1.372 . S
C1343 C1342 1.372 . S
C1343 C1344 1.400 . S
C1343 C1348 1.490 . S
C1344 H1334 0.930 . S
C1344 C1343 1.400 . S
C1344 C1347 1.386 . S
H1345 C1361 0.930 . S
H1346 C1362 0.931 . S
C1347 H1335 0.929 . S
C1347 C1341 1.390 . S
C1347 C1344 1.386 . S
C1348 C1343 1.490 . S
C1348 C1350 1.395 . S
C1348 C1351 1.403 1_655 S
H1349 C1355 0.930 . S
C1350 H1336 0.928 . S
C1350 C1348 1.395 . S
C1350 C1353 1.405 1_655 S
C1351 C1348 1.403 1_455 S
C1351 C1352 1.524 . S
C1351 C1355 1.400 . S
C1352 H1337 0.960 . S
C1352 H1338 0.960 1_455 S
C1352 H1339 0.960 1_455 S
C1352 C1351 1.524 . S
C1353 C1350 1.405 1_455 S
C1353 C1354 1.392 . S
C1353 C1357 1.495 . S
C1354 C1353 1.392 . S
C1354 C1355 1.385 . S
C1354 C1356 1.478 . S
C1355 H1349 0.930 . S
C1355 C1351 1.400 . S
C1355 C1354 1.385 . S
C1356 C1354 1.478 . S
C1356 C1358 1.381 . S
C1356 C1362 1.383 . S
C1357 C1353 1.495 . S
C1357 H1363 0.959 . S
C1357 H1364 0.961 . S
C1357 H1365 0.960 . S
C1358 C1356 1.381 . S
C1358 C1359 1.394 . S
C1358 H1366 0.930 . S
C1359 C1358 1.394 . S
C1359 C1360 1.383 . S
C1359 H1367 0.929 . S
C1360 C1359 1.383 . S
C1360 C1361 1.377 . S
C1361 H1345 0.930 . S
C1361 C1360 1.377 . S
C1361 C1362 1.379 . S
C1362 H1346 0.931 . S
C1362 C1356 1.383 . S
C1362 C1361 1.379 . S
H1363 C1357 0.959 . S
H1364 C1357 0.961 . S
H1365 C1357 0.960 . S
H1366 C1358 0.930 . S
H1367 C1359 0.929 . S
H1368 C1376 0.929 . S
H1369 C1378 0.930 . S
H1370 C1380 0.930 . S
H1371 C1383 0.929 . S
H1372 C1386 0.930 . S
H1373 C1388 0.960 . S
H1374 C1388 0.960 . S
H1375 C1388 0.960 . S
C1376 H1368 0.929 . S
C1376 C1377 1.377 . S
C1376 C1378 1.384 . S
C1377 C1376 1.377 . S
C1377 C1383 1.390 . S
C1378 H1369 0.930 . S
C1378 C1376 1.384 . S
C1378 C1379 1.372 . S
C1379 C1378 1.372 . S
C1379 C1380 1.400 . S
C1379 C1384 1.490 . S
C1380 H1370 0.930 . S
C1380 C1379 1.400 . S
C1380 C1383 1.386 . S
H1381 C1397 0.930 . S
H1382 C1398 0.931 . S
C1383 H1371 0.929 . S
C1383 C1377 1.390 . S
C1383 C1380 1.386 . S
C1384 C1379 1.490 . S
C1384 C1386 1.395 . S
C1384 C1387 1.403 . S
H1385 C1391 0.930 . S
C1386 H1372 0.930 . S
C1386 C1384 1.395 . S
C1386 C1389 1.403 . S
C1387 C1384 1.403 . S
C1387 C1388 1.524 . S
C1387 C1391 1.400 . S
C1388 H1373 0.960 . S
C1388 H1374 0.960 . S
C1388 H1375 0.960 . S
C1388 C1387 1.524 . S
C1389 C1386 1.403 . S
C1389 C1390 1.392 . S
C1389 C1393 1.495 . S
C1390 C1389 1.392 . S
C1390 C1391 1.385 . S
C1390 C1392 1.478 . S
C1391 H1385 0.930 . S
C1391 C1387 1.400 . S
C1391 C1390 1.385 . S
C1392 C1390 1.478 . S
C1392 C1394 1.381 . S
C1392 C1398 1.383 . S
C1393 C1389 1.495 . S
C1393 H1399 0.959 . S
C1393 H1400 0.961 . S
C1393 H1401 0.960 . S
C1394 C1392 1.381 . S
C1394 C1395 1.394 . S
C1394 H1402 0.930 . S
C1395 C1394 1.394 . S
C1395 C1396 1.383 . S
C1395 H1403 0.929 . S
C1396 C1395 1.383 . S
C1396 C1397 1.377 . S
C1397 H1381 0.930 . S
C1397 C1396 1.377 . S
C1397 C1398 1.379 . S
C1398 H1382 0.931 . S
C1398 C1392 1.383 . S
C1398 C1397 1.379 . S
H1399 C1393 0.959 . S
H1400 C1393 0.961 . S
H1401 C1393 0.960 . S
H1402 C1394 0.930 . S
H1403 C1395 0.929 . S
H1404 C1412 0.929 . S
H1405 C1414 0.930 . S
H1406 C1416 0.930 . S
H1407 C1419 0.929 . S
H1408 C1422 0.930 . S
H1409 C1424 0.960 . S
H1410 C1424 0.960 . S
H1411 C1424 0.960 . S
C1412 H1404 0.929 . S
C1412 C1413 1.377 . S
C1412 C1414 1.384 . S
C1413 C1412 1.377 . S
C1413 C1419 1.390 . S
C1414 H1405 0.930 . S
C1414 C1412 1.384 . S
C1414 C1415 1.372 . S
C1415 C1414 1.372 . S
C1415 C1416 1.400 . S
C1415 C1420 1.490 . S
C1416 H1406 0.930 . S
C1416 C1415 1.400 . S
C1416 C1419 1.386 . S
H1417 C1433 0.930 . S
H1418 C1434 0.931 . S
C1419 H1407 0.929 . S
C1419 C1413 1.390 . S
C1419 C1416 1.386 . S
C1420 C1415 1.490 . S
C1420 C1422 1.395 . S
C1420 C1423 1.403 . S
H1421 C1427 0.930 . S
C1422 H1408 0.930 . S
C1422 C1420 1.395 . S
C1422 C1425 1.403 . S
C1423 C1420 1.403 . S
C1423 C1424 1.524 . S
C1423 C1427 1.400 . S
C1424 H1409 0.960 . S
C1424 H1410 0.960 . S
C1424 H1411 0.960 . S
C1424 C1423 1.524 . S
C1425 C1422 1.403 . S
C1425 C1426 1.392 . S
C1425 C1429 1.495 . S
C1426 C1425 1.392 . S
C1426 C1427 1.385 . S
C1426 C1428 1.478 . S
C1427 H1421 0.930 . S
C1427 C1423 1.400 . S
C1427 C1426 1.385 . S
C1428 C1426 1.478 . S
C1428 C1430 1.381 . S
C1428 C1434 1.383 . S
C1429 C1425 1.495 . S
C1429 H1435 0.959 . S
C1429 H1436 0.961 . S
C1429 H1437 0.960 . S
C1430 C1428 1.381 . S
C1430 C1431 1.394 . S
C1430 H1438 0.930 . S
C1431 C1430 1.394 . S
C1431 C1432 1.383 . S
C1431 H1439 0.929 . S
C1432 C1431 1.383 . S
C1432 C1433 1.377 . S
C1433 H1417 0.930 . S
C1433 C1432 1.377 . S
C1433 C1434 1.379 . S
C1434 H1418 0.931 . S
C1434 C1428 1.383 . S
C1434 C1433 1.379 . S
H1435 C1429 0.959 . S
H1436 C1429 0.961 . S
H1437 C1429 0.960 . S
H1438 C1430 0.930 . S
H1439 C1431 0.929 . S
H1440 C1448 0.929 . S
H1441 C1450 0.930 . S
H1442 C1452 0.930 . S
H1443 C1455 0.929 . S
H1444 C1458 0.930 . S
H1445 C1460 0.960 . S
H1446 C1460 0.960 . S
H1447 C1460 0.960 . S
C1448 H1440 0.929 . S
C1448 C1449 1.377 . S
C1448 C1450 1.384 . S
C1449 C1448 1.377 . S
C1449 C1455 1.390 . S
C1450 H1441 0.930 . S
C1450 C1448 1.384 . S
C1450 C1451 1.372 . S
C1451 C1450 1.372 . S
C1451 C1452 1.400 . S
C1451 C1456 1.490 . S
C1452 H1442 0.930 . S
C1452 C1451 1.400 . S
C1452 C1455 1.386 . S
H1453 C1469 0.930 . S
H1454 C1470 0.931 . S
C1455 H1443 0.929 . S
C1455 C1449 1.390 . S
C1455 C1452 1.386 . S
C1456 C1451 1.490 . S
C1456 C1458 1.395 . S
C1456 C1459 1.403 . S
H1457 C1463 0.930 . S
C1458 H1444 0.930 . S
C1458 C1456 1.395 . S
C1458 C1461 1.403 . S
C1459 C1456 1.403 . S
C1459 C1460 1.524 . S
C1459 C1463 1.400 . S
C1460 H1445 0.960 . S
C1460 H1446 0.960 . S
C1460 H1447 0.960 . S
C1460 C1459 1.524 . S
C1461 C1458 1.403 . S
C1461 C1462 1.392 . S
C1461 C1465 1.495 . S
C1462 C1461 1.392 . S
C1462 C1463 1.385 . S
C1462 C1464 1.478 . S
C1463 H1457 0.930 . S
C1463 C1459 1.400 . S
C1463 C1462 1.385 . S
C1464 C1462 1.478 . S
C1464 C1466 1.381 . S
C1464 C1470 1.383 . S
C1465 C1461 1.495 . S
C1465 H1471 0.959 . S
C1465 H1472 0.961 . S
C1465 H1473 0.960 . S
C1466 C1464 1.381 . S
C1466 C1467 1.394 . S
C1466 H1474 0.930 . S
C1467 C1466 1.394 . S
C1467 C1468 1.383 . S
C1467 H1475 0.929 . S
C1468 C1467 1.383 . S
C1468 C1469 1.377 . S
C1469 H1453 0.930 . S
C1469 C1468 1.377 . S
C1469 C1470 1.379 . S
C1470 H1454 0.931 . S
C1470 C1464 1.383 . S
C1470 C1469 1.379 . S
H1471 C1465 0.959 . S
H1472 C1465 0.961 . S
H1473 C1465 0.960 . S
H1474 C1466 0.930 . S
H1475 C1467 0.929 . S
H1476 C1484 0.929 . S
H1477 C1486 0.930 . S
H1478 C1488 0.930 . S
H1479 C1491 0.929 . S
H1480 C1494 0.930 . S
H1481 C1496 0.960 . S
H1482 C1496 0.960 . S
H1483 C1496 0.960 . S
C1484 H1476 0.929 . S
C1484 C1485 1.377 . S
C1484 C1486 1.384 . S
C1485 C1484 1.377 . S
C1485 C1491 1.390 . S
C1486 H1477 0.930 . S
C1486 C1484 1.384 . S
C1486 C1487 1.372 . S
C1487 C1486 1.372 . S
C1487 C1488 1.400 . S
C1487 C1492 1.490 . S
C1488 H1478 0.930 . S
C1488 C1487 1.400 . S
C1488 C1491 1.386 . S
H1489 C1505 0.930 . S
H1490 C1506 0.931 . S
C1491 H1479 0.929 . S
C1491 C1485 1.390 . S
C1491 C1488 1.386 . S
C1492 C1487 1.490 . S
C1492 C1494 1.395 . S
C1492 C1495 1.403 . S
H1493 C1499 0.930 . S
C1494 H1480 0.930 . S
C1494 C1492 1.395 . S
C1494 C1497 1.403 . S
C1495 C1492 1.403 . S
C1495 C1496 1.524 . S
C1495 C1499 1.400 . S
C1496 H1481 0.960 . S
C1496 H1482 0.960 . S
C1496 H1483 0.960 . S
C1496 C1495 1.524 . S
C1497 C1494 1.403 . S
C1497 C1498 1.392 . S
C1497 C1501 1.495 . S
C1498 C1497 1.392 . S
C1498 C1499 1.385 . S
C1498 C1500 1.478 . S
C1499 H1493 0.930 . S
C1499 C1495 1.400 . S
C1499 C1498 1.385 . S
C1500 C1498 1.478 . S
C1500 C1502 1.381 . S
C1500 C1506 1.383 . S
C1501 C1497 1.495 . S
C1501 H1507 0.959 . S
C1501 H1508 0.961 . S
C1501 H1509 0.960 . S
C1502 C1500 1.381 . S
C1502 C1503 1.394 . S
C1502 H1510 0.930 . S
C1503 C1502 1.394 . S
C1503 C1504 1.383 . S
C1503 H1511 0.929 . S
C1504 C1503 1.383 . S
C1504 C1505 1.377 . S
C1505 H1489 0.930 . S
C1505 C1504 1.377 . S
C1505 C1506 1.379 . S
C1506 H1490 0.931 . S
C1506 C1500 1.383 . S
C1506 C1505 1.379 . S
H1507 C1501 0.959 . S
H1508 C1501 0.961 . S
H1509 C1501 0.960 . S
H1510 C1502 0.930 . S
H1511 C1503 0.929 . S
H1512 C1520 0.929 . S
H1513 C1522 0.930 . S
H1514 C1524 0.930 . S
H1515 C1527 0.929 . S
H1516 C1530 0.930 . S
H1517 C1532 0.960 . S
H1518 C1532 0.960 . S
H1519 C1532 0.960 . S
C1520 H1512 0.929 . S
C1520 C1521 1.377 . S
C1520 C1522 1.384 . S
C1521 C1520 1.377 . S
C1521 C1527 1.390 . S
C1522 H1513 0.930 . S
C1522 C1520 1.384 . S
C1522 C1523 1.372 . S
C1523 C1522 1.372 . S
C1523 C1524 1.400 . S
C1523 C1528 1.490 . S
C1524 H1514 0.930 . S
C1524 C1523 1.400 . S
C1524 C1527 1.386 . S
H1525 C1541 0.930 . S
H1526 C1542 0.931 . S
C1527 H1515 0.929 . S
C1527 C1521 1.390 . S
C1527 C1524 1.386 . S
C1528 C1523 1.490 . S
C1528 C1530 1.395 . S
C1528 C1531 1.403 . S
H1529 C1535 0.930 . S
C1530 H1516 0.930 . S
C1530 C1528 1.395 . S
C1530 C1533 1.403 . S
C1531 C1528 1.403 . S
C1531 C1532 1.524 . S
C1531 C1535 1.400 . S
C1532 H1517 0.960 . S
C1532 H1518 0.960 . S
C1532 H1519 0.960 . S
C1532 C1531 1.524 . S
C1533 C1530 1.403 . S
C1533 C1534 1.392 . S
C1533 C1537 1.495 . S
C1534 C1533 1.392 . S
C1534 C1535 1.385 . S
C1534 C1536 1.478 . S
C1535 H1529 0.930 . S
C1535 C1531 1.400 . S
C1535 C1534 1.385 . S
C1536 C1534 1.478 . S
C1536 C1538 1.381 . S
C1536 C1542 1.383 . S
C1537 C1533 1.495 . S
C1537 H1543 0.959 . S
C1537 H1544 0.961 . S
C1537 H1545 0.960 . S
C1538 C1536 1.381 . S
C1538 C1539 1.394 . S
C1538 H1546 0.930 . S
C1539 C1538 1.394 . S
C1539 C1540 1.383 . S
C1539 H1547 0.929 . S
C1540 C1539 1.383 . S
C1540 C1541 1.377 . S
C1541 H1525 0.930 . S
C1541 C1540 1.377 . S
C1541 C1542 1.379 . S
C1542 H1526 0.931 . S
C1542 C1536 1.383 . S
C1542 C1541 1.379 . S
H1543 C1537 0.959 . S
H1544 C1537 0.961 . S
H1545 C1537 0.960 . S
H1546 C1538 0.930 . S
H1547 C1539 0.929 . S
H1548 C1556 0.929 . S
H1549 C1558 0.930 . S
H1550 C1560 0.930 . S
H1551 C1563 0.929 . S
H1552 C1566 0.930 . S
H1553 C1568 0.960 . S
H1554 C1568 0.960 . S
H1555 C1568 0.960 . S
C1556 H1548 0.929 . S
C1556 C1557 1.377 . S
C1556 C1558 1.384 . S
C1557 C1556 1.377 . S
C1557 C1563 1.390 . S
C1558 H1549 0.930 . S
C1558 C1556 1.384 . S
C1558 C1559 1.372 . S
C1559 C1558 1.372 . S
C1559 C1560 1.400 . S
C1559 C1564 1.490 . S
C1560 H1550 0.930 . S
C1560 C1559 1.400 . S
C1560 C1563 1.386 . S
H1561 C1577 0.930 . S
H1562 C1578 0.931 . S
C1563 H1551 0.929 . S
C1563 C1557 1.390 . S
C1563 C1560 1.386 . S
C1564 C1559 1.490 . S
C1564 C1566 1.395 . S
C1564 C1567 1.403 . S
H1565 C1571 0.930 . S
C1566 H1552 0.930 . S
C1566 C1564 1.395 . S
C1566 C1569 1.403 . S
C1567 C1564 1.403 . S
C1567 C1568 1.524 . S
C1567 C1571 1.400 . S
C1568 H1553 0.960 . S
C1568 H1554 0.960 . S
C1568 H1555 0.960 . S
C1568 C1567 1.524 . S
C1569 C1566 1.403 . S
C1569 C1570 1.392 . S
C1569 C1573 1.495 . S
C1570 C1569 1.392 . S
C1570 C1571 1.385 . S
C1570 C1572 1.478 . S
C1571 H1565 0.930 . S
C1571 C1567 1.400 . S
C1571 C1570 1.385 . S
C1572 C1570 1.478 . S
C1572 C1574 1.381 . S
C1572 C1578 1.383 . S
C1573 C1569 1.495 . S
C1573 H1579 0.959 . S
C1573 H1580 0.961 . S
C1573 H1581 0.960 . S
C1574 C1572 1.381 . S
C1574 C1575 1.394 . S
C1574 H1582 0.930 . S
C1575 C1574 1.394 . S
C1575 C1576 1.383 . S
C1575 H1583 0.929 . S
C1576 C1575 1.383 . S
C1576 C1577 1.377 . S
C1577 H1561 0.930 . S
C1577 C1576 1.377 . S
C1577 C1578 1.379 . S
C1578 H1562 0.931 . S
C1578 C1572 1.383 . S
C1578 C1577 1.379 . S
H1579 C1573 0.959 . S
H1580 C1573 0.961 . S
H1581 C1573 0.960 . S
H1582 C1574 0.930 . S
H1583 C1575 0.929 . S
H1584 C1592 0.929 . S
H1585 C1594 0.930 . S
H1586 C1596 0.930 . S
H1587 C1599 0.929 . S
H1588 C1602 0.930 . S
H1589 C1604 0.960 . S
H1590 C1604 0.960 . S
H1591 C1604 0.960 . S
C1592 H1584 0.929 . S
C1592 C1593 1.377 . S
C1592 C1594 1.384 . S
C1593 C1592 1.377 . S
C1593 C1599 1.390 . S
C1594 H1585 0.930 . S
C1594 C1592 1.384 . S
C1594 C1595 1.372 . S
C1595 C1594 1.372 . S
C1595 C1596 1.400 . S
C1595 C1600 1.490 . S
C1596 H1586 0.930 . S
C1596 C1595 1.400 . S
C1596 C1599 1.386 . S
H1597 C1613 0.930 . S
H1598 C1614 0.931 . S
C1599 H1587 0.929 . S
C1599 C1593 1.390 . S
C1599 C1596 1.386 . S
C1600 C1595 1.490 . S
C1600 C1602 1.395 . S
C1600 C1603 1.403 . S
H1601 C1607 0.930 . S
C1602 H1588 0.930 . S
C1602 C1600 1.395 . S
C1602 C1605 1.403 . S
C1603 C1600 1.403 . S
C1603 C1604 1.524 . S
C1603 C1607 1.400 . S
C1604 H1589 0.960 . S
C1604 H1590 0.960 . S
C1604 H1591 0.960 . S
C1604 C1603 1.524 . S
C1605 C1602 1.403 . S
C1605 C1606 1.392 . S
C1605 C1609 1.495 . S
C1606 C1605 1.392 . S
C1606 C1607 1.385 . S
C1606 C1608 1.478 . S
C1607 H1601 0.930 . S
C1607 C1603 1.400 . S
C1607 C1606 1.385 . S
C1608 C1606 1.478 . S
C1608 C1610 1.381 . S
C1608 C1614 1.383 . S
C1609 C1605 1.495 . S
C1609 H1615 0.959 . S
C1609 H1616 0.961 . S
C1609 H1617 0.960 . S
C1610 C1608 1.381 . S
C1610 C1611 1.394 . S
C1610 H1618 0.930 . S
C1611 C1610 1.394 . S
C1611 C1612 1.383 . S
C1611 H1619 0.929 . S
C1612 C1611 1.383 . S
C1612 C1613 1.377 . S
C1613 H1597 0.930 . S
C1613 C1612 1.377 . S
C1613 C1614 1.379 . S
C1614 H1598 0.931 . S
C1614 C1608 1.383 . S
C1614 C1613 1.379 . S
H1615 C1609 0.959 . S
H1616 C1609 0.961 . S
H1617 C1609 0.960 . S
H1618 C1610 0.930 . S
H1619 C1611 0.929 . S
H1620 C1628 0.929 . S
H1621 C1630 0.930 . S
H1622 C1632 0.930 . S
H1623 C1635 0.929 . S
H1624 C1638 0.930 . S
H1625 C1640 0.960 . S
H1626 C1640 0.960 . S
H1627 C1640 0.960 . S
C1628 H1620 0.929 . S
C1628 C1629 1.377 . S
C1628 C1630 1.384 . S
C1629 C1628 1.377 . S
C1629 C1635 1.390 . S
C1630 H1621 0.930 . S
C1630 C1628 1.384 . S
C1630 C1631 1.372 . S
C1631 C1630 1.372 . S
C1631 C1632 1.400 . S
C1631 C1636 1.490 . S
C1632 H1622 0.930 . S
C1632 C1631 1.400 . S
C1632 C1635 1.386 . S
H1633 C1649 0.930 . S
H1634 C1650 0.931 . S
C1635 H1623 0.929 . S
C1635 C1629 1.390 . S
C1635 C1632 1.386 . S
C1636 C1631 1.490 . S
C1636 C1638 1.395 . S
C1636 C1639 1.403 . S
H1637 C1643 0.930 . S
C1638 H1624 0.930 . S
C1638 C1636 1.395 . S
C1638 C1641 1.403 . S
C1639 C1636 1.403 . S
C1639 C1640 1.524 . S
C1639 C1643 1.400 . S
C1640 H1625 0.960 . S
C1640 H1626 0.960 . S
C1640 H1627 0.960 . S
C1640 C1639 1.524 . S
C1641 C1638 1.403 . S
C1641 C1642 1.392 . S
C1641 C1645 1.495 . S
C1642 C1641 1.392 . S
C1642 C1643 1.385 . S
C1642 C1644 1.478 . S
C1643 H1637 0.930 . S
C1643 C1639 1.400 . S
C1643 C1642 1.385 . S
C1644 C1642 1.478 . S
C1644 C1646 1.381 . S
C1644 C1650 1.383 . S
C1645 C1641 1.495 . S
C1645 H1651 0.959 . S
C1645 H1652 0.961 . S
C1645 H1653 0.960 . S
C1646 C1644 1.381 . S
C1646 C1647 1.394 . S
C1646 H1654 0.930 . S
C1647 C1646 1.394 . S
C1647 C1648 1.383 . S
C1647 H1655 0.929 . S
C1648 C1647 1.383 . S
C1648 C1649 1.377 . S
C1649 H1633 0.930 . S
C1649 C1648 1.377 . S
C1649 C1650 1.379 . S
C1650 H1634 0.931 . S
C1650 C1644 1.383 . S
C1650 C1649 1.379 . S
H1651 C1645 0.959 . S
H1652 C1645 0.961 . S
H1653 C1645 0.960 . S
H1654 C1646 0.930 . S
H1655 C1647 0.929 . S
H1656 C1664 0.929 . S
H1657 C1666 0.930 . S
H1658 C1668 0.930 . S
H1659 C1671 0.929 . S
H1660 C1674 0.930 . S
H1661 C1676 0.960 . S
H1662 C1676 0.960 . S
H1663 C1676 0.960 . S
C1664 H1656 0.929 . S
C1664 C1665 1.377 . S
C1664 C1666 1.384 . S
C1665 C1664 1.377 . S
C1665 C1671 1.390 . S
C1666 H1657 0.930 . S
C1666 C1664 1.384 . S
C1666 C1667 1.372 . S
C1667 C1666 1.372 . S
C1667 C1668 1.400 . S
C1667 C1672 1.490 . S
C1668 H1658 0.930 . S
C1668 C1667 1.400 . S
C1668 C1671 1.386 . S
H1669 C1685 0.930 . S
H1670 C1686 0.931 . S
C1671 H1659 0.929 . S
C1671 C1665 1.390 . S
C1671 C1668 1.386 . S
C1672 C1667 1.490 . S
C1672 C1674 1.395 . S
C1672 C1675 1.403 . S
H1673 C1679 0.930 . S
C1674 H1660 0.930 . S
C1674 C1672 1.395 . S
C1674 C1677 1.403 1_565 S
C1675 C1672 1.403 . S
C1675 C1676 1.524 . S
C1675 C1679 1.400 1_565 S
C1676 H1661 0.960 . S
C1676 H1662 0.960 . S
C1676 H1663 0.960 . S
C1676 C1675 1.524 . S
C1677 C1674 1.403 1_545 S
C1677 C1678 1.392 . S
C1677 C1681 1.495 . S
C1678 C1677 1.392 . S
C1678 C1679 1.385 . S
C1678 C1680 1.478 . S
C1679 H1673 0.930 . S
C1679 C1675 1.400 1_545 S
C1679 C1678 1.385 . S
C1680 C1678 1.478 . S
C1680 C1682 1.381 . S
C1680 C1686 1.383 . S
C1681 C1677 1.495 . S
C1681 H1687 0.959 . S
C1681 H1688 0.961 . S
C1681 H1689 0.960 . S
C1682 C1680 1.381 . S
C1682 C1683 1.394 . S
C1682 H1690 0.930 . S
C1683 C1682 1.394 . S
C1683 C1684 1.383 . S
C1683 H1691 0.929 . S
C1684 C1683 1.383 . S
C1684 C1685 1.377 . S
C1685 H1669 0.930 . S
C1685 C1684 1.377 . S
C1685 C1686 1.379 . S
C1686 H1670 0.931 . S
C1686 C1680 1.383 . S
C1686 C1685 1.379 . S
H1687 C1681 0.959 . S
H1688 C1681 0.961 . S
H1689 C1681 0.960 . S
H1690 C1682 0.930 . S
H1691 C1683 0.929 . S
H1692 C1700 0.929 . S
H1693 C1702 0.930 . S
H1694 C1704 0.930 . S
H1695 C1707 0.929 . S
H1696 C1710 0.930 . S
H1697 C1712 0.960 . S
H1698 C1712 0.960 . S
H1699 C1712 0.960 1_655 S
C1700 H1692 0.929 . S
C1700 C1701 1.377 . S
C1700 C1702 1.384 . S
C1701 C1700 1.377 . S
C1701 C1707 1.390 . S
C1702 H1693 0.930 . S
C1702 C1700 1.384 . S
C1702 C1703 1.372 . S
C1703 C1702 1.372 . S
C1703 C1704 1.400 . S
C1703 C1708 1.490 . S
C1704 H1694 0.930 . S
C1704 C1703 1.400 . S
C1704 C1707 1.386 . S
H1705 C1721 0.930 . S
H1706 C1722 0.931 . S
C1707 H1695 0.929 . S
C1707 C1701 1.390 . S
C1707 C1704 1.386 . S
C1708 C1703 1.490 . S
C1708 C1710 1.395 . S
C1708 C1711 1.403 1_655 S
H1709 C1715 0.930 . S
C1710 H1696 0.930 . S
C1710 C1708 1.395 . S
C1710 C1713 1.403 1_655 S
C1711 C1708 1.403 1_455 S
C1711 C1712 1.524 . S
C1711 C1715 1.400 . S
C1712 H1697 0.960 . S
C1712 H1698 0.960 . S
C1712 H1699 0.960 1_455 S
C1712 C1711 1.524 . S
C1713 C1710 1.403 1_455 S
C1713 C1714 1.392 . S
C1713 C1717 1.495 . S
C1714 C1713 1.392 . S
C1714 C1715 1.385 . S
C1714 C1716 1.478 . S
C1715 H1709 0.930 . S
C1715 C1711 1.400 . S
C1715 C1714 1.385 . S
C1716 C1714 1.478 . S
C1716 C1718 1.381 . S
C1716 C1722 1.383 . S
C1717 C1713 1.495 . S
C1717 H1723 0.959 1_455 S
C1717 H1724 0.961 . S
C1717 H1725 0.960 . S
C1718 C1716 1.381 . S
C1718 C1719 1.394 . S
C1718 H1726 0.930 . S
C1719 C1718 1.394 . S
C1719 C1720 1.383 . S
C1719 H1727 0.929 . S
C1720 C1719 1.383 . S
C1720 C1721 1.377 . S
C1721 H1705 0.930 . S
C1721 C1720 1.377 . S
C1721 C1722 1.379 . S
C1722 H1706 0.931 . S
C1722 C1716 1.383 . S
C1722 C1721 1.379 . S
H1723 C1717 0.959 1_655 S
H1724 C1717 0.961 . S
H1725 C1717 0.960 . S
H1726 C1718 0.930 . S
H1727 C1719 0.929 . S
C765 C142 1.154 . S
C784 C56 1.297 1_554 S
C801 C226 1.172 . S
C820 C140 1.270 1_554 S
C837 C224 1.310 1_554 S
C856 C58 1.209 . S
C873 C238 1.129 . S
C892 C151 1.250 . S
C909 C235 1.254 . S
C928 C70 1.115 . S
C945 C67 1.253 . S
C964 C154 1.092 . S
C981 C308 1.309 . S
C1000 C394 1.217 . S
C1017 C478 1.174 . S
C1036 C392 1.282 . S
C1053 C476 1.324 . S
C1072 C310 1.146 . S
C1089 C403 1.255 . S
C1108 C490 1.116 . S
C1125 C487 1.253 . S
C1144 C322 1.078 . S
C1161 C406 1.133 . S
C1180 C319 1.276 . S
C1197 C646 1.169 . S
C1216 C560 1.275 . S
C1233 C644 1.315 . S
C1252 C730 1.120 . S
C1269 C728 1.309 . S
C1288 C562 1.216 . S
C1305 C742 1.110 . S
C1324 C655 1.239 . S
C1341 C739 1.258 . S
C1360 C574 1.088 . S
C1377 C571 1.262 . S
C1396 C658 1.165 . S
C1413 C494 2.629 . S
C1432 C63 2.680 . S
C1449 C326 2.623 . S
C1468 C147 2.701 . S
C1485 C231 2.693 . S
C1504 C410 2.602 . S
C1521 C242 2.627 . S
C1540 C567 2.680 . S
C1557 C74 2.630 . S
C1576 C651 2.677 . S
C1593 C735 2.693 . S
C1612 C158 2.602 . S
C1629 C315 2.690 . S
C1648 C746 2.629 . S
C1665 C399 2.688 . S
C1684 C578 2.640 . S
C1701 C662 2.625 . S
C1720 C483 2.695 . S
