# Generated by pormake.
# Topology fcp, (5)-cn, num edge types: 1
# Building blocks:
#     Node 0, Type 0, BuildingBlock: BEQFEK_clean_sbu_0, # of connection points: 5
#     Node 1, Type 0, BuildingBlock: BEQFEK_clean_sbu_0, # of connection points: 5
#     Node 2, Type 0, BuildingBlock: BEQFEK_clean_sbu_0, # of connection points: 5
#     Node 3, Type 0, BuildingBlock: BEQFEK_clean_sbu_0, # of connection points: 5
#     Node 4, Type 0, BuildingBlock: BEQFEK_clean_sbu_0, # of connection points: 5
#     Node 5, Type 0, BuildingBlock: BEQFEK_clean_sbu_0, # of connection points: 5
#     Node 6, Type 0, BuildingBlock: BEQFEK_clean_sbu_0, # of connection points: 5
#     Node 7, Type 0, BuildingBlock: BEQFEK_clean_sbu_0, # of connection points: 5
#     Node 8, Type 0, BuildingBlock: BEQFEK_clean_sbu_0, # of connection points: 5
#     Node 9, Type 0, BuildingBlock: BEQFEK_clean_sbu_0, # of connection points: 5
#     Node 10, Type 0, BuildingBlock: BEQFEK_clean_sbu_0, # of connection points: 5
#     Node 11, Type 0, BuildingBlock: BEQFEK_clean_sbu_0, # of connection points: 5
#     Node 12, Type 0, BuildingBlock: BEQFEK_clean_sbu_0, # of connection points: 5
#     Node 13, Type 0, BuildingBlock: BEQFEK_clean_sbu_0, # of connection points: 5
#     Node 14, Type 0, BuildingBlock: BEQFEK_clean_sbu_0, # of connection points: 5
#     Node 15, Type 0, BuildingBlock: BEQFEK_clean_sbu_0, # of connection points: 5
#     Node 16, Type 0, BuildingBlock: BEQFEK_clean_sbu_0, # of connection points: 5
#     Node 17, Type 0, BuildingBlock: BEQFEK_clean_sbu_0, # of connection points: 5
#     Node 18, Type 0, BuildingBlock: BEQFEK_clean_sbu_0, # of connection points: 5
#     Node 19, Type 0, BuildingBlock: BEQFEK_clean_sbu_0, # of connection points: 5
#     Node 20, Type 0, BuildingBlock: BEQFEK_clean_sbu_0, # of connection points: 5
#     Node 21, Type 0, BuildingBlock: BEQFEK_clean_sbu_0, # of connection points: 5
#     Node 22, Type 0, BuildingBlock: BEQFEK_clean_sbu_0, # of connection points: 5
#     Node 23, Type 0, BuildingBlock: BEQFEK_clean_sbu_0, # of connection points: 5
#     Edge 24, Type (0, 0), BuildingBlock: AJUNOK_clean_linker_0, # of connection points: 2
#     Edge 25, Type (0, 0), BuildingBlock: AJUNOK_clean_linker_0, # of connection points: 2
#     Edge 26, Type (0, 0), BuildingBlock: AJUNOK_clean_linker_0, # of connection points: 2
#     Edge 27, Type (0, 0), BuildingBlock: AJUNOK_clean_linker_0, # of connection points: 2
#     Edge 28, Type (0, 0), BuildingBlock: AJUNOK_clean_linker_0, # of connection points: 2
#     Edge 29, Type (0, 0), BuildingBlock: AJUNOK_clean_linker_0, # of connection points: 2
#     Edge 30, Type (0, 0), BuildingBlock: AJUNOK_clean_linker_0, # of connection points: 2
#     Edge 31, Type (0, 0), BuildingBlock: AJUNOK_clean_linker_0, # of connection points: 2
#     Edge 32, Type (0, 0), BuildingBlock: AJUNOK_clean_linker_0, # of connection points: 2
#     Edge 33, Type (0, 0), BuildingBlock: AJUNOK_clean_linker_0, # of connection points: 2
#     Edge 34, Type (0, 0), BuildingBlock: AJUNOK_clean_linker_0, # of connection points: 2
#     Edge 35, Type (0, 0), BuildingBlock: AJUNOK_clean_linker_0, # of connection points: 2
#     Edge 36, Type (0, 0), BuildingBlock: AJUNOK_clean_linker_0, # of connection points: 2
#     Edge 37, Type (0, 0), BuildingBlock: AJUNOK_clean_linker_0, # of connection points: 2
#     Edge 38, Type (0, 0), BuildingBlock: AJUNOK_clean_linker_0, # of connection points: 2
#     Edge 39, Type (0, 0), BuildingBlock: AJUNOK_clean_linker_0, # of connection points: 2
#     Edge 40, Type (0, 0), BuildingBlock: AJUNOK_clean_linker_0, # of connection points: 2
#     Edge 41, Type (0, 0), BuildingBlock: AJUNOK_clean_linker_0, # of connection points: 2
#     Edge 42, Type (0, 0), BuildingBlock: AJUNOK_clean_linker_0, # of connection points: 2
#     Edge 43, Type (0, 0), BuildingBlock: AJUNOK_clean_linker_0, # of connection points: 2
#     Edge 44, Type (0, 0), BuildingBlock: AJUNOK_clean_linker_0, # of connection points: 2
#     Edge 45, Type (0, 0), BuildingBlock: AJUNOK_clean_linker_0, # of connection points: 2
#     Edge 46, Type (0, 0), BuildingBlock: AJUNOK_clean_linker_0, # of connection points: 2
#     Edge 47, Type (0, 0), BuildingBlock: AJUNOK_clean_linker_0, # of connection points: 2
#     Edge 48, Type (0, 0), BuildingBlock: AJUNOK_clean_linker_0, # of connection points: 2
#     Edge 49, Type (0, 0), BuildingBlock: AJUNOK_clean_linker_0, # of connection points: 2
#     Edge 50, Type (0, 0), BuildingBlock: AJUNOK_clean_linker_0, # of connection points: 2
#     Edge 51, Type (0, 0), BuildingBlock: AJUNOK_clean_linker_0, # of connection points: 2
#     Edge 52, Type (0, 0), BuildingBlock: AJUNOK_clean_linker_0, # of connection points: 2
#     Edge 53, Type (0, 0), BuildingBlock: AJUNOK_clean_linker_0, # of connection points: 2
#     Edge 54, Type (0, 0), BuildingBlock: AJUNOK_clean_linker_0, # of connection points: 2
#     Edge 55, Type (0, 0), BuildingBlock: AJUNOK_clean_linker_0, # of connection points: 2
#     Edge 56, Type (0, 0), BuildingBlock: AJUNOK_clean_linker_0, # of connection points: 2
#     Edge 57, Type (0, 0), BuildingBlock: AJUNOK_clean_linker_0, # of connection points: 2
#     Edge 58, Type (0, 0), BuildingBlock: AJUNOK_clean_linker_0, # of connection points: 2
#     Edge 59, Type (0, 0), BuildingBlock: AJUNOK_clean_linker_0, # of connection points: 2
#     Edge 60, Type (0, 0), BuildingBlock: AJUNOK_clean_linker_0, # of connection points: 2
#     Edge 61, Type (0, 0), BuildingBlock: AJUNOK_clean_linker_0, # of connection points: 2
#     Edge 62, Type (0, 0), BuildingBlock: AJUNOK_clean_linker_0, # of connection points: 2
#     Edge 63, Type (0, 0), BuildingBlock: AJUNOK_clean_linker_0, # of connection points: 2
#     Edge 64, Type (0, 0), BuildingBlock: AJUNOK_clean_linker_0, # of connection points: 2
#     Edge 65, Type (0, 0), BuildingBlock: AJUNOK_clean_linker_0, # of connection points: 2
#     Edge 66, Type (0, 0), BuildingBlock: AJUNOK_clean_linker_0, # of connection points: 2
#     Edge 67, Type (0, 0), BuildingBlock: AJUNOK_clean_linker_0, # of connection points: 2
#     Edge 68, Type (0, 0), BuildingBlock: AJUNOK_clean_linker_0, # of connection points: 2
#     Edge 69, Type (0, 0), BuildingBlock: AJUNOK_clean_linker_0, # of connection points: 2
#     Edge 70, Type (0, 0), BuildingBlock: AJUNOK_clean_linker_0, # of connection points: 2
#     Edge 71, Type (0, 0), BuildingBlock: AJUNOK_clean_linker_0, # of connection points: 2
#     Edge 72, Type (0, 0), BuildingBlock: AJUNOK_clean_linker_0, # of connection points: 2
#     Edge 73, Type (0, 0), BuildingBlock: AJUNOK_clean_linker_0, # of connection points: 2
#     Edge 74, Type (0, 0), BuildingBlock: AJUNOK_clean_linker_0, # of connection points: 2
#     Edge 75, Type (0, 0), BuildingBlock: AJUNOK_clean_linker_0, # of connection points: 2
#     Edge 76, Type (0, 0), BuildingBlock: AJUNOK_clean_linker_0, # of connection points: 2
#     Edge 77, Type (0, 0), BuildingBlock: AJUNOK_clean_linker_0, # of connection points: 2
#     Edge 78, Type (0, 0), BuildingBlock: AJUNOK_clean_linker_0, # of connection points: 2
#     Edge 79, Type (0, 0), BuildingBlock: AJUNOK_clean_linker_0, # of connection points: 2
#     Edge 80, Type (0, 0), BuildingBlock: AJUNOK_clean_linker_0, # of connection points: 2
#     Edge 81, Type (0, 0), BuildingBlock: AJUNOK_clean_linker_0, # of connection points: 2
#     Edge 82, Type (0, 0), BuildingBlock: AJUNOK_clean_linker_0, # of connection points: 2
#     Edge 83, Type (0, 0), BuildingBlock: AJUNOK_clean_linker_0, # of connection points: 2
# Relax obj value: 0.281
# Max RMSD: 0.212
# Mean RMSD: 0.212
data_MOF--net-fcp--node1-BEQFEK_clean_sbu_0--edge1-AJUNOK_clean_linker_0
_symmetry_space_group_name_H-M    P1
_symmetry_Int_Tables_number       1
_symmetry_cell_setting            triclinic
loop_
_symmetry_equiv_pos_as_xyz
'x, y, z'
_cell_length_a     39.753866
_cell_length_b     39.754665
_cell_length_c     39.78802
_cell_angle_alpha  89.978409
_cell_angle_beta   90.02627
_cell_angle_gamma 90.012618
loop_
_atom_site_label
_atom_site_type_symbol
_atom_site_fract_x
_atom_site_fract_y
_atom_site_fract_z
_atom_type_partial_charge
Co0 Co 0.03013 0.34047 0.17169 0.0
Co1 Co 0.10054 0.32833 0.13942 0.0
C2 C 0.06616 0.27737 0.18479 0.0
O3 O 0.03907 0.29417 0.18709 0.0
O4 O 0.09082 0.28842 0.1677 0.0
C5 C 0.98376 0.34809 0.22192 0.0
O6 O 0.00798 0.33113 0.23666 0.0
C7 C 0.14515 0.28622 0.10026 0.0
C8 C 0.18966 0.31848 0.09263 0.0
C9 C 0.17714 0.28647 0.08676 0.0
N10 N 0.13892 0.31657 0.11364 0.0
N11 N 0.16549 0.33593 0.10873 0.0
C12 C 0.12039 0.2579 0.09925 0.0
H13 H 0.09449 0.2673 0.10373 0.0
H14 H 0.12164 0.24503 0.07452 0.0
H15 H 0.1268 0.23914 0.11879 0.0
C16 C 0.01148 0.34873 0.09876 0.0
N17 N 0.0338 0.34391 0.1239 0.0
N18 N 0.06392 0.33981 0.11083 0.0
C19 C 0.06192 0.34269 0.07716 0.0
C20 C 0.02861 0.34811 0.06812 0.0
C21 C 0.97432 0.35119 0.10409 0.0
H22 H 0.96679 0.33577 0.12609 0.0
H23 H 0.96032 0.34287 0.08143 0.0
H24 H 0.96769 0.37774 0.10952 0.0
O25 O 0.06268 0.37047 0.19501 0.0
O26 O 0.11239 0.36511 0.17065 0.0
H27 H 0.08586 0.35296 0.02938 0.0
H28 H 0.09891 0.31471 0.05004 0.0
C29 C 0.09162 0.34133 0.05407 0.0
H30 H 0.11317 0.35481 0.06552 0.0
H31 H 0.16752 0.36067 0.11727 0.0
O32 O 0.98625 0.35461 0.19065 0.0
C33 C 0.09362 0.37836 0.19292 0.0
Co34 Co 0.84541 0.46934 0.32974 0.0
Co35 Co 0.83154 0.39946 0.36362 0.0
C36 C 0.78245 0.43243 0.31495 0.0
O37 O 0.80018 0.45892 0.31207 0.0
O38 O 0.79194 0.40827 0.33379 0.0
C39 C 0.84398 0.53077 0.29199 0.0
O40 O 0.81183 0.52398 0.28897 0.0
C41 C 0.79012 0.35275 0.40168 0.0
C42 C 0.82534 0.31183 0.41414 0.0
C43 C 0.79192 0.32138 0.41663 0.0
N44 N 0.82087 0.36146 0.39085 0.0
N45 N 0.84206 0.33717 0.39901 0.0
C46 C 0.75915 0.37343 0.39639 0.0
H47 H 0.76564 0.40058 0.39591 0.0
H48 H 0.74048 0.36839 0.41652 0.0
H49 H 0.7476 0.36666 0.37199 0.0
C50 C 0.85135 0.48978 0.40158 0.0
N51 N 0.84688 0.46658 0.37729 0.0
N52 N 0.84194 0.43702 0.39135 0.0
C53 C 0.84371 0.44037 0.42502 0.0
C54 C 0.84971 0.47386 0.43264 0.0
C55 C 0.8563 0.52646 0.39492 0.0
H56 H 0.8785 0.5299 0.37838 0.0
H57 H 0.83407 0.53638 0.38124 0.0
H58 H 0.85997 0.5408 0.41857 0.0
O59 O 0.87631 0.43681 0.3088 0.0
O60 O 0.86968 0.38744 0.33367 0.0
H61 H 0.85386 0.39082 0.44341 0.0
H62 H 0.84214 0.42044 0.47579 0.0
C63 C 0.83741 0.41249 0.4495 0.0
H64 H 0.81087 0.40422 0.44735 0.0
H65 H 0.86756 0.33717 0.3928 0.0
O66 O 0.86178 0.51282 0.31154 0.0
C67 C 0.88388 0.40591 0.31169 0.0
Co68 Co 0.96752 0.65745 0.17042 0.0
Co69 Co 0.89646 0.66959 0.13866 0.0
C70 C 0.931 0.72041 0.18414 0.0
O71 O 0.95782 0.70317 0.18657 0.0
O72 O 0.90622 0.70997 0.1667 0.0
C73 C 0.01445 0.64922 0.2202 0.0
O74 O 0.99016 0.6656 0.23544 0.0
C75 C 0.85049 0.70899 0.09752 0.0
C76 C 0.8064 0.67557 0.09294 0.0
C77 C 0.81811 0.70734 0.08445 0.0
N78 N 0.85735 0.67978 0.11304 0.0
N79 N 0.83103 0.65974 0.10996 0.0
C80 C 0.87539 0.73703 0.09408 0.0
H81 H 0.87225 0.75491 0.11516 0.0
H82 H 0.90144 0.72705 0.09519 0.0
H83 H 0.87143 0.7508 0.07012 0.0
C84 C 0.98567 0.65192 0.09734 0.0
N85 N 0.9634 0.65515 0.12273 0.0
N86 N 0.93303 0.65849 0.10994 0.0
C87 C 0.93483 0.65626 0.07622 0.0
C88 C 0.96831 0.65286 0.06691 0.0
C89 C 0.02293 0.65022 0.10219 0.0
H90 H 0.0307 0.62344 0.10324 0.0
H91 H 0.03017 0.66245 0.12619 0.0
H92 H 0.03624 0.66243 0.08092 0.0
O93 O 0.93559 0.62679 0.19342 0.0
O94 O 0.88547 0.63283 0.17008 0.0
H95 H 0.8844 0.64034 0.06543 0.0
H96 H 0.91122 0.64357 0.02891 0.0
C97 C 0.90481 0.65511 0.05348 0.0
H98 H 0.89546 0.68098 0.04901 0.0
H99 H 0.82957 0.63562 0.12021 0.0
O100 O 0.01178 0.64334 0.18883 0.0
C101 C 0.9046 0.61909 0.19173 0.0
Co102 Co 0.15507 0.52936 0.32847 0.0
Co103 Co 0.17011 0.60068 0.35857 0.0
C104 C 0.21808 0.56482 0.31104 0.0
O105 O 0.20005 0.53845 0.30935 0.0
O106 O 0.20905 0.58979 0.32896 0.0
C107 C 0.15552 0.46696 0.29239 0.0
O108 O 0.18759 0.4738 0.28869 0.0
C109 C 0.21318 0.64709 0.39494 0.0
C110 C 0.18039 0.69118 0.4028 0.0
C111 C 0.21288 0.67953 0.4076 0.0
N112 N 0.18245 0.63998 0.38289 0.0
N113 N 0.16279 0.66629 0.38798 0.0
C114 C 0.24184 0.62269 0.39513 0.0
H115 H 0.23223 0.59669 0.39847 0.0
H116 H 0.26006 0.6289 0.41536 0.0
H117 H 0.25504 0.62375 0.37067 0.0
C118 C 0.15124 0.51266 0.40203 0.0
N119 N 0.15496 0.53442 0.37625 0.0
N120 N 0.15986 0.56479 0.38848 0.0
C121 C 0.15841 0.56353 0.42229 0.0
C122 C 0.15323 0.53042 0.43226 0.0
C123 C 0.14849 0.47541 0.39749 0.0
H124 H 0.16327 0.46743 0.37522 0.0
H125 H 0.15745 0.46179 0.42014 0.0
H126 H 0.12178 0.46875 0.39285 0.0
O127 O 0.12371 0.5614 0.30656 0.0
O128 O 0.13159 0.61171 0.32909 0.0
H129 H 0.14961 0.58861 0.46977 0.0
H130 H 0.18716 0.60124 0.44764 0.0
C131 C 0.16045 0.59378 0.4446 0.0
H132 H 0.14654 0.61501 0.43308 0.0
H133 H 0.13767 0.6676 0.38046 0.0
O134 O 0.13807 0.48516 0.31205 0.0
C135 C 0.11656 0.59252 0.30835 0.0
Co136 Co 0.02676 0.65908 0.82878 0.0
Co137 Co 0.09638 0.67744 0.86157 0.0
C138 C 0.05897 0.72506 0.8153 0.0
O139 O 0.03409 0.70521 0.81264 0.0
O140 O 0.08436 0.71734 0.83334 0.0
C141 C 0.98115 0.64832 0.77906 0.0
O142 O 0.00614 0.66346 0.76365 0.0
C143 C 0.15317 0.71628 0.88942 0.0
C144 C 0.17378 0.68129 0.92727 0.0
C145 C 0.17711 0.71366 0.91475 0.0
N146 N 0.13541 0.6875 0.88828 0.0
N147 N 0.1484 0.66643 0.91047 0.0
C148 C 0.15012 0.74352 0.86369 0.0
H149 H 0.14596 0.7322 0.83857 0.0
H150 H 0.12819 0.75956 0.86999 0.0
H151 H 0.17315 0.75925 0.86249 0.0
C152 C 0.00783 0.65 0.90038 0.0
N153 N 0.03059 0.65664 0.87618 0.0
N154 N 0.05936 0.66529 0.89023 0.0
C155 C 0.05541 0.66494 0.92397 0.0
C156 C 0.02298 0.65465 0.93145 0.0
C157 C 0.97197 0.6409 0.89363 0.0
H158 H 0.95912 0.66265 0.88175 0.0
H159 H 0.95859 0.6339 0.91709 0.0
H160 H 0.97102 0.61967 0.87555 0.0
O161 O 0.0597 0.63009 0.80632 0.0
O162 O 0.10899 0.64012 0.83032 0.0
H163 H 0.09821 0.65786 0.95565 0.0
H164 H 0.06781 0.68666 0.97222 0.0
C165 C 0.08041 0.67819 0.94882 0.0
H166 H 0.09442 0.69969 0.93797 0.0
H167 H 0.13971 0.64196 0.91436 0.0
O168 O 0.98305 0.64375 0.81067 0.0
C169 C 0.09108 0.62476 0.80864 0.0
Co170 Co 0.1551 0.47379 0.67255 0.0
Co171 Co 0.17403 0.40436 0.63871 0.0
C172 C 0.21886 0.4376 0.68918 0.0
O173 O 0.19908 0.46248 0.69244 0.0
O174 O 0.21275 0.41384 0.6687 0.0
C175 C 0.14636 0.52092 0.72239 0.0
O176 O 0.15995 0.49551 0.73849 0.0
C177 C 0.21186 0.34635 0.61199 0.0
C178 C 0.17753 0.32731 0.57273 0.0
C179 C 0.20916 0.32241 0.58659 0.0
N180 N 0.18376 0.36524 0.61208 0.0
N181 N 0.16304 0.35316 0.58907 0.0
C182 C 0.23863 0.3488 0.63841 0.0
H183 H 0.22689 0.35345 0.66323 0.0
H184 H 0.2556 0.37015 0.63246 0.0
H185 H 0.2535 0.32531 0.64037 0.0
C186 C 0.15043 0.49422 0.60042 0.0
N187 N 0.15604 0.47113 0.62467 0.0
N188 N 0.16478 0.44242 0.61053 0.0
C189 C 0.16558 0.44674 0.57685 0.0
C190 C 0.15597 0.47934 0.56934 0.0
C191 C 0.14018 0.52975 0.60714 0.0
H192 H 0.11779 0.52993 0.62379 0.0
H193 H 0.16081 0.54279 0.62069 0.0
H194 H 0.13448 0.54343 0.58349 0.0
O195 O 0.12283 0.44183 0.69199 0.0
O196 O 0.13507 0.39287 0.66821 0.0
H197 H 0.15707 0.40465 0.54462 0.0
H198 H 0.18756 0.43385 0.52893 0.0
C199 C 0.1781 0.42138 0.55204 0.0
H200 H 0.1987 0.40627 0.56314 0.0
H201 H 0.13911 0.36282 0.5843 0.0
O202 O 0.14177 0.51845 0.69079 0.0
C203 C 0.11779 0.41044 0.68868 0.0
Co204 Co 0.97234 0.34345 0.82798 0.0
Co205 Co 0.90307 0.32682 0.86154 0.0
C206 C 0.93746 0.27885 0.81374 0.0
O207 O 0.96301 0.29784 0.81121 0.0
O208 O 0.91267 0.28715 0.83225 0.0
C209 C 0.01703 0.35191 0.77673 0.0
O210 O 0.99084 0.33785 0.76231 0.0
C211 C 0.85677 0.28548 0.90036 0.0
C212 C 0.81545 0.32072 0.91178 0.0
C213 C 0.8254 0.28748 0.91572 0.0
N214 N 0.86469 0.31588 0.88797 0.0
N215 N 0.84003 0.33696 0.89509 0.0
C216 C 0.87982 0.25577 0.89836 0.0
H217 H 0.90643 0.26426 0.89799 0.0
H218 H 0.87573 0.23852 0.91991 0.0
H219 H 0.87499 0.24197 0.87462 0.0
C220 C 0.99219 0.35087 0.90055 0.0
N221 N 0.9696 0.34496 0.87591 0.0
N222 N 0.94015 0.33857 0.88968 0.0
C223 C 0.94293 0.34096 0.92339 0.0
C224 C 0.97595 0.34878 0.93147 0.0
C225 C 0.02861 0.35792 0.89444 0.0
H226 H 0.03117 0.37712 0.87436 0.0
H227 H 0.04098 0.33458 0.88544 0.0
H228 H 0.04134 0.36672 0.91767 0.0
O229 O 0.93945 0.37433 0.80669 0.0
O230 O 0.89055 0.36465 0.8316 0.0
H231 H 0.89276 0.34979 0.94075 0.0
H232 H 0.92216 0.33958 0.97386 0.0
C233 C 0.91485 0.33418 0.94752 0.0
H234 H 0.90749 0.30737 0.94578 0.0
H235 H 0.83966 0.36221 0.88791 0.0
O236 O 0.01617 0.35731 0.80831 0.0
C237 C 0.90823 0.38044 0.8101 0.0
Co238 Co 0.8418 0.52746 0.67181 0.0
Co239 Co 0.82626 0.59831 0.64066 0.0
C240 C 0.7778 0.56194 0.68672 0.0
O241 O 0.79606 0.53582 0.68847 0.0
O242 O 0.78703 0.58733 0.66954 0.0
C243 C 0.85113 0.48228 0.7221 0.0
O244 O 0.83714 0.50839 0.73668 0.0
C245 C 0.78326 0.64534 0.60471 0.0
C246 C 0.81641 0.68934 0.59767 0.0
C247 C 0.78367 0.67823 0.59308 0.0
N248 N 0.8141 0.6376 0.61613 0.0
N249 N 0.83395 0.66386 0.61151 0.0
C250 C 0.75453 0.621 0.60396 0.0
H251 H 0.76401 0.59526 0.59876 0.0
H252 H 0.7357 0.62837 0.58471 0.0
H253 H 0.74218 0.62044 0.62889 0.0
C254 C 0.8479 0.51024 0.59852 0.0
N255 N 0.84319 0.53203 0.62407 0.0
N256 N 0.83747 0.56217 0.6115 0.0
C257 C 0.83919 0.56069 0.57775 0.0
C258 C 0.84528 0.52766 0.56824 0.0
C259 C 0.85295 0.47325 0.60307 0.0
H260 H 0.84115 0.46471 0.62686 0.0
H261 H 0.84227 0.45907 0.58153 0.0
H262 H 0.88032 0.46796 0.60442 0.0
O263 O 0.87223 0.55999 0.6941 0.0
O264 O 0.86412 0.60988 0.67062 0.0
H265 H 0.84678 0.58519 0.52971 0.0
H266 H 0.81036 0.59888 0.55314 0.0
C267 C 0.83697 0.59078 0.55521 0.0
H268 H 0.85166 0.61182 0.56613 0.0
H269 H 0.85912 0.6648 0.61889 0.0
O270 O 0.85627 0.48329 0.69048 0.0
C271 C 0.87896 0.59117 0.6919 0.0
Co272 Co 0.16952 0.02207 0.34032 0.0
Co273 Co 0.13829 0.09257 0.32355 0.0
C274 C 0.18603 0.05696 0.27637 0.0
O275 O 0.18827 0.03126 0.29525 0.0
O276 O 0.16736 0.08173 0.28437 0.0
C277 C 0.20612 0.96048 0.33891 0.0
O278 O 0.20813 0.96721 0.3067 0.0
C279 C 0.10309 0.14098 0.28161 0.0
C280 C 0.09293 0.18267 0.31679 0.0
C281 C 0.09016 0.17322 0.28341 0.0
N282 N 0.11339 0.13181 0.3124 0.0
N283 N 0.10685 0.15665 0.33347 0.0
C284 C 0.105 0.11892 0.25124 0.0
H285 H 0.10357 0.09205 0.25869 0.0
H286 H 0.08445 0.12505 0.23336 0.0
H287 H 0.12929 0.1231 0.23838 0.0
C288 C 0.0966 0.00481 0.34695 0.0
N289 N 0.12189 0.02666 0.34125 0.0
N290 N 0.10906 0.05656 0.33504 0.0
C291 C 0.07527 0.0548 0.33715 0.0
C292 C 0.06621 0.02201 0.34478 0.0
C293 C 0.10169 0.96824 0.35411 0.0
H294 H 0.11927 0.9654 0.37559 0.0
H295 H 0.11359 0.95616 0.33196 0.0
H296 H 0.07757 0.95545 0.35993 0.0
O297 O 0.1914 0.05444 0.37078 0.0
O298 O 0.16891 0.10434 0.3609 0.0
H299 H 0.05876 0.10518 0.34634 0.0
H300 H 0.02534 0.07679 0.33422 0.0
C301 C 0.05206 0.08358 0.33002 0.0
H302 H 0.05512 0.0915 0.30349 0.0
H303 H 0.11301 0.15632 0.35897 0.0
O304 O 0.18676 0.97825 0.35711 0.0
C305 C 0.18975 0.0858 0.3766 0.0
Co306 Co 0.52697 0.32781 0.15048 0.0
Co307 Co 0.59682 0.35585 0.17537 0.0
C308 C 0.5567 0.30785 0.21657 0.0
O309 O 0.5337 0.30624 0.19449 0.0
O310 O 0.58217 0.32689 0.21296 0.0
C311 C 0.46355 0.29412 0.15001 0.0
O312 O 0.46959 0.29129 0.18233 0.0
C313 C 0.64731 0.38639 0.21975 0.0
C314 C 0.68605 0.40274 0.18346 0.0
C315 C 0.67851 0.40177 0.21744 0.0
N316 N 0.63681 0.37873 0.18856 0.0
N317 N 0.66013 0.3885 0.16699 0.0
C318 C 0.62722 0.38002 0.25088 0.0
H319 H 0.59999 0.38298 0.24545 0.0
H320 H 0.63471 0.39745 0.27134 0.0
H321 H 0.63164 0.35379 0.25935 0.0
C322 C 0.51185 0.40172 0.149 0.0
N323 N 0.53283 0.37539 0.15335 0.0
N324 N 0.56246 0.38677 0.1629 0.0
C325 C 0.56141 0.4206 0.16444 0.0
C326 C 0.52923 0.4313 0.15611 0.0
C327 C 0.47541 0.39829 0.14032 0.0
H328 H 0.46484 0.37543 0.15234 0.0
H329 H 0.46095 0.42078 0.14833 0.0
H330 H 0.47293 0.39541 0.11269 0.0
O331 O 0.56025 0.30661 0.12042 0.0
O332 O 0.60949 0.32538 0.13831 0.0
H333 H 0.58582 0.46931 0.16827 0.0
H334 H 0.59818 0.43848 0.19941 0.0
C335 C 0.59108 0.44228 0.17271 0.0
H336 H 0.61268 0.43484 0.15679 0.0
H337 H 0.65842 0.38522 0.14102 0.0
O338 O 0.48288 0.31244 0.13224 0.0
C339 C 0.59219 0.3068 0.11887 0.0
Co340 Co 0.82548 0.96958 0.34022 0.0
Co341 Co 0.85772 0.89868 0.33043 0.0
C342 C 0.81051 0.93101 0.27992 0.0
O343 O 0.80916 0.95917 0.29482 0.0
O344 O 0.82756 0.90685 0.29197 0.0
C345 C 0.7756 0.01684 0.34609 0.0
O346 O 0.76023 0.99184 0.33092 0.0
C347 C 0.89264 0.8523 0.28698 0.0
C348 C 0.9022 0.80847 0.31968 0.0
C349 C 0.90498 0.81977 0.28683 0.0
N350 N 0.88256 0.85977 0.31829 0.0
N351 N 0.88864 0.83362 0.33789 0.0
C352 C 0.89103 0.87639 0.25809 0.0
H353 H 0.8954 0.90244 0.26714 0.0
H354 H 0.90987 0.86976 0.23859 0.0
H355 H 0.86562 0.87553 0.24663 0.0
C356 C 0.89855 0.9884 0.34611 0.0
N357 N 0.87333 0.96596 0.34247 0.0
N358 N 0.88638 0.93573 0.33903 0.0
C359 C 0.92009 0.93777 0.34108 0.0
C360 C 0.92915 0.97122 0.34537 0.0
C361 C 0.89324 0.0256 0.34782 0.0
H362 H 0.87121 0.03283 0.33228 0.0
H363 H 0.91591 0.03943 0.3392 0.0
H364 H 0.88779 0.03277 0.37421 0.0
O365 O 0.80315 0.93809 0.37219 0.0
O366 O 0.82886 0.88868 0.36919 0.0
H367 H 0.9682 0.91404 0.35065 0.0
H368 H 0.94607 0.89951 0.31374 0.0
C369 C 0.94307 0.90795 0.34014 0.0
H370 H 0.93198 0.88702 0.35484 0.0
H371 H 0.8824 0.83251 0.36334 0.0
O372 O 0.80693 0.01418 0.35236 0.0
C373 C 0.80641 0.9077 0.38176 0.0
Co374 Co 0.47955 0.67197 0.16618 0.0
Co375 Co 0.40897 0.64027 0.1813 0.0
C376 C 0.44463 0.68592 0.2304 0.0
O377 O 0.47058 0.68798 0.21196 0.0
O378 O 0.41926 0.6686 0.22126 0.0
C379 C 0.5262 0.72171 0.1589 0.0
O380 O 0.50108 0.73677 0.17413 0.0
C381 C 0.35761 0.60568 0.22103 0.0
C382 C 0.32007 0.59193 0.18251 0.0
C383 C 0.32628 0.59098 0.21678 0.0
N384 N 0.36928 0.61511 0.19078 0.0
N385 N 0.34683 0.60658 0.1678 0.0
C386 C 0.37669 0.60976 0.25316 0.0
H387 H 0.37037 0.63444 0.26441 0.0
H388 H 0.40417 0.60902 0.24828 0.0
H389 H 0.36977 0.58973 0.27134 0.0
C390 C 0.49706 0.59923 0.1575 0.0
N391 N 0.47514 0.62436 0.1636 0.0
N392 N 0.44531 0.6113 0.16985 0.0
C393 C 0.44728 0.57755 0.16753 0.0
C394 C 0.48001 0.56876 0.1595 0.0
C395 C 0.53374 0.60443 0.15114 0.0
H396 H 0.53702 0.62252 0.13015 0.0
H397 H 0.54544 0.61575 0.17381 0.0
H398 H 0.54657 0.58039 0.14505 0.0
O399 O 0.44781 0.69472 0.13545 0.0
O400 O 0.39809 0.67094 0.14366 0.0
H401 H 0.39763 0.55969 0.1573 0.0
H402 H 0.42629 0.52733 0.17136 0.0
C403 C 0.41876 0.55402 0.17458 0.0
H404 H 0.40987 0.55787 0.2007 0.0
H405 H 0.34943 0.61151 0.14217 0.0
O406 O 0.5239 0.69033 0.15268 0.0
C407 C 0.41666 0.69231 0.12874 0.0
Co408 Co 0.17429 0.97204 0.6626 0.0
Co409 Co 0.13822 0.90314 0.6747 0.0
C410 C 0.18746 0.93283 0.72431 0.0
O411 O 0.19093 0.95991 0.70771 0.0
O412 O 0.16826 0.90956 0.71379 0.0
C413 C 0.22445 0.02142 0.6602 0.0
O414 O 0.23917 0.9988 0.67923 0.0
C415 C 0.09934 0.85764 0.716 0.0
C416 C 0.08728 0.81603 0.68134 0.0
C417 C 0.08428 0.8263 0.71452 0.0
N418 N 0.11092 0.86547 0.6853 0.0
N419 N 0.10335 0.84068 0.66453 0.0
C420 C 0.10153 0.88054 0.74577 0.0
H421 H 0.12442 0.8746 0.76046 0.0
H422 H 0.10314 0.90715 0.73746 0.0
H423 H 0.07937 0.87705 0.76238 0.0
C424 C 0.10227 0.99425 0.65529 0.0
N425 N 0.12621 0.97082 0.66084 0.0
N426 N 0.1115 0.94149 0.66546 0.0
C427 C 0.07796 0.94515 0.6624 0.0
C428 C 0.07091 0.97864 0.65584 0.0
C429 C 0.10953 0.03063 0.64919 0.0
H430 H 0.12793 0.03303 0.62836 0.0
H431 H 0.12131 0.04154 0.67201 0.0
H432 H 0.08631 0.04482 0.64293 0.0
O433 O 0.19428 0.93996 0.62974 0.0
O434 O 0.16678 0.89179 0.63591 0.0
H435 H 0.05971 0.896 0.65017 0.0
H436 H 0.02696 0.9254 0.66162 0.0
C437 C 0.05308 0.91723 0.66697 0.0
H438 H 0.0542 0.90817 0.69327 0.0
H439 H 0.11012 0.8401 0.6392 0.0
O440 O 0.19429 0.0163 0.65052 0.0
C441 C 0.18915 0.90946 0.62134 0.0
Co442 Co 0.47359 0.32446 0.84423 0.0
Co443 Co 0.40391 0.35648 0.82373 0.0
C444 C 0.43974 0.30832 0.7791 0.0
O445 O 0.46366 0.30493 0.79995 0.0
O446 O 0.4154 0.32825 0.78466 0.0
C447 C 0.53538 0.28766 0.84021 0.0
O448 O 0.52621 0.28342 0.80882 0.0
C449 C 0.34613 0.38196 0.78517 0.0
C450 C 0.32524 0.42003 0.81975 0.0
C451 C 0.32141 0.40651 0.78786 0.0
N452 N 0.36441 0.38195 0.81363 0.0
N453 N 0.3513 0.40424 0.83446 0.0
C454 C 0.35005 0.35635 0.75784 0.0
H455 H 0.35526 0.33135 0.76901 0.0
H456 H 0.37153 0.36353 0.74156 0.0
H457 H 0.32698 0.3541 0.74234 0.0
C458 C 0.49187 0.39716 0.8492 0.0
N459 N 0.46951 0.37224 0.84369 0.0
N460 N 0.44057 0.38556 0.8344 0.0
C461 C 0.44394 0.41932 0.83317 0.0
C462 C 0.47615 0.42776 0.84315 0.0
C463 C 0.52782 0.3915 0.85858 0.0
H464 H 0.54072 0.37822 0.83771 0.0
H465 H 0.54094 0.4156 0.8638 0.0
H466 H 0.52905 0.37497 0.88103 0.0
O467 O 0.44152 0.3038 0.87573 0.0
O468 O 0.39238 0.3262 0.86173 0.0
H469 H 0.43056 0.46644 0.80952 0.0
H470 H 0.40448 0.43118 0.79813 0.0
C471 C 0.41843 0.44316 0.81904 0.0
H472 H 0.40064 0.45053 0.83916 0.0
H473 H 0.36043 0.40895 0.85861 0.0
O474 O 0.51833 0.30739 0.85882 0.0
C475 C 0.40989 0.30628 0.87968 0.0
Co476 Co 0.83076 0.03163 0.65438 0.0
Co477 Co 0.86217 0.10303 0.66533 0.0
C478 C 0.81413 0.06993 0.71465 0.0
O479 O 0.81333 0.04178 0.69961 0.0
O480 O 0.8313 0.09423 0.70306 0.0
C481 C 0.78087 0.98516 0.64612 0.0
O482 O 0.76575 0.01038 0.66117 0.0
C483 C 0.89652 0.14954 0.70972 0.0
C484 C 0.90929 0.19213 0.67653 0.0
C485 C 0.91079 0.18122 0.70959 0.0
N486 N 0.88683 0.14195 0.67828 0.0
N487 N 0.8947 0.16744 0.65844 0.0
C488 C 0.89324 0.12629 0.73911 0.0
H489 H 0.86941 0.13166 0.7525 0.0
H490 H 0.89286 0.09973 0.73051 0.0
H491 H 0.91431 0.13017 0.75701 0.0
C492 C 0.90416 0.01369 0.64973 0.0
N493 N 0.87864 0.03583 0.65304 0.0
N494 N 0.89132 0.06617 0.65706 0.0
C495 C 0.92511 0.06445 0.65583 0.0
C496 C 0.93458 0.03116 0.65138 0.0
C497 C 0.89928 0.97647 0.64738 0.0
H498 H 0.87685 0.96881 0.66212 0.0
H499 H 0.92183 0.96277 0.65651 0.0
H500 H 0.89474 0.9696 0.62073 0.0
O501 O 0.80883 0.06334 0.62262 0.0
O502 O 0.83367 0.11317 0.62606 0.0
H503 H 0.97351 0.08847 0.64859 0.0
H504 H 0.94947 0.10299 0.68427 0.0
C505 C 0.94785 0.09441 0.65779 0.0
H506 H 0.93738 0.11517 0.64242 0.0
H507 H 0.88941 0.1683 0.63276 0.0
O508 O 0.81242 0.9871 0.64075 0.0
C509 C 0.81161 0.09382 0.61324 0.0
Co510 Co 0.52487 0.66904 0.83689 0.0
Co511 Co 0.59606 0.63786 0.8259 0.0
C512 C 0.56298 0.68574 0.77636 0.0
O513 O 0.53484 0.68636 0.79148 0.0
O514 O 0.58735 0.66846 0.78777 0.0
C515 C 0.4797 0.71937 0.84605 0.0
O516 O 0.50517 0.73396 0.8309 0.0
C517 C 0.64411 0.60304 0.78386 0.0
C518 C 0.68456 0.58952 0.81943 0.0
C519 C 0.67537 0.58801 0.78586 0.0
N520 N 0.63511 0.61305 0.81476 0.0
N521 N 0.65929 0.60477 0.83602 0.0
C522 C 0.62257 0.607 0.75327 0.0
H523 H 0.62804 0.63157 0.74129 0.0
H524 H 0.59557 0.60646 0.76035 0.0
H525 H 0.62794 0.58679 0.73478 0.0
C526 C 0.50711 0.59542 0.84186 0.0
N527 N 0.52901 0.62118 0.83853 0.0
N528 N 0.55946 0.60874 0.83464 0.0
C529 C 0.55807 0.57497 0.83602 0.0
C530 C 0.52484 0.56523 0.84006 0.0
C531 C 0.4699 0.59969 0.84507 0.0
H532 H 0.46323 0.60057 0.87213 0.0
H533 H 0.46183 0.62364 0.83323 0.0
H534 H 0.45643 0.57818 0.83342 0.0
O535 O 0.55687 0.69156 0.86793 0.0
O536 O 0.60652 0.66684 0.86419 0.0
H537 H 0.60801 0.5629 0.85211 0.0
H538 H 0.58219 0.52664 0.84374 0.0
C539 C 0.58832 0.55254 0.83534 0.0
H540 H 0.59848 0.55153 0.8094 0.0
H541 H 0.65881 0.61013 0.86169 0.0
O542 O 0.48087 0.68775 0.85125 0.0
C543 C 0.58745 0.68908 0.87693 0.0
Co544 Co 0.34001 0.1698 0.02543 0.0
Co545 Co 0.32491 0.14042 0.09662 0.0
C546 C 0.27508 0.18385 0.05875 0.0
O547 O 0.29358 0.1854 0.03279 0.0
O548 O 0.28445 0.16743 0.08461 0.0
C549 C 0.34919 0.21903 0.9796 0.0
O550 O 0.33443 0.23387 0.00512 0.0
C551 C 0.28404 0.1033 0.14453 0.0
C552 C 0.31913 0.09498 0.18674 0.0
C553 C 0.28623 0.08964 0.17648 0.0
N554 N 0.31415 0.11617 0.13631 0.0
N555 N 0.33512 0.11098 0.16155 0.0
C556 C 0.25425 0.10323 0.12156 0.0
H557 H 0.26264 0.10259 0.09495 0.0
H558 H 0.23772 0.08136 0.12685 0.0
H559 H 0.23959 0.12661 0.1255 0.0
C560 C 0.34896 0.09634 0.01007 0.0
N561 N 0.3433 0.12229 0.0312 0.0
N562 N 0.33792 0.11036 0.06159 0.0
C563 C 0.34085 0.0766 0.06097 0.0
C564 C 0.34766 0.06634 0.02829 0.0
C565 C 0.35265 0.10034 0.97287 0.0
H566 H 0.33748 0.12204 0.96403 0.0
H567 H 0.34478 0.07716 0.95945 0.0
H568 H 0.37941 0.10559 0.96693 0.0
O569 O 0.36921 0.19449 0.05743 0.0
O570 O 0.36083 0.17291 0.10791 0.0
H571 H 0.35208 0.06623 0.11259 0.0
H572 H 0.34882 0.02923 0.08676 0.0
C573 C 0.33822 0.05461 0.09142 0.0
H574 H 0.3114 0.05208 0.09865 0.0
H575 H 0.36016 0.11888 0.16181 0.0
O576 O 0.3547 0.18748 0.98119 0.0
C577 C 0.3753 0.19407 0.08877 0.0
Co578 Co 0.34874 0.82475 0.97614 0.0
Co579 Co 0.32787 0.85778 0.90774 0.0
C580 C 0.28323 0.80869 0.94367 0.0
O581 O 0.3038 0.80511 0.96784 0.0
O582 O 0.2893 0.82838 0.91925 0.0
C583 C 0.36025 0.77577 0.02307 0.0
O584 O 0.34523 0.75936 0.99865 0.0
C585 C 0.28418 0.8905 0.85906 0.0
C586 C 0.32 0.90821 0.82051 0.0
C587 C 0.28606 0.90611 0.82806 0.0
N588 N 0.31552 0.88332 0.86933 0.0
N589 N 0.3369 0.89421 0.84633 0.0
C590 C 0.25316 0.88314 0.87906 0.0
H591 H 0.25817 0.88737 0.90618 0.0
H592 H 0.23182 0.89914 0.87077 0.0
H593 H 0.24614 0.85635 0.87565 0.0
C594 C 0.35411 0.89771 0.99533 0.0
N595 N 0.34813 0.8728 0.97306 0.0
N596 N 0.3399 0.88631 0.94397 0.0
C597 C 0.34078 0.92008 0.94667 0.0
C598 C 0.34989 0.92851 0.9792 0.0
C599 C 0.36336 0.89194 0.03127 0.0
H600 H 0.38589 0.8755 0.0325 0.0
H601 H 0.34251 0.87847 0.04403 0.0
H602 H 0.36851 0.91597 0.0445 0.0
O603 O 0.37946 0.80437 0.9427 0.0
O604 O 0.36559 0.82827 0.8943 0.0
H605 H 0.34856 0.94018 0.89748 0.0
H606 H 0.33262 0.97049 0.92731 0.0
C607 C 0.33133 0.94386 0.91907 0.0
H608 H 0.30537 0.93829 0.91053 0.0
H609 H 0.36294 0.89127 0.84784 0.0
O610 O 0.36456 0.80737 0.02008 0.0
C611 C 0.38334 0.80764 0.91113 0.0
Co612 Co 0.32461 0.15016 0.52775 0.0
Co613 Co 0.35864 0.17805 0.59278 0.0
C614 C 0.30731 0.21825 0.55913 0.0
O615 O 0.30362 0.19497 0.53745 0.0
O616 O 0.32931 0.21617 0.58219 0.0
C617 C 0.28428 0.1499 0.46846 0.0
O618 O 0.27765 0.18085 0.47783 0.0
C619 C 0.38581 0.21541 0.65006 0.0
C620 C 0.43086 0.18544 0.66281 0.0
C621 C 0.41361 0.21453 0.67125 0.0
N622 N 0.38735 0.18875 0.62943 0.0
N623 N 0.41392 0.17056 0.63762 0.0
C624 C 0.35642 0.23894 0.65136 0.0
H625 H 0.33294 0.22522 0.64513 0.0
H626 H 0.36002 0.25925 0.63256 0.0
H627 H 0.35356 0.25026 0.67667 0.0
C628 C 0.39717 0.14116 0.50872 0.0
N629 N 0.37249 0.15131 0.52962 0.0
N630 N 0.38586 0.1678 0.55481 0.0
C631 C 0.41894 0.17208 0.54902 0.0
C632 C 0.428 0.15443 0.52003 0.0
C633 C 0.39093 0.11629 0.48119 0.0
H634 H 0.36948 0.09975 0.48802 0.0
H635 H 0.38379 0.12986 0.45789 0.0
H636 H 0.41351 0.10054 0.47657 0.0
O637 O 0.30655 0.1199 0.56137 0.0
O638 O 0.32932 0.13957 0.60824 0.0
H639 H 0.45486 0.18474 0.58738 0.0
H640 H 0.45768 0.21007 0.55012 0.0
C641 C 0.43995 0.19738 0.56755 0.0
H642 H 0.42368 0.21663 0.5795 0.0
H643 H 0.42077 0.14825 0.62563 0.0
O644 O 0.30639 0.1332 0.48449 0.0
C645 C 0.30975 0.11916 0.59306 0.0
Co646 Co 0.65466 0.17172 0.97144 0.0
Co647 Co 0.68083 0.14076 0.90419 0.0
C648 C 0.72367 0.18763 0.94268 0.0
O649 O 0.70115 0.19058 0.96524 0.0
O650 O 0.71927 0.1684 0.91756 0.0
C651 C 0.65573 0.20519 0.03456 0.0
O652 O 0.6884 0.20425 0.03 0.0
C653 C 0.72238 0.11057 0.85165 0.0
C654 C 0.68451 0.0859 0.81937 0.0
C655 C 0.71855 0.09255 0.82221 0.0
N656 N 0.69196 0.11489 0.86556 0.0
N657 N 0.66941 0.09977 0.84634 0.0
C658 C 0.75455 0.12323 0.86645 0.0
H659 H 0.75452 0.11932 0.89405 0.0
H660 H 0.77664 0.1103 0.85533 0.0
H661 H 0.75656 0.15057 0.86138 0.0
C662 C 0.6415 0.09819 0.98522 0.0
N663 N 0.6528 0.12399 0.96627 0.0
N664 N 0.6676 0.11172 0.93949 0.0
C665 C 0.66902 0.07804 0.94176 0.0
C666 C 0.65117 0.06771 0.97022 0.0
C667 C 0.6209 0.10315 0.01627 0.0
H668 H 0.60705 0.12734 0.01486 0.0
H669 H 0.63784 0.10417 0.03842 0.0
H670 H 0.60275 0.08219 0.01961 0.0
O671 O 0.62651 0.19383 0.93786 0.0
O672 O 0.64438 0.17235 0.88982 0.0
H673 H 0.68036 0.05094 0.89655 0.0
H674 H 0.70057 0.03424 0.93387 0.0
C675 C 0.69262 0.05752 0.9207 0.0
H676 H 0.71543 0.07248 0.91486 0.0
H677 H 0.64363 0.09959 0.85125 0.0
O678 O 0.63683 0.18876 0.01467 0.0
C679 C 0.62536 0.19239 0.90602 0.0
Co680 Co 0.66916 0.84378 0.53074 0.0
Co681 Co 0.63853 0.83157 0.60179 0.0
C682 C 0.68376 0.78071 0.56694 0.0
O683 O 0.68555 0.79785 0.54004 0.0
O684 O 0.66698 0.79132 0.59205 0.0
C685 C 0.7183 0.85274 0.48447 0.0
O686 O 0.73356 0.83782 0.50969 0.0
C687 C 0.59903 0.79194 0.64879 0.0
C688 C 0.59736 0.82444 0.69359 0.0
C689 C 0.58818 0.79301 0.6817 0.0
N690 N 0.61368 0.8214 0.64124 0.0
N691 N 0.61202 0.84106 0.66797 0.0
C692 C 0.59673 0.76253 0.62551 0.0
H693 H 0.60585 0.76917 0.60002 0.0
H694 H 0.57017 0.75406 0.62396 0.0
H695 H 0.61148 0.74124 0.63584 0.0
C696 C 0.5959 0.85171 0.51365 0.0
N697 N 0.62145 0.84663 0.53543 0.0
N698 N 0.60895 0.84232 0.56575 0.0
C699 C 0.57521 0.84531 0.56441 0.0
C700 C 0.56559 0.85108 0.53135 0.0
C701 C 0.60057 0.85475 0.47648 0.0
H702 H 0.62206 0.83897 0.46826 0.0
H703 H 0.57744 0.84721 0.46278 0.0
H704 H 0.60654 0.88129 0.47021 0.0
O705 O 0.69273 0.87482 0.56193 0.0
O706 O 0.66936 0.86925 0.6121 0.0
H707 H 0.56452 0.85742 0.61584 0.0
H708 H 0.52789 0.85584 0.58915 0.0
C709 C 0.55262 0.84406 0.59448 0.0
H710 H 0.5485 0.81745 0.60178 0.0
H711 H 0.62248 0.8651 0.66927 0.0
O712 O 0.68668 0.85754 0.48625 0.0
C713 C 0.69097 0.88283 0.59281 0.0
Co714 Co 0.65056 0.82525 0.02503 0.0
Co715 Co 0.67849 0.85895 0.09006 0.0
C716 C 0.71934 0.80869 0.05353 0.0
O717 O 0.69656 0.80546 0.03123 0.0
O718 O 0.71576 0.82912 0.07783 0.0
C719 C 0.64905 0.79031 0.9628 0.0
O720 O 0.68177 0.78929 0.96717 0.0
C721 C 0.72086 0.88874 0.14219 0.0
C722 C 0.68443 0.9195 0.17068 0.0
C723 C 0.7177 0.90933 0.16997 0.0
N724 N 0.69074 0.88641 0.12717 0.0
N725 N 0.6691 0.90512 0.14411 0.0
C726 C 0.75214 0.87194 0.12983 0.0
H727 H 0.75042 0.84459 0.13509 0.0
H728 H 0.75438 0.87551 0.10227 0.0
H729 H 0.77492 0.88222 0.14228 0.0
C730 C 0.63891 0.8977 0.00751 0.0
N731 N 0.65029 0.87304 0.02779 0.0
N732 N 0.66632 0.88654 0.0532 0.0
C733 C 0.66871 0.91993 0.04845 0.0
C734 C 0.65073 0.92883 0.01953 0.0
C735 C 0.61392 0.89103 0.98016 0.0
H736 H 0.59801 0.86912 0.98702 0.0
H737 H 0.62742 0.88437 0.95669 0.0
H738 H 0.5975 0.91319 0.97585 0.0
O739 O 0.62267 0.80525 0.05982 0.0
O740 O 0.6408 0.82964 0.10646 0.0
H741 H 0.6771 0.952 0.09088 0.0
H742 H 0.7015 0.96303 0.05414 0.0
C743 C 0.69134 0.94184 0.06918 0.0
H744 H 0.71279 0.92693 0.07894 0.0
H745 H 0.64369 0.90744 0.13795 0.0
O746 O 0.63127 0.80769 0.98282 0.0
C747 C 0.62156 0.80886 0.09145 0.0
Co748 Co 0.32579 0.84412 0.4722 0.0
Co749 Co 0.36204 0.82845 0.40448 0.0
C750 C 0.31445 0.77917 0.43763 0.0
O751 O 0.31021 0.79756 0.46343 0.0
O752 O 0.33368 0.78858 0.41389 0.0
C753 C 0.27421 0.85296 0.5167 0.0
O754 O 0.25977 0.83788 0.49111 0.0
C755 C 0.40278 0.78679 0.3608 0.0
C756 C 0.41233 0.82011 0.31748 0.0
C757 C 0.41736 0.78774 0.32935 0.0
N758 N 0.38958 0.81714 0.36737 0.0
N759 N 0.3957 0.83715 0.34156 0.0
C760 C 0.40274 0.75781 0.38481 0.0
H761 H 0.38455 0.73854 0.37633 0.0
H762 H 0.396 0.76626 0.41051 0.0
H763 H 0.42796 0.74583 0.38515 0.0
C764 C 0.39765 0.85387 0.49408 0.0
N765 N 0.37379 0.84741 0.4708 0.0
N766 N 0.3886 0.84169 0.44178 0.0
C767 C 0.42213 0.84505 0.44545 0.0
C768 C 0.42909 0.85284 0.47868 0.0
C769 C 0.39034 0.86021 0.53037 0.0
H770 H 0.3712 0.88041 0.53257 0.0
H771 H 0.37948 0.83711 0.54167 0.0
H772 H 0.4134 0.86749 0.54433 0.0
O773 O 0.3038 0.87322 0.43781 0.0
O774 O 0.33088 0.8641 0.3901 0.0
H775 H 0.44018 0.85322 0.39541 0.0
H776 H 0.47311 0.84548 0.42577 0.0
C777 C 0.44719 0.83863 0.41811 0.0
H778 H 0.44687 0.81154 0.4116 0.0
H779 H 0.38746 0.86201 0.33987 0.0
O780 O 0.30569 0.85872 0.51541 0.0
C781 C 0.30766 0.87871 0.40651 0.0
Co782 Co 0.67069 0.15526 0.46594 0.0
Co783 Co 0.63758 0.17459 0.3972 0.0
C784 C 0.6873 0.22026 0.42977 0.0
O785 O 0.68882 0.20118 0.45549 0.0
O786 O 0.66816 0.21312 0.4051 0.0
C787 C 0.7215 0.14647 0.51094 0.0
O788 O 0.73617 0.16131 0.48535 0.0
C789 C 0.60858 0.20937 0.33931 0.0
C790 C 0.56323 0.17939 0.32824 0.0
C791 C 0.57996 0.20869 0.31946 0.0
N792 N 0.60815 0.18275 0.35995 0.0
N793 N 0.5814 0.16437 0.35262 0.0
C794 C 0.63812 0.23216 0.33589 0.0
H795 H 0.66125 0.21688 0.33868 0.0
H796 H 0.63722 0.25146 0.35601 0.0
H797 H 0.63882 0.2447 0.31099 0.0
C798 C 0.59741 0.14439 0.48343 0.0
N799 N 0.62284 0.15331 0.46277 0.0
N800 N 0.61008 0.16707 0.43565 0.0
C801 C 0.57671 0.17095 0.43961 0.0
C802 C 0.5668 0.15483 0.46918 0.0
C803 C 0.60278 0.12574 0.51563 0.0
H804 H 0.62704 0.11196 0.51492 0.0
H805 H 0.60376 0.14398 0.53671 0.0
H806 H 0.5819 0.10777 0.52019 0.0
O807 O 0.69152 0.12475 0.43395 0.0
O808 O 0.66684 0.13518 0.38511 0.0
H809 H 0.54388 0.18699 0.39939 0.0
H810 H 0.5383 0.20942 0.43806 0.0
C811 C 0.55724 0.19767 0.42126 0.0
H812 H 0.57459 0.21742 0.41182 0.0
H813 H 0.57487 0.14223 0.36512 0.0
O814 O 0.68986 0.14142 0.50981 0.0
C815 C 0.68834 0.1192 0.40275 0.0
C816 C 0.15849 0.4257 0.24497 0.0
C817 C 0.13898 0.4428 0.26908 0.0
C818 C 0.1436 0.40548 0.22025 0.0
C819 C 0.10848 0.40132 0.21851 0.0
H820 H 0.18562 0.42829 0.24477 0.0
H821 H 0.15992 0.39292 0.20244 0.0
S822 S 0.04576 0.44028 0.27589 0.0
N823 N 0.08243 0.4539 0.28979 0.0
N824 N 0.05444 0.41595 0.24345 0.0
C825 C 0.08858 0.41801 0.24268 0.0
C826 C 0.10379 0.43864 0.26791 0.0
C827 C 0.94782 0.34619 0.27324 0.0
C828 C 0.9563 0.36202 0.24274 0.0
C829 C 0.92416 0.36029 0.29522 0.0
C830 C 0.90853 0.39115 0.28786 0.0
H831 H 0.95976 0.32275 0.28036 0.0
H832 H 0.91859 0.34719 0.31844 0.0
S833 S 0.92184 0.44263 0.21087 0.0
N834 N 0.94691 0.4099 0.20597 0.0
N835 N 0.90278 0.43679 0.24725 0.0
C836 C 0.91658 0.40711 0.25717 0.0
C837 C 0.94032 0.39243 0.2346 0.0
C838 C 0.84036 0.57191 0.24454 0.0
C839 C 0.86021 0.55466 0.26826 0.0
C840 C 0.85494 0.59208 0.21961 0.0
C841 C 0.89006 0.59597 0.21729 0.0
H842 H 0.81321 0.56956 0.24486 0.0
H843 H 0.8384 0.60486 0.20214 0.0
S844 S 0.95358 0.55626 0.27333 0.0
N845 N 0.91706 0.54296 0.2879 0.0
N846 N 0.94447 0.58076 0.24111 0.0
C847 C 0.9103 0.57901 0.24099 0.0
C848 C 0.89541 0.55848 0.26645 0.0
C849 C 0.07563 0.63765 0.29232 0.0
C850 C 0.09124 0.6068 0.28489 0.0
C851 C 0.05144 0.6515 0.27074 0.0
C852 C 0.04239 0.63544 0.24054 0.0
H853 H 0.08165 0.65097 0.3153 0.0
H854 H 0.03956 0.67495 0.27793 0.0
S855 S 0.07647 0.55471 0.20868 0.0
N856 N 0.09629 0.56086 0.24464 0.0
N857 N 0.05117 0.58731 0.20399 0.0
C858 C 0.0583 0.60501 0.23233 0.0
C859 C 0.08257 0.59056 0.25456 0.0
C860 C 0.14822 0.55676 0.77382 0.0
C861 C 0.1342 0.55015 0.74195 0.0
C862 C 0.13492 0.58173 0.79486 0.0
C863 C 0.10666 0.60051 0.78509 0.0
H864 H 0.16934 0.54213 0.78289 0.0
H865 H 0.14612 0.58547 0.81941 0.0
S866 S 0.06191 0.59462 0.70326 0.0
N867 N 0.09172 0.56581 0.70088 0.0
N868 N 0.06633 0.61234 0.74052 0.0
C869 C 0.09305 0.5949 0.75283 0.0
C870 C 0.10695 0.56986 0.73121 0.0
C871 C 0.06207 0.39397 0.76442 0.0
C872 C 0.04479 0.36451 0.75546 0.0
C873 C 0.08546 0.40864 0.7425 0.0
C874 C 0.09292 0.39405 0.71107 0.0
H875 H 0.05666 0.40646 0.788 0.0
H876 H 0.09782 0.43163 0.75033 0.0
S877 S 0.05611 0.31548 0.67685 0.0
N878 N 0.03761 0.32044 0.71367 0.0
N879 N 0.08217 0.34758 0.67286 0.0
C880 C 0.07667 0.36392 0.70235 0.0
C881 C 0.05244 0.34929 0.72443 0.0
C882 C 0.90688 0.41271 0.75603 0.0
C883 C 0.89224 0.40544 0.7875 0.0
C884 C 0.89257 0.43644 0.73417 0.0
C885 C 0.86344 0.45424 0.74324 0.0
H886 H 0.92964 0.39997 0.74817 0.0
H887 H 0.90507 0.44169 0.71056 0.0
S888 S 0.81454 0.44381 0.82206 0.0
N889 N 0.84615 0.41716 0.82591 0.0
N890 N 0.81968 0.46218 0.7852 0.0
C891 C 0.84821 0.44681 0.77431 0.0
C892 C 0.86246 0.42231 0.79633 0.0
C893 C 0.94594 0.64908 0.72731 0.0
C894 C 0.95307 0.63475 0.75888 0.0
C895 C 0.92156 0.63517 0.70604 0.0
C896 C 0.90388 0.60599 0.71524 0.0
H897 H 0.95951 0.67114 0.7188 0.0
H898 H 0.91713 0.64696 0.68188 0.0
S899 S 0.91232 0.55937 0.79578 0.0
N900 N 0.93972 0.59044 0.79884 0.0
N901 N 0.89423 0.56389 0.75869 0.0
C902 C 0.91038 0.59168 0.74701 0.0
C903 C 0.93484 0.6062 0.76891 0.0
C904 C 0.21213 0.13582 0.40764 0.0
C905 C 0.21427 0.10131 0.40017 0.0
C906 C 0.23555 0.15141 0.4288 0.0
C907 C 0.2622 0.13321 0.44343 0.0
H908 H 0.1921 0.15106 0.39718 0.0
H909 H 0.23232 0.17794 0.43408 0.0
S910 S 0.28019 0.04238 0.43091 0.0
N911 N 0.24604 0.04947 0.40842 0.0
N912 N 0.28999 0.07885 0.4481 0.0
C913 C 0.26508 0.09878 0.43574 0.0
C914 C 0.24113 0.08282 0.41424 0.0
C915 C 0.59015 0.25733 0.0801 0.0
C916 C 0.60932 0.28204 0.09676 0.0
C917 C 0.60546 0.23199 0.06109 0.0
C918 C 0.64065 0.2302 0.0578 0.0
H919 H 0.56297 0.25722 0.08192 0.0
H920 H 0.58942 0.21385 0.04861 0.0
S921 S 0.70254 0.28897 0.09602 0.0
N922 N 0.66561 0.30318 0.1085 0.0
N923 N 0.69439 0.25558 0.07279 0.0
C924 C 0.66024 0.25466 0.07439 0.0
C925 C 0.6446 0.28058 0.09375 0.0
C926 C 0.77056 0.85177 0.45012 0.0
C927 C 0.73875 0.86594 0.45639 0.0
C928 C 0.7921 0.86527 0.4258 0.0
C929 C 0.78295 0.8939 0.40718 0.0
H930 H 0.77907 0.83009 0.46429 0.0
H931 H 0.81638 0.85349 0.42203 0.0
S932 S 0.70198 0.94019 0.4135 0.0
N933 N 0.69873 0.90972 0.44153 0.0
N934 N 0.73935 0.93552 0.39603 0.0
C935 C 0.75099 0.90817 0.41294 0.0
C936 C 0.72883 0.89405 0.43742 0.0
C937 C 0.35919 0.72542 0.06028 0.0
C938 C 0.37357 0.75672 0.05207 0.0
C939 C 0.37283 0.70511 0.08559 0.0
C940 C 0.40182 0.715 0.10322 0.0
H941 H 0.33731 0.71633 0.04681 0.0
H942 H 0.36106 0.68106 0.09074 0.0
S943 S 0.44839 0.79531 0.09229 0.0
N944 N 0.41763 0.79729 0.06446 0.0
N945 N 0.44373 0.7589 0.11172 0.0
C946 C 0.41613 0.74657 0.09573 0.0
C947 C 0.40186 0.76752 0.07028 0.0
C948 C 0.26327 0.89409 0.563 0.0
C949 C 0.25326 0.86554 0.54473 0.0
C950 C 0.24224 0.90824 0.5875 0.0
C951 C 0.21063 0.89405 0.59505 0.0
H952 H 0.28713 0.90616 0.55774 0.0
H953 H 0.25094 0.93043 0.60069 0.0
S954 S 0.17353 0.81807 0.55542 0.0
N955 N 0.21017 0.82287 0.53652 0.0
N956 N 0.17088 0.84913 0.58281 0.0
C957 C 0.20072 0.86498 0.57749 0.0
C958 C 0.22195 0.85084 0.55228 0.0
C959 C 0.40791 0.25287 0.91279 0.0
C960 C 0.39315 0.28398 0.90432 0.0
C961 C 0.39269 0.23108 0.93595 0.0
C962 C 0.36249 0.23992 0.95194 0.0
H963 H 0.43144 0.2452 0.90139 0.0
H964 H 0.40529 0.20774 0.94223 0.0
S965 S 0.313 0.31785 0.93789 0.0
N966 N 0.34593 0.32186 0.91294 0.0
N967 N 0.31771 0.28129 0.957 0.0
C968 C 0.34718 0.27066 0.94334 0.0
C969 C 0.36238 0.29259 0.91938 0.0
C970 C 0.79623 0.13578 0.569 0.0
C971 C 0.78772 0.1072 0.58795 0.0
C972 C 0.77421 0.14866 0.54471 0.0
C973 C 0.74255 0.13388 0.53887 0.0
H974 H 0.82035 0.14798 0.57246 0.0
H975 H 0.7822 0.17033 0.53024 0.0
S976 S 0.70742 0.0595 0.58284 0.0
N977 N 0.74487 0.06499 0.59992 0.0
N978 N 0.7034 0.08961 0.55454 0.0
C979 C 0.73329 0.10582 0.55822 0.0
C980 C 0.75592 0.09234 0.58263 0.0
C981 C 0.65188 0.74005 0.92544 0.0
C982 C 0.63271 0.76622 0.93956 0.0
C983 C 0.63686 0.71483 0.90607 0.0
C984 C 0.60201 0.71474 0.89979 0.0
H985 H 0.67873 0.73855 0.92981 0.0
H986 H 0.6529 0.69538 0.89575 0.0
S987 S 0.54051 0.77825 0.9303 0.0
N988 N 0.57702 0.79095 0.94545 0.0
N989 N 0.54869 0.74359 0.90901 0.0
C990 C 0.58249 0.74096 0.91357 0.0
C991 C 0.59785 0.76668 0.93337 0.0
C992 C 0.42375 0.24552 0.15318 0.0
C993 C 0.43912 0.2709 0.13382 0.0
C994 C 0.4036 0.22071 0.13837 0.0
C995 C 0.39776 0.22017 0.10349 0.0
H996 H 0.42783 0.24422 0.18007 0.0
H997 H 0.39261 0.20174 0.15454 0.0
S998 S 0.43065 0.28207 0.0415 0.0
N999 N 0.44605 0.29472 0.0779 0.0
N1000 N 0.40816 0.24823 0.04998 0.0
C1001 C 0.41242 0.24584 0.08381 0.0
C1002 C 0.43301 0.27115 0.09896 0.0
C1003 C 0.41594 0.75392 0.90771 0.0
C1004 C 0.40737 0.78527 0.89352 0.0
C1005 C 0.43808 0.73186 0.89139 0.0
C1006 C 0.45292 0.74061 0.86058 0.0
H1007 H 0.40536 0.74623 0.9316 0.0
H1008 H 0.44448 0.70834 0.90356 0.0
S1009 S 0.43825 0.81916 0.81229 0.0
N1010 N 0.41478 0.82336 0.84625 0.0
N1011 N 0.45689 0.78222 0.81594 0.0
C1012 C 0.44428 0.77163 0.84588 0.0
C1013 C 0.42137 0.79387 0.86224 0.0
C1014 C 0.23624 0.06217 0.61407 0.0
C1015 C 0.24477 0.04905 0.6457 0.0
C1016 C 0.25748 0.08483 0.59754 0.0
C1017 C 0.2879 0.09576 0.61216 0.0
H1018 H 0.21359 0.05395 0.60133 0.0
H1019 H 0.24995 0.09374 0.57292 0.0
S1020 S 0.32037 0.0711 0.69597 0.0
N1021 N 0.28482 0.04995 0.692 0.0
N1022 N 0.32446 0.09319 0.66105 0.0
C1023 C 0.29606 0.08397 0.64443 0.0
C1024 C 0.2746 0.06044 0.66113 0.0
C1025 C 0.5655 0.26519 0.89054 0.0
C1026 C 0.56075 0.26489 0.85553 0.0
C1027 C 0.58609 0.24149 0.90638 0.0
C1028 C 0.6031 0.21643 0.88797 0.0
H1029 H 0.55263 0.28344 0.90613 0.0
H1030 H 0.58857 0.24294 0.93346 0.0
S1031 S 0.60054 0.20549 0.79532 0.0
N1032 N 0.57576 0.238 0.80259 0.0
N1033 N 0.61462 0.19349 0.83246 0.0
C1034 C 0.59924 0.21623 0.8528 0.0
C1035 C 0.57811 0.24044 0.83659 0.0
C1036 C 0.72917 0.94985 0.64905 0.0
C1037 C 0.76022 0.95685 0.63354 0.0
C1038 C 0.70721 0.92555 0.63604 0.0
C1039 C 0.71511 0.90774 0.60658 0.0
H1040 H 0.72155 0.9635 0.67134 0.0
H1041 H 0.68351 0.92128 0.64878 0.0
S1042 S 0.79382 0.91597 0.55682 0.0
N1043 N 0.79828 0.94334 0.58772 0.0
N1044 N 0.75687 0.89799 0.56283 0.0
C1045 C 0.74638 0.91413 0.59105 0.0
C1046 C 0.76899 0.93854 0.60467 0.0
C1047 C 0.56839 0.73302 0.11402 0.0
C1048 C 0.55353 0.74239 0.14459 0.0
C1049 C 0.59047 0.75473 0.09728 0.0
C1050 C 0.59902 0.7864 0.11076 0.0
H1051 H 0.56184 0.70937 0.10217 0.0
H1052 H 0.60074 0.74665 0.0734 0.0
S1053 S 0.56913 0.82147 0.19172 0.0
N1054 N 0.55021 0.7846 0.18874 0.0
N1055 N 0.59244 0.82511 0.15755 0.0
C1056 C 0.58556 0.79542 0.1421 0.0
C1057 C 0.5626 0.7735 0.15891 0.0
C1058 C 0.23084 0.93339 0.39014 0.0
C1059 C 0.23103 0.93769 0.35502 0.0
C1060 C 0.25602 0.91492 0.40649 0.0
C1061 C 0.2826 0.89993 0.3885 0.0
H1062 H 0.2113 0.94474 0.40533 0.0
H1063 H 0.25447 0.91237 0.43356 0.0
S1064 S 0.2947 0.90325 0.2959 0.0
N1065 N 0.26001 0.92499 0.30261 0.0
N1066 N 0.30731 0.89046 0.33329 0.0
C1067 C 0.28303 0.90386 0.35328 0.0
C1068 C 0.25726 0.92258 0.33659 0.0
C1069 C 0.72307 0.05139 0.34528 0.0
C1070 C 0.7554 0.04549 0.35865 0.0
C1071 C 0.70172 0.07593 0.35894 0.0
C1072 C 0.71171 0.09497 0.38691 0.0
H1073 H 0.7139 0.03655 0.32435 0.0
H1074 H 0.67689 0.07922 0.34822 0.0
S1075 S 0.79468 0.0911 0.42991 0.0
N1076 N 0.79701 0.0622 0.40023 0.0
N1077 N 0.75692 0.10794 0.42619 0.0
C1078 C 0.74438 0.09007 0.39988 0.0
C1079 C 0.76624 0.06547 0.38566 0.0
C1080 C 0.01245 0.32493 0.9767 0.0
C1081 C 0.99065 0.35041 0.96567 0.0
C1082 C 0.0242 0.32424 0.00998 0.0
C1083 C 0.01484 0.3492 0.03333 0.0
H1084 H 0.01981 0.30497 0.9597 0.0
H1085 H 0.04049 0.30378 0.01759 0.0
S1086 S 0.95963 0.42233 0.01608 0.0
N1087 N 0.96071 0.40158 0.98012 0.0
N1088 N 0.98354 0.40087 0.04244 0.0
C1089 C 0.99343 0.37509 0.02236 0.0
C1090 C 0.98124 0.37561 0.98855 0.0
C1091 C 0.87487 0.48197 0.48968 0.0
C1092 C 0.84921 0.4892 0.46644 0.0
C1093 C 0.87342 0.4943 0.52274 0.0
C1094 C 0.84616 0.51406 0.53355 0.0
H1095 H 0.89604 0.46652 0.48226 0.0
H1096 H 0.89382 0.48855 0.53986 0.0
S1097 S 0.77136 0.53748 0.48288 0.0
N1098 N 0.79528 0.51592 0.45667 0.0
N1099 N 0.79199 0.53843 0.51891 0.0
C1100 C 0.82012 0.52089 0.51059 0.0
C1101 C 0.8218 0.50864 0.47696 0.0
C1102 C 0.01788 0.62906 0.98861 0.0
C1103 C 0.00751 0.65345 0.96519 0.0
C1104 C 0.00522 0.62898 0.02159 0.0
C1105 C 0.98217 0.65359 0.03225 0.0
H1106 H 0.03591 0.60998 0.98134 0.0
H1107 H 0.01334 0.60946 0.03876 0.0
S1108 S 0.95044 0.72514 0.98131 0.0
N1109 N 0.97462 0.70378 0.95518 0.0
N1110 N 0.95184 0.70464 0.01739 0.0
C1111 C 0.97245 0.67865 0.00919 0.0
C1112 C 0.98488 0.67833 0.97557 0.0
C1113 C 0.17818 0.5163 0.52364 0.0
C1114 C 0.15333 0.49416 0.53532 0.0
C1115 C 0.17808 0.52758 0.49018 0.0
C1116 C 0.15289 0.51742 0.46737 0.0
H1117 H 0.19832 0.52419 0.54021 0.0
H1118 H 0.19816 0.54406 0.48199 0.0
S1119 S 0.08126 0.46085 0.48658 0.0
N1120 N 0.10274 0.46271 0.52209 0.0
N1121 N 0.1016 0.48507 0.45963 0.0
C1122 C 0.12758 0.4957 0.47908 0.0
C1123 C 0.12801 0.48384 0.51299 0.0
C1124 C 0.9869 0.97507 0.32081 0.0
C1125 C 0.96388 0.98492 0.34584 0.0
C1126 C 0.02029 0.98644 0.32118 0.0
C1127 C 0.03169 0.00831 0.34639 0.0
H1128 H 0.97898 0.95857 0.30065 0.0
H1129 H 0.03715 0.97859 0.30127 0.0
S1130 S 0.98209 0.04072 0.4182 0.0
N1131 N 0.95532 0.01688 0.39716 0.0
N1132 N 0.01794 0.03903 0.39726 0.0
C1133 C 0.00909 0.01834 0.37156 0.0
C1134 C 0.97516 0.00654 0.37138 0.0
C1135 C 0.50055 0.48066 0.12915 0.0
C1136 C 0.51615 0.46623 0.15742 0.0
C1137 C 0.48947 0.51424 0.12966 0.0
C1138 C 0.49392 0.53436 0.15836 0.0
H1139 H 0.4972 0.466 0.10644 0.0
H1140 H 0.47727 0.52453 0.10758 0.0
S1141 S 0.53063 0.50782 0.23961 0.0
N1142 N 0.53329 0.47406 0.21557 0.0
N1143 N 0.51325 0.53731 0.21606 0.0
C1144 C 0.50896 0.52015 0.18684 0.0
C1145 C 0.51988 0.486 0.18649 0.0
C1146 C 0.02503 0.01524 0.67802 0.0
C1147 C 0.0371 0.99386 0.65271 0.0
C1148 C 0.99172 0.0269 0.67749 0.0
C1149 C 0.96943 0.01774 0.65151 0.0
H1150 H 0.04118 0.02225 0.69881 0.0
H1151 H 0.98319 0.0429 0.69781 0.0
S1152 S 0.98975 0.9639 0.57829 0.0
N1153 N 0.02489 0.96481 0.60046 0.0
N1154 N 0.96243 0.98731 0.59905 0.0
C1155 C 0.98148 0.99688 0.62573 0.0
C1156 C 0.01533 0.98488 0.62638 0.0
C1157 C 0.49181 0.51869 0.86692 0.0
C1158 C 0.51181 0.5303 0.84021 0.0
C1159 C 0.48116 0.48501 0.86828 0.0
C1160 C 0.49058 0.46194 0.84321 0.0
H1161 H 0.48469 0.53562 0.88701 0.0
H1162 H 0.46534 0.47696 0.88894 0.0
S1163 S 0.53977 0.48045 0.76652 0.0
N1164 N 0.53828 0.51665 0.78683 0.0
N1165 N 0.51904 0.45323 0.79009 0.0
C1166 C 0.51003 0.47331 0.8162 0.0
C1167 C 0.52046 0.50757 0.81452 0.0
C1168 C 0.32415 0.00791 0.02504 0.0
C1169 C 0.34934 0.03109 0.0158 0.0
C1170 C 0.32522 0.97432 0.01422 0.0
C1171 C 0.35131 0.96284 0.99347 0.0
H1172 H 0.30316 0.01591 0.04045 0.0
H1173 H 0.30505 0.95745 0.02139 0.0
S1174 S 0.42381 0.01268 0.96286 0.0
N1175 N 0.40183 0.03955 0.98568 0.0
N1176 N 0.40305 0.9767 0.96429 0.0
C1177 C 0.37667 0.98554 0.98408 0.0
C1178 C 0.37583 0.01964 0.99543 0.0
C1179 C 0.49086 0.15071 0.52814 0.0
C1180 C 0.46302 0.15113 0.50606 0.0
C1181 C 0.52414 0.15183 0.51637 0.0
C1182 C 0.53143 0.15075 0.48184 0.0
H1183 H 0.48714 0.1501 0.55502 0.0
H1184 H 0.54403 0.15435 0.53469 0.0
S1185 S 0.46837 0.14459 0.4131 0.0
N1186 N 0.44572 0.14959 0.44743 0.0
N1187 N 0.50777 0.14312 0.42592 0.0
C1188 C 0.50396 0.14744 0.45956 0.0
C1189 C 0.47 0.14949 0.47142 0.0
C1190 C 0.64624 0.0247 0.01674 0.0
C1191 C 0.64579 0.03232 0.98225 0.0
C1192 C 0.64496 0.99135 0.0282 0.0
C1193 C 0.64621 0.96381 0.00587 0.0
H1194 H 0.64868 0.04437 0.0353 0.0
H1195 H 0.64409 0.98734 0.05505 0.0
S1196 S 0.6405 0.97008 0.91284 0.0
N1197 N 0.63862 0.00935 0.92602 0.0
N1198 N 0.64531 0.9471 0.94702 0.0
C1199 C 0.64473 0.9711 0.97125 0.0
C1200 C 0.64255 0.00515 0.95968 0.0
C1201 C 0.47385 0.82879 0.51558 0.0
C1202 C 0.46289 0.85468 0.49423 0.0
C1203 C 0.50715 0.82783 0.5273 0.0
C1204 C 0.53059 0.85283 0.51824 0.0
H1205 H 0.45683 0.80864 0.52244 0.0
H1206 H 0.51477 0.80702 0.54315 0.0
S1207 S 0.51346 0.92714 0.46462 0.0
N1208 N 0.4774 0.90647 0.46537 0.0
N1209 N 0.53982 0.90514 0.48805 0.0
C1210 C 0.51964 0.87925 0.4975 0.0
C1211 C 0.48579 0.8801 0.48541 0.0
C1212 C 0.04597 0.23829 0.22997 0.0
C1213 C 0.07077 0.24703 0.20614 0.0
C1214 C 0.05197 0.21352 0.25435 0.0
C1215 C 0.08265 0.19616 0.25533 0.0
H1216 H 0.02225 0.25166 0.23084 0.0
H1217 H 0.03279 0.20844 0.27302 0.0
S1218 S 0.15568 0.20844 0.19874 0.0
N1219 N 0.12715 0.23528 0.18504 0.0
N1220 N 0.13804 0.18886 0.23076 0.0
C1221 C 0.10719 0.20362 0.23114 0.0
C1222 C 0.1013 0.22897 0.20649 0.0
C1223 C 0.73347 0.39784 0.29511 0.0
C1224 C 0.75246 0.42774 0.29296 0.0
C1225 C 0.70834 0.3903 0.27155 0.0
C1226 C 0.70137 0.41225 0.24478 0.0
H1227 H 0.73889 0.37932 0.31428 0.0
H1228 H 0.69554 0.36632 0.27337 0.0
S1229 S 0.74114 0.49497 0.22886 0.0
N1230 N 0.76028 0.48056 0.26274 0.0
N1231 N 0.71346 0.46587 0.21838 0.0
C1232 C 0.71899 0.44273 0.24294 0.0
C1233 C 0.74432 0.45066 0.2671 0.0
C1234 C 0.94314 0.77946 0.25795 0.0
C1235 C 0.91352 0.7986 0.25761 0.0
C1236 C 0.9498 0.75593 0.23259 0.0
C1237 C 0.92666 0.75017 0.2063 0.0
H1238 H 0.96088 0.78206 0.27847 0.0
H1239 H 0.97247 0.74098 0.2347 0.0
S1240 S 0.84563 0.79493 0.1937 0.0
N1241 N 0.8612 0.81111 0.22859 0.0
N1242 N 0.87361 0.76716 0.18085 0.0
C1243 C 0.89751 0.77026 0.20507 0.0
C1244 C 0.8909 0.79434 0.2308 0.0
C1245 C 0.29562 0.60281 0.27023 0.0
C1246 C 0.30164 0.58133 0.24286 0.0
C1247 C 0.26949 0.59642 0.29292 0.0
C1248 C 0.24833 0.56821 0.28927 0.0
H1249 H 0.31003 0.62571 0.27327 0.0
H1250 H 0.26518 0.61452 0.31274 0.0
S1251 S 0.25514 0.50322 0.22239 0.0
N1252 N 0.28558 0.53014 0.21385 0.0
N1253 N 0.23649 0.51777 0.25647 0.0
C1254 C 0.25499 0.54584 0.26255 0.0
C1255 C 0.28151 0.55258 0.2393 0.0
C1256 C 0.0881 0.77737 0.79585 0.0
C1257 C 0.06077 0.75505 0.79302 0.0
C1258 C 0.09454 0.80162 0.7712 0.0
C1259 C 0.07375 0.8047 0.74281 0.0
H1260 H 0.10571 0.77518 0.81639 0.0
H1261 H 0.11718 0.81656 0.77351 0.0
S1262 S 0.99639 0.75593 0.72509 0.0
N1263 N 0.01059 0.74029 0.76083 0.0
N1264 N 0.02318 0.78583 0.71444 0.0
C1265 C 0.04522 0.78413 0.7405 0.0
C1266 C 0.03846 0.75949 0.76572 0.0
C1267 C 0.30301 0.41606 0.72809 0.0
C1268 C 0.29569 0.41652 0.76277 0.0
C1269 C 0.27822 0.42344 0.7041 0.0
C1270 C 0.24579 0.43303 0.71408 0.0
H1271 H 0.32799 0.40979 0.7193 0.0
H1272 H 0.28443 0.42167 0.67764 0.0
S1273 S 0.21401 0.43965 0.80144 0.0
N1274 N 0.25363 0.42796 0.80563 0.0
N1275 N 0.20759 0.44315 0.76061 0.0
C1276 C 0.23851 0.43499 0.74856 0.0
C1277 C 0.26341 0.42666 0.77292 0.0
C1278 C 0.9045 0.23019 0.79084 0.0
C1279 C 0.93426 0.24947 0.79077 0.0
C1280 C 0.89783 0.20677 0.76536 0.0
C1281 C 0.92057 0.20191 0.73878 0.0
H1282 H 0.88538 0.23428 0.80979 0.0
H1283 H 0.87386 0.1938 0.7655 0.0
S1284 S 0.00406 0.24183 0.72893 0.0
N1285 N 0.98849 0.25875 0.76348 0.0
N1286 N 0.97514 0.21533 0.71531 0.0
C1287 C 0.95114 0.21936 0.73928 0.0
C1288 C 0.95827 0.24287 0.76543 0.0
C1289 C 0.70322 0.60065 0.73137 0.0
C1290 C 0.69756 0.57815 0.75797 0.0
C1291 C 0.72791 0.59418 0.70721 0.0
C1292 C 0.74775 0.56485 0.70864 0.0
H1293 H 0.68986 0.62437 0.73023 0.0
H1294 H 0.73244 0.61317 0.68825 0.0
S1295 S 0.7394 0.49613 0.77156 0.0
N1296 N 0.71137 0.52443 0.78324 0.0
N1297 N 0.75746 0.51152 0.7375 0.0
C1298 C 0.74072 0.54113 0.73411 0.0
C1299 C 0.71581 0.54805 0.75894 0.0
C1300 C 0.20408 0.08701 0.22418 0.0
C1301 C 0.20904 0.06054 0.24717 0.0
C1302 C 0.22841 0.09515 0.20013 0.0
C1303 C 0.25873 0.07715 0.19809 0.0
H1304 H 0.18192 0.10266 0.22567 0.0
H1305 H 0.22417 0.11699 0.18444 0.0
S1306 S 0.2834 0.00385 0.25005 0.0
N1307 N 0.24611 0.01485 0.26458 0.0
N1308 N 0.29175 0.0304 0.21924 0.0
C1309 C 0.2635 0.04967 0.21968 0.0
C1310 C 0.23863 0.04118 0.24411 0.0
C1311 C 0.57594 0.26854 0.30055 0.0
C1312 C 0.56903 0.23428 0.29475 0.0
C1313 C 0.57045 0.29269 0.2756 0.0
C1314 C 0.55652 0.28362 0.24452 0.0
H1315 H 0.58662 0.27673 0.3242 0.0
H1316 H 0.57786 0.31848 0.28038 0.0
S1317 S 0.52902 0.19821 0.21871 0.0
N1318 N 0.54443 0.19307 0.25692 0.0
N1319 N 0.53266 0.23874 0.21039 0.0
C1320 C 0.54666 0.24999 0.23947 0.0
C1321 C 0.55306 0.22524 0.26461 0.0
C1322 C 0.77408 0.95242 0.23324 0.0
C1323 C 0.78908 0.92508 0.2501 0.0
C1324 C 0.75107 0.94722 0.20705 0.0
C1325 C 0.74255 0.91458 0.19679 0.0
H1326 H 0.77975 0.97803 0.24062 0.0
H1327 H 0.73984 0.96882 0.19479 0.0
S1328 S 0.7722 0.83451 0.2341 0.0
N1329 N 0.79233 0.86401 0.25522 0.0
N1330 N 0.74887 0.85462 0.20633 0.0
C1331 C 0.75708 0.88707 0.21338 0.0
C1332 C 0.78051 0.89222 0.23991 0.0
C1333 C 0.41218 0.70729 0.27972 0.0
C1334 C 0.44175 0.70812 0.26026 0.0
C1335 C 0.40541 0.73221 0.30355 0.0
C1336 C 0.4279 0.75892 0.30877 0.0
H1337 H 0.39316 0.68835 0.27536 0.0
H1338 H 0.3814 0.73166 0.31638 0.0
S1339 S 0.51066 0.77101 0.26809 0.0
N1340 N 0.49549 0.7364 0.25085 0.0
N1341 N 0.4819 0.78365 0.29521 0.0
C1342 C 0.45831 0.75924 0.29112 0.0
C1343 C 0.46556 0.73362 0.26711 0.0
C1344 C 0.2563 0.94525 0.7893 0.0
C1345 C 0.25836 0.91357 0.80464 0.0
C1346 C 0.232 0.95185 0.76464 0.0
C1347 C 0.20928 0.92675 0.75401 0.0
H1348 H 0.27394 0.96491 0.79605 0.0
H1349 H 0.23186 0.97652 0.75306 0.0
S1350 S 0.20538 0.83902 0.78636 0.0
N1351 N 0.23628 0.85671 0.80767 0.0
N1352 N 0.19075 0.8687 0.76133 0.0
C1353 C 0.21086 0.89502 0.76981 0.0
C1354 C 0.23544 0.88849 0.79507 0.0
C1355 C 0.42251 0.29601 0.7202 0.0
C1356 C 0.43763 0.28531 0.75023 0.0
C1357 C 0.41612 0.27326 0.69414 0.0
C1358 C 0.42338 0.23878 0.69775 0.0
H1359 H 0.41529 0.32209 0.71695 0.0
H1360 H 0.4051 0.28285 0.6712 0.0
S1361 S 0.46513 0.19854 0.7709 0.0
N1362 N 0.46194 0.23858 0.78137 0.0
N1363 N 0.44863 0.19553 0.73295 0.0
C1364 C 0.43989 0.22808 0.72713 0.0
C1365 C 0.44716 0.2514 0.75332 0.0
C1366 C 0.77343 0.0489 0.75798 0.0
C1367 C 0.79192 0.07575 0.744 0.0
C1368 C 0.74975 0.05441 0.78349 0.0
C1369 C 0.74405 0.08686 0.79607 0.0
H1370 H 0.77679 0.02348 0.74878 0.0
H1371 H 0.73578 0.03321 0.79341 0.0
S1372 S 0.78401 0.16604 0.76734 0.0
N1373 N 0.80173 0.13638 0.74442 0.0
N1374 N 0.75719 0.14634 0.79209 0.0
C1375 C 0.76216 0.1139 0.7825 0.0
C1376 C 0.7862 0.10843 0.75659 0.0
C1377 C 0.54248 0.72882 0.735 0.0
C1378 C 0.56922 0.70966 0.7484 0.0
C1379 C 0.54852 0.75547 0.71264 0.0
C1380 C 0.58141 0.76367 0.70299 0.0
H1381 H 0.51679 0.72396 0.74267 0.0
H1382 H 0.5275 0.77019 0.70348 0.0
S1383 S 0.66012 0.72188 0.72986 0.0
N1384 N 0.63002 0.701 0.7493 0.0
N1385 N 0.64084 0.75094 0.70736 0.0
C1386 C 0.60819 0.74434 0.71516 0.0
C1387 C 0.60223 0.71728 0.73779 0.0
C1388 C 0.22467 0.20449 0.09017 0.0
C1389 C 0.24511 0.20605 0.06128 0.0
C1390 C 0.20108 0.22966 0.09718 0.0
C1391 C 0.19716 0.25738 0.07567 0.0
H1392 H 0.22812 0.18471 0.10854 0.0
H1393 H 0.18744 0.22846 0.12071 0.0
S1394 S 0.24034 0.27147 0.99457 0.0
N1395 N 0.25654 0.23603 0.00894 0.0
N1396 N 0.21267 0.28365 0.02299 0.0
C1397 C 0.21563 0.25834 0.04576 0.0
C1398 C 0.23936 0.23248 0.03824 0.0
C1399 C 0.26088 0.75058 0.94122 0.0
C1400 C 0.25472 0.78537 0.94082 0.0
C1401 C 0.23533 0.72758 0.93352 0.0
C1402 C 0.20269 0.73861 0.92544 0.0
H1403 H 0.28601 0.74114 0.94598 0.0
H1404 H 0.24151 0.70105 0.93273 0.0
S1405 S 0.17252 0.827 0.92794 0.0
N1406 N 0.21328 0.82976 0.93551 0.0
N1407 N 0.16447 0.78649 0.92338 0.0
C1408 C 0.19571 0.7733 0.92759 0.0
C1409 C 0.22198 0.79673 0.93458 0.0
C1410 C 0.29261 0.27795 0.57162 0.0
C1411 C 0.28257 0.24587 0.5608 0.0
C1412 C 0.26884 0.30308 0.57835 0.0
C1413 C 0.23407 0.29659 0.57605 0.0
H1414 H 0.31904 0.28352 0.57534 0.0
H1415 H 0.27791 0.32761 0.58587 0.0
S1416 S 0.19493 0.21704 0.54669 0.0
N1417 N 0.23576 0.20955 0.54563 0.0
N1418 N 0.191 0.25622 0.55986 0.0
C1419 C 0.22381 0.26502 0.56376 0.0
C1420 C 0.24807 0.23973 0.55598 0.0
C1421 C 0.80383 0.22839 0.91228 0.0
C1422 C 0.80354 0.25991 0.92826 0.0
C1423 C 0.77961 0.204 0.91959 0.0
C1424 C 0.75337 0.21032 0.94244 0.0
H1425 H 0.82136 0.22299 0.89228 0.0
H1426 H 0.78051 0.18065 0.90575 0.0
S1427 S 0.74363 0.2874 0.99427 0.0
N1428 N 0.77713 0.29484 0.97088 0.0
N1429 N 0.73065 0.24939 0.98375 0.0
C1430 C 0.75401 0.24089 0.96032 0.0
C1431 C 0.77912 0.26566 0.9532 0.0
C1432 C 0.73334 0.74609 0.54927 0.0
C1433 C 0.70547 0.7505 0.57075 0.0
C1434 C 0.75782 0.72156 0.55587 0.0
C1435 C 0.75504 0.70006 0.58374 0.0
H1436 H 0.73732 0.76283 0.52816 0.0
H1437 H 0.77963 0.72007 0.53961 0.0
S1438 S 0.686 0.69941 0.64638 0.0
N1439 N 0.67572 0.72969 0.61994 0.0
N1440 N 0.72187 0.68397 0.63242 0.0
C1441 C 0.72662 0.70306 0.6045 0.0
C1442 C 0.70179 0.72815 0.59794 0.0
C1443 C 0.79922 0.76735 0.0841 0.0
C1444 C 0.79711 0.73481 0.07047 0.0
C1445 C 0.7755 0.79203 0.07603 0.0
C1446 C 0.74827 0.78509 0.0545 0.0
H1447 H 0.8178 0.77341 0.10298 0.0
H1448 H 0.7776 0.81622 0.08827 0.0
S1449 S 0.7338 0.70489 0.00884 0.0
N1450 N 0.76786 0.69789 0.03157 0.0
N1451 N 0.72265 0.74407 0.01691 0.0
C1452 C 0.74719 0.75334 0.03882 0.0
C1453 C 0.77159 0.72821 0.0469 0.0
C1454 C 0.24052 0.71946 0.44728 0.0
C1455 C 0.24181 0.70055 0.41754 0.0
C1456 C 0.26559 0.74312 0.45488 0.0
C1457 C 0.29251 0.74924 0.43259 0.0
H1458 H 0.21946 0.71662 0.46433 0.0
H1459 H 0.26279 0.7579 0.47757 0.0
S1460 S 0.30713 0.70554 0.35124 0.0
N1461 N 0.27212 0.68881 0.36592 0.0
N1462 N 0.31916 0.73305 0.37985 0.0
C1463 C 0.29455 0.72941 0.40326 0.0
C1464 C 0.26917 0.70519 0.39576 0.0
C1465 C 0.72971 0.25998 0.45516 0.0
C1466 C 0.71151 0.24875 0.4268 0.0
C1467 C 0.75549 0.28404 0.45211 0.0
C1468 C 0.76366 0.29782 0.42068 0.0
H1469 H 0.72452 0.2496 0.4798 0.0
H1470 H 0.76933 0.29163 0.47431 0.0
S1471 S 0.72582 0.27621 0.3385 0.0
N1472 N 0.70531 0.25298 0.36604 0.0
N1473 N 0.75298 0.29821 0.36076 0.0
C1474 C 0.74577 0.28719 0.39233 0.0
C1475 C 0.71984 0.26271 0.39529 0.0
loop_
_geom_bond_atom_site_label_1
_geom_bond_atom_site_label_2
_geom_bond_distance
_geom_bond_site_symmetry_2
_ccdc_geom_bond_type
Co0 O3 1.970 . S
Co0 N17 1.989 . S
Co0 O25 1.967 . S
Co0 O32 1.920 . S
Co1 O4 1.966 . S
Co1 N10 2.022 . S
Co1 N18 1.993 . S
Co1 O26 1.941 . S
C2 O3 1.258 . S
C2 O4 1.263 . S
O3 Co0 1.970 . S
O3 C2 1.258 . S
O4 Co1 1.966 . S
O4 C2 1.263 . S
C5 O6 1.235 . S
C5 O32 1.289 1_655 S
O6 C5 1.235 . S
C7 C9 1.400 . S
C7 N10 1.351 . S
C7 C12 1.501 . S
C8 C9 1.387 . S
C8 N11 1.341 . S
C9 C7 1.400 . S
C9 C8 1.387 . S
N10 Co1 2.022 . S
N10 C7 1.351 . S
N10 N11 1.365 . S
N11 C8 1.341 . S
N11 N10 1.365 . S
N11 H31 0.862 . S
C12 C7 1.501 . S
C12 H13 0.961 . S
C12 H14 0.961 . S
C12 H15 0.960 . S
H13 C12 0.961 . S
H14 C12 0.961 . S
H15 C12 0.960 . S
C16 N17 1.342 . S
C16 C20 1.401 . S
C16 C21 1.499 1_455 S
N17 Co0 1.989 . S
N17 C16 1.342 . S
N17 N18 1.388 . S
N18 Co1 1.993 . S
N18 N17 1.388 . S
N18 C19 1.346 . S
C19 N18 1.346 . S
C19 C20 1.396 . S
C19 C29 1.510 . S
C20 C16 1.401 . S
C20 C19 1.396 . S
C21 C16 1.499 1_655 S
C21 H22 0.959 . S
C21 H23 0.960 . S
C21 H24 0.961 . S
H22 C21 0.959 . S
H23 C21 0.960 . S
H24 C21 0.961 . S
O25 Co0 1.967 . S
O25 C33 1.258 . S
O26 Co1 1.941 . S
O26 C33 1.266 . S
H27 C29 0.959 . S
H28 C29 0.961 . S
C29 C19 1.510 . S
C29 H27 0.959 . S
C29 H28 0.961 . S
C29 H30 0.960 . S
H30 C29 0.960 . S
H31 N11 0.862 . S
O32 Co0 1.920 . S
O32 C5 1.289 1_455 S
C33 O25 1.258 . S
C33 O26 1.266 . S
Co34 O37 1.970 . S
Co34 N51 1.989 . S
Co34 O59 1.967 . S
Co34 O66 1.920 . S
Co35 O38 1.966 . S
Co35 N44 2.022 . S
Co35 N52 1.993 . S
Co35 O60 1.941 . S
C36 O37 1.258 . S
C36 O38 1.263 . S
O37 Co34 1.970 . S
O37 C36 1.258 . S
O38 Co35 1.966 . S
O38 C36 1.263 . S
C39 O40 1.235 . S
C39 O66 1.289 . S
O40 C39 1.235 . S
C41 C43 1.400 . S
C41 N44 1.351 . S
C41 C46 1.501 . S
C42 C43 1.387 . S
C42 N45 1.341 . S
C43 C41 1.400 . S
C43 C42 1.387 . S
N44 Co35 2.022 . S
N44 C41 1.351 . S
N44 N45 1.365 . S
N45 C42 1.341 . S
N45 N44 1.365 . S
N45 H65 0.862 . S
C46 C41 1.501 . S
C46 H47 0.961 . S
C46 H48 0.961 . S
C46 H49 0.960 . S
H47 C46 0.961 . S
H48 C46 0.961 . S
H49 C46 0.960 . S
C50 N51 1.342 . S
C50 C54 1.401 . S
C50 C55 1.499 . S
N51 Co34 1.989 . S
N51 C50 1.342 . S
N51 N52 1.388 . S
N52 Co35 1.993 . S
N52 N51 1.388 . S
N52 C53 1.346 . S
C53 N52 1.346 . S
C53 C54 1.396 . S
C53 C63 1.510 . S
C54 C50 1.401 . S
C54 C53 1.396 . S
C55 C50 1.499 . S
C55 H56 0.959 . S
C55 H57 0.960 . S
C55 H58 0.961 . S
H56 C55 0.959 . S
H57 C55 0.960 . S
H58 C55 0.961 . S
O59 Co34 1.967 . S
O59 C67 1.258 . S
O60 Co35 1.941 . S
O60 C67 1.266 . S
H61 C63 0.959 . S
H62 C63 0.961 . S
C63 C53 1.510 . S
C63 H61 0.959 . S
C63 H62 0.961 . S
C63 H64 0.960 . S
H64 C63 0.960 . S
H65 N45 0.862 . S
O66 Co34 1.920 . S
O66 C39 1.289 . S
C67 O59 1.258 . S
C67 O60 1.266 . S
Co68 O71 1.970 . S
Co68 N85 1.989 . S
Co68 O93 1.967 . S
Co68 O100 1.920 . S
Co69 O72 1.966 . S
Co69 N78 2.022 . S
Co69 N86 1.993 . S
Co69 O94 1.941 . S
C70 O71 1.258 . S
C70 O72 1.263 . S
O71 Co68 1.970 . S
O71 C70 1.258 . S
O72 Co69 1.966 . S
O72 C70 1.263 . S
C73 O74 1.235 . S
C73 O100 1.289 1_455 S
O74 C73 1.235 . S
C75 C77 1.400 . S
C75 N78 1.351 . S
C75 C80 1.501 . S
C76 C77 1.387 . S
C76 N79 1.341 . S
C77 C75 1.400 . S
C77 C76 1.387 . S
N78 Co69 2.022 . S
N78 C75 1.351 . S
N78 N79 1.365 . S
N79 C76 1.341 . S
N79 N78 1.365 . S
N79 H99 0.862 . S
C80 C75 1.501 . S
C80 H81 0.961 . S
C80 H82 0.961 . S
C80 H83 0.960 . S
H81 C80 0.961 . S
H82 C80 0.961 . S
H83 C80 0.960 . S
C84 N85 1.342 . S
C84 C88 1.401 . S
C84 C89 1.499 1_655 S
N85 Co68 1.989 . S
N85 C84 1.342 . S
N85 N86 1.388 . S
N86 Co69 1.993 . S
N86 N85 1.388 . S
N86 C87 1.346 . S
C87 N86 1.346 . S
C87 C88 1.396 . S
C87 C97 1.510 . S
C88 C84 1.401 . S
C88 C87 1.396 . S
C89 C84 1.499 1_455 S
C89 H90 0.959 . S
C89 H91 0.960 . S
C89 H92 0.961 . S
H90 C89 0.959 . S
H91 C89 0.960 . S
H92 C89 0.961 . S
O93 Co68 1.967 . S
O93 C101 1.258 . S
O94 Co69 1.941 . S
O94 C101 1.266 . S
H95 C97 0.959 . S
H96 C97 0.961 . S
C97 C87 1.510 . S
C97 H95 0.959 . S
C97 H96 0.961 . S
C97 H98 0.960 . S
H98 C97 0.960 . S
H99 N79 0.862 . S
O100 Co68 1.920 . S
O100 C73 1.289 1_655 S
C101 O93 1.258 . S
C101 O94 1.266 . S
Co102 O105 1.970 . S
Co102 N119 1.989 . S
Co102 O127 1.967 . S
Co102 O134 1.920 . S
Co103 O106 1.966 . S
Co103 N112 2.022 . S
Co103 N120 1.993 . S
Co103 O128 1.941 . S
C104 O105 1.258 . S
C104 O106 1.263 . S
O105 Co102 1.970 . S
O105 C104 1.258 . S
O106 Co103 1.966 . S
O106 C104 1.263 . S
C107 O108 1.235 . S
C107 O134 1.289 . S
O108 C107 1.235 . S
C109 C111 1.400 . S
C109 N112 1.351 . S
C109 C114 1.501 . S
C110 C111 1.387 . S
C110 N113 1.341 . S
C111 C109 1.400 . S
C111 C110 1.387 . S
N112 Co103 2.022 . S
N112 C109 1.351 . S
N112 N113 1.365 . S
N113 C110 1.341 . S
N113 N112 1.365 . S
N113 H133 0.862 . S
C114 C109 1.501 . S
C114 H115 0.961 . S
C114 H116 0.961 . S
C114 H117 0.960 . S
H115 C114 0.961 . S
H116 C114 0.961 . S
H117 C114 0.960 . S
C118 N119 1.342 . S
C118 C122 1.401 . S
C118 C123 1.499 . S
N119 Co102 1.989 . S
N119 C118 1.342 . S
N119 N120 1.388 . S
N120 Co103 1.993 . S
N120 N119 1.388 . S
N120 C121 1.346 . S
C121 N120 1.346 . S
C121 C122 1.396 . S
C121 C131 1.510 . S
C122 C118 1.401 . S
C122 C121 1.396 . S
C123 C118 1.499 . S
C123 H124 0.959 . S
C123 H125 0.960 . S
C123 H126 0.961 . S
H124 C123 0.959 . S
H125 C123 0.960 . S
H126 C123 0.961 . S
O127 Co102 1.967 . S
O127 C135 1.258 . S
O128 Co103 1.941 . S
O128 C135 1.266 . S
H129 C131 0.959 . S
H130 C131 0.961 . S
C131 C121 1.510 . S
C131 H129 0.959 . S
C131 H130 0.961 . S
C131 H132 0.960 . S
H132 C131 0.960 . S
H133 N113 0.862 . S
O134 Co102 1.920 . S
O134 C107 1.289 . S
C135 O127 1.258 . S
C135 O128 1.266 . S
Co136 O139 1.970 . S
Co136 N153 1.989 . S
Co136 O161 1.967 . S
Co136 O168 1.920 . S
Co137 O140 1.966 . S
Co137 N146 2.022 . S
Co137 N154 1.993 . S
Co137 O162 1.941 . S
C138 O139 1.258 . S
C138 O140 1.263 . S
O139 Co136 1.970 . S
O139 C138 1.258 . S
O140 Co137 1.966 . S
O140 C138 1.263 . S
C141 O142 1.235 . S
C141 O168 1.289 1_655 S
O142 C141 1.235 . S
C143 C145 1.400 . S
C143 N146 1.351 . S
C143 C148 1.501 . S
C144 C145 1.387 . S
C144 N147 1.341 . S
C145 C143 1.400 . S
C145 C144 1.387 . S
N146 Co137 2.022 . S
N146 C143 1.351 . S
N146 N147 1.365 . S
N147 C144 1.341 . S
N147 N146 1.365 . S
N147 H167 0.862 . S
C148 C143 1.501 . S
C148 H149 0.961 . S
C148 H150 0.961 . S
C148 H151 0.960 . S
H149 C148 0.961 . S
H150 C148 0.961 . S
H151 C148 0.960 . S
C152 N153 1.342 . S
C152 C156 1.401 . S
C152 C157 1.499 1_455 S
N153 Co136 1.989 . S
N153 C152 1.342 . S
N153 N154 1.388 . S
N154 Co137 1.993 . S
N154 N153 1.388 . S
N154 C155 1.346 . S
C155 N154 1.346 . S
C155 C156 1.396 . S
C155 C165 1.510 . S
C156 C152 1.401 . S
C156 C155 1.396 . S
C157 C152 1.499 1_655 S
C157 H158 0.959 . S
C157 H159 0.960 . S
C157 H160 0.961 . S
H158 C157 0.959 . S
H159 C157 0.960 . S
H160 C157 0.961 . S
O161 Co136 1.967 . S
O161 C169 1.258 . S
O162 Co137 1.941 . S
O162 C169 1.266 . S
H163 C165 0.959 . S
H164 C165 0.961 . S
C165 C155 1.510 . S
C165 H163 0.959 . S
C165 H164 0.961 . S
C165 H166 0.960 . S
H166 C165 0.960 . S
H167 N147 0.862 . S
O168 Co136 1.920 . S
O168 C141 1.289 1_455 S
C169 O161 1.258 . S
C169 O162 1.266 . S
Co170 O173 1.970 . S
Co170 N187 1.989 . S
Co170 O195 1.967 . S
Co170 O202 1.920 . S
Co171 O174 1.966 . S
Co171 N180 2.022 . S
Co171 N188 1.993 . S
Co171 O196 1.941 . S
C172 O173 1.258 . S
C172 O174 1.263 . S
O173 Co170 1.970 . S
O173 C172 1.258 . S
O174 Co171 1.966 . S
O174 C172 1.263 . S
C175 O176 1.235 . S
C175 O202 1.289 . S
O176 C175 1.235 . S
C177 C179 1.400 . S
C177 N180 1.351 . S
C177 C182 1.501 . S
C178 C179 1.387 . S
C178 N181 1.341 . S
C179 C177 1.400 . S
C179 C178 1.387 . S
N180 Co171 2.022 . S
N180 C177 1.351 . S
N180 N181 1.365 . S
N181 C178 1.341 . S
N181 N180 1.365 . S
N181 H201 0.862 . S
C182 C177 1.501 . S
C182 H183 0.961 . S
C182 H184 0.961 . S
C182 H185 0.960 . S
H183 C182 0.961 . S
H184 C182 0.961 . S
H185 C182 0.960 . S
C186 N187 1.342 . S
C186 C190 1.401 . S
C186 C191 1.499 . S
N187 Co170 1.989 . S
N187 C186 1.342 . S
N187 N188 1.388 . S
N188 Co171 1.993 . S
N188 N187 1.388 . S
N188 C189 1.346 . S
C189 N188 1.346 . S
C189 C190 1.396 . S
C189 C199 1.510 . S
C190 C186 1.401 . S
C190 C189 1.396 . S
C191 C186 1.499 . S
C191 H192 0.959 . S
C191 H193 0.960 . S
C191 H194 0.961 . S
H192 C191 0.959 . S
H193 C191 0.960 . S
H194 C191 0.961 . S
O195 Co170 1.967 . S
O195 C203 1.258 . S
O196 Co171 1.941 . S
O196 C203 1.266 . S
H197 C199 0.959 . S
H198 C199 0.961 . S
C199 C189 1.510 . S
C199 H197 0.959 . S
C199 H198 0.961 . S
C199 H200 0.960 . S
H200 C199 0.960 . S
H201 N181 0.862 . S
O202 Co170 1.920 . S
O202 C175 1.289 . S
C203 O195 1.258 . S
C203 O196 1.266 . S
Co204 O207 1.970 . S
Co204 N221 1.989 . S
Co204 O229 1.967 . S
Co204 O236 1.920 . S
Co205 O208 1.966 . S
Co205 N214 2.022 . S
Co205 N222 1.993 . S
Co205 O230 1.941 . S
C206 O207 1.258 . S
C206 O208 1.263 . S
O207 Co204 1.970 . S
O207 C206 1.258 . S
O208 Co205 1.966 . S
O208 C206 1.263 . S
C209 O210 1.235 . S
C209 O236 1.289 1_455 S
O210 C209 1.235 . S
C211 C213 1.400 . S
C211 N214 1.351 . S
C211 C216 1.501 . S
C212 C213 1.387 . S
C212 N215 1.341 . S
C213 C211 1.400 . S
C213 C212 1.387 . S
N214 Co205 2.022 . S
N214 C211 1.351 . S
N214 N215 1.365 . S
N215 C212 1.341 . S
N215 N214 1.365 . S
N215 H235 0.862 . S
C216 C211 1.501 . S
C216 H217 0.961 . S
C216 H218 0.961 . S
C216 H219 0.960 . S
H217 C216 0.961 . S
H218 C216 0.961 . S
H219 C216 0.960 . S
C220 N221 1.342 . S
C220 C224 1.401 . S
C220 C225 1.499 1_655 S
N221 Co204 1.989 . S
N221 C220 1.342 . S
N221 N222 1.388 . S
N222 Co205 1.993 . S
N222 N221 1.388 . S
N222 C223 1.346 . S
C223 N222 1.346 . S
C223 C224 1.396 . S
C223 C233 1.510 . S
C224 C220 1.401 . S
C224 C223 1.396 . S
C225 C220 1.499 1_455 S
C225 H226 0.959 . S
C225 H227 0.960 . S
C225 H228 0.961 . S
H226 C225 0.959 . S
H227 C225 0.960 . S
H228 C225 0.961 . S
O229 Co204 1.967 . S
O229 C237 1.258 . S
O230 Co205 1.941 . S
O230 C237 1.266 . S
H231 C233 0.959 . S
H232 C233 0.961 . S
C233 C223 1.510 . S
C233 H231 0.959 . S
C233 H232 0.961 . S
C233 H234 0.960 . S
H234 C233 0.960 . S
H235 N215 0.862 . S
O236 Co204 1.920 . S
O236 C209 1.289 1_655 S
C237 O229 1.258 . S
C237 O230 1.266 . S
Co238 O241 1.970 . S
Co238 N255 1.989 . S
Co238 O263 1.967 . S
Co238 O270 1.920 . S
Co239 O242 1.966 . S
Co239 N248 2.022 . S
Co239 N256 1.993 . S
Co239 O264 1.941 . S
C240 O241 1.258 . S
C240 O242 1.263 . S
O241 Co238 1.970 . S
O241 C240 1.258 . S
O242 Co239 1.966 . S
O242 C240 1.263 . S
C243 O244 1.235 . S
C243 O270 1.289 . S
O244 C243 1.235 . S
C245 C247 1.400 . S
C245 N248 1.351 . S
C245 C250 1.501 . S
C246 C247 1.387 . S
C246 N249 1.341 . S
C247 C245 1.400 . S
C247 C246 1.387 . S
N248 Co239 2.022 . S
N248 C245 1.351 . S
N248 N249 1.365 . S
N249 C246 1.341 . S
N249 N248 1.365 . S
N249 H269 0.862 . S
C250 C245 1.501 . S
C250 H251 0.961 . S
C250 H252 0.961 . S
C250 H253 0.960 . S
H251 C250 0.961 . S
H252 C250 0.961 . S
H253 C250 0.960 . S
C254 N255 1.342 . S
C254 C258 1.401 . S
C254 C259 1.499 . S
N255 Co238 1.989 . S
N255 C254 1.342 . S
N255 N256 1.388 . S
N256 Co239 1.993 . S
N256 N255 1.388 . S
N256 C257 1.346 . S
C257 N256 1.346 . S
C257 C258 1.396 . S
C257 C267 1.510 . S
C258 C254 1.401 . S
C258 C257 1.396 . S
C259 C254 1.499 . S
C259 H260 0.959 . S
C259 H261 0.960 . S
C259 H262 0.961 . S
H260 C259 0.959 . S
H261 C259 0.960 . S
H262 C259 0.961 . S
O263 Co238 1.967 . S
O263 C271 1.258 . S
O264 Co239 1.941 . S
O264 C271 1.266 . S
H265 C267 0.959 . S
H266 C267 0.961 . S
C267 C257 1.510 . S
C267 H265 0.959 . S
C267 H266 0.961 . S
C267 H268 0.960 . S
H268 C267 0.960 . S
H269 N249 0.862 . S
O270 Co238 1.920 . S
O270 C243 1.289 . S
C271 O263 1.258 . S
C271 O264 1.266 . S
Co272 O275 1.970 . S
Co272 N289 1.989 . S
Co272 O297 1.967 . S
Co272 O304 1.920 . S
Co273 O276 1.966 . S
Co273 N282 2.022 . S
Co273 N290 1.993 . S
Co273 O298 1.941 . S
C274 O275 1.258 . S
C274 O276 1.263 . S
O275 Co272 1.970 . S
O275 C274 1.258 . S
O276 Co273 1.966 . S
O276 C274 1.263 . S
C277 O278 1.235 . S
C277 O304 1.289 1_565 S
O278 C277 1.235 . S
C279 C281 1.400 . S
C279 N282 1.351 . S
C279 C284 1.501 . S
C280 C281 1.387 . S
C280 N283 1.341 . S
C281 C279 1.400 . S
C281 C280 1.387 . S
N282 Co273 2.022 . S
N282 C279 1.351 . S
N282 N283 1.365 . S
N283 C280 1.341 . S
N283 N282 1.365 . S
N283 H303 0.862 . S
C284 C279 1.501 . S
C284 H285 0.961 . S
C284 H286 0.961 . S
C284 H287 0.960 . S
H285 C284 0.961 . S
H286 C284 0.961 . S
H287 C284 0.960 . S
C288 N289 1.342 . S
C288 C292 1.401 . S
C288 C293 1.499 1_545 S
N289 Co272 1.989 . S
N289 C288 1.342 . S
N289 N290 1.388 . S
N290 Co273 1.993 . S
N290 N289 1.388 . S
N290 C291 1.346 . S
C291 N290 1.346 . S
C291 C292 1.396 . S
C291 C301 1.510 . S
C292 C288 1.401 . S
C292 C291 1.396 . S
C293 C288 1.499 1_565 S
C293 H294 0.959 . S
C293 H295 0.960 . S
C293 H296 0.961 . S
H294 C293 0.959 . S
H295 C293 0.960 . S
H296 C293 0.961 . S
O297 Co272 1.967 . S
O297 C305 1.258 . S
O298 Co273 1.941 . S
O298 C305 1.266 . S
H299 C301 0.959 . S
H300 C301 0.961 . S
C301 C291 1.510 . S
C301 H299 0.959 . S
C301 H300 0.961 . S
C301 H302 0.960 . S
H302 C301 0.960 . S
H303 N283 0.862 . S
O304 Co272 1.920 . S
O304 C277 1.289 1_545 S
C305 O297 1.258 . S
C305 O298 1.266 . S
Co306 O309 1.970 . S
Co306 N323 1.989 . S
Co306 O331 1.967 . S
Co306 O338 1.920 . S
Co307 O310 1.966 . S
Co307 N316 2.022 . S
Co307 N324 1.993 . S
Co307 O332 1.941 . S
C308 O309 1.258 . S
C308 O310 1.263 . S
O309 Co306 1.970 . S
O309 C308 1.258 . S
O310 Co307 1.966 . S
O310 C308 1.263 . S
C311 O312 1.235 . S
C311 O338 1.289 . S
O312 C311 1.235 . S
C313 C315 1.400 . S
C313 N316 1.351 . S
C313 C318 1.501 . S
C314 C315 1.387 . S
C314 N317 1.341 . S
C315 C313 1.400 . S
C315 C314 1.387 . S
N316 Co307 2.022 . S
N316 C313 1.351 . S
N316 N317 1.365 . S
N317 C314 1.341 . S
N317 N316 1.365 . S
N317 H337 0.862 . S
C318 C313 1.501 . S
C318 H319 0.961 . S
C318 H320 0.961 . S
C318 H321 0.960 . S
H319 C318 0.961 . S
H320 C318 0.961 . S
H321 C318 0.960 . S
C322 N323 1.342 . S
C322 C326 1.401 . S
C322 C327 1.499 . S
N323 Co306 1.989 . S
N323 C322 1.342 . S
N323 N324 1.388 . S
N324 Co307 1.993 . S
N324 N323 1.388 . S
N324 C325 1.346 . S
C325 N324 1.346 . S
C325 C326 1.396 . S
C325 C335 1.510 . S
C326 C322 1.401 . S
C326 C325 1.396 . S
C327 C322 1.499 . S
C327 H328 0.959 . S
C327 H329 0.960 . S
C327 H330 0.961 . S
H328 C327 0.959 . S
H329 C327 0.960 . S
H330 C327 0.961 . S
O331 Co306 1.967 . S
O331 C339 1.258 . S
O332 Co307 1.941 . S
O332 C339 1.266 . S
H333 C335 0.959 . S
H334 C335 0.961 . S
C335 C325 1.510 . S
C335 H333 0.959 . S
C335 H334 0.961 . S
C335 H336 0.960 . S
H336 C335 0.960 . S
H337 N317 0.862 . S
O338 Co306 1.920 . S
O338 C311 1.289 . S
C339 O331 1.258 . S
C339 O332 1.266 . S
Co340 O343 1.970 . S
Co340 N357 1.989 . S
Co340 O365 1.967 . S
Co340 O372 1.920 . S
Co341 O344 1.966 . S
Co341 N350 2.022 . S
Co341 N358 1.993 . S
Co341 O366 1.941 . S
C342 O343 1.258 . S
C342 O344 1.263 . S
O343 Co340 1.970 . S
O343 C342 1.258 . S
O344 Co341 1.966 . S
O344 C342 1.263 . S
C345 O346 1.235 . S
C345 O372 1.289 1_545 S
O346 C345 1.235 . S
C347 C349 1.400 . S
C347 N350 1.351 . S
C347 C352 1.501 . S
C348 C349 1.387 . S
C348 N351 1.341 . S
C349 C347 1.400 . S
C349 C348 1.387 . S
N350 Co341 2.022 . S
N350 C347 1.351 . S
N350 N351 1.365 . S
N351 C348 1.341 . S
N351 N350 1.365 . S
N351 H371 0.862 . S
C352 C347 1.501 . S
C352 H353 0.961 . S
C352 H354 0.961 . S
C352 H355 0.960 . S
H353 C352 0.961 . S
H354 C352 0.961 . S
H355 C352 0.960 . S
C356 N357 1.342 . S
C356 C360 1.401 . S
C356 C361 1.499 1_565 S
N357 Co340 1.989 . S
N357 C356 1.342 . S
N357 N358 1.388 . S
N358 Co341 1.993 . S
N358 N357 1.388 . S
N358 C359 1.346 . S
C359 N358 1.346 . S
C359 C360 1.396 . S
C359 C369 1.510 . S
C360 C356 1.401 . S
C360 C359 1.396 . S
C361 C356 1.499 1_545 S
C361 H362 0.959 . S
C361 H363 0.960 . S
C361 H364 0.961 . S
H362 C361 0.959 . S
H363 C361 0.960 . S
H364 C361 0.961 . S
O365 Co340 1.967 . S
O365 C373 1.258 . S
O366 Co341 1.941 . S
O366 C373 1.266 . S
H367 C369 0.959 . S
H368 C369 0.961 . S
C369 C359 1.510 . S
C369 H367 0.959 . S
C369 H368 0.961 . S
C369 H370 0.960 . S
H370 C369 0.960 . S
H371 N351 0.862 . S
O372 Co340 1.920 . S
O372 C345 1.289 1_565 S
C373 O365 1.258 . S
C373 O366 1.266 . S
Co374 O377 1.970 . S
Co374 N391 1.989 . S
Co374 O399 1.967 . S
Co374 O406 1.920 . S
Co375 O378 1.966 . S
Co375 N384 2.022 . S
Co375 N392 1.993 . S
Co375 O400 1.941 . S
C376 O377 1.258 . S
C376 O378 1.263 . S
O377 Co374 1.970 . S
O377 C376 1.258 . S
O378 Co375 1.966 . S
O378 C376 1.263 . S
C379 O380 1.235 . S
C379 O406 1.289 . S
O380 C379 1.235 . S
C381 C383 1.400 . S
C381 N384 1.351 . S
C381 C386 1.501 . S
C382 C383 1.387 . S
C382 N385 1.341 . S
C383 C381 1.400 . S
C383 C382 1.387 . S
N384 Co375 2.022 . S
N384 C381 1.351 . S
N384 N385 1.365 . S
N385 C382 1.341 . S
N385 N384 1.365 . S
N385 H405 0.862 . S
C386 C381 1.501 . S
C386 H387 0.961 . S
C386 H388 0.961 . S
C386 H389 0.960 . S
H387 C386 0.961 . S
H388 C386 0.961 . S
H389 C386 0.960 . S
C390 N391 1.342 . S
C390 C394 1.401 . S
C390 C395 1.499 . S
N391 Co374 1.989 . S
N391 C390 1.342 . S
N391 N392 1.388 . S
N392 Co375 1.993 . S
N392 N391 1.388 . S
N392 C393 1.346 . S
C393 N392 1.346 . S
C393 C394 1.396 . S
C393 C403 1.510 . S
C394 C390 1.401 . S
C394 C393 1.396 . S
C395 C390 1.499 . S
C395 H396 0.959 . S
C395 H397 0.960 . S
C395 H398 0.961 . S
H396 C395 0.959 . S
H397 C395 0.960 . S
H398 C395 0.961 . S
O399 Co374 1.967 . S
O399 C407 1.258 . S
O400 Co375 1.941 . S
O400 C407 1.266 . S
H401 C403 0.959 . S
H402 C403 0.961 . S
C403 C393 1.510 . S
C403 H401 0.959 . S
C403 H402 0.961 . S
C403 H404 0.960 . S
H404 C403 0.960 . S
H405 N385 0.862 . S
O406 Co374 1.920 . S
O406 C379 1.289 . S
C407 O399 1.258 . S
C407 O400 1.266 . S
Co408 O411 1.970 . S
Co408 N425 1.989 . S
Co408 O433 1.967 . S
Co408 O440 1.920 . S
Co409 O412 1.966 . S
Co409 N418 2.022 . S
Co409 N426 1.993 . S
Co409 O434 1.941 . S
C410 O411 1.258 . S
C410 O412 1.263 . S
O411 Co408 1.970 . S
O411 C410 1.258 . S
O412 Co409 1.966 . S
O412 C410 1.263 . S
C413 O414 1.235 . S
C413 O440 1.289 1_545 S
O414 C413 1.235 . S
C415 C417 1.400 . S
C415 N418 1.351 . S
C415 C420 1.501 . S
C416 C417 1.387 . S
C416 N419 1.341 . S
C417 C415 1.400 . S
C417 C416 1.387 . S
N418 Co409 2.022 . S
N418 C415 1.351 . S
N418 N419 1.365 . S
N419 C416 1.341 . S
N419 N418 1.365 . S
N419 H439 0.862 . S
C420 C415 1.501 . S
C420 H421 0.961 . S
C420 H422 0.961 . S
C420 H423 0.960 . S
H421 C420 0.961 . S
H422 C420 0.961 . S
H423 C420 0.960 . S
C424 N425 1.342 . S
C424 C428 1.401 . S
C424 C429 1.499 1_565 S
N425 Co408 1.989 . S
N425 C424 1.342 . S
N425 N426 1.388 . S
N426 Co409 1.993 . S
N426 N425 1.388 . S
N426 C427 1.346 . S
C427 N426 1.346 . S
C427 C428 1.396 . S
C427 C437 1.510 . S
C428 C424 1.401 . S
C428 C427 1.396 . S
C429 C424 1.499 1_545 S
C429 H430 0.959 . S
C429 H431 0.960 . S
C429 H432 0.961 . S
H430 C429 0.959 . S
H431 C429 0.960 . S
H432 C429 0.961 . S
O433 Co408 1.967 . S
O433 C441 1.258 . S
O434 Co409 1.941 . S
O434 C441 1.266 . S
H435 C437 0.959 . S
H436 C437 0.961 . S
C437 C427 1.510 . S
C437 H435 0.959 . S
C437 H436 0.961 . S
C437 H438 0.960 . S
H438 C437 0.960 . S
H439 N419 0.862 . S
O440 Co408 1.920 . S
O440 C413 1.289 1_565 S
C441 O433 1.258 . S
C441 O434 1.266 . S
Co442 O445 1.970 . S
Co442 N459 1.989 . S
Co442 O467 1.967 . S
Co442 O474 1.920 . S
Co443 O446 1.966 . S
Co443 N452 2.022 . S
Co443 N460 1.993 . S
Co443 O468 1.941 . S
C444 O445 1.258 . S
C444 O446 1.263 . S
O445 Co442 1.970 . S
O445 C444 1.258 . S
O446 Co443 1.966 . S
O446 C444 1.263 . S
C447 O448 1.235 . S
C447 O474 1.289 . S
O448 C447 1.235 . S
C449 C451 1.400 . S
C449 N452 1.351 . S
C449 C454 1.501 . S
C450 C451 1.387 . S
C450 N453 1.341 . S
C451 C449 1.400 . S
C451 C450 1.387 . S
N452 Co443 2.022 . S
N452 C449 1.351 . S
N452 N453 1.365 . S
N453 C450 1.341 . S
N453 N452 1.365 . S
N453 H473 0.862 . S
C454 C449 1.501 . S
C454 H455 0.961 . S
C454 H456 0.961 . S
C454 H457 0.960 . S
H455 C454 0.961 . S
H456 C454 0.961 . S
H457 C454 0.960 . S
C458 N459 1.342 . S
C458 C462 1.401 . S
C458 C463 1.499 . S
N459 Co442 1.989 . S
N459 C458 1.342 . S
N459 N460 1.388 . S
N460 Co443 1.993 . S
N460 N459 1.388 . S
N460 C461 1.346 . S
C461 N460 1.346 . S
C461 C462 1.396 . S
C461 C471 1.510 . S
C462 C458 1.401 . S
C462 C461 1.396 . S
C463 C458 1.499 . S
C463 H464 0.959 . S
C463 H465 0.960 . S
C463 H466 0.961 . S
H464 C463 0.959 . S
H465 C463 0.960 . S
H466 C463 0.961 . S
O467 Co442 1.967 . S
O467 C475 1.258 . S
O468 Co443 1.941 . S
O468 C475 1.266 . S
H469 C471 0.959 . S
H470 C471 0.961 . S
C471 C461 1.510 . S
C471 H469 0.959 . S
C471 H470 0.961 . S
C471 H472 0.960 . S
H472 C471 0.960 . S
H473 N453 0.862 . S
O474 Co442 1.920 . S
O474 C447 1.289 . S
C475 O467 1.258 . S
C475 O468 1.266 . S
Co476 O479 1.970 . S
Co476 N493 1.989 . S
Co476 O501 1.967 . S
Co476 O508 1.920 . S
Co477 O480 1.966 . S
Co477 N486 2.022 . S
Co477 N494 1.993 . S
Co477 O502 1.941 . S
C478 O479 1.258 . S
C478 O480 1.263 . S
O479 Co476 1.970 . S
O479 C478 1.258 . S
O480 Co477 1.966 . S
O480 C478 1.263 . S
C481 O482 1.235 . S
C481 O508 1.289 1_565 S
O482 C481 1.235 . S
C483 C485 1.400 . S
C483 N486 1.351 . S
C483 C488 1.501 . S
C484 C485 1.387 . S
C484 N487 1.341 . S
C485 C483 1.400 . S
C485 C484 1.387 . S
N486 Co477 2.022 . S
N486 C483 1.351 . S
N486 N487 1.365 . S
N487 C484 1.341 . S
N487 N486 1.365 . S
N487 H507 0.862 . S
C488 C483 1.501 . S
C488 H489 0.961 . S
C488 H490 0.961 . S
C488 H491 0.960 . S
H489 C488 0.961 . S
H490 C488 0.961 . S
H491 C488 0.960 . S
C492 N493 1.342 . S
C492 C496 1.401 . S
C492 C497 1.499 1_545 S
N493 Co476 1.989 . S
N493 C492 1.342 . S
N493 N494 1.388 . S
N494 Co477 1.993 . S
N494 N493 1.388 . S
N494 C495 1.346 . S
C495 N494 1.346 . S
C495 C496 1.396 . S
C495 C505 1.510 . S
C496 C492 1.401 . S
C496 C495 1.396 . S
C497 C492 1.499 1_565 S
C497 H498 0.959 . S
C497 H499 0.960 . S
C497 H500 0.961 . S
H498 C497 0.959 . S
H499 C497 0.960 . S
H500 C497 0.961 . S
O501 Co476 1.967 . S
O501 C509 1.258 . S
O502 Co477 1.941 . S
O502 C509 1.266 . S
H503 C505 0.959 . S
H504 C505 0.961 . S
C505 C495 1.510 . S
C505 H503 0.959 . S
C505 H504 0.961 . S
C505 H506 0.960 . S
H506 C505 0.960 . S
H507 N487 0.862 . S
O508 Co476 1.920 . S
O508 C481 1.289 1_545 S
C509 O501 1.258 . S
C509 O502 1.266 . S
Co510 O513 1.970 . S
Co510 N527 1.989 . S
Co510 O535 1.967 . S
Co510 O542 1.920 . S
Co511 O514 1.966 . S
Co511 N520 2.022 . S
Co511 N528 1.993 . S
Co511 O536 1.941 . S
C512 O513 1.258 . S
C512 O514 1.263 . S
O513 Co510 1.970 . S
O513 C512 1.258 . S
O514 Co511 1.966 . S
O514 C512 1.263 . S
C515 O516 1.235 . S
C515 O542 1.289 . S
O516 C515 1.235 . S
C517 C519 1.400 . S
C517 N520 1.351 . S
C517 C522 1.501 . S
C518 C519 1.387 . S
C518 N521 1.341 . S
C519 C517 1.400 . S
C519 C518 1.387 . S
N520 Co511 2.022 . S
N520 C517 1.351 . S
N520 N521 1.365 . S
N521 C518 1.341 . S
N521 N520 1.365 . S
N521 H541 0.862 . S
C522 C517 1.501 . S
C522 H523 0.961 . S
C522 H524 0.961 . S
C522 H525 0.960 . S
H523 C522 0.961 . S
H524 C522 0.961 . S
H525 C522 0.960 . S
C526 N527 1.342 . S
C526 C530 1.401 . S
C526 C531 1.499 . S
N527 Co510 1.989 . S
N527 C526 1.342 . S
N527 N528 1.388 . S
N528 Co511 1.993 . S
N528 N527 1.388 . S
N528 C529 1.346 . S
C529 N528 1.346 . S
C529 C530 1.396 . S
C529 C539 1.510 . S
C530 C526 1.401 . S
C530 C529 1.396 . S
C531 C526 1.499 . S
C531 H532 0.959 . S
C531 H533 0.960 . S
C531 H534 0.961 . S
H532 C531 0.959 . S
H533 C531 0.960 . S
H534 C531 0.961 . S
O535 Co510 1.967 . S
O535 C543 1.258 . S
O536 Co511 1.941 . S
O536 C543 1.266 . S
H537 C539 0.959 . S
H538 C539 0.961 . S
C539 C529 1.510 . S
C539 H537 0.959 . S
C539 H538 0.961 . S
C539 H540 0.960 . S
H540 C539 0.960 . S
H541 N521 0.862 . S
O542 Co510 1.920 . S
O542 C515 1.289 . S
C543 O535 1.258 . S
C543 O536 1.266 . S
Co544 O547 1.970 . S
Co544 N561 1.989 . S
Co544 O569 1.967 . S
Co544 O576 1.920 . S
Co545 O548 1.966 . S
Co545 N554 2.022 . S
Co545 N562 1.993 . S
Co545 O570 1.941 . S
C546 O547 1.258 . S
C546 O548 1.263 . S
O547 Co544 1.970 . S
O547 C546 1.258 . S
O548 Co545 1.966 . S
O548 C546 1.263 . S
C549 O550 1.235 . S
C549 O576 1.289 1_556 S
O550 C549 1.235 . S
C551 C553 1.400 . S
C551 N554 1.351 . S
C551 C556 1.501 . S
C552 C553 1.387 . S
C552 N555 1.341 . S
C553 C551 1.400 . S
C553 C552 1.387 . S
N554 Co545 2.022 . S
N554 C551 1.351 . S
N554 N555 1.365 . S
N555 C552 1.341 . S
N555 N554 1.365 . S
N555 H575 0.862 . S
C556 C551 1.501 . S
C556 H557 0.961 . S
C556 H558 0.961 . S
C556 H559 0.960 . S
H557 C556 0.961 . S
H558 C556 0.961 . S
H559 C556 0.960 . S
C560 N561 1.342 . S
C560 C564 1.401 . S
C560 C565 1.499 1_554 S
N561 Co544 1.989 . S
N561 C560 1.342 . S
N561 N562 1.388 . S
N562 Co545 1.993 . S
N562 N561 1.388 . S
N562 C563 1.346 . S
C563 N562 1.346 . S
C563 C564 1.396 . S
C563 C573 1.510 . S
C564 C560 1.401 . S
C564 C563 1.396 . S
C565 C560 1.499 1_556 S
C565 H566 0.959 . S
C565 H567 0.960 . S
C565 H568 0.961 . S
H566 C565 0.959 . S
H567 C565 0.960 . S
H568 C565 0.961 . S
O569 Co544 1.967 . S
O569 C577 1.258 . S
O570 Co545 1.941 . S
O570 C577 1.266 . S
H571 C573 0.959 . S
H572 C573 0.961 . S
C573 C563 1.510 . S
C573 H571 0.959 . S
C573 H572 0.961 . S
C573 H574 0.960 . S
H574 C573 0.960 . S
H575 N555 0.862 . S
O576 Co544 1.920 . S
O576 C549 1.289 1_554 S
C577 O569 1.258 . S
C577 O570 1.266 . S
Co578 O581 1.970 . S
Co578 N595 1.989 . S
Co578 O603 1.967 . S
Co578 O610 1.920 . S
Co579 O582 1.966 . S
Co579 N588 2.022 . S
Co579 N596 1.993 . S
Co579 O604 1.941 . S
C580 O581 1.258 . S
C580 O582 1.263 . S
O581 Co578 1.970 . S
O581 C580 1.258 . S
O582 Co579 1.966 . S
O582 C580 1.263 . S
C583 O584 1.235 . S
C583 O610 1.289 1_554 S
O584 C583 1.235 . S
C585 C587 1.400 . S
C585 N588 1.351 . S
C585 C590 1.501 . S
C586 C587 1.387 . S
C586 N589 1.341 . S
C587 C585 1.400 . S
C587 C586 1.387 . S
N588 Co579 2.022 . S
N588 C585 1.351 . S
N588 N589 1.365 . S
N589 C586 1.341 . S
N589 N588 1.365 . S
N589 H609 0.862 . S
C590 C585 1.501 . S
C590 H591 0.961 . S
C590 H592 0.961 . S
C590 H593 0.960 . S
H591 C590 0.961 . S
H592 C590 0.961 . S
H593 C590 0.960 . S
C594 N595 1.342 . S
C594 C598 1.401 . S
C594 C599 1.499 1_556 S
N595 Co578 1.989 . S
N595 C594 1.342 . S
N595 N596 1.388 . S
N596 Co579 1.993 . S
N596 N595 1.388 . S
N596 C597 1.346 . S
C597 N596 1.346 . S
C597 C598 1.396 . S
C597 C607 1.510 . S
C598 C594 1.401 . S
C598 C597 1.396 . S
C599 C594 1.499 1_554 S
C599 H600 0.959 . S
C599 H601 0.960 . S
C599 H602 0.961 . S
H600 C599 0.959 . S
H601 C599 0.960 . S
H602 C599 0.961 . S
O603 Co578 1.967 . S
O603 C611 1.258 . S
O604 Co579 1.941 . S
O604 C611 1.266 . S
H605 C607 0.959 . S
H606 C607 0.961 . S
C607 C597 1.510 . S
C607 H605 0.959 . S
C607 H606 0.961 . S
C607 H608 0.960 . S
H608 C607 0.960 . S
H609 N589 0.862 . S
O610 Co578 1.920 . S
O610 C583 1.289 1_556 S
C611 O603 1.258 . S
C611 O604 1.266 . S
Co612 O615 1.970 . S
Co612 N629 1.989 . S
Co612 O637 1.967 . S
Co612 O644 1.920 . S
Co613 O616 1.966 . S
Co613 N622 2.022 . S
Co613 N630 1.993 . S
Co613 O638 1.941 . S
C614 O615 1.258 . S
C614 O616 1.263 . S
O615 Co612 1.970 . S
O615 C614 1.258 . S
O616 Co613 1.966 . S
O616 C614 1.263 . S
C617 O618 1.235 . S
C617 O644 1.289 . S
O618 C617 1.235 . S
C619 C621 1.400 . S
C619 N622 1.351 . S
C619 C624 1.501 . S
C620 C621 1.387 . S
C620 N623 1.341 . S
C621 C619 1.400 . S
C621 C620 1.387 . S
N622 Co613 2.022 . S
N622 C619 1.351 . S
N622 N623 1.365 . S
N623 C620 1.341 . S
N623 N622 1.365 . S
N623 H643 0.862 . S
C624 C619 1.501 . S
C624 H625 0.961 . S
C624 H626 0.961 . S
C624 H627 0.960 . S
H625 C624 0.961 . S
H626 C624 0.961 . S
H627 C624 0.960 . S
C628 N629 1.342 . S
C628 C632 1.401 . S
C628 C633 1.499 . S
N629 Co612 1.989 . S
N629 C628 1.342 . S
N629 N630 1.388 . S
N630 Co613 1.993 . S
N630 N629 1.388 . S
N630 C631 1.346 . S
C631 N630 1.346 . S
C631 C632 1.396 . S
C631 C641 1.510 . S
C632 C628 1.401 . S
C632 C631 1.396 . S
C633 C628 1.499 . S
C633 H634 0.959 . S
C633 H635 0.960 . S
C633 H636 0.961 . S
H634 C633 0.959 . S
H635 C633 0.960 . S
H636 C633 0.961 . S
O637 Co612 1.967 . S
O637 C645 1.258 . S
O638 Co613 1.941 . S
O638 C645 1.266 . S
H639 C641 0.959 . S
H640 C641 0.961 . S
C641 C631 1.510 . S
C641 H639 0.959 . S
C641 H640 0.961 . S
C641 H642 0.960 . S
H642 C641 0.960 . S
H643 N623 0.862 . S
O644 Co612 1.920 . S
O644 C617 1.289 . S
C645 O637 1.258 . S
C645 O638 1.266 . S
Co646 O649 1.970 . S
Co646 N663 1.989 . S
Co646 O671 1.967 . S
Co646 O678 1.920 . S
Co647 O650 1.966 . S
Co647 N656 2.022 . S
Co647 N664 1.993 . S
Co647 O672 1.941 . S
C648 O649 1.258 . S
C648 O650 1.263 . S
O649 Co646 1.970 . S
O649 C648 1.258 . S
O650 Co647 1.966 . S
O650 C648 1.263 . S
C651 O652 1.235 . S
C651 O678 1.289 1_554 S
O652 C651 1.235 . S
C653 C655 1.400 . S
C653 N656 1.351 . S
C653 C658 1.501 . S
C654 C655 1.387 . S
C654 N657 1.341 . S
C655 C653 1.400 . S
C655 C654 1.387 . S
N656 Co647 2.022 . S
N656 C653 1.351 . S
N656 N657 1.365 . S
N657 C654 1.341 . S
N657 N656 1.365 . S
N657 H677 0.862 . S
C658 C653 1.501 . S
C658 H659 0.961 . S
C658 H660 0.961 . S
C658 H661 0.960 . S
H659 C658 0.961 . S
H660 C658 0.961 . S
H661 C658 0.960 . S
C662 N663 1.342 . S
C662 C666 1.401 . S
C662 C667 1.499 1_556 S
N663 Co646 1.989 . S
N663 C662 1.342 . S
N663 N664 1.388 . S
N664 Co647 1.993 . S
N664 N663 1.388 . S
N664 C665 1.346 . S
C665 N664 1.346 . S
C665 C666 1.396 . S
C665 C675 1.510 . S
C666 C662 1.401 . S
C666 C665 1.396 . S
C667 C662 1.499 1_554 S
C667 H668 0.959 . S
C667 H669 0.960 . S
C667 H670 0.961 . S
H668 C667 0.959 . S
H669 C667 0.960 . S
H670 C667 0.961 . S
O671 Co646 1.967 . S
O671 C679 1.258 . S
O672 Co647 1.941 . S
O672 C679 1.266 . S
H673 C675 0.959 . S
H674 C675 0.961 . S
C675 C665 1.510 . S
C675 H673 0.959 . S
C675 H674 0.961 . S
C675 H676 0.960 . S
H676 C675 0.960 . S
H677 N657 0.862 . S
O678 Co646 1.920 . S
O678 C651 1.289 1_556 S
C679 O671 1.258 . S
C679 O672 1.266 . S
Co680 O683 1.970 . S
Co680 N697 1.989 . S
Co680 O705 1.967 . S
Co680 O712 1.920 . S
Co681 O684 1.966 . S
Co681 N690 2.022 . S
Co681 N698 1.993 . S
Co681 O706 1.941 . S
C682 O683 1.258 . S
C682 O684 1.263 . S
O683 Co680 1.970 . S
O683 C682 1.258 . S
O684 Co681 1.966 . S
O684 C682 1.263 . S
C685 O686 1.235 . S
C685 O712 1.289 . S
O686 C685 1.235 . S
C687 C689 1.400 . S
C687 N690 1.351 . S
C687 C692 1.501 . S
C688 C689 1.387 . S
C688 N691 1.341 . S
C689 C687 1.400 . S
C689 C688 1.387 . S
N690 Co681 2.022 . S
N690 C687 1.351 . S
N690 N691 1.365 . S
N691 C688 1.341 . S
N691 N690 1.365 . S
N691 H711 0.862 . S
C692 C687 1.501 . S
C692 H693 0.961 . S
C692 H694 0.961 . S
C692 H695 0.960 . S
H693 C692 0.961 . S
H694 C692 0.961 . S
H695 C692 0.960 . S
C696 N697 1.342 . S
C696 C700 1.401 . S
C696 C701 1.499 . S
N697 Co680 1.989 . S
N697 C696 1.342 . S
N697 N698 1.388 . S
N698 Co681 1.993 . S
N698 N697 1.388 . S
N698 C699 1.346 . S
C699 N698 1.346 . S
C699 C700 1.396 . S
C699 C709 1.510 . S
C700 C696 1.401 . S
C700 C699 1.396 . S
C701 C696 1.499 . S
C701 H702 0.959 . S
C701 H703 0.960 . S
C701 H704 0.961 . S
H702 C701 0.959 . S
H703 C701 0.960 . S
H704 C701 0.961 . S
O705 Co680 1.967 . S
O705 C713 1.258 . S
O706 Co681 1.941 . S
O706 C713 1.266 . S
H707 C709 0.959 . S
H708 C709 0.961 . S
C709 C699 1.510 . S
C709 H707 0.959 . S
C709 H708 0.961 . S
C709 H710 0.960 . S
H710 C709 0.960 . S
H711 N691 0.862 . S
O712 Co680 1.920 . S
O712 C685 1.289 . S
C713 O705 1.258 . S
C713 O706 1.266 . S
Co714 O717 1.970 . S
Co714 N731 1.989 . S
Co714 O739 1.967 . S
Co714 O746 1.920 . S
Co715 O718 1.966 . S
Co715 N724 2.022 . S
Co715 N732 1.993 . S
Co715 O740 1.941 . S
C716 O717 1.258 . S
C716 O718 1.263 . S
O717 Co714 1.970 . S
O717 C716 1.258 . S
O718 Co715 1.966 . S
O718 C716 1.263 . S
C719 O720 1.235 . S
C719 O746 1.289 1_556 S
O720 C719 1.235 . S
C721 C723 1.400 . S
C721 N724 1.351 . S
C721 C726 1.501 . S
C722 C723 1.387 . S
C722 N725 1.341 . S
C723 C721 1.400 . S
C723 C722 1.387 . S
N724 Co715 2.022 . S
N724 C721 1.351 . S
N724 N725 1.365 . S
N725 C722 1.341 . S
N725 N724 1.365 . S
N725 H745 0.862 . S
C726 C721 1.501 . S
C726 H727 0.961 . S
C726 H728 0.961 . S
C726 H729 0.960 . S
H727 C726 0.961 . S
H728 C726 0.961 . S
H729 C726 0.960 . S
C730 N731 1.342 . S
C730 C734 1.401 . S
C730 C735 1.499 1_554 S
N731 Co714 1.989 . S
N731 C730 1.342 . S
N731 N732 1.388 . S
N732 Co715 1.993 . S
N732 N731 1.388 . S
N732 C733 1.346 . S
C733 N732 1.346 . S
C733 C734 1.396 . S
C733 C743 1.510 . S
C734 C730 1.401 . S
C734 C733 1.396 . S
C735 C730 1.499 1_556 S
C735 H736 0.959 . S
C735 H737 0.960 . S
C735 H738 0.961 . S
H736 C735 0.959 . S
H737 C735 0.960 . S
H738 C735 0.961 . S
O739 Co714 1.967 . S
O739 C747 1.258 . S
O740 Co715 1.941 . S
O740 C747 1.266 . S
H741 C743 0.959 . S
H742 C743 0.961 . S
C743 C733 1.510 . S
C743 H741 0.959 . S
C743 H742 0.961 . S
C743 H744 0.960 . S
H744 C743 0.960 . S
H745 N725 0.862 . S
O746 Co714 1.920 . S
O746 C719 1.289 1_554 S
C747 O739 1.258 . S
C747 O740 1.266 . S
Co748 O751 1.970 . S
Co748 N765 1.989 . S
Co748 O773 1.967 . S
Co748 O780 1.920 . S
Co749 O752 1.966 . S
Co749 N758 2.022 . S
Co749 N766 1.993 . S
Co749 O774 1.941 . S
C750 O751 1.258 . S
C750 O752 1.263 . S
O751 Co748 1.970 . S
O751 C750 1.258 . S
O752 Co749 1.966 . S
O752 C750 1.263 . S
C753 O754 1.235 . S
C753 O780 1.289 . S
O754 C753 1.235 . S
C755 C757 1.400 . S
C755 N758 1.351 . S
C755 C760 1.501 . S
C756 C757 1.387 . S
C756 N759 1.341 . S
C757 C755 1.400 . S
C757 C756 1.387 . S
N758 Co749 2.022 . S
N758 C755 1.351 . S
N758 N759 1.365 . S
N759 C756 1.341 . S
N759 N758 1.365 . S
N759 H779 0.862 . S
C760 C755 1.501 . S
C760 H761 0.961 . S
C760 H762 0.961 . S
C760 H763 0.960 . S
H761 C760 0.961 . S
H762 C760 0.961 . S
H763 C760 0.960 . S
C764 N765 1.342 . S
C764 C768 1.401 . S
C764 C769 1.499 . S
N765 Co748 1.989 . S
N765 C764 1.342 . S
N765 N766 1.388 . S
N766 Co749 1.993 . S
N766 N765 1.388 . S
N766 C767 1.346 . S
C767 N766 1.346 . S
C767 C768 1.396 . S
C767 C777 1.510 . S
C768 C764 1.401 . S
C768 C767 1.396 . S
C769 C764 1.499 . S
C769 H770 0.959 . S
C769 H771 0.960 . S
C769 H772 0.961 . S
H770 C769 0.959 . S
H771 C769 0.960 . S
H772 C769 0.961 . S
O773 Co748 1.967 . S
O773 C781 1.258 . S
O774 Co749 1.941 . S
O774 C781 1.266 . S
H775 C777 0.959 . S
H776 C777 0.961 . S
C777 C767 1.510 . S
C777 H775 0.959 . S
C777 H776 0.961 . S
C777 H778 0.960 . S
H778 C777 0.960 . S
H779 N759 0.862 . S
O780 Co748 1.920 . S
O780 C753 1.289 . S
C781 O773 1.258 . S
C781 O774 1.266 . S
Co782 O785 1.970 . S
Co782 N799 1.989 . S
Co782 O807 1.967 . S
Co782 O814 1.920 . S
Co783 O786 1.966 . S
Co783 N792 2.022 . S
Co783 N800 1.993 . S
Co783 O808 1.941 . S
C784 O785 1.258 . S
C784 O786 1.263 . S
O785 Co782 1.970 . S
O785 C784 1.258 . S
O786 Co783 1.966 . S
O786 C784 1.263 . S
C787 O788 1.235 . S
C787 O814 1.289 . S
O788 C787 1.235 . S
C789 C791 1.400 . S
C789 N792 1.351 . S
C789 C794 1.501 . S
C790 C791 1.387 . S
C790 N793 1.341 . S
C791 C789 1.400 . S
C791 C790 1.387 . S
N792 Co783 2.022 . S
N792 C789 1.351 . S
N792 N793 1.365 . S
N793 C790 1.341 . S
N793 N792 1.365 . S
N793 H813 0.862 . S
C794 C789 1.501 . S
C794 H795 0.961 . S
C794 H796 0.961 . S
C794 H797 0.960 . S
H795 C794 0.961 . S
H796 C794 0.961 . S
H797 C794 0.960 . S
C798 N799 1.342 . S
C798 C802 1.401 . S
C798 C803 1.499 . S
N799 Co782 1.989 . S
N799 C798 1.342 . S
N799 N800 1.388 . S
N800 Co783 1.993 . S
N800 N799 1.388 . S
N800 C801 1.346 . S
C801 N800 1.346 . S
C801 C802 1.396 . S
C801 C811 1.510 . S
C802 C798 1.401 . S
C802 C801 1.396 . S
C803 C798 1.499 . S
C803 H804 0.959 . S
C803 H805 0.960 . S
C803 H806 0.961 . S
H804 C803 0.959 . S
H805 C803 0.960 . S
H806 C803 0.961 . S
O807 Co782 1.967 . S
O807 C815 1.258 . S
O808 Co783 1.941 . S
O808 C815 1.266 . S
H809 C811 0.959 . S
H810 C811 0.961 . S
C811 C801 1.510 . S
C811 H809 0.959 . S
C811 H810 0.961 . S
C811 H812 0.960 . S
H812 C811 0.960 . S
H813 N793 0.862 . S
O814 Co782 1.920 . S
O814 C787 1.289 . S
C815 O807 1.258 . S
C815 O808 1.266 . S
C816 C817 1.369 . S
C816 C818 1.419 . S
C816 H820 0.930 . S
C817 C816 1.369 . S
C817 C826 1.429 . S
C818 C816 1.419 . S
C818 C819 1.363 . S
C818 H821 0.929 . S
C819 C818 1.363 . S
C819 C825 1.428 . S
H820 C816 0.930 . S
H821 C818 0.929 . S
S822 N823 1.613 . S
S822 N824 1.610 . S
N823 S822 1.613 . S
N823 C826 1.350 . S
N824 S822 1.610 . S
N824 C825 1.351 . S
C825 C819 1.428 . S
C825 N824 1.351 . S
C825 C826 1.434 . S
C826 C817 1.429 . S
C826 N823 1.350 . S
C826 C825 1.434 . S
C827 C828 1.369 . S
C827 C829 1.419 . S
C827 H831 0.930 . S
C828 C827 1.369 . S
C828 C837 1.429 . S
C829 C827 1.419 . S
C829 C830 1.363 . S
C829 H832 0.929 . S
C830 C829 1.363 . S
C830 C836 1.428 . S
H831 C827 0.930 . S
H832 C829 0.929 . S
S833 N834 1.613 . S
S833 N835 1.610 1_455 S
N834 S833 1.613 . S
N834 C837 1.350 1_455 S
N835 S833 1.610 1_655 S
N835 C836 1.351 . S
C836 C830 1.428 . S
C836 N835 1.351 . S
C836 C837 1.434 . S
C837 C828 1.429 . S
C837 N834 1.350 1_655 S
C837 C836 1.434 . S
C838 C839 1.369 . S
C838 C840 1.419 . S
C838 H842 0.930 . S
C839 C838 1.369 . S
C839 C848 1.429 . S
C840 C838 1.419 . S
C840 C841 1.363 . S
C840 H843 0.929 . S
C841 C840 1.363 . S
C841 C847 1.428 . S
H842 C838 0.930 . S
H843 C840 0.929 . S
S844 N845 1.613 . S
S844 N846 1.610 . S
N845 S844 1.613 . S
N845 C848 1.350 . S
N846 S844 1.610 . S
N846 C847 1.351 . S
C847 C841 1.428 . S
C847 N846 1.351 . S
C847 C848 1.434 . S
C848 C839 1.429 . S
C848 N845 1.350 . S
C848 C847 1.434 . S
C849 C850 1.369 . S
C849 C851 1.419 . S
C849 H853 0.930 . S
C850 C849 1.369 . S
C850 C859 1.429 . S
C851 C849 1.419 . S
C851 C852 1.363 . S
C851 H854 0.929 . S
C852 C851 1.363 . S
C852 C858 1.428 . S
H853 C849 0.930 . S
H854 C851 0.929 . S
S855 N856 1.613 . S
S855 N857 1.610 . S
N856 S855 1.613 . S
N856 C859 1.350 . S
N857 S855 1.610 . S
N857 C858 1.351 . S
C858 C852 1.428 . S
C858 N857 1.351 . S
C858 C859 1.434 . S
C859 C850 1.429 . S
C859 N856 1.350 . S
C859 C858 1.434 . S
C860 C861 1.369 . S
C860 C862 1.419 . S
C860 H864 0.930 . S
C861 C860 1.369 . S
C861 C870 1.429 . S
C862 C860 1.419 . S
C862 C863 1.363 . S
C862 H865 0.929 . S
C863 C862 1.363 . S
C863 C869 1.428 . S
H864 C860 0.930 . S
H865 C862 0.929 . S
S866 N867 1.613 . S
S866 N868 1.610 . S
N867 S866 1.613 . S
N867 C870 1.350 . S
N868 S866 1.610 . S
N868 C869 1.351 . S
C869 C863 1.428 . S
C869 N868 1.351 . S
C869 C870 1.434 . S
C870 C861 1.429 . S
C870 N867 1.350 . S
C870 C869 1.434 . S
C871 C872 1.369 . S
C871 C873 1.419 . S
C871 H875 0.930 . S
C872 C871 1.369 . S
C872 C881 1.429 . S
C873 C871 1.419 . S
C873 C874 1.363 . S
C873 H876 0.929 . S
C874 C873 1.363 . S
C874 C880 1.428 . S
H875 C871 0.930 . S
H876 C873 0.929 . S
S877 N878 1.613 . S
S877 N879 1.610 . S
N878 S877 1.613 . S
N878 C881 1.350 . S
N879 S877 1.610 . S
N879 C880 1.351 . S
C880 C874 1.428 . S
C880 N879 1.351 . S
C880 C881 1.434 . S
C881 C872 1.429 . S
C881 N878 1.350 . S
C881 C880 1.434 . S
C882 C883 1.369 . S
C882 C884 1.419 . S
C882 H886 0.930 . S
C883 C882 1.369 . S
C883 C892 1.429 . S
C884 C882 1.419 . S
C884 C885 1.363 . S
C884 H887 0.929 . S
C885 C884 1.363 . S
C885 C891 1.428 . S
H886 C882 0.930 . S
H887 C884 0.929 . S
S888 N889 1.613 . S
S888 N890 1.610 . S
N889 S888 1.613 . S
N889 C892 1.350 . S
N890 S888 1.610 . S
N890 C891 1.351 . S
C891 C885 1.428 . S
C891 N890 1.351 . S
C891 C892 1.434 . S
C892 C883 1.429 . S
C892 N889 1.350 . S
C892 C891 1.434 . S
C893 C894 1.369 . S
C893 C895 1.419 . S
C893 H897 0.930 . S
C894 C893 1.369 . S
C894 C903 1.429 . S
C895 C893 1.419 . S
C895 C896 1.363 . S
C895 H898 0.929 . S
C896 C895 1.363 . S
C896 C902 1.428 . S
H897 C893 0.930 . S
H898 C895 0.929 . S
S899 N900 1.613 . S
S899 N901 1.610 1_455 S
N900 S899 1.613 . S
N900 C903 1.350 1_455 S
N901 S899 1.610 1_655 S
N901 C902 1.351 . S
C902 C896 1.428 . S
C902 N901 1.351 . S
C902 C903 1.434 . S
C903 C894 1.429 . S
C903 N900 1.350 1_655 S
C903 C902 1.434 . S
C904 C905 1.369 . S
C904 C906 1.419 . S
C904 H908 0.930 . S
C905 C904 1.369 . S
C905 C914 1.429 . S
C906 C904 1.419 . S
C906 C907 1.363 . S
C906 H909 0.929 . S
C907 C906 1.363 . S
C907 C913 1.428 . S
H908 C904 0.930 . S
H909 C906 0.929 . S
S910 N911 1.613 . S
S910 N912 1.610 . S
N911 S910 1.613 . S
N911 C914 1.350 . S
N912 S910 1.610 . S
N912 C913 1.351 . S
C913 C907 1.428 . S
C913 N912 1.351 . S
C913 C914 1.434 . S
C914 C905 1.429 . S
C914 N911 1.350 . S
C914 C913 1.434 . S
C915 C916 1.369 . S
C915 C917 1.419 . S
C915 H919 0.930 . S
C916 C915 1.369 . S
C916 C925 1.429 . S
C917 C915 1.419 . S
C917 C918 1.363 . S
C917 H920 0.929 . S
C918 C917 1.363 . S
C918 C924 1.428 . S
H919 C915 0.930 . S
H920 C917 0.929 . S
S921 N922 1.613 . S
S921 N923 1.610 . S
N922 S921 1.613 . S
N922 C925 1.350 . S
N923 S921 1.610 . S
N923 C924 1.351 . S
C924 C918 1.428 . S
C924 N923 1.351 . S
C924 C925 1.434 . S
C925 C916 1.429 . S
C925 N922 1.350 . S
C925 C924 1.434 . S
C926 C927 1.369 . S
C926 C928 1.419 . S
C926 H930 0.930 . S
C927 C926 1.369 . S
C927 C936 1.429 . S
C928 C926 1.419 . S
C928 C929 1.363 . S
C928 H931 0.929 . S
C929 C928 1.363 . S
C929 C935 1.428 . S
H930 C926 0.930 . S
H931 C928 0.929 . S
S932 N933 1.613 . S
S932 N934 1.610 . S
N933 S932 1.613 . S
N933 C936 1.350 . S
N934 S932 1.610 . S
N934 C935 1.351 . S
C935 C929 1.428 . S
C935 N934 1.351 . S
C935 C936 1.434 . S
C936 C927 1.429 . S
C936 N933 1.350 . S
C936 C935 1.434 . S
C937 C938 1.369 . S
C937 C939 1.419 . S
C937 H941 0.930 . S
C938 C937 1.369 . S
C938 C947 1.429 . S
C939 C937 1.419 . S
C939 C940 1.363 . S
C939 H942 0.929 . S
C940 C939 1.363 . S
C940 C946 1.428 . S
H941 C937 0.930 . S
H942 C939 0.929 . S
S943 N944 1.613 . S
S943 N945 1.610 . S
N944 S943 1.613 . S
N944 C947 1.350 . S
N945 S943 1.610 . S
N945 C946 1.351 . S
C946 C940 1.428 . S
C946 N945 1.351 . S
C946 C947 1.434 . S
C947 C938 1.429 . S
C947 N944 1.350 . S
C947 C946 1.434 . S
C948 C949 1.369 . S
C948 C950 1.419 . S
C948 H952 0.930 . S
C949 C948 1.369 . S
C949 C958 1.429 . S
C950 C948 1.419 . S
C950 C951 1.363 . S
C950 H953 0.929 . S
C951 C950 1.363 . S
C951 C957 1.428 . S
H952 C948 0.930 . S
H953 C950 0.929 . S
S954 N955 1.613 . S
S954 N956 1.610 . S
N955 S954 1.613 . S
N955 C958 1.350 . S
N956 S954 1.610 . S
N956 C957 1.351 . S
C957 C951 1.428 . S
C957 N956 1.351 . S
C957 C958 1.434 . S
C958 C949 1.429 . S
C958 N955 1.350 . S
C958 C957 1.434 . S
C959 C960 1.369 . S
C959 C961 1.419 . S
C959 H963 0.930 . S
C960 C959 1.369 . S
C960 C969 1.429 . S
C961 C959 1.419 . S
C961 C962 1.363 . S
C961 H964 0.929 . S
C962 C961 1.363 . S
C962 C968 1.428 . S
H963 C959 0.930 . S
H964 C961 0.929 . S
S965 N966 1.613 1_554 S
S965 N967 1.607 1_554 S
N966 S965 1.613 1_556 S
N966 C969 1.350 . S
N967 S965 1.607 1_556 S
N967 C968 1.380 . S
C968 C962 1.428 . S
C968 N967 1.380 . S
C968 C969 1.434 . S
C969 C960 1.429 . S
C969 N966 1.350 . S
C969 C968 1.434 . S
C970 C971 1.369 . S
C970 C972 1.419 . S
C970 H974 0.930 . S
C971 C970 1.369 . S
C971 C980 1.429 . S
C972 C970 1.419 . S
C972 C973 1.363 . S
C972 H975 0.929 . S
C973 C972 1.363 . S
C973 C979 1.428 . S
H974 C970 0.930 . S
H975 C972 0.929 . S
S976 N977 1.613 . S
S976 N978 1.610 . S
N977 S976 1.613 . S
N977 C980 1.350 . S
N978 S976 1.610 . S
N978 C979 1.351 . S
C979 C973 1.428 . S
C979 N978 1.351 . S
C979 C980 1.434 . S
C980 C971 1.429 . S
C980 N977 1.350 . S
C980 C979 1.434 . S
C981 C982 1.369 . S
C981 C983 1.419 . S
C981 H985 0.930 . S
C982 C981 1.369 . S
C982 C991 1.429 . S
C983 C981 1.419 . S
C983 C984 1.363 . S
C983 H986 0.929 . S
C984 C983 1.363 . S
C984 C990 1.428 . S
H985 C981 0.930 . S
H986 C983 0.929 . S
S987 N988 1.613 . S
S987 N989 1.610 . S
N988 S987 1.613 . S
N988 C991 1.350 . S
N989 S987 1.610 . S
N989 C990 1.351 . S
C990 C984 1.428 . S
C990 N989 1.351 . S
C990 C991 1.434 . S
C991 C982 1.429 . S
C991 N988 1.350 . S
C991 C990 1.434 . S
C992 C993 1.369 . S
C992 C994 1.419 . S
C992 H996 0.930 . S
C993 C992 1.369 . S
C993 C1002 1.429 . S
C994 C992 1.419 . S
C994 C995 1.363 . S
C994 H997 0.929 . S
C995 C994 1.363 . S
C995 C1001 1.428 . S
H996 C992 0.930 . S
H997 C994 0.929 . S
S998 N999 1.613 . S
S998 N1000 1.610 . S
N999 S998 1.613 . S
N999 C1002 1.350 . S
N1000 S998 1.610 . S
N1000 C1001 1.351 . S
C1001 C995 1.428 . S
C1001 N1000 1.351 . S
C1001 C1002 1.434 . S
C1002 C993 1.429 . S
C1002 N999 1.350 . S
C1002 C1001 1.434 . S
C1003 C1004 1.369 . S
C1003 C1005 1.419 . S
C1003 H1007 0.930 . S
C1004 C1003 1.369 . S
C1004 C1013 1.429 . S
C1005 C1003 1.419 . S
C1005 C1006 1.363 . S
C1005 H1008 0.929 . S
C1006 C1005 1.363 . S
C1006 C1012 1.428 . S
H1007 C1003 0.930 . S
H1008 C1005 0.929 . S
S1009 N1010 1.613 . S
S1009 N1011 1.610 . S
N1010 S1009 1.613 . S
N1010 C1013 1.350 . S
N1011 S1009 1.610 . S
N1011 C1012 1.351 . S
C1012 C1006 1.428 . S
C1012 N1011 1.351 . S
C1012 C1013 1.434 . S
C1013 C1004 1.429 . S
C1013 N1010 1.350 . S
C1013 C1012 1.434 . S
C1014 C1015 1.369 . S
C1014 C1016 1.419 . S
C1014 H1018 0.930 . S
C1015 C1014 1.369 . S
C1015 C1024 1.429 . S
C1016 C1014 1.419 . S
C1016 C1017 1.363 . S
C1016 H1019 0.929 . S
C1017 C1016 1.363 . S
C1017 C1023 1.428 . S
H1018 C1014 0.930 . S
H1019 C1016 0.929 . S
S1020 N1021 1.613 . S
S1020 N1022 1.610 . S
N1021 S1020 1.613 . S
N1021 C1024 1.350 . S
N1022 S1020 1.610 . S
N1022 C1023 1.351 . S
C1023 C1017 1.428 . S
C1023 N1022 1.351 . S
C1023 C1024 1.434 . S
C1024 C1015 1.429 . S
C1024 N1021 1.350 . S
C1024 C1023 1.434 . S
C1025 C1026 1.369 . S
C1025 C1027 1.419 . S
C1025 H1029 0.930 . S
C1026 C1025 1.369 . S
C1026 C1035 1.429 . S
C1027 C1025 1.419 . S
C1027 C1028 1.363 . S
C1027 H1030 0.929 . S
C1028 C1027 1.363 . S
C1028 C1034 1.428 . S
H1029 C1025 0.930 . S
H1030 C1027 0.929 . S
S1031 N1032 1.613 . S
S1031 N1033 1.610 . S
N1032 S1031 1.613 . S
N1032 C1035 1.350 . S
N1033 S1031 1.610 . S
N1033 C1034 1.351 . S
C1034 C1028 1.428 . S
C1034 N1033 1.351 . S
C1034 C1035 1.434 . S
C1035 C1026 1.429 . S
C1035 N1032 1.350 . S
C1035 C1034 1.434 . S
C1036 C1037 1.369 . S
C1036 C1038 1.419 . S
C1036 H1040 0.930 . S
C1037 C1036 1.369 . S
C1037 C1046 1.429 . S
C1038 C1036 1.419 . S
C1038 C1039 1.363 . S
C1038 H1041 0.929 . S
C1039 C1038 1.363 . S
C1039 C1045 1.428 . S
H1040 C1036 0.930 . S
H1041 C1038 0.929 . S
S1042 N1043 1.613 . S
S1042 N1044 1.610 . S
N1043 S1042 1.613 . S
N1043 C1046 1.350 . S
N1044 S1042 1.610 . S
N1044 C1045 1.351 . S
C1045 C1039 1.428 . S
C1045 N1044 1.351 . S
C1045 C1046 1.434 . S
C1046 C1037 1.429 . S
C1046 N1043 1.350 . S
C1046 C1045 1.434 . S
C1047 C1048 1.369 . S
C1047 C1049 1.419 . S
C1047 H1051 0.930 . S
C1048 C1047 1.369 . S
C1048 C1057 1.429 . S
C1049 C1047 1.419 . S
C1049 C1050 1.363 . S
C1049 H1052 0.929 . S
C1050 C1049 1.363 . S
C1050 C1056 1.428 . S
H1051 C1047 0.930 . S
H1052 C1049 0.929 . S
S1053 N1054 1.613 . S
S1053 N1055 1.610 . S
N1054 S1053 1.613 . S
N1054 C1057 1.350 . S
N1055 S1053 1.610 . S
N1055 C1056 1.351 . S
C1056 C1050 1.428 . S
C1056 N1055 1.351 . S
C1056 C1057 1.434 . S
C1057 C1048 1.429 . S
C1057 N1054 1.350 . S
C1057 C1056 1.434 . S
C1058 C1059 1.369 . S
C1058 C1060 1.419 . S
C1058 H1062 0.930 . S
C1059 C1058 1.369 . S
C1059 C1068 1.429 . S
C1060 C1058 1.419 . S
C1060 C1061 1.363 . S
C1060 H1063 0.929 . S
C1061 C1060 1.363 . S
C1061 C1067 1.428 . S
H1062 C1058 0.930 . S
H1063 C1060 0.929 . S
S1064 N1065 1.613 . S
S1064 N1066 1.610 . S
N1065 S1064 1.613 . S
N1065 C1068 1.350 . S
N1066 S1064 1.610 . S
N1066 C1067 1.351 . S
C1067 C1061 1.428 . S
C1067 N1066 1.351 . S
C1067 C1068 1.434 . S
C1068 C1059 1.429 . S
C1068 N1065 1.350 . S
C1068 C1067 1.434 . S
C1069 C1070 1.369 . S
C1069 C1071 1.419 . S
C1069 H1073 0.930 . S
C1070 C1069 1.369 . S
C1070 C1079 1.429 . S
C1071 C1069 1.419 . S
C1071 C1072 1.363 . S
C1071 H1074 0.929 . S
C1072 C1071 1.363 . S
C1072 C1078 1.428 . S
H1073 C1069 0.930 . S
H1074 C1071 0.929 . S
S1075 N1076 1.613 . S
S1075 N1077 1.610 . S
N1076 S1075 1.613 . S
N1076 C1079 1.350 . S
N1077 S1075 1.610 . S
N1077 C1078 1.351 . S
C1078 C1072 1.428 . S
C1078 N1077 1.351 . S
C1078 C1079 1.434 . S
C1079 C1070 1.429 . S
C1079 N1076 1.350 . S
C1079 C1078 1.434 . S
C1080 C1081 1.369 1_455 S
C1080 C1082 1.419 1_556 S
C1080 H1084 0.930 . S
C1081 C1080 1.369 1_655 S
C1081 C1090 1.429 . S
C1082 C1080 1.419 1_554 S
C1082 C1083 1.363 . S
C1082 H1085 0.929 . S
C1083 C1082 1.363 . S
C1083 C1089 1.428 1_455 S
H1084 C1080 0.930 . S
H1085 C1082 0.929 . S
S1086 N1087 1.613 1_554 S
S1086 N1088 1.610 . S
N1087 S1086 1.613 1_556 S
N1087 C1090 1.350 . S
N1088 S1086 1.610 . S
N1088 C1089 1.351 . S
C1089 C1083 1.428 1_655 S
C1089 N1088 1.351 . S
C1089 C1090 1.434 1_554 S
C1090 C1081 1.429 . S
C1090 N1087 1.350 . S
C1090 C1089 1.434 1_556 S
C1091 C1092 1.369 . S
C1091 C1093 1.419 . S
C1091 H1095 0.930 . S
C1092 C1091 1.369 . S
C1092 C1101 1.429 . S
C1093 C1091 1.419 . S
C1093 C1094 1.363 . S
C1093 H1096 0.929 . S
C1094 C1093 1.363 . S
C1094 C1100 1.428 . S
H1095 C1091 0.930 . S
H1096 C1093 0.929 . S
S1097 N1098 1.613 . S
S1097 N1099 1.610 . S
N1098 S1097 1.613 . S
N1098 C1101 1.350 . S
N1099 S1097 1.610 . S
N1099 C1100 1.351 . S
C1100 C1094 1.428 . S
C1100 N1099 1.351 . S
C1100 C1101 1.434 . S
C1101 C1092 1.429 . S
C1101 N1098 1.350 . S
C1101 C1100 1.434 . S
C1102 C1103 1.369 . S
C1102 C1104 1.419 1_456 S
C1102 H1106 0.930 . S
C1103 C1102 1.369 . S
C1103 C1112 1.429 . S
C1104 C1102 1.419 1_654 S
C1104 C1105 1.363 . S
C1104 H1107 0.929 . S
C1105 C1104 1.363 . S
C1105 C1111 1.434 . S
H1106 C1102 0.930 . S
H1107 C1104 0.929 . S
S1108 N1109 1.613 1_554 S
S1108 N1110 1.610 . S
N1109 S1108 1.613 1_556 S
N1109 C1112 1.350 . S
N1110 S1108 1.610 . S
N1110 C1111 1.350 1_455 S
C1111 C1105 1.434 . S
C1111 N1110 1.350 1_655 S
C1111 C1112 1.428 1_654 S
C1112 C1103 1.429 . S
C1112 N1109 1.350 . S
C1112 C1111 1.428 1_456 S
C1113 C1114 1.369 . S
C1113 C1115 1.419 . S
C1113 H1117 0.930 . S
C1114 C1113 1.369 . S
C1114 C1123 1.429 . S
C1115 C1113 1.419 . S
C1115 C1116 1.363 . S
C1115 H1118 0.929 . S
C1116 C1115 1.363 . S
C1116 C1122 1.428 . S
H1117 C1113 0.930 . S
H1118 C1115 0.929 . S
S1119 N1120 1.613 . S
S1119 N1121 1.610 . S
N1120 S1119 1.613 . S
N1120 C1123 1.350 . S
N1121 S1119 1.610 . S
N1121 C1122 1.351 . S
C1122 C1116 1.428 . S
C1122 N1121 1.351 . S
C1122 C1123 1.434 . S
C1123 C1114 1.429 . S
C1123 N1120 1.350 . S
C1123 C1122 1.434 . S
C1124 C1125 1.369 . S
C1124 C1126 1.419 1_655 S
C1124 H1128 0.930 . S
C1125 C1124 1.369 . S
C1125 C1134 1.429 1_565 S
C1126 C1124 1.419 1_455 S
C1126 C1127 1.363 1_565 S
C1126 H1129 0.929 . S
C1127 C1126 1.363 1_545 S
C1127 C1133 1.428 . S
H1128 C1124 0.930 . S
H1129 C1126 0.929 . S
S1130 N1131 1.613 . S
S1130 N1132 1.610 1_655 S
N1131 S1130 1.613 . S
N1131 C1134 1.350 . S
N1132 S1130 1.610 1_455 S
N1132 C1133 1.351 . S
C1133 C1127 1.428 . S
C1133 N1132 1.351 . S
C1133 C1134 1.434 1_455 S
C1134 C1125 1.429 1_545 S
C1134 N1131 1.350 . S
C1134 C1133 1.434 1_655 S
C1135 C1136 1.369 . S
C1135 C1137 1.419 . S
C1135 H1139 0.930 . S
C1136 C1135 1.369 . S
C1136 C1145 1.429 . S
C1137 C1135 1.419 . S
C1137 C1138 1.363 . S
C1137 H1140 0.929 . S
C1138 C1137 1.363 . S
C1138 C1144 1.428 . S
H1139 C1135 0.930 . S
H1140 C1137 0.929 . S
S1141 N1142 1.613 . S
S1141 N1143 1.610 . S
N1142 S1141 1.613 . S
N1142 C1145 1.350 . S
N1143 S1141 1.610 . S
N1143 C1144 1.351 . S
C1144 C1138 1.428 . S
C1144 N1143 1.351 . S
C1144 C1145 1.434 . S
C1145 C1136 1.429 . S
C1145 N1142 1.350 . S
C1145 C1144 1.434 . S
C1146 C1147 1.369 1_545 S
C1146 C1148 1.419 1_455 S
C1146 H1150 0.930 . S
C1147 C1146 1.369 1_565 S
C1147 C1156 1.429 . S
C1148 C1146 1.419 1_655 S
C1148 C1149 1.363 . S
C1148 H1151 0.929 . S
C1149 C1148 1.363 . S
C1149 C1155 1.428 1_545 S
H1150 C1146 0.930 . S
H1151 C1148 0.929 . S
S1152 N1153 1.613 1_655 S
S1152 N1154 1.610 . S
N1153 S1152 1.613 1_455 S
N1153 C1156 1.350 . S
N1154 S1152 1.610 . S
N1154 C1155 1.351 . S
C1155 C1149 1.428 1_565 S
C1155 N1154 1.351 . S
C1155 C1156 1.434 1_655 S
C1156 C1147 1.429 . S
C1156 N1153 1.350 . S
C1156 C1155 1.434 1_455 S
C1157 C1158 1.369 . S
C1157 C1159 1.419 . S
C1157 H1161 0.930 . S
C1158 C1157 1.369 . S
C1158 C1167 1.429 . S
C1159 C1157 1.419 . S
C1159 C1160 1.363 . S
C1159 H1162 0.929 . S
C1160 C1159 1.363 . S
C1160 C1166 1.428 . S
H1161 C1157 0.930 . S
H1162 C1159 0.929 . S
S1163 N1164 1.613 . S
S1163 N1165 1.610 . S
N1164 S1163 1.613 . S
N1164 C1167 1.350 . S
N1165 S1163 1.610 . S
N1165 C1166 1.351 . S
C1166 C1160 1.428 . S
C1166 N1165 1.351 . S
C1166 C1167 1.434 . S
C1167 C1158 1.429 . S
C1167 N1164 1.350 . S
C1167 C1166 1.434 . S
C1168 C1169 1.369 . S
C1168 C1170 1.419 1_545 S
C1168 H1172 0.930 . S
C1169 C1168 1.369 . S
C1169 C1178 1.429 1_554 S
C1170 C1168 1.419 1_565 S
C1170 C1171 1.363 1_554 S
C1170 H1173 0.929 . S
C1171 C1170 1.363 1_556 S
C1171 C1177 1.428 . S
H1172 C1168 0.930 . S
H1173 C1170 0.929 . S
S1174 N1175 1.613 . S
S1174 N1176 1.610 1_545 S
N1175 S1174 1.613 . S
N1175 C1178 1.350 . S
N1176 S1174 1.610 1_565 S
N1176 C1177 1.351 . S
C1177 C1171 1.428 . S
C1177 N1176 1.351 . S
C1177 C1178 1.434 1_565 S
C1178 C1169 1.429 1_556 S
C1178 N1175 1.350 . S
C1178 C1177 1.434 1_545 S
C1179 C1180 1.369 . S
C1179 C1181 1.419 . S
C1179 H1183 0.930 . S
C1180 C1179 1.369 . S
C1180 C1189 1.429 . S
C1181 C1179 1.419 . S
C1181 C1182 1.363 . S
C1181 H1184 0.929 . S
C1182 C1181 1.363 . S
C1182 C1188 1.428 . S
H1183 C1179 0.930 . S
H1184 C1181 0.929 . S
S1185 N1186 1.613 . S
S1185 N1187 1.610 . S
N1186 S1185 1.613 . S
N1186 C1189 1.350 . S
N1187 S1185 1.610 . S
N1187 C1188 1.351 . S
C1188 C1182 1.428 . S
C1188 N1187 1.351 . S
C1188 C1189 1.434 . S
C1189 C1180 1.429 . S
C1189 N1186 1.350 . S
C1189 C1188 1.434 . S
C1190 C1191 1.369 1_554 S
C1190 C1192 1.419 1_545 S
C1190 H1194 0.930 . S
C1191 C1190 1.369 1_556 S
C1191 C1200 1.429 . S
C1192 C1190 1.419 1_565 S
C1192 C1193 1.363 . S
C1192 H1195 0.929 . S
C1193 C1192 1.363 . S
C1193 C1199 1.428 1_554 S
H1194 C1190 0.930 . S
H1195 C1192 0.929 . S
S1196 N1197 1.613 1_565 S
S1196 N1198 1.610 . S
N1197 S1196 1.613 1_545 S
N1197 C1200 1.350 . S
N1198 S1196 1.610 . S
N1198 C1199 1.351 . S
C1199 C1193 1.428 1_556 S
C1199 N1198 1.351 . S
C1199 C1200 1.434 1_565 S
C1200 C1191 1.429 . S
C1200 N1197 1.350 . S
C1200 C1199 1.434 1_545 S
C1201 C1202 1.369 . S
C1201 C1203 1.419 . S
C1201 H1205 0.930 . S
C1202 C1201 1.369 . S
C1202 C1211 1.429 . S
C1203 C1201 1.419 . S
C1203 C1204 1.363 . S
C1203 H1206 0.929 . S
C1204 C1203 1.363 . S
C1204 C1210 1.428 . S
H1205 C1201 0.930 . S
H1206 C1203 0.929 . S
S1207 N1208 1.613 . S
S1207 N1209 1.610 . S
N1208 S1207 1.613 . S
N1208 C1211 1.350 . S
N1209 S1207 1.610 . S
N1209 C1210 1.351 . S
C1210 C1204 1.428 . S
C1210 N1209 1.351 . S
C1210 C1211 1.434 . S
C1211 C1202 1.429 . S
C1211 N1208 1.350 . S
C1211 C1210 1.434 . S
C1212 C1213 1.369 . S
C1212 C1214 1.419 . S
C1212 H1216 0.930 . S
C1213 C1212 1.369 . S
C1213 C1222 1.429 . S
C1214 C1212 1.419 . S
C1214 C1215 1.363 . S
C1214 H1217 0.929 . S
C1215 C1214 1.363 . S
C1215 C1221 1.428 . S
H1216 C1212 0.930 . S
H1217 C1214 0.929 . S
S1218 N1219 1.613 . S
S1218 N1220 1.610 . S
N1219 S1218 1.613 . S
N1219 C1222 1.350 . S
N1220 S1218 1.610 . S
N1220 C1221 1.351 . S
C1221 C1215 1.428 . S
C1221 N1220 1.351 . S
C1221 C1222 1.434 . S
C1222 C1213 1.429 . S
C1222 N1219 1.350 . S
C1222 C1221 1.434 . S
C1223 C1224 1.369 . S
C1223 C1225 1.419 . S
C1223 H1227 0.930 . S
C1224 C1223 1.369 . S
C1224 C1233 1.429 . S
C1225 C1223 1.419 . S
C1225 C1226 1.363 . S
C1225 H1228 0.929 . S
C1226 C1225 1.363 . S
C1226 C1232 1.428 . S
H1227 C1223 0.930 . S
H1228 C1225 0.929 . S
S1229 N1230 1.613 . S
S1229 N1231 1.610 . S
N1230 S1229 1.613 . S
N1230 C1233 1.350 . S
N1231 S1229 1.610 . S
N1231 C1232 1.351 . S
C1232 C1226 1.428 . S
C1232 N1231 1.351 . S
C1232 C1233 1.434 . S
C1233 C1224 1.429 . S
C1233 N1230 1.350 . S
C1233 C1232 1.434 . S
C1234 C1235 1.369 . S
C1234 C1236 1.419 . S
C1234 H1238 0.930 . S
C1235 C1234 1.369 . S
C1235 C1244 1.429 . S
C1236 C1234 1.419 . S
C1236 C1237 1.363 . S
C1236 H1239 0.929 . S
C1237 C1236 1.363 . S
C1237 C1243 1.428 . S
H1238 C1234 0.930 . S
H1239 C1236 0.929 . S
S1240 N1241 1.613 . S
S1240 N1242 1.610 . S
N1241 S1240 1.613 . S
N1241 C1244 1.350 . S
N1242 S1240 1.610 . S
N1242 C1243 1.351 . S
C1243 C1237 1.428 . S
C1243 N1242 1.351 . S
C1243 C1244 1.434 . S
C1244 C1235 1.429 . S
C1244 N1241 1.350 . S
C1244 C1243 1.434 . S
C1245 C1246 1.369 . S
C1245 C1247 1.419 . S
C1245 H1249 0.930 . S
C1246 C1245 1.369 . S
C1246 C1255 1.429 . S
C1247 C1245 1.419 . S
C1247 C1248 1.363 . S
C1247 H1250 0.929 . S
C1248 C1247 1.363 . S
C1248 C1254 1.428 . S
H1249 C1245 0.930 . S
H1250 C1247 0.929 . S
S1251 N1252 1.613 . S
S1251 N1253 1.610 . S
N1252 S1251 1.613 . S
N1252 C1255 1.350 . S
N1253 S1251 1.610 . S
N1253 C1254 1.351 . S
C1254 C1248 1.428 . S
C1254 N1253 1.351 . S
C1254 C1255 1.434 . S
C1255 C1246 1.429 . S
C1255 N1252 1.350 . S
C1255 C1254 1.434 . S
C1256 C1257 1.369 . S
C1256 C1258 1.419 . S
C1256 H1260 0.930 . S
C1257 C1256 1.369 . S
C1257 C1266 1.429 . S
C1258 C1256 1.419 . S
C1258 C1259 1.363 . S
C1258 H1261 0.929 . S
C1259 C1258 1.363 . S
C1259 C1265 1.428 . S
H1260 C1256 0.930 . S
H1261 C1258 0.929 . S
S1262 N1263 1.613 . S
S1262 N1264 1.610 . S
N1263 S1262 1.613 . S
N1263 C1266 1.350 . S
N1264 S1262 1.610 . S
N1264 C1265 1.351 . S
C1265 C1259 1.428 . S
C1265 N1264 1.351 . S
C1265 C1266 1.434 . S
C1266 C1257 1.429 . S
C1266 N1263 1.350 . S
C1266 C1265 1.434 . S
C1267 C1268 1.369 . S
C1267 C1269 1.419 . S
C1267 H1271 0.930 . S
C1268 C1267 1.369 . S
C1268 C1277 1.429 . S
C1269 C1267 1.419 . S
C1269 C1270 1.363 . S
C1269 H1272 0.929 . S
C1270 C1269 1.363 . S
C1270 C1276 1.428 . S
H1271 C1267 0.930 . S
H1272 C1269 0.929 . S
S1273 N1274 1.613 . S
S1273 N1275 1.610 . S
N1274 S1273 1.613 . S
N1274 C1277 1.350 . S
N1275 S1273 1.610 . S
N1275 C1276 1.351 . S
C1276 C1270 1.428 . S
C1276 N1275 1.351 . S
C1276 C1277 1.434 . S
C1277 C1268 1.429 . S
C1277 N1274 1.350 . S
C1277 C1276 1.434 . S
C1278 C1279 1.369 . S
C1278 C1280 1.419 . S
C1278 H1282 0.930 . S
C1279 C1278 1.369 . S
C1279 C1288 1.429 . S
C1280 C1278 1.419 . S
C1280 C1281 1.363 . S
C1280 H1283 0.929 . S
C1281 C1280 1.363 . S
C1281 C1287 1.428 . S
H1282 C1278 0.930 . S
H1283 C1280 0.929 . S
S1284 N1285 1.613 . S
S1284 N1286 1.610 . S
N1285 S1284 1.613 . S
N1285 C1288 1.350 . S
N1286 S1284 1.610 . S
N1286 C1287 1.351 . S
C1287 C1281 1.428 . S
C1287 N1286 1.351 . S
C1287 C1288 1.434 . S
C1288 C1279 1.429 . S
C1288 N1285 1.350 . S
C1288 C1287 1.434 . S
C1289 C1290 1.369 . S
C1289 C1291 1.419 . S
C1289 H1293 0.930 . S
C1290 C1289 1.369 . S
C1290 C1299 1.429 . S
C1291 C1289 1.419 . S
C1291 C1292 1.363 . S
C1291 H1294 0.929 . S
C1292 C1291 1.363 . S
C1292 C1298 1.428 . S
H1293 C1289 0.930 . S
H1294 C1291 0.929 . S
S1295 N1296 1.613 . S
S1295 N1297 1.610 . S
N1296 S1295 1.613 . S
N1296 C1299 1.350 . S
N1297 S1295 1.610 . S
N1297 C1298 1.351 . S
C1298 C1292 1.428 . S
C1298 N1297 1.351 . S
C1298 C1299 1.434 . S
C1299 C1290 1.429 . S
C1299 N1296 1.350 . S
C1299 C1298 1.434 . S
C1300 C1301 1.369 . S
C1300 C1302 1.419 . S
C1300 H1304 0.930 . S
C1301 C1300 1.369 . S
C1301 C1310 1.429 . S
C1302 C1300 1.419 . S
C1302 C1303 1.363 . S
C1302 H1305 0.929 . S
C1303 C1302 1.363 . S
C1303 C1309 1.428 . S
H1304 C1300 0.930 . S
H1305 C1302 0.929 . S
S1306 N1307 1.613 1_565 S
S1306 N1308 1.610 1_565 S
N1307 S1306 1.613 1_545 S
N1307 C1310 1.350 . S
N1308 S1306 1.610 1_545 S
N1308 C1309 1.351 . S
C1309 C1303 1.428 . S
C1309 N1308 1.351 . S
C1309 C1310 1.434 . S
C1310 C1301 1.429 . S
C1310 N1307 1.350 . S
C1310 C1309 1.434 . S
C1311 C1312 1.369 . S
C1311 C1313 1.419 . S
C1311 H1315 0.930 . S
C1312 C1311 1.369 . S
C1312 C1321 1.429 . S
C1313 C1311 1.419 . S
C1313 C1314 1.363 . S
C1313 H1316 0.929 . S
C1314 C1313 1.363 . S
C1314 C1320 1.428 . S
H1315 C1311 0.930 . S
H1316 C1313 0.929 . S
S1317 N1318 1.613 . S
S1317 N1319 1.610 . S
N1318 S1317 1.613 . S
N1318 C1321 1.350 . S
N1319 S1317 1.610 . S
N1319 C1320 1.351 . S
C1320 C1314 1.428 . S
C1320 N1319 1.351 . S
C1320 C1321 1.434 . S
C1321 C1312 1.429 . S
C1321 N1318 1.350 . S
C1321 C1320 1.434 . S
C1322 C1323 1.369 . S
C1322 C1324 1.419 . S
C1322 H1326 0.930 . S
C1323 C1322 1.369 . S
C1323 C1332 1.429 . S
C1324 C1322 1.419 . S
C1324 C1325 1.363 . S
C1324 H1327 0.929 . S
C1325 C1324 1.363 . S
C1325 C1331 1.428 . S
H1326 C1322 0.930 . S
H1327 C1324 0.929 . S
S1328 N1329 1.613 . S
S1328 N1330 1.610 . S
N1329 S1328 1.613 . S
N1329 C1332 1.350 . S
N1330 S1328 1.610 . S
N1330 C1331 1.351 . S
C1331 C1325 1.428 . S
C1331 N1330 1.351 . S
C1331 C1332 1.434 . S
C1332 C1323 1.429 . S
C1332 N1329 1.350 . S
C1332 C1331 1.434 . S
C1333 C1334 1.369 . S
C1333 C1335 1.419 . S
C1333 H1337 0.930 . S
C1334 C1333 1.369 . S
C1334 C1343 1.429 . S
C1335 C1333 1.419 . S
C1335 C1336 1.363 . S
C1335 H1338 0.929 . S
C1336 C1335 1.363 . S
C1336 C1342 1.428 . S
H1337 C1333 0.930 . S
H1338 C1335 0.929 . S
S1339 N1340 1.613 . S
S1339 N1341 1.610 . S
N1340 S1339 1.613 . S
N1340 C1343 1.350 . S
N1341 S1339 1.610 . S
N1341 C1342 1.351 . S
C1342 C1336 1.428 . S
C1342 N1341 1.351 . S
C1342 C1343 1.434 . S
C1343 C1334 1.429 . S
C1343 N1340 1.350 . S
C1343 C1342 1.434 . S
C1344 C1345 1.369 . S
C1344 C1346 1.419 . S
C1344 H1348 0.930 . S
C1345 C1344 1.369 . S
C1345 C1354 1.429 . S
C1346 C1344 1.419 . S
C1346 C1347 1.363 . S
C1346 H1349 0.929 . S
C1347 C1346 1.363 . S
C1347 C1353 1.428 . S
H1348 C1344 0.930 . S
H1349 C1346 0.929 . S
S1350 N1351 1.613 . S
S1350 N1352 1.610 . S
N1351 S1350 1.613 . S
N1351 C1354 1.350 . S
N1352 S1350 1.610 . S
N1352 C1353 1.351 . S
C1353 C1347 1.428 . S
C1353 N1352 1.351 . S
C1353 C1354 1.434 . S
C1354 C1345 1.429 . S
C1354 N1351 1.350 . S
C1354 C1353 1.434 . S
C1355 C1356 1.369 . S
C1355 C1357 1.419 . S
C1355 H1359 0.930 . S
C1356 C1355 1.369 . S
C1356 C1365 1.429 . S
C1357 C1355 1.419 . S
C1357 C1358 1.363 . S
C1357 H1360 0.929 . S
C1358 C1357 1.363 . S
C1358 C1364 1.428 . S
H1359 C1355 0.930 . S
H1360 C1357 0.929 . S
S1361 N1362 1.613 . S
S1361 N1363 1.610 . S
N1362 S1361 1.613 . S
N1362 C1365 1.350 . S
N1363 S1361 1.610 . S
N1363 C1364 1.351 . S
C1364 C1358 1.428 . S
C1364 N1363 1.351 . S
C1364 C1365 1.434 . S
C1365 C1356 1.429 . S
C1365 N1362 1.350 . S
C1365 C1364 1.434 . S
C1366 C1367 1.369 . S
C1366 C1368 1.419 . S
C1366 H1370 0.930 . S
C1367 C1366 1.369 . S
C1367 C1376 1.429 . S
C1368 C1366 1.419 . S
C1368 C1369 1.363 . S
C1368 H1371 0.929 . S
C1369 C1368 1.363 . S
C1369 C1375 1.428 . S
H1370 C1366 0.930 . S
H1371 C1368 0.929 . S
S1372 N1373 1.613 . S
S1372 N1374 1.610 . S
N1373 S1372 1.613 . S
N1373 C1376 1.350 . S
N1374 S1372 1.610 . S
N1374 C1375 1.351 . S
C1375 C1369 1.428 . S
C1375 N1374 1.351 . S
C1375 C1376 1.434 . S
C1376 C1367 1.429 . S
C1376 N1373 1.350 . S
C1376 C1375 1.434 . S
C1377 C1378 1.369 . S
C1377 C1379 1.419 . S
C1377 H1381 0.930 . S
C1378 C1377 1.369 . S
C1378 C1387 1.429 . S
C1379 C1377 1.419 . S
C1379 C1380 1.363 . S
C1379 H1382 0.929 . S
C1380 C1379 1.363 . S
C1380 C1386 1.428 . S
H1381 C1377 0.930 . S
H1382 C1379 0.929 . S
S1383 N1384 1.613 . S
S1383 N1385 1.610 . S
N1384 S1383 1.613 . S
N1384 C1387 1.350 . S
N1385 S1383 1.610 . S
N1385 C1386 1.351 . S
C1386 C1380 1.428 . S
C1386 N1385 1.351 . S
C1386 C1387 1.434 . S
C1387 C1378 1.429 . S
C1387 N1384 1.350 . S
C1387 C1386 1.434 . S
C1388 C1389 1.369 . S
C1388 C1390 1.419 . S
C1388 H1392 0.930 . S
C1389 C1388 1.369 . S
C1389 C1398 1.429 . S
C1390 C1388 1.419 . S
C1390 C1391 1.363 . S
C1390 H1393 0.929 . S
C1391 C1390 1.363 . S
C1391 C1397 1.428 . S
H1392 C1388 0.930 . S
H1393 C1390 0.929 . S
S1394 N1395 1.613 . S
S1394 N1396 1.610 . S
N1395 S1394 1.613 . S
N1395 C1398 1.350 . S
N1396 S1394 1.610 . S
N1396 C1397 1.351 . S
C1397 C1391 1.428 . S
C1397 N1396 1.351 . S
C1397 C1398 1.434 . S
C1398 C1389 1.429 . S
C1398 N1395 1.350 . S
C1398 C1397 1.434 . S
C1399 C1400 1.369 . S
C1399 C1401 1.419 . S
C1399 H1403 0.930 . S
C1400 C1399 1.369 . S
C1400 C1409 1.429 . S
C1401 C1399 1.419 . S
C1401 C1402 1.363 . S
C1401 H1404 0.929 . S
C1402 C1401 1.363 . S
C1402 C1408 1.428 . S
H1403 C1399 0.930 . S
H1404 C1401 0.929 . S
S1405 N1406 1.613 . S
S1405 N1407 1.610 . S
N1406 S1405 1.613 . S
N1406 C1409 1.350 . S
N1407 S1405 1.610 . S
N1407 C1408 1.351 . S
C1408 C1402 1.428 . S
C1408 N1407 1.351 . S
C1408 C1409 1.434 . S
C1409 C1400 1.429 . S
C1409 N1406 1.350 . S
C1409 C1408 1.434 . S
C1410 C1411 1.369 . S
C1410 C1412 1.419 . S
C1410 H1414 0.930 . S
C1411 C1410 1.369 . S
C1411 C1420 1.429 . S
C1412 C1410 1.419 . S
C1412 C1413 1.363 . S
C1412 H1415 0.929 . S
C1413 C1412 1.363 . S
C1413 C1419 1.428 . S
H1414 C1410 0.930 . S
H1415 C1412 0.929 . S
S1416 N1417 1.613 . S
S1416 N1418 1.610 . S
N1417 S1416 1.613 . S
N1417 C1420 1.350 . S
N1418 S1416 1.610 . S
N1418 C1419 1.351 . S
C1419 C1413 1.428 . S
C1419 N1418 1.351 . S
C1419 C1420 1.434 . S
C1420 C1411 1.429 . S
C1420 N1417 1.350 . S
C1420 C1419 1.434 . S
C1421 C1422 1.369 . S
C1421 C1423 1.419 . S
C1421 H1425 0.930 . S
C1422 C1421 1.369 . S
C1422 C1431 1.429 . S
C1423 C1421 1.419 . S
C1423 C1424 1.363 . S
C1423 H1426 0.929 . S
C1424 C1423 1.363 . S
C1424 C1430 1.428 . S
H1425 C1421 0.930 . S
H1426 C1423 0.929 . S
S1427 N1428 1.613 . S
S1427 N1429 1.610 . S
N1428 S1427 1.613 . S
N1428 C1431 1.350 . S
N1429 S1427 1.610 . S
N1429 C1430 1.351 . S
C1430 C1424 1.428 . S
C1430 N1429 1.351 . S
C1430 C1431 1.434 . S
C1431 C1422 1.429 . S
C1431 N1428 1.350 . S
C1431 C1430 1.434 . S
C1432 C1433 1.369 . S
C1432 C1434 1.419 . S
C1432 H1436 0.930 . S
C1433 C1432 1.369 . S
C1433 C1442 1.429 . S
C1434 C1432 1.419 . S
C1434 C1435 1.363 . S
C1434 H1437 0.929 . S
C1435 C1434 1.363 . S
C1435 C1441 1.428 . S
H1436 C1432 0.930 . S
H1437 C1434 0.929 . S
S1438 N1439 1.613 . S
S1438 N1440 1.610 . S
N1439 S1438 1.613 . S
N1439 C1442 1.350 . S
N1440 S1438 1.610 . S
N1440 C1441 1.351 . S
C1441 C1435 1.428 . S
C1441 N1440 1.351 . S
C1441 C1442 1.434 . S
C1442 C1433 1.429 . S
C1442 N1439 1.350 . S
C1442 C1441 1.434 . S
C1443 C1444 1.369 . S
C1443 C1445 1.419 . S
C1443 H1447 0.930 . S
C1444 C1443 1.369 . S
C1444 C1453 1.429 . S
C1445 C1443 1.419 . S
C1445 C1446 1.363 . S
C1445 H1448 0.929 . S
C1446 C1445 1.363 . S
C1446 C1452 1.428 . S
H1447 C1443 0.930 . S
H1448 C1445 0.929 . S
S1449 N1450 1.613 . S
S1449 N1451 1.610 . S
N1450 S1449 1.613 . S
N1450 C1453 1.350 . S
N1451 S1449 1.610 . S
N1451 C1452 1.351 . S
C1452 C1446 1.428 . S
C1452 N1451 1.351 . S
C1452 C1453 1.434 . S
C1453 C1444 1.429 . S
C1453 N1450 1.350 . S
C1453 C1452 1.434 . S
C1454 C1455 1.369 . S
C1454 C1456 1.419 . S
C1454 H1458 0.930 . S
C1455 C1454 1.369 . S
C1455 C1464 1.429 . S
C1456 C1454 1.419 . S
C1456 C1457 1.363 . S
C1456 H1459 0.929 . S
C1457 C1456 1.363 . S
C1457 C1463 1.428 . S
H1458 C1454 0.930 . S
H1459 C1456 0.929 . S
S1460 N1461 1.613 . S
S1460 N1462 1.610 . S
N1461 S1460 1.613 . S
N1461 C1464 1.350 . S
N1462 S1460 1.610 . S
N1462 C1463 1.351 . S
C1463 C1457 1.428 . S
C1463 N1462 1.351 . S
C1463 C1464 1.434 . S
C1464 C1455 1.429 . S
C1464 N1461 1.350 . S
C1464 C1463 1.434 . S
C1465 C1466 1.369 . S
C1465 C1467 1.419 . S
C1465 H1469 0.930 . S
C1466 C1465 1.369 . S
C1466 C1475 1.429 . S
C1467 C1465 1.419 . S
C1467 C1468 1.363 . S
C1467 H1470 0.929 . S
C1468 C1467 1.363 . S
C1468 C1474 1.428 . S
H1469 C1465 0.930 . S
H1470 C1467 0.929 . S
S1471 N1472 1.613 . S
S1471 N1473 1.610 . S
N1472 S1471 1.613 . S
N1472 C1475 1.350 . S
N1473 S1471 1.610 . S
N1473 C1474 1.351 . S
C1474 C1468 1.428 . S
C1474 N1473 1.351 . S
C1474 C1475 1.434 . S
C1475 C1466 1.429 . S
C1475 N1472 1.350 . S
C1475 C1474 1.434 . S
C817 C107 1.380 . S
C819 C33 1.378 . S
C828 C5 1.373 . S
C830 C67 1.382 . S
C839 C39 1.377 . S
C841 C101 1.380 . S
C850 C135 1.376 . S
C852 C73 1.380 . S
C861 C175 1.382 . S
C863 C169 1.376 . S
C872 C209 1.376 . S
C874 C203 1.380 . S
C883 C237 1.375 . S
C885 C243 1.381 . S
C894 C141 1.373 . S
C896 C271 1.382 . S
C905 C305 1.378 . S
C907 C617 1.379 . S
C916 C339 1.383 . S
C918 C651 1.374 . S
C927 C685 1.381 . S
C929 C373 1.376 . S
C938 C583 1.380 . S
C940 C407 1.377 . S
C949 C753 1.380 . S
C951 C441 1.376 . S
C960 C475 1.383 . S
C962 C549 1.374 . S
C971 C509 1.376 . S
C973 C787 1.380 . S
C982 C719 1.377 . S
C984 C543 1.380 . S
C993 C311 1.377 . S
C995 C577 1.380 . S
C1004 C611 1.382 . S
C1006 C515 1.374 . S
C1015 C413 1.380 . S
C1017 C645 1.376 . S
C1026 C447 1.373 . S
C1028 C679 1.382 . S
C1037 C481 1.377 . S
C1039 C713 1.380 . S
C1048 C379 1.377 . S
C1050 C747 1.378 . S
C1059 C277 1.373 . S
C1061 C781 1.382 . S
C1070 C345 1.382 . S
C1072 C815 1.376 . S
C1081 C224 1.926 . S
C1083 C20 1.926 . S
C1092 C54 1.924 . S
C1094 C258 1.925 . S
C1103 C156 1.924 . S
C1105 C88 1.924 . S
C1114 C190 1.925 . S
C1116 C122 1.925 . S
C1125 C360 1.924 . S
C1127 C292 1.925 . S
C1136 C326 1.924 . S
C1138 C394 1.924 . S
C1147 C428 1.926 . S
C1149 C496 1.925 . S
C1158 C530 1.924 . S
C1160 C462 1.925 . S
C1169 C564 1.925 . S
C1171 C598 1.926 . S
C1180 C632 1.924 . S
C1182 C802 1.925 . S
C1191 C666 1.925 . S
C1193 C734 1.924 . S
C1202 C768 1.926 . S
C1204 C700 1.925 . S
C1213 C2 1.368 . S
C1215 C281 1.301 . S
C1224 C36 1.365 . S
C1226 C315 1.304 . S
C1235 C349 1.294 . S
C1237 C70 1.371 . S
C1246 C383 1.305 . S
C1248 C104 1.366 . S
C1257 C138 1.365 . S
C1259 C417 1.305 . S
C1268 C451 1.295 . S
C1270 C172 1.370 . S
C1279 C206 1.367 . S
C1281 C485 1.303 . S
C1290 C519 1.308 . S
C1292 C240 1.366 . S
C1301 C274 1.366 . S
C1303 C553 1.304 . S
C1312 C791 1.295 . S
C1314 C308 1.370 . S
C1323 C342 1.371 . S
C1325 C723 1.296 . S
C1334 C376 1.369 . S
C1336 C757 1.301 . S
C1345 C587 1.297 . S
C1347 C410 1.370 . S
C1356 C444 1.368 . S
C1358 C621 1.300 . S
C1367 C478 1.370 . S
C1369 C655 1.299 . S
C1378 C512 1.371 . S
C1380 C689 1.296 . S
C1389 C546 1.365 . S
C1391 C9 1.306 . S
C1400 C580 1.365 . S
C1402 C145 1.306 . S
C1411 C614 1.371 . S
C1413 C179 1.296 . S
C1422 C213 1.304 . S
C1424 C648 1.367 . S
C1433 C682 1.370 . S
C1435 C247 1.299 . S
C1444 C77 1.295 . S
C1446 C716 1.370 . S
C1455 C111 1.301 . S
C1457 C750 1.369 . S
C1466 C784 1.372 . S
C1468 C43 1.296 . S
