# Generated by pormake.
# Topology wlh, (5)-cn, num edge types: 1
# Building blocks:
#     Node 0, Type 0, BuildingBlock: BEQFEK_clean_sbu_0, # of connection points: 5
#     Node 1, Type 0, BuildingBlock: BEQFEK_clean_sbu_0, # of connection points: 5
#     Node 2, Type 0, BuildingBlock: BEQFEK_clean_sbu_0, # of connection points: 5
#     Node 3, Type 0, BuildingBlock: BEQFEK_clean_sbu_0, # of connection points: 5
#     Node 4, Type 0, BuildingBlock: BEQFEK_clean_sbu_0, # of connection points: 5
#     Node 5, Type 0, BuildingBlock: BEQFEK_clean_sbu_0, # of connection points: 5
#     Node 6, Type 0, BuildingBlock: BEQFEK_clean_sbu_0, # of connection points: 5
#     Node 7, Type 0, BuildingBlock: BEQFEK_clean_sbu_0, # of connection points: 5
#     Node 8, Type 0, BuildingBlock: BEQFEK_clean_sbu_0, # of connection points: 5
#     Node 9, Type 0, BuildingBlock: BEQFEK_clean_sbu_0, # of connection points: 5
#     Node 10, Type 0, BuildingBlock: BEQFEK_clean_sbu_0, # of connection points: 5
#     Node 11, Type 0, BuildingBlock: BEQFEK_clean_sbu_0, # of connection points: 5
#     Node 12, Type 0, BuildingBlock: BEQFEK_clean_sbu_0, # of connection points: 5
#     Node 13, Type 0, BuildingBlock: BEQFEK_clean_sbu_0, # of connection points: 5
#     Node 14, Type 0, BuildingBlock: BEQFEK_clean_sbu_0, # of connection points: 5
#     Node 15, Type 0, BuildingBlock: BEQFEK_clean_sbu_0, # of connection points: 5
#     Node 16, Type 0, BuildingBlock: BEQFEK_clean_sbu_0, # of connection points: 5
#     Node 17, Type 0, BuildingBlock: BEQFEK_clean_sbu_0, # of connection points: 5
#     Node 18, Type 0, BuildingBlock: BEQFEK_clean_sbu_0, # of connection points: 5
#     Node 19, Type 0, BuildingBlock: BEQFEK_clean_sbu_0, # of connection points: 5
#     Node 20, Type 0, BuildingBlock: BEQFEK_clean_sbu_0, # of connection points: 5
#     Node 21, Type 0, BuildingBlock: BEQFEK_clean_sbu_0, # of connection points: 5
#     Node 22, Type 0, BuildingBlock: BEQFEK_clean_sbu_0, # of connection points: 5
#     Node 23, Type 0, BuildingBlock: BEQFEK_clean_sbu_0, # of connection points: 5
#     Node 24, Type 0, BuildingBlock: BEQFEK_clean_sbu_0, # of connection points: 5
#     Node 25, Type 0, BuildingBlock: BEQFEK_clean_sbu_0, # of connection points: 5
#     Node 26, Type 0, BuildingBlock: BEQFEK_clean_sbu_0, # of connection points: 5
#     Node 27, Type 0, BuildingBlock: BEQFEK_clean_sbu_0, # of connection points: 5
#     Node 28, Type 0, BuildingBlock: BEQFEK_clean_sbu_0, # of connection points: 5
#     Node 29, Type 0, BuildingBlock: BEQFEK_clean_sbu_0, # of connection points: 5
#     Node 30, Type 0, BuildingBlock: BEQFEK_clean_sbu_0, # of connection points: 5
#     Node 31, Type 0, BuildingBlock: BEQFEK_clean_sbu_0, # of connection points: 5
#     Node 32, Type 0, BuildingBlock: BEQFEK_clean_sbu_0, # of connection points: 5
#     Node 33, Type 0, BuildingBlock: BEQFEK_clean_sbu_0, # of connection points: 5
#     Node 34, Type 0, BuildingBlock: BEQFEK_clean_sbu_0, # of connection points: 5
#     Node 35, Type 0, BuildingBlock: BEQFEK_clean_sbu_0, # of connection points: 5
#     Edge 36, Type (0, 0), BuildingBlock: AJUNOK_clean_linker_0, # of connection points: 2
#     Edge 37, Type (0, 0), BuildingBlock: AJUNOK_clean_linker_0, # of connection points: 2
#     Edge 38, Type (0, 0), BuildingBlock: AJUNOK_clean_linker_0, # of connection points: 2
#     Edge 39, Type (0, 0), BuildingBlock: AJUNOK_clean_linker_0, # of connection points: 2
#     Edge 40, Type (0, 0), BuildingBlock: AJUNOK_clean_linker_0, # of connection points: 2
#     Edge 41, Type (0, 0), BuildingBlock: AJUNOK_clean_linker_0, # of connection points: 2
#     Edge 42, Type (0, 0), BuildingBlock: AJUNOK_clean_linker_0, # of connection points: 2
#     Edge 43, Type (0, 0), BuildingBlock: AJUNOK_clean_linker_0, # of connection points: 2
#     Edge 44, Type (0, 0), BuildingBlock: AJUNOK_clean_linker_0, # of connection points: 2
#     Edge 45, Type (0, 0), BuildingBlock: AJUNOK_clean_linker_0, # of connection points: 2
#     Edge 46, Type (0, 0), BuildingBlock: AJUNOK_clean_linker_0, # of connection points: 2
#     Edge 47, Type (0, 0), BuildingBlock: AJUNOK_clean_linker_0, # of connection points: 2
#     Edge 48, Type (0, 0), BuildingBlock: AJUNOK_clean_linker_0, # of connection points: 2
#     Edge 49, Type (0, 0), BuildingBlock: AJUNOK_clean_linker_0, # of connection points: 2
#     Edge 50, Type (0, 0), BuildingBlock: AJUNOK_clean_linker_0, # of connection points: 2
#     Edge 51, Type (0, 0), BuildingBlock: AJUNOK_clean_linker_0, # of connection points: 2
#     Edge 52, Type (0, 0), BuildingBlock: AJUNOK_clean_linker_0, # of connection points: 2
#     Edge 53, Type (0, 0), BuildingBlock: AJUNOK_clean_linker_0, # of connection points: 2
#     Edge 54, Type (0, 0), BuildingBlock: AJUNOK_clean_linker_0, # of connection points: 2
#     Edge 55, Type (0, 0), BuildingBlock: AJUNOK_clean_linker_0, # of connection points: 2
#     Edge 56, Type (0, 0), BuildingBlock: AJUNOK_clean_linker_0, # of connection points: 2
#     Edge 57, Type (0, 0), BuildingBlock: AJUNOK_clean_linker_0, # of connection points: 2
#     Edge 58, Type (0, 0), BuildingBlock: AJUNOK_clean_linker_0, # of connection points: 2
#     Edge 59, Type (0, 0), BuildingBlock: AJUNOK_clean_linker_0, # of connection points: 2
#     Edge 60, Type (0, 0), BuildingBlock: AJUNOK_clean_linker_0, # of connection points: 2
#     Edge 61, Type (0, 0), BuildingBlock: AJUNOK_clean_linker_0, # of connection points: 2
#     Edge 62, Type (0, 0), BuildingBlock: AJUNOK_clean_linker_0, # of connection points: 2
#     Edge 63, Type (0, 0), BuildingBlock: AJUNOK_clean_linker_0, # of connection points: 2
#     Edge 64, Type (0, 0), BuildingBlock: AJUNOK_clean_linker_0, # of connection points: 2
#     Edge 65, Type (0, 0), BuildingBlock: AJUNOK_clean_linker_0, # of connection points: 2
#     Edge 66, Type (0, 0), BuildingBlock: AJUNOK_clean_linker_0, # of connection points: 2
#     Edge 67, Type (0, 0), BuildingBlock: AJUNOK_clean_linker_0, # of connection points: 2
#     Edge 68, Type (0, 0), BuildingBlock: AJUNOK_clean_linker_0, # of connection points: 2
#     Edge 69, Type (0, 0), BuildingBlock: AJUNOK_clean_linker_0, # of connection points: 2
#     Edge 70, Type (0, 0), BuildingBlock: AJUNOK_clean_linker_0, # of connection points: 2
#     Edge 71, Type (0, 0), BuildingBlock: AJUNOK_clean_linker_0, # of connection points: 2
#     Edge 72, Type (0, 0), BuildingBlock: AJUNOK_clean_linker_0, # of connection points: 2
#     Edge 73, Type (0, 0), BuildingBlock: AJUNOK_clean_linker_0, # of connection points: 2
#     Edge 74, Type (0, 0), BuildingBlock: AJUNOK_clean_linker_0, # of connection points: 2
#     Edge 75, Type (0, 0), BuildingBlock: AJUNOK_clean_linker_0, # of connection points: 2
#     Edge 76, Type (0, 0), BuildingBlock: AJUNOK_clean_linker_0, # of connection points: 2
#     Edge 77, Type (0, 0), BuildingBlock: AJUNOK_clean_linker_0, # of connection points: 2
#     Edge 78, Type (0, 0), BuildingBlock: AJUNOK_clean_linker_0, # of connection points: 2
#     Edge 79, Type (0, 0), BuildingBlock: AJUNOK_clean_linker_0, # of connection points: 2
#     Edge 80, Type (0, 0), BuildingBlock: AJUNOK_clean_linker_0, # of connection points: 2
#     Edge 81, Type (0, 0), BuildingBlock: AJUNOK_clean_linker_0, # of connection points: 2
#     Edge 82, Type (0, 0), BuildingBlock: AJUNOK_clean_linker_0, # of connection points: 2
#     Edge 83, Type (0, 0), BuildingBlock: AJUNOK_clean_linker_0, # of connection points: 2
#     Edge 84, Type (0, 0), BuildingBlock: AJUNOK_clean_linker_0, # of connection points: 2
#     Edge 85, Type (0, 0), BuildingBlock: AJUNOK_clean_linker_0, # of connection points: 2
#     Edge 86, Type (0, 0), BuildingBlock: AJUNOK_clean_linker_0, # of connection points: 2
#     Edge 87, Type (0, 0), BuildingBlock: AJUNOK_clean_linker_0, # of connection points: 2
#     Edge 88, Type (0, 0), BuildingBlock: AJUNOK_clean_linker_0, # of connection points: 2
#     Edge 89, Type (0, 0), BuildingBlock: AJUNOK_clean_linker_0, # of connection points: 2
#     Edge 90, Type (0, 0), BuildingBlock: AJUNOK_clean_linker_0, # of connection points: 2
#     Edge 91, Type (0, 0), BuildingBlock: AJUNOK_clean_linker_0, # of connection points: 2
#     Edge 92, Type (0, 0), BuildingBlock: AJUNOK_clean_linker_0, # of connection points: 2
#     Edge 93, Type (0, 0), BuildingBlock: AJUNOK_clean_linker_0, # of connection points: 2
#     Edge 94, Type (0, 0), BuildingBlock: AJUNOK_clean_linker_0, # of connection points: 2
#     Edge 95, Type (0, 0), BuildingBlock: AJUNOK_clean_linker_0, # of connection points: 2
#     Edge 96, Type (0, 0), BuildingBlock: AJUNOK_clean_linker_0, # of connection points: 2
#     Edge 97, Type (0, 0), BuildingBlock: AJUNOK_clean_linker_0, # of connection points: 2
#     Edge 98, Type (0, 0), BuildingBlock: AJUNOK_clean_linker_0, # of connection points: 2
#     Edge 99, Type (0, 0), BuildingBlock: AJUNOK_clean_linker_0, # of connection points: 2
#     Edge 100, Type (0, 0), BuildingBlock: AJUNOK_clean_linker_0, # of connection points: 2
#     Edge 101, Type (0, 0), BuildingBlock: AJUNOK_clean_linker_0, # of connection points: 2
#     Edge 102, Type (0, 0), BuildingBlock: AJUNOK_clean_linker_0, # of connection points: 2
#     Edge 103, Type (0, 0), BuildingBlock: AJUNOK_clean_linker_0, # of connection points: 2
#     Edge 104, Type (0, 0), BuildingBlock: AJUNOK_clean_linker_0, # of connection points: 2
#     Edge 105, Type (0, 0), BuildingBlock: AJUNOK_clean_linker_0, # of connection points: 2
#     Edge 106, Type (0, 0), BuildingBlock: AJUNOK_clean_linker_0, # of connection points: 2
#     Edge 107, Type (0, 0), BuildingBlock: AJUNOK_clean_linker_0, # of connection points: 2
#     Edge 108, Type (0, 0), BuildingBlock: AJUNOK_clean_linker_0, # of connection points: 2
#     Edge 109, Type (0, 0), BuildingBlock: AJUNOK_clean_linker_0, # of connection points: 2
#     Edge 110, Type (0, 0), BuildingBlock: AJUNOK_clean_linker_0, # of connection points: 2
#     Edge 111, Type (0, 0), BuildingBlock: AJUNOK_clean_linker_0, # of connection points: 2
#     Edge 112, Type (0, 0), BuildingBlock: AJUNOK_clean_linker_0, # of connection points: 2
#     Edge 113, Type (0, 0), BuildingBlock: AJUNOK_clean_linker_0, # of connection points: 2
#     Edge 114, Type (0, 0), BuildingBlock: AJUNOK_clean_linker_0, # of connection points: 2
#     Edge 115, Type (0, 0), BuildingBlock: AJUNOK_clean_linker_0, # of connection points: 2
#     Edge 116, Type (0, 0), BuildingBlock: AJUNOK_clean_linker_0, # of connection points: 2
#     Edge 117, Type (0, 0), BuildingBlock: AJUNOK_clean_linker_0, # of connection points: 2
#     Edge 118, Type (0, 0), BuildingBlock: AJUNOK_clean_linker_0, # of connection points: 2
#     Edge 119, Type (0, 0), BuildingBlock: AJUNOK_clean_linker_0, # of connection points: 2
#     Edge 120, Type (0, 0), BuildingBlock: AJUNOK_clean_linker_0, # of connection points: 2
#     Edge 121, Type (0, 0), BuildingBlock: AJUNOK_clean_linker_0, # of connection points: 2
#     Edge 122, Type (0, 0), BuildingBlock: AJUNOK_clean_linker_0, # of connection points: 2
#     Edge 123, Type (0, 0), BuildingBlock: AJUNOK_clean_linker_0, # of connection points: 2
#     Edge 124, Type (0, 0), BuildingBlock: AJUNOK_clean_linker_0, # of connection points: 2
#     Edge 125, Type (0, 0), BuildingBlock: AJUNOK_clean_linker_0, # of connection points: 2
# Relax obj value: 0.223
# Max RMSD: 0.172
# Mean RMSD: 0.172
data_MOF--net-wlh--node1-BEQFEK_clean_sbu_0--edge1-AJUNOK_clean_linker_0
_symmetry_space_group_name_H-M    P1
_symmetry_Int_Tables_number       1
_symmetry_cell_setting            triclinic
loop_
_symmetry_equiv_pos_as_xyz
'x, y, z'
_cell_length_a     34.088165
_cell_length_b     34.060749
_cell_length_c     100.66141
_cell_angle_alpha  90.021776
_cell_angle_beta   89.96131
_cell_angle_gamma 119.99847
loop_
_atom_site_label
_atom_site_type_symbol
_atom_site_fract_x
_atom_site_fract_y
_atom_site_fract_z
_atom_type_partial_charge
Co0 Co 0.09722 0.19643 0.20598 0.0
Co1 Co 0.06176 0.26471 0.20014 0.0
C2 C 0.01025 0.17028 0.19105 0.0
O3 O 0.04084 0.16386 0.19594 0.0
O4 O 0.01294 0.20895 0.19147 0.0
C5 C 0.12342 0.14111 0.19305 0.0
O6 O 0.10749 0.15413 0.18315 0.0
C7 C 0.036 0.32499 0.1862 0.0
C8 C 0.06335 0.38388 0.19976 0.0
C9 C 0.04198 0.36826 0.18764 0.0
N10 N 0.05408 0.31599 0.19684 0.0
N11 N 0.07007 0.35123 0.20494 0.0
C12 C 0.0112 0.29147 0.17536 0.0
H13 H 0.985 0.25912 0.17983 0.0
H14 H 0.03511 0.28434 0.16984 0.0
H15 H 0.99446 0.30375 0.16841 0.0
C16 C 0.17964 0.26939 0.19372 0.0
N17 N 0.13719 0.25295 0.19835 0.0
N18 N 0.12155 0.27946 0.19455 0.0
C19 C 0.15327 0.31271 0.18682 0.0
C20 C 0.19106 0.30731 0.18606 0.0
C21 C 0.20758 0.24711 0.19562 0.0
H22 H 0.19834 0.22765 0.20503 0.0
H23 H 0.20196 0.22409 0.18714 0.0
H24 H 0.24417 0.27264 0.1959 0.0
O25 O 0.07537 0.20113 0.22386 0.0
O26 O 0.05028 0.24911 0.21956 0.0
H27 H 0.14117 0.36849 0.18724 0.0
H28 H 0.17707 0.37071 0.17375 0.0
C29 C 0.14697 0.3479 0.17982 0.0
H30 H 0.11675 0.33107 0.17332 0.0
H31 H 0.08632 0.35333 0.21391 0.0
O32 O 0.12356 0.15582 0.20471 0.0
C33 C 0.05513 0.22246 0.22745 0.0
Co34 Co 0.81212 0.90314 0.20559 0.0
Co35 Co 0.74475 0.79925 0.19923 0.0
C36 C 0.83988 0.84352 0.19064 0.0
O37 O 0.84584 0.8803 0.19563 0.0
O38 O 0.80137 0.80739 0.19087 0.0
C39 C 0.86781 0.9867 0.1934 0.0
O40 O 0.85743 0.95896 0.18325 0.0
C41 C 0.68337 0.71152 0.18555 0.0
C42 C 0.62815 0.67947 0.20029 0.0
C43 C 0.64152 0.67299 0.18787 0.0
N44 N 0.69385 0.73961 0.19606 0.0
N45 N 0.66064 0.72002 0.20481 0.0
C46 C 0.71372 0.72045 0.17382 0.0
H47 H 0.74957 0.74305 0.17655 0.0
H48 H 0.70479 0.73725 0.1659 0.0
H49 H 0.70954 0.68824 0.16978 0.0
C50 C 0.73915 0.91211 0.19305 0.0
N51 N 0.75597 0.88632 0.19761 0.0
N52 N 0.72971 0.84413 0.19376 0.0
C53 C 0.69613 0.84229 0.18616 0.0
C54 C 0.70115 0.88537 0.18545 0.0
C55 C 0.76102 0.96229 0.19504 0.0
H56 H 0.77963 0.97228 0.20459 0.0
H57 H 0.78477 0.97995 0.18673 0.0
H58 H 0.73551 0.97336 0.1951 0.0
O59 O 0.80595 0.87616 0.2235 0.0
O60 O 0.75932 0.80339 0.21864 0.0
H61 H 0.63674 0.80717 0.17368 0.0
H62 H 0.67728 0.78773 0.17253 0.0
C63 C 0.66069 0.80049 0.17936 0.0
H64 H 0.64146 0.77388 0.18687 0.0
H65 H 0.66 0.73457 0.21388 0.0
O66 O 0.85192 0.97033 0.20484 0.0
C67 C 0.78441 0.83438 0.22689 0.0
Co68 Co 0.1043 0.91062 0.20661 0.0
Co69 Co 0.20789 0.94823 0.20038 0.0
C70 C 0.16342 0.99797 0.1914 0.0
O71 O 0.12718 0.96712 0.19662 0.0
O72 O 0.19991 0.99629 0.19161 0.0
C73 C 0.02235 0.88264 0.19374 0.0
O74 O 0.05114 0.90004 0.18384 0.0
C75 C 0.2933 0.97428 0.18625 0.0
C76 C 0.32765 0.95142 0.20029 0.0
C77 C 0.33169 0.97036 0.18784 0.0
N78 N 0.26729 0.95744 0.19715 0.0
N79 N 0.2882 0.94416 0.20553 0.0
C80 C 0.28252 0.99612 0.17502 0.0
H81 H 0.27927 0.02479 0.17895 0.0
H82 H 0.24937 0.97153 0.17061 0.0
H83 H 0.3092 0.00921 0.16726 0.0
C84 C 0.09638 0.82868 0.19441 0.0
N85 N 0.12172 0.87155 0.19881 0.0
N86 N 0.16386 0.88794 0.19487 0.0
C87 C 0.16603 0.85617 0.18733 0.0
C88 C 0.12334 0.81762 0.18686 0.0
C89 C 0.04634 0.79983 0.19648 0.0
H90 H 0.03629 0.80845 0.20603 0.0
H91 H 0.02832 0.80544 0.18819 0.0
H92 H 0.03585 0.76333 0.19654 0.0
O93 O 0.13022 0.93116 0.2246 0.0
O94 O 0.20321 0.95863 0.21981 0.0
H95 H 0.23479 0.87097 0.18769 0.0
H96 H 0.201 0.83201 0.17474 0.0
C97 C 0.20761 0.86282 0.18033 0.0
H98 H 0.21954 0.8917 0.17335 0.0
H99 H 0.27511 0.92935 0.21475 0.0
O100 O 0.03733 0.8829 0.20537 0.0
C101 C 0.17191 0.95196 0.22804 0.0
Co102 Co 0.1941 0.09616 0.29842 0.0
Co103 Co 0.26207 0.06124 0.30514 0.0
C104 C 0.16786 0.00873 0.3135 0.0
O105 O 0.16155 0.03875 0.30809 0.0
O106 O 0.20677 0.01206 0.31376 0.0
C107 C 0.13725 0.12042 0.31117 0.0
O108 O 0.14969 0.10385 0.32104 0.0
C109 C 0.32227 0.03396 0.31841 0.0
C110 C 0.38306 0.06712 0.30561 0.0
C111 C 0.36606 0.04139 0.31703 0.0
N112 N 0.31408 0.05492 0.30837 0.0
N113 N 0.3505 0.07445 0.30073 0.0
C114 C 0.28775 0.00556 0.32865 0.0
H115 H 0.27883 0.02722 0.33468 0.0
H116 H 0.29993 0.9878 0.33523 0.0
H117 H 0.25645 0.9799 0.32359 0.0
C118 C 0.26418 0.17765 0.31153 0.0
N119 N 0.2492 0.13579 0.30666 0.0
N120 N 0.27542 0.12033 0.31085 0.0
C121 C 0.30717 0.15158 0.31902 0.0
C122 C 0.30087 0.18894 0.31975 0.0
C123 C 0.24403 0.20676 0.30827 0.0
H124 H 0.22832 0.19827 0.29827 0.0
H125 H 0.21775 0.20112 0.31572 0.0
H126 H 0.27042 0.24318 0.30858 0.0
O127 O 0.20143 0.07714 0.28047 0.0
O128 O 0.24726 0.0504 0.28568 0.0
H129 H 0.36697 0.14653 0.32045 0.0
H130 H 0.35465 0.16842 0.33526 0.0
C131 C 0.33953 0.14366 0.32702 0.0
H132 H 0.32166 0.10894 0.3312 0.0
H133 H 0.35334 0.09339 0.29226 0.0
O134 O 0.15308 0.12189 0.29958 0.0
C135 C 0.22282 0.05662 0.27726 0.0
Co136 Co 0.90453 0.09997 0.29711 0.0
Co137 Co 0.9431 0.20317 0.30407 0.0
C138 C 0.99246 0.15826 0.31242 0.0
O139 O 0.96164 0.12267 0.30688 0.0
O140 O 0.99094 0.19487 0.31272 0.0
C141 C 0.87688 0.01774 0.30965 0.0
O142 O 0.89408 0.0463 0.31961 0.0
C143 C 0.97318 0.29143 0.31746 0.0
C144 C 0.94027 0.32002 0.30497 0.0
C145 C 0.96659 0.3284 0.31623 0.0
N146 N 0.95125 0.26232 0.30746 0.0
N147 N 0.93186 0.2798 0.30002 0.0
C148 C 1.00165 0.28469 0.32751 0.0
H149 H 0.0262 0.27773 0.3223 0.0
H150 H 0.97983 0.25468 0.33373 0.0
H151 H 0.02059 0.31488 0.33394 0.0
C152 C 0.82457 0.09092 0.31051 0.0
N153 N 0.86627 0.11702 0.30544 0.0
N154 N 0.88335 0.15863 0.3099 0.0
C155 C 0.85342 0.15971 0.31853 0.0
C156 C 0.81515 0.11655 0.31925 0.0
C157 C 0.7938 0.04219 0.30693 0.0
H158 H 0.80162 0.03523 0.29679 0.0
H159 H 0.79825 0.02007 0.3141 0.0
H160 H 0.75787 0.03374 0.30737 0.0
O161 O 0.92369 0.12611 0.27921 0.0
O162 O 0.95401 0.19904 0.28446 0.0
H163 H 0.86072 0.22532 0.32087 0.0
H164 H 0.84006 0.19021 0.33556 0.0
C165 C 0.86359 0.1998 0.327 0.0
H166 H 0.89878 0.21551 0.33074 0.0
H167 H 0.91223 0.26388 0.29165 0.0
O168 O 0.87676 0.03298 0.29809 0.0
C169 C 0.94622 0.16793 0.27598 0.0
Co170 Co 0.9047 0.81012 0.29723 0.0
Co171 Co 0.80194 0.7422 0.30374 0.0
C172 C 0.84295 0.83662 0.31192 0.0
O173 O 0.87978 0.84312 0.30679 0.0
O174 O 0.80741 0.79764 0.31201 0.0
C175 C 0.98587 0.86542 0.31017 0.0
O176 O 0.95665 0.85419 0.31995 0.0
C177 C 0.71264 0.68417 0.31616 0.0
C178 C 0.69104 0.61839 0.30634 0.0
C179 C 0.67852 0.63906 0.31596 0.0
N180 N 0.74402 0.68992 0.30708 0.0
N181 N 0.7307 0.65053 0.30118 0.0
C182 C 0.71766 0.72028 0.32563 0.0
H183 H 0.75266 0.73833 0.32963 0.0
H184 H 0.6933 0.70605 0.334 0.0
H185 H 0.71198 0.74535 0.3202 0.0
C186 C 0.91572 0.74009 0.31059 0.0
N187 N 0.88901 0.75496 0.30552 0.0
N188 N 0.84747 0.72946 0.30989 0.0
C189 C 0.84696 0.69868 0.31848 0.0
C190 C 0.89042 0.70453 0.31921 0.0
C191 C 0.96454 0.75891 0.307 0.0
H192 H 0.9713 0.7739 0.2969 0.0
H193 H 0.98628 0.7855 0.31423 0.0
H194 H 0.97365 0.73185 0.30737 0.0
O195 O 0.87897 0.80283 0.27921 0.0
O196 O 0.80633 0.75642 0.2842 0.0
H197 H 0.78397 0.63741 0.32116 0.0
H198 H 0.81771 0.65766 0.33605 0.0
C199 C 0.80708 0.66815 0.32693 0.0
H200 H 0.78829 0.68564 0.32978 0.0
H201 H 0.74939 0.64531 0.29389 0.0
O202 O 0.97142 0.85031 0.29853 0.0
C203 C 0.83722 0.78118 0.27587 0.0
Co204 Co 0.90963 0.80845 0.79756 0.0
Co205 Co 0.94464 0.7408 0.8048 0.0
C206 C 0.99652 0.83524 0.81306 0.0
O207 O 0.96661 0.8412 0.80743 0.0
O208 O 0.99361 0.79649 0.81343 0.0
C209 C 0.88455 0.86496 0.81014 0.0
O210 O 0.9006 0.85226 0.82007 0.0
C211 C 0.97167 0.68013 0.81826 0.0
C212 C 0.93676 0.61871 0.80577 0.0
C213 C 0.96336 0.63591 0.81701 0.0
N214 N 0.9504 0.68836 0.80829 0.0
N215 N 0.92979 0.6515 0.80086 0.0
C216 C 1.00107 0.71485 0.82831 0.0
H217 H 0.02476 0.74688 0.82317 0.0
H218 H 0.97969 0.72206 0.83505 0.0
H219 H 0.02101 0.70349 0.83422 0.0
C220 C 0.82797 0.7389 0.81065 0.0
N221 N 0.86979 0.75344 0.80582 0.0
N222 N 0.88538 0.72777 0.81039 0.0
C223 C 0.85433 0.69704 0.81885 0.0
C224 C 0.81688 0.70329 0.81933 0.0
C225 C 0.79866 0.75834 0.80686 0.0
H226 H 0.80751 0.77328 0.79676 0.0
H227 H 0.80361 0.78514 0.81403 0.0
H228 H 0.76237 0.73166 0.80713 0.0
O229 O 0.92922 0.80084 0.77975 0.0
O230 O 0.95613 0.7553 0.78519 0.0
H231 H 0.85825 0.63686 0.82131 0.0
H232 H 0.83921 0.65323 0.83596 0.0
C233 C 0.86273 0.66603 0.82737 0.0
H234 H 0.89805 0.68421 0.83107 0.0
H235 H 0.9104 0.64854 0.7925 0.0
O236 O 0.88375 0.84944 0.79854 0.0
C237 C 0.94999 0.77959 0.77667 0.0
Co238 Co 0.19042 0.10117 0.79836 0.0
Co239 Co 0.25975 0.20463 0.80424 0.0
C240 C 0.16595 0.16319 0.8135 0.0
O241 O 0.15876 0.12591 0.80853 0.0
O242 O 0.20491 0.19875 0.8131 0.0
C243 C 0.13626 0.01927 0.81134 0.0
O244 O 0.14927 0.04803 0.8213 0.0
C245 C 0.32117 0.2927 0.81717 0.0
C246 C 0.38064 0.3201 0.80384 0.0
C247 C 0.36474 0.32916 0.81543 0.0
N248 N 0.31205 0.26319 0.80715 0.0
N249 N 0.3477 0.27993 0.7992 0.0
C250 C 0.28773 0.28684 0.82774 0.0
H251 H 0.25551 0.27991 0.82301 0.0
H252 H 0.28034 0.25712 0.83399 0.0
H253 H 0.3002 0.31741 0.83408 0.0
C254 C 0.26224 0.09049 0.81043 0.0
N255 N 0.24677 0.11723 0.80579 0.0
N256 N 0.27345 0.15905 0.80981 0.0
C257 C 0.30585 0.15972 0.81773 0.0
C258 C 0.29953 0.11605 0.81842 0.0
C259 C 0.24219 0.04126 0.80711 0.0
H260 H 0.22533 0.03382 0.79728 0.0
H261 H 0.21698 0.02036 0.81477 0.0
H262 H 0.26893 0.03172 0.807 0.0
O263 O 0.19488 0.12714 0.78053 0.0
O264 O 0.24319 0.20008 0.7849 0.0
H265 H 0.36573 0.22467 0.8188 0.0
H266 H 0.35471 0.19079 0.83363 0.0
C267 C 0.33887 0.20021 0.82555 0.0
H268 H 0.32135 0.21712 0.82993 0.0
H269 H 0.34976 0.26359 0.79068 0.0
O270 O 0.15025 0.03428 0.79966 0.0
C271 C 0.21634 0.16873 0.77699 0.0
Co272 Co 0.90237 0.09728 0.79714 0.0
Co273 Co 0.79838 0.05734 0.80341 0.0
C274 C 0.84461 0.00849 0.81176 0.0
O275 O 0.88074 0.04025 0.80677 0.0
O276 O 0.80772 0.00936 0.81159 0.0
C277 C 0.98442 0.12621 0.80993 0.0
O278 O 0.95561 0.10885 0.81984 0.0
C279 C 0.71192 0.03023 0.8177 0.0
C280 C 0.6747 0.04552 0.80252 0.0
C281 C 0.67149 0.02977 0.81538 0.0
N282 N 0.738 0.04599 0.80674 0.0
N283 N 0.71539 0.05497 0.79772 0.0
C284 C 0.72436 0.01379 0.82991 0.0
H285 H 0.75368 0.00903 0.82805 0.0
H286 H 0.73347 0.0389 0.83801 0.0
H287 H 0.69496 0.98144 0.83333 0.0
C288 C 0.90876 0.17776 0.80987 0.0
N289 N 0.88398 0.13505 0.80528 0.0
N290 N 0.84172 0.11781 0.80921 0.0
C291 C 0.83898 0.1489 0.81695 0.0
C292 C 0.88138 0.18784 0.81757 0.0
C293 C 0.95868 0.20752 0.80776 0.0
H294 H 0.97714 0.2024 0.81603 0.0
H295 H 0.96833 0.2438 0.80774 0.0
H296 H 0.96904 0.19939 0.79819 0.0
O297 O 0.87673 0.07785 0.77911 0.0
O298 O 0.80348 0.04806 0.78384 0.0
H299 H 0.8027 0.17238 0.82919 0.0
H300 H 0.7875 0.11384 0.83144 0.0
C301 C 0.79721 0.14121 0.82404 0.0
H302 H 0.76908 0.13037 0.81683 0.0
H303 H 0.72789 0.06784 0.78829 0.0
O304 O 0.96936 0.12576 0.79831 0.0
C305 C 0.83517 0.05598 0.77559 0.0
Co306 Co 0.80994 0.90822 0.70539 0.0
Co307 Co 0.74033 0.94172 0.69944 0.0
C308 C 0.83431 0.99537 0.69056 0.0
O309 O 0.84152 0.96529 0.69551 0.0
O310 O 0.79524 0.99171 0.69087 0.0
C311 C 0.86651 0.88373 0.69249 0.0
O312 O 0.854 0.90026 0.68263 0.0
C313 C 0.68149 0.9731 0.68754 0.0
C314 C 0.61569 0.92707 0.69706 0.0
C315 C 0.63624 0.96154 0.68782 0.0
N316 N 0.6875 0.9467 0.69627 0.0
N317 N 0.64808 0.91952 0.70199 0.0
C318 C 0.71755 0.00563 0.67831 0.0
H319 H 0.73451 0.98872 0.67352 0.0
H320 H 0.70352 0.0182 0.67053 0.0
H321 H 0.74347 0.03477 0.68412 0.0
C322 C 0.73973 0.8263 0.6925 0.0
N323 N 0.75437 0.86794 0.69752 0.0
N324 N 0.72785 0.88318 0.69347 0.0
C325 C 0.69646 0.85222 0.68515 0.0
C326 C 0.70305 0.81507 0.68428 0.0
C327 C 0.76014 0.79735 0.69564 0.0
H328 H 0.77611 0.80585 0.70561 0.0
H329 H 0.78625 0.80309 0.68813 0.0
H330 H 0.73385 0.7609 0.69535 0.0
O331 O 0.80427 0.92867 0.72329 0.0
O332 O 0.75584 0.95306 0.71889 0.0
H333 H 0.6341 0.85207 0.68302 0.0
H334 H 0.6538 0.83915 0.66792 0.0
C335 C 0.66458 0.86047 0.67701 0.0
H336 H 0.68099 0.89669 0.67413 0.0
H337 H 0.64301 0.89483 0.709 0.0
O338 O 0.85104 0.88262 0.7041 0.0
C339 C 0.78253 0.94849 0.72684 0.0
Co340 Co 0.09687 0.90203 0.70666 0.0
Co341 Co 0.05954 0.799 0.69937 0.0
C342 C 0.00959 0.84378 0.69117 0.0
O343 O 0.04018 0.87942 0.69674 0.0
O344 O 0.01133 0.80727 0.69089 0.0
C345 C 0.124 0.98491 0.69446 0.0
O346 O 0.10695 0.95677 0.6844 0.0
C347 C 0.03173 0.71247 0.68528 0.0
C348 C 0.06342 0.68278 0.69786 0.0
C349 C 0.0389 0.6758 0.68628 0.0
N350 N 0.05205 0.74034 0.69564 0.0
N351 N 0.07065 0.72218 0.70315 0.0
C352 C 0.00386 0.71977 0.67515 0.0
H353 H 0.9787 0.726 0.68029 0.0
H354 H 0.02598 0.75037 0.66918 0.0
H355 H 0.98568 0.69007 0.66849 0.0
C356 C 0.17715 0.91241 0.69307 0.0
N357 N 0.1356 0.88577 0.69818 0.0
N358 N 0.11907 0.84425 0.69367 0.0
C359 C 0.14933 0.84372 0.68506 0.0
C360 C 0.1869 0.88716 0.68429 0.0
C361 C 0.20766 0.96113 0.69672 0.0
H362 H 0.20034 0.96756 0.70697 0.0
H363 H 0.20239 0.98332 0.68979 0.0
H364 H 0.24371 0.97011 0.69597 0.0
O365 O 0.07681 0.87443 0.72445 0.0
O366 O 0.04882 0.80182 0.71899 0.0
H367 H 0.13913 0.77676 0.68337 0.0
H368 H 0.16727 0.81248 0.66921 0.0
C369 C 0.14055 0.8036 0.67682 0.0
H370 H 0.10729 0.78985 0.67183 0.0
H371 H 0.08898 0.73713 0.71179 0.0
O372 O 0.12424 0.96919 0.70594 0.0
C373 C 0.05564 0.83239 0.72753 0.0
Co374 Co 0.09831 0.19523 0.70619 0.0
Co375 Co 0.2021 0.26194 0.70059 0.0
C376 C 0.15963 0.16705 0.69223 0.0
O377 O 0.12244 0.16116 0.69688 0.0
O378 O 0.19564 0.20568 0.69249 0.0
C379 C 0.01617 0.13984 0.69346 0.0
O380 O 0.04478 0.15037 0.68354 0.0
C381 C 0.29072 0.31911 0.68772 0.0
C382 C 0.31719 0.38296 0.69907 0.0
C383 C 0.32663 0.36327 0.68843 0.0
N384 N 0.26116 0.31296 0.69746 0.0
N385 N 0.27745 0.35114 0.70428 0.0
C386 C 0.28265 0.28448 0.67732 0.0
H387 H 0.2466 0.26695 0.67421 0.0
H388 H 0.30469 0.30011 0.66852 0.0
H389 H 0.28982 0.25871 0.6816 0.0
C390 C 0.09038 0.26771 0.69289 0.0
N391 N 0.11559 0.25092 0.69792 0.0
N392 N 0.15795 0.27657 0.69419 0.0
C393 C 0.16048 0.30941 0.68608 0.0
C394 C 0.11773 0.30489 0.68507 0.0
C395 C 0.04025 0.24667 0.69469 0.0
H396 H 0.02957 0.22829 0.70428 0.0
H397 H 0.02263 0.22282 0.6864 0.0
H398 H 0.02995 0.2728 0.69452 0.0
O399 O 0.12294 0.20233 0.72438 0.0
O400 O 0.19621 0.24779 0.72011 0.0
H401 H 0.22675 0.36758 0.68638 0.0
H402 H 0.19519 0.36279 0.67156 0.0
C403 C 0.20252 0.34339 0.67903 0.0
H404 H 0.21865 0.32591 0.67411 0.0
H405 H 0.26069 0.35592 0.71225 0.0
O406 O 0.03149 0.15555 0.70498 0.0
C407 C 0.16421 0.22316 0.72817 0.0
Co408 Co 0.76242 0.52899 0.53954 0.0
Co409 Co 0.72493 0.5949 0.53281 0.0
C410 C 0.67575 0.5006 0.52392 0.0
O411 O 0.70637 0.49545 0.52939 0.0
O412 O 0.67728 0.53876 0.52393 0.0
C413 C 0.7903 0.47435 0.52698 0.0
O414 O 0.77349 0.48591 0.51697 0.0
C415 C 0.6986 0.65491 0.51891 0.0
C416 C 0.72585 0.7136 0.53254 0.0
C417 C 0.70454 0.69815 0.52041 0.0
N418 N 0.71671 0.64581 0.52952 0.0
N419 N 0.7326 0.68093 0.53767 0.0
C420 C 0.67383 0.62153 0.50804 0.0
H421 H 0.64885 0.58855 0.51246 0.0
H422 H 0.69812 0.61594 0.50215 0.0
H423 H 0.65571 0.63319 0.50141 0.0
C424 C 0.8446 0.60265 0.52731 0.0
N425 N 0.80173 0.58531 0.53168 0.0
N426 N 0.78532 0.61082 0.52755 0.0
C427 C 0.81702 0.64439 0.51991 0.0
C428 C 0.85564 0.64035 0.51958 0.0
C429 C 0.87319 0.58121 0.52948 0.0
H430 H 0.8644 0.56268 0.53905 0.0
H431 H 0.86748 0.55735 0.52123 0.0
H432 H 0.90971 0.60695 0.52954 0.0
O433 O 0.74095 0.53453 0.5574 0.0
O434 O 0.71337 0.57969 0.55221 0.0
H435 H 0.80429 0.69974 0.5199 0.0
H436 H 0.83977 0.70116 0.5064 0.0
C437 C 0.81003 0.67868 0.51263 0.0
H438 H 0.77954 0.66106 0.50627 0.0
H439 H 0.74884 0.68292 0.54663 0.0
O440 O 0.78985 0.48935 0.53856 0.0
C441 C 0.71968 0.55522 0.56059 0.0
Co442 Co 0.47808 0.23624 0.53919 0.0
Co443 Co 0.40909 0.13326 0.53266 0.0
C444 C 0.50328 0.17401 0.52424 0.0
O445 O 0.51001 0.21087 0.52941 0.0
O446 O 0.46429 0.13845 0.52423 0.0
C447 C 0.53416 0.31708 0.52616 0.0
O448 O 0.52136 0.28764 0.51639 0.0
C449 C 0.34974 0.04406 0.52014 0.0
C450 C 0.28416 0.02396 0.52984 0.0
C451 C 0.30432 0.0107 0.52027 0.0
N452 N 0.35612 0.07574 0.52921 0.0
N453 N 0.31682 0.06328 0.53503 0.0
C454 C 0.38567 0.04808 0.51077 0.0
H455 H 0.40418 0.08292 0.50664 0.0
H456 H 0.37123 0.02334 0.5025 0.0
H457 H 0.41039 0.04221 0.51633 0.0
C458 C 0.40911 0.24845 0.52594 0.0
N459 N 0.42296 0.22105 0.53112 0.0
N460 N 0.39717 0.17963 0.52667 0.0
C461 C 0.36719 0.17993 0.51793 0.0
C462 C 0.37417 0.22377 0.51711 0.0
C463 C 0.42797 0.29718 0.52972 0.0
H464 H 0.44161 0.3031 0.53999 0.0
H465 H 0.45569 0.31933 0.52287 0.0
H466 H 0.40132 0.30676 0.52902 0.0
O467 O 0.47152 0.20957 0.55704 0.0
O468 O 0.42391 0.13684 0.55219 0.0
H469 H 0.30549 0.11728 0.51548 0.0
H470 H 0.32474 0.15114 0.5006 0.0
C471 C 0.33584 0.14025 0.50954 0.0
H472 H 0.35282 0.12119 0.50645 0.0
H473 H 0.31203 0.08238 0.54229 0.0
O474 O 0.5191 0.30309 0.53784 0.0
C475 C 0.44988 0.16775 0.56035 0.0
Co476 Co 0.76908 0.24185 0.53877 0.0
Co477 Co 0.8728 0.27893 0.53254 0.0
C478 C 0.8284 0.32984 0.5241 0.0
O479 O 0.79155 0.2987 0.52895 0.0
O480 O 0.86458 0.3276 0.52437 0.0
C481 C 0.68594 0.21356 0.52652 0.0
O482 O 0.71382 0.23086 0.5164 0.0
C483 C 0.95938 0.30433 0.51848 0.0
C484 C 0.99407 0.28543 0.53355 0.0
C485 C 0.99865 0.30251 0.52082 0.0
N486 N 0.93259 0.28848 0.5293 0.0
N487 N 0.95373 0.2774 0.53826 0.0
C488 C 0.94868 0.32286 0.50639 0.0
H489 H 0.9225 0.33205 0.50857 0.0
H490 H 0.93575 0.29692 0.49843 0.0
H491 H 0.97976 0.35303 0.50264 0.0
C492 C 0.76061 0.16018 0.52608 0.0
N493 N 0.78618 0.20277 0.53071 0.0
N494 N 0.8284 0.21892 0.52689 0.0
C495 C 0.83046 0.18731 0.51924 0.0
C496 C 0.78751 0.14918 0.51846 0.0
C497 C 0.71052 0.13152 0.52808 0.0
H498 H 0.70037 0.14002 0.53763 0.0
H499 H 0.6927 0.13734 0.51976 0.0
H500 H 0.69984 0.095 0.52814 0.0
O501 O 0.79549 0.26226 0.55672 0.0
O502 O 0.86837 0.28885 0.552 0.0
H503 H 0.89957 0.20319 0.51987 0.0
H504 H 0.86608 0.16241 0.50724 0.0
C505 C 0.87227 0.19372 0.51245 0.0
H506 H 0.88364 0.22164 0.50515 0.0
H507 H 0.94039 0.26395 0.54758 0.0
O508 O 0.70209 0.21419 0.53799 0.0
C509 C 0.83713 0.28264 0.5602 0.0
Co510 Co 0.86054 0.42887 0.63062 0.0
Co511 Co 0.92664 0.39143 0.63723 0.0
C512 C 0.83167 0.34151 0.64581 0.0
O513 O 0.82642 0.37245 0.64059 0.0
O514 O 0.86984 0.3432 0.64568 0.0
C515 C 0.80537 0.45633 0.64301 0.0
O516 O 0.81651 0.43925 0.65305 0.0
C517 C 0.98791 0.36597 0.65121 0.0
C518 C 0.04238 0.38676 0.6363 0.0
C519 C 0.02948 0.36873 0.64893 0.0
N520 N 0.97711 0.38225 0.64047 0.0
N521 N 0.00984 0.39444 0.6316 0.0
C522 C 0.95817 0.34628 0.66315 0.0
H523 H 0.92234 0.33405 0.66063 0.0
H524 H 0.96858 0.37264 0.67094 0.0
H525 H 0.96149 0.31786 0.66728 0.0
C526 C 0.93389 0.51088 0.64306 0.0
N527 N 0.91661 0.46801 0.63865 0.0
N528 N 0.94249 0.45179 0.64262 0.0
C529 C 0.97637 0.48372 0.65011 0.0
C530 C 0.97199 0.52216 0.6506 0.0
C531 C 0.91222 0.53934 0.64104 0.0
H532 H 0.89407 0.53105 0.63142 0.0
H533 H 0.88798 0.53284 0.64924 0.0
H534 H 0.9377 0.57595 0.64119 0.0
O535 O 0.86676 0.40818 0.61269 0.0
O536 O 0.91234 0.38105 0.61778 0.0
H537 H 0.0301 0.46858 0.64966 0.0
H538 H 0.03606 0.50837 0.66246 0.0
C539 C 0.01153 0.47731 0.65704 0.0
H540 H 0.99473 0.44883 0.66415 0.0
H541 H 0.01017 0.40846 0.62236 0.0
O542 O 0.82096 0.45632 0.63149 0.0
C543 C 0.88795 0.38751 0.60941 0.0
Co544 Co 0.57169 0.43165 0.63017 0.0
Co545 Co 0.60689 0.53425 0.6372 0.0
C546 C 0.65956 0.49232 0.64517 0.0
O547 O 0.62926 0.45589 0.63985 0.0
O548 O 0.65642 0.52805 0.64547 0.0
C549 C 0.54554 0.34936 0.64253 0.0
O550 O 0.56329 0.3778 0.65249 0.0
C551 C 0.63814 0.62356 0.64979 0.0
C552 C 0.59302 0.6445 0.64029 0.0
C553 C 0.62664 0.65735 0.64976 0.0
N554 N 0.61233 0.59204 0.64077 0.0
N555 N 0.58572 0.605 0.63505 0.0
C556 C 0.66995 0.61899 0.65905 0.0
H557 H 0.65337 0.58409 0.66314 0.0
H558 H 0.68063 0.64364 0.66735 0.0
H559 H 0.7003 0.62455 0.65341 0.0
C560 C 0.49067 0.42011 0.64368 0.0
N561 N 0.53223 0.44702 0.63861 0.0
N562 N 0.5484 0.48839 0.64316 0.0
C563 C 0.51827 0.48856 0.65187 0.0
C564 C 0.48057 0.44508 0.65249 0.0
C565 C 0.46065 0.37137 0.63998 0.0
H566 H 0.46873 0.36498 0.62981 0.0
H567 H 0.46565 0.34939 0.64708 0.0
H568 H 0.4245 0.36219 0.64045 0.0
O569 O 0.59085 0.45852 0.6123 0.0
O570 O 0.61746 0.531 0.61765 0.0
H571 H 0.52005 0.5514 0.65505 0.0
H572 H 0.50711 0.51686 0.66976 0.0
C573 C 0.52791 0.52801 0.66058 0.0
H574 H 0.56428 0.54671 0.66331 0.0
H575 H 0.56157 0.58613 0.62784 0.0
O576 O 0.54503 0.36476 0.63102 0.0
C577 C 0.6114 0.5005 0.60917 0.0
Co578 Co 0.56935 0.13996 0.63041 0.0
Co579 Co 0.466 0.07248 0.63666 0.0
C580 C 0.50732 0.16688 0.64479 0.0
O581 O 0.54398 0.17292 0.63967 0.0
O582 O 0.47156 0.12805 0.64494 0.0
C583 C 0.64952 0.1965 0.6436 0.0
O584 O 0.61971 0.18396 0.65326 0.0
C585 C 0.37604 0.01477 0.64896 0.0
C586 C 0.35497 0.94852 0.63953 0.0
C587 C 0.342 0.9696 0.64888 0.0
N588 N 0.40775 0.02021 0.64002 0.0
N589 N 0.39469 0.98051 0.63435 0.0
C590 C 0.38064 0.05125 0.6582 0.0
H591 H 0.41492 0.06827 0.66271 0.0
H592 H 0.35475 0.03758 0.66619 0.0
H593 H 0.37707 0.07708 0.65245 0.0
C594 C 0.57987 0.07088 0.64433 0.0
N595 N 0.55323 0.08523 0.6389 0.0
N596 N 0.51141 0.05964 0.64307 0.0
C597 C 0.51065 0.02917 0.65184 0.0
C598 C 0.5542 0.03567 0.65299 0.0
C599 C 0.62893 0.08973 0.64103 0.0
H600 H 0.63601 0.10359 0.63078 0.0
H601 H 0.65026 0.1173 0.64804 0.0
H602 H 0.63837 0.06301 0.64194 0.0
O603 O 0.54425 0.13199 0.61232 0.0
O604 O 0.47119 0.08718 0.61704 0.0
H605 H 0.44745 0.96774 0.65376 0.0
H606 H 0.48007 0.98563 0.66887 0.0
C607 C 0.47016 0.99759 0.65991 0.0
H608 H 0.45124 0.01477 0.66295 0.0
H609 H 0.41368 0.97496 0.62724 0.0
O610 O 0.63607 0.18082 0.63194 0.0
C611 C 0.5027 0.11146 0.60879 0.0
Co612 Co 0.56535 0.12932 0.12667 0.0
Co613 Co 0.61004 0.07348 0.13718 0.0
C614 C 0.65675 0.1679 0.14172 0.0
O615 O 0.62503 0.16667 0.13481 0.0
O616 O 0.65522 0.13157 0.14559 0.0
C617 C 0.53957 0.18333 0.13981 0.0
O618 O 0.55548 0.16853 0.14925 0.0
C619 C 0.63975 0.01559 0.15133 0.0
C620 C 0.61364 0.95734 0.13756 0.0
C621 C 0.63559 0.97312 0.14959 0.0
N622 N 0.62056 0.02413 0.14085 0.0
N623 N 0.60525 0.98917 0.13266 0.0
C624 C 0.66316 0.04812 0.16248 0.0
H625 H 0.67748 0.08351 0.15902 0.0
H626 H 0.63844 0.04195 0.1705 0.0
H627 H 0.69069 0.04343 0.16665 0.0
C628 C 0.48694 0.05846 0.14102 0.0
N629 N 0.52956 0.07612 0.13642 0.0
N630 N 0.54903 0.05545 0.14205 0.0
C631 C 0.51962 0.0249 0.15084 0.0
C632 C 0.47927 0.02577 0.15043 0.0
C633 C 0.4558 0.07606 0.13758 0.0
H634 H 0.46498 0.09343 0.12782 0.0
H635 H 0.4581 0.10015 0.14538 0.0
H636 H 0.42016 0.04807 0.13723 0.0
O637 O 0.58238 0.11751 0.10891 0.0
O638 O 0.62216 0.08797 0.11761 0.0
H639 H 0.50209 0.97595 0.1667 0.0
H640 H 0.56105 0.02002 0.16587 0.0
C641 C 0.53072 0.99716 0.15994 0.0
H642 H 0.53881 0.97476 0.15397 0.0
H643 H 0.58838 0.98676 0.12379 0.0
O644 O 0.53834 0.16954 0.12794 0.0
C645 C 0.61072 0.10352 0.1077 0.0
Co646 Co 0.8658 0.43749 0.13245 0.0
Co647 Co 0.93062 0.54088 0.1387 0.0
C648 C 0.83688 0.49378 0.14855 0.0
O649 O 0.83204 0.45762 0.1434 0.0
O650 O 0.87433 0.53105 0.14786 0.0
C651 C 0.81118 0.34972 0.14311 0.0
O652 O 0.82442 0.37219 0.15435 0.0
C653 C 0.99023 0.6274 0.15266 0.0
C654 C 0.04837 0.65942 0.13884 0.0
C655 C 0.03322 0.66499 0.15107 0.0
N656 N 0.98101 0.60033 0.142 0.0
N657 N 0.01579 0.61991 0.13375 0.0
C658 C 0.95725 0.61836 0.16368 0.0
H659 H 0.95272 0.5889 0.1696 0.0
H660 H 0.96866 0.64825 0.17026 0.0
H661 H 0.92383 0.60946 0.15942 0.0
C662 C 0.94071 0.4298 0.14405 0.0
N663 N 0.92266 0.45478 0.13976 0.0
N664 N 0.94797 0.49697 0.14372 0.0
C665 C 0.98206 0.49948 0.15124 0.0
C666 C 0.9786 0.45703 0.15162 0.0
C667 C 0.91984 0.37975 0.14203 0.0
H668 H 0.89962 0.36911 0.13276 0.0
H669 H 0.89781 0.36166 0.15063 0.0
H670 H 0.94626 0.36991 0.14144 0.0
O671 O 0.86922 0.46479 0.11492 0.0
O672 O 0.91431 0.53798 0.11935 0.0
H673 H 0.03889 0.53417 0.16467 0.0
H674 H 0.99797 0.55325 0.16498 0.0
C675 C 0.01592 0.54097 0.15852 0.0
H676 H 0.03647 0.56802 0.15126 0.0
H677 H 0.01765 0.60579 0.12473 0.0
O678 O 0.82627 0.37097 0.13219 0.0
C679 C 0.88845 0.50627 0.11139 0.0
Co680 Co 0.572 0.42364 0.13257 0.0
Co681 Co 0.46793 0.38781 0.13817 0.0
C682 C 0.50944 0.33296 0.14555 0.0
O683 O 0.54712 0.3646 0.14131 0.0
O684 O 0.47382 0.33625 0.14535 0.0
C685 C 0.65245 0.44798 0.14591 0.0
O686 O 0.62251 0.42961 0.15549 0.0
C687 C 0.38128 0.36307 0.15207 0.0
C688 C 0.34867 0.38566 0.13736 0.0
C689 C 0.34303 0.36698 0.14991 0.0
N690 N 0.40847 0.37934 0.14134 0.0
N691 N 0.38854 0.39257 0.13259 0.0
C692 C 0.39077 0.34241 0.16388 0.0
H693 H 0.415 0.33095 0.16133 0.0
H694 H 0.40578 0.36791 0.17193 0.0
H695 H 0.35887 0.31335 0.16769 0.0
C696 C 0.58099 0.50439 0.14598 0.0
N697 N 0.55522 0.46208 0.14119 0.0
N698 N 0.51279 0.44643 0.14471 0.0
C699 C 0.51076 0.4782 0.1523 0.0
C700 C 0.55393 0.51583 0.15334 0.0
C701 C 0.6312 0.53272 0.14414 0.0
H702 H 0.64148 0.52467 0.13454 0.0
H703 H 0.64851 0.52595 0.1524 0.0
H704 H 0.64237 0.56936 0.14432 0.0
O705 O 0.54706 0.40736 0.11424 0.0
O706 O 0.47406 0.38195 0.11857 0.0
H707 H 0.44274 0.46518 0.15071 0.0
H708 H 0.47506 0.50412 0.16385 0.0
C709 C 0.46853 0.4729 0.15851 0.0
H710 H 0.45493 0.44423 0.1656 0.0
H711 H 0.40251 0.40693 0.1234 0.0
O712 O 0.63889 0.45001 0.13425 0.0
C713 C 0.50575 0.38892 0.11046 0.0
Co714 Co 0.48031 0.24653 0.03942 0.0
Co715 Co 0.41264 0.28198 0.03269 0.0
C716 C 0.50654 0.33282 0.02375 0.0
O717 O 0.51264 0.30283 0.02927 0.0
O718 O 0.46798 0.33033 0.02375 0.0
C719 C 0.53599 0.22005 0.02679 0.0
O720 O 0.52494 0.23745 0.01681 0.0
C721 C 0.35216 0.30937 0.01933 0.0
C722 C 0.29253 0.27848 0.03261 0.0
C723 C 0.30885 0.30316 0.02098 0.0
N724 N 0.36068 0.2888 0.02944 0.0
N725 N 0.32489 0.27057 0.03734 0.0
C726 C 0.3861 0.33657 0.00883 0.0
H727 H 0.41856 0.36105 0.01361 0.0
H728 H 0.39259 0.31372 0.00252 0.0
H729 H 0.3746 0.35561 0.00255 0.0
C730 C 0.40969 0.16472 0.02681 0.0
N731 N 0.42469 0.20675 0.03154 0.0
N732 N 0.39863 0.22224 0.02721 0.0
C733 C 0.36697 0.19071 0.01906 0.0
C734 C 0.37346 0.15345 0.01842 0.0
C735 C 0.42887 0.13511 0.03052 0.0
H736 H 0.44343 0.14354 0.04067 0.0
H737 H 0.4559 0.14028 0.02344 0.0
H738 H 0.4022 0.09882 0.0301 0.0
O739 O 0.4743 0.267 0.05725 0.0
O740 O 0.42854 0.29396 0.05218 0.0
H741 H 0.30867 0.19845 0.01804 0.0
H742 H 0.31591 0.17065 0.00372 0.0
C743 C 0.33386 0.19784 0.01119 0.0
H744 H 0.35187 0.23112 0.00611 0.0
H745 H 0.3224 0.2523 0.04593 0.0
O746 O 0.52038 0.21971 0.03833 0.0
C747 C 0.45343 0.28798 0.06051 0.0
Co748 Co 0.76475 0.23426 0.04062 0.0
Co749 Co 0.72761 0.13362 0.03087 0.0
C750 C 0.67796 0.17845 0.02411 0.0
O751 O 0.70736 0.21175 0.03084 0.0
O752 O 0.68085 0.14301 0.02217 0.0
C753 C 0.79178 0.31809 0.02924 0.0
O754 O 0.77533 0.29068 0.019 0.0
C755 C 0.70156 0.04742 0.0166 0.0
C756 C 0.73634 0.02024 0.02887 0.0
C757 C 0.7106 0.01195 0.0175 0.0
N758 N 0.72192 0.07588 0.02685 0.0
N759 N 0.74241 0.05922 0.03416 0.0
C760 C 0.67227 0.05313 0.00661 0.0
H761 H 0.64836 0.06103 0.01182 0.0
H762 H 0.69366 0.08214 1.00001 0.0
H763 H 0.65276 0.0221 1.00053 0.0
C764 C 0.84637 0.24752 0.02703 0.0
N765 N 0.80414 0.2201 0.03158 0.0
N766 N 0.78767 0.17987 0.02614 0.0
C767 C 0.81853 0.18106 0.01745 0.0
C768 C 0.85685 0.2242 0.0177 0.0
C769 C 0.87648 0.29527 0.03162 0.0
H770 H 0.86741 0.29966 0.04188 0.0
H771 H 0.87259 0.31898 0.02495 0.0
H772 H 0.91252 0.30402 0.03131 0.0
O773 O 0.74561 0.20405 0.05817 0.0
O774 O 0.71308 0.13344 0.0503 0.0
H775 H 0.81288 0.11694 0.01332 0.0
H776 H 0.83256 0.15561 0.99939 0.0
C777 C 0.80912 0.14341 0.00801 0.0
H778 H 0.77383 0.12786 0.00437 0.0
H779 H 0.76121 0.07492 0.04267 0.0
O780 O 0.79144 0.30143 0.04062 0.0
C781 C 0.7211 0.16126 0.05983 0.0
Co782 Co 0.76781 0.52984 0.04031 0.0
Co783 Co 0.87178 0.59629 0.03502 0.0
C784 C 0.82961 0.50127 0.02685 0.0
O785 O 0.79238 0.49569 0.03133 0.0
O786 O 0.86566 0.53985 0.02709 0.0
C787 C 0.68841 0.47569 0.02657 0.0
O788 O 0.71889 0.48854 0.01709 0.0
C789 C 0.9597 0.65383 0.02199 0.0
C790 C 0.98836 0.71592 0.03426 0.0
C791 C 0.99645 0.6974 0.02307 0.0
N792 N 0.93102 0.64692 0.03205 0.0
N793 N 0.94856 0.68403 0.03942 0.0
C794 C 0.94998 0.62072 0.01097 0.0
H795 H 0.91308 0.60134 0.00892 0.0
H796 H 0.9685 0.63818 1.00178 0.0
H797 H 0.96087 0.59637 0.01406 0.0
C798 C 0.76059 0.60263 0.02699 0.0
N799 N 0.78559 0.58567 0.03206 0.0
N800 N 0.82806 0.61127 0.02843 0.0
C801 C 0.83087 0.64434 0.02035 0.0
C802 C 0.78815 0.63991 0.01923 0.0
C803 C 0.71042 0.58166 0.0287 0.0
H804 H 0.69934 0.56255 0.03816 0.0
H805 H 0.69295 0.55853 0.02025 0.0
H806 H 0.70032 0.60795 0.02874 0.0
O807 O 0.79169 0.53648 0.0586 0.0
O808 O 0.86521 0.58219 0.05452 0.0
H809 H 0.89818 0.70086 0.02096 0.0
H810 H 0.86646 0.69985 0.00653 0.0
C811 C 0.87315 0.67855 0.01346 0.0
H812 H 0.88798 0.66096 0.00791 0.0
H813 H 0.93268 0.68807 0.04775 0.0
O814 O 0.70119 0.48999 0.03837 0.0
C815 C 0.83295 0.55726 0.06245 0.0
Co816 Co 0.42841 0.86375 0.87428 0.0
Co817 Co 0.39131 0.92812 0.86542 0.0
C818 C 0.34139 0.83429 0.85796 0.0
O819 O 0.37087 0.82981 0.86445 0.0
O820 O 0.34414 0.87272 0.85648 0.0
C821 C 0.45493 0.80818 0.86184 0.0
O822 O 0.43996 0.82201 0.8519 0.0
C823 C 0.36191 0.98712 0.85248 0.0
C824 C 0.40469 0.05203 0.8629 0.0
C825 C 0.37315 0.03229 0.85284 0.0
N826 N 0.386 0.98046 0.86186 0.0
N827 N 0.41117 0.01932 0.86813 0.0
C828 C 0.33154 0.95167 0.84275 0.0
H829 H 0.34889 0.93402 0.83872 0.0
H830 H 0.32178 0.96649 0.83446 0.0
H831 H 0.30057 0.9261 0.84799 0.0
C832 C 0.51027 0.93409 0.86082 0.0
N833 N 0.46794 0.91823 0.86551 0.0
N834 N 0.451 0.94213 0.86044 0.0
C835 C 0.48141 0.97264 0.85185 0.0
C836 C 0.52001 0.96859 0.85186 0.0
C837 C 0.53955 0.91403 0.86388 0.0
H838 H 0.52986 0.89594 0.87353 0.0
H839 H 0.53599 0.89016 0.85584 0.0
H840 H 0.57569 0.94093 0.86428 0.0
O841 O 0.40924 0.87356 0.89211 0.0
O842 O 0.37742 0.91287 0.88471 0.0
H843 H 0.47484 0.0313 0.8494 0.0
H844 H 0.49795 0.01834 0.83513 0.0
C845 C 0.4727 0.0033 0.84325 0.0
H846 H 0.4381 0.98424 0.83901 0.0
H847 H 0.43384 0.0238 0.87573 0.0
O848 O 0.45442 0.82258 0.87352 0.0
C849 C 0.38527 0.89233 0.89403 0.0
Co850 Co 0.14481 0.56705 0.8709 0.0
Co851 Co 0.07637 0.46291 0.86582 0.0
C852 C 0.16969 0.50609 0.85557 0.0
O853 O 0.17643 0.54338 0.86036 0.0
O854 O 0.13144 0.46987 0.85659 0.0
C855 C 0.20045 0.64982 0.85826 0.0
O856 O 0.18848 0.62191 0.84812 0.0
C857 C 0.01497 0.37673 0.85206 0.0
C858 C 0.95798 0.3444 0.86625 0.0
C859 C 0.97207 0.33912 0.85381 0.0
N860 N 0.02514 0.40352 0.86283 0.0
N861 N 0.99104 0.38376 0.87131 0.0
C862 C 0.0471 0.38602 0.84077 0.0
H863 H 0.08019 0.39271 0.84475 0.0
H864 H 0.05293 0.41693 0.83541 0.0
H865 H 0.03433 0.35706 0.83377 0.0
C866 C 0.07072 0.57583 0.85922 0.0
N867 N 0.08767 0.55012 0.86374 0.0
N868 N 0.06054 0.50757 0.86039 0.0
C869 C 0.02607 0.50538 0.85312 0.0
C870 C 0.03153 0.54862 0.85214 0.0
C871 C 0.09373 0.62631 0.86064 0.0
H872 H 0.11359 0.63727 0.86997 0.0
H873 H 0.11654 0.64244 0.85203 0.0
H874 H 0.06886 0.63821 0.86079 0.0
O875 O 0.14178 0.54149 0.88879 0.0
O876 O 0.09395 0.46805 0.88514 0.0
H877 H 0.97099 0.43737 0.85468 0.0
H878 H 0.96469 0.46958 0.84148 0.0
C879 C 0.98927 0.4631 0.84687 0.0
H880 H 0.0044 0.44928 0.83986 0.0
H881 H 0.98995 0.39762 0.88045 0.0
O882 O 0.18501 0.63395 0.86977 0.0
C883 C 0.12132 0.50031 0.89273 0.0
Co884 Co 0.43244 0.57327 0.872 0.0
Co885 Co 0.53659 0.61108 0.86651 0.0
C886 C 0.49431 0.66413 0.85868 0.0
O887 O 0.45724 0.63228 0.8632 0.0
O888 O 0.53053 0.66187 0.85879 0.0
C889 C 0.35234 0.54751 0.85839 0.0
O890 O 0.3825 0.56524 0.84883 0.0
C891 C 0.62565 0.64201 0.85378 0.0
C892 C 0.65104 0.60397 0.86525 0.0
C893 C 0.66111 0.63308 0.85459 0.0
N894 N 0.59572 0.61893 0.86348 0.0
N895 N 0.6114 0.59665 0.87038 0.0
C896 C 0.61839 0.66895 0.84333 0.0
H897 H 0.58217 0.65149 0.84039 0.0
H898 H 0.63981 0.67408 0.83447 0.0
H899 H 0.62715 0.70252 0.8475 0.0
C900 C 0.42505 0.49356 0.85848 0.0
N901 N 0.45012 0.5356 0.8635 0.0
N902 N 0.49251 0.55258 0.85977 0.0
C903 C 0.49519 0.52229 0.85166 0.0
C904 C 0.45248 0.48388 0.85064 0.0
C905 C 0.37499 0.46416 0.86042 0.0
H906 H 0.36432 0.47244 0.86991 0.0
H907 H 0.35701 0.46936 0.85203 0.0
H908 H 0.36499 0.42781 0.86055 0.0
O909 O 0.45635 0.58926 0.89033 0.0
O910 O 0.52979 0.6176 0.88611 0.0
H911 H 0.56131 0.53017 0.85231 0.0
H912 H 0.53044 0.50339 0.83739 0.0
C913 C 0.5375 0.53019 0.84482 0.0
H914 H 0.55396 0.56379 0.83989 0.0
H915 H 0.59425 0.57521 0.87833 0.0
O916 O 0.36567 0.54641 0.87015 0.0
C917 C 0.49761 0.60953 0.89417 0.0
Co918 Co 0.53063 0.76165 0.96441 0.0
Co919 Co 0.59652 0.72413 0.97061 0.0
C920 C 0.50303 0.67839 0.98107 0.0
O921 O 0.49779 0.70945 0.97595 0.0
O922 O 0.54026 0.67834 0.97999 0.0
C923 C 0.47717 0.79531 0.9753 0.0
O924 O 0.4913 0.78618 0.98638 0.0
C925 C 0.6575 0.69862 0.98477 0.0
C926 C 0.71236 0.7196 0.96999 0.0
C927 C 0.69928 0.70167 0.98263 0.0
N928 N 0.64681 0.71471 0.97396 0.0
N929 N 0.67975 0.72695 0.96517 0.0
C930 C 0.6274 0.67896 0.99665 0.0
H931 H 0.59138 0.6623 0.99368 0.0
H932 H 0.63403 0.70647 0.00376 0.0
H933 H 0.63383 0.65381 1.00173 0.0
C934 C 0.60648 0.84562 0.97504 0.0
N935 N 0.58822 0.80211 0.97117 0.0
N936 N 0.61419 0.78595 0.97508 0.0
C937 C 0.6491 0.81862 0.98211 0.0
C938 C 0.64536 0.85749 0.98227 0.0
C939 C 0.58478 0.87406 0.97304 0.0
H940 H 0.56382 0.86354 0.96392 0.0
H941 H 0.56335 0.87037 0.98178 0.0
H942 H 0.61057 0.91043 0.97217 0.0
O943 O 0.53229 0.7352 0.9471 0.0
O944 O 0.57954 0.70943 0.95134 0.0
H945 H 0.70891 0.84349 0.99442 0.0
H946 H 0.6674 0.78401 0.9963 0.0
C947 C 0.6842 0.81226 0.9891 0.0
H948 H 0.7026 0.80318 0.98177 0.0
H949 H 0.68024 0.74095 0.95591 0.0
O950 O 0.49117 0.78873 0.96423 0.0
C951 C 0.55228 0.71367 0.94356 0.0
Co952 Co 0.23171 0.76962 0.96062 0.0
Co953 Co 0.27483 0.86935 0.97166 0.0
C954 C 0.32381 0.82401 0.97545 0.0
O955 O 0.29203 0.79329 0.96858 0.0
O956 O 0.32179 0.85832 0.97961 0.0
C957 C 0.20673 0.68889 0.97316 0.0
O958 O 0.223 0.71895 0.98278 0.0
C959 C 0.30925 0.95958 0.98452 0.0
C960 C 0.26098 0.97895 0.97643 0.0
C961 C 0.29713 0.99297 0.98504 0.0
N962 N 0.28148 0.92734 0.97592 0.0
N963 N 0.25296 0.93938 0.97109 0.0
C964 C 0.34374 0.95615 0.99285 0.0
H965 H 0.32863 0.92161 0.99715 0.0
H966 H 0.3565 0.9816 1.00096 0.0
H967 H 0.37248 0.96142 0.98644 0.0
C968 C 0.15418 0.75876 0.9759 0.0
N969 N 0.19585 0.78519 0.97086 0.0
N970 N 0.21529 0.82455 0.97693 0.0
C971 C 0.18704 0.82381 0.98646 0.0
C972 C 0.14725 0.78188 0.98614 0.0
C973 C 0.12164 0.712 0.97101 0.0
H974 H 0.12926 0.70802 0.96054 0.0
H975 H 0.1245 0.68661 0.97719 0.0
H976 H 0.0863 0.70523 0.97181 0.0
O977 O 0.24728 0.79923 0.94304 0.0
O978 O 0.28673 0.86826 0.95198 0.0
H979 H 0.19244 0.88615 0.99277 0.0
H980 H 0.18134 0.84646 0.00605 0.0
C981 C 0.20025 0.86033 0.99664 0.0
H982 H 0.23717 0.87715 0.9986 0.0
H983 H 0.22707 0.91982 0.96439 0.0
O984 O 0.20526 0.70238 0.96143 0.0
C985 C 0.27544 0.84164 0.94196 0.0
Co986 Co 0.23976 0.48202 0.96503 0.0
Co987 Co 0.13591 0.41292 0.96996 0.0
C988 C 0.17534 0.50839 0.97777 0.0
O989 O 0.21338 0.5151 0.97364 0.0
O990 O 0.14002 0.46924 0.97742 0.0
C991 C 0.31925 0.53907 0.97865 0.0
O992 O 0.28891 0.52766 0.98811 0.0
C993 C 0.04785 0.3544 0.98298 0.0
C994 C 0.02126 0.29121 0.97131 0.0
C995 C 0.01204 0.31018 0.98218 0.0
N996 N 0.0771 0.36126 0.97307 0.0
N997 N 0.06075 0.32343 0.96607 0.0
C998 C 0.05616 0.38839 0.99361 0.0
H999 H 0.09275 0.40765 0.9961 0.0
H1000 H 0.03619 0.37178 0.00268 0.0
H1001 H 0.04618 0.41277 0.98985 0.0
C1002 C 0.24918 0.41096 0.97866 0.0
N1003 N 0.22333 0.42688 0.97354 0.0
N1004 N 0.18083 0.39996 0.97693 0.0
C1005 C 0.17878 0.36691 0.98488 0.0
C1006 C 0.22207 0.37281 0.98617 0.0
C1007 C 0.29953 0.43341 0.97708 0.0
H1008 H 0.3102 0.45175 0.96748 0.0
H1009 H 0.31615 0.4576 0.98537 0.0
H1010 H 0.31114 0.40831 0.97742 0.0
O1011 O 0.21625 0.47384 0.9466 0.0
O1012 O 0.14291 0.42623 0.95034 0.0
H1013 H 0.11336 0.30785 0.98347 0.0
H1014 H 0.14367 0.31028 0.99838 0.0
C1015 C 0.13642 0.33072 0.99126 0.0
H1016 H 0.11902 0.34638 0.99649 0.0
H1017 H 0.07727 0.31919 0.95793 0.0
O1018 O 0.30629 0.52315 0.96699 0.0
C1019 C 0.1753 0.45178 0.94251 0.0
Co1020 Co 0.24197 0.47512 0.46401 0.0
Co1021 Co 0.27966 0.40929 0.47029 0.0
C1022 C 0.3291 0.50295 0.47947 0.0
O1023 O 0.29832 0.50831 0.47417 0.0
O1024 O 0.32766 0.46484 0.47922 0.0
C1025 C 0.21333 0.52841 0.47701 0.0
O1026 O 0.23023 0.51649 0.48691 0.0
C1027 C 0.31169 0.35167 0.48262 0.0
C1028 C 0.27195 0.28747 0.47158 0.0
C1029 C 0.30274 0.30728 0.48182 0.0
N1030 N 0.28716 0.35789 0.47328 0.0
N1031 N 0.26383 0.31949 0.46664 0.0
C1032 C 0.34033 0.38661 0.4927 0.0
H1033 H 0.32125 0.40218 0.49694 0.0
H1034 H 0.35088 0.3718 0.50081 0.0
H1035 H 0.37092 0.41385 0.48773 0.0
C1036 C 0.16045 0.40138 0.4765 0.0
N1037 N 0.20288 0.41858 0.47177 0.0
N1038 N 0.21996 0.39372 0.47594 0.0
C1039 C 0.18947 0.36111 0.48407 0.0
C1040 C 0.1507 0.36486 0.48462 0.0
C1041 C 0.13097 0.42177 0.47426 0.0
H1042 H 0.13992 0.44086 0.46479 0.0
H1043 H 0.13524 0.44476 0.48264 0.0
H1044 H 0.09477 0.39505 0.47393 0.0
O1045 O 0.26304 0.4704 0.44603 0.0
O1046 O 0.29068 0.42509 0.45092 0.0
H1047 H 0.19713 0.30271 0.48477 0.0
H1048 H 0.17221 0.31078 0.49951 0.0
C1049 C 0.19813 0.3285 0.49169 0.0
H1050 H 0.23229 0.34675 0.49625 0.0
H1051 H 0.24129 0.31476 0.45897 0.0
O1052 O 0.21423 0.51435 0.46533 0.0
C1053 C 0.28427 0.44985 0.44267 0.0
Co1054 Co 0.52787 0.76714 0.46527 0.0
Co1055 Co 0.59495 0.87139 0.47085 0.0
C1056 C 0.50099 0.82771 0.48017 0.0
O1057 O 0.49496 0.79088 0.47521 0.0
O1058 O 0.53942 0.8639 0.47977 0.0
C1059 C 0.47291 0.68578 0.47836 0.0
O1060 O 0.48526 0.71491 0.4882 0.0
C1061 C 0.65535 0.95899 0.48424 0.0
C1062 C 0.71293 0.99 0.47022 0.0
C1063 C 0.69807 0.99674 0.48236 0.0
N1064 N 0.64586 0.93097 0.47378 0.0
N1065 N 0.68035 0.94994 0.46542 0.0
C1066 C 0.62295 0.95051 0.49539 0.0
H1067 H 0.58891 0.93985 0.49129 0.0
H1068 H 0.6201 0.92251 0.5017 0.0
H1069 H 0.63378 0.98119 0.50157 0.0
C1070 C 0.602 0.75944 0.47735 0.0
N1071 N 0.58461 0.78473 0.47282 0.0
N1072 N 0.61091 0.82718 0.47641 0.0
C1073 C 0.64509 0.82966 0.48387 0.0
C1074 C 0.64057 0.78683 0.48463 0.0
C1075 C 0.58007 0.70911 0.47573 0.0
H1076 H 0.561 0.69826 0.46627 0.0
H1077 H 0.5566 0.69221 0.48416 0.0
H1078 H 0.60565 0.69809 0.47583 0.0
O1079 O 0.53219 0.79249 0.44726 0.0
O1080 O 0.57808 0.86594 0.4515 0.0
H1081 H 0.70353 0.86493 0.49669 0.0
H1082 H 0.66373 0.88544 0.49705 0.0
C1083 C 0.68039 0.87169 0.49061 0.0
H1084 H 0.70053 0.8976 0.48302 0.0
H1085 H 0.68198 0.93511 0.45652 0.0
O1086 O 0.48803 0.70016 0.46671 0.0
C1087 C 0.5522 0.83398 0.4436 0.0
Co1088 Co 0.23526 0.7592 0.46492 0.0
Co1089 Co 0.13233 0.72397 0.47167 0.0
C1090 C 0.17474 0.67203 0.48015 0.0
O1091 O 0.21116 0.70216 0.47479 0.0
O1092 O 0.13901 0.67513 0.4803 0.0
C1093 C 0.31769 0.7862 0.47744 0.0
O1094 O 0.2893 0.76859 0.48743 0.0
C1095 C 0.04543 0.6973 0.48527 0.0
C1096 C 0.01728 0.73003 0.4725 0.0
C1097 C 0.00933 0.70521 0.48407 0.0
N1098 N 0.07392 0.71746 0.47502 0.0
N1099 N 0.05668 0.73668 0.4674 0.0
C1100 C 0.0518 0.66915 0.49552 0.0
H1101 H 0.05694 0.64309 0.49049 0.0
H1102 H 0.08272 0.69085 0.50141 0.0
H1103 H 0.02213 0.65196 0.50224 0.0
C1104 C 0.24618 0.84098 0.47778 0.0
N1105 N 0.21946 0.79891 0.47301 0.0
N1106 N 0.17786 0.78329 0.4773 0.0
C1107 C 0.17733 0.81459 0.48547 0.0
C1108 C 0.22085 0.85218 0.48607 0.0
C1109 C 0.29516 0.87054 0.47428 0.0
H1110 H 0.30211 0.86177 0.46428 0.0
H1111 H 0.31648 0.8658 0.48169 0.0
H1112 H 0.30457 0.90681 0.47445 0.0
O1113 O 0.20864 0.73923 0.44702 0.0
O1114 O 0.13607 0.71268 0.45218 0.0
H1115 H 0.11211 0.80864 0.48707 0.0
H1116 H 0.14685 0.83168 0.50172 0.0
C1117 C 0.13721 0.80654 0.49359 0.0
H1118 H 0.12101 0.77208 0.49793 0.0
H1119 H 0.07227 0.75506 0.45881 0.0
O1120 O 0.3022 0.78614 0.46591 0.0
C1121 C 0.16677 0.71859 0.4438 0.0
Co1122 Co 0.14305 0.57531 0.37278 0.0
Co1123 Co 0.0748 0.61029 0.36688 0.0
C1124 C 0.16913 0.66318 0.3581 0.0
O1125 O 0.17561 0.63264 0.36304 0.0
O1126 O 0.13041 0.6603 0.35844 0.0
C1127 C 0.1984 0.54982 0.35965 0.0
O1128 O 0.18494 0.56565 0.34984 0.0
C1129 C 0.01636 0.63995 0.35392 0.0
C1130 C 0.95309 0.60288 0.36553 0.0
C1131 C 0.9722 0.6315 0.35476 0.0
N1132 N 0.0231 0.61712 0.3637 0.0
N1133 N 0.98524 0.59536 0.37068 0.0
C1134 C 0.05057 0.66644 0.34342 0.0
H1135 H 0.06802 0.6479 0.34023 0.0
H1136 H 0.03461 0.67275 0.33469 0.0
H1137 H 0.07644 0.69945 0.34765 0.0
C1138 C 0.07125 0.49327 0.35985 0.0
N1139 N 0.08731 0.53546 0.3647 0.0
N1140 N 0.06103 0.55127 0.36084 0.0
C1141 C 0.02836 0.52009 0.35287 0.0
C1142 C 0.03383 0.48231 0.352 0.0
C1143 C 0.0933 0.46514 0.36183 0.0
H1144 H 0.11268 0.47438 0.37125 0.0
H1145 H 0.11632 0.47058 0.35336 0.0
H1146 H 0.06772 0.42856 0.36213 0.0
O1147 O 0.13651 0.5944 0.39091 0.0
O1148 O 0.08913 0.61982 0.38636 0.0
H1149 H 0.96978 0.52743 0.35338 0.0
H1150 H 0.97341 0.49904 0.33876 0.0
C1151 C 0.99335 0.52677 0.34592 0.0
H1152 H 0.00996 0.55978 0.34065 0.0
H1153 H 0.98099 0.57437 0.37875 0.0
O1154 O 0.18402 0.54962 0.37136 0.0
C1155 C 0.11445 0.61388 0.3945 0.0
Co1156 Co 0.43013 0.57342 0.37251 0.0
Co1157 Co 0.39515 0.47046 0.36594 0.0
C1158 C 0.34257 0.51198 0.35748 0.0
O1159 O 0.37283 0.54862 0.36272 0.0
O1160 O 0.34549 0.47612 0.35749 0.0
C1161 C 0.45643 0.65479 0.35957 0.0
O1162 O 0.44045 0.62568 0.34971 0.0
C1163 C 0.36454 0.38083 0.35369 0.0
C1164 C 0.40938 0.3603 0.36359 0.0
C1165 C 0.37616 0.34716 0.35397 0.0
N1166 N 0.38992 0.41261 0.3627 0.0
N1167 N 0.41635 0.3999 0.36866 0.0
C1168 C 0.333 0.38501 0.34422 0.0
H1169 H 0.34968 0.41976 0.34001 0.0
H1170 H 0.32261 0.36003 0.33601 0.0
H1171 H 0.30246 0.37961 0.34971 0.0
C1172 C 0.51137 0.58433 0.35926 0.0
N1173 N 0.46968 0.55772 0.36428 0.0
N1174 N 0.45364 0.51608 0.35996 0.0
C1175 C 0.48411 0.51537 0.3515 0.0
C1176 C 0.52176 0.55878 0.35078 0.0
C1177 C 0.54124 0.63337 0.36266 0.0
H1178 H 0.53268 0.64069 0.37265 0.0
H1179 H 0.53665 0.65471 0.35522 0.0
H1180 H 0.57738 0.64247 0.36246 0.0
O1181 O 0.41092 0.54721 0.39051 0.0
O1182 O 0.385 0.47465 0.38542 0.0
H1183 H 0.48237 0.45228 0.34901 0.0
H1184 H 0.49652 0.48592 0.33409 0.0
C1185 C 0.475 0.47537 0.34313 0.0
H1186 H 0.43886 0.45659 0.34017 0.0
H1187 H 0.44019 0.419 0.37591 0.0
O1188 O 0.45642 0.64029 0.37125 0.0
C1189 C 0.39092 0.50536 0.39379 0.0
Co1190 Co 0.43345 0.86272 0.37256 0.0
Co1191 Co 0.53767 0.93099 0.36747 0.0
C1192 C 0.49539 0.83734 0.35779 0.0
O1193 O 0.45802 0.83071 0.36249 0.0
O1194 O 0.5315 0.87574 0.35864 0.0
C1195 C 0.35166 0.80748 0.35947 0.0
O1196 O 0.38048 0.82022 0.34954 0.0
C1197 C 0.62614 0.98958 0.35459 0.0
C1198 C 0.65282 0.05246 0.36642 0.0
C1199 C 0.66202 0.03372 0.35549 0.0
N1200 N 0.59678 0.98254 0.36448 0.0
N1201 N 0.61321 0.02016 0.37159 0.0
C1202 C 0.618 0.9558 0.3439 0.0
H1203 H 0.58212 0.93919 0.34065 0.0
H1204 H 0.64059 0.97196 0.33524 0.0
H1205 H 0.62426 0.92917 0.34798 0.0
C1206 C 0.42522 0.9363 0.36021 0.0
N1207 N 0.45065 0.91945 0.36502 0.0
N1208 N 0.49314 0.94595 0.36152 0.0
C1209 C 0.49555 0.97958 0.35379 0.0
C1210 C 0.45256 0.97452 0.35275 0.0
C1211 C 0.37488 0.9141 0.36174 0.0
H1212 H 0.36381 0.89435 0.37109 0.0
H1213 H 0.35823 0.89133 0.35316 0.0
H1214 H 0.3638 0.93964 0.36189 0.0
O1215 O 0.45832 0.86719 0.39064 0.0
O1216 O 0.53171 0.91442 0.38686 0.0
H1217 H 0.5617 0.03777 0.35473 0.0
H1218 H 0.53062 0.03553 0.34005 0.0
C1219 C 0.53776 0.01487 0.34711 0.0
H1220 H 0.55412 0.99838 0.34176 0.0
H1221 H 0.59665 0.02426 0.37974 0.0
O1222 O 0.36652 0.8223 0.3711 0.0
C1223 C 0.49946 0.8879 0.39459 0.0
C1224 C 0.17541 0.11101 0.19805 0.0
C1225 C 0.13947 0.10871 0.19058 0.0
C1226 C 0.18772 0.07751 0.1968 0.0
C1227 C 0.16382 0.04025 0.18827 0.0
H1228 H 0.19301 0.13791 0.20524 0.0
H1229 H 0.21326 0.07862 0.20344 0.0
S1230 S 0.06921 0.02007 0.16596 0.0
N1231 N 0.08259 0.06812 0.17359 0.0
N1232 N 0.10461 0.00433 0.17173 0.0
C1233 C 0.12966 0.03902 0.18022 0.0
C1234 C 0.11773 0.07349 0.18127 0.0
C1235 C 0.96448 0.09634 0.17985 0.0
C1236 C 0.96661 0.12895 0.1888 0.0
C1237 C 0.93066 0.0507 0.18098 0.0
C1238 C 0.89886 0.03588 0.19142 0.0
H1239 H 0.99092 0.10565 0.17249 0.0
H1240 H 0.93141 0.02648 0.17416 0.0
S1241 S 0.88882 0.10873 0.21702 0.0
N1242 N 0.93264 0.14413 0.20788 0.0
N1243 N 0.8698 0.05815 0.2103 0.0
C1244 C 0.8993 0.06859 0.20003 0.0
C1245 C 0.933 0.11521 0.19863 0.0
C1246 C 0.9152 0.87459 0.18011 0.0
C1247 C 0.88135 0.84159 0.18827 0.0
C1248 C 0.96053 0.88569 0.18144 0.0
C1249 C 0.97368 0.86532 0.19132 0.0
H1250 H 0.90705 0.89411 0.1733 0.0
H1251 H 0.98579 0.91266 0.17532 0.0
S1252 S 0.89726 0.77434 0.21445 0.0
N1253 N 0.86328 0.78604 0.20577 0.0
N1254 N 0.94875 0.80792 0.20859 0.0
C1255 C 0.93981 0.83047 0.19902 0.0
C1256 C 0.89351 0.81828 0.19738 0.0
C1257 C 0.07278 0.18389 0.30769 0.0
C1258 C 0.03431 0.15795 0.31562 0.0
C1259 C 0.10688 0.17241 0.30655 0.0
C1260 C 0.10393 0.13528 0.31353 0.0
H1261 H 0.07462 0.21066 0.30144 0.0
H1262 H 0.1349 0.19171 0.29982 0.0
S1263 S 0.01182 0.05931 0.33647 0.0
N1264 N 0.99637 0.09534 0.33107 0.0
N1265 N 0.06119 0.0748 0.3294 0.0
C1266 C 0.06727 0.11126 0.32224 0.0
C1267 C 0.03223 0.12237 0.32317 0.0
C1268 C 0.87269 0.91158 0.3226 0.0
C1269 C 0.84015 0.87758 0.31439 0.0
C1270 C 0.88228 0.95654 0.32154 0.0
C1271 C 0.86085 0.9692 0.31188 0.0
H1272 H 0.89292 0.9039 0.32926 0.0
H1273 H 0.90892 0.982 0.32769 0.0
S1274 S 0.77052 0.89204 0.28872 0.0
N1275 N 0.78388 0.85865 0.29708 0.0
N1276 N 0.80297 0.94354 0.29475 0.0
C1277 C 0.82647 0.93509 0.30412 0.0
C1278 C 0.81581 0.8891 0.30549 0.0
C1279 C 0.09257 0.96463 0.32397 0.0
C1280 C 0.12667 0.96524 0.316 0.0
C1281 C 0.04727 0.93045 0.32254 0.0
C1282 C 0.03445 0.8967 0.31274 0.0
H1283 H 0.1005 0.99256 0.33067 0.0
H1284 H 0.02182 0.93239 0.3285 0.0
S1285 S 0.11166 0.88128 0.29017 0.0
N1286 N 0.14537 0.92721 0.29882 0.0
N1287 N 0.05995 0.86362 0.2958 0.0
C1288 C 0.06858 0.8954 0.30527 0.0
C1289 C 0.11484 0.9295 0.307 0.0
C1290 C 0.8208 0.92905 0.80624 0.0
C1291 C 0.84496 0.96647 0.81469 0.0
C1292 C 0.83292 0.89541 0.80504 0.0
C1293 C 0.86894 0.89776 0.81247 0.0
H1294 H 0.79504 0.92779 0.79966 0.0
H1295 H 0.81503 0.86827 0.79794 0.0
S1296 S 0.93999 0.98703 0.83684 0.0
N1297 N 0.9046 0.00277 0.83108 0.0
N1298 N 0.92629 0.93874 0.82932 0.0
C1299 C 0.89106 0.93329 0.82168 0.0
C1300 C 0.87932 0.96789 0.82267 0.0
C1301 C 0.10615 0.93802 0.80518 0.0
C1302 C 0.10558 0.97033 0.81376 0.0
C1303 C 0.07372 0.89189 0.80635 0.0
C1304 C 0.03926 0.87674 0.81597 0.0
H1305 H 0.13066 0.94864 0.79719 0.0
H1306 H 0.0731 0.86861 0.79889 0.0
S1307 S 0.02539 0.94665 0.84163 0.0
N1308 N 0.07034 0.98311 0.83307 0.0
N1309 N 0.0083 0.89659 0.83478 0.0
C1310 C 0.04005 0.90813 0.82511 0.0
C1311 C 0.07354 0.95494 0.82413 0.0
C1312 C 0.09165 0.1363 0.82431 0.0
C1313 C 0.12525 0.1667 0.81558 0.0
C1314 C 0.04645 0.12558 0.82288 0.0
C1315 C 0.03315 0.14363 0.81236 0.0
H1316 H 0.0998 0.11832 0.83169 0.0
H1317 H 0.02135 0.10051 0.8295 0.0
S1318 S 0.10903 0.22685 0.78731 0.0
N1319 N 0.14301 0.21704 0.79667 0.0
N1320 N 0.05783 0.19589 0.79369 0.0
C1321 C 0.06686 0.17591 0.80401 0.0
C1322 C 0.11303 0.18775 0.80571 0.0
C1323 C 0.92963 0.81895 0.69604 0.0
C1324 C 0.96775 0.84396 0.68791 0.0
C1325 C 0.89603 0.83111 0.69721 0.0
C1326 C 0.89913 0.86801 0.69006 0.0
H1327 H 0.9278 0.79252 0.70245 0.0
H1328 H 0.86834 0.81257 0.70411 0.0
S1329 S 0.99033 0.94148 0.66652 0.0
N1330 N 0.00543 0.90532 0.67206 0.0
N1331 N 0.94151 0.92713 0.67378 0.0
C1332 C 0.93533 0.89099 0.68113 0.0
C1333 C 0.96986 0.87918 0.68016 0.0
C1334 C 0.11907 0.04664 0.68271 0.0
C1335 C 0.14014 0.03359 0.69238 0.0
C1336 C 0.12911 0.09175 0.68165 0.0
C1337 C 0.16173 0.12558 0.68988 0.0
H1338 H 0.09246 0.02138 0.67649 0.0
H1339 H 0.10922 0.09972 0.67493 0.0
S1340 S 0.23044 0.11009 0.71565 0.0
N1341 N 0.19772 0.0587 0.70958 0.0
N1342 N 0.2176 0.14385 0.70728 0.0
C1343 C 0.18562 0.11364 0.69884 0.0
C1344 C 0.17452 0.06749 0.70019 0.0
C1345 C 0.90817 0.04238 0.6795 0.0
C1346 C 0.87497 0.0395 0.68834 0.0
C1347 C 0.95346 0.07682 0.68076 0.0
C1348 C 0.9673 0.10853 0.69121 0.0
H1349 H 0.89964 0.016 0.67217 0.0
H1350 H 0.97822 0.07658 0.67406 0.0
S1351 S 0.8925 0.11688 0.71645 0.0
N1352 N 0.85808 0.07277 0.70726 0.0
N1353 N 0.94342 0.13684 0.7099 0.0
C1354 C 0.93393 0.10744 0.69965 0.0
C1355 C 0.88766 0.0731 0.69813 0.0
C1356 C 0.78687 0.40896 0.51484 0.0
C1357 C 0.80716 0.4425 0.52472 0.0
C1358 C 0.79763 0.37444 0.51359 0.0
C1359 C 0.83023 0.37329 0.52184 0.0
H1360 H 0.76028 0.40756 0.50861 0.0
H1361 H 0.77824 0.34686 0.50673 0.0
S1362 S 0.89694 0.45613 0.54816 0.0
N1363 N 0.86392 0.47449 0.54216 0.0
N1364 N 0.88518 0.41033 0.53949 0.0
C1365 C 0.85337 0.40864 0.53101 0.0
C1366 C 0.84151 0.44307 0.53255 0.0
C1367 C 0.56312 0.39938 0.53062 0.0
C1368 C 0.56618 0.36549 0.5235 0.0
C1369 C 0.59617 0.44526 0.52917 0.0
C1370 C 0.63374 0.45847 0.52077 0.0
H1371 H 0.53596 0.39025 0.5377 0.0
H1372 H 0.59453 0.46997 0.53558 0.0
S1373 S 0.65576 0.38327 0.49931 0.0
N1374 N 0.60771 0.3487 0.50693 0.0
N1375 N 0.67066 0.43468 0.5047 0.0
C1376 C 0.63566 0.42522 0.51304 0.0
C1377 C 0.60165 0.37872 0.51429 0.0
C1378 C 0.62229 0.2127 0.51406 0.0
C1379 C 0.6369 0.19557 0.5245 0.0
C1380 C 0.57681 0.2013 0.51295 0.0
C1381 C 0.54421 0.17113 0.52195 0.0
H1382 H 0.64659 0.23752 0.50722 0.0
H1383 H 0.56767 0.21858 0.50561 0.0
S1384 S 0.56383 0.11312 0.55014 0.0
N1385 N 0.61439 0.14427 0.54339 0.0
N1386 N 0.52867 0.12194 0.54103 0.0
C1387 C 0.55767 0.15101 0.53177 0.0
C1388 C 0.60414 0.1635 0.53313 0.0
C1389 C 0.704 0.46182 0.65588 0.0
C1390 C 0.70302 0.49457 0.64765 0.0
C1391 C 0.73895 0.45165 0.65482 0.0
C1392 C 0.77309 0.47269 0.64514 0.0
H1393 H 0.67604 0.44189 0.66257 0.0
H1394 H 0.73744 0.42491 0.66101 0.0
S1395 S 0.78725 0.56316 0.62186 0.0
N1396 N 0.74073 0.55046 0.63025 0.0
N1397 N 0.80575 0.53031 0.62793 0.0
C1398 C 0.77377 0.50719 0.63734 0.0
C1399 C 0.73888 0.51844 0.6387 0.0
C1400 C 0.53852 0.24187 0.65549 0.0
C1401 C 0.50533 0.20823 0.64733 0.0
C1402 C 0.54938 0.28721 0.65437 0.0
C1403 C 0.52855 0.3006 0.64472 0.0
H1404 H 0.55834 0.23357 0.66213 0.0
H1405 H 0.5765 0.31231 0.66049 0.0
S1406 S 0.43683 0.22468 0.62172 0.0
N1407 N 0.4491 0.1905 0.6301 0.0
N1408 N 0.47046 0.27604 0.62768 0.0
C1409 C 0.49351 0.2669 0.63703 0.0
C1410 C 0.4816 0.22055 0.63844 0.0
C1411 C 0.73215 0.22715 0.63936 0.0
C1412 C 0.69758 0.22956 0.64628 0.0
C1413 C 0.77764 0.26123 0.64075 0.0
C1414 C 0.78973 0.29918 0.64889 0.0
H1415 H 0.72383 0.19965 0.63246 0.0
H1416 H 0.80286 0.25991 0.6345 0.0
S1417 S 0.71247 0.3199 0.66979 0.0
N1418 N 0.67901 0.27104 0.66239 0.0
N1419 N 0.76423 0.33583 0.66455 0.0
C1420 C 0.75584 0.30055 0.65644 0.0
C1421 C 0.70976 0.26553 0.65524 0.0
C1422 C 0.49266 0.21998 0.1355 0.0
C1423 C 0.52597 0.2173 0.14303 0.0
C1424 C 0.48281 0.25491 0.13766 0.0
C1425 C 0.50657 0.28872 0.14725 0.0
H1426 H 0.47521 0.19585 0.12759 0.0
H1427 H 0.45928 0.25765 0.13102 0.0
S1428 S 0.59465 0.29551 0.17015 0.0
N1429 N 0.58019 0.24967 0.16117 0.0
N1430 N 0.5628 0.3161 0.16476 0.0
C1431 C 0.53814 0.28507 0.15528 0.0
C1432 C 0.54757 0.24913 0.15329 0.0
C1433 C 0.74827 0.28439 0.13156 0.0
C1434 C 0.77505 0.30162 0.14299 0.0
C1435 C 0.71073 0.24089 0.1314 0.0
C1436 C 0.69873 0.21221 0.14255 0.0
H1437 H 0.75525 0.30519 0.12276 0.0
H1438 H 0.69059 0.22977 0.12241 0.0
S1439 S 0.75992 0.23931 0.17459 0.0
N1440 N 0.78856 0.28583 0.16562 0.0
N1441 N 0.71799 0.20278 0.16507 0.0
C1442 C 0.72625 0.2279 0.15387 0.0
C1443 C 0.76435 0.27297 0.15415 0.0
C1444 C 0.73454 0.5028 0.14166 0.0
C1445 C 0.70098 0.46549 0.14874 0.0
C1446 C 0.78061 0.51667 0.14324 0.0
C1447 C 0.79443 0.49302 0.15171 0.0
H1448 H 0.72505 0.5203 0.13449 0.0
H1449 H 0.80505 0.5432 0.13682 0.0
S1450 S 0.72036 0.39559 0.17325 0.0
N1451 N 0.6852 0.40789 0.16547 0.0
N1452 N 0.77154 0.43278 0.1679 0.0
C1453 C 0.7615 0.45763 0.15945 0.0
C1454 C 0.71478 0.4441 0.15808 0.0
C1455 C 0.63636 0.21281 0.01383 0.0
C1456 C 0.63553 0.17828 0.02165 0.0
C1457 C 0.60237 0.22432 0.01505 0.0
C1458 C 0.56753 0.20289 0.02452 0.0
H1459 H 0.66494 0.23291 0.00737 0.0
H1460 H 0.60513 0.25224 0.00917 0.0
S1461 S 0.54898 0.10837 0.04674 0.0
N1462 N 0.59551 0.1206 0.03842 0.0
N1463 N 0.53245 0.14333 0.0411 0.0
C1464 C 0.56519 0.16687 0.03193 0.0
C1465 C 0.59903 0.15427 0.03038 0.0
C1466 C 0.80083 0.42649 0.01607 0.0
C1467 C 0.83157 0.45958 0.02486 0.0
C1468 C 0.79006 0.38115 0.01717 0.0
C1469 C 0.8084 0.36705 0.02741 0.0
H1470 H 0.78294 0.43523 0.00883 0.0
H1471 H 0.765 0.35656 0.01045 0.0
S1472 S 0.89232 0.4413 0.05254 0.0
N1473 N 0.88225 0.47598 0.0436 0.0
N1474 N 0.86108 0.39046 0.04594 0.0
C1475 C 0.84073 0.40021 0.03589 0.0
C1476 C 0.85258 0.44658 0.03453 0.0
C1477 C 0.60589 0.44632 0.03047 0.0
C1478 C 0.64036 0.44377 0.02354 0.0
C1479 C 0.56029 0.41283 0.02888 0.0
C1480 C 0.54799 0.37532 0.02053 0.0
H1481 H 0.61436 0.47331 0.03758 0.0
H1482 H 0.53514 0.41399 0.0352 0.0
S1483 S 0.62489 0.35482 0.9994 0.0
N1484 N 0.65864 0.40298 0.0071 0.0
N1485 N 0.57314 0.33922 0.00458 0.0
C1486 C 0.58178 0.37407 0.0129 0.0
C1487 C 0.628 0.40851 0.0143 0.0
C1488 C 0.51596 0.74132 0.86622 0.0
C1489 C 0.49556 0.70737 0.85647 0.0
C1490 C 0.50362 0.77474 0.86771 0.0
C1491 C 0.47105 0.7757 0.85936 0.0
H1492 H 0.53869 0.73976 0.87345 0.0
H1493 H 0.51854 0.79901 0.87574 0.0
S1494 S 0.41091 0.69645 0.83156 0.0
N1495 N 0.4433 0.67798 0.83796 0.0
N1496 N 0.42136 0.74169 0.84031 0.0
C1497 C 0.4529 0.74378 0.84898 0.0
C1498 C 0.46482 0.70935 0.84765 0.0
C1499 C 0.26408 0.7766 0.86431 0.0
C1500 C 0.29938 0.79221 0.85497 0.0
C1501 C 0.23108 0.73057 0.86503 0.0
C1502 C 0.23204 0.69882 0.8563 0.0
H1503 H 0.26412 0.79945 0.87182 0.0
H1504 H 0.2057 0.71954 0.87279 0.0
S1505 S 0.31532 0.72387 0.82924 0.0
N1506 N 0.33219 0.77344 0.83639 0.0
N1507 N 0.26916 0.68709 0.83728 0.0
C1508 C 0.26535 0.71472 0.84629 0.0
C1509 C 0.29939 0.76143 0.84575 0.0
C1510 C 0.27018 0.49499 0.86317 0.0
C1511 C 0.30387 0.53007 0.85546 0.0
C1512 C 0.22434 0.48199 0.86163 0.0
C1513 C 0.21091 0.50436 0.85253 0.0
H1514 H 0.27945 0.4788 0.87084 0.0
H1515 H 0.19994 0.45753 0.86853 0.0
S1516 S 0.28514 0.59492 0.82904 0.0
N1517 N 0.31995 0.5835 0.83739 0.0
N1518 N 0.23404 0.56034 0.83499 0.0
C1519 C 0.2438 0.53713 0.84413 0.0
C1520 C 0.29029 0.54973 0.84549 0.0
C1521 C 0.37896 0.80866 0.96426 0.0
C1522 C 0.36628 0.82263 0.97585 0.0
C1523 C 0.41614 0.80213 0.96407 0.0
C1524 C 0.44185 0.80842 0.97557 0.0
H1525 H 0.35937 0.80183 0.95521 0.0
H1526 H 0.42353 0.79025 0.95494 0.0
S1527 S 0.42494 0.84848 0.00828 0.0
N1528 N 0.38395 0.84579 0.99888 0.0
N1529 N 0.45395 0.83246 0.99876 0.0
C1530 C 0.4307 0.82413 0.98717 0.0
C1531 C 0.39294 0.83159 0.98725 0.0
C1532 C 0.16098 0.60595 0.96774 0.0
C1533 C 0.19229 0.64082 0.97603 0.0
C1534 C 0.15067 0.56088 0.96956 0.0
C1535 C 0.17187 0.54936 0.97958 0.0
H1536 H 0.1456 0.61376 0.9595 0.0
H1537 H 0.12898 0.53564 0.96236 0.0
S1538 S 0.25362 0.62696 0.00451 0.0
N1539 N 0.24156 0.65975 0.99535 0.0
N1540 N 0.22331 0.57541 0.99831 0.0
C1541 C 0.20123 0.5833 0.98835 0.0
C1542 C 0.21114 0.62896 0.98669 0.0
C1543 C 0.44738 0.59835 0.97652 0.0
C1544 C 0.46079 0.63685 0.98453 0.0
C1545 C 0.40142 0.56587 0.97495 0.0
C1546 C 0.36758 0.57035 0.9816 0.0
H1547 H 0.47205 0.59563 0.97038 0.0
H1548 H 0.39222 0.53809 0.96809 0.0
S1549 S 0.38573 0.66232 0.0049 0.0
N1550 N 0.43715 0.67584 0.99993 0.0
N1551 N 0.35096 0.61391 0.99748 0.0
C1552 C 0.38091 0.60654 0.99055 0.0
C1553 C 0.42753 0.63999 0.99192 0.0
C1554 C 0.20507 0.62733 0.49078 0.0
C1555 C 0.17238 0.62845 0.48257 0.0
C1556 C 0.21607 0.59299 0.48944 0.0
C1557 C 0.19594 0.55969 0.47949 0.0
H1558 H 0.22449 0.6549 0.49764 0.0
H1559 H 0.24283 0.59449 0.4956 0.0
S1560 S 0.10571 0.54587 0.4562 0.0
N1561 N 0.11729 0.59144 0.46495 0.0
N1562 N 0.13902 0.52768 0.4621 0.0
C1563 C 0.16135 0.55897 0.47174 0.0
C1564 C 0.14924 0.59316 0.47339 0.0
C1565 C 0.44324 0.60351 0.47368 0.0
C1566 C 0.44019 0.63743 0.48079 0.0
C1567 C 0.4094 0.5578 0.4748 0.0
C1568 C 0.37105 0.54484 0.48283 0.0
H1569 H 0.47105 0.61256 0.46685 0.0
H1570 H 0.41124 0.53313 0.46842 0.0
S1571 S 0.34854 0.62014 0.50409 0.0
N1572 N 0.39763 0.65443 0.49694 0.0
N1573 N 0.33329 0.56881 0.49856 0.0
C1574 C 0.36901 0.57805 0.49055 0.0
C1575 C 0.40379 0.62435 0.48964 0.0
C1576 C 0.38062 0.7851 0.48974 0.0
C1577 C 0.36661 0.80419 0.4797 0.0
C1578 C 0.42618 0.79695 0.491 0.0
C1579 C 0.45945 0.82947 0.4826 0.0
H1580 H 0.35586 0.75854 0.49607 0.0
H1581 H 0.43497 0.7783 0.49796 0.0
S1582 S 0.44127 0.89329 0.45581 0.0
N1583 N 0.39016 0.85984 0.46195 0.0
N1584 N 0.47604 0.88306 0.46462 0.0
C1585 C 0.44644 0.8515 0.47328 0.0
C1586 C 0.3999 0.83855 0.47173 0.0
C1587 C 0.26413 0.48797 0.36388 0.0
C1588 C 0.29948 0.51003 0.35463 0.0
C1589 C 0.2304 0.49986 0.36516 0.0
C1590 C 0.23055 0.53354 0.35706 0.0
H1591 H 0.26487 0.46444 0.37098 0.0
H1592 H 0.20514 0.48388 0.37289 0.0
S1593 S 0.31302 0.59729 0.33029 0.0
N1594 N 0.33102 0.56447 0.33667 0.0
N1595 N 0.26656 0.58549 0.33858 0.0
C1596 C 0.26362 0.55303 0.34703 0.0
C1597 C 0.29842 0.5416 0.34595 0.0
C1598 C 0.51917 0.78246 0.36397 0.0
C1599 C 0.49731 0.79618 0.35479 0.0
C1600 C 0.50692 0.73668 0.36519 0.0
C1601 C 0.4731 0.70339 0.35706 0.0
H1602 H 0.54275 0.80649 0.37111 0.0
H1603 H 0.52272 0.72708 0.37288 0.0
S1604 S 0.40986 0.72321 0.33039 0.0
N1605 N 0.443 0.7739 0.33683 0.0
N1606 N 0.4213 0.68815 0.33861 0.0
C1607 C 0.45388 0.7174 0.34707 0.0
C1608 C 0.46568 0.76378 0.34606 0.0
C1609 C 0.27001 0.77537 0.36553 0.0
C1610 C 0.30299 0.77533 0.35713 0.0
C1611 C 0.22428 0.74163 0.36447 0.0
C1612 C 0.21026 0.70634 0.35516 0.0
H1613 H 0.27984 0.80057 0.3733 0.0
H1614 H 0.20054 0.74086 0.37178 0.0
S1615 S 0.28224 0.69296 0.33012 0.0
N1616 N 0.3175 0.73935 0.33834 0.0
N1617 N 0.23189 0.67494 0.33685 0.0
C1618 C 0.2423 0.70747 0.34621 0.0
C1619 C 0.28863 0.74227 0.34707 0.0
C1620 C 0.31083 0.36418 0.17259 0.0
C1621 C 0.30399 0.3546 0.1589 0.0
C1622 C 0.2741 0.35094 0.18128 0.0
C1623 C 0.22933 0.32802 0.17657 0.0
H1624 H 0.34473 0.38194 0.17665 0.0
H1625 H 0.28067 0.35769 0.1918 0.0
S1626 S 0.19302 0.29666 0.14164 0.0
N1627 N 0.24888 0.32245 0.14103 0.0
N1628 N 0.17999 0.29743 0.15741 0.0
C1629 C 0.22202 0.31977 0.16289 0.0
C1630 C 0.25934 0.33322 0.15404 0.0
C1631 C 0.65731 0.92481 0.18099 0.0
C1632 C 0.67956 0.90243 0.17613 0.0
C1633 C 0.64275 0.94732 0.17236 0.0
C1634 C 0.65006 0.94823 0.15857 0.0
H1635 H 0.65202 0.92575 0.19157 0.0
H1636 H 0.6257 0.96409 0.17652 0.0
S1637 S 0.7056 0.89341 0.1409 0.0
N1638 N 0.70739 0.88158 0.15672 0.0
N1639 N 0.67953 0.92326 0.14045 0.0
C1640 C 0.67083 0.92452 0.15357 0.0
C1641 C 0.68579 0.90182 0.16237 0.0
C1642 C 0.10311 0.78517 0.16406 0.0
C1643 C 0.10646 0.77862 0.17769 0.0
C1644 C 0.08005 0.74808 0.15546 0.0
C1645 C 0.05916 0.70334 0.16027 0.0
H1646 H 0.11688 0.81915 0.16011 0.0
H1647 H 0.07721 0.75447 0.14506 0.0
S1648 S 0.06408 0.6686 0.19486 0.0
N1649 N 0.09101 0.72457 0.19542 0.0
N1650 N 0.04814 0.65473 0.17925 0.0
C1651 C 0.06445 0.69648 0.17377 0.0
C1652 C 0.08797 0.73422 0.18249 0.0
C1653 C 0.31143 0.27603 0.34507 0.0
C1654 C 0.35827 0.30617 0.34561 0.0
C1655 C 0.29349 0.23746 0.33699 0.0
C1656 C 0.32168 0.22804 0.32898 0.0
H1657 H 0.28851 0.28228 0.35098 0.0
H1658 H 0.25716 0.2149 0.33697 0.0
S1659 S 0.44675 0.29673 0.32683 0.0
N1660 N 0.43275 0.32391 0.33774 0.0
N1661 N 0.39874 0.25203 0.32211 0.0
C1662 C 0.36865 0.25762 0.32957 0.0
C1663 C 0.38702 0.29659 0.33799 0.0
C1664 C 0.73057 0.03886 0.34499 0.0
C1665 C 0.70179 0.05684 0.34664 0.0
C1666 C 0.768 0.05952 0.33646 0.0
C1667 C 0.77743 0.0983 0.32902 0.0
H1668 H 0.7242 0.0087 0.35039 0.0
H1669 H 0.78966 0.04482 0.33566 0.0
S1670 S 0.71177 0.15812 0.32977 0.0
N1671 N 0.68532 0.116 0.34044 0.0
N1672 N 0.75471 0.15376 0.32389 0.0
C1673 C 0.74911 0.11688 0.3307 0.0
C1674 C 0.71144 0.09633 0.33962 0.0
C1675 C 0.94766 0.71325 0.33617 0.0
C1676 C 0.90871 0.68445 0.32874 0.0
C1677 C 0.96798 0.69579 0.34456 0.0
C1678 C 0.94949 0.64888 0.34605 0.0
H1679 H 0.96268 0.74969 0.3355 0.0
H1680 H 0.99825 0.71915 0.34997 0.0
S1681 S 0.84763 0.55885 0.32911 0.0
N1682 N 0.85257 0.60663 0.32342 0.0
N1683 N 0.88974 0.57372 0.33971 0.0
C1684 C 0.90987 0.61959 0.33903 0.0
C1685 C 0.88964 0.6374 0.33025 0.0
C1686 C 0.76835 0.71328 0.83605 0.0
C1687 C 0.77808 0.68389 0.82873 0.0
C1688 C 0.73027 0.69655 0.84432 0.0
C1689 C 0.70109 0.64978 0.84583 0.0
H1690 H 0.79038 0.74963 0.83539 0.0
H1691 H 0.72382 0.72037 0.84967 0.0
S1692 S 0.7113 0.55837 0.82909 0.0
N1693 N 0.75496 0.60567 0.82348 0.0
N1694 N 0.68437 0.5741 0.83956 0.0
C1695 C 0.71089 0.6199 0.83889 0.0
C1696 C 0.74921 0.63697 0.83022 0.0
C1697 C 0.29159 0.06041 0.83578 0.0
C1698 C 0.32008 0.09761 0.82768 0.0
C1699 C 0.30908 0.03942 0.84387 0.0
C1700 C 0.35578 0.05547 0.84435 0.0
H1701 H 0.25536 0.04723 0.83584 0.0
H1702 H 0.28595 0.01056 0.84984 0.0
S1703 S 0.44495 0.15216 0.82536 0.0
N1704 N 0.39727 0.14956 0.82065 0.0
N1705 N 0.43049 0.11115 0.83635 0.0
C1706 C 0.38487 0.09341 0.83664 0.0
C1707 C 0.36693 0.11431 0.82819 0.0
C1708 C 0.90215 0.21928 0.84048 0.0
C1709 C 0.89782 0.2263 0.82694 0.0
C1710 C 0.92536 0.25608 0.84918 0.0
C1711 C 0.94544 0.30101 0.84457 0.0
H1712 H 0.88916 0.18519 0.84425 0.0
H1713 H 0.92908 0.24933 0.85949 0.0
S1714 S 0.9377 0.3369 0.81035 0.0
N1715 N 0.91143 0.28098 0.80956 0.0
N1716 N 0.95448 0.35022 0.82592 0.0
C1717 C 0.93902 0.3083 0.83119 0.0
C1718 C 0.91539 0.27087 0.82236 0.0
C1719 C 0.69186 0.72776 0.6589 0.0
C1720 C 0.64492 0.69817 0.65823 0.0
C1721 C 0.71009 0.76619 0.66705 0.0
C1722 C 0.68209 0.77605 0.675 0.0
H1723 H 0.71464 0.72123 0.65303 0.0
H1724 H 0.74648 0.78834 0.66715 0.0
S1725 S 0.55684 0.70906 0.67677 0.0
N1726 N 0.57057 0.68155 0.6659 0.0
N1727 N 0.60508 0.75317 0.68163 0.0
C1728 C 0.63503 0.74709 0.67427 0.0
C1729 C 0.61638 0.70825 0.66579 0.0
C1730 C 0.25543 0.89006 0.674 0.0
C1731 C 0.22426 0.90561 0.67445 0.0
C1732 C 0.29319 0.9104 0.66548 0.0
C1733 C 0.30112 0.94723 0.65733 0.0
H1734 H 0.25117 0.86281 0.68048 0.0
H1735 H 0.31699 0.89809 0.66554 0.0
S1736 S 0.22641 0.99646 0.6536 0.0
N1737 N 0.20118 0.95656 0.66496 0.0
N1738 N 0.27286 0.99569 0.64938 0.0
C1739 C 0.26936 0.96191 0.65736 0.0
C1740 C 0.23072 0.94086 0.66583 0.0
C1741 C 0.08158 0.35144 0.6802 0.0
C1742 C 0.10143 0.32655 0.67553 0.0
C1743 C 0.05914 0.36586 0.67151 0.0
C1744 C 0.05551 0.35551 0.65787 0.0
H1745 H 0.0824 0.35877 0.69071 0.0
H1746 H 0.04437 0.38499 0.67554 0.0
S1747 S 0.10336 0.2924 0.64072 0.0
N1748 N 0.11737 0.29321 0.65646 0.0
N1749 N 0.07548 0.32046 0.64006 0.0
C1750 C 0.07684 0.33213 0.65303 0.0
C1751 C 0.09963 0.31747 0.66189 0.0
C1752 C 0.88886 0.65444 0.4968 0.0
C1753 C 0.89501 0.66267 0.51053 0.0
C1754 C 0.92616 0.66917 0.48824 0.0
C1755 C 0.97069 0.69196 0.4932 0.0
H1756 H 0.85501 0.63509 0.49273 0.0
H1757 H 0.92011 0.66135 0.47775 0.0
S1758 S 0.00461 0.72704 0.52812 0.0
N1759 N 0.94866 0.6988 0.52851 0.0
N1760 N 0.01884 0.72644 0.51245 0.0
C1761 C 0.97722 0.7023 0.50681 0.0
C1762 C 0.9393 0.68759 0.51549 0.0
C1763 C 0.29171 0.24709 0.49808 0.0
C1764 C 0.32093 0.28468 0.49023 0.0
C1765 C 0.30891 0.22653 0.50657 0.0
C1766 C 0.3557 0.24269 0.5073 0.0
H1767 H 0.25554 0.23434 0.4979 0.0
H1768 H 0.28568 0.19862 0.51282 0.0
S1769 S 0.44519 0.33563 0.48718 0.0
N1770 N 0.398 0.33464 0.48284 0.0
N1771 N 0.43017 0.29486 0.49828 0.0
C1772 C 0.38482 0.27868 0.49895 0.0
C1773 C 0.36745 0.30001 0.49053 0.0
C1774 C 0.72611 0.02916 0.50506 0.0
C1775 C 0.72404 0.03591 0.49135 0.0
C1776 C 0.7489 0.06601 0.51376 0.0
C1777 C 0.77065 0.1108 0.50902 0.0
H1778 H 0.70968 0.99517 0.50913 0.0
H1779 H 0.74854 0.05952 0.52431 0.0
S1780 S 0.77747 0.14674 0.47396 0.0
N1781 N 0.74774 0.0908 0.47338 0.0
N1782 N 0.79025 0.15998 0.48977 0.0
C1783 C 0.77049 0.11798 0.4953 0.0
C1784 C 0.74735 0.08052 0.48644 0.0
C1785 C 0.98722 0.55533 0.67339 0.0
C1786 C 0.99463 0.56158 0.65963 0.0
C1787 C 1.00241 0.5926 0.68199 0.0
C1788 C 0.02492 0.63722 0.67706 0.0
H1789 H 0.96817 0.52142 0.67746 0.0
H1790 H 0.99522 0.58644 0.69251 0.0
S1791 S 0.05805 0.67138 0.64203 0.0
N1792 N 0.0297 0.61538 0.64161 0.0
N1793 N 0.05837 0.68552 0.65775 0.0
C1794 C 0.03446 0.64384 0.66339 0.0
C1795 C 0.01922 0.60593 0.65467 0.0
C1796 C 0.43188 0.38716 0.66932 0.0
C1797 C 0.44226 0.42652 0.66205 0.0
C1798 C 0.39434 0.36688 0.67782 0.0
C1799 C 0.36638 0.38577 0.67957 0.0
H1800 H 0.45298 0.37186 0.66847 0.0
H1801 H 0.3873 0.33636 0.68312 0.0
S1802 S 0.37887 0.48866 0.66307 0.0
N1803 N 0.42123 0.48339 0.65714 0.0
N1804 N 0.3516 0.44625 0.67361 0.0
C1805 C 0.37692 0.42573 0.67268 0.0
C1806 C 0.41471 0.44593 0.66381 0.0
C1807 C 0.55637 0.9695 0.66311 0.0
C1808 C 0.572 0.01627 0.66284 0.0
C1809 C 0.57668 0.95169 0.67148 0.0
C1810 C 0.61347 0.98028 0.67967 0.0
H1811 H 0.52927 0.94683 0.65654 0.0
H1812 H 0.56451 0.9156 0.67123 0.0
S1813 S 0.66232 0.10401 0.68403 0.0
N1814 N 0.62258 0.08987 0.67265 0.0
N1815 N 0.66162 0.05661 0.68798 0.0
C1816 C 0.62798 0.0267 0.6799 0.0
C1817 C 0.60699 0.04466 0.67157 0.0
C1818 C 0.41415 0.00933 0.18237 0.0
C1819 C 0.36893 0.98177 0.17833 0.0
C1820 C 0.45001 0.0219 0.17339 0.0
C1821 C 0.44174 0.00677 0.16016 0.0
H1822 H 0.42175 0.02233 0.19243 0.0
H1823 H 0.48431 0.04477 0.1767 0.0
S1824 S 0.33007 0.92857 0.14522 0.0
N1825 N 0.3182 0.93581 0.16064 0.0
N1826 N 0.38571 0.95954 0.14377 0.0
C1827 C 0.39693 0.97742 0.15618 0.0
C1828 C 0.36044 0.9648 0.16528 0.0
C1829 C 0.99093 0.43723 0.17448 0.0
C1830 C 1.00077 0.44035 0.16084 0.0
C1831 C 0.00527 0.41461 0.18314 0.0
C1832 C 0.02937 0.39391 0.17839 0.0
H1833 H 0.97057 0.45087 0.17838 0.0
H1834 H 0.9961 0.41194 0.19355 0.0
S1835 S 0.06884 0.3982 0.1438 0.0
N1836 N 0.03952 0.42482 0.14317 0.0
N1837 N 0.06697 0.38268 0.15945 0.0
C1838 C 0.0414 0.39892 0.16488 0.0
C1839 C 0.02688 0.42201 0.15609 0.0
C1840 C 0.59145 0.59945 0.15711 0.0
C1841 C 0.57027 0.55531 0.16234 0.0
C1842 C 0.61366 0.63746 0.16543 0.0
C1843 C 0.61577 0.63259 0.17926 0.0
H1844 H 0.5918 0.60455 0.14648 0.0
H1845 H 0.62944 0.67081 0.16097 0.0
S1846 S 0.56355 0.52391 0.19782 0.0
N1847 N 0.55102 0.50864 0.18212 0.0
N1848 N 0.59263 0.57989 0.19782 0.0
C1849 C 0.59299 0.58853 0.18462 0.0
C1850 C 0.57036 0.54992 0.17614 0.0
C1851 C 0.28879 0.04354 1.00147 0.0
C1852 C 0.31679 0.0346 0.99321 0.0
C1853 C 0.30694 0.08279 0.00939 0.0
C1854 C 0.35349 0.11455 0.0091 0.0
H1855 H 0.25281 0.01951 0.00203 0.0
H1856 H 0.2847 0.08782 0.01598 0.0
S1857 S 0.43973 0.11011 0.98764 0.0
N1858 N 0.39237 0.06253 0.98434 0.0
N1859 N 0.42624 0.13688 0.99882 0.0
C1860 C 0.38132 0.10698 1.00039 0.0
C1861 C 0.36303 0.06683 0.99253 0.0
C1862 C 0.9073 0.28519 1.00183 0.0
C1863 C 0.89597 0.24437 0.00841 0.0
C1864 C 0.94508 0.30639 0.99344 0.0
C1865 C 0.9724 0.28707 0.99109 0.0
H1866 H 0.88663 0.30083 0.0031 0.0
H1867 H 0.95266 0.33786 0.98862 0.0
S1868 S 0.9577 0.18082 0.00582 0.0
N1869 N 0.91571 0.18592 0.01215 0.0
N1870 N 0.98575 0.22484 0.99587 0.0
C1871 C 0.96107 0.24587 0.99735 0.0
C1872 C 0.92305 0.2247 0.00613 0.0
C1873 C 0.75142 0.6858 0.01413 0.0
C1874 C 0.77201 0.66143 0.00959 0.0
C1875 C 0.72873 0.6996 0.00532 0.0
C1876 C 0.72556 0.68912 0.99169 0.0
H1877 H 0.75178 0.69311 0.02462 0.0
H1878 H 0.71326 0.71824 0.00925 0.0
S1879 S 0.77563 0.62751 0.97486 0.0
N1880 N 0.78932 0.62868 0.99065 0.0
N1881 N 0.74694 0.65473 0.97404 0.0
C1882 C 0.74773 0.6664 0.98698 0.0
C1883 C 0.77079 0.65239 0.99596 0.0
C1884 C 0.63916 0.02927 0.83785 0.0
C1885 C 0.63236 0.01552 0.82445 0.0
C1886 C 0.60247 0.01516 0.8466 0.0
C1887 C 0.55779 0.98728 0.84222 0.0
H1888 H 0.67295 0.05138 0.8416 0.0
H1889 H 0.60908 0.02572 0.8569 0.0
S1890 S 0.52153 0.94224 0.8082 0.0
N1891 N 0.5773 0.97295 0.80724 0.0
N1892 N 0.50848 0.94638 0.82374 0.0
C1893 C 0.55039 0.97405 0.82884 0.0
C1894 C 0.58766 0.98835 0.81993 0.0
C1895 C 0.97323 0.6115 0.83968 0.0
C1896 C 0.97799 0.61071 0.82581 0.0
C1897 C 0.98832 0.58907 0.84816 0.0
C1898 C 0.00869 0.56513 0.84306 0.0
H1899 H 0.95803 0.62987 0.84401 0.0
H1900 H 0.98514 0.59146 0.8588 0.0
S1901 S 0.02718 0.55095 0.80753 0.0
N1902 N 1.00248 0.58211 0.80736 0.0
N1903 N 0.03161 0.54073 0.82333 0.0
C1904 C 0.01213 0.56266 0.82923 0.0
C1905 C 0.99651 0.58522 0.82059 0.0
C1906 C 0.41546 0.40068 0.84637 0.0
C1907 C 0.43643 0.44514 0.84138 0.0
C1908 C 0.39285 0.36321 0.83789 0.0
C1909 C 0.39052 0.36901 0.82414 0.0
H1910 H 0.41539 0.39492 0.85695 0.0
H1911 H 0.37665 0.32948 0.84214 0.0
S1912 S 0.44181 0.4785 0.80611 0.0
N1913 N 0.45472 0.49296 0.82185 0.0
N1914 N 0.41303 0.4225 0.80584 0.0
C1915 C 0.41312 0.41325 0.81897 0.0
C1916 C 0.43583 0.45138 0.82761 0.0
C1917 C 0.66146 0.8914 0.00496 0.0
C1918 C 0.66815 0.89727 0.99116 0.0
C1919 C 0.67608 0.92885 0.01345 0.0
C1920 C 0.69718 0.97325 0.00838 0.0
H1921 H 0.6433 0.85759 0.00914 0.0
H1922 H 0.66949 0.92295 0.024 0.0
S1923 S 0.72802 0.0067 0.97321 0.0
N1924 N 0.70127 0.9507 0.97296 0.0
N1925 N 0.72846 0.02116 0.9889 0.0
C1926 C 0.70597 0.97959 0.99468 0.0
C1927 C 0.69148 0.94152 0.98607 0.0
C1928 C 0.06052 0.69937 0.01058 0.0
C1929 C 0.0356 0.72048 0.01401 0.0
C1930 C 0.09722 0.7201 1.0018 0.0
C1931 C 0.10979 0.76231 0.99595 0.0
H1932 H 0.0518 0.66673 0.01479 0.0
H1933 H 0.11601 0.70297 0.99964 0.0
S1934 S 0.05496 0.83126 1.00164 0.0
N1935 N 0.02619 0.78611 0.01113 0.0
N1936 N 0.09434 0.82442 0.9942 0.0
C1937 C 0.08542 0.78399 0.99941 0.0
C1938 C 0.04845 0.76319 0.00854 0.0
C1939 C 0.26037 0.32753 0.99008 0.0
C1940 C 0.23842 0.34984 0.99525 0.0
C1941 C 0.28261 0.31195 0.99846 0.0
C1942 C 0.28378 0.31831 0.0123 0.0
H1943 H 0.26134 0.32316 0.97945 0.0
H1944 H 0.29929 0.29511 0.99407 0.0
S1945 S 0.22972 0.37308 0.03075 0.0
N1946 N 0.21794 0.37634 0.01501 0.0
N1947 N 0.25918 0.34658 0.03081 0.0
C1948 C 0.26034 0.33894 0.01761 0.0
C1949 C 0.23787 0.35492 0.00907 0.0
C1950 C 0.03124 0.30414 0.49831 0.0
C1951 C 0.03792 0.31586 0.51186 0.0
C1952 C 0.06808 0.31823 0.48962 0.0
C1953 C 0.1128 0.34413 0.49421 0.0
H1954 H 0.99737 0.284 0.49436 0.0
H1955 H 0.06157 0.30967 0.47918 0.0
S1956 S 0.14878 0.38267 0.52876 0.0
N1957 N 0.09289 0.35374 0.52949 0.0
N1958 N 0.162 0.3804 0.5131 0.0
C1959 C 0.12005 0.35487 0.50777 0.0
C1960 C 0.08262 0.34054 0.51662 0.0
C1961 C 0.65401 0.76781 0.50745 0.0
C1962 C 0.66315 0.77045 0.49377 0.0
C1963 C 0.66844 0.74513 0.51606 0.0
C1964 C 0.69196 0.72394 0.51121 0.0
H1965 H 0.63404 0.78179 0.51142 0.0
H1966 H 0.65975 0.74278 0.52649 0.0
S1967 S 0.72961 0.72698 0.47647 0.0
N1968 N 0.70062 0.75395 0.47594 0.0
N1969 N 0.72844 0.71189 0.49212 0.0
C1970 C 0.7034 0.72857 0.49766 0.0
C1971 C 0.68874 0.75166 0.48892 0.0
C1972 C 0.27716 0.90096 0.50318 0.0
C1973 C 0.23929 0.89138 0.4953 0.0
C1974 C 0.29794 0.93961 0.51124 0.0
C1975 C 0.28119 0.96972 0.51187 0.0
H1976 H 0.29102 0.87846 0.50309 0.0
H1977 H 0.32725 0.9459 0.51706 0.0
S1978 S 0.18255 0.95983 0.49343 0.0
N1979 N 0.18588 0.91516 0.48865 0.0
N1980 N 0.22404 0.98718 0.50422 0.0
C1981 C 0.24259 0.95996 0.50437 0.0
C1982 C 0.22182 0.9209 0.49597 0.0
C1983 C 0.97508 0.36173 0.33896 0.0
C1984 C 0.98189 0.36797 0.32516 0.0
C1985 C 0.99004 0.39892 0.34757 0.0
C1986 C 0.01231 0.44355 0.34268 0.0
H1987 H 0.95818 0.32788 0.34313 0.0
H1988 H 0.98496 0.3928 0.35816 0.0
S1989 S 0.03743 0.47803 0.30738 0.0
N1990 N 0.01094 0.42206 0.30697 0.0
N1991 N 0.03994 0.49195 0.32321 0.0
C1992 C 0.01826 0.45019 0.3289 0.0
C1993 C 1.00273 0.41237 0.32012 0.0
C1994 C 0.57074 0.61489 0.33364 0.0
C1995 C 0.5605 0.57661 0.34142 0.0
C1996 C 0.60887 0.63474 0.32538 0.0
C1997 C 0.63778 0.61662 0.32445 0.0
H1998 H 0.54913 0.62974 0.33395 0.0
H1999 H 0.61576 0.66444 0.31965 0.0
S2000 S 0.62556 0.51621 0.34246 0.0
N2001 N 0.58218 0.52115 0.3476 0.0
N2002 N 0.65329 0.55768 0.33168 0.0
C2003 C 0.62727 0.57755 0.33183 0.0
C2004 C 0.58872 0.55769 0.34042 0.0
C2005 C 0.39193 0.03417 0.33971 0.0
C2006 C 0.39112 0.02702 0.32592 0.0
C2007 C 0.41411 0.01924 0.34832 0.0
C2008 C 0.43627 0.99679 0.34343 0.0
H2009 H 0.37494 0.05105 0.34387 0.0
H2010 H 0.41293 0.02421 0.35892 0.0
S2011 S 0.44551 0.97135 0.30816 0.0
N2012 N 0.41605 0.99783 0.30774 0.0
N2013 N 0.45704 0.96904 0.32399 0.0
C2014 C 0.43703 0.99082 0.32966 0.0
C2015 C 0.4147 0.00623 0.32088 0.0
C2016 C 0.99668 0.22708 0.25927 0.0
C2017 C 0.9704 0.18096 0.26291 0.0
C2018 C 0.02456 0.24061 0.2479 0.0
C2019 C 0.02828 0.20873 0.23993 0.0
H2020 H 0.99624 0.25313 0.26533 0.0
H2021 H 0.04378 0.27633 0.24544 0.0
S2022 S 0.96362 0.08372 0.24407 0.0
N2023 N 0.94765 0.10321 0.25673 0.0
N2024 N 1.00059 0.12889 0.23572 0.0
C2025 C 1.00145 0.16258 0.24321 0.0
C2026 C 0.9724 0.14865 0.25457 0.0
C2027 C 0.8379 0.84842 0.24567 0.0
C2028 C 0.79526 0.82066 0.2398 0.0
C2029 C 0.85185 0.83427 0.2569 0.0
C2030 C 0.82355 0.79196 0.26293 0.0
H2031 H 0.86135 0.88108 0.24138 0.0
H2032 H 0.88481 0.85735 0.26107 0.0
S2033 S 0.70831 0.70645 0.25156 0.0
N2034 N 0.72481 0.74852 0.24085 0.0
N2035 N 0.75056 0.72241 0.26217 0.0
C2036 C 0.78066 0.7639 0.25723 0.0
C2037 C 0.76667 0.77808 0.24564 0.0
C2038 C 0.15675 0.99037 0.24689 0.0
C2039 C 0.18498 0.97602 0.24103 0.0
C2040 C 0.17031 0.01809 0.25821 0.0
C2041 C 0.21244 0.03219 0.26433 0.0
H2042 H 0.12421 0.98109 0.24252 0.0
H2043 H 0.14695 0.02766 0.26236 0.0
S2044 S 0.29878 0.00335 0.25311 0.0
N2045 N 0.25721 0.97801 0.24224 0.0
N2046 N 0.2822 0.02914 0.26373 0.0
C2047 C 0.24089 0.01772 0.25867 0.0
C2048 C 0.22732 0.98996 0.24699 0.0
C2049 C 0.98935 0.83279 0.75783 0.0
C2050 C 0.97481 0.79028 0.76378 0.0
C2051 C 0.01714 0.84667 0.74653 0.0
C2052 C 0.03114 0.81843 0.74047 0.0
H2053 H 0.98007 0.85622 0.76209 0.0
H2054 H 0.02677 0.87956 0.74233 0.0
S2055 S 1.00237 0.70355 0.75202 0.0
N2056 N 0.97701 0.72008 0.76281 0.0
N2057 N 0.02808 0.74559 0.74129 0.0
C2058 C 0.01665 0.77563 0.74624 0.0
C2059 C 0.9889 0.76177 0.75794 0.0
C2060 C 0.2351 0.21817 0.75676 0.0
C2061 C 0.20299 0.18207 0.76452 0.0
C2062 C 0.22207 0.2326 0.74534 0.0
C2063 C 0.17623 0.21223 0.7414 0.0
H2064 H 0.27064 0.23495 0.75942 0.0
H2065 H 0.24838 0.25946 0.73944 0.0
S2066 S 0.07834 0.12057 0.75966 0.0
N2067 N 0.12309 0.12906 0.76828 0.0
N2068 N 0.09835 0.15644 0.7471 0.0
C2069 C 0.14361 0.17751 0.74954 0.0
C2070 C 0.15703 0.16235 0.76099 0.0
C2071 C 0.77683 0.00627 0.75864 0.0
C2072 C 0.82279 0.0325 0.76241 0.0
C2073 C 0.76371 0.97868 0.74723 0.0
C2074 C 0.79587 0.97528 0.73932 0.0
H2075 H 0.75053 0.00641 0.76465 0.0
H2076 H 0.7281 0.95938 0.74468 0.0
S2077 S 0.92069 0.04041 0.74373 0.0
N2078 N 0.90072 0.05586 0.7564 0.0
N2079 N 0.87586 0.00351 0.73526 0.0
C2080 C 0.8419 0.00223 0.74269 0.0
C2081 C 0.8554 0.03096 0.75413 0.0
C2082 C 0.65132 0.48693 0.59041 0.0
C2083 C 0.63654 0.51475 0.59635 0.0
C2084 C 0.67993 0.50134 0.57929 0.0
C2085 C 0.69456 0.54398 0.57342 0.0
H2086 H 0.64163 0.45398 0.59457 0.0
H2087 H 0.68971 0.47824 0.57506 0.0
S2088 S 0.66562 0.62991 0.58502 0.0
N2089 N 0.63922 0.5874 0.59556 0.0
N2090 N 0.69196 0.614 0.57441 0.0
C2091 C 0.67989 0.57214 0.57919 0.0
C2092 C 0.65124 0.5577 0.59068 0.0
C2093 C 0.44407 0.10335 0.59198 0.0
C2094 C 0.49009 0.12262 0.59565 0.0
C2095 C 0.43092 0.1182 0.58065 0.0
C2096 C 0.46312 0.15376 0.57275 0.0
H2097 H 0.41778 0.07703 0.59802 0.0
H2098 H 0.39527 0.10224 0.57819 0.0
S2099 S 0.58799 0.21237 0.57687 0.0
N2100 N 0.56805 0.17674 0.58949 0.0
N2101 N 0.54311 0.20501 0.56856 0.0
C2102 C 0.50917 0.17237 0.57601 0.0
C2103 C 0.52269 0.15672 0.58734 0.0
C2104 C 0.83547 0.34906 0.59033 0.0
C2105 C 0.87766 0.36335 0.59643 0.0
C2106 C 0.82197 0.32126 0.57902 0.0
C2107 C 0.85029 0.30701 0.57315 0.0
H2108 H 0.81202 0.35846 0.5945 0.0
H2109 H 0.78935 0.31177 0.57467 0.0
S2110 S 0.9646 0.33553 0.58508 0.0
N2111 N 0.94781 0.36107 0.59572 0.0
N2112 N 0.92291 0.30978 0.57427 0.0
C2113 C 0.8928 0.32138 0.57906 0.0
C2114 C 0.90632 0.34922 0.59072 0.0
C2115 C 0.64814 0.1113 0.07168 0.0
C2116 C 0.69475 0.14383 0.07231 0.0
C2117 C 0.62064 0.098 0.08311 0.0
C2118 C 0.63922 0.11563 0.09562 0.0
H2119 H 0.63239 0.0973 0.06218 0.0
H2120 H 0.58478 0.07395 0.08216 0.0
S2121 S 0.7592 0.20036 0.10279 0.0
N2122 N 0.75789 0.19309 0.08654 0.0
N2123 N 0.70701 0.16632 0.10808 0.0
C2124 C 0.68592 0.14708 0.09645 0.0
C2125 C 0.71351 0.16167 0.08479 0.0
C2126 C 0.88682 0.57472 0.08156 0.0
C2127 C 0.84488 0.54542 0.0755 0.0
C2128 C 0.90116 0.56166 0.093 0.0
C2129 C 0.87472 0.5183 0.09865 0.0
H2130 H 0.90892 0.60798 0.07739 0.0
H2131 H 0.93338 0.58568 0.0974 0.0
S2132 S 0.76231 0.42837 0.08646 0.0
N2133 N 0.77713 0.47087 0.07604 0.0
N2134 N 0.80414 0.44615 0.09726 0.0
C2135 C 0.83277 0.4886 0.09262 0.0
C2136 C 0.81782 0.50221 0.08116 0.0
C2137 C 0.50655 0.32539 0.07954 0.0
C2138 C 0.46463 0.31258 0.07345 0.0
C2139 C 0.52052 0.35222 0.09105 0.0
C2140 C 0.49296 0.36697 0.09714 0.0
H2141 H 0.52933 0.31525 0.07529 0.0
H2142 H 0.55272 0.36024 0.09541 0.0
S2143 S 0.3802 0.34339 0.08514 0.0
N2144 N 0.396 0.31765 0.07426 0.0
N2145 N 0.42173 0.36711 0.09608 0.0
C2146 C 0.45099 0.35461 0.09114 0.0
C2147 C 0.437 0.32775 0.07927 0.0
C2148 C 0.2845 0.85281 0.91723 0.0
C2149 C 0.30388 0.85834 0.92987 0.0
C2150 C 0.31167 0.86581 0.90575 0.0
C2151 C 0.35887 0.88312 0.90648 0.0
H2152 H 0.2482 0.83824 0.91622 0.0
H2153 H 0.29535 0.86071 0.89616 0.0
S2154 S 0.42568 0.90289 0.93724 0.0
N2155 N 0.37314 0.88285 0.9425 0.0
N2156 N 0.42352 0.90463 0.92087 0.0
C2157 C 0.37852 0.88844 0.91905 0.0
C2158 C 0.35117 0.87674 0.93076 0.0
C2159 C 0.10585 0.44831 0.91229 0.0
C2160 C 0.13516 0.48877 0.90553 0.0
C2161 C 0.11962 0.43562 0.92392 0.0
C2162 C 0.16367 0.46227 0.92914 0.0
H2163 H 0.07178 0.42647 0.90864 0.0
H2164 H 0.09525 0.40486 0.92895 0.0
S2165 S 0.25484 0.56971 0.91453 0.0
N2166 N 0.21116 0.5543 0.90455 0.0
N2167 N 0.23717 0.53034 0.92615 0.0
C2168 C 0.19377 0.50212 0.9222 0.0
C2169 C 0.17949 0.51541 0.91051 0.0
C2170 C 0.56813 0.67771 0.92395 0.0
C2171 C 0.53807 0.68699 0.93102 0.0
C2172 C 0.5543 0.65102 0.91236 0.0
C2173 C 0.50951 0.63155 0.90754 0.0
H2174 H 0.60283 0.69182 0.92727 0.0
H2175 H 0.5792 0.64622 0.90703 0.0
S2176 S 0.41629 0.64167 0.92334 0.0
N2177 N 0.46065 0.67205 0.93291 0.0
N2178 N 0.43448 0.62154 0.9114 0.0
C2179 C 0.47866 0.6391 0.91489 0.0
C2180 C 0.49298 0.66693 0.92652 0.0
C2181 C 0.35142 0.51868 0.41274 0.0
C2182 C 0.36645 0.4912 0.40672 0.0
C2183 C 0.32316 0.50401 0.42395 0.0
C2184 C 0.30916 0.46145 0.4298 0.0
H2185 H 0.36059 0.5515 0.40858 0.0
H2186 H 0.3131 0.52682 0.42824 0.0
S2187 S 0.33934 0.37658 0.41803 0.0
N2188 N 0.36498 0.41911 0.40747 0.0
N2189 N 0.31282 0.39201 0.42873 0.0
C2190 C 0.3242 0.43371 0.42396 0.0
C2191 C 0.35253 0.44842 0.41241 0.0
C2192 C 0.55449 0.90208 0.4132 0.0
C2193 C 0.51113 0.87517 0.40759 0.0
C2194 C 0.568 0.88817 0.42464 0.0
C2195 C 0.53917 0.84624 0.43078 0.0
H2196 H 0.57837 0.93416 0.40869 0.0
H2197 H 0.6014 0.91044 0.42867 0.0
S2198 S 0.42179 0.7632 0.42028 0.0
N2199 N 0.43909 0.80464 0.40934 0.0
N2200 N 0.46464 0.77846 0.43058 0.0
C2201 C 0.49572 0.81902 0.4253 0.0
C2202 C 0.48165 0.8335 0.41382 0.0
C2203 C 0.18126 0.68004 0.42481 0.0
C2204 C 0.15289 0.69383 0.4309 0.0
C2205 C 0.16748 0.65234 0.41348 0.0
C2206 C 0.12492 0.63763 0.40757 0.0
H2207 H 0.21422 0.68993 0.42897 0.0
H2208 H 0.19105 0.64341 0.40913 0.0
S2209 S 0.03757 0.66391 0.41959 0.0
N2210 N 0.07973 0.68998 0.43023 0.0
N2211 N 0.05428 0.63887 0.40874 0.0
C2212 C 0.09614 0.65116 0.41353 0.0
C2213 C 0.10996 0.67893 0.42521 0.0
loop_
_geom_bond_atom_site_label_1
_geom_bond_atom_site_label_2
_geom_bond_distance
_geom_bond_site_symmetry_2
_ccdc_geom_bond_type
Co0 O3 1.970 . S
Co0 N17 1.989 . S
Co0 O25 1.967 . S
Co0 O32 1.920 . S
Co1 O4 1.966 . S
Co1 N10 2.022 . S
Co1 N18 1.993 . S
Co1 O26 1.941 . S
C2 O3 1.258 . S
C2 O4 1.263 . S
O3 Co0 1.970 . S
O3 C2 1.258 . S
O4 Co1 1.966 . S
O4 C2 1.263 . S
C5 O6 1.235 . S
C5 O32 1.289 . S
O6 C5 1.235 . S
C7 C9 1.400 . S
C7 N10 1.351 . S
C7 C12 1.501 1_455 S
C8 C9 1.387 . S
C8 N11 1.341 . S
C9 C7 1.400 . S
C9 C8 1.387 . S
N10 Co1 2.022 . S
N10 C7 1.351 . S
N10 N11 1.365 . S
N11 C8 1.341 . S
N11 N10 1.365 . S
N11 H31 0.862 . S
C12 C7 1.501 1_655 S
C12 H13 0.961 . S
C12 H14 0.961 1_655 S
C12 H15 0.960 . S
H13 C12 0.961 . S
H14 C12 0.961 1_455 S
H15 C12 0.960 . S
C16 N17 1.342 . S
C16 C20 1.401 . S
C16 C21 1.499 . S
N17 Co0 1.989 . S
N17 C16 1.342 . S
N17 N18 1.388 . S
N18 Co1 1.993 . S
N18 N17 1.388 . S
N18 C19 1.346 . S
C19 N18 1.346 . S
C19 C20 1.396 . S
C19 C29 1.510 . S
C20 C16 1.401 . S
C20 C19 1.396 . S
C21 C16 1.499 . S
C21 H22 0.959 . S
C21 H23 0.960 . S
C21 H24 0.961 . S
H22 C21 0.959 . S
H23 C21 0.960 . S
H24 C21 0.961 . S
O25 Co0 1.967 . S
O25 C33 1.258 . S
O26 Co1 1.941 . S
O26 C33 1.266 . S
H27 C29 0.959 . S
H28 C29 0.961 . S
C29 C19 1.510 . S
C29 H27 0.959 . S
C29 H28 0.961 . S
C29 H30 0.960 . S
H30 C29 0.960 . S
H31 N11 0.862 . S
O32 Co0 1.920 . S
O32 C5 1.289 . S
C33 O25 1.258 . S
C33 O26 1.266 . S
Co34 O37 1.970 . S
Co34 N51 1.989 . S
Co34 O59 1.967 . S
Co34 O66 1.920 . S
Co35 O38 1.966 . S
Co35 N44 2.022 . S
Co35 N52 1.993 . S
Co35 O60 1.941 . S
C36 O37 1.258 . S
C36 O38 1.263 . S
O37 Co34 1.970 . S
O37 C36 1.258 . S
O38 Co35 1.966 . S
O38 C36 1.263 . S
C39 O40 1.231 1_545 S
C39 O66 1.276 1_545 S
O40 C39 1.231 1_565 S
C41 C43 1.400 . S
C41 N44 1.351 . S
C41 C46 1.501 . S
C42 C43 1.387 . S
C42 N45 1.341 . S
C43 C41 1.400 . S
C43 C42 1.387 . S
N44 Co35 2.022 . S
N44 C41 1.351 . S
N44 N45 1.365 . S
N45 C42 1.341 . S
N45 N44 1.365 . S
N45 H65 0.862 . S
C46 C41 1.501 . S
C46 H47 0.961 . S
C46 H48 0.961 . S
C46 H49 0.960 . S
H47 C46 0.961 . S
H48 C46 0.961 . S
H49 C46 0.960 . S
C50 N51 1.342 . S
C50 C54 1.401 . S
C50 C55 1.499 . S
N51 Co34 1.989 . S
N51 C50 1.342 . S
N51 N52 1.388 . S
N52 Co35 1.993 . S
N52 N51 1.388 . S
N52 C53 1.346 . S
C53 N52 1.346 . S
C53 C54 1.396 . S
C53 C63 1.510 . S
C54 C50 1.401 . S
C54 C53 1.396 . S
C55 C50 1.499 . S
C55 H56 0.959 . S
C55 H57 0.960 . S
C55 H58 0.961 . S
H56 C55 0.959 . S
H57 C55 0.960 . S
H58 C55 0.961 . S
O59 Co34 1.967 . S
O59 C67 1.258 . S
O60 Co35 1.941 . S
O60 C67 1.266 . S
H61 C63 0.959 . S
H62 C63 0.961 . S
C63 C53 1.510 . S
C63 H61 0.959 . S
C63 H62 0.961 . S
C63 H64 0.960 . S
H64 C63 0.960 . S
H65 N45 0.862 . S
O66 Co34 1.920 . S
O66 C39 1.276 1_565 S
C67 O59 1.258 . S
C67 O60 1.266 . S
Co68 O71 1.970 . S
Co68 N85 1.989 . S
Co68 O93 1.967 . S
Co68 O100 1.920 . S
Co69 O72 1.966 . S
Co69 N78 2.022 . S
Co69 N86 1.993 . S
Co69 O94 1.941 . S
C70 O71 1.258 . S
C70 O72 1.263 . S
O71 Co68 1.970 . S
O71 C70 1.258 . S
O72 Co69 1.966 . S
O72 C70 1.263 . S
C73 O74 1.235 1_655 S
C73 O100 1.268 1_655 S
O74 C73 1.235 1_455 S
C75 C77 1.400 . S
C75 N78 1.351 . S
C75 C80 1.501 1_565 S
C76 C77 1.387 . S
C76 N79 1.341 . S
C77 C75 1.400 . S
C77 C76 1.387 . S
N78 Co69 2.022 . S
N78 C75 1.351 . S
N78 N79 1.365 . S
N79 C76 1.341 . S
N79 N78 1.365 . S
N79 H99 0.862 . S
C80 C75 1.501 1_545 S
C80 H81 0.961 . S
C80 H82 0.961 1_545 S
C80 H83 0.960 . S
H81 C80 0.961 . S
H82 C80 0.961 1_565 S
H83 C80 0.960 . S
C84 N85 1.342 . S
C84 C88 1.401 . S
C84 C89 1.499 . S
N85 Co68 1.989 . S
N85 C84 1.342 . S
N85 N86 1.388 . S
N86 Co69 1.993 . S
N86 N85 1.388 . S
N86 C87 1.346 . S
C87 N86 1.346 . S
C87 C88 1.396 . S
C87 C97 1.510 . S
C88 C84 1.401 . S
C88 C87 1.396 . S
C89 C84 1.499 . S
C89 H90 0.959 . S
C89 H91 0.960 . S
C89 H92 0.961 . S
H90 C89 0.959 . S
H91 C89 0.960 . S
H92 C89 0.961 . S
O93 Co68 1.967 . S
O93 C101 1.258 . S
O94 Co69 1.941 . S
O94 C101 1.266 . S
H95 C97 0.959 . S
H96 C97 0.961 . S
C97 C87 1.510 . S
C97 H95 0.959 . S
C97 H96 0.961 . S
C97 H98 0.960 . S
H98 C97 0.960 . S
H99 N79 0.862 . S
O100 Co68 1.920 . S
O100 C73 1.268 1_455 S
C101 O93 1.258 . S
C101 O94 1.266 . S
Co102 O105 1.970 . S
Co102 N119 1.989 . S
Co102 O127 1.967 . S
Co102 O134 1.920 . S
Co103 O106 1.966 . S
Co103 N112 2.022 . S
Co103 N120 1.993 . S
Co103 O128 1.941 . S
C104 O105 1.258 . S
C104 O106 1.263 . S
O105 Co102 1.970 . S
O105 C104 1.258 . S
O106 Co103 1.966 . S
O106 C104 1.263 . S
C107 O108 1.235 . S
C107 O134 1.289 . S
O108 C107 1.235 . S
C109 C111 1.400 . S
C109 N112 1.351 . S
C109 C114 1.501 1_545 S
C110 C111 1.387 . S
C110 N113 1.341 . S
C111 C109 1.400 . S
C111 C110 1.387 . S
N112 Co103 2.022 . S
N112 C109 1.351 . S
N112 N113 1.365 . S
N113 C110 1.341 . S
N113 N112 1.365 . S
N113 H133 0.862 . S
C114 C109 1.501 1_565 S
C114 H115 0.961 . S
C114 H116 0.961 1_565 S
C114 H117 0.960 . S
H115 C114 0.961 . S
H116 C114 0.961 1_545 S
H117 C114 0.960 . S
C118 N119 1.342 . S
C118 C122 1.401 . S
C118 C123 1.499 . S
N119 Co102 1.989 . S
N119 C118 1.342 . S
N119 N120 1.388 . S
N120 Co103 1.993 . S
N120 N119 1.388 . S
N120 C121 1.346 . S
C121 N120 1.346 . S
C121 C122 1.396 . S
C121 C131 1.510 . S
C122 C118 1.401 . S
C122 C121 1.396 . S
C123 C118 1.499 . S
C123 H124 0.959 . S
C123 H125 0.960 . S
C123 H126 0.961 . S
H124 C123 0.959 . S
H125 C123 0.960 . S
H126 C123 0.961 . S
O127 Co102 1.967 . S
O127 C135 1.258 . S
O128 Co103 1.941 . S
O128 C135 1.266 . S
H129 C131 0.959 . S
H130 C131 0.961 . S
C131 C121 1.510 . S
C131 H129 0.959 . S
C131 H130 0.961 . S
C131 H132 0.960 . S
H132 C131 0.960 . S
H133 N113 0.862 . S
O134 Co102 1.920 . S
O134 C107 1.289 . S
C135 O127 1.258 . S
C135 O128 1.266 . S
Co136 O139 1.970 . S
Co136 N153 1.989 . S
Co136 O161 1.967 . S
Co136 O168 1.920 . S
Co137 O140 1.966 . S
Co137 N146 2.022 . S
Co137 N154 1.993 . S
Co137 O162 1.941 . S
C138 O139 1.258 . S
C138 O140 1.263 . S
O139 Co136 1.970 . S
O139 C138 1.258 . S
O140 Co137 1.966 . S
O140 C138 1.263 . S
C141 O142 1.235 1_565 S
C141 O168 1.269 1_565 S
O142 C141 1.235 1_545 S
C143 C145 1.400 . S
C143 N146 1.351 . S
C143 C148 1.501 1_655 S
C144 C145 1.387 . S
C144 N147 1.341 . S
C145 C143 1.400 . S
C145 C144 1.387 . S
N146 Co137 2.022 . S
N146 C143 1.351 . S
N146 N147 1.365 . S
N147 C144 1.341 . S
N147 N146 1.365 . S
N147 H167 0.862 . S
C148 C143 1.501 1_455 S
C148 H149 0.961 . S
C148 H150 0.961 1_455 S
C148 H151 0.960 . S
H149 C148 0.961 . S
H150 C148 0.961 1_655 S
H151 C148 0.960 . S
C152 N153 1.342 . S
C152 C156 1.401 . S
C152 C157 1.499 . S
N153 Co136 1.989 . S
N153 C152 1.342 . S
N153 N154 1.388 . S
N154 Co137 1.993 . S
N154 N153 1.388 . S
N154 C155 1.346 . S
C155 N154 1.346 . S
C155 C156 1.396 . S
C155 C165 1.510 . S
C156 C152 1.401 . S
C156 C155 1.396 . S
C157 C152 1.499 . S
C157 H158 0.959 . S
C157 H159 0.960 . S
C157 H160 0.961 . S
H158 C157 0.959 . S
H159 C157 0.960 . S
H160 C157 0.961 . S
O161 Co136 1.967 . S
O161 C169 1.258 . S
O162 Co137 1.941 . S
O162 C169 1.266 . S
H163 C165 0.959 . S
H164 C165 0.961 . S
C165 C155 1.510 . S
C165 H163 0.959 . S
C165 H164 0.961 . S
C165 H166 0.960 . S
H166 C165 0.960 . S
H167 N147 0.862 . S
O168 Co136 1.920 . S
O168 C141 1.269 1_545 S
C169 O161 1.258 . S
C169 O162 1.266 . S
Co170 O173 1.970 . S
Co170 N187 1.989 . S
Co170 O195 1.967 . S
Co170 O202 1.920 . S
Co171 O174 1.966 . S
Co171 N180 2.022 . S
Co171 N188 1.993 . S
Co171 O196 1.941 . S
C172 O173 1.258 . S
C172 O174 1.263 . S
O173 Co170 1.970 . S
O173 C172 1.258 . S
O174 Co171 1.966 . S
O174 C172 1.263 . S
C175 O176 1.231 1_455 S
C175 O202 1.275 1_455 S
O176 C175 1.231 1_655 S
C177 C179 1.400 . S
C177 N180 1.351 . S
C177 C182 1.501 . S
C178 C179 1.387 . S
C178 N181 1.341 . S
C179 C177 1.400 . S
C179 C178 1.387 . S
N180 Co171 2.022 . S
N180 C177 1.351 . S
N180 N181 1.365 . S
N181 C178 1.341 . S
N181 N180 1.365 . S
N181 H201 0.862 . S
C182 C177 1.501 . S
C182 H183 0.961 . S
C182 H184 0.961 . S
C182 H185 0.960 . S
H183 C182 0.961 . S
H184 C182 0.961 . S
H185 C182 0.960 . S
C186 N187 1.342 . S
C186 C190 1.401 . S
C186 C191 1.499 . S
N187 Co170 1.989 . S
N187 C186 1.342 . S
N187 N188 1.388 . S
N188 Co171 1.993 . S
N188 N187 1.388 . S
N188 C189 1.346 . S
C189 N188 1.346 . S
C189 C190 1.396 . S
C189 C199 1.510 . S
C190 C186 1.401 . S
C190 C189 1.396 . S
C191 C186 1.499 . S
C191 H192 0.959 . S
C191 H193 0.960 . S
C191 H194 0.961 . S
H192 C191 0.959 . S
H193 C191 0.960 . S
H194 C191 0.961 . S
O195 Co170 1.967 . S
O195 C203 1.258 . S
O196 Co171 1.941 . S
O196 C203 1.266 . S
H197 C199 0.959 . S
H198 C199 0.961 . S
C199 C189 1.510 . S
C199 H197 0.959 . S
C199 H198 0.961 . S
C199 H200 0.960 . S
H200 C199 0.960 . S
H201 N181 0.862 . S
O202 Co170 1.920 . S
O202 C175 1.275 1_655 S
C203 O195 1.258 . S
C203 O196 1.266 . S
Co204 O207 1.970 . S
Co204 N221 1.989 . S
Co204 O229 1.967 . S
Co204 O236 1.920 . S
Co205 O208 1.966 . S
Co205 N214 2.022 . S
Co205 N222 1.993 . S
Co205 O230 1.941 . S
C206 O207 1.258 . S
C206 O208 1.263 . S
O207 Co204 1.970 . S
O207 C206 1.258 . S
O208 Co205 1.966 . S
O208 C206 1.263 . S
C209 O210 1.235 . S
C209 O236 1.289 . S
O210 C209 1.235 . S
C211 C213 1.400 . S
C211 N214 1.351 . S
C211 C216 1.501 1_655 S
C212 C213 1.387 . S
C212 N215 1.341 . S
C213 C211 1.400 . S
C213 C212 1.387 . S
N214 Co205 2.022 . S
N214 C211 1.351 . S
N214 N215 1.365 . S
N215 C212 1.341 . S
N215 N214 1.365 . S
N215 H235 0.862 . S
C216 C211 1.501 1_455 S
C216 H217 0.961 . S
C216 H218 0.961 1_455 S
C216 H219 0.960 . S
H217 C216 0.961 . S
H218 C216 0.961 1_655 S
H219 C216 0.960 . S
C220 N221 1.342 . S
C220 C224 1.401 . S
C220 C225 1.499 . S
N221 Co204 1.989 . S
N221 C220 1.342 . S
N221 N222 1.388 . S
N222 Co205 1.993 . S
N222 N221 1.388 . S
N222 C223 1.346 . S
C223 N222 1.346 . S
C223 C224 1.396 . S
C223 C233 1.510 . S
C224 C220 1.401 . S
C224 C223 1.396 . S
C225 C220 1.499 . S
C225 H226 0.959 . S
C225 H227 0.960 . S
C225 H228 0.961 . S
H226 C225 0.959 . S
H227 C225 0.960 . S
H228 C225 0.961 . S
O229 Co204 1.967 . S
O229 C237 1.258 . S
O230 Co205 1.941 . S
O230 C237 1.266 . S
H231 C233 0.959 . S
H232 C233 0.961 . S
C233 C223 1.510 . S
C233 H231 0.959 . S
C233 H232 0.961 . S
C233 H234 0.960 . S
H234 C233 0.960 . S
H235 N215 0.862 . S
O236 Co204 1.920 . S
O236 C209 1.289 . S
C237 O229 1.258 . S
C237 O230 1.266 . S
Co238 O241 1.970 . S
Co238 N255 1.989 . S
Co238 O263 1.967 . S
Co238 O270 1.920 . S
Co239 O242 1.966 . S
Co239 N248 2.022 . S
Co239 N256 1.993 . S
Co239 O264 1.941 . S
C240 O241 1.258 . S
C240 O242 1.263 . S
O241 Co238 1.970 . S
O241 C240 1.258 . S
O242 Co239 1.966 . S
O242 C240 1.263 . S
C243 O244 1.231 1_565 S
C243 O270 1.276 1_565 S
O244 C243 1.231 1_545 S
C245 C247 1.400 . S
C245 N248 1.351 . S
C245 C250 1.501 . S
C246 C247 1.387 . S
C246 N249 1.341 . S
C247 C245 1.400 . S
C247 C246 1.387 . S
N248 Co239 2.022 . S
N248 C245 1.351 . S
N248 N249 1.365 . S
N249 C246 1.341 . S
N249 N248 1.365 . S
N249 H269 0.862 . S
C250 C245 1.501 . S
C250 H251 0.961 . S
C250 H252 0.961 . S
C250 H253 0.960 . S
H251 C250 0.961 . S
H252 C250 0.961 . S
H253 C250 0.960 . S
C254 N255 1.342 . S
C254 C258 1.401 . S
C254 C259 1.499 . S
N255 Co238 1.989 . S
N255 C254 1.342 . S
N255 N256 1.388 . S
N256 Co239 1.993 . S
N256 N255 1.388 . S
N256 C257 1.346 . S
C257 N256 1.346 . S
C257 C258 1.396 . S
C257 C267 1.510 . S
C258 C254 1.401 . S
C258 C257 1.396 . S
C259 C254 1.499 . S
C259 H260 0.959 . S
C259 H261 0.960 . S
C259 H262 0.961 . S
H260 C259 0.959 . S
H261 C259 0.960 . S
H262 C259 0.961 . S
O263 Co238 1.967 . S
O263 C271 1.258 . S
O264 Co239 1.941 . S
O264 C271 1.266 . S
H265 C267 0.959 . S
H266 C267 0.961 . S
C267 C257 1.510 . S
C267 H265 0.959 . S
C267 H266 0.961 . S
C267 H268 0.960 . S
H268 C267 0.960 . S
H269 N249 0.862 . S
O270 Co238 1.920 . S
O270 C243 1.276 1_545 S
C271 O263 1.258 . S
C271 O264 1.266 . S
Co272 O275 1.970 . S
Co272 N289 1.989 . S
Co272 O297 1.967 . S
Co272 O304 1.920 . S
Co273 O276 1.966 . S
Co273 N282 2.022 . S
Co273 N290 1.993 . S
Co273 O298 1.941 . S
C274 O275 1.258 . S
C274 O276 1.263 . S
O275 Co272 1.970 . S
O275 C274 1.258 . S
O276 Co273 1.966 . S
O276 C274 1.263 . S
C277 O278 1.235 1_455 S
C277 O304 1.268 1_455 S
O278 C277 1.235 1_655 S
C279 C281 1.400 . S
C279 N282 1.351 . S
C279 C284 1.501 1_545 S
C280 C281 1.387 . S
C280 N283 1.341 . S
C281 C279 1.400 . S
C281 C280 1.387 . S
N282 Co273 2.022 . S
N282 C279 1.351 . S
N282 N283 1.365 . S
N283 C280 1.341 . S
N283 N282 1.365 . S
N283 H303 0.862 . S
C284 C279 1.501 1_565 S
C284 H285 0.961 . S
C284 H286 0.961 1_565 S
C284 H287 0.960 . S
H285 C284 0.961 . S
H286 C284 0.961 1_545 S
H287 C284 0.960 . S
C288 N289 1.342 . S
C288 C292 1.401 . S
C288 C293 1.499 . S
N289 Co272 1.989 . S
N289 C288 1.342 . S
N289 N290 1.388 . S
N290 Co273 1.993 . S
N290 N289 1.388 . S
N290 C291 1.346 . S
C291 N290 1.346 . S
C291 C292 1.396 . S
C291 C301 1.510 . S
C292 C288 1.401 . S
C292 C291 1.396 . S
C293 C288 1.499 . S
C293 H294 0.959 . S
C293 H295 0.960 . S
C293 H296 0.961 . S
H294 C293 0.959 . S
H295 C293 0.960 . S
H296 C293 0.961 . S
O297 Co272 1.967 . S
O297 C305 1.258 . S
O298 Co273 1.941 . S
O298 C305 1.266 . S
H299 C301 0.959 . S
H300 C301 0.961 . S
C301 C291 1.510 . S
C301 H299 0.959 . S
C301 H300 0.961 . S
C301 H302 0.960 . S
H302 C301 0.960 . S
H303 N283 0.862 . S
O304 Co272 1.920 . S
O304 C277 1.268 1_655 S
C305 O297 1.258 . S
C305 O298 1.266 . S
Co306 O309 1.970 . S
Co306 N323 1.989 . S
Co306 O331 1.967 . S
Co306 O338 1.920 . S
Co307 O310 1.966 . S
Co307 N316 2.022 . S
Co307 N324 1.993 . S
Co307 O332 1.941 . S
C308 O309 1.258 . S
C308 O310 1.263 . S
O309 Co306 1.970 . S
O309 C308 1.258 . S
O310 Co307 1.966 . S
O310 C308 1.263 . S
C311 O312 1.235 . S
C311 O338 1.289 . S
O312 C311 1.235 . S
C313 C315 1.400 . S
C313 N316 1.351 . S
C313 C318 1.501 1_565 S
C314 C315 1.387 . S
C314 N317 1.341 . S
C315 C313 1.400 . S
C315 C314 1.387 . S
N316 Co307 2.022 . S
N316 C313 1.351 . S
N316 N317 1.365 . S
N317 C314 1.341 . S
N317 N316 1.365 . S
N317 H337 0.862 . S
C318 C313 1.501 1_545 S
C318 H319 0.961 . S
C318 H320 0.961 1_545 S
C318 H321 0.960 . S
H319 C318 0.961 . S
H320 C318 0.961 1_565 S
H321 C318 0.960 . S
C322 N323 1.342 . S
C322 C326 1.401 . S
C322 C327 1.499 . S
N323 Co306 1.989 . S
N323 C322 1.342 . S
N323 N324 1.388 . S
N324 Co307 1.993 . S
N324 N323 1.388 . S
N324 C325 1.346 . S
C325 N324 1.346 . S
C325 C326 1.396 . S
C325 C335 1.510 . S
C326 C322 1.401 . S
C326 C325 1.396 . S
C327 C322 1.499 . S
C327 H328 0.959 . S
C327 H329 0.960 . S
C327 H330 0.961 . S
H328 C327 0.959 . S
H329 C327 0.960 . S
H330 C327 0.961 . S
O331 Co306 1.967 . S
O331 C339 1.258 . S
O332 Co307 1.941 . S
O332 C339 1.266 . S
H333 C335 0.959 . S
H334 C335 0.961 . S
C335 C325 1.510 . S
C335 H333 0.959 . S
C335 H334 0.961 . S
C335 H336 0.960 . S
H336 C335 0.960 . S
H337 N317 0.862 . S
O338 Co306 1.920 . S
O338 C311 1.289 . S
C339 O331 1.258 . S
C339 O332 1.266 . S
Co340 O343 1.970 . S
Co340 N357 1.989 . S
Co340 O365 1.967 . S
Co340 O372 1.920 . S
Co341 O344 1.966 . S
Co341 N350 2.022 . S
Co341 N358 1.993 . S
Co341 O366 1.941 . S
C342 O343 1.258 . S
C342 O344 1.263 . S
O343 Co340 1.970 . S
O343 C342 1.258 . S
O344 Co341 1.966 . S
O344 C342 1.263 . S
C345 O346 1.235 1_545 S
C345 O372 1.269 1_545 S
O346 C345 1.235 1_565 S
C347 C349 1.400 . S
C347 N350 1.351 . S
C347 C352 1.501 1_455 S
C348 C349 1.387 . S
C348 N351 1.341 . S
C349 C347 1.400 . S
C349 C348 1.387 . S
N350 Co341 2.022 . S
N350 C347 1.351 . S
N350 N351 1.365 . S
N351 C348 1.341 . S
N351 N350 1.365 . S
N351 H371 0.862 . S
C352 C347 1.501 1_655 S
C352 H353 0.961 . S
C352 H354 0.961 1_655 S
C352 H355 0.960 . S
H353 C352 0.961 . S
H354 C352 0.961 1_455 S
H355 C352 0.960 . S
C356 N357 1.342 . S
C356 C360 1.401 . S
C356 C361 1.499 . S
N357 Co340 1.989 . S
N357 C356 1.342 . S
N357 N358 1.388 . S
N358 Co341 1.993 . S
N358 N357 1.388 . S
N358 C359 1.346 . S
C359 N358 1.346 . S
C359 C360 1.396 . S
C359 C369 1.510 . S
C360 C356 1.401 . S
C360 C359 1.396 . S
C361 C356 1.499 . S
C361 H362 0.959 . S
C361 H363 0.960 . S
C361 H364 0.961 . S
H362 C361 0.959 . S
H363 C361 0.960 . S
H364 C361 0.961 . S
O365 Co340 1.967 . S
O365 C373 1.258 . S
O366 Co341 1.941 . S
O366 C373 1.266 . S
H367 C369 0.959 . S
H368 C369 0.961 . S
C369 C359 1.510 . S
C369 H367 0.959 . S
C369 H368 0.961 . S
C369 H370 0.960 . S
H370 C369 0.960 . S
H371 N351 0.862 . S
O372 Co340 1.920 . S
O372 C345 1.269 1_565 S
C373 O365 1.258 . S
C373 O366 1.266 . S
Co374 O377 1.970 . S
Co374 N391 1.989 . S
Co374 O399 1.967 . S
Co374 O406 1.920 . S
Co375 O378 1.966 . S
Co375 N384 2.022 . S
Co375 N392 1.993 . S
Co375 O400 1.941 . S
C376 O377 1.258 . S
C376 O378 1.263 . S
O377 Co374 1.970 . S
O377 C376 1.258 . S
O378 Co375 1.966 . S
O378 C376 1.263 . S
C379 O380 1.231 1_655 S
C379 O406 1.275 1_655 S
O380 C379 1.231 1_455 S
C381 C383 1.400 . S
C381 N384 1.351 . S
C381 C386 1.501 . S
C382 C383 1.387 . S
C382 N385 1.341 . S
C383 C381 1.400 . S
C383 C382 1.387 . S
N384 Co375 2.022 . S
N384 C381 1.351 . S
N384 N385 1.365 . S
N385 C382 1.341 . S
N385 N384 1.365 . S
N385 H405 0.862 . S
C386 C381 1.501 . S
C386 H387 0.961 . S
C386 H388 0.961 . S
C386 H389 0.960 . S
H387 C386 0.961 . S
H388 C386 0.961 . S
H389 C386 0.960 . S
C390 N391 1.342 . S
C390 C394 1.401 . S
C390 C395 1.499 . S
N391 Co374 1.989 . S
N391 C390 1.342 . S
N391 N392 1.388 . S
N392 Co375 1.993 . S
N392 N391 1.388 . S
N392 C393 1.346 . S
C393 N392 1.346 . S
C393 C394 1.396 . S
C393 C403 1.510 . S
C394 C390 1.401 . S
C394 C393 1.396 . S
C395 C390 1.499 . S
C395 H396 0.959 . S
C395 H397 0.960 . S
C395 H398 0.961 . S
H396 C395 0.959 . S
H397 C395 0.960 . S
H398 C395 0.961 . S
O399 Co374 1.967 . S
O399 C407 1.258 . S
O400 Co375 1.941 . S
O400 C407 1.266 . S
H401 C403 0.959 . S
H402 C403 0.961 . S
C403 C393 1.510 . S
C403 H401 0.959 . S
C403 H402 0.961 . S
C403 H404 0.960 . S
H404 C403 0.960 . S
H405 N385 0.862 . S
O406 Co374 1.920 . S
O406 C379 1.275 1_455 S
C407 O399 1.258 . S
C407 O400 1.266 . S
Co408 O411 1.970 . S
Co408 N425 1.989 . S
Co408 O433 1.967 . S
Co408 O440 1.920 . S
Co409 O412 1.966 . S
Co409 N418 2.022 . S
Co409 N426 1.993 . S
Co409 O434 1.941 . S
C410 O411 1.258 . S
C410 O412 1.263 . S
O411 Co408 1.970 . S
O411 C410 1.258 . S
O412 Co409 1.966 . S
O412 C410 1.263 . S
C413 O414 1.235 . S
C413 O440 1.289 . S
O414 C413 1.235 . S
C415 C417 1.400 . S
C415 N418 1.351 . S
C415 C420 1.501 . S
C416 C417 1.387 . S
C416 N419 1.341 . S
C417 C415 1.400 . S
C417 C416 1.387 . S
N418 Co409 2.022 . S
N418 C415 1.351 . S
N418 N419 1.365 . S
N419 C416 1.341 . S
N419 N418 1.365 . S
N419 H439 0.862 . S
C420 C415 1.501 . S
C420 H421 0.961 . S
C420 H422 0.961 . S
C420 H423 0.960 . S
H421 C420 0.961 . S
H422 C420 0.961 . S
H423 C420 0.960 . S
C424 N425 1.342 . S
C424 C428 1.401 . S
C424 C429 1.499 . S
N425 Co408 1.989 . S
N425 C424 1.342 . S
N425 N426 1.388 . S
N426 Co409 1.993 . S
N426 N425 1.388 . S
N426 C427 1.346 . S
C427 N426 1.346 . S
C427 C428 1.396 . S
C427 C437 1.510 . S
C428 C424 1.401 . S
C428 C427 1.396 . S
C429 C424 1.499 . S
C429 H430 0.959 . S
C429 H431 0.960 . S
C429 H432 0.961 . S
H430 C429 0.959 . S
H431 C429 0.960 . S
H432 C429 0.961 . S
O433 Co408 1.967 . S
O433 C441 1.258 . S
O434 Co409 1.941 . S
O434 C441 1.266 . S
H435 C437 0.959 . S
H436 C437 0.961 . S
C437 C427 1.510 . S
C437 H435 0.959 . S
C437 H436 0.961 . S
C437 H438 0.960 . S
H438 C437 0.960 . S
H439 N419 0.862 . S
O440 Co408 1.920 . S
O440 C413 1.289 . S
C441 O433 1.258 . S
C441 O434 1.266 . S
Co442 O445 1.970 . S
Co442 N459 1.989 . S
Co442 O467 1.967 . S
Co442 O474 1.920 . S
Co443 O446 1.966 . S
Co443 N452 2.022 . S
Co443 N460 1.993 . S
Co443 O468 1.941 . S
C444 O445 1.258 . S
C444 O446 1.263 . S
O445 Co442 1.970 . S
O445 C444 1.258 . S
O446 Co443 1.966 . S
O446 C444 1.263 . S
C447 O448 1.235 . S
C447 O474 1.289 . S
O448 C447 1.235 . S
C449 C451 1.400 . S
C449 N452 1.351 . S
C449 C454 1.501 . S
C450 C451 1.387 . S
C450 N453 1.341 . S
C451 C449 1.400 . S
C451 C450 1.387 . S
N452 Co443 2.022 . S
N452 C449 1.351 . S
N452 N453 1.365 . S
N453 C450 1.341 . S
N453 N452 1.365 . S
N453 H473 0.862 . S
C454 C449 1.501 . S
C454 H455 0.961 . S
C454 H456 0.961 . S
C454 H457 0.960 . S
H455 C454 0.961 . S
H456 C454 0.961 . S
H457 C454 0.960 . S
C458 N459 1.342 . S
C458 C462 1.401 . S
C458 C463 1.499 . S
N459 Co442 1.989 . S
N459 C458 1.342 . S
N459 N460 1.388 . S
N460 Co443 1.993 . S
N460 N459 1.388 . S
N460 C461 1.346 . S
C461 N460 1.346 . S
C461 C462 1.396 . S
C461 C471 1.510 . S
C462 C458 1.401 . S
C462 C461 1.396 . S
C463 C458 1.499 . S
C463 H464 0.959 . S
C463 H465 0.960 . S
C463 H466 0.961 . S
H464 C463 0.959 . S
H465 C463 0.960 . S
H466 C463 0.961 . S
O467 Co442 1.967 . S
O467 C475 1.258 . S
O468 Co443 1.941 . S
O468 C475 1.266 . S
H469 C471 0.959 . S
H470 C471 0.961 . S
C471 C461 1.510 . S
C471 H469 0.959 . S
C471 H470 0.961 . S
C471 H472 0.960 . S
H472 C471 0.960 . S
H473 N453 0.862 . S
O474 Co442 1.920 . S
O474 C447 1.289 . S
C475 O467 1.258 . S
C475 O468 1.266 . S
Co476 O479 1.970 . S
Co476 N493 1.989 . S
Co476 O501 1.967 . S
Co476 O508 1.920 . S
Co477 O480 1.966 . S
Co477 N486 2.022 . S
Co477 N494 1.993 . S
Co477 O502 1.941 . S
C478 O479 1.258 . S
C478 O480 1.263 . S
O479 Co476 1.970 . S
O479 C478 1.258 . S
O480 Co477 1.966 . S
O480 C478 1.263 . S
C481 O482 1.235 . S
C481 O508 1.289 . S
O482 C481 1.235 . S
C483 C485 1.400 . S
C483 N486 1.351 . S
C483 C488 1.501 . S
C484 C485 1.387 . S
C484 N487 1.341 . S
C485 C483 1.400 . S
C485 C484 1.387 . S
N486 Co477 2.022 . S
N486 C483 1.351 . S
N486 N487 1.365 . S
N487 C484 1.341 . S
N487 N486 1.365 . S
N487 H507 0.862 . S
C488 C483 1.501 . S
C488 H489 0.961 . S
C488 H490 0.961 . S
C488 H491 0.960 . S
H489 C488 0.961 . S
H490 C488 0.961 . S
H491 C488 0.960 . S
C492 N493 1.342 . S
C492 C496 1.401 . S
C492 C497 1.499 . S
N493 Co476 1.989 . S
N493 C492 1.342 . S
N493 N494 1.388 . S
N494 Co477 1.993 . S
N494 N493 1.388 . S
N494 C495 1.346 . S
C495 N494 1.346 . S
C495 C496 1.396 . S
C495 C505 1.510 . S
C496 C492 1.401 . S
C496 C495 1.396 . S
C497 C492 1.499 . S
C497 H498 0.959 . S
C497 H499 0.960 . S
C497 H500 0.961 . S
H498 C497 0.959 . S
H499 C497 0.960 . S
H500 C497 0.961 . S
O501 Co476 1.967 . S
O501 C509 1.258 . S
O502 Co477 1.941 . S
O502 C509 1.266 . S
H503 C505 0.959 . S
H504 C505 0.961 . S
C505 C495 1.510 . S
C505 H503 0.959 . S
C505 H504 0.961 . S
C505 H506 0.960 . S
H506 C505 0.960 . S
H507 N487 0.862 . S
O508 Co476 1.920 . S
O508 C481 1.289 . S
C509 O501 1.258 . S
C509 O502 1.266 . S
Co510 O513 1.970 . S
Co510 N527 1.989 . S
Co510 O535 1.967 . S
Co510 O542 1.920 . S
Co511 O514 1.966 . S
Co511 N520 2.022 . S
Co511 N528 1.993 . S
Co511 O536 1.941 . S
C512 O513 1.258 . S
C512 O514 1.263 . S
O513 Co510 1.970 . S
O513 C512 1.258 . S
O514 Co511 1.966 . S
O514 C512 1.263 . S
C515 O516 1.235 . S
C515 O542 1.289 . S
O516 C515 1.235 . S
C517 C519 1.400 1_655 S
C517 N520 1.351 . S
C517 C522 1.501 . S
C518 C519 1.387 . S
C518 N521 1.341 . S
C519 C517 1.400 1_455 S
C519 C518 1.387 . S
N520 Co511 2.022 . S
N520 C517 1.351 . S
N520 N521 1.365 1_655 S
N521 C518 1.341 . S
N521 N520 1.365 1_455 S
N521 H541 0.862 . S
C522 C517 1.501 . S
C522 H523 0.961 . S
C522 H524 0.961 . S
C522 H525 0.960 . S
H523 C522 0.961 . S
H524 C522 0.961 . S
H525 C522 0.960 . S
C526 N527 1.342 . S
C526 C530 1.401 . S
C526 C531 1.499 . S
N527 Co510 1.989 . S
N527 C526 1.342 . S
N527 N528 1.388 . S
N528 Co511 1.993 . S
N528 N527 1.388 . S
N528 C529 1.346 . S
C529 N528 1.346 . S
C529 C530 1.396 . S
C529 C539 1.510 1_655 S
C530 C526 1.401 . S
C530 C529 1.396 . S
C531 C526 1.499 . S
C531 H532 0.959 . S
C531 H533 0.960 . S
C531 H534 0.961 . S
H532 C531 0.959 . S
H533 C531 0.960 . S
H534 C531 0.961 . S
O535 Co510 1.967 . S
O535 C543 1.258 . S
O536 Co511 1.941 . S
O536 C543 1.266 . S
H537 C539 0.959 . S
H538 C539 0.961 . S
C539 C529 1.510 1_455 S
C539 H537 0.959 . S
C539 H538 0.961 . S
C539 H540 0.960 . S
H540 C539 0.960 . S
H541 N521 0.862 . S
O542 Co510 1.920 . S
O542 C515 1.289 . S
C543 O535 1.258 . S
C543 O536 1.266 . S
Co544 O547 1.970 . S
Co544 N561 1.989 . S
Co544 O569 1.967 . S
Co544 O576 1.920 . S
Co545 O548 1.966 . S
Co545 N554 2.022 . S
Co545 N562 1.993 . S
Co545 O570 1.941 . S
C546 O547 1.258 . S
C546 O548 1.263 . S
O547 Co544 1.970 . S
O547 C546 1.258 . S
O548 Co545 1.966 . S
O548 C546 1.263 . S
C549 O550 1.235 . S
C549 O576 1.289 . S
O550 C549 1.235 . S
C551 C553 1.400 . S
C551 N554 1.351 . S
C551 C556 1.501 . S
C552 C553 1.387 . S
C552 N555 1.341 . S
C553 C551 1.400 . S
C553 C552 1.387 . S
N554 Co545 2.022 . S
N554 C551 1.351 . S
N554 N555 1.365 . S
N555 C552 1.341 . S
N555 N554 1.365 . S
N555 H575 0.862 . S
C556 C551 1.501 . S
C556 H557 0.961 . S
C556 H558 0.961 . S
C556 H559 0.960 . S
H557 C556 0.961 . S
H558 C556 0.961 . S
H559 C556 0.960 . S
C560 N561 1.342 . S
C560 C564 1.401 . S
C560 C565 1.499 . S
N561 Co544 1.989 . S
N561 C560 1.342 . S
N561 N562 1.388 . S
N562 Co545 1.993 . S
N562 N561 1.388 . S
N562 C563 1.346 . S
C563 N562 1.346 . S
C563 C564 1.396 . S
C563 C573 1.510 . S
C564 C560 1.401 . S
C564 C563 1.396 . S
C565 C560 1.499 . S
C565 H566 0.959 . S
C565 H567 0.960 . S
C565 H568 0.961 . S
H566 C565 0.959 . S
H567 C565 0.960 . S
H568 C565 0.961 . S
O569 Co544 1.967 . S
O569 C577 1.258 . S
O570 Co545 1.941 . S
O570 C577 1.266 . S
H571 C573 0.959 . S
H572 C573 0.961 . S
C573 C563 1.510 . S
C573 H571 0.959 . S
C573 H572 0.961 . S
C573 H574 0.960 . S
H574 C573 0.960 . S
H575 N555 0.862 . S
O576 Co544 1.920 . S
O576 C549 1.289 . S
C577 O569 1.258 . S
C577 O570 1.266 . S
Co578 O581 1.970 . S
Co578 N595 1.989 . S
Co578 O603 1.967 . S
Co578 O610 1.920 . S
Co579 O582 1.966 . S
Co579 N588 2.022 . S
Co579 N596 1.993 . S
Co579 O604 1.941 . S
C580 O581 1.258 . S
C580 O582 1.263 . S
O581 Co578 1.970 . S
O581 C580 1.258 . S
O582 Co579 1.966 . S
O582 C580 1.263 . S
C583 O584 1.235 . S
C583 O610 1.289 . S
O584 C583 1.235 . S
C585 C587 1.400 1_545 S
C585 N588 1.351 . S
C585 C590 1.501 . S
C586 C587 1.387 . S
C586 N589 1.341 . S
C587 C585 1.400 1_565 S
C587 C586 1.387 . S
N588 Co579 2.022 . S
N588 C585 1.351 . S
N588 N589 1.365 1_545 S
N589 C586 1.341 . S
N589 N588 1.365 1_565 S
N589 H609 0.862 . S
C590 C585 1.501 . S
C590 H591 0.961 . S
C590 H592 0.961 . S
C590 H593 0.960 . S
H591 C590 0.961 . S
H592 C590 0.961 . S
H593 C590 0.960 . S
C594 N595 1.342 . S
C594 C598 1.401 . S
C594 C599 1.499 . S
N595 Co578 1.989 . S
N595 C594 1.342 . S
N595 N596 1.388 . S
N596 Co579 1.993 . S
N596 N595 1.388 . S
N596 C597 1.346 . S
C597 N596 1.346 . S
C597 C598 1.396 . S
C597 C607 1.510 1_545 S
C598 C594 1.401 . S
C598 C597 1.396 . S
C599 C594 1.499 . S
C599 H600 0.959 . S
C599 H601 0.960 . S
C599 H602 0.961 . S
H600 C599 0.959 . S
H601 C599 0.960 . S
H602 C599 0.961 . S
O603 Co578 1.967 . S
O603 C611 1.258 . S
O604 Co579 1.941 . S
O604 C611 1.266 . S
H605 C607 0.959 . S
H606 C607 0.961 . S
C607 C597 1.510 1_565 S
C607 H605 0.959 . S
C607 H606 0.961 . S
C607 H608 0.960 . S
H608 C607 0.960 . S
H609 N589 0.862 . S
O610 Co578 1.920 . S
O610 C583 1.289 . S
C611 O603 1.258 . S
C611 O604 1.266 . S
Co612 O615 1.970 . S
Co612 N629 1.989 . S
Co612 O637 1.967 . S
Co612 O644 1.920 . S
Co613 O616 1.966 . S
Co613 N622 2.022 . S
Co613 N630 1.993 . S
Co613 O638 1.941 . S
C614 O615 1.258 . S
C614 O616 1.263 . S
O615 Co612 1.970 . S
O615 C614 1.258 . S
O616 Co613 1.966 . S
O616 C614 1.263 . S
C617 O618 1.235 . S
C617 O644 1.289 . S
O618 C617 1.235 . S
C619 C621 1.400 1_545 S
C619 N622 1.351 . S
C619 C624 1.501 . S
C620 C621 1.387 . S
C620 N623 1.341 . S
C621 C619 1.400 1_565 S
C621 C620 1.387 . S
N622 Co613 2.022 . S
N622 C619 1.351 . S
N622 N623 1.365 1_545 S
N623 C620 1.341 . S
N623 N622 1.365 1_565 S
N623 H643 0.862 . S
C624 C619 1.501 . S
C624 H625 0.961 . S
C624 H626 0.961 . S
C624 H627 0.960 . S
H625 C624 0.961 . S
H626 C624 0.961 . S
H627 C624 0.960 . S
C628 N629 1.342 . S
C628 C632 1.401 . S
C628 C633 1.499 . S
N629 Co612 1.989 . S
N629 C628 1.342 . S
N629 N630 1.388 . S
N630 Co613 1.993 . S
N630 N629 1.388 . S
N630 C631 1.346 . S
C631 N630 1.346 . S
C631 C632 1.396 . S
C631 C641 1.510 1_545 S
C632 C628 1.401 . S
C632 C631 1.396 . S
C633 C628 1.499 . S
C633 H634 0.959 . S
C633 H635 0.960 . S
C633 H636 0.961 . S
H634 C633 0.959 . S
H635 C633 0.960 . S
H636 C633 0.961 . S
O637 Co612 1.967 . S
O637 C645 1.258 . S
O638 Co613 1.941 . S
O638 C645 1.266 . S
H639 C641 0.959 . S
H640 C641 0.961 . S
C641 C631 1.510 1_565 S
C641 H639 0.959 . S
C641 H640 0.961 . S
C641 H642 0.960 . S
H642 C641 0.960 . S
H643 N623 0.862 . S
O644 Co612 1.920 . S
O644 C617 1.289 . S
C645 O637 1.258 . S
C645 O638 1.266 . S
Co646 O649 1.970 . S
Co646 N663 1.989 . S
Co646 O671 1.967 . S
Co646 O678 1.920 . S
Co647 O650 1.966 . S
Co647 N656 2.022 . S
Co647 N664 1.993 . S
Co647 O672 1.941 . S
C648 O649 1.258 . S
C648 O650 1.263 . S
O649 Co646 1.970 . S
O649 C648 1.258 . S
O650 Co647 1.966 . S
O650 C648 1.263 . S
C651 O652 1.235 . S
C651 O678 1.289 . S
O652 C651 1.235 . S
C653 C655 1.400 1_655 S
C653 N656 1.351 . S
C653 C658 1.501 . S
C654 C655 1.387 . S
C654 N657 1.341 . S
C655 C653 1.400 1_455 S
C655 C654 1.387 . S
N656 Co647 2.022 . S
N656 C653 1.351 . S
N656 N657 1.365 1_655 S
N657 C654 1.341 . S
N657 N656 1.365 1_455 S
N657 H677 0.862 . S
C658 C653 1.501 . S
C658 H659 0.961 . S
C658 H660 0.961 . S
C658 H661 0.960 . S
H659 C658 0.961 . S
H660 C658 0.961 . S
H661 C658 0.960 . S
C662 N663 1.342 . S
C662 C666 1.401 . S
C662 C667 1.499 . S
N663 Co646 1.989 . S
N663 C662 1.342 . S
N663 N664 1.388 . S
N664 Co647 1.993 . S
N664 N663 1.388 . S
N664 C665 1.346 . S
C665 N664 1.346 . S
C665 C666 1.396 . S
C665 C675 1.510 1_655 S
C666 C662 1.401 . S
C666 C665 1.396 . S
C667 C662 1.499 . S
C667 H668 0.959 . S
C667 H669 0.960 . S
C667 H670 0.961 . S
H668 C667 0.959 . S
H669 C667 0.960 . S
H670 C667 0.961 . S
O671 Co646 1.967 . S
O671 C679 1.258 . S
O672 Co647 1.941 . S
O672 C679 1.266 . S
H673 C675 0.959 . S
H674 C675 0.961 . S
C675 C665 1.510 1_455 S
C675 H673 0.959 . S
C675 H674 0.961 . S
C675 H676 0.960 . S
H676 C675 0.960 . S
H677 N657 0.862 . S
O678 Co646 1.920 . S
O678 C651 1.289 . S
C679 O671 1.258 . S
C679 O672 1.266 . S
Co680 O683 1.970 . S
Co680 N697 1.989 . S
Co680 O705 1.967 . S
Co680 O712 1.920 . S
Co681 O684 1.966 . S
Co681 N690 2.022 . S
Co681 N698 1.993 . S
Co681 O706 1.941 . S
C682 O683 1.258 . S
C682 O684 1.263 . S
O683 Co680 1.970 . S
O683 C682 1.258 . S
O684 Co681 1.966 . S
O684 C682 1.263 . S
C685 O686 1.235 . S
C685 O712 1.289 . S
O686 C685 1.235 . S
C687 C689 1.400 . S
C687 N690 1.351 . S
C687 C692 1.501 . S
C688 C689 1.387 . S
C688 N691 1.341 . S
C689 C687 1.400 . S
C689 C688 1.387 . S
N690 Co681 2.022 . S
N690 C687 1.351 . S
N690 N691 1.365 . S
N691 C688 1.341 . S
N691 N690 1.365 . S
N691 H711 0.862 . S
C692 C687 1.501 . S
C692 H693 0.961 . S
C692 H694 0.961 . S
C692 H695 0.960 . S
H693 C692 0.961 . S
H694 C692 0.961 . S
H695 C692 0.960 . S
C696 N697 1.342 . S
C696 C700 1.401 . S
C696 C701 1.499 . S
N697 Co680 1.989 . S
N697 C696 1.342 . S
N697 N698 1.388 . S
N698 Co681 1.993 . S
N698 N697 1.388 . S
N698 C699 1.346 . S
C699 N698 1.346 . S
C699 C700 1.396 . S
C699 C709 1.510 . S
C700 C696 1.401 . S
C700 C699 1.396 . S
C701 C696 1.499 . S
C701 H702 0.959 . S
C701 H703 0.960 . S
C701 H704 0.961 . S
H702 C701 0.959 . S
H703 C701 0.960 . S
H704 C701 0.961 . S
O705 Co680 1.967 . S
O705 C713 1.258 . S
O706 Co681 1.941 . S
O706 C713 1.266 . S
H707 C709 0.959 . S
H708 C709 0.961 . S
C709 C699 1.510 . S
C709 H707 0.959 . S
C709 H708 0.961 . S
C709 H710 0.960 . S
H710 C709 0.960 . S
H711 N691 0.862 . S
O712 Co680 1.920 . S
O712 C685 1.289 . S
C713 O705 1.258 . S
C713 O706 1.266 . S
Co714 O717 1.970 . S
Co714 N731 1.989 . S
Co714 O739 1.967 . S
Co714 O746 1.920 . S
Co715 O718 1.966 . S
Co715 N724 2.022 . S
Co715 N732 1.993 . S
Co715 O740 1.941 . S
C716 O717 1.258 . S
C716 O718 1.263 . S
O717 Co714 1.970 . S
O717 C716 1.258 . S
O718 Co715 1.966 . S
O718 C716 1.263 . S
C719 O720 1.235 . S
C719 O746 1.289 . S
O720 C719 1.235 . S
C721 C723 1.400 . S
C721 N724 1.351 . S
C721 C726 1.501 . S
C722 C723 1.387 . S
C722 N725 1.341 . S
C723 C721 1.400 . S
C723 C722 1.387 . S
N724 Co715 2.022 . S
N724 C721 1.351 . S
N724 N725 1.365 . S
N725 C722 1.341 . S
N725 N724 1.365 . S
N725 H745 0.862 . S
C726 C721 1.501 . S
C726 H727 0.961 . S
C726 H728 0.961 . S
C726 H729 0.960 . S
H727 C726 0.961 . S
H728 C726 0.961 . S
H729 C726 0.960 . S
C730 N731 1.342 . S
C730 C734 1.401 . S
C730 C735 1.499 . S
N731 Co714 1.989 . S
N731 C730 1.342 . S
N731 N732 1.388 . S
N732 Co715 1.993 . S
N732 N731 1.388 . S
N732 C733 1.346 . S
C733 N732 1.346 . S
C733 C734 1.396 . S
C733 C743 1.510 . S
C734 C730 1.401 . S
C734 C733 1.396 . S
C735 C730 1.499 . S
C735 H736 0.959 . S
C735 H737 0.960 . S
C735 H738 0.961 . S
H736 C735 0.959 . S
H737 C735 0.960 . S
H738 C735 0.961 . S
O739 Co714 1.967 . S
O739 C747 1.258 . S
O740 Co715 1.941 . S
O740 C747 1.266 . S
H741 C743 0.959 . S
H742 C743 0.961 . S
C743 C733 1.510 . S
C743 H741 0.959 . S
C743 H742 0.961 . S
C743 H744 0.960 . S
H744 C743 0.960 . S
H745 N725 0.862 . S
O746 Co714 1.920 . S
O746 C719 1.289 . S
C747 O739 1.258 . S
C747 O740 1.266 . S
Co748 O751 1.970 . S
Co748 N765 1.989 . S
Co748 O773 1.967 . S
Co748 O780 1.920 . S
Co749 O752 1.966 . S
Co749 N758 2.022 . S
Co749 N766 1.993 . S
Co749 O774 1.941 . S
C750 O751 1.258 . S
C750 O752 1.263 . S
O751 Co748 1.970 . S
O751 C750 1.258 . S
O752 Co749 1.966 . S
O752 C750 1.263 . S
C753 O754 1.235 . S
C753 O780 1.289 . S
O754 C753 1.235 . S
C755 C757 1.400 . S
C755 N758 1.351 . S
C755 C760 1.501 . S
C756 C757 1.387 . S
C756 N759 1.341 . S
C757 C755 1.400 . S
C757 C756 1.387 . S
N758 Co749 2.022 . S
N758 C755 1.351 . S
N758 N759 1.365 . S
N759 C756 1.341 . S
N759 N758 1.365 . S
N759 H779 0.862 . S
C760 C755 1.501 . S
C760 H761 0.961 . S
C760 H762 0.961 . S
C760 H763 0.960 . S
H761 C760 0.961 . S
H762 C760 0.961 . S
H763 C760 0.960 . S
C764 N765 1.342 . S
C764 C768 1.401 . S
C764 C769 1.499 . S
N765 Co748 1.989 . S
N765 C764 1.342 . S
N765 N766 1.388 . S
N766 Co749 1.993 . S
N766 N765 1.388 . S
N766 C767 1.346 . S
C767 N766 1.346 . S
C767 C768 1.396 . S
C767 C777 1.510 . S
C768 C764 1.401 . S
C768 C767 1.396 . S
C769 C764 1.499 . S
C769 H770 0.959 . S
C769 H771 0.960 . S
C769 H772 0.961 . S
H770 C769 0.959 . S
H771 C769 0.960 . S
H772 C769 0.961 . S
O773 Co748 1.967 . S
O773 C781 1.258 . S
O774 Co749 1.941 . S
O774 C781 1.266 . S
H775 C777 0.959 . S
H776 C777 0.961 . S
C777 C767 1.510 . S
C777 H775 0.959 . S
C777 H776 0.961 . S
C777 H778 0.960 . S
H778 C777 0.960 . S
H779 N759 0.862 . S
O780 Co748 1.920 . S
O780 C753 1.289 . S
C781 O773 1.258 . S
C781 O774 1.266 . S
Co782 O785 1.970 . S
Co782 N799 1.989 . S
Co782 O807 1.967 . S
Co782 O814 1.920 . S
Co783 O786 1.966 . S
Co783 N792 2.022 . S
Co783 N800 1.993 . S
Co783 O808 1.941 . S
C784 O785 1.258 . S
C784 O786 1.263 . S
O785 Co782 1.970 . S
O785 C784 1.258 . S
O786 Co783 1.966 . S
O786 C784 1.263 . S
C787 O788 1.235 . S
C787 O814 1.289 . S
O788 C787 1.235 . S
C789 C791 1.400 . S
C789 N792 1.351 . S
C789 C794 1.501 . S
C790 C791 1.387 . S
C790 N793 1.341 . S
C791 C789 1.400 . S
C791 C790 1.387 . S
N792 Co783 2.022 . S
N792 C789 1.351 . S
N792 N793 1.365 . S
N793 C790 1.341 . S
N793 N792 1.365 . S
N793 H813 0.862 . S
C794 C789 1.501 . S
C794 H795 0.961 . S
C794 H796 0.961 . S
C794 H797 0.960 . S
H795 C794 0.961 . S
H796 C794 0.961 . S
H797 C794 0.960 . S
C798 N799 1.342 . S
C798 C802 1.401 . S
C798 C803 1.499 . S
N799 Co782 1.989 . S
N799 C798 1.342 . S
N799 N800 1.388 . S
N800 Co783 1.993 . S
N800 N799 1.388 . S
N800 C801 1.346 . S
C801 N800 1.346 . S
C801 C802 1.396 . S
C801 C811 1.510 . S
C802 C798 1.401 . S
C802 C801 1.396 . S
C803 C798 1.499 . S
C803 H804 0.959 . S
C803 H805 0.960 . S
C803 H806 0.961 . S
H804 C803 0.959 . S
H805 C803 0.960 . S
H806 C803 0.961 . S
O807 Co782 1.967 . S
O807 C815 1.258 . S
O808 Co783 1.941 . S
O808 C815 1.266 . S
H809 C811 0.959 . S
H810 C811 0.961 . S
C811 C801 1.510 . S
C811 H809 0.959 . S
C811 H810 0.961 . S
C811 H812 0.960 . S
H812 C811 0.960 . S
H813 N793 0.862 . S
O814 Co782 1.920 . S
O814 C787 1.289 . S
C815 O807 1.258 . S
C815 O808 1.266 . S
Co816 O819 1.970 . S
Co816 N833 1.989 . S
Co816 O841 1.967 . S
Co816 O848 1.920 . S
Co817 O820 1.966 . S
Co817 N826 2.022 . S
Co817 N834 1.993 . S
Co817 O842 1.941 . S
C818 O819 1.258 . S
C818 O820 1.263 . S
O819 Co816 1.970 . S
O819 C818 1.258 . S
O820 Co817 1.966 . S
O820 C818 1.263 . S
C821 O822 1.235 . S
C821 O848 1.289 . S
O822 C821 1.235 . S
C823 C825 1.400 1_565 S
C823 N826 1.351 . S
C823 C828 1.501 . S
C824 C825 1.387 . S
C824 N827 1.341 . S
C825 C823 1.400 1_545 S
C825 C824 1.387 . S
N826 Co817 2.022 . S
N826 C823 1.351 . S
N826 N827 1.365 1_565 S
N827 C824 1.341 . S
N827 N826 1.365 1_545 S
N827 H847 0.862 . S
C828 C823 1.501 . S
C828 H829 0.961 . S
C828 H830 0.961 . S
C828 H831 0.960 . S
H829 C828 0.961 . S
H830 C828 0.961 . S
H831 C828 0.960 . S
C832 N833 1.342 . S
C832 C836 1.401 . S
C832 C837 1.499 . S
N833 Co816 1.989 . S
N833 C832 1.342 . S
N833 N834 1.388 . S
N834 Co817 1.993 . S
N834 N833 1.388 . S
N834 C835 1.346 . S
C835 N834 1.346 . S
C835 C836 1.396 . S
C835 C845 1.510 1_565 S
C836 C832 1.401 . S
C836 C835 1.396 . S
C837 C832 1.499 . S
C837 H838 0.959 . S
C837 H839 0.960 . S
C837 H840 0.961 . S
H838 C837 0.959 . S
H839 C837 0.960 . S
H840 C837 0.961 . S
O841 Co816 1.967 . S
O841 C849 1.258 . S
O842 Co817 1.941 . S
O842 C849 1.266 . S
H843 C845 0.959 . S
H844 C845 0.961 . S
C845 C835 1.510 1_545 S
C845 H843 0.959 . S
C845 H844 0.961 . S
C845 H846 0.960 . S
H846 C845 0.960 . S
H847 N827 0.862 . S
O848 Co816 1.920 . S
O848 C821 1.289 . S
C849 O841 1.258 . S
C849 O842 1.266 . S
Co850 O853 1.970 . S
Co850 N867 1.989 . S
Co850 O875 1.967 . S
Co850 O882 1.920 . S
Co851 O854 1.966 . S
Co851 N860 2.022 . S
Co851 N868 1.993 . S
Co851 O876 1.941 . S
C852 O853 1.258 . S
C852 O854 1.263 . S
O853 Co850 1.970 . S
O853 C852 1.258 . S
O854 Co851 1.966 . S
O854 C852 1.263 . S
C855 O856 1.235 . S
C855 O882 1.289 . S
O856 C855 1.235 . S
C857 C859 1.400 1_455 S
C857 N860 1.351 . S
C857 C862 1.501 . S
C858 C859 1.387 . S
C858 N861 1.341 . S
C859 C857 1.400 1_655 S
C859 C858 1.387 . S
N860 Co851 2.022 . S
N860 C857 1.351 . S
N860 N861 1.365 1_455 S
N861 C858 1.341 . S
N861 N860 1.365 1_655 S
N861 H881 0.862 . S
C862 C857 1.501 . S
C862 H863 0.961 . S
C862 H864 0.961 . S
C862 H865 0.960 . S
H863 C862 0.961 . S
H864 C862 0.961 . S
H865 C862 0.960 . S
C866 N867 1.342 . S
C866 C870 1.401 . S
C866 C871 1.499 . S
N867 Co850 1.989 . S
N867 C866 1.342 . S
N867 N868 1.388 . S
N868 Co851 1.993 . S
N868 N867 1.388 . S
N868 C869 1.346 . S
C869 N868 1.346 . S
C869 C870 1.396 . S
C869 C879 1.510 1_455 S
C870 C866 1.401 . S
C870 C869 1.396 . S
C871 C866 1.499 . S
C871 H872 0.959 . S
C871 H873 0.960 . S
C871 H874 0.961 . S
H872 C871 0.959 . S
H873 C871 0.960 . S
H874 C871 0.961 . S
O875 Co850 1.967 . S
O875 C883 1.258 . S
O876 Co851 1.941 . S
O876 C883 1.266 . S
H877 C879 0.959 . S
H878 C879 0.961 . S
C879 C869 1.510 1_655 S
C879 H877 0.959 . S
C879 H878 0.961 . S
C879 H880 0.960 . S
H880 C879 0.960 . S
H881 N861 0.862 . S
O882 Co850 1.920 . S
O882 C855 1.289 . S
C883 O875 1.258 . S
C883 O876 1.266 . S
Co884 O887 1.970 . S
Co884 N901 1.989 . S
Co884 O909 1.967 . S
Co884 O916 1.920 . S
Co885 O888 1.966 . S
Co885 N894 2.022 . S
Co885 N902 1.993 . S
Co885 O910 1.941 . S
C886 O887 1.258 . S
C886 O888 1.263 . S
O887 Co884 1.970 . S
O887 C886 1.258 . S
O888 Co885 1.966 . S
O888 C886 1.263 . S
C889 O890 1.235 . S
C889 O916 1.289 . S
O890 C889 1.235 . S
C891 C893 1.400 . S
C891 N894 1.351 . S
C891 C896 1.501 . S
C892 C893 1.387 . S
C892 N895 1.341 . S
C893 C891 1.400 . S
C893 C892 1.387 . S
N894 Co885 2.022 . S
N894 C891 1.351 . S
N894 N895 1.365 . S
N895 C892 1.341 . S
N895 N894 1.365 . S
N895 H915 0.862 . S
C896 C891 1.501 . S
C896 H897 0.961 . S
C896 H898 0.961 . S
C896 H899 0.960 . S
H897 C896 0.961 . S
H898 C896 0.961 . S
H899 C896 0.960 . S
C900 N901 1.342 . S
C900 C904 1.401 . S
C900 C905 1.499 . S
N901 Co884 1.989 . S
N901 C900 1.342 . S
N901 N902 1.388 . S
N902 Co885 1.993 . S
N902 N901 1.388 . S
N902 C903 1.346 . S
C903 N902 1.346 . S
C903 C904 1.396 . S
C903 C913 1.510 . S
C904 C900 1.401 . S
C904 C903 1.396 . S
C905 C900 1.499 . S
C905 H906 0.959 . S
C905 H907 0.960 . S
C905 H908 0.961 . S
H906 C905 0.959 . S
H907 C905 0.960 . S
H908 C905 0.961 . S
O909 Co884 1.967 . S
O909 C917 1.258 . S
O910 Co885 1.941 . S
O910 C917 1.266 . S
H911 C913 0.959 . S
H912 C913 0.961 . S
C913 C903 1.510 . S
C913 H911 0.959 . S
C913 H912 0.961 . S
C913 H914 0.960 . S
H914 C913 0.960 . S
H915 N895 0.862 . S
O916 Co884 1.920 . S
O916 C889 1.289 . S
C917 O909 1.258 . S
C917 O910 1.266 . S
Co918 O921 1.970 . S
Co918 N935 1.989 . S
Co918 O943 1.967 . S
Co918 O950 1.920 . S
Co919 O922 1.966 . S
Co919 N928 2.022 . S
Co919 N936 1.993 . S
Co919 O944 1.941 . S
C920 O921 1.258 . S
C920 O922 1.263 . S
O921 Co918 1.970 . S
O921 C920 1.258 . S
O922 Co919 1.966 . S
O922 C920 1.263 . S
C923 O924 1.235 . S
C923 O950 1.289 . S
O924 C923 1.235 . S
C925 C927 1.400 . S
C925 N928 1.351 . S
C925 C930 1.501 . S
C926 C927 1.387 . S
C926 N929 1.341 . S
C927 C925 1.400 . S
C927 C926 1.387 . S
N928 Co919 2.022 . S
N928 C925 1.351 . S
N928 N929 1.365 . S
N929 C926 1.341 . S
N929 N928 1.365 . S
N929 H949 0.862 . S
C930 C925 1.501 . S
C930 H931 0.961 . S
C930 H932 0.961 . S
C930 H933 0.960 . S
H931 C930 0.961 . S
H932 C930 0.961 . S
H933 C930 0.960 . S
C934 N935 1.342 . S
C934 C938 1.401 . S
C934 C939 1.499 . S
N935 Co918 1.989 . S
N935 C934 1.342 . S
N935 N936 1.388 . S
N936 Co919 1.993 . S
N936 N935 1.388 . S
N936 C937 1.346 . S
C937 N936 1.346 . S
C937 C938 1.396 . S
C937 C947 1.510 . S
C938 C934 1.401 . S
C938 C937 1.396 . S
C939 C934 1.499 . S
C939 H940 0.959 . S
C939 H941 0.960 . S
C939 H942 0.961 . S
H940 C939 0.959 . S
H941 C939 0.960 . S
H942 C939 0.961 . S
O943 Co918 1.967 . S
O943 C951 1.258 . S
O944 Co919 1.941 . S
O944 C951 1.266 . S
H945 C947 0.959 . S
H946 C947 0.961 . S
C947 C937 1.510 . S
C947 H945 0.959 . S
C947 H946 0.961 . S
C947 H948 0.960 . S
H948 C947 0.960 . S
H949 N929 0.862 . S
O950 Co918 1.920 . S
O950 C923 1.289 . S
C951 O943 1.258 . S
C951 O944 1.266 . S
Co952 O955 1.970 . S
Co952 N969 1.989 . S
Co952 O977 1.967 . S
Co952 O984 1.920 . S
Co953 O956 1.966 . S
Co953 N962 2.022 . S
Co953 N970 1.993 . S
Co953 O978 1.941 . S
C954 O955 1.258 . S
C954 O956 1.263 . S
O955 Co952 1.970 . S
O955 C954 1.258 . S
O956 Co953 1.966 . S
O956 C954 1.263 . S
C957 O958 1.235 . S
C957 O984 1.289 . S
O958 C957 1.235 . S
C959 C961 1.400 . S
C959 N962 1.351 . S
C959 C964 1.501 . S
C960 C961 1.387 . S
C960 N963 1.341 . S
C961 C959 1.400 . S
C961 C960 1.387 . S
N962 Co953 2.022 . S
N962 C959 1.351 . S
N962 N963 1.365 . S
N963 C960 1.341 . S
N963 N962 1.365 . S
N963 H983 0.862 . S
C964 C959 1.501 . S
C964 H965 0.961 . S
C964 H966 0.961 . S
C964 H967 0.960 . S
H965 C964 0.961 . S
H966 C964 0.961 . S
H967 C964 0.960 . S
C968 N969 1.342 . S
C968 C972 1.401 . S
C968 C973 1.499 . S
N969 Co952 1.989 . S
N969 C968 1.342 . S
N969 N970 1.388 . S
N970 Co953 1.993 . S
N970 N969 1.388 . S
N970 C971 1.346 . S
C971 N970 1.346 . S
C971 C972 1.396 . S
C971 C981 1.510 . S
C972 C968 1.401 . S
C972 C971 1.396 . S
C973 C968 1.499 . S
C973 H974 0.959 . S
C973 H975 0.960 . S
C973 H976 0.961 . S
H974 C973 0.959 . S
H975 C973 0.960 . S
H976 C973 0.961 . S
O977 Co952 1.967 . S
O977 C985 1.258 . S
O978 Co953 1.941 . S
O978 C985 1.266 . S
H979 C981 0.959 . S
H980 C981 0.961 . S
C981 C971 1.510 . S
C981 H979 0.959 . S
C981 H980 0.961 . S
C981 H982 0.960 . S
H982 C981 0.960 . S
H983 N963 0.862 . S
O984 Co952 1.920 . S
O984 C957 1.289 . S
C985 O977 1.258 . S
C985 O978 1.266 . S
Co986 O989 1.970 . S
Co986 N1003 1.989 . S
Co986 O1011 1.967 . S
Co986 O1018 1.920 . S
Co987 O990 1.966 . S
Co987 N996 2.022 . S
Co987 N1004 1.993 . S
Co987 O1012 1.941 . S
C988 O989 1.258 . S
C988 O990 1.263 . S
O989 Co986 1.970 . S
O989 C988 1.258 . S
O990 Co987 1.966 . S
O990 C988 1.263 . S
C991 O992 1.235 . S
C991 O1018 1.289 . S
O992 C991 1.235 . S
C993 C995 1.400 . S
C993 N996 1.351 . S
C993 C998 1.501 . S
C994 C995 1.387 . S
C994 N997 1.341 . S
C995 C993 1.400 . S
C995 C994 1.387 . S
N996 Co987 2.022 . S
N996 C993 1.351 . S
N996 N997 1.365 . S
N997 C994 1.341 . S
N997 N996 1.365 . S
N997 H1017 0.862 . S
C998 C993 1.501 . S
C998 H999 0.961 . S
C998 H1000 0.961 . S
C998 H1001 0.960 . S
H999 C998 0.961 . S
H1000 C998 0.961 . S
H1001 C998 0.960 . S
C1002 N1003 1.342 . S
C1002 C1006 1.401 . S
C1002 C1007 1.499 . S
N1003 Co986 1.989 . S
N1003 C1002 1.342 . S
N1003 N1004 1.388 . S
N1004 Co987 1.993 . S
N1004 N1003 1.388 . S
N1004 C1005 1.346 . S
C1005 N1004 1.346 . S
C1005 C1006 1.396 . S
C1005 C1015 1.510 . S
C1006 C1002 1.401 . S
C1006 C1005 1.396 . S
C1007 C1002 1.499 . S
C1007 H1008 0.959 . S
C1007 H1009 0.960 . S
C1007 H1010 0.961 . S
H1008 C1007 0.959 . S
H1009 C1007 0.960 . S
H1010 C1007 0.961 . S
O1011 Co986 1.967 . S
O1011 C1019 1.258 . S
O1012 Co987 1.941 . S
O1012 C1019 1.266 . S
H1013 C1015 0.959 . S
H1014 C1015 0.961 . S
C1015 C1005 1.510 . S
C1015 H1013 0.959 . S
C1015 H1014 0.961 . S
C1015 H1016 0.960 . S
H1016 C1015 0.960 . S
H1017 N997 0.862 . S
O1018 Co986 1.920 . S
O1018 C991 1.289 . S
C1019 O1011 1.258 . S
C1019 O1012 1.266 . S
Co1020 O1023 1.970 . S
Co1020 N1037 1.989 . S
Co1020 O1045 1.967 . S
Co1020 O1052 1.920 . S
Co1021 O1024 1.966 . S
Co1021 N1030 2.022 . S
Co1021 N1038 1.993 . S
Co1021 O1046 1.941 . S
C1022 O1023 1.258 . S
C1022 O1024 1.263 . S
O1023 Co1020 1.970 . S
O1023 C1022 1.258 . S
O1024 Co1021 1.966 . S
O1024 C1022 1.263 . S
C1025 O1026 1.235 . S
C1025 O1052 1.289 . S
O1026 C1025 1.235 . S
C1027 C1029 1.400 . S
C1027 N1030 1.351 . S
C1027 C1032 1.501 . S
C1028 C1029 1.387 . S
C1028 N1031 1.341 . S
C1029 C1027 1.400 . S
C1029 C1028 1.387 . S
N1030 Co1021 2.022 . S
N1030 C1027 1.351 . S
N1030 N1031 1.365 . S
N1031 C1028 1.341 . S
N1031 N1030 1.365 . S
N1031 H1051 0.862 . S
C1032 C1027 1.501 . S
C1032 H1033 0.961 . S
C1032 H1034 0.961 . S
C1032 H1035 0.960 . S
H1033 C1032 0.961 . S
H1034 C1032 0.961 . S
H1035 C1032 0.960 . S
C1036 N1037 1.342 . S
C1036 C1040 1.401 . S
C1036 C1041 1.499 . S
N1037 Co1020 1.989 . S
N1037 C1036 1.342 . S
N1037 N1038 1.388 . S
N1038 Co1021 1.993 . S
N1038 N1037 1.388 . S
N1038 C1039 1.346 . S
C1039 N1038 1.346 . S
C1039 C1040 1.396 . S
C1039 C1049 1.510 . S
C1040 C1036 1.401 . S
C1040 C1039 1.396 . S
C1041 C1036 1.499 . S
C1041 H1042 0.959 . S
C1041 H1043 0.960 . S
C1041 H1044 0.961 . S
H1042 C1041 0.959 . S
H1043 C1041 0.960 . S
H1044 C1041 0.961 . S
O1045 Co1020 1.967 . S
O1045 C1053 1.258 . S
O1046 Co1021 1.941 . S
O1046 C1053 1.266 . S
H1047 C1049 0.959 . S
H1048 C1049 0.961 . S
C1049 C1039 1.510 . S
C1049 H1047 0.959 . S
C1049 H1048 0.961 . S
C1049 H1050 0.960 . S
H1050 C1049 0.960 . S
H1051 N1031 0.862 . S
O1052 Co1020 1.920 . S
O1052 C1025 1.289 . S
C1053 O1045 1.258 . S
C1053 O1046 1.266 . S
Co1054 O1057 1.970 . S
Co1054 N1071 1.989 . S
Co1054 O1079 1.967 . S
Co1054 O1086 1.920 . S
Co1055 O1058 1.966 . S
Co1055 N1064 2.022 . S
Co1055 N1072 1.993 . S
Co1055 O1080 1.941 . S
C1056 O1057 1.258 . S
C1056 O1058 1.263 . S
O1057 Co1054 1.970 . S
O1057 C1056 1.258 . S
O1058 Co1055 1.966 . S
O1058 C1056 1.263 . S
C1059 O1060 1.235 . S
C1059 O1086 1.289 . S
O1060 C1059 1.235 . S
C1061 C1063 1.400 . S
C1061 N1064 1.351 . S
C1061 C1066 1.501 . S
C1062 C1063 1.387 . S
C1062 N1065 1.341 . S
C1063 C1061 1.400 . S
C1063 C1062 1.387 . S
N1064 Co1055 2.022 . S
N1064 C1061 1.351 . S
N1064 N1065 1.365 . S
N1065 C1062 1.341 . S
N1065 N1064 1.365 . S
N1065 H1085 0.862 . S
C1066 C1061 1.501 . S
C1066 H1067 0.961 . S
C1066 H1068 0.961 . S
C1066 H1069 0.960 . S
H1067 C1066 0.961 . S
H1068 C1066 0.961 . S
H1069 C1066 0.960 . S
C1070 N1071 1.342 . S
C1070 C1074 1.401 . S
C1070 C1075 1.499 . S
N1071 Co1054 1.989 . S
N1071 C1070 1.342 . S
N1071 N1072 1.388 . S
N1072 Co1055 1.993 . S
N1072 N1071 1.388 . S
N1072 C1073 1.346 . S
C1073 N1072 1.346 . S
C1073 C1074 1.396 . S
C1073 C1083 1.510 . S
C1074 C1070 1.401 . S
C1074 C1073 1.396 . S
C1075 C1070 1.499 . S
C1075 H1076 0.959 . S
C1075 H1077 0.960 . S
C1075 H1078 0.961 . S
H1076 C1075 0.959 . S
H1077 C1075 0.960 . S
H1078 C1075 0.961 . S
O1079 Co1054 1.967 . S
O1079 C1087 1.258 . S
O1080 Co1055 1.941 . S
O1080 C1087 1.266 . S
H1081 C1083 0.959 . S
H1082 C1083 0.961 . S
C1083 C1073 1.510 . S
C1083 H1081 0.959 . S
C1083 H1082 0.961 . S
C1083 H1084 0.960 . S
H1084 C1083 0.960 . S
H1085 N1065 0.862 . S
O1086 Co1054 1.920 . S
O1086 C1059 1.289 . S
C1087 O1079 1.258 . S
C1087 O1080 1.266 . S
Co1088 O1091 1.970 . S
Co1088 N1105 1.989 . S
Co1088 O1113 1.967 . S
Co1088 O1120 1.920 . S
Co1089 O1092 1.966 . S
Co1089 N1098 2.022 . S
Co1089 N1106 1.993 . S
Co1089 O1114 1.941 . S
C1090 O1091 1.258 . S
C1090 O1092 1.263 . S
O1091 Co1088 1.970 . S
O1091 C1090 1.258 . S
O1092 Co1089 1.966 . S
O1092 C1090 1.263 . S
C1093 O1094 1.235 . S
C1093 O1120 1.289 . S
O1094 C1093 1.235 . S
C1095 C1097 1.400 . S
C1095 N1098 1.351 . S
C1095 C1100 1.501 . S
C1096 C1097 1.387 . S
C1096 N1099 1.341 . S
C1097 C1095 1.400 . S
C1097 C1096 1.387 . S
N1098 Co1089 2.022 . S
N1098 C1095 1.351 . S
N1098 N1099 1.365 . S
N1099 C1096 1.341 . S
N1099 N1098 1.365 . S
N1099 H1119 0.862 . S
C1100 C1095 1.501 . S
C1100 H1101 0.961 . S
C1100 H1102 0.961 . S
C1100 H1103 0.960 . S
H1101 C1100 0.961 . S
H1102 C1100 0.961 . S
H1103 C1100 0.960 . S
C1104 N1105 1.342 . S
C1104 C1108 1.401 . S
C1104 C1109 1.499 . S
N1105 Co1088 1.989 . S
N1105 C1104 1.342 . S
N1105 N1106 1.388 . S
N1106 Co1089 1.993 . S
N1106 N1105 1.388 . S
N1106 C1107 1.346 . S
C1107 N1106 1.346 . S
C1107 C1108 1.396 . S
C1107 C1117 1.510 . S
C1108 C1104 1.401 . S
C1108 C1107 1.396 . S
C1109 C1104 1.499 . S
C1109 H1110 0.959 . S
C1109 H1111 0.960 . S
C1109 H1112 0.961 . S
H1110 C1109 0.959 . S
H1111 C1109 0.960 . S
H1112 C1109 0.961 . S
O1113 Co1088 1.967 . S
O1113 C1121 1.258 . S
O1114 Co1089 1.941 . S
O1114 C1121 1.266 . S
H1115 C1117 0.959 . S
H1116 C1117 0.961 . S
C1117 C1107 1.510 . S
C1117 H1115 0.959 . S
C1117 H1116 0.961 . S
C1117 H1118 0.960 . S
H1118 C1117 0.960 . S
H1119 N1099 0.862 . S
O1120 Co1088 1.920 . S
O1120 C1093 1.289 . S
C1121 O1113 1.258 . S
C1121 O1114 1.266 . S
Co1122 O1125 1.970 . S
Co1122 N1139 1.989 . S
Co1122 O1147 1.967 . S
Co1122 O1154 1.920 . S
Co1123 O1126 1.966 . S
Co1123 N1132 2.022 . S
Co1123 N1140 1.993 . S
Co1123 O1148 1.941 . S
C1124 O1125 1.258 . S
C1124 O1126 1.263 . S
O1125 Co1122 1.970 . S
O1125 C1124 1.258 . S
O1126 Co1123 1.966 . S
O1126 C1124 1.263 . S
C1127 O1128 1.235 . S
C1127 O1154 1.289 . S
O1128 C1127 1.235 . S
C1129 C1131 1.400 1_455 S
C1129 N1132 1.351 . S
C1129 C1134 1.501 . S
C1130 C1131 1.387 . S
C1130 N1133 1.341 . S
C1131 C1129 1.400 1_655 S
C1131 C1130 1.387 . S
N1132 Co1123 2.022 . S
N1132 C1129 1.351 . S
N1132 N1133 1.365 1_455 S
N1133 C1130 1.341 . S
N1133 N1132 1.365 1_655 S
N1133 H1153 0.862 . S
C1134 C1129 1.501 . S
C1134 H1135 0.961 . S
C1134 H1136 0.961 . S
C1134 H1137 0.960 . S
H1135 C1134 0.961 . S
H1136 C1134 0.961 . S
H1137 C1134 0.960 . S
C1138 N1139 1.342 . S
C1138 C1142 1.401 . S
C1138 C1143 1.499 . S
N1139 Co1122 1.989 . S
N1139 C1138 1.342 . S
N1139 N1140 1.388 . S
N1140 Co1123 1.993 . S
N1140 N1139 1.388 . S
N1140 C1141 1.346 . S
C1141 N1140 1.346 . S
C1141 C1142 1.396 . S
C1141 C1151 1.510 1_455 S
C1142 C1138 1.401 . S
C1142 C1141 1.396 . S
C1143 C1138 1.499 . S
C1143 H1144 0.959 . S
C1143 H1145 0.960 . S
C1143 H1146 0.961 . S
H1144 C1143 0.959 . S
H1145 C1143 0.960 . S
H1146 C1143 0.961 . S
O1147 Co1122 1.967 . S
O1147 C1155 1.258 . S
O1148 Co1123 1.941 . S
O1148 C1155 1.266 . S
H1149 C1151 0.959 . S
H1150 C1151 0.961 . S
C1151 C1141 1.510 1_655 S
C1151 H1149 0.959 . S
C1151 H1150 0.961 . S
C1151 H1152 0.960 . S
H1152 C1151 0.960 . S
H1153 N1133 0.862 . S
O1154 Co1122 1.920 . S
O1154 C1127 1.289 . S
C1155 O1147 1.258 . S
C1155 O1148 1.266 . S
Co1156 O1159 1.970 . S
Co1156 N1173 1.989 . S
Co1156 O1181 1.967 . S
Co1156 O1188 1.920 . S
Co1157 O1160 1.966 . S
Co1157 N1166 2.022 . S
Co1157 N1174 1.993 . S
Co1157 O1182 1.941 . S
C1158 O1159 1.258 . S
C1158 O1160 1.263 . S
O1159 Co1156 1.970 . S
O1159 C1158 1.258 . S
O1160 Co1157 1.966 . S
O1160 C1158 1.263 . S
C1161 O1162 1.235 . S
C1161 O1188 1.289 . S
O1162 C1161 1.235 . S
C1163 C1165 1.400 . S
C1163 N1166 1.351 . S
C1163 C1168 1.501 . S
C1164 C1165 1.387 . S
C1164 N1167 1.341 . S
C1165 C1163 1.400 . S
C1165 C1164 1.387 . S
N1166 Co1157 2.022 . S
N1166 C1163 1.351 . S
N1166 N1167 1.365 . S
N1167 C1164 1.341 . S
N1167 N1166 1.365 . S
N1167 H1187 0.862 . S
C1168 C1163 1.501 . S
C1168 H1169 0.961 . S
C1168 H1170 0.961 . S
C1168 H1171 0.960 . S
H1169 C1168 0.961 . S
H1170 C1168 0.961 . S
H1171 C1168 0.960 . S
C1172 N1173 1.342 . S
C1172 C1176 1.401 . S
C1172 C1177 1.499 . S
N1173 Co1156 1.989 . S
N1173 C1172 1.342 . S
N1173 N1174 1.388 . S
N1174 Co1157 1.993 . S
N1174 N1173 1.388 . S
N1174 C1175 1.346 . S
C1175 N1174 1.346 . S
C1175 C1176 1.396 . S
C1175 C1185 1.510 . S
C1176 C1172 1.401 . S
C1176 C1175 1.396 . S
C1177 C1172 1.499 . S
C1177 H1178 0.959 . S
C1177 H1179 0.960 . S
C1177 H1180 0.961 . S
H1178 C1177 0.959 . S
H1179 C1177 0.960 . S
H1180 C1177 0.961 . S
O1181 Co1156 1.967 . S
O1181 C1189 1.258 . S
O1182 Co1157 1.941 . S
O1182 C1189 1.266 . S
H1183 C1185 0.959 . S
H1184 C1185 0.961 . S
C1185 C1175 1.510 . S
C1185 H1183 0.959 . S
C1185 H1184 0.961 . S
C1185 H1186 0.960 . S
H1186 C1185 0.960 . S
H1187 N1167 0.862 . S
O1188 Co1156 1.920 . S
O1188 C1161 1.289 . S
C1189 O1181 1.258 . S
C1189 O1182 1.266 . S
Co1190 O1193 1.970 . S
Co1190 N1207 1.989 . S
Co1190 O1215 1.967 . S
Co1190 O1222 1.920 . S
Co1191 O1194 1.966 . S
Co1191 N1200 2.022 . S
Co1191 N1208 1.993 . S
Co1191 O1216 1.941 . S
C1192 O1193 1.258 . S
C1192 O1194 1.263 . S
O1193 Co1190 1.970 . S
O1193 C1192 1.258 . S
O1194 Co1191 1.966 . S
O1194 C1192 1.263 . S
C1195 O1196 1.235 . S
C1195 O1222 1.289 . S
O1196 C1195 1.235 . S
C1197 C1199 1.400 1_565 S
C1197 N1200 1.351 . S
C1197 C1202 1.501 . S
C1198 C1199 1.387 . S
C1198 N1201 1.341 . S
C1199 C1197 1.400 1_545 S
C1199 C1198 1.387 . S
N1200 Co1191 2.022 . S
N1200 C1197 1.351 . S
N1200 N1201 1.365 1_565 S
N1201 C1198 1.341 . S
N1201 N1200 1.365 1_545 S
N1201 H1221 0.862 . S
C1202 C1197 1.501 . S
C1202 H1203 0.961 . S
C1202 H1204 0.961 . S
C1202 H1205 0.960 . S
H1203 C1202 0.961 . S
H1204 C1202 0.961 . S
H1205 C1202 0.960 . S
C1206 N1207 1.342 . S
C1206 C1210 1.401 . S
C1206 C1211 1.499 . S
N1207 Co1190 1.989 . S
N1207 C1206 1.342 . S
N1207 N1208 1.388 . S
N1208 Co1191 1.993 . S
N1208 N1207 1.388 . S
N1208 C1209 1.346 . S
C1209 N1208 1.346 . S
C1209 C1210 1.396 . S
C1209 C1219 1.510 1_565 S
C1210 C1206 1.401 . S
C1210 C1209 1.396 . S
C1211 C1206 1.499 . S
C1211 H1212 0.959 . S
C1211 H1213 0.960 . S
C1211 H1214 0.961 . S
H1212 C1211 0.959 . S
H1213 C1211 0.960 . S
H1214 C1211 0.961 . S
O1215 Co1190 1.967 . S
O1215 C1223 1.258 . S
O1216 Co1191 1.941 . S
O1216 C1223 1.266 . S
H1217 C1219 0.959 . S
H1218 C1219 0.961 . S
C1219 C1209 1.510 1_545 S
C1219 H1217 0.959 . S
C1219 H1218 0.961 . S
C1219 H1220 0.960 . S
H1220 C1219 0.960 . S
H1221 N1201 0.862 . S
O1222 Co1190 1.920 . S
O1222 C1195 1.289 . S
C1223 O1215 1.258 . S
C1223 O1216 1.266 . S
C1224 C1225 1.369 . S
C1224 C1226 1.419 . S
C1224 H1228 0.930 . S
C1225 C1224 1.369 . S
C1225 C1234 1.429 . S
C1226 C1224 1.419 . S
C1226 C1227 1.363 . S
C1226 H1229 0.929 1_545 S
C1227 C1226 1.363 . S
C1227 C1233 1.428 . S
H1228 C1224 0.930 . S
H1229 C1226 0.929 1_565 S
S1230 N1231 1.613 . S
S1230 N1232 1.610 . S
N1231 S1230 1.613 . S
N1231 C1234 1.350 . S
N1232 S1230 1.610 . S
N1232 C1233 1.351 . S
C1233 C1227 1.428 . S
C1233 N1232 1.351 . S
C1233 C1234 1.434 . S
C1234 C1225 1.429 . S
C1234 N1231 1.350 . S
C1234 C1233 1.434 . S
C1235 C1236 1.369 . S
C1235 C1237 1.419 . S
C1235 H1239 0.930 . S
C1236 C1235 1.369 . S
C1236 C1245 1.429 . S
C1237 C1235 1.419 . S
C1237 C1238 1.363 . S
C1237 H1240 0.929 . S
C1238 C1237 1.363 . S
C1238 C1244 1.428 . S
H1239 C1235 0.930 . S
H1240 C1237 0.929 . S
S1241 N1242 1.613 1_655 S
S1241 N1243 1.610 . S
N1242 S1241 1.613 1_455 S
N1242 C1245 1.350 1_455 S
N1243 S1241 1.610 . S
N1243 C1244 1.351 . S
C1244 C1238 1.428 . S
C1244 N1243 1.351 . S
C1244 C1245 1.434 . S
C1245 C1236 1.429 . S
C1245 N1242 1.350 1_655 S
C1245 C1244 1.434 . S
C1246 C1247 1.369 . S
C1246 C1248 1.419 . S
C1246 H1250 0.930 . S
C1247 C1246 1.369 . S
C1247 C1256 1.429 . S
C1248 C1246 1.419 . S
C1248 C1249 1.363 . S
C1248 H1251 0.929 . S
C1249 C1248 1.363 . S
C1249 C1255 1.428 . S
H1250 C1246 0.930 . S
H1251 C1248 0.929 . S
S1252 N1253 1.613 . S
S1252 N1254 1.610 . S
N1253 S1252 1.613 . S
N1253 C1256 1.350 . S
N1254 S1252 1.610 . S
N1254 C1255 1.351 . S
C1255 C1249 1.428 . S
C1255 N1254 1.351 . S
C1255 C1256 1.434 . S
C1256 C1247 1.429 . S
C1256 N1253 1.350 . S
C1256 C1255 1.434 . S
C1257 C1258 1.369 . S
C1257 C1259 1.419 . S
C1257 H1261 0.930 . S
C1258 C1257 1.369 . S
C1258 C1267 1.429 . S
C1259 C1257 1.419 . S
C1259 C1260 1.363 . S
C1259 H1262 0.929 . S
C1260 C1259 1.363 . S
C1260 C1266 1.428 . S
H1261 C1257 0.930 . S
H1262 C1259 0.929 . S
S1263 N1264 1.613 . S
S1263 N1265 1.610 1_655 S
N1264 S1263 1.613 . S
N1264 C1267 1.350 1_655 S
N1265 S1263 1.610 1_455 S
N1265 C1266 1.351 . S
C1266 C1260 1.428 . S
C1266 N1265 1.351 . S
C1266 C1267 1.434 . S
C1267 C1258 1.429 . S
C1267 N1264 1.350 1_455 S
C1267 C1266 1.434 . S
C1268 C1269 1.369 . S
C1268 C1270 1.419 . S
C1268 H1272 0.930 . S
C1269 C1268 1.369 . S
C1269 C1278 1.429 . S
C1270 C1268 1.419 . S
C1270 C1271 1.363 . S
C1270 H1273 0.929 . S
C1271 C1270 1.363 . S
C1271 C1277 1.428 . S
H1272 C1268 0.930 . S
H1273 C1270 0.929 . S
S1274 N1275 1.613 . S
S1274 N1276 1.610 . S
N1275 S1274 1.613 . S
N1275 C1278 1.350 . S
N1276 S1274 1.610 . S
N1276 C1277 1.351 . S
C1277 C1271 1.428 . S
C1277 N1276 1.351 . S
C1277 C1278 1.434 . S
C1278 C1269 1.429 . S
C1278 N1275 1.350 . S
C1278 C1277 1.434 . S
C1279 C1280 1.369 . S
C1279 C1281 1.419 . S
C1279 H1283 0.930 1_565 S
C1280 C1279 1.369 . S
C1280 C1289 1.429 . S
C1281 C1279 1.419 . S
C1281 C1282 1.363 . S
C1281 H1284 0.929 . S
C1282 C1281 1.363 . S
C1282 C1288 1.428 . S
H1283 C1279 0.930 1_545 S
H1284 C1281 0.929 . S
S1285 N1286 1.613 . S
S1285 N1287 1.610 . S
N1286 S1285 1.613 . S
N1286 C1289 1.350 . S
N1287 S1285 1.610 . S
N1287 C1288 1.351 . S
C1288 C1282 1.428 . S
C1288 N1287 1.351 . S
C1288 C1289 1.434 . S
C1289 C1280 1.429 . S
C1289 N1286 1.350 . S
C1289 C1288 1.434 . S
C1290 C1291 1.369 . S
C1290 C1292 1.419 . S
C1290 H1294 0.930 . S
C1291 C1290 1.369 . S
C1291 C1300 1.429 . S
C1292 C1290 1.419 . S
C1292 C1293 1.363 . S
C1292 H1295 0.929 . S
C1293 C1292 1.363 . S
C1293 C1299 1.428 . S
H1294 C1290 0.930 . S
H1295 C1292 0.929 . S
S1296 N1297 1.613 . S
S1296 N1298 1.610 . S
N1297 S1296 1.613 . S
N1297 C1300 1.350 . S
N1298 S1296 1.610 . S
N1298 C1299 1.351 . S
C1299 C1293 1.428 . S
C1299 N1298 1.351 . S
C1299 C1300 1.434 . S
C1300 C1291 1.429 . S
C1300 N1297 1.350 . S
C1300 C1299 1.434 . S
C1301 C1302 1.369 . S
C1301 C1303 1.419 . S
C1301 H1305 0.930 . S
C1302 C1301 1.369 . S
C1302 C1311 1.429 . S
C1303 C1301 1.419 . S
C1303 C1304 1.363 . S
C1303 H1306 0.929 . S
C1304 C1303 1.363 . S
C1304 C1310 1.428 . S
H1305 C1301 0.930 . S
H1306 C1303 0.929 . S
S1307 N1308 1.613 1_655 S
S1307 N1309 1.610 . S
N1308 S1307 1.613 1_455 S
N1308 C1311 1.350 . S
N1309 S1307 1.610 . S
N1309 C1310 1.351 1_655 S
C1310 C1304 1.428 . S
C1310 N1309 1.351 1_455 S
C1310 C1311 1.434 . S
C1311 C1302 1.429 . S
C1311 N1308 1.350 . S
C1311 C1310 1.434 . S
C1312 C1313 1.369 . S
C1312 C1314 1.419 . S
C1312 H1316 0.930 . S
C1313 C1312 1.369 . S
C1313 C1322 1.429 . S
C1314 C1312 1.419 . S
C1314 C1315 1.363 . S
C1314 H1317 0.929 . S
C1315 C1314 1.363 . S
C1315 C1321 1.428 . S
H1316 C1312 0.930 . S
H1317 C1314 0.929 . S
S1318 N1319 1.613 . S
S1318 N1320 1.610 . S
N1319 S1318 1.613 . S
N1319 C1322 1.350 . S
N1320 S1318 1.610 . S
N1320 C1321 1.351 . S
C1321 C1315 1.428 . S
C1321 N1320 1.351 . S
C1321 C1322 1.434 . S
C1322 C1313 1.429 . S
C1322 N1319 1.350 . S
C1322 C1321 1.434 . S
C1323 C1324 1.369 . S
C1323 C1325 1.419 . S
C1323 H1327 0.930 . S
C1324 C1323 1.369 . S
C1324 C1333 1.429 . S
C1325 C1323 1.419 . S
C1325 C1326 1.363 . S
C1325 H1328 0.929 . S
C1326 C1325 1.363 . S
C1326 C1332 1.428 . S
H1327 C1323 0.930 . S
H1328 C1325 0.929 . S
S1329 N1330 1.613 . S
S1329 N1331 1.610 . S
N1330 S1329 1.613 . S
N1330 C1333 1.350 . S
N1331 S1329 1.610 . S
N1331 C1332 1.351 . S
C1332 C1326 1.428 . S
C1332 N1331 1.351 . S
C1332 C1333 1.434 . S
C1333 C1324 1.429 . S
C1333 N1330 1.350 . S
C1333 C1332 1.434 . S
C1334 C1335 1.369 . S
C1334 C1336 1.419 . S
C1334 H1338 0.930 . S
C1335 C1334 1.369 . S
C1335 C1344 1.429 . S
C1336 C1334 1.419 . S
C1336 C1337 1.363 . S
C1336 H1339 0.929 . S
C1337 C1336 1.363 . S
C1337 C1343 1.428 . S
H1338 C1334 0.930 . S
H1339 C1336 0.929 . S
S1340 N1341 1.613 . S
S1340 N1342 1.610 . S
N1341 S1340 1.613 . S
N1341 C1344 1.350 . S
N1342 S1340 1.610 . S
N1342 C1343 1.351 . S
C1343 C1337 1.428 . S
C1343 N1342 1.351 . S
C1343 C1344 1.434 . S
C1344 C1335 1.429 . S
C1344 N1341 1.350 . S
C1344 C1343 1.434 . S
C1345 C1346 1.369 . S
C1345 C1347 1.419 . S
C1345 H1349 0.930 . S
C1346 C1345 1.369 . S
C1346 C1355 1.429 . S
C1347 C1345 1.419 . S
C1347 C1348 1.363 . S
C1347 H1350 0.929 . S
C1348 C1347 1.363 . S
C1348 C1354 1.428 . S
H1349 C1345 0.930 . S
H1350 C1347 0.929 . S
S1351 N1352 1.613 . S
S1351 N1353 1.610 . S
N1352 S1351 1.613 . S
N1352 C1355 1.350 . S
N1353 S1351 1.610 . S
N1353 C1354 1.351 . S
C1354 C1348 1.428 . S
C1354 N1353 1.351 . S
C1354 C1355 1.434 . S
C1355 C1346 1.429 . S
C1355 N1352 1.350 . S
C1355 C1354 1.434 . S
C1356 C1357 1.369 . S
C1356 C1358 1.419 . S
C1356 H1360 0.930 . S
C1357 C1356 1.369 . S
C1357 C1366 1.429 . S
C1358 C1356 1.419 . S
C1358 C1359 1.363 . S
C1358 H1361 0.929 . S
C1359 C1358 1.363 . S
C1359 C1365 1.428 . S
H1360 C1356 0.930 . S
H1361 C1358 0.929 . S
S1362 N1363 1.613 . S
S1362 N1364 1.610 . S
N1363 S1362 1.613 . S
N1363 C1366 1.350 . S
N1364 S1362 1.610 . S
N1364 C1365 1.351 . S
C1365 C1359 1.428 . S
C1365 N1364 1.351 . S
C1365 C1366 1.434 . S
C1366 C1357 1.429 . S
C1366 N1363 1.350 . S
C1366 C1365 1.434 . S
C1367 C1368 1.369 . S
C1367 C1369 1.419 . S
C1367 H1371 0.930 . S
C1368 C1367 1.369 . S
C1368 C1377 1.429 . S
C1369 C1367 1.419 . S
C1369 C1370 1.363 . S
C1369 H1372 0.929 . S
C1370 C1369 1.363 . S
C1370 C1376 1.428 . S
H1371 C1367 0.930 . S
H1372 C1369 0.929 . S
S1373 N1374 1.613 . S
S1373 N1375 1.610 . S
N1374 S1373 1.613 . S
N1374 C1377 1.350 . S
N1375 S1373 1.610 . S
N1375 C1376 1.351 . S
C1376 C1370 1.428 . S
C1376 N1375 1.351 . S
C1376 C1377 1.434 . S
C1377 C1368 1.429 . S
C1377 N1374 1.350 . S
C1377 C1376 1.434 . S
C1378 C1379 1.369 . S
C1378 C1380 1.419 . S
C1378 H1382 0.930 . S
C1379 C1378 1.369 . S
C1379 C1388 1.429 . S
C1380 C1378 1.419 . S
C1380 C1381 1.363 . S
C1380 H1383 0.929 . S
C1381 C1380 1.363 . S
C1381 C1387 1.428 . S
H1382 C1378 0.930 . S
H1383 C1380 0.929 . S
S1384 N1385 1.613 . S
S1384 N1386 1.610 . S
N1385 S1384 1.613 . S
N1385 C1388 1.350 . S
N1386 S1384 1.610 . S
N1386 C1387 1.351 . S
C1387 C1381 1.428 . S
C1387 N1386 1.351 . S
C1387 C1388 1.434 . S
C1388 C1379 1.429 . S
C1388 N1385 1.350 . S
C1388 C1387 1.434 . S
C1389 C1390 1.369 . S
C1389 C1391 1.419 . S
C1389 H1393 0.930 . S
C1390 C1389 1.369 . S
C1390 C1399 1.429 . S
C1391 C1389 1.419 . S
C1391 C1392 1.363 . S
C1391 H1394 0.929 . S
C1392 C1391 1.363 . S
C1392 C1398 1.428 . S
H1393 C1389 0.930 . S
H1394 C1391 0.929 . S
S1395 N1396 1.613 . S
S1395 N1397 1.610 . S
N1396 S1395 1.613 . S
N1396 C1399 1.350 . S
N1397 S1395 1.610 . S
N1397 C1398 1.351 . S
C1398 C1392 1.428 . S
C1398 N1397 1.351 . S
C1398 C1399 1.434 . S
C1399 C1390 1.429 . S
C1399 N1396 1.350 . S
C1399 C1398 1.434 . S
C1400 C1401 1.369 . S
C1400 C1402 1.419 . S
C1400 H1404 0.930 . S
C1401 C1400 1.369 . S
C1401 C1410 1.429 . S
C1402 C1400 1.419 . S
C1402 C1403 1.363 . S
C1402 H1405 0.929 . S
C1403 C1402 1.363 . S
C1403 C1409 1.428 . S
H1404 C1400 0.930 . S
H1405 C1402 0.929 . S
S1406 N1407 1.613 . S
S1406 N1408 1.610 . S
N1407 S1406 1.613 . S
N1407 C1410 1.350 . S
N1408 S1406 1.610 . S
N1408 C1409 1.351 . S
C1409 C1403 1.428 . S
C1409 N1408 1.351 . S
C1409 C1410 1.434 . S
C1410 C1401 1.429 . S
C1410 N1407 1.350 . S
C1410 C1409 1.434 . S
C1411 C1412 1.369 . S
C1411 C1413 1.419 . S
C1411 H1415 0.930 . S
C1412 C1411 1.369 . S
C1412 C1421 1.429 . S
C1413 C1411 1.419 . S
C1413 C1414 1.363 . S
C1413 H1416 0.929 . S
C1414 C1413 1.363 . S
C1414 C1420 1.428 . S
H1415 C1411 0.930 . S
H1416 C1413 0.929 . S
S1417 N1418 1.613 . S
S1417 N1419 1.610 . S
N1418 S1417 1.613 . S
N1418 C1421 1.350 . S
N1419 S1417 1.610 . S
N1419 C1420 1.351 . S
C1420 C1414 1.428 . S
C1420 N1419 1.351 . S
C1420 C1421 1.434 . S
C1421 C1412 1.429 . S
C1421 N1418 1.350 . S
C1421 C1420 1.434 . S
C1422 C1423 1.369 . S
C1422 C1424 1.419 . S
C1422 H1426 0.930 . S
C1423 C1422 1.369 . S
C1423 C1432 1.429 . S
C1424 C1422 1.419 . S
C1424 C1425 1.363 . S
C1424 H1427 0.929 . S
C1425 C1424 1.363 . S
C1425 C1431 1.428 . S
H1426 C1422 0.930 . S
H1427 C1424 0.929 . S
S1428 N1429 1.613 . S
S1428 N1430 1.610 . S
N1429 S1428 1.613 . S
N1429 C1432 1.350 . S
N1430 S1428 1.610 . S
N1430 C1431 1.351 . S
C1431 C1425 1.428 . S
C1431 N1430 1.351 . S
C1431 C1432 1.434 . S
C1432 C1423 1.429 . S
C1432 N1429 1.350 . S
C1432 C1431 1.434 . S
C1433 C1434 1.369 . S
C1433 C1435 1.419 . S
C1433 H1437 0.930 . S
C1434 C1433 1.369 . S
C1434 C1443 1.429 . S
C1435 C1433 1.419 . S
C1435 C1436 1.363 . S
C1435 H1438 0.929 . S
C1436 C1435 1.363 . S
C1436 C1442 1.428 . S
H1437 C1433 0.930 . S
H1438 C1435 0.929 . S
S1439 N1440 1.613 . S
S1439 N1441 1.610 . S
N1440 S1439 1.613 . S
N1440 C1443 1.350 . S
N1441 S1439 1.610 . S
N1441 C1442 1.351 . S
C1442 C1436 1.428 . S
C1442 N1441 1.351 . S
C1442 C1443 1.434 . S
C1443 C1434 1.429 . S
C1443 N1440 1.350 . S
C1443 C1442 1.434 . S
C1444 C1445 1.369 . S
C1444 C1446 1.419 . S
C1444 H1448 0.930 . S
C1445 C1444 1.369 . S
C1445 C1454 1.429 . S
C1446 C1444 1.419 . S
C1446 C1447 1.363 . S
C1446 H1449 0.929 . S
C1447 C1446 1.363 . S
C1447 C1453 1.428 . S
H1448 C1444 0.930 . S
H1449 C1446 0.929 . S
S1450 N1451 1.613 . S
S1450 N1452 1.610 . S
N1451 S1450 1.613 . S
N1451 C1454 1.350 . S
N1452 S1450 1.610 . S
N1452 C1453 1.351 . S
C1453 C1447 1.428 . S
C1453 N1452 1.351 . S
C1453 C1454 1.434 . S
C1454 C1445 1.429 . S
C1454 N1451 1.350 . S
C1454 C1453 1.434 . S
C1455 C1456 1.369 . S
C1455 C1457 1.419 . S
C1455 H1459 0.930 . S
C1456 C1455 1.369 . S
C1456 C1465 1.429 . S
C1457 C1455 1.419 . S
C1457 C1458 1.363 . S
C1457 H1460 0.929 . S
C1458 C1457 1.363 . S
C1458 C1464 1.428 . S
H1459 C1455 0.930 . S
H1460 C1457 0.929 . S
S1461 N1462 1.613 . S
S1461 N1463 1.610 . S
N1462 S1461 1.613 . S
N1462 C1465 1.350 . S
N1463 S1461 1.610 . S
N1463 C1464 1.351 . S
C1464 C1458 1.428 . S
C1464 N1463 1.351 . S
C1464 C1465 1.434 . S
C1465 C1456 1.429 . S
C1465 N1462 1.350 . S
C1465 C1464 1.434 . S
C1466 C1467 1.369 . S
C1466 C1468 1.419 . S
C1466 H1470 0.930 . S
C1467 C1466 1.369 . S
C1467 C1476 1.429 . S
C1468 C1466 1.419 . S
C1468 C1469 1.363 . S
C1468 H1471 0.929 . S
C1469 C1468 1.363 . S
C1469 C1475 1.428 . S
H1470 C1466 0.930 . S
H1471 C1468 0.929 . S
S1472 N1473 1.613 . S
S1472 N1474 1.610 . S
N1473 S1472 1.613 . S
N1473 C1476 1.350 . S
N1474 S1472 1.610 . S
N1474 C1475 1.351 . S
C1475 C1469 1.428 . S
C1475 N1474 1.351 . S
C1475 C1476 1.434 . S
C1476 C1467 1.429 . S
C1476 N1473 1.350 . S
C1476 C1475 1.434 . S
C1477 C1478 1.369 . S
C1477 C1479 1.419 . S
C1477 H1481 0.930 . S
C1478 C1477 1.369 . S
C1478 C1487 1.429 . S
C1479 C1477 1.419 . S
C1479 C1480 1.363 . S
C1479 H1482 0.929 . S
C1480 C1479 1.363 . S
C1480 C1486 1.428 . S
H1481 C1477 0.930 . S
H1482 C1479 0.929 . S
S1483 N1484 1.613 . S
S1483 N1485 1.610 . S
N1484 S1483 1.613 . S
N1484 C1487 1.350 . S
N1485 S1483 1.610 . S
N1485 C1486 1.351 . S
C1486 C1480 1.428 . S
C1486 N1485 1.351 . S
C1486 C1487 1.434 . S
C1487 C1478 1.429 . S
C1487 N1484 1.350 . S
C1487 C1486 1.434 . S
C1488 C1489 1.369 . S
C1488 C1490 1.419 . S
C1488 H1492 0.930 . S
C1489 C1488 1.369 . S
C1489 C1498 1.429 . S
C1490 C1488 1.419 . S
C1490 C1491 1.363 . S
C1490 H1493 0.929 . S
C1491 C1490 1.363 . S
C1491 C1497 1.428 . S
H1492 C1488 0.930 . S
H1493 C1490 0.929 . S
S1494 N1495 1.613 . S
S1494 N1496 1.610 . S
N1495 S1494 1.613 . S
N1495 C1498 1.350 . S
N1496 S1494 1.610 . S
N1496 C1497 1.351 . S
C1497 C1491 1.428 . S
C1497 N1496 1.351 . S
C1497 C1498 1.434 . S
C1498 C1489 1.429 . S
C1498 N1495 1.350 . S
C1498 C1497 1.434 . S
C1499 C1500 1.369 . S
C1499 C1501 1.419 . S
C1499 H1503 0.930 . S
C1500 C1499 1.369 . S
C1500 C1509 1.429 . S
C1501 C1499 1.419 . S
C1501 C1502 1.363 . S
C1501 H1504 0.929 . S
C1502 C1501 1.363 . S
C1502 C1508 1.428 . S
H1503 C1499 0.930 . S
H1504 C1501 0.929 . S
S1505 N1506 1.613 . S
S1505 N1507 1.610 . S
N1506 S1505 1.613 . S
N1506 C1509 1.350 . S
N1507 S1505 1.610 . S
N1507 C1508 1.351 . S
C1508 C1502 1.428 . S
C1508 N1507 1.351 . S
C1508 C1509 1.434 . S
C1509 C1500 1.429 . S
C1509 N1506 1.350 . S
C1509 C1508 1.434 . S
C1510 C1511 1.369 . S
C1510 C1512 1.419 . S
C1510 H1514 0.930 . S
C1511 C1510 1.369 . S
C1511 C1520 1.429 . S
C1512 C1510 1.419 . S
C1512 C1513 1.363 . S
C1512 H1515 0.929 . S
C1513 C1512 1.363 . S
C1513 C1519 1.428 . S
H1514 C1510 0.930 . S
H1515 C1512 0.929 . S
S1516 N1517 1.613 . S
S1516 N1518 1.610 . S
N1517 S1516 1.613 . S
N1517 C1520 1.350 . S
N1518 S1516 1.610 . S
N1518 C1519 1.351 . S
C1519 C1513 1.428 . S
C1519 N1518 1.351 . S
C1519 C1520 1.434 . S
C1520 C1511 1.429 . S
C1520 N1517 1.350 . S
C1520 C1519 1.434 . S
C1521 C1522 1.369 . S
C1521 C1523 1.419 . S
C1521 H1525 0.930 . S
C1522 C1521 1.369 . S
C1522 C1531 1.429 . S
C1523 C1521 1.419 . S
C1523 C1524 1.363 . S
C1523 H1526 0.929 . S
C1524 C1523 1.363 . S
C1524 C1530 1.428 . S
H1525 C1521 0.930 . S
H1526 C1523 0.929 . S
S1527 N1528 1.613 . S
S1527 N1529 1.610 . S
N1528 S1527 1.613 . S
N1528 C1531 1.350 . S
N1529 S1527 1.610 . S
N1529 C1530 1.351 . S
C1530 C1524 1.428 . S
C1530 N1529 1.351 . S
C1530 C1531 1.434 . S
C1531 C1522 1.429 . S
C1531 N1528 1.350 . S
C1531 C1530 1.434 . S
C1532 C1533 1.369 . S
C1532 C1534 1.419 . S
C1532 H1536 0.930 . S
C1533 C1532 1.369 . S
C1533 C1542 1.429 . S
C1534 C1532 1.419 . S
C1534 C1535 1.363 . S
C1534 H1537 0.929 . S
C1535 C1534 1.363 . S
C1535 C1541 1.428 . S
H1536 C1532 0.930 . S
H1537 C1534 0.929 . S
S1538 N1539 1.613 . S
S1538 N1540 1.610 . S
N1539 S1538 1.613 . S
N1539 C1542 1.350 . S
N1540 S1538 1.610 . S
N1540 C1541 1.351 . S
C1541 C1535 1.428 . S
C1541 N1540 1.351 . S
C1541 C1542 1.434 . S
C1542 C1533 1.429 . S
C1542 N1539 1.350 . S
C1542 C1541 1.434 . S
C1543 C1544 1.369 . S
C1543 C1545 1.419 . S
C1543 H1547 0.930 . S
C1544 C1543 1.369 . S
C1544 C1553 1.429 . S
C1545 C1543 1.419 . S
C1545 C1546 1.363 . S
C1545 H1548 0.929 . S
C1546 C1545 1.363 . S
C1546 C1552 1.428 . S
H1547 C1543 0.930 . S
H1548 C1545 0.929 . S
S1549 N1550 1.613 . S
S1549 N1551 1.610 . S
N1550 S1549 1.613 . S
N1550 C1553 1.350 . S
N1551 S1549 1.610 . S
N1551 C1552 1.351 . S
C1552 C1546 1.428 . S
C1552 N1551 1.351 . S
C1552 C1553 1.434 . S
C1553 C1544 1.429 . S
C1553 N1550 1.350 . S
C1553 C1552 1.434 . S
C1554 C1555 1.369 . S
C1554 C1556 1.419 . S
C1554 H1558 0.930 . S
C1555 C1554 1.369 . S
C1555 C1564 1.429 . S
C1556 C1554 1.419 . S
C1556 C1557 1.363 . S
C1556 H1559 0.929 . S
C1557 C1556 1.363 . S
C1557 C1563 1.428 . S
H1558 C1554 0.930 . S
H1559 C1556 0.929 . S
S1560 N1561 1.613 . S
S1560 N1562 1.610 . S
N1561 S1560 1.613 . S
N1561 C1564 1.350 . S
N1562 S1560 1.610 . S
N1562 C1563 1.351 . S
C1563 C1557 1.428 . S
C1563 N1562 1.351 . S
C1563 C1564 1.434 . S
C1564 C1555 1.429 . S
C1564 N1561 1.350 . S
C1564 C1563 1.434 . S
C1565 C1566 1.369 . S
C1565 C1567 1.419 . S
C1565 H1569 0.930 . S
C1566 C1565 1.369 . S
C1566 C1575 1.429 . S
C1567 C1565 1.419 . S
C1567 C1568 1.363 . S
C1567 H1570 0.929 . S
C1568 C1567 1.363 . S
C1568 C1574 1.428 . S
H1569 C1565 0.930 . S
H1570 C1567 0.929 . S
S1571 N1572 1.613 . S
S1571 N1573 1.610 . S
N1572 S1571 1.613 . S
N1572 C1575 1.350 . S
N1573 S1571 1.610 . S
N1573 C1574 1.351 . S
C1574 C1568 1.428 . S
C1574 N1573 1.351 . S
C1574 C1575 1.434 . S
C1575 C1566 1.429 . S
C1575 N1572 1.350 . S
C1575 C1574 1.434 . S
C1576 C1577 1.369 . S
C1576 C1578 1.419 . S
C1576 H1580 0.930 . S
C1577 C1576 1.369 . S
C1577 C1586 1.429 . S
C1578 C1576 1.419 . S
C1578 C1579 1.363 . S
C1578 H1581 0.929 . S
C1579 C1578 1.363 . S
C1579 C1585 1.428 . S
H1580 C1576 0.930 . S
H1581 C1578 0.929 . S
S1582 N1583 1.613 . S
S1582 N1584 1.610 . S
N1583 S1582 1.613 . S
N1583 C1586 1.350 . S
N1584 S1582 1.610 . S
N1584 C1585 1.351 . S
C1585 C1579 1.428 . S
C1585 N1584 1.351 . S
C1585 C1586 1.434 . S
C1586 C1577 1.429 . S
C1586 N1583 1.350 . S
C1586 C1585 1.434 . S
C1587 C1588 1.369 . S
C1587 C1589 1.419 . S
C1587 H1591 0.930 . S
C1588 C1587 1.369 . S
C1588 C1597 1.429 . S
C1589 C1587 1.419 . S
C1589 C1590 1.363 . S
C1589 H1592 0.929 . S
C1590 C1589 1.363 . S
C1590 C1596 1.428 . S
H1591 C1587 0.930 . S
H1592 C1589 0.929 . S
S1593 N1594 1.613 . S
S1593 N1595 1.610 . S
N1594 S1593 1.613 . S
N1594 C1597 1.350 . S
N1595 S1593 1.610 . S
N1595 C1596 1.351 . S
C1596 C1590 1.428 . S
C1596 N1595 1.351 . S
C1596 C1597 1.434 . S
C1597 C1588 1.429 . S
C1597 N1594 1.350 . S
C1597 C1596 1.434 . S
C1598 C1599 1.369 . S
C1598 C1600 1.419 . S
C1598 H1602 0.930 . S
C1599 C1598 1.369 . S
C1599 C1608 1.429 . S
C1600 C1598 1.419 . S
C1600 C1601 1.363 . S
C1600 H1603 0.929 . S
C1601 C1600 1.363 . S
C1601 C1607 1.428 . S
H1602 C1598 0.930 . S
H1603 C1600 0.929 . S
S1604 N1605 1.613 . S
S1604 N1606 1.610 . S
N1605 S1604 1.613 . S
N1605 C1608 1.350 . S
N1606 S1604 1.610 . S
N1606 C1607 1.351 . S
C1607 C1601 1.428 . S
C1607 N1606 1.351 . S
C1607 C1608 1.434 . S
C1608 C1599 1.429 . S
C1608 N1605 1.350 . S
C1608 C1607 1.434 . S
C1609 C1610 1.369 . S
C1609 C1611 1.419 . S
C1609 H1613 0.930 . S
C1610 C1609 1.369 . S
C1610 C1619 1.429 . S
C1611 C1609 1.419 . S
C1611 C1612 1.363 . S
C1611 H1614 0.929 . S
C1612 C1611 1.363 . S
C1612 C1618 1.428 . S
H1613 C1609 0.930 . S
H1614 C1611 0.929 . S
S1615 N1616 1.613 . S
S1615 N1617 1.610 . S
N1616 S1615 1.613 . S
N1616 C1619 1.350 . S
N1617 S1615 1.610 . S
N1617 C1618 1.351 . S
C1618 C1612 1.428 . S
C1618 N1617 1.351 . S
C1618 C1619 1.434 . S
C1619 C1610 1.429 . S
C1619 N1616 1.350 . S
C1619 C1618 1.434 . S
C1620 C1621 1.369 . S
C1620 C1622 1.419 . S
C1620 H1624 0.930 . S
C1621 C1620 1.369 . S
C1621 C1630 1.429 . S
C1622 C1620 1.419 . S
C1622 C1623 1.363 . S
C1622 H1625 0.929 . S
C1623 C1622 1.363 . S
C1623 C1629 1.428 . S
H1624 C1620 0.930 . S
H1625 C1622 0.929 . S
S1626 N1627 1.613 . S
S1626 N1628 1.610 . S
N1627 S1626 1.613 . S
N1627 C1630 1.350 . S
N1628 S1626 1.610 . S
N1628 C1629 1.351 . S
C1629 C1623 1.428 . S
C1629 N1628 1.351 . S
C1629 C1630 1.434 . S
C1630 C1621 1.429 . S
C1630 N1627 1.350 . S
C1630 C1629 1.434 . S
C1631 C1632 1.369 . S
C1631 C1633 1.419 . S
C1631 H1635 0.930 . S
C1632 C1631 1.369 . S
C1632 C1641 1.429 . S
C1633 C1631 1.419 . S
C1633 C1634 1.363 . S
C1633 H1636 0.931 . S
C1634 C1633 1.363 . S
C1634 C1640 1.428 . S
H1635 C1631 0.930 . S
H1636 C1633 0.931 . S
S1637 N1638 1.613 . S
S1637 N1639 1.610 . S
N1638 S1637 1.613 . S
N1638 C1641 1.350 . S
N1639 S1637 1.610 . S
N1639 C1640 1.351 . S
C1640 C1634 1.428 . S
C1640 N1639 1.351 . S
C1640 C1641 1.434 . S
C1641 C1632 1.429 . S
C1641 N1638 1.350 . S
C1641 C1640 1.434 . S
C1642 C1643 1.369 . S
C1642 C1644 1.419 . S
C1642 H1646 0.930 . S
C1643 C1642 1.369 . S
C1643 C1652 1.429 . S
C1644 C1642 1.419 . S
C1644 C1645 1.363 . S
C1644 H1647 0.929 . S
C1645 C1644 1.363 . S
C1645 C1651 1.428 . S
H1646 C1642 0.930 . S
H1647 C1644 0.929 . S
S1648 N1649 1.613 . S
S1648 N1650 1.610 . S
N1649 S1648 1.613 . S
N1649 C1652 1.350 . S
N1650 S1648 1.610 . S
N1650 C1651 1.351 . S
C1651 C1645 1.428 . S
C1651 N1650 1.351 . S
C1651 C1652 1.434 . S
C1652 C1643 1.429 . S
C1652 N1649 1.350 . S
C1652 C1651 1.434 . S
C1653 C1654 1.369 . S
C1653 C1655 1.419 . S
C1653 H1657 0.930 . S
C1654 C1653 1.369 . S
C1654 C1663 1.429 . S
C1655 C1653 1.419 . S
C1655 C1656 1.363 . S
C1655 H1658 0.929 . S
C1656 C1655 1.363 . S
C1656 C1662 1.428 . S
H1657 C1653 0.930 . S
H1658 C1655 0.929 . S
S1659 N1660 1.613 . S
S1659 N1661 1.610 . S
N1660 S1659 1.613 . S
N1660 C1663 1.350 . S
N1661 S1659 1.610 . S
N1661 C1662 1.351 . S
C1662 C1656 1.428 . S
C1662 N1661 1.351 . S
C1662 C1663 1.434 . S
C1663 C1654 1.429 . S
C1663 N1660 1.350 . S
C1663 C1662 1.434 . S
C1664 C1665 1.369 . S
C1664 C1666 1.419 . S
C1664 H1668 0.930 1_545 S
C1665 C1664 1.369 . S
C1665 C1674 1.429 . S
C1666 C1664 1.419 . S
C1666 C1667 1.363 . S
C1666 H1669 0.929 . S
C1667 C1666 1.363 . S
C1667 C1673 1.428 . S
H1668 C1664 0.930 1_565 S
H1669 C1666 0.929 . S
S1670 N1671 1.613 . S
S1670 N1672 1.610 . S
N1671 S1670 1.613 . S
N1671 C1674 1.350 . S
N1672 S1670 1.610 . S
N1672 C1673 1.351 . S
C1673 C1667 1.428 . S
C1673 N1672 1.351 . S
C1673 C1674 1.434 . S
C1674 C1665 1.429 . S
C1674 N1671 1.350 . S
C1674 C1673 1.434 . S
C1675 C1676 1.369 . S
C1675 C1677 1.419 . S
C1675 H1679 0.930 . S
C1676 C1675 1.369 . S
C1676 C1685 1.429 . S
C1677 C1675 1.419 . S
C1677 C1678 1.363 . S
C1677 H1680 0.929 1_655 S
C1678 C1677 1.363 . S
C1678 C1684 1.428 . S
H1679 C1675 0.930 . S
H1680 C1677 0.929 1_455 S
S1681 N1682 1.613 . S
S1681 N1683 1.610 . S
N1682 S1681 1.613 . S
N1682 C1685 1.350 . S
N1683 S1681 1.610 . S
N1683 C1684 1.351 . S
C1684 C1678 1.428 . S
C1684 N1683 1.351 . S
C1684 C1685 1.434 . S
C1685 C1676 1.429 . S
C1685 N1682 1.350 . S
C1685 C1684 1.434 . S
C1686 C1687 1.369 . S
C1686 C1688 1.419 . S
C1686 H1690 0.930 . S
C1687 C1686 1.369 . S
C1687 C1696 1.429 . S
C1688 C1686 1.419 . S
C1688 C1689 1.363 . S
C1688 H1691 0.929 . S
C1689 C1688 1.363 . S
C1689 C1695 1.428 . S
H1690 C1686 0.930 . S
H1691 C1688 0.929 . S
S1692 N1693 1.613 . S
S1692 N1694 1.610 . S
N1693 S1692 1.613 . S
N1693 C1696 1.350 . S
N1694 S1692 1.610 . S
N1694 C1695 1.351 . S
C1695 C1689 1.428 . S
C1695 N1694 1.351 . S
C1695 C1696 1.434 . S
C1696 C1687 1.429 . S
C1696 N1693 1.350 . S
C1696 C1695 1.434 . S
C1697 C1698 1.369 . S
C1697 C1699 1.419 . S
C1697 H1701 0.930 . S
C1698 C1697 1.369 . S
C1698 C1707 1.429 . S
C1699 C1697 1.419 . S
C1699 C1700 1.363 . S
C1699 H1702 0.929 1_545 S
C1700 C1699 1.363 . S
C1700 C1706 1.428 . S
H1701 C1697 0.930 . S
H1702 C1699 0.929 1_565 S
S1703 N1704 1.613 . S
S1703 N1705 1.610 . S
N1704 S1703 1.613 . S
N1704 C1707 1.350 . S
N1705 S1703 1.610 . S
N1705 C1706 1.351 . S
C1706 C1700 1.428 . S
C1706 N1705 1.351 . S
C1706 C1707 1.434 . S
C1707 C1698 1.429 . S
C1707 N1704 1.350 . S
C1707 C1706 1.434 . S
C1708 C1709 1.369 . S
C1708 C1710 1.419 . S
C1708 H1712 0.930 . S
C1709 C1708 1.369 . S
C1709 C1718 1.429 . S
C1710 C1708 1.419 . S
C1710 C1711 1.363 . S
C1710 H1713 0.929 . S
C1711 C1710 1.363 . S
C1711 C1717 1.428 . S
H1712 C1708 0.930 . S
H1713 C1710 0.929 . S
S1714 N1715 1.613 1_455 S
S1714 N1716 1.610 . S
N1715 S1714 1.613 1_655 S
N1715 C1718 1.350 . S
N1716 S1714 1.610 . S
N1716 C1717 1.351 1_455 S
C1717 C1711 1.428 . S
C1717 N1716 1.351 1_655 S
C1717 C1718 1.434 . S
C1718 C1709 1.429 . S
C1718 N1715 1.350 . S
C1718 C1717 1.434 . S
C1719 C1720 1.369 . S
C1719 C1721 1.419 . S
C1719 H1723 0.930 . S
C1720 C1719 1.369 . S
C1720 C1729 1.429 . S
C1721 C1719 1.419 . S
C1721 C1722 1.363 . S
C1721 H1724 0.929 . S
C1722 C1721 1.363 . S
C1722 C1728 1.428 . S
H1723 C1719 0.930 . S
H1724 C1721 0.929 . S
S1725 N1726 1.613 . S
S1725 N1727 1.610 . S
N1726 S1725 1.613 . S
N1726 C1729 1.350 . S
N1727 S1725 1.610 . S
N1727 C1728 1.351 . S
C1728 C1722 1.428 . S
C1728 N1727 1.351 . S
C1728 C1729 1.434 . S
C1729 C1720 1.429 . S
C1729 N1726 1.350 . S
C1729 C1728 1.434 . S
C1730 C1731 1.369 . S
C1730 C1732 1.419 . S
C1730 H1734 0.930 . S
C1731 C1730 1.369 . S
C1731 C1740 1.429 . S
C1732 C1730 1.419 . S
C1732 C1733 1.363 . S
C1732 H1735 0.929 . S
C1733 C1732 1.363 . S
C1733 C1739 1.428 . S
H1734 C1730 0.930 . S
H1735 C1732 0.929 . S
S1736 N1737 1.613 1_545 S
S1736 N1738 1.610 . S
N1737 S1736 1.613 1_565 S
N1737 C1740 1.350 . S
N1738 S1736 1.610 . S
N1738 C1739 1.351 1_545 S
C1739 C1733 1.428 . S
C1739 N1738 1.351 1_565 S
C1739 C1740 1.434 . S
C1740 C1731 1.429 . S
C1740 N1737 1.350 . S
C1740 C1739 1.434 . S
C1741 C1742 1.369 . S
C1741 C1743 1.419 . S
C1741 H1745 0.930 . S
C1742 C1741 1.369 . S
C1742 C1751 1.429 . S
C1743 C1741 1.419 . S
C1743 C1744 1.363 . S
C1743 H1746 0.929 . S
C1744 C1743 1.363 . S
C1744 C1750 1.428 . S
H1745 C1741 0.930 . S
H1746 C1743 0.929 . S
S1747 N1748 1.613 . S
S1747 N1749 1.610 . S
N1748 S1747 1.613 . S
N1748 C1751 1.350 . S
N1749 S1747 1.610 . S
N1749 C1750 1.351 . S
C1750 C1744 1.428 . S
C1750 N1749 1.351 . S
C1750 C1751 1.434 . S
C1751 C1742 1.429 . S
C1751 N1748 1.350 . S
C1751 C1750 1.434 . S
C1752 C1753 1.369 . S
C1752 C1754 1.419 . S
C1752 H1756 0.930 . S
C1753 C1752 1.369 . S
C1753 C1762 1.429 . S
C1754 C1752 1.419 . S
C1754 C1755 1.363 . S
C1754 H1757 0.929 . S
C1755 C1754 1.363 . S
C1755 C1761 1.428 . S
H1756 C1752 0.930 . S
H1757 C1754 0.929 . S
S1758 N1759 1.613 1_455 S
S1758 N1760 1.610 . S
N1759 S1758 1.613 1_655 S
N1759 C1762 1.350 . S
N1760 S1758 1.610 . S
N1760 C1761 1.351 1_455 S
C1761 C1755 1.428 . S
C1761 N1760 1.351 1_655 S
C1761 C1762 1.434 . S
C1762 C1753 1.429 . S
C1762 N1759 1.350 . S
C1762 C1761 1.434 . S
C1763 C1764 1.369 . S
C1763 C1765 1.419 . S
C1763 H1767 0.930 . S
C1764 C1763 1.369 . S
C1764 C1773 1.429 . S
C1765 C1763 1.419 . S
C1765 C1766 1.363 . S
C1765 H1768 0.929 . S
C1766 C1765 1.363 . S
C1766 C1772 1.428 . S
H1767 C1763 0.930 . S
H1768 C1765 0.929 . S
S1769 N1770 1.613 . S
S1769 N1771 1.610 . S
N1770 S1769 1.613 . S
N1770 C1773 1.350 . S
N1771 S1769 1.610 . S
N1771 C1772 1.351 . S
C1772 C1766 1.428 . S
C1772 N1771 1.351 . S
C1772 C1773 1.434 . S
C1773 C1764 1.429 . S
C1773 N1770 1.350 . S
C1773 C1772 1.434 . S
C1774 C1775 1.369 . S
C1774 C1776 1.419 . S
C1774 H1778 0.930 1_545 S
C1775 C1774 1.369 . S
C1775 C1784 1.429 . S
C1776 C1774 1.419 . S
C1776 C1777 1.363 . S
C1776 H1779 0.929 . S
C1777 C1776 1.363 . S
C1777 C1783 1.428 . S
H1778 C1774 0.930 1_565 S
H1779 C1776 0.929 . S
S1780 N1781 1.613 . S
S1780 N1782 1.610 . S
N1781 S1780 1.613 . S
N1781 C1784 1.350 . S
N1782 S1780 1.610 . S
N1782 C1783 1.351 . S
C1783 C1777 1.428 . S
C1783 N1782 1.351 . S
C1783 C1784 1.434 . S
C1784 C1775 1.429 . S
C1784 N1781 1.350 . S
C1784 C1783 1.434 . S
C1785 C1786 1.369 . S
C1785 C1787 1.419 . S
C1785 H1789 0.930 . S
C1786 C1785 1.369 . S
C1786 C1795 1.429 1_655 S
C1787 C1785 1.419 . S
C1787 C1788 1.363 1_655 S
C1787 H1790 0.929 . S
C1788 C1787 1.363 1_455 S
C1788 C1794 1.428 . S
H1789 C1785 0.930 . S
H1790 C1787 0.929 . S
S1791 N1792 1.613 . S
S1791 N1793 1.610 . S
N1792 S1791 1.613 . S
N1792 C1795 1.350 . S
N1793 S1791 1.610 . S
N1793 C1794 1.351 . S
C1794 C1788 1.428 . S
C1794 N1793 1.351 . S
C1794 C1795 1.434 . S
C1795 C1786 1.429 1_455 S
C1795 N1792 1.350 . S
C1795 C1794 1.434 . S
C1796 C1797 1.369 . S
C1796 C1798 1.419 . S
C1796 H1800 0.930 . S
C1797 C1796 1.369 . S
C1797 C1806 1.429 . S
C1798 C1796 1.419 . S
C1798 C1799 1.363 . S
C1798 H1801 0.929 . S
C1799 C1798 1.363 . S
C1799 C1805 1.428 . S
H1800 C1796 0.930 . S
H1801 C1798 0.929 . S
S1802 N1803 1.613 . S
S1802 N1804 1.610 . S
N1803 S1802 1.613 . S
N1803 C1806 1.350 . S
N1804 S1802 1.610 . S
N1804 C1805 1.351 . S
C1805 C1799 1.428 . S
C1805 N1804 1.351 . S
C1805 C1806 1.434 . S
C1806 C1797 1.429 . S
C1806 N1803 1.350 . S
C1806 C1805 1.434 . S
C1807 C1808 1.369 1_565 S
C1807 C1809 1.419 . S
C1807 H1811 0.930 . S
C1808 C1807 1.369 1_545 S
C1808 C1817 1.429 . S
C1809 C1807 1.419 . S
C1809 C1810 1.363 . S
C1809 H1812 0.929 . S
C1810 C1809 1.363 . S
C1810 C1816 1.428 1_565 S
H1811 C1807 0.930 . S
H1812 C1809 0.929 . S
S1813 N1814 1.613 . S
S1813 N1815 1.610 . S
N1814 S1813 1.613 . S
N1814 C1817 1.350 . S
N1815 S1813 1.610 . S
N1815 C1816 1.351 . S
C1816 C1810 1.428 1_545 S
C1816 N1815 1.351 . S
C1816 C1817 1.434 . S
C1817 C1808 1.429 . S
C1817 N1814 1.350 . S
C1817 C1816 1.434 . S
C1818 C1819 1.369 . S
C1818 C1820 1.419 . S
C1818 H1822 0.930 . S
C1819 C1818 1.369 . S
C1819 C1828 1.429 1_565 S
C1820 C1818 1.419 . S
C1820 C1821 1.363 1_565 S
C1820 H1823 0.929 . S
C1821 C1820 1.363 1_545 S
C1821 C1827 1.428 . S
H1822 C1818 0.930 . S
H1823 C1820 0.929 . S
S1824 N1825 1.613 . S
S1824 N1826 1.610 . S
N1825 S1824 1.613 . S
N1825 C1828 1.350 . S
N1826 S1824 1.610 . S
N1826 C1827 1.351 . S
C1827 C1821 1.428 . S
C1827 N1826 1.351 . S
C1827 C1828 1.434 . S
C1828 C1819 1.429 1_545 S
C1828 N1825 1.350 . S
C1828 C1827 1.434 . S
C1829 C1830 1.369 1_455 S
C1829 C1831 1.419 . S
C1829 H1833 0.930 . S
C1830 C1829 1.369 1_655 S
C1830 C1839 1.429 . S
C1831 C1829 1.419 . S
C1831 C1832 1.363 . S
C1831 H1834 0.929 . S
C1832 C1831 1.363 . S
C1832 C1838 1.428 . S
H1833 C1829 0.930 . S
H1834 C1831 0.929 . S
S1835 N1836 1.613 . S
S1835 N1837 1.610 . S
N1836 S1835 1.613 . S
N1836 C1839 1.350 . S
N1837 S1835 1.610 . S
N1837 C1838 1.351 1_655 S
C1838 C1832 1.428 . S
C1838 N1837 1.351 1_455 S
C1838 C1839 1.434 1_455 S
C1839 C1830 1.429 . S
C1839 N1836 1.350 . S
C1839 C1838 1.434 1_655 S
C1840 C1841 1.369 . S
C1840 C1842 1.419 . S
C1840 H1844 0.930 . S
C1841 C1840 1.369 . S
C1841 C1850 1.429 . S
C1842 C1840 1.419 . S
C1842 C1843 1.363 . S
C1842 H1845 0.929 . S
C1843 C1842 1.363 . S
C1843 C1849 1.428 . S
H1844 C1840 0.930 . S
H1845 C1842 0.929 . S
S1846 N1847 1.613 . S
S1846 N1848 1.610 . S
N1847 S1846 1.613 . S
N1847 C1850 1.350 . S
N1848 S1846 1.610 . S
N1848 C1849 1.351 . S
C1849 C1843 1.428 . S
C1849 N1848 1.351 . S
C1849 C1850 1.434 . S
C1850 C1841 1.429 . S
C1850 N1847 1.350 . S
C1850 C1849 1.434 . S
C1851 C1852 1.369 . S
C1851 C1853 1.419 1_556 S
C1851 H1855 0.930 . S
C1852 C1851 1.369 . S
C1852 C1861 1.429 1_556 S
C1853 C1851 1.419 1_554 S
C1853 C1854 1.363 . S
C1853 H1856 0.929 . S
C1854 C1853 1.363 . S
C1854 C1860 1.428 . S
H1855 C1851 0.930 . S
H1856 C1853 0.929 . S
S1857 N1858 1.613 . S
S1857 N1859 1.610 . S
N1858 S1857 1.613 . S
N1858 C1861 1.350 . S
N1859 S1857 1.610 . S
N1859 C1860 1.351 . S
C1860 C1854 1.428 . S
C1860 N1859 1.351 . S
C1860 C1861 1.434 . S
C1861 C1852 1.429 1_554 S
C1861 N1858 1.350 . S
C1861 C1860 1.434 . S
C1862 C1863 1.369 . S
C1862 C1864 1.385 1_554 S
C1862 H1866 0.930 . S
C1863 C1862 1.369 . S
C1863 C1872 1.429 . S
C1864 C1862 1.385 1_556 S
C1864 C1865 1.377 . S
C1864 H1867 0.953 . S
C1865 C1864 1.377 . S
C1865 C1871 1.428 1_556 S
H1866 C1862 0.930 . S
H1867 C1864 0.953 . S
S1868 N1869 1.613 . S
S1868 N1870 1.610 1_655 S
N1869 S1868 1.613 . S
N1869 C1872 1.350 . S
N1870 S1868 1.610 1_455 S
N1870 C1871 1.351 1_455 S
C1871 C1865 1.428 1_554 S
C1871 N1870 1.351 1_655 S
C1871 C1872 1.434 . S
C1872 C1863 1.429 . S
C1872 N1869 1.350 . S
C1872 C1871 1.434 . S
C1873 C1874 1.369 . S
C1873 C1875 1.419 . S
C1873 H1877 0.930 . S
C1874 C1873 1.369 . S
C1874 C1883 1.458 . S
C1875 C1873 1.419 . S
C1875 C1876 1.363 1_554 S
C1875 H1878 0.929 . S
C1876 C1875 1.363 1_556 S
C1876 C1882 1.428 . S
H1877 C1873 0.930 . S
H1878 C1875 0.929 . S
S1879 N1880 1.613 . S
S1879 N1881 1.610 . S
N1880 S1879 1.613 . S
N1880 C1883 1.337 1_556 S
N1881 S1879 1.610 . S
N1881 C1882 1.351 . S
C1882 C1876 1.428 . S
C1882 N1881 1.351 . S
C1882 C1883 1.415 1_556 S
C1883 C1874 1.458 . S
C1883 N1880 1.337 1_554 S
C1883 C1882 1.415 1_554 S
C1884 C1885 1.369 . S
C1884 C1886 1.419 . S
C1884 H1888 0.930 . S
C1885 C1884 1.369 . S
C1885 C1894 1.429 1_545 S
C1886 C1884 1.419 . S
C1886 C1887 1.363 1_545 S
C1886 H1889 0.929 . S
C1887 C1886 1.363 1_565 S
C1887 C1893 1.428 . S
H1888 C1884 0.930 . S
H1889 C1886 0.929 . S
S1890 N1891 1.613 . S
S1890 N1892 1.610 . S
N1891 S1890 1.613 . S
N1891 C1894 1.350 . S
N1892 S1890 1.610 . S
N1892 C1893 1.351 . S
C1893 C1887 1.428 . S
C1893 N1892 1.351 . S
C1893 C1894 1.434 . S
C1894 C1885 1.429 1_565 S
C1894 N1891 1.350 . S
C1894 C1893 1.434 . S
C1895 C1896 1.369 . S
C1895 C1897 1.419 . S
C1895 H1899 0.930 . S
C1896 C1895 1.369 . S
C1896 C1905 1.429 1_655 S
C1897 C1895 1.419 . S
C1897 C1898 1.363 1_655 S
C1897 H1900 0.929 . S
C1898 C1897 1.363 1_455 S
C1898 C1904 1.428 . S
H1899 C1895 0.930 . S
H1900 C1897 0.929 . S
S1901 N1902 1.613 . S
S1901 N1903 1.610 . S
N1902 S1901 1.613 . S
N1902 C1905 1.350 . S
N1903 S1901 1.610 . S
N1903 C1904 1.351 . S
C1904 C1898 1.428 . S
C1904 N1903 1.351 . S
C1904 C1905 1.434 . S
C1905 C1896 1.429 1_455 S
C1905 N1902 1.350 . S
C1905 C1904 1.434 . S
C1906 C1907 1.369 . S
C1906 C1908 1.419 . S
C1906 H1910 0.930 . S
C1907 C1906 1.369 . S
C1907 C1916 1.429 . S
C1908 C1906 1.419 . S
C1908 C1909 1.363 . S
C1908 H1911 0.929 . S
C1909 C1908 1.363 . S
C1909 C1915 1.428 . S
H1910 C1906 0.930 . S
H1911 C1908 0.929 . S
S1912 N1913 1.613 . S
S1912 N1914 1.610 . S
N1913 S1912 1.613 . S
N1913 C1916 1.350 . S
N1914 S1912 1.610 . S
N1914 C1915 1.351 . S
C1915 C1909 1.428 . S
C1915 N1914 1.351 . S
C1915 C1916 1.434 . S
C1916 C1907 1.429 . S
C1916 N1913 1.350 . S
C1916 C1915 1.434 . S
C1917 C1918 1.369 . S
C1917 C1919 1.419 1_556 S
C1917 H1921 0.930 1_556 S
C1918 C1917 1.369 . S
C1918 C1927 1.429 . S
C1919 C1917 1.419 1_554 S
C1919 C1920 1.363 . S
C1919 H1922 0.929 . S
C1920 C1919 1.363 . S
C1920 C1926 1.428 1_554 S
H1921 C1917 0.930 1_554 S
H1922 C1919 0.929 . S
S1923 N1924 1.613 1_545 S
S1923 N1925 1.610 . S
N1924 S1923 1.613 1_565 S
N1924 C1927 1.350 . S
N1925 S1923 1.610 . S
N1925 C1926 1.351 1_545 S
C1926 C1920 1.428 1_556 S
C1926 N1925 1.351 1_565 S
C1926 C1927 1.434 . S
C1927 C1918 1.429 . S
C1927 N1924 1.350 . S
C1927 C1926 1.434 . S
C1928 C1929 1.369 1_556 S
C1928 C1930 1.419 . S
C1928 H1932 0.930 . S
C1929 C1928 1.369 1_554 S
C1929 C1938 1.429 . S
C1930 C1928 1.419 . S
C1930 C1931 1.363 . S
C1930 H1933 0.929 . S
C1931 C1930 1.363 . S
C1931 C1937 1.428 . S
H1932 C1928 0.930 . S
H1933 C1930 0.929 . S
S1934 N1935 1.613 . S
S1934 N1936 1.610 1_554 S
N1935 S1934 1.613 . S
N1935 C1938 1.350 . S
N1936 S1934 1.610 1_556 S
N1936 C1937 1.351 . S
C1937 C1931 1.428 . S
C1937 N1936 1.351 . S
C1937 C1938 1.434 1_556 S
C1938 C1929 1.429 . S
C1938 N1935 1.350 . S
C1938 C1937 1.434 1_554 S
C1939 C1940 1.369 . S
C1939 C1941 1.419 . S
C1939 H1943 0.930 . S
C1940 C1939 1.369 . S
C1940 C1949 1.455 . S
C1941 C1939 1.419 . S
C1941 C1942 1.363 1_556 S
C1941 H1944 0.929 . S
C1942 C1941 1.363 1_554 S
C1942 C1948 1.428 . S
H1943 C1939 0.930 . S
H1944 C1941 0.929 . S
S1945 N1946 1.613 . S
S1945 N1947 1.610 . S
N1946 S1945 1.613 . S
N1946 C1949 1.338 1_554 S
N1947 S1945 1.610 . S
N1947 C1948 1.351 . S
C1948 C1942 1.428 . S
C1948 N1947 1.351 . S
C1948 C1949 1.417 1_554 S
C1949 C1940 1.455 . S
C1949 N1946 1.338 1_556 S
C1949 C1948 1.417 1_556 S
C1950 C1951 1.369 . S
C1950 C1952 1.419 . S
C1950 H1954 0.930 1_455 S
C1951 C1950 1.369 . S
C1951 C1960 1.429 . S
C1952 C1950 1.419 . S
C1952 C1953 1.363 . S
C1952 H1955 0.929 . S
C1953 C1952 1.363 . S
C1953 C1959 1.428 . S
H1954 C1950 0.930 1_655 S
H1955 C1952 0.929 . S
S1956 N1957 1.613 . S
S1956 N1958 1.610 . S
N1957 S1956 1.613 . S
N1957 C1960 1.350 . S
N1958 S1956 1.610 . S
N1958 C1959 1.351 . S
C1959 C1953 1.428 . S
C1959 N1958 1.351 . S
C1959 C1960 1.434 . S
C1960 C1951 1.429 . S
C1960 N1957 1.350 . S
C1960 C1959 1.434 . S
C1961 C1962 1.369 . S
C1961 C1963 1.419 . S
C1961 H1965 0.930 . S
C1962 C1961 1.369 . S
C1962 C1971 1.429 . S
C1963 C1961 1.419 . S
C1963 C1964 1.363 . S
C1963 H1966 0.929 . S
C1964 C1963 1.363 . S
C1964 C1970 1.428 . S
H1965 C1961 0.930 . S
H1966 C1963 0.929 . S
S1967 N1968 1.613 . S
S1967 N1969 1.610 . S
N1968 S1967 1.613 . S
N1968 C1971 1.350 . S
N1969 S1967 1.610 . S
N1969 C1970 1.351 . S
C1970 C1964 1.428 . S
C1970 N1969 1.351 . S
C1970 C1971 1.434 . S
C1971 C1962 1.429 . S
C1971 N1968 1.350 . S
C1971 C1970 1.434 . S
C1972 C1973 1.369 . S
C1972 C1974 1.419 . S
C1972 H1976 0.930 . S
C1973 C1972 1.369 . S
C1973 C1982 1.429 . S
C1974 C1972 1.419 . S
C1974 C1975 1.363 . S
C1974 H1977 0.929 . S
C1975 C1974 1.363 . S
C1975 C1981 1.428 . S
H1976 C1972 0.930 . S
H1977 C1974 0.929 . S
S1978 N1979 1.613 1_545 S
S1978 N1980 1.610 . S
N1979 S1978 1.613 1_565 S
N1979 C1982 1.350 . S
N1980 S1978 1.610 . S
N1980 C1981 1.351 1_545 S
C1981 C1975 1.428 . S
C1981 N1980 1.351 1_565 S
C1981 C1982 1.434 . S
C1982 C1973 1.429 . S
C1982 N1979 1.350 . S
C1982 C1981 1.434 . S
C1983 C1984 1.369 . S
C1983 C1985 1.419 . S
C1983 H1987 0.930 . S
C1984 C1983 1.369 . S
C1984 C1993 1.429 . S
C1985 C1983 1.419 . S
C1985 C1986 1.363 1_655 S
C1985 H1988 0.923 1_655 S
C1986 C1985 1.363 1_455 S
C1986 C1992 1.428 1_455 S
H1987 C1983 0.930 . S
H1988 C1985 0.923 1_455 S
S1989 N1990 1.613 . S
S1989 N1991 1.610 1_655 S
N1990 S1989 1.613 . S
N1990 C1993 1.350 . S
N1991 S1989 1.610 1_455 S
N1991 C1992 1.351 1_455 S
C1992 C1986 1.428 1_655 S
C1992 N1991 1.351 1_655 S
C1992 C1993 1.434 . S
C1993 C1984 1.429 . S
C1993 N1990 1.350 . S
C1993 C1992 1.434 . S
C1994 C1995 1.369 . S
C1994 C1996 1.419 . S
C1994 H1998 0.930 . S
C1995 C1994 1.369 . S
C1995 C2004 1.429 . S
C1996 C1994 1.419 . S
C1996 C1997 1.363 . S
C1996 H1999 0.929 . S
C1997 C1996 1.363 . S
C1997 C2003 1.428 . S
H1998 C1994 0.930 . S
H1999 C1996 0.929 . S
S2000 N2001 1.613 . S
S2000 N2002 1.610 . S
N2001 S2000 1.613 . S
N2001 C2004 1.350 . S
N2002 S2000 1.610 . S
N2002 C2003 1.351 . S
C2003 C1997 1.428 . S
C2003 N2002 1.351 . S
C2003 C2004 1.434 . S
C2004 C1995 1.429 . S
C2004 N2001 1.350 . S
C2004 C2003 1.434 . S
C2005 C2006 1.369 . S
C2005 C2007 1.419 . S
C2005 H2009 0.930 . S
C2006 C2005 1.369 . S
C2006 C2015 1.429 1_545 S
C2007 C2005 1.419 . S
C2007 C2008 1.363 1_545 S
C2007 H2010 0.929 . S
C2008 C2007 1.363 1_565 S
C2008 C2014 1.428 . S
H2009 C2005 0.930 . S
H2010 C2007 0.929 . S
S2011 N2012 1.613 . S
S2011 N2013 1.610 . S
N2012 S2011 1.613 . S
N2012 C2015 1.350 . S
N2013 S2011 1.610 . S
N2013 C2014 1.351 . S
C2014 C2008 1.428 . S
C2014 N2013 1.351 . S
C2014 C2015 1.434 . S
C2015 C2006 1.429 1_565 S
C2015 N2012 1.350 . S
C2015 C2014 1.434 . S
C2016 C2017 1.369 . S
C2016 C2018 1.419 1_655 S
C2016 H2020 0.930 . S
C2017 C2016 1.369 . S
C2017 C2026 1.429 . S
C2018 C2016 1.419 1_455 S
C2018 C2019 1.363 . S
C2018 H2021 0.929 . S
C2019 C2018 1.363 . S
C2019 C2025 1.428 . S
H2020 C2016 0.930 . S
H2021 C2018 0.929 . S
S2022 N2023 1.613 . S
S2022 N2024 1.610 1_655 S
N2023 S2022 1.613 . S
N2023 C2026 1.350 . S
N2024 S2022 1.610 1_455 S
N2024 C2025 1.351 . S
C2025 C2019 1.428 . S
C2025 N2024 1.351 . S
C2025 C2026 1.434 1_455 S
C2026 C2017 1.429 . S
C2026 N2023 1.350 . S
C2026 C2025 1.434 1_655 S
C2027 C2028 1.369 . S
C2027 C2029 1.419 . S
C2027 H2031 0.930 . S
C2028 C2027 1.369 . S
C2028 C2037 1.429 . S
C2029 C2027 1.419 . S
C2029 C2030 1.363 . S
C2029 H2032 0.929 . S
C2030 C2029 1.363 . S
C2030 C2036 1.428 . S
H2031 C2027 0.930 . S
H2032 C2029 0.929 . S
S2033 N2034 1.613 . S
S2033 N2035 1.610 . S
N2034 S2033 1.613 . S
N2034 C2037 1.350 . S
N2035 S2033 1.610 . S
N2035 C2036 1.351 . S
C2036 C2030 1.428 . S
C2036 N2035 1.351 . S
C2036 C2037 1.434 . S
C2037 C2028 1.429 . S
C2037 N2034 1.350 . S
C2037 C2036 1.434 . S
C2038 C2039 1.369 . S
C2038 C2040 1.419 1_565 S
C2038 H2042 0.930 . S
C2039 C2038 1.369 . S
C2039 C2048 1.429 . S
C2040 C2038 1.419 1_545 S
C2040 C2041 1.363 . S
C2040 H2043 0.929 . S
C2041 C2040 1.363 . S
C2041 C2047 1.428 . S
H2042 C2038 0.930 . S
H2043 C2040 0.929 . S
S2044 N2045 1.613 1_545 S
S2044 N2046 1.610 . S
N2045 S2044 1.613 1_565 S
N2045 C2048 1.350 . S
N2046 S2044 1.610 . S
N2046 C2047 1.351 . S
C2047 C2041 1.428 . S
C2047 N2046 1.351 . S
C2047 C2048 1.434 1_545 S
C2048 C2039 1.429 . S
C2048 N2045 1.350 . S
C2048 C2047 1.434 1_565 S
C2049 C2050 1.369 . S
C2049 C2051 1.419 1_655 S
C2049 H2053 0.930 . S
C2050 C2049 1.369 . S
C2050 C2059 1.429 . S
C2051 C2049 1.419 1_455 S
C2051 C2052 1.363 . S
C2051 H2054 0.929 . S
C2052 C2051 1.363 . S
C2052 C2058 1.428 . S
H2053 C2049 0.930 . S
H2054 C2051 0.929 . S
S2055 N2056 1.613 . S
S2055 N2057 1.610 1_655 S
N2056 S2055 1.613 . S
N2056 C2059 1.350 . S
N2057 S2055 1.610 1_455 S
N2057 C2058 1.351 . S
C2058 C2052 1.428 . S
C2058 N2057 1.351 . S
C2058 C2059 1.434 1_455 S
C2059 C2050 1.429 . S
C2059 N2056 1.350 . S
C2059 C2058 1.434 1_655 S
C2060 C2061 1.369 . S
C2060 C2062 1.419 . S
C2060 H2064 0.930 . S
C2061 C2060 1.369 . S
C2061 C2070 1.429 . S
C2062 C2060 1.419 . S
C2062 C2063 1.363 . S
C2062 H2065 0.929 . S
C2063 C2062 1.363 . S
C2063 C2069 1.428 . S
H2064 C2060 0.930 . S
H2065 C2062 0.929 . S
S2066 N2067 1.613 . S
S2066 N2068 1.610 . S
N2067 S2066 1.613 . S
N2067 C2070 1.350 . S
N2068 S2066 1.610 . S
N2068 C2069 1.351 . S
C2069 C2063 1.428 . S
C2069 N2068 1.351 . S
C2069 C2070 1.434 . S
C2070 C2061 1.429 . S
C2070 N2067 1.350 . S
C2070 C2069 1.434 . S
C2071 C2072 1.369 . S
C2071 C2073 1.419 1_545 S
C2071 H2075 0.930 . S
C2072 C2071 1.369 . S
C2072 C2081 1.429 . S
C2073 C2071 1.419 1_565 S
C2073 C2074 1.363 . S
C2073 H2076 0.929 . S
C2074 C2073 1.363 . S
C2074 C2080 1.428 . S
H2075 C2071 0.930 . S
H2076 C2073 0.929 . S
S2077 N2078 1.613 . S
S2077 N2079 1.610 1_545 S
N2078 S2077 1.613 . S
N2078 C2081 1.350 . S
N2079 S2077 1.610 1_565 S
N2079 C2080 1.351 . S
C2080 C2074 1.428 . S
C2080 N2079 1.351 . S
C2080 C2081 1.434 1_565 S
C2081 C2072 1.429 . S
C2081 N2078 1.350 . S
C2081 C2080 1.434 1_545 S
C2082 C2083 1.369 . S
C2082 C2084 1.419 . S
C2082 H2086 0.930 . S
C2083 C2082 1.369 . S
C2083 C2092 1.429 . S
C2084 C2082 1.419 . S
C2084 C2085 1.363 . S
C2084 H2087 0.929 . S
C2085 C2084 1.363 . S
C2085 C2091 1.428 . S
H2086 C2082 0.930 . S
H2087 C2084 0.929 . S
S2088 N2089 1.613 . S
S2088 N2090 1.610 . S
N2089 S2088 1.613 . S
N2089 C2092 1.350 . S
N2090 S2088 1.610 . S
N2090 C2091 1.351 . S
C2091 C2085 1.428 . S
C2091 N2090 1.351 . S
C2091 C2092 1.434 . S
C2092 C2083 1.429 . S
C2092 N2089 1.350 . S
C2092 C2091 1.434 . S
C2093 C2094 1.369 . S
C2093 C2095 1.419 . S
C2093 H2097 0.930 . S
C2094 C2093 1.369 . S
C2094 C2103 1.429 . S
C2095 C2093 1.419 . S
C2095 C2096 1.363 . S
C2095 H2098 0.929 . S
C2096 C2095 1.363 . S
C2096 C2102 1.428 . S
H2097 C2093 0.930 . S
H2098 C2095 0.929 . S
S2099 N2100 1.613 . S
S2099 N2101 1.610 . S
N2100 S2099 1.613 . S
N2100 C2103 1.350 . S
N2101 S2099 1.610 . S
N2101 C2102 1.351 . S
C2102 C2096 1.428 . S
C2102 N2101 1.351 . S
C2102 C2103 1.434 . S
C2103 C2094 1.429 . S
C2103 N2100 1.350 . S
C2103 C2102 1.434 . S
C2104 C2105 1.369 . S
C2104 C2106 1.419 . S
C2104 H2108 0.930 . S
C2105 C2104 1.369 . S
C2105 C2114 1.429 . S
C2106 C2104 1.419 . S
C2106 C2107 1.363 . S
C2106 H2109 0.929 . S
C2107 C2106 1.363 . S
C2107 C2113 1.428 . S
H2108 C2104 0.930 . S
H2109 C2106 0.929 . S
S2110 N2111 1.613 . S
S2110 N2112 1.610 . S
N2111 S2110 1.613 . S
N2111 C2114 1.350 . S
N2112 S2110 1.610 . S
N2112 C2113 1.351 . S
C2113 C2107 1.428 . S
C2113 N2112 1.351 . S
C2113 C2114 1.434 . S
C2114 C2105 1.429 . S
C2114 N2111 1.350 . S
C2114 C2113 1.434 . S
C2115 C2116 1.369 . S
C2115 C2117 1.419 . S
C2115 H2119 0.930 . S
C2116 C2115 1.369 . S
C2116 C2125 1.429 . S
C2117 C2115 1.419 . S
C2117 C2118 1.363 . S
C2117 H2120 0.929 . S
C2118 C2117 1.363 . S
C2118 C2124 1.428 . S
H2119 C2115 0.930 . S
H2120 C2117 0.929 . S
S2121 N2122 1.613 . S
S2121 N2123 1.610 . S
N2122 S2121 1.613 . S
N2122 C2125 1.350 . S
N2123 S2121 1.610 . S
N2123 C2124 1.351 . S
C2124 C2118 1.428 . S
C2124 N2123 1.351 . S
C2124 C2125 1.434 . S
C2125 C2116 1.429 . S
C2125 N2122 1.350 . S
C2125 C2124 1.434 . S
C2126 C2127 1.369 . S
C2126 C2128 1.419 . S
C2126 H2130 0.930 . S
C2127 C2126 1.369 . S
C2127 C2136 1.429 . S
C2128 C2126 1.419 . S
C2128 C2129 1.363 . S
C2128 H2131 0.929 . S
C2129 C2128 1.363 . S
C2129 C2135 1.428 . S
H2130 C2126 0.930 . S
H2131 C2128 0.929 . S
S2132 N2133 1.613 . S
S2132 N2134 1.610 . S
N2133 S2132 1.613 . S
N2133 C2136 1.350 . S
N2134 S2132 1.610 . S
N2134 C2135 1.351 . S
C2135 C2129 1.428 . S
C2135 N2134 1.351 . S
C2135 C2136 1.434 . S
C2136 C2127 1.429 . S
C2136 N2133 1.350 . S
C2136 C2135 1.434 . S
C2137 C2138 1.369 . S
C2137 C2139 1.419 . S
C2137 H2141 0.930 . S
C2138 C2137 1.369 . S
C2138 C2147 1.429 . S
C2139 C2137 1.419 . S
C2139 C2140 1.363 . S
C2139 H2142 0.929 . S
C2140 C2139 1.363 . S
C2140 C2146 1.428 . S
H2141 C2137 0.930 . S
H2142 C2139 0.929 . S
S2143 N2144 1.613 . S
S2143 N2145 1.610 . S
N2144 S2143 1.613 . S
N2144 C2147 1.350 . S
N2145 S2143 1.610 . S
N2145 C2146 1.351 . S
C2146 C2140 1.428 . S
C2146 N2145 1.351 . S
C2146 C2147 1.434 . S
C2147 C2138 1.429 . S
C2147 N2144 1.350 . S
C2147 C2146 1.434 . S
C2148 C2149 1.369 . S
C2148 C2150 1.419 . S
C2148 H2152 0.930 . S
C2149 C2148 1.369 . S
C2149 C2158 1.429 . S
C2150 C2148 1.419 . S
C2150 C2151 1.363 . S
C2150 H2153 0.929 . S
C2151 C2150 1.363 . S
C2151 C2157 1.428 . S
H2152 C2148 0.930 . S
H2153 C2150 0.929 . S
S2154 N2155 1.613 . S
S2154 N2156 1.610 . S
N2155 S2154 1.613 . S
N2155 C2158 1.350 . S
N2156 S2154 1.610 . S
N2156 C2157 1.351 . S
C2157 C2151 1.428 . S
C2157 N2156 1.351 . S
C2157 C2158 1.434 . S
C2158 C2149 1.429 . S
C2158 N2155 1.350 . S
C2158 C2157 1.434 . S
C2159 C2160 1.369 . S
C2159 C2161 1.419 . S
C2159 H2163 0.930 . S
C2160 C2159 1.369 . S
C2160 C2169 1.429 . S
C2161 C2159 1.419 . S
C2161 C2162 1.363 . S
C2161 H2164 0.929 . S
C2162 C2161 1.363 . S
C2162 C2168 1.428 . S
H2163 C2159 0.930 . S
H2164 C2161 0.929 . S
S2165 N2166 1.613 . S
S2165 N2167 1.610 . S
N2166 S2165 1.613 . S
N2166 C2169 1.350 . S
N2167 S2165 1.610 . S
N2167 C2168 1.351 . S
C2168 C2162 1.428 . S
C2168 N2167 1.351 . S
C2168 C2169 1.434 . S
C2169 C2160 1.429 . S
C2169 N2166 1.350 . S
C2169 C2168 1.434 . S
C2170 C2171 1.369 . S
C2170 C2172 1.419 . S
C2170 H2174 0.930 . S
C2171 C2170 1.369 . S
C2171 C2180 1.429 . S
C2172 C2170 1.419 . S
C2172 C2173 1.363 . S
C2172 H2175 0.929 . S
C2173 C2172 1.363 . S
C2173 C2179 1.428 . S
H2174 C2170 0.930 . S
H2175 C2172 0.929 . S
S2176 N2177 1.613 . S
S2176 N2178 1.610 . S
N2177 S2176 1.613 . S
N2177 C2180 1.350 . S
N2178 S2176 1.610 . S
N2178 C2179 1.351 . S
C2179 C2173 1.428 . S
C2179 N2178 1.351 . S
C2179 C2180 1.434 . S
C2180 C2171 1.429 . S
C2180 N2177 1.350 . S
C2180 C2179 1.434 . S
C2181 C2182 1.369 . S
C2181 C2183 1.419 . S
C2181 H2185 0.930 . S
C2182 C2181 1.369 . S
C2182 C2191 1.429 . S
C2183 C2181 1.419 . S
C2183 C2184 1.363 . S
C2183 H2186 0.929 . S
C2184 C2183 1.363 . S
C2184 C2190 1.428 . S
H2185 C2181 0.930 . S
H2186 C2183 0.929 . S
S2187 N2188 1.613 . S
S2187 N2189 1.610 . S
N2188 S2187 1.613 . S
N2188 C2191 1.350 . S
N2189 S2187 1.610 . S
N2189 C2190 1.351 . S
C2190 C2184 1.428 . S
C2190 N2189 1.351 . S
C2190 C2191 1.434 . S
C2191 C2182 1.429 . S
C2191 N2188 1.350 . S
C2191 C2190 1.434 . S
C2192 C2193 1.369 . S
C2192 C2194 1.419 . S
C2192 H2196 0.930 . S
C2193 C2192 1.369 . S
C2193 C2202 1.429 . S
C2194 C2192 1.419 . S
C2194 C2195 1.363 . S
C2194 H2197 0.929 . S
C2195 C2194 1.363 . S
C2195 C2201 1.428 . S
H2196 C2192 0.930 . S
H2197 C2194 0.929 . S
S2198 N2199 1.613 . S
S2198 N2200 1.610 . S
N2199 S2198 1.613 . S
N2199 C2202 1.350 . S
N2200 S2198 1.610 . S
N2200 C2201 1.351 . S
C2201 C2195 1.428 . S
C2201 N2200 1.351 . S
C2201 C2202 1.434 . S
C2202 C2193 1.429 . S
C2202 N2199 1.350 . S
C2202 C2201 1.434 . S
C2203 C2204 1.369 . S
C2203 C2205 1.419 . S
C2203 H2207 0.930 . S
C2204 C2203 1.369 . S
C2204 C2213 1.429 . S
C2205 C2203 1.419 . S
C2205 C2206 1.363 . S
C2205 H2208 0.929 . S
C2206 C2205 1.363 . S
C2206 C2212 1.428 . S
H2207 C2203 0.930 . S
H2208 C2205 0.929 . S
S2209 N2210 1.613 . S
S2209 N2211 1.610 . S
N2210 S2209 1.613 . S
N2210 C2213 1.350 . S
N2211 S2209 1.610 . S
N2211 C2212 1.351 . S
C2212 C2206 1.428 . S
C2212 N2211 1.351 . S
C2212 C2213 1.434 . S
C2213 C2204 1.429 . S
C2213 N2210 1.350 . S
C2213 C2212 1.434 . S
C1225 C5 1.303 . S
C1227 C70 1.384 1_545 S
C1236 C2 1.375 1_655 S
C1238 C39 1.328 . S
C1247 C36 1.377 . S
C1249 C73 1.333 . S
C1258 C138 1.379 1_455 S
C1260 C107 1.305 . S
C1269 C172 1.380 . S
C1271 C141 1.337 . S
C1280 C104 1.382 1_565 S
C1282 C175 1.329 . S
C1291 C274 1.385 1_565 S
C1293 C209 1.302 . S
C1302 C243 1.321 . S
C1304 C206 1.379 1_455 S
C1313 C240 1.382 . S
C1315 C277 1.336 . S
C1324 C342 1.383 1_655 S
C1326 C311 1.302 . S
C1335 C345 1.340 . S
C1337 C376 1.377 . S
C1346 C308 1.381 1_545 S
C1348 C379 1.330 . S
C1357 C413 1.311 . S
C1359 C478 1.377 . S
C1368 C447 1.309 . S
C1370 C410 1.377 . S
C1379 C481 1.311 . S
C1381 C444 1.381 . S
C1390 C546 1.381 . S
C1392 C515 1.311 . S
C1401 C580 1.375 . S
C1403 C549 1.312 . S
C1412 C583 1.309 . S
C1414 C512 1.377 . S
C1423 C617 1.305 . S
C1425 C682 1.378 . S
C1434 C651 1.310 . S
C1436 C614 1.383 . S
C1445 C685 1.299 . S
C1447 C648 1.383 . S
C1456 C750 1.383 . S
C1458 C719 1.310 . S
C1467 C784 1.375 . S
C1469 C753 1.310 . S
C1478 C787 1.300 . S
C1480 C716 1.384 . S
C1489 C886 1.379 . S
C1491 C821 1.305 . S
C1500 C818 1.386 . S
C1502 C855 1.302 . S
C1511 C889 1.301 . S
C1513 C852 1.384 . S
C1522 C954 1.386 . S
C1524 C923 1.305 . S
C1533 C957 1.306 . S
C1535 C988 1.384 . S
C1544 C920 1.380 . S
C1546 C991 1.304 . S
C1555 C1090 1.382 . S
C1557 C1025 1.311 . S
C1566 C1059 1.300 . S
C1568 C1022 1.381 . S
C1577 C1093 1.315 . S
C1579 C1056 1.378 . S
C1588 C1158 1.386 . S
C1590 C1127 1.303 . S
C1599 C1192 1.377 . S
C1601 C1161 1.305 . S
C1610 C1195 1.300 . S
C1612 C1124 1.384 . S
C1621 C689 1.604 . S
C1623 C20 1.580 . S
C1632 C54 1.579 . S
C1634 C621 1.605 . S
C1643 C88 1.586 . S
C1645 C655 1.606 . S
C1654 C1165 1.606 . S
C1656 C122 1.585 . S
C1665 C1199 1.605 . S
C1667 C156 1.585 . S
C1676 C190 1.582 . S
C1678 C1131 1.604 . S
C1687 C224 1.585 . S
C1689 C893 1.606 . S
C1698 C258 1.585 . S
C1700 C825 1.604 . S
C1709 C292 1.581 . S
C1711 C859 1.609 . S
C1720 C553 1.603 . S
C1722 C326 1.584 . S
C1731 C360 1.577 . S
C1733 C587 1.607 . S
C1742 C394 1.580 . S
C1744 C519 1.604 . S
C1753 C428 1.585 . S
C1755 C1097 1.607 1_655 S
C1764 C1029 1.609 . S
C1766 C462 1.579 . S
C1775 C1063 1.605 1_545 S
C1777 C496 1.579 . S
C1786 C530 1.586 . S
C1788 C349 1.606 . S
C1797 C564 1.586 . S
C1799 C383 1.606 . S
C1808 C598 1.578 . S
C1810 C315 1.607 . S
C1819 C77 1.609 . S
C1821 C632 1.581 . S
C1830 C666 1.580 . S
C1832 C9 1.609 . S
C1841 C700 1.579 . S
C1843 C43 1.605 . S
C1852 C961 1.609 1_545 S
C1854 C734 1.580 . S
C1863 C768 1.586 . S
C1865 C995 1.606 1_655 S
C1874 C802 1.582 . S
C1876 C927 1.604 . S
C1885 C281 1.604 . S
C1887 C836 1.580 . S
C1896 C213 1.604 . S
C1898 C870 1.579 . S
C1907 C904 1.578 . S
C1909 C247 1.606 . S
C1918 C938 1.584 . S
C1920 C757 1.608 1_565 S
C1929 C791 1.604 1_455 S
C1931 C972 1.584 . S
C1940 C1006 1.579 . S
C1942 C723 1.605 . S
C1951 C485 1.604 1_455 S
C1953 C1040 1.580 . S
C1962 C1074 1.579 . S
C1964 C417 1.609 . S
C1973 C1108 1.585 . S
C1975 C451 1.607 1_565 S
C1984 C145 1.604 . S
C1986 C1142 1.580 . S
C1995 C1176 1.585 . S
C1997 C179 1.607 . S
C2006 C111 1.607 . S
C2008 C1210 1.579 . S
C2017 C169 1.546 . S
C2019 C33 1.547 . S
C2028 C67 1.548 . S
C2030 C203 1.550 . S
C2039 C101 1.546 . S
C2041 C135 1.552 . S
C2050 C237 1.548 . S
C2052 C373 1.549 . S
C2061 C271 1.548 . S
C2063 C407 1.546 . S
C2072 C305 1.551 . S
C2074 C339 1.544 . S
C2083 C577 1.553 . S
C2085 C441 1.546 . S
C2094 C611 1.549 . S
C2096 C475 1.545 . S
C2105 C543 1.554 . S
C2107 C509 1.542 . S
C2116 C781 1.555 . S
C2118 C645 1.542 . S
C2127 C815 1.555 . S
C2129 C679 1.543 . S
C2138 C747 1.548 . S
C2140 C713 1.550 . S
C2149 C985 1.541 . S
C2151 C849 1.553 . S
C2160 C883 1.545 . S
C2162 C1019 1.548 . S
C2171 C951 1.541 . S
C2173 C917 1.554 . S
C2182 C1189 1.541 . S
C2184 C1053 1.553 . S
C2193 C1223 1.542 . S
C2195 C1087 1.552 . S
C2204 C1121 1.553 . S
C2206 C1155 1.545 . S
