# Generated by pormake.
# Topology tes, (8)-cn, num edge types: 1
# Building blocks:
#     Node 0, Type 0, BuildingBlock: TAGTUT_clean_sbu_3, # of connection points: 8
#     Node 1, Type 0, BuildingBlock: TAGTUT_clean_sbu_3, # of connection points: 8
#     Node 2, Type 0, BuildingBlock: TAGTUT_clean_sbu_3, # of connection points: 8
#     Node 3, Type 0, BuildingBlock: TAGTUT_clean_sbu_3, # of connection points: 8
#     Node 4, Type 0, BuildingBlock: TAGTUT_clean_sbu_3, # of connection points: 8
#     Node 5, Type 0, BuildingBlock: TAGTUT_clean_sbu_3, # of connection points: 8
#     Node 6, Type 0, BuildingBlock: TAGTUT_clean_sbu_3, # of connection points: 8
#     Node 7, Type 0, BuildingBlock: TAGTUT_clean_sbu_3, # of connection points: 8
#     Node 8, Type 0, BuildingBlock: TAGTUT_clean_sbu_3, # of connection points: 8
#     Node 9, Type 0, BuildingBlock: TAGTUT_clean_sbu_3, # of connection points: 8
#     Node 10, Type 0, BuildingBlock: TAGTUT_clean_sbu_3, # of connection points: 8
#     Node 11, Type 0, BuildingBlock: TAGTUT_clean_sbu_3, # of connection points: 8
#     Node 12, Type 0, BuildingBlock: TAGTUT_clean_sbu_3, # of connection points: 8
#     Node 13, Type 0, BuildingBlock: TAGTUT_clean_sbu_3, # of connection points: 8
#     Node 14, Type 0, BuildingBlock: TAGTUT_clean_sbu_3, # of connection points: 8
#     Node 15, Type 0, BuildingBlock: TAGTUT_clean_sbu_3, # of connection points: 8
#     Node 16, Type 0, BuildingBlock: TAGTUT_clean_sbu_3, # of connection points: 8
#     Node 17, Type 0, BuildingBlock: TAGTUT_clean_sbu_3, # of connection points: 8
#     Node 18, Type 0, BuildingBlock: TAGTUT_clean_sbu_3, # of connection points: 8
#     Node 19, Type 0, BuildingBlock: TAGTUT_clean_sbu_3, # of connection points: 8
#     Node 20, Type 0, BuildingBlock: TAGTUT_clean_sbu_3, # of connection points: 8
#     Node 21, Type 0, BuildingBlock: TAGTUT_clean_sbu_3, # of connection points: 8
#     Node 22, Type 0, BuildingBlock: TAGTUT_clean_sbu_3, # of connection points: 8
#     Node 23, Type 0, BuildingBlock: TAGTUT_clean_sbu_3, # of connection points: 8
#     Edge 24, Type (0, 0), BuildingBlock: XUDNAN_clean_linker_2, # of connection points: 2
#     Edge 25, Type (0, 0), BuildingBlock: XUDNAN_clean_linker_2, # of connection points: 2
#     Edge 26, Type (0, 0), BuildingBlock: XUDNAN_clean_linker_2, # of connection points: 2
#     Edge 27, Type (0, 0), BuildingBlock: XUDNAN_clean_linker_2, # of connection points: 2
#     Edge 28, Type (0, 0), BuildingBlock: XUDNAN_clean_linker_2, # of connection points: 2
#     Edge 29, Type (0, 0), BuildingBlock: XUDNAN_clean_linker_2, # of connection points: 2
#     Edge 30, Type (0, 0), BuildingBlock: XUDNAN_clean_linker_2, # of connection points: 2
#     Edge 31, Type (0, 0), BuildingBlock: XUDNAN_clean_linker_2, # of connection points: 2
#     Edge 32, Type (0, 0), BuildingBlock: XUDNAN_clean_linker_2, # of connection points: 2
#     Edge 33, Type (0, 0), BuildingBlock: XUDNAN_clean_linker_2, # of connection points: 2
#     Edge 34, Type (0, 0), BuildingBlock: XUDNAN_clean_linker_2, # of connection points: 2
#     Edge 35, Type (0, 0), BuildingBlock: XUDNAN_clean_linker_2, # of connection points: 2
#     Edge 36, Type (0, 0), BuildingBlock: XUDNAN_clean_linker_2, # of connection points: 2
#     Edge 37, Type (0, 0), BuildingBlock: XUDNAN_clean_linker_2, # of connection points: 2
#     Edge 38, Type (0, 0), BuildingBlock: XUDNAN_clean_linker_2, # of connection points: 2
#     Edge 39, Type (0, 0), BuildingBlock: XUDNAN_clean_linker_2, # of connection points: 2
#     Edge 40, Type (0, 0), BuildingBlock: XUDNAN_clean_linker_2, # of connection points: 2
#     Edge 41, Type (0, 0), BuildingBlock: XUDNAN_clean_linker_2, # of connection points: 2
#     Edge 42, Type (0, 0), BuildingBlock: XUDNAN_clean_linker_2, # of connection points: 2
#     Edge 43, Type (0, 0), BuildingBlock: XUDNAN_clean_linker_2, # of connection points: 2
#     Edge 44, Type (0, 0), BuildingBlock: XUDNAN_clean_linker_2, # of connection points: 2
#     Edge 45, Type (0, 0), BuildingBlock: XUDNAN_clean_linker_2, # of connection points: 2
#     Edge 46, Type (0, 0), BuildingBlock: XUDNAN_clean_linker_2, # of connection points: 2
#     Edge 47, Type (0, 0), BuildingBlock: XUDNAN_clean_linker_2, # of connection points: 2
#     Edge 48, Type (0, 0), BuildingBlock: XUDNAN_clean_linker_2, # of connection points: 2
#     Edge 49, Type (0, 0), BuildingBlock: XUDNAN_clean_linker_2, # of connection points: 2
#     Edge 50, Type (0, 0), BuildingBlock: XUDNAN_clean_linker_2, # of connection points: 2
#     Edge 51, Type (0, 0), BuildingBlock: XUDNAN_clean_linker_2, # of connection points: 2
#     Edge 52, Type (0, 0), BuildingBlock: XUDNAN_clean_linker_2, # of connection points: 2
#     Edge 53, Type (0, 0), BuildingBlock: XUDNAN_clean_linker_2, # of connection points: 2
#     Edge 54, Type (0, 0), BuildingBlock: XUDNAN_clean_linker_2, # of connection points: 2
#     Edge 55, Type (0, 0), BuildingBlock: XUDNAN_clean_linker_2, # of connection points: 2
#     Edge 56, Type (0, 0), BuildingBlock: XUDNAN_clean_linker_2, # of connection points: 2
#     Edge 57, Type (0, 0), BuildingBlock: XUDNAN_clean_linker_2, # of connection points: 2
#     Edge 58, Type (0, 0), BuildingBlock: XUDNAN_clean_linker_2, # of connection points: 2
#     Edge 59, Type (0, 0), BuildingBlock: XUDNAN_clean_linker_2, # of connection points: 2
#     Edge 60, Type (0, 0), BuildingBlock: XUDNAN_clean_linker_2, # of connection points: 2
#     Edge 61, Type (0, 0), BuildingBlock: XUDNAN_clean_linker_2, # of connection points: 2
#     Edge 62, Type (0, 0), BuildingBlock: XUDNAN_clean_linker_2, # of connection points: 2
#     Edge 63, Type (0, 0), BuildingBlock: XUDNAN_clean_linker_2, # of connection points: 2
#     Edge 64, Type (0, 0), BuildingBlock: XUDNAN_clean_linker_2, # of connection points: 2
#     Edge 65, Type (0, 0), BuildingBlock: XUDNAN_clean_linker_2, # of connection points: 2
#     Edge 66, Type (0, 0), BuildingBlock: XUDNAN_clean_linker_2, # of connection points: 2
#     Edge 67, Type (0, 0), BuildingBlock: XUDNAN_clean_linker_2, # of connection points: 2
#     Edge 68, Type (0, 0), BuildingBlock: XUDNAN_clean_linker_2, # of connection points: 2
#     Edge 69, Type (0, 0), BuildingBlock: XUDNAN_clean_linker_2, # of connection points: 2
#     Edge 70, Type (0, 0), BuildingBlock: XUDNAN_clean_linker_2, # of connection points: 2
#     Edge 71, Type (0, 0), BuildingBlock: XUDNAN_clean_linker_2, # of connection points: 2
#     Edge 72, Type (0, 0), BuildingBlock: XUDNAN_clean_linker_2, # of connection points: 2
#     Edge 73, Type (0, 0), BuildingBlock: XUDNAN_clean_linker_2, # of connection points: 2
#     Edge 74, Type (0, 0), BuildingBlock: XUDNAN_clean_linker_2, # of connection points: 2
#     Edge 75, Type (0, 0), BuildingBlock: XUDNAN_clean_linker_2, # of connection points: 2
#     Edge 76, Type (0, 0), BuildingBlock: XUDNAN_clean_linker_2, # of connection points: 2
#     Edge 77, Type (0, 0), BuildingBlock: XUDNAN_clean_linker_2, # of connection points: 2
#     Edge 78, Type (0, 0), BuildingBlock: XUDNAN_clean_linker_2, # of connection points: 2
#     Edge 79, Type (0, 0), BuildingBlock: XUDNAN_clean_linker_2, # of connection points: 2
#     Edge 80, Type (0, 0), BuildingBlock: XUDNAN_clean_linker_2, # of connection points: 2
#     Edge 81, Type (0, 0), BuildingBlock: XUDNAN_clean_linker_2, # of connection points: 2
#     Edge 82, Type (0, 0), BuildingBlock: XUDNAN_clean_linker_2, # of connection points: 2
#     Edge 83, Type (0, 0), BuildingBlock: XUDNAN_clean_linker_2, # of connection points: 2
#     Edge 84, Type (0, 0), BuildingBlock: XUDNAN_clean_linker_2, # of connection points: 2
#     Edge 85, Type (0, 0), BuildingBlock: XUDNAN_clean_linker_2, # of connection points: 2
#     Edge 86, Type (0, 0), BuildingBlock: XUDNAN_clean_linker_2, # of connection points: 2
#     Edge 87, Type (0, 0), BuildingBlock: XUDNAN_clean_linker_2, # of connection points: 2
#     Edge 88, Type (0, 0), BuildingBlock: XUDNAN_clean_linker_2, # of connection points: 2
#     Edge 89, Type (0, 0), BuildingBlock: XUDNAN_clean_linker_2, # of connection points: 2
#     Edge 90, Type (0, 0), BuildingBlock: XUDNAN_clean_linker_2, # of connection points: 2
#     Edge 91, Type (0, 0), BuildingBlock: XUDNAN_clean_linker_2, # of connection points: 2
#     Edge 92, Type (0, 0), BuildingBlock: XUDNAN_clean_linker_2, # of connection points: 2
#     Edge 93, Type (0, 0), BuildingBlock: XUDNAN_clean_linker_2, # of connection points: 2
#     Edge 94, Type (0, 0), BuildingBlock: XUDNAN_clean_linker_2, # of connection points: 2
#     Edge 95, Type (0, 0), BuildingBlock: XUDNAN_clean_linker_2, # of connection points: 2
#     Edge 96, Type (0, 0), BuildingBlock: XUDNAN_clean_linker_2, # of connection points: 2
#     Edge 97, Type (0, 0), BuildingBlock: XUDNAN_clean_linker_2, # of connection points: 2
#     Edge 98, Type (0, 0), BuildingBlock: XUDNAN_clean_linker_2, # of connection points: 2
#     Edge 99, Type (0, 0), BuildingBlock: XUDNAN_clean_linker_2, # of connection points: 2
#     Edge 100, Type (0, 0), BuildingBlock: XUDNAN_clean_linker_2, # of connection points: 2
#     Edge 101, Type (0, 0), BuildingBlock: XUDNAN_clean_linker_2, # of connection points: 2
#     Edge 102, Type (0, 0), BuildingBlock: XUDNAN_clean_linker_2, # of connection points: 2
#     Edge 103, Type (0, 0), BuildingBlock: XUDNAN_clean_linker_2, # of connection points: 2
#     Edge 104, Type (0, 0), BuildingBlock: XUDNAN_clean_linker_2, # of connection points: 2
#     Edge 105, Type (0, 0), BuildingBlock: XUDNAN_clean_linker_2, # of connection points: 2
#     Edge 106, Type (0, 0), BuildingBlock: XUDNAN_clean_linker_2, # of connection points: 2
#     Edge 107, Type (0, 0), BuildingBlock: XUDNAN_clean_linker_2, # of connection points: 2
#     Edge 108, Type (0, 0), BuildingBlock: XUDNAN_clean_linker_2, # of connection points: 2
#     Edge 109, Type (0, 0), BuildingBlock: XUDNAN_clean_linker_2, # of connection points: 2
#     Edge 110, Type (0, 0), BuildingBlock: XUDNAN_clean_linker_2, # of connection points: 2
#     Edge 111, Type (0, 0), BuildingBlock: XUDNAN_clean_linker_2, # of connection points: 2
#     Edge 112, Type (0, 0), BuildingBlock: XUDNAN_clean_linker_2, # of connection points: 2
#     Edge 113, Type (0, 0), BuildingBlock: XUDNAN_clean_linker_2, # of connection points: 2
#     Edge 114, Type (0, 0), BuildingBlock: XUDNAN_clean_linker_2, # of connection points: 2
#     Edge 115, Type (0, 0), BuildingBlock: XUDNAN_clean_linker_2, # of connection points: 2
#     Edge 116, Type (0, 0), BuildingBlock: XUDNAN_clean_linker_2, # of connection points: 2
#     Edge 117, Type (0, 0), BuildingBlock: XUDNAN_clean_linker_2, # of connection points: 2
#     Edge 118, Type (0, 0), BuildingBlock: XUDNAN_clean_linker_2, # of connection points: 2
#     Edge 119, Type (0, 0), BuildingBlock: XUDNAN_clean_linker_2, # of connection points: 2
# Relax obj value: 0.263
# Max RMSD: 0.244
# Mean RMSD: 0.244
data_MOF--net-tes--node1-TAGTUT_clean_sbu_3--edge1-XUDNAN_clean_linker_2
_symmetry_space_group_name_H-M    P1
_symmetry_Int_Tables_number       1
_symmetry_cell_setting            triclinic
loop_
_symmetry_equiv_pos_as_xyz
'x, y, z'
_cell_length_a     45.387656
_cell_length_b     45.577199
_cell_length_c     45.595371
_cell_angle_alpha  89.697649
_cell_angle_beta   89.872481
_cell_angle_gamma 90.31436
loop_
_atom_site_label
_atom_site_type_symbol
_atom_site_fract_x
_atom_site_fract_y
_atom_site_fract_z
_atom_type_partial_charge
C0 C 0.16237 0.3393 0.43309 0.0
C1 C 0.19805 0.30412 0.33403 0.0
C2 C 0.17861 0.39858 0.3057 0.0
Mg3 Mg 0.12857 0.39981 0.44739 0.0
Mg4 Mg 0.06969 0.41028 0.38709 0.0
O5 O 0.11174 0.41164 0.40356 0.0
Mg6 Mg 0.13362 0.38135 0.38189 0.0
O7 O 0.15557 0.35121 0.36204 0.0
Mg8 Mg 0.19511 0.36675 0.37192 0.0
Mg9 Mg 0.14628 0.34374 0.32237 0.0
C10 C 0.10385 0.42248 0.32935 0.0
O11 O 0.09225 0.34999 0.37015 0.0
O12 O 0.10067 0.4296 0.41844 0.0
O13 O 0.10124 0.33055 0.32608 0.0
O14 O 0.08336 0.37767 0.45658 0.0
O15 O 0.05823 0.45068 0.41038 0.0
O16 O 0.06534 0.36937 0.41189 0.0
O17 O 0.17726 0.41048 0.38956 0.0
O18 O 0.17288 0.42577 0.43496 0.0
C19 C 0.18687 0.42687 0.41046 0.0
C20 C 0.08147 0.44911 0.4258 0.0
O21 O 0.1259 0.40986 0.34118 0.0
O22 O 0.20894 0.32376 0.35101 0.0
O23 O 0.07813 0.42043 0.34069 0.0
O24 O 0.19547 0.39293 0.32772 0.0
O25 O 0.17601 0.3088 0.31736 0.0
O26 O 0.15662 0.38241 0.29949 0.0
O27 O 0.14092 0.35573 0.42485 0.0
O28 O 0.18665 0.34041 0.41816 0.0
C29 C 0.06243 0.36905 0.4396 0.0
C30 C 0.08469 0.33351 0.34851 0.0
C31 C 0.83545 0.92969 0.64561 0.0
C32 C 0.80102 0.82111 0.67154 0.0
C33 C 0.8919 0.80404 0.67581 0.0
Mg34 Mg 0.89867 0.94305 0.61528 0.0
Mg35 Mg 0.91933 0.88375 0.55969 0.0
O36 O 0.91388 0.90064 0.60114 0.0
Mg37 Mg 0.88171 0.87905 0.62068 0.0
O38 O 0.84937 0.8586 0.63933 0.0
Mg39 Mg 0.8573 0.86881 0.68074 0.0
Mg40 Mg 0.85165 0.81918 0.62868 0.0
C41 C 0.92794 0.82703 0.59323 0.0
O42 O 0.85335 0.86918 0.57758 0.0
O43 O 0.93273 0.91659 0.59133 0.0
O44 O 0.84956 0.82082 0.5822 0.0
O45 O 0.87594 0.94434 0.56972 0.0
O46 O 0.95958 0.90951 0.55209 0.0
O47 O 0.88153 0.90442 0.54075 0.0
O48 O 0.90496 0.88676 0.66722 0.0
O49 O 0.92141 0.93232 0.66145 0.0
C50 C 0.9209 0.90832 0.67659 0.0
C51 C 0.95332 0.92559 0.57391 0.0
O52 O 0.91256 0.83897 0.61347 0.0
O53 O 0.81351 0.84325 0.68422 0.0
O54 O 0.92889 0.8381 0.56748 0.0
O55 O 0.87916 0.82388 0.69089 0.0
O56 O 0.81218 0.80703 0.65017 0.0
O57 O 0.89031 0.80405 0.64825 0.0
O58 O 0.85507 0.92069 0.62736 0.0
O59 O 0.83157 0.91445 0.66915 0.0
C60 C 0.86908 0.92885 0.54703 0.0
C61 C 0.84337 0.84439 0.56841 0.0
C62 C 0.32455 0.59256 0.90695 0.0
C63 C 0.41799 0.54577 0.92032 0.0
C64 C 0.45059 0.62875 0.94596 0.0
Mg65 Mg 0.32906 0.65323 0.86606 0.0
Mg66 Mg 0.3851 0.66191 0.82039 0.0
O67 O 0.37101 0.66194 0.85982 0.0
Mg68 Mg 0.38559 0.62977 0.88307 0.0
O69 O 0.39991 0.59609 0.90716 0.0
Mg70 Mg 0.38214 0.61043 0.94847 0.0
Mg71 Mg 0.4415 0.59128 0.89358 0.0
C72 C 0.44358 0.66901 0.8516 0.0
O73 O 0.39217 0.60067 0.84372 0.0
O74 O 0.32689 0.69723 0.84073 0.0
O75 O 0.4383 0.58582 0.84595 0.0
O76 O 0.32728 0.62608 0.82396 0.0
O77 O 0.36374 0.70003 0.80726 0.0
O78 O 0.3687 0.62531 0.79749 0.0
O79 O 0.37772 0.65625 0.92532 0.0
O80 O 0.33717 0.67893 0.91073 0.0
C81 C 0.35803 0.67595 0.92967 0.0
C82 C 0.34147 0.71059 0.82033 0.0
O83 O 0.43162 0.65679 0.87436 0.0
O84 O 0.40736 0.57007 0.92951 0.0
O85 O 0.43079 0.66867 0.82672 0.0
O86 O 0.42899 0.62373 0.96336 0.0
O87 O 0.44324 0.5465 0.90836 0.0
O88 O 0.44602 0.63098 0.91884 0.0
O89 O 0.33816 0.6072 0.88676 0.0
O90 O 0.33578 0.59233 0.93269 0.0
C91 C 0.34312 0.61547 0.80328 0.0
C92 C 0.41334 0.58593 0.83317 0.0
C93 C 0.67564 0.07524 0.15442 0.0
C94 C 0.726 0.17631 0.17459 0.0
C95 C 0.63304 0.20616 0.18552 0.0
Mg96 Mg 0.6039 0.07598 0.12891 0.0
Mg97 Mg 0.5977 0.12888 0.07771 0.0
O98 O 0.59936 0.11793 0.11749 0.0
Mg99 Mg 0.63561 0.13275 0.13272 0.0
O100 O 0.67108 0.14826 0.14873 0.0
Mg101 Mg 0.66325 0.1388 0.19027 0.0
Mg102 Mg 0.67349 0.18808 0.13821 0.0
C103 C 0.59707 0.18852 0.10499 0.0
O104 O 0.66302 0.13992 0.08745 0.0
O105 O 0.55565 0.08191 0.11395 0.0
O106 O 0.67134 0.18764 0.09204 0.0
O107 O 0.61482 0.06311 0.08163 0.0
O108 O 0.55492 0.11248 0.07434 0.0
O109 O 0.63184 0.10311 0.06022 0.0
O110 O 0.61327 0.12905 0.18025 0.0
O111 O 0.58743 0.08866 0.17685 0.0
C112 C 0.59354 0.11181 0.19137 0.0
C113 C 0.54219 0.0971 0.0941 0.0
O114 O 0.61114 0.17711 0.12657 0.0
O115 O 0.71104 0.1569 0.18919 0.0
O116 O 0.59629 0.17577 0.08016 0.0
O117 O 0.64291 0.18439 0.2004 0.0
O118 O 0.71498 0.19401 0.15599 0.0
O119 O 0.64128 0.21114 0.1595 0.0
O120 O 0.65526 0.08501 0.13726 0.0
O121 O 0.68238 0.09081 0.17698 0.0
C122 C 0.62415 0.07654 0.05877 0.0
C123 C 0.67418 0.16408 0.07747 0.0
C124 C 0.18877 0.59228 0.10291 0.0
C125 C 0.09175 0.53747 0.0879 0.0
C126 C 0.05186 0.62073 0.08113 0.0
Mg127 Mg 0.18644 0.66 0.13583 0.0
Mg128 Mg 0.13566 0.66558 0.18893 0.0
O129 O 0.14547 0.66449 0.14842 0.0
Mg130 Mg 0.13107 0.62909 0.13178 0.0
O131 O 0.11649 0.59334 0.11506 0.0
Mg132 Mg 0.12257 0.60239 0.07254 0.0
Mg133 Mg 0.07756 0.58809 0.12749 0.0
C134 C 0.07501 0.6679 0.16306 0.0
O135 O 0.12658 0.60244 0.17711 0.0
O136 O 0.1841 0.70683 0.15633 0.0
O137 O 0.08118 0.58371 0.17353 0.0
O138 O 0.19815 0.63855 0.17929 0.0
O139 O 0.15308 0.70686 0.19549 0.0
O140 O 0.16104 0.6337 0.21103 0.0
O141 O 0.13208 0.65201 0.08419 0.0
O142 O 0.17112 0.6805 0.08947 0.0
C143 C 0.14864 0.67296 0.07409 0.0
C144 C 0.17034 0.71966 0.17753 0.0
O145 O 0.08595 0.65394 0.14107 0.0
O146 O 0.10982 0.55355 0.07284 0.0
O147 O 0.08871 0.66889 0.18746 0.0
O148 O 0.07311 0.61207 0.06501 0.0
O149 O 0.07406 0.54727 0.10722 0.0
O150 O 0.05515 0.62308 0.10838 0.0
O151 O 0.17972 0.60916 0.12384 0.0
O152 O 0.17179 0.58886 0.08072 0.0
C153 C 0.18699 0.62748 0.20267 0.0
C154 C 0.10515 0.58688 0.18765 0.0
C155 C 0.67783 0.92908 0.35942 0.0
C156 C 0.71939 0.82578 0.34215 0.0
C157 C 0.62431 0.79994 0.33825 0.0
Mg158 Mg 0.61058 0.94206 0.38177 0.0
Mg159 Mg 0.6009 0.88654 0.4439 0.0
O160 O 0.59777 0.8999 0.40095 0.0
Mg161 Mg 0.63135 0.87774 0.38488 0.0
O162 O 0.66501 0.85778 0.36935 0.0
Mg163 Mg 0.65859 0.86582 0.32735 0.0
Mg164 Mg 0.66804 0.81885 0.38252 0.0
C165 C 0.59302 0.82488 0.41874 0.0
O166 O 0.65705 0.87091 0.43024 0.0
O167 O 0.58045 0.91596 0.41273 0.0
O168 O 0.67064 0.82389 0.42841 0.0
O169 O 0.6355 0.9523 0.42468 0.0
O170 O 0.56061 0.90868 0.45632 0.0
O171 O 0.63664 0.91448 0.45718 0.0
O172 O 0.61025 0.88236 0.33721 0.0
O173 O 0.58705 0.92472 0.33728 0.0
C174 C 0.59175 0.89996 0.32472 0.0
C175 C 0.56333 0.9248 0.43361 0.0
O176 O 0.60276 0.83498 0.3942 0.0
O177 O 0.70461 0.84451 0.32691 0.0
O178 O 0.59632 0.8395 0.44237 0.0
O179 O 0.6343 0.82095 0.32208 0.0
O180 O 0.7088 0.81083 0.36332 0.0
O181 O 0.63329 0.79581 0.36423 0.0
O182 O 0.65678 0.9208 0.37669 0.0
O183 O 0.68318 0.91276 0.33708 0.0
C184 C 0.64543 0.9397 0.44801 0.0
C185 C 0.66923 0.84824 0.44193 0.0
C186 C 0.36012 0.34288 0.57385 0.0
C187 C 0.32711 0.30842 0.67362 0.0
C188 C 0.31184 0.39035 0.6962 0.0
Mg189 Mg 0.39948 0.40684 0.57863 0.0
Mg190 Mg 0.4386 0.41841 0.63785 0.0
O191 O 0.40125 0.41511 0.62111 0.0
Mg192 Mg 0.37887 0.38155 0.63541 0.0
O193 O 0.35463 0.34851 0.64975 0.0
Mg194 Mg 0.31456 0.36253 0.62747 0.0
Mg195 Mg 0.36543 0.34445 0.69327 0.0
C196 C 0.404 0.42106 0.6942 0.0
O197 O 0.41837 0.35138 0.64651 0.0
O198 O 0.42271 0.4515 0.57697 0.0
O199 O 0.41284 0.33431 0.69187 0.0
O200 O 0.44802 0.3875 0.57911 0.0
O201 O 0.45185 0.45773 0.6166 0.0
O202 O 0.45985 0.38041 0.62567 0.0
O203 O 0.33751 0.40792 0.62405 0.0
O204 O 0.35159 0.43027 0.58322 0.0
C205 C 0.33258 0.42743 0.60423 0.0
C206 C 0.44141 0.46637 0.59218 0.0
O207 O 0.38253 0.40714 0.68167 0.0
O208 O 0.33566 0.33086 0.65856 0.0
O209 O 0.42935 0.42273 0.6824 0.0
O210 O 0.30215 0.38399 0.67047 0.0
O211 O 0.34126 0.30302 0.69707 0.0
O212 O 0.33602 0.37996 0.70696 0.0
O213 O 0.37878 0.35977 0.58734 0.0
O214 O 0.33423 0.33996 0.58488 0.0
C215 C 0.46599 0.37829 0.59887 0.0
C216 C 0.42761 0.33571 0.66796 0.0
C217 C 0.92871 0.1069 0.83092 0.0
C218 C 0.95506 0.08271 0.93329 0.0
C219 C 0.86798 0.07372 0.95416 0.0
Mg220 Mg 0.86696 0.14637 0.82765 0.0
Mg221 Mg 0.84903 0.19122 0.88193 0.0
O222 O 0.85505 0.15299 0.86868 0.0
Mg223 Mg 0.88636 0.13218 0.88747 0.0
O224 O 0.91694 0.1088 0.90647 0.0
Mg225 Mg 0.9025 0.06716 0.88767 0.0
Mg226 Mg 0.91874 0.12182 0.94941 0.0
C227 C 0.84227 0.16021 0.94124 0.0
O228 O 0.91554 0.17372 0.89797 0.0
O229 O 0.82143 0.16701 0.82129 0.0
O230 O 0.9251 0.16864 0.94568 0.0
O231 O 0.89122 0.19157 0.82721 0.0
O232 O 0.81186 0.20006 0.8567 0.0
O233 O 0.88589 0.21502 0.86988 0.0
O234 O 0.85957 0.09052 0.87739 0.0
O235 O 0.84215 0.09982 0.83325 0.0
C236 C 0.84236 0.08333 0.85628 0.0
C237 C 0.80423 0.18487 0.83465 0.0
O238 O 0.85742 0.13849 0.93142 0.0
O239 O 0.93418 0.09176 0.91647 0.0
O240 O 0.83968 0.18398 0.92666 0.0
O241 O 0.87593 0.06048 0.93048 0.0
O242 O 0.96015 0.09753 0.95632 0.0
O243 O 0.88052 0.09721 0.96356 0.0
O244 O 0.91301 0.12784 0.84173 0.0
O245 O 0.92794 0.08179 0.84402 0.0
C246 C 0.89828 0.21211 0.84515 0.0
C247 C 0.92697 0.18334 0.92177 0.0
C248 C 0.39701 0.18538 0.41978 0.0
C249 C 0.43239 0.08956 0.46791 0.0
C250 C 0.43805 0.05852 0.37583 0.0
Mg251 Mg 0.35737 0.1798 0.35736 0.0
Mg252 Mg 0.32157 0.11924 0.3376 0.0
O253 O 0.35733 0.13821 0.34654 0.0
Mg254 Mg 0.37732 0.12497 0.38134 0.0
O255 O 0.39794 0.11206 0.41526 0.0
Mg256 Mg 0.43748 0.12699 0.40415 0.0
Mg257 Mg 0.39285 0.07132 0.41977 0.0
C258 C 0.35854 0.06475 0.33958 0.0
O259 O 0.3344 0.1119 0.41003 0.0
O260 O 0.33513 0.18248 0.31274 0.0
O261 O 0.34693 0.06743 0.42621 0.0
O262 O 0.30925 0.17417 0.37809 0.0
O263 O 0.30969 0.14223 0.29919 0.0
O264 O 0.29376 0.12784 0.37195 0.0
O265 O 0.4223 0.13722 0.35619 0.0
O266 O 0.40656 0.17764 0.33445 0.0
C267 C 0.42701 0.15801 0.33742 0.0
C268 C 0.31863 0.16839 0.29464 0.0
O269 O 0.37676 0.07901 0.35596 0.0
O270 O 0.44264 0.11072 0.45194 0.0
O271 O 0.33364 0.0753 0.33255 0.0
O272 O 0.44985 0.08271 0.384 0.0
O273 O 0.41654 0.06863 0.45831 0.0
O274 O 0.41355 0.04966 0.38589 0.0
O275 O 0.37695 0.17214 0.40439 0.0
O276 O 0.42222 0.17304 0.42245 0.0
C277 C 0.29046 0.1532 0.38259 0.0
C278 C 0.32846 0.08838 0.42483 0.0
C279 C 0.08826 0.15433 0.67701 0.0
C280 C 0.20075 0.18288 0.70856 0.0
C281 C 0.21469 0.16763 0.61727 0.0
Mg282 Mg 0.07168 0.12885 0.61121 0.0
Mg283 Mg 0.12592 0.06653 0.59735 0.0
O284 O 0.11366 0.10944 0.59883 0.0
Mg285 Mg 0.13716 0.12635 0.63101 0.0
O286 O 0.15878 0.14357 0.66403 0.0
Mg287 Mg 0.15152 0.18489 0.65293 0.0
Mg288 Mg 0.19775 0.13017 0.66903 0.0
C289 C 0.18816 0.09123 0.59079 0.0
O290 O 0.14314 0.08191 0.65858 0.0
O291 O 0.09697 0.10007 0.58019 0.0
O292 O 0.18793 0.08521 0.67948 0.0
O293 O 0.06172 0.0848 0.63466 0.0
O294 O 0.10357 0.05974 0.55536 0.0
O295 O 0.09932 0.05216 0.63323 0.0
O296 O 0.13148 0.17234 0.60798 0.0
O297 O 0.08826 0.17255 0.5862 0.0
C298 C 0.11356 0.18473 0.5898 0.0
C299 C 0.08857 0.08287 0.55943 0.0
O300 O 0.17893 0.11563 0.60129 0.0
O301 O 0.17919 0.19363 0.69375 0.0
O302 O 0.17295 0.06776 0.59372 0.0
O303 O 0.19413 0.18506 0.6254 0.0
O304 O 0.212 0.15784 0.70361 0.0
O305 O 0.21958 0.1433 0.63021 0.0
O306 O 0.09514 0.13658 0.65614 0.0
O307 O 0.10559 0.17655 0.68131 0.0
C308 C 0.07429 0.06079 0.64289 0.0
C309 C 0.16368 0.0715 0.67515 0.0
C310 C 0.09966 0.82532 0.91627 0.0
C311 C 0.07749 0.91778 0.96192 0.0
C312 C 0.07145 0.95547 0.87291 0.0
Mg313 Mg 0.13769 0.82872 0.85196 0.0
Mg314 Mg 0.1895 0.88195 0.85219 0.0
O315 O 0.14971 0.87066 0.84952 0.0
Mg316 Mg 0.12758 0.88539 0.88211 0.0
O317 O 0.10247 0.9001 0.91436 0.0
Mg318 Mg 0.0617 0.8853 0.89603 0.0
Mg319 Mg 0.11477 0.94049 0.92487 0.0
C320 C 0.161 0.94131 0.84799 0.0
O321 O 0.16993 0.89282 0.91389 0.0
O322 O 0.1623 0.83279 0.80672 0.0
O323 O 0.1616 0.93867 0.92835 0.0
O324 O 0.1803 0.8157 0.87439 0.0
O325 O 0.199 0.86676 0.80987 0.0
O326 O 0.20681 0.85478 0.88591 0.0
O327 O 0.08576 0.87956 0.85281 0.0
O328 O 0.09318 0.84049 0.82633 0.0
C329 C 0.07756 0.86308 0.83148 0.0
C330 C 0.18339 0.84852 0.79546 0.0
O331 O 0.13632 0.93094 0.85761 0.0
O332 O 0.07526 0.91178 0.9349 0.0
O333 O 0.18517 0.92892 0.85517 0.0
O334 O 0.05703 0.93113 0.87503 0.0
O335 O 0.09409 0.93935 0.96826 0.0
O336 O 0.0932 0.9622 0.88947 0.0
O337 O 0.12064 0.83698 0.90096 0.0
O338 O 0.07469 0.83856 0.91728 0.0
C339 C 0.20475 0.82729 0.88185 0.0
C340 C 0.17808 0.91608 0.92779 0.0
C341 C 0.43862 0.85306 0.1653 0.0
C342 C 0.33419 0.81491 0.20544 0.0
C343 C 0.30645 0.82884 0.11958 0.0
Mg344 Mg 0.44121 0.89121 0.10068 0.0
Mg345 Mg 0.38782 0.93929 0.09388 0.0
O346 O 0.39911 0.90004 0.09323 0.0
Mg347 Mg 0.382 0.88011 0.12625 0.0
O348 O 0.3655 0.85872 0.15962 0.0
Mg349 Mg 0.37516 0.81891 0.1446 0.0
Mg350 Mg 0.32585 0.86801 0.16626 0.0
C351 C 0.32689 0.91338 0.08723 0.0
O352 O 0.37375 0.92067 0.15731 0.0
O353 O 0.44165 0.91261 0.05421 0.0
O354 O 0.33079 0.91254 0.18011 0.0
O355 O 0.45004 0.93713 0.11987 0.0
O356 O 0.40891 0.95007 0.05454 0.0
O357 O 0.40697 0.95618 0.13164 0.0
O358 O 0.38858 0.83683 0.09956 0.0
O359 O 0.43149 0.84526 0.07875 0.0
C360 C 0.40886 0.8286 0.08189 0.0
C361 C 0.42763 0.93386 0.04169 0.0
O362 O 0.3372 0.8895 0.09844 0.0
O363 O 0.35518 0.80664 0.18838 0.0
O364 O 0.34158 0.93721 0.08891 0.0
O365 O 0.32844 0.81244 0.12579 0.0
O366 O 0.31855 0.8376 0.20068 0.0
O367 O 0.30628 0.85568 0.12648 0.0
O368 O 0.42946 0.87457 0.14916 0.0
O369 O 0.42284 0.82935 0.16604 0.0
C370 C 0.43472 0.95695 0.13234 0.0
C371 C 0.35397 0.92809 0.17615 0.0
C372 C 0.34499 0.43524 0.14613 0.0
C373 C 0.30067 0.33655 0.19448 0.0
C374 C 0.38643 0.30455 0.17799 0.0
Mg375 Mg 0.40873 0.43237 0.1076 0.0
Mg376 Mg 0.42526 0.37339 0.06814 0.0
O377 O 0.41801 0.39016 0.10484 0.0
Mg378 Mg 0.38329 0.37581 0.12491 0.0
O379 O 0.34821 0.36267 0.14632 0.0
Mg380 Mg 0.36358 0.37494 0.18516 0.0
Mg381 Mg 0.33592 0.32369 0.13985 0.0
C382 C 0.42485 0.31712 0.10291 0.0
O383 O 0.35427 0.36561 0.0831 0.0
O384 O 0.45417 0.43509 0.08515 0.0
O385 O 0.32535 0.32688 0.09393 0.0
O386 O 0.38663 0.43147 0.06092 0.0
O387 O 0.46489 0.39513 0.05808 0.0
O388 O 0.39117 0.38655 0.04168 0.0
O389 O 0.40944 0.38651 0.16739 0.0
O390 O 0.43151 0.42827 0.15578 0.0
C391 C 0.42787 0.40686 0.17414 0.0
C392 C 0.47131 0.42032 0.06818 0.0
O393 O 0.40892 0.33007 0.1224 0.0
O394 O 0.32019 0.35619 0.20013 0.0
O395 O 0.4294 0.32855 0.07778 0.0
O396 O 0.38355 0.32879 0.19197 0.0
O397 O 0.30104 0.32081 0.1714 0.0
O398 O 0.37186 0.29897 0.1548 0.0
O399 O 0.36164 0.42262 0.1269 0.0
O400 O 0.342 0.42246 0.17139 0.0
C401 C 0.38071 0.41226 0.04118 0.0
C402 C 0.33385 0.34711 0.07622 0.0
C403 C 0.85986 0.8443 0.07842 0.0
C404 C 0.84 0.80144 0.17611 0.0
C405 C 0.83842 0.89018 0.2091 0.0
Mg406 Mg 0.90162 0.90408 0.07372 0.0
Mg407 Mg 0.94818 0.92434 0.12669 0.0
O408 O 0.90922 0.91691 0.11433 0.0
Mg409 Mg 0.88895 0.88397 0.13279 0.0
O410 O 0.86767 0.85096 0.15093 0.0
Mg411 Mg 0.82726 0.86757 0.13996 0.0
Mg412 Mg 0.88131 0.84252 0.1904 0.0
C413 C 0.91754 0.92789 0.18613 0.0
O414 O 0.93036 0.85385 0.13999 0.0
O415 O 0.92664 0.94673 0.0644 0.0
O416 O 0.9279 0.83541 0.1853 0.0
O417 O 0.94588 0.87807 0.07368 0.0
O418 O 0.95885 0.96023 0.09941 0.0
O419 O 0.97133 0.88713 0.11478 0.0
O420 O 0.84584 0.91202 0.1255 0.0
O421 O 0.8548 0.92959 0.08097 0.0
C422 C 0.83815 0.92879 0.10411 0.0
C423 C 0.9465 0.96414 0.07468 0.0
O424 O 0.89751 0.91045 0.17635 0.0
O425 O 0.8354 0.82547 0.16301 0.0
O426 O 0.94073 0.93403 0.17142 0.0
O427 O 0.82211 0.88622 0.18651 0.0
O428 O 0.85898 0.80093 0.19652 0.0
O429 O 0.8648 0.881 0.21047 0.0
O430 O 0.8818 0.85953 0.08778 0.0
O431 O 0.83595 0.84473 0.09365 0.0
C432 C 0.96713 0.87257 0.09147 0.0
C433 C 0.94107 0.83793 0.16069 0.0
C434 C 0.16959 0.57418 0.65381 0.0
C435 C 0.21454 0.67508 0.69918 0.0
C436 C 0.13282 0.70403 0.69173 0.0
Mg437 Mg 0.10169 0.5792 0.61936 0.0
Mg438 Mg 0.09674 0.63636 0.57306 0.0
O439 O 0.09769 0.62152 0.61203 0.0
Mg440 Mg 0.13254 0.63397 0.63219 0.0
O441 O 0.1681 0.64671 0.6533 0.0
Mg442 Mg 0.15391 0.63409 0.69315 0.0
Mg443 Mg 0.1755 0.68677 0.64625 0.0
C444 C 0.09742 0.69362 0.60479 0.0
O445 O 0.16032 0.6428 0.59029 0.0
O446 O 0.05602 0.58285 0.59637 0.0
O447 O 0.18568 0.68408 0.59958 0.0
O448 O 0.12487 0.57359 0.57511 0.0
O449 O 0.05422 0.62128 0.56451 0.0
O450 O 0.12852 0.61435 0.54786 0.0
O451 O 0.10771 0.62497 0.67542 0.0
O452 O 0.07825 0.58788 0.66659 0.0
C453 C 0.08625 0.60858 0.6839 0.0
C454 C 0.04246 0.59961 0.57784 0.0
O455 O 0.10876 0.67992 0.6268 0.0
O456 O 0.19802 0.65293 0.70588 0.0
O457 O 0.09788 0.68249 0.5792 0.0
O458 O 0.13722 0.67952 0.70463 0.0
O459 O 0.21052 0.69167 0.67688 0.0
O460 O 0.13779 0.70719 0.66445 0.0
O461 O 0.15123 0.58618 0.63573 0.0
O462 O 0.1742 0.58724 0.67839 0.0
C463 C 0.13505 0.58775 0.55296 0.0
C464 C 0.17902 0.66268 0.58263 0.0
C465 C 0.69011 0.92416 0.90244 0.0
C466 C 0.5823 0.96366 0.92857 0.0
C467 C 0.56252 0.87519 0.9393 0.0
Mg468 Mg 0.69401 0.85603 0.87269 0.0
Mg469 Mg 0.64231 0.84876 0.82306 0.0
O470 O 0.65263 0.84659 0.86309 0.0
Mg471 Mg 0.63412 0.8798 0.88059 0.0
O472 O 0.61624 0.9139 0.89755 0.0
Mg473 Mg 0.62909 0.90746 0.93871 0.0
Mg474 Mg 0.57595 0.91189 0.88767 0.0
C475 C 0.58141 0.83879 0.8484 0.0
O476 O 0.62499 0.90562 0.83695 0.0
O477 O 0.69606 0.81017 0.85154 0.0
O478 O 0.57837 0.92037 0.84064 0.0
O479 O 0.70279 0.87792 0.82864 0.0
O480 O 0.6639 0.80971 0.81346 0.0
O481 O 0.66295 0.88421 0.80144 0.0
O482 O 0.64283 0.85945 0.92696 0.0
O483 O 0.683 0.83377 0.91932 0.0
C484 C 0.66125 0.84014 0.93613 0.0
C485 C 0.68267 0.79733 0.83013 0.0
O486 O 0.59045 0.84965 0.87295 0.0
O487 O 0.60568 0.95285 0.94062 0.0
O488 O 0.59549 0.84452 0.82475 0.0
O489 O 0.58609 0.88604 0.94997 0.0
O490 O 0.566 0.95013 0.91033 0.0
O491 O 0.55805 0.87552 0.91171 0.0
O492 O 0.67997 0.9037 0.88581 0.0
O493 O 0.67491 0.93061 0.92522 0.0
C494 C 0.68991 0.88937 0.80649 0.0
C495 C 0.60278 0.91964 0.82655 0.0
C496 C 0.83412 0.08687 0.40642 0.0
C497 C 0.94439 0.04848 0.43198 0.0
C498 C 0.96533 0.14061 0.42393 0.0
Mg499 Mg 0.82684 0.1559 0.37447 0.0
Mg500 Mg 0.87805 0.16269 0.32345 0.0
O501 O 0.8686 0.16412 0.36338 0.0
Mg502 Mg 0.88764 0.13052 0.37976 0.0
O503 O 0.90733 0.09663 0.39634 0.0
Mg504 Mg 0.8995 0.10769 0.43734 0.0
Mg505 Mg 0.94706 0.09264 0.38335 0.0
C506 C 0.93976 0.1703 0.34602 0.0
O507 O 0.89518 0.10357 0.33723 0.0
O508 O 0.82697 0.20337 0.35593 0.0
O509 O 0.94072 0.08539 0.33754 0.0
O510 O 0.81364 0.14162 0.32751 0.0
O511 O 0.8595 0.20446 0.31785 0.0
O512 O 0.85475 0.12495 0.30919 0.0
O513 O 0.8816 0.15293 0.42496 0.0
O514 O 0.83906 0.17522 0.42149 0.0
C515 C 0.86264 0.1705 0.43606 0.0
C516 C 0.84126 0.21672 0.33517 0.0
O517 O 0.93098 0.15985 0.37086 0.0
O518 O 0.92404 0.06446 0.44344 0.0
O519 O 0.92507 0.16468 0.32288 0.0
O520 O 0.94348 0.13255 0.43994 0.0
O521 O 0.95751 0.05492 0.40805 0.0
O522 O 0.97057 0.12914 0.3991 0.0
O523 O 0.84077 0.10591 0.3862 0.0
O524 O 0.8523 0.08384 0.42813 0.0
C525 C 0.8276 0.12928 0.30668 0.0
C526 C 0.91562 0.08834 0.32539 0.0
C527 C 0.65282 0.17186 0.57806 0.0
C528 C 0.67539 0.21371 0.67699 0.0
C529 C 0.67597 0.12397 0.70927 0.0
Mg530 Mg 0.62343 0.10887 0.56448 0.0
Mg531 Mg 0.56468 0.09328 0.62343 0.0
O532 O 0.6071 0.09525 0.6083 0.0
Mg533 Mg 0.62562 0.12823 0.6302 0.0
O534 O 0.64376 0.16072 0.64967 0.0
Mg535 Mg 0.68527 0.1512 0.64067 0.0
Mg536 Mg 0.63232 0.16513 0.68914 0.0
C537 C 0.59707 0.08339 0.68237 0.0
O538 O 0.58292 0.15787 0.64136 0.0
O539 O 0.59779 0.07628 0.59287 0.0
O540 O 0.58647 0.17467 0.68695 0.0
O541 O 0.57666 0.12675 0.55419 0.0
O542 O 0.55578 0.05303 0.59886 0.0
O543 O 0.56188 0.13465 0.59979 0.0
O544 O 0.67227 0.10372 0.62489 0.0
O545 O 0.66936 0.0886 0.57888 0.0
C546 C 0.68297 0.08857 0.60359 0.0
C547 C 0.57937 0.05645 0.58417 0.0
O548 O 0.61835 0.09884 0.67182 0.0
O549 O 0.68876 0.19777 0.65803 0.0
O550 O 0.57217 0.08251 0.66943 0.0
O551 O 0.69197 0.1333 0.68794 0.0
O552 O 0.65635 0.20401 0.6952 0.0
O553 O 0.64833 0.12713 0.70913 0.0
O554 O 0.63173 0.15441 0.5859 0.0
O555 O 0.67606 0.17247 0.59408 0.0
C556 C 0.55744 0.13621 0.57249 0.0
C557 C 0.57257 0.17308 0.6628 0.0
C558 C 0.17572 0.43118 0.85617 0.0
C559 C 0.21777 0.31918 0.83441 0.0
C560 C 0.12593 0.30076 0.8287 0.0
Mg561 Mg 0.10349 0.43739 0.87824 0.0
Mg562 Mg 0.09583 0.38965 0.93114 0.0
O563 O 0.09529 0.39539 0.89076 0.0
Mg564 Mg 0.13111 0.3761 0.87841 0.0
O565 O 0.16692 0.35704 0.86515 0.0
Mg566 Mg 0.16133 0.36647 0.82337 0.0
Mg567 Mg 0.1668 0.31686 0.87688 0.0
C568 C 0.09213 0.32566 0.91304 0.0
O569 O 0.15573 0.36873 0.92382 0.0
O570 O 0.05501 0.43612 0.89213 0.0
O571 O 0.17173 0.3224 0.92324 0.0
O572 O 0.11346 0.45378 0.92494 0.0
O573 O 0.0531 0.40759 0.93315 0.0
O574 O 0.13387 0.41433 0.94189 0.0
O575 O 0.11239 0.38114 0.83104 0.0
O576 O 0.08843 0.42294 0.83089 0.0
C577 C 0.09443 0.39884 0.81812 0.0
C578 C 0.04091 0.42263 0.91285 0.0
O579 O 0.103 0.33255 0.8878 0.0
O580 O 0.20575 0.34158 0.82169 0.0
O581 O 0.09533 0.34299 0.93472 0.0
O582 O 0.13775 0.32307 0.81606 0.0
O583 O 0.206 0.30483 0.85544 0.0
O584 O 0.1314 0.29458 0.85542 0.0
O585 O 0.15357 0.42278 0.87194 0.0
O586 O 0.1843 0.41375 0.83563 0.0
C587 C 0.12757 0.44077 0.94516 0.0
C588 C 0.16985 0.34734 0.93582 0.0
C589 C 0.42888 0.61268 0.32798 0.0
C590 C 0.45593 0.59647 0.43336 0.0
C591 C 0.37241 0.57215 0.45082 0.0
Mg592 Mg 0.36506 0.64876 0.32503 0.0
Mg593 Mg 0.34595 0.69655 0.37701 0.0
O594 O 0.35226 0.65744 0.36528 0.0
Mg595 Mg 0.38489 0.63692 0.3843 0.0
O596 O 0.41592 0.61442 0.40318 0.0
Mg597 Mg 0.40653 0.57179 0.38411 0.0
Mg598 Mg 0.41233 0.62897 0.44544 0.0
C599 C 0.33804 0.66438 0.43606 0.0
O600 O 0.41481 0.6785 0.39475 0.0
O601 O 0.32407 0.6746 0.31369 0.0
O602 O 0.41252 0.67613 0.44313 0.0
O603 O 0.39175 0.69226 0.32498 0.0
O604 O 0.312 0.70873 0.34724 0.0
O605 O 0.38524 0.71835 0.36589 0.0
O606 O 0.36085 0.5941 0.37529 0.0
O607 O 0.33662 0.60258 0.33433 0.0
C608 C 0.34039 0.58631 0.35741 0.0
C609 C 0.30824 0.6961 0.32264 0.0
O610 O 0.3556 0.64414 0.42693 0.0
O611 O 0.43433 0.59988 0.41523 0.0
O612 O 0.33398 0.68812 0.42158 0.0
O613 O 0.38229 0.56071 0.42698 0.0
O614 O 0.45653 0.61307 0.45568 0.0
O615 O 0.37865 0.59836 0.45915 0.0
O616 O 0.41005 0.63025 0.33977 0.0
O617 O 0.43265 0.58783 0.34066 0.0
C618 C 0.39901 0.7135 0.34206 0.0
C619 C 0.42194 0.68883 0.41989 0.0
C620 C 0.90318 0.68869 0.92416 0.0
C621 C 0.92937 0.58453 0.96885 0.0
C622 C 0.94468 0.56337 0.87995 0.0
Mg623 Mg 0.87409 0.68893 0.8567 0.0
Mg624 Mg 0.82576 0.63575 0.8426 0.0
O625 O 0.86515 0.64659 0.84877 0.0
Mg626 Mg 0.88118 0.63023 0.88414 0.0
O627 O 0.8995 0.61474 0.91933 0.0
Mg628 Mg 0.9417 0.62692 0.91131 0.0
Mg629 Mg 0.89356 0.5747 0.91404 0.0
C630 C 0.85152 0.57533 0.84045 0.0
O631 O 0.83728 0.62027 0.91173 0.0
O632 O 0.86213 0.68923 0.80832 0.0
O633 O 0.84633 0.57284 0.9187 0.0
O634 O 0.82509 0.69789 0.86762 0.0
O635 O 0.82548 0.65612 0.80104 0.0
O636 O 0.80706 0.65478 0.88013 0.0
O637 O 0.92903 0.63612 0.8619 0.0
O638 O 0.92274 0.67949 0.84144 0.0
C639 C 0.93844 0.65644 0.84457 0.0
C640 C 0.84462 0.67453 0.79174 0.0
O641 O 0.87247 0.58559 0.8566 0.0
O642 O 0.94114 0.60813 0.95807 0.0
O643 O 0.82785 0.5897 0.83686 0.0
O644 O 0.95783 0.58121 0.89688 0.0
O645 O 0.91514 0.56565 0.95377 0.0
O646 O 0.91793 0.56717 0.87487 0.0
O647 O 0.88395 0.67782 0.9064 0.0
O648 O 0.92671 0.67393 0.92889 0.0
C649 C 0.80374 0.68199 0.87699 0.0
C650 C 0.82993 0.59521 0.92283 0.0
C651 C 0.58749 0.66038 0.17416 0.0
C652 C 0.6809 0.66358 0.21978 0.0
C653 C 0.72128 0.66978 0.13114 0.0
Mg654 Mg 0.58218 0.62551 0.10923 0.0
Mg655 Mg 0.6311 0.57269 0.09968 0.0
O656 O 0.62299 0.6131 0.10076 0.0
Mg657 Mg 0.64196 0.62979 0.13433 0.0
O658 O 0.66124 0.64704 0.16893 0.0
Mg659 Mg 0.65286 0.69013 0.15493 0.0
Mg660 Mg 0.69852 0.62656 0.18022 0.0
C661 C 0.69435 0.59573 0.09388 0.0
O662 O 0.64419 0.58596 0.16183 0.0
O663 O 0.57778 0.6048 0.06284 0.0
O664 O 0.68995 0.58036 0.17804 0.0
O665 O 0.57112 0.58194 0.13137 0.0
O666 O 0.60863 0.56589 0.06047 0.0
O667 O 0.60892 0.55132 0.13456 0.0
O668 O 0.63869 0.67472 0.10941 0.0
O669 O 0.5956 0.67098 0.08726 0.0
C670 C 0.61956 0.68536 0.09146 0.0
C671 C 0.58979 0.58315 0.04916 0.0
O672 O 0.68634 0.61912 0.10751 0.0
O673 O 0.67571 0.66858 0.19288 0.0
O674 O 0.67777 0.57298 0.09331 0.0
O675 O 0.69914 0.68737 0.13309 0.0
O676 O 0.69853 0.64276 0.22542 0.0
O677 O 0.7246 0.64709 0.14743 0.0
O678 O 0.5958 0.63949 0.15711 0.0
O679 O 0.60461 0.68299 0.17663 0.0
C680 C 0.58275 0.55843 0.14134 0.0
C681 C 0.66372 0.57082 0.17536 0.0
C682 C 0.57656 0.3588 0.33508 0.0
C683 C 0.68527 0.34141 0.30759 0.0
C684 C 0.69653 0.31536 0.38379 0.0
Mg685 Mg 0.57327 0.38752 0.40292 0.0
Mg686 Mg 0.6243 0.43696 0.41943 0.0
O687 O 0.61467 0.39757 0.41264 0.0
Mg688 Mg 0.63406 0.38046 0.37903 0.0
O689 O 0.65333 0.36051 0.34521 0.0
Mg690 Mg 0.63348 0.31624 0.35233 0.0
Mg691 Mg 0.69649 0.37297 0.35211 0.0
C692 C 0.68591 0.41156 0.42477 0.0
O693 O 0.64285 0.42398 0.35384 0.0
O694 O 0.56714 0.40446 0.44959 0.0
O695 O 0.6907 0.41949 0.34325 0.0
O696 O 0.5654 0.4339 0.38339 0.0
O697 O 0.59931 0.44153 0.45761 0.0
O698 O 0.60661 0.4607 0.38489 0.0
O699 O 0.62714 0.33503 0.40019 0.0
O700 O 0.58519 0.34014 0.42413 0.0
C701 C 0.6088 0.32532 0.4196 0.0
C702 C 0.57932 0.42375 0.46619 0.0
O703 O 0.67725 0.39025 0.40825 0.0
O704 O 0.66476 0.34743 0.32646 0.0
O705 O 0.6703 0.43452 0.42803 0.0
O706 O 0.67686 0.29924 0.37174 0.0
O707 O 0.71002 0.35419 0.31039 0.0
O708 O 0.69113 0.34211 0.38866 0.0
O709 O 0.58772 0.37548 0.35501 0.0
O710 O 0.5899 0.3348 0.32958 0.0
C711 C 0.58051 0.4566 0.37584 0.0
C712 C 0.66651 0.43359 0.34156 0.0
C713 C 0.9392 0.35084 0.66475 0.0
C714 C 0.84468 0.33452 0.70892 0.0
C715 C 0.80606 0.32671 0.6296 0.0
Mg716 Mg 0.93553 0.39173 0.60361 0.0
Mg717 Mg 0.87986 0.44 0.59624 0.0
O718 O 0.89386 0.40079 0.59803 0.0
Mg719 Mg 0.87993 0.37991 0.6315 0.0
O720 O 0.86468 0.35744 0.66484 0.0
Mg721 Mg 0.87689 0.31427 0.64886 0.0
Mg722 Mg 0.8242 0.37392 0.67405 0.0
C723 C 0.82198 0.40883 0.59309 0.0
O724 O 0.87564 0.42149 0.66196 0.0
O725 O 0.93467 0.41434 0.55779 0.0
O726 O 0.83051 0.42041 0.68095 0.0
O727 O 0.94118 0.43545 0.62671 0.0
O728 O 0.89857 0.44846 0.55505 0.0
O729 O 0.90113 0.46331 0.63016 0.0
O730 O 0.88421 0.33732 0.60448 0.0
O731 O 0.92592 0.34595 0.58081 0.0
C732 C 0.9032 0.32957 0.58503 0.0
C733 C 0.91945 0.43374 0.54381 0.0
O734 O 0.8354 0.38795 0.60644 0.0
O735 O 0.85835 0.34211 0.68521 0.0
O736 O 0.83306 0.43458 0.59208 0.0
O737 O 0.82739 0.30904 0.63545 0.0
O738 O 0.8221 0.34956 0.71552 0.0
O739 O 0.80609 0.35378 0.63635 0.0
O740 O 0.92768 0.373 0.65141 0.0
O741 O 0.9253 0.32612 0.6648 0.0
C742 C 0.92784 0.45801 0.63664 0.0
C743 C 0.85551 0.43292 0.67801 0.0
H744 H 0.21749 0.28686 0.38699 0.0
H745 H 0.18472 0.25329 0.30438 0.0
H746 H 0.1845 0.20328 0.32539 0.0
H747 H 0.26703 0.24756 0.40158 0.0
H748 H 0.26213 0.23899 0.44008 0.0
H749 H 0.24625 0.27148 0.42525 0.0
H750 H 0.19496 0.25557 0.44345 0.0
H751 H 0.21063 0.22263 0.45892 0.0
H752 H 0.18023 0.2202 0.43373 0.0
H753 H 0.19791 0.15854 0.34967 0.0
H754 H 0.24158 0.1297 0.35881 0.0
H755 H 0.27151 0.19258 0.42292 0.0
C756 C 0.21006 0.26903 0.37326 0.0
C757 C 0.20191 0.27376 0.34381 0.0
C758 C 0.19167 0.24999 0.32686 0.0
C759 C 0.19045 0.22174 0.33902 0.0
C760 C 0.19864 0.21784 0.36838 0.0
C761 C 0.20832 0.2411 0.38521 0.0
C762 C 0.22285 0.23087 0.41309 0.0
C763 C 0.25129 0.24821 0.42028 0.0
C764 C 0.20087 0.23241 0.43881 0.0
C765 C 0.22799 0.19932 0.40478 0.0
C766 C 0.20935 0.19122 0.38187 0.0
C767 C 0.21237 0.16462 0.36751 0.0
C768 C 0.23764 0.14845 0.37278 0.0
C769 C 0.26017 0.16011 0.39081 0.0
C770 C 0.25424 0.1839 0.40909 0.0
H771 H 0.01218 0.92983 0.58036 0.0
H772 H 0.9302 0.97701 0.58987 0.0
H773 H 0.95214 0.00794 0.62778 0.0
H774 H 0.03487 0.93171 0.65656 0.0
H775 H 0.07308 0.93864 0.64794 0.0
H776 H 0.05036 0.91819 0.62281 0.0
H777 H 0.06215 0.95472 0.58025 0.0
H778 H 0.08661 0.97343 0.60474 0.0
H779 H 0.05778 0.99348 0.58644 0.0
H780 H 0.98158 0.03434 0.66165 0.0
H781 H 0.02143 0.06899 0.67036 0.0
H782 H 0.08524 1.00262 0.64717 0.0
C783 C 0.99936 0.94747 0.58971 0.0
C784 C 0.96963 0.95126 0.5825 0.0
C785 C 0.9532 0.9742 0.5951 0.0
C786 C 0.96513 0.99106 0.61742 0.0
C787 C 0.99355 0.9847 0.6265 0.0
C788 C 0.01098 0.96455 0.61212 0.0
C789 C 0.04225 0.9655 0.62287 0.0
C790 C 0.0506 0.93679 0.63848 0.0
C791 C 0.06343 0.97223 0.59709 0.0
C792 C 0.03996 0.99065 0.64438 0.0
C793 C 0.01117 1.00026 0.64725 0.0
C794 C 1.00414 0.02693 0.66016 0.0
C795 C 0.02706 0.04648 0.66561 0.0
C796 C 0.05612 0.03876 0.65795 0.0
C797 C 0.06294 0.00914 0.6524 0.0
H798 H 0.26332 0.82706 0.89724 0.0
H799 H 0.20189 0.79736 0.83072 0.0
H800 H 0.24211 0.78542 0.79864 0.0
H801 H 0.33025 0.84514 0.84583 0.0
H802 H 0.35509 0.82638 0.87026 0.0
H803 H 0.32388 0.84587 0.88485 0.0
H804 H 0.30556 0.79904 0.91187 0.0
H805 H 0.33747 0.78062 0.89852 0.0
H806 H 0.30132 0.76548 0.89148 0.0
H807 H 0.28494 0.77625 0.77247 0.0
H808 H 0.3152 0.7319 0.77208 0.0
H809 H 0.35132 0.75513 0.85641 0.0
C810 C 0.25868 0.81894 0.87544 0.0
C811 C 0.22955 0.81475 0.86599 0.0
C812 C 0.22399 0.80207 0.83826 0.0
C813 C 0.2468 0.7962 0.8192 0.0
C814 C 0.27536 0.80265 0.82786 0.0
C815 C 0.28152 0.81133 0.85633 0.0
C816 C 0.31284 0.80396 0.8643 0.0
C817 C 0.33162 0.83202 0.86641 0.0
C818 C 0.31431 0.78615 0.8932 0.0
C819 C 0.32129 0.78627 0.83739 0.0
C820 C 0.30109 0.79011 0.81493 0.0
C821 C 0.30094 0.77283 0.78971 0.0
C822 C 0.31795 0.74765 0.78961 0.0
C823 C 0.3345 0.74073 0.81453 0.0
C824 C 0.33851 0.76106 0.83728 0.0
H825 H 0.45232 0.9816 0.08369 0.0
H826 H 0.43686 0.9984 0.17555 0.0
H827 H 0.44083 0.05163 0.16618 0.0
H828 H 0.5063 0.02487 0.06999 0.0
H829 H 0.49392 0.03587 0.03392 0.0
H830 H 0.48167 1.00215 0.04947 0.0
H831 H 0.42682 0.02241 0.04045 0.0
H832 H 0.4426 0.05631 0.02688 0.0
H833 H 0.41648 0.05668 0.0567 0.0
H834 H 0.46159 0.09655 0.15151 0.0
H835 H 0.51004 0.11683 0.13953 0.0
H836 H 0.50506 0.08117 0.05257 0.0
C837 C 0.45024 0.99676 0.10178 0.0
C838 C 0.44559 0.98649 0.1304 0.0
C839 C 0.44138 0.00625 0.15359 0.0
C840 C 0.44252 0.0364 0.14815 0.0
C841 C 0.44667 0.04611 0.11924 0.0
C842 C 0.45042 0.02662 0.09644 0.0
C843 C 0.46066 0.04145 0.06879 0.0
C844 C 0.48715 0.02517 0.05481 0.0
C845 C 0.43514 0.04439 0.04691 0.0
C846 C 0.46875 0.07102 0.08133 0.0
C847 C 0.45758 0.07436 0.10983 0.0
C848 C 0.4699 0.09442 0.12936 0.0
C849 C 0.4975 0.10584 0.12257 0.0
C850 C 0.51063 0.09877 0.09563 0.0
C851 C 0.4944 0.08586 0.07329 0.0
H852 H 0.20031 0.75016 0.21622 0.0
H853 H 0.14332 0.75777 0.14152 0.0
H854 H 0.16461 0.80561 0.12912 0.0
H855 H 0.23022 0.83875 0.21273 0.0
H856 H 0.26569 0.82379 0.22187 0.0
H857 H 0.23314 0.81048 0.24033 0.0
H858 H 0.24851 0.75791 0.22567 0.0
H859 H 0.27958 0.77151 0.2061 0.0
H860 H 0.25286 0.74915 0.18724 0.0
H861 H 0.20613 0.82939 0.1072 0.0
H862 H 0.2565 0.83547 0.08661 0.0
H863 H 0.29268 0.79805 0.16581 0.0
C864 C 0.19156 0.76347 0.19857 0.0
C865 C 0.17165 0.75106 0.17913 0.0
C866 C 0.15935 0.76753 0.15617 0.0
C867 C 0.17128 0.79482 0.14922 0.0
C868 C 0.19648 0.80369 0.1643 0.0
C869 C 0.20586 0.7891 0.18981 0.0
C870 C 0.23819 0.79449 0.19548 0.0
C871 C 0.24203 0.81832 0.21893 0.0
C872 C 0.25572 0.76658 0.20399 0.0
C873 C 0.24653 0.80608 0.16575 0.0
C874 C 0.22242 0.81452 0.14945 0.0
C875 C 0.22518 0.8236 0.12018 0.0
C876 C 0.25346 0.82555 0.10802 0.0
C877 C 0.27788 0.81598 0.12442 0.0
C878 C 0.27402 0.805 0.15292 0.0
H879 H 0.50471 0.92791 0.43136 0.0
H880 H 0.58516 0.9785 0.42165 0.0
H881 H 0.56136 0.01009 0.38488 0.0
H882 H 0.48033 0.93143 0.35607 0.0
H883 H 0.44214 0.93641 0.36573 0.0
H884 H 0.46608 0.91604 0.38978 0.0
H885 H 0.45447 0.95049 0.43372 0.0
H886 H 0.4286 0.96869 0.4104 0.0
H887 H 0.45716 0.98961 0.42832 0.0
H888 H 0.53011 0.03634 0.35228 0.0
H889 H 0.48846 0.06989 0.34716 0.0
H890 H 0.42792 1.00034 0.36999 0.0
C891 C 0.5168 0.94644 0.42228 0.0
C892 C 0.54663 0.95083 0.42852 0.0
C893 C 0.56213 0.97502 0.41661 0.0
C894 C 0.54916 0.99226 0.39502 0.0
C895 C 0.52072 0.98499 0.3863 0.0
C896 C 0.50421 0.96376 0.40065 0.0
C897 C 0.47268 0.96364 0.39081 0.0
C898 C 0.46488 0.93518 0.37463 0.0
C899 C 0.45203 0.96845 0.41734 0.0
C900 C 0.47358 0.98959 0.36997 0.0
C901 C 0.50206 1.00041 0.36635 0.0
C902 C 0.50784 0.02796 0.35431 0.0
C903 C 0.48417 0.04686 0.35088 0.0
C904 C 0.45592 0.03768 0.35965 0.0
C905 C 0.44985 0.00771 0.364 0.0
H906 H 0.32918 0.24943 0.67655 0.0
H907 H 0.28045 0.32227 0.6397 0.0
H908 H 0.25879 0.28951 0.60268 0.0
H909 H 0.3425 0.2092 0.60848 0.0
H910 H 0.33582 0.17401 0.62555 0.0
H911 H 0.35088 0.20382 0.64675 0.0
H912 H 0.30814 0.20004 0.68485 0.0
H913 H 0.29485 0.16885 0.66513 0.0
H914 H 0.27068 0.19941 0.67184 0.0
H915 H 0.23934 0.24994 0.57377 0.0
H916 H 0.20828 0.20595 0.57121 0.0
H917 H 0.27252 0.15718 0.6208 0.0
C918 C 0.31351 0.25824 0.66097 0.0
C919 C 0.30671 0.28816 0.66029 0.0
C920 C 0.28614 0.29924 0.63992 0.0
C921 C 0.27437 0.28101 0.61847 0.0
C922 C 0.28354 0.25194 0.61792 0.0
C923 C 0.30163 0.24038 0.63937 0.0
C924 C 0.30379 0.20759 0.6373 0.0
C925 C 0.33512 0.19812 0.62901 0.0
C926 C 0.29372 0.19314 0.66644 0.0
C927 C 0.28247 0.20221 0.61238 0.0
C928 C 0.27221 0.22835 0.60048 0.0
C929 C 0.24746 0.22937 0.58246 0.0
C930 C 0.23004 0.20417 0.58071 0.0
C931 C 0.23748 0.17946 0.59783 0.0
C932 C 0.26634 0.17653 0.60843 0.0
H933 H 0.09057 0.01182 0.86875 0.0
H934 H 0.02447 0.952 0.83586 0.0
H935 H 0.98991 0.99156 0.83144 0.0
H936 H 0.06204 0.02685 0.91989 0.0
H937 H 0.06497 0.06568 0.92655 0.0
H938 H 0.09142 0.0483 0.90345 0.0
H939 H 0.07974 0.08289 0.85996 0.0
H940 H 0.0547 0.1021 0.88381 0.0
H941 H 0.04205 0.08849 0.84896 0.0
H942 H 0.95981 0.0106 0.8677 0.0
H943 H 0.93623 0.03214 0.91056 0.0
H944 H 0.01467 0.08351 0.92813 0.0
C945 C 0.06915 0.00781 0.85914 0.0
C946 C 0.05948 0.97881 0.85424 0.0
C947 C 0.03239 0.97393 0.84011 0.0
C948 C 0.01227 0.99657 0.83799 0.0
C949 C 0.01917 0.02278 0.85205 0.0
C950 C 0.04788 0.02978 0.86041 0.0
C951 C 0.04806 0.05452 0.88274 0.0
C952 C 0.06776 0.04838 0.90971 0.0
C953 C 0.05661 0.08374 0.86797 0.0
C954 C 0.01601 0.05433 0.89107 0.0
C955 C 0.99976 0.03639 0.87276 0.0
C956 C 0.97166 0.02667 0.88054 0.0
C957 C 0.95886 0.03801 0.90566 0.0
C958 C 0.97353 0.05989 0.92187 0.0
C959 C 1.00298 0.06699 0.91564 0.0
H960 H 0.39072 0.29827 0.23588 0.0
H961 H 0.40708 0.25285 0.15449 0.0
H962 H 0.38893 0.20694 0.17641 0.0
H963 H 0.38315 0.23299 0.28995 0.0
H964 H 0.35137 0.25111 0.305 0.0
H965 H 0.38201 0.27249 0.29145 0.0
H966 H 0.34459 0.30048 0.25907 0.0
H967 H 0.31439 0.27707 0.26944 0.0
H968 H 0.32426 0.2809 0.2313 0.0
H969 H 0.35868 0.1684 0.20571 0.0
H970 H 0.32641 0.14225 0.24117 0.0
H971 H 0.30778 0.2242 0.28445 0.0
C972 C 0.39244 0.27821 0.22335 0.0
C973 C 0.39888 0.2792 0.19334 0.0
C974 C 0.40173 0.25257 0.17764 0.0
C975 C 0.39078 0.22643 0.18976 0.0
C976 C 0.37712 0.228 0.21706 0.0
C977 C 0.37803 0.2534 0.23373 0.0
C978 C 0.35445 0.25346 0.25699 0.0
C979 C 0.36857 0.25242 0.28766 0.0
C980 C 0.3332 0.27952 0.25396 0.0
C981 C 0.33916 0.2252 0.2498 0.0
C982 C 0.35358 0.20978 0.22814 0.0
C983 C 0.34688 0.18048 0.22235 0.0
C984 C 0.3277 0.16598 0.24186 0.0
C985 C 0.31556 0.18154 0.26577 0.0
C986 C 0.31703 0.21218 0.26616 0.0
H987 H 0.0892 0.0819 0.50016 0.0
H988 H 0.03767 0.10804 0.57563 0.0
H989 H 0.01229 0.14512 0.5457 0.0
H990 H 0.09449 0.15332 0.46341 0.0
H991 H 0.08847 0.13833 0.42739 0.0
H992 H 0.10634 0.11657 0.45525 0.0
H993 H 0.06738 0.07474 0.4504 0.0
H994 H 0.0515 0.09524 0.42086 0.0
H995 H 0.02884 0.08397 0.45151 0.0
H996 H 0.99178 0.1771 0.50934 0.0
H997 H 0.95936 0.1817 0.46682 0.0
H998 H 0.02341 0.13729 0.41297 0.0
C999 C 0.072 0.09499 0.51005 0.0
C1000 C 0.06573 0.09308 0.5401 0.0
C1001 C 0.04306 0.11006 0.55257 0.0
C1002 C 0.02919 0.13161 0.53599 0.0
C1003 C 0.03802 0.13529 0.50698 0.0
C1004 C 0.05761 0.11637 0.49369 0.0
C1005 C 0.05867 0.12094 0.46101 0.0
C1006 C 0.08879 0.13301 0.45121 0.0
C1007 C 0.05109 0.09206 0.44502 0.0
C1008 C 0.03494 0.14397 0.45782 0.0
C1009 C 0.0249 0.15344 0.48493 0.0
C1010 C 0.99948 0.17013 0.48802 0.0
C1011 C 0.98125 0.17294 0.46369 0.0
C1012 C 0.9885 0.15797 0.4377 0.0
C1013 C 0.01746 0.14816 0.43318 0.0
H1014 H 0.14826 0.8562 0.7487 0.0
H1015 H 0.23587 0.83125 0.77412 0.0
H1016 H 0.23574 0.79259 0.73683 0.0
H1017 H 0.11286 0.81125 0.74067 0.0
H1018 H 0.09544 0.80876 0.70529 0.0
H1019 H 0.10902 0.84348 0.71771 0.0
H1020 H 0.14171 0.84904 0.67129 0.0
H1021 H 0.1269 0.81463 0.65836 0.0
H1022 H 0.16617 0.81982 0.66104 0.0
H1023 H 0.20761 0.74725 0.73885 0.0
H1024 H 0.17405 0.70565 0.73392 0.0
H1025 H 0.11143 0.76038 0.68778 0.0
C1026 C 0.16841 0.84451 0.74402 0.0
C1027 C 0.19102 0.84396 0.765 0.0
C1028 C 0.21759 0.82967 0.75908 0.0
C1029 C 0.21796 0.80833 0.73749 0.0
C1030 C 0.1925 0.80449 0.72087 0.0
C1031 C 0.16984 0.8249 0.72058 0.0
C1032 C 0.14366 0.81323 0.70334 0.0
C1033 C 0.11351 0.81954 0.71769 0.0
C1034 C 0.14469 0.82485 0.67163 0.0
C1035 C 0.15098 0.78113 0.70404 0.0
C1036 C 0.17925 0.77663 0.71447 0.0
C1037 C 0.1871 0.74994 0.72708 0.0
C1038 C 0.16735 0.72668 0.7252 0.0
C1039 C 0.14125 0.72956 0.7086 0.0
C1040 C 0.13204 0.75746 0.69936 0.0
H1041 H 0.5051 0.85204 0.93539 0.0
H1042 H 0.55916 0.91069 0.98721 0.0
H1043 H 0.52106 0.94742 0.9858 0.0
H1044 H 0.44777 0.90855 0.90537 0.0
H1045 H 0.41705 0.8864 0.91754 0.0
H1046 H 0.45038 0.86915 0.90482 0.0
H1047 H 0.45432 0.83993 0.95257 0.0
H1048 H 0.42111 0.85636 0.96585 0.0
H1049 H 0.45451 0.85867 0.98725 0.0
H1050 H 0.48082 0.98086 0.97342 0.0
H1051 H 0.44989 0.98266 0.01715 0.0
H1052 H 0.41526 0.89684 0.99784 0.0
C1053 C 0.50864 0.87263 0.94666 0.0
C1054 C 0.53658 0.88055 0.9574 0.0
C1055 C 0.53896 0.90546 0.97567 0.0
C1056 C 0.51794 0.92725 0.97374 0.0
C1057 C 0.49244 0.92173 0.95763 0.0
C1058 C 0.4862 0.89341 0.9485 0.0
C1059 C 0.45352 0.88808 0.94876 0.0
C1060 C 0.44149 0.88807 0.91725 0.0
C1061 C 0.44541 0.85908 0.96463 0.0
C1062 C 0.44403 0.91577 0.96482 0.0
C1063 C 0.46545 0.93756 0.96158 0.0
C1064 C 0.46446 0.96384 0.97708 0.0
C1065 C 0.44749 0.96448 1.00231 0.0
C1066 C 0.43231 0.93908 0.01082 0.0
C1067 C 0.42764 0.91604 0.9909 0.0
H1068 H 0.34498 0.75887 0.21731 0.0
H1069 H 0.32458 0.84185 0.25809 0.0
H1070 H 0.35819 0.82995 0.29903 0.0
H1071 H 0.3627 0.71424 0.27875 0.0
H1072 H 0.39292 0.698 0.25893 0.0
H1073 H 0.36169 0.71178 0.23941 0.0
H1074 H 0.39791 0.74366 0.20851 0.0
H1075 H 0.42909 0.7322 0.23004 0.0
H1076 H 0.4207 0.77068 0.22636 0.0
H1077 H 0.39337 0.80683 0.33478 0.0
H1078 H 0.41264 0.7678 0.36635 0.0
H1079 H 0.42949 0.71443 0.29078 0.0
C1080 C 0.34652 0.77382 0.23569 0.0
C1081 C 0.33352 0.80153 0.2343 0.0
C1082 C 0.33504 0.82054 0.25871 0.0
C1083 C 0.35491 0.81451 0.28136 0.0
C1084 C 0.3727 0.78988 0.27836 0.0
C1085 C 0.36833 0.76972 0.25629 0.0
C1086 C 0.39125 0.74625 0.25608 0.0
C1087 C 0.37631 0.71579 0.25851 0.0
C1088 C 0.41089 0.74836 0.22861 0.0
C1089 C 0.40819 0.75483 0.2832 0.0
C1090 C 0.39727 0.78042 0.29567 0.0
C1091 C 0.40246 0.78728 0.32498 0.0
C1092 C 0.41398 0.7651 0.34279 0.0
C1093 C 0.41831 0.73699 0.33054 0.0
C1094 C 0.4238 0.73522 0.30039 0.0
H1095 H 0.53343 0.0854 0.56103 0.0
H1096 H 0.51371 0.17678 0.57248 0.0
H1097 H 0.46058 0.16506 0.57264 0.0
H1098 H 0.5009 0.05756 0.52305 0.0
H1099 H 0.481 0.02609 0.53731 0.0
H1100 H 0.51299 0.03907 0.5559 0.0
H1101 H 0.4843 0.04427 0.60349 0.0
H1102 H 0.45171 0.03057 0.58545 0.0
H1103 H 0.4506 0.06484 0.60486 0.0
H1104 H 0.41884 0.14843 0.54746 0.0
H1105 H 0.41134 0.13684 0.4958 0.0
H1106 H 0.44697 0.05064 0.50894 0.0
C1107 C 0.51762 0.10244 0.56504 0.0
C1108 C 0.52689 0.13167 0.56581 0.0
C1109 C 0.50648 0.1542 0.57049 0.0
C1110 C 0.4765 0.14749 0.57205 0.0
C1111 C 0.46764 0.11798 0.5707 0.0
C1112 C 0.48814 0.09555 0.56941 0.0
C1113 C 0.47376 0.06672 0.56227 0.0
C1114 C 0.49332 0.04628 0.54341 0.0
C1115 C 0.46452 0.05072 0.5907 0.0
C1116 C 0.44698 0.07882 0.54695 0.0
C1117 C 0.44102 0.10748 0.55666 0.0
C1118 C 0.424 0.12661 0.5398 0.0
C1119 C 0.42054 0.12033 0.51026 0.0
C1120 C 0.43122 0.09375 0.49916 0.0
C1121 C 0.44026 0.07147 0.51803 0.0
H1122 H 0.19852 0.17018 0.76726 0.0
H1123 H 0.22529 0.23672 0.70464 0.0
H1124 H 0.19161 0.27187 0.72756 0.0
H1125 H 0.13017 0.18182 0.7754 0.0
H1126 H 0.12483 0.18127 0.81458 0.0
H1127 H 0.15529 0.16186 0.79863 0.0
H1128 H 0.19366 0.19064 0.82949 0.0
H1129 H 0.16316 0.20785 0.84782 0.0
H1130 H 0.19156 0.23011 0.83099 0.0
H1131 H 0.1392 0.28628 0.74024 0.0
H1132 H 0.10217 0.30683 0.77278 0.0
H1133 H 0.1201 0.24019 0.83778 0.0
C1134 C 0.1995 0.1929 0.7602 0.0
C1135 C 0.21149 0.20057 0.73265 0.0
C1136 C 0.21431 0.23049 0.7249 0.0
C1137 C 0.19455 0.25028 0.73707 0.0
C1138 C 0.1769 0.24011 0.7599 0.0
C1139 C 0.1818 0.21367 0.77396 0.0
C1140 C 0.16103 0.20967 0.79982 0.0
C1141 C 0.14172 0.18199 0.79689 0.0
C1142 C 0.17838 0.20959 0.82875 0.0
C1143 C 0.1427 0.23706 0.79645 0.0
C1144 C 0.15103 0.25279 0.77182 0.0
C1145 C 0.13441 0.27593 0.76115 0.0
C1146 C 0.11248 0.28668 0.77952 0.0
C1147 C 0.11317 0.27818 0.80947 0.0
C1148 C 0.12248 0.24937 0.81593 0.0
H1149 H 0.02328 0.87453 0.10879 0.0
H1150 H 0.96312 0.82555 0.0544 0.0
H1151 H 1.0039 0.81113 0.02281 0.0
H1152 H 0.03781 0.91594 0.06501 0.0
H1153 H 0.07652 0.92432 0.06832 0.0
H1154 H 0.05718 0.90969 0.09905 0.0
H1155 H 0.09328 0.86627 0.10298 0.0
H1156 H 0.11377 0.88168 0.07259 0.0
H1157 H 0.10112 0.84415 0.07127 0.0
H1158 H 0.03008 0.83115 0.98446 0.0
H1159 H 0.04366 0.87046 0.95096 0.0
H1160 H 0.08972 0.91574 0.02044 0.0
C1161 C 0.01939 0.8596 0.09083 0.0
C1162 C 0.99039 0.85243 0.08268 0.0
C1163 C 0.98534 0.83212 0.0602 0.0
C1164 C 0.00863 0.82387 0.04221 0.0
C1165 C 0.03579 0.83818 0.04574 0.0
C1166 C 0.04183 0.85497 0.07053 0.0
C1167 C 0.06649 0.87698 0.06469 0.0
C1168 C 0.05895 0.90853 0.0748 0.0
C1169 C 0.09538 0.86662 0.07869 0.0
C1170 C 0.06816 0.87484 0.03181 0.0
C1171 C 0.05201 0.85102 0.02161 0.0
C1172 C 0.04403 0.84878 0.99224 0.0
C1173 C 0.05154 0.87152 0.9733 0.0
C1174 C 0.06809 0.89577 0.98327 0.0
C1175 C 0.07726 0.89707 0.01255 0.0
H1176 H 0.24041 0.33729 0.18276 0.0
H1177 H 0.30362 0.33399 0.25353 0.0
H1178 H 0.28126 0.37715 0.27587 0.0
H1179 H 0.22222 0.41353 0.17971 0.0
H1180 H 0.18274 0.40901 0.18023 0.0
H1181 H 0.20569 0.38086 0.16468 0.0
H1182 H 0.18418 0.34107 0.19977 0.0
H1183 H 0.15929 0.36849 0.21293 0.0
H1184 H 0.18217 0.34864 0.23848 0.0
H1185 H 0.26163 0.42701 0.28222 0.0
H1186 H 0.21955 0.44283 0.31121 0.0
H1187 H 0.15994 0.40605 0.24837 0.0
C1188 C 0.24876 0.34493 0.20362 0.0
C1189 C 0.276 0.33534 0.21473 0.0
C1190 C 0.28394 0.34292 0.24366 0.0
C1191 C 0.27257 0.36849 0.25557 0.0
C1192 C 0.25038 0.38265 0.2401 0.0
C1193 C 0.23571 0.3688 0.21754 0.0
C1194 C 0.20578 0.38224 0.21267 0.0
C1195 C 0.20403 0.39729 0.18252 0.0
C1196 C 0.18142 0.35874 0.21624 0.0
C1197 C 0.20588 0.40482 0.23716 0.0
C1198 C 0.2338 0.40743 0.24921 0.0
C1199 C 0.23954 0.4246 0.27365 0.0
C1200 C 0.21541 0.43382 0.28988 0.0
C1201 C 0.18807 0.42064 0.28382 0.0
C1202 C 0.18184 0.41333 0.25439 0.0
H1203 H 0.76022 0.21699 0.8119 0.0
H1204 H 0.78071 0.13547 0.85542 0.0
H1205 H 0.73316 0.11467 0.84102 0.0
H1206 H 0.6687 0.20002 0.81289 0.0
H1207 H 0.66748 0.21802 0.77763 0.0
H1208 H 0.69004 0.23291 0.80655 0.0
H1209 H 0.73482 0.23206 0.77148 0.0
H1210 H 0.71273 0.21687 0.74316 0.0
H1211 H 0.74548 0.19783 0.75475 0.0
H1212 H 0.70317 0.0952 0.80308 0.0
H1213 H 0.68729 0.08303 0.75247 0.0
H1214 H 0.68798 0.17523 0.73038 0.0
C1215 C 0.75331 0.19553 0.81959 0.0
C1216 C 0.77342 0.17733 0.83359 0.0
C1217 C 0.76508 0.14927 0.84392 0.0
C1218 C 0.73793 0.13751 0.83629 0.0
C1219 C 0.71976 0.15416 0.81828 0.0
C1220 C 0.7263 0.18343 0.8113 0.0
C1221 C 0.70822 0.19387 0.78566 0.0
C1222 C 0.68205 0.21226 0.79634 0.0
C1223 C 0.72647 0.21104 0.76242 0.0
C1224 C 0.69771 0.16451 0.77485 0.0
C1225 C 0.70202 0.14224 0.79505 0.0
C1226 C 0.6986 0.11259 0.78753 0.0
C1227 C 0.69063 0.10569 0.75872 0.0
C1228 C 0.68785 0.12841 0.73803 0.0
C1229 C 0.69073 0.15781 0.74628 0.0
H1230 H 0.1646 0.44876 0.99058 0.0
H1231 H 0.07281 0.44507 0.96633 0.0
H1232 H 0.05853 0.4393 0.01745 0.0
H1233 H 0.15245 0.41292 0.07272 0.0
H1234 H 0.17829 0.43948 0.08676 0.0
H1235 H 0.18456 0.42283 0.05149 0.0
H1236 H 0.18905 0.47376 0.02785 0.0
H1237 H 0.18297 0.49059 0.06253 0.0
H1238 H 0.15954 0.49978 0.03184 0.0
H1239 H 0.05121 0.44842 0.06694 0.0
H1240 H 0.04697 0.49787 0.08704 0.0
H1241 H 0.14148 0.50723 0.08599 0.0
C1242 C 0.14158 0.44678 0.99662 0.0
C1243 C 0.11971 0.44719 0.97504 0.0
C1244 C 0.08983 0.4446 0.98283 0.0
C1245 C 0.08169 0.44038 0.01188 0.0
C1246 C 0.10353 0.44077 0.03339 0.0
C1247 C 0.13304 0.44496 0.02598 0.0
C1248 C 0.15026 0.45641 0.05166 0.0
C1249 C 0.16736 0.4314 0.06654 0.0
C1250 C 0.1716 0.48168 0.04292 0.0
C1251 C 0.12459 0.46575 0.07075 0.0
C1252 C 0.09873 0.45109 0.06286 0.0
C1253 C 0.07105 0.46036 0.07261 0.0
C1254 C 0.06864 0.48861 0.08356 0.0
C1255 C 0.09406 0.50603 0.08562 0.0
C1256 C 0.12211 0.49363 0.08289 0.0
H1257 H 0.81682 0.84028 0.22453 0.0
H1258 H 0.83259 0.92835 0.25569 0.0
H1259 H 0.82024 0.91188 0.30645 0.0
H1260 H 0.76158 0.81793 0.25751 0.0
H1261 H 0.77331 0.78141 0.26762 0.0
H1262 H 0.79025 0.79953 0.23731 0.0
H1263 H 0.84113 0.79223 0.26135 0.0
H1264 H 0.82403 0.77448 0.29255 0.0
H1265 H 0.84805 0.80561 0.29781 0.0
H1266 H 0.79497 0.88925 0.34741 0.0
H1267 H 0.74955 0.86859 0.36805 0.0
H1268 H 0.75761 0.79213 0.31367 0.0
C1269 C 0.81733 0.85605 0.24223 0.0
C1270 C 0.82404 0.8856 0.23675 0.0
C1271 C 0.82618 0.90579 0.25987 0.0
C1272 C 0.82043 0.8963 0.28862 0.0
C1273 C 0.81499 0.86635 0.29349 0.0
C1274 C 0.81402 0.84652 0.27072 0.0
C1275 C 0.8043 0.81647 0.28037 0.0
C1276 C 0.78092 0.80319 0.25952 0.0
C1277 C 0.83097 0.79601 0.2832 0.0
C1278 C 0.79253 0.82426 0.3102 0.0
C1279 C 0.8018 0.8523 0.31868 0.0
C1280 C 0.78838 0.86716 0.34165 0.0
C1281 C 0.76252 0.85536 0.35318 0.0
C1282 C 0.75089 0.82917 0.34155 0.0
C1283 C 0.76724 0.81195 0.32254 0.0
H1284 H 0.85754 0.01546 0.95466 0.0
H1285 H 0.83823 0.09294 1.00442 0.0
H1286 H 0.86322 0.07211 0.04728 0.0
H1287 H 0.87873 0.96026 0.01587 0.0
H1288 H 0.90952 0.94994 0.99319 0.0
H1289 H 0.87522 0.9604 0.97648 0.0
H1290 H 0.90551 0.99822 0.94573 0.0
H1291 H 0.93907 0.99074 0.96502 0.0
H1292 H 0.92464 0.02747 0.96443 0.0
H1293 H 0.9035 0.04904 0.0788 0.0
H1294 H 0.94263 0.01813 0.10003 0.0
H1295 H 0.95243 0.97341 0.01737 0.0
C1296 C 0.85677 0.02709 0.97531 0.0
C1297 C 0.85012 0.05707 0.97561 0.0
C1298 C 0.84595 0.07055 1.00323 0.0
C1299 C 0.86091 0.05919 0.02757 0.0
C1300 C 0.87739 0.03383 0.02329 0.0
C1301 C 0.87498 0.01749 0.99774 0.0
C1302 C 0.90084 0.99725 0.99376 0.0
C1303 C 0.89048 0.96506 0.99493 0.0
C1304 C 0.9185 1.00384 0.96555 0.0
C1305 C 0.91854 0.00537 0.02027 0.0
C1306 C 0.90426 0.02559 0.03768 0.0
C1307 C 0.91478 0.03315 0.06532 0.0
C1308 C 0.93783 0.01632 0.07683 0.0
C1309 C 0.94894 0.99255 0.06038 0.0
C1310 C 0.94354 0.99127 0.03022 0.0
H1311 H 0.35469 0.60692 0.7452 0.0
H1312 H 0.29918 0.57709 0.81588 0.0
H1313 H 0.25554 0.58996 0.78832 0.0
H1314 H 0.33496 0.6625 0.73308 0.0
H1315 H 0.32932 0.66871 0.69446 0.0
H1316 H 0.35388 0.64037 0.70627 0.0
H1317 H 0.32491 0.60006 0.67855 0.0
H1318 H 0.30193 0.62882 0.66401 0.0
H1319 H 0.28544 0.59776 0.68251 0.0
H1320 H 0.23664 0.63958 0.78059 0.0
H1321 H 0.21521 0.68381 0.75841 0.0
H1322 H 0.27368 0.67623 0.68417 0.0
C1323 C 0.3332 0.60029 0.75325 0.0
C1324 C 0.32923 0.59452 0.78335 0.0
C1325 C 0.30197 0.58335 0.79315 0.0
C1326 C 0.2769 0.59114 0.77773 0.0
C1327 C 0.28099 0.60644 0.75158 0.0
C1328 C 0.30805 0.60771 0.7372 0.0
C1329 C 0.30694 0.62942 0.71175 0.0
C1330 C 0.33283 0.65152 0.71145 0.0
C1331 C 0.30463 0.61305 0.68247 0.0
C1332 C 0.27849 0.64453 0.71894 0.0
C1333 C 0.26472 0.63172 0.74285 0.0
C1334 C 0.24434 0.64736 0.75944 0.0
C1335 C 0.23359 0.67339 0.74752 0.0
C1336 C 0.23986 0.67965 0.71779 0.0
C1337 C 0.26617 0.66915 0.70565 0.0
H1338 H 0.12999 0.59572 0.4948 0.0
H1339 H 0.16995 0.54044 0.56073 0.0
H1340 H 0.16805 0.4989 0.52789 0.0
H1341 H 0.07777 0.5589 0.48332 0.0
H1342 H 0.07199 0.55933 0.44424 0.0
H1343 H 0.09192 0.58874 0.46111 0.0
H1344 H 0.13796 0.58044 0.42882 0.0
H1345 H 0.11738 0.5526 0.4096 0.0
H1346 H 0.15279 0.54402 0.42517 0.0
H1347 H 0.13727 0.46323 0.50614 0.0
H1348 H 0.10154 0.43338 0.47891 0.0
H1349 H 0.07957 0.50843 0.42468 0.0
C1350 C 0.14053 0.5754 0.50111 0.0
C1351 C 0.14969 0.57089 0.53022 0.0
C1352 C 0.1631 0.54429 0.53844 0.0
C1353 C 0.16172 0.52034 0.51987 0.0
C1354 C 0.14689 0.52378 0.49347 0.0
C1355 C 0.13807 0.551 0.48297 0.0
C1356 C 0.117 0.54774 0.45738 0.0
C1357 C 0.08799 0.56468 0.46185 0.0
C1358 C 0.1322 0.55671 0.42853 0.0
C1359 C 0.11177 0.51511 0.45864 0.0
C1360 C 0.12946 0.50179 0.47937 0.0
C1361 C 0.12489 0.47292 0.48835 0.0
C1362 C 0.10401 0.45639 0.47341 0.0
C1363 C 0.08877 0.46867 0.44942 0.0
C1364 C 0.09128 0.49869 0.44295 0.0
H1365 H 0.40709 0.40192 0.99116 0.0
H1366 H 0.33179 0.44553 0.02871 0.0
H1367 H 0.32193 0.46911 0.98112 0.0
H1368 H 0.43642 0.4595 0.97511 0.0
H1369 H 0.4556 0.4503 0.94172 0.0
H1370 H 0.44609 0.42203 0.96704 0.0
H1371 H 0.41774 0.39442 0.92644 0.0
H1372 H 0.42746 0.42303 0.90063 0.0
H1373 H 0.38938 0.41277 0.90582 0.0
H1374 H 0.32994 0.50054 0.94086 0.0
H1375 H 0.35894 0.543 0.9254 0.0
H1376 H 0.43653 0.48941 0.917 0.0
C1377 C 0.38759 0.41528 0.98855 0.0
C1378 C 0.3697 0.42165 0.01285 0.0
C1379 C 0.34526 0.4401 0.00989 0.0
C1380 C 0.33948 0.45323 0.98276 0.0
C1381 C 0.35954 0.44914 0.95969 0.0
C1382 C 0.38364 0.43076 0.96266 0.0
C1383 C 0.40827 0.4388 0.94159 0.0
C1384 C 0.43825 0.44297 0.95735 0.0
C1385 C 0.41082 0.4159 0.91715 0.0
C1386 C 0.39626 0.46725 0.92976 0.0
C1387 C 0.36693 0.47097 0.93787 0.0
C1388 C 0.35268 0.49766 0.93432 0.0
C1389 C 0.36946 0.52187 0.92608 0.0
C1390 C 0.40007 0.51922 0.92165 0.0
C1391 C 0.4131 0.49147 0.92084 0.0
H1392 H 0.67382 0.76222 0.87569 0.0
H1393 H 0.68823 0.76251 0.78231 0.0
H1394 H 0.69871 0.70983 0.78386 0.0
H1395 H 0.72097 0.74214 0.9019 0.0
H1396 H 0.71407 0.71284 0.92782 0.0
H1397 H 0.6848 0.73677 0.91767 0.0
H1398 H 0.65361 0.69175 0.90256 0.0
H1399 H 0.68371 0.66811 0.91268 0.0
H1400 H 0.66798 0.66588 0.87652 0.0
H1401 H 0.74344 0.69057 0.79793 0.0
H1402 H 0.79149 0.691 0.8207 0.0
H1403 H 0.75235 0.68684 0.90675 0.0
C1404 C 0.67845 0.75027 0.85576 0.0
C1405 C 0.68282 0.76571 0.82939 0.0
C1406 C 0.68662 0.75072 0.80296 0.0
C1407 C 0.69182 0.72072 0.80375 0.0
C1408 C 0.69429 0.70692 0.83118 0.0
C1409 C 0.68444 0.7203 0.8568 0.0
C1410 C 0.69617 0.70462 0.88375 0.0
C1411 C 0.70457 0.72539 0.9092 0.0
C1412 C 0.67406 0.68119 0.89446 0.0
C1413 C 0.72247 0.69029 0.8699 0.0
C1414 C 0.71992 0.69016 0.83939 0.0
C1415 C 0.74486 0.68871 0.82155 0.0
C1416 C 0.77233 0.68955 0.8346 0.0
C1417 C 0.7751 0.68871 0.86526 0.0
C1418 C 0.75008 0.6875 0.88312 0.0
H1419 H 0.48731 0.4723 0.0479 0.0
H1420 H 0.52064 0.39261 0.08665 0.0
H1421 H 0.55382 0.4214 0.1183 0.0
H1422 H 0.55192 0.52509 0.06545 0.0
H1423 H 0.52435 0.55228 0.073 0.0
H1424 H 0.51791 0.52525 0.04505 0.0
H1425 H 0.46882 0.51357 0.07318 0.0
H1426 H 0.47784 0.53715 0.10328 0.0
H1427 H 0.4707 0.49872 0.10989 0.0
H1428 H 0.57784 0.46117 0.15042 0.0
H1429 H 0.59547 0.50759 0.17227 0.0
H1430 H 0.52583 0.55444 0.12757 0.0
C1431 C 0.50348 0.4611 0.06132 0.0
C1432 C 0.5013 0.43085 0.06569 0.0
C1433 C 0.52224 0.41613 0.08328 0.0
C1434 C 0.54055 0.43235 0.1019 0.0
C1435 C 0.53726 0.46271 0.10187 0.0
C1436 C 0.51944 0.47692 0.08169 0.0
C1437 C 0.51384 0.50824 0.08999 0.0
C1438 C 0.52781 0.52895 0.06701 0.0
C1439 C 0.48084 0.51473 0.09434 0.0
C1440 C 0.53012 0.50918 0.11862 0.0
C1441 C 0.54478 0.4833 0.12447 0.0
C1442 C 0.56618 0.48142 0.14628 0.0
C1443 C 0.57549 0.50768 0.15929 0.0
C1444 C 0.56289 0.53459 0.15013 0.0
C1445 C 0.53641 0.53424 0.13432 0.0
H1446 H 0.71548 0.29564 0.33192 0.0
H1447 H 0.74526 0.32284 0.41736 0.0
H1448 H 0.7965 0.32292 0.39977 0.0
H1449 H 0.75554 0.24675 0.31664 0.0
H1450 H 0.76519 0.25378 0.27874 0.0
H1451 H 0.73243 0.26908 0.29344 0.0
H1452 H 0.75001 0.3203 0.27774 0.0
H1453 H 0.78392 0.30552 0.26359 0.0
H1454 H 0.78487 0.33461 0.29019 0.0
H1455 H 0.84026 0.30411 0.38098 0.0
H1456 H 0.86349 0.25677 0.37201 0.0
H1457 H 0.81186 0.2451 0.2939 0.0
C1458 C 0.73291 0.30247 0.34644 0.0
C1459 C 0.72682 0.30988 0.37557 0.0
C1460 C 0.74977 0.31783 0.39464 0.0
C1461 C 0.77878 0.31857 0.38455 0.0
C1462 C 0.78427 0.31177 0.35516 0.0
C1463 C 0.76168 0.30414 0.33625 0.0
C1464 C 0.77315 0.29122 0.3082 0.0
C1465 C 0.75559 0.26354 0.29885 0.0
C1466 C 0.77299 0.31432 0.2835 0.0
C1467 C 0.80435 0.28506 0.31784 0.0
C1468 C 0.81141 0.30047 0.34338 0.0
C1469 C 0.83525 0.29251 0.36094 0.0
C1470 C 0.84829 0.2655 0.35591 0.0
C1471 C 0.83825 0.24803 0.33269 0.0
C1472 C 0.81918 0.25915 0.31154 0.0
H1473 H 0.01914 0.55721 0.5473 0.0
H1474 H 0.99814 0.62953 0.60376 0.0
H1475 H 0.96006 0.59978 0.62869 0.0
H1476 H 0.94807 0.50702 0.56085 0.0
H1477 H 0.97434 0.4775 0.56077 0.0
H1478 H 0.97967 0.50914 0.53714 0.0
H1479 H 0.03241 0.51023 0.56105 0.0
H1480 H 0.02376 0.48327 0.58839 0.0
H1481 H 0.0353 0.51945 0.59943 0.0
H1482 H 0.93047 0.55614 0.65277 0.0
H1483 H 0.91384 0.50691 0.66996 0.0
H1484 H 0.98142 0.46701 0.61617 0.0
C1485 C 1.00454 0.56722 0.56317 0.0
C1486 C 0.01131 0.59474 0.57423 0.0
C1487 C 0.99272 0.60805 0.59514 0.0
C1488 C 0.97145 0.59108 0.60978 0.0
C1489 C 0.97003 0.56134 0.60306 0.0
C1490 C 0.98632 0.5496 0.58008 0.0
C1491 C 0.9898 0.51706 0.58311 0.0
C1492 C 0.97191 0.5017 0.55908 0.0
C1493 C 0.02224 0.50701 0.58301 0.0
C1494 C 0.97583 0.51271 0.61256 0.0
C1495 C 0.96204 0.53762 0.62253 0.0
C1496 C 0.94171 0.53658 0.64553 0.0
C1497 C 0.93302 0.50874 0.65585 0.0
C1498 C 0.94615 0.48326 0.64396 0.0
C1499 C 0.97098 0.486 0.62583 0.0
H1500 H 0.77885 0.31778 0.67842 0.0
H1501 H 0.76754 0.31619 0.58451 0.0
H1502 H 0.71375 0.30891 0.59138 0.0
H1503 H 0.74537 0.27175 0.70454 0.0
H1504 H 0.72376 0.28727 0.73393 0.0
H1505 H 0.75602 0.3059 0.72148 0.0
H1506 H 0.7264 0.35243 0.71138 0.0
H1507 H 0.69342 0.33411 0.72419 0.0
H1508 H 0.6941 0.35135 0.68856 0.0
H1509 H 0.67049 0.28484 0.60751 0.0
H1510 H 0.65668 0.23651 0.62627 0.0
H1511 H 0.68893 0.25864 0.71204 0.0
C1512 C 0.76459 0.31589 0.65948 0.0
C1513 C 0.77659 0.31553 0.63116 0.0
C1514 C 0.7583 0.31472 0.60641 0.0
C1515 C 0.72781 0.31209 0.61024 0.0
C1516 C 0.7163 0.31245 0.63886 0.0
C1517 C 0.73438 0.3155 0.66307 0.0
C1518 C 0.71824 0.30963 0.69131 0.0
C1519 C 0.73697 0.29252 0.71403 0.0
C1520 C 0.70738 0.33859 0.7046 0.0
C1521 C 0.69266 0.29258 0.67884 0.0
C1522 C 0.68934 0.29861 0.64877 0.0
C1523 C 0.6729 0.28025 0.63069 0.0
C1524 C 0.66563 0.25259 0.64132 0.0
C1525 C 0.67366 0.24453 0.67004 0.0
C1526 C 0.68353 0.26539 0.68991 0.0
H1527 H 0.95467 0.53441 0.92933 0.0
H1528 H 0.94663 0.52394 0.83568 0.0
H1529 H 0.94454 0.47022 0.84209 0.0
H1530 H 0.99833 0.49307 0.9492 0.0
H1531 H 0.98272 0.47419 0.98065 0.0
H1532 H 0.96889 0.50914 0.97016 0.0
H1533 H 0.91664 0.48791 0.96663 0.0
H1534 H 0.93031 0.45233 0.97732 0.0
H1535 H 0.90915 0.45637 0.94418 0.0
H1536 H 0.9601 0.42318 0.85532 0.0
H1537 H 0.00921 0.40482 0.86636 0.0
H1538 H 1.00272 0.43644 0.95476 0.0
C1539 C 0.95218 0.5205 0.91037 0.0
C1540 C 0.95182 0.53265 0.8821 0.0
C1541 C 0.94813 0.51453 0.85749 0.0
C1542 C 0.94554 0.48421 0.86116 0.0
C1543 C 0.94564 0.47255 0.88965 0.0
C1544 C 0.94838 0.49047 0.91394 0.0
C1545 C 0.95469 0.47305 0.94125 0.0
C1546 C 0.97759 0.48824 0.96138 0.0
C1547 C 0.92599 0.46705 0.95831 0.0
C1548 C 0.96535 0.4452 0.92685 0.0
C1549 C 0.95506 0.44338 0.89787 0.0
C1550 C 0.96825 0.42476 0.87755 0.0
C1551 C 0.99633 0.41465 0.88376 0.0
C1552 C 0.00921 0.4213 0.9109 0.0
C1553 C 0.9923 0.43231 0.93384 0.0
H1554 H 0.79625 0.79972 0.13799 0.0
H1555 H 0.86335 0.74556 0.17789 0.0
H1556 H 0.84877 0.7046 0.14546 0.0
H1557 H 0.74416 0.75578 0.14191 0.0
H1558 H 0.72579 0.76433 0.10784 0.0
H1559 H 0.74916 0.79093 0.12413 0.0
H1560 H 0.78148 0.79381 0.07627 0.0
H1561 H 0.7554 0.76829 0.06069 0.0
H1562 H 0.79393 0.7601 0.05987 0.0
H1563 H 0.8198 0.66828 0.12084 0.0
H1564 H 0.77375 0.64077 0.12433 0.0
H1565 H 0.72528 0.71666 0.09501 0.0
C1566 C 0.80823 0.77929 0.13952 0.0
C1567 C 0.8304 0.77534 0.16058 0.0
C1568 C 0.84573 0.74862 0.16221 0.0
C1569 C 0.83826 0.72574 0.14316 0.0
C1570 C 0.816 0.7304 0.1224 0.0
C1571 C 0.80115 0.75675 0.12067 0.0
C1572 C 0.77322 0.75463 0.10306 0.0
C1573 C 0.74659 0.76702 0.12032 0.0
C1574 C 0.77628 0.77016 0.07324 0.0
C1575 C 0.772 0.72181 0.09918 0.0
C1576 C 0.79817 0.7085 0.10801 0.0
C1577 C 0.79958 0.67845 0.11357 0.0
C1578 C 0.77315 0.66291 0.11559 0.0
C1579 C 0.74621 0.67795 0.11228 0.0
C1580 C 0.74596 0.70564 0.09894 0.0
H1581 H 0.52293 0.46025 0.36133 0.0
H1582 H 0.60388 0.51103 0.36435 0.0
H1583 H 0.5767 0.55559 0.36683 0.0
H1584 H 0.46957 0.52674 0.33756 0.0
H1585 H 0.44304 0.51258 0.36356 0.0
H1586 H 0.46514 0.48766 0.34231 0.0
H1587 H 0.48135 0.46299 0.39099 0.0
H1588 H 0.46123 0.48885 0.41242 0.0
H1589 H 0.50024 0.48469 0.41819 0.0
H1590 H 0.54823 0.5878 0.39569 0.0
H1591 H 0.51314 0.61178 0.42928 0.0
H1592 H 0.45019 0.54163 0.41476 0.0
C1593 C 0.53468 0.48096 0.36051 0.0
C1594 C 0.56554 0.48182 0.36266 0.0
C1595 C 0.58044 0.5092 0.3616 0.0
C1596 C 0.56491 0.53515 0.36364 0.0
C1597 C 0.53473 0.53321 0.3677 0.0
C1598 C 0.51931 0.50693 0.36484 0.0
C1599 C 0.48882 0.50909 0.37804 0.0
C1600 C 0.46524 0.50904 0.35392 0.0
C1601 C 0.48263 0.48499 0.40126 0.0
C1602 C 0.49139 0.53871 0.39208 0.0
C1603 C 0.51769 0.55254 0.38548 0.0
C1604 C 0.52689 0.57794 0.39988 0.0
C1605 C 0.50748 0.59078 0.41972 0.0
C1606 C 0.47963 0.57791 0.42464 0.0
C1607 C 0.47181 0.55132 0.41145 0.0
H1608 H 0.84331 0.77521 0.68405 0.0
H1609 H 0.93778 0.76691 0.68812 0.0
H1610 H 0.93212 0.71351 0.69723 0.0
H1611 H 0.81759 0.74328 0.73101 0.0
H1612 H 0.78865 0.72026 0.71628 0.0
H1613 H 0.80048 0.75175 0.69626 0.0
H1614 H 0.81165 0.7209 0.65124 0.0
H1615 H 0.79935 0.6885 0.67072 0.0
H1616 H 0.83525 0.68937 0.6538 0.0
H1617 H 0.91666 0.67109 0.72291 0.0
H1618 H 0.89691 0.65752 0.77094 0.0
H1619 H 0.81046 0.6863 0.74561 0.0
C1620 C 0.86265 0.76172 0.68645 0.0
C1621 C 0.89072 0.77458 0.68702 0.0
C1622 C 0.91601 0.75711 0.68914 0.0
C1623 C 0.91289 0.72678 0.69297 0.0
C1624 C 0.88448 0.71446 0.69259 0.0
C1625 C 0.85976 0.73157 0.68823 0.0
C1626 C 0.8317 0.71497 0.69447 0.0
C1627 C 0.80836 0.73368 0.7106 0.0
C1628 C 0.81877 0.70269 0.66586 0.0
C1629 C 0.84461 0.69051 0.71265 0.0
C1630 C 0.87499 0.68799 0.70749 0.0
C1631 C 0.8932 0.67277 0.72678 0.0
C1632 C 0.88199 0.66561 0.75424 0.0
C1633 C 0.85266 0.67259 0.76123 0.0
C1634 C 0.83301 0.68151 0.73963 0.0
H1635 H 0.59318 0.62535 0.00872 0.0
H1636 H 0.57699 0.5328 0.02038 0.0
H1637 H 0.55304 0.53069 0.9724 0.0
H1638 H 0.54462 0.65298 0.99453 0.0
H1639 H 0.54705 0.6751 0.96168 0.0
H1640 H 0.57994 0.66549 0.98069 0.0
H1641 H 0.60075 0.64317 0.93315 0.0
H1642 H 0.56726 0.65279 0.91426 0.0
H1643 H 0.5802 0.61551 0.91374 0.0
H1644 H 0.50566 0.54586 0.95903 0.0
H1645 H 0.45871 0.57189 0.95959 0.0
H1646 H 0.50371 0.65417 0.9441 0.0
C1647 C 0.58571 0.6046 0.99988 0.0
C1648 C 0.58436 0.5798 0.01814 0.0
C1649 C 0.57632 0.55236 0.00685 0.0
C1650 C 0.56347 0.55092 0.97928 0.0
C1651 C 0.55931 0.5771 0.96378 0.0
C1652 C 0.57331 0.60313 0.97194 0.0
C1653 C 0.56039 0.62909 0.95564 0.0
C1654 C 0.55779 0.65724 0.97434 0.0
C1655 C 0.57819 0.63547 0.92752 0.0
C1656 C 0.53101 0.61574 0.94806 0.0
C1657 C 0.53146 0.58534 0.95106 0.0
C1658 C 0.50541 0.56923 0.95472 0.0
C1659 C 0.47884 0.58419 0.95601 0.0
C1660 C 0.47827 0.61481 0.95227 0.0
C1661 C 0.5043 0.6306 0.94719 0.0
H1662 H 0.61377 0.20712 0.24161 0.0
H1663 H 0.61359 0.25734 0.16093 0.0
H1664 H 0.61559 0.30278 0.18841 0.0
H1665 H 0.58602 0.27838 0.29265 0.0
H1666 H 0.60954 0.26395 0.321 0.0
H1667 H 0.58716 0.2394 0.2994 0.0
H1668 H 0.63444 0.21034 0.28736 0.0
H1669 H 0.65722 0.23567 0.30677 0.0
H1670 H 0.66453 0.22867 0.2686 0.0
H1671 H 0.64873 0.33321 0.21589 0.0
H1672 H 0.68422 0.35573 0.2503 0.0
H1673 H 0.66618 0.28667 0.31338 0.0
C1674 C 0.61205 0.22789 0.23016 0.0
C1675 C 0.61603 0.2292 0.19975 0.0
C1676 C 0.6122 0.25609 0.18463 0.0
C1677 C 0.61312 0.28219 0.20011 0.0
C1678 C 0.61701 0.2804 0.23028 0.0
C1679 C 0.61388 0.25404 0.2457 0.0
C1680 C 0.62594 0.25666 0.27646 0.0
C1681 C 0.60066 0.25981 0.29869 0.0
C1682 C 0.64677 0.23135 0.2852 0.0
C1683 C 0.64236 0.28509 0.27305 0.0
C1684 C 0.63612 0.29911 0.24692 0.0
C1685 C 0.65243 0.32338 0.23721 0.0
C1686 C 0.67345 0.33523 0.25614 0.0
C1687 C 0.67781 0.32238 0.28393 0.0
C1688 C 0.66322 0.29643 0.29189 0.0
H1689 H 0.04782 0.41925 0.46424 0.0
H1690 H 0.01154 0.33766 0.43235 0.0
H1691 H 0.96108 0.35732 0.43907 0.0
H1692 H 1.0063 0.43533 0.51678 0.0
H1693 H 1.00339 0.4742 0.50964 0.0
H1694 H 0.03403 0.45481 0.4958 0.0
H1695 H 0.02034 0.47586 0.44518 0.0
H1696 H 0.98682 0.49219 0.45811 0.0
H1697 H 0.98569 0.46641 0.42827 0.0
H1698 H 0.91903 0.37939 0.46234 0.0
H1699 H 0.89357 0.3966 0.50639 0.0
H1700 H 0.95303 0.47008 0.5124 0.0
C1701 C 0.02917 0.40584 0.45817 0.0
C1702 C 0.03304 0.37698 0.44867 0.0
C1703 C 0.00854 0.35967 0.44069 0.0
C1704 C 0.98009 0.37105 0.44338 0.0
C1705 C 0.97705 0.40027 0.45208 0.0
C1706 C 1.0012 0.4176 0.45871 0.0
C1707 C 0.99264 0.44655 0.47171 0.0
C1708 C 0.01003 0.45294 0.50018 0.0
C1709 C 0.99661 0.47167 0.44943 0.0
C1710 C 0.96038 0.44049 0.47687 0.0
C1711 C 0.95124 0.41453 0.46347 0.0
C1712 C 0.92532 0.40021 0.47184 0.0
C1713 C 0.91086 0.41013 0.49685 0.0
C1714 C 0.92229 0.43431 0.5123 0.0
C1715 C 0.94451 0.4517 0.50027 0.0
H1716 H 0.8385 0.33303 0.76833 0.0
H1717 H 0.88638 0.29462 0.69587 0.0
H1718 H 0.92286 0.27486 0.72966 0.0
H1719 H 0.90157 0.34516 0.82015 0.0
H1720 H 0.88008 0.33205 0.8509 0.0
H1721 H 0.86225 0.35067 0.82085 0.0
H1722 H 0.82683 0.30635 0.81297 0.0
H1723 H 0.84336 0.28894 0.84399 0.0
H1724 H 0.84221 0.27019 0.80927 0.0
H1725 H 0.9469 0.251 0.76833 0.0
H1726 H 0.94373 0.21257 0.80603 0.0
H1727 H 0.88742 0.26782 0.85825 0.0
C1728 C 0.85671 0.32039 0.75977 0.0
C1729 C 0.86029 0.31606 0.72959 0.0
C1730 C 0.88383 0.29893 0.71897 0.0
C1731 C 0.905 0.28808 0.73799 0.0
C1732 C 0.90194 0.29396 0.76769 0.0
C1733 C 0.87776 0.30877 0.77864 0.0
C1734 C 0.8754 0.3056 0.81137 0.0
C1735 C 0.88014 0.33515 0.8267 0.0
C1736 C 0.84524 0.29192 0.81988 0.0
C1737 C 0.90093 0.28495 0.81683 0.0
C1738 C 0.91686 0.27963 0.79138 0.0
C1739 C 0.93529 0.25536 0.78857 0.0
C1740 C 0.93363 0.23362 0.81007 0.0
C1741 C 0.9146 0.23732 0.83406 0.0
C1742 C 0.90211 0.26489 0.83975 0.0
H1743 H 0.91941 0.6273 0.00701 0.0
H1744 H 0.93184 0.53397 1.00058 0.0
H1745 H 0.94278 0.53133 0.05298 0.0
H1746 H 0.96502 0.65285 0.0271 0.0
H1747 H 0.9603 0.67563 0.05895 0.0
H1748 H 0.92925 0.66751 0.03637 0.0
H1749 H 0.90178 0.64763 0.08213 0.0
H1750 H 0.93376 0.65561 0.1042 0.0
H1751 H 0.91802 0.61926 0.10438 0.0
H1752 H 0.98937 0.54333 0.07036 0.0
H1753 H 0.03817 0.56519 0.06993 0.0
H1754 H 1.00121 0.6517 0.07869 0.0
C1755 C 0.92359 0.60642 0.0176 0.0
C1756 C 0.92764 0.58134 1.00039 0.0
C1757 C 0.93067 0.55371 0.01363 0.0
C1758 C 0.93612 0.5521 0.04354 0.0
C1759 C 0.93989 0.57838 0.05889 0.0
C1760 C 0.93 0.60509 0.04752 0.0
C1761 C 0.9431 0.6306 0.06442 0.0
C1762 C 0.94988 0.65818 0.0455 0.0
C1763 C 0.92298 0.6387 0.09032 0.0
C1764 C 0.97031 0.61552 0.07545 0.0
C1765 C 0.967 0.58511 0.0741 0.0
C1766 C 0.99154 0.5668 0.0732 0.0
C1767 C 0.01934 0.57941 0.07203 0.0
C1768 C 0.02288 0.60999 0.07399 0.0
C1769 C 0.99836 0.62816 0.07701 0.0
H1770 H 0.65246 0.7137 0.21201 0.0
H1771 H 0.66691 0.64436 0.27556 0.0
H1772 H 0.63127 0.66793 0.30916 0.0
H1773 H 0.65834 0.7675 0.25668 0.0
H1774 H 0.6314 0.79119 0.23989 0.0
H1775 H 0.64892 0.76378 0.21846 0.0
H1776 H 0.59703 0.74149 0.20497 0.0
H1777 H 0.58076 0.77051 0.22627 0.0
H1778 H 0.57149 0.73294 0.23431 0.0
H1779 H 0.60401 0.70291 0.33844 0.0
H1780 H 0.60413 0.74948 0.3647 0.0
H1781 H 0.60533 0.79692 0.28229 0.0
C1782 C 0.64754 0.70311 0.23279 0.0
C1783 C 0.66222 0.67751 0.24149 0.0
C1784 C 0.65594 0.66434 0.26884 0.0
C1785 C 0.63514 0.6771 0.28755 0.0
C1786 C 0.62078 0.70258 0.27818 0.0
C1787 C 0.62712 0.71556 0.25141 0.0
C1788 C 0.6153 0.74627 0.24904 0.0
C1789 C 0.63995 0.76843 0.24062 0.0
C1790 C 0.58963 0.74785 0.2273 0.0
C1791 C 0.60439 0.75004 0.28 0.0
C1792 C 0.60562 0.72389 0.29583 0.0
C1793 C 0.60254 0.72326 0.32621 0.0
C1794 C 0.60266 0.74995 0.34099 0.0
C1795 C 0.60676 0.77641 0.32507 0.0
C1796 C 0.60308 0.77667 0.2946 0.0
H1797 H 0.57856 0.37158 0.49207 0.0
H1798 H 0.58031 0.46455 0.50975 0.0
H1799 H 0.57496 0.45436 0.56244 0.0
H1800 H 0.52785 0.35022 0.51748 0.0
H1801 H 0.53518 0.31786 0.53928 0.0
H1802 H 0.56028 0.32831 0.51093 0.0
H1803 H 0.60293 0.32941 0.54771 0.0
H1804 H 0.57779 0.31844 0.57651 0.0
H1805 H 0.60031 0.35078 0.58069 0.0
H1806 H 0.5459 0.43909 0.60175 0.0
H1807 H 0.49601 0.42523 0.61546 0.0
H1808 H 0.50537 0.34139 0.57309 0.0
C1809 C 0.57831 0.38954 0.50751 0.0
C1810 C 0.57788 0.4187 0.4975 0.0
C1811 C 0.5793 0.44202 0.51743 0.0
C1812 C 0.57721 0.43624 0.54739 0.0
C1813 C 0.57386 0.40706 0.55678 0.0
C1814 C 0.57582 0.38376 0.53732 0.0
C1815 C 0.56294 0.35595 0.55033 0.0
C1816 C 0.54545 0.33711 0.52816 0.0
C1817 C 0.58744 0.3376 0.56467 0.0
C1818 C 0.54407 0.3697 0.57365 0.0
C1819 C 0.55443 0.39783 0.58019 0.0
C1820 C 0.53803 0.41719 0.59694 0.0
C1821 C 0.50931 0.40951 0.6038 0.0
C1822 C 0.49713 0.38286 0.59377 0.0
C1823 C 0.51485 0.36196 0.58025 0.0
H1824 H 0.78777 0.79826 0.72289 0.0
H1825 H 0.74977 0.83098 0.64275 0.0
H1826 H 0.71391 0.85982 0.67096 0.0
H1827 H 0.72331 0.81303 0.77712 0.0
H1828 H 0.75051 0.82555 0.80297 0.0
H1829 H 0.75903 0.79603 0.77832 0.0
H1830 H 0.80519 0.82607 0.76234 0.0
H1831 H 0.79513 0.85716 0.78403 0.0
H1832 H 0.80039 0.86144 0.74505 0.0
H1833 H 0.68952 0.89272 0.70938 0.0
H1834 H 0.67339 0.91737 0.75473 0.0
H1835 H 0.74792 0.88067 0.80094 0.0
C1836 C 0.77003 0.80939 0.71158 0.0
C1837 C 0.77167 0.81358 0.6813 0.0
C1838 C 0.74869 0.82806 0.66634 0.0
C1839 C 0.72876 0.84509 0.68223 0.0
C1840 C 0.73259 0.84649 0.71249 0.0
C1841 C 0.75255 0.82865 0.72709 0.0
C1842 C 0.75896 0.8395 0.75752 0.0
C1843 C 0.74725 0.81724 0.78034 0.0
C1844 C 0.79186 0.84643 0.76244 0.0
C1845 C 0.74106 0.86707 0.75716 0.0
C1846 C 0.72466 0.86994 0.73183 0.0
C1847 C 0.70234 0.89068 0.72927 0.0
C1848 C 0.69394 0.90541 0.75484 0.0
C1849 C 0.70824 0.89875 0.78167 0.0
C1850 C 0.73571 0.88485 0.78095 0.0
H1851 H 0.17963 0.61729 0.26164 0.0
H1852 H 0.2408 0.60456 0.19012 0.0
H1853 H 0.27993 0.62709 0.21867 0.0
H1854 H 0.18959 0.676 0.28074 0.0
H1855 H 0.19361 0.67694 0.32004 0.0
H1856 H 0.17416 0.64704 0.30331 0.0
H1857 H 0.20863 0.60809 0.3258 0.0
H1858 H 0.22642 0.63743 0.3455 0.0
H1859 H 0.24798 0.61297 0.32326 0.0
H1860 H 0.29248 0.67753 0.23534 0.0
H1861 H 0.30884 0.71837 0.26674 0.0
H1862 H 0.24877 0.69006 0.33475 0.0
C1863 C 0.20189 0.61643 0.25318 0.0
C1864 C 0.20707 0.61259 0.22293 0.0
C1865 C 0.23633 0.60953 0.21286 0.0
C1866 C 0.25876 0.62268 0.22881 0.0
C1867 C 0.25136 0.63428 0.2559 0.0
C1868 C 0.2249 0.62798 0.2699 0.0
C1869 C 0.22228 0.64518 0.29823 0.0
C1870 C 0.19317 0.66228 0.30065 0.0
C1871 C 0.22662 0.62472 0.32477 0.0
C1872 C 0.24813 0.6658 0.29446 0.0
C1873 C 0.26373 0.65978 0.26919 0.0
C1874 C 0.28317 0.68028 0.25702 0.0
C1875 C 0.29112 0.70422 0.27434 0.0
C1876 C 0.28331 0.7036 0.30433 0.0
C1877 C 0.25749 0.68848 0.31268 0.0
H1878 H 0.58858 0.99843 0.58123 0.0
H1879 H 0.5889 0.07873 0.53014 0.0
H1880 H 0.6276 0.05906 0.49819 0.0
H1881 H 0.66613 0.98055 0.57528 0.0
H1882 H 0.65945 0.94191 0.56992 0.0
H1883 H 0.63402 0.96332 0.5913 0.0
H1884 H 0.59003 0.94839 0.55781 0.0
H1885 H 0.61502 0.92508 0.53851 0.0
H1886 H 0.59402 0.95213 0.51863 0.0
H1887 H 0.66383 0.032 0.47186 0.0
H1888 H 0.67271 0.99244 0.43739 0.0
H1889 H 0.6547 0.92841 0.50567 0.0
C1890 C 0.59614 0.01132 0.5626 0.0
C1891 C 0.58662 0.0402 0.55825 0.0
C1892 C 0.59655 0.05662 0.53384 0.0
C1893 C 0.61915 0.04601 0.51626 0.0
C1894 C 0.63082 0.01872 0.52323 0.0
C1895 C 0.61849 1.00089 0.54463 0.0
C1896 C 0.63102 0.97043 0.54387 0.0
C1897 C 0.64872 0.96369 0.57176 0.0
C1898 C 0.60608 0.94769 0.53938 0.0
C1899 C 0.65106 0.97347 0.51736 0.0
C1900 C 0.65203 1.00218 0.50708 0.0
C1901 C 0.66352 0.00953 0.47966 0.0
C1902 C 0.66898 0.98681 0.46021 0.0
C1903 C 0.66217 0.95773 0.46867 0.0
C1904 C 0.65882 0.9508 0.49865 0.0
H1905 H 0.31787 0.41207 0.75427 0.0
H1906 H 0.25137 0.39413 0.68932 0.0
H1907 H 0.23237 0.35324 0.71925 0.0
H1908 H 0.33493 0.34472 0.77894 0.0
H1909 H 0.33427 0.35149 0.81786 0.0
H1910 H 0.34239 0.38104 0.79266 0.0
H1911 H 0.29914 0.41254 0.8124 0.0
H1912 H 0.29315 0.38441 0.83959 0.0
H1913 H 0.26319 0.39596 0.81639 0.0
H1914 H 0.23404 0.30511 0.74721 0.0
H1915 H 0.21925 0.27855 0.79196 0.0
H1916 H 0.27529 0.3345 0.84377 0.0
C1917 C 0.29838 0.4006 0.74688 0.0
C1918 C 0.28968 0.40117 0.71717 0.0
C1919 C 0.2611 0.39035 0.71068 0.0
C1920 C 0.2508 0.36629 0.72683 0.0
C1921 C 0.26633 0.35899 0.75205 0.0
C1922 C 0.28689 0.37785 0.76403 0.0
C1923 C 0.2958 0.36814 0.79442 0.0
C1924 C 0.32882 0.36094 0.79603 0.0
C1925 C 0.28727 0.39162 0.81705 0.0
C1926 C 0.27723 0.34055 0.79714 0.0
C1927 C 0.26255 0.33455 0.77126 0.0
C1928 C 0.24431 0.31019 0.76798 0.0
C1929 C 0.2368 0.29469 0.79337 0.0
C1930 C 0.24383 0.30735 0.82063 0.0
C1931 C 0.26852 0.32598 0.82268 0.0
H1932 H 0.46718 0.48125 0.54229 0.0
H1933 H 0.42505 0.51673 0.61901 0.0
H1934 H 0.39476 0.54894 0.58792 0.0
H1935 H 0.45221 0.5431 0.48587 0.0
H1936 H 0.44432 0.51446 0.45989 0.0
H1937 H 0.47179 0.50881 0.48765 0.0
H1938 H 0.44284 0.46102 0.50111 0.0
H1939 H 0.41349 0.46908 0.47608 0.0
H1940 H 0.40553 0.46384 0.5145 0.0
H1941 H 0.36163 0.56836 0.5474 0.0
H1942 H 0.33867 0.58259 0.50057 0.0
H1943 H 0.38968 0.5164 0.45572 0.0
C1944 C 0.45345 0.49779 0.55237 0.0
C1945 C 0.44721 0.49607 0.58235 0.0
C1946 C 0.42952 0.51768 0.59566 0.0
C1947 C 0.41162 0.53544 0.57809 0.0
C1948 C 0.41282 0.53115 0.5479 0.0
C1949 C 0.43373 0.51317 0.53508 0.0
C1950 C 0.42631 0.50621 0.50373 0.0
C1951 C 0.45006 0.51895 0.48308 0.0
C1952 C 0.42179 0.47308 0.49863 0.0
C1953 C 0.39765 0.52231 0.50109 0.0
C1954 C 0.39062 0.53735 0.52635 0.0
C1955 C 0.36706 0.55676 0.52747 0.0
C1956 C 0.35336 0.564 0.50092 0.0
C1957 C 0.36395 0.55185 0.47436 0.0
C1958 C 0.38193 0.52689 0.47556 0.0
H1959 H 0.75524 0.12665 0.16916 0.0
H1960 H 0.76697 0.22015 0.17538 0.0
H1961 H 0.81836 0.21317 0.18993 0.0
H1962 H 0.7653 0.1051 0.22104 0.0
H1963 H 0.79038 0.07465 0.22186 0.0
H1964 H 0.77179 0.08354 0.18851 0.0
H1965 H 0.82179 0.08874 0.16117 0.0
H1966 H 0.83941 0.07818 0.1949 0.0
H1967 H 0.85056 0.11144 0.17634 0.0
H1968 H 0.82685 0.2022 0.23899 0.0
H1969 H 0.82008 0.18438 0.28867 0.0
H1970 H 0.81956 0.09484 0.25878 0.0
C1971 C 0.76962 0.14527 0.17296 0.0
C1972 C 0.75762 0.17351 0.17411 0.0
C1973 C 0.77592 0.19818 0.17635 0.0
C1974 C 0.80523 0.1942 0.18405 0.0
C1975 C 0.8144 0.16576 0.19129 0.0
C1976 C 0.79843 0.14106 0.18255 0.0
C1977 C 0.80803 0.11394 0.1994 0.0
C1978 C 0.7823 0.09318 0.20824 0.0
C1979 C 0.8314 0.09715 0.18191 0.0
C1980 C 0.82165 0.12883 0.22546 0.0
C1981 C 0.82591 0.15866 0.21995 0.0
C1982 C 0.82624 0.17877 0.24292 0.0
C1983 C 0.82173 0.1686 0.27126 0.0
C1984 C 0.82026 0.13837 0.27723 0.0
C1985 C 0.82104 0.11815 0.25426 0.0
H1986 H 0.61806 0.00916 0.91985 0.0
H1987 H 0.52978 0.9853 0.94556 0.0
H1988 H 0.52239 0.03412 0.96639 0.0
H1989 H 0.64724 0.0295 0.96532 0.0
H1990 H 0.66456 0.06477 0.95942 0.0
H1991 H 0.65506 0.04275 0.92864 0.0
H1992 H 0.62458 0.08549 0.90733 0.0
H1993 H 0.63436 0.1075 0.93865 0.0
H1994 H 0.59621 0.10235 0.92906 0.0
H1995 H 0.5385 0.05412 0.01017 0.0
H1996 H 0.56753 0.0583 0.05452 0.0
H1997 H 0.6449 0.08076 1.0035 0.0
C1998 C 0.59691 0.01543 0.92879 0.0
C1999 C 0.57515 0.99402 0.93335 0.0
C2000 C 0.54707 1.00164 0.94351 0.0
C2001 C 0.54259 0.02956 0.95464 0.0
C2002 C 0.56657 0.04898 0.95538 0.0
C2003 C 0.59248 0.04354 0.93986 0.0
C2004 C 0.61701 0.0639 0.94967 0.0
C2005 C 0.64771 0.04926 0.95092 0.0
C2006 C 0.61806 0.09144 0.93003 0.0
C2007 C 0.60498 0.0715 0.97943 0.0
C2008 C 0.57506 0.06481 0.98137 0.0
C2009 C 0.56126 0.06103 0.00848 0.0
C2010 C 0.57819 0.06261 0.03369 0.0
C2011 C 0.60843 0.06971 0.03199 0.0
C2012 C 0.62166 0.07537 1.00478 0.0
H2013 H 0.94828 0.0356 0.48836 0.0
H2014 H 0.94385 0.99609 0.40266 0.0
H2015 H 0.90661 0.96054 0.42089 0.0
H2016 H 0.92139 0.97848 0.5369 0.0
H2017 H 0.89947 0.00542 0.55589 0.0
H2018 H 0.93321 0.01625 0.53827 0.0
H2019 H 0.9026 0.05557 0.51029 0.0
H2020 H 0.86832 0.04224 0.52534 0.0
H2021 H 0.87343 0.04398 0.48614 0.0
H2022 H 0.86998 0.9302 0.45227 0.0
H2023 H 0.84784 0.90547 0.49473 0.0
H2024 H 0.85263 0.9856 0.54421 0.0
C2025 C 0.94088 0.01807 0.47409 0.0
C2026 C 0.94741 0.01918 0.44415 0.0
C2027 C 0.93826 0.99591 0.42578 0.0
C2028 C 0.91627 0.97645 0.43562 0.0
C2029 C 0.90429 0.98147 0.46331 0.0
C2030 C 0.91625 1.00197 0.4821 0.0
C2031 C 0.89669 0.00782 0.50788 0.0
C2032 C 0.91365 1.00159 0.53643 0.0
C2033 C 0.88456 0.03928 0.50734 0.0
C2034 C 0.87254 0.98574 0.50208 0.0
C2035 C 0.87762 0.97025 0.47635 0.0
C2036 C 0.86509 0.94266 0.47181 0.0
C2037 C 0.8517 0.9289 0.49595 0.0
C2038 C 0.85216 0.9432 0.52347 0.0
C2039 C 0.8545 0.97384 0.5237 0.0
H2040 H 0.12001 0.29438 0.44419 0.0
H2041 H 0.19685 0.33532 0.48284 0.0
H2042 H 0.19197 0.30243 0.52612 0.0
H2043 H 0.07749 0.28012 0.5098 0.0
H2044 H 0.06507 0.24401 0.49938 0.0
H2045 H 0.07399 0.27084 0.47155 0.0
H2046 H 0.11143 0.2352 0.44811 0.0
H2047 H 0.10155 0.20824 0.47555 0.0
H2048 H 0.1395 0.21898 0.47084 0.0
H2049 H 0.17818 0.26425 0.56708 0.0
H2050 H 0.15904 0.22445 0.599 0.0
H2051 H 0.09196 0.20483 0.53443 0.0
C2052 C 0.13576 0.2966 0.46185 0.0
C2053 C 0.15879 0.31836 0.45973 0.0
C2054 C 0.17902 0.31945 0.48341 0.0
C2055 C 0.17633 0.30063 0.50833 0.0
C2056 C 0.15357 0.27964 0.50975 0.0
C2057 C 0.13385 0.27717 0.4868 0.0
C2058 C 0.11235 0.25157 0.49325 0.0
C2059 C 0.08032 0.26229 0.49352 0.0
C2060 C 0.11644 0.22706 0.47057 0.0
C2061 C 0.12202 0.24099 0.52394 0.0
C2062 C 0.14611 0.25737 0.53283 0.0
C2063 C 0.15936 0.25146 0.56001 0.0
C2064 C 0.14823 0.22848 0.57826 0.0
C2065 C 0.12365 0.21086 0.57009 0.0
C2066 C 0.11045 0.21772 0.54218 0.0
H2067 H 0.03985 0.83077 0.79184 0.0
H2068 H 0.06161 0.91919 0.81864 0.0
H2069 H 0.02436 0.93867 0.78448 0.0
H2070 H 0.02804 0.85102 0.71394 0.0
H2071 H 0.99827 0.82536 0.70823 0.0
H2072 H 0.02625 0.81759 0.73515 0.0
H2073 H 0.98609 0.81156 0.77496 0.0
H2074 H 0.95802 0.81938 0.74814 0.0
H2075 H 0.96035 0.8409 0.78114 0.0
H2076 H 0.98368 0.9499 0.74794 0.0
H2077 H 0.94586 0.95199 0.70939 0.0
H2078 H 0.94772 0.8571 0.70262 0.0
C2079 C 0.03643 0.85423 0.79099 0.0
C2080 C 0.05329 0.87326 0.80986 0.0
C2081 C 0.0483 0.90381 0.80644 0.0
C2082 C 0.02721 0.9152 0.78658 0.0
C2083 C 0.01044 0.89613 0.76936 0.0
C2084 C 0.01495 0.86621 0.77097 0.0
C2085 C 0.99447 0.851 0.74856 0.0
C2086 C 0.01284 0.8353 0.72508 0.0
C2087 C 0.97349 0.82942 0.76413 0.0
C2088 C 0.97731 0.87692 0.73491 0.0
C2089 C 0.98733 0.90272 0.74728 0.0
C2090 C 0.97578 0.92971 0.73826 0.0
C2091 C 0.95393 0.93068 0.71612 0.0
C2092 C 0.94272 0.90493 0.70251 0.0
C2093 C 0.95488 0.87746 0.71252 0.0
H2094 H 0.40031 0.76638 0.08035 0.0
H2095 H 0.39945 0.84447 0.02566 0.0
H2096 H 0.3857 0.81445 0.98292 0.0
H2097 H 0.43284 0.71871 0.02422 0.0
H2098 H 0.4117 0.6866 0.03429 0.0
H2099 H 0.42025 0.71392 0.06148 0.0
H2100 H 0.36485 0.71924 0.07334 0.0
H2101 H 0.35613 0.69193 0.04619 0.0
H2102 H 0.33942 0.72767 0.04421 0.0
H2103 H 0.37015 0.77681 0.94575 0.0
H2104 H 0.35832 0.73359 0.91558 0.0
H2105 H 0.37307 0.67676 0.9906 0.0
C2106 C 0.39723 0.7771 0.05936 0.0
C2107 C 0.40099 0.80822 0.05669 0.0
C2108 C 0.39684 0.82099 0.02858 0.0
C2109 C 0.38892 0.80401 1.00402 0.0
C2110 C 0.38549 0.77367 0.0072 0.0
C2111 C 0.38987 0.76011 0.03402 0.0
C2112 C 0.38572 0.72677 0.03057 0.0
C2113 C 0.41433 0.71054 0.03809 0.0
C2114 C 0.36001 0.71575 0.04972 0.0
C2115 C 0.37834 0.72386 0.99778 0.0
C2116 C 0.37791 0.75146 0.98507 0.0
C2117 C 0.3706 0.75513 0.95554 0.0
C2118 C 0.36369 0.7303 0.93849 0.0
C2119 C 0.36446 0.70145 0.95029 0.0
C2120 C 0.37222 0.69832 0.98059 0.0
H2121 H 0.48234 0.12567 0.33622 0.0
H2122 H 0.42921 0.18388 0.28275 0.0
H2123 H 0.46491 0.17928 0.24236 0.0
H2124 H 0.55428 0.157 0.3065 0.0
H2125 H 0.57332 0.12244 0.30851 0.0
H2126 H 0.54394 0.13027 0.33395 0.0
H2127 H 0.52428 0.08202 0.31864 0.0
H2128 H 0.54564 0.07459 0.28696 0.0
H2129 H 0.50617 0.07752 0.28358 0.0
H2130 H 0.50707 0.16783 0.20515 0.0
H2131 H 0.55027 0.1508 0.17685 0.0
H2132 H 0.57921 0.10025 0.25193 0.0
C2133 C 0.47817 0.13763 0.31611 0.0
C2134 C 0.45195 0.15549 0.31365 0.0
C2135 C 0.44845 0.1704 0.28632 0.0
C2136 C 0.4689 0.16778 0.26278 0.0
C2137 C 0.4941 0.15036 0.2659 0.0
C2138 C 0.49912 0.1357 0.29208 0.0
C2139 C 0.52909 0.1196 0.28955 0.0
C2140 C 0.55149 0.13312 0.3109 0.0
C2141 C 0.5259 0.08648 0.29491 0.0
C2142 C 0.53875 0.12569 0.25764 0.0
C2143 C 0.51849 0.14412 0.24465 0.0
C2144 C 0.52285 0.15343 0.21553 0.0
C2145 C 0.54785 0.14364 0.19942 0.0
C2146 C 0.569 0.12414 0.21159 0.0
C2147 C 0.56399 0.11518 0.24149 0.0
H2148 H 0.13754 0.81901 0.96558 0.0
H2149 H 0.07319 0.77086 0.91473 0.0
H2150 H 0.07924 0.72793 0.94774 0.0
H2151 H 0.18635 0.75866 0.9848 0.0
H2152 H 0.19233 0.77034 0.02205 0.0
H2153 H 0.18372 0.79698 0.99406 0.0
H2154 H 0.13974 0.81494 0.02498 0.0
H2155 H 0.1481 0.78821 0.05299 0.0
H2156 H 0.11194 0.78906 0.03676 0.0
H2157 H 0.09194 0.68886 0.98783 0.0
H2158 H 0.10913 0.65903 0.02989 0.0
H2159 H 0.16532 0.73108 0.05707 0.0
C2160 C 0.125 0.79927 0.9611 0.0
C2161 C 0.10517 0.7986 0.93652 0.0
C2162 C 0.08873 0.77233 0.93266 0.0
C2163 C 0.09204 0.74763 0.95157 0.0
C2164 C 0.1116 0.74895 0.97536 0.0
C2165 C 0.12767 0.77431 0.98038 0.0
C2166 C 0.14609 0.77028 0.00851 0.0
C2167 C 0.17909 0.7743 1.00196 0.0
C2168 C 0.13587 0.79191 0.03221 0.0
C2169 C 0.13898 0.73838 0.01773 0.0
C2170 C 0.11865 0.72669 0.99845 0.0
C2171 C 0.10797 0.69801 1.00279 0.0
C2172 C 0.118 0.68096 0.02701 0.0
C2173 C 0.13916 0.6918 0.04727 0.0
C2174 C 0.14963 0.72131 0.04212 0.0
H2175 H 0.46513 0.90425 0.19222 0.0
H2176 H 0.4708 0.80933 0.19151 0.0
H2177 H 0.50942 0.81142 0.22937 0.0
H2178 H 0.54435 0.91906 0.20554 0.0
H2179 H 0.53817 0.9492 0.2302 0.0
H2180 H 0.51161 0.94101 0.20199 0.0
H2181 H 0.47066 0.93672 0.24114 0.0
H2182 H 0.49707 0.94489 0.26946 0.0
H2183 H 0.47524 0.9118 0.27162 0.0
H2184 H 0.54908 0.82323 0.26849 0.0
H2185 H 0.58268 0.8432 0.30585 0.0
H2186 H 0.55237 0.93103 0.28583 0.0
C2187 C 0.47477 0.88386 0.19962 0.0
C2188 C 0.46449 0.8564 0.18757 0.0
C2189 C 0.4778 0.83066 0.19928 0.0
C2190 C 0.50004 0.83164 0.22118 0.0
C2191 C 0.5095 0.85865 0.23245 0.0
C2192 C 0.49712 0.88441 0.22223 0.0
C2193 C 0.51089 0.91042 0.23919 0.0
C2194 C 0.52722 0.93117 0.21797 0.0
C2195 C 0.48704 0.92694 0.25636 0.0
C2196 C 0.5328 0.89533 0.26034 0.0
C2197 C 0.53168 0.8654 0.2557 0.0
C2198 C 0.54992 0.84669 0.27201 0.0
C2199 C 0.56945 0.85842 0.29337 0.0
C2200 C 0.57139 0.889 0.2994 0.0
C2201 C 0.55225 0.90758 0.28225 0.0
H2202 H 0.36012 0.19497 0.46953 0.0
H2203 H 0.42352 0.23929 0.41353 0.0
H2204 H 0.42133 0.28301 0.44548 0.0
H2205 H 0.31501 0.25849 0.48934 0.0
H2206 H 0.31043 0.24756 0.52716 0.0
H2207 H 0.31607 0.22019 0.49937 0.0
H2208 H 0.3606 0.20024 0.52822 0.0
H2209 H 0.35519 0.22775 0.55595 0.0
H2210 H 0.39033 0.22474 0.53777 0.0
H2211 H 0.41433 0.32267 0.48657 0.0
H2212 H 0.40081 0.3537 0.52908 0.0
H2213 H 0.34058 0.2858 0.55906 0.0
C2214 C 0.37293 0.21417 0.46346 0.0
C2215 C 0.39134 0.21347 0.43776 0.0
C2216 C 0.40866 0.23898 0.43214 0.0
C2217 C 0.40769 0.26409 0.45054 0.0
C2218 C 0.3896 0.26406 0.47554 0.0
C2219 C 0.37242 0.23966 0.48202 0.0
C2220 C 0.35579 0.24498 0.51101 0.0
C2221 C 0.32233 0.24268 0.50644 0.0
C2222 C 0.36608 0.22312 0.53463 0.0
C2223 C 0.36514 0.27651 0.51907 0.0
C2224 C 0.38528 0.28682 0.49865 0.0
C2225 C 0.39828 0.31467 0.50232 0.0
C2226 C 0.39046 0.33238 0.52681 0.0
C2227 C 0.36911 0.3231 0.54779 0.0
C2228 C 0.35651 0.29437 0.54347 0.0
H2229 H 0.95734 0.1591 0.80704 0.0
H2230 H 0.9527 0.06468 0.79612 0.0
H2231 H 0.99082 0.0677 0.75787 0.0
H2232 H 0.97128 0.17756 0.72822 0.0
H2233 H 0.99722 0.20661 0.73589 0.0
H2234 H 0.96852 0.19783 0.76188 0.0
H2235 H 0.00794 0.19071 0.80202 0.0
H2236 H 0.03678 0.19884 0.77591 0.0
H2237 H 0.03726 0.16483 0.79622 0.0
H2238 H 0.03207 0.07931 0.72238 0.0
H2239 H 0.07013 0.09874 0.68929 0.0
H2240 H 0.05139 0.18703 0.71838 0.0
C2241 C 0.96394 0.13909 0.79628 0.0
C2242 C 0.95091 0.11142 0.80519 0.0
C2243 C 0.96144 0.08612 0.7904 0.0
C2244 C 0.98346 0.08761 0.76837 0.0
C2245 C 0.9959 0.11471 0.76048 0.0
C2246 C 0.98653 0.14017 0.7738 0.0
C2247 C 1.00461 0.16624 0.76094 0.0
C2248 C 0.98419 0.18839 0.74584 0.0
C2249 C 0.02272 0.18105 0.78522 0.0
C2250 C 0.0251 0.15146 0.73823 0.0
C2251 C 0.0195 0.12162 0.73882 0.0
C2252 C 0.03576 0.10276 0.72111 0.0
C2253 C 0.05744 0.11424 0.7018 0.0
C2254 C 0.06372 0.14477 0.6992 0.0
C2255 C 0.04728 0.16363 0.7186 0.0
H2256 H 0.2249 0.57382 0.15263 0.0
H2257 H 0.21186 0.55775 0.05988 0.0
H2258 H 0.24858 0.51864 0.06158 0.0
H2259 H 0.30693 0.55892 0.14983 0.0
H2260 H 0.30801 0.54173 0.18549 0.0
H2261 H 0.28115 0.56971 0.17779 0.0
H2262 H 0.23937 0.53417 0.19304 0.0
H2263 H 0.26607 0.50606 0.20077 0.0
H2264 H 0.23641 0.49888 0.17552 0.0
H2265 H 0.28791 0.48023 0.07192 0.0
H2266 H 0.32438 0.44515 0.09061 0.0
H2267 H 0.31464 0.4814 0.17788 0.0
C2268 C 0.23027 0.56266 0.13251 0.0
C2269 C 0.21489 0.57025 0.10584 0.0
C2270 C 0.22269 0.55359 0.08061 0.0
C2271 C 0.24387 0.53088 0.08131 0.0
C2272 C 0.25836 0.52408 0.10748 0.0
C2273 C 0.25209 0.53953 0.13274 0.0
C2274 C 0.27141 0.52712 0.15785 0.0
C2275 C 0.29315 0.55078 0.16839 0.0
C2276 C 0.25216 0.51589 0.18331 0.0
C2277 C 0.2883 0.50167 0.14304 0.0
C2278 C 0.2807 0.50104 0.11372 0.0
C2279 C 0.29383 0.48071 0.09489 0.0
C2280 C 0.31496 0.46064 0.10587 0.0
C2281 C 0.32329 0.45966 0.13596 0.0
C2282 C 0.30926 0.48087 0.15478 0.0
H2283 H 0.81502 0.05717 0.90648 0.0
H2284 H 0.82006 0.04899 0.81193 0.0
H2285 H 0.78453 0.00774 0.81407 0.0
H2286 H 0.80613 0.97931 0.92428 0.0
H2287 H 0.77877 0.98392 0.95262 0.0
H2288 H 0.80516 0.01264 0.94541 0.0
H2289 H 0.76483 0.05033 0.93686 0.0
H2290 H 0.73749 0.02266 0.94512 0.0
H2291 H 0.73585 0.0427 0.91098 0.0
H2292 H 0.74771 0.96603 0.82615 0.0
H2293 H 0.7111 0.93133 0.84621 0.0
H2294 H 0.72526 0.96632 0.93321 0.0
C2295 C 0.80903 0.04645 0.8862 0.0
C2296 C 0.82138 0.05662 0.85885 0.0
C2297 C 0.81172 0.04202 0.83312 0.0
C2298 C 0.79132 0.01831 0.83417 0.0
C2299 C 0.77961 0.00901 0.86116 0.0
C2300 C 0.78786 0.02286 0.88679 0.0
C2301 C 0.77041 0.00935 0.91267 0.0
C2302 C 0.79139 0.99543 0.93506 0.0
C2303 C 0.75099 0.03265 0.92727 0.0
C2304 C 0.75144 0.98566 0.89771 0.0
C2305 C 0.75745 0.98579 0.86797 0.0
C2306 C 0.74314 0.9659 0.84946 0.0
C2307 C 0.72232 0.94572 0.86125 0.0
C2308 C 0.71504 0.94484 0.8916 0.0
C2309 C 0.73009 0.96562 0.90997 0.0
H2310 H 0.80019 0.06744 0.35584 0.0
H2311 H 0.80946 0.05222 0.44935 0.0
H2312 H 0.77207 0.01302 0.44687 0.0
H2313 H 0.71943 0.05204 0.35254 0.0
H2314 H 0.7209 0.03334 0.31785 0.0
H2315 H 0.74775 0.06137 0.32625 0.0
H2316 H 0.78973 0.02475 0.3164 0.0
H2317 H 0.76301 0.99663 0.30797 0.0
H2318 H 0.79028 0.99025 0.33592 0.0
H2319 H 0.73351 0.97338 0.43502 0.0
H2320 H 0.69797 0.9378 0.41501 0.0
H2321 H 0.71105 0.97448 0.32807 0.0
C2322 C 0.79412 0.05621 0.37595 0.0
C2323 C 0.80844 0.06409 0.40314 0.0
C2324 C 0.79948 0.04764 0.42831 0.0
C2325 C 0.77796 0.02493 0.42709 0.0
C2326 C 0.76467 0.01767 0.40036 0.0
C2327 C 0.77237 0.03279 0.37509 0.0
C2328 C 0.75469 0.01962 0.34917 0.0
C2329 C 0.7345 0.04299 0.33564 0.0
C2330 C 0.77568 0.00708 0.32598 0.0
C2331 C 0.7362 0.99482 0.36375 0.0
C2332 C 0.7424 0.99447 0.39343 0.0
C2333 C 0.72848 0.97392 0.41183 0.0
C2334 C 0.70776 0.95368 0.40015 0.0
C2335 C 0.70025 0.95295 0.36987 0.0
C2336 C 0.71544 0.97402 0.35138 0.0
H2337 H 0.81294 0.95531 0.1548 0.0
H2338 H 0.80235 0.95102 0.06049 0.0
H2339 H 0.76018 0.98503 0.06378 0.0
H2340 H 0.73465 0.96179 0.17439 0.0
H2341 H 0.74055 0.98812 0.20317 0.0
H2342 H 0.76902 0.96225 0.19414 0.0
H2343 H 0.80633 1.00473 0.18476 0.0
H2344 H 0.77779 0.02967 0.19558 0.0
H2345 H 0.796 0.03441 0.16064 0.0
H2346 H 0.71687 0.01931 0.07735 0.0
H2347 H 0.68105 0.05375 0.09835 0.0
H2348 H 0.72056 0.04187 0.18414 0.0
C2349 C 0.8016 0.96126 0.13479 0.0
C2350 C 0.81138 0.9495 0.10718 0.0
C2351 C 0.79581 0.95896 0.08186 0.0
C2352 C 0.77153 0.97849 0.08358 0.0
C2353 C 0.76261 0.98958 0.11085 0.0
C2354 C 0.77749 0.98162 0.13604 0.0
C2355 C 0.76416 0.99812 0.16237 0.0
C2356 C 0.75134 0.97626 0.18485 0.0
C2357 C 0.78749 0.01793 0.17665 0.0
C2358 C 0.73946 0.0165 0.14816 0.0
C2359 C 0.73881 0.01069 0.11841 0.0
C2360 C 0.71755 0.02397 0.10059 0.0
C2361 C 0.69688 0.04367 0.11295 0.0
C2362 C 0.69702 0.05118 0.14325 0.0
C2363 C 0.71912 0.03703 0.16097 0.0
H2364 H 0.29782 0.44429 0.654 0.0
H2365 H 0.30732 0.46134 0.56081 0.0
H2366 H 0.2676 0.49804 0.56364 0.0
H2367 H 0.21742 0.45371 0.65825 0.0
H2368 H 0.21753 0.47267 0.69286 0.0
H2369 H 0.24625 0.44693 0.68452 0.0
H2370 H 0.286 0.48595 0.69365 0.0
H2371 H 0.25776 0.51208 0.70268 0.0
H2372 H 0.28431 0.52055 0.67438 0.0
H2373 H 0.22652 0.53499 0.57641 0.0
H2374 H 0.18941 0.56811 0.59767 0.0
H2375 H 0.20451 0.53015 0.68348 0.0
C2376 C 0.29132 0.45537 0.63401 0.0
C2377 C 0.3062 0.44888 0.60682 0.0
C2378 C 0.29681 0.46504 0.5818 0.0
C2379 C 0.274 0.48624 0.58325 0.0
C2380 C 0.2601 0.49214 0.61009 0.0
C2381 C 0.26849 0.47724 0.63517 0.0
C2382 C 0.25039 0.48882 0.66141 0.0
C2383 C 0.23177 0.46405 0.67506 0.0
C2384 C 0.27083 0.50267 0.68439 0.0
C2385 C 0.23046 0.51227 0.64722 0.0
C2386 C 0.23654 0.5136 0.6175 0.0
C2387 C 0.22149 0.53356 0.59959 0.0
C2388 C 0.19985 0.55224 0.61191 0.0
C2389 C 0.19235 0.55163 0.64219 0.0
C2390 C 0.20865 0.53126 0.66012 0.0
H2391 H 0.21556 0.44977 0.35855 0.0
H2392 H 0.21491 0.45949 0.45279 0.0
H2393 H 0.25183 0.49905 0.44868 0.0
H2394 H 0.29731 0.46647 0.34895 0.0
H2395 H 0.29138 0.48524 0.31458 0.0
H2396 H 0.26671 0.45633 0.32629 0.0
H2397 H 0.22318 0.49429 0.31981 0.0
H2398 H 0.2495 0.52238 0.30991 0.0
H2399 H 0.22469 0.52791 0.34027 0.0
H2400 H 0.28977 0.5389 0.43513 0.0
H2401 H 0.32385 0.57508 0.4137 0.0
H2402 H 0.30318 0.54351 0.32659 0.0
C2403 C 0.22359 0.4599 0.37826 0.0
C2404 C 0.21184 0.45029 0.40616 0.0
C2405 C 0.22295 0.46532 0.43115 0.0
C2406 C 0.24422 0.48824 0.429 0.0
C2407 C 0.25512 0.49704 0.40151 0.0
C2408 C 0.24525 0.48333 0.37641 0.0
C2409 C 0.26087 0.49773 0.34961 0.0
C2410 C 0.28018 0.47513 0.33387 0.0
C2411 C 0.23822 0.51135 0.32864 0.0
C2412 C 0.28048 0.52182 0.36347 0.0
C2413 C 0.27684 0.52052 0.39358 0.0
C2414 C 0.29267 0.5397 0.41157 0.0
C2415 C 0.31258 0.56031 0.39897 0.0
C2416 C 0.31759 0.56273 0.36818 0.0
C2417 C 0.30057 0.54293 0.35017 0.0
H2418 H 0.22751 0.45803 0.8307 0.0
H2419 H 0.16814 0.46591 0.90477 0.0
H2420 H 0.19813 0.50655 0.92392 0.0
H2421 H 0.2952 0.4752 0.87055 0.0
H2422 H 0.31178 0.49648 0.8414 0.0
H2423 H 0.28582 0.4677 0.8329 0.0
H2424 H 0.25075 0.50439 0.80503 0.0
H2425 H 0.28031 0.52985 0.81055 0.0
H2426 H 0.24341 0.53923 0.82204 0.0
H2427 H 0.23619 0.54616 0.9372 0.0
H2428 H 0.27677 0.58204 0.94202 0.0
H2429 H 0.31315 0.55282 0.85937 0.0
C2430 C 0.22054 0.46845 0.8508 0.0
C2431 C 0.19449 0.45807 0.86579 0.0
C2432 C 0.18719 0.47281 0.89226 0.0
C2433 C 0.20443 0.49622 0.90355 0.0
C2434 C 0.22958 0.5058 0.88837 0.0
C2435 C 0.23763 0.49248 0.86244 0.0
C2436 C 0.26579 0.50754 0.85053 0.0
C2437 C 0.29115 0.4854 0.84874 0.0
C2438 C 0.25966 0.52115 0.82029 0.0
C2439 C 0.27228 0.53139 0.87375 0.0
C2440 C 0.25101 0.52956 0.89548 0.0
C2441 C 0.25254 0.54795 0.91997 0.0
C2442 C 0.27589 0.5686 0.92252 0.0
C2443 C 0.2981 0.57186 0.90073 0.0
C2444 C 0.29605 0.55245 0.87591 0.0
H2445 H 0.64538 0.69027 0.03567 0.0
H2446 H 0.60724 0.74312 0.10443 0.0
H2447 H 0.61373 0.78762 0.07332 0.0
H2448 H 0.70047 0.74331 0.01207 0.0
H2449 H 0.6975 0.7357 0.97352 0.0
H2450 H 0.68943 0.70729 1.00002 0.0
H2451 H 0.63785 0.69919 0.97856 0.0
H2452 H 0.64485 0.72685 0.95104 0.0
H2453 H 0.61319 0.7298 0.97463 0.0
H2454 H 0.6219 0.82722 0.03193 0.0
H2455 H 0.63452 0.85707 0.98796 0.0
H2456 H 0.6708 0.77999 0.94655 0.0
C2457 C 0.63868 0.71127 0.04435 0.0
C2458 C 0.62595 0.71286 0.07304 0.0
C2459 C 0.61724 0.74097 0.08296 0.0
C2460 C 0.62077 0.76651 0.0652 0.0
C2461 C 0.6332 0.76419 0.03708 0.0
C2462 C 0.64227 0.73718 0.02684 0.0
C2463 C 0.65514 0.74066 0.99586 0.0
C2464 C 0.68756 0.73115 0.99533 0.0
C2465 C 0.63669 0.72308 0.97372 0.0
C2466 C 0.65231 0.77378 0.99027 0.0
C2467 C 0.63907 0.78689 0.01416 0.0
C2468 C 0.63268 0.81699 0.01345 0.0
C2469 C 0.64 0.83398 0.98819 0.0
C2470 C 0.65444 0.82153 0.96357 0.0
C2471 C 0.66056 0.79074 0.96501 0.0
H2472 H 0.54808 0.33083 0.28678 0.0
H2473 H 0.5479 0.41235 0.33518 0.0
H2474 H 0.51071 0.43232 0.30132 0.0
H2475 H 0.53927 0.3637 0.21435 0.0
H2476 H 0.5154 0.33524 0.20054 0.0
H2477 H 0.54177 0.32693 0.22885 0.0
H2478 H 0.49987 0.30666 0.26168 0.0
H2479 H 0.4734 0.31501 0.23346 0.0
H2480 H 0.46864 0.32952 0.26986 0.0
H2481 H 0.47463 0.44554 0.25878 0.0
H2482 H 0.44174 0.44878 0.21555 0.0
H2483 H 0.46086 0.35822 0.19487 0.0
C2484 C 0.54 0.35278 0.29061 0.0
C2485 C 0.55145 0.36966 0.31471 0.0
C2486 C 0.53994 0.39845 0.31781 0.0
C2487 C 0.51862 0.41018 0.29826 0.0
C2488 C 0.5081 0.39319 0.27492 0.0
C2489 C 0.51825 0.36489 0.27115 0.0
C2490 C 0.50321 0.35135 0.24406 0.0
C2491 C 0.52629 0.34385 0.22056 0.0
C2492 C 0.48521 0.32401 0.25279 0.0
C2493 C 0.48293 0.37623 0.23336 0.0
C2494 C 0.48653 0.40035 0.25131 0.0
C2495 C 0.47156 0.42652 0.24499 0.0
C2496 C 0.45272 0.42823 0.22013 0.0
C2497 C 0.44775 0.40385 0.20148 0.0
C2498 C 0.46329 0.37734 0.20868 0.0
H2499 H 0.83748 0.22362 0.45564 0.0
H2500 H 0.90688 0.16214 0.47675 0.0
H2501 H 0.92364 0.19469 0.51666 0.0
H2502 H 0.8805 0.28946 0.46942 0.0
H2503 H 0.85036 0.30985 0.48487 0.0
H2504 H 0.84321 0.2815 0.45837 0.0
H2505 H 0.80779 0.25584 0.49495 0.0
H2506 H 0.81487 0.28415 0.52151 0.0
H2507 H 0.82077 0.2462 0.53107 0.0
H2508 H 0.935 0.23622 0.5538 0.0
H2509 H 0.9382 0.28061 0.58488 0.0
H2510 H 0.8605 0.31544 0.54254 0.0
C2511 C 0.85591 0.21666 0.46894 0.0
C2512 C 0.87062 0.18963 0.46259 0.0
C2513 C 0.89503 0.18229 0.48061 0.0
C2514 C 0.90477 0.20085 0.50357 0.0
C2515 C 0.8901 0.22728 0.50893 0.0
C2516 C 0.86602 0.23513 0.49217 0.0
C2517 C 0.85458 0.26515 0.5022 0.0
C2518 C 0.85732 0.28783 0.47723 0.0
C2519 C 0.8226 0.26268 0.51308 0.0
C2520 C 0.87556 0.27272 0.52747 0.0
C2521 C 0.89613 0.25067 0.53069 0.0
C2522 C 0.91867 0.25329 0.55153 0.0
C2523 C 0.92032 0.27872 0.5693 0.0
C2524 C 0.89934 0.30158 0.56705 0.0
C2525 C 0.87656 0.29822 0.54564 0.0
H2526 H 0.96138 0.60474 0.81727 0.0
H2527 H 0.97448 0.69893 0.8219 0.0
H2528 H 0.01307 0.69585 0.784 0.0
H2529 H 0.03999 0.58567 0.80271 0.0
H2530 H 0.03138 0.55697 0.77703 0.0
H2531 H 1.00588 0.56548 0.80613 0.0
H2532 H 0.96471 0.5736 0.76802 0.0
H2533 H 0.99006 0.5652 0.7388 0.0
H2534 H 0.97047 0.5995 0.73849 0.0
H2535 H 0.05023 0.6837 0.74452 0.0
H2536 H 0.08136 0.66397 0.70537 0.0
H2537 H 0.0455 0.57693 0.72141 0.0
C2538 C 0.97284 0.62465 0.81082 0.0
C2539 C 0.96477 0.65224 0.82368 0.0
C2540 C 0.98003 0.67755 0.81331 0.0
C2541 C 1.00216 0.67601 0.79148 0.0
C2542 C 0.00932 0.6489 0.77919 0.0
C2543 C 0.9951 0.62355 0.78834 0.0
C2544 C 1.00664 0.59752 0.77015 0.0
C2545 C 0.02187 0.57506 0.7902 0.0
C2546 C 0.98146 0.5831 0.75284 0.0
C2547 C 0.02914 0.61227 0.74929 0.0
C2548 C 0.0304 0.64192 0.75544 0.0
C2549 C 0.04942 0.66046 0.7398 0.0
C2550 C 0.06749 0.64882 0.71749 0.0
C2551 C 0.067 0.61857 0.70992 0.0
C2552 C 0.04704 0.60009 0.7263 0.0
H2553 H 0.57895 0.27617 0.44713 0.0
H2554 H 0.66296 0.32191 0.4449 0.0
H2555 H 0.68188 0.28865 0.48315 0.0
H2556 H 0.57594 0.25875 0.52446 0.0
H2557 H 0.56207 0.22182 0.52052 0.0
H2558 H 0.55428 0.24904 0.49282 0.0
H2559 H 0.57675 0.21566 0.45311 0.0
H2560 H 0.5845 0.18822 0.48065 0.0
H2561 H 0.61374 0.20222 0.45764 0.0
H2562 H 0.69222 0.25131 0.52355 0.0
H2563 H 0.69427 0.21203 0.56036 0.0
H2564 H 0.60511 0.18556 0.53791 0.0
C2565 C 0.60138 0.27913 0.45458 0.0
C2566 C 0.61931 0.3023 0.44228 0.0
C2567 C 0.64859 0.30465 0.45309 0.0
C2568 C 0.65962 0.28573 0.47519 0.0
C2569 C 0.64167 0.26334 0.48665 0.0
C2570 C 0.61328 0.25951 0.47643 0.0
C2571 C 0.59946 0.2325 0.49196 0.0
C2572 C 0.57126 0.24104 0.50843 0.0
C2573 C 0.59321 0.20821 0.46951 0.0
C2574 C 0.62385 0.22278 0.51345 0.0
C2575 C 0.64805 0.24095 0.50955 0.0
C2576 C 0.67339 0.23691 0.52642 0.0
C2577 C 0.67432 0.21409 0.54756 0.0
C2578 C 0.65015 0.19461 0.55271 0.0
C2579 C 0.62437 0.19937 0.53493 0.0
H2580 H 0.9646 0.4021 0.69093 0.0
H2581 H 0.97359 0.30742 0.688 0.0
H2582 H 0.01312 0.31008 0.72477 0.0
H2583 H 0.04301 0.41991 0.70116 0.0
H2584 H 0.03668 0.44906 0.72696 0.0
H2585 H 0.00921 0.44049 0.69977 0.0
H2586 H 0.9703 0.43331 0.74064 0.0
H2587 H 0.99765 0.44189 0.76794 0.0
H2588 H 0.9774 0.40783 0.77013 0.0
H2589 H 0.05051 0.32193 0.76448 0.0
H2590 H 0.08413 0.34232 0.80177 0.0
H2591 H 0.05487 0.42992 0.78035 0.0
C2592 C 0.97523 0.38193 0.69758 0.0
C2593 C 0.96568 0.35439 0.68554 0.0
C2594 C 0.98012 0.3288 0.69604 0.0
C2595 C 1.00279 0.33008 0.71725 0.0
C2596 C 0.01146 0.35721 0.72866 0.0
C2597 C 0.99818 0.38279 0.71924 0.0
C2598 C 0.01154 0.40892 0.73605 0.0
C2599 C 0.02597 0.43091 0.71471 0.0
C2600 C 0.98781 0.42388 0.75479 0.0
C2601 C 0.03481 0.3941 0.75568 0.0
C2602 C 0.03393 0.36417 0.75111 0.0
C2603 C 0.05196 0.34544 0.76741 0.0
C2604 C 0.07161 0.35729 0.78838 0.0
C2605 C 0.07417 0.38788 0.79334 0.0
C2606 C 0.05477 0.40647 0.77674 0.0
H2607 H 0.89343 0.83994 0.02447 0.0
H2608 H 0.83854 0.78884 0.08357 0.0
H2609 H 0.84394 0.7457 0.05176 0.0
H2610 H 0.86528 0.80698 0.95635 0.0
H2611 H 0.90041 0.80642 0.93787 0.0
H2612 H 0.89314 0.83377 0.96536 0.0
H2613 H 0.93936 0.81752 0.99406 0.0
H2614 H 0.94682 0.79019 0.96662 0.0
H2615 H 0.94323 0.77958 1.00462 0.0
H2616 H 0.85184 0.70774 0.01175 0.0
H2617 H 0.86644 0.67695 0.96978 0.0
H2618 H 0.91821 0.74915 0.9345 0.0
C2619 C 0.88225 0.81979 0.03059 0.0
C2620 C 0.86449 0.81869 0.05677 0.0
C2621 C 0.85113 0.79122 0.06358 0.0
C2622 C 0.85422 0.76628 0.0455 0.0
C2623 C 0.87065 0.76831 0.01963 0.0
C2624 C 0.88476 0.79428 0.01215 0.0
C2625 C 0.90145 0.7898 0.98299 0.0
C2626 C 0.88936 0.81049 0.95923 0.0
C2627 C 0.93469 0.79456 0.98733 0.0
C2628 C 0.8945 0.7575 0.97544 0.0
C2629 C 0.8764 0.74579 0.99698 0.0
C2630 C 0.8661 0.71684 0.99492 0.0
C2631 C 0.87442 0.69938 0.97068 0.0
C2632 C 0.89333 0.71014 0.94818 0.0
C2633 C 0.9036 0.7399 0.95094 0.0
H2634 H 0.56061 0.60921 0.2004 0.0
H2635 H 0.55233 0.70374 0.19626 0.0
H2636 H 0.51251 0.70144 0.23328 0.0
H2637 H 0.4807 0.59355 0.21015 0.0
H2638 H 0.48612 0.56341 0.23527 0.0
H2639 H 0.5138 0.57198 0.20806 0.0
H2640 H 0.55294 0.57658 0.24879 0.0
H2641 H 0.52539 0.56809 0.27614 0.0
H2642 H 0.54677 0.60141 0.27882 0.0
H2643 H 0.47363 0.68939 0.27284 0.0
H2644 H 0.43947 0.66909 0.31 0.0
H2645 H 0.46928 0.58146 0.2903 0.0
C2646 C 0.55018 0.62946 0.20694 0.0
C2647 C 0.56048 0.65701 0.1949 0.0
C2648 C 0.54586 0.68253 0.20496 0.0
C2649 C 0.52282 0.68136 0.22609 0.0
C2650 C 0.51363 0.65426 0.23773 0.0
C2651 C 0.52677 0.62864 0.22843 0.0
C2652 C 0.51256 0.60246 0.24503 0.0
C2653 C 0.4974 0.5816 0.22334 0.0
C2654 C 0.5358 0.58616 0.26327 0.0
C2655 C 0.48962 0.61731 0.26513 0.0
C2656 C 0.49074 0.64727 0.26027 0.0
C2657 C 0.47235 0.66591 0.27624 0.0
C2658 C 0.45244 0.65406 0.29731 0.0
C2659 C 0.45 0.62349 0.30314 0.0
C2660 C 0.46952 0.60492 0.28655 0.0
H2661 H 0.7913 0.96215 0.67823 0.0
H2662 H 0.83021 0.9556 0.59181 0.0
H2663 H 0.79913 0.99538 0.57412 0.0
H2664 H 0.71655 0.97658 0.65086 0.0
H2665 H 0.70685 1.00216 0.67926 0.0
H2666 H 0.73342 0.97378 0.68651 0.0
H2667 H 0.77133 0.01303 0.70243 0.0
H2668 H 0.74484 0.04149 0.69516 0.0
H2669 H 0.7805 0.0427 0.67769 0.0
H2670 H 0.76204 0.03515 0.56369 0.0
H2671 H 0.7222 0.07155 0.56165 0.0
H2672 H 0.70346 0.05595 0.65377 0.0
C2673 C 0.79364 0.96932 0.65568 0.0
C2674 C 0.81509 0.95562 0.63688 0.0
C2675 C 0.81593 0.96588 0.60739 0.0
C2676 C 0.79765 0.98856 0.59685 0.0
C2677 C 0.77736 1.00161 0.61567 0.0
C2678 C 0.77499 0.99241 0.64452 0.0
C2679 C 0.75018 0.01008 0.65943 0.0
C2680 C 0.72528 0.98942 0.66964 0.0
C2681 C 0.76245 0.02788 0.68522 0.0
C2682 C 0.73944 0.0306 0.63459 0.0
C2683 C 0.75555 0.02492 0.60953 0.0
C2684 C 0.74954 0.03985 0.58334 0.0
C2685 C 0.72665 0.06079 0.5824 0.0
C2686 C 0.70941 0.06772 0.60746 0.0
C2687 C 0.71632 0.05216 0.63415 0.0
H2688 H 0.0819 0.53212 0.19338 0.0
H2689 H 0.13807 0.59409 0.23876 0.0
H2690 H 0.1466 0.55722 0.2778 0.0
H2691 H 0.04614 0.50181 0.25534 0.0
H2692 H 0.04528 0.4649 0.24129 0.0
H2693 H 0.04551 0.4956 0.21631 0.0
H2694 H 0.09192 0.47492 0.19063 0.0
H2695 H 0.09189 0.44412 0.21561 0.0
H2696 H 0.12423 0.46697 0.21209 0.0
H2697 H 0.14914 0.51251 0.31155 0.0
H2698 H 0.14155 0.46682 0.33995 0.0
H2699 H 0.08015 0.43537 0.2744 0.0
C2700 C 0.09586 0.5382 0.21163 0.0
C2701 C 0.10963 0.56622 0.21275 0.0
C2702 C 0.12798 0.57279 0.23686 0.0
C2703 C 0.13274 0.55191 0.25927 0.0
C2704 C 0.11902 0.52443 0.25717 0.0
C2705 C 0.10079 0.51767 0.234 0.0
C2706 C 0.08812 0.48687 0.237 0.0
C2707 C 0.05425 0.48735 0.23754 0.0
C2708 C 0.09972 0.46706 0.21236 0.0
C2709 C 0.10074 0.47775 0.26639 0.0
C2710 C 0.11933 0.49937 0.27713 0.0
C2711 C 0.13453 0.49561 0.30335 0.0
C2712 C 0.13018 0.46947 0.31923 0.0
C2713 C 0.11026 0.44756 0.30936 0.0
C2714 C 0.09543 0.45175 0.28248 0.0
H2715 H 0.70803 0.892 0.46116 0.0
H2716 H 0.67188 0.80629 0.48322 0.0
H2717 H 0.71334 0.79736 0.51634 0.0
H2718 H 0.78149 0.87412 0.46025 0.0
H2719 H 0.79573 0.9062 0.47838 0.0
H2720 H 0.76143 0.90816 0.45889 0.0
H2721 H 0.73556 0.92685 0.50587 0.0
H2722 H 0.77011 0.92504 0.52527 0.0
H2723 H 0.73822 0.90581 0.53935 0.0
H2724 H 0.76276 0.79177 0.53507 0.0
H2725 H 0.81119 0.79555 0.55702 0.0
H2726 H 0.81522 0.88831 0.53387 0.0
C2727 C 0.70806 0.87211 0.47427 0.0
C2728 C 0.68658 0.84973 0.46951 0.0
C2729 C 0.68788 0.8237 0.4865 0.0
C2730 C 0.71159 0.81828 0.50516 0.0
C2731 C 0.73352 0.83953 0.50757 0.0
C2732 C 0.73145 0.8666 0.49407 0.0
C2733 C 0.75875 0.88514 0.50118 0.0
C2734 C 0.77533 0.8939 0.47299 0.0
C2735 C 0.75015 0.91233 0.51899 0.0
C2736 C 0.77673 0.8636 0.51971 0.0
C2737 C 0.76169 0.83728 0.52207 0.0
C2738 C 0.77427 0.81262 0.53463 0.0
C2739 C 0.80226 0.8151 0.54688 0.0
C2740 C 0.81746 0.84246 0.54796 0.0
C2741 C 0.80453 0.86708 0.53358 0.0
H2742 H 0.44447 0.4587 0.71789 0.0
H2743 H 0.35261 0.43307 0.72474 0.0
H2744 H 0.34475 0.47269 0.76107 0.0
H2745 H 0.45925 0.48227 0.79024 0.0
H2746 H 0.48049 0.51379 0.77856 0.0
H2747 H 0.47881 0.48171 0.75578 0.0
H2748 H 0.46025 0.51365 0.71248 0.0
H2749 H 0.46148 0.54583 0.73525 0.0
H2750 H 0.42771 0.53563 0.71716 0.0
H2751 H 0.34776 0.51633 0.79612 0.0
H2752 H 0.3605 0.55849 0.82706 0.0
H2753 H 0.44958 0.55861 0.79243 0.0
C2754 C 0.42269 0.46069 0.72739 0.0
C2755 C 0.39924 0.44158 0.71924 0.0
C2756 C 0.37109 0.44624 0.73165 0.0
C2757 C 0.36643 0.46913 0.75185 0.0
C2758 C 0.38999 0.48784 0.75865 0.0
C2759 C 0.41749 0.48394 0.7465 0.0
C2760 C 0.4387 0.50821 0.75529 0.0
C2761 C 0.46591 0.49574 0.77091 0.0
C2762 C 0.44756 0.52692 0.72845 0.0
C2763 C 0.41947 0.52557 0.77597 0.0
C2764 C 0.39127 0.51377 0.77717 0.0
C2765 C 0.36964 0.52584 0.79496 0.0
C2766 C 0.37709 0.55015 0.81222 0.0
C2767 C 0.40587 0.56262 0.81156 0.0
C2768 C 0.4273 0.55002 0.79308 0.0
H2769 H 0.80431 0.11582 0.96299 0.0
H2770 H 0.83875 0.20306 0.98062 0.0
H2771 H 0.79772 0.21205 0.01419 0.0
H2772 H 0.72953 0.13011 0.96558 0.0
H2773 H 0.71738 0.09881 0.98681 0.0
H2774 H 0.75068 0.09675 0.96534 0.0
H2775 H 0.77994 0.08178 0.01129 0.0
H2776 H 0.74691 0.08362 0.0332 0.0
H2777 H 0.77899 0.10467 0.04341 0.0
H2778 H 0.74829 0.21732 0.03254 0.0
H2779 H 0.70151 0.21311 0.05771 0.0
H2780 H 0.70053 0.11874 0.04266 0.0
C2781 C 0.80397 0.13616 0.97516 0.0
C2782 C 0.82486 0.1589 0.96896 0.0
C2783 C 0.82319 0.1854 0.98488 0.0
C2784 C 0.79971 0.19087 1.00379 0.0
C2785 C 0.77847 0.16914 0.00778 0.0
C2786 C 0.78103 0.14163 0.99564 0.0
C2787 C 0.75495 0.12235 0.00566 0.0
C2788 C 0.73708 0.11135 0.97927 0.0
C2789 C 0.76585 0.09658 0.02453 0.0
C2790 C 0.73702 0.14408 0.02399 0.0
C2791 C 0.75098 0.17106 0.02355 0.0
C2792 C 0.73787 0.196 0.03467 0.0
C2793 C 0.71085 0.1932 0.04886 0.0
C2794 C 0.69738 0.16533 0.05377 0.0
C2795 C 0.7103 0.14032 0.04011 0.0
H2796 H 0.21354 0.13466 0.55402 0.0
H2797 H 0.22127 0.0434 0.58093 0.0
H2798 H 0.25407 0.03422 0.53936 0.0
H2799 H 0.2144 0.12423 0.47738 0.0
H2800 H 0.23813 0.15464 0.46777 0.0
H2801 H 0.21607 0.15607 0.50064 0.0
H2802 H 0.26259 0.16552 0.53181 0.0
H2803 H 0.28471 0.16482 0.49895 0.0
H2804 H 0.2933 0.14076 0.52922 0.0
H2805 H 0.27699 0.03151 0.49148 0.0
H2806 H 0.30606 0.03808 0.44689 0.0
H2807 H 0.29343 0.1325 0.45143 0.0
C2808 C 0.22304 0.11306 0.55174 0.0
C2809 C 0.21437 0.08961 0.57084 0.0
C2810 C 0.22711 0.06163 0.56667 0.0
C2811 C 0.24567 0.05609 0.5429 0.0
C2812 C 0.2522 0.07889 0.52353 0.0
C2813 C 0.2426 0.10717 0.52815 0.0
C2814 C 0.25456 0.12741 0.50382 0.0
C2815 C 0.22927 0.14142 0.48638 0.0
C2816 C 0.27502 0.15102 0.51672 0.0
C2817 C 0.27169 0.10568 0.48479 0.0
C2818 C 0.26894 0.0778 0.49652 0.0
C2819 C 0.28024 0.05333 0.48254 0.0
C2820 C 0.29659 0.05738 0.45689 0.0
C2821 C 0.30286 0.08584 0.44561 0.0
C2822 C 0.28925 0.11042 0.4593 0.0
H2823 H 0.13034 0.99216 0.82944 0.0
H2824 H 0.1925 0.92623 0.80046 0.0
H2825 H 0.19439 0.9489 0.75171 0.0
H2826 H 0.09128 1.00143 0.75935 0.0
H2827 H 0.08848 0.04076 0.76218 0.0
H2828 H 0.08962 0.01843 0.79492 0.0
H2829 H 0.13443 0.0481 0.8137 0.0
H2830 H 0.13321 0.07073 0.78123 0.0
H2831 H 0.16667 0.05185 0.79076 0.0
H2832 H 0.19235 0.97908 0.70659 0.0
H2833 H 0.18954 0.01839 0.66913 0.0
H2834 H 0.12979 0.06668 0.72486 0.0
C2835 C 0.14421 0.98254 0.81276 0.0
C2836 C 0.16142 0.95735 0.81915 0.0
C2837 C 0.17939 0.94563 0.79655 0.0
C2838 C 0.18046 0.95822 0.76851 0.0
C2839 C 0.16361 0.98297 0.7629 0.0
C2840 C 0.14608 0.99538 0.78435 0.0
C2841 C 0.13214 0.02348 0.77259 0.0
C2842 C 0.09837 0.02086 0.77224 0.0
C2843 C 0.14222 0.05012 0.79064 0.0
C2844 C 0.14467 0.02468 0.74144 0.0
C2845 C 0.16251 1.00081 0.73636 0.0
C2846 C 0.17805 0.99766 0.71009 0.0
C2847 C 0.17614 0.01993 0.68875 0.0
C2848 C 0.15861 0.04496 0.69352 0.0
C2849 C 0.14231 0.04711 0.72008 0.0
H2850 H 0.21194 0.87077 0.95532 0.0
H2851 H 0.20524 0.96551 0.94551 0.0
H2852 H 0.23777 0.97231 0.98734 0.0
H2853 H 0.2173 0.86592 0.03301 0.0
H2854 H 0.24636 0.83913 0.03426 0.0
H2855 H 0.22217 0.84068 1.00308 0.0
H2856 H 0.2677 0.84649 0.96899 0.0
H2857 H 0.29162 0.84515 1.0005 0.0
H2858 H 0.29357 0.87587 0.97551 0.0
H2859 H 0.26183 0.97036 0.03459 0.0
H2860 H 0.2948 0.96146 0.07574 0.0
H2861 H 0.29805 0.86879 0.05362 0.0
C2862 C 0.21804 0.89289 0.96146 0.0
C2863 C 0.20492 0.91762 0.94723 0.0
C2864 C 0.21398 0.94609 0.95612 0.0
C2865 C 0.23246 0.95032 0.98015 0.0
C2866 C 0.24321 0.92591 0.99488 0.0
C2867 C 0.23794 0.89774 0.98518 0.0
C2868 C 0.25503 0.87601 1.00456 0.0
C2869 C 0.23394 0.85415 0.01963 0.0
C2870 C 0.27837 0.85992 0.9863 0.0
C2871 C 0.26952 0.89659 0.02702 0.0
C2872 C 0.26131 0.92511 0.02101 0.0
C2873 C 0.26937 0.94829 0.03897 0.0
C2874 C 0.28808 0.94285 0.06261 0.0
C2875 C 0.29993 0.91457 0.06797 0.0
C2876 C 0.28961 0.89073 0.05035 0.0
H2877 H 0.32384 0.01966 0.32163 0.0
H2878 H 0.41272 0.05415 0.31523 0.0
H2879 H 0.4222 0.02178 0.27288 0.0
H2880 H 0.34066 0.94317 0.29473 0.0
H2881 H 0.30597 0.94148 0.27565 0.0
H2882 H 0.30911 0.96226 0.30904 0.0
H2883 H 0.28936 0.0079 0.28144 0.0
H2884 H 0.28728 0.98774 0.24772 0.0
H2885 H 0.30858 0.02119 0.24932 0.0
H2886 H 0.4197 0.98859 0.22769 0.0
H2887 H 0.40689 0.95596 0.18671 0.0
H2888 H 0.31736 0.94921 0.21926 0.0
C2889 C 0.34576 0.01938 0.31218 0.0
C2890 C 0.36782 0.03887 0.32233 0.0
C2891 C 0.39591 0.03856 0.30875 0.0
C2892 C 0.40127 0.02061 0.28425 0.0
C2893 C 0.37829 1.00311 0.27363 0.0
C2894 C 0.35125 1.002 0.28758 0.0
C2895 C 0.32939 0.98339 0.27068 0.0
C2896 C 0.32077 0.95595 0.28858 0.0
C2897 C 0.30205 1.00114 0.26177 0.0
C2898 C 0.34779 0.97532 0.24423 0.0
C2899 C 0.37612 0.98629 0.24661 0.0
C2900 C 0.3974 0.98042 0.22539 0.0
C2901 C 0.38968 0.96242 0.20159 0.0
C2902 C 0.36067 0.95117 0.19842 0.0
C2903 C 0.33951 0.9581 0.22018 0.0
H2904 H 0.45423 0.28104 0.06554 0.0
H2905 H 0.44518 0.30177 0.15777 0.0
H2906 H 0.48795 0.27038 0.16896 0.0
H2907 H 0.48434 0.20686 0.07112 0.0
H2908 H 0.51 0.21343 0.04155 0.0
H2909 H 0.47529 0.23236 0.04219 0.0
H2910 H 0.50328 0.28199 0.03862 0.0
H2911 H 0.53811 0.26328 0.03883 0.0
H2912 H 0.53055 0.29095 0.06588 0.0
H2913 H 0.53387 0.23767 0.16911 0.0
H2914 H 0.57734 0.20744 0.15852 0.0
H2915 H 0.56157 0.21713 0.0653 0.0
C2916 C 0.46047 0.27815 0.08829 0.0
C2917 C 0.44513 0.29279 0.11099 0.0
C2918 C 0.45516 0.28942 0.14022 0.0
C2919 C 0.47996 0.2721 0.14668 0.0
C2920 C 0.49521 0.25912 0.12352 0.0
C2921 C 0.48583 0.26213 0.09489 0.0
C2922 C 0.50772 0.24903 0.07355 0.0
C2923 C 0.49349 0.22392 0.05608 0.0
C2924 C 0.52067 0.27273 0.05301 0.0
C2925 C 0.53083 0.23774 0.09459 0.0
C2926 C 0.52315 0.24351 0.12334 0.0
C2927 C 0.54038 0.23373 0.14663 0.0
C2928 C 0.56562 0.21712 0.14037 0.0
C2929 C 0.5742 0.21115 0.11105 0.0
C2930 C 0.55649 0.22206 0.08795 0.0
H2931 H 0.96263 0.2064 0.87669 0.0
H2932 H 0.93695 0.21923 0.96756 0.0
H2933 H 0.97746 0.25443 0.97367 0.0
H2934 H 0.03981 0.21002 0.88734 0.0
H2935 H 0.0487 0.23082 0.85474 0.0
H2936 H 0.01624 0.20785 0.85566 0.0
H2937 H 0.9844 0.25221 0.84146 0.0
H2938 H 0.01647 0.27561 0.84065 0.0
H2939 H 0.98541 0.28494 0.86346 0.0
H2940 H 0.0243 0.27974 0.97379 0.0
H2941 H 0.06871 0.30836 0.96489 0.0
H2942 H 0.06428 0.28769 0.87185 0.0
C2943 C 0.96497 0.21746 0.89752 0.0
C2944 C 0.94649 0.20983 0.9218 0.0
C2945 C 0.95071 0.22444 0.94878 0.0
C2946 C 0.97385 0.24438 0.95252 0.0
C2947 C 0.99262 0.25007 0.92898 0.0
C2948 C 0.98808 0.23808 0.90164 0.0
C2949 C 0.01219 0.24874 0.8804 0.0
C2950 C 0.0303 0.22281 0.86885 0.0
C2951 C 0.99881 0.26646 0.855 0.0
C2952 C 0.03087 0.26825 0.90042 0.0
C2953 C 0.01922 0.26766 0.92844 0.0
C2954 C 0.03313 0.28127 0.95177 0.0
C2955 C 0.05872 0.29744 0.94633 0.0
C2956 C 0.07009 0.30126 0.91747 0.0
C2957 C 0.05627 0.28561 0.89415 0.0
H2958 H 0.98438 0.81509 0.19666 0.0
H2959 H 0.94666 0.80779 0.10976 0.0
H2960 H 0.97557 0.76295 0.10107 0.0
H2961 H 0.05887 0.78713 0.17391 0.0
H2962 H 0.06438 0.76909 0.20871 0.0
H2963 H 0.04273 0.80206 0.20671 0.0
H2964 H 0.99933 0.77465 0.23185 0.0
H2965 H 0.02052 0.74142 0.23333 0.0
H2966 H 0.98503 0.7415 0.21565 0.0
H2967 H 1.00579 0.71608 0.10347 0.0
H2968 H 0.03948 0.67527 0.11419 0.0
H2969 H 0.05714 0.71226 0.19992 0.0
C2970 C 0.98293 0.80452 0.1755 0.0
C2971 C 0.96372 0.81547 0.15362 0.0
C2972 C 0.96194 0.80053 0.12648 0.0
C2973 C 0.97799 0.77471 0.12149 0.0
C2974 C 0.99605 0.76403 0.14379 0.0
C2975 C 0.9992 0.77888 0.16998 0.0
C2976 C 0.02027 0.7628 0.19024 0.0
C2977 C 0.04822 0.78136 0.19519 0.0
C2978 C 1.00537 0.7546 0.21949 0.0
C2979 C 0.02705 0.73573 0.17211 0.0
C2980 C 0.01317 0.73704 0.14523 0.0
C2981 C 0.01674 0.71489 0.1245 0.0
C2982 C 0.0357 0.69137 0.131 0.0
C2983 C 0.05063 0.68959 0.15825 0.0
C2984 C 0.04567 0.71215 0.17913 0.0
H2985 H 0.55626 0.80054 0.37568 0.0
H2986 H 0.58409 0.79007 0.46618 0.0
H2987 H 0.54346 0.75539 0.47487 0.0
H2988 H 0.47948 0.79842 0.38856 0.0
H2989 H 0.47081 0.77751 0.35624 0.0
H2990 H 0.50344 0.79988 0.35695 0.0
H2991 H 0.53355 0.75364 0.34313 0.0
H2992 H 0.50055 0.73145 0.34384 0.0
H2993 H 0.5316 0.72155 0.36635 0.0
H2994 H 0.49629 0.72953 0.47711 0.0
H2995 H 0.45026 0.70259 0.47039 0.0
H2996 H 0.45282 0.72244 0.37708 0.0
C2997 C 0.55441 0.79008 0.39698 0.0
C2998 C 0.57353 0.7983 0.42034 0.0
C2999 C 0.56987 0.78441 0.44799 0.0
C3000 C 0.54668 0.76471 0.45321 0.0
C3001 C 0.52729 0.75843 0.43047 0.0
C3002 C 0.5313 0.76972 0.40258 0.0
C3003 C 0.50647 0.75913 0.38251 0.0
C3004 C 0.48901 0.78531 0.37039 0.0
C3005 C 0.51878 0.74031 0.35748 0.0
C3006 C 0.48776 0.74071 0.40383 0.0
C3007 C 0.50023 0.74134 0.4314 0.0
C3008 C 0.48662 0.72824 0.45548 0.0
C3009 C 0.46008 0.71309 0.45136 0.0
C3010 C 0.44724 0.71015 0.42314 0.0
C3011 C 0.46145 0.72445 0.39899 0.0
H3012 H 0.96147 0.79258 0.55659 0.0
H3013 H 0.94764 0.81283 0.64845 0.0
H3014 H 0.99015 0.78232 0.66175 0.0
H3015 H 0.98755 0.71694 0.56748 0.0
H3016 H 0.01424 0.7202 0.5383 0.0
H3017 H 0.98067 0.74103 0.53679 0.0
H3018 H 0.01151 0.78878 0.53103 0.0
H3019 H 0.04517 0.76817 0.5333 0.0
H3020 H 0.03864 0.79787 0.5584 0.0
H3021 H 0.03659 0.75076 0.66483 0.0
H3022 H 0.07944 0.71839 0.65725 0.0
H3023 H 0.06509 0.72272 0.5632 0.0
C3024 C 0.96685 0.79001 0.57958 0.0
C3025 C 0.95028 0.80447 0.60145 0.0
C3026 C 0.95885 0.80104 0.63124 0.0
C3027 C 0.98345 0.7841 0.63905 0.0
C3028 C 0.9997 0.77084 0.61685 0.0
C3029 C 0.99154 0.77341 0.58774 0.0
C3030 C 0.01324 0.75786 0.56797 0.0
C3031 C 0.99802 0.7325 0.55168 0.0
C3032 C 0.02801 0.77947 0.5464 0.0
C3033 C 0.03509 0.74653 0.59039 0.0
C3034 C 0.0269 0.75403 0.61852 0.0
C3035 C 0.04327 0.74494 0.64282 0.0
C3036 C 0.06795 0.72684 0.63828 0.0
C3037 C 0.07633 0.71824 0.6096 0.0
C3038 C 0.05989 0.7291 0.58545 0.0
H3039 H 0.06348 0.29357 0.39059 0.0
H3040 H 0.04465 0.33182 0.3054 0.0
H3041 H 1.00625 0.29454 0.29729 0.0
H3042 H 0.05575 0.21983 0.3701 0.0
H3043 H 0.03727 0.20664 0.40266 0.0
H3044 H 0.06121 0.23822 0.40459 0.0
H3045 H 0.01909 0.26907 0.42646 0.0
H3046 H 0.99516 0.23739 0.4252 0.0
H3047 H 0.98432 0.27114 0.40755 0.0
H3048 H 0.97715 0.25006 0.29377 0.0
H3049 H 0.94891 0.20494 0.29842 0.0
H3050 H 0.98021 0.1938 0.38793 0.0
C3051 C 0.05033 0.29472 0.37084 0.0
C3052 C 0.05681 0.31603 0.34869 0.0
C3053 C 0.03988 0.31611 0.32271 0.0
C3054 C 0.01814 0.29482 0.31783 0.0
C3055 C 0.01324 0.27337 0.33918 0.0
C3056 C 0.02808 0.27337 0.36558 0.0
C3057 C 0.01844 0.24675 0.38407 0.0
C3058 C 0.04474 0.22668 0.39075 0.0
C3059 C 1.00334 0.25668 0.41251 0.0
C3060 C 0.9965 0.23168 0.36346 0.0
C3061 C 0.99451 0.24756 0.33766 0.0
C3062 C 0.97792 0.23777 0.31412 0.0
C3063 C 0.96203 0.21161 0.31706 0.0
C3064 C 0.9618 0.19517 0.34368 0.0
C3065 C 0.97966 0.20547 0.36727 0.0
H3066 H 0.46137 0.71056 0.89391 0.0
H3067 H 0.48622 0.67144 0.81089 0.0
H3068 H 0.52183 0.71118 0.8024 0.0
H3069 H 0.4663 0.78467 0.87247 0.0
H3070 H 0.48358 0.79892 0.90501 0.0
H3071 H 0.46109 0.76626 0.90721 0.0
H3072 H 0.50433 0.73752 0.93013 0.0
H3073 H 0.52678 0.77028 0.92856 0.0
H3074 H 0.53945 0.73699 0.9116 0.0
H3075 H 0.54654 0.75793 0.79735 0.0
H3076 H 0.57277 0.80402 0.80129 0.0
H3077 H 0.54099 0.81427 0.8909 0.0
C3078 C 0.47532 0.70971 0.87465 0.0
C3079 C 0.47098 0.68745 0.85308 0.0
C3080 C 0.48913 0.68784 0.82779 0.0
C3081 C 0.50929 0.71059 0.8226 0.0
C3082 C 0.51188 0.73288 0.84319 0.0
C3083 C 0.49647 0.73233 0.8693 0.0
C3084 C 0.50457 0.7596 0.88738 0.0
C3085 C 0.47725 0.77847 0.89337 0.0
C3086 C 0.51969 0.75056 0.91613 0.0
C3087 C 0.52619 0.77563 0.8668 0.0
C3088 C 0.52914 0.75969 0.84129 0.0
C3089 C 0.54526 0.77017 0.81758 0.0
C3090 C 0.56003 0.79693 0.82015 0.0
C3091 C 0.55984 0.81334 0.84666 0.0
C3092 C 0.54212 0.8025 0.87038 0.0
H3093 H 0.55772 0.04621 0.7112 0.0
H3094 H 0.65062 0.06874 0.70633 0.0
H3095 H 0.66193 0.02877 0.74082 0.0
H3096 H 0.55544 0.0245 0.78802 0.0
H3097 H 0.53057 0.9942 0.78176 0.0
H3098 H 0.52973 0.02585 0.75796 0.0
H3099 H 0.53769 0.99212 0.71309 0.0
H3100 H 0.53909 0.96041 0.73682 0.0
H3101 H 0.56924 0.96829 0.71217 0.0
H3102 H 0.66369 0.98449 0.77436 0.0
H3103 H 0.65526 0.94305 0.8081 0.0
H3104 H 0.56134 0.94732 0.79102 0.0
C3105 C 0.58039 0.04323 0.71787 0.0
C3106 C 0.6031 0.0617 0.70656 0.0
C3107 C 0.63254 0.05612 0.7154 0.0
C3108 C 0.6393 0.03295 0.7347 0.0
C3109 C 0.6165 0.01497 0.74493 0.0
C3110 C 0.58759 0.01994 0.73701 0.0
C3111 C 0.56734 0.99686 0.75067 0.0
C3112 C 0.54442 0.01121 0.77081 0.0
C3113 C 0.55245 0.97833 0.72676 0.0
C3114 C 0.58924 0.9786 0.76808 0.0
C3115 C 0.61755 0.98918 0.76398 0.0
C3116 C 0.64159 0.976 0.77759 0.0
C3117 C 0.63657 0.952 0.79648 0.0
C3118 C 0.60767 0.94111 0.80191 0.0
C3119 C 0.58376 0.95463 0.78712 0.0
H3120 H 0.30443 0.30749 0.04147 0.0
H3121 H 0.31692 0.40058 0.05569 0.0
H3122 H 0.27531 0.41127 0.02248 0.0
H3123 H 0.28197 0.31486 0.96259 0.0
H3124 H 0.25631 0.2847 0.96585 0.0
H3125 H 0.28919 0.28529 0.98793 0.0
H3126 H 0.25683 0.27963 0.03454 0.0
H3127 H 0.22382 0.28004 0.01274 0.0
H3128 H 0.22854 0.30626 0.04185 0.0
H3129 H 0.22802 0.41111 0.99189 0.0
H3130 H 0.18564 0.40081 0.95976 0.0
H3131 H 0.20389 0.30758 0.96599 0.0
C3132 C 0.29903 0.33014 0.03678 0.0
C3133 C 0.31445 0.35325 0.05067 0.0
C3134 C 0.30621 0.38259 0.04448 0.0
C3135 C 0.2822 0.38883 0.02603 0.0
C3136 C 0.26669 0.36547 0.01365 0.0
C3137 C 0.27533 0.33674 0.01813 0.0
C3138 C 0.25488 0.31558 1.0025 0.0
C3139 C 0.27158 0.29914 0.97828 0.0
C3140 C 0.24015 0.29412 0.02422 0.0
C3141 C 0.23265 0.33671 0.98955 0.0
C3142 C 0.23981 0.36541 0.99614 0.0
C3143 C 0.2224 0.38868 0.98648 0.0
C3144 C 0.19791 0.38253 0.96855 0.0
C3145 C 0.19078 0.35329 0.96045 0.0
C3146 C 0.20823 0.33018 0.97188 0.0
H3147 H 0.92346 0.98643 0.18558 0.0
H3148 H 0.89676 0.91421 0.24205 0.0
H3149 H 0.88655 0.94952 0.28203 0.0
H3150 H 0.9623 0.02664 0.23617 0.0
H3151 H 0.95056 0.06211 0.22311 0.0
H3152 H 0.95165 0.03157 0.19838 0.0
H3153 H 0.89671 0.03969 0.18576 0.0
H3154 H 0.89501 0.0701 0.21087 0.0
H3155 H 0.86972 0.03965 0.21478 0.0
H3156 H 0.88318 0.99275 0.31656 0.0
H3157 H 0.89037 0.03877 0.34405 0.0
H3158 H 0.92181 0.0823 0.26525 0.0
C3159 C 0.91535 0.97802 0.20637 0.0
C3160 C 0.91078 0.94762 0.21079 0.0
C3161 C 0.89986 0.93742 0.23806 0.0
C3162 C 0.89411 0.95736 0.26085 0.0
C3163 C 0.89909 0.98728 0.25571 0.0
C3164 C 0.90945 0.99749 0.22907 0.0
C3165 C 0.91465 0.03035 0.22938 0.0
C3166 C 0.9467 0.0381 0.22131 0.0
C3167 C 0.89274 0.04589 0.20897 0.0
C3168 C 0.90786 0.03694 0.26112 0.0
C3169 C 0.8978 0.01199 0.27563 0.0
C3170 C 0.89071 0.01238 0.30531 0.0
C3171 C 0.89478 0.03861 0.32067 0.0
C3172 C 0.90634 0.06394 0.30654 0.0
C3173 C 0.91255 0.0633 0.27631 0.0
H3174 H 0.20736 0.70318 0.54711 0.0
H3175 H 0.19587 0.60967 0.56133 0.0
H3176 H 0.23583 0.5997 0.52617 0.0
H3177 H 0.22518 0.69514 0.46658 0.0
H3178 H 0.25041 0.72579 0.46747 0.0
H3179 H 0.21881 0.72502 0.49149 0.0
H3180 H 0.25348 0.73203 0.536 0.0
H3181 H 0.28522 0.73197 0.51229 0.0
H3182 H 0.28273 0.70613 0.54229 0.0
H3183 H 0.28055 0.60015 0.49274 0.0
H3184 H 0.3215 0.61083 0.45854 0.0
H3185 H 0.30437 0.70396 0.46644 0.0
C3186 C 0.21275 0.68062 0.5422 0.0
C3187 C 0.19822 0.65722 0.55682 0.0
C3188 C 0.20613 0.62796 0.54997 0.0
C3189 C 0.2291 0.62207 0.53023 0.0
C3190 C 0.24372 0.64565 0.51703 0.0
C3191 C 0.23528 0.67431 0.52205 0.0
C3192 C 0.25447 0.69562 0.50482 0.0
C3193 C 0.23613 0.71132 0.48119 0.0
C3194 C 0.26989 0.71773 0.52508 0.0
C3195 C 0.27628 0.67466 0.49104 0.0
C3196 C 0.26946 0.64589 0.49799 0.0
C3197 C 0.28615 0.62264 0.48729 0.0
C3198 C 0.30988 0.62894 0.46835 0.0
C3199 C 0.3171 0.65824 0.46056 0.0
C3200 C 0.30005 0.68131 0.47243 0.0
H3201 H 0.71747 0.63935 0.05611 0.0
H3202 H 0.72938 0.54922 0.08482 0.0
H3203 H 0.7621 0.54047 0.04293 0.0
H3204 H 0.71684 0.62562 0.97943 0.0
H3205 H 0.73806 0.65734 0.96834 0.0
H3206 H 0.71666 0.65817 1.00167 0.0
H3207 H 0.76322 0.67209 0.03122 0.0
H3208 H 0.78465 0.67164 0.99788 0.0
H3209 H 0.7955 0.64938 0.02878 0.0
H3210 H 0.78559 0.53793 0.99501 0.0
H3211 H 0.81283 0.54461 0.94943 0.0
H3212 H 0.79407 0.63816 0.95091 0.0
C3213 C 0.72798 0.61817 0.0542 0.0
C3214 C 0.72083 0.59493 0.07417 0.0
C3215 C 0.73449 0.56737 0.0702 0.0
C3216 C 0.75292 0.56208 0.04618 0.0
C3217 C 0.75818 0.58465 0.02613 0.0
C3218 C 0.74717 0.61251 0.03018 0.0
C3219 C 0.75724 0.63252 1.00481 0.0
C3220 C 0.73061 0.6441 0.98755 0.0
C3221 C 0.77629 0.65792 0.01636 0.0
C3222 C 0.77539 0.61129 0.98609 0.0
C3223 C 0.77457 0.58371 0.99877 0.0
C3224 C 0.78721 0.55959 0.98529 0.0
C3225 C 0.8026 0.56373 0.959 0.0
C3226 C 0.80649 0.59204 0.94628 0.0
C3227 C 0.79187 0.61619 0.95983 0.0
H3228 H 0.69142 0.43745 0.28635 0.0
H3229 H 0.63786 0.48468 0.34768 0.0
H3230 H 0.62453 0.52088 0.30885 0.0
H3231 H 0.72236 0.50194 0.25123 0.0
H3232 H 0.72346 0.48562 0.21531 0.0
H3233 H 0.72613 0.46276 0.24749 0.0
H3234 H 0.68165 0.432 0.22917 0.0
H3235 H 0.67851 0.45528 0.19724 0.0
H3236 H 0.64732 0.45006 0.22126 0.0
H3237 H 0.61541 0.54972 0.26217 0.0
H3238 H 0.621 0.57757 0.2159 0.0
H3239 H 0.68691 0.51584 0.18639 0.0
C3240 C 0.67721 0.45569 0.29168 0.0
C3241 C 0.66429 0.45803 0.31992 0.0
C3242 C 0.64606 0.48209 0.32586 0.0
C3243 C 0.63884 0.50263 0.30397 0.0
C3244 C 0.65072 0.499 0.27599 0.0
C3245 C 0.67031 0.47669 0.27001 0.0
C3246 C 0.6817 0.4791 0.2387 0.0
C3247 C 0.71541 0.48258 0.23816 0.0
C3248 C 0.67171 0.45252 0.22053 0.0
C3249 C 0.66633 0.50684 0.2284 0.0
C3250 C 0.64757 0.51718 0.24988 0.0
C3251 C 0.63021 0.54193 0.2453 0.0
C3252 C 0.63324 0.5574 0.21874 0.0
C3253 C 0.65415 0.5487 0.19741 0.0
C3254 C 0.67045 0.52272 0.20211 0.0
H3255 H 0.77467 0.44161 0.57361 0.0
H3256 H 0.82075 0.35985 0.55917 0.0
H3257 H 0.79313 0.35251 0.51318 0.0
H3258 H 0.70291 0.41281 0.54426 0.0
H3259 H 0.69308 0.4482 0.52959 0.0
H3260 H 0.71553 0.44577 0.56205 0.0
H3261 H 0.75519 0.47824 0.53662 0.0
H3262 H 0.73324 0.48015 0.50386 0.0
H3263 H 0.77053 0.46684 0.50201 0.0
H3264 H 0.76354 0.357 0.46525 0.0
H3265 H 0.72821 0.36849 0.42529 0.0
H3266 H 0.69968 0.44523 0.47279 0.0
C3267 C 0.77827 0.42173 0.56123 0.0
C3268 C 0.79972 0.4012 0.57031 0.0
C3269 C 0.80403 0.37565 0.55315 0.0
C3270 C 0.78869 0.37144 0.52669 0.0
C3271 C 0.76843 0.3926 0.51785 0.0
C3272 C 0.76247 0.41673 0.53516 0.0
C3273 C 0.73889 0.43568 0.52124 0.0
C3274 C 0.71095 0.43561 0.54042 0.0
C3275 C 0.75016 0.46708 0.5156 0.0
C3276 C 0.73368 0.4194 0.49274 0.0
C3277 C 0.75082 0.39454 0.49112 0.0
C3278 C 0.7497 0.3762 0.46663 0.0
C3279 C 0.72969 0.38284 0.44392 0.0
C3280 C 0.711 0.40749 0.44567 0.0
C3281 C 0.71371 0.42627 0.47031 0.0
H3282 H 0.83033 0.48695 0.6899 0.0
H3283 H 0.89793 0.42689 0.71905 0.0
H3284 H 0.9047 0.45596 0.76424 0.0
H3285 H 0.87026 0.55356 0.72049 0.0
H3286 H 0.83606 0.57167 0.72875 0.0
H3287 H 0.83835 0.54716 0.69793 0.0
H3288 H 0.79443 0.51715 0.71888 0.0
H3289 H 0.79232 0.54114 0.75 0.0
H3290 H 0.79668 0.5022 0.75551 0.0
H3291 H 0.89948 0.48902 0.80973 0.0
H3292 H 0.88805 0.52691 0.84706 0.0
H3293 H 0.8269 0.56724 0.78638 0.0
C3294 C 0.84716 0.48051 0.7054 0.0
C3295 C 0.86385 0.45482 0.70075 0.0
C3296 C 0.88535 0.44683 0.72181 0.0
C3297 C 0.88915 0.46308 0.74775 0.0
C3298 C 0.87183 0.48789 0.75212 0.0
C3299 C 0.85199 0.49714 0.731 0.0
C3300 C 0.8367 0.52502 0.7407 0.0
C3301 C 0.84588 0.55088 0.72079 0.0
C3302 C 0.80304 0.52111 0.74132 0.0
C3303 C 0.84922 0.52866 0.77138 0.0
C3304 C 0.86977 0.50731 0.77753 0.0
C3305 C 0.88384 0.50617 0.80483 0.0
C3306 C 0.8773 0.5278 0.82597 0.0
C3307 C 0.85675 0.55026 0.8199 0.0
C3308 C 0.84247 0.55026 0.79216 0.0
H3309 H 0.46083 0.30261 0.70784 0.0
H3310 H 0.44895 0.31856 0.61466 0.0
H3311 H 0.48291 0.27837 0.60343 0.0
H3312 H 0.54057 0.28385 0.70086 0.0
H3313 H 0.5386 0.25667 0.72965 0.0
H3314 H 0.51453 0.28798 0.73043 0.0
H3315 H 0.46945 0.25298 0.73368 0.0
H3316 H 0.49335 0.2216 0.73232 0.0
H3317 H 0.46421 0.22553 0.7058 0.0
H3318 H 0.51539 0.23319 0.60179 0.0
H3319 H 0.54944 0.19197 0.61033 0.0
H3320 H 0.54174 0.20503 0.70419 0.0
C3321 C 0.46578 0.29802 0.68509 0.0
C3322 C 0.45211 0.31429 0.66225 0.0
C3323 C 0.45929 0.30714 0.63276 0.0
C3324 C 0.47843 0.28396 0.62604 0.0
C3325 C 0.4908 0.26791 0.64895 0.0
C3326 C 0.48537 0.27506 0.6779 0.0
C3327 C 0.50215 0.25456 0.69829 0.0
C3328 C 0.52534 0.27178 0.71585 0.0
C3329 C 0.48102 0.23767 0.71873 0.0
C3330 C 0.51676 0.23411 0.67635 0.0
C3331 C 0.50993 0.24223 0.64798 0.0
C3332 C 0.52085 0.22669 0.62398 0.0
C3333 C 0.53986 0.20285 0.62905 0.0
C3334 C 0.54791 0.19443 0.65792 0.0
C3335 C 0.53578 0.21034 0.68181 0.0
loop_
_geom_bond_atom_site_label_1
_geom_bond_atom_site_label_2
_geom_bond_distance
_geom_bond_site_symmetry_2
_ccdc_geom_bond_type
C0 O27 1.312 . S
C0 O28 1.208 . S
C1 O22 1.331 . S
C1 O25 1.244 . S
C2 O24 1.264 . S
C2 O26 1.273 . S
Mg3 O5 1.936 . S
Mg3 O12 2.081 . S
Mg3 O14 2.023 . S
Mg3 O18 2.031 . S
Mg3 O27 2.291 . S
Mg4 O5 1.963 . S
Mg4 O15 1.942 . S
Mg4 O16 1.955 . S
Mg4 O23 1.986 . S
O5 Mg3 1.936 . S
O5 Mg4 1.963 . S
O5 Mg6 1.915 . S
Mg6 O5 1.915 . S
Mg6 O7 1.915 . S
Mg6 O11 2.013 . S
Mg6 O17 2.114 . S
Mg6 O21 2.013 . S
Mg6 O27 2.114 . S
O7 Mg6 1.915 . S
O7 Mg8 1.936 . S
O7 Mg9 1.963 . S
Mg8 O7 1.936 . S
Mg8 O17 2.291 . S
Mg8 O22 2.081 . S
Mg8 O24 2.023 . S
Mg8 O28 2.031 . S
Mg9 O7 1.963 . S
Mg9 O13 1.986 . S
Mg9 O25 1.942 . S
Mg9 O26 1.955 . S
C10 O21 1.191 . S
C10 O23 1.307 . S
O11 Mg6 2.013 . S
O11 C30 1.191 . S
O12 Mg3 2.081 . S
O12 C20 1.331 . S
O13 Mg9 1.986 . S
O13 C30 1.307 . S
O14 Mg3 2.023 . S
O14 C29 1.264 . S
O15 Mg4 1.942 . S
O15 C20 1.244 . S
O16 Mg4 1.955 . S
O16 C29 1.273 . S
O17 Mg6 2.114 . S
O17 Mg8 2.291 . S
O17 C19 1.312 . S
O18 Mg3 2.031 . S
O18 C19 1.208 . S
C19 O17 1.312 . S
C19 O18 1.208 . S
C20 O12 1.331 . S
C20 O15 1.244 . S
O21 Mg6 2.013 . S
O21 C10 1.191 . S
O22 C1 1.331 . S
O22 Mg8 2.081 . S
O23 Mg4 1.986 . S
O23 C10 1.307 . S
O24 C2 1.264 . S
O24 Mg8 2.023 . S
O25 C1 1.244 . S
O25 Mg9 1.942 . S
O26 C2 1.273 . S
O26 Mg9 1.955 . S
O27 C0 1.312 . S
O27 Mg3 2.291 . S
O27 Mg6 2.114 . S
O28 C0 1.208 . S
O28 Mg8 2.031 . S
C29 O14 1.264 . S
C29 O16 1.273 . S
C30 O11 1.191 . S
C30 O13 1.307 . S
C31 O58 1.312 . S
C31 O59 1.208 . S
C32 O53 1.331 . S
C32 O56 1.244 . S
C33 O55 1.264 . S
C33 O57 1.273 . S
Mg34 O36 1.936 . S
Mg34 O43 2.081 . S
Mg34 O45 2.023 . S
Mg34 O49 2.031 . S
Mg34 O58 2.291 . S
Mg35 O36 1.963 . S
Mg35 O46 1.942 . S
Mg35 O47 1.955 . S
Mg35 O54 1.986 . S
O36 Mg34 1.936 . S
O36 Mg35 1.963 . S
O36 Mg37 1.915 . S
Mg37 O36 1.915 . S
Mg37 O38 1.915 . S
Mg37 O42 2.013 . S
Mg37 O48 2.114 . S
Mg37 O52 2.013 . S
Mg37 O58 2.114 . S
O38 Mg37 1.915 . S
O38 Mg39 1.936 . S
O38 Mg40 1.963 . S
Mg39 O38 1.936 . S
Mg39 O48 2.291 . S
Mg39 O53 2.081 . S
Mg39 O55 2.023 . S
Mg39 O59 2.031 . S
Mg40 O38 1.963 . S
Mg40 O44 1.986 . S
Mg40 O56 1.942 . S
Mg40 O57 1.955 . S
C41 O52 1.191 . S
C41 O54 1.307 . S
O42 Mg37 2.013 . S
O42 C61 1.191 . S
O43 Mg34 2.081 . S
O43 C51 1.331 . S
O44 Mg40 1.986 . S
O44 C61 1.307 . S
O45 Mg34 2.023 . S
O45 C60 1.264 . S
O46 Mg35 1.942 . S
O46 C51 1.244 . S
O47 Mg35 1.955 . S
O47 C60 1.273 . S
O48 Mg37 2.114 . S
O48 Mg39 2.291 . S
O48 C50 1.312 . S
O49 Mg34 2.031 . S
O49 C50 1.208 . S
C50 O48 1.312 . S
C50 O49 1.208 . S
C51 O43 1.331 . S
C51 O46 1.244 . S
O52 Mg37 2.013 . S
O52 C41 1.191 . S
O53 C32 1.331 . S
O53 Mg39 2.081 . S
O54 Mg35 1.986 . S
O54 C41 1.307 . S
O55 C33 1.264 . S
O55 Mg39 2.023 . S
O56 C32 1.244 . S
O56 Mg40 1.942 . S
O57 C33 1.273 . S
O57 Mg40 1.955 . S
O58 C31 1.312 . S
O58 Mg34 2.291 . S
O58 Mg37 2.114 . S
O59 C31 1.208 . S
O59 Mg39 2.031 . S
C60 O45 1.264 . S
C60 O47 1.273 . S
C61 O42 1.191 . S
C61 O44 1.307 . S
C62 O89 1.312 . S
C62 O90 1.208 . S
C63 O84 1.331 . S
C63 O87 1.244 . S
C64 O86 1.264 . S
C64 O88 1.273 . S
Mg65 O67 1.936 . S
Mg65 O74 2.081 . S
Mg65 O76 2.023 . S
Mg65 O80 2.031 . S
Mg65 O89 2.291 . S
Mg66 O67 1.963 . S
Mg66 O77 1.942 . S
Mg66 O78 1.955 . S
Mg66 O85 1.986 . S
O67 Mg65 1.936 . S
O67 Mg66 1.963 . S
O67 Mg68 1.915 . S
Mg68 O67 1.915 . S
Mg68 O69 1.915 . S
Mg68 O73 2.013 . S
Mg68 O79 2.114 . S
Mg68 O83 2.013 . S
Mg68 O89 2.114 . S
O69 Mg68 1.915 . S
O69 Mg70 1.936 . S
O69 Mg71 1.963 . S
Mg70 O69 1.936 . S
Mg70 O79 2.291 . S
Mg70 O84 2.081 . S
Mg70 O86 2.023 . S
Mg70 O90 2.031 . S
Mg71 O69 1.963 . S
Mg71 O75 1.986 . S
Mg71 O87 1.942 . S
Mg71 O88 1.955 . S
C72 O83 1.191 . S
C72 O85 1.307 . S
O73 Mg68 2.013 . S
O73 C92 1.191 . S
O74 Mg65 2.081 . S
O74 C82 1.331 . S
O75 Mg71 1.986 . S
O75 C92 1.307 . S
O76 Mg65 2.023 . S
O76 C91 1.264 . S
O77 Mg66 1.942 . S
O77 C82 1.244 . S
O78 Mg66 1.955 . S
O78 C91 1.273 . S
O79 Mg68 2.114 . S
O79 Mg70 2.291 . S
O79 C81 1.312 . S
O80 Mg65 2.031 . S
O80 C81 1.208 . S
C81 O79 1.312 . S
C81 O80 1.208 . S
C82 O74 1.331 . S
C82 O77 1.244 . S
O83 Mg68 2.013 . S
O83 C72 1.191 . S
O84 C63 1.331 . S
O84 Mg70 2.081 . S
O85 Mg66 1.986 . S
O85 C72 1.307 . S
O86 C64 1.264 . S
O86 Mg70 2.023 . S
O87 C63 1.244 . S
O87 Mg71 1.942 . S
O88 C64 1.273 . S
O88 Mg71 1.955 . S
O89 C62 1.312 . S
O89 Mg65 2.291 . S
O89 Mg68 2.114 . S
O90 C62 1.208 . S
O90 Mg70 2.031 . S
C91 O76 1.264 . S
C91 O78 1.273 . S
C92 O73 1.191 . S
C92 O75 1.307 . S
C93 O120 1.312 . S
C93 O121 1.208 . S
C94 O115 1.331 . S
C94 O118 1.244 . S
C95 O117 1.264 . S
C95 O119 1.273 . S
Mg96 O98 1.936 . S
Mg96 O105 2.081 . S
Mg96 O107 2.023 . S
Mg96 O111 2.031 . S
Mg96 O120 2.291 . S
Mg97 O98 1.963 . S
Mg97 O108 1.942 . S
Mg97 O109 1.955 . S
Mg97 O116 1.986 . S
O98 Mg96 1.936 . S
O98 Mg97 1.963 . S
O98 Mg99 1.915 . S
Mg99 O98 1.915 . S
Mg99 O100 1.915 . S
Mg99 O104 2.013 . S
Mg99 O110 2.114 . S
Mg99 O114 2.013 . S
Mg99 O120 2.114 . S
O100 Mg99 1.915 . S
O100 Mg101 1.936 . S
O100 Mg102 1.963 . S
Mg101 O100 1.936 . S
Mg101 O110 2.291 . S
Mg101 O115 2.081 . S
Mg101 O117 2.023 . S
Mg101 O121 2.031 . S
Mg102 O100 1.963 . S
Mg102 O106 1.986 . S
Mg102 O118 1.942 . S
Mg102 O119 1.955 . S
C103 O114 1.191 . S
C103 O116 1.307 . S
O104 Mg99 2.013 . S
O104 C123 1.191 . S
O105 Mg96 2.081 . S
O105 C113 1.331 . S
O106 Mg102 1.986 . S
O106 C123 1.307 . S
O107 Mg96 2.023 . S
O107 C122 1.264 . S
O108 Mg97 1.942 . S
O108 C113 1.244 . S
O109 Mg97 1.955 . S
O109 C122 1.273 . S
O110 Mg99 2.114 . S
O110 Mg101 2.291 . S
O110 C112 1.312 . S
O111 Mg96 2.031 . S
O111 C112 1.208 . S
C112 O110 1.312 . S
C112 O111 1.208 . S
C113 O105 1.331 . S
C113 O108 1.244 . S
O114 Mg99 2.013 . S
O114 C103 1.191 . S
O115 C94 1.331 . S
O115 Mg101 2.081 . S
O116 Mg97 1.986 . S
O116 C103 1.307 . S
O117 C95 1.264 . S
O117 Mg101 2.023 . S
O118 C94 1.244 . S
O118 Mg102 1.942 . S
O119 C95 1.273 . S
O119 Mg102 1.955 . S
O120 C93 1.312 . S
O120 Mg96 2.291 . S
O120 Mg99 2.114 . S
O121 C93 1.208 . S
O121 Mg101 2.031 . S
C122 O107 1.264 . S
C122 O109 1.273 . S
C123 O104 1.191 . S
C123 O106 1.307 . S
C124 O151 1.312 . S
C124 O152 1.208 . S
C125 O146 1.331 . S
C125 O149 1.244 . S
C126 O148 1.264 . S
C126 O150 1.273 . S
Mg127 O129 1.936 . S
Mg127 O136 2.081 . S
Mg127 O138 2.023 . S
Mg127 O142 2.031 . S
Mg127 O151 2.291 . S
Mg128 O129 1.963 . S
Mg128 O139 1.942 . S
Mg128 O140 1.955 . S
Mg128 O147 1.986 . S
O129 Mg127 1.936 . S
O129 Mg128 1.963 . S
O129 Mg130 1.915 . S
Mg130 O129 1.915 . S
Mg130 O131 1.915 . S
Mg130 O135 2.013 . S
Mg130 O141 2.114 . S
Mg130 O145 2.013 . S
Mg130 O151 2.114 . S
O131 Mg130 1.915 . S
O131 Mg132 1.936 . S
O131 Mg133 1.963 . S
Mg132 O131 1.936 . S
Mg132 O141 2.291 . S
Mg132 O146 2.081 . S
Mg132 O148 2.023 . S
Mg132 O152 2.031 . S
Mg133 O131 1.963 . S
Mg133 O137 1.986 . S
Mg133 O149 1.942 . S
Mg133 O150 1.955 . S
C134 O145 1.191 . S
C134 O147 1.307 . S
O135 Mg130 2.013 . S
O135 C154 1.191 . S
O136 Mg127 2.081 . S
O136 C144 1.331 . S
O137 Mg133 1.986 . S
O137 C154 1.307 . S
O138 Mg127 2.023 . S
O138 C153 1.264 . S
O139 Mg128 1.942 . S
O139 C144 1.244 . S
O140 Mg128 1.955 . S
O140 C153 1.273 . S
O141 Mg130 2.114 . S
O141 Mg132 2.291 . S
O141 C143 1.312 . S
O142 Mg127 2.031 . S
O142 C143 1.208 . S
C143 O141 1.312 . S
C143 O142 1.208 . S
C144 O136 1.331 . S
C144 O139 1.244 . S
O145 Mg130 2.013 . S
O145 C134 1.191 . S
O146 C125 1.331 . S
O146 Mg132 2.081 . S
O147 Mg128 1.986 . S
O147 C134 1.307 . S
O148 C126 1.264 . S
O148 Mg132 2.023 . S
O149 C125 1.244 . S
O149 Mg133 1.942 . S
O150 C126 1.273 . S
O150 Mg133 1.955 . S
O151 C124 1.312 . S
O151 Mg127 2.291 . S
O151 Mg130 2.114 . S
O152 C124 1.208 . S
O152 Mg132 2.031 . S
C153 O138 1.264 . S
C153 O140 1.273 . S
C154 O135 1.191 . S
C154 O137 1.307 . S
C155 O182 1.312 . S
C155 O183 1.208 . S
C156 O177 1.331 . S
C156 O180 1.244 . S
C157 O179 1.264 . S
C157 O181 1.273 . S
Mg158 O160 1.936 . S
Mg158 O167 2.081 . S
Mg158 O169 2.023 . S
Mg158 O173 2.031 . S
Mg158 O182 2.291 . S
Mg159 O160 1.963 . S
Mg159 O170 1.942 . S
Mg159 O171 1.955 . S
Mg159 O178 1.986 . S
O160 Mg158 1.936 . S
O160 Mg159 1.963 . S
O160 Mg161 1.915 . S
Mg161 O160 1.915 . S
Mg161 O162 1.915 . S
Mg161 O166 2.013 . S
Mg161 O172 2.114 . S
Mg161 O176 2.013 . S
Mg161 O182 2.114 . S
O162 Mg161 1.915 . S
O162 Mg163 1.936 . S
O162 Mg164 1.963 . S
Mg163 O162 1.936 . S
Mg163 O172 2.291 . S
Mg163 O177 2.081 . S
Mg163 O179 2.023 . S
Mg163 O183 2.031 . S
Mg164 O162 1.963 . S
Mg164 O168 1.986 . S
Mg164 O180 1.942 . S
Mg164 O181 1.955 . S
C165 O176 1.191 . S
C165 O178 1.307 . S
O166 Mg161 2.013 . S
O166 C185 1.191 . S
O167 Mg158 2.081 . S
O167 C175 1.331 . S
O168 Mg164 1.986 . S
O168 C185 1.307 . S
O169 Mg158 2.023 . S
O169 C184 1.264 . S
O170 Mg159 1.942 . S
O170 C175 1.244 . S
O171 Mg159 1.955 . S
O171 C184 1.273 . S
O172 Mg161 2.114 . S
O172 Mg163 2.291 . S
O172 C174 1.312 . S
O173 Mg158 2.031 . S
O173 C174 1.208 . S
C174 O172 1.312 . S
C174 O173 1.208 . S
C175 O167 1.331 . S
C175 O170 1.244 . S
O176 Mg161 2.013 . S
O176 C165 1.191 . S
O177 C156 1.331 . S
O177 Mg163 2.081 . S
O178 Mg159 1.986 . S
O178 C165 1.307 . S
O179 C157 1.264 . S
O179 Mg163 2.023 . S
O180 C156 1.244 . S
O180 Mg164 1.942 . S
O181 C157 1.273 . S
O181 Mg164 1.955 . S
O182 C155 1.312 . S
O182 Mg158 2.291 . S
O182 Mg161 2.114 . S
O183 C155 1.208 . S
O183 Mg163 2.031 . S
C184 O169 1.264 . S
C184 O171 1.273 . S
C185 O166 1.191 . S
C185 O168 1.307 . S
C186 O213 1.312 . S
C186 O214 1.208 . S
C187 O208 1.331 . S
C187 O211 1.244 . S
C188 O210 1.264 . S
C188 O212 1.273 . S
Mg189 O191 1.936 . S
Mg189 O198 2.081 . S
Mg189 O200 2.023 . S
Mg189 O204 2.031 . S
Mg189 O213 2.291 . S
Mg190 O191 1.963 . S
Mg190 O201 1.942 . S
Mg190 O202 1.955 . S
Mg190 O209 1.986 . S
O191 Mg189 1.936 . S
O191 Mg190 1.963 . S
O191 Mg192 1.915 . S
Mg192 O191 1.915 . S
Mg192 O193 1.915 . S
Mg192 O197 2.013 . S
Mg192 O203 2.114 . S
Mg192 O207 2.013 . S
Mg192 O213 2.114 . S
O193 Mg192 1.915 . S
O193 Mg194 1.936 . S
O193 Mg195 1.963 . S
Mg194 O193 1.936 . S
Mg194 O203 2.291 . S
Mg194 O208 2.081 . S
Mg194 O210 2.023 . S
Mg194 O214 2.031 . S
Mg195 O193 1.963 . S
Mg195 O199 1.986 . S
Mg195 O211 1.942 . S
Mg195 O212 1.955 . S
C196 O207 1.191 . S
C196 O209 1.307 . S
O197 Mg192 2.013 . S
O197 C216 1.191 . S
O198 Mg189 2.081 . S
O198 C206 1.331 . S
O199 Mg195 1.986 . S
O199 C216 1.307 . S
O200 Mg189 2.023 . S
O200 C215 1.264 . S
O201 Mg190 1.942 . S
O201 C206 1.244 . S
O202 Mg190 1.955 . S
O202 C215 1.273 . S
O203 Mg192 2.114 . S
O203 Mg194 2.291 . S
O203 C205 1.312 . S
O204 Mg189 2.031 . S
O204 C205 1.208 . S
C205 O203 1.312 . S
C205 O204 1.208 . S
C206 O198 1.331 . S
C206 O201 1.244 . S
O207 Mg192 2.013 . S
O207 C196 1.191 . S
O208 C187 1.331 . S
O208 Mg194 2.081 . S
O209 Mg190 1.986 . S
O209 C196 1.307 . S
O210 C188 1.264 . S
O210 Mg194 2.023 . S
O211 C187 1.244 . S
O211 Mg195 1.942 . S
O212 C188 1.273 . S
O212 Mg195 1.955 . S
O213 C186 1.312 . S
O213 Mg189 2.291 . S
O213 Mg192 2.114 . S
O214 C186 1.208 . S
O214 Mg194 2.031 . S
C215 O200 1.264 . S
C215 O202 1.273 . S
C216 O197 1.191 . S
C216 O199 1.307 . S
C217 O244 1.312 . S
C217 O245 1.208 . S
C218 O239 1.331 . S
C218 O242 1.244 . S
C219 O241 1.264 . S
C219 O243 1.273 . S
Mg220 O222 1.936 . S
Mg220 O229 2.081 . S
Mg220 O231 2.023 . S
Mg220 O235 2.031 . S
Mg220 O244 2.291 . S
Mg221 O222 1.963 . S
Mg221 O232 1.942 . S
Mg221 O233 1.955 . S
Mg221 O240 1.986 . S
O222 Mg220 1.936 . S
O222 Mg221 1.963 . S
O222 Mg223 1.915 . S
Mg223 O222 1.915 . S
Mg223 O224 1.915 . S
Mg223 O228 2.013 . S
Mg223 O234 2.114 . S
Mg223 O238 2.013 . S
Mg223 O244 2.114 . S
O224 Mg223 1.915 . S
O224 Mg225 1.936 . S
O224 Mg226 1.963 . S
Mg225 O224 1.936 . S
Mg225 O234 2.291 . S
Mg225 O239 2.081 . S
Mg225 O241 2.023 . S
Mg225 O245 2.031 . S
Mg226 O224 1.963 . S
Mg226 O230 1.986 . S
Mg226 O242 1.942 . S
Mg226 O243 1.955 . S
C227 O238 1.191 . S
C227 O240 1.307 . S
O228 Mg223 2.013 . S
O228 C247 1.191 . S
O229 Mg220 2.081 . S
O229 C237 1.331 . S
O230 Mg226 1.986 . S
O230 C247 1.307 . S
O231 Mg220 2.023 . S
O231 C246 1.264 . S
O232 Mg221 1.942 . S
O232 C237 1.244 . S
O233 Mg221 1.955 . S
O233 C246 1.273 . S
O234 Mg223 2.114 . S
O234 Mg225 2.291 . S
O234 C236 1.312 . S
O235 Mg220 2.031 . S
O235 C236 1.208 . S
C236 O234 1.312 . S
C236 O235 1.208 . S
C237 O229 1.331 . S
C237 O232 1.244 . S
O238 Mg223 2.013 . S
O238 C227 1.191 . S
O239 C218 1.331 . S
O239 Mg225 2.081 . S
O240 Mg221 1.986 . S
O240 C227 1.307 . S
O241 C219 1.264 . S
O241 Mg225 2.023 . S
O242 C218 1.244 . S
O242 Mg226 1.942 . S
O243 C219 1.273 . S
O243 Mg226 1.955 . S
O244 C217 1.312 . S
O244 Mg220 2.291 . S
O244 Mg223 2.114 . S
O245 C217 1.208 . S
O245 Mg225 2.031 . S
C246 O231 1.264 . S
C246 O233 1.273 . S
C247 O228 1.191 . S
C247 O230 1.307 . S
C248 O275 1.312 . S
C248 O276 1.208 . S
C249 O270 1.331 . S
C249 O273 1.244 . S
C250 O272 1.264 . S
C250 O274 1.273 . S
Mg251 O253 1.936 . S
Mg251 O260 2.081 . S
Mg251 O262 2.023 . S
Mg251 O266 2.031 . S
Mg251 O275 2.291 . S
Mg252 O253 1.963 . S
Mg252 O263 1.942 . S
Mg252 O264 1.955 . S
Mg252 O271 1.986 . S
O253 Mg251 1.936 . S
O253 Mg252 1.963 . S
O253 Mg254 1.915 . S
Mg254 O253 1.915 . S
Mg254 O255 1.915 . S
Mg254 O259 2.013 . S
Mg254 O265 2.114 . S
Mg254 O269 2.013 . S
Mg254 O275 2.114 . S
O255 Mg254 1.915 . S
O255 Mg256 1.936 . S
O255 Mg257 1.963 . S
Mg256 O255 1.936 . S
Mg256 O265 2.291 . S
Mg256 O270 2.081 . S
Mg256 O272 2.023 . S
Mg256 O276 2.031 . S
Mg257 O255 1.963 . S
Mg257 O261 1.986 . S
Mg257 O273 1.942 . S
Mg257 O274 1.955 . S
C258 O269 1.191 . S
C258 O271 1.307 . S
O259 Mg254 2.013 . S
O259 C278 1.191 . S
O260 Mg251 2.081 . S
O260 C268 1.331 . S
O261 Mg257 1.986 . S
O261 C278 1.307 . S
O262 Mg251 2.023 . S
O262 C277 1.264 . S
O263 Mg252 1.942 . S
O263 C268 1.244 . S
O264 Mg252 1.955 . S
O264 C277 1.273 . S
O265 Mg254 2.114 . S
O265 Mg256 2.291 . S
O265 C267 1.312 . S
O266 Mg251 2.031 . S
O266 C267 1.208 . S
C267 O265 1.312 . S
C267 O266 1.208 . S
C268 O260 1.331 . S
C268 O263 1.244 . S
O269 Mg254 2.013 . S
O269 C258 1.191 . S
O270 C249 1.331 . S
O270 Mg256 2.081 . S
O271 Mg252 1.986 . S
O271 C258 1.307 . S
O272 C250 1.264 . S
O272 Mg256 2.023 . S
O273 C249 1.244 . S
O273 Mg257 1.942 . S
O274 C250 1.273 . S
O274 Mg257 1.955 . S
O275 C248 1.312 . S
O275 Mg251 2.291 . S
O275 Mg254 2.114 . S
O276 C248 1.208 . S
O276 Mg256 2.031 . S
C277 O262 1.264 . S
C277 O264 1.273 . S
C278 O259 1.191 . S
C278 O261 1.307 . S
C279 O306 1.312 . S
C279 O307 1.208 . S
C280 O301 1.331 . S
C280 O304 1.244 . S
C281 O303 1.264 . S
C281 O305 1.273 . S
Mg282 O284 1.936 . S
Mg282 O291 2.081 . S
Mg282 O293 2.023 . S
Mg282 O297 2.031 . S
Mg282 O306 2.291 . S
Mg283 O284 1.963 . S
Mg283 O294 1.942 . S
Mg283 O295 1.955 . S
Mg283 O302 1.986 . S
O284 Mg282 1.936 . S
O284 Mg283 1.963 . S
O284 Mg285 1.915 . S
Mg285 O284 1.915 . S
Mg285 O286 1.915 . S
Mg285 O290 2.013 . S
Mg285 O296 2.114 . S
Mg285 O300 2.013 . S
Mg285 O306 2.114 . S
O286 Mg285 1.915 . S
O286 Mg287 1.936 . S
O286 Mg288 1.963 . S
Mg287 O286 1.936 . S
Mg287 O296 2.291 . S
Mg287 O301 2.081 . S
Mg287 O303 2.023 . S
Mg287 O307 2.031 . S
Mg288 O286 1.963 . S
Mg288 O292 1.986 . S
Mg288 O304 1.942 . S
Mg288 O305 1.955 . S
C289 O300 1.191 . S
C289 O302 1.307 . S
O290 Mg285 2.013 . S
O290 C309 1.191 . S
O291 Mg282 2.081 . S
O291 C299 1.331 . S
O292 Mg288 1.986 . S
O292 C309 1.307 . S
O293 Mg282 2.023 . S
O293 C308 1.264 . S
O294 Mg283 1.942 . S
O294 C299 1.244 . S
O295 Mg283 1.955 . S
O295 C308 1.273 . S
O296 Mg285 2.114 . S
O296 Mg287 2.291 . S
O296 C298 1.312 . S
O297 Mg282 2.031 . S
O297 C298 1.208 . S
C298 O296 1.312 . S
C298 O297 1.208 . S
C299 O291 1.331 . S
C299 O294 1.244 . S
O300 Mg285 2.013 . S
O300 C289 1.191 . S
O301 C280 1.331 . S
O301 Mg287 2.081 . S
O302 Mg283 1.986 . S
O302 C289 1.307 . S
O303 C281 1.264 . S
O303 Mg287 2.023 . S
O304 C280 1.244 . S
O304 Mg288 1.942 . S
O305 C281 1.273 . S
O305 Mg288 1.955 . S
O306 C279 1.312 . S
O306 Mg282 2.291 . S
O306 Mg285 2.114 . S
O307 C279 1.208 . S
O307 Mg287 2.031 . S
C308 O293 1.264 . S
C308 O295 1.273 . S
C309 O290 1.191 . S
C309 O292 1.307 . S
C310 O337 1.312 . S
C310 O338 1.208 . S
C311 O332 1.331 . S
C311 O335 1.244 . S
C312 O334 1.264 . S
C312 O336 1.273 . S
Mg313 O315 1.936 . S
Mg313 O322 2.081 . S
Mg313 O324 2.023 . S
Mg313 O328 2.031 . S
Mg313 O337 2.291 . S
Mg314 O315 1.963 . S
Mg314 O325 1.942 . S
Mg314 O326 1.955 . S
Mg314 O333 1.986 . S
O315 Mg313 1.936 . S
O315 Mg314 1.963 . S
O315 Mg316 1.915 . S
Mg316 O315 1.915 . S
Mg316 O317 1.915 . S
Mg316 O321 2.013 . S
Mg316 O327 2.114 . S
Mg316 O331 2.013 . S
Mg316 O337 2.114 . S
O317 Mg316 1.915 . S
O317 Mg318 1.936 . S
O317 Mg319 1.963 . S
Mg318 O317 1.936 . S
Mg318 O327 2.291 . S
Mg318 O332 2.081 . S
Mg318 O334 2.023 . S
Mg318 O338 2.031 . S
Mg319 O317 1.963 . S
Mg319 O323 1.986 . S
Mg319 O335 1.942 . S
Mg319 O336 1.955 . S
C320 O331 1.191 . S
C320 O333 1.307 . S
O321 Mg316 2.013 . S
O321 C340 1.191 . S
O322 Mg313 2.081 . S
O322 C330 1.331 . S
O323 Mg319 1.986 . S
O323 C340 1.307 . S
O324 Mg313 2.023 . S
O324 C339 1.264 . S
O325 Mg314 1.942 . S
O325 C330 1.244 . S
O326 Mg314 1.955 . S
O326 C339 1.273 . S
O327 Mg316 2.114 . S
O327 Mg318 2.291 . S
O327 C329 1.312 . S
O328 Mg313 2.031 . S
O328 C329 1.208 . S
C329 O327 1.312 . S
C329 O328 1.208 . S
C330 O322 1.331 . S
C330 O325 1.244 . S
O331 Mg316 2.013 . S
O331 C320 1.191 . S
O332 C311 1.331 . S
O332 Mg318 2.081 . S
O333 Mg314 1.986 . S
O333 C320 1.307 . S
O334 C312 1.264 . S
O334 Mg318 2.023 . S
O335 C311 1.244 . S
O335 Mg319 1.942 . S
O336 C312 1.273 . S
O336 Mg319 1.955 . S
O337 C310 1.312 . S
O337 Mg313 2.291 . S
O337 Mg316 2.114 . S
O338 C310 1.208 . S
O338 Mg318 2.031 . S
C339 O324 1.264 . S
C339 O326 1.273 . S
C340 O321 1.191 . S
C340 O323 1.307 . S
C341 O368 1.312 . S
C341 O369 1.208 . S
C342 O363 1.331 . S
C342 O366 1.244 . S
C343 O365 1.264 . S
C343 O367 1.273 . S
Mg344 O346 1.936 . S
Mg344 O353 2.081 . S
Mg344 O355 2.023 . S
Mg344 O359 2.031 . S
Mg344 O368 2.291 . S
Mg345 O346 1.963 . S
Mg345 O356 1.942 . S
Mg345 O357 1.955 . S
Mg345 O364 1.986 . S
O346 Mg344 1.936 . S
O346 Mg345 1.963 . S
O346 Mg347 1.915 . S
Mg347 O346 1.915 . S
Mg347 O348 1.915 . S
Mg347 O352 2.013 . S
Mg347 O358 2.114 . S
Mg347 O362 2.013 . S
Mg347 O368 2.114 . S
O348 Mg347 1.915 . S
O348 Mg349 1.936 . S
O348 Mg350 1.963 . S
Mg349 O348 1.936 . S
Mg349 O358 2.291 . S
Mg349 O363 2.081 . S
Mg349 O365 2.023 . S
Mg349 O369 2.031 . S
Mg350 O348 1.963 . S
Mg350 O354 1.986 . S
Mg350 O366 1.942 . S
Mg350 O367 1.955 . S
C351 O362 1.191 . S
C351 O364 1.307 . S
O352 Mg347 2.013 . S
O352 C371 1.191 . S
O353 Mg344 2.081 . S
O353 C361 1.331 . S
O354 Mg350 1.986 . S
O354 C371 1.307 . S
O355 Mg344 2.023 . S
O355 C370 1.264 . S
O356 Mg345 1.942 . S
O356 C361 1.244 . S
O357 Mg345 1.955 . S
O357 C370 1.273 . S
O358 Mg347 2.114 . S
O358 Mg349 2.291 . S
O358 C360 1.312 . S
O359 Mg344 2.031 . S
O359 C360 1.208 . S
C360 O358 1.312 . S
C360 O359 1.208 . S
C361 O353 1.331 . S
C361 O356 1.244 . S
O362 Mg347 2.013 . S
O362 C351 1.191 . S
O363 C342 1.331 . S
O363 Mg349 2.081 . S
O364 Mg345 1.986 . S
O364 C351 1.307 . S
O365 C343 1.264 . S
O365 Mg349 2.023 . S
O366 C342 1.244 . S
O366 Mg350 1.942 . S
O367 C343 1.273 . S
O367 Mg350 1.955 . S
O368 C341 1.312 . S
O368 Mg344 2.291 . S
O368 Mg347 2.114 . S
O369 C341 1.208 . S
O369 Mg349 2.031 . S
C370 O355 1.264 . S
C370 O357 1.273 . S
C371 O352 1.191 . S
C371 O354 1.307 . S
C372 O399 1.312 . S
C372 O400 1.208 . S
C373 O394 1.331 . S
C373 O397 1.244 . S
C374 O396 1.264 . S
C374 O398 1.273 . S
Mg375 O377 1.936 . S
Mg375 O384 2.081 . S
Mg375 O386 2.023 . S
Mg375 O390 2.031 . S
Mg375 O399 2.291 . S
Mg376 O377 1.963 . S
Mg376 O387 1.942 . S
Mg376 O388 1.955 . S
Mg376 O395 1.986 . S
O377 Mg375 1.936 . S
O377 Mg376 1.963 . S
O377 Mg378 1.915 . S
Mg378 O377 1.915 . S
Mg378 O379 1.915 . S
Mg378 O383 2.013 . S
Mg378 O389 2.114 . S
Mg378 O393 2.013 . S
Mg378 O399 2.114 . S
O379 Mg378 1.915 . S
O379 Mg380 1.936 . S
O379 Mg381 1.963 . S
Mg380 O379 1.936 . S
Mg380 O389 2.291 . S
Mg380 O394 2.081 . S
Mg380 O396 2.023 . S
Mg380 O400 2.031 . S
Mg381 O379 1.963 . S
Mg381 O385 1.986 . S
Mg381 O397 1.942 . S
Mg381 O398 1.955 . S
C382 O393 1.191 . S
C382 O395 1.307 . S
O383 Mg378 2.013 . S
O383 C402 1.191 . S
O384 Mg375 2.081 . S
O384 C392 1.331 . S
O385 Mg381 1.986 . S
O385 C402 1.307 . S
O386 Mg375 2.023 . S
O386 C401 1.264 . S
O387 Mg376 1.942 . S
O387 C392 1.244 . S
O388 Mg376 1.955 . S
O388 C401 1.273 . S
O389 Mg378 2.114 . S
O389 Mg380 2.291 . S
O389 C391 1.312 . S
O390 Mg375 2.031 . S
O390 C391 1.208 . S
C391 O389 1.312 . S
C391 O390 1.208 . S
C392 O384 1.331 . S
C392 O387 1.244 . S
O393 Mg378 2.013 . S
O393 C382 1.191 . S
O394 C373 1.331 . S
O394 Mg380 2.081 . S
O395 Mg376 1.986 . S
O395 C382 1.307 . S
O396 C374 1.264 . S
O396 Mg380 2.023 . S
O397 C373 1.244 . S
O397 Mg381 1.942 . S
O398 C374 1.273 . S
O398 Mg381 1.955 . S
O399 C372 1.312 . S
O399 Mg375 2.291 . S
O399 Mg378 2.114 . S
O400 C372 1.208 . S
O400 Mg380 2.031 . S
C401 O386 1.264 . S
C401 O388 1.273 . S
C402 O383 1.191 . S
C402 O385 1.307 . S
C403 O430 1.312 . S
C403 O431 1.208 . S
C404 O425 1.331 . S
C404 O428 1.244 . S
C405 O427 1.264 . S
C405 O429 1.273 . S
Mg406 O408 1.936 . S
Mg406 O415 2.081 . S
Mg406 O417 2.023 . S
Mg406 O421 2.031 . S
Mg406 O430 2.291 . S
Mg407 O408 1.963 . S
Mg407 O418 1.942 . S
Mg407 O419 1.955 . S
Mg407 O426 1.986 . S
O408 Mg406 1.936 . S
O408 Mg407 1.963 . S
O408 Mg409 1.915 . S
Mg409 O408 1.915 . S
Mg409 O410 1.915 . S
Mg409 O414 2.013 . S
Mg409 O420 2.114 . S
Mg409 O424 2.013 . S
Mg409 O430 2.114 . S
O410 Mg409 1.915 . S
O410 Mg411 1.936 . S
O410 Mg412 1.963 . S
Mg411 O410 1.936 . S
Mg411 O420 2.291 . S
Mg411 O425 2.081 . S
Mg411 O427 2.023 . S
Mg411 O431 2.031 . S
Mg412 O410 1.963 . S
Mg412 O416 1.986 . S
Mg412 O428 1.942 . S
Mg412 O429 1.955 . S
C413 O424 1.191 . S
C413 O426 1.307 . S
O414 Mg409 2.013 . S
O414 C433 1.191 . S
O415 Mg406 2.081 . S
O415 C423 1.331 . S
O416 Mg412 1.986 . S
O416 C433 1.307 . S
O417 Mg406 2.023 . S
O417 C432 1.264 . S
O418 Mg407 1.942 . S
O418 C423 1.244 . S
O419 Mg407 1.955 . S
O419 C432 1.273 . S
O420 Mg409 2.114 . S
O420 Mg411 2.291 . S
O420 C422 1.312 . S
O421 Mg406 2.031 . S
O421 C422 1.208 . S
C422 O420 1.312 . S
C422 O421 1.208 . S
C423 O415 1.331 . S
C423 O418 1.244 . S
O424 Mg409 2.013 . S
O424 C413 1.191 . S
O425 C404 1.331 . S
O425 Mg411 2.081 . S
O426 Mg407 1.986 . S
O426 C413 1.307 . S
O427 C405 1.264 . S
O427 Mg411 2.023 . S
O428 C404 1.244 . S
O428 Mg412 1.942 . S
O429 C405 1.273 . S
O429 Mg412 1.955 . S
O430 C403 1.312 . S
O430 Mg406 2.291 . S
O430 Mg409 2.114 . S
O431 C403 1.208 . S
O431 Mg411 2.031 . S
C432 O417 1.264 . S
C432 O419 1.273 . S
C433 O414 1.191 . S
C433 O416 1.307 . S
C434 O461 1.312 . S
C434 O462 1.208 . S
C435 O456 1.331 . S
C435 O459 1.244 . S
C436 O458 1.264 . S
C436 O460 1.273 . S
Mg437 O439 1.936 . S
Mg437 O446 2.081 . S
Mg437 O448 2.023 . S
Mg437 O452 2.031 . S
Mg437 O461 2.291 . S
Mg438 O439 1.963 . S
Mg438 O449 1.942 . S
Mg438 O450 1.955 . S
Mg438 O457 1.986 . S
O439 Mg437 1.936 . S
O439 Mg438 1.963 . S
O439 Mg440 1.915 . S
Mg440 O439 1.915 . S
Mg440 O441 1.915 . S
Mg440 O445 2.013 . S
Mg440 O451 2.114 . S
Mg440 O455 2.013 . S
Mg440 O461 2.114 . S
O441 Mg440 1.915 . S
O441 Mg442 1.936 . S
O441 Mg443 1.963 . S
Mg442 O441 1.936 . S
Mg442 O451 2.291 . S
Mg442 O456 2.081 . S
Mg442 O458 2.023 . S
Mg442 O462 2.031 . S
Mg443 O441 1.963 . S
Mg443 O447 1.986 . S
Mg443 O459 1.942 . S
Mg443 O460 1.955 . S
C444 O455 1.191 . S
C444 O457 1.307 . S
O445 Mg440 2.013 . S
O445 C464 1.191 . S
O446 Mg437 2.081 . S
O446 C454 1.331 . S
O447 Mg443 1.986 . S
O447 C464 1.307 . S
O448 Mg437 2.023 . S
O448 C463 1.264 . S
O449 Mg438 1.942 . S
O449 C454 1.244 . S
O450 Mg438 1.955 . S
O450 C463 1.273 . S
O451 Mg440 2.114 . S
O451 Mg442 2.291 . S
O451 C453 1.312 . S
O452 Mg437 2.031 . S
O452 C453 1.208 . S
C453 O451 1.312 . S
C453 O452 1.208 . S
C454 O446 1.331 . S
C454 O449 1.244 . S
O455 Mg440 2.013 . S
O455 C444 1.191 . S
O456 C435 1.331 . S
O456 Mg442 2.081 . S
O457 Mg438 1.986 . S
O457 C444 1.307 . S
O458 C436 1.264 . S
O458 Mg442 2.023 . S
O459 C435 1.244 . S
O459 Mg443 1.942 . S
O460 C436 1.273 . S
O460 Mg443 1.955 . S
O461 C434 1.312 . S
O461 Mg437 2.291 . S
O461 Mg440 2.114 . S
O462 C434 1.208 . S
O462 Mg442 2.031 . S
C463 O448 1.264 . S
C463 O450 1.273 . S
C464 O445 1.191 . S
C464 O447 1.307 . S
C465 O492 1.312 . S
C465 O493 1.208 . S
C466 O487 1.331 . S
C466 O490 1.244 . S
C467 O489 1.264 . S
C467 O491 1.273 . S
Mg468 O470 1.936 . S
Mg468 O477 2.081 . S
Mg468 O479 2.023 . S
Mg468 O483 2.031 . S
Mg468 O492 2.291 . S
Mg469 O470 1.963 . S
Mg469 O480 1.942 . S
Mg469 O481 1.955 . S
Mg469 O488 1.986 . S
O470 Mg468 1.936 . S
O470 Mg469 1.963 . S
O470 Mg471 1.915 . S
Mg471 O470 1.915 . S
Mg471 O472 1.915 . S
Mg471 O476 2.013 . S
Mg471 O482 2.114 . S
Mg471 O486 2.013 . S
Mg471 O492 2.114 . S
O472 Mg471 1.915 . S
O472 Mg473 1.936 . S
O472 Mg474 1.963 . S
Mg473 O472 1.936 . S
Mg473 O482 2.291 . S
Mg473 O487 2.081 . S
Mg473 O489 2.023 . S
Mg473 O493 2.031 . S
Mg474 O472 1.963 . S
Mg474 O478 1.986 . S
Mg474 O490 1.942 . S
Mg474 O491 1.955 . S
C475 O486 1.191 . S
C475 O488 1.307 . S
O476 Mg471 2.013 . S
O476 C495 1.191 . S
O477 Mg468 2.081 . S
O477 C485 1.331 . S
O478 Mg474 1.986 . S
O478 C495 1.307 . S
O479 Mg468 2.023 . S
O479 C494 1.264 . S
O480 Mg469 1.942 . S
O480 C485 1.244 . S
O481 Mg469 1.955 . S
O481 C494 1.273 . S
O482 Mg471 2.114 . S
O482 Mg473 2.291 . S
O482 C484 1.312 . S
O483 Mg468 2.031 . S
O483 C484 1.208 . S
C484 O482 1.312 . S
C484 O483 1.208 . S
C485 O477 1.331 . S
C485 O480 1.244 . S
O486 Mg471 2.013 . S
O486 C475 1.191 . S
O487 C466 1.331 . S
O487 Mg473 2.081 . S
O488 Mg469 1.986 . S
O488 C475 1.307 . S
O489 C467 1.264 . S
O489 Mg473 2.023 . S
O490 C466 1.244 . S
O490 Mg474 1.942 . S
O491 C467 1.273 . S
O491 Mg474 1.955 . S
O492 C465 1.312 . S
O492 Mg468 2.291 . S
O492 Mg471 2.114 . S
O493 C465 1.208 . S
O493 Mg473 2.031 . S
C494 O479 1.264 . S
C494 O481 1.273 . S
C495 O476 1.191 . S
C495 O478 1.307 . S
C496 O523 1.312 . S
C496 O524 1.208 . S
C497 O518 1.331 . S
C497 O521 1.244 . S
C498 O520 1.264 . S
C498 O522 1.273 . S
Mg499 O501 1.936 . S
Mg499 O508 2.081 . S
Mg499 O510 2.023 . S
Mg499 O514 2.031 . S
Mg499 O523 2.291 . S
Mg500 O501 1.963 . S
Mg500 O511 1.942 . S
Mg500 O512 1.955 . S
Mg500 O519 1.986 . S
O501 Mg499 1.936 . S
O501 Mg500 1.963 . S
O501 Mg502 1.915 . S
Mg502 O501 1.915 . S
Mg502 O503 1.915 . S
Mg502 O507 2.013 . S
Mg502 O513 2.114 . S
Mg502 O517 2.013 . S
Mg502 O523 2.114 . S
O503 Mg502 1.915 . S
O503 Mg504 1.936 . S
O503 Mg505 1.963 . S
Mg504 O503 1.936 . S
Mg504 O513 2.291 . S
Mg504 O518 2.081 . S
Mg504 O520 2.023 . S
Mg504 O524 2.031 . S
Mg505 O503 1.963 . S
Mg505 O509 1.986 . S
Mg505 O521 1.942 . S
Mg505 O522 1.955 . S
C506 O517 1.191 . S
C506 O519 1.307 . S
O507 Mg502 2.013 . S
O507 C526 1.191 . S
O508 Mg499 2.081 . S
O508 C516 1.331 . S
O509 Mg505 1.986 . S
O509 C526 1.307 . S
O510 Mg499 2.023 . S
O510 C525 1.264 . S
O511 Mg500 1.942 . S
O511 C516 1.244 . S
O512 Mg500 1.955 . S
O512 C525 1.273 . S
O513 Mg502 2.114 . S
O513 Mg504 2.291 . S
O513 C515 1.312 . S
O514 Mg499 2.031 . S
O514 C515 1.208 . S
C515 O513 1.312 . S
C515 O514 1.208 . S
C516 O508 1.331 . S
C516 O511 1.244 . S
O517 Mg502 2.013 . S
O517 C506 1.191 . S
O518 C497 1.331 . S
O518 Mg504 2.081 . S
O519 Mg500 1.986 . S
O519 C506 1.307 . S
O520 C498 1.264 . S
O520 Mg504 2.023 . S
O521 C497 1.244 . S
O521 Mg505 1.942 . S
O522 C498 1.273 . S
O522 Mg505 1.955 . S
O523 C496 1.312 . S
O523 Mg499 2.291 . S
O523 Mg502 2.114 . S
O524 C496 1.208 . S
O524 Mg504 2.031 . S
C525 O510 1.264 . S
C525 O512 1.273 . S
C526 O507 1.191 . S
C526 O509 1.307 . S
C527 O554 1.312 . S
C527 O555 1.208 . S
C528 O549 1.331 . S
C528 O552 1.244 . S
C529 O551 1.264 . S
C529 O553 1.273 . S
Mg530 O532 1.936 . S
Mg530 O539 2.081 . S
Mg530 O541 2.023 . S
Mg530 O545 2.031 . S
Mg530 O554 2.291 . S
Mg531 O532 1.963 . S
Mg531 O542 1.942 . S
Mg531 O543 1.955 . S
Mg531 O550 1.986 . S
O532 Mg530 1.936 . S
O532 Mg531 1.963 . S
O532 Mg533 1.915 . S
Mg533 O532 1.915 . S
Mg533 O534 1.915 . S
Mg533 O538 2.013 . S
Mg533 O544 2.114 . S
Mg533 O548 2.013 . S
Mg533 O554 2.114 . S
O534 Mg533 1.915 . S
O534 Mg535 1.936 . S
O534 Mg536 1.963 . S
Mg535 O534 1.936 . S
Mg535 O544 2.291 . S
Mg535 O549 2.081 . S
Mg535 O551 2.023 . S
Mg535 O555 2.031 . S
Mg536 O534 1.963 . S
Mg536 O540 1.986 . S
Mg536 O552 1.942 . S
Mg536 O553 1.955 . S
C537 O548 1.191 . S
C537 O550 1.307 . S
O538 Mg533 2.013 . S
O538 C557 1.191 . S
O539 Mg530 2.081 . S
O539 C547 1.331 . S
O540 Mg536 1.986 . S
O540 C557 1.307 . S
O541 Mg530 2.023 . S
O541 C556 1.264 . S
O542 Mg531 1.942 . S
O542 C547 1.244 . S
O543 Mg531 1.955 . S
O543 C556 1.273 . S
O544 Mg533 2.114 . S
O544 Mg535 2.291 . S
O544 C546 1.312 . S
O545 Mg530 2.031 . S
O545 C546 1.208 . S
C546 O544 1.312 . S
C546 O545 1.208 . S
C547 O539 1.331 . S
C547 O542 1.244 . S
O548 Mg533 2.013 . S
O548 C537 1.191 . S
O549 C528 1.331 . S
O549 Mg535 2.081 . S
O550 Mg531 1.986 . S
O550 C537 1.307 . S
O551 C529 1.264 . S
O551 Mg535 2.023 . S
O552 C528 1.244 . S
O552 Mg536 1.942 . S
O553 C529 1.273 . S
O553 Mg536 1.955 . S
O554 C527 1.312 . S
O554 Mg530 2.291 . S
O554 Mg533 2.114 . S
O555 C527 1.208 . S
O555 Mg535 2.031 . S
C556 O541 1.264 . S
C556 O543 1.273 . S
C557 O538 1.191 . S
C557 O540 1.307 . S
C558 O585 1.312 . S
C558 O586 1.208 . S
C559 O580 1.331 . S
C559 O583 1.244 . S
C560 O582 1.264 . S
C560 O584 1.273 . S
Mg561 O563 1.936 . S
Mg561 O570 2.081 . S
Mg561 O572 2.023 . S
Mg561 O576 2.031 . S
Mg561 O585 2.291 . S
Mg562 O563 1.963 . S
Mg562 O573 1.942 . S
Mg562 O574 1.955 . S
Mg562 O581 1.986 . S
O563 Mg561 1.936 . S
O563 Mg562 1.963 . S
O563 Mg564 1.915 . S
Mg564 O563 1.915 . S
Mg564 O565 1.915 . S
Mg564 O569 2.013 . S
Mg564 O575 2.114 . S
Mg564 O579 2.013 . S
Mg564 O585 2.114 . S
O565 Mg564 1.915 . S
O565 Mg566 1.936 . S
O565 Mg567 1.963 . S
Mg566 O565 1.936 . S
Mg566 O575 2.291 . S
Mg566 O580 2.081 . S
Mg566 O582 2.023 . S
Mg566 O586 2.031 . S
Mg567 O565 1.963 . S
Mg567 O571 1.986 . S
Mg567 O583 1.942 . S
Mg567 O584 1.955 . S
C568 O579 1.191 . S
C568 O581 1.307 . S
O569 Mg564 2.013 . S
O569 C588 1.191 . S
O570 Mg561 2.081 . S
O570 C578 1.331 . S
O571 Mg567 1.986 . S
O571 C588 1.307 . S
O572 Mg561 2.023 . S
O572 C587 1.264 . S
O573 Mg562 1.942 . S
O573 C578 1.244 . S
O574 Mg562 1.955 . S
O574 C587 1.273 . S
O575 Mg564 2.114 . S
O575 Mg566 2.291 . S
O575 C577 1.312 . S
O576 Mg561 2.031 . S
O576 C577 1.208 . S
C577 O575 1.312 . S
C577 O576 1.208 . S
C578 O570 1.331 . S
C578 O573 1.244 . S
O579 Mg564 2.013 . S
O579 C568 1.191 . S
O580 C559 1.331 . S
O580 Mg566 2.081 . S
O581 Mg562 1.986 . S
O581 C568 1.307 . S
O582 C560 1.264 . S
O582 Mg566 2.023 . S
O583 C559 1.244 . S
O583 Mg567 1.942 . S
O584 C560 1.273 . S
O584 Mg567 1.955 . S
O585 C558 1.312 . S
O585 Mg561 2.291 . S
O585 Mg564 2.114 . S
O586 C558 1.208 . S
O586 Mg566 2.031 . S
C587 O572 1.264 . S
C587 O574 1.273 . S
C588 O569 1.191 . S
C588 O571 1.307 . S
C589 O616 1.312 . S
C589 O617 1.208 . S
C590 O611 1.331 . S
C590 O614 1.244 . S
C591 O613 1.264 . S
C591 O615 1.273 . S
Mg592 O594 1.936 . S
Mg592 O601 2.081 . S
Mg592 O603 2.023 . S
Mg592 O607 2.031 . S
Mg592 O616 2.291 . S
Mg593 O594 1.963 . S
Mg593 O604 1.942 . S
Mg593 O605 1.955 . S
Mg593 O612 1.986 . S
O594 Mg592 1.936 . S
O594 Mg593 1.963 . S
O594 Mg595 1.915 . S
Mg595 O594 1.915 . S
Mg595 O596 1.915 . S
Mg595 O600 2.013 . S
Mg595 O606 2.114 . S
Mg595 O610 2.013 . S
Mg595 O616 2.114 . S
O596 Mg595 1.915 . S
O596 Mg597 1.936 . S
O596 Mg598 1.963 . S
Mg597 O596 1.936 . S
Mg597 O606 2.291 . S
Mg597 O611 2.081 . S
Mg597 O613 2.023 . S
Mg597 O617 2.031 . S
Mg598 O596 1.963 . S
Mg598 O602 1.986 . S
Mg598 O614 1.942 . S
Mg598 O615 1.955 . S
C599 O610 1.191 . S
C599 O612 1.307 . S
O600 Mg595 2.013 . S
O600 C619 1.191 . S
O601 Mg592 2.081 . S
O601 C609 1.331 . S
O602 Mg598 1.986 . S
O602 C619 1.307 . S
O603 Mg592 2.023 . S
O603 C618 1.264 . S
O604 Mg593 1.942 . S
O604 C609 1.244 . S
O605 Mg593 1.955 . S
O605 C618 1.273 . S
O606 Mg595 2.114 . S
O606 Mg597 2.291 . S
O606 C608 1.312 . S
O607 Mg592 2.031 . S
O607 C608 1.208 . S
C608 O606 1.312 . S
C608 O607 1.208 . S
C609 O601 1.331 . S
C609 O604 1.244 . S
O610 Mg595 2.013 . S
O610 C599 1.191 . S
O611 C590 1.331 . S
O611 Mg597 2.081 . S
O612 Mg593 1.986 . S
O612 C599 1.307 . S
O613 C591 1.264 . S
O613 Mg597 2.023 . S
O614 C590 1.244 . S
O614 Mg598 1.942 . S
O615 C591 1.273 . S
O615 Mg598 1.955 . S
O616 C589 1.312 . S
O616 Mg592 2.291 . S
O616 Mg595 2.114 . S
O617 C589 1.208 . S
O617 Mg597 2.031 . S
C618 O603 1.264 . S
C618 O605 1.273 . S
C619 O600 1.191 . S
C619 O602 1.307 . S
C620 O647 1.312 . S
C620 O648 1.208 . S
C621 O642 1.331 . S
C621 O645 1.244 . S
C622 O644 1.264 . S
C622 O646 1.273 . S
Mg623 O625 1.936 . S
Mg623 O632 2.081 . S
Mg623 O634 2.023 . S
Mg623 O638 2.031 . S
Mg623 O647 2.291 . S
Mg624 O625 1.963 . S
Mg624 O635 1.942 . S
Mg624 O636 1.955 . S
Mg624 O643 1.986 . S
O625 Mg623 1.936 . S
O625 Mg624 1.963 . S
O625 Mg626 1.915 . S
Mg626 O625 1.915 . S
Mg626 O627 1.915 . S
Mg626 O631 2.013 . S
Mg626 O637 2.114 . S
Mg626 O641 2.013 . S
Mg626 O647 2.114 . S
O627 Mg626 1.915 . S
O627 Mg628 1.936 . S
O627 Mg629 1.963 . S
Mg628 O627 1.936 . S
Mg628 O637 2.291 . S
Mg628 O642 2.081 . S
Mg628 O644 2.023 . S
Mg628 O648 2.031 . S
Mg629 O627 1.963 . S
Mg629 O633 1.986 . S
Mg629 O645 1.942 . S
Mg629 O646 1.955 . S
C630 O641 1.191 . S
C630 O643 1.307 . S
O631 Mg626 2.013 . S
O631 C650 1.191 . S
O632 Mg623 2.081 . S
O632 C640 1.331 . S
O633 Mg629 1.986 . S
O633 C650 1.307 . S
O634 Mg623 2.023 . S
O634 C649 1.264 . S
O635 Mg624 1.942 . S
O635 C640 1.244 . S
O636 Mg624 1.955 . S
O636 C649 1.273 . S
O637 Mg626 2.114 . S
O637 Mg628 2.291 . S
O637 C639 1.312 . S
O638 Mg623 2.031 . S
O638 C639 1.208 . S
C639 O637 1.312 . S
C639 O638 1.208 . S
C640 O632 1.331 . S
C640 O635 1.244 . S
O641 Mg626 2.013 . S
O641 C630 1.191 . S
O642 C621 1.331 . S
O642 Mg628 2.081 . S
O643 Mg624 1.986 . S
O643 C630 1.307 . S
O644 C622 1.264 . S
O644 Mg628 2.023 . S
O645 C621 1.244 . S
O645 Mg629 1.942 . S
O646 C622 1.273 . S
O646 Mg629 1.955 . S
O647 C620 1.312 . S
O647 Mg623 2.291 . S
O647 Mg626 2.114 . S
O648 C620 1.208 . S
O648 Mg628 2.031 . S
C649 O634 1.264 . S
C649 O636 1.273 . S
C650 O631 1.191 . S
C650 O633 1.307 . S
C651 O678 1.312 . S
C651 O679 1.208 . S
C652 O673 1.331 . S
C652 O676 1.244 . S
C653 O675 1.264 . S
C653 O677 1.273 . S
Mg654 O656 1.936 . S
Mg654 O663 2.081 . S
Mg654 O665 2.023 . S
Mg654 O669 2.031 . S
Mg654 O678 2.291 . S
Mg655 O656 1.963 . S
Mg655 O666 1.942 . S
Mg655 O667 1.955 . S
Mg655 O674 1.986 . S
O656 Mg654 1.936 . S
O656 Mg655 1.963 . S
O656 Mg657 1.915 . S
Mg657 O656 1.915 . S
Mg657 O658 1.915 . S
Mg657 O662 2.013 . S
Mg657 O668 2.114 . S
Mg657 O672 2.013 . S
Mg657 O678 2.114 . S
O658 Mg657 1.915 . S
O658 Mg659 1.936 . S
O658 Mg660 1.963 . S
Mg659 O658 1.936 . S
Mg659 O668 2.291 . S
Mg659 O673 2.081 . S
Mg659 O675 2.023 . S
Mg659 O679 2.031 . S
Mg660 O658 1.963 . S
Mg660 O664 1.986 . S
Mg660 O676 1.942 . S
Mg660 O677 1.955 . S
C661 O672 1.191 . S
C661 O674 1.307 . S
O662 Mg657 2.013 . S
O662 C681 1.191 . S
O663 Mg654 2.081 . S
O663 C671 1.331 . S
O664 Mg660 1.986 . S
O664 C681 1.307 . S
O665 Mg654 2.023 . S
O665 C680 1.264 . S
O666 Mg655 1.942 . S
O666 C671 1.244 . S
O667 Mg655 1.955 . S
O667 C680 1.273 . S
O668 Mg657 2.114 . S
O668 Mg659 2.291 . S
O668 C670 1.312 . S
O669 Mg654 2.031 . S
O669 C670 1.208 . S
C670 O668 1.312 . S
C670 O669 1.208 . S
C671 O663 1.331 . S
C671 O666 1.244 . S
O672 Mg657 2.013 . S
O672 C661 1.191 . S
O673 C652 1.331 . S
O673 Mg659 2.081 . S
O674 Mg655 1.986 . S
O674 C661 1.307 . S
O675 C653 1.264 . S
O675 Mg659 2.023 . S
O676 C652 1.244 . S
O676 Mg660 1.942 . S
O677 C653 1.273 . S
O677 Mg660 1.955 . S
O678 C651 1.312 . S
O678 Mg654 2.291 . S
O678 Mg657 2.114 . S
O679 C651 1.208 . S
O679 Mg659 2.031 . S
C680 O665 1.264 . S
C680 O667 1.273 . S
C681 O662 1.191 . S
C681 O664 1.307 . S
C682 O709 1.312 . S
C682 O710 1.208 . S
C683 O704 1.331 . S
C683 O707 1.244 . S
C684 O706 1.264 . S
C684 O708 1.273 . S
Mg685 O687 1.936 . S
Mg685 O694 2.081 . S
Mg685 O696 2.023 . S
Mg685 O700 2.031 . S
Mg685 O709 2.291 . S
Mg686 O687 1.963 . S
Mg686 O697 1.942 . S
Mg686 O698 1.955 . S
Mg686 O705 1.986 . S
O687 Mg685 1.936 . S
O687 Mg686 1.963 . S
O687 Mg688 1.915 . S
Mg688 O687 1.915 . S
Mg688 O689 1.915 . S
Mg688 O693 2.013 . S
Mg688 O699 2.114 . S
Mg688 O703 2.013 . S
Mg688 O709 2.114 . S
O689 Mg688 1.915 . S
O689 Mg690 1.936 . S
O689 Mg691 1.963 . S
Mg690 O689 1.936 . S
Mg690 O699 2.291 . S
Mg690 O704 2.081 . S
Mg690 O706 2.023 . S
Mg690 O710 2.031 . S
Mg691 O689 1.963 . S
Mg691 O695 1.986 . S
Mg691 O707 1.942 . S
Mg691 O708 1.955 . S
C692 O703 1.191 . S
C692 O705 1.307 . S
O693 Mg688 2.013 . S
O693 C712 1.191 . S
O694 Mg685 2.081 . S
O694 C702 1.331 . S
O695 Mg691 1.986 . S
O695 C712 1.307 . S
O696 Mg685 2.023 . S
O696 C711 1.264 . S
O697 Mg686 1.942 . S
O697 C702 1.244 . S
O698 Mg686 1.955 . S
O698 C711 1.273 . S
O699 Mg688 2.114 . S
O699 Mg690 2.291 . S
O699 C701 1.312 . S
O700 Mg685 2.031 . S
O700 C701 1.208 . S
C701 O699 1.312 . S
C701 O700 1.208 . S
C702 O694 1.331 . S
C702 O697 1.244 . S
O703 Mg688 2.013 . S
O703 C692 1.191 . S
O704 C683 1.331 . S
O704 Mg690 2.081 . S
O705 Mg686 1.986 . S
O705 C692 1.307 . S
O706 C684 1.264 . S
O706 Mg690 2.023 . S
O707 C683 1.244 . S
O707 Mg691 1.942 . S
O708 C684 1.273 . S
O708 Mg691 1.955 . S
O709 C682 1.312 . S
O709 Mg685 2.291 . S
O709 Mg688 2.114 . S
O710 C682 1.208 . S
O710 Mg690 2.031 . S
C711 O696 1.264 . S
C711 O698 1.273 . S
C712 O693 1.191 . S
C712 O695 1.307 . S
C713 O740 1.312 . S
C713 O741 1.208 . S
C714 O735 1.331 . S
C714 O738 1.244 . S
C715 O737 1.264 . S
C715 O739 1.273 . S
Mg716 O718 1.936 . S
Mg716 O725 2.081 . S
Mg716 O727 2.023 . S
Mg716 O731 2.031 . S
Mg716 O740 2.291 . S
Mg717 O718 1.963 . S
Mg717 O728 1.942 . S
Mg717 O729 1.955 . S
Mg717 O736 1.986 . S
O718 Mg716 1.936 . S
O718 Mg717 1.963 . S
O718 Mg719 1.915 . S
Mg719 O718 1.915 . S
Mg719 O720 1.915 . S
Mg719 O724 2.013 . S
Mg719 O730 2.114 . S
Mg719 O734 2.013 . S
Mg719 O740 2.114 . S
O720 Mg719 1.915 . S
O720 Mg721 1.936 . S
O720 Mg722 1.963 . S
Mg721 O720 1.936 . S
Mg721 O730 2.291 . S
Mg721 O735 2.081 . S
Mg721 O737 2.023 . S
Mg721 O741 2.031 . S
Mg722 O720 1.963 . S
Mg722 O726 1.986 . S
Mg722 O738 1.942 . S
Mg722 O739 1.955 . S
C723 O734 1.191 . S
C723 O736 1.307 . S
O724 Mg719 2.013 . S
O724 C743 1.191 . S
O725 Mg716 2.081 . S
O725 C733 1.331 . S
O726 Mg722 1.986 . S
O726 C743 1.307 . S
O727 Mg716 2.023 . S
O727 C742 1.264 . S
O728 Mg717 1.942 . S
O728 C733 1.244 . S
O729 Mg717 1.955 . S
O729 C742 1.273 . S
O730 Mg719 2.114 . S
O730 Mg721 2.291 . S
O730 C732 1.312 . S
O731 Mg716 2.031 . S
O731 C732 1.208 . S
C732 O730 1.312 . S
C732 O731 1.208 . S
C733 O725 1.331 . S
C733 O728 1.244 . S
O734 Mg719 2.013 . S
O734 C723 1.191 . S
O735 C714 1.331 . S
O735 Mg721 2.081 . S
O736 Mg717 1.986 . S
O736 C723 1.307 . S
O737 C715 1.264 . S
O737 Mg721 2.023 . S
O738 C714 1.244 . S
O738 Mg722 1.942 . S
O739 C715 1.273 . S
O739 Mg722 1.955 . S
O740 C713 1.312 . S
O740 Mg716 2.291 . S
O740 Mg719 2.114 . S
O741 C713 1.208 . S
O741 Mg721 2.031 . S
C742 O727 1.264 . S
C742 O729 1.273 . S
C743 O724 1.191 . S
C743 O726 1.307 . S
H744 C756 0.930 . S
H745 C758 0.930 . S
H746 C759 0.930 . S
H747 C763 0.959 . S
H748 C763 0.959 . S
H749 C763 0.961 . S
H750 C764 0.960 . S
H751 C764 0.961 . S
H752 C764 0.959 . S
H753 C767 0.929 . S
H754 C768 0.931 . S
H755 C770 0.930 . S
C756 H744 0.930 . S
C756 C757 1.399 . S
C756 C761 1.399 . S
C757 C756 1.399 . S
C757 C758 1.376 . S
C758 H745 0.930 . S
C758 C757 1.376 . S
C758 C759 1.388 . S
C759 H746 0.930 . S
C759 C758 1.388 . S
C759 C760 1.390 . S
C760 C759 1.390 . S
C760 C761 1.394 . S
C760 C766 1.465 . S
C761 C756 1.399 . S
C761 C760 1.394 . S
C761 C762 1.516 . S
C762 C761 1.516 . S
C762 C763 1.502 . S
C762 C764 1.561 . S
C762 C765 1.526 . S
C763 H747 0.959 . S
C763 H748 0.959 . S
C763 H749 0.961 . S
C763 C762 1.502 . S
C764 H750 0.960 . S
C764 H751 0.961 . S
C764 H752 0.959 . S
C764 C762 1.561 . S
C765 C762 1.526 . S
C765 C766 1.396 . S
C765 C770 1.390 . S
C766 C760 1.465 . S
C766 C765 1.396 . S
C766 C767 1.399 . S
C767 H753 0.929 . S
C767 C766 1.399 . S
C767 C768 1.385 . S
C768 H754 0.931 . S
C768 C767 1.385 . S
C768 C769 1.389 . S
C769 C768 1.389 . S
C769 C770 1.387 . S
C770 H755 0.930 . S
C770 C765 1.390 . S
C770 C769 1.387 . S
H771 C783 0.930 . S
H772 C785 0.930 . S
H773 C786 0.930 . S
H774 C790 0.959 . S
H775 C790 0.959 . S
H776 C790 0.961 . S
H777 C791 0.960 . S
H778 C791 0.961 . S
H779 C791 0.959 . S
H780 C794 0.929 1_655 S
H781 C795 0.931 . S
H782 C797 0.930 . S
C783 H771 0.930 . S
C783 C784 1.399 1_455 S
C783 C788 1.399 . S
C784 C783 1.399 1_655 S
C784 C785 1.376 . S
C785 H772 0.930 . S
C785 C784 1.376 . S
C785 C786 1.388 . S
C786 H773 0.930 . S
C786 C785 1.388 . S
C786 C787 1.390 1_655 S
C787 C786 1.390 1_455 S
C787 C788 1.394 . S
C787 C793 1.465 . S
C788 C783 1.399 . S
C788 C787 1.394 . S
C788 C789 1.516 . S
C789 C788 1.516 . S
C789 C790 1.502 . S
C789 C791 1.561 . S
C789 C792 1.526 . S
C790 H774 0.959 . S
C790 H775 0.959 . S
C790 H776 0.961 . S
C790 C789 1.502 . S
C791 H777 0.960 . S
C791 H778 0.961 . S
C791 H779 0.959 . S
C791 C789 1.561 . S
C792 C789 1.526 . S
C792 C793 1.396 . S
C792 C797 1.390 . S
C793 C787 1.465 . S
C793 C792 1.396 . S
C793 C794 1.399 1_565 S
C794 H780 0.929 1_455 S
C794 C793 1.399 1_545 S
C794 C795 1.385 . S
C795 H781 0.931 . S
C795 C794 1.385 . S
C795 C796 1.389 . S
C796 C795 1.389 . S
C796 C797 1.387 1_545 S
C797 H782 0.930 . S
C797 C792 1.390 . S
C797 C796 1.387 1_565 S
H798 C810 0.930 . S
H799 C812 0.930 . S
H800 C813 0.930 . S
H801 C817 0.959 . S
H802 C817 0.959 . S
H803 C817 0.961 . S
H804 C818 0.960 . S
H805 C818 0.961 . S
H806 C818 0.959 . S
H807 C821 0.929 . S
H808 C822 0.931 . S
H809 C824 0.930 . S
C810 H798 0.930 . S
C810 C811 1.399 . S
C810 C815 1.399 . S
C811 C810 1.399 . S
C811 C812 1.376 . S
C812 H799 0.930 . S
C812 C811 1.376 . S
C812 C813 1.388 . S
C813 H800 0.930 . S
C813 C812 1.388 . S
C813 C814 1.390 . S
C814 C813 1.390 . S
C814 C815 1.394 . S
C814 C820 1.465 . S
C815 C810 1.399 . S
C815 C814 1.394 . S
C815 C816 1.516 . S
C816 C815 1.516 . S
C816 C817 1.502 . S
C816 C818 1.561 . S
C816 C819 1.526 . S
C817 H801 0.959 . S
C817 H802 0.959 . S
C817 H803 0.961 . S
C817 C816 1.502 . S
C818 H804 0.960 . S
C818 H805 0.961 . S
C818 H806 0.959 . S
C818 C816 1.561 . S
C819 C816 1.526 . S
C819 C820 1.396 . S
C819 C824 1.390 . S
C820 C814 1.465 . S
C820 C819 1.396 . S
C820 C821 1.399 . S
C821 H807 0.929 . S
C821 C820 1.399 . S
C821 C822 1.385 . S
C822 H808 0.931 . S
C822 C821 1.385 . S
C822 C823 1.389 . S
C823 C822 1.389 . S
C823 C824 1.387 . S
C824 H809 0.930 . S
C824 C819 1.390 . S
C824 C823 1.387 . S
H825 C837 0.930 . S
H826 C839 0.930 . S
H827 C840 0.930 . S
H828 C844 0.959 . S
H829 C844 0.959 . S
H830 C844 0.961 1_565 S
H831 C845 0.960 . S
H832 C845 0.961 . S
H833 C845 0.959 . S
H834 C848 0.929 . S
H835 C849 0.931 . S
H836 C851 0.930 . S
C837 H825 0.930 . S
C837 C838 1.399 . S
C837 C842 1.399 1_565 S
C838 C837 1.399 . S
C838 C839 1.376 . S
C839 H826 0.930 . S
C839 C838 1.376 . S
C839 C840 1.388 1_565 S
C840 H827 0.930 . S
C840 C839 1.388 1_545 S
C840 C841 1.390 . S
C841 C840 1.390 . S
C841 C842 1.394 . S
C841 C847 1.465 . S
C842 C837 1.399 1_545 S
C842 C841 1.394 . S
C842 C843 1.516 . S
C843 C842 1.516 . S
C843 C844 1.502 . S
C843 C845 1.561 . S
C843 C846 1.526 . S
C844 H828 0.959 . S
C844 H829 0.959 . S
C844 H830 0.961 1_545 S
C844 C843 1.502 . S
C845 H831 0.960 . S
C845 H832 0.961 . S
C845 H833 0.959 . S
C845 C843 1.561 . S
C846 C843 1.526 . S
C846 C847 1.396 . S
C846 C851 1.390 . S
C847 C841 1.465 . S
C847 C846 1.396 . S
C847 C848 1.399 . S
C848 H834 0.929 . S
C848 C847 1.399 . S
C848 C849 1.385 . S
C849 H835 0.931 . S
C849 C848 1.385 . S
C849 C850 1.389 . S
C850 C849 1.389 . S
C850 C851 1.387 . S
C851 H836 0.930 . S
C851 C846 1.390 . S
C851 C850 1.387 . S
H852 C864 0.930 . S
H853 C866 0.930 . S
H854 C867 0.930 . S
H855 C871 0.959 . S
H856 C871 0.959 . S
H857 C871 0.961 . S
H858 C872 0.960 . S
H859 C872 0.961 . S
H860 C872 0.959 . S
H861 C875 0.929 . S
H862 C876 0.931 . S
H863 C878 0.930 . S
C864 H852 0.930 . S
C864 C865 1.399 . S
C864 C869 1.399 . S
C865 C864 1.399 . S
C865 C866 1.376 . S
C866 H853 0.930 . S
C866 C865 1.376 . S
C866 C867 1.388 . S
C867 H854 0.930 . S
C867 C866 1.388 . S
C867 C868 1.390 . S
C868 C867 1.390 . S
C868 C869 1.394 . S
C868 C874 1.465 . S
C869 C864 1.399 . S
C869 C868 1.394 . S
C869 C870 1.516 . S
C870 C869 1.516 . S
C870 C871 1.502 . S
C870 C872 1.561 . S
C870 C873 1.526 . S
C871 H855 0.959 . S
C871 H856 0.959 . S
C871 H857 0.961 . S
C871 C870 1.502 . S
C872 H858 0.960 . S
C872 H859 0.961 . S
C872 H860 0.959 . S
C872 C870 1.561 . S
C873 C870 1.526 . S
C873 C874 1.396 . S
C873 C878 1.390 . S
C874 C868 1.465 . S
C874 C873 1.396 . S
C874 C875 1.399 . S
C875 H861 0.929 . S
C875 C874 1.399 . S
C875 C876 1.385 . S
C876 H862 0.931 . S
C876 C875 1.385 . S
C876 C877 1.389 . S
C877 C876 1.389 . S
C877 C878 1.387 . S
C878 H863 0.930 . S
C878 C873 1.390 . S
C878 C877 1.387 . S
H879 C891 0.930 . S
H880 C893 0.930 . S
H881 C894 0.930 . S
H882 C898 0.959 . S
H883 C898 0.959 . S
H884 C898 0.961 . S
H885 C899 0.960 . S
H886 C899 0.961 . S
H887 C899 0.959 . S
H888 C902 0.929 . S
H889 C903 0.931 . S
H890 C905 0.930 . S
C891 H879 0.930 . S
C891 C892 1.399 . S
C891 C896 1.399 . S
C892 C891 1.399 . S
C892 C893 1.376 . S
C893 H880 0.930 . S
C893 C892 1.376 . S
C893 C894 1.388 . S
C894 H881 0.930 . S
C894 C893 1.388 . S
C894 C895 1.390 . S
C895 C894 1.390 . S
C895 C896 1.394 . S
C895 C901 1.465 . S
C896 C891 1.399 . S
C896 C895 1.394 . S
C896 C897 1.516 . S
C897 C896 1.516 . S
C897 C898 1.502 . S
C897 C899 1.561 . S
C897 C900 1.526 . S
C898 H882 0.959 . S
C898 H883 0.959 . S
C898 H884 0.961 . S
C898 C897 1.502 . S
C899 H885 0.960 . S
C899 H886 0.961 . S
C899 H887 0.959 . S
C899 C897 1.561 . S
C900 C897 1.526 . S
C900 C901 1.396 . S
C900 C905 1.390 . S
C901 C895 1.465 . S
C901 C900 1.396 . S
C901 C902 1.399 1_565 S
C902 H888 0.929 . S
C902 C901 1.399 1_545 S
C902 C903 1.385 . S
C903 H889 0.931 . S
C903 C902 1.385 . S
C903 C904 1.389 . S
C904 C903 1.389 . S
C904 C905 1.387 1_545 S
C905 H890 0.930 . S
C905 C900 1.390 . S
C905 C904 1.387 1_565 S
H906 C918 0.930 . S
H907 C920 0.930 . S
H908 C921 0.930 . S
H909 C925 0.959 . S
H910 C925 0.959 . S
H911 C925 0.961 . S
H912 C926 0.960 . S
H913 C926 0.961 . S
H914 C926 0.959 . S
H915 C929 0.929 . S
H916 C930 0.931 . S
H917 C932 0.930 . S
C918 H906 0.930 . S
C918 C919 1.399 . S
C918 C923 1.399 . S
C919 C918 1.399 . S
C919 C920 1.376 . S
C920 H907 0.930 . S
C920 C919 1.376 . S
C920 C921 1.388 . S
C921 H908 0.930 . S
C921 C920 1.388 . S
C921 C922 1.390 . S
C922 C921 1.390 . S
C922 C923 1.394 . S
C922 C928 1.465 . S
C923 C918 1.399 . S
C923 C922 1.394 . S
C923 C924 1.516 . S
C924 C923 1.516 . S
C924 C925 1.502 . S
C924 C926 1.561 . S
C924 C927 1.526 . S
C925 H909 0.959 . S
C925 H910 0.959 . S
C925 H911 0.961 . S
C925 C924 1.502 . S
C926 H912 0.960 . S
C926 H913 0.961 . S
C926 H914 0.959 . S
C926 C924 1.561 . S
C927 C924 1.526 . S
C927 C928 1.396 . S
C927 C932 1.390 . S
C928 C922 1.465 . S
C928 C927 1.396 . S
C928 C929 1.399 . S
C929 H915 0.929 . S
C929 C928 1.399 . S
C929 C930 1.385 . S
C930 H916 0.931 . S
C930 C929 1.385 . S
C930 C931 1.389 . S
C931 C930 1.389 . S
C931 C932 1.387 . S
C932 H917 0.930 . S
C932 C927 1.390 . S
C932 C931 1.387 . S
H933 C945 0.930 . S
H934 C947 0.930 . S
H935 C948 0.893 1_655 S
H936 C952 0.959 . S
H937 C952 0.959 . S
H938 C952 0.961 . S
H939 C953 0.960 . S
H940 C953 0.961 . S
H941 C953 0.959 . S
H942 C956 0.929 . S
H943 C957 0.931 . S
H944 C959 0.930 . S
C945 H933 0.930 . S
C945 C946 1.399 1_545 S
C945 C950 1.399 . S
C946 C945 1.399 1_565 S
C946 C947 1.376 . S
C947 H934 0.930 . S
C947 C946 1.376 . S
C947 C948 1.388 . S
C948 H935 0.893 1_455 S
C948 C947 1.388 . S
C948 C949 1.390 1_565 S
C949 C948 1.390 1_545 S
C949 C950 1.394 . S
C949 C955 1.465 . S
C950 C945 1.399 . S
C950 C949 1.394 . S
C950 C951 1.516 . S
C951 C950 1.516 . S
C951 C952 1.502 . S
C951 C953 1.561 . S
C951 C954 1.526 . S
C952 H936 0.959 . S
C952 H937 0.959 . S
C952 H938 0.961 . S
C952 C951 1.502 . S
C953 H939 0.960 . S
C953 H940 0.961 . S
C953 H941 0.959 . S
C953 C951 1.561 . S
C954 C951 1.526 . S
C954 C955 1.396 . S
C954 C959 1.390 . S
C955 C949 1.465 . S
C955 C954 1.396 . S
C955 C956 1.399 1_455 S
C956 H942 0.929 . S
C956 C955 1.399 1_655 S
C956 C957 1.385 . S
C957 H943 0.931 . S
C957 C956 1.385 . S
C957 C958 1.389 . S
C958 C957 1.389 . S
C958 C959 1.387 1_655 S
C959 H944 0.930 . S
C959 C954 1.390 . S
C959 C958 1.387 1_455 S
H960 C972 0.930 . S
H961 C974 0.930 . S
H962 C975 0.930 . S
H963 C979 0.959 . S
H964 C979 0.959 . S
H965 C979 0.961 . S
H966 C980 0.960 . S
H967 C980 0.961 . S
H968 C980 0.959 . S
H969 C983 0.929 . S
H970 C984 0.931 . S
H971 C986 0.930 . S
C972 H960 0.930 . S
C972 C973 1.399 . S
C972 C977 1.399 . S
C973 C972 1.399 . S
C973 C974 1.376 . S
C974 H961 0.930 . S
C974 C973 1.376 . S
C974 C975 1.388 . S
C975 H962 0.930 . S
C975 C974 1.388 . S
C975 C976 1.390 . S
C976 C975 1.390 . S
C976 C977 1.394 . S
C976 C982 1.465 . S
C977 C972 1.399 . S
C977 C976 1.394 . S
C977 C978 1.516 . S
C978 C977 1.516 . S
C978 C979 1.502 . S
C978 C980 1.561 . S
C978 C981 1.526 . S
C979 H963 0.959 . S
C979 H964 0.959 . S
C979 H965 0.961 . S
C979 C978 1.502 . S
C980 H966 0.960 . S
C980 H967 0.961 . S
C980 H968 0.959 . S
C980 C978 1.561 . S
C981 C978 1.526 . S
C981 C982 1.396 . S
C981 C986 1.390 . S
C982 C976 1.465 . S
C982 C981 1.396 . S
C982 C983 1.399 . S
C983 H969 0.929 . S
C983 C982 1.399 . S
C983 C984 1.385 . S
C984 H970 0.931 . S
C984 C983 1.385 . S
C984 C985 1.389 . S
C985 C984 1.389 . S
C985 C986 1.387 . S
C986 H971 0.930 . S
C986 C981 1.390 . S
C986 C985 1.387 . S
H987 C999 0.930 . S
H988 C1001 0.930 . S
H989 C1002 0.930 . S
H990 C1006 0.959 . S
H991 C1006 0.959 . S
H992 C1006 0.961 . S
H993 C1007 0.960 . S
H994 C1007 0.961 . S
H995 C1007 0.959 . S
H996 C1010 0.929 . S
H997 C1011 0.931 . S
H998 C1013 0.930 . S
C999 H987 0.930 . S
C999 C1000 1.399 . S
C999 C1004 1.399 . S
C1000 C999 1.399 . S
C1000 C1001 1.376 . S
C1001 H988 0.930 . S
C1001 C1000 1.376 . S
C1001 C1002 1.388 . S
C1002 H989 0.930 . S
C1002 C1001 1.388 . S
C1002 C1003 1.390 . S
C1003 C1002 1.390 . S
C1003 C1004 1.394 . S
C1003 C1009 1.465 . S
C1004 C999 1.399 . S
C1004 C1003 1.394 . S
C1004 C1005 1.516 . S
C1005 C1004 1.516 . S
C1005 C1006 1.502 . S
C1005 C1007 1.561 . S
C1005 C1008 1.526 . S
C1006 H990 0.959 . S
C1006 H991 0.959 . S
C1006 H992 0.961 . S
C1006 C1005 1.502 . S
C1007 H993 0.960 . S
C1007 H994 0.961 . S
C1007 H995 0.959 . S
C1007 C1005 1.561 . S
C1008 C1005 1.526 . S
C1008 C1009 1.396 . S
C1008 C1013 1.390 . S
C1009 C1003 1.465 . S
C1009 C1008 1.396 . S
C1009 C1010 1.399 1_455 S
C1010 H996 0.929 . S
C1010 C1009 1.399 1_655 S
C1010 C1011 1.385 . S
C1011 H997 0.931 . S
C1011 C1010 1.385 . S
C1011 C1012 1.389 . S
C1012 C1011 1.389 . S
C1012 C1013 1.387 1_655 S
C1013 H998 0.930 . S
C1013 C1008 1.390 . S
C1013 C1012 1.387 1_455 S
H1014 C1026 0.930 . S
H1015 C1028 0.930 . S
H1016 C1029 0.930 . S
H1017 C1033 0.959 . S
H1018 C1033 0.959 . S
H1019 C1033 0.961 . S
H1020 C1034 0.960 . S
H1021 C1034 0.961 . S
H1022 C1034 0.959 . S
H1023 C1037 0.929 . S
H1024 C1038 0.931 . S
H1025 C1040 0.930 . S
C1026 H1014 0.930 . S
C1026 C1027 1.399 . S
C1026 C1031 1.399 . S
C1027 C1026 1.399 . S
C1027 C1028 1.376 . S
C1028 H1015 0.930 . S
C1028 C1027 1.376 . S
C1028 C1029 1.388 . S
C1029 H1016 0.930 . S
C1029 C1028 1.388 . S
C1029 C1030 1.390 . S
C1030 C1029 1.390 . S
C1030 C1031 1.394 . S
C1030 C1036 1.465 . S
C1031 C1026 1.399 . S
C1031 C1030 1.394 . S
C1031 C1032 1.516 . S
C1032 C1031 1.516 . S
C1032 C1033 1.502 . S
C1032 C1034 1.561 . S
C1032 C1035 1.526 . S
C1033 H1017 0.959 . S
C1033 H1018 0.959 . S
C1033 H1019 0.961 . S
C1033 C1032 1.502 . S
C1034 H1020 0.960 . S
C1034 H1021 0.961 . S
C1034 H1022 0.959 . S
C1034 C1032 1.561 . S
C1035 C1032 1.526 . S
C1035 C1036 1.396 . S
C1035 C1040 1.390 . S
C1036 C1030 1.465 . S
C1036 C1035 1.396 . S
C1036 C1037 1.399 . S
C1037 H1023 0.929 . S
C1037 C1036 1.399 . S
C1037 C1038 1.385 . S
C1038 H1024 0.931 . S
C1038 C1037 1.385 . S
C1038 C1039 1.389 . S
C1039 C1038 1.389 . S
C1039 C1040 1.387 . S
C1040 H1025 0.930 . S
C1040 C1035 1.390 . S
C1040 C1039 1.387 . S
H1041 C1053 0.930 . S
H1042 C1055 0.930 . S
H1043 C1056 0.930 . S
H1044 C1060 0.959 . S
H1045 C1060 0.959 . S
H1046 C1060 0.961 . S
H1047 C1061 0.960 . S
H1048 C1061 0.961 . S
H1049 C1061 0.959 . S
H1050 C1064 0.929 . S
H1051 C1065 0.931 . S
H1052 C1067 0.930 . S
C1053 H1041 0.930 . S
C1053 C1054 1.399 . S
C1053 C1058 1.399 . S
C1054 C1053 1.399 . S
C1054 C1055 1.376 . S
C1055 H1042 0.930 . S
C1055 C1054 1.376 . S
C1055 C1056 1.388 . S
C1056 H1043 0.930 . S
C1056 C1055 1.388 . S
C1056 C1057 1.390 . S
C1057 C1056 1.390 . S
C1057 C1058 1.394 . S
C1057 C1063 1.465 . S
C1058 C1053 1.399 . S
C1058 C1057 1.394 . S
C1058 C1059 1.516 . S
C1059 C1058 1.516 . S
C1059 C1060 1.502 . S
C1059 C1061 1.561 . S
C1059 C1062 1.526 . S
C1060 H1044 0.959 . S
C1060 H1045 0.959 . S
C1060 H1046 0.961 . S
C1060 C1059 1.502 . S
C1061 H1047 0.960 . S
C1061 H1048 0.961 . S
C1061 H1049 0.959 . S
C1061 C1059 1.561 . S
C1062 C1059 1.526 . S
C1062 C1063 1.396 . S
C1062 C1067 1.390 . S
C1063 C1057 1.465 . S
C1063 C1062 1.396 . S
C1063 C1064 1.399 1_556 S
C1064 H1050 0.929 . S
C1064 C1063 1.399 1_554 S
C1064 C1065 1.385 . S
C1065 H1051 0.931 . S
C1065 C1064 1.385 . S
C1065 C1066 1.389 . S
C1066 C1065 1.389 . S
C1066 C1067 1.387 1_554 S
C1067 H1052 0.930 . S
C1067 C1062 1.390 . S
C1067 C1066 1.387 1_556 S
H1068 C1080 0.930 . S
H1069 C1082 0.930 . S
H1070 C1083 0.930 . S
H1071 C1087 0.959 . S
H1072 C1087 0.959 . S
H1073 C1087 0.961 . S
H1074 C1088 0.960 . S
H1075 C1088 0.961 . S
H1076 C1088 0.959 . S
H1077 C1091 0.929 . S
H1078 C1092 0.931 . S
H1079 C1094 0.930 . S
C1080 H1068 0.930 . S
C1080 C1081 1.399 . S
C1080 C1085 1.399 . S
C1081 C1080 1.399 . S
C1081 C1082 1.376 . S
C1082 H1069 0.930 . S
C1082 C1081 1.376 . S
C1082 C1083 1.388 . S
C1083 H1070 0.930 . S
C1083 C1082 1.388 . S
C1083 C1084 1.390 . S
C1084 C1083 1.390 . S
C1084 C1085 1.394 . S
C1084 C1090 1.465 . S
C1085 C1080 1.399 . S
C1085 C1084 1.394 . S
C1085 C1086 1.516 . S
C1086 C1085 1.516 . S
C1086 C1087 1.502 . S
C1086 C1088 1.561 . S
C1086 C1089 1.526 . S
C1087 H1071 0.959 . S
C1087 H1072 0.959 . S
C1087 H1073 0.961 . S
C1087 C1086 1.502 . S
C1088 H1074 0.960 . S
C1088 H1075 0.961 . S
C1088 H1076 0.959 . S
C1088 C1086 1.561 . S
C1089 C1086 1.526 . S
C1089 C1090 1.396 . S
C1089 C1094 1.390 . S
C1090 C1084 1.465 . S
C1090 C1089 1.396 . S
C1090 C1091 1.399 . S
C1091 H1077 0.929 . S
C1091 C1090 1.399 . S
C1091 C1092 1.385 . S
C1092 H1078 0.931 . S
C1092 C1091 1.385 . S
C1092 C1093 1.389 . S
C1093 C1092 1.389 . S
C1093 C1094 1.387 . S
C1094 H1079 0.930 . S
C1094 C1089 1.390 . S
C1094 C1093 1.387 . S
H1095 C1107 0.930 . S
H1096 C1109 0.930 . S
H1097 C1110 0.930 . S
H1098 C1114 0.959 . S
H1099 C1114 0.959 . S
H1100 C1114 0.961 . S
H1101 C1115 0.960 . S
H1102 C1115 0.961 . S
H1103 C1115 0.959 . S
H1104 C1118 0.929 . S
H1105 C1119 0.931 . S
H1106 C1121 0.930 . S
C1107 H1095 0.930 . S
C1107 C1108 1.399 . S
C1107 C1112 1.399 . S
C1108 C1107 1.399 . S
C1108 C1109 1.376 . S
C1109 H1096 0.930 . S
C1109 C1108 1.376 . S
C1109 C1110 1.388 . S
C1110 H1097 0.930 . S
C1110 C1109 1.388 . S
C1110 C1111 1.390 . S
C1111 C1110 1.390 . S
C1111 C1112 1.394 . S
C1111 C1117 1.465 . S
C1112 C1107 1.399 . S
C1112 C1111 1.394 . S
C1112 C1113 1.516 . S
C1113 C1112 1.516 . S
C1113 C1114 1.502 . S
C1113 C1115 1.561 . S
C1113 C1116 1.526 . S
C1114 H1098 0.959 . S
C1114 H1099 0.959 . S
C1114 H1100 0.961 . S
C1114 C1113 1.502 . S
C1115 H1101 0.960 . S
C1115 H1102 0.961 . S
C1115 H1103 0.959 . S
C1115 C1113 1.561 . S
C1116 C1113 1.526 . S
C1116 C1117 1.396 . S
C1116 C1121 1.390 . S
C1117 C1111 1.465 . S
C1117 C1116 1.396 . S
C1117 C1118 1.399 . S
C1118 H1104 0.929 . S
C1118 C1117 1.399 . S
C1118 C1119 1.385 . S
C1119 H1105 0.931 . S
C1119 C1118 1.385 . S
C1119 C1120 1.389 . S
C1120 C1119 1.389 . S
C1120 C1121 1.387 . S
C1121 H1106 0.930 . S
C1121 C1116 1.390 . S
C1121 C1120 1.387 . S
H1122 C1134 0.930 . S
H1123 C1136 0.930 . S
H1124 C1137 0.930 . S
H1125 C1141 0.959 . S
H1126 C1141 0.959 . S
H1127 C1141 0.961 . S
H1128 C1142 0.960 . S
H1129 C1142 0.961 . S
H1130 C1142 0.959 . S
H1131 C1145 0.929 . S
H1132 C1146 0.931 . S
H1133 C1148 0.930 . S
C1134 H1122 0.930 . S
C1134 C1135 1.399 . S
C1134 C1139 1.399 . S
C1135 C1134 1.399 . S
C1135 C1136 1.376 . S
C1136 H1123 0.930 . S
C1136 C1135 1.376 . S
C1136 C1137 1.388 . S
C1137 H1124 0.930 . S
C1137 C1136 1.388 . S
C1137 C1138 1.390 . S
C1138 C1137 1.390 . S
C1138 C1139 1.394 . S
C1138 C1144 1.465 . S
C1139 C1134 1.399 . S
C1139 C1138 1.394 . S
C1139 C1140 1.516 . S
C1140 C1139 1.516 . S
C1140 C1141 1.502 . S
C1140 C1142 1.561 . S
C1140 C1143 1.526 . S
C1141 H1125 0.959 . S
C1141 H1126 0.959 . S
C1141 H1127 0.961 . S
C1141 C1140 1.502 . S
C1142 H1128 0.960 . S
C1142 H1129 0.961 . S
C1142 H1130 0.959 . S
C1142 C1140 1.561 . S
C1143 C1140 1.526 . S
C1143 C1144 1.396 . S
C1143 C1148 1.390 . S
C1144 C1138 1.465 . S
C1144 C1143 1.396 . S
C1144 C1145 1.399 . S
C1145 H1131 0.929 . S
C1145 C1144 1.399 . S
C1145 C1146 1.385 . S
C1146 H1132 0.931 . S
C1146 C1145 1.385 . S
C1146 C1147 1.389 . S
C1147 C1146 1.389 . S
C1147 C1148 1.387 . S
C1148 H1133 0.930 . S
C1148 C1143 1.390 . S
C1148 C1147 1.387 . S
H1149 C1161 0.930 . S
H1150 C1163 0.930 . S
H1151 C1164 0.949 . S
H1152 C1168 0.959 . S
H1153 C1168 0.959 . S
H1154 C1168 0.961 . S
H1155 C1169 0.960 . S
H1156 C1169 0.961 . S
H1157 C1169 0.959 . S
H1158 C1172 0.929 . S
H1159 C1173 0.931 . S
H1160 C1175 0.930 . S
C1161 H1149 0.930 . S
C1161 C1162 1.399 1_455 S
C1161 C1166 1.399 . S
C1162 C1161 1.399 1_655 S
C1162 C1163 1.376 . S
C1163 H1150 0.930 . S
C1163 C1162 1.376 . S
C1163 C1164 1.388 . S
C1164 H1151 0.949 . S
C1164 C1163 1.388 . S
C1164 C1165 1.390 1_655 S
C1165 C1164 1.390 1_455 S
C1165 C1166 1.394 . S
C1165 C1171 1.465 . S
C1166 C1161 1.399 . S
C1166 C1165 1.394 . S
C1166 C1167 1.516 . S
C1167 C1166 1.516 . S
C1167 C1168 1.502 . S
C1167 C1169 1.561 . S
C1167 C1170 1.526 . S
C1168 H1152 0.959 . S
C1168 H1153 0.959 . S
C1168 H1154 0.961 . S
C1168 C1167 1.502 . S
C1169 H1155 0.960 . S
C1169 H1156 0.961 . S
C1169 H1157 0.959 . S
C1169 C1167 1.561 . S
C1170 C1167 1.526 . S
C1170 C1171 1.396 . S
C1170 C1175 1.390 . S
C1171 C1165 1.465 . S
C1171 C1170 1.396 . S
C1171 C1172 1.399 1_554 S
C1172 H1158 0.929 . S
C1172 C1171 1.399 1_556 S
C1172 C1173 1.385 . S
C1173 H1159 0.931 . S
C1173 C1172 1.385 . S
C1173 C1174 1.389 . S
C1174 C1173 1.389 . S
C1174 C1175 1.387 1_556 S
C1175 H1160 0.930 . S
C1175 C1170 1.390 . S
C1175 C1174 1.387 1_554 S
H1176 C1188 0.930 . S
H1177 C1190 0.930 . S
H1178 C1191 0.930 . S
H1179 C1195 0.959 . S
H1180 C1195 0.959 . S
H1181 C1195 0.961 . S
H1182 C1196 0.960 . S
H1183 C1196 0.961 . S
H1184 C1196 0.959 . S
H1185 C1199 0.929 . S
H1186 C1200 0.931 . S
H1187 C1202 0.930 . S
C1188 H1176 0.930 . S
C1188 C1189 1.399 . S
C1188 C1193 1.399 . S
C1189 C1188 1.399 . S
C1189 C1190 1.376 . S
C1190 H1177 0.930 . S
C1190 C1189 1.376 . S
C1190 C1191 1.388 . S
C1191 H1178 0.930 . S
C1191 C1190 1.388 . S
C1191 C1192 1.390 . S
C1192 C1191 1.390 . S
C1192 C1193 1.394 . S
C1192 C1198 1.465 . S
C1193 C1188 1.399 . S
C1193 C1192 1.394 . S
C1193 C1194 1.516 . S
C1194 C1193 1.516 . S
C1194 C1195 1.502 . S
C1194 C1196 1.561 . S
C1194 C1197 1.526 . S
C1195 H1179 0.959 . S
C1195 H1180 0.959 . S
C1195 H1181 0.961 . S
C1195 C1194 1.502 . S
C1196 H1182 0.960 . S
C1196 H1183 0.961 . S
C1196 H1184 0.959 . S
C1196 C1194 1.561 . S
C1197 C1194 1.526 . S
C1197 C1198 1.396 . S
C1197 C1202 1.390 . S
C1198 C1192 1.465 . S
C1198 C1197 1.396 . S
C1198 C1199 1.399 . S
C1199 H1185 0.929 . S
C1199 C1198 1.399 . S
C1199 C1200 1.385 . S
C1200 H1186 0.931 . S
C1200 C1199 1.385 . S
C1200 C1201 1.389 . S
C1201 C1200 1.389 . S
C1201 C1202 1.387 . S
C1202 H1187 0.930 . S
C1202 C1197 1.390 . S
C1202 C1201 1.387 . S
H1203 C1215 0.930 . S
H1204 C1217 0.930 . S
H1205 C1218 0.930 . S
H1206 C1222 0.959 . S
H1207 C1222 0.959 . S
H1208 C1222 0.961 . S
H1209 C1223 0.960 . S
H1210 C1223 0.961 . S
H1211 C1223 0.959 . S
H1212 C1226 0.929 . S
H1213 C1227 0.931 . S
H1214 C1229 0.930 . S
C1215 H1203 0.930 . S
C1215 C1216 1.399 . S
C1215 C1220 1.399 . S
C1216 C1215 1.399 . S
C1216 C1217 1.376 . S
C1217 H1204 0.930 . S
C1217 C1216 1.376 . S
C1217 C1218 1.388 . S
C1218 H1205 0.930 . S
C1218 C1217 1.388 . S
C1218 C1219 1.390 . S
C1219 C1218 1.390 . S
C1219 C1220 1.394 . S
C1219 C1225 1.465 . S
C1220 C1215 1.399 . S
C1220 C1219 1.394 . S
C1220 C1221 1.516 . S
C1221 C1220 1.516 . S
C1221 C1222 1.502 . S
C1221 C1223 1.561 . S
C1221 C1224 1.526 . S
C1222 H1206 0.959 . S
C1222 H1207 0.959 . S
C1222 H1208 0.961 . S
C1222 C1221 1.502 . S
C1223 H1209 0.960 . S
C1223 H1210 0.961 . S
C1223 H1211 0.959 . S
C1223 C1221 1.561 . S
C1224 C1221 1.526 . S
C1224 C1225 1.396 . S
C1224 C1229 1.390 . S
C1225 C1219 1.465 . S
C1225 C1224 1.396 . S
C1225 C1226 1.399 . S
C1226 H1212 0.929 . S
C1226 C1225 1.399 . S
C1226 C1227 1.385 . S
C1227 H1213 0.931 . S
C1227 C1226 1.385 . S
C1227 C1228 1.389 . S
C1228 C1227 1.389 . S
C1228 C1229 1.387 . S
C1229 H1214 0.930 . S
C1229 C1224 1.390 . S
C1229 C1228 1.387 . S
H1230 C1242 0.930 . S
H1231 C1244 0.930 . S
H1232 C1245 0.930 . S
H1233 C1249 0.959 . S
H1234 C1249 0.959 . S
H1235 C1249 0.961 . S
H1236 C1250 0.960 . S
H1237 C1250 0.961 . S
H1238 C1250 0.959 . S
H1239 C1253 0.929 . S
H1240 C1254 0.931 . S
H1241 C1256 0.930 . S
C1242 H1230 0.930 . S
C1242 C1243 1.399 . S
C1242 C1247 1.399 1_556 S
C1243 C1242 1.399 . S
C1243 C1244 1.376 . S
C1244 H1231 0.930 . S
C1244 C1243 1.376 . S
C1244 C1245 1.388 1_556 S
C1245 H1232 0.930 . S
C1245 C1244 1.388 1_554 S
C1245 C1246 1.390 . S
C1246 C1245 1.390 . S
C1246 C1247 1.394 . S
C1246 C1252 1.465 . S
C1247 C1242 1.399 1_554 S
C1247 C1246 1.394 . S
C1247 C1248 1.516 . S
C1248 C1247 1.516 . S
C1248 C1249 1.502 . S
C1248 C1250 1.561 . S
C1248 C1251 1.526 . S
C1249 H1233 0.959 . S
C1249 H1234 0.959 . S
C1249 H1235 0.961 . S
C1249 C1248 1.502 . S
C1250 H1236 0.960 . S
C1250 H1237 0.961 . S
C1250 H1238 0.959 . S
C1250 C1248 1.561 . S
C1251 C1248 1.526 . S
C1251 C1252 1.396 . S
C1251 C1256 1.390 . S
C1252 C1246 1.465 . S
C1252 C1251 1.396 . S
C1252 C1253 1.399 . S
C1253 H1239 0.929 . S
C1253 C1252 1.399 . S
C1253 C1254 1.385 . S
C1254 H1240 0.931 . S
C1254 C1253 1.385 . S
C1254 C1255 1.389 . S
C1255 C1254 1.389 . S
C1255 C1256 1.387 . S
C1256 H1241 0.930 . S
C1256 C1251 1.390 . S
C1256 C1255 1.387 . S
H1257 C1269 0.930 . S
H1258 C1271 0.930 . S
H1259 C1272 0.930 . S
H1260 C1276 0.959 . S
H1261 C1276 0.959 . S
H1262 C1276 0.961 . S
H1263 C1277 0.960 . S
H1264 C1277 0.961 . S
H1265 C1277 0.959 . S
H1266 C1280 0.929 . S
H1267 C1281 0.931 . S
H1268 C1283 0.930 . S
C1269 H1257 0.930 . S
C1269 C1270 1.399 . S
C1269 C1274 1.399 . S
C1270 C1269 1.399 . S
C1270 C1271 1.376 . S
C1271 H1258 0.930 . S
C1271 C1270 1.376 . S
C1271 C1272 1.388 . S
C1272 H1259 0.930 . S
C1272 C1271 1.388 . S
C1272 C1273 1.390 . S
C1273 C1272 1.390 . S
C1273 C1274 1.394 . S
C1273 C1279 1.465 . S
C1274 C1269 1.399 . S
C1274 C1273 1.394 . S
C1274 C1275 1.516 . S
C1275 C1274 1.516 . S
C1275 C1276 1.502 . S
C1275 C1277 1.561 . S
C1275 C1278 1.526 . S
C1276 H1260 0.959 . S
C1276 H1261 0.959 . S
C1276 H1262 0.961 . S
C1276 C1275 1.502 . S
C1277 H1263 0.960 . S
C1277 H1264 0.961 . S
C1277 H1265 0.959 . S
C1277 C1275 1.561 . S
C1278 C1275 1.526 . S
C1278 C1279 1.396 . S
C1278 C1283 1.390 . S
C1279 C1273 1.465 . S
C1279 C1278 1.396 . S
C1279 C1280 1.399 . S
C1280 H1266 0.929 . S
C1280 C1279 1.399 . S
C1280 C1281 1.385 . S
C1281 H1267 0.931 . S
C1281 C1280 1.385 . S
C1281 C1282 1.389 . S
C1282 C1281 1.389 . S
C1282 C1283 1.387 . S
C1283 H1268 0.930 . S
C1283 C1278 1.390 . S
C1283 C1282 1.387 . S
H1284 C1296 0.930 . S
H1285 C1298 0.930 . S
H1286 C1299 0.930 . S
H1287 C1303 0.959 . S
H1288 C1303 0.959 . S
H1289 C1303 0.961 1_556 S
H1290 C1304 0.960 . S
H1291 C1304 0.961 1_554 S
H1292 C1304 0.959 1_544 S
H1293 C1307 0.929 . S
H1294 C1308 0.931 . S
H1295 C1310 0.930 . S
C1296 H1284 0.930 . S
C1296 C1297 1.399 . S
C1296 C1301 1.399 1_556 S
C1297 C1296 1.399 . S
C1297 C1298 1.376 1_556 S
C1298 H1285 0.930 . S
C1298 C1297 1.376 1_554 S
C1298 C1299 1.388 . S
C1299 H1286 0.930 . S
C1299 C1298 1.388 . S
C1299 C1300 1.390 . S
C1300 C1299 1.390 . S
C1300 C1301 1.394 . S
C1300 C1306 1.465 . S
C1301 C1296 1.399 1_554 S
C1301 C1300 1.394 . S
C1301 C1302 1.516 1_545 S
C1302 C1301 1.516 1_565 S
C1302 C1303 1.502 . S
C1302 C1304 1.561 1_554 S
C1302 C1305 1.524 1_565 S
C1303 H1287 0.959 . S
C1303 H1288 0.959 . S
C1303 H1289 0.961 1_554 S
C1303 C1302 1.502 . S
C1304 H1290 0.960 . S
C1304 H1291 0.961 1_556 S
C1304 H1292 0.959 1_566 S
C1304 C1302 1.561 1_556 S
C1305 C1302 1.524 1_545 S
C1305 C1306 1.434 . S
C1305 C1310 1.361 1_545 S
C1306 C1300 1.465 . S
C1306 C1305 1.434 . S
C1306 C1307 1.399 . S
C1307 H1293 0.929 . S
C1307 C1306 1.399 . S
C1307 C1308 1.385 . S
C1308 H1294 0.931 . S
C1308 C1307 1.385 . S
C1308 C1309 1.389 1_545 S
C1309 C1308 1.389 1_565 S
C1309 C1310 1.387 . S
C1310 H1295 0.930 . S
C1310 C1305 1.361 1_565 S
C1310 C1309 1.387 . S
H1311 C1323 0.930 . S
H1312 C1325 0.930 . S
H1313 C1326 0.930 . S
H1314 C1330 0.959 . S
H1315 C1330 0.959 . S
H1316 C1330 0.961 . S
H1317 C1331 0.960 . S
H1318 C1331 0.961 . S
H1319 C1331 0.959 . S
H1320 C1334 0.929 . S
H1321 C1335 0.931 . S
H1322 C1337 0.930 . S
C1323 H1311 0.930 . S
C1323 C1324 1.399 . S
C1323 C1328 1.399 . S
C1324 C1323 1.399 . S
C1324 C1325 1.376 . S
C1325 H1312 0.930 . S
C1325 C1324 1.376 . S
C1325 C1326 1.388 . S
C1326 H1313 0.930 . S
C1326 C1325 1.388 . S
C1326 C1327 1.390 . S
C1327 C1326 1.390 . S
C1327 C1328 1.394 . S
C1327 C1333 1.465 . S
C1328 C1323 1.399 . S
C1328 C1327 1.394 . S
C1328 C1329 1.516 . S
C1329 C1328 1.516 . S
C1329 C1330 1.502 . S
C1329 C1331 1.561 . S
C1329 C1332 1.526 . S
C1330 H1314 0.959 . S
C1330 H1315 0.959 . S
C1330 H1316 0.961 . S
C1330 C1329 1.502 . S
C1331 H1317 0.960 . S
C1331 H1318 0.961 . S
C1331 H1319 0.959 . S
C1331 C1329 1.561 . S
C1332 C1329 1.526 . S
C1332 C1333 1.396 . S
C1332 C1337 1.390 . S
C1333 C1327 1.465 . S
C1333 C1332 1.396 . S
C1333 C1334 1.399 . S
C1334 H1320 0.929 . S
C1334 C1333 1.399 . S
C1334 C1335 1.385 . S
C1335 H1321 0.931 . S
C1335 C1334 1.385 . S
C1335 C1336 1.389 . S
C1336 C1335 1.389 . S
C1336 C1337 1.387 . S
C1337 H1322 0.930 . S
C1337 C1332 1.390 . S
C1337 C1336 1.387 . S
H1338 C1350 0.930 . S
H1339 C1352 0.930 . S
H1340 C1353 0.930 . S
H1341 C1357 0.959 . S
H1342 C1357 0.959 . S
H1343 C1357 0.961 . S
H1344 C1358 0.960 . S
H1345 C1358 0.961 . S
H1346 C1358 0.959 . S
H1347 C1361 0.929 . S
H1348 C1362 0.931 . S
H1349 C1364 0.930 . S
C1350 H1338 0.930 . S
C1350 C1351 1.399 . S
C1350 C1355 1.399 . S
C1351 C1350 1.399 . S
C1351 C1352 1.376 . S
C1352 H1339 0.930 . S
C1352 C1351 1.376 . S
C1352 C1353 1.388 . S
C1353 H1340 0.930 . S
C1353 C1352 1.388 . S
C1353 C1354 1.390 . S
C1354 C1353 1.390 . S
C1354 C1355 1.394 . S
C1354 C1360 1.465 . S
C1355 C1350 1.399 . S
C1355 C1354 1.394 . S
C1355 C1356 1.516 . S
C1356 C1355 1.516 . S
C1356 C1357 1.502 . S
C1356 C1358 1.561 . S
C1356 C1359 1.526 . S
C1357 H1341 0.959 . S
C1357 H1342 0.959 . S
C1357 H1343 0.961 . S
C1357 C1356 1.502 . S
C1358 H1344 0.960 . S
C1358 H1345 0.961 . S
C1358 H1346 0.959 . S
C1358 C1356 1.561 . S
C1359 C1356 1.526 . S
C1359 C1360 1.396 . S
C1359 C1364 1.390 . S
C1360 C1354 1.465 . S
C1360 C1359 1.396 . S
C1360 C1361 1.399 . S
C1361 H1347 0.929 . S
C1361 C1360 1.399 . S
C1361 C1362 1.385 . S
C1362 H1348 0.931 . S
C1362 C1361 1.385 . S
C1362 C1363 1.389 . S
C1363 C1362 1.389 . S
C1363 C1364 1.387 . S
C1364 H1349 0.930 . S
C1364 C1359 1.390 . S
C1364 C1363 1.387 . S
H1365 C1377 0.930 . S
H1366 C1379 0.930 . S
H1367 C1380 0.930 . S
H1368 C1384 0.959 . S
H1369 C1384 0.959 . S
H1370 C1384 0.961 . S
H1371 C1385 0.960 . S
H1372 C1385 0.961 . S
H1373 C1385 0.959 . S
H1374 C1388 0.929 . S
H1375 C1389 0.931 . S
H1376 C1391 0.930 . S
C1377 H1365 0.930 . S
C1377 C1378 1.399 1_556 S
C1377 C1382 1.399 . S
C1378 C1377 1.399 1_554 S
C1378 C1379 1.376 . S
C1379 H1366 0.930 . S
C1379 C1378 1.376 . S
C1379 C1380 1.388 1_554 S
C1380 H1367 0.930 . S
C1380 C1379 1.388 1_556 S
C1380 C1381 1.390 . S
C1381 C1380 1.390 . S
C1381 C1382 1.394 . S
C1381 C1387 1.465 . S
C1382 C1377 1.399 . S
C1382 C1381 1.394 . S
C1382 C1383 1.516 . S
C1383 C1382 1.516 . S
C1383 C1384 1.502 . S
C1383 C1385 1.561 . S
C1383 C1386 1.526 . S
C1384 H1368 0.959 . S
C1384 H1369 0.959 . S
C1384 H1370 0.961 . S
C1384 C1383 1.502 . S
C1385 H1371 0.960 . S
C1385 H1372 0.961 . S
C1385 H1373 0.959 . S
C1385 C1383 1.561 . S
C1386 C1383 1.526 . S
C1386 C1387 1.396 . S
C1386 C1391 1.390 . S
C1387 C1381 1.465 . S
C1387 C1386 1.396 . S
C1387 C1388 1.399 . S
C1388 H1374 0.929 . S
C1388 C1387 1.399 . S
C1388 C1389 1.385 . S
C1389 H1375 0.931 . S
C1389 C1388 1.385 . S
C1389 C1390 1.389 . S
C1390 C1389 1.389 . S
C1390 C1391 1.387 . S
C1391 H1376 0.930 . S
C1391 C1386 1.390 . S
C1391 C1390 1.387 . S
H1392 C1404 0.930 . S
H1393 C1406 0.930 . S
H1394 C1407 0.930 . S
H1395 C1411 0.959 . S
H1396 C1411 0.959 . S
H1397 C1411 0.961 . S
H1398 C1412 0.960 . S
H1399 C1412 0.961 . S
H1400 C1412 0.959 . S
H1401 C1415 0.929 . S
H1402 C1416 0.931 . S
H1403 C1418 0.930 . S
C1404 H1392 0.930 . S
C1404 C1405 1.399 . S
C1404 C1409 1.399 . S
C1405 C1404 1.399 . S
C1405 C1406 1.376 . S
C1406 H1393 0.930 . S
C1406 C1405 1.376 . S
C1406 C1407 1.388 . S
C1407 H1394 0.930 . S
C1407 C1406 1.388 . S
C1407 C1408 1.390 . S
C1408 C1407 1.390 . S
C1408 C1409 1.394 . S
C1408 C1414 1.465 . S
C1409 C1404 1.399 . S
C1409 C1408 1.394 . S
C1409 C1410 1.516 . S
C1410 C1409 1.516 . S
C1410 C1411 1.502 . S
C1410 C1412 1.561 . S
C1410 C1413 1.526 . S
C1411 H1395 0.959 . S
C1411 H1396 0.959 . S
C1411 H1397 0.961 . S
C1411 C1410 1.502 . S
C1412 H1398 0.960 . S
C1412 H1399 0.961 . S
C1412 H1400 0.959 . S
C1412 C1410 1.561 . S
C1413 C1410 1.526 . S
C1413 C1414 1.396 . S
C1413 C1418 1.390 . S
C1414 C1408 1.465 . S
C1414 C1413 1.396 . S
C1414 C1415 1.399 . S
C1415 H1401 0.929 . S
C1415 C1414 1.399 . S
C1415 C1416 1.385 . S
C1416 H1402 0.931 . S
C1416 C1415 1.385 . S
C1416 C1417 1.389 . S
C1417 C1416 1.389 . S
C1417 C1418 1.387 . S
C1418 H1403 0.930 . S
C1418 C1413 1.390 . S
C1418 C1417 1.387 . S
H1419 C1431 0.930 . S
H1420 C1433 0.930 . S
H1421 C1434 0.930 . S
H1422 C1438 0.959 . S
H1423 C1438 0.959 . S
H1424 C1438 0.961 . S
H1425 C1439 0.960 . S
H1426 C1439 0.961 . S
H1427 C1439 0.959 . S
H1428 C1442 0.929 . S
H1429 C1443 0.931 . S
H1430 C1445 0.930 . S
C1431 H1419 0.930 . S
C1431 C1432 1.399 . S
C1431 C1436 1.399 . S
C1432 C1431 1.399 . S
C1432 C1433 1.376 . S
C1433 H1420 0.930 . S
C1433 C1432 1.376 . S
C1433 C1434 1.388 . S
C1434 H1421 0.930 . S
C1434 C1433 1.388 . S
C1434 C1435 1.390 . S
C1435 C1434 1.390 . S
C1435 C1436 1.394 . S
C1435 C1441 1.465 . S
C1436 C1431 1.399 . S
C1436 C1435 1.394 . S
C1436 C1437 1.516 . S
C1437 C1436 1.516 . S
C1437 C1438 1.502 . S
C1437 C1439 1.561 . S
C1437 C1440 1.526 . S
C1438 H1422 0.959 . S
C1438 H1423 0.959 . S
C1438 H1424 0.961 . S
C1438 C1437 1.502 . S
C1439 H1425 0.960 . S
C1439 H1426 0.961 . S
C1439 H1427 0.959 . S
C1439 C1437 1.561 . S
C1440 C1437 1.526 . S
C1440 C1441 1.396 . S
C1440 C1445 1.390 . S
C1441 C1435 1.465 . S
C1441 C1440 1.396 . S
C1441 C1442 1.399 . S
C1442 H1428 0.929 . S
C1442 C1441 1.399 . S
C1442 C1443 1.385 . S
C1443 H1429 0.931 . S
C1443 C1442 1.385 . S
C1443 C1444 1.389 . S
C1444 C1443 1.389 . S
C1444 C1445 1.387 . S
C1445 H1430 0.930 . S
C1445 C1440 1.390 . S
C1445 C1444 1.387 . S
H1446 C1458 0.930 . S
H1447 C1460 0.930 . S
H1448 C1461 0.930 . S
H1449 C1465 0.959 . S
H1450 C1465 0.959 . S
H1451 C1465 0.961 . S
H1452 C1466 0.960 . S
H1453 C1466 0.961 . S
H1454 C1466 0.959 . S
H1455 C1469 0.929 . S
H1456 C1470 0.931 . S
H1457 C1472 0.930 . S
C1458 H1446 0.930 . S
C1458 C1459 1.399 . S
C1458 C1463 1.399 . S
C1459 C1458 1.399 . S
C1459 C1460 1.376 . S
C1460 H1447 0.930 . S
C1460 C1459 1.376 . S
C1460 C1461 1.388 . S
C1461 H1448 0.930 . S
C1461 C1460 1.388 . S
C1461 C1462 1.390 . S
C1462 C1461 1.390 . S
C1462 C1463 1.394 . S
C1462 C1468 1.465 . S
C1463 C1458 1.399 . S
C1463 C1462 1.394 . S
C1463 C1464 1.516 . S
C1464 C1463 1.516 . S
C1464 C1465 1.502 . S
C1464 C1466 1.561 . S
C1464 C1467 1.526 . S
C1465 H1449 0.959 . S
C1465 H1450 0.959 . S
C1465 H1451 0.961 . S
C1465 C1464 1.502 . S
C1466 H1452 0.960 . S
C1466 H1453 0.961 . S
C1466 H1454 0.959 . S
C1466 C1464 1.561 . S
C1467 C1464 1.526 . S
C1467 C1468 1.396 . S
C1467 C1472 1.390 . S
C1468 C1462 1.465 . S
C1468 C1467 1.396 . S
C1468 C1469 1.399 . S
C1469 H1455 0.929 . S
C1469 C1468 1.399 . S
C1469 C1470 1.385 . S
C1470 H1456 0.931 . S
C1470 C1469 1.385 . S
C1470 C1471 1.389 . S
C1471 C1470 1.389 . S
C1471 C1472 1.387 . S
C1472 H1457 0.930 . S
C1472 C1467 1.390 . S
C1472 C1471 1.387 . S
H1473 C1485 0.930 . S
H1474 C1487 0.930 . S
H1475 C1488 0.930 . S
H1476 C1492 0.959 . S
H1477 C1492 0.959 . S
H1478 C1492 0.961 . S
H1479 C1493 0.960 . S
H1480 C1493 0.961 . S
H1481 C1493 0.959 . S
H1482 C1496 0.929 . S
H1483 C1497 0.931 . S
H1484 C1499 0.930 . S
C1485 H1473 0.930 . S
C1485 C1486 1.399 . S
C1485 C1490 1.399 1_455 S
C1486 C1485 1.399 . S
C1486 C1487 1.376 . S
C1487 H1474 0.930 . S
C1487 C1486 1.376 . S
C1487 C1488 1.388 1_455 S
C1488 H1475 0.930 . S
C1488 C1487 1.388 1_655 S
C1488 C1489 1.390 . S
C1489 C1488 1.390 . S
C1489 C1490 1.394 . S
C1489 C1495 1.465 . S
C1490 C1485 1.399 1_655 S
C1490 C1489 1.394 . S
C1490 C1491 1.516 . S
C1491 C1490 1.516 . S
C1491 C1492 1.502 . S
C1491 C1493 1.561 1_655 S
C1491 C1494 1.526 . S
C1492 H1476 0.959 . S
C1492 H1477 0.959 . S
C1492 H1478 0.961 . S
C1492 C1491 1.502 . S
C1493 H1479 0.960 . S
C1493 H1480 0.961 . S
C1493 H1481 0.959 . S
C1493 C1491 1.561 1_455 S
C1494 C1491 1.526 . S
C1494 C1495 1.396 . S
C1494 C1499 1.390 . S
C1495 C1489 1.465 . S
C1495 C1494 1.396 . S
C1495 C1496 1.399 . S
C1496 H1482 0.929 . S
C1496 C1495 1.399 . S
C1496 C1497 1.385 . S
C1497 H1483 0.931 . S
C1497 C1496 1.385 . S
C1497 C1498 1.389 . S
C1498 C1497 1.389 . S
C1498 C1499 1.387 . S
C1499 H1484 0.930 . S
C1499 C1494 1.390 . S
C1499 C1498 1.387 . S
H1500 C1512 0.930 . S
H1501 C1514 0.930 . S
H1502 C1515 0.930 . S
H1503 C1519 0.959 . S
H1504 C1519 0.959 . S
H1505 C1519 0.961 . S
H1506 C1520 0.960 . S
H1507 C1520 0.961 . S
H1508 C1520 0.959 . S
H1509 C1523 0.929 . S
H1510 C1524 0.931 . S
H1511 C1526 0.930 . S
C1512 H1500 0.930 . S
C1512 C1513 1.399 . S
C1512 C1517 1.399 . S
C1513 C1512 1.399 . S
C1513 C1514 1.376 . S
C1514 H1501 0.930 . S
C1514 C1513 1.376 . S
C1514 C1515 1.388 . S
C1515 H1502 0.930 . S
C1515 C1514 1.388 . S
C1515 C1516 1.390 . S
C1516 C1515 1.390 . S
C1516 C1517 1.394 . S
C1516 C1522 1.465 . S
C1517 C1512 1.399 . S
C1517 C1516 1.394 . S
C1517 C1518 1.516 . S
C1518 C1517 1.516 . S
C1518 C1519 1.502 . S
C1518 C1520 1.561 . S
C1518 C1521 1.526 . S
C1519 H1503 0.959 . S
C1519 H1504 0.959 . S
C1519 H1505 0.961 . S
C1519 C1518 1.502 . S
C1520 H1506 0.960 . S
C1520 H1507 0.961 . S
C1520 H1508 0.959 . S
C1520 C1518 1.561 . S
C1521 C1518 1.526 . S
C1521 C1522 1.396 . S
C1521 C1526 1.390 . S
C1522 C1516 1.465 . S
C1522 C1521 1.396 . S
C1522 C1523 1.399 . S
C1523 H1509 0.929 . S
C1523 C1522 1.399 . S
C1523 C1524 1.385 . S
C1524 H1510 0.931 . S
C1524 C1523 1.385 . S
C1524 C1525 1.389 . S
C1525 C1524 1.389 . S
C1525 C1526 1.387 . S
C1526 H1511 0.930 . S
C1526 C1521 1.390 . S
C1526 C1525 1.387 . S
H1527 C1539 0.930 . S
H1528 C1541 0.930 . S
H1529 C1542 0.930 . S
H1530 C1546 0.959 . S
H1531 C1546 0.959 . S
H1532 C1546 0.961 . S
H1533 C1547 0.960 . S
H1534 C1547 0.961 . S
H1535 C1547 0.959 . S
H1536 C1550 0.929 . S
H1537 C1551 0.931 . S
H1538 C1553 0.930 . S
C1539 H1527 0.930 . S
C1539 C1540 1.399 . S
C1539 C1544 1.399 . S
C1540 C1539 1.399 . S
C1540 C1541 1.376 . S
C1541 H1528 0.930 . S
C1541 C1540 1.376 . S
C1541 C1542 1.388 . S
C1542 H1529 0.930 . S
C1542 C1541 1.388 . S
C1542 C1543 1.390 . S
C1543 C1542 1.390 . S
C1543 C1544 1.394 . S
C1543 C1549 1.465 . S
C1544 C1539 1.399 . S
C1544 C1543 1.394 . S
C1544 C1545 1.516 . S
C1545 C1544 1.516 . S
C1545 C1546 1.502 . S
C1545 C1547 1.561 . S
C1545 C1548 1.526 . S
C1546 H1530 0.959 . S
C1546 H1531 0.959 . S
C1546 H1532 0.961 . S
C1546 C1545 1.502 . S
C1547 H1533 0.960 . S
C1547 H1534 0.961 . S
C1547 H1535 0.959 . S
C1547 C1545 1.561 . S
C1548 C1545 1.526 . S
C1548 C1549 1.396 . S
C1548 C1553 1.390 . S
C1549 C1543 1.465 . S
C1549 C1548 1.396 . S
C1549 C1550 1.399 1_655 S
C1550 H1536 0.929 . S
C1550 C1549 1.399 1_455 S
C1550 C1551 1.385 . S
C1551 H1537 0.931 . S
C1551 C1550 1.385 . S
C1551 C1552 1.389 . S
C1552 C1551 1.389 . S
C1552 C1553 1.387 1_455 S
C1553 H1538 0.930 . S
C1553 C1548 1.390 . S
C1553 C1552 1.387 1_655 S
H1554 C1566 0.930 . S
H1555 C1568 0.930 . S
H1556 C1569 0.930 . S
H1557 C1573 0.959 . S
H1558 C1573 0.959 . S
H1559 C1573 0.961 . S
H1560 C1574 0.960 . S
H1561 C1574 0.961 . S
H1562 C1574 0.959 . S
H1563 C1577 0.929 . S
H1564 C1578 0.931 . S
H1565 C1580 0.930 . S
C1566 H1554 0.930 . S
C1566 C1567 1.399 . S
C1566 C1571 1.399 . S
C1567 C1566 1.399 . S
C1567 C1568 1.376 . S
C1568 H1555 0.930 . S
C1568 C1567 1.376 . S
C1568 C1569 1.388 . S
C1569 H1556 0.930 . S
C1569 C1568 1.388 . S
C1569 C1570 1.390 . S
C1570 C1569 1.390 . S
C1570 C1571 1.394 . S
C1570 C1576 1.465 . S
C1571 C1566 1.399 . S
C1571 C1570 1.394 . S
C1571 C1572 1.516 . S
C1572 C1571 1.516 . S
C1572 C1573 1.502 . S
C1572 C1574 1.561 . S
C1572 C1575 1.526 . S
C1573 H1557 0.959 . S
C1573 H1558 0.959 . S
C1573 H1559 0.961 . S
C1573 C1572 1.502 . S
C1574 H1560 0.960 . S
C1574 H1561 0.961 . S
C1574 H1562 0.959 . S
C1574 C1572 1.561 . S
C1575 C1572 1.526 . S
C1575 C1576 1.396 . S
C1575 C1580 1.390 . S
C1576 C1570 1.465 . S
C1576 C1575 1.396 . S
C1576 C1577 1.399 . S
C1577 H1563 0.929 . S
C1577 C1576 1.399 . S
C1577 C1578 1.385 . S
C1578 H1564 0.931 . S
C1578 C1577 1.385 . S
C1578 C1579 1.389 . S
C1579 C1578 1.389 . S
C1579 C1580 1.387 . S
C1580 H1565 0.930 . S
C1580 C1575 1.390 . S
C1580 C1579 1.387 . S
H1581 C1593 0.930 . S
H1582 C1595 0.930 . S
H1583 C1596 0.930 . S
H1584 C1600 0.959 . S
H1585 C1600 0.959 . S
H1586 C1600 0.961 . S
H1587 C1601 0.960 . S
H1588 C1601 0.961 . S
H1589 C1601 0.959 . S
H1590 C1604 0.929 . S
H1591 C1605 0.931 . S
H1592 C1607 0.930 . S
C1593 H1581 0.930 . S
C1593 C1594 1.399 . S
C1593 C1598 1.399 . S
C1594 C1593 1.399 . S
C1594 C1595 1.376 . S
C1595 H1582 0.930 . S
C1595 C1594 1.376 . S
C1595 C1596 1.388 . S
C1596 H1583 0.930 . S
C1596 C1595 1.388 . S
C1596 C1597 1.390 . S
C1597 C1596 1.390 . S
C1597 C1598 1.394 . S
C1597 C1603 1.465 . S
C1598 C1593 1.399 . S
C1598 C1597 1.394 . S
C1598 C1599 1.516 . S
C1599 C1598 1.516 . S
C1599 C1600 1.502 . S
C1599 C1601 1.561 . S
C1599 C1602 1.526 . S
C1600 H1584 0.959 . S
C1600 H1585 0.959 . S
C1600 H1586 0.961 . S
C1600 C1599 1.502 . S
C1601 H1587 0.960 . S
C1601 H1588 0.961 . S
C1601 H1589 0.959 . S
C1601 C1599 1.561 . S
C1602 C1599 1.526 . S
C1602 C1603 1.396 . S
C1602 C1607 1.390 . S
C1603 C1597 1.465 . S
C1603 C1602 1.396 . S
C1603 C1604 1.399 . S
C1604 H1590 0.929 . S
C1604 C1603 1.399 . S
C1604 C1605 1.385 . S
C1605 H1591 0.931 . S
C1605 C1604 1.385 . S
C1605 C1606 1.389 . S
C1606 C1605 1.389 . S
C1606 C1607 1.387 . S
C1607 H1592 0.930 . S
C1607 C1602 1.390 . S
C1607 C1606 1.387 . S
H1608 C1620 0.930 . S
H1609 C1622 0.930 . S
H1610 C1623 0.930 . S
H1611 C1627 0.959 . S
H1612 C1627 0.959 . S
H1613 C1627 0.961 . S
H1614 C1628 0.960 . S
H1615 C1628 0.961 . S
H1616 C1628 0.959 . S
H1617 C1631 0.929 . S
H1618 C1632 0.931 . S
H1619 C1634 0.930 . S
C1620 H1608 0.930 . S
C1620 C1621 1.399 . S
C1620 C1625 1.399 . S
C1621 C1620 1.399 . S
C1621 C1622 1.376 . S
C1622 H1609 0.930 . S
C1622 C1621 1.376 . S
C1622 C1623 1.388 . S
C1623 H1610 0.930 . S
C1623 C1622 1.388 . S
C1623 C1624 1.390 . S
C1624 C1623 1.390 . S
C1624 C1625 1.394 . S
C1624 C1630 1.465 . S
C1625 C1620 1.399 . S
C1625 C1624 1.394 . S
C1625 C1626 1.516 . S
C1626 C1625 1.516 . S
C1626 C1627 1.502 . S
C1626 C1628 1.561 . S
C1626 C1629 1.526 . S
C1627 H1611 0.959 . S
C1627 H1612 0.959 . S
C1627 H1613 0.961 . S
C1627 C1626 1.502 . S
C1628 H1614 0.960 . S
C1628 H1615 0.961 . S
C1628 H1616 0.959 . S
C1628 C1626 1.561 . S
C1629 C1626 1.526 . S
C1629 C1630 1.396 . S
C1629 C1634 1.390 . S
C1630 C1624 1.465 . S
C1630 C1629 1.396 . S
C1630 C1631 1.399 . S
C1631 H1617 0.929 . S
C1631 C1630 1.399 . S
C1631 C1632 1.385 . S
C1632 H1618 0.931 . S
C1632 C1631 1.385 . S
C1632 C1633 1.389 . S
C1633 C1632 1.389 . S
C1633 C1634 1.387 . S
C1634 H1619 0.930 . S
C1634 C1629 1.390 . S
C1634 C1633 1.387 . S
H1635 C1647 0.930 . S
H1636 C1649 0.930 . S
H1637 C1650 0.930 . S
H1638 C1654 0.959 . S
H1639 C1654 0.959 . S
H1640 C1654 0.961 . S
H1641 C1655 0.960 . S
H1642 C1655 0.961 . S
H1643 C1655 0.959 . S
H1644 C1658 0.929 . S
H1645 C1659 0.931 . S
H1646 C1661 0.930 . S
C1647 H1635 0.930 . S
C1647 C1648 1.399 1_556 S
C1647 C1652 1.399 . S
C1648 C1647 1.399 1_554 S
C1648 C1649 1.376 . S
C1649 H1636 0.930 . S
C1649 C1648 1.376 . S
C1649 C1650 1.388 . S
C1650 H1637 0.930 . S
C1650 C1649 1.388 . S
C1650 C1651 1.390 1_554 S
C1651 C1650 1.390 1_556 S
C1651 C1652 1.394 . S
C1651 C1657 1.465 . S
C1652 C1647 1.399 . S
C1652 C1651 1.394 . S
C1652 C1653 1.516 . S
C1653 C1652 1.516 . S
C1653 C1654 1.502 . S
C1653 C1655 1.561 . S
C1653 C1656 1.526 . S
C1654 H1638 0.959 . S
C1654 H1639 0.959 . S
C1654 H1640 0.961 . S
C1654 C1653 1.502 . S
C1655 H1641 0.960 . S
C1655 H1642 0.961 . S
C1655 H1643 0.959 . S
C1655 C1653 1.561 . S
C1656 C1653 1.526 . S
C1656 C1657 1.396 . S
C1656 C1661 1.390 . S
C1657 C1651 1.465 . S
C1657 C1656 1.396 . S
C1657 C1658 1.399 . S
C1658 H1644 0.929 . S
C1658 C1657 1.399 . S
C1658 C1659 1.385 . S
C1659 H1645 0.931 . S
C1659 C1658 1.385 . S
C1659 C1660 1.389 . S
C1660 C1659 1.389 . S
C1660 C1661 1.387 . S
C1661 H1646 0.930 . S
C1661 C1656 1.390 . S
C1661 C1660 1.387 . S
H1662 C1674 0.930 . S
H1663 C1676 0.930 . S
H1664 C1677 0.930 . S
H1665 C1681 0.959 . S
H1666 C1681 0.959 . S
H1667 C1681 0.961 . S
H1668 C1682 0.960 . S
H1669 C1682 0.961 . S
H1670 C1682 0.959 . S
H1671 C1685 0.929 . S
H1672 C1686 0.931 . S
H1673 C1688 0.930 . S
C1674 H1662 0.930 . S
C1674 C1675 1.399 . S
C1674 C1679 1.399 . S
C1675 C1674 1.399 . S
C1675 C1676 1.376 . S
C1676 H1663 0.930 . S
C1676 C1675 1.376 . S
C1676 C1677 1.388 . S
C1677 H1664 0.930 . S
C1677 C1676 1.388 . S
C1677 C1678 1.390 . S
C1678 C1677 1.390 . S
C1678 C1679 1.394 . S
C1678 C1684 1.465 . S
C1679 C1674 1.399 . S
C1679 C1678 1.394 . S
C1679 C1680 1.516 . S
C1680 C1679 1.516 . S
C1680 C1681 1.502 . S
C1680 C1682 1.561 . S
C1680 C1683 1.526 . S
C1681 H1665 0.959 . S
C1681 H1666 0.959 . S
C1681 H1667 0.961 . S
C1681 C1680 1.502 . S
C1682 H1668 0.960 . S
C1682 H1669 0.961 . S
C1682 H1670 0.959 . S
C1682 C1680 1.561 . S
C1683 C1680 1.526 . S
C1683 C1684 1.396 . S
C1683 C1688 1.390 . S
C1684 C1678 1.465 . S
C1684 C1683 1.396 . S
C1684 C1685 1.399 . S
C1685 H1671 0.929 . S
C1685 C1684 1.399 . S
C1685 C1686 1.385 . S
C1686 H1672 0.931 . S
C1686 C1685 1.385 . S
C1686 C1687 1.389 . S
C1687 C1686 1.389 . S
C1687 C1688 1.387 . S
C1688 H1673 0.930 . S
C1688 C1683 1.390 . S
C1688 C1687 1.387 . S
H1689 C1701 0.930 . S
H1690 C1703 0.930 . S
H1691 C1704 0.930 . S
H1692 C1708 0.961 . S
H1693 C1708 0.959 1_655 S
H1694 C1708 0.961 . S
H1695 C1709 0.969 . S
H1696 C1709 0.961 . S
H1697 C1709 0.959 . S
H1698 C1712 0.929 . S
H1699 C1713 0.931 . S
H1700 C1715 0.930 . S
C1701 H1689 0.930 . S
C1701 C1702 1.399 . S
C1701 C1706 1.399 1_455 S
C1702 C1701 1.399 . S
C1702 C1703 1.376 1_455 S
C1703 H1690 0.930 . S
C1703 C1702 1.376 1_655 S
C1703 C1704 1.388 . S
C1704 H1691 0.930 . S
C1704 C1703 1.388 . S
C1704 C1705 1.390 . S
C1705 C1704 1.390 . S
C1705 C1706 1.394 . S
C1705 C1711 1.465 . S
C1706 C1701 1.399 1_655 S
C1706 C1705 1.394 . S
C1706 C1707 1.516 . S
C1707 C1706 1.516 . S
C1707 C1708 1.502 1_655 S
C1707 C1709 1.561 . S
C1707 C1710 1.526 . S
C1708 H1692 0.961 . S
C1708 H1693 0.959 1_455 S
C1708 H1694 0.961 . S
C1708 C1707 1.502 1_455 S
C1709 H1695 0.969 . S
C1709 H1696 0.961 . S
C1709 H1697 0.959 . S
C1709 C1707 1.561 . S
C1710 C1707 1.526 . S
C1710 C1711 1.396 . S
C1710 C1715 1.390 . S
C1711 C1705 1.465 . S
C1711 C1710 1.396 . S
C1711 C1712 1.399 . S
C1712 H1698 0.929 . S
C1712 C1711 1.399 . S
C1712 C1713 1.385 . S
C1713 H1699 0.931 . S
C1713 C1712 1.385 . S
C1713 C1714 1.389 . S
C1714 C1713 1.389 . S
C1714 C1715 1.387 . S
C1715 H1700 0.930 . S
C1715 C1710 1.390 . S
C1715 C1714 1.387 . S
H1716 C1728 0.930 . S
H1717 C1730 0.930 . S
H1718 C1731 0.930 . S
H1719 C1735 0.959 . S
H1720 C1735 0.959 . S
H1721 C1735 0.961 . S
H1722 C1736 0.960 . S
H1723 C1736 0.961 . S
H1724 C1736 0.959 . S
H1725 C1739 0.929 . S
H1726 C1740 0.931 . S
H1727 C1742 0.930 . S
C1728 H1716 0.930 . S
C1728 C1729 1.399 . S
C1728 C1733 1.399 . S
C1729 C1728 1.399 . S
C1729 C1730 1.376 . S
C1730 H1717 0.930 . S
C1730 C1729 1.376 . S
C1730 C1731 1.388 . S
C1731 H1718 0.930 . S
C1731 C1730 1.388 . S
C1731 C1732 1.390 . S
C1732 C1731 1.390 . S
C1732 C1733 1.394 . S
C1732 C1738 1.465 . S
C1733 C1728 1.399 . S
C1733 C1732 1.394 . S
C1733 C1734 1.516 . S
C1734 C1733 1.516 . S
C1734 C1735 1.502 . S
C1734 C1736 1.561 . S
C1734 C1737 1.526 . S
C1735 H1719 0.959 . S
C1735 H1720 0.959 . S
C1735 H1721 0.961 . S
C1735 C1734 1.502 . S
C1736 H1722 0.960 . S
C1736 H1723 0.961 . S
C1736 H1724 0.959 . S
C1736 C1734 1.561 . S
C1737 C1734 1.526 . S
C1737 C1738 1.396 . S
C1737 C1742 1.390 . S
C1738 C1732 1.465 . S
C1738 C1737 1.396 . S
C1738 C1739 1.399 . S
C1739 H1725 0.929 . S
C1739 C1738 1.399 . S
C1739 C1740 1.385 . S
C1740 H1726 0.931 . S
C1740 C1739 1.385 . S
C1740 C1741 1.389 . S
C1741 C1740 1.389 . S
C1741 C1742 1.387 . S
C1742 H1727 0.930 . S
C1742 C1737 1.390 . S
C1742 C1741 1.387 . S
H1743 C1755 0.930 . S
H1744 C1757 0.930 . S
H1745 C1758 0.930 . S
H1746 C1762 0.959 . S
H1747 C1762 0.959 . S
H1748 C1762 0.961 . S
H1749 C1763 0.960 . S
H1750 C1763 0.961 . S
H1751 C1763 0.959 . S
H1752 C1766 0.929 . S
H1753 C1767 0.931 . S
H1754 C1769 0.930 . S
C1755 H1743 0.930 . S
C1755 C1756 1.399 . S
C1755 C1760 1.399 1_556 S
C1756 C1755 1.399 . S
C1756 C1757 1.376 . S
C1757 H1744 0.930 . S
C1757 C1756 1.376 . S
C1757 C1758 1.388 1_556 S
C1758 H1745 0.930 . S
C1758 C1757 1.388 1_554 S
C1758 C1759 1.390 . S
C1759 C1758 1.390 . S
C1759 C1760 1.394 . S
C1759 C1765 1.465 . S
C1760 C1755 1.399 1_554 S
C1760 C1759 1.394 . S
C1760 C1761 1.516 . S
C1761 C1760 1.516 . S
C1761 C1762 1.502 . S
C1761 C1763 1.561 . S
C1761 C1764 1.526 . S
C1762 H1746 0.959 . S
C1762 H1747 0.959 . S
C1762 H1748 0.961 . S
C1762 C1761 1.502 . S
C1763 H1749 0.960 . S
C1763 H1750 0.961 . S
C1763 H1751 0.959 . S
C1763 C1761 1.561 . S
C1764 C1761 1.526 . S
C1764 C1765 1.396 . S
C1764 C1769 1.390 . S
C1765 C1759 1.465 . S
C1765 C1764 1.396 . S
C1765 C1766 1.399 1_655 S
C1766 H1752 0.929 . S
C1766 C1765 1.399 1_455 S
C1766 C1767 1.385 . S
C1767 H1753 0.931 . S
C1767 C1766 1.385 . S
C1767 C1768 1.389 . S
C1768 C1767 1.389 . S
C1768 C1769 1.387 1_455 S
C1769 H1754 0.930 . S
C1769 C1764 1.390 . S
C1769 C1768 1.387 1_655 S
H1770 C1782 0.930 . S
H1771 C1784 0.930 . S
H1772 C1785 0.930 . S
H1773 C1789 0.959 . S
H1774 C1789 0.959 . S
H1775 C1789 0.961 . S
H1776 C1790 0.960 . S
H1777 C1790 0.961 . S
H1778 C1790 0.959 . S
H1779 C1793 0.929 . S
H1780 C1794 0.931 . S
H1781 C1796 0.930 . S
C1782 H1770 0.930 . S
C1782 C1783 1.399 . S
C1782 C1787 1.399 . S
C1783 C1782 1.399 . S
C1783 C1784 1.376 . S
C1784 H1771 0.930 . S
C1784 C1783 1.376 . S
C1784 C1785 1.388 . S
C1785 H1772 0.930 . S
C1785 C1784 1.388 . S
C1785 C1786 1.390 . S
C1786 C1785 1.390 . S
C1786 C1787 1.394 . S
C1786 C1792 1.465 . S
C1787 C1782 1.399 . S
C1787 C1786 1.394 . S
C1787 C1788 1.516 . S
C1788 C1787 1.516 . S
C1788 C1789 1.502 . S
C1788 C1790 1.561 . S
C1788 C1791 1.526 . S
C1789 H1773 0.959 . S
C1789 H1774 0.959 . S
C1789 H1775 0.961 . S
C1789 C1788 1.502 . S
C1790 H1776 0.960 . S
C1790 H1777 0.961 . S
C1790 H1778 0.959 . S
C1790 C1788 1.561 . S
C1791 C1788 1.526 . S
C1791 C1792 1.396 . S
C1791 C1796 1.390 . S
C1792 C1786 1.465 . S
C1792 C1791 1.396 . S
C1792 C1793 1.399 . S
C1793 H1779 0.929 . S
C1793 C1792 1.399 . S
C1793 C1794 1.385 . S
C1794 H1780 0.931 . S
C1794 C1793 1.385 . S
C1794 C1795 1.389 . S
C1795 C1794 1.389 . S
C1795 C1796 1.387 . S
C1796 H1781 0.930 . S
C1796 C1791 1.390 . S
C1796 C1795 1.387 . S
H1797 C1809 0.930 . S
H1798 C1811 0.930 . S
H1799 C1812 0.930 . S
H1800 C1816 0.959 . S
H1801 C1816 0.959 . S
H1802 C1816 0.961 . S
H1803 C1817 0.960 . S
H1804 C1817 0.961 . S
H1805 C1817 0.959 . S
H1806 C1820 0.929 . S
H1807 C1821 0.931 . S
H1808 C1823 0.930 . S
C1809 H1797 0.930 . S
C1809 C1810 1.399 . S
C1809 C1814 1.399 . S
C1810 C1809 1.399 . S
C1810 C1811 1.376 . S
C1811 H1798 0.930 . S
C1811 C1810 1.376 . S
C1811 C1812 1.388 . S
C1812 H1799 0.930 . S
C1812 C1811 1.388 . S
C1812 C1813 1.390 . S
C1813 C1812 1.390 . S
C1813 C1814 1.394 . S
C1813 C1819 1.465 . S
C1814 C1809 1.399 . S
C1814 C1813 1.394 . S
C1814 C1815 1.516 . S
C1815 C1814 1.516 . S
C1815 C1816 1.502 . S
C1815 C1817 1.561 . S
C1815 C1818 1.526 . S
C1816 H1800 0.959 . S
C1816 H1801 0.959 . S
C1816 H1802 0.961 . S
C1816 C1815 1.502 . S
C1817 H1803 0.960 . S
C1817 H1804 0.961 . S
C1817 H1805 0.959 . S
C1817 C1815 1.561 . S
C1818 C1815 1.526 . S
C1818 C1819 1.396 . S
C1818 C1823 1.390 . S
C1819 C1813 1.465 . S
C1819 C1818 1.396 . S
C1819 C1820 1.399 . S
C1820 H1806 0.929 . S
C1820 C1819 1.399 . S
C1820 C1821 1.385 . S
C1821 H1807 0.931 . S
C1821 C1820 1.385 . S
C1821 C1822 1.389 . S
C1822 C1821 1.389 . S
C1822 C1823 1.387 . S
C1823 H1808 0.930 . S
C1823 C1818 1.390 . S
C1823 C1822 1.387 . S
H1824 C1836 0.930 . S
H1825 C1838 0.930 . S
H1826 C1839 0.930 . S
H1827 C1843 0.959 . S
H1828 C1843 0.959 . S
H1829 C1843 0.961 . S
H1830 C1844 0.960 . S
H1831 C1844 0.961 . S
H1832 C1844 0.959 . S
H1833 C1847 0.929 . S
H1834 C1848 0.931 . S
H1835 C1850 0.930 . S
C1836 H1824 0.930 . S
C1836 C1837 1.399 . S
C1836 C1841 1.399 . S
C1837 C1836 1.399 . S
C1837 C1838 1.376 . S
C1838 H1825 0.930 . S
C1838 C1837 1.376 . S
C1838 C1839 1.388 . S
C1839 H1826 0.930 . S
C1839 C1838 1.388 . S
C1839 C1840 1.390 . S
C1840 C1839 1.390 . S
C1840 C1841 1.394 . S
C1840 C1846 1.465 . S
C1841 C1836 1.399 . S
C1841 C1840 1.394 . S
C1841 C1842 1.516 . S
C1842 C1841 1.516 . S
C1842 C1843 1.502 . S
C1842 C1844 1.561 . S
C1842 C1845 1.526 . S
C1843 H1827 0.959 . S
C1843 H1828 0.959 . S
C1843 H1829 0.961 . S
C1843 C1842 1.502 . S
C1844 H1830 0.960 . S
C1844 H1831 0.961 . S
C1844 H1832 0.959 . S
C1844 C1842 1.561 . S
C1845 C1842 1.526 . S
C1845 C1846 1.396 . S
C1845 C1850 1.390 . S
C1846 C1840 1.465 . S
C1846 C1845 1.396 . S
C1846 C1847 1.399 . S
C1847 H1833 0.929 . S
C1847 C1846 1.399 . S
C1847 C1848 1.385 . S
C1848 H1834 0.931 . S
C1848 C1847 1.385 . S
C1848 C1849 1.389 . S
C1849 C1848 1.389 . S
C1849 C1850 1.387 . S
C1850 H1835 0.930 . S
C1850 C1845 1.390 . S
C1850 C1849 1.387 . S
H1851 C1863 0.930 . S
H1852 C1865 0.930 . S
H1853 C1866 0.930 . S
H1854 C1870 0.959 . S
H1855 C1870 0.959 . S
H1856 C1870 0.961 . S
H1857 C1871 0.960 . S
H1858 C1871 0.961 . S
H1859 C1871 0.959 . S
H1860 C1874 0.929 . S
H1861 C1875 0.931 . S
H1862 C1877 0.930 . S
C1863 H1851 0.930 . S
C1863 C1864 1.399 . S
C1863 C1868 1.399 . S
C1864 C1863 1.399 . S
C1864 C1865 1.376 . S
C1865 H1852 0.930 . S
C1865 C1864 1.376 . S
C1865 C1866 1.388 . S
C1866 H1853 0.930 . S
C1866 C1865 1.388 . S
C1866 C1867 1.390 . S
C1867 C1866 1.390 . S
C1867 C1868 1.394 . S
C1867 C1873 1.465 . S
C1868 C1863 1.399 . S
C1868 C1867 1.394 . S
C1868 C1869 1.516 . S
C1869 C1868 1.516 . S
C1869 C1870 1.502 . S
C1869 C1871 1.561 . S
C1869 C1872 1.526 . S
C1870 H1854 0.959 . S
C1870 H1855 0.959 . S
C1870 H1856 0.961 . S
C1870 C1869 1.502 . S
C1871 H1857 0.960 . S
C1871 H1858 0.961 . S
C1871 H1859 0.959 . S
C1871 C1869 1.561 . S
C1872 C1869 1.526 . S
C1872 C1873 1.396 . S
C1872 C1877 1.390 . S
C1873 C1867 1.465 . S
C1873 C1872 1.396 . S
C1873 C1874 1.399 . S
C1874 H1860 0.929 . S
C1874 C1873 1.399 . S
C1874 C1875 1.385 . S
C1875 H1861 0.931 . S
C1875 C1874 1.385 . S
C1875 C1876 1.389 . S
C1876 C1875 1.389 . S
C1876 C1877 1.387 . S
C1877 H1862 0.930 . S
C1877 C1872 1.390 . S
C1877 C1876 1.387 . S
H1878 C1890 0.930 . S
H1879 C1892 0.930 . S
H1880 C1893 0.930 . S
H1881 C1897 0.959 . S
H1882 C1897 0.959 . S
H1883 C1897 0.961 . S
H1884 C1898 0.960 . S
H1885 C1898 0.961 . S
H1886 C1898 0.959 . S
H1887 C1901 0.929 1_545 S
H1888 C1902 0.931 . S
H1889 C1904 0.930 . S
C1890 H1878 0.930 . S
C1890 C1891 1.399 1_565 S
C1890 C1895 1.399 . S
C1891 C1890 1.399 1_545 S
C1891 C1892 1.376 . S
C1892 H1879 0.930 . S
C1892 C1891 1.376 . S
C1892 C1893 1.388 . S
C1893 H1880 0.930 . S
C1893 C1892 1.388 . S
C1893 C1894 1.390 1_545 S
C1894 C1893 1.390 1_565 S
C1894 C1895 1.394 . S
C1894 C1900 1.465 . S
C1895 C1890 1.399 . S
C1895 C1894 1.394 . S
C1895 C1896 1.516 . S
C1896 C1895 1.516 . S
C1896 C1897 1.502 . S
C1896 C1898 1.561 . S
C1896 C1899 1.526 . S
C1897 H1881 0.959 . S
C1897 H1882 0.959 . S
C1897 H1883 0.961 . S
C1897 C1896 1.502 . S
C1898 H1884 0.960 . S
C1898 H1885 0.961 . S
C1898 H1886 0.959 . S
C1898 C1896 1.561 . S
C1899 C1896 1.526 . S
C1899 C1900 1.396 . S
C1899 C1904 1.390 . S
C1900 C1894 1.465 . S
C1900 C1899 1.396 . S
C1900 C1901 1.399 . S
C1901 H1887 0.929 1_565 S
C1901 C1900 1.399 . S
C1901 C1902 1.385 . S
C1902 H1888 0.931 . S
C1902 C1901 1.385 . S
C1902 C1903 1.389 . S
C1903 C1902 1.389 . S
C1903 C1904 1.387 . S
C1904 H1889 0.930 . S
C1904 C1899 1.390 . S
C1904 C1903 1.387 . S
H1905 C1917 0.930 . S
H1906 C1919 0.930 . S
H1907 C1920 0.930 . S
H1908 C1924 0.959 . S
H1909 C1924 0.959 . S
H1910 C1924 0.961 . S
H1911 C1925 0.960 . S
H1912 C1925 0.961 . S
H1913 C1925 0.959 . S
H1914 C1928 0.929 . S
H1915 C1929 0.931 . S
H1916 C1931 0.930 . S
C1917 H1905 0.930 . S
C1917 C1918 1.399 . S
C1917 C1922 1.399 . S
C1918 C1917 1.399 . S
C1918 C1919 1.376 . S
C1919 H1906 0.930 . S
C1919 C1918 1.376 . S
C1919 C1920 1.388 . S
C1920 H1907 0.930 . S
C1920 C1919 1.388 . S
C1920 C1921 1.390 . S
C1921 C1920 1.390 . S
C1921 C1922 1.394 . S
C1921 C1927 1.465 . S
C1922 C1917 1.399 . S
C1922 C1921 1.394 . S
C1922 C1923 1.516 . S
C1923 C1922 1.516 . S
C1923 C1924 1.502 . S
C1923 C1925 1.561 . S
C1923 C1926 1.526 . S
C1924 H1908 0.959 . S
C1924 H1909 0.959 . S
C1924 H1910 0.961 . S
C1924 C1923 1.502 . S
C1925 H1911 0.960 . S
C1925 H1912 0.961 . S
C1925 H1913 0.959 . S
C1925 C1923 1.561 . S
C1926 C1923 1.526 . S
C1926 C1927 1.396 . S
C1926 C1931 1.390 . S
C1927 C1921 1.465 . S
C1927 C1926 1.396 . S
C1927 C1928 1.399 . S
C1928 H1914 0.929 . S
C1928 C1927 1.399 . S
C1928 C1929 1.385 . S
C1929 H1915 0.931 . S
C1929 C1928 1.385 . S
C1929 C1930 1.389 . S
C1930 C1929 1.389 . S
C1930 C1931 1.387 . S
C1931 H1916 0.930 . S
C1931 C1926 1.390 . S
C1931 C1930 1.387 . S
H1932 C1944 0.930 . S
H1933 C1946 0.930 . S
H1934 C1947 0.930 . S
H1935 C1951 0.959 . S
H1936 C1951 0.959 . S
H1937 C1951 0.961 . S
H1938 C1952 0.960 . S
H1939 C1952 0.961 . S
H1940 C1952 0.959 . S
H1941 C1955 0.929 . S
H1942 C1956 0.931 . S
H1943 C1958 0.930 . S
C1944 H1932 0.930 . S
C1944 C1945 1.399 . S
C1944 C1949 1.399 . S
C1945 C1944 1.399 . S
C1945 C1946 1.376 . S
C1946 H1933 0.930 . S
C1946 C1945 1.376 . S
C1946 C1947 1.388 . S
C1947 H1934 0.930 . S
C1947 C1946 1.388 . S
C1947 C1948 1.390 . S
C1948 C1947 1.390 . S
C1948 C1949 1.394 . S
C1948 C1954 1.465 . S
C1949 C1944 1.399 . S
C1949 C1948 1.394 . S
C1949 C1950 1.516 . S
C1950 C1949 1.516 . S
C1950 C1951 1.502 . S
C1950 C1952 1.561 . S
C1950 C1953 1.526 . S
C1951 H1935 0.959 . S
C1951 H1936 0.959 . S
C1951 H1937 0.961 . S
C1951 C1950 1.502 . S
C1952 H1938 0.960 . S
C1952 H1939 0.961 . S
C1952 H1940 0.959 . S
C1952 C1950 1.561 . S
C1953 C1950 1.526 . S
C1953 C1954 1.396 . S
C1953 C1958 1.390 . S
C1954 C1948 1.465 . S
C1954 C1953 1.396 . S
C1954 C1955 1.399 . S
C1955 H1941 0.929 . S
C1955 C1954 1.399 . S
C1955 C1956 1.385 . S
C1956 H1942 0.931 . S
C1956 C1955 1.385 . S
C1956 C1957 1.389 . S
C1957 C1956 1.389 . S
C1957 C1958 1.387 . S
C1958 H1943 0.930 . S
C1958 C1953 1.390 . S
C1958 C1957 1.387 . S
H1959 C1971 0.930 . S
H1960 C1973 0.930 . S
H1961 C1974 0.930 . S
H1962 C1978 0.959 . S
H1963 C1978 0.959 . S
H1964 C1978 0.961 . S
H1965 C1979 0.960 . S
H1966 C1979 0.961 . S
H1967 C1979 0.959 . S
H1968 C1982 0.929 . S
H1969 C1983 0.931 . S
H1970 C1985 0.930 . S
C1971 H1959 0.930 . S
C1971 C1972 1.399 . S
C1971 C1976 1.399 . S
C1972 C1971 1.399 . S
C1972 C1973 1.376 . S
C1973 H1960 0.930 . S
C1973 C1972 1.376 . S
C1973 C1974 1.388 . S
C1974 H1961 0.930 . S
C1974 C1973 1.388 . S
C1974 C1975 1.390 . S
C1975 C1974 1.390 . S
C1975 C1976 1.394 . S
C1975 C1981 1.465 . S
C1976 C1971 1.399 . S
C1976 C1975 1.394 . S
C1976 C1977 1.516 . S
C1977 C1976 1.516 . S
C1977 C1978 1.502 . S
C1977 C1979 1.561 . S
C1977 C1980 1.526 . S
C1978 H1962 0.959 . S
C1978 H1963 0.959 . S
C1978 H1964 0.961 . S
C1978 C1977 1.502 . S
C1979 H1965 0.960 . S
C1979 H1966 0.961 . S
C1979 H1967 0.959 . S
C1979 C1977 1.561 . S
C1980 C1977 1.526 . S
C1980 C1981 1.396 . S
C1980 C1985 1.390 . S
C1981 C1975 1.465 . S
C1981 C1980 1.396 . S
C1981 C1982 1.399 . S
C1982 H1968 0.929 . S
C1982 C1981 1.399 . S
C1982 C1983 1.385 . S
C1983 H1969 0.931 . S
C1983 C1982 1.385 . S
C1983 C1984 1.389 . S
C1984 C1983 1.389 . S
C1984 C1985 1.387 . S
C1985 H1970 0.930 . S
C1985 C1980 1.390 . S
C1985 C1984 1.387 . S
H1986 C1998 0.930 . S
H1987 C2000 0.930 . S
H1988 C2001 0.930 . S
H1989 C2005 0.959 . S
H1990 C2005 0.959 . S
H1991 C2005 0.961 . S
H1992 C2006 0.960 . S
H1993 C2006 0.961 . S
H1994 C2006 0.959 . S
H1995 C2009 0.929 . S
H1996 C2010 0.931 . S
H1997 C2012 0.930 . S
C1998 H1986 0.930 . S
C1998 C1999 1.399 1_545 S
C1998 C2003 1.399 . S
C1999 C1998 1.399 1_565 S
C1999 C2000 1.376 . S
C2000 H1987 0.930 . S
C2000 C1999 1.376 . S
C2000 C2001 1.388 . S
C2001 H1988 0.930 . S
C2001 C2000 1.388 . S
C2001 C2002 1.390 1_565 S
C2002 C2001 1.390 1_545 S
C2002 C2003 1.394 . S
C2002 C2008 1.465 . S
C2003 C1998 1.399 . S
C2003 C2002 1.394 . S
C2003 C2004 1.516 . S
C2004 C2003 1.516 . S
C2004 C2005 1.502 . S
C2004 C2006 1.561 . S
C2004 C2007 1.526 . S
C2005 H1989 0.959 . S
C2005 H1990 0.959 . S
C2005 H1991 0.961 . S
C2005 C2004 1.502 . S
C2006 H1992 0.960 . S
C2006 H1993 0.961 . S
C2006 H1994 0.959 . S
C2006 C2004 1.561 . S
C2007 C2004 1.526 . S
C2007 C2008 1.396 . S
C2007 C2012 1.390 . S
C2008 C2002 1.465 . S
C2008 C2007 1.396 . S
C2008 C2009 1.399 1_556 S
C2009 H1995 0.929 . S
C2009 C2008 1.399 1_554 S
C2009 C2010 1.385 . S
C2010 H1996 0.931 . S
C2010 C2009 1.385 . S
C2010 C2011 1.389 . S
C2011 C2010 1.389 . S
C2011 C2012 1.387 1_554 S
C2012 H1997 0.930 . S
C2012 C2007 1.390 . S
C2012 C2011 1.387 1_556 S
H2013 C2025 0.930 . S
H2014 C2027 0.930 . S
H2015 C2028 0.930 . S
H2016 C2032 0.959 1_565 S
H2017 C2032 0.959 . S
H2018 C2032 0.961 . S
H2019 C2033 0.960 . S
H2020 C2033 0.961 . S
H2021 C2033 0.959 . S
H2022 C2036 0.929 . S
H2023 C2037 0.931 . S
H2024 C2039 0.930 . S
C2025 H2013 0.930 . S
C2025 C2026 1.399 . S
C2025 C2030 1.399 1_545 S
C2026 C2025 1.399 . S
C2026 C2027 1.376 1_545 S
C2027 H2014 0.930 . S
C2027 C2026 1.376 1_565 S
C2027 C2028 1.388 . S
C2028 H2015 0.930 . S
C2028 C2027 1.388 . S
C2028 C2029 1.390 . S
C2029 C2028 1.390 . S
C2029 C2030 1.394 . S
C2029 C2035 1.465 . S
C2030 C2025 1.399 1_565 S
C2030 C2029 1.394 . S
C2030 C2031 1.517 . S
C2031 C2030 1.517 . S
C2031 C2032 1.497 1_565 S
C2031 C2033 1.539 1_565 S
C2031 C2034 1.554 . S
C2032 H2016 0.959 1_545 S
C2032 H2017 0.959 . S
C2032 H2018 0.961 . S
C2032 C2031 1.497 1_545 S
C2033 H2019 0.960 . S
C2033 H2020 0.961 . S
C2033 H2021 0.959 . S
C2033 C2031 1.539 1_545 S
C2034 C2031 1.554 . S
C2034 C2035 1.396 . S
C2034 C2039 1.390 . S
C2035 C2029 1.465 . S
C2035 C2034 1.396 . S
C2035 C2036 1.399 . S
C2036 H2022 0.929 . S
C2036 C2035 1.399 . S
C2036 C2037 1.385 . S
C2037 H2023 0.931 . S
C2037 C2036 1.385 . S
C2037 C2038 1.389 . S
C2038 C2037 1.389 . S
C2038 C2039 1.387 . S
C2039 H2024 0.930 . S
C2039 C2034 1.390 . S
C2039 C2038 1.387 . S
H2040 C2052 0.930 . S
H2041 C2054 0.930 . S
H2042 C2055 0.930 . S
H2043 C2059 0.959 . S
H2044 C2059 0.959 . S
H2045 C2059 0.961 . S
H2046 C2060 0.960 . S
H2047 C2060 0.961 . S
H2048 C2060 0.959 . S
H2049 C2063 0.929 . S
H2050 C2064 0.931 . S
H2051 C2066 0.930 . S
C2052 H2040 0.930 . S
C2052 C2053 1.399 . S
C2052 C2057 1.399 . S
C2053 C2052 1.399 . S
C2053 C2054 1.376 . S
C2054 H2041 0.930 . S
C2054 C2053 1.376 . S
C2054 C2055 1.388 . S
C2055 H2042 0.930 . S
C2055 C2054 1.388 . S
C2055 C2056 1.390 . S
C2056 C2055 1.390 . S
C2056 C2057 1.394 . S
C2056 C2062 1.465 . S
C2057 C2052 1.399 . S
C2057 C2056 1.394 . S
C2057 C2058 1.516 . S
C2058 C2057 1.516 . S
C2058 C2059 1.502 . S
C2058 C2060 1.561 . S
C2058 C2061 1.526 . S
C2059 H2043 0.959 . S
C2059 H2044 0.959 . S
C2059 H2045 0.961 . S
C2059 C2058 1.502 . S
C2060 H2046 0.960 . S
C2060 H2047 0.961 . S
C2060 H2048 0.959 . S
C2060 C2058 1.561 . S
C2061 C2058 1.526 . S
C2061 C2062 1.396 . S
C2061 C2066 1.390 . S
C2062 C2056 1.465 . S
C2062 C2061 1.396 . S
C2062 C2063 1.399 . S
C2063 H2049 0.929 . S
C2063 C2062 1.399 . S
C2063 C2064 1.385 . S
C2064 H2050 0.931 . S
C2064 C2063 1.385 . S
C2064 C2065 1.389 . S
C2065 C2064 1.389 . S
C2065 C2066 1.387 . S
C2066 H2051 0.930 . S
C2066 C2061 1.390 . S
C2066 C2065 1.387 . S
H2067 C2079 0.930 . S
H2068 C2081 0.930 . S
H2069 C2082 0.930 . S
H2070 C2086 0.959 . S
H2071 C2086 0.959 . S
H2072 C2086 0.961 . S
H2073 C2087 0.960 . S
H2074 C2087 0.961 . S
H2075 C2087 0.959 . S
H2076 C2090 0.929 . S
H2077 C2091 0.931 . S
H2078 C2093 0.930 . S
C2079 H2067 0.930 . S
C2079 C2080 1.399 . S
C2079 C2084 1.399 . S
C2080 C2079 1.399 . S
C2080 C2081 1.376 . S
C2081 H2068 0.930 . S
C2081 C2080 1.376 . S
C2081 C2082 1.388 . S
C2082 H2069 0.930 . S
C2082 C2081 1.388 . S
C2082 C2083 1.390 . S
C2083 C2082 1.390 . S
C2083 C2084 1.394 . S
C2083 C2089 1.465 1_455 S
C2084 C2079 1.399 . S
C2084 C2083 1.394 . S
C2084 C2085 1.516 . S
C2085 C2084 1.516 . S
C2085 C2086 1.502 . S
C2085 C2087 1.561 1_455 S
C2085 C2088 1.526 1_455 S
C2086 H2070 0.959 . S
C2086 H2071 0.959 . S
C2086 H2072 0.961 . S
C2086 C2085 1.502 . S
C2087 H2073 0.960 . S
C2087 H2074 0.961 . S
C2087 H2075 0.959 . S
C2087 C2085 1.561 1_655 S
C2088 C2085 1.526 1_655 S
C2088 C2089 1.396 . S
C2088 C2093 1.390 . S
C2089 C2083 1.465 1_655 S
C2089 C2088 1.396 . S
C2089 C2090 1.399 . S
C2090 H2076 0.929 . S
C2090 C2089 1.399 . S
C2090 C2091 1.385 . S
C2091 H2077 0.931 . S
C2091 C2090 1.385 . S
C2091 C2092 1.389 . S
C2092 C2091 1.389 . S
C2092 C2093 1.387 . S
C2093 H2078 0.930 . S
C2093 C2088 1.390 . S
C2093 C2092 1.387 . S
H2094 C2106 0.930 . S
H2095 C2108 0.930 . S
H2096 C2109 0.930 . S
H2097 C2113 0.959 . S
H2098 C2113 0.959 . S
H2099 C2113 0.961 . S
H2100 C2114 0.960 . S
H2101 C2114 0.961 . S
H2102 C2114 0.959 . S
H2103 C2117 0.929 . S
H2104 C2118 0.931 . S
H2105 C2120 0.930 . S
C2106 H2094 0.930 . S
C2106 C2107 1.399 . S
C2106 C2111 1.399 . S
C2107 C2106 1.399 . S
C2107 C2108 1.376 . S
C2108 H2095 0.930 . S
C2108 C2107 1.376 . S
C2108 C2109 1.388 1_554 S
C2109 H2096 0.930 . S
C2109 C2108 1.388 1_556 S
C2109 C2110 1.390 . S
C2110 C2109 1.390 . S
C2110 C2111 1.394 1_556 S
C2110 C2116 1.465 . S
C2111 C2106 1.399 . S
C2111 C2110 1.394 1_554 S
C2111 C2112 1.516 . S
C2112 C2111 1.516 . S
C2112 C2113 1.502 . S
C2112 C2114 1.561 . S
C2112 C2115 1.526 1_554 S
C2113 H2097 0.959 . S
C2113 H2098 0.959 . S
C2113 H2099 0.961 . S
C2113 C2112 1.502 . S
C2114 H2100 0.960 . S
C2114 H2101 0.961 . S
C2114 H2102 0.959 . S
C2114 C2112 1.561 . S
C2115 C2112 1.526 1_556 S
C2115 C2116 1.396 . S
C2115 C2120 1.390 . S
C2116 C2110 1.465 . S
C2116 C2115 1.396 . S
C2116 C2117 1.399 . S
C2117 H2103 0.929 . S
C2117 C2116 1.399 . S
C2117 C2118 1.385 . S
C2118 H2104 0.931 . S
C2118 C2117 1.385 . S
C2118 C2119 1.389 . S
C2119 C2118 1.389 . S
C2119 C2120 1.387 . S
C2120 H2105 0.930 . S
C2120 C2115 1.390 . S
C2120 C2119 1.387 . S
H2121 C2133 0.930 . S
H2122 C2135 0.930 . S
H2123 C2136 0.930 . S
H2124 C2140 0.959 . S
H2125 C2140 0.959 . S
H2126 C2140 0.961 . S
H2127 C2141 0.960 . S
H2128 C2141 0.961 . S
H2129 C2141 0.959 . S
H2130 C2144 0.929 . S
H2131 C2145 0.931 . S
H2132 C2147 0.930 . S
C2133 H2121 0.930 . S
C2133 C2134 1.399 . S
C2133 C2138 1.399 . S
C2134 C2133 1.399 . S
C2134 C2135 1.376 . S
C2135 H2122 0.930 . S
C2135 C2134 1.376 . S
C2135 C2136 1.388 . S
C2136 H2123 0.930 . S
C2136 C2135 1.388 . S
C2136 C2137 1.390 . S
C2137 C2136 1.390 . S
C2137 C2138 1.394 . S
C2137 C2143 1.465 . S
C2138 C2133 1.399 . S
C2138 C2137 1.394 . S
C2138 C2139 1.516 . S
C2139 C2138 1.516 . S
C2139 C2140 1.502 . S
C2139 C2141 1.561 . S
C2139 C2142 1.526 . S
C2140 H2124 0.959 . S
C2140 H2125 0.959 . S
C2140 H2126 0.961 . S
C2140 C2139 1.502 . S
C2141 H2127 0.960 . S
C2141 H2128 0.961 . S
C2141 H2129 0.959 . S
C2141 C2139 1.561 . S
C2142 C2139 1.526 . S
C2142 C2143 1.396 . S
C2142 C2147 1.390 . S
C2143 C2137 1.465 . S
C2143 C2142 1.396 . S
C2143 C2144 1.399 . S
C2144 H2130 0.929 . S
C2144 C2143 1.399 . S
C2144 C2145 1.385 . S
C2145 H2131 0.931 . S
C2145 C2144 1.385 . S
C2145 C2146 1.389 . S
C2146 C2145 1.389 . S
C2146 C2147 1.387 . S
C2147 H2132 0.930 . S
C2147 C2142 1.390 . S
C2147 C2146 1.387 . S
H2148 C2160 0.930 . S
H2149 C2162 0.930 . S
H2150 C2163 0.930 . S
H2151 C2167 0.959 . S
H2152 C2167 0.959 . S
H2153 C2167 0.961 . S
H2154 C2168 0.960 . S
H2155 C2168 0.961 . S
H2156 C2168 0.959 . S
H2157 C2171 0.929 1_556 S
H2158 C2172 0.931 . S
H2159 C2174 0.930 . S
C2160 H2148 0.930 . S
C2160 C2161 1.399 . S
C2160 C2165 1.399 . S
C2161 C2160 1.399 . S
C2161 C2162 1.376 . S
C2162 H2149 0.930 . S
C2162 C2161 1.376 . S
C2162 C2163 1.388 . S
C2163 H2150 0.930 . S
C2163 C2162 1.388 . S
C2163 C2164 1.390 . S
C2164 C2163 1.390 . S
C2164 C2165 1.394 . S
C2164 C2170 1.465 1_556 S
C2165 C2160 1.399 . S
C2165 C2164 1.394 . S
C2165 C2166 1.516 1_556 S
C2166 C2165 1.516 1_554 S
C2166 C2167 1.502 . S
C2166 C2168 1.561 . S
C2166 C2169 1.526 . S
C2167 H2151 0.959 . S
C2167 H2152 0.959 . S
C2167 H2153 0.961 . S
C2167 C2166 1.502 . S
C2168 H2154 0.960 . S
C2168 H2155 0.961 . S
C2168 H2156 0.959 . S
C2168 C2166 1.561 . S
C2169 C2166 1.526 . S
C2169 C2170 1.396 . S
C2169 C2174 1.390 . S
C2170 C2164 1.465 1_554 S
C2170 C2169 1.396 . S
C2170 C2171 1.399 . S
C2171 H2157 0.929 1_554 S
C2171 C2170 1.399 . S
C2171 C2172 1.385 . S
C2172 H2158 0.931 . S
C2172 C2171 1.385 . S
C2172 C2173 1.389 . S
C2173 C2172 1.389 . S
C2173 C2174 1.387 . S
C2174 H2159 0.930 . S
C2174 C2169 1.390 . S
C2174 C2173 1.387 . S
H2175 C2187 0.930 . S
H2176 C2189 0.930 . S
H2177 C2190 0.930 . S
H2178 C2194 0.959 . S
H2179 C2194 0.959 . S
H2180 C2194 0.961 . S
H2181 C2195 0.960 . S
H2182 C2195 0.961 . S
H2183 C2195 0.959 . S
H2184 C2198 0.929 . S
H2185 C2199 0.931 . S
H2186 C2201 0.930 . S
C2187 H2175 0.930 . S
C2187 C2188 1.399 . S
C2187 C2192 1.399 . S
C2188 C2187 1.399 . S
C2188 C2189 1.376 . S
C2189 H2176 0.930 . S
C2189 C2188 1.376 . S
C2189 C2190 1.388 . S
C2190 H2177 0.930 . S
C2190 C2189 1.388 . S
C2190 C2191 1.390 . S
C2191 C2190 1.390 . S
C2191 C2192 1.394 . S
C2191 C2197 1.465 . S
C2192 C2187 1.399 . S
C2192 C2191 1.394 . S
C2192 C2193 1.516 . S
C2193 C2192 1.516 . S
C2193 C2194 1.502 . S
C2193 C2195 1.561 . S
C2193 C2196 1.526 . S
C2194 H2178 0.959 . S
C2194 H2179 0.959 . S
C2194 H2180 0.961 . S
C2194 C2193 1.502 . S
C2195 H2181 0.960 . S
C2195 H2182 0.961 . S
C2195 H2183 0.959 . S
C2195 C2193 1.561 . S
C2196 C2193 1.526 . S
C2196 C2197 1.396 . S
C2196 C2201 1.390 . S
C2197 C2191 1.465 . S
C2197 C2196 1.396 . S
C2197 C2198 1.399 . S
C2198 H2184 0.929 . S
C2198 C2197 1.399 . S
C2198 C2199 1.385 . S
C2199 H2185 0.931 . S
C2199 C2198 1.385 . S
C2199 C2200 1.389 . S
C2200 C2199 1.389 . S
C2200 C2201 1.387 . S
C2201 H2186 0.930 . S
C2201 C2196 1.390 . S
C2201 C2200 1.387 . S
H2202 C2214 0.930 . S
H2203 C2216 0.930 . S
H2204 C2217 0.930 . S
H2205 C2221 0.959 . S
H2206 C2221 0.959 . S
H2207 C2221 0.961 . S
H2208 C2222 0.960 . S
H2209 C2222 0.961 . S
H2210 C2222 0.959 . S
H2211 C2225 0.929 . S
H2212 C2226 0.931 . S
H2213 C2228 0.930 . S
C2214 H2202 0.930 . S
C2214 C2215 1.399 . S
C2214 C2219 1.399 . S
C2215 C2214 1.399 . S
C2215 C2216 1.376 . S
C2216 H2203 0.930 . S
C2216 C2215 1.376 . S
C2216 C2217 1.388 . S
C2217 H2204 0.930 . S
C2217 C2216 1.388 . S
C2217 C2218 1.390 . S
C2218 C2217 1.390 . S
C2218 C2219 1.394 . S
C2218 C2224 1.465 . S
C2219 C2214 1.399 . S
C2219 C2218 1.394 . S
C2219 C2220 1.516 . S
C2220 C2219 1.516 . S
C2220 C2221 1.502 . S
C2220 C2222 1.561 . S
C2220 C2223 1.526 . S
C2221 H2205 0.959 . S
C2221 H2206 0.959 . S
C2221 H2207 0.961 . S
C2221 C2220 1.502 . S
C2222 H2208 0.960 . S
C2222 H2209 0.961 . S
C2222 H2210 0.959 . S
C2222 C2220 1.561 . S
C2223 C2220 1.526 . S
C2223 C2224 1.396 . S
C2223 C2228 1.390 . S
C2224 C2218 1.465 . S
C2224 C2223 1.396 . S
C2224 C2225 1.399 . S
C2225 H2211 0.929 . S
C2225 C2224 1.399 . S
C2225 C2226 1.385 . S
C2226 H2212 0.931 . S
C2226 C2225 1.385 . S
C2226 C2227 1.389 . S
C2227 C2226 1.389 . S
C2227 C2228 1.387 . S
C2228 H2213 0.930 . S
C2228 C2223 1.390 . S
C2228 C2227 1.387 . S
H2229 C2241 0.930 . S
H2230 C2243 0.930 . S
H2231 C2244 0.930 . S
H2232 C2248 0.959 . S
H2233 C2248 0.959 1_455 S
H2234 C2248 0.961 . S
H2235 C2249 0.960 . S
H2236 C2249 0.961 . S
H2237 C2249 0.959 . S
H2238 C2252 0.929 . S
H2239 C2253 0.931 . S
H2240 C2255 0.930 . S
C2241 H2229 0.930 . S
C2241 C2242 1.399 . S
C2241 C2246 1.399 . S
C2242 C2241 1.399 . S
C2242 C2243 1.376 . S
C2243 H2230 0.930 . S
C2243 C2242 1.376 . S
C2243 C2244 1.388 . S
C2244 H2231 0.930 . S
C2244 C2243 1.388 . S
C2244 C2245 1.390 . S
C2245 C2244 1.390 . S
C2245 C2246 1.394 . S
C2245 C2251 1.465 1_655 S
C2246 C2241 1.399 . S
C2246 C2245 1.394 . S
C2246 C2247 1.516 1_655 S
C2247 C2246 1.516 1_455 S
C2247 C2248 1.502 1_455 S
C2247 C2249 1.561 . S
C2247 C2250 1.526 . S
C2248 H2232 0.959 . S
C2248 H2233 0.959 1_655 S
C2248 H2234 0.961 . S
C2248 C2247 1.502 1_655 S
C2249 H2235 0.960 . S
C2249 H2236 0.961 . S
C2249 H2237 0.959 . S
C2249 C2247 1.561 . S
C2250 C2247 1.526 . S
C2250 C2251 1.396 . S
C2250 C2255 1.390 . S
C2251 C2245 1.465 1_455 S
C2251 C2250 1.396 . S
C2251 C2252 1.399 . S
C2252 H2238 0.929 . S
C2252 C2251 1.399 . S
C2252 C2253 1.385 . S
C2253 H2239 0.931 . S
C2253 C2252 1.385 . S
C2253 C2254 1.389 . S
C2254 C2253 1.389 . S
C2254 C2255 1.387 . S
C2255 H2240 0.930 . S
C2255 C2250 1.390 . S
C2255 C2254 1.387 . S
H2256 C2268 0.930 . S
H2257 C2270 0.930 . S
H2258 C2271 0.930 . S
H2259 C2275 0.959 . S
H2260 C2275 0.959 . S
H2261 C2275 0.961 . S
H2262 C2276 0.960 . S
H2263 C2276 0.961 . S
H2264 C2276 0.959 . S
H2265 C2279 0.929 . S
H2266 C2280 0.931 . S
H2267 C2282 0.930 . S
C2268 H2256 0.930 . S
C2268 C2269 1.399 . S
C2268 C2273 1.399 . S
C2269 C2268 1.399 . S
C2269 C2270 1.376 . S
C2270 H2257 0.930 . S
C2270 C2269 1.376 . S
C2270 C2271 1.388 . S
C2271 H2258 0.930 . S
C2271 C2270 1.388 . S
C2271 C2272 1.390 . S
C2272 C2271 1.390 . S
C2272 C2273 1.394 . S
C2272 C2278 1.465 . S
C2273 C2268 1.399 . S
C2273 C2272 1.394 . S
C2273 C2274 1.516 . S
C2274 C2273 1.516 . S
C2274 C2275 1.502 . S
C2274 C2276 1.561 . S
C2274 C2277 1.526 . S
C2275 H2259 0.959 . S
C2275 H2260 0.959 . S
C2275 H2261 0.961 . S
C2275 C2274 1.502 . S
C2276 H2262 0.960 . S
C2276 H2263 0.961 . S
C2276 H2264 0.959 . S
C2276 C2274 1.561 . S
C2277 C2274 1.526 . S
C2277 C2278 1.396 . S
C2277 C2282 1.390 . S
C2278 C2272 1.465 . S
C2278 C2277 1.396 . S
C2278 C2279 1.399 . S
C2279 H2265 0.929 . S
C2279 C2278 1.399 . S
C2279 C2280 1.385 . S
C2280 H2266 0.931 . S
C2280 C2279 1.385 . S
C2280 C2281 1.389 . S
C2281 C2280 1.389 . S
C2281 C2282 1.387 . S
C2282 H2267 0.930 . S
C2282 C2277 1.390 . S
C2282 C2281 1.387 . S
H2283 C2295 0.930 . S
H2284 C2297 0.930 . S
H2285 C2298 0.930 . S
H2286 C2302 0.959 . S
H2287 C2302 0.959 . S
H2288 C2302 0.961 . S
H2289 C2303 0.960 . S
H2290 C2303 0.961 . S
H2291 C2303 0.959 . S
H2292 C2306 0.929 . S
H2293 C2307 0.931 . S
H2294 C2309 0.930 . S
C2295 H2283 0.930 . S
C2295 C2296 1.399 . S
C2295 C2300 1.399 . S
C2296 C2295 1.399 . S
C2296 C2297 1.376 . S
C2297 H2284 0.930 . S
C2297 C2296 1.376 . S
C2297 C2298 1.388 . S
C2298 H2285 0.930 . S
C2298 C2297 1.388 . S
C2298 C2299 1.390 . S
C2299 C2298 1.390 . S
C2299 C2300 1.394 . S
C2299 C2305 1.465 1_545 S
C2300 C2295 1.399 . S
C2300 C2299 1.394 . S
C2300 C2301 1.516 . S
C2301 C2300 1.516 . S
C2301 C2302 1.502 1_545 S
C2301 C2303 1.561 . S
C2301 C2304 1.526 1_545 S
C2302 H2286 0.959 . S
C2302 H2287 0.959 . S
C2302 H2288 0.961 . S
C2302 C2301 1.502 1_565 S
C2303 H2289 0.960 . S
C2303 H2290 0.961 . S
C2303 H2291 0.959 . S
C2303 C2301 1.561 . S
C2304 C2301 1.526 1_565 S
C2304 C2305 1.396 . S
C2304 C2309 1.390 . S
C2305 C2299 1.465 1_565 S
C2305 C2304 1.396 . S
C2305 C2306 1.399 . S
C2306 H2292 0.929 . S
C2306 C2305 1.399 . S
C2306 C2307 1.385 . S
C2307 H2293 0.931 . S
C2307 C2306 1.385 . S
C2307 C2308 1.389 . S
C2308 C2307 1.389 . S
C2308 C2309 1.387 . S
C2309 H2294 0.930 . S
C2309 C2304 1.390 . S
C2309 C2308 1.387 . S
H2310 C2322 0.930 . S
H2311 C2324 0.930 . S
H2312 C2325 0.930 1_565 S
H2313 C2329 0.959 . S
H2314 C2329 0.959 . S
H2315 C2329 0.961 . S
H2316 C2330 0.960 1_545 S
H2317 C2330 0.961 . S
H2318 C2330 0.959 . S
H2319 C2333 0.929 . S
H2320 C2334 0.931 . S
H2321 C2336 0.930 . S
C2322 H2310 0.930 . S
C2322 C2323 1.399 . S
C2322 C2327 1.399 . S
C2323 C2322 1.399 . S
C2323 C2324 1.376 . S
C2324 H2311 0.930 . S
C2324 C2323 1.376 . S
C2324 C2325 1.388 . S
C2325 H2312 0.930 1_545 S
C2325 C2324 1.388 . S
C2325 C2326 1.390 . S
C2326 C2325 1.390 . S
C2326 C2327 1.393 . S
C2326 C2332 1.465 1_545 S
C2327 C2322 1.399 . S
C2327 C2326 1.393 . S
C2327 C2328 1.516 . S
C2328 C2327 1.516 . S
C2328 C2329 1.502 . S
C2328 C2330 1.561 1_545 S
C2328 C2331 1.526 1_545 S
C2329 H2313 0.959 . S
C2329 H2314 0.959 . S
C2329 H2315 0.961 . S
C2329 C2328 1.502 . S
C2330 H2316 0.960 1_565 S
C2330 H2317 0.961 . S
C2330 H2318 0.959 . S
C2330 C2328 1.561 1_565 S
C2331 C2328 1.526 1_565 S
C2331 C2332 1.396 . S
C2331 C2336 1.390 . S
C2332 C2326 1.465 1_565 S
C2332 C2331 1.396 . S
C2332 C2333 1.399 . S
C2333 H2319 0.929 . S
C2333 C2332 1.399 . S
C2333 C2334 1.385 . S
C2334 H2320 0.931 . S
C2334 C2333 1.385 . S
C2334 C2335 1.389 . S
C2335 C2334 1.389 . S
C2335 C2336 1.387 . S
C2336 H2321 0.930 . S
C2336 C2331 1.390 . S
C2336 C2335 1.387 . S
H2337 C2349 0.930 . S
H2338 C2351 0.930 . S
H2339 C2352 0.930 . S
H2340 C2356 0.959 . S
H2341 C2356 0.959 1_545 S
H2342 C2356 0.961 . S
H2343 C2357 0.960 . S
H2344 C2357 0.961 . S
H2345 C2357 0.959 . S
H2346 C2360 0.929 . S
H2347 C2361 0.931 . S
H2348 C2363 0.930 . S
C2349 H2337 0.930 . S
C2349 C2350 1.399 . S
C2349 C2354 1.399 . S
C2350 C2349 1.399 . S
C2350 C2351 1.376 . S
C2351 H2338 0.930 . S
C2351 C2350 1.376 . S
C2351 C2352 1.388 . S
C2352 H2339 0.930 . S
C2352 C2351 1.388 . S
C2352 C2353 1.390 . S
C2353 C2352 1.390 . S
C2353 C2354 1.394 . S
C2353 C2359 1.465 1_565 S
C2354 C2349 1.399 . S
C2354 C2353 1.394 . S
C2354 C2355 1.516 1_565 S
C2355 C2354 1.516 1_545 S
C2355 C2356 1.502 1_545 S
C2355 C2357 1.561 . S
C2355 C2358 1.526 . S
C2356 H2340 0.959 . S
C2356 H2341 0.959 1_565 S
C2356 H2342 0.961 . S
C2356 C2355 1.502 1_565 S
C2357 H2343 0.960 . S
C2357 H2344 0.961 . S
C2357 H2345 0.959 . S
C2357 C2355 1.561 . S
C2358 C2355 1.526 . S
C2358 C2359 1.396 . S
C2358 C2363 1.390 . S
C2359 C2353 1.465 1_545 S
C2359 C2358 1.396 . S
C2359 C2360 1.399 . S
C2360 H2346 0.929 . S
C2360 C2359 1.399 . S
C2360 C2361 1.385 . S
C2361 H2347 0.931 . S
C2361 C2360 1.385 . S
C2361 C2362 1.389 . S
C2362 C2361 1.389 . S
C2362 C2363 1.387 . S
C2363 H2348 0.930 . S
C2363 C2358 1.390 . S
C2363 C2362 1.387 . S
H2364 C2376 0.930 . S
H2365 C2378 0.930 . S
H2366 C2379 0.930 . S
H2367 C2383 0.959 . S
H2368 C2383 0.959 . S
H2369 C2383 0.961 . S
H2370 C2384 0.960 . S
H2371 C2384 0.961 . S
H2372 C2384 0.959 . S
H2373 C2387 0.929 . S
H2374 C2388 0.931 . S
H2375 C2390 0.930 . S
C2376 H2364 0.930 . S
C2376 C2377 1.399 . S
C2376 C2381 1.399 . S
C2377 C2376 1.399 . S
C2377 C2378 1.376 . S
C2378 H2365 0.930 . S
C2378 C2377 1.376 . S
C2378 C2379 1.388 . S
C2379 H2366 0.930 . S
C2379 C2378 1.388 . S
C2379 C2380 1.390 . S
C2380 C2379 1.390 . S
C2380 C2381 1.394 . S
C2380 C2386 1.465 . S
C2381 C2376 1.399 . S
C2381 C2380 1.394 . S
C2381 C2382 1.516 . S
C2382 C2381 1.516 . S
C2382 C2383 1.502 . S
C2382 C2384 1.561 . S
C2382 C2385 1.526 . S
C2383 H2367 0.959 . S
C2383 H2368 0.959 . S
C2383 H2369 0.961 . S
C2383 C2382 1.502 . S
C2384 H2370 0.960 . S
C2384 H2371 0.961 . S
C2384 H2372 0.959 . S
C2384 C2382 1.561 . S
C2385 C2382 1.526 . S
C2385 C2386 1.396 . S
C2385 C2390 1.390 . S
C2386 C2380 1.465 . S
C2386 C2385 1.396 . S
C2386 C2387 1.399 . S
C2387 H2373 0.929 . S
C2387 C2386 1.399 . S
C2387 C2388 1.385 . S
C2388 H2374 0.931 . S
C2388 C2387 1.385 . S
C2388 C2389 1.389 . S
C2389 C2388 1.389 . S
C2389 C2390 1.387 . S
C2390 H2375 0.930 . S
C2390 C2385 1.390 . S
C2390 C2389 1.387 . S
H2391 C2403 0.930 . S
H2392 C2405 0.930 . S
H2393 C2406 0.930 . S
H2394 C2410 0.959 . S
H2395 C2410 0.959 . S
H2396 C2410 0.961 . S
H2397 C2411 0.960 . S
H2398 C2411 0.961 . S
H2399 C2411 0.959 . S
H2400 C2414 0.929 . S
H2401 C2415 0.931 . S
H2402 C2417 0.930 . S
C2403 H2391 0.930 . S
C2403 C2404 1.399 . S
C2403 C2408 1.399 . S
C2404 C2403 1.399 . S
C2404 C2405 1.376 . S
C2405 H2392 0.930 . S
C2405 C2404 1.376 . S
C2405 C2406 1.388 . S
C2406 H2393 0.930 . S
C2406 C2405 1.388 . S
C2406 C2407 1.390 . S
C2407 C2406 1.390 . S
C2407 C2408 1.394 . S
C2407 C2413 1.465 . S
C2408 C2403 1.399 . S
C2408 C2407 1.394 . S
C2408 C2409 1.516 . S
C2409 C2408 1.516 . S
C2409 C2410 1.502 . S
C2409 C2411 1.561 . S
C2409 C2412 1.526 . S
C2410 H2394 0.959 . S
C2410 H2395 0.959 . S
C2410 H2396 0.961 . S
C2410 C2409 1.502 . S
C2411 H2397 0.960 . S
C2411 H2398 0.961 . S
C2411 H2399 0.959 . S
C2411 C2409 1.561 . S
C2412 C2409 1.526 . S
C2412 C2413 1.396 . S
C2412 C2417 1.390 . S
C2413 C2407 1.465 . S
C2413 C2412 1.396 . S
C2413 C2414 1.399 . S
C2414 H2400 0.929 . S
C2414 C2413 1.399 . S
C2414 C2415 1.385 . S
C2415 H2401 0.931 . S
C2415 C2414 1.385 . S
C2415 C2416 1.389 . S
C2416 C2415 1.389 . S
C2416 C2417 1.387 . S
C2417 H2402 0.930 . S
C2417 C2412 1.390 . S
C2417 C2416 1.387 . S
H2418 C2430 0.930 . S
H2419 C2432 0.930 . S
H2420 C2433 0.930 . S
H2421 C2437 0.959 . S
H2422 C2437 0.959 . S
H2423 C2437 0.961 . S
H2424 C2438 0.960 . S
H2425 C2438 0.961 . S
H2426 C2438 0.959 . S
H2427 C2441 0.929 . S
H2428 C2442 0.931 . S
H2429 C2444 0.930 . S
C2430 H2418 0.930 . S
C2430 C2431 1.399 . S
C2430 C2435 1.399 . S
C2431 C2430 1.399 . S
C2431 C2432 1.376 . S
C2432 H2419 0.930 . S
C2432 C2431 1.376 . S
C2432 C2433 1.388 . S
C2433 H2420 0.930 . S
C2433 C2432 1.388 . S
C2433 C2434 1.390 . S
C2434 C2433 1.390 . S
C2434 C2435 1.394 . S
C2434 C2440 1.465 . S
C2435 C2430 1.399 . S
C2435 C2434 1.394 . S
C2435 C2436 1.516 . S
C2436 C2435 1.516 . S
C2436 C2437 1.502 . S
C2436 C2438 1.561 . S
C2436 C2439 1.526 . S
C2437 H2421 0.959 . S
C2437 H2422 0.959 . S
C2437 H2423 0.961 . S
C2437 C2436 1.502 . S
C2438 H2424 0.960 . S
C2438 H2425 0.961 . S
C2438 H2426 0.959 . S
C2438 C2436 1.561 . S
C2439 C2436 1.526 . S
C2439 C2440 1.396 . S
C2439 C2444 1.390 . S
C2440 C2434 1.465 . S
C2440 C2439 1.396 . S
C2440 C2441 1.399 . S
C2441 H2427 0.929 . S
C2441 C2440 1.399 . S
C2441 C2442 1.385 . S
C2442 H2428 0.931 . S
C2442 C2441 1.385 . S
C2442 C2443 1.389 . S
C2443 C2442 1.389 . S
C2443 C2444 1.387 . S
C2444 H2429 0.930 . S
C2444 C2439 1.390 . S
C2444 C2443 1.387 . S
H2445 C2457 0.930 . S
H2446 C2459 0.930 . S
H2447 C2460 0.930 . S
H2448 C2464 0.959 . S
H2449 C2464 0.959 . S
H2450 C2464 0.961 . S
H2451 C2465 0.960 . S
H2452 C2465 0.961 . S
H2453 C2465 0.959 . S
H2454 C2468 0.929 1_554 S
H2455 C2469 0.931 . S
H2456 C2471 0.930 . S
C2457 H2445 0.930 . S
C2457 C2458 1.399 . S
C2457 C2462 1.399 . S
C2458 C2457 1.399 . S
C2458 C2459 1.376 . S
C2459 H2446 0.930 . S
C2459 C2458 1.376 . S
C2459 C2460 1.388 . S
C2460 H2447 0.930 . S
C2460 C2459 1.388 . S
C2460 C2461 1.390 . S
C2461 C2460 1.390 . S
C2461 C2462 1.394 . S
C2461 C2467 1.465 1_554 S
C2462 C2457 1.399 . S
C2462 C2461 1.394 . S
C2462 C2463 1.516 1_554 S
C2463 C2462 1.516 1_556 S
C2463 C2464 1.502 . S
C2463 C2465 1.561 . S
C2463 C2466 1.526 . S
C2464 H2448 0.959 . S
C2464 H2449 0.959 . S
C2464 H2450 0.961 . S
C2464 C2463 1.502 . S
C2465 H2451 0.960 . S
C2465 H2452 0.961 . S
C2465 H2453 0.959 . S
C2465 C2463 1.561 . S
C2466 C2463 1.526 . S
C2466 C2467 1.396 . S
C2466 C2471 1.390 . S
C2467 C2461 1.465 1_556 S
C2467 C2466 1.396 . S
C2467 C2468 1.399 . S
C2468 H2454 0.929 1_556 S
C2468 C2467 1.399 . S
C2468 C2469 1.385 . S
C2469 H2455 0.931 . S
C2469 C2468 1.385 . S
C2469 C2470 1.389 . S
C2470 C2469 1.389 . S
C2470 C2471 1.387 . S
C2471 H2456 0.930 . S
C2471 C2466 1.390 . S
C2471 C2470 1.387 . S
H2472 C2484 0.930 . S
H2473 C2486 0.930 . S
H2474 C2487 0.930 . S
H2475 C2491 0.959 . S
H2476 C2491 0.959 . S
H2477 C2491 0.961 . S
H2478 C2492 0.960 . S
H2479 C2492 0.961 . S
H2480 C2492 0.959 . S
H2481 C2495 0.929 . S
H2482 C2496 0.931 . S
H2483 C2498 0.930 . S
C2484 H2472 0.930 . S
C2484 C2485 1.399 . S
C2484 C2489 1.399 . S
C2485 C2484 1.399 . S
C2485 C2486 1.376 . S
C2486 H2473 0.930 . S
C2486 C2485 1.376 . S
C2486 C2487 1.388 . S
C2487 H2474 0.930 . S
C2487 C2486 1.388 . S
C2487 C2488 1.390 . S
C2488 C2487 1.390 . S
C2488 C2489 1.394 . S
C2488 C2494 1.465 . S
C2489 C2484 1.399 . S
C2489 C2488 1.394 . S
C2489 C2490 1.516 . S
C2490 C2489 1.516 . S
C2490 C2491 1.502 . S
C2490 C2492 1.561 . S
C2490 C2493 1.526 . S
C2491 H2475 0.959 . S
C2491 H2476 0.959 . S
C2491 H2477 0.961 . S
C2491 C2490 1.502 . S
C2492 H2478 0.960 . S
C2492 H2479 0.961 . S
C2492 H2480 0.959 . S
C2492 C2490 1.561 . S
C2493 C2490 1.526 . S
C2493 C2494 1.396 . S
C2493 C2498 1.390 . S
C2494 C2488 1.465 . S
C2494 C2493 1.396 . S
C2494 C2495 1.399 . S
C2495 H2481 0.929 . S
C2495 C2494 1.399 . S
C2495 C2496 1.385 . S
C2496 H2482 0.931 . S
C2496 C2495 1.385 . S
C2496 C2497 1.389 . S
C2497 C2496 1.389 . S
C2497 C2498 1.387 . S
C2498 H2483 0.930 . S
C2498 C2493 1.390 . S
C2498 C2497 1.387 . S
H2499 C2511 0.930 . S
H2500 C2513 0.930 . S
H2501 C2514 0.930 . S
H2502 C2518 0.959 . S
H2503 C2518 0.959 . S
H2504 C2518 0.961 . S
H2505 C2519 0.960 . S
H2506 C2519 0.961 . S
H2507 C2519 0.959 . S
H2508 C2522 0.929 . S
H2509 C2523 0.931 . S
H2510 C2525 0.930 . S
C2511 H2499 0.930 . S
C2511 C2512 1.399 . S
C2511 C2516 1.399 . S
C2512 C2511 1.399 . S
C2512 C2513 1.376 . S
C2513 H2500 0.930 . S
C2513 C2512 1.376 . S
C2513 C2514 1.388 . S
C2514 H2501 0.930 . S
C2514 C2513 1.388 . S
C2514 C2515 1.390 . S
C2515 C2514 1.390 . S
C2515 C2516 1.394 . S
C2515 C2521 1.465 . S
C2516 C2511 1.399 . S
C2516 C2515 1.394 . S
C2516 C2517 1.516 . S
C2517 C2516 1.516 . S
C2517 C2518 1.502 . S
C2517 C2519 1.561 . S
C2517 C2520 1.526 . S
C2518 H2502 0.959 . S
C2518 H2503 0.959 . S
C2518 H2504 0.961 . S
C2518 C2517 1.502 . S
C2519 H2505 0.960 . S
C2519 H2506 0.961 . S
C2519 H2507 0.959 . S
C2519 C2517 1.561 . S
C2520 C2517 1.526 . S
C2520 C2521 1.396 . S
C2520 C2525 1.390 . S
C2521 C2515 1.465 . S
C2521 C2520 1.396 . S
C2521 C2522 1.399 . S
C2522 H2508 0.929 . S
C2522 C2521 1.399 . S
C2522 C2523 1.385 . S
C2523 H2509 0.931 . S
C2523 C2522 1.385 . S
C2523 C2524 1.389 . S
C2524 C2523 1.389 . S
C2524 C2525 1.387 . S
C2525 H2510 0.930 . S
C2525 C2520 1.390 . S
C2525 C2524 1.387 . S
H2526 C2538 0.930 . S
H2527 C2540 0.930 . S
H2528 C2541 0.930 . S
H2529 C2545 0.959 . S
H2530 C2545 0.959 . S
H2531 C2545 0.961 . S
H2532 C2546 0.960 . S
H2533 C2546 0.961 . S
H2534 C2546 0.959 . S
H2535 C2549 0.929 . S
H2536 C2550 0.931 . S
H2537 C2552 0.930 . S
C2538 H2526 0.930 . S
C2538 C2539 1.399 . S
C2538 C2543 1.399 . S
C2539 C2538 1.399 . S
C2539 C2540 1.376 . S
C2540 H2527 0.930 . S
C2540 C2539 1.376 . S
C2540 C2541 1.388 . S
C2541 H2528 0.930 . S
C2541 C2540 1.388 . S
C2541 C2542 1.390 . S
C2542 C2541 1.390 . S
C2542 C2543 1.394 . S
C2542 C2548 1.465 1_655 S
C2543 C2538 1.399 . S
C2543 C2542 1.394 . S
C2543 C2544 1.516 1_655 S
C2544 C2543 1.516 1_455 S
C2544 C2545 1.502 . S
C2544 C2546 1.561 1_455 S
C2544 C2547 1.526 . S
C2545 H2529 0.959 . S
C2545 H2530 0.959 . S
C2545 H2531 0.961 . S
C2545 C2544 1.502 . S
C2546 H2532 0.960 . S
C2546 H2533 0.961 . S
C2546 H2534 0.959 . S
C2546 C2544 1.561 1_655 S
C2547 C2544 1.526 . S
C2547 C2548 1.396 . S
C2547 C2552 1.390 . S
C2548 C2542 1.465 1_455 S
C2548 C2547 1.396 . S
C2548 C2549 1.399 . S
C2549 H2535 0.929 . S
C2549 C2548 1.399 . S
C2549 C2550 1.385 . S
C2550 H2536 0.931 . S
C2550 C2549 1.385 . S
C2550 C2551 1.389 . S
C2551 C2550 1.389 . S
C2551 C2552 1.387 . S
C2552 H2537 0.930 . S
C2552 C2547 1.390 . S
C2552 C2551 1.387 . S
H2553 C2565 0.930 . S
H2554 C2567 0.930 . S
H2555 C2568 0.930 . S
H2556 C2572 0.959 . S
H2557 C2572 0.959 . S
H2558 C2572 0.961 . S
H2559 C2573 0.960 . S
H2560 C2573 0.961 . S
H2561 C2573 0.959 . S
H2562 C2576 0.929 . S
H2563 C2577 0.931 . S
H2564 C2579 0.930 . S
C2565 H2553 0.930 . S
C2565 C2566 1.399 . S
C2565 C2570 1.399 . S
C2566 C2565 1.399 . S
C2566 C2567 1.376 . S
C2567 H2554 0.930 . S
C2567 C2566 1.376 . S
C2567 C2568 1.388 . S
C2568 H2555 0.930 . S
C2568 C2567 1.388 . S
C2568 C2569 1.390 . S
C2569 C2568 1.390 . S
C2569 C2570 1.394 . S
C2569 C2575 1.465 . S
C2570 C2565 1.399 . S
C2570 C2569 1.394 . S
C2570 C2571 1.516 . S
C2571 C2570 1.516 . S
C2571 C2572 1.502 . S
C2571 C2573 1.561 . S
C2571 C2574 1.526 . S
C2572 H2556 0.959 . S
C2572 H2557 0.959 . S
C2572 H2558 0.961 . S
C2572 C2571 1.502 . S
C2573 H2559 0.960 . S
C2573 H2560 0.961 . S
C2573 H2561 0.959 . S
C2573 C2571 1.561 . S
C2574 C2571 1.526 . S
C2574 C2575 1.396 . S
C2574 C2579 1.390 . S
C2575 C2569 1.465 . S
C2575 C2574 1.396 . S
C2575 C2576 1.399 . S
C2576 H2562 0.929 . S
C2576 C2575 1.399 . S
C2576 C2577 1.385 . S
C2577 H2563 0.931 . S
C2577 C2576 1.385 . S
C2577 C2578 1.389 . S
C2578 C2577 1.389 . S
C2578 C2579 1.387 . S
C2579 H2564 0.930 . S
C2579 C2574 1.390 . S
C2579 C2578 1.387 . S
H2580 C2592 0.930 . S
H2581 C2594 0.930 . S
H2582 C2595 0.930 . S
H2583 C2599 0.959 . S
H2584 C2599 0.959 . S
H2585 C2599 0.961 . S
H2586 C2600 0.960 . S
H2587 C2600 0.961 . S
H2588 C2600 0.959 . S
H2589 C2603 0.929 . S
H2590 C2604 0.931 . S
H2591 C2606 0.930 . S
C2592 H2580 0.930 . S
C2592 C2593 1.399 . S
C2592 C2597 1.399 . S
C2593 C2592 1.399 . S
C2593 C2594 1.376 . S
C2594 H2581 0.930 . S
C2594 C2593 1.376 . S
C2594 C2595 1.388 . S
C2595 H2582 0.930 . S
C2595 C2594 1.388 . S
C2595 C2596 1.390 . S
C2596 C2595 1.390 . S
C2596 C2597 1.394 . S
C2596 C2602 1.465 1_655 S
C2597 C2592 1.399 . S
C2597 C2596 1.394 . S
C2597 C2598 1.516 . S
C2598 C2597 1.516 . S
C2598 C2599 1.502 1_655 S
C2598 C2600 1.561 . S
C2598 C2601 1.526 1_655 S
C2599 H2583 0.959 . S
C2599 H2584 0.959 . S
C2599 H2585 0.961 . S
C2599 C2598 1.502 1_455 S
C2600 H2586 0.960 . S
C2600 H2587 0.961 . S
C2600 H2588 0.959 . S
C2600 C2598 1.561 . S
C2601 C2598 1.526 1_455 S
C2601 C2602 1.396 . S
C2601 C2606 1.390 . S
C2602 C2596 1.465 1_455 S
C2602 C2601 1.396 . S
C2602 C2603 1.399 . S
C2603 H2589 0.929 . S
C2603 C2602 1.399 . S
C2603 C2604 1.385 . S
C2604 H2590 0.931 . S
C2604 C2603 1.385 . S
C2604 C2605 1.389 . S
C2605 C2604 1.389 . S
C2605 C2606 1.387 . S
C2606 H2591 0.930 . S
C2606 C2601 1.390 . S
C2606 C2605 1.387 . S
H2607 C2619 0.930 . S
H2608 C2621 0.930 . S
H2609 C2622 0.930 . S
H2610 C2626 0.959 . S
H2611 C2626 0.959 . S
H2612 C2626 0.961 . S
H2613 C2627 0.960 . S
H2614 C2627 0.961 . S
H2615 C2627 0.959 . S
H2616 C2630 0.929 . S
H2617 C2631 0.931 . S
H2618 C2633 0.930 . S
C2619 H2607 0.930 . S
C2619 C2620 1.399 . S
C2619 C2624 1.399 . S
C2620 C2619 1.399 . S
C2620 C2621 1.376 . S
C2621 H2608 0.930 . S
C2621 C2620 1.376 . S
C2621 C2622 1.388 . S
C2622 H2609 0.930 . S
C2622 C2621 1.388 . S
C2622 C2623 1.390 . S
C2623 C2622 1.390 . S
C2623 C2624 1.394 . S
C2623 C2629 1.465 . S
C2624 C2619 1.399 . S
C2624 C2623 1.394 . S
C2624 C2625 1.516 1_554 S
C2625 C2624 1.516 1_556 S
C2625 C2626 1.502 . S
C2625 C2627 1.561 . S
C2625 C2628 1.526 . S
C2626 H2610 0.959 . S
C2626 H2611 0.959 . S
C2626 H2612 0.961 . S
C2626 C2625 1.502 . S
C2627 H2613 0.960 . S
C2627 H2614 0.961 . S
C2627 H2615 0.959 . S
C2627 C2625 1.561 . S
C2628 C2625 1.526 . S
C2628 C2629 1.396 1_556 S
C2628 C2633 1.390 . S
C2629 C2623 1.465 . S
C2629 C2628 1.396 1_554 S
C2629 C2630 1.399 . S
C2630 H2616 0.929 . S
C2630 C2629 1.399 . S
C2630 C2631 1.385 1_554 S
C2631 H2617 0.931 . S
C2631 C2630 1.385 1_556 S
C2631 C2632 1.389 . S
C2632 C2631 1.389 . S
C2632 C2633 1.387 . S
C2633 H2618 0.930 . S
C2633 C2628 1.390 . S
C2633 C2632 1.387 . S
H2634 C2646 0.930 . S
H2635 C2648 0.930 . S
H2636 C2649 0.930 . S
H2637 C2653 0.959 . S
H2638 C2653 0.959 . S
H2639 C2653 0.961 . S
H2640 C2654 0.960 . S
H2641 C2654 0.961 . S
H2642 C2654 0.959 . S
H2643 C2657 0.929 . S
H2644 C2658 0.931 . S
H2645 C2660 0.930 . S
C2646 H2634 0.930 . S
C2646 C2647 1.399 . S
C2646 C2651 1.399 . S
C2647 C2646 1.399 . S
C2647 C2648 1.376 . S
C2648 H2635 0.930 . S
C2648 C2647 1.376 . S
C2648 C2649 1.388 . S
C2649 H2636 0.930 . S
C2649 C2648 1.388 . S
C2649 C2650 1.390 . S
C2650 C2649 1.390 . S
C2650 C2651 1.394 . S
C2650 C2656 1.465 . S
C2651 C2646 1.399 . S
C2651 C2650 1.394 . S
C2651 C2652 1.516 . S
C2652 C2651 1.516 . S
C2652 C2653 1.502 . S
C2652 C2654 1.561 . S
C2652 C2655 1.526 . S
C2653 H2637 0.959 . S
C2653 H2638 0.959 . S
C2653 H2639 0.961 . S
C2653 C2652 1.502 . S
C2654 H2640 0.960 . S
C2654 H2641 0.961 . S
C2654 H2642 0.959 . S
C2654 C2652 1.561 . S
C2655 C2652 1.526 . S
C2655 C2656 1.396 . S
C2655 C2660 1.390 . S
C2656 C2650 1.465 . S
C2656 C2655 1.396 . S
C2656 C2657 1.399 . S
C2657 H2643 0.929 . S
C2657 C2656 1.399 . S
C2657 C2658 1.385 . S
C2658 H2644 0.931 . S
C2658 C2657 1.385 . S
C2658 C2659 1.389 . S
C2659 C2658 1.389 . S
C2659 C2660 1.387 . S
C2660 H2645 0.930 . S
C2660 C2655 1.390 . S
C2660 C2659 1.387 . S
H2661 C2673 0.930 . S
H2662 C2675 0.930 . S
H2663 C2676 0.930 . S
H2664 C2680 0.959 . S
H2665 C2680 0.959 . S
H2666 C2680 0.961 . S
H2667 C2681 0.960 1_565 S
H2668 C2681 0.961 . S
H2669 C2681 0.959 . S
H2670 C2684 0.929 . S
H2671 C2685 0.931 . S
H2672 C2687 0.930 . S
C2673 H2661 0.930 . S
C2673 C2674 1.399 . S
C2673 C2678 1.399 . S
C2674 C2673 1.399 . S
C2674 C2675 1.376 . S
C2675 H2662 0.930 . S
C2675 C2674 1.376 . S
C2675 C2676 1.388 . S
C2676 H2663 0.930 . S
C2676 C2675 1.388 . S
C2676 C2677 1.390 . S
C2677 C2676 1.390 . S
C2677 C2678 1.394 . S
C2677 C2683 1.465 1_565 S
C2678 C2673 1.399 . S
C2678 C2677 1.394 . S
C2678 C2679 1.516 . S
C2679 C2678 1.516 . S
C2679 C2680 1.502 . S
C2679 C2681 1.561 1_565 S
C2679 C2682 1.526 1_565 S
C2680 H2664 0.959 . S
C2680 H2665 0.959 . S
C2680 H2666 0.961 . S
C2680 C2679 1.502 . S
C2681 H2667 0.960 1_545 S
C2681 H2668 0.961 . S
C2681 H2669 0.959 . S
C2681 C2679 1.561 1_545 S
C2682 C2679 1.526 1_545 S
C2682 C2683 1.396 . S
C2682 C2687 1.390 . S
C2683 C2677 1.465 1_545 S
C2683 C2682 1.396 . S
C2683 C2684 1.399 . S
C2684 H2670 0.929 . S
C2684 C2683 1.399 . S
C2684 C2685 1.385 . S
C2685 H2671 0.931 . S
C2685 C2684 1.385 . S
C2685 C2686 1.389 . S
C2686 C2685 1.389 . S
C2686 C2687 1.387 . S
C2687 H2672 0.930 . S
C2687 C2682 1.390 . S
C2687 C2686 1.387 . S
H2688 C2700 0.930 . S
H2689 C2702 0.930 . S
H2690 C2703 0.930 . S
H2691 C2707 0.959 . S
H2692 C2707 0.959 . S
H2693 C2707 0.961 . S
H2694 C2708 0.960 . S
H2695 C2708 0.961 . S
H2696 C2708 0.959 . S
H2697 C2711 0.929 . S
H2698 C2712 0.931 . S
H2699 C2714 0.930 . S
C2700 H2688 0.930 . S
C2700 C2701 1.399 . S
C2700 C2705 1.399 . S
C2701 C2700 1.399 . S
C2701 C2702 1.376 . S
C2702 H2689 0.930 . S
C2702 C2701 1.376 . S
C2702 C2703 1.388 . S
C2703 H2690 0.930 . S
C2703 C2702 1.388 . S
C2703 C2704 1.390 . S
C2704 C2703 1.390 . S
C2704 C2705 1.394 . S
C2704 C2710 1.465 . S
C2705 C2700 1.399 . S
C2705 C2704 1.394 . S
C2705 C2706 1.516 . S
C2706 C2705 1.516 . S
C2706 C2707 1.502 . S
C2706 C2708 1.561 . S
C2706 C2709 1.526 . S
C2707 H2691 0.959 . S
C2707 H2692 0.959 . S
C2707 H2693 0.961 . S
C2707 C2706 1.502 . S
C2708 H2694 0.960 . S
C2708 H2695 0.961 . S
C2708 H2696 0.959 . S
C2708 C2706 1.561 . S
C2709 C2706 1.526 . S
C2709 C2710 1.396 . S
C2709 C2714 1.390 . S
C2710 C2704 1.465 . S
C2710 C2709 1.396 . S
C2710 C2711 1.399 . S
C2711 H2697 0.929 . S
C2711 C2710 1.399 . S
C2711 C2712 1.385 . S
C2712 H2698 0.931 . S
C2712 C2711 1.385 . S
C2712 C2713 1.389 . S
C2713 C2712 1.389 . S
C2713 C2714 1.387 . S
C2714 H2699 0.930 . S
C2714 C2709 1.390 . S
C2714 C2713 1.387 . S
H2715 C2727 0.930 . S
H2716 C2729 0.930 . S
H2717 C2730 0.930 . S
H2718 C2734 0.959 . S
H2719 C2734 0.959 . S
H2720 C2734 0.961 . S
H2721 C2735 0.960 . S
H2722 C2735 0.961 . S
H2723 C2735 0.959 . S
H2724 C2738 0.929 . S
H2725 C2739 0.931 . S
H2726 C2741 0.930 . S
C2727 H2715 0.930 . S
C2727 C2728 1.399 . S
C2727 C2732 1.399 . S
C2728 C2727 1.399 . S
C2728 C2729 1.376 . S
C2729 H2716 0.930 . S
C2729 C2728 1.376 . S
C2729 C2730 1.388 . S
C2730 H2717 0.930 . S
C2730 C2729 1.388 . S
C2730 C2731 1.390 . S
C2731 C2730 1.390 . S
C2731 C2732 1.394 . S
C2731 C2737 1.465 . S
C2732 C2727 1.399 . S
C2732 C2731 1.394 . S
C2732 C2733 1.516 . S
C2733 C2732 1.516 . S
C2733 C2734 1.502 . S
C2733 C2735 1.561 . S
C2733 C2736 1.526 . S
C2734 H2718 0.959 . S
C2734 H2719 0.959 . S
C2734 H2720 0.961 . S
C2734 C2733 1.502 . S
C2735 H2721 0.960 . S
C2735 H2722 0.961 . S
C2735 H2723 0.959 . S
C2735 C2733 1.561 . S
C2736 C2733 1.526 . S
C2736 C2737 1.396 . S
C2736 C2741 1.390 . S
C2737 C2731 1.465 . S
C2737 C2736 1.396 . S
C2737 C2738 1.399 . S
C2738 H2724 0.929 . S
C2738 C2737 1.399 . S
C2738 C2739 1.385 . S
C2739 H2725 0.931 . S
C2739 C2738 1.385 . S
C2739 C2740 1.389 . S
C2740 C2739 1.389 . S
C2740 C2741 1.387 . S
C2741 H2726 0.930 . S
C2741 C2736 1.390 . S
C2741 C2740 1.387 . S
H2742 C2754 0.930 . S
H2743 C2756 0.930 . S
H2744 C2757 0.930 . S
H2745 C2761 0.959 . S
H2746 C2761 0.959 . S
H2747 C2761 0.961 . S
H2748 C2762 0.960 . S
H2749 C2762 0.961 . S
H2750 C2762 0.959 . S
H2751 C2765 0.929 . S
H2752 C2766 0.931 . S
H2753 C2768 0.930 . S
C2754 H2742 0.930 . S
C2754 C2755 1.399 . S
C2754 C2759 1.399 . S
C2755 C2754 1.399 . S
C2755 C2756 1.376 . S
C2756 H2743 0.930 . S
C2756 C2755 1.376 . S
C2756 C2757 1.388 . S
C2757 H2744 0.930 . S
C2757 C2756 1.388 . S
C2757 C2758 1.390 . S
C2758 C2757 1.390 . S
C2758 C2759 1.394 . S
C2758 C2764 1.465 . S
C2759 C2754 1.399 . S
C2759 C2758 1.394 . S
C2759 C2760 1.516 . S
C2760 C2759 1.516 . S
C2760 C2761 1.502 . S
C2760 C2762 1.561 . S
C2760 C2763 1.526 . S
C2761 H2745 0.959 . S
C2761 H2746 0.959 . S
C2761 H2747 0.961 . S
C2761 C2760 1.502 . S
C2762 H2748 0.960 . S
C2762 H2749 0.961 . S
C2762 H2750 0.959 . S
C2762 C2760 1.561 . S
C2763 C2760 1.526 . S
C2763 C2764 1.396 . S
C2763 C2768 1.390 . S
C2764 C2758 1.465 . S
C2764 C2763 1.396 . S
C2764 C2765 1.399 . S
C2765 H2751 0.929 . S
C2765 C2764 1.399 . S
C2765 C2766 1.385 . S
C2766 H2752 0.931 . S
C2766 C2765 1.385 . S
C2766 C2767 1.389 . S
C2767 C2766 1.389 . S
C2767 C2768 1.387 . S
C2768 H2753 0.930 . S
C2768 C2763 1.390 . S
C2768 C2767 1.387 . S
H2769 C2781 0.930 . S
H2770 C2783 0.930 . S
H2771 C2784 0.930 1_554 S
H2772 C2788 0.959 . S
H2773 C2788 0.959 . S
H2774 C2788 0.961 . S
H2775 C2789 0.960 . S
H2776 C2789 0.961 . S
H2777 C2789 0.959 . S
H2778 C2792 0.929 . S
H2779 C2793 0.931 . S
H2780 C2795 0.930 . S
C2781 H2769 0.930 . S
C2781 C2782 1.399 . S
C2781 C2786 1.399 . S
C2782 C2781 1.399 . S
C2782 C2783 1.376 . S
C2783 H2770 0.930 . S
C2783 C2782 1.376 . S
C2783 C2784 1.388 . S
C2784 H2771 0.930 1_556 S
C2784 C2783 1.388 . S
C2784 C2785 1.390 . S
C2785 C2784 1.390 . S
C2785 C2786 1.394 . S
C2785 C2791 1.465 1_556 S
C2786 C2781 1.399 . S
C2786 C2785 1.394 . S
C2786 C2787 1.516 . S
C2787 C2786 1.516 . S
C2787 C2788 1.502 . S
C2787 C2789 1.561 1_556 S
C2787 C2790 1.526 1_556 S
C2788 H2772 0.959 . S
C2788 H2773 0.959 . S
C2788 H2774 0.961 . S
C2788 C2787 1.502 . S
C2789 H2775 0.960 . S
C2789 H2776 0.961 . S
C2789 H2777 0.959 . S
C2789 C2787 1.561 1_554 S
C2790 C2787 1.526 1_554 S
C2790 C2791 1.396 . S
C2790 C2795 1.390 . S
C2791 C2785 1.465 1_554 S
C2791 C2790 1.396 . S
C2791 C2792 1.399 . S
C2792 H2778 0.929 . S
C2792 C2791 1.399 . S
C2792 C2793 1.385 . S
C2793 H2779 0.931 . S
C2793 C2792 1.385 . S
C2793 C2794 1.389 . S
C2794 C2793 1.389 . S
C2794 C2795 1.387 . S
C2795 H2780 0.930 . S
C2795 C2790 1.390 . S
C2795 C2794 1.387 . S
H2796 C2808 0.930 . S
H2797 C2810 0.930 . S
H2798 C2811 0.930 . S
H2799 C2815 0.959 . S
H2800 C2815 0.959 . S
H2801 C2815 0.961 . S
H2802 C2816 0.960 . S
H2803 C2816 0.961 . S
H2804 C2816 0.959 . S
H2805 C2819 0.929 . S
H2806 C2820 0.931 . S
H2807 C2822 0.930 . S
C2808 H2796 0.930 . S
C2808 C2809 1.399 . S
C2808 C2813 1.399 . S
C2809 C2808 1.399 . S
C2809 C2810 1.376 . S
C2810 H2797 0.930 . S
C2810 C2809 1.376 . S
C2810 C2811 1.388 . S
C2811 H2798 0.930 . S
C2811 C2810 1.388 . S
C2811 C2812 1.390 . S
C2812 C2811 1.390 . S
C2812 C2813 1.394 . S
C2812 C2818 1.465 . S
C2813 C2808 1.399 . S
C2813 C2812 1.394 . S
C2813 C2814 1.516 . S
C2814 C2813 1.516 . S
C2814 C2815 1.502 . S
C2814 C2816 1.561 . S
C2814 C2817 1.526 . S
C2815 H2799 0.959 . S
C2815 H2800 0.959 . S
C2815 H2801 0.961 . S
C2815 C2814 1.502 . S
C2816 H2802 0.960 . S
C2816 H2803 0.961 . S
C2816 H2804 0.959 . S
C2816 C2814 1.561 . S
C2817 C2814 1.526 . S
C2817 C2818 1.396 . S
C2817 C2822 1.390 . S
C2818 C2812 1.465 . S
C2818 C2817 1.396 . S
C2818 C2819 1.399 . S
C2819 H2805 0.929 . S
C2819 C2818 1.399 . S
C2819 C2820 1.385 . S
C2820 H2806 0.931 . S
C2820 C2819 1.385 . S
C2820 C2821 1.389 . S
C2821 C2820 1.389 . S
C2821 C2822 1.387 . S
C2822 H2807 0.930 . S
C2822 C2817 1.390 . S
C2822 C2821 1.387 . S
H2823 C2835 0.930 . S
H2824 C2837 0.930 . S
H2825 C2838 0.930 . S
H2826 C2842 0.959 . S
H2827 C2842 0.959 . S
H2828 C2842 0.961 . S
H2829 C2843 0.960 . S
H2830 C2843 0.961 . S
H2831 C2843 0.959 . S
H2832 C2846 0.929 . S
H2833 C2847 0.931 . S
H2834 C2849 0.930 . S
C2835 H2823 0.930 . S
C2835 C2836 1.399 . S
C2835 C2840 1.399 . S
C2836 C2835 1.399 . S
C2836 C2837 1.376 . S
C2837 H2824 0.930 . S
C2837 C2836 1.376 . S
C2837 C2838 1.388 . S
C2838 H2825 0.930 . S
C2838 C2837 1.388 . S
C2838 C2839 1.390 . S
C2839 C2838 1.390 . S
C2839 C2840 1.394 . S
C2839 C2845 1.474 . S
C2840 C2835 1.399 . S
C2840 C2839 1.394 . S
C2840 C2841 1.516 1_565 S
C2841 C2840 1.516 1_545 S
C2841 C2842 1.502 . S
C2841 C2843 1.561 . S
C2841 C2844 1.526 . S
C2842 H2826 0.959 . S
C2842 H2827 0.959 . S
C2842 H2828 0.961 . S
C2842 C2841 1.502 . S
C2843 H2829 0.960 . S
C2843 H2830 0.961 . S
C2843 H2831 0.959 . S
C2843 C2841 1.561 . S
C2844 C2841 1.526 . S
C2844 C2845 1.381 1_545 S
C2844 C2849 1.390 . S
C2845 C2839 1.474 . S
C2845 C2844 1.381 1_565 S
C2845 C2846 1.402 . S
C2846 H2832 0.929 . S
C2846 C2845 1.402 . S
C2846 C2847 1.385 1_565 S
C2847 H2833 0.931 . S
C2847 C2846 1.385 1_545 S
C2847 C2848 1.389 . S
C2848 C2847 1.389 . S
C2848 C2849 1.387 . S
C2849 H2834 0.930 . S
C2849 C2844 1.390 . S
C2849 C2848 1.387 . S
H2850 C2862 0.930 . S
H2851 C2864 0.930 . S
H2852 C2865 0.930 . S
H2853 C2869 0.959 . S
H2854 C2869 0.959 . S
H2855 C2869 0.961 1_556 S
H2856 C2870 0.960 . S
H2857 C2870 0.961 . S
H2858 C2870 0.959 . S
H2859 C2873 0.929 . S
H2860 C2874 0.931 . S
H2861 C2876 0.930 . S
C2862 H2850 0.930 . S
C2862 C2863 1.399 . S
C2862 C2867 1.399 . S
C2863 C2862 1.399 . S
C2863 C2864 1.376 . S
C2864 H2851 0.930 . S
C2864 C2863 1.376 . S
C2864 C2865 1.388 . S
C2865 H2852 0.930 . S
C2865 C2864 1.388 . S
C2865 C2866 1.390 . S
C2866 C2865 1.390 . S
C2866 C2867 1.394 . S
C2866 C2872 1.465 1_556 S
C2867 C2862 1.399 . S
C2867 C2866 1.394 . S
C2867 C2868 1.516 . S
C2868 C2867 1.516 . S
C2868 C2869 1.502 1_556 S
C2868 C2870 1.561 . S
C2868 C2871 1.526 1_556 S
C2869 H2853 0.959 . S
C2869 H2854 0.959 . S
C2869 H2855 0.961 1_554 S
C2869 C2868 1.502 1_554 S
C2870 H2856 0.960 . S
C2870 H2857 0.961 . S
C2870 H2858 0.959 . S
C2870 C2868 1.561 . S
C2871 C2868 1.526 1_554 S
C2871 C2872 1.396 . S
C2871 C2876 1.390 . S
C2872 C2866 1.465 1_554 S
C2872 C2871 1.396 . S
C2872 C2873 1.399 . S
C2873 H2859 0.929 . S
C2873 C2872 1.399 . S
C2873 C2874 1.385 . S
C2874 H2860 0.931 . S
C2874 C2873 1.385 . S
C2874 C2875 1.389 . S
C2875 C2874 1.389 . S
C2875 C2876 1.387 . S
C2876 H2861 0.930 . S
C2876 C2871 1.390 . S
C2876 C2875 1.387 . S
H2877 C2889 0.930 . S
H2878 C2891 0.930 . S
H2879 C2892 0.930 . S
H2880 C2896 0.959 . S
H2881 C2896 0.959 . S
H2882 C2896 0.961 . S
H2883 C2897 0.960 . S
H2884 C2897 0.961 . S
H2885 C2897 0.959 1_545 S
H2886 C2900 0.929 . S
H2887 C2901 0.931 . S
H2888 C2903 0.930 . S
C2889 H2877 0.930 . S
C2889 C2890 1.399 . S
C2889 C2894 1.399 . S
C2890 C2889 1.399 . S
C2890 C2891 1.376 . S
C2891 H2878 0.930 . S
C2891 C2890 1.376 . S
C2891 C2892 1.388 . S
C2892 H2879 0.930 . S
C2892 C2891 1.388 . S
C2892 C2893 1.390 . S
C2893 C2892 1.390 . S
C2893 C2894 1.394 . S
C2893 C2899 1.465 . S
C2894 C2889 1.399 . S
C2894 C2893 1.394 . S
C2894 C2895 1.516 1_545 S
C2895 C2894 1.516 1_565 S
C2895 C2896 1.502 . S
C2895 C2897 1.561 . S
C2895 C2898 1.526 . S
C2896 H2880 0.959 . S
C2896 H2881 0.959 . S
C2896 H2882 0.961 . S
C2896 C2895 1.502 . S
C2897 H2883 0.960 . S
C2897 H2884 0.961 . S
C2897 H2885 0.959 1_565 S
C2897 C2895 1.561 . S
C2898 C2895 1.526 . S
C2898 C2899 1.396 1_565 S
C2898 C2903 1.390 . S
C2899 C2893 1.465 . S
C2899 C2898 1.396 1_545 S
C2899 C2900 1.399 . S
C2900 H2886 0.929 . S
C2900 C2899 1.399 . S
C2900 C2901 1.385 1_545 S
C2901 H2887 0.931 . S
C2901 C2900 1.385 1_565 S
C2901 C2902 1.389 . S
C2902 C2901 1.389 . S
C2902 C2903 1.387 . S
C2903 H2888 0.930 . S
C2903 C2898 1.390 . S
C2903 C2902 1.387 . S
H2904 C2916 0.930 . S
H2905 C2918 0.930 . S
H2906 C2919 0.930 . S
H2907 C2923 0.959 . S
H2908 C2923 0.959 . S
H2909 C2923 0.961 . S
H2910 C2924 0.960 . S
H2911 C2924 0.961 . S
H2912 C2924 0.959 . S
H2913 C2927 0.929 . S
H2914 C2928 0.931 . S
H2915 C2930 0.930 . S
C2916 H2904 0.930 . S
C2916 C2917 1.399 . S
C2916 C2921 1.399 . S
C2917 C2916 1.399 . S
C2917 C2918 1.376 . S
C2918 H2905 0.930 . S
C2918 C2917 1.376 . S
C2918 C2919 1.388 . S
C2919 H2906 0.930 . S
C2919 C2918 1.388 . S
C2919 C2920 1.390 . S
C2920 C2919 1.390 . S
C2920 C2921 1.394 . S
C2920 C2926 1.465 . S
C2921 C2916 1.399 . S
C2921 C2920 1.394 . S
C2921 C2922 1.516 . S
C2922 C2921 1.516 . S
C2922 C2923 1.502 . S
C2922 C2924 1.561 . S
C2922 C2925 1.526 . S
C2923 H2907 0.959 . S
C2923 H2908 0.959 . S
C2923 H2909 0.961 . S
C2923 C2922 1.502 . S
C2924 H2910 0.960 . S
C2924 H2911 0.961 . S
C2924 H2912 0.959 . S
C2924 C2922 1.561 . S
C2925 C2922 1.526 . S
C2925 C2926 1.396 . S
C2925 C2930 1.390 . S
C2926 C2920 1.465 . S
C2926 C2925 1.396 . S
C2926 C2927 1.399 . S
C2927 H2913 0.929 . S
C2927 C2926 1.399 . S
C2927 C2928 1.385 . S
C2928 H2914 0.931 . S
C2928 C2927 1.385 . S
C2928 C2929 1.389 . S
C2929 C2928 1.389 . S
C2929 C2930 1.387 . S
C2930 H2915 0.930 . S
C2930 C2925 1.390 . S
C2930 C2929 1.387 . S
H2931 C2943 0.930 . S
H2932 C2945 0.930 . S
H2933 C2946 0.930 . S
H2934 C2950 0.959 . S
H2935 C2950 0.959 . S
H2936 C2950 0.961 . S
H2937 C2951 0.960 . S
H2938 C2951 0.961 1_455 S
H2939 C2951 0.959 . S
H2940 C2954 0.929 . S
H2941 C2955 0.931 . S
H2942 C2957 0.930 . S
C2943 H2931 0.930 . S
C2943 C2944 1.399 . S
C2943 C2948 1.399 . S
C2944 C2943 1.399 . S
C2944 C2945 1.376 . S
C2945 H2932 0.930 . S
C2945 C2944 1.376 . S
C2945 C2946 1.388 . S
C2946 H2933 0.930 . S
C2946 C2945 1.388 . S
C2946 C2947 1.390 . S
C2947 C2946 1.390 . S
C2947 C2948 1.394 . S
C2947 C2953 1.465 1_655 S
C2948 C2943 1.399 . S
C2948 C2947 1.394 . S
C2948 C2949 1.516 1_655 S
C2949 C2948 1.516 1_455 S
C2949 C2950 1.502 . S
C2949 C2951 1.561 1_455 S
C2949 C2952 1.526 . S
C2950 H2934 0.959 . S
C2950 H2935 0.959 . S
C2950 H2936 0.961 . S
C2950 C2949 1.502 . S
C2951 H2937 0.960 . S
C2951 H2938 0.961 1_655 S
C2951 H2939 0.959 . S
C2951 C2949 1.561 1_655 S
C2952 C2949 1.526 . S
C2952 C2953 1.396 . S
C2952 C2957 1.390 . S
C2953 C2947 1.465 1_455 S
C2953 C2952 1.396 . S
C2953 C2954 1.399 . S
C2954 H2940 0.929 . S
C2954 C2953 1.399 . S
C2954 C2955 1.385 . S
C2955 H2941 0.931 . S
C2955 C2954 1.385 . S
C2955 C2956 1.389 . S
C2956 C2955 1.389 . S
C2956 C2957 1.387 . S
C2957 H2942 0.930 . S
C2957 C2952 1.390 . S
C2957 C2956 1.387 . S
H2958 C2970 0.930 . S
H2959 C2972 0.930 . S
H2960 C2973 0.930 . S
H2961 C2977 0.959 . S
H2962 C2977 0.959 . S
H2963 C2977 0.961 . S
H2964 C2978 0.960 . S
H2965 C2978 0.961 . S
H2966 C2978 0.959 1_655 S
H2967 C2981 0.929 . S
H2968 C2982 0.931 . S
H2969 C2984 0.930 . S
C2970 H2958 0.930 . S
C2970 C2971 1.399 . S
C2970 C2975 1.399 . S
C2971 C2970 1.399 . S
C2971 C2972 1.376 . S
C2972 H2959 0.930 . S
C2972 C2971 1.376 . S
C2972 C2973 1.388 . S
C2973 H2960 0.930 . S
C2973 C2972 1.388 . S
C2973 C2974 1.390 . S
C2974 C2973 1.390 . S
C2974 C2975 1.394 . S
C2974 C2980 1.465 . S
C2975 C2970 1.399 . S
C2975 C2974 1.394 . S
C2975 C2976 1.516 1_655 S
C2976 C2975 1.516 1_455 S
C2976 C2977 1.502 . S
C2976 C2978 1.561 . S
C2976 C2979 1.526 . S
C2977 H2961 0.959 . S
C2977 H2962 0.959 . S
C2977 H2963 0.961 . S
C2977 C2976 1.502 . S
C2978 H2964 0.960 . S
C2978 H2965 0.961 . S
C2978 H2966 0.959 1_455 S
C2978 C2976 1.561 . S
C2979 C2976 1.526 . S
C2979 C2980 1.396 1_455 S
C2979 C2984 1.390 . S
C2980 C2974 1.465 . S
C2980 C2979 1.396 1_655 S
C2980 C2981 1.399 . S
C2981 H2967 0.929 . S
C2981 C2980 1.399 . S
C2981 C2982 1.385 1_655 S
C2982 H2968 0.931 . S
C2982 C2981 1.385 1_455 S
C2982 C2983 1.389 . S
C2983 C2982 1.389 . S
C2983 C2984 1.387 . S
C2984 H2969 0.930 . S
C2984 C2979 1.390 . S
C2984 C2983 1.387 . S
H2985 C2997 0.930 . S
H2986 C2999 0.930 . S
H2987 C3000 0.930 . S
H2988 C3004 0.959 . S
H2989 C3004 0.959 . S
H2990 C3004 0.961 . S
H2991 C3005 0.960 . S
H2992 C3005 0.961 . S
H2993 C3005 0.959 . S
H2994 C3008 0.929 . S
H2995 C3009 0.931 . S
H2996 C3011 0.930 . S
C2997 H2985 0.930 . S
C2997 C2998 1.399 . S
C2997 C3002 1.399 . S
C2998 C2997 1.399 . S
C2998 C2999 1.376 . S
C2999 H2986 0.930 . S
C2999 C2998 1.376 . S
C2999 C3000 1.388 . S
C3000 H2987 0.930 . S
C3000 C2999 1.388 . S
C3000 C3001 1.390 . S
C3001 C3000 1.390 . S
C3001 C3002 1.394 . S
C3001 C3007 1.465 . S
C3002 C2997 1.399 . S
C3002 C3001 1.394 . S
C3002 C3003 1.516 . S
C3003 C3002 1.516 . S
C3003 C3004 1.502 . S
C3003 C3005 1.561 . S
C3003 C3006 1.526 . S
C3004 H2988 0.959 . S
C3004 H2989 0.959 . S
C3004 H2990 0.961 . S
C3004 C3003 1.502 . S
C3005 H2991 0.960 . S
C3005 H2992 0.961 . S
C3005 H2993 0.959 . S
C3005 C3003 1.561 . S
C3006 C3003 1.526 . S
C3006 C3007 1.396 . S
C3006 C3011 1.390 . S
C3007 C3001 1.465 . S
C3007 C3006 1.396 . S
C3007 C3008 1.399 . S
C3008 H2994 0.929 . S
C3008 C3007 1.399 . S
C3008 C3009 1.385 . S
C3009 H2995 0.931 . S
C3009 C3008 1.385 . S
C3009 C3010 1.389 . S
C3010 C3009 1.389 . S
C3010 C3011 1.387 . S
C3011 H2996 0.930 . S
C3011 C3006 1.390 . S
C3011 C3010 1.387 . S
H3012 C3024 0.930 . S
H3013 C3026 0.930 . S
H3014 C3027 0.930 . S
H3015 C3031 0.959 . S
H3016 C3031 0.981 . S
H3017 C3031 0.961 . S
H3018 C3032 0.960 1_655 S
H3019 C3032 0.961 . S
H3020 C3032 0.959 . S
H3021 C3035 0.929 . S
H3022 C3036 0.931 . S
H3023 C3038 0.930 . S
C3024 H3012 0.930 . S
C3024 C3025 1.399 . S
C3024 C3029 1.399 . S
C3025 C3024 1.399 . S
C3025 C3026 1.376 . S
C3026 H3013 0.930 . S
C3026 C3025 1.376 . S
C3026 C3027 1.388 . S
C3027 H3014 0.930 . S
C3027 C3026 1.388 . S
C3027 C3028 1.390 . S
C3028 C3027 1.390 . S
C3028 C3029 1.394 . S
C3028 C3034 1.465 1_655 S
C3029 C3024 1.399 . S
C3029 C3028 1.394 . S
C3029 C3030 1.516 . S
C3030 C3029 1.516 . S
C3030 C3031 1.502 . S
C3030 C3032 1.561 1_655 S
C3030 C3033 1.526 1_655 S
C3031 H3015 0.959 . S
C3031 H3016 0.981 . S
C3031 H3017 0.961 . S
C3031 C3030 1.502 . S
C3032 H3018 0.960 1_455 S
C3032 H3019 0.961 . S
C3032 H3020 0.959 . S
C3032 C3030 1.561 1_455 S
C3033 C3030 1.526 1_455 S
C3033 C3034 1.396 . S
C3033 C3038 1.390 . S
C3034 C3028 1.465 1_455 S
C3034 C3033 1.396 . S
C3034 C3035 1.399 . S
C3035 H3021 0.929 . S
C3035 C3034 1.399 . S
C3035 C3036 1.385 . S
C3036 H3022 0.931 . S
C3036 C3035 1.385 . S
C3036 C3037 1.389 . S
C3037 C3036 1.389 . S
C3037 C3038 1.387 . S
C3038 H3023 0.930 . S
C3038 C3033 1.390 . S
C3038 C3037 1.387 . S
H3039 C3051 0.930 . S
H3040 C3053 0.930 . S
H3041 C3054 0.930 . S
H3042 C3058 0.959 . S
H3043 C3058 0.959 . S
H3044 C3058 0.961 . S
H3045 C3059 0.960 1_455 S
H3046 C3059 0.961 . S
H3047 C3059 0.959 . S
H3048 C3062 0.929 . S
H3049 C3063 0.931 . S
H3050 C3065 0.930 . S
C3051 H3039 0.930 . S
C3051 C3052 1.399 . S
C3051 C3056 1.399 . S
C3052 C3051 1.399 . S
C3052 C3053 1.376 . S
C3053 H3040 0.930 . S
C3053 C3052 1.376 . S
C3053 C3054 1.388 1_455 S
C3054 H3041 0.930 . S
C3054 C3053 1.388 1_655 S
C3054 C3055 1.391 . S
C3055 C3054 1.391 . S
C3055 C3056 1.373 1_655 S
C3055 C3061 1.483 . S
C3056 C3051 1.399 . S
C3056 C3055 1.373 1_455 S
C3056 C3057 1.516 . S
C3057 C3056 1.516 . S
C3057 C3058 1.502 . S
C3057 C3059 1.561 1_455 S
C3057 C3060 1.526 1_455 S
C3058 H3042 0.959 . S
C3058 H3043 0.959 . S
C3058 H3044 0.961 . S
C3058 C3057 1.502 . S
C3059 H3045 0.960 1_655 S
C3059 H3046 0.961 . S
C3059 H3047 0.959 . S
C3059 C3057 1.561 1_655 S
C3060 C3057 1.526 1_655 S
C3060 C3061 1.396 . S
C3060 C3065 1.390 . S
C3061 C3055 1.483 . S
C3061 C3060 1.396 . S
C3061 C3062 1.399 . S
C3062 H3048 0.929 . S
C3062 C3061 1.399 . S
C3062 C3063 1.385 . S
C3063 H3049 0.931 . S
C3063 C3062 1.385 . S
C3063 C3064 1.389 . S
C3064 C3063 1.389 . S
C3064 C3065 1.387 . S
C3065 H3050 0.930 . S
C3065 C3060 1.390 . S
C3065 C3064 1.387 . S
H3066 C3078 0.930 . S
H3067 C3080 0.930 . S
H3068 C3081 0.930 . S
H3069 C3085 0.959 . S
H3070 C3085 0.959 . S
H3071 C3085 0.961 . S
H3072 C3086 0.960 . S
H3073 C3086 0.961 . S
H3074 C3086 0.959 . S
H3075 C3089 0.929 . S
H3076 C3090 0.931 . S
H3077 C3092 0.930 . S
C3078 H3066 0.930 . S
C3078 C3079 1.399 . S
C3078 C3083 1.399 . S
C3079 C3078 1.399 . S
C3079 C3080 1.376 . S
C3080 H3067 0.930 . S
C3080 C3079 1.376 . S
C3080 C3081 1.388 . S
C3081 H3068 0.930 . S
C3081 C3080 1.388 . S
C3081 C3082 1.390 . S
C3082 C3081 1.390 . S
C3082 C3083 1.394 . S
C3082 C3088 1.465 . S
C3083 C3078 1.399 . S
C3083 C3082 1.394 . S
C3083 C3084 1.516 . S
C3084 C3083 1.516 . S
C3084 C3085 1.502 . S
C3084 C3086 1.561 . S
C3084 C3087 1.526 . S
C3085 H3069 0.959 . S
C3085 H3070 0.959 . S
C3085 H3071 0.961 . S
C3085 C3084 1.502 . S
C3086 H3072 0.960 . S
C3086 H3073 0.961 . S
C3086 H3074 0.959 . S
C3086 C3084 1.561 . S
C3087 C3084 1.526 . S
C3087 C3088 1.396 . S
C3087 C3092 1.390 . S
C3088 C3082 1.465 . S
C3088 C3087 1.396 . S
C3088 C3089 1.399 . S
C3089 H3075 0.929 . S
C3089 C3088 1.399 . S
C3089 C3090 1.385 . S
C3090 H3076 0.931 . S
C3090 C3089 1.385 . S
C3090 C3091 1.389 . S
C3091 C3090 1.389 . S
C3091 C3092 1.387 . S
C3092 H3077 0.930 . S
C3092 C3087 1.390 . S
C3092 C3091 1.387 . S
H3093 C3105 0.930 . S
H3094 C3107 0.930 . S
H3095 C3108 0.930 . S
H3096 C3112 0.959 1_545 S
H3097 C3112 0.959 . S
H3098 C3112 0.961 1_545 S
H3099 C3113 0.960 . S
H3100 C3113 0.961 . S
H3101 C3113 0.959 . S
H3102 C3116 0.929 . S
H3103 C3117 0.931 . S
H3104 C3119 0.930 . S
C3105 H3093 0.930 . S
C3105 C3106 1.399 . S
C3105 C3110 1.399 . S
C3106 C3105 1.399 . S
C3106 C3107 1.376 . S
C3107 H3094 0.930 . S
C3107 C3106 1.376 . S
C3107 C3108 1.388 . S
C3108 H3095 0.930 . S
C3108 C3107 1.388 . S
C3108 C3109 1.390 . S
C3109 C3108 1.390 . S
C3109 C3110 1.394 . S
C3109 C3115 1.465 1_545 S
C3110 C3105 1.399 . S
C3110 C3109 1.394 . S
C3110 C3111 1.516 1_545 S
C3111 C3110 1.516 1_565 S
C3111 C3112 1.502 . S
C3111 C3113 1.561 . S
C3111 C3114 1.526 . S
C3112 H3096 0.959 1_565 S
C3112 H3097 0.959 . S
C3112 H3098 0.961 1_565 S
C3112 C3111 1.502 . S
C3113 H3099 0.960 . S
C3113 H3100 0.961 . S
C3113 H3101 0.959 . S
C3113 C3111 1.561 . S
C3114 C3111 1.526 . S
C3114 C3115 1.396 . S
C3114 C3119 1.390 . S
C3115 C3109 1.465 1_565 S
C3115 C3114 1.396 . S
C3115 C3116 1.399 . S
C3116 H3102 0.929 . S
C3116 C3115 1.399 . S
C3116 C3117 1.385 . S
C3117 H3103 0.931 . S
C3117 C3116 1.385 . S
C3117 C3118 1.389 . S
C3118 C3117 1.389 . S
C3118 C3119 1.387 . S
C3119 H3104 0.930 . S
C3119 C3114 1.390 . S
C3119 C3118 1.387 . S
H3120 C3132 0.930 . S
H3121 C3134 0.930 . S
H3122 C3135 0.930 . S
H3123 C3139 0.959 . S
H3124 C3139 0.959 . S
H3125 C3139 0.961 . S
H3126 C3140 0.960 . S
H3127 C3140 0.961 . S
H3128 C3140 0.959 . S
H3129 C3143 0.929 1_554 S
H3130 C3144 0.931 . S
H3131 C3146 0.930 . S
C3132 H3120 0.930 . S
C3132 C3133 1.399 . S
C3132 C3137 1.399 . S
C3133 C3132 1.399 . S
C3133 C3134 1.376 . S
C3134 H3121 0.930 . S
C3134 C3133 1.376 . S
C3134 C3135 1.388 . S
C3135 H3122 0.930 . S
C3135 C3134 1.388 . S
C3135 C3136 1.390 . S
C3136 C3135 1.390 . S
C3136 C3137 1.394 . S
C3136 C3142 1.465 1_554 S
C3137 C3132 1.399 . S
C3137 C3136 1.394 . S
C3137 C3138 1.516 1_554 S
C3138 C3137 1.516 1_556 S
C3138 C3139 1.502 . S
C3138 C3140 1.561 1_556 S
C3138 C3141 1.526 . S
C3139 H3123 0.959 . S
C3139 H3124 0.959 . S
C3139 H3125 0.961 . S
C3139 C3138 1.502 . S
C3140 H3126 0.960 . S
C3140 H3127 0.961 . S
C3140 H3128 0.959 . S
C3140 C3138 1.561 1_554 S
C3141 C3138 1.526 . S
C3141 C3142 1.396 . S
C3141 C3146 1.390 . S
C3142 C3136 1.465 1_556 S
C3142 C3141 1.396 . S
C3142 C3143 1.399 . S
C3143 H3129 0.929 1_556 S
C3143 C3142 1.399 . S
C3143 C3144 1.385 . S
C3144 H3130 0.931 . S
C3144 C3143 1.385 . S
C3144 C3145 1.389 . S
C3145 C3144 1.389 . S
C3145 C3146 1.387 . S
C3146 H3131 0.930 . S
C3146 C3141 1.390 . S
C3146 C3145 1.387 . S
H3147 C3159 0.930 . S
H3148 C3161 0.930 . S
H3149 C3162 0.930 . S
H3150 C3166 0.959 . S
H3151 C3166 0.959 . S
H3152 C3166 0.961 . S
H3153 C3167 0.960 . S
H3154 C3167 0.961 . S
H3155 C3167 0.959 . S
H3156 C3170 0.929 1_565 S
H3157 C3171 0.931 . S
H3158 C3173 0.930 . S
C3159 H3147 0.930 . S
C3159 C3160 1.399 . S
C3159 C3164 1.399 . S
C3160 C3159 1.399 . S
C3160 C3161 1.376 . S
C3161 H3148 0.930 . S
C3161 C3160 1.376 . S
C3161 C3162 1.388 . S
C3162 H3149 0.930 . S
C3162 C3161 1.388 . S
C3162 C3163 1.390 . S
C3163 C3162 1.390 . S
C3163 C3164 1.394 . S
C3163 C3169 1.465 1_565 S
C3164 C3159 1.399 . S
C3164 C3163 1.394 . S
C3164 C3165 1.516 1_565 S
C3165 C3164 1.516 1_545 S
C3165 C3166 1.502 . S
C3165 C3167 1.561 . S
C3165 C3168 1.526 . S
C3166 H3150 0.959 . S
C3166 H3151 0.959 . S
C3166 H3152 0.961 . S
C3166 C3165 1.502 . S
C3167 H3153 0.960 . S
C3167 H3154 0.961 . S
C3167 H3155 0.959 . S
C3167 C3165 1.561 . S
C3168 C3165 1.526 . S
C3168 C3169 1.396 . S
C3168 C3173 1.390 . S
C3169 C3163 1.465 1_545 S
C3169 C3168 1.396 . S
C3169 C3170 1.399 . S
C3170 H3156 0.929 1_545 S
C3170 C3169 1.399 . S
C3170 C3171 1.385 . S
C3171 H3157 0.931 . S
C3171 C3170 1.385 . S
C3171 C3172 1.389 . S
C3172 C3171 1.389 . S
C3172 C3173 1.387 . S
C3173 H3158 0.930 . S
C3173 C3168 1.390 . S
C3173 C3172 1.387 . S
H3174 C3186 0.930 . S
H3175 C3188 0.930 . S
H3176 C3189 0.930 . S
H3177 C3193 0.959 . S
H3178 C3193 0.959 . S
H3179 C3193 0.961 . S
H3180 C3194 0.960 . S
H3181 C3194 0.961 . S
H3182 C3194 0.959 . S
H3183 C3197 0.929 . S
H3184 C3198 0.931 . S
H3185 C3200 0.930 . S
C3186 H3174 0.930 . S
C3186 C3187 1.399 . S
C3186 C3191 1.399 . S
C3187 C3186 1.399 . S
C3187 C3188 1.376 . S
C3188 H3175 0.930 . S
C3188 C3187 1.376 . S
C3188 C3189 1.388 . S
C3189 H3176 0.930 . S
C3189 C3188 1.388 . S
C3189 C3190 1.390 . S
C3190 C3189 1.390 . S
C3190 C3191 1.394 . S
C3190 C3196 1.465 . S
C3191 C3186 1.399 . S
C3191 C3190 1.394 . S
C3191 C3192 1.516 . S
C3192 C3191 1.516 . S
C3192 C3193 1.502 . S
C3192 C3194 1.561 . S
C3192 C3195 1.526 . S
C3193 H3177 0.959 . S
C3193 H3178 0.959 . S
C3193 H3179 0.961 . S
C3193 C3192 1.502 . S
C3194 H3180 0.960 . S
C3194 H3181 0.961 . S
C3194 H3182 0.959 . S
C3194 C3192 1.561 . S
C3195 C3192 1.526 . S
C3195 C3196 1.396 . S
C3195 C3200 1.390 . S
C3196 C3190 1.465 . S
C3196 C3195 1.396 . S
C3196 C3197 1.399 . S
C3197 H3183 0.929 . S
C3197 C3196 1.399 . S
C3197 C3198 1.385 . S
C3198 H3184 0.931 . S
C3198 C3197 1.385 . S
C3198 C3199 1.389 . S
C3199 C3198 1.389 . S
C3199 C3200 1.387 . S
C3200 H3185 0.930 . S
C3200 C3195 1.390 . S
C3200 C3199 1.387 . S
H3201 C3213 0.930 . S
H3202 C3215 0.930 . S
H3203 C3216 0.930 . S
H3204 C3220 0.959 . S
H3205 C3220 0.959 . S
H3206 C3220 0.961 . S
H3207 C3221 0.960 . S
H3208 C3221 0.961 1_556 S
H3209 C3221 0.959 . S
H3210 C3224 0.929 . S
H3211 C3225 0.931 . S
H3212 C3227 0.930 . S
C3213 H3201 0.930 . S
C3213 C3214 1.399 . S
C3213 C3218 1.399 . S
C3214 C3213 1.399 . S
C3214 C3215 1.376 . S
C3215 H3202 0.930 . S
C3215 C3214 1.376 . S
C3215 C3216 1.388 . S
C3216 H3203 0.930 . S
C3216 C3215 1.388 . S
C3216 C3217 1.390 . S
C3217 C3216 1.390 . S
C3217 C3218 1.394 . S
C3217 C3223 1.465 1_554 S
C3218 C3213 1.399 . S
C3218 C3217 1.394 . S
C3218 C3219 1.516 1_554 S
C3219 C3218 1.516 1_556 S
C3219 C3220 1.502 . S
C3219 C3221 1.561 1_556 S
C3219 C3222 1.526 . S
C3220 H3204 0.959 . S
C3220 H3205 0.959 . S
C3220 H3206 0.961 . S
C3220 C3219 1.502 . S
C3221 H3207 0.960 . S
C3221 H3208 0.961 1_554 S
C3221 H3209 0.959 . S
C3221 C3219 1.561 1_554 S
C3222 C3219 1.526 . S
C3222 C3223 1.396 . S
C3222 C3227 1.390 . S
C3223 C3217 1.465 1_556 S
C3223 C3222 1.396 . S
C3223 C3224 1.399 . S
C3224 H3210 0.929 . S
C3224 C3223 1.399 . S
C3224 C3225 1.385 . S
C3225 H3211 0.931 . S
C3225 C3224 1.385 . S
C3225 C3226 1.389 . S
C3226 C3225 1.389 . S
C3226 C3227 1.387 . S
C3227 H3212 0.930 . S
C3227 C3222 1.390 . S
C3227 C3226 1.387 . S
H3228 C3240 0.930 . S
H3229 C3242 0.930 . S
H3230 C3243 0.930 . S
H3231 C3247 0.959 . S
H3232 C3247 0.959 . S
H3233 C3247 0.961 . S
H3234 C3248 0.960 . S
H3235 C3248 0.961 . S
H3236 C3248 0.959 . S
H3237 C3251 0.929 . S
H3238 C3252 0.931 . S
H3239 C3254 0.930 . S
C3240 H3228 0.930 . S
C3240 C3241 1.399 . S
C3240 C3245 1.399 . S
C3241 C3240 1.399 . S
C3241 C3242 1.376 . S
C3242 H3229 0.930 . S
C3242 C3241 1.376 . S
C3242 C3243 1.388 . S
C3243 H3230 0.930 . S
C3243 C3242 1.388 . S
C3243 C3244 1.390 . S
C3244 C3243 1.390 . S
C3244 C3245 1.394 . S
C3244 C3250 1.465 . S
C3245 C3240 1.399 . S
C3245 C3244 1.394 . S
C3245 C3246 1.516 . S
C3246 C3245 1.516 . S
C3246 C3247 1.502 . S
C3246 C3248 1.561 . S
C3246 C3249 1.526 . S
C3247 H3231 0.959 . S
C3247 H3232 0.959 . S
C3247 H3233 0.961 . S
C3247 C3246 1.502 . S
C3248 H3234 0.960 . S
C3248 H3235 0.961 . S
C3248 H3236 0.959 . S
C3248 C3246 1.561 . S
C3249 C3246 1.526 . S
C3249 C3250 1.396 . S
C3249 C3254 1.390 . S
C3250 C3244 1.465 . S
C3250 C3249 1.396 . S
C3250 C3251 1.399 . S
C3251 H3237 0.929 . S
C3251 C3250 1.399 . S
C3251 C3252 1.385 . S
C3252 H3238 0.931 . S
C3252 C3251 1.385 . S
C3252 C3253 1.389 . S
C3253 C3252 1.389 . S
C3253 C3254 1.387 . S
C3254 H3239 0.930 . S
C3254 C3249 1.390 . S
C3254 C3253 1.387 . S
H3255 C3267 0.930 . S
H3256 C3269 0.930 . S
H3257 C3270 0.930 . S
H3258 C3274 0.959 . S
H3259 C3274 0.959 . S
H3260 C3274 0.961 . S
H3261 C3275 0.960 . S
H3262 C3275 0.961 . S
H3263 C3275 0.959 . S
H3264 C3278 0.929 . S
H3265 C3279 0.931 . S
H3266 C3281 0.930 . S
C3267 H3255 0.930 . S
C3267 C3268 1.399 . S
C3267 C3272 1.399 . S
C3268 C3267 1.399 . S
C3268 C3269 1.376 . S
C3269 H3256 0.930 . S
C3269 C3268 1.376 . S
C3269 C3270 1.388 . S
C3270 H3257 0.930 . S
C3270 C3269 1.388 . S
C3270 C3271 1.390 . S
C3271 C3270 1.390 . S
C3271 C3272 1.394 . S
C3271 C3277 1.465 . S
C3272 C3267 1.399 . S
C3272 C3271 1.394 . S
C3272 C3273 1.516 . S
C3273 C3272 1.516 . S
C3273 C3274 1.502 . S
C3273 C3275 1.561 . S
C3273 C3276 1.526 . S
C3274 H3258 0.959 . S
C3274 H3259 0.959 . S
C3274 H3260 0.961 . S
C3274 C3273 1.502 . S
C3275 H3261 0.960 . S
C3275 H3262 0.961 . S
C3275 H3263 0.959 . S
C3275 C3273 1.561 . S
C3276 C3273 1.526 . S
C3276 C3277 1.396 . S
C3276 C3281 1.390 . S
C3277 C3271 1.465 . S
C3277 C3276 1.396 . S
C3277 C3278 1.399 . S
C3278 H3264 0.929 . S
C3278 C3277 1.399 . S
C3278 C3279 1.385 . S
C3279 H3265 0.931 . S
C3279 C3278 1.385 . S
C3279 C3280 1.389 . S
C3280 C3279 1.389 . S
C3280 C3281 1.387 . S
C3281 H3266 0.930 . S
C3281 C3276 1.390 . S
C3281 C3280 1.387 . S
H3282 C3294 0.930 . S
H3283 C3296 0.930 . S
H3284 C3297 0.930 . S
H3285 C3301 0.959 . S
H3286 C3301 0.959 . S
H3287 C3301 0.961 . S
H3288 C3302 0.960 . S
H3289 C3302 0.961 . S
H3290 C3302 0.959 . S
H3291 C3305 0.929 . S
H3292 C3306 0.931 . S
H3293 C3308 0.930 . S
C3294 H3282 0.930 . S
C3294 C3295 1.399 . S
C3294 C3299 1.399 . S
C3295 C3294 1.399 . S
C3295 C3296 1.376 . S
C3296 H3283 0.930 . S
C3296 C3295 1.376 . S
C3296 C3297 1.388 . S
C3297 H3284 0.930 . S
C3297 C3296 1.388 . S
C3297 C3298 1.390 . S
C3298 C3297 1.390 . S
C3298 C3299 1.394 . S
C3298 C3304 1.465 . S
C3299 C3294 1.399 . S
C3299 C3298 1.394 . S
C3299 C3300 1.516 . S
C3300 C3299 1.516 . S
C3300 C3301 1.502 . S
C3300 C3302 1.561 . S
C3300 C3303 1.526 . S
C3301 H3285 0.959 . S
C3301 H3286 0.959 . S
C3301 H3287 0.961 . S
C3301 C3300 1.502 . S
C3302 H3288 0.960 . S
C3302 H3289 0.961 . S
C3302 H3290 0.959 . S
C3302 C3300 1.561 . S
C3303 C3300 1.526 . S
C3303 C3304 1.396 . S
C3303 C3308 1.390 . S
C3304 C3298 1.465 . S
C3304 C3303 1.396 . S
C3304 C3305 1.399 . S
C3305 H3291 0.929 . S
C3305 C3304 1.399 . S
C3305 C3306 1.385 . S
C3306 H3292 0.931 . S
C3306 C3305 1.385 . S
C3306 C3307 1.389 . S
C3307 C3306 1.389 . S
C3307 C3308 1.387 . S
C3308 H3293 0.930 . S
C3308 C3303 1.390 . S
C3308 C3307 1.387 . S
H3309 C3321 0.930 . S
H3310 C3323 0.930 . S
H3311 C3324 0.930 . S
H3312 C3328 0.959 . S
H3313 C3328 0.959 . S
H3314 C3328 0.961 . S
H3315 C3329 0.960 . S
H3316 C3329 0.961 . S
H3317 C3329 0.959 . S
H3318 C3332 0.929 . S
H3319 C3333 0.931 . S
H3320 C3335 0.930 . S
C3321 H3309 0.930 . S
C3321 C3322 1.399 . S
C3321 C3326 1.399 . S
C3322 C3321 1.399 . S
C3322 C3323 1.376 . S
C3323 H3310 0.930 . S
C3323 C3322 1.376 . S
C3323 C3324 1.388 . S
C3324 H3311 0.930 . S
C3324 C3323 1.388 . S
C3324 C3325 1.390 . S
C3325 C3324 1.390 . S
C3325 C3326 1.394 . S
C3325 C3331 1.465 . S
C3326 C3321 1.399 . S
C3326 C3325 1.394 . S
C3326 C3327 1.516 . S
C3327 C3326 1.516 . S
C3327 C3328 1.502 . S
C3327 C3329 1.561 . S
C3327 C3330 1.526 . S
C3328 H3312 0.959 . S
C3328 H3313 0.959 . S
C3328 H3314 0.961 . S
C3328 C3327 1.502 . S
C3329 H3315 0.960 . S
C3329 H3316 0.961 . S
C3329 H3317 0.959 . S
C3329 C3327 1.561 . S
C3330 C3327 1.526 . S
C3330 C3331 1.396 . S
C3330 C3335 1.390 . S
C3331 C3325 1.465 . S
C3331 C3330 1.396 . S
C3331 C3332 1.399 . S
C3332 H3318 0.929 . S
C3332 C3331 1.399 . S
C3332 C3333 1.385 . S
C3333 H3319 0.931 . S
C3333 C3332 1.385 . S
C3333 C3334 1.389 . S
C3334 C3333 1.389 . S
C3334 C3335 1.387 . S
C3335 H3320 0.930 . S
C3335 C3330 1.390 . S
C3335 C3334 1.387 . S
C757 C1 1.081 . S
C769 C277 0.945 . S
C784 C51 0.927 . S
C796 C308 1.022 . S
C811 C339 0.961 . S
C823 C82 0.972 . S
C838 C370 1.072 . S
C850 C113 1.003 . S
C865 C144 0.977 . S
C877 C343 1.080 . S
C892 C175 0.922 . S
C904 C250 1.043 . S
C919 C187 0.923 . S
C931 C281 1.034 . S
C946 C312 1.072 . S
C958 C218 0.931 . S
C973 C374 0.995 . S
C985 C268 1.074 . S
C1000 C299 0.926 . S
C1012 C498 1.024 . S
C1027 C330 0.968 . S
C1039 C436 0.965 . S
C1054 C467 0.995 . S
C1066 C361 0.944 . S
C1081 C342 1.071 . S
C1093 C618 1.006 . S
C1108 C556 1.074 . S
C1120 C249 1.000 . S
C1135 C280 0.946 . S
C1147 C560 0.990 . S
C1162 C432 1.075 . S
C1174 C311 0.934 . S
C1189 C373 0.939 . S
C1201 C2 1.000 . S
C1216 C237 0.938 . S
C1228 C529 1.077 . S
C1243 C587 0.926 . S
C1255 C125 1.027 . S
C1270 C405 1.074 . S
C1282 C156 1.000 . S
C1297 C219 0.958 . S
C1309 C423 1.082 . S
C1324 C91 1.042 . S
C1336 C435 0.924 . S
C1351 C463 1.058 . S
C1363 C20 0.924 . S
C1378 C401 1.081 . S
C1390 C63 0.945 . S
C1405 C485 1.051 . S
C1417 C649 0.923 . S
C1432 C392 1.003 . S
C1444 C680 1.071 . S
C1459 C684 1.043 . S
C1471 C516 1.042 . S
C1486 C454 0.992 . S
C1498 C742 1.075 . S
C1513 C715 1.082 . S
C1525 C528 0.976 . S
C1540 C622 1.078 . S
C1552 C578 0.990 . S
C1567 C404 1.082 . S
C1579 C653 0.950 . S
C1594 C711 0.949 . S
C1606 C590 1.081 . S
C1621 C33 1.082 . S
C1633 C640 0.971 . S
C1648 C671 1.008 . S
C1660 C64 0.936 . S
C1675 C95 0.936 . S
C1687 C683 1.076 . S
C1702 C29 1.036 . S
C1714 C733 1.049 . S
C1729 C714 0.922 . S
C1741 C246 1.056 . S
C1756 C621 1.027 . S
C1768 C126 0.927 . S
C1783 C652 1.079 . S
C1795 C157 0.984 . S
C1810 C702 1.048 . S
C1822 C215 0.923 . S
C1837 C32 1.035 . S
C1849 C494 1.049 . S
C1864 C153 1.026 . S
C1876 C609 0.928 . S
C1891 C547 0.934 . S
C1903 C184 1.008 . S
C1918 C188 1.000 . S
C1930 C559 0.940 . S
C1945 C206 1.039 . S
C1957 C591 1.046 . S
C1972 C94 1.070 . S
C1984 C525 0.930 . S
C1999 C466 0.990 . S
C2011 C122 0.948 . S
C2026 C497 1.051 . S
C2038 C60 1.034 . S
C2053 C0 2.655 . S
C2065 C298 2.675 . S
C2080 C329 2.675 . S
C2092 C50 2.654 . S
C2107 C360 2.665 . S
C2119 C81 2.655 . S
C2134 C267 2.661 . S
C2146 C112 2.658 . S
C2161 C310 2.656 . S
C2173 C143 2.675 . S
C2188 C341 2.651 . S
C2200 C174 2.671 . S
C2215 C248 2.656 . S
C2227 C186 2.675 . S
C2242 C217 2.650 . S
C2254 C279 2.674 . S
C2269 C124 2.655 . S
C2281 C372 2.664 . S
C2296 C236 2.650 . S
C2308 C465 2.672 . S
C2323 C496 2.652 . S
C2335 C155 2.668 . S
C2350 C422 2.650 . S
C2362 C93 2.674 . S
C2377 C205 2.652 . S
C2389 C434 2.668 . S
C2404 C19 2.651 . S
C2416 C608 2.669 . S
C2431 C558 2.675 . S
C2443 C62 2.656 . S
C2458 C670 2.658 . S
C2470 C484 2.674 . S
C2485 C682 2.674 . S
C2497 C391 2.658 . S
C2512 C515 2.672 . S
C2524 C732 2.661 . S
C2539 C639 2.651 . S
C2551 C453 2.671 . S
C2566 C701 2.671 . S
C2578 C527 2.651 . S
C2593 C713 2.650 . S
C2605 C577 2.673 . S
C2620 C403 2.657 . S
C2632 C620 2.662 . S
C2647 C651 2.650 . S
C2659 C589 2.672 . S
C2674 C31 2.675 . S
C2686 C546 2.656 . S
C2701 C154 1.380 . S
C2713 C10 1.315 . S
C2728 C185 1.364 . S
C2740 C61 1.318 . S
C2755 C196 1.365 . S
C2767 C92 1.334 . S
C2782 C227 1.362 . S
C2794 C123 1.320 . S
C2809 C289 1.364 . S
C2821 C278 1.318 . S
C2836 C320 1.318 . S
C2848 C309 1.363 . S
C2863 C340 1.347 . S
C2875 C351 1.333 . S
C2890 C258 1.312 . S
C2902 C371 1.380 . S
C2917 C382 1.340 . S
C2929 C103 1.359 . S
C2944 C247 1.367 . S
C2956 C568 1.316 . S
C2971 C433 1.311 . S
C2983 C134 1.381 . S
C2998 C165 1.364 . S
C3010 C619 1.318 . S
C3025 C41 1.332 . S
C3037 C444 1.366 . S
C3052 C30 1.370 . S
C3064 C506 1.313 . S
C3079 C72 1.368 . S
C3091 C475 1.315 . S
C3106 C537 1.357 . S
C3118 C495 1.342 . S
C3133 C402 1.326 . S
C3145 C588 1.370 . S
C3160 C413 1.383 . S
C3172 C526 1.310 . S
C3187 C464 1.315 . S
C3199 C599 1.379 . S
C3214 C661 1.367 . S
C3226 C650 1.315 . S
C3241 C712 1.377 . S
C3253 C681 1.319 . S
C3268 C723 1.307 . S
C3280 C692 1.383 . S
C3295 C743 1.305 . S
C3307 C630 1.381 . S
C3322 C216 1.328 . S
C3334 C557 1.369 . S
