# Generated by pormake.
# Topology yfc, (5)-cn, num edge types: 1
# Building blocks:
#     Node 0, Type 0, BuildingBlock: BEQFEK_clean_sbu_0, # of connection points: 5
#     Node 1, Type 0, BuildingBlock: BEQFEK_clean_sbu_0, # of connection points: 5
#     Node 2, Type 0, BuildingBlock: BEQFEK_clean_sbu_0, # of connection points: 5
#     Node 3, Type 0, BuildingBlock: BEQFEK_clean_sbu_0, # of connection points: 5
#     Node 4, Type 0, BuildingBlock: BEQFEK_clean_sbu_0, # of connection points: 5
#     Node 5, Type 0, BuildingBlock: BEQFEK_clean_sbu_0, # of connection points: 5
#     Node 6, Type 0, BuildingBlock: BEQFEK_clean_sbu_0, # of connection points: 5
#     Node 7, Type 0, BuildingBlock: BEQFEK_clean_sbu_0, # of connection points: 5
#     Node 8, Type 0, BuildingBlock: BEQFEK_clean_sbu_0, # of connection points: 5
#     Node 9, Type 0, BuildingBlock: BEQFEK_clean_sbu_0, # of connection points: 5
#     Node 10, Type 0, BuildingBlock: BEQFEK_clean_sbu_0, # of connection points: 5
#     Node 11, Type 0, BuildingBlock: BEQFEK_clean_sbu_0, # of connection points: 5
#     Node 12, Type 0, BuildingBlock: BEQFEK_clean_sbu_0, # of connection points: 5
#     Node 13, Type 0, BuildingBlock: BEQFEK_clean_sbu_0, # of connection points: 5
#     Node 14, Type 0, BuildingBlock: BEQFEK_clean_sbu_0, # of connection points: 5
#     Node 15, Type 0, BuildingBlock: BEQFEK_clean_sbu_0, # of connection points: 5
#     Edge 16, Type (0, 0), BuildingBlock: EZIPEK_clean_linker_0, # of connection points: 2
#     Edge 17, Type (0, 0), BuildingBlock: EZIPEK_clean_linker_0, # of connection points: 2
#     Edge 18, Type (0, 0), BuildingBlock: EZIPEK_clean_linker_0, # of connection points: 2
#     Edge 19, Type (0, 0), BuildingBlock: EZIPEK_clean_linker_0, # of connection points: 2
#     Edge 20, Type (0, 0), BuildingBlock: EZIPEK_clean_linker_0, # of connection points: 2
#     Edge 21, Type (0, 0), BuildingBlock: EZIPEK_clean_linker_0, # of connection points: 2
#     Edge 22, Type (0, 0), BuildingBlock: EZIPEK_clean_linker_0, # of connection points: 2
#     Edge 23, Type (0, 0), BuildingBlock: EZIPEK_clean_linker_0, # of connection points: 2
#     Edge 24, Type (0, 0), BuildingBlock: EZIPEK_clean_linker_0, # of connection points: 2
#     Edge 25, Type (0, 0), BuildingBlock: EZIPEK_clean_linker_0, # of connection points: 2
#     Edge 26, Type (0, 0), BuildingBlock: EZIPEK_clean_linker_0, # of connection points: 2
#     Edge 27, Type (0, 0), BuildingBlock: EZIPEK_clean_linker_0, # of connection points: 2
#     Edge 28, Type (0, 0), BuildingBlock: EZIPEK_clean_linker_0, # of connection points: 2
#     Edge 29, Type (0, 0), BuildingBlock: EZIPEK_clean_linker_0, # of connection points: 2
#     Edge 30, Type (0, 0), BuildingBlock: EZIPEK_clean_linker_0, # of connection points: 2
#     Edge 31, Type (0, 0), BuildingBlock: EZIPEK_clean_linker_0, # of connection points: 2
#     Edge 32, Type (0, 0), BuildingBlock: EZIPEK_clean_linker_0, # of connection points: 2
#     Edge 33, Type (0, 0), BuildingBlock: EZIPEK_clean_linker_0, # of connection points: 2
#     Edge 34, Type (0, 0), BuildingBlock: EZIPEK_clean_linker_0, # of connection points: 2
#     Edge 35, Type (0, 0), BuildingBlock: EZIPEK_clean_linker_0, # of connection points: 2
#     Edge 36, Type (0, 0), BuildingBlock: EZIPEK_clean_linker_0, # of connection points: 2
#     Edge 37, Type (0, 0), BuildingBlock: EZIPEK_clean_linker_0, # of connection points: 2
#     Edge 38, Type (0, 0), BuildingBlock: EZIPEK_clean_linker_0, # of connection points: 2
#     Edge 39, Type (0, 0), BuildingBlock: EZIPEK_clean_linker_0, # of connection points: 2
#     Edge 40, Type (0, 0), BuildingBlock: EZIPEK_clean_linker_0, # of connection points: 2
#     Edge 41, Type (0, 0), BuildingBlock: EZIPEK_clean_linker_0, # of connection points: 2
#     Edge 42, Type (0, 0), BuildingBlock: EZIPEK_clean_linker_0, # of connection points: 2
#     Edge 43, Type (0, 0), BuildingBlock: EZIPEK_clean_linker_0, # of connection points: 2
#     Edge 44, Type (0, 0), BuildingBlock: EZIPEK_clean_linker_0, # of connection points: 2
#     Edge 45, Type (0, 0), BuildingBlock: EZIPEK_clean_linker_0, # of connection points: 2
#     Edge 46, Type (0, 0), BuildingBlock: EZIPEK_clean_linker_0, # of connection points: 2
#     Edge 47, Type (0, 0), BuildingBlock: EZIPEK_clean_linker_0, # of connection points: 2
#     Edge 48, Type (0, 0), BuildingBlock: EZIPEK_clean_linker_0, # of connection points: 2
#     Edge 49, Type (0, 0), BuildingBlock: EZIPEK_clean_linker_0, # of connection points: 2
#     Edge 50, Type (0, 0), BuildingBlock: EZIPEK_clean_linker_0, # of connection points: 2
#     Edge 51, Type (0, 0), BuildingBlock: EZIPEK_clean_linker_0, # of connection points: 2
#     Edge 52, Type (0, 0), BuildingBlock: EZIPEK_clean_linker_0, # of connection points: 2
#     Edge 53, Type (0, 0), BuildingBlock: EZIPEK_clean_linker_0, # of connection points: 2
#     Edge 54, Type (0, 0), BuildingBlock: EZIPEK_clean_linker_0, # of connection points: 2
#     Edge 55, Type (0, 0), BuildingBlock: EZIPEK_clean_linker_0, # of connection points: 2
# Relax obj value: 0.473
# Max RMSD: 0.191
# Mean RMSD: 0.191
data_MOF--net-yfc--node1-BEQFEK_clean_sbu_0--edge1-EZIPEK_clean_linker_0
_symmetry_space_group_name_H-M    P1
_symmetry_Int_Tables_number       1
_symmetry_cell_setting            triclinic
loop_
_symmetry_equiv_pos_as_xyz
'x, y, z'
_cell_length_a     36.244134
_cell_length_b     36.229815
_cell_length_c     34.867642
_cell_angle_alpha  90.055854
_cell_angle_beta   90.274767
_cell_angle_gamma 90.014886
loop_
_atom_site_label
_atom_site_type_symbol
_atom_site_fract_x
_atom_site_fract_y
_atom_site_fract_z
_atom_type_partial_charge
Co0 Co 0.73644 0.12057 0.16687 0.0
Co1 Co 0.7161 0.04492 0.20435 0.0
C2 C 0.66947 0.11255 0.21697 0.0
O3 O 0.69105 0.13096 0.19571 0.0
O4 O 0.67464 0.0781 0.22246 0.0
C5 C 0.7224 0.17895 0.11377 0.0
O6 O 0.69231 0.16044 0.10517 0.0
C7 C 0.67658 0.98144 0.23922 0.0
C8 C 0.70518 0.93455 0.21215 0.0
C9 C 0.6749 0.9431 0.2347 0.0
N10 N 0.7052 0.99457 0.2188 0.0
N11 N 0.72311 0.96614 0.20426 0.0
C12 C 0.65335 1.00512 0.26474 0.0
H13 H 0.67124 0.02527 0.27994 0.0
H14 H 0.63333 0.021 0.24714 0.0
H15 H 0.63826 0.98834 0.28615 0.0
C16 C 0.74222 0.07486 0.09766 0.0
N17 N 0.73333 0.07899 0.13483 0.0
N18 N 0.72141 0.04735 0.14866 0.0
C19 C 0.72002 0.02272 0.11921 0.0
C20 C 0.73388 0.03934 0.08642 0.0
C21 C 0.75968 0.10396 0.07334 0.0
H22 H 0.73755 0.11937 0.05828 0.0
H23 H 0.7777 0.09169 0.05111 0.0
H24 H 0.77628 0.12311 0.09119 0.0
O25 O 0.77661 0.11459 0.20336 0.0
O26 O 0.76427 0.06078 0.23119 0.0
H27 H 0.69077 0.97749 0.09322 0.0
H28 H 0.68348 0.98264 0.14409 0.0
C29 C 0.70418 0.98467 0.12091 0.0
H30 H 0.72672 0.96444 0.12538 0.0
H31 H 0.74698 0.96843 0.18784 0.0
O32 O 0.74533 0.16587 0.13778 0.0
C33 C 0.78441 0.08969 0.22769 0.0
Co34 Co 0.38767 0.73052 0.66237 0.0
Co35 Co 0.4619 0.71356 0.70472 0.0
C36 C 0.39432 0.66519 0.71386 0.0
O37 O 0.37602 0.68577 0.69136 0.0
O38 O 0.42834 0.67158 0.72049 0.0
C39 C 0.33098 0.71322 0.60915 0.0
O40 O 0.34917 0.68205 0.60602 0.0
C41 C 0.52555 0.66709 0.72461 0.0
C42 C 0.56477 0.7068 0.75023 0.0
C43 C 0.56008 0.66971 0.74171 0.0
N44 N 0.51043 0.701 0.72308 0.0
N45 N 0.53412 0.72464 0.73834 0.0
C46 C 0.50653 0.63275 0.71127 0.0
H47 H 0.48909 0.63889 0.6858 0.0
H48 H 0.5267 0.61074 0.70434 0.0
H49 H 0.48833 0.62262 0.7345 0.0
C50 C 0.43697 0.73713 0.59635 0.0
N51 N 0.43099 0.72739 0.63299 0.0
N52 N 0.46278 0.72097 0.65013 0.0
C53 C 0.49016 0.72645 0.62446 0.0
C54 C 0.47452 0.73682 0.58952 0.0
C55 C 0.40745 0.75008 0.56938 0.0
H56 H 0.38946 0.7703 0.58413 0.0
H57 H 0.39058 0.72608 0.56036 0.0
H58 H 0.41883 0.763 0.54321 0.0
O59 O 0.39179 0.77138 0.69918 0.0
O60 O 0.44446 0.76089 0.73047 0.0
H61 H 0.5362 0.74547 0.6574 0.0
H62 H 0.54754 0.73186 0.6088 0.0
C63 C 0.53033 0.72535 0.63416 0.0
H64 H 0.5375 0.69748 0.64499 0.0
H65 H 0.52917 0.75289 0.74111 0.0
O66 O 0.34403 0.73886 0.63006 0.0
C67 C 0.41528 0.78014 0.7249 0.0
Co68 Co 0.76632 0.39441 0.15784 0.0
Co69 Co 0.79036 0.46337 0.205 0.0
C70 C 0.83271 0.39043 0.20732 0.0
O71 O 0.81289 0.37758 0.18032 0.0
O72 O 0.82725 0.423 0.22032 0.0
C73 C 0.76699 0.32825 0.11524 0.0
O74 O 0.80288 0.33026 0.11998 0.0
C75 C 0.84151 0.52399 0.22571 0.0
C76 C 0.80478 0.56259 0.25628 0.0
C77 C 0.84097 0.55763 0.24482 0.0
N78 N 0.80721 0.50968 0.22585 0.0
N79 N 0.78541 0.533 0.24412 0.0
C80 C 0.87425 0.50523 0.20863 0.0
H81 H 0.86532 0.48451 0.18701 0.0
H82 H 0.89299 0.52571 0.19531 0.0
H83 H 0.88977 0.49093 0.23176 0.0
C84 C 0.76283 0.44656 0.09506 0.0
N85 N 0.77111 0.43852 0.13163 0.0
N86 N 0.78225 0.46833 0.14983 0.0
C87 C 0.78182 0.49669 0.12441 0.0
C88 C 0.76959 0.4836 0.08878 0.0
C89 C 0.74652 0.41933 0.06747 0.0
H90 H 0.72241 0.40571 0.08087 0.0
H91 H 0.76729 0.39778 0.06082 0.0
H92 H 0.73723 0.43259 0.04055 0.0
O93 O 0.72986 0.39847 0.19885 0.0
O94 O 0.74228 0.44961 0.23143 0.0
H95 H 0.77596 0.5444 0.16001 0.0
H96 H 0.7855 0.55455 0.11002 0.0
C97 C 0.79154 0.53562 0.13426 0.0
H98 H 0.82137 0.537 0.14135 0.0
H99 H 0.75728 0.52863 0.24849 0.0
O100 O 0.74681 0.35517 0.12497 0.0
C101 C 0.72253 0.42084 0.2258 0.0
Co102 Co 0.11927 0.76874 0.66479 0.0
Co103 Co 0.04519 0.79409 0.70236 0.0
C104 C 0.11632 0.8376 0.71199 0.0
O105 O 0.13378 0.81485 0.69102 0.0
O106 O 0.08176 0.83381 0.71802 0.0
C107 C 0.19112 0.76576 0.63159 0.0
O108 O 0.19549 0.79899 0.64596 0.0
C109 C 0.98581 0.83754 0.74 0.0
C110 C 0.93574 0.81077 0.71685 0.0
C111 C 0.9474 0.84012 0.73942 0.0
N112 N 0.99615 0.80903 0.71762 0.0
N113 N 0.96594 0.79253 0.70494 0.0
C114 C 0.01219 0.85955 0.76398 0.0
H115 H 0.03256 0.84072 0.77743 0.0
H116 H 0.02747 0.87907 0.7454 0.0
H117 H 0.99769 0.8752 0.78674 0.0
C118 C 0.07391 0.76568 0.59581 0.0
N119 N 0.07763 0.77354 0.6333 0.0
N120 N 0.04633 0.78637 0.64692 0.0
C121 C 0.02209 0.78878 0.6171 0.0
C122 C 0.03872 0.775 0.58415 0.0
C123 C 0.10351 0.74875 0.57176 0.0
H124 H 0.114 0.72345 0.586 0.0
H125 H 0.12672 0.76852 0.56897 0.0
H126 H 0.09324 0.74133 0.54281 0.0
O127 O 0.11135 0.73182 0.70373 0.0
O128 O 0.05853 0.74662 0.73171 0.0
H129 H 0.96378 0.78397 0.62387 0.0
H130 H 0.97757 0.81884 0.59077 0.0
C131 C 0.98458 0.80581 0.61867 0.0
H132 H 0.98338 0.82698 0.64158 0.0
H133 H 0.96594 0.76872 0.68812 0.0
O134 O 0.16042 0.74944 0.63471 0.0
C135 C 0.08688 0.72572 0.72875 0.0
Co136 Co 0.74076 0.39409 0.86596 0.0
Co137 Co 0.71884 0.46396 0.81917 0.0
C138 C 0.67453 0.39204 0.81628 0.0
O139 O 0.6935 0.37874 0.84367 0.0
O140 O 0.68131 0.42429 0.80313 0.0
C141 C 0.74799 0.32245 0.89553 0.0
O142 O 0.72136 0.3155 0.87098 0.0
C143 C 0.66894 0.52502 0.79688 0.0
C144 C 0.70748 0.56465 0.77042 0.0
C145 C 0.67062 0.55928 0.77912 0.0
N146 N 0.70322 0.51076 0.79861 0.0
N147 N 0.7261 0.53469 0.78279 0.0
C148 C 0.63525 0.50562 0.81095 0.0
H149 H 0.62335 0.48913 0.78707 0.0
H150 H 0.64259 0.48658 0.83472 0.0
H151 H 0.6141 0.52569 0.82056 0.0
C152 C 0.74531 0.44623 0.929 0.0
N153 N 0.73689 0.4384 0.89238 0.0
N154 N 0.7265 0.46849 0.8743 0.0
C155 C 0.72765 0.49684 0.89977 0.0
C156 C 0.7395 0.48344 0.93537 0.0
C157 C 0.76101 0.41865 0.95655 0.0
H158 H 0.74025 0.3968 0.96206 0.0
H159 H 0.76939 0.43149 0.98401 0.0
H160 H 0.78563 0.40551 0.94363 0.0
O161 O 0.77767 0.39747 0.82513 0.0
O162 O 0.76717 0.44968 0.79374 0.0
H163 H 0.72402 0.55459 0.91478 0.0
H164 H 0.69006 0.53804 0.88056 0.0
C165 C 0.71927 0.53604 0.88988 0.0
H166 H 0.73678 0.54481 0.86552 0.0
H167 H 0.75448 0.53051 0.7803 0.0
O168 O 0.7595 0.35516 0.89999 0.0
C169 C 0.78611 0.42031 0.79897 0.0
Co170 Co 0.12257 0.73938 0.35308 0.0
Co171 Co 0.04846 0.71812 0.31274 0.0
C172 C 0.11904 0.67211 0.30506 0.0
O173 O 0.13711 0.69374 0.32686 0.0
O174 O 0.08485 0.67772 0.29803 0.0
C175 C 0.19376 0.74235 0.38824 0.0
O176 O 0.19868 0.70963 0.37289 0.0
C177 C 0.98696 0.66781 0.29383 0.0
C178 C 0.94418 0.70609 0.27246 0.0
C179 C 0.95137 0.66906 0.27899 0.0
N180 N 1.00024 0.70247 0.29599 0.0
N181 N 0.97444 0.72522 0.28324 0.0
C182 C 0.00852 0.63419 0.30464 0.0
H183 H 0.02533 0.63991 0.33068 0.0
H184 H 0.99013 0.61021 0.30967 0.0
H185 H 0.02764 0.62726 0.28094 0.0
C186 C 0.0758 0.74126 0.42068 0.0
N187 N 0.08044 0.73378 0.38331 0.0
N188 N 0.04834 0.72646 0.36729 0.0
C189 C 0.02193 0.7296 0.39446 0.0
C190 C 0.03866 0.73911 0.42923 0.0
C191 C 0.10632 0.75279 0.44718 0.0
H192 H 0.11657 0.78038 0.43846 0.0
H193 H 0.12944 0.73284 0.44512 0.0
H194 H 0.09698 0.75427 0.47731 0.0
O195 O 0.11498 0.77776 0.31465 0.0
O196 O 0.06192 0.76587 0.28516 0.0
H197 H 0.96514 0.73112 0.41303 0.0
H198 H 0.97558 0.69806 0.37556 0.0
C199 C 0.98151 0.72614 0.38671 0.0
H200 H 0.97335 0.74622 0.36421 0.0
H201 H 0.97759 0.7538 0.2816 0.0
O202 O 0.16296 0.75844 0.38483 0.0
C203 C 0.09072 0.78585 0.28966 0.0
Co204 Co 0.77799 0.12464 0.85723 0.0
Co205 Co 0.79704 0.04909 0.8176 0.0
C206 C 0.84417 0.11689 0.80637 0.0
O207 O 0.82287 0.13527 0.82794 0.0
O208 O 0.83875 0.08253 0.80068 0.0
C209 C 0.79508 0.18087 0.91159 0.0
O210 O 0.82437 0.1605 0.91824 0.0
C211 C 0.84138 0.98496 0.79182 0.0
C212 C 0.80445 0.93909 0.80616 0.0
C213 C 0.84096 0.94623 0.79648 0.0
N214 N 0.80854 0.99889 0.80272 0.0
N215 N 0.78611 0.9711 0.80953 0.0
C216 C 0.86878 0.00824 0.77064 0.0
H217 H 0.85395 0.02963 0.75388 0.0
H218 H 0.88711 0.02277 0.79127 0.0
H219 H 0.8852 0.99168 0.75015 0.0
C220 C 0.77135 0.07716 0.92489 0.0
N221 N 0.78097 0.08211 0.88804 0.0
N222 N 0.7907 0.05023 0.87297 0.0
C223 C 0.78913 0.02427 0.90104 0.0
C224 C 0.77643 0.0406 0.93451 0.0
C225 C 0.7551 0.10638 0.9499 0.0
H226 H 0.73754 0.12504 0.93251 0.0
H227 H 0.7779 0.12223 0.96333 0.0
H228 H 0.7383 0.09464 0.97338 0.0
O229 O 0.73739 0.11935 0.82061 0.0
O230 O 0.74912 0.06594 0.79127 0.0
H231 H 0.77426 0.96942 0.88505 0.0
H232 H 0.80565 0.97189 0.92469 0.0
C233 C 0.79857 0.98439 0.89655 0.0
H234 H 0.82229 0.98119 0.87691 0.0
H235 H 0.7588 0.97406 0.81837 0.0
O236 O 0.77055 0.16951 0.88822 0.0
C237 C 0.72927 0.09495 0.79566 0.0
Co238 Co 0.38872 0.77637 0.36091 0.0
Co239 Co 0.46283 0.79786 0.3215 0.0
C240 C 0.39434 0.84265 0.30839 0.0
O241 O 0.37695 0.82081 0.33034 0.0
O242 O 0.42891 0.83859 0.3028 0.0
C243 C 0.33315 0.79219 0.41582 0.0
O244 O 0.35281 0.82198 0.42244 0.0
C245 C 0.52619 0.83544 0.28392 0.0
C246 C 0.57296 0.80761 0.31241 0.0
C247 C 0.5646 0.8368 0.28813 0.0
N248 N 0.51292 0.80807 0.30609 0.0
N249 N 0.54124 0.79058 0.32156 0.0
C250 C 0.5025 0.85769 0.25731 0.0
H251 H 0.48224 0.83926 0.24299 0.0
H252 H 0.48668 0.87839 0.27397 0.0
H253 H 0.51925 0.87189 0.23523 0.0
C254 C 0.43644 0.77216 0.42898 0.0
N255 N 0.43103 0.78076 0.39185 0.0
N256 N 0.46178 0.79388 0.37725 0.0
C257 C 0.48696 0.79665 0.40615 0.0
C258 C 0.4718 0.78217 0.43943 0.0
C259 C 0.40903 0.75265 0.45367 0.0
H260 H 0.39024 0.73556 0.43587 0.0
H261 H 0.39285 0.77348 0.46972 0.0
H262 H 0.42303 0.73467 0.47496 0.0
O263 O 0.39406 0.73537 0.32556 0.0
O264 O 0.44674 0.74898 0.29628 0.0
H265 H 0.54555 0.79313 0.40046 0.0
H266 H 0.53022 0.82981 0.43046 0.0
C267 C 0.52398 0.81461 0.40354 0.0
H268 H 0.52484 0.83419 0.37916 0.0
H269 H 0.5388 0.76769 0.33949 0.0
O270 O 0.34471 0.76824 0.39212 0.0
C271 C 0.41851 0.72808 0.30069 0.0
Co272 Co 0.27377 0.88787 0.85968 0.0
Co273 Co 0.29425 0.96154 0.81699 0.0
C274 C 0.3398 0.89227 0.80829 0.0
O275 O 0.31861 0.87492 0.83092 0.0
O276 O 0.33476 0.92647 0.8014 0.0
C277 C 0.28596 0.83116 0.9156 0.0
O278 O 0.31627 0.84965 0.92339 0.0
C279 C 0.34218 0.0245 0.79684 0.0
C280 C 0.30298 0.06404 0.77106 0.0
C281 C 0.34 0.05902 0.77968 0.0
N282 N 0.30808 0.00975 0.79831 0.0
N283 N 0.28477 0.03365 0.78291 0.0
C284 C 0.37626 1.00521 0.81043 0.0
H285 H 0.36981 0.9877 0.83564 0.0
H286 H 0.3983 0.02529 0.81784 0.0
H287 H 0.38646 0.98704 0.78715 0.0
C288 C 0.26911 0.93886 0.92551 0.0
N289 N 0.27798 0.93181 0.8888 0.0
N290 N 0.28733 0.96286 0.87179 0.0
C291 C 0.28553 0.99056 0.89786 0.0
C292 C 0.27403 0.97607 0.9328 0.0
C293 C 0.25252 0.9112 0.9521 0.0
H294 H 0.23385 0.89272 0.93575 0.0
H295 H 0.2749 0.89473 0.96545 0.0
H296 H 0.23667 0.92452 0.97541 0.0
O297 O 0.23393 0.89293 0.8221 0.0
O298 O 0.24638 0.94496 0.79076 0.0
H299 H 0.27352 0.03917 0.86553 0.0
H300 H 0.28798 0.04799 0.91454 0.0
C301 C 0.29232 0.03029 0.88895 0.0
H302 H 0.32105 0.03358 0.87874 0.0
H303 H 0.25646 0.02907 0.78011 0.0
O304 O 0.263 0.8439 0.89137 0.0
C305 C 0.22626 0.91632 0.79606 0.0
Co306 Co 0.62128 0.27208 0.36154 0.0
Co307 Co 0.54744 0.29185 0.31985 0.0
C308 C 0.61614 0.33828 0.31029 0.0
O309 O 0.63399 0.31698 0.33254 0.0
O310 O 0.58194 0.3328 0.30377 0.0
C311 C 0.67754 0.28679 0.41652 0.0
O312 O 0.65919 0.31762 0.42163 0.0
C313 C 0.48536 0.33957 0.29674 0.0
C314 C 0.44224 0.29943 0.28037 0.0
C315 C 0.44944 0.3369 0.28315 0.0
N316 N 0.4989 0.30529 0.30184 0.0
N317 N 0.47292 0.28143 0.29195 0.0
C318 C 0.50652 0.37419 0.30467 0.0
H319 H 0.52587 0.37924 0.28067 0.0
H320 H 0.523 0.37094 0.33137 0.0
H321 H 0.48786 0.39834 0.30728 0.0
C322 C 0.57174 0.26681 0.428 0.0
N323 N 0.57802 0.27586 0.39119 0.0
N324 N 0.54672 0.28541 0.3747 0.0
C325 C 0.51963 0.28391 0.40132 0.0
C326 C 0.53478 0.27214 0.43601 0.0
C327 C 0.59978 0.24954 0.45393 0.0
H328 H 0.61869 0.23193 0.43705 0.0
H329 H 0.61585 0.27159 0.46845 0.0
H330 H 0.58658 0.23222 0.47613 0.0
O331 O 0.61635 0.23159 0.32491 0.0
O332 O 0.56371 0.24351 0.2942 0.0
H333 H 0.46323 0.29052 0.41988 0.0
H334 H 0.47704 0.31878 0.37951 0.0
C335 C 0.47983 0.29134 0.39322 0.0
H336 H 0.46922 0.27031 0.37282 0.0
H337 H 0.47613 0.25282 0.2931 0.0
O338 O 0.66481 0.26257 0.39365 0.0
C339 C 0.59244 0.22343 0.29945 0.0
Co340 Co 0.23843 0.62435 0.86053 0.0
Co341 Co 0.21462 0.55019 0.82106 0.0
C342 C 0.16957 0.62081 0.81314 0.0
O343 O 0.192 0.63886 0.83425 0.0
O344 O 0.17442 0.58643 0.80677 0.0
C345 C 0.24117 0.68522 0.91612 0.0
O346 O 0.206 0.67886 0.92224 0.0
C347 C 0.16592 0.48858 0.79671 0.0
C348 C 0.20621 0.44404 0.78605 0.0
C349 C 0.16886 0.45201 0.7852 0.0
N350 N 0.2 0.50167 0.80421 0.0
N351 N 0.22391 0.47485 0.79766 0.0
C352 C 0.13136 0.51079 0.80027 0.0
H353 H 0.13193 0.52655 0.82758 0.0
H354 H 0.10647 0.49296 0.79913 0.0
H355 H 0.13003 0.53094 0.77636 0.0
C356 C 0.24352 0.57534 0.92805 0.0
N357 N 0.23413 0.5814 0.89119 0.0
N358 N 0.22333 0.55011 0.87548 0.0
C359 C 0.22456 0.52333 0.90255 0.0
C360 C 0.23744 0.5386 0.9367 0.0
C361 C 0.2613 0.60335 0.95367 0.0
H362 H 0.28206 0.61912 0.93733 0.0
H363 H 0.23997 0.62252 0.96462 0.0
H364 H 0.27538 0.59027 0.97839 0.0
O365 O 0.27609 0.61649 0.8217 0.0
O366 O 0.26214 0.56347 0.7932 0.0
H367 H 0.23714 0.47137 0.87704 0.0
H368 H 0.21421 0.46799 0.92279 0.0
C369 C 0.21554 0.48367 0.89549 0.0
H370 H 0.18875 0.48156 0.88016 0.0
H371 H 0.2524 0.47758 0.80114 0.0
O372 O 0.25754 0.66626 0.89076 0.0
C373 C 0.28296 0.59176 0.79694 0.0
Co374 Co 0.88954 0.2344 0.36053 0.0
Co375 Co 0.96244 0.21636 0.31637 0.0
C376 C 0.89433 0.16727 0.31117 0.0
O377 O 0.87641 0.18828 0.33361 0.0
O378 O 0.92819 0.17369 0.3037 0.0
C379 C 0.81684 0.23776 0.38969 0.0
O380 O 0.81029 0.21185 0.36423 0.0
C381 C 0.02604 0.16974 0.2952 0.0
C382 C 0.06443 0.20984 0.26937 0.0
C383 C 0.06025 0.17268 0.27767 0.0
N384 N 0.01064 0.20354 0.29713 0.0
N385 N 0.03387 0.22739 0.28174 0.0
C386 C 0.00764 0.13521 0.30868 0.0
H387 H 0.99146 0.14101 0.33496 0.0
H388 H 0.0281 0.11308 0.31436 0.0
H389 H 0.98827 0.12548 0.28609 0.0
C390 C 0.93971 0.23927 0.42561 0.0
N391 N 0.93352 0.23158 0.38847 0.0
N392 N 0.96501 0.2254 0.37102 0.0
C393 C 0.99257 0.22906 0.39718 0.0
C394 C 0.97724 0.23801 0.43268 0.0
C395 C 0.91017 0.25015 0.45325 0.0
H396 H 0.89733 0.27635 0.44356 0.0
H397 H 0.88848 0.22854 0.45377 0.0
H398 H 0.92123 0.25414 0.4826 0.0
O399 O 0.89251 0.27293 0.3219 0.0
O400 O 0.94261 0.26156 0.28738 0.0
H401 H 0.03961 0.24514 0.36454 0.0
H402 H 0.05009 0.2317 0.41355 0.0
C403 C 0.03264 0.22575 0.38803 0.0
H404 H 0.03835 0.19738 0.37766 0.0
H405 H 0.02869 0.25562 0.27927 0.0
O406 O 0.84926 0.25003 0.39424 0.0
C407 C 0.91374 0.28081 0.29424 0.0
Co408 Co 0.27668 0.6214 0.16513 0.0
Co409 Co 0.29675 0.54731 0.20617 0.0
C410 C 0.34252 0.61777 0.21595 0.0
O411 O 0.32157 0.63577 0.19334 0.0
O412 O 0.3369 0.58348 0.22237 0.0
C413 C 0.2763 0.69159 0.12692 0.0
O414 O 0.31094 0.69437 0.13772 0.0
C415 C 0.34478 0.48511 0.22969 0.0
C416 C 0.3042 0.44103 0.24111 0.0
C417 C 0.34167 0.44853 0.24104 0.0
N418 N 0.31071 0.49865 0.22317 0.0
N419 N 0.28662 0.47211 0.23017 0.0
C420 C 0.37951 0.50691 0.22519 0.0
H421 H 0.3782 0.52314 0.19824 0.0
H422 H 0.40416 0.48873 0.22504 0.0
H423 H 0.38199 0.52663 0.24944 0.0
C424 C 0.27477 0.57392 0.09776 0.0
N425 N 0.28232 0.57896 0.13513 0.0
N426 N 0.2898 0.54703 0.15131 0.0
C427 C 0.28726 0.5204 0.1241 0.0
C428 C 0.27759 0.53674 0.08928 0.0
C429 C 0.26172 0.60391 0.07152 0.0
H430 H 0.28223 0.62664 0.07132 0.0
H431 H 0.25747 0.59377 0.0419 0.0
H432 H 0.23521 0.61506 0.08228 0.0
O433 O 0.23752 0.6144 0.20241 0.0
O434 O 0.24868 0.56164 0.23253 0.0
H435 H 0.29025 0.46383 0.10471 0.0
H436 H 0.3176 0.47482 0.14691 0.0
C437 C 0.29115 0.48003 0.13174 0.0
H438 H 0.26841 0.47092 0.15069 0.0
H439 H 0.2581 0.47517 0.22734 0.0
O440 O 0.25848 0.66225 0.13356 0.0
C441 C 0.22896 0.59052 0.22741 0.0
Co442 Co 0.88975 0.27596 0.66127 0.0
Co443 Co 0.9639 0.2962 0.70203 0.0
C444 C 0.8949 0.34161 0.71333 0.0
O445 O 0.87714 0.32063 0.69067 0.0
O446 O 0.92917 0.33638 0.71963 0.0
C447 C 0.83243 0.28936 0.60661 0.0
O448 O 0.85113 0.31932 0.59827 0.0
C449 C 0.02576 0.34405 0.72557 0.0
C450 C 0.06937 0.30393 0.74041 0.0
C451 C 0.06178 0.34137 0.73884 0.0
N452 N 0.01253 0.30979 0.7195 0.0
N453 N 0.03881 0.28593 0.72844 0.0
C454 C 1.00418 0.37865 0.71904 0.0
H455 H 0.98521 0.38292 0.74353 0.0
H456 H 0.98729 0.37592 0.69255 0.0
H457 H 0.02261 0.40302 0.71679 0.0
C458 C 0.93837 0.27101 0.59401 0.0
N459 N 0.93243 0.28017 0.63087 0.0
N460 N 0.96383 0.29004 0.647 0.0
C461 C 0.99064 0.28865 0.62006 0.0
C462 C 0.97521 0.27659 0.58557 0.0
C463 C 0.91026 0.25335 0.56836 0.0
H464 H 0.8904 0.23708 0.58547 0.0
H465 H 0.89528 0.27514 0.55231 0.0
H466 H 0.92346 0.23464 0.54736 0.0
O467 O 0.89561 0.23544 0.69771 0.0
O468 O 0.9486 0.24776 0.7276 0.0
H469 H 0.04156 0.27471 0.6473 0.0
H470 H 0.04669 0.29614 0.60079 0.0
C471 C 0.0305 0.29619 0.62774 0.0
H472 H 0.03339 0.3233 0.64223 0.0
H473 H 0.03584 0.25734 0.72649 0.0
O474 O 0.84544 0.26635 0.63054 0.0
C475 C 0.91995 0.2275 0.72276 0.0
Co476 Co 0.23459 0.89124 0.15939 0.0
Co477 Co 0.21596 0.96526 0.20113 0.0
C478 C 0.16818 0.89719 0.20949 0.0
O479 O 0.18919 0.8792 0.18727 0.0
O480 O 0.17427 0.9312 0.21653 0.0
C481 C 0.22065 0.83319 0.10584 0.0
O482 O 0.18969 0.85079 0.09876 0.0
C483 C 0.1688 0.02866 0.22154 0.0
C484 C 0.20862 0.06838 0.24608 0.0
C485 C 0.1714 0.06331 0.23842 0.0
N486 N 0.20283 0.01386 0.21935 0.0
N487 N 0.22652 0.03788 0.23397 0.0
C488 C 0.13437 0.0093 0.20899 0.0
H489 H 0.12508 0.99082 0.2324 0.0
H490 H 0.14005 0.99208 0.18334 0.0
H491 H 0.11196 0.02927 0.20264 0.0
C492 C 0.23993 0.94056 0.09261 0.0
N493 N 0.2314 0.93447 0.12957 0.0
N494 N 0.22322 0.96602 0.14627 0.0
C495 C 0.22577 0.99326 0.11981 0.0
C496 C 0.23635 0.97784 0.08491 0.0
C497 C 0.25409 0.9116 0.06576 0.0
H498 H 0.23046 0.8956 0.0542 0.0
H499 H 0.26906 0.92382 0.04121 0.0
H500 H 0.27291 0.89262 0.08125 0.0
O501 O 0.27474 0.89553 0.19697 0.0
O502 O 0.26348 0.94808 0.22784 0.0
H503 H 0.22476 0.05048 0.10236 0.0
H504 H 0.19207 0.03769 0.13922 0.0
C505 C 0.22043 0.03331 0.12831 0.0
H506 H 0.24003 0.04192 0.15116 0.0
H507 H 0.25487 0.03326 0.23617 0.0
O508 O 0.24438 0.84728 0.12838 0.0
C509 C 0.28303 0.919 0.22277 0.0
Co510 Co 0.61969 0.23719 0.66216 0.0
Co511 Co 0.54733 0.21681 0.70613 0.0
C512 C 0.61713 0.17039 0.71207 0.0
O513 O 0.63438 0.19195 0.68967 0.0
O514 O 0.58297 0.17545 0.71927 0.0
C515 C 0.68994 0.23699 0.62586 0.0
O516 O 0.69312 0.20361 0.6401 0.0
C517 C 0.48493 0.16817 0.72649 0.0
C518 C 0.44498 0.2071 0.75173 0.0
C519 C 0.45034 0.17009 0.74338 0.0
N520 N 0.49939 0.20241 0.72494 0.0
N521 N 0.47524 0.22555 0.74 0.0
C522 C 0.50452 0.13425 0.71314 0.0
H523 H 0.52406 0.12521 0.73586 0.0
H524 H 0.52069 0.14053 0.68698 0.0
H525 H 0.48484 0.11144 0.70731 0.0
C526 C 0.56997 0.23957 0.59674 0.0
N527 N 0.57616 0.23253 0.63399 0.0
N528 N 0.54482 0.22542 0.65133 0.0
C529 C 0.51732 0.22778 0.62493 0.0
C530 C 0.53256 0.23686 0.58944 0.0
C531 C 0.59935 0.25117 0.56924 0.0
H532 H 0.6113 0.27783 0.57884 0.0
H533 H 0.62172 0.23027 0.56907 0.0
H534 H 0.58838 0.25457 0.53978 0.0
O535 O 0.615 0.27574 0.7005 0.0
O536 O 0.56561 0.26265 0.73537 0.0
H537 H 0.46955 0.24201 0.65739 0.0
H538 H 0.45984 0.22848 0.6082 0.0
C539 C 0.47734 0.22303 0.6338 0.0
H540 H 0.47258 0.19441 0.64388 0.0
H541 H 0.47954 0.25393 0.74259 0.0
O542 O 0.65998 0.25458 0.62952 0.0
C543 C 0.59374 0.28291 0.72832 0.0
C544 C 0.60839 0.92535 0.24949 0.0
C545 C 0.64641 0.91597 0.24833 0.0
C546 C 0.62854 0.85237 0.2634 0.0
C547 C 0.5922 0.86401 0.27289 0.0
N548 N 0.5546 0.91737 0.28843 0.0
N549 N 0.69253 0.87031 0.26584 0.0
C550 C 0.58394 0.90223 0.2699 0.0
C551 C 0.6566 0.87936 0.2587 0.0
N552 N 0.59479 0.95469 0.22952 0.0
N553 N 0.63634 0.81598 0.25737 0.0
H554 H 0.71361 0.88984 0.26696 0.0
H555 H 0.70028 0.8443 0.27582 0.0
H556 H 0.61602 0.79564 0.25649 0.0
H557 H 0.66216 0.80707 0.24804 0.0
H558 H 0.56665 0.96081 0.22886 0.0
H559 H 0.61071 0.96932 0.20988 0.0
H560 H 0.54932 0.94569 0.28773 0.0
H561 H 0.53913 0.90266 0.30837 0.0
C562 C 0.63008 0.59146 0.73092 0.0
C563 C 0.63998 0.58526 0.76983 0.0
C564 C 0.59293 0.62989 0.79009 0.0
C565 C 0.58641 0.63942 0.75117 0.0
N566 N 0.60241 0.63291 0.68443 0.0
N567 N 0.63472 0.60248 0.83643 0.0
C568 C 0.60587 0.62108 0.72149 0.0
C569 C 0.62235 0.60543 0.79947 0.0
N570 N 0.64308 0.5684 0.70303 0.0
N571 N 0.57036 0.64345 0.81807 0.0
H572 H 0.65625 0.58502 0.84445 0.0
H573 H 0.62575 0.61954 0.85855 0.0
H574 H 0.5483 0.66109 0.81227 0.0
H575 H 0.57131 0.63449 0.84643 0.0
H576 H 0.63388 0.56911 0.6747 0.0
H577 H 0.6605 0.54617 0.70892 0.0
H578 H 0.61899 0.62341 0.6622 0.0
H579 H 0.58499 0.65447 0.67635 0.0
C580 C 0.91675 0.62988 0.23135 0.0
C581 C 0.92588 0.63787 0.27012 0.0
C582 C 0.88485 0.58794 0.29119 0.0
C583 C 0.87211 0.58341 0.25291 0.0
N584 N 0.87226 0.60357 0.187 0.0
N585 N 0.91517 0.62776 0.33753 0.0
C586 C 0.88722 0.60518 0.22302 0.0
C587 C 0.90915 0.61762 0.30025 0.0
N588 N 0.93694 0.64522 0.20244 0.0
N589 N 0.87434 0.56333 0.31875 0.0
H590 H 0.93275 0.64928 0.34539 0.0
H591 H 0.90053 0.61681 0.36049 0.0
H592 H 0.85686 0.54109 0.31305 0.0
H593 H 0.88563 0.56288 0.34627 0.0
H594 H 0.9341 0.63756 0.17378 0.0
H595 H 0.95906 0.66305 0.20746 0.0
H596 H 0.8793 0.62177 0.16512 0.0
H597 H 0.85055 0.58599 0.17978 0.0
C598 C 0.89191 0.85313 0.7811 0.0
C599 C 0.92254 0.86657 0.75989 0.0
C600 C 0.90776 0.92817 0.78316 0.0
C601 C 0.87134 0.91738 0.79201 0.0
N602 N 0.83364 0.86531 0.81183 0.0
N603 N 0.95559 0.92031 0.73667 0.0
C604 C 0.86459 0.87849 0.7945 0.0
C605 C 0.92947 0.90508 0.75976 0.0
N606 N 0.89045 0.81669 0.79121 0.0
N607 N 0.92348 0.95762 0.80109 0.0
H608 H 0.96984 0.90509 0.71614 0.0
H609 H 0.95971 0.94881 0.73546 0.0
H610 H 0.91004 0.97114 0.8235 0.0
H611 H 0.95106 0.96486 0.79691 0.0
H612 H 0.87064 0.8057 0.80947 0.0
H613 H 0.91155 0.79808 0.78512 0.0
H614 H 0.82357 0.83872 0.80715 0.0
H615 H 0.8199 0.87983 0.83318 0.0
C616 C 0.38043 0.09151 0.73181 0.0
C617 C 0.37046 0.08531 0.77061 0.0
C618 C 0.41763 0.12993 0.79137 0.0
C619 C 0.42428 0.13942 0.7525 0.0
N620 N 0.40841 0.13279 0.68559 0.0
N621 N 0.37597 0.1022 0.83731 0.0
C622 C 0.40481 0.12105 0.72263 0.0
C623 C 0.3882 0.10539 0.80044 0.0
N624 N 0.36734 0.06851 0.70377 0.0
N625 N 0.44011 0.14359 0.81959 0.0
H626 H 0.35457 0.08456 0.84513 0.0
H627 H 0.38494 0.11919 0.85959 0.0
H628 H 0.46217 0.16127 0.814 0.0
H629 H 0.43913 0.13473 0.84797 0.0
H630 H 0.37659 0.06916 0.67555 0.0
H631 H 0.34973 0.04642 0.70945 0.0
H632 H 0.39184 0.12332 0.66317 0.0
H633 H 0.42596 0.15424 0.67768 0.0
C634 C 0.41781 0.37596 0.23319 0.0
C635 C 0.42369 0.36735 0.27251 0.0
C636 C 0.37728 0.41345 0.29126 0.0
C637 C 0.37149 0.42216 0.25196 0.0
N638 N 0.38851 0.41547 0.1856 0.0
N639 N 0.41279 0.38004 0.33934 0.0
C640 C 0.39255 0.40455 0.22295 0.0
C641 C 0.40455 0.38683 0.30166 0.0
N642 N 0.43595 0.35618 0.20565 0.0
N643 N 0.35608 0.43024 0.31857 0.0
H644 H 0.43117 0.35956 0.34805 0.0
H645 H 0.40315 0.39579 0.36213 0.0
H646 H 0.33769 0.45157 0.31236 0.0
H647 H 0.35537 0.42233 0.34722 0.0
H648 H 0.4301 0.35767 0.17647 0.0
H649 H 0.45624 0.33669 0.21203 0.0
H650 H 0.40552 0.40693 0.16337 0.0
H651 H 0.36916 0.43502 0.17681 0.0
C652 C 0.10651 0.39196 0.72218 0.0
C653 C 0.08715 0.37175 0.75058 0.0
C654 C 0.11753 0.40801 0.80144 0.0
C655 C 0.13903 0.42611 0.77318 0.0
N656 N 0.1554 0.43547 0.70702 0.0
N657 N 0.0742 0.35904 0.81698 0.0
C658 C 0.13375 0.41825 0.7336 0.0
C659 C 0.09253 0.37952 0.79017 0.0
N660 N 0.0985 0.3862 0.68425 0.0
N661 N 0.12086 0.41836 0.83905 0.0
H662 H 0.05411 0.33955 0.80986 0.0
H663 H 0.07978 0.35993 0.84625 0.0
H664 H 0.13991 0.43793 0.84855 0.0
H665 H 0.10346 0.40939 0.86076 0.0
H666 H 0.10837 0.40254 0.66204 0.0
H667 H 0.08 0.3661 0.67478 0.0
H668 H 0.15644 0.42811 0.67821 0.0
H669 H 0.17387 0.45653 0.71403 0.0
C670 C 0.09269 0.1332 0.2288 0.0
C671 C 0.08687 0.14273 0.26783 0.0
C672 C 0.13214 0.09578 0.28742 0.0
C673 C 0.1411 0.08948 0.24834 0.0
N674 N 0.13352 0.10586 0.18175 0.0
N675 N 0.10462 0.13678 0.33428 0.0
C676 C 0.12226 0.10911 0.21896 0.0
C677 C 0.10748 0.12492 0.29719 0.0
N678 N 0.06926 0.14635 0.20118 0.0
N679 N 0.14637 0.07319 0.31516 0.0
H680 H 0.08685 0.15791 0.34262 0.0
H681 H 0.12195 0.12778 0.35626 0.0
H682 H 0.16418 0.05137 0.30909 0.0
H683 H 0.13789 0.07386 0.34365 0.0
H684 H 0.06964 0.13737 0.17281 0.0
H685 H 0.0471 0.16372 0.20732 0.0
H686 H 0.12369 0.12255 0.15966 0.0
H687 H 0.15495 0.08848 0.17337 0.0
C688 C 0.61897 0.15994 0.21618 0.0
C689 C 0.63969 0.13344 0.23724 0.0
C690 C 0.61213 0.15758 0.29629 0.0
C691 C 0.5998 0.18941 0.27632 0.0
N692 N 0.59258 0.22133 0.21584 0.0
N693 N 0.65827 0.10969 0.29942 0.0
C694 C 0.60272 0.19046 0.23571 0.0
C695 C 0.63628 0.13229 0.27785 0.0
N696 N 0.615 0.15592 0.17744 0.0
N697 N 0.60129 0.15203 0.3333 0.0
H698 H 0.6779 0.09201 0.28789 0.0
H699 H 0.65949 0.11109 0.32925 0.0
H700 H 0.58318 0.16997 0.34719 0.0
H701 H 0.60692 0.12782 0.34836 0.0
H702 H 0.59776 0.17261 0.1609 0.0
H703 H 0.62602 0.13344 0.16264 0.0
H704 H 0.59838 0.22506 0.18687 0.0
H705 H 0.58055 0.24429 0.22864 0.0
C706 C 0.34948 0.60797 0.79336 0.0
C707 C 0.31696 0.59716 0.7736 0.0
C708 C 0.34631 0.61535 0.71332 0.0
C709 C 0.37366 0.63526 0.73422 0.0
N710 N 0.39956 0.65164 0.79645 0.0
N711 N 0.28428 0.59038 0.71348 0.0
C712 C 0.37551 0.63119 0.77483 0.0
C713 C 0.31557 0.59996 0.73305 0.0
N714 N 0.35496 0.59658 0.83028 0.0
N715 N 0.34975 0.6114 0.67455 0.0
H716 H 0.26132 0.57874 0.7266 0.0
H717 H 0.28034 0.596 0.68447 0.0
H718 H 0.37257 0.62149 0.6597 0.0
H719 H 0.33232 0.59481 0.65808 0.0
H720 H 0.37957 0.60092 0.84521 0.0
H721 H 0.33633 0.57923 0.84423 0.0
H722 H 0.39831 0.6528 0.82628 0.0
H723 H 0.41886 0.6698 0.78524 0.0
C724 C 0.91403 0.34305 0.25989 0.0
C725 C 0.89847 0.30752 0.26578 0.0
C726 C 0.84011 0.32862 0.23828 0.0
C727 C 0.85613 0.36324 0.22874 0.0
N728 N 0.91058 0.40131 0.2252 0.0
N729 N 0.85086 0.26376 0.2493 0.0
C730 C 0.89386 0.36994 0.23801 0.0
C731 C 0.86298 0.29947 0.25094 0.0
N732 N 0.94731 0.35142 0.27613 0.0
N733 N 0.80263 0.32412 0.23802 0.0
H734 H 0.8673 0.24149 0.25769 0.0
H735 H 0.82631 0.25617 0.23572 0.0
H736 H 0.78423 0.34568 0.23281 0.0
H737 H 0.78974 0.30026 0.24793 0.0
H738 H 0.95838 0.37795 0.27644 0.0
H739 H 0.96288 0.33194 0.29117 0.0
H740 H 0.93877 0.40625 0.22808 0.0
H741 H 0.89666 0.42108 0.20893 0.0
C742 C 0.16068 0.89643 0.79112 0.0
C743 C 0.193 0.90822 0.77194 0.0
C744 C 0.16562 0.88655 0.71138 0.0
C745 C 0.13827 0.86685 0.73214 0.0
N746 N 0.11387 0.84933 0.79422 0.0
N747 N 0.22704 0.91286 0.71264 0.0
C748 C 0.13625 0.87135 0.77263 0.0
C749 C 0.19547 0.90357 0.73155 0.0
N750 N 0.15397 0.90848 0.82754 0.0
N751 N 0.16305 0.88893 0.67237 0.0
H752 H 0.2495 0.92554 0.72589 0.0
H753 H 0.23186 0.9057 0.68415 0.0
H754 H 0.14104 0.87752 0.65701 0.0
H755 H 0.18041 0.90544 0.65595 0.0
H756 H 0.12935 0.90314 0.84185 0.0
H757 H 0.17139 0.92718 0.84151 0.0
H758 H 0.11447 0.84931 0.8241 0.0
H759 H 0.09775 0.82818 0.78288 0.0
C760 C 0.64472 0.30171 0.77121 0.0
C761 C 0.60889 0.30947 0.75707 0.0
C762 C 0.61331 0.37169 0.78553 0.0
C763 C 0.65118 0.36524 0.79423 0.0
N764 N 0.70496 0.32697 0.78351 0.0
N765 N 0.55945 0.35288 0.74807 0.0
C766 C 0.66743 0.33098 0.78386 0.0
C767 C 0.59307 0.34477 0.76364 0.0
N768 N 0.65727 0.26614 0.77221 0.0
N769 N 0.59657 0.40289 0.7988 0.0
H770 H 0.54389 0.33332 0.73308 0.0
H771 H 0.54804 0.37926 0.74831 0.0
H772 H 0.61068 0.42272 0.81487 0.0
H773 H 0.56833 0.40768 0.79635 0.0
H774 H 0.68215 0.25875 0.78524 0.0
H775 H 0.64095 0.24373 0.76391 0.0
H776 H 0.71797 0.3035 0.77277 0.0
H777 H 0.72315 0.3486 0.78931 0.0
C778 C 0.19604 0.6032 0.29025 0.0
C779 C 0.19486 0.5982 0.2499 0.0
C780 C 0.13832 0.63534 0.24605 0.0
C781 C 0.13978 0.6412 0.28643 0.0
N782 N 0.16207 0.6195 0.34763 0.0
N783 N 0.15772 0.59715 0.19264 0.0
C784 C 0.16599 0.62121 0.30874 0.0
C785 C 0.16324 0.60984 0.22911 0.0
N786 N 0.22666 0.59321 0.3107 0.0
N787 N 0.11582 0.65617 0.22314 0.0
H788 H 0.17562 0.57824 0.17985 0.0
H789 H 0.13363 0.60217 0.17705 0.0
H790 H 0.09798 0.67636 0.23329 0.0
H791 H 0.11729 0.65572 0.1933 0.0
H792 H 0.2308 0.60058 0.33929 0.0
H793 H 0.24896 0.57942 0.2986 0.0
H794 H 0.17854 0.60297 0.36514 0.0
H795 H 0.13971 0.63148 0.36174 0.0
C796 C 0.90977 0.19549 0.7868 0.0
C797 C 0.91308 0.19372 0.74626 0.0
C798 C 0.87768 0.13593 0.74536 0.0
C799 C 0.87385 0.13777 0.78595 0.0
N800 N 0.89754 0.16194 0.84559 0.0
N801 N 0.91265 0.15551 0.68984 0.0
C802 C 0.8939 0.16507 0.80672 0.0
C803 C 0.90148 0.16138 0.7267 0.0
N804 N 0.91913 0.22694 0.80616 0.0
N805 N 0.85636 0.11252 0.72393 0.0
H806 H 0.9304 0.17368 0.67578 0.0
H807 H 0.90765 0.13096 0.6751 0.0
H808 H 0.83708 0.09447 0.73542 0.0
H809 H 0.85535 0.11347 0.69407 0.0
H810 H 0.91289 0.23117 0.83497 0.0
H811 H 0.9309 0.24986 0.79306 0.0
H812 H 0.91432 0.17927 0.86195 0.0
H813 H 0.88694 0.13947 0.8607 0.0
C814 C 0.34876 0.8987 0.22765 0.0
C815 C 0.31641 0.91066 0.24676 0.0
C816 C 0.34456 0.89111 0.30771 0.0
C817 C 0.37221 0.87131 0.2874 0.0
N818 N 0.39715 0.85306 0.22577 0.0
N819 N 0.28262 0.91616 0.30612 0.0
C820 C 0.37397 0.8748 0.24678 0.0
C821 C 0.31427 0.90699 0.28727 0.0
N822 N 0.35502 0.90978 0.19082 0.0
N823 N 0.3473 0.89472 0.34661 0.0
H824 H 0.25972 0.92772 0.29261 0.0
H825 H 0.27815 0.90982 0.33486 0.0
H826 H 0.36964 0.88426 0.36217 0.0
H827 H 0.32974 0.9114 0.36264 0.0
H828 H 0.37963 0.90452 0.17648 0.0
H829 H 0.33721 0.92774 0.17638 0.0
H830 H 0.39633 0.85196 0.19592 0.0
H831 H 0.41457 0.83333 0.23769 0.0
C832 C 0.4044 0.81272 0.78865 0.0
C833 C 0.40717 0.81391 0.74803 0.0
C834 C 0.37156 0.87152 0.74688 0.0
C835 C 0.3686 0.87044 0.7876 0.0
N836 N 0.39353 0.84737 0.84709 0.0
N837 N 0.40582 0.85139 0.69111 0.0
C838 C 0.38898 0.84349 0.8084 0.0
C839 C 0.39511 0.84587 0.72817 0.0
N840 N 0.41389 0.78153 0.80832 0.0
N841 N 0.34981 0.89449 0.72545 0.0
H842 H 0.42359 0.83327 0.67698 0.0
H843 H 0.4005 0.87575 0.6762 0.0
H844 H 0.33077 0.91283 0.73691 0.0
H845 H 0.34819 0.89286 0.69564 0.0
H846 H 0.40822 0.77787 0.83734 0.0
H847 H 0.42498 0.75819 0.79532 0.0
H848 H 0.41063 0.83029 0.86335 0.0
H849 H 0.38332 0.87012 0.86207 0.0
C850 C 0.65741 0.39967 0.2316 0.0
C851 C 0.69019 0.41134 0.25037 0.0
C852 C 0.66488 0.38786 0.31083 0.0
C853 C 0.6371 0.36824 0.2902 0.0
N854 N 0.61046 0.35268 0.22812 0.0
N855 N 0.72616 0.41434 0.30889 0.0
C856 C 0.63369 0.37391 0.24989 0.0
C857 C 0.69401 0.4055 0.29048 0.0
N858 N 0.64945 0.41269 0.19576 0.0
N859 N 0.6633 0.38979 0.34991 0.0
H860 H 0.74816 0.42742 0.29547 0.0
H861 H 0.73191 0.40629 0.33698 0.0
H862 H 0.64154 0.37848 0.36548 0.0
H863 H 0.68115 0.40605 0.36626 0.0
H864 H 0.62441 0.40761 0.18188 0.0
H865 H 0.66626 0.43192 0.18197 0.0
H866 H 0.6104 0.35332 0.19824 0.0
H867 H 0.59396 0.33174 0.23901 0.0
C868 C 0.1005 0.69775 0.79401 0.0
C869 C 0.09374 0.69328 0.75417 0.0
C870 C 0.13144 0.63711 0.75379 0.0
C871 C 0.13886 0.64154 0.79373 0.0
N872 N 0.11941 0.6686 0.85359 0.0
N873 N 0.0905 0.65166 0.70068 0.0
C874 C 0.11962 0.66941 0.81444 0.0
C875 C 0.10468 0.66014 0.73595 0.0
N876 N 0.09089 0.72982 0.81195 0.0
N877 N 0.1521 0.61381 0.73172 0.0
H878 H 0.07092 0.66843 0.6872 0.0
H879 H 0.09511 0.62642 0.68714 0.0
H880 H 0.17406 0.59821 0.74202 0.0
H881 H 0.15 0.61296 0.70191 0.0
H882 H 0.09943 0.73643 0.83969 0.0
H883 H 0.07597 0.75067 0.7984 0.0
H884 H 0.10351 0.68644 0.87014 0.0
H885 H 0.13191 0.64745 0.86925 0.0
C886 C 0.87541 0.13225 0.25051 0.0
C887 C 0.87337 0.13712 0.29106 0.0
C888 C 0.81619 0.10028 0.29196 0.0
C889 C 0.81816 0.09614 0.25155 0.0
N890 N 0.85662 0.0954 0.19567 0.0
N891 N 0.84929 0.11433 0.35087 0.0
C892 C 0.85047 0.1075 0.23219 0.0
C893 C 0.84625 0.11714 0.31193 0.0
N894 N 0.89833 0.15344 0.22862 0.0
N895 N 0.78488 0.09054 0.31108 0.0
H896 H 0.87165 0.12534 0.36601 0.0
H897 H 0.83203 0.09776 0.36735 0.0
H898 H 0.76255 0.0776 0.29782 0.0
H899 H 0.78027 0.09731 0.33971 0.0
H900 H 0.89727 0.15353 0.19875 0.0
H901 H 0.91592 0.17358 0.23944 0.0
H902 H 0.88122 0.10018 0.18113 0.0
H903 H 0.83864 0.07714 0.18183 0.0
C904 C 0.4009 0.66183 0.29595 0.0
C905 C 0.41207 0.6944 0.27676 0.0
C906 C 0.39211 0.66624 0.21607 0.0
C907 C 0.37224 0.63882 0.2366 0.0
N908 N 0.35605 0.61277 0.29855 0.0
N909 N 0.41744 0.72807 0.21721 0.0
C910 C 0.37681 0.63652 0.27717 0.0
C911 C 0.40824 0.6965 0.23627 0.0
N912 N 0.41272 0.65564 0.33263 0.0
N913 N 0.39551 0.66331 0.1772 0.0
H914 H 0.42964 0.75077 0.23049 0.0
H915 H 0.41077 0.73257 0.18849 0.0
H916 H 0.385 0.64083 0.16189 0.0
H917 H 0.41212 0.6808 0.16101 0.0
H918 H 0.40812 0.63091 0.34709 0.0
H919 H 0.43063 0.67376 0.34677 0.0
H920 H 0.35555 0.61352 0.32842 0.0
H921 H 0.33677 0.59453 0.28716 0.0
C922 C 0.81707 0.40827 0.73459 0.0
C923 C 0.81914 0.41108 0.7752 0.0
C924 C 0.87534 0.3732 0.77528 0.0
C925 C 0.87361 0.37052 0.73456 0.0
N926 N 0.85007 0.39604 0.67552 0.0
N927 N 0.85758 0.40801 0.8316 0.0
C928 C 0.84688 0.39171 0.71427 0.0
C929 C 0.85096 0.39767 0.79452 0.0
N930 N 0.78589 0.4189 0.71543 0.0
N931 N 0.8977 0.35037 0.7962 0.0
H932 H 0.84053 0.42653 0.84612 0.0
H933 H 0.88193 0.40156 0.84616 0.0
H934 H 0.91495 0.33059 0.78422 0.0
H935 H 0.89642 0.34858 0.826 0.0
H936 H 0.78145 0.41339 0.68644 0.0
H937 H 0.76326 0.43089 0.72881 0.0
H938 H 0.83328 0.41372 0.65962 0.0
H939 H 0.8721 0.38503 0.66009 0.0
C940 C 0.10049 0.81961 0.22645 0.0
C941 C 0.09749 0.82018 0.26702 0.0
C942 C 0.13404 0.87718 0.26975 0.0
C943 C 0.13803 0.87629 0.22914 0.0
N944 N 0.11377 0.85458 0.16875 0.0
N945 N 0.09838 0.8569 0.32448 0.0
C946 C 0.11729 0.85014 0.20748 0.0
C947 C 0.10963 0.85177 0.28753 0.0
N948 N 0.08967 0.78921 0.20614 0.0
N949 N 0.15564 0.89963 0.29199 0.0
H950 H 0.08013 0.83876 0.3379 0.0
H951 H 0.1038 0.88094 0.33996 0.0
H952 H 0.17503 0.91798 0.2812 0.0
H953 H 0.15663 0.89766 0.32179 0.0
H954 H 0.09522 0.78569 0.17709 0.0
H955 H 0.07694 0.76649 0.21867 0.0
H956 H 0.09657 0.83823 0.15178 0.0
H957 H 0.12503 0.87718 0.1544 0.0
C958 C 0.66317 0.11327 0.79163 0.0
C959 C 0.69544 0.10197 0.77208 0.0
C960 C 0.66648 0.12158 0.71164 0.0
C961 C 0.6391 0.14124 0.73245 0.0
N962 N 0.61449 0.15839 0.79476 0.0
N963 N 0.72844 0.09652 0.71229 0.0
C964 C 0.63762 0.13719 0.77309 0.0
C965 C 0.69705 0.10569 0.73158 0.0
N966 N 0.65746 0.1017 0.82839 0.0
N967 N 0.66321 0.11813 0.67277 0.0
H968 H 0.75135 0.08461 0.72549 0.0
H969 H 0.73261 0.10301 0.68353 0.0
H970 H 0.64056 0.12852 0.65764 0.0
H971 H 0.68064 0.10165 0.65638 0.0
H972 H 0.63292 0.10642 0.84307 0.0
H973 H 0.67571 0.08388 0.84241 0.0
H974 H 0.61582 0.15916 0.82461 0.0
H975 H 0.59641 0.17792 0.78361 0.0
C976 C 0.72654 0.27764 0.1394 0.0
C977 C 0.74971 0.29183 0.11007 0.0
C978 C 0.74842 0.23222 0.07725 0.0
C979 C 0.72462 0.21871 0.1061 0.0
N980 N 0.6821 0.23115 0.1574 0.0
N981 N 0.7759 0.28582 0.04697 0.0
C982 C 0.71027 0.24258 0.13436 0.0
C983 C 0.75842 0.27012 0.07752 0.0
N984 N 0.72281 0.29574 0.17366 0.0
N985 N 0.76247 0.20853 0.05062 0.0
H986 H 0.7832 0.31369 0.04638 0.0
H987 H 0.78031 0.27214 0.02112 0.0
H988 H 0.75359 0.18126 0.04834 0.0
H989 H 0.7837 0.21552 0.03196 0.0
H990 H 0.70934 0.28437 0.19719 0.0
H991 H 0.73657 0.32009 0.18056 0.0
H992 H 0.66835 0.24874 0.17619 0.0
H993 H 0.67 0.20517 0.15482 0.0
C994 C 0.26622 0.69426 0.617 0.0
C995 C 0.29197 0.71631 0.59731 0.0
C996 C 0.24424 0.76277 0.58635 0.0
C997 C 0.22298 0.74587 0.61552 0.0
N998 N 0.21508 0.69545 0.66074 0.0
N999 N 0.30454 0.76812 0.55675 0.0
C1000 C 0.23369 0.71106 0.63082 0.0
C1001 C 0.28032 0.74925 0.57924 0.0
N1002 N 0.2733 0.65781 0.62344 0.0
N1003 N 0.22985 0.7914 0.56567 0.0
H1004 H 0.33007 0.75694 0.5494 0.0
H1005 H 0.29968 0.79452 0.54609 0.0
H1006 H 0.20313 0.80123 0.57005 0.0
H1007 H 0.24293 0.80307 0.54209 0.0
H1008 H 0.25396 0.63994 0.63535 0.0
H1009 H 0.29629 0.64456 0.61207 0.0
H1010 H 0.22457 0.67215 0.67524 0.0
H1011 H 0.19226 0.70741 0.67382 0.0
C1012 C 0.81694 0.24568 0.90866 0.0
C1013 C 0.79274 0.21948 0.92503 0.0
C1014 C 0.74831 0.26838 0.93878 0.0
C1015 C 0.7677 0.29141 0.91319 0.0
N1016 N 0.82171 0.30371 0.87477 0.0
N1017 N 0.7391 0.20628 0.96269 0.0
C1018 C 0.80297 0.28109 0.8993 0.0
C1019 C 0.75984 0.23124 0.94305 0.0
N1020 N 0.85271 0.23645 0.90124 0.0
N1021 N 0.71886 0.28219 0.95846 0.0
H1022 H 0.74915 0.18007 0.96904 0.0
H1023 H 0.71258 0.21142 0.97267 0.0
H1024 H 0.71047 0.30963 0.95567 0.0
H1025 H 0.70495 0.26774 0.97974 0.0
H1026 H 0.87234 0.25538 0.89193 0.0
H1027 H 0.86391 0.21103 0.90884 0.0
H1028 H 0.84508 0.29548 0.85975 0.0
H1029 H 0.81281 0.33015 0.86755 0.0
C1030 C 0.26908 0.81277 0.40759 0.0
C1031 C 0.29415 0.78973 0.42721 0.0
C1032 C 0.24563 0.74373 0.43549 0.0
C1033 C 0.22506 0.76177 0.40635 0.0
N1034 N 0.21804 0.81398 0.36313 0.0
N1035 N 0.30547 0.73651 0.46624 0.0
C1036 C 0.23632 0.79701 0.39266 0.0
C1037 C 0.28177 0.75649 0.44394 0.0
N1038 N 0.27728 0.84911 0.402 0.0
N1039 N 0.23055 0.71463 0.45477 0.0
H1040 H 0.33116 0.74698 0.47435 0.0
H1041 H 0.30005 0.7099 0.47593 0.0
H1042 H 0.20377 0.70533 0.44936 0.0
H1043 H 0.24312 0.70203 0.47826 0.0
H1044 H 0.2586 0.86783 0.3902 0.0
H1045 H 0.30081 0.86133 0.41371 0.0
H1046 H 0.22793 0.83761 0.34962 0.0
H1047 H 0.19491 0.803 0.34951 0.0
C1048 C 0.2404 0.74482 0.95415 0.0
C1049 C 0.26004 0.71853 0.93233 0.0
C1050 C 0.30539 0.76489 0.9142 0.0
C1051 C 0.28148 0.79263 0.92866 0.0
N1052 N 0.22975 0.80958 0.96809 0.0
N1053 N 0.32157 0.70012 0.91513 0.0
C1054 C 0.25032 0.7827 0.95104 0.0
C1055 C 0.29606 0.72741 0.91996 0.0
N1056 N 0.21427 0.73313 0.97945 0.0
N1057 N 0.33517 0.77395 0.89221 0.0
H1058 H 0.31609 0.67284 0.92269 0.0
H1059 H 0.34919 0.70525 0.90892 0.0
H1060 H 0.34322 0.80098 0.88669 0.0
H1061 H 0.35041 0.75446 0.87704 0.0
H1062 H 0.20031 0.7505 0.9982 0.0
H1063 H 0.21005 0.70514 0.98496 0.0
H1064 H 0.20431 0.80496 0.98093 0.0
H1065 H 0.23839 0.83696 0.96901 0.0
C1066 C 0.77614 0.29266 0.39992 0.0
C1067 C 0.78576 0.25571 0.40924 0.0
C1068 C 0.72746 0.24759 0.44291 0.0
C1069 C 0.71627 0.28261 0.42926 0.0
N1070 N 0.73525 0.34414 0.41247 0.0
N1071 N 0.77661 0.20219 0.44887 0.0
C1072 C 0.7426 0.30723 0.41405 0.0
C1073 C 0.76342 0.23458 0.43418 0.0
N1074 N 0.79728 0.31281 0.37519 0.0
N1075 N 0.70277 0.22651 0.46258 0.0
H1076 H 0.8032 0.19267 0.44307 0.0
H1077 H 0.76256 0.18612 0.46872 0.0
H1078 H 0.6775 0.23727 0.47144 0.0
H1079 H 0.70699 0.19898 0.46985 0.0
H1080 H 0.78894 0.33806 0.36382 0.0
H1081 H 0.82195 0.30328 0.36362 0.0
H1082 H 0.75452 0.36372 0.40379 0.0
H1083 H 0.71167 0.35556 0.42464 0.0
C1084 C 0.22467 0.73684 0.13492 0.0
C1085 C 0.25601 0.72464 0.11401 0.0
C1086 C 0.2548 0.78122 0.07589 0.0
C1087 C 0.22439 0.79351 0.09774 0.0
N1088 N 0.17177 0.7774 0.13614 0.0
N1089 N 0.29374 0.72971 0.05748 0.0
C1090 C 0.2061 0.76907 0.12275 0.0
C1091 C 0.26873 0.74502 0.08197 0.0
N1092 N 0.21454 0.71995 0.16836 0.0
N1093 N 0.2711 0.80482 0.05063 0.0
H1094 H 0.30403 0.70304 0.06123 0.0
H1095 H 0.30162 0.742 0.0318 0.0
H1096 H 0.25986 0.83067 0.04444 0.0
H1097 H 0.29589 0.79923 0.03681 0.0
H1098 H 0.19429 0.73046 0.18646 0.0
H1099 H 0.22873 0.69787 0.18054 0.0
H1100 H 0.15605 0.75897 0.15216 0.0
H1101 H 0.1573 0.80074 0.12732 0.0
C1102 C 0.73504 0.28902 0.63204 0.0
C1103 C 0.72307 0.25663 0.61253 0.0
C1104 C 0.78069 0.25489 0.5764 0.0
C1105 C 0.79294 0.2861 0.59728 0.0
N1106 N 0.77706 0.34089 0.6326 0.0
N1107 N 0.72949 0.21468 0.55934 0.0
C1108 C 0.76819 0.30616 0.62045 0.0
C1109 C 0.74427 0.24156 0.58223 0.0
N1110 N 0.71696 0.30153 0.6639 0.0
N1111 N 0.80455 0.23749 0.5522 0.0
H1112 H 0.7026 0.20496 0.5628 0.0
H1113 H 0.74261 0.20415 0.53523 0.0
H1114 H 0.83041 0.24856 0.54591 0.0
H1115 H 0.79921 0.21216 0.53921 0.0
H1116 H 0.72722 0.32248 0.68145 0.0
H1117 H 0.69377 0.28881 0.67543 0.0
H1118 H 0.75858 0.35791 0.64706 0.0
H1119 H 0.80116 0.35422 0.62421 0.0
C1120 C 0.79213 0.01915 1.00106 0.0
C1121 C 0.76554 0.02349 0.97154 0.0
C1122 C 0.71573 0.02386 0.01868 0.0
C1123 C 0.74255 0.02311 0.04833 0.0
N1124 N 0.80397 0.00745 0.06868 0.0
N1125 N 0.70269 0.01689 0.95057 0.0
C1126 C 0.78002 0.01591 0.03966 0.0
C1127 C 0.72744 0.02078 0.97993 0.0
N1128 N 0.82881 0.02081 0.99244 0.0
N1129 N 0.67961 0.03028 0.02744 0.0
H1130 H 0.7111 0.0149 0.92204 0.0
H1131 H 0.67464 0.01226 0.95467 0.0
H1132 H 0.67029 0.03203 0.05564 0.0
H1133 H 0.6593 0.03549 1.00694 0.0
H1134 H 0.84964 0.02227 0.01304 0.0
H1135 H 0.83831 0.02227 0.96429 0.0
H1136 H 0.8312 0.99942 0.06425 0.0
H1137 H 0.79534 1.00524 0.09712 0.0
C1138 C 0.50098 0.73816 0.48548 0.0
C1139 C 0.48931 0.77467 0.47734 0.0
C1140 C 0.48998 0.7889 0.54598 0.0
C1141 C 0.49214 0.75063 0.55382 0.0
N1142 N 0.50444 0.68883 0.53266 0.0
N1143 N 0.47604 0.8363 0.49879 0.0
C1144 C 0.50017 0.72535 0.52407 0.0
C1145 C 0.48584 0.80084 0.50731 0.0
N1146 N 0.51148 0.7157 0.45602 0.0
N1147 N 0.49023 0.81332 0.57581 0.0
H1148 H 0.4738 0.84578 0.47063 0.0
H1149 H 0.4689 0.85587 0.51933 0.0
H1150 H 0.493 0.80456 0.60421 0.0
H1151 H 0.49099 0.84184 0.5724 0.0
H1152 H 0.5225 0.68943 0.45986 0.0
H1153 H 0.51199 0.72484 0.42764 0.0
H1154 H 0.50611 0.66801 0.51217 0.0
H1155 H 0.50532 0.67933 0.5609 0.0
C1156 C 0.79237 0.50487 0.02462 0.0
C1157 C 0.76325 0.50293 0.05151 0.0
C1158 C 0.71764 0.50622 0.99942 0.0
C1159 C 0.74666 0.50274 0.97256 0.0
N1160 N 0.81054 0.51145 0.95773 0.0
N1161 N 0.6998 0.51444 0.06623 0.0
C1162 C 0.78376 0.50698 0.98472 0.0
C1163 C 0.72636 0.50853 0.0393 0.0
N1164 N 0.82797 0.50196 0.03722 0.0
N1165 N 0.68194 0.50457 0.98687 0.0
H1166 H 0.70621 0.51595 0.09542 0.0
H1167 H 0.67249 0.52082 0.05971 0.0
H1168 H 0.67515 0.50414 0.95776 0.0
H1169 H 0.65927 0.50273 1.00496 0.0
H1170 H 0.85056 0.49895 0.01918 0.0
H1171 H 0.83473 0.5017 0.06634 0.0
H1172 H 0.83809 0.51679 0.9642 0.0
H1173 H 0.80422 0.51284 0.92851 0.0
C1174 C 0.01446 0.72281 0.49443 0.0
C1175 C 0.0222 0.75016 0.46661 0.0
C1176 C 0.02738 0.79727 0.51688 0.0
C1177 C 0.0233 0.76927 0.54489 0.0
N1178 N 1.00199 0.70859 0.56136 0.0
N1179 N 0.02403 0.81424 0.44943 0.0
C1180 C 0.01272 0.7331 0.53385 0.0
C1181 C 0.02417 0.78783 0.47735 0.0
N1182 N 0.01125 0.6868 0.48329 0.0
N1183 N 0.03671 0.8322 0.52808 0.0
H1184 H 0.02169 0.8075 0.42039 0.0
H1185 H 0.02287 0.84244 0.45499 0.0
H1186 H 0.03811 0.84001 0.55686 0.0
H1187 H 0.04442 0.85297 0.50914 0.0
H1188 H 0.00994 0.66473 0.50231 0.0
H1189 H 0.01108 0.67894 0.4545 0.0
H1190 H 0.99147 0.68248 0.55537 0.0
H1191 H 1.00068 0.71583 0.59031 0.0
C1192 C 0.21771 0.99869 0.01908 0.0
C1193 C 0.24548 0.99567 0.04762 0.0
C1194 C 0.2935 0.99693 0.9984 0.0
C1195 C 0.26561 0.99471 0.96989 0.0
N1196 N 0.20281 1.00561 0.95123 0.0
N1197 N 0.3087 1.00416 0.06616 0.0
C1198 C 0.22817 1.00029 0.97976 0.0
C1199 C 0.28312 0.9995 0.03769 0.0
N1200 N 0.18149 0.99751 0.02965 0.0
N1201 N 0.32963 0.99407 0.98787 0.0
H1202 H 0.30115 0.00594 0.09497 0.0
H1203 H 0.33653 0.00925 0.06128 0.0
H1204 H 0.33766 0.99362 0.95917 0.0
H1205 H 0.35142 0.99131 1.00718 0.0
H1206 H 0.15959 0.99545 1.01038 0.0
H1207 H 0.17348 0.99777 0.05836 0.0
H1208 H 0.17521 0.01192 0.95603 0.0
H1209 H 0.21042 0.00664 0.9224 0.0
C1210 C 0.51263 0.28347 0.54112 0.0
C1211 C 0.51477 0.24588 0.55195 0.0
C1212 C 0.51011 0.22758 0.48437 0.0
C1213 C 0.51695 0.26468 0.47371 0.0
N1214 N 0.52018 0.32894 0.49044 0.0
N1215 N 0.51073 0.18172 0.53539 0.0
C1216 C 0.51581 0.29309 0.50164 0.0
C1217 C 0.51098 0.21776 0.52397 0.0
N1218 N 0.50879 0.30969 0.56896 0.0
N1219 N 0.50409 0.20188 0.45636 0.0
H1220 H 0.5099 0.17428 0.56429 0.0
H1221 H 0.51216 0.15939 0.51668 0.0
H1222 H 0.50353 0.20894 0.42733 0.0
H1223 H 0.49681 0.1746 0.46172 0.0
H1224 H 0.50484 0.33763 0.56343 0.0
H1225 H 0.50647 0.3027 0.5979 0.0
H1226 H 0.52384 0.35087 0.50935 0.0
H1227 H 0.52107 0.33659 0.46161 0.0
C1228 C 0.22888 0.51827 0.04232 0.0
C1229 C 0.26685 0.51969 0.05197 0.0
C1230 C 0.2828 0.51338 0.98406 0.0
C1231 C 0.24556 0.52091 0.97437 0.0
N1232 N 0.18201 0.5261 0.99282 0.0
N1233 N 0.33034 0.51398 0.03362 0.0
C1234 C 0.21807 0.521 1.0031 0.0
C1235 C 0.29396 0.51479 0.02329 0.0
N1236 N 0.20348 0.51549 0.07098 0.0
N1237 N 0.30738 0.50621 0.95545 0.0
H1238 H 0.3388 0.51357 0.06227 0.0
H1239 H 0.35203 0.51459 0.01419 0.0
H1240 H 0.29933 0.50526 0.92667 0.0
H1241 H 0.33463 0.49835 0.96018 0.0
H1242 H 0.17531 0.51206 0.06629 0.0
H1243 H 0.21127 0.5135 0.09977 0.0
H1244 H 0.16082 0.53071 0.01225 0.0
H1245 H 0.17347 0.52664 0.96419 0.0
C1246 C 0.9962 0.28613 0.47997 0.0
C1247 C 0.99492 0.24828 0.46991 0.0
C1248 C 1.00031 0.23149 0.53786 0.0
C1249 C 0.99277 0.26866 0.54781 0.0
N1250 N 0.98804 0.33246 0.5298 0.0
N1251 N 1.00052 0.18459 0.48776 0.0
C1252 C 0.99307 0.29649 0.51928 0.0
C1253 C 0.99948 0.22084 0.49846 0.0
N1254 N 0.9992 0.31186 0.45157 0.0
N1255 N 0.00698 0.2065 0.56634 0.0
H1256 H 1.00142 0.17659 0.45901 0.0
H1257 H 0.99969 0.16261 0.50691 0.0
H1258 H 0.00751 0.21413 0.59522 0.0
H1259 H 0.01479 0.17927 0.56149 0.0
H1260 H 1.00248 0.34 0.45649 0.0
H1261 H 1.00149 0.30434 0.42276 0.0
H1262 H 0.98379 0.35393 0.5105 0.0
H1263 H 0.98723 0.34068 0.55848 0.0
loop_
_geom_bond_atom_site_label_1
_geom_bond_atom_site_label_2
_geom_bond_distance
_geom_bond_site_symmetry_2
_ccdc_geom_bond_type
Co0 O3 1.970 . S
Co0 N17 1.989 . S
Co0 O25 1.967 . S
Co0 O32 1.920 . S
Co1 O4 1.966 . S
Co1 N10 2.022 1_545 S
Co1 N18 1.993 . S
Co1 O26 1.941 . S
C2 O3 1.258 . S
C2 O4 1.263 . S
O3 Co0 1.970 . S
O3 C2 1.258 . S
O4 Co1 1.966 . S
O4 C2 1.263 . S
C5 O6 1.235 . S
C5 O32 1.289 . S
O6 C5 1.235 . S
C7 C9 1.400 . S
C7 N10 1.351 . S
C7 C12 1.501 1_565 S
C8 C9 1.387 . S
C8 N11 1.341 . S
C9 C7 1.400 . S
C9 C8 1.387 . S
N10 Co1 2.022 1_565 S
N10 C7 1.351 . S
N10 N11 1.365 . S
N11 C8 1.341 . S
N11 N10 1.365 . S
N11 H31 0.862 . S
C12 C7 1.501 1_545 S
C12 H13 0.961 . S
C12 H14 0.961 . S
C12 H15 0.959 . S
H13 C12 0.961 . S
H14 C12 0.961 . S
H15 C12 0.959 . S
C16 N17 1.342 . S
C16 C20 1.401 . S
C16 C21 1.499 . S
N17 Co0 1.989 . S
N17 C16 1.342 . S
N17 N18 1.388 . S
N18 Co1 1.993 . S
N18 N17 1.388 . S
N18 C19 1.346 . S
C19 N18 1.346 . S
C19 C20 1.396 . S
C19 C29 1.510 1_545 S
C20 C16 1.401 . S
C20 C19 1.396 . S
C21 C16 1.499 . S
C21 H22 0.959 . S
C21 H23 0.960 . S
C21 H24 0.961 . S
H22 C21 0.959 . S
H23 C21 0.960 . S
H24 C21 0.961 . S
O25 Co0 1.967 . S
O25 C33 1.258 . S
O26 Co1 1.941 . S
O26 C33 1.266 . S
H27 C29 0.959 . S
H28 C29 0.961 . S
C29 C19 1.510 1_565 S
C29 H27 0.959 . S
C29 H28 0.961 . S
C29 H30 0.960 . S
H30 C29 0.960 . S
H31 N11 0.862 . S
O32 Co0 1.920 . S
O32 C5 1.289 . S
C33 O25 1.258 . S
C33 O26 1.266 . S
Co34 O37 1.970 . S
Co34 N51 1.989 . S
Co34 O59 1.967 . S
Co34 O66 1.920 . S
Co35 O38 1.966 . S
Co35 N44 2.022 . S
Co35 N52 1.993 . S
Co35 O60 1.941 . S
C36 O37 1.258 . S
C36 O38 1.263 . S
O37 Co34 1.970 . S
O37 C36 1.258 . S
O38 Co35 1.966 . S
O38 C36 1.263 . S
C39 O40 1.235 . S
C39 O66 1.289 . S
O40 C39 1.235 . S
C41 C43 1.400 . S
C41 N44 1.351 . S
C41 C46 1.501 . S
C42 C43 1.387 . S
C42 N45 1.341 . S
C43 C41 1.400 . S
C43 C42 1.387 . S
N44 Co35 2.022 . S
N44 C41 1.351 . S
N44 N45 1.365 . S
N45 C42 1.341 . S
N45 N44 1.365 . S
N45 H65 0.862 . S
C46 C41 1.501 . S
C46 H47 0.961 . S
C46 H48 0.961 . S
C46 H49 0.960 . S
H47 C46 0.961 . S
H48 C46 0.961 . S
H49 C46 0.960 . S
C50 N51 1.342 . S
C50 C54 1.401 . S
C50 C55 1.499 . S
N51 Co34 1.989 . S
N51 C50 1.342 . S
N51 N52 1.388 . S
N52 Co35 1.993 . S
N52 N51 1.388 . S
N52 C53 1.346 . S
C53 N52 1.346 . S
C53 C54 1.396 . S
C53 C63 1.510 . S
C54 C50 1.401 . S
C54 C53 1.396 . S
C55 C50 1.499 . S
C55 H56 0.959 . S
C55 H57 0.960 . S
C55 H58 0.961 . S
H56 C55 0.959 . S
H57 C55 0.960 . S
H58 C55 0.961 . S
O59 Co34 1.967 . S
O59 C67 1.258 . S
O60 Co35 1.941 . S
O60 C67 1.266 . S
H61 C63 0.959 . S
H62 C63 0.961 . S
C63 C53 1.510 . S
C63 H61 0.959 . S
C63 H62 0.961 . S
C63 H64 0.960 . S
H64 C63 0.960 . S
H65 N45 0.862 . S
O66 Co34 1.920 . S
O66 C39 1.289 . S
C67 O59 1.258 . S
C67 O60 1.266 . S
Co68 O71 1.970 . S
Co68 N85 1.989 . S
Co68 O93 1.967 . S
Co68 O100 1.920 . S
Co69 O72 1.966 . S
Co69 N78 2.022 . S
Co69 N86 1.993 . S
Co69 O94 1.941 . S
C70 O71 1.258 . S
C70 O72 1.263 . S
O71 Co68 1.970 . S
O71 C70 1.258 . S
O72 Co69 1.966 . S
O72 C70 1.263 . S
C73 O74 1.235 . S
C73 O100 1.289 . S
O74 C73 1.235 . S
C75 C77 1.400 . S
C75 N78 1.351 . S
C75 C80 1.501 . S
C76 C77 1.387 . S
C76 N79 1.341 . S
C77 C75 1.400 . S
C77 C76 1.387 . S
N78 Co69 2.022 . S
N78 C75 1.351 . S
N78 N79 1.365 . S
N79 C76 1.341 . S
N79 N78 1.365 . S
N79 H99 0.862 . S
C80 C75 1.501 . S
C80 H81 0.961 . S
C80 H82 0.961 . S
C80 H83 0.960 . S
H81 C80 0.961 . S
H82 C80 0.961 . S
H83 C80 0.960 . S
C84 N85 1.342 . S
C84 C88 1.401 . S
C84 C89 1.499 . S
N85 Co68 1.989 . S
N85 C84 1.342 . S
N85 N86 1.388 . S
N86 Co69 1.993 . S
N86 N85 1.388 . S
N86 C87 1.346 . S
C87 N86 1.346 . S
C87 C88 1.396 . S
C87 C97 1.510 . S
C88 C84 1.401 . S
C88 C87 1.396 . S
C89 C84 1.499 . S
C89 H90 0.959 . S
C89 H91 0.960 . S
C89 H92 0.961 . S
H90 C89 0.959 . S
H91 C89 0.960 . S
H92 C89 0.961 . S
O93 Co68 1.967 . S
O93 C101 1.258 . S
O94 Co69 1.941 . S
O94 C101 1.266 . S
H95 C97 0.959 . S
H96 C97 0.961 . S
C97 C87 1.510 . S
C97 H95 0.959 . S
C97 H96 0.961 . S
C97 H98 0.960 . S
H98 C97 0.960 . S
H99 N79 0.862 . S
O100 Co68 1.920 . S
O100 C73 1.289 . S
C101 O93 1.258 . S
C101 O94 1.266 . S
Co102 O105 1.970 . S
Co102 N119 1.989 . S
Co102 O127 1.967 . S
Co102 O134 1.920 . S
Co103 O106 1.966 . S
Co103 N112 2.022 1_455 S
Co103 N120 1.993 . S
Co103 O128 1.941 . S
C104 O105 1.258 . S
C104 O106 1.263 . S
O105 Co102 1.970 . S
O105 C104 1.258 . S
O106 Co103 1.966 . S
O106 C104 1.263 . S
C107 O108 1.235 . S
C107 O134 1.289 . S
O108 C107 1.235 . S
C109 C111 1.400 . S
C109 N112 1.351 . S
C109 C114 1.501 1_655 S
C110 C111 1.387 . S
C110 N113 1.341 . S
C111 C109 1.400 . S
C111 C110 1.387 . S
N112 Co103 2.022 1_655 S
N112 C109 1.351 . S
N112 N113 1.365 . S
N113 C110 1.341 . S
N113 N112 1.365 . S
N113 H133 0.862 . S
C114 C109 1.501 1_455 S
C114 H115 0.961 . S
C114 H116 0.961 . S
C114 H117 0.959 . S
H115 C114 0.961 . S
H116 C114 0.961 . S
H117 C114 0.959 . S
C118 N119 1.342 . S
C118 C122 1.401 . S
C118 C123 1.499 . S
N119 Co102 1.989 . S
N119 C118 1.342 . S
N119 N120 1.388 . S
N120 Co103 1.993 . S
N120 N119 1.388 . S
N120 C121 1.346 . S
C121 N120 1.346 . S
C121 C122 1.396 . S
C121 C131 1.510 1_455 S
C122 C118 1.401 . S
C122 C121 1.396 . S
C123 C118 1.499 . S
C123 H124 0.959 . S
C123 H125 0.960 . S
C123 H126 0.961 . S
H124 C123 0.959 . S
H125 C123 0.960 . S
H126 C123 0.961 . S
O127 Co102 1.967 . S
O127 C135 1.258 . S
O128 Co103 1.941 . S
O128 C135 1.266 . S
H129 C131 0.959 . S
H130 C131 0.961 . S
C131 C121 1.510 1_655 S
C131 H129 0.959 . S
C131 H130 0.961 . S
C131 H132 0.960 . S
H132 C131 0.960 . S
H133 N113 0.862 . S
O134 Co102 1.920 . S
O134 C107 1.289 . S
C135 O127 1.258 . S
C135 O128 1.266 . S
Co136 O139 1.970 . S
Co136 N153 1.989 . S
Co136 O161 1.967 . S
Co136 O168 1.920 . S
Co137 O140 1.966 . S
Co137 N146 2.022 . S
Co137 N154 1.993 . S
Co137 O162 1.941 . S
C138 O139 1.258 . S
C138 O140 1.263 . S
O139 Co136 1.970 . S
O139 C138 1.258 . S
O140 Co137 1.966 . S
O140 C138 1.263 . S
C141 O142 1.235 . S
C141 O168 1.289 . S
O142 C141 1.235 . S
C143 C145 1.400 . S
C143 N146 1.351 . S
C143 C148 1.501 . S
C144 C145 1.387 . S
C144 N147 1.341 . S
C145 C143 1.400 . S
C145 C144 1.387 . S
N146 Co137 2.022 . S
N146 C143 1.351 . S
N146 N147 1.365 . S
N147 C144 1.341 . S
N147 N146 1.365 . S
N147 H167 0.862 . S
C148 C143 1.501 . S
C148 H149 0.961 . S
C148 H150 0.961 . S
C148 H151 0.960 . S
H149 C148 0.961 . S
H150 C148 0.961 . S
H151 C148 0.960 . S
C152 N153 1.342 . S
C152 C156 1.401 . S
C152 C157 1.499 . S
N153 Co136 1.989 . S
N153 C152 1.342 . S
N153 N154 1.388 . S
N154 Co137 1.993 . S
N154 N153 1.388 . S
N154 C155 1.346 . S
C155 N154 1.346 . S
C155 C156 1.396 . S
C155 C165 1.510 . S
C156 C152 1.401 . S
C156 C155 1.396 . S
C157 C152 1.499 . S
C157 H158 0.959 . S
C157 H159 0.960 . S
C157 H160 0.961 . S
H158 C157 0.959 . S
H159 C157 0.960 . S
H160 C157 0.961 . S
O161 Co136 1.967 . S
O161 C169 1.258 . S
O162 Co137 1.941 . S
O162 C169 1.266 . S
H163 C165 0.959 . S
H164 C165 0.961 . S
C165 C155 1.510 . S
C165 H163 0.959 . S
C165 H164 0.961 . S
C165 H166 0.960 . S
H166 C165 0.960 . S
H167 N147 0.862 . S
O168 Co136 1.920 . S
O168 C141 1.289 . S
C169 O161 1.258 . S
C169 O162 1.266 . S
Co170 O173 1.970 . S
Co170 N187 1.989 . S
Co170 O195 1.967 . S
Co170 O202 1.920 . S
Co171 O174 1.966 . S
Co171 N180 2.022 1_455 S
Co171 N188 1.993 . S
Co171 O196 1.941 . S
C172 O173 1.258 . S
C172 O174 1.263 . S
O173 Co170 1.970 . S
O173 C172 1.258 . S
O174 Co171 1.966 . S
O174 C172 1.263 . S
C175 O176 1.235 . S
C175 O202 1.289 . S
O176 C175 1.235 . S
C177 C179 1.400 . S
C177 N180 1.351 . S
C177 C182 1.501 1_655 S
C178 C179 1.387 . S
C178 N181 1.341 . S
C179 C177 1.400 . S
C179 C178 1.387 . S
N180 Co171 2.022 1_655 S
N180 C177 1.351 . S
N180 N181 1.365 . S
N181 C178 1.341 . S
N181 N180 1.365 . S
N181 H201 0.862 . S
C182 C177 1.501 1_455 S
C182 H183 0.961 . S
C182 H184 0.961 . S
C182 H185 0.959 . S
H183 C182 0.961 . S
H184 C182 0.961 . S
H185 C182 0.959 . S
C186 N187 1.342 . S
C186 C190 1.401 . S
C186 C191 1.499 . S
N187 Co170 1.989 . S
N187 C186 1.342 . S
N187 N188 1.388 . S
N188 Co171 1.993 . S
N188 N187 1.388 . S
N188 C189 1.346 . S
C189 N188 1.346 . S
C189 C190 1.396 . S
C189 C199 1.510 1_455 S
C190 C186 1.401 . S
C190 C189 1.396 . S
C191 C186 1.499 . S
C191 H192 0.959 . S
C191 H193 0.960 . S
C191 H194 0.961 . S
H192 C191 0.959 . S
H193 C191 0.960 . S
H194 C191 0.961 . S
O195 Co170 1.967 . S
O195 C203 1.258 . S
O196 Co171 1.941 . S
O196 C203 1.266 . S
H197 C199 0.959 . S
H198 C199 0.961 . S
C199 C189 1.510 1_655 S
C199 H197 0.959 . S
C199 H198 0.961 . S
C199 H200 0.960 . S
H200 C199 0.960 . S
H201 N181 0.862 . S
O202 Co170 1.920 . S
O202 C175 1.289 . S
C203 O195 1.258 . S
C203 O196 1.266 . S
Co204 O207 1.970 . S
Co204 N221 1.989 . S
Co204 O229 1.967 . S
Co204 O236 1.920 . S
Co205 O208 1.966 . S
Co205 N214 2.022 1_545 S
Co205 N222 1.993 . S
Co205 O230 1.941 . S
C206 O207 1.258 . S
C206 O208 1.263 . S
O207 Co204 1.970 . S
O207 C206 1.258 . S
O208 Co205 1.966 . S
O208 C206 1.263 . S
C209 O210 1.235 . S
C209 O236 1.289 . S
O210 C209 1.235 . S
C211 C213 1.400 . S
C211 N214 1.351 . S
C211 C216 1.501 1_565 S
C212 C213 1.387 . S
C212 N215 1.341 . S
C213 C211 1.400 . S
C213 C212 1.387 . S
N214 Co205 2.022 1_565 S
N214 C211 1.351 . S
N214 N215 1.365 . S
N215 C212 1.341 . S
N215 N214 1.365 . S
N215 H235 0.862 . S
C216 C211 1.501 1_545 S
C216 H217 0.961 . S
C216 H218 0.961 . S
C216 H219 0.959 . S
H217 C216 0.961 . S
H218 C216 0.961 . S
H219 C216 0.959 . S
C220 N221 1.342 . S
C220 C224 1.401 . S
C220 C225 1.499 . S
N221 Co204 1.989 . S
N221 C220 1.342 . S
N221 N222 1.388 . S
N222 Co205 1.993 . S
N222 N221 1.388 . S
N222 C223 1.346 . S
C223 N222 1.346 . S
C223 C224 1.396 . S
C223 C233 1.510 1_545 S
C224 C220 1.401 . S
C224 C223 1.396 . S
C225 C220 1.499 . S
C225 H226 0.959 . S
C225 H227 0.960 . S
C225 H228 0.961 . S
H226 C225 0.959 . S
H227 C225 0.960 . S
H228 C225 0.961 . S
O229 Co204 1.967 . S
O229 C237 1.258 . S
O230 Co205 1.941 . S
O230 C237 1.266 . S
H231 C233 0.959 . S
H232 C233 0.961 . S
C233 C223 1.510 1_565 S
C233 H231 0.959 . S
C233 H232 0.961 . S
C233 H234 0.960 . S
H234 C233 0.960 . S
H235 N215 0.862 . S
O236 Co204 1.920 . S
O236 C209 1.289 . S
C237 O229 1.258 . S
C237 O230 1.266 . S
Co238 O241 1.970 . S
Co238 N255 1.989 . S
Co238 O263 1.967 . S
Co238 O270 1.920 . S
Co239 O242 1.966 . S
Co239 N248 2.022 . S
Co239 N256 1.993 . S
Co239 O264 1.941 . S
C240 O241 1.258 . S
C240 O242 1.263 . S
O241 Co238 1.970 . S
O241 C240 1.258 . S
O242 Co239 1.966 . S
O242 C240 1.263 . S
C243 O244 1.235 . S
C243 O270 1.289 . S
O244 C243 1.235 . S
C245 C247 1.400 . S
C245 N248 1.351 . S
C245 C250 1.501 . S
C246 C247 1.387 . S
C246 N249 1.341 . S
C247 C245 1.400 . S
C247 C246 1.387 . S
N248 Co239 2.022 . S
N248 C245 1.351 . S
N248 N249 1.365 . S
N249 C246 1.341 . S
N249 N248 1.365 . S
N249 H269 0.862 . S
C250 C245 1.501 . S
C250 H251 0.961 . S
C250 H252 0.961 . S
C250 H253 0.960 . S
H251 C250 0.961 . S
H252 C250 0.961 . S
H253 C250 0.960 . S
C254 N255 1.342 . S
C254 C258 1.401 . S
C254 C259 1.499 . S
N255 Co238 1.989 . S
N255 C254 1.342 . S
N255 N256 1.388 . S
N256 Co239 1.993 . S
N256 N255 1.388 . S
N256 C257 1.346 . S
C257 N256 1.346 . S
C257 C258 1.396 . S
C257 C267 1.510 . S
C258 C254 1.401 . S
C258 C257 1.396 . S
C259 C254 1.499 . S
C259 H260 0.959 . S
C259 H261 0.960 . S
C259 H262 0.961 . S
H260 C259 0.959 . S
H261 C259 0.960 . S
H262 C259 0.961 . S
O263 Co238 1.967 . S
O263 C271 1.258 . S
O264 Co239 1.941 . S
O264 C271 1.266 . S
H265 C267 0.959 . S
H266 C267 0.961 . S
C267 C257 1.510 . S
C267 H265 0.959 . S
C267 H266 0.961 . S
C267 H268 0.960 . S
H268 C267 0.960 . S
H269 N249 0.862 . S
O270 Co238 1.920 . S
O270 C243 1.289 . S
C271 O263 1.258 . S
C271 O264 1.266 . S
Co272 O275 1.970 . S
Co272 N289 1.989 . S
Co272 O297 1.967 . S
Co272 O304 1.920 . S
Co273 O276 1.966 . S
Co273 N282 2.022 1_565 S
Co273 N290 1.993 . S
Co273 O298 1.941 . S
C274 O275 1.258 . S
C274 O276 1.263 . S
O275 Co272 1.970 . S
O275 C274 1.258 . S
O276 Co273 1.966 . S
O276 C274 1.263 . S
C277 O278 1.235 . S
C277 O304 1.289 . S
O278 C277 1.235 . S
C279 C281 1.400 . S
C279 N282 1.351 . S
C279 C284 1.501 1_545 S
C280 C281 1.387 . S
C280 N283 1.341 . S
C281 C279 1.400 . S
C281 C280 1.387 . S
N282 Co273 2.022 1_545 S
N282 C279 1.351 . S
N282 N283 1.365 . S
N283 C280 1.341 . S
N283 N282 1.365 . S
N283 H303 0.862 . S
C284 C279 1.501 1_565 S
C284 H285 0.961 . S
C284 H286 0.961 . S
C284 H287 0.959 . S
H285 C284 0.961 . S
H286 C284 0.961 . S
H287 C284 0.959 . S
C288 N289 1.342 . S
C288 C292 1.401 . S
C288 C293 1.499 . S
N289 Co272 1.989 . S
N289 C288 1.342 . S
N289 N290 1.388 . S
N290 Co273 1.993 . S
N290 N289 1.388 . S
N290 C291 1.346 . S
C291 N290 1.346 . S
C291 C292 1.396 . S
C291 C301 1.510 1_565 S
C292 C288 1.401 . S
C292 C291 1.396 . S
C293 C288 1.499 . S
C293 H294 0.959 . S
C293 H295 0.960 . S
C293 H296 0.961 . S
H294 C293 0.959 . S
H295 C293 0.960 . S
H296 C293 0.961 . S
O297 Co272 1.967 . S
O297 C305 1.258 . S
O298 Co273 1.941 . S
O298 C305 1.266 . S
H299 C301 0.959 . S
H300 C301 0.961 . S
C301 C291 1.510 1_545 S
C301 H299 0.959 . S
C301 H300 0.961 . S
C301 H302 0.960 . S
H302 C301 0.960 . S
H303 N283 0.862 . S
O304 Co272 1.920 . S
O304 C277 1.289 . S
C305 O297 1.258 . S
C305 O298 1.266 . S
Co306 O309 1.970 . S
Co306 N323 1.989 . S
Co306 O331 1.967 . S
Co306 O338 1.920 . S
Co307 O310 1.966 . S
Co307 N316 2.022 . S
Co307 N324 1.993 . S
Co307 O332 1.941 . S
C308 O309 1.258 . S
C308 O310 1.263 . S
O309 Co306 1.970 . S
O309 C308 1.258 . S
O310 Co307 1.966 . S
O310 C308 1.263 . S
C311 O312 1.235 . S
C311 O338 1.289 . S
O312 C311 1.235 . S
C313 C315 1.400 . S
C313 N316 1.351 . S
C313 C318 1.501 . S
C314 C315 1.387 . S
C314 N317 1.341 . S
C315 C313 1.400 . S
C315 C314 1.387 . S
N316 Co307 2.022 . S
N316 C313 1.351 . S
N316 N317 1.365 . S
N317 C314 1.341 . S
N317 N316 1.365 . S
N317 H337 0.862 . S
C318 C313 1.501 . S
C318 H319 0.961 . S
C318 H320 0.961 . S
C318 H321 0.960 . S
H319 C318 0.961 . S
H320 C318 0.961 . S
H321 C318 0.960 . S
C322 N323 1.342 . S
C322 C326 1.401 . S
C322 C327 1.499 . S
N323 Co306 1.989 . S
N323 C322 1.342 . S
N323 N324 1.388 . S
N324 Co307 1.993 . S
N324 N323 1.388 . S
N324 C325 1.346 . S
C325 N324 1.346 . S
C325 C326 1.396 . S
C325 C335 1.510 . S
C326 C322 1.401 . S
C326 C325 1.396 . S
C327 C322 1.499 . S
C327 H328 0.959 . S
C327 H329 0.960 . S
C327 H330 0.961 . S
H328 C327 0.959 . S
H329 C327 0.960 . S
H330 C327 0.961 . S
O331 Co306 1.967 . S
O331 C339 1.258 . S
O332 Co307 1.941 . S
O332 C339 1.266 . S
H333 C335 0.959 . S
H334 C335 0.961 . S
C335 C325 1.510 . S
C335 H333 0.959 . S
C335 H334 0.961 . S
C335 H336 0.960 . S
H336 C335 0.960 . S
H337 N317 0.862 . S
O338 Co306 1.920 . S
O338 C311 1.289 . S
C339 O331 1.258 . S
C339 O332 1.266 . S
Co340 O343 1.970 . S
Co340 N357 1.989 . S
Co340 O365 1.967 . S
Co340 O372 1.920 . S
Co341 O344 1.966 . S
Co341 N350 2.022 . S
Co341 N358 1.993 . S
Co341 O366 1.941 . S
C342 O343 1.258 . S
C342 O344 1.263 . S
O343 Co340 1.970 . S
O343 C342 1.258 . S
O344 Co341 1.966 . S
O344 C342 1.263 . S
C345 O346 1.235 . S
C345 O372 1.289 . S
O346 C345 1.235 . S
C347 C349 1.400 . S
C347 N350 1.351 . S
C347 C352 1.501 . S
C348 C349 1.387 . S
C348 N351 1.341 . S
C349 C347 1.400 . S
C349 C348 1.387 . S
N350 Co341 2.022 . S
N350 C347 1.351 . S
N350 N351 1.365 . S
N351 C348 1.341 . S
N351 N350 1.365 . S
N351 H371 0.862 . S
C352 C347 1.501 . S
C352 H353 0.961 . S
C352 H354 0.961 . S
C352 H355 0.960 . S
H353 C352 0.961 . S
H354 C352 0.961 . S
H355 C352 0.960 . S
C356 N357 1.342 . S
C356 C360 1.401 . S
C356 C361 1.499 . S
N357 Co340 1.989 . S
N357 C356 1.342 . S
N357 N358 1.388 . S
N358 Co341 1.993 . S
N358 N357 1.388 . S
N358 C359 1.346 . S
C359 N358 1.346 . S
C359 C360 1.396 . S
C359 C369 1.510 . S
C360 C356 1.401 . S
C360 C359 1.396 . S
C361 C356 1.499 . S
C361 H362 0.959 . S
C361 H363 0.960 . S
C361 H364 0.961 . S
H362 C361 0.959 . S
H363 C361 0.960 . S
H364 C361 0.961 . S
O365 Co340 1.967 . S
O365 C373 1.258 . S
O366 Co341 1.941 . S
O366 C373 1.266 . S
H367 C369 0.959 . S
H368 C369 0.961 . S
C369 C359 1.510 . S
C369 H367 0.959 . S
C369 H368 0.961 . S
C369 H370 0.960 . S
H370 C369 0.960 . S
H371 N351 0.862 . S
O372 Co340 1.920 . S
O372 C345 1.289 . S
C373 O365 1.258 . S
C373 O366 1.266 . S
Co374 O377 1.970 . S
Co374 N391 1.989 . S
Co374 O399 1.967 . S
Co374 O406 1.920 . S
Co375 O378 1.966 . S
Co375 N384 2.022 1_655 S
Co375 N392 1.993 . S
Co375 O400 1.941 . S
C376 O377 1.258 . S
C376 O378 1.263 . S
O377 Co374 1.970 . S
O377 C376 1.258 . S
O378 Co375 1.966 . S
O378 C376 1.263 . S
C379 O380 1.235 . S
C379 O406 1.289 . S
O380 C379 1.235 . S
C381 C383 1.400 . S
C381 N384 1.351 . S
C381 C386 1.501 1_455 S
C382 C383 1.387 . S
C382 N385 1.341 . S
C383 C381 1.400 . S
C383 C382 1.387 . S
N384 Co375 2.022 1_455 S
N384 C381 1.351 . S
N384 N385 1.365 . S
N385 C382 1.341 . S
N385 N384 1.365 . S
N385 H405 0.862 . S
C386 C381 1.501 1_655 S
C386 H387 0.961 . S
C386 H388 0.961 . S
C386 H389 0.959 . S
H387 C386 0.961 . S
H388 C386 0.961 . S
H389 C386 0.959 . S
C390 N391 1.342 . S
C390 C394 1.401 . S
C390 C395 1.499 . S
N391 Co374 1.989 . S
N391 C390 1.342 . S
N391 N392 1.388 . S
N392 Co375 1.993 . S
N392 N391 1.388 . S
N392 C393 1.346 . S
C393 N392 1.346 . S
C393 C394 1.396 . S
C393 C403 1.510 1_655 S
C394 C390 1.401 . S
C394 C393 1.396 . S
C395 C390 1.499 . S
C395 H396 0.959 . S
C395 H397 0.960 . S
C395 H398 0.961 . S
H396 C395 0.959 . S
H397 C395 0.960 . S
H398 C395 0.961 . S
O399 Co374 1.967 . S
O399 C407 1.258 . S
O400 Co375 1.941 . S
O400 C407 1.266 . S
H401 C403 0.959 . S
H402 C403 0.961 . S
C403 C393 1.510 1_455 S
C403 H401 0.959 . S
C403 H402 0.961 . S
C403 H404 0.960 . S
H404 C403 0.960 . S
H405 N385 0.862 . S
O406 Co374 1.920 . S
O406 C379 1.289 . S
C407 O399 1.258 . S
C407 O400 1.266 . S
Co408 O411 1.970 . S
Co408 N425 1.989 . S
Co408 O433 1.967 . S
Co408 O440 1.920 . S
Co409 O412 1.966 . S
Co409 N418 2.022 . S
Co409 N426 1.993 . S
Co409 O434 1.941 . S
C410 O411 1.258 . S
C410 O412 1.263 . S
O411 Co408 1.970 . S
O411 C410 1.258 . S
O412 Co409 1.966 . S
O412 C410 1.263 . S
C413 O414 1.235 . S
C413 O440 1.289 . S
O414 C413 1.235 . S
C415 C417 1.400 . S
C415 N418 1.351 . S
C415 C420 1.501 . S
C416 C417 1.387 . S
C416 N419 1.341 . S
C417 C415 1.400 . S
C417 C416 1.387 . S
N418 Co409 2.022 . S
N418 C415 1.351 . S
N418 N419 1.365 . S
N419 C416 1.341 . S
N419 N418 1.365 . S
N419 H439 0.862 . S
C420 C415 1.501 . S
C420 H421 0.961 . S
C420 H422 0.961 . S
C420 H423 0.960 . S
H421 C420 0.961 . S
H422 C420 0.961 . S
H423 C420 0.960 . S
C424 N425 1.342 . S
C424 C428 1.401 . S
C424 C429 1.499 . S
N425 Co408 1.989 . S
N425 C424 1.342 . S
N425 N426 1.388 . S
N426 Co409 1.993 . S
N426 N425 1.388 . S
N426 C427 1.346 . S
C427 N426 1.346 . S
C427 C428 1.396 . S
C427 C437 1.510 . S
C428 C424 1.401 . S
C428 C427 1.396 . S
C429 C424 1.499 . S
C429 H430 0.959 . S
C429 H431 0.960 . S
C429 H432 0.961 . S
H430 C429 0.959 . S
H431 C429 0.960 . S
H432 C429 0.961 . S
O433 Co408 1.967 . S
O433 C441 1.258 . S
O434 Co409 1.941 . S
O434 C441 1.266 . S
H435 C437 0.959 . S
H436 C437 0.961 . S
C437 C427 1.510 . S
C437 H435 0.959 . S
C437 H436 0.961 . S
C437 H438 0.960 . S
H438 C437 0.960 . S
H439 N419 0.862 . S
O440 Co408 1.920 . S
O440 C413 1.289 . S
C441 O433 1.258 . S
C441 O434 1.266 . S
Co442 O445 1.970 . S
Co442 N459 1.989 . S
Co442 O467 1.967 . S
Co442 O474 1.920 . S
Co443 O446 1.966 . S
Co443 N452 2.022 1_655 S
Co443 N460 1.993 . S
Co443 O468 1.941 . S
C444 O445 1.258 . S
C444 O446 1.263 . S
O445 Co442 1.970 . S
O445 C444 1.258 . S
O446 Co443 1.966 . S
O446 C444 1.263 . S
C447 O448 1.235 . S
C447 O474 1.289 . S
O448 C447 1.235 . S
C449 C451 1.400 . S
C449 N452 1.351 . S
C449 C454 1.501 1_455 S
C450 C451 1.387 . S
C450 N453 1.341 . S
C451 C449 1.400 . S
C451 C450 1.387 . S
N452 Co443 2.022 1_455 S
N452 C449 1.351 . S
N452 N453 1.365 . S
N453 C450 1.341 . S
N453 N452 1.365 . S
N453 H473 0.862 . S
C454 C449 1.501 1_655 S
C454 H455 0.961 . S
C454 H456 0.961 . S
C454 H457 0.959 . S
H455 C454 0.961 . S
H456 C454 0.961 . S
H457 C454 0.959 . S
C458 N459 1.342 . S
C458 C462 1.401 . S
C458 C463 1.499 . S
N459 Co442 1.989 . S
N459 C458 1.342 . S
N459 N460 1.388 . S
N460 Co443 1.993 . S
N460 N459 1.388 . S
N460 C461 1.346 . S
C461 N460 1.346 . S
C461 C462 1.396 . S
C461 C471 1.510 1_655 S
C462 C458 1.401 . S
C462 C461 1.396 . S
C463 C458 1.499 . S
C463 H464 0.959 . S
C463 H465 0.960 . S
C463 H466 0.961 . S
H464 C463 0.959 . S
H465 C463 0.960 . S
H466 C463 0.961 . S
O467 Co442 1.967 . S
O467 C475 1.258 . S
O468 Co443 1.941 . S
O468 C475 1.266 . S
H469 C471 0.959 . S
H470 C471 0.961 . S
C471 C461 1.510 1_455 S
C471 H469 0.959 . S
C471 H470 0.961 . S
C471 H472 0.960 . S
H472 C471 0.960 . S
H473 N453 0.862 . S
O474 Co442 1.920 . S
O474 C447 1.289 . S
C475 O467 1.258 . S
C475 O468 1.266 . S
Co476 O479 1.970 . S
Co476 N493 1.989 . S
Co476 O501 1.967 . S
Co476 O508 1.920 . S
Co477 O480 1.966 . S
Co477 N486 2.022 1_565 S
Co477 N494 1.993 . S
Co477 O502 1.941 . S
C478 O479 1.258 . S
C478 O480 1.263 . S
O479 Co476 1.970 . S
O479 C478 1.258 . S
O480 Co477 1.966 . S
O480 C478 1.263 . S
C481 O482 1.235 . S
C481 O508 1.289 . S
O482 C481 1.235 . S
C483 C485 1.400 . S
C483 N486 1.351 . S
C483 C488 1.501 1_545 S
C484 C485 1.387 . S
C484 N487 1.341 . S
C485 C483 1.400 . S
C485 C484 1.387 . S
N486 Co477 2.022 1_545 S
N486 C483 1.351 . S
N486 N487 1.365 . S
N487 C484 1.341 . S
N487 N486 1.365 . S
N487 H507 0.862 . S
C488 C483 1.501 1_565 S
C488 H489 0.961 . S
C488 H490 0.961 . S
C488 H491 0.959 . S
H489 C488 0.961 . S
H490 C488 0.961 . S
H491 C488 0.959 . S
C492 N493 1.342 . S
C492 C496 1.401 . S
C492 C497 1.499 . S
N493 Co476 1.989 . S
N493 C492 1.342 . S
N493 N494 1.388 . S
N494 Co477 1.993 . S
N494 N493 1.388 . S
N494 C495 1.346 . S
C495 N494 1.346 . S
C495 C496 1.396 . S
C495 C505 1.510 1_565 S
C496 C492 1.401 . S
C496 C495 1.396 . S
C497 C492 1.499 . S
C497 H498 0.959 . S
C497 H499 0.960 . S
C497 H500 0.961 . S
H498 C497 0.959 . S
H499 C497 0.960 . S
H500 C497 0.961 . S
O501 Co476 1.967 . S
O501 C509 1.258 . S
O502 Co477 1.941 . S
O502 C509 1.266 . S
H503 C505 0.959 . S
H504 C505 0.961 . S
C505 C495 1.510 1_545 S
C505 H503 0.959 . S
C505 H504 0.961 . S
C505 H506 0.960 . S
H506 C505 0.960 . S
H507 N487 0.862 . S
O508 Co476 1.920 . S
O508 C481 1.289 . S
C509 O501 1.258 . S
C509 O502 1.266 . S
Co510 O513 1.970 . S
Co510 N527 1.989 . S
Co510 O535 1.967 . S
Co510 O542 1.920 . S
Co511 O514 1.966 . S
Co511 N520 2.022 . S
Co511 N528 1.993 . S
Co511 O536 1.941 . S
C512 O513 1.258 . S
C512 O514 1.263 . S
O513 Co510 1.970 . S
O513 C512 1.258 . S
O514 Co511 1.966 . S
O514 C512 1.263 . S
C515 O516 1.235 . S
C515 O542 1.289 . S
O516 C515 1.235 . S
C517 C519 1.400 . S
C517 N520 1.351 . S
C517 C522 1.501 . S
C518 C519 1.387 . S
C518 N521 1.341 . S
C519 C517 1.400 . S
C519 C518 1.387 . S
N520 Co511 2.022 . S
N520 C517 1.351 . S
N520 N521 1.365 . S
N521 C518 1.341 . S
N521 N520 1.365 . S
N521 H541 0.862 . S
C522 C517 1.501 . S
C522 H523 0.961 . S
C522 H524 0.961 . S
C522 H525 0.960 . S
H523 C522 0.961 . S
H524 C522 0.961 . S
H525 C522 0.960 . S
C526 N527 1.342 . S
C526 C530 1.401 . S
C526 C531 1.499 . S
N527 Co510 1.989 . S
N527 C526 1.342 . S
N527 N528 1.388 . S
N528 Co511 1.993 . S
N528 N527 1.388 . S
N528 C529 1.346 . S
C529 N528 1.346 . S
C529 C530 1.396 . S
C529 C539 1.510 . S
C530 C526 1.401 . S
C530 C529 1.396 . S
C531 C526 1.499 . S
C531 H532 0.959 . S
C531 H533 0.960 . S
C531 H534 0.961 . S
H532 C531 0.959 . S
H533 C531 0.960 . S
H534 C531 0.961 . S
O535 Co510 1.967 . S
O535 C543 1.258 . S
O536 Co511 1.941 . S
O536 C543 1.266 . S
H537 C539 0.959 . S
H538 C539 0.961 . S
C539 C529 1.510 . S
C539 H537 0.959 . S
C539 H538 0.961 . S
C539 H540 0.960 . S
H540 C539 0.960 . S
H541 N521 0.862 . S
O542 Co510 1.920 . S
O542 C515 1.289 . S
C543 O535 1.258 . S
C543 O536 1.266 . S
C544 C545 1.363 . S
C544 C550 1.379 . S
C544 N552 1.356 . S
C545 C544 1.363 . S
C545 C551 1.363 . S
C546 C547 1.363 . S
C546 C551 1.379 . S
C546 N553 1.356 . S
C547 C546 1.363 . S
C547 C550 1.363 . S
N548 C550 1.356 . S
N548 H560 0.984 . S
N548 H561 0.985 . S
N549 C551 1.356 . S
N549 H554 0.984 . S
N549 H555 0.985 . S
C550 C544 1.379 . S
C550 C547 1.363 . S
C550 N548 1.356 . S
C551 C545 1.363 . S
C551 C546 1.379 . S
C551 N549 1.356 . S
N552 C544 1.356 . S
N552 H558 0.984 . S
N552 H559 0.984 . S
N553 C546 1.356 . S
N553 H556 0.984 . S
N553 H557 0.985 . S
H554 N549 0.984 . S
H555 N549 0.985 . S
H556 N553 0.984 . S
H557 N553 0.985 . S
H558 N552 0.984 . S
H559 N552 0.984 . S
H560 N548 0.984 . S
H561 N548 0.985 . S
C562 C563 1.363 . S
C562 C568 1.379 . S
C562 N570 1.356 . S
C563 C562 1.363 . S
C563 C569 1.363 . S
C564 C565 1.363 . S
C564 C569 1.379 . S
C564 N571 1.356 . S
C565 C564 1.363 . S
C565 C568 1.363 . S
N566 C568 1.356 . S
N566 H578 0.984 . S
N566 H579 0.985 . S
N567 C569 1.356 . S
N567 H572 0.984 . S
N567 H573 0.985 . S
C568 C562 1.379 . S
C568 C565 1.363 . S
C568 N566 1.356 . S
C569 C563 1.363 . S
C569 C564 1.379 . S
C569 N567 1.356 . S
N570 C562 1.356 . S
N570 H576 0.984 . S
N570 H577 0.984 . S
N571 C564 1.356 . S
N571 H574 0.984 . S
N571 H575 0.985 . S
H572 N567 0.984 . S
H573 N567 0.985 . S
H574 N571 0.984 . S
H575 N571 0.985 . S
H576 N570 0.984 . S
H577 N570 0.984 . S
H578 N566 0.984 . S
H579 N566 0.985 . S
C580 C581 1.363 . S
C580 C586 1.379 . S
C580 N588 1.356 . S
C581 C580 1.363 . S
C581 C587 1.363 . S
C582 C583 1.363 . S
C582 C587 1.379 . S
C582 N589 1.356 . S
C583 C582 1.363 . S
C583 C586 1.363 . S
N584 C586 1.356 . S
N584 H596 0.984 . S
N584 H597 0.985 . S
N585 C587 1.356 . S
N585 H590 0.984 . S
N585 H591 0.985 . S
C586 C580 1.379 . S
C586 C583 1.363 . S
C586 N584 1.356 . S
C587 C581 1.363 . S
C587 C582 1.379 . S
C587 N585 1.356 . S
N588 C580 1.356 . S
N588 H594 0.984 . S
N588 H595 0.984 . S
N589 C582 1.356 . S
N589 H592 0.984 . S
N589 H593 0.985 . S
H590 N585 0.984 . S
H591 N585 0.985 . S
H592 N589 0.984 . S
H593 N589 0.985 . S
H594 N588 0.984 . S
H595 N588 0.984 . S
H596 N584 0.984 . S
H597 N584 0.985 . S
C598 C599 1.363 . S
C598 C604 1.379 . S
C598 N606 1.356 . S
C599 C598 1.363 . S
C599 C605 1.363 . S
C600 C601 1.363 . S
C600 C605 1.379 . S
C600 N607 1.356 . S
C601 C600 1.363 . S
C601 C604 1.363 . S
N602 C604 1.356 . S
N602 H614 0.984 . S
N602 H615 0.985 . S
N603 C605 1.356 . S
N603 H608 0.984 . S
N603 H609 0.985 . S
C604 C598 1.379 . S
C604 C601 1.363 . S
C604 N602 1.356 . S
C605 C599 1.363 . S
C605 C600 1.379 . S
C605 N603 1.356 . S
N606 C598 1.356 . S
N606 H612 0.984 . S
N606 H613 0.984 . S
N607 C600 1.356 . S
N607 H610 0.984 . S
N607 H611 0.985 . S
H608 N603 0.984 . S
H609 N603 0.985 . S
H610 N607 0.984 . S
H611 N607 0.985 . S
H612 N606 0.984 . S
H613 N606 0.984 . S
H614 N602 0.984 . S
H615 N602 0.985 . S
C616 C617 1.363 . S
C616 C622 1.379 . S
C616 N624 1.356 . S
C617 C616 1.363 . S
C617 C623 1.363 . S
C618 C619 1.363 . S
C618 C623 1.379 . S
C618 N625 1.356 . S
C619 C618 1.363 . S
C619 C622 1.363 . S
N620 C622 1.356 . S
N620 H632 0.984 . S
N620 H633 0.985 . S
N621 C623 1.356 . S
N621 H626 0.984 . S
N621 H627 0.985 . S
C622 C616 1.379 . S
C622 C619 1.363 . S
C622 N620 1.356 . S
C623 C617 1.363 . S
C623 C618 1.379 . S
C623 N621 1.356 . S
N624 C616 1.356 . S
N624 H630 0.984 . S
N624 H631 0.984 . S
N625 C618 1.356 . S
N625 H628 0.984 . S
N625 H629 0.985 . S
H626 N621 0.984 . S
H627 N621 0.985 . S
H628 N625 0.984 . S
H629 N625 0.985 . S
H630 N624 0.984 . S
H631 N624 0.984 . S
H632 N620 0.984 . S
H633 N620 0.985 . S
C634 C635 1.363 . S
C634 C640 1.379 . S
C634 N642 1.356 . S
C635 C634 1.363 . S
C635 C641 1.363 . S
C636 C637 1.363 . S
C636 C641 1.379 . S
C636 N643 1.356 . S
C637 C636 1.363 . S
C637 C640 1.363 . S
N638 C640 1.356 . S
N638 H650 0.984 . S
N638 H651 0.985 . S
N639 C641 1.356 . S
N639 H644 0.984 . S
N639 H645 0.985 . S
C640 C634 1.379 . S
C640 C637 1.363 . S
C640 N638 1.356 . S
C641 C635 1.363 . S
C641 C636 1.379 . S
C641 N639 1.356 . S
N642 C634 1.356 . S
N642 H648 0.984 . S
N642 H649 0.984 . S
N643 C636 1.356 . S
N643 H646 0.984 . S
N643 H647 0.985 . S
H644 N639 0.984 . S
H645 N639 0.985 . S
H646 N643 0.984 . S
H647 N643 0.985 . S
H648 N642 0.984 . S
H649 N642 0.984 . S
H650 N638 0.984 . S
H651 N638 0.985 . S
C652 C653 1.363 . S
C652 C658 1.379 . S
C652 N660 1.356 . S
C653 C652 1.363 . S
C653 C659 1.363 . S
C654 C655 1.363 . S
C654 C659 1.379 . S
C654 N661 1.356 . S
C655 C654 1.363 . S
C655 C658 1.363 . S
N656 C658 1.356 . S
N656 H668 0.984 . S
N656 H669 0.985 . S
N657 C659 1.356 . S
N657 H662 0.984 . S
N657 H663 0.985 . S
C658 C652 1.379 . S
C658 C655 1.363 . S
C658 N656 1.356 . S
C659 C653 1.363 . S
C659 C654 1.379 . S
C659 N657 1.356 . S
N660 C652 1.356 . S
N660 H666 0.984 . S
N660 H667 0.984 . S
N661 C654 1.356 . S
N661 H664 0.984 . S
N661 H665 0.985 . S
H662 N657 0.984 . S
H663 N657 0.985 . S
H664 N661 0.984 . S
H665 N661 0.985 . S
H666 N660 0.984 . S
H667 N660 0.984 . S
H668 N656 0.984 . S
H669 N656 0.985 . S
C670 C671 1.363 . S
C670 C676 1.379 . S
C670 N678 1.356 . S
C671 C670 1.363 . S
C671 C677 1.363 . S
C672 C673 1.363 . S
C672 C677 1.379 . S
C672 N679 1.356 . S
C673 C672 1.363 . S
C673 C676 1.363 . S
N674 C676 1.356 . S
N674 H686 0.984 . S
N674 H687 0.985 . S
N675 C677 1.356 . S
N675 H680 0.984 . S
N675 H681 0.985 . S
C676 C670 1.379 . S
C676 C673 1.363 . S
C676 N674 1.356 . S
C677 C671 1.363 . S
C677 C672 1.379 . S
C677 N675 1.356 . S
N678 C670 1.356 . S
N678 H684 0.984 . S
N678 H685 0.984 . S
N679 C672 1.356 . S
N679 H682 0.984 . S
N679 H683 0.985 . S
H680 N675 0.984 . S
H681 N675 0.985 . S
H682 N679 0.984 . S
H683 N679 0.985 . S
H684 N678 0.984 . S
H685 N678 0.984 . S
H686 N674 0.984 . S
H687 N674 0.985 . S
C688 C689 1.363 . S
C688 C694 1.379 . S
C688 N696 1.356 . S
C689 C688 1.363 . S
C689 C695 1.363 . S
C690 C691 1.363 . S
C690 C695 1.379 . S
C690 N697 1.356 . S
C691 C690 1.363 . S
C691 C694 1.363 . S
N692 C694 1.356 . S
N692 H704 0.984 . S
N692 H705 0.985 . S
N693 C695 1.356 . S
N693 H698 0.984 . S
N693 H699 0.985 . S
C694 C688 1.379 . S
C694 C691 1.363 . S
C694 N692 1.356 . S
C695 C689 1.363 . S
C695 C690 1.379 . S
C695 N693 1.356 . S
N696 C688 1.356 . S
N696 H702 0.984 . S
N696 H703 0.984 . S
N697 C690 1.356 . S
N697 H700 0.984 . S
N697 H701 0.985 . S
H698 N693 0.984 . S
H699 N693 0.985 . S
H700 N697 0.984 . S
H701 N697 0.985 . S
H702 N696 0.984 . S
H703 N696 0.984 . S
H704 N692 0.984 . S
H705 N692 0.985 . S
C706 C707 1.363 . S
C706 C712 1.379 . S
C706 N714 1.356 . S
C707 C706 1.363 . S
C707 C713 1.363 . S
C708 C709 1.363 . S
C708 C713 1.379 . S
C708 N715 1.356 . S
C709 C708 1.363 . S
C709 C712 1.363 . S
N710 C712 1.356 . S
N710 H722 0.984 . S
N710 H723 0.985 . S
N711 C713 1.356 . S
N711 H716 0.984 . S
N711 H717 0.985 . S
C712 C706 1.379 . S
C712 C709 1.363 . S
C712 N710 1.356 . S
C713 C707 1.363 . S
C713 C708 1.379 . S
C713 N711 1.356 . S
N714 C706 1.356 . S
N714 H720 0.984 . S
N714 H721 0.984 . S
N715 C708 1.356 . S
N715 H718 0.984 . S
N715 H719 0.985 . S
H716 N711 0.984 . S
H717 N711 0.985 . S
H718 N715 0.984 . S
H719 N715 0.985 . S
H720 N714 0.984 . S
H721 N714 0.984 . S
H722 N710 0.984 . S
H723 N710 0.985 . S
C724 C725 1.363 . S
C724 C730 1.379 . S
C724 N732 1.356 . S
C725 C724 1.363 . S
C725 C731 1.363 . S
C726 C727 1.363 . S
C726 C731 1.379 . S
C726 N733 1.356 . S
C727 C726 1.363 . S
C727 C730 1.363 . S
N728 C730 1.356 . S
N728 H740 0.984 . S
N728 H741 0.985 . S
N729 C731 1.356 . S
N729 H734 0.984 . S
N729 H735 0.985 . S
C730 C724 1.379 . S
C730 C727 1.363 . S
C730 N728 1.356 . S
C731 C725 1.363 . S
C731 C726 1.379 . S
C731 N729 1.356 . S
N732 C724 1.356 . S
N732 H738 0.984 . S
N732 H739 0.984 . S
N733 C726 1.356 . S
N733 H736 0.984 . S
N733 H737 0.985 . S
H734 N729 0.984 . S
H735 N729 0.985 . S
H736 N733 0.984 . S
H737 N733 0.985 . S
H738 N732 0.984 . S
H739 N732 0.984 . S
H740 N728 0.984 . S
H741 N728 0.985 . S
C742 C743 1.363 . S
C742 C748 1.379 . S
C742 N750 1.356 . S
C743 C742 1.363 . S
C743 C749 1.363 . S
C744 C745 1.363 . S
C744 C749 1.379 . S
C744 N751 1.356 . S
C745 C744 1.363 . S
C745 C748 1.363 . S
N746 C748 1.356 . S
N746 H758 0.984 . S
N746 H759 0.985 . S
N747 C749 1.356 . S
N747 H752 0.984 . S
N747 H753 0.985 . S
C748 C742 1.379 . S
C748 C745 1.363 . S
C748 N746 1.356 . S
C749 C743 1.363 . S
C749 C744 1.379 . S
C749 N747 1.356 . S
N750 C742 1.356 . S
N750 H756 0.984 . S
N750 H757 0.984 . S
N751 C744 1.356 . S
N751 H754 0.984 . S
N751 H755 0.985 . S
H752 N747 0.984 . S
H753 N747 0.985 . S
H754 N751 0.984 . S
H755 N751 0.985 . S
H756 N750 0.984 . S
H757 N750 0.984 . S
H758 N746 0.984 . S
H759 N746 0.985 . S
C760 C761 1.363 . S
C760 C766 1.379 . S
C760 N768 1.356 . S
C761 C760 1.363 . S
C761 C767 1.363 . S
C762 C763 1.363 . S
C762 C767 1.379 . S
C762 N769 1.356 . S
C763 C762 1.363 . S
C763 C766 1.363 . S
N764 C766 1.356 . S
N764 H776 0.984 . S
N764 H777 0.985 . S
N765 C767 1.356 . S
N765 H770 0.984 . S
N765 H771 0.985 . S
C766 C760 1.379 . S
C766 C763 1.363 . S
C766 N764 1.356 . S
C767 C761 1.363 . S
C767 C762 1.379 . S
C767 N765 1.356 . S
N768 C760 1.356 . S
N768 H774 0.984 . S
N768 H775 0.984 . S
N769 C762 1.356 . S
N769 H772 0.984 . S
N769 H773 0.985 . S
H770 N765 0.984 . S
H771 N765 0.985 . S
H772 N769 0.984 . S
H773 N769 0.985 . S
H774 N768 0.984 . S
H775 N768 0.984 . S
H776 N764 0.984 . S
H777 N764 0.985 . S
C778 C779 1.363 . S
C778 C784 1.379 . S
C778 N786 1.356 . S
C779 C778 1.363 . S
C779 C785 1.363 . S
C780 C781 1.363 . S
C780 C785 1.379 . S
C780 N787 1.356 . S
C781 C780 1.363 . S
C781 C784 1.363 . S
N782 C784 1.356 . S
N782 H794 0.984 . S
N782 H795 0.985 . S
N783 C785 1.356 . S
N783 H788 0.984 . S
N783 H789 0.985 . S
C784 C778 1.379 . S
C784 C781 1.363 . S
C784 N782 1.356 . S
C785 C779 1.363 . S
C785 C780 1.379 . S
C785 N783 1.356 . S
N786 C778 1.356 . S
N786 H792 0.984 . S
N786 H793 0.984 . S
N787 C780 1.356 . S
N787 H790 0.984 . S
N787 H791 0.985 . S
H788 N783 0.984 . S
H789 N783 0.985 . S
H790 N787 0.984 . S
H791 N787 0.985 . S
H792 N786 0.984 . S
H793 N786 0.984 . S
H794 N782 0.984 . S
H795 N782 0.985 . S
C796 C797 1.363 . S
C796 C802 1.379 . S
C796 N804 1.356 . S
C797 C796 1.363 . S
C797 C803 1.363 . S
C798 C799 1.363 . S
C798 C803 1.379 . S
C798 N805 1.356 . S
C799 C798 1.363 . S
C799 C802 1.363 . S
N800 C802 1.356 . S
N800 H812 0.984 . S
N800 H813 0.985 . S
N801 C803 1.356 . S
N801 H806 0.984 . S
N801 H807 0.985 . S
C802 C796 1.379 . S
C802 C799 1.363 . S
C802 N800 1.356 . S
C803 C797 1.363 . S
C803 C798 1.379 . S
C803 N801 1.356 . S
N804 C796 1.356 . S
N804 H810 0.984 . S
N804 H811 0.984 . S
N805 C798 1.356 . S
N805 H808 0.984 . S
N805 H809 0.985 . S
H806 N801 0.984 . S
H807 N801 0.985 . S
H808 N805 0.984 . S
H809 N805 0.985 . S
H810 N804 0.984 . S
H811 N804 0.984 . S
H812 N800 0.984 . S
H813 N800 0.985 . S
C814 C815 1.363 . S
C814 C820 1.379 . S
C814 N822 1.356 . S
C815 C814 1.363 . S
C815 C821 1.363 . S
C816 C817 1.363 . S
C816 C821 1.379 . S
C816 N823 1.356 . S
C817 C816 1.363 . S
C817 C820 1.363 . S
N818 C820 1.356 . S
N818 H830 0.984 . S
N818 H831 0.985 . S
N819 C821 1.356 . S
N819 H824 0.984 . S
N819 H825 0.985 . S
C820 C814 1.379 . S
C820 C817 1.363 . S
C820 N818 1.356 . S
C821 C815 1.363 . S
C821 C816 1.379 . S
C821 N819 1.356 . S
N822 C814 1.356 . S
N822 H828 0.984 . S
N822 H829 0.984 . S
N823 C816 1.356 . S
N823 H826 0.984 . S
N823 H827 0.985 . S
H824 N819 0.984 . S
H825 N819 0.985 . S
H826 N823 0.984 . S
H827 N823 0.985 . S
H828 N822 0.984 . S
H829 N822 0.984 . S
H830 N818 0.984 . S
H831 N818 0.985 . S
C832 C833 1.363 . S
C832 C838 1.379 . S
C832 N840 1.356 . S
C833 C832 1.363 . S
C833 C839 1.363 . S
C834 C835 1.363 . S
C834 C839 1.379 . S
C834 N841 1.356 . S
C835 C834 1.363 . S
C835 C838 1.363 . S
N836 C838 1.356 . S
N836 H848 0.984 . S
N836 H849 0.985 . S
N837 C839 1.356 . S
N837 H842 0.984 . S
N837 H843 0.985 . S
C838 C832 1.379 . S
C838 C835 1.363 . S
C838 N836 1.356 . S
C839 C833 1.363 . S
C839 C834 1.379 . S
C839 N837 1.356 . S
N840 C832 1.356 . S
N840 H846 0.984 . S
N840 H847 0.984 . S
N841 C834 1.356 . S
N841 H844 0.984 . S
N841 H845 0.985 . S
H842 N837 0.984 . S
H843 N837 0.985 . S
H844 N841 0.984 . S
H845 N841 0.985 . S
H846 N840 0.984 . S
H847 N840 0.984 . S
H848 N836 0.984 . S
H849 N836 0.985 . S
C850 C851 1.363 . S
C850 C856 1.379 . S
C850 N858 1.356 . S
C851 C850 1.363 . S
C851 C857 1.363 . S
C852 C853 1.363 . S
C852 C857 1.379 . S
C852 N859 1.356 . S
C853 C852 1.363 . S
C853 C856 1.363 . S
N854 C856 1.356 . S
N854 H866 0.984 . S
N854 H867 0.985 . S
N855 C857 1.356 . S
N855 H860 0.984 . S
N855 H861 0.985 . S
C856 C850 1.379 . S
C856 C853 1.363 . S
C856 N854 1.356 . S
C857 C851 1.363 . S
C857 C852 1.379 . S
C857 N855 1.356 . S
N858 C850 1.356 . S
N858 H864 0.984 . S
N858 H865 0.984 . S
N859 C852 1.356 . S
N859 H862 0.984 . S
N859 H863 0.985 . S
H860 N855 0.984 . S
H861 N855 0.985 . S
H862 N859 0.984 . S
H863 N859 0.985 . S
H864 N858 0.984 . S
H865 N858 0.984 . S
H866 N854 0.984 . S
H867 N854 0.985 . S
C868 C869 1.363 . S
C868 C874 1.379 . S
C868 N876 1.356 . S
C869 C868 1.363 . S
C869 C875 1.363 . S
C870 C871 1.363 . S
C870 C875 1.379 . S
C870 N877 1.356 . S
C871 C870 1.363 . S
C871 C874 1.363 . S
N872 C874 1.356 . S
N872 H884 0.984 . S
N872 H885 0.985 . S
N873 C875 1.356 . S
N873 H878 0.984 . S
N873 H879 0.985 . S
C874 C868 1.379 . S
C874 C871 1.363 . S
C874 N872 1.356 . S
C875 C869 1.363 . S
C875 C870 1.379 . S
C875 N873 1.356 . S
N876 C868 1.356 . S
N876 H882 0.984 . S
N876 H883 0.984 . S
N877 C870 1.356 . S
N877 H880 0.984 . S
N877 H881 0.985 . S
H878 N873 0.984 . S
H879 N873 0.985 . S
H880 N877 0.984 . S
H881 N877 0.985 . S
H882 N876 0.984 . S
H883 N876 0.984 . S
H884 N872 0.984 . S
H885 N872 0.985 . S
C886 C887 1.363 . S
C886 C892 1.379 . S
C886 N894 1.356 . S
C887 C886 1.363 . S
C887 C893 1.363 . S
C888 C889 1.363 . S
C888 C893 1.379 . S
C888 N895 1.356 . S
C889 C888 1.363 . S
C889 C892 1.363 . S
N890 C892 1.356 . S
N890 H902 0.984 . S
N890 H903 0.985 . S
N891 C893 1.356 . S
N891 H896 0.984 . S
N891 H897 0.985 . S
C892 C886 1.379 . S
C892 C889 1.363 . S
C892 N890 1.356 . S
C893 C887 1.363 . S
C893 C888 1.379 . S
C893 N891 1.356 . S
N894 C886 1.356 . S
N894 H900 0.984 . S
N894 H901 0.984 . S
N895 C888 1.356 . S
N895 H898 0.984 . S
N895 H899 0.985 . S
H896 N891 0.984 . S
H897 N891 0.985 . S
H898 N895 0.984 . S
H899 N895 0.985 . S
H900 N894 0.984 . S
H901 N894 0.984 . S
H902 N890 0.984 . S
H903 N890 0.985 . S
C904 C905 1.363 . S
C904 C910 1.379 . S
C904 N912 1.356 . S
C905 C904 1.363 . S
C905 C911 1.363 . S
C906 C907 1.363 . S
C906 C911 1.379 . S
C906 N913 1.356 . S
C907 C906 1.363 . S
C907 C910 1.363 . S
N908 C910 1.356 . S
N908 H920 0.984 . S
N908 H921 0.985 . S
N909 C911 1.356 . S
N909 H914 0.984 . S
N909 H915 0.985 . S
C910 C904 1.379 . S
C910 C907 1.363 . S
C910 N908 1.356 . S
C911 C905 1.363 . S
C911 C906 1.379 . S
C911 N909 1.356 . S
N912 C904 1.356 . S
N912 H918 0.984 . S
N912 H919 0.984 . S
N913 C906 1.356 . S
N913 H916 0.984 . S
N913 H917 0.985 . S
H914 N909 0.984 . S
H915 N909 0.985 . S
H916 N913 0.984 . S
H917 N913 0.985 . S
H918 N912 0.984 . S
H919 N912 0.984 . S
H920 N908 0.984 . S
H921 N908 0.985 . S
C922 C923 1.363 . S
C922 C928 1.379 . S
C922 N930 1.356 . S
C923 C922 1.363 . S
C923 C929 1.363 . S
C924 C925 1.363 . S
C924 C929 1.379 . S
C924 N931 1.356 . S
C925 C924 1.363 . S
C925 C928 1.363 . S
N926 C928 1.356 . S
N926 H938 0.984 . S
N926 H939 0.985 . S
N927 C929 1.356 . S
N927 H932 0.984 . S
N927 H933 0.985 . S
C928 C922 1.379 . S
C928 C925 1.363 . S
C928 N926 1.356 . S
C929 C923 1.363 . S
C929 C924 1.379 . S
C929 N927 1.356 . S
N930 C922 1.356 . S
N930 H936 0.984 . S
N930 H937 0.984 . S
N931 C924 1.356 . S
N931 H934 0.984 . S
N931 H935 0.985 . S
H932 N927 0.984 . S
H933 N927 0.985 . S
H934 N931 0.984 . S
H935 N931 0.985 . S
H936 N930 0.984 . S
H937 N930 0.984 . S
H938 N926 0.984 . S
H939 N926 0.985 . S
C940 C941 1.363 . S
C940 C946 1.379 . S
C940 N948 1.356 . S
C941 C940 1.363 . S
C941 C947 1.363 . S
C942 C943 1.363 . S
C942 C947 1.379 . S
C942 N949 1.356 . S
C943 C942 1.363 . S
C943 C946 1.363 . S
N944 C946 1.356 . S
N944 H956 0.984 . S
N944 H957 0.985 . S
N945 C947 1.356 . S
N945 H950 0.984 . S
N945 H951 0.985 . S
C946 C940 1.379 . S
C946 C943 1.363 . S
C946 N944 1.356 . S
C947 C941 1.363 . S
C947 C942 1.379 . S
C947 N945 1.356 . S
N948 C940 1.356 . S
N948 H954 0.984 . S
N948 H955 0.984 . S
N949 C942 1.356 . S
N949 H952 0.984 . S
N949 H953 0.985 . S
H950 N945 0.984 . S
H951 N945 0.985 . S
H952 N949 0.984 . S
H953 N949 0.985 . S
H954 N948 0.984 . S
H955 N948 0.984 . S
H956 N944 0.984 . S
H957 N944 0.985 . S
C958 C959 1.363 . S
C958 C964 1.379 . S
C958 N966 1.356 . S
C959 C958 1.363 . S
C959 C965 1.363 . S
C960 C961 1.363 . S
C960 C965 1.379 . S
C960 N967 1.356 . S
C961 C960 1.363 . S
C961 C964 1.363 . S
N962 C964 1.356 . S
N962 H974 0.984 . S
N962 H975 0.985 . S
N963 C965 1.356 . S
N963 H968 0.984 . S
N963 H969 0.985 . S
C964 C958 1.379 . S
C964 C961 1.363 . S
C964 N962 1.356 . S
C965 C959 1.363 . S
C965 C960 1.379 . S
C965 N963 1.356 . S
N966 C958 1.356 . S
N966 H972 0.984 . S
N966 H973 0.984 . S
N967 C960 1.356 . S
N967 H970 0.984 . S
N967 H971 0.985 . S
H968 N963 0.984 . S
H969 N963 0.985 . S
H970 N967 0.984 . S
H971 N967 0.985 . S
H972 N966 0.984 . S
H973 N966 0.984 . S
H974 N962 0.984 . S
H975 N962 0.985 . S
C976 C977 1.363 . S
C976 C982 1.379 . S
C976 N984 1.356 . S
C977 C976 1.363 . S
C977 C983 1.363 . S
C978 C979 1.363 . S
C978 C983 1.379 . S
C978 N985 1.356 . S
C979 C978 1.363 . S
C979 C982 1.363 . S
N980 C982 1.356 . S
N980 H992 0.984 . S
N980 H993 0.985 . S
N981 C983 1.356 . S
N981 H986 0.984 . S
N981 H987 0.985 . S
C982 C976 1.379 . S
C982 C979 1.363 . S
C982 N980 1.356 . S
C983 C977 1.363 . S
C983 C978 1.379 . S
C983 N981 1.356 . S
N984 C976 1.356 . S
N984 H990 0.984 . S
N984 H991 0.984 . S
N985 C978 1.356 . S
N985 H988 0.984 . S
N985 H989 0.985 . S
H986 N981 0.984 . S
H987 N981 0.985 . S
H988 N985 0.984 . S
H989 N985 0.985 . S
H990 N984 0.984 . S
H991 N984 0.984 . S
H992 N980 0.984 . S
H993 N980 0.985 . S
C994 C995 1.363 . S
C994 C1000 1.379 . S
C994 N1002 1.356 . S
C995 C994 1.363 . S
C995 C1001 1.363 . S
C996 C997 1.363 . S
C996 C1001 1.379 . S
C996 N1003 1.356 . S
C997 C996 1.363 . S
C997 C1000 1.363 . S
N998 C1000 1.356 . S
N998 H1010 0.984 . S
N998 H1011 0.985 . S
N999 C1001 1.356 . S
N999 H1004 0.984 . S
N999 H1005 0.985 . S
C1000 C994 1.379 . S
C1000 C997 1.363 . S
C1000 N998 1.356 . S
C1001 C995 1.363 . S
C1001 C996 1.379 . S
C1001 N999 1.356 . S
N1002 C994 1.356 . S
N1002 H1008 0.984 . S
N1002 H1009 0.984 . S
N1003 C996 1.356 . S
N1003 H1006 0.984 . S
N1003 H1007 0.985 . S
H1004 N999 0.984 . S
H1005 N999 0.985 . S
H1006 N1003 0.984 . S
H1007 N1003 0.985 . S
H1008 N1002 0.984 . S
H1009 N1002 0.984 . S
H1010 N998 0.984 . S
H1011 N998 0.985 . S
C1012 C1013 1.363 . S
C1012 C1018 1.379 . S
C1012 N1020 1.356 . S
C1013 C1012 1.363 . S
C1013 C1019 1.363 . S
C1014 C1015 1.363 . S
C1014 C1019 1.379 . S
C1014 N1021 1.356 . S
C1015 C1014 1.363 . S
C1015 C1018 1.363 . S
N1016 C1018 1.356 . S
N1016 H1028 0.984 . S
N1016 H1029 0.985 . S
N1017 C1019 1.356 . S
N1017 H1022 0.984 . S
N1017 H1023 0.985 . S
C1018 C1012 1.379 . S
C1018 C1015 1.363 . S
C1018 N1016 1.356 . S
C1019 C1013 1.363 . S
C1019 C1014 1.379 . S
C1019 N1017 1.356 . S
N1020 C1012 1.356 . S
N1020 H1026 0.984 . S
N1020 H1027 0.984 . S
N1021 C1014 1.356 . S
N1021 H1024 0.984 . S
N1021 H1025 0.985 . S
H1022 N1017 0.984 . S
H1023 N1017 0.985 . S
H1024 N1021 0.984 . S
H1025 N1021 0.985 . S
H1026 N1020 0.984 . S
H1027 N1020 0.984 . S
H1028 N1016 0.984 . S
H1029 N1016 0.985 . S
C1030 C1031 1.363 . S
C1030 C1036 1.379 . S
C1030 N1038 1.356 . S
C1031 C1030 1.363 . S
C1031 C1037 1.363 . S
C1032 C1033 1.363 . S
C1032 C1037 1.379 . S
C1032 N1039 1.356 . S
C1033 C1032 1.363 . S
C1033 C1036 1.363 . S
N1034 C1036 1.356 . S
N1034 H1046 0.984 . S
N1034 H1047 0.985 . S
N1035 C1037 1.356 . S
N1035 H1040 0.984 . S
N1035 H1041 0.985 . S
C1036 C1030 1.379 . S
C1036 C1033 1.363 . S
C1036 N1034 1.356 . S
C1037 C1031 1.363 . S
C1037 C1032 1.379 . S
C1037 N1035 1.356 . S
N1038 C1030 1.356 . S
N1038 H1044 0.984 . S
N1038 H1045 0.984 . S
N1039 C1032 1.356 . S
N1039 H1042 0.984 . S
N1039 H1043 0.985 . S
H1040 N1035 0.984 . S
H1041 N1035 0.985 . S
H1042 N1039 0.984 . S
H1043 N1039 0.985 . S
H1044 N1038 0.984 . S
H1045 N1038 0.984 . S
H1046 N1034 0.984 . S
H1047 N1034 0.985 . S
C1048 C1049 1.363 . S
C1048 C1054 1.379 . S
C1048 N1056 1.356 . S
C1049 C1048 1.363 . S
C1049 C1055 1.363 . S
C1050 C1051 1.363 . S
C1050 C1055 1.379 . S
C1050 N1057 1.356 . S
C1051 C1050 1.363 . S
C1051 C1054 1.363 . S
N1052 C1054 1.356 . S
N1052 H1064 0.984 . S
N1052 H1065 0.985 . S
N1053 C1055 1.356 . S
N1053 H1058 0.984 . S
N1053 H1059 0.985 . S
C1054 C1048 1.379 . S
C1054 C1051 1.363 . S
C1054 N1052 1.356 . S
C1055 C1049 1.363 . S
C1055 C1050 1.379 . S
C1055 N1053 1.356 . S
N1056 C1048 1.356 . S
N1056 H1062 0.984 . S
N1056 H1063 0.984 . S
N1057 C1050 1.356 . S
N1057 H1060 0.984 . S
N1057 H1061 0.985 . S
H1058 N1053 0.984 . S
H1059 N1053 0.985 . S
H1060 N1057 0.984 . S
H1061 N1057 0.985 . S
H1062 N1056 0.984 . S
H1063 N1056 0.984 . S
H1064 N1052 0.984 . S
H1065 N1052 0.985 . S
C1066 C1067 1.363 . S
C1066 C1072 1.379 . S
C1066 N1074 1.356 . S
C1067 C1066 1.363 . S
C1067 C1073 1.363 . S
C1068 C1069 1.363 . S
C1068 C1073 1.379 . S
C1068 N1075 1.356 . S
C1069 C1068 1.363 . S
C1069 C1072 1.363 . S
N1070 C1072 1.356 . S
N1070 H1082 0.984 . S
N1070 H1083 0.985 . S
N1071 C1073 1.356 . S
N1071 H1076 0.984 . S
N1071 H1077 0.985 . S
C1072 C1066 1.379 . S
C1072 C1069 1.363 . S
C1072 N1070 1.356 . S
C1073 C1067 1.363 . S
C1073 C1068 1.379 . S
C1073 N1071 1.356 . S
N1074 C1066 1.356 . S
N1074 H1080 0.984 . S
N1074 H1081 0.984 . S
N1075 C1068 1.356 . S
N1075 H1078 0.984 . S
N1075 H1079 0.985 . S
H1076 N1071 0.984 . S
H1077 N1071 0.985 . S
H1078 N1075 0.984 . S
H1079 N1075 0.985 . S
H1080 N1074 0.984 . S
H1081 N1074 0.984 . S
H1082 N1070 0.984 . S
H1083 N1070 0.985 . S
C1084 C1085 1.363 . S
C1084 C1090 1.379 . S
C1084 N1092 1.356 . S
C1085 C1084 1.363 . S
C1085 C1091 1.363 . S
C1086 C1087 1.363 . S
C1086 C1091 1.379 . S
C1086 N1093 1.356 . S
C1087 C1086 1.363 . S
C1087 C1090 1.363 . S
N1088 C1090 1.356 . S
N1088 H1100 0.984 . S
N1088 H1101 0.985 . S
N1089 C1091 1.356 . S
N1089 H1094 0.984 . S
N1089 H1095 0.985 . S
C1090 C1084 1.379 . S
C1090 C1087 1.363 . S
C1090 N1088 1.356 . S
C1091 C1085 1.363 . S
C1091 C1086 1.379 . S
C1091 N1089 1.356 . S
N1092 C1084 1.356 . S
N1092 H1098 0.984 . S
N1092 H1099 0.984 . S
N1093 C1086 1.356 . S
N1093 H1096 0.984 . S
N1093 H1097 0.985 . S
H1094 N1089 0.984 . S
H1095 N1089 0.985 . S
H1096 N1093 0.984 . S
H1097 N1093 0.985 . S
H1098 N1092 0.984 . S
H1099 N1092 0.984 . S
H1100 N1088 0.984 . S
H1101 N1088 0.985 . S
C1102 C1103 1.363 . S
C1102 C1108 1.379 . S
C1102 N1110 1.356 . S
C1103 C1102 1.363 . S
C1103 C1109 1.363 . S
C1104 C1105 1.363 . S
C1104 C1109 1.379 . S
C1104 N1111 1.356 . S
C1105 C1104 1.363 . S
C1105 C1108 1.363 . S
N1106 C1108 1.356 . S
N1106 H1118 0.984 . S
N1106 H1119 0.985 . S
N1107 C1109 1.356 . S
N1107 H1112 0.984 . S
N1107 H1113 0.985 . S
C1108 C1102 1.379 . S
C1108 C1105 1.363 . S
C1108 N1106 1.356 . S
C1109 C1103 1.363 . S
C1109 C1104 1.379 . S
C1109 N1107 1.356 . S
N1110 C1102 1.356 . S
N1110 H1116 0.984 . S
N1110 H1117 0.984 . S
N1111 C1104 1.356 . S
N1111 H1114 0.984 . S
N1111 H1115 0.985 . S
H1112 N1107 0.984 . S
H1113 N1107 0.985 . S
H1114 N1111 0.984 . S
H1115 N1111 0.985 . S
H1116 N1110 0.984 . S
H1117 N1110 0.984 . S
H1118 N1106 0.984 . S
H1119 N1106 0.985 . S
C1120 C1121 1.363 . S
C1120 C1126 1.379 1_556 S
C1120 N1128 1.356 . S
C1121 C1120 1.363 . S
C1121 C1127 1.363 . S
C1122 C1123 1.363 . S
C1122 C1127 1.379 1_554 S
C1122 N1129 1.356 1_545 S
C1123 C1122 1.363 . S
C1123 C1126 1.363 . S
N1124 C1126 1.356 . S
N1124 H1136 0.984 . S
N1124 H1137 0.985 . S
N1125 C1127 1.356 1_565 S
N1125 H1130 0.979 1_565 S
N1125 H1131 0.985 . S
C1126 C1120 1.379 1_554 S
C1126 C1123 1.363 . S
C1126 N1124 1.356 . S
C1127 C1121 1.363 . S
C1127 C1122 1.379 1_556 S
C1127 N1125 1.356 1_545 S
N1128 C1120 1.356 . S
N1128 H1134 0.984 . S
N1128 H1135 0.984 . S
N1129 C1122 1.356 1_565 S
N1129 H1132 0.979 1_565 S
N1129 H1133 0.985 . S
H1130 N1125 0.979 1_545 S
H1131 N1125 0.985 . S
H1132 N1129 0.979 1_545 S
H1133 N1129 0.985 . S
H1134 N1128 0.984 . S
H1135 N1128 0.984 . S
H1136 N1124 0.984 . S
H1137 N1124 0.985 . S
C1138 C1139 1.363 . S
C1138 C1144 1.379 . S
C1138 N1146 1.356 . S
C1139 C1138 1.363 . S
C1139 C1145 1.363 . S
C1140 C1141 1.363 . S
C1140 C1145 1.379 . S
C1140 N1147 1.356 . S
C1141 C1140 1.363 . S
C1141 C1144 1.363 . S
N1142 C1144 1.356 . S
N1142 H1154 0.984 . S
N1142 H1155 0.985 . S
N1143 C1145 1.356 . S
N1143 H1148 0.984 . S
N1143 H1149 0.985 . S
C1144 C1138 1.379 . S
C1144 C1141 1.363 . S
C1144 N1142 1.356 . S
C1145 C1139 1.363 . S
C1145 C1140 1.379 . S
C1145 N1143 1.356 . S
N1146 C1138 1.356 . S
N1146 H1152 0.984 . S
N1146 H1153 0.984 . S
N1147 C1140 1.356 . S
N1147 H1150 0.984 . S
N1147 H1151 0.985 . S
H1148 N1143 0.984 . S
H1149 N1143 0.985 . S
H1150 N1147 0.984 . S
H1151 N1147 0.985 . S
H1152 N1146 0.984 . S
H1153 N1146 0.984 . S
H1154 N1142 0.984 . S
H1155 N1142 0.985 . S
C1156 C1157 1.363 . S
C1156 C1162 1.379 1_554 S
C1156 N1164 1.356 . S
C1157 C1156 1.363 . S
C1157 C1163 1.363 . S
C1158 C1159 1.363 . S
C1158 C1163 1.379 1_556 S
C1158 N1165 1.356 . S
C1159 C1158 1.363 . S
C1159 C1162 1.363 . S
N1160 C1162 1.356 . S
N1160 H1172 0.984 . S
N1160 H1173 0.985 . S
N1161 C1163 1.356 . S
N1161 H1166 0.984 . S
N1161 H1167 0.985 . S
C1162 C1156 1.379 1_556 S
C1162 C1159 1.363 . S
C1162 N1160 1.356 . S
C1163 C1157 1.363 . S
C1163 C1158 1.379 1_554 S
C1163 N1161 1.356 . S
N1164 C1156 1.356 . S
N1164 H1170 0.984 . S
N1164 H1171 0.984 . S
N1165 C1158 1.356 . S
N1165 H1168 0.984 . S
N1165 H1169 0.985 . S
H1166 N1161 0.984 . S
H1167 N1161 0.985 . S
H1168 N1165 0.984 . S
H1169 N1165 0.985 . S
H1170 N1164 0.984 . S
H1171 N1164 0.984 . S
H1172 N1160 0.984 . S
H1173 N1160 0.985 . S
C1174 C1175 1.363 . S
C1174 C1180 1.379 . S
C1174 N1182 1.356 . S
C1175 C1174 1.363 . S
C1175 C1181 1.363 . S
C1176 C1177 1.363 . S
C1176 C1181 1.379 . S
C1176 N1183 1.356 . S
C1177 C1176 1.363 . S
C1177 C1180 1.363 . S
N1178 C1180 1.356 . S
N1178 H1190 0.984 1_455 S
N1178 H1191 0.985 . S
N1179 C1181 1.356 . S
N1179 H1184 0.984 . S
N1179 H1185 0.985 . S
C1180 C1174 1.379 . S
C1180 C1177 1.363 . S
C1180 N1178 1.356 . S
C1181 C1175 1.363 . S
C1181 C1176 1.379 . S
C1181 N1179 1.356 . S
N1182 C1174 1.356 . S
N1182 H1188 0.984 1_455 S
N1182 H1189 0.984 . S
N1183 C1176 1.356 . S
N1183 H1186 0.984 . S
N1183 H1187 0.985 . S
H1184 N1179 0.984 . S
H1185 N1179 0.985 . S
H1186 N1183 0.984 . S
H1187 N1183 0.985 . S
H1188 N1182 0.984 1_655 S
H1189 N1182 0.984 . S
H1190 N1178 0.984 1_655 S
H1191 N1178 0.985 . S
C1192 C1193 1.363 . S
C1192 C1198 1.379 1_554 S
C1192 N1200 1.356 1_565 S
C1193 C1192 1.363 . S
C1193 C1199 1.363 . S
C1194 C1195 1.363 . S
C1194 C1199 1.379 1_556 S
C1194 N1201 1.356 . S
C1195 C1194 1.363 . S
C1195 C1198 1.363 . S
N1196 C1198 1.356 1_545 S
N1196 H1208 0.984 . S
N1196 H1209 0.978 1_545 S
N1197 C1199 1.356 . S
N1197 H1202 0.984 . S
N1197 H1203 0.985 . S
C1198 C1192 1.379 1_556 S
C1198 C1195 1.363 . S
C1198 N1196 1.356 1_565 S
C1199 C1193 1.363 . S
C1199 C1194 1.379 1_554 S
C1199 N1197 1.356 . S
N1200 C1192 1.356 1_545 S
N1200 H1206 0.984 . S
N1200 H1207 0.979 1_545 S
N1201 C1194 1.356 . S
N1201 H1204 0.984 . S
N1201 H1205 0.985 . S
H1202 N1197 0.984 . S
H1203 N1197 0.985 . S
H1204 N1201 0.984 . S
H1205 N1201 0.985 . S
H1206 N1200 0.984 . S
H1207 N1200 0.979 1_565 S
H1208 N1196 0.984 . S
H1209 N1196 0.978 1_565 S
C1210 C1211 1.363 . S
C1210 C1216 1.379 . S
C1210 N1218 1.356 . S
C1211 C1210 1.363 . S
C1211 C1217 1.363 . S
C1212 C1213 1.363 . S
C1212 C1217 1.379 . S
C1212 N1219 1.356 . S
C1213 C1212 1.363 . S
C1213 C1216 1.363 . S
N1214 C1216 1.356 . S
N1214 H1226 0.984 . S
N1214 H1227 0.985 . S
N1215 C1217 1.356 . S
N1215 H1220 0.984 . S
N1215 H1221 0.985 . S
C1216 C1210 1.379 . S
C1216 C1213 1.363 . S
C1216 N1214 1.356 . S
C1217 C1211 1.363 . S
C1217 C1212 1.379 . S
C1217 N1215 1.356 . S
N1218 C1210 1.356 . S
N1218 H1224 0.984 . S
N1218 H1225 0.984 . S
N1219 C1212 1.356 . S
N1219 H1222 0.984 . S
N1219 H1223 0.985 . S
H1220 N1215 0.984 . S
H1221 N1215 0.985 . S
H1222 N1219 0.984 . S
H1223 N1219 0.985 . S
H1224 N1218 0.984 . S
H1225 N1218 0.984 . S
H1226 N1214 0.984 . S
H1227 N1214 0.985 . S
C1228 C1229 1.363 . S
C1228 C1234 1.379 1_554 S
C1228 N1236 1.356 . S
C1229 C1228 1.363 . S
C1229 C1235 1.363 . S
C1230 C1231 1.363 . S
C1230 C1235 1.379 1_556 S
C1230 N1237 1.356 . S
C1231 C1230 1.363 . S
C1231 C1234 1.363 . S
N1232 C1234 1.356 . S
N1232 H1244 0.984 . S
N1232 H1245 0.985 . S
N1233 C1235 1.356 . S
N1233 H1238 0.984 . S
N1233 H1239 0.985 . S
C1234 C1228 1.379 1_556 S
C1234 C1231 1.363 . S
C1234 N1232 1.356 . S
C1235 C1229 1.363 . S
C1235 C1230 1.379 1_554 S
C1235 N1233 1.356 . S
N1236 C1228 1.356 . S
N1236 H1242 0.984 . S
N1236 H1243 0.984 . S
N1237 C1230 1.356 . S
N1237 H1240 0.984 . S
N1237 H1241 0.985 . S
H1238 N1233 0.984 . S
H1239 N1233 0.985 . S
H1240 N1237 0.984 . S
H1241 N1237 0.985 . S
H1242 N1236 0.984 . S
H1243 N1236 0.984 . S
H1244 N1232 0.984 . S
H1245 N1232 0.985 . S
C1246 C1247 1.363 . S
C1246 C1252 1.379 . S
C1246 N1254 1.356 . S
C1247 C1246 1.363 . S
C1247 C1253 1.363 . S
C1248 C1249 1.363 . S
C1248 C1253 1.379 . S
C1248 N1255 1.356 . S
C1249 C1248 1.363 . S
C1249 C1252 1.363 . S
N1250 C1252 1.356 . S
N1250 H1262 0.984 . S
N1250 H1263 0.985 . S
N1251 C1253 1.356 . S
N1251 H1256 0.984 . S
N1251 H1257 0.985 . S
C1252 C1246 1.379 . S
C1252 C1249 1.363 . S
C1252 N1250 1.356 . S
C1253 C1247 1.363 . S
C1253 C1248 1.379 . S
C1253 N1251 1.356 . S
N1254 C1246 1.356 . S
N1254 H1260 0.984 . S
N1254 H1261 0.984 . S
N1255 C1248 1.356 . S
N1255 H1258 0.984 . S
N1255 H1259 0.985 . S
H1256 N1251 0.984 . S
H1257 N1251 0.985 . S
H1258 N1255 0.984 . S
H1259 N1255 0.985 . S
H1260 N1254 0.984 . S
H1261 N1254 0.984 . S
H1262 N1250 0.984 . S
H1263 N1250 0.985 . S
C545 C9 1.887 . S
C547 C247 1.887 . S
C563 C145 1.887 . S
C565 C43 1.887 . S
C581 C179 1.887 . S
C583 C77 1.887 . S
C599 C111 1.887 . S
C601 C213 1.887 . S
C617 C281 1.887 . S
C619 C519 1.887 . S
C635 C315 1.887 . S
C637 C417 1.887 . S
C653 C451 1.887 . S
C655 C349 1.887 . S
C671 C383 1.887 . S
C673 C485 1.887 . S
C689 C2 1.577 . S
C691 C339 1.483 . S
C707 C373 1.483 . S
C709 C36 1.577 . S
C725 C407 1.483 . S
C727 C70 1.577 . S
C743 C305 1.483 . S
C745 C104 1.577 . S
C761 C543 1.483 . S
C763 C138 1.577 . S
C779 C441 1.483 . S
C781 C172 1.577 . S
C797 C475 1.483 . S
C799 C206 1.577 . S
C815 C509 1.483 . S
C817 C240 1.577 . S
C833 C67 1.483 . S
C835 C274 1.577 . S
C851 C101 1.483 . S
C853 C308 1.577 . S
C869 C135 1.483 . S
C871 C342 1.577 . S
C887 C376 1.577 . S
C889 C33 1.483 . S
C905 C271 1.483 . S
C907 C410 1.577 . S
C923 C169 1.483 . S
C925 C444 1.577 . S
C941 C203 1.483 . S
C943 C478 1.577 . S
C959 C237 1.483 . S
C961 C512 1.577 . S
C977 C73 0.889 . S
C979 C5 0.889 . S
C995 C39 0.889 . S
C997 C107 0.889 . S
C1013 C209 0.889 . S
C1015 C141 0.889 . S
C1031 C243 0.889 . S
C1033 C175 0.889 . S
C1049 C345 0.889 . S
C1051 C277 0.889 . S
C1067 C379 0.889 . S
C1069 C311 0.889 . S
C1085 C413 0.889 . S
C1087 C481 0.889 . S
C1103 C515 0.889 . S
C1105 C447 0.889 . S
C1121 C224 1.523 . S
C1123 C20 1.523 . S
C1139 C258 1.523 . S
C1141 C54 1.523 . S
C1157 C88 1.523 . S
C1159 C156 1.523 . S
C1175 C190 1.523 . S
C1177 C122 1.523 . S
C1193 C496 1.523 . S
C1195 C292 1.523 . S
C1211 C530 1.523 . S
C1213 C326 1.523 . S
C1229 C428 1.523 . S
C1231 C360 1.523 . S
C1247 C394 1.523 . S
C1249 C462 1.523 . S
