# Generated by pormake.
# Topology whq, (6)-cn, num edge types: 1
# Building blocks:
#     Node 0, Type 0, BuildingBlock: OJICUG_clean_sbu_0, # of connection points: 6
#     Node 1, Type 0, BuildingBlock: OJICUG_clean_sbu_0, # of connection points: 6
#     Node 2, Type 0, BuildingBlock: OJICUG_clean_sbu_0, # of connection points: 6
#     Node 3, Type 0, BuildingBlock: OJICUG_clean_sbu_0, # of connection points: 6
#     Node 4, Type 0, BuildingBlock: OJICUG_clean_sbu_0, # of connection points: 6
#     Node 5, Type 0, BuildingBlock: OJICUG_clean_sbu_0, # of connection points: 6
#     Node 6, Type 0, BuildingBlock: OJICUG_clean_sbu_0, # of connection points: 6
#     Node 7, Type 0, BuildingBlock: OJICUG_clean_sbu_0, # of connection points: 6
#     Node 8, Type 0, BuildingBlock: OJICUG_clean_sbu_0, # of connection points: 6
#     Node 9, Type 0, BuildingBlock: OJICUG_clean_sbu_0, # of connection points: 6
#     Node 10, Type 0, BuildingBlock: OJICUG_clean_sbu_0, # of connection points: 6
#     Node 11, Type 0, BuildingBlock: OJICUG_clean_sbu_0, # of connection points: 6
#     Node 12, Type 0, BuildingBlock: OJICUG_clean_sbu_0, # of connection points: 6
#     Node 13, Type 0, BuildingBlock: OJICUG_clean_sbu_0, # of connection points: 6
#     Node 14, Type 0, BuildingBlock: OJICUG_clean_sbu_0, # of connection points: 6
#     Node 15, Type 0, BuildingBlock: OJICUG_clean_sbu_0, # of connection points: 6
#     Node 16, Type 0, BuildingBlock: OJICUG_clean_sbu_0, # of connection points: 6
#     Node 17, Type 0, BuildingBlock: OJICUG_clean_sbu_0, # of connection points: 6
#     Node 18, Type 0, BuildingBlock: OJICUG_clean_sbu_0, # of connection points: 6
#     Node 19, Type 0, BuildingBlock: OJICUG_clean_sbu_0, # of connection points: 6
#     Node 20, Type 0, BuildingBlock: OJICUG_clean_sbu_0, # of connection points: 6
#     Node 21, Type 0, BuildingBlock: OJICUG_clean_sbu_0, # of connection points: 6
#     Node 22, Type 0, BuildingBlock: OJICUG_clean_sbu_0, # of connection points: 6
#     Node 23, Type 0, BuildingBlock: OJICUG_clean_sbu_0, # of connection points: 6
#     Node 24, Type 0, BuildingBlock: OJICUG_clean_sbu_0, # of connection points: 6
#     Node 25, Type 0, BuildingBlock: OJICUG_clean_sbu_0, # of connection points: 6
#     Node 26, Type 0, BuildingBlock: OJICUG_clean_sbu_0, # of connection points: 6
#     Node 27, Type 0, BuildingBlock: OJICUG_clean_sbu_0, # of connection points: 6
#     Node 28, Type 0, BuildingBlock: OJICUG_clean_sbu_0, # of connection points: 6
#     Node 29, Type 0, BuildingBlock: OJICUG_clean_sbu_0, # of connection points: 6
#     Node 30, Type 0, BuildingBlock: OJICUG_clean_sbu_0, # of connection points: 6
#     Node 31, Type 0, BuildingBlock: OJICUG_clean_sbu_0, # of connection points: 6
#     Edge 32, Type (0, 0), BuildingBlock: OJICUG_clean_linker_0, # of connection points: 2
#     Edge 33, Type (0, 0), BuildingBlock: OJICUG_clean_linker_0, # of connection points: 2
#     Edge 34, Type (0, 0), BuildingBlock: OJICUG_clean_linker_0, # of connection points: 2
#     Edge 35, Type (0, 0), BuildingBlock: OJICUG_clean_linker_0, # of connection points: 2
#     Edge 36, Type (0, 0), BuildingBlock: OJICUG_clean_linker_0, # of connection points: 2
#     Edge 37, Type (0, 0), BuildingBlock: OJICUG_clean_linker_0, # of connection points: 2
#     Edge 38, Type (0, 0), BuildingBlock: OJICUG_clean_linker_0, # of connection points: 2
#     Edge 39, Type (0, 0), BuildingBlock: OJICUG_clean_linker_0, # of connection points: 2
#     Edge 40, Type (0, 0), BuildingBlock: OJICUG_clean_linker_0, # of connection points: 2
#     Edge 41, Type (0, 0), BuildingBlock: OJICUG_clean_linker_0, # of connection points: 2
#     Edge 42, Type (0, 0), BuildingBlock: OJICUG_clean_linker_0, # of connection points: 2
#     Edge 43, Type (0, 0), BuildingBlock: OJICUG_clean_linker_0, # of connection points: 2
#     Edge 44, Type (0, 0), BuildingBlock: OJICUG_clean_linker_0, # of connection points: 2
#     Edge 45, Type (0, 0), BuildingBlock: OJICUG_clean_linker_0, # of connection points: 2
#     Edge 46, Type (0, 0), BuildingBlock: OJICUG_clean_linker_0, # of connection points: 2
#     Edge 47, Type (0, 0), BuildingBlock: OJICUG_clean_linker_0, # of connection points: 2
#     Edge 48, Type (0, 0), BuildingBlock: OJICUG_clean_linker_0, # of connection points: 2
#     Edge 49, Type (0, 0), BuildingBlock: OJICUG_clean_linker_0, # of connection points: 2
#     Edge 50, Type (0, 0), BuildingBlock: OJICUG_clean_linker_0, # of connection points: 2
#     Edge 51, Type (0, 0), BuildingBlock: OJICUG_clean_linker_0, # of connection points: 2
#     Edge 52, Type (0, 0), BuildingBlock: OJICUG_clean_linker_0, # of connection points: 2
#     Edge 53, Type (0, 0), BuildingBlock: OJICUG_clean_linker_0, # of connection points: 2
#     Edge 54, Type (0, 0), BuildingBlock: OJICUG_clean_linker_0, # of connection points: 2
#     Edge 55, Type (0, 0), BuildingBlock: OJICUG_clean_linker_0, # of connection points: 2
#     Edge 56, Type (0, 0), BuildingBlock: OJICUG_clean_linker_0, # of connection points: 2
#     Edge 57, Type (0, 0), BuildingBlock: OJICUG_clean_linker_0, # of connection points: 2
#     Edge 58, Type (0, 0), BuildingBlock: OJICUG_clean_linker_0, # of connection points: 2
#     Edge 59, Type (0, 0), BuildingBlock: OJICUG_clean_linker_0, # of connection points: 2
#     Edge 60, Type (0, 0), BuildingBlock: OJICUG_clean_linker_0, # of connection points: 2
#     Edge 61, Type (0, 0), BuildingBlock: OJICUG_clean_linker_0, # of connection points: 2
#     Edge 62, Type (0, 0), BuildingBlock: OJICUG_clean_linker_0, # of connection points: 2
#     Edge 63, Type (0, 0), BuildingBlock: OJICUG_clean_linker_0, # of connection points: 2
#     Edge 64, Type (0, 0), BuildingBlock: OJICUG_clean_linker_0, # of connection points: 2
#     Edge 65, Type (0, 0), BuildingBlock: OJICUG_clean_linker_0, # of connection points: 2
#     Edge 66, Type (0, 0), BuildingBlock: OJICUG_clean_linker_0, # of connection points: 2
#     Edge 67, Type (0, 0), BuildingBlock: OJICUG_clean_linker_0, # of connection points: 2
#     Edge 68, Type (0, 0), BuildingBlock: OJICUG_clean_linker_0, # of connection points: 2
#     Edge 69, Type (0, 0), BuildingBlock: OJICUG_clean_linker_0, # of connection points: 2
#     Edge 70, Type (0, 0), BuildingBlock: OJICUG_clean_linker_0, # of connection points: 2
#     Edge 71, Type (0, 0), BuildingBlock: OJICUG_clean_linker_0, # of connection points: 2
#     Edge 72, Type (0, 0), BuildingBlock: OJICUG_clean_linker_0, # of connection points: 2
#     Edge 73, Type (0, 0), BuildingBlock: OJICUG_clean_linker_0, # of connection points: 2
#     Edge 74, Type (0, 0), BuildingBlock: OJICUG_clean_linker_0, # of connection points: 2
#     Edge 75, Type (0, 0), BuildingBlock: OJICUG_clean_linker_0, # of connection points: 2
#     Edge 76, Type (0, 0), BuildingBlock: OJICUG_clean_linker_0, # of connection points: 2
#     Edge 77, Type (0, 0), BuildingBlock: OJICUG_clean_linker_0, # of connection points: 2
#     Edge 78, Type (0, 0), BuildingBlock: OJICUG_clean_linker_0, # of connection points: 2
#     Edge 79, Type (0, 0), BuildingBlock: OJICUG_clean_linker_0, # of connection points: 2
#     Edge 80, Type (0, 0), BuildingBlock: OJICUG_clean_linker_0, # of connection points: 2
#     Edge 81, Type (0, 0), BuildingBlock: OJICUG_clean_linker_0, # of connection points: 2
#     Edge 82, Type (0, 0), BuildingBlock: OJICUG_clean_linker_0, # of connection points: 2
#     Edge 83, Type (0, 0), BuildingBlock: OJICUG_clean_linker_0, # of connection points: 2
#     Edge 84, Type (0, 0), BuildingBlock: OJICUG_clean_linker_0, # of connection points: 2
#     Edge 85, Type (0, 0), BuildingBlock: OJICUG_clean_linker_0, # of connection points: 2
#     Edge 86, Type (0, 0), BuildingBlock: OJICUG_clean_linker_0, # of connection points: 2
#     Edge 87, Type (0, 0), BuildingBlock: OJICUG_clean_linker_0, # of connection points: 2
#     Edge 88, Type (0, 0), BuildingBlock: OJICUG_clean_linker_0, # of connection points: 2
#     Edge 89, Type (0, 0), BuildingBlock: OJICUG_clean_linker_0, # of connection points: 2
#     Edge 90, Type (0, 0), BuildingBlock: OJICUG_clean_linker_0, # of connection points: 2
#     Edge 91, Type (0, 0), BuildingBlock: OJICUG_clean_linker_0, # of connection points: 2
#     Edge 92, Type (0, 0), BuildingBlock: OJICUG_clean_linker_0, # of connection points: 2
#     Edge 93, Type (0, 0), BuildingBlock: OJICUG_clean_linker_0, # of connection points: 2
#     Edge 94, Type (0, 0), BuildingBlock: OJICUG_clean_linker_0, # of connection points: 2
#     Edge 95, Type (0, 0), BuildingBlock: OJICUG_clean_linker_0, # of connection points: 2
#     Edge 96, Type (0, 0), BuildingBlock: OJICUG_clean_linker_0, # of connection points: 2
#     Edge 97, Type (0, 0), BuildingBlock: OJICUG_clean_linker_0, # of connection points: 2
#     Edge 98, Type (0, 0), BuildingBlock: OJICUG_clean_linker_0, # of connection points: 2
#     Edge 99, Type (0, 0), BuildingBlock: OJICUG_clean_linker_0, # of connection points: 2
#     Edge 100, Type (0, 0), BuildingBlock: OJICUG_clean_linker_0, # of connection points: 2
#     Edge 101, Type (0, 0), BuildingBlock: OJICUG_clean_linker_0, # of connection points: 2
#     Edge 102, Type (0, 0), BuildingBlock: OJICUG_clean_linker_0, # of connection points: 2
#     Edge 103, Type (0, 0), BuildingBlock: OJICUG_clean_linker_0, # of connection points: 2
#     Edge 104, Type (0, 0), BuildingBlock: OJICUG_clean_linker_0, # of connection points: 2
#     Edge 105, Type (0, 0), BuildingBlock: OJICUG_clean_linker_0, # of connection points: 2
#     Edge 106, Type (0, 0), BuildingBlock: OJICUG_clean_linker_0, # of connection points: 2
#     Edge 107, Type (0, 0), BuildingBlock: OJICUG_clean_linker_0, # of connection points: 2
#     Edge 108, Type (0, 0), BuildingBlock: OJICUG_clean_linker_0, # of connection points: 2
#     Edge 109, Type (0, 0), BuildingBlock: OJICUG_clean_linker_0, # of connection points: 2
#     Edge 110, Type (0, 0), BuildingBlock: OJICUG_clean_linker_0, # of connection points: 2
#     Edge 111, Type (0, 0), BuildingBlock: OJICUG_clean_linker_0, # of connection points: 2
#     Edge 112, Type (0, 0), BuildingBlock: OJICUG_clean_linker_0, # of connection points: 2
#     Edge 113, Type (0, 0), BuildingBlock: OJICUG_clean_linker_0, # of connection points: 2
#     Edge 114, Type (0, 0), BuildingBlock: OJICUG_clean_linker_0, # of connection points: 2
#     Edge 115, Type (0, 0), BuildingBlock: OJICUG_clean_linker_0, # of connection points: 2
#     Edge 116, Type (0, 0), BuildingBlock: OJICUG_clean_linker_0, # of connection points: 2
#     Edge 117, Type (0, 0), BuildingBlock: OJICUG_clean_linker_0, # of connection points: 2
#     Edge 118, Type (0, 0), BuildingBlock: OJICUG_clean_linker_0, # of connection points: 2
#     Edge 119, Type (0, 0), BuildingBlock: OJICUG_clean_linker_0, # of connection points: 2
#     Edge 120, Type (0, 0), BuildingBlock: OJICUG_clean_linker_0, # of connection points: 2
#     Edge 121, Type (0, 0), BuildingBlock: OJICUG_clean_linker_0, # of connection points: 2
#     Edge 122, Type (0, 0), BuildingBlock: OJICUG_clean_linker_0, # of connection points: 2
#     Edge 123, Type (0, 0), BuildingBlock: OJICUG_clean_linker_0, # of connection points: 2
#     Edge 124, Type (0, 0), BuildingBlock: OJICUG_clean_linker_0, # of connection points: 2
#     Edge 125, Type (0, 0), BuildingBlock: OJICUG_clean_linker_0, # of connection points: 2
#     Edge 126, Type (0, 0), BuildingBlock: OJICUG_clean_linker_0, # of connection points: 2
#     Edge 127, Type (0, 0), BuildingBlock: OJICUG_clean_linker_0, # of connection points: 2
# Relax obj value: 0.346
# Max RMSD: 0.215
# Mean RMSD: 0.215
data_MOF--net-whq--node1-OJICUG_clean_sbu_0--edge1-OJICUG_clean_linker_0
_symmetry_space_group_name_H-M    P1
_symmetry_Int_Tables_number       1
_symmetry_cell_setting            triclinic
loop_
_symmetry_equiv_pos_as_xyz
'x, y, z'
_cell_length_a     39.548312
_cell_length_b     39.571958
_cell_length_c     43.815183
_cell_angle_alpha  89.959497
_cell_angle_beta   89.975544
_cell_angle_gamma 89.990592
loop_
_atom_site_label
_atom_site_type_symbol
_atom_site_fract_x
_atom_site_fract_y
_atom_site_fract_z
_atom_type_partial_charge
Sc0 Sc 0.11992 0.19357 0.11956 0.0
Sc1 Sc 0.03729 0.22906 0.11878 0.0
Sc2 Sc 0.05868 0.16433 0.17033 0.0
O3 O 0.07188 0.19559 0.13601 0.0
C4 C 0.10512 0.11577 0.12945 0.0
C5 C 0.07597 0.2052 0.05912 0.0
C6 C -0.00749 0.16269 0.12919 0.0
C7 C 0.10467 0.27245 0.12198 0.0
C8 C 0.13264 0.18484 0.19089 0.0
C9 C 0.02222 0.23311 0.18944 0.0
O10 O 0.11989 0.13944 0.11504 0.0
O11 O 0.04979 0.21609 0.07272 0.0
O12 O 0.01296 0.14935 0.148 0.0
O13 O 0.12426 0.24709 0.12339 0.0
O14 O 0.10235 0.1766 0.1966 0.0
O15 O 0.02087 0.2462 0.16305 0.0
O16 O 0.14362 0.18973 0.164 0.0
O17 O 0.07285 0.27043 0.11863 0.0
O18 O 0.03389 0.20384 0.19467 0.0
O19 O 0.10298 0.1971 0.07303 0.0
O20 O 0.0832 0.12124 0.15012 0.0
O21 O -0.00252 0.1916 0.11723 0.0
Sc22 Sc 0.81186 0.05789 0.16958 0.0
Sc23 Sc 0.74632 0.03702 0.11874 0.0
Sc24 Sc 0.78175 0.1196 0.11979 0.0
O25 O 0.78003 0.07141 0.13584 0.0
C26 C 0.79179 0.13154 0.19109 0.0
C27 C 0.74332 0.02112 0.18927 0.0
C28 C 0.70296 0.10444 0.12286 0.0
C29 C 0.81279 -0.008 0.12829 0.0
C30 C 0.85967 0.10484 0.12832 0.0
C31 C 0.76953 0.07614 0.05915 0.0
O32 O 0.79982 0.10114 0.19646 0.0
O33 O 0.72958 0.02049 0.16312 0.0
O34 O 0.72836 0.12394 0.12455 0.0
O35 O 0.82668 0.01255 0.14665 0.0
O36 O 0.83574 0.11958 0.11428 0.0
O37 O 0.75914 0.04969 0.07265 0.0
O38 O 0.8546 0.08284 0.14902 0.0
O39 O 0.78357 -0.00303 0.11693 0.0
O40 O 0.77734 0.10313 0.07318 0.0
O41 O 0.77279 0.03249 0.19414 0.0
O42 O 0.78662 0.14283 0.16435 0.0
O43 O 0.70497 0.07272 0.11885 0.0
Sc44 Sc 0.85569 0.78055 0.12045 0.0
Sc45 Sc 0.93896 0.74653 0.11967 0.0
Sc46 Sc 0.91674 0.8115 0.17066 0.0
O47 O 0.90387 0.77956 0.13675 0.0
C48 C 0.86953 0.85874 0.12924 0.0
C49 C 0.89975 0.76955 0.0599 0.0
C50 C 0.98308 0.81333 0.12966 0.0
C51 C 0.87236 0.70199 0.12304 0.0
C52 C 0.84303 0.78993 0.19175 0.0
C53 C 0.95454 0.74361 0.19041 0.0
O54 O 0.85458 0.8346 0.11571 0.0
O55 O 0.92603 0.7589 0.07351 0.0
O56 O 0.96251 0.82662 0.14841 0.0
O57 O 0.85232 0.72699 0.12425 0.0
O58 O 0.87307 0.79929 0.19707 0.0
O59 O 0.95603 0.73036 0.16408 0.0
O60 O 0.83206 0.78395 0.16504 0.0
O61 O 0.90417 0.70455 0.11994 0.0
O62 O 0.94202 0.77256 0.19552 0.0
O63 O 0.87265 0.77741 0.07382 0.0
O64 O 0.89194 0.85401 0.14962 0.0
O65 O 0.97821 0.78445 0.11769 0.0
Sc66 Sc 0.19505 0.85547 0.11959 0.0
Sc67 Sc 0.22922 0.93864 0.11983 0.0
Sc68 Sc 0.16502 0.91569 0.17132 0.0
O69 O 0.19647 0.90327 0.13679 0.0
C70 C 0.11668 0.86961 0.1308 0.0
C71 C 0.20425 0.90034 0.05969 0.0
C72 C 0.16299 0.98282 0.13088 0.0
C73 C 0.27398 0.87241 0.11931 0.0
C74 C 0.18761 0.8413 0.19072 0.0
C75 C 0.23322 0.95239 0.19103 0.0
O76 O 0.1407 0.85337 0.11833 0.0
O77 O 0.21749 0.92532 0.07347 0.0
O78 O 0.15093 0.96287 0.15082 0.0
O79 O 0.24898 0.85233 0.11859 0.0
O80 O 0.17589 0.8705 0.1961 0.0
O81 O 0.245 0.95607 0.16428 0.0
O82 O 0.19563 0.83127 0.16411 0.0
O83 O 0.27139 0.90432 0.12044 0.0
O84 O 0.20503 0.93845 0.19663 0.0
O85 O 0.1943 0.87379 0.07339 0.0
O86 O 0.12162 0.89331 0.14983 0.0
O87 O 0.19089 0.97734 0.11731 0.0
Sc88 Sc 0.06313 0.81203 0.31601 0.0
Sc89 Sc 0.04002 0.74758 0.3672 0.0
Sc90 Sc 0.12321 0.78172 0.36772 0.0
O91 O 0.07545 0.78037 0.3504 0.0
C92 C 0.13761 0.78942 0.29672 0.0
C93 C 0.02633 0.74405 0.29593 0.0
C94 C 0.10624 0.70283 0.3681 0.0
C95 C -0.00424 0.81371 0.35611 0.0
C96 C 0.10922 0.86006 0.35669 0.0
C97 C 0.078 0.77295 0.42742 0.0
O98 O 0.10854 0.80154 0.29145 0.0
O99 O 0.02255 0.7322 0.32265 0.0
O100 O 0.12622 0.72788 0.36916 0.0
O101 O 0.01575 0.82581 0.33624 0.0
O102 O 0.12564 0.83594 0.36875 0.0
O103 O 0.05325 0.75919 0.41367 0.0
O104 O 0.08523 0.85533 0.33789 0.0
O105 O 0.0013 0.78589 0.36977 0.0
O106 O 0.10451 0.78303 0.41374 0.0
O107 O 0.04053 0.77212 0.2904 0.0
O108 O 0.14752 0.78082 0.32323 0.0
O109 O 0.07433 0.70535 0.36639 0.0
Sc110 Sc 0.19725 0.12073 0.36722 0.0
Sc111 Sc 0.23228 0.03793 0.36793 0.0
Sc112 Sc 0.16682 0.05945 0.31719 0.0
O113 O 0.19873 0.07262 0.35098 0.0
C114 C 0.11926 0.10622 0.35876 0.0
C115 C 0.20959 0.07707 0.42776 0.0
C116 C 0.16559 -0.00659 0.35841 0.0
C117 C 0.27597 0.10505 0.36366 0.0
C118 C 0.18718 0.13319 0.29599 0.0
C119 C 0.23494 0.02219 0.29726 0.0
O120 O 0.14325 0.12099 0.37267 0.0
O121 O 0.2201 0.05074 0.41418 0.0
O122 O 0.152 0.01392 0.3398 0.0
O123 O 0.25068 0.12474 0.36249 0.0
O124 O 0.17883 0.1029 0.29057 0.0
O125 O 0.24848 0.02102 0.32349 0.0
O126 O 0.19257 0.14429 0.32274 0.0
O127 O 0.27387 0.07327 0.36727 0.0
O128 O 0.20574 0.03422 0.29234 0.0
O129 O 0.20152 0.10404 0.41378 0.0
O130 O 0.12423 0.08424 0.33806 0.0
O131 O 0.19465 -0.00167 0.37009 0.0
Sc132 Sc 0.92015 0.16457 0.31667 0.0
Sc133 Sc 0.94132 0.22987 0.36761 0.0
Sc134 Sc 0.85882 0.19407 0.36719 0.0
O135 O 0.90685 0.1961 0.35071 0.0
C136 C 0.8461 0.18449 0.29595 0.0
C137 C 0.95641 0.23326 0.29693 0.0
C138 C 0.8738 0.27295 0.36379 0.0
C139 C 0.98627 0.16353 0.3579 0.0
C140 C 0.8738 0.11628 0.35796 0.0
C141 C 0.90273 0.2065 0.42751 0.0
O142 O 0.87645 0.17648 0.29027 0.0
O143 O 0.95771 0.2466 0.3232 0.0
O144 O 0.85431 0.2475 0.36271 0.0
O145 O 0.96587 0.14994 0.3392 0.0
O146 O 0.85906 0.14001 0.37228 0.0
O147 O 0.92885 0.21736 0.41379 0.0
O148 O 0.89567 0.12164 0.33722 0.0
O149 O 0.98122 0.19256 0.36957 0.0
O150 O 0.87573 0.19818 0.4137 0.0
O151 O 0.94484 0.20391 0.29197 0.0
O152 O 0.83511 0.18953 0.32281 0.0
O153 O 0.90562 0.2711 0.36723 0.0
Sc154 Sc 0.81348 0.91654 0.31579 0.0
Sc155 Sc 0.74921 0.93936 0.36719 0.0
Sc156 Sc 0.78416 0.85655 0.36807 0.0
O157 O 0.78225 0.90415 0.35046 0.0
C158 C 0.79118 0.84186 0.29715 0.0
C159 C 0.74504 0.95266 0.29596 0.0
C160 C 0.705 0.87293 0.36845 0.0
C161 C 0.81519 0.98376 0.35608 0.0
C162 C 0.8624 0.87088 0.35605 0.0
C163 C 0.77499 0.9017 0.42748 0.0
O164 O 0.80303 0.87097 0.29156 0.0
O165 O 0.73351 0.95679 0.32272 0.0
O166 O 0.73025 0.85319 0.36994 0.0
O167 O 0.8271 0.96399 0.33594 0.0
O168 O 0.83853 0.85447 0.36857 0.0
O169 O 0.76077 0.92611 0.41362 0.0
O170 O 0.85721 0.89478 0.33725 0.0
O171 O 0.78746 0.97811 0.36988 0.0
O172 O 0.7857 0.87539 0.41394 0.0
O173 O 0.77315 0.93859 0.29036 0.0
O174 O 0.78297 0.83207 0.32379 0.0
O175 O 0.70725 0.9048 0.36622 0.0
Sc176 Sc 0.85667 0.78256 0.86757 0.0
Sc177 Sc 0.93983 0.74816 0.86824 0.0
Sc178 Sc 0.91805 0.81385 0.8178 0.0
O179 O 0.90492 0.78156 0.85139 0.0
C180 C 0.84438 0.7929 0.79637 0.0
C181 C 0.87308 0.70394 0.86389 0.0
C182 C 0.95582 0.7462 0.79749 0.0
C183 C 0.90025 0.7704 0.92814 0.0
C184 C 0.87072 0.86079 0.85937 0.0
C185 C 0.98404 0.81507 0.85927 0.0
O186 O 0.83328 0.78668 0.82299 0.0
O187 O 0.9049 0.70628 0.86702 0.0
O188 O 0.94329 0.77519 0.79261 0.0
O189 O 0.87334 0.77874 0.91418 0.0
O190 O 0.89324 0.85616 0.83905 0.0
O191 O 0.97908 0.78606 0.87101 0.0
O192 O 0.85568 0.83658 0.87276 0.0
O193 O 0.92651 0.75968 0.91453 0.0
O194 O 0.96369 0.8285 0.84042 0.0
O195 O 0.85315 0.72906 0.86317 0.0
O196 O 0.87449 0.80212 0.79116 0.0
O197 O 0.95729 0.73267 0.82373 0.0
Sc198 Sc 0.19552 0.85735 0.86722 0.0
Sc199 Sc 0.22988 0.94045 0.86831 0.0
Sc200 Sc 0.16479 0.91875 0.8172 0.0
O201 O 0.19669 0.90558 0.85108 0.0
C202 C 0.18618 0.84503 0.79587 0.0
C203 C 0.27425 0.87378 0.86456 0.0
C204 C 0.23299 0.95595 0.7975 0.0
C205 C 0.20633 0.90104 0.92795 0.0
C206 C 0.11728 0.87174 0.85843 0.0
C207 C 0.16325 0.98486 0.85856 0.0
O208 O 0.19251 0.83397 0.8225 0.0
O209 O 0.27181 0.90559 0.8675 0.0
O210 O 0.20405 0.94345 0.7923 0.0
O211 O 0.19819 0.87414 0.91389 0.0
O212 O 0.12207 0.89444 0.83831 0.0
O213 O 0.192 0.97973 0.87074 0.0
O214 O 0.14139 0.85634 0.87162 0.0
O215 O 0.21758 0.92716 0.91448 0.0
O216 O 0.15012 0.96463 0.83946 0.0
O217 O 0.24915 0.85384 0.86367 0.0
O218 O 0.17649 0.875 0.79073 0.0
O219 O 0.24601 0.95775 0.82392 0.0
Sc220 Sc 0.12085 0.19615 0.8672 0.0
Sc221 Sc 0.03791 0.23101 0.86779 0.0
Sc222 Sc 0.05964 0.16572 0.81697 0.0
O223 O 0.07273 0.19758 0.85084 0.0
C224 C 0.13355 0.18667 0.79601 0.0
C225 C 0.10491 0.27493 0.86415 0.0
C226 C 0.02302 0.23412 0.79699 0.0
C227 C 0.07677 0.20745 0.92757 0.0
C228 C 0.1063 0.11803 0.85837 0.0
C229 C -0.00663 0.16443 0.85817 0.0
O230 O 0.1445 0.19267 0.82271 0.0
O231 O 0.07307 0.2727 0.86717 0.0
O232 O 0.03512 0.20498 0.792 0.0
O233 O 0.10378 0.19928 0.91369 0.0
O234 O 0.08388 0.12296 0.83804 0.0
O235 O -0.00164 0.19334 0.87005 0.0
O236 O 0.12151 0.14204 0.87186 0.0
O237 O 0.05071 0.21862 0.91396 0.0
O238 O 0.01373 0.15112 0.83926 0.0
O239 O 0.12471 0.2497 0.86331 0.0
O240 O 0.10349 0.1774 0.79065 0.0
O241 O 0.02122 0.24732 0.82332 0.0
Sc242 Sc 0.8132 0.05985 0.81745 0.0
Sc243 Sc 0.74681 0.0388 0.86741 0.0
Sc244 Sc 0.78262 0.12128 0.86733 0.0
O245 O 0.78092 0.07323 0.85093 0.0
C246 C 0.86067 0.10637 0.85925 0.0
C247 C 0.81331 -0.00628 0.85865 0.0
C248 C 0.76958 0.07729 0.92753 0.0
C249 C 0.74483 0.02361 0.79669 0.0
C250 C 0.79337 0.13379 0.7962 0.0
C251 C 0.70373 0.10634 0.86325 0.0
O252 O 0.8558 0.08425 0.83867 0.0
O253 O 0.78402 -0.00123 0.86984 0.0
O254 O 0.77811 0.10428 0.91379 0.0
O255 O 0.77432 0.03513 0.79217 0.0
O256 O 0.78755 0.14487 0.8229 0.0
O257 O 0.70551 0.07451 0.86657 0.0
O258 O 0.80188 0.10353 0.79083 0.0
O259 O 0.7309 0.02246 0.82275 0.0
O260 O 0.72923 0.12577 0.86247 0.0
O261 O 0.82735 0.01416 0.84024 0.0
O262 O 0.83661 0.12132 0.87293 0.0
O263 O 0.7587 0.05126 0.91373 0.0
Sc264 Sc 0.92072 0.16641 0.6695 0.0
Sc265 Sc 0.94168 0.23199 0.61867 0.0
Sc266 Sc 0.85904 0.19658 0.61967 0.0
O267 O 0.90722 0.19828 0.63576 0.0
C268 C 0.87388 0.11863 0.62834 0.0
C269 C 0.98669 0.1656 0.62813 0.0
C270 C 0.90275 0.2084 0.55909 0.0
C271 C 0.95712 0.23501 0.68928 0.0
C272 C 0.84694 0.18668 0.69095 0.0
C273 C 0.87431 0.27537 0.62258 0.0
O274 O 0.89608 0.12365 0.64884 0.0
O275 O 0.98168 0.19476 0.61672 0.0
O276 O 0.87573 0.20049 0.57308 0.0
O277 O 0.94572 0.20556 0.69415 0.0
O278 O 0.83572 0.1922 0.66425 0.0
O279 O 0.90608 0.27335 0.61884 0.0
O280 O 0.87724 0.17818 0.69626 0.0
O281 O 0.95809 0.24866 0.66309 0.0
O282 O 0.85476 0.25001 0.62406 0.0
O283 O 0.96624 0.15179 0.64667 0.0
O284 O 0.85889 0.14258 0.61454 0.0
O285 O 0.92903 0.21918 0.57259 0.0
Sc286 Sc 0.81386 0.91967 0.67009 0.0
Sc287 Sc 0.7493 0.94166 0.61855 0.0
Sc288 Sc 0.78383 0.85863 0.61951 0.0
O289 O 0.78236 0.90671 0.63588 0.0
C290 C 0.86191 0.87273 0.62932 0.0
C291 C 0.81594 0.98591 0.62901 0.0
C292 C 0.77361 0.90287 0.55901 0.0
C293 C 0.74537 0.95666 0.6893 0.0
C294 C 0.79244 0.84586 0.69083 0.0
C295 C 0.70503 0.87484 0.62124 0.0
O296 O 0.8568 0.89515 0.64959 0.0
O297 O 0.78711 0.98106 0.6169 0.0
O298 O 0.78144 0.87582 0.57298 0.0
O299 O 0.77444 0.94451 0.69458 0.0
O300 O 0.78671 0.83495 0.66406 0.0
O301 O 0.70749 0.90666 0.61836 0.0
O302 O 0.80163 0.87591 0.6963 0.0
O303 O 0.73239 0.95832 0.66287 0.0
O304 O 0.73014 0.85492 0.62261 0.0
O305 O 0.82904 0.96544 0.64793 0.0
O306 O 0.83801 0.85773 0.61549 0.0
O307 O 0.76236 0.92896 0.57249 0.0
Sc308 Sc 0.06222 0.81433 0.67011 0.0
Sc309 Sc 0.0397 0.74914 0.61955 0.0
Sc310 Sc 0.1226 0.78401 0.61873 0.0
O311 O 0.07484 0.78241 0.63604 0.0
C312 C 0.10834 0.86236 0.62943 0.0
C313 C -0.00501 0.81517 0.62991 0.0
C314 C 0.07752 0.77442 0.55912 0.0
C315 C 0.02596 0.74622 0.69085 0.0
C316 C 0.13672 0.79224 0.68966 0.0
C317 C 0.10631 0.70494 0.61854 0.0
O318 O 0.08422 0.85761 0.64809 0.0
O319 O 0.00059 0.7871 0.61674 0.0
O320 O 0.10391 0.78493 0.57271 0.0
O321 O 0.03971 0.77458 0.696 0.0
O322 O 0.14677 0.78346 0.66325 0.0
O323 O 0.07438 0.70716 0.6204 0.0
O324 O 0.10757 0.80426 0.6948 0.0
O325 O 0.02244 0.73388 0.66429 0.0
O326 O 0.12602 0.7302 0.6174 0.0
O327 O 0.01495 0.8277 0.64956 0.0
O328 O 0.12486 0.83824 0.6175 0.0
O329 O 0.05288 0.76054 0.57298 0.0
Sc330 Sc 0.19787 0.12253 0.61958 0.0
Sc331 Sc 0.23263 0.0396 0.6197 0.0
Sc332 Sc 0.16677 0.06166 0.66984 0.0
O333 O 0.19906 0.07453 0.63619 0.0
C334 C 0.18752 0.13546 0.69068 0.0
C335 C 0.27658 0.10658 0.62316 0.0
C336 C 0.23472 0.0246 0.69053 0.0
C337 C 0.21004 0.07814 0.55947 0.0
C338 C 0.11969 0.10838 0.62786 0.0
C339 C 0.16574 -0.00468 0.62912 0.0
O340 O 0.19347 0.14639 0.66394 0.0
O341 O 0.27435 0.07477 0.62005 0.0
O342 O 0.20546 0.03663 0.69514 0.0
O343 O 0.20191 0.10528 0.57316 0.0
O344 O 0.12439 0.08628 0.64851 0.0
O345 O 0.19495 7e-05 0.61767 0.0
O346 O 0.14385 0.1232 0.6142 0.0
O347 O 0.22066 0.05201 0.57333 0.0
O348 O 0.15203 0.01596 0.6475 0.0
O349 O 0.25135 0.12637 0.62407 0.0
O350 O 0.17859 0.10534 0.69616 0.0
O351 O 0.24851 0.02317 0.66441 0.0
Sc352 Sc 0.62305 0.69795 0.61696 0.0
Sc353 Sc 0.53974 0.732 0.6169 0.0
Sc354 Sc 0.5623 0.66659 0.66736 0.0
O355 O 0.57498 0.69884 0.63359 0.0
C356 C 0.60923 0.61962 0.62565 0.0
C357 C 0.5784 0.70871 0.5568 0.0
C358 C 0.49574 0.66513 0.6267 0.0
C359 C 0.60633 0.77659 0.61977 0.0
C360 C 0.63617 0.68817 0.68805 0.0
C361 C 0.52494 0.73436 0.68788 0.0
O362 O 0.62447 0.64387 0.61253 0.0
O363 O 0.55248 0.72005 0.57053 0.0
O364 O 0.51625 0.6519 0.6455 0.0
O365 O 0.62639 0.75158 0.62033 0.0
O366 O 0.60632 0.67819 0.69336 0.0
O367 O 0.52288 0.74767 0.66157 0.0
O368 O 0.64696 0.69491 0.66141 0.0
O369 O 0.57444 0.77405 0.61746 0.0
O370 O 0.53766 0.70545 0.69275 0.0
O371 O 0.60549 0.70052 0.57056 0.0
O372 O 0.58654 0.62417 0.64581 0.0
O373 O 0.50059 0.69401 0.61469 0.0
Sc374 Sc 0.31417 0.56218 0.66777 0.0
Sc375 Sc 0.24923 0.53965 0.61696 0.0
Sc376 Sc 0.2843 0.6224 0.616 0.0
O377 O 0.2825 0.57474 0.63349 0.0
C378 C 0.29218 0.63681 0.68691 0.0
C379 C 0.24584 0.52619 0.68826 0.0
C380 C 0.20513 0.60626 0.61596 0.0
C381 C 0.31519 0.49496 0.62753 0.0
C382 C 0.36261 0.60792 0.62713 0.0
C383 C 0.27495 0.57719 0.55654 0.0
O384 O 0.30413 0.60768 0.69223 0.0
O385 O 0.23383 0.52238 0.66162 0.0
O386 O 0.23043 0.62592 0.61449 0.0
O387 O 0.32749 0.5148 0.6474 0.0
O388 O 0.3386 0.62447 0.61504 0.0
O389 O 0.26072 0.55277 0.57041 0.0
O390 O 0.35768 0.5839 0.64586 0.0
O391 O 0.28725 0.50063 0.61412 0.0
O392 O 0.28556 0.60354 0.57008 0.0
O393 O 0.27413 0.54004 0.69356 0.0
O394 O 0.28354 0.64673 0.66041 0.0
O395 O 0.20731 0.57437 0.61805 0.0
Sc396 Sc 0.3589 0.28431 0.61726 0.0
Sc397 Sc 0.44173 0.24921 0.6166 0.0
Sc398 Sc 0.42017 0.31444 0.66752 0.0
O399 O 0.40701 0.28271 0.63359 0.0
C400 C 0.37341 0.36228 0.62627 0.0
C401 C 0.40276 0.27244 0.55683 0.0
C402 C 0.48626 0.31583 0.62615 0.0
C403 C 0.37461 0.20553 0.62056 0.0
C404 C 0.34628 0.2939 0.68849 0.0
C405 C 0.45697 0.24606 0.68729 0.0
O406 O 0.35854 0.33838 0.6123 0.0
O407 O 0.42894 0.26158 0.57044 0.0
O408 O 0.46587 0.32923 0.64498 0.0
O409 O 0.35488 0.23081 0.62157 0.0
O410 O 0.37651 0.30249 0.69399 0.0
O411 O 0.45846 0.23277 0.661 0.0
O412 O 0.33528 0.28842 0.66172 0.0
O413 O 0.40642 0.20766 0.61721 0.0
O414 O 0.44503 0.27526 0.6923 0.0
O415 O 0.37576 0.2806 0.57073 0.0
O416 O 0.39556 0.35717 0.6468 0.0
O417 O 0.48132 0.28683 0.6144 0.0
Sc418 Sc 0.69709 0.35888 0.61745 0.0
Sc419 Sc 0.73253 0.4415 0.61657 0.0
Sc420 Sc 0.6663 0.42068 0.66681 0.0
O421 O 0.69859 0.4071 0.63341 0.0
C422 C 0.61899 0.37371 0.62531 0.0
C423 C 0.7098 0.40227 0.55682 0.0
C424 C 0.66599 0.48651 0.62526 0.0
C425 C 0.77589 0.37419 0.62124 0.0
C426 C 0.68636 0.34701 0.68866 0.0
C427 C 0.73459 0.4573 0.68721 0.0
O428 O 0.6431 0.35864 0.61181 0.0
O429 O 0.72049 0.42858 0.57033 0.0
O430 O 0.65201 0.46614 0.64376 0.0
O431 O 0.75048 0.35466 0.62236 0.0
O432 O 0.67773 0.37729 0.69378 0.0
O433 O 0.74851 0.45824 0.66113 0.0
O434 O 0.69223 0.3357 0.66205 0.0
O435 O 0.77395 0.40595 0.6175 0.0
O436 O 0.70514 0.44572 0.69185 0.0
O437 O 0.70155 0.37539 0.57086 0.0
O438 O 0.62378 0.39601 0.64574 0.0
O439 O 0.69524 0.48143 0.61402 0.0
Sc440 Sc 0.55894 0.31435 0.81515 0.0
Sc441 Sc 0.53779 0.24859 0.86573 0.0
Sc442 Sc 0.62035 0.2842 0.86526 0.0
O443 O 0.57228 0.28243 0.84891 0.0
C444 C 0.63288 0.29433 0.79406 0.0
C445 C 0.52275 0.24575 0.79505 0.0
C446 C 0.60531 0.20538 0.86193 0.0
C447 C 0.49273 0.31499 0.85622 0.0
C448 C 0.60543 0.36212 0.85668 0.0
C449 C 0.57634 0.27179 0.9256 0.0
O450 O 0.60256 0.30264 0.78858 0.0
O451 O 0.52167 0.23205 0.8212 0.0
O452 O 0.62481 0.23081 0.86063 0.0
O453 O 0.51328 0.32886 0.8378 0.0
O454 O 0.62029 0.33819 0.87063 0.0
O455 O 0.55013 0.26114 0.91192 0.0
O456 O 0.58345 0.35707 0.83599 0.0
O457 O 0.4977 0.2858 0.8676 0.0
O458 O 0.60342 0.27988 0.91176 0.0
O459 O 0.53413 0.27524 0.79029 0.0
O460 O 0.64396 0.28892 0.82082 0.0
O461 O 0.57351 0.2073 0.86556 0.0
Sc462 Sc 0.69558 0.62206 0.86505 0.0
Sc463 Sc 0.73012 0.53901 0.86561 0.0
Sc464 Sc 0.66512 0.56111 0.81456 0.0
O465 O 0.6969 0.574 0.84859 0.0
C466 C 0.61739 0.60781 0.85583 0.0
C467 C 0.70651 0.57783 0.92544 0.0
C468 C 0.66339 0.4948 0.85564 0.0
C469 C 0.77437 0.60578 0.8625 0.0
C470 C 0.68656 0.63495 0.79381 0.0
C471 C 0.73341 0.52416 0.79475 0.0
O472 O 0.64141 0.62295 0.8694 0.0
O473 O 0.71767 0.5518 0.91179 0.0
O474 O 0.65025 0.5152 0.83667 0.0
O475 O 0.74923 0.62569 0.86159 0.0
O476 O 0.67709 0.60498 0.78838 0.0
O477 O 0.7465 0.52227 0.82113 0.0
O478 O 0.69254 0.64581 0.82054 0.0
O479 O 0.77198 0.57395 0.86529 0.0
O480 O 0.70437 0.5365 0.78966 0.0
O481 O 0.69836 0.60486 0.91158 0.0
O482 O 0.62234 0.5854 0.83553 0.0
O483 O 0.69225 0.4997 0.86769 0.0
Sc484 Sc 0.41793 0.66591 0.81453 0.0
Sc485 Sc 0.43963 0.73121 0.86537 0.0
Sc486 Sc 0.35645 0.69697 0.86431 0.0
O487 O 0.40473 0.69801 0.84823 0.0
C488 C 0.3443 0.68742 0.79295 0.0
C489 C 0.45532 0.73395 0.7946 0.0
C490 C 0.37293 0.77562 0.86189 0.0
C491 C 0.48405 0.66452 0.85583 0.0
C492 C 0.37054 0.61872 0.85572 0.0
C493 C 0.40027 0.70773 0.92504 0.0
O494 O 0.3743 0.67771 0.7879 0.0
O495 O 0.45674 0.74733 0.82089 0.0
O496 O 0.35297 0.75056 0.86073 0.0
O497 O 0.46366 0.65112 0.83702 0.0
O498 O 0.35525 0.64291 0.86887 0.0
O499 O 0.42648 0.71879 0.91154 0.0
O500 O 0.3933 0.62336 0.83564 0.0
O501 O 0.47903 0.69345 0.86764 0.0
O502 O 0.37328 0.69976 0.91101 0.0
O503 O 0.44302 0.70489 0.78959 0.0
O504 O 0.33316 0.69383 0.81954 0.0
O505 O 0.40474 0.77313 0.86493 0.0
Sc506 Sc 0.31253 0.41978 0.81518 0.0
Sc507 Sc 0.24674 0.44106 0.86568 0.0
Sc508 Sc 0.28163 0.35821 0.8648 0.0
O509 O 0.28034 0.40643 0.84874 0.0
C510 C 0.29204 0.34622 0.79357 0.0
C511 C 0.24444 0.45709 0.79508 0.0
C512 C 0.20292 0.37398 0.86147 0.0
C513 C 0.31352 0.48564 0.85654 0.0
C514 C 0.35974 0.37251 0.85665 0.0
C515 C 0.26938 0.40172 0.9254 0.0
O516 O 0.3006 0.3765 0.78831 0.0
O517 O 0.2306 0.45792 0.8212 0.0
O518 O 0.22819 0.35428 0.86006 0.0
O519 O 0.32734 0.46511 0.83811 0.0
O520 O 0.33561 0.35769 0.87035 0.0
O521 O 0.25901 0.42815 0.91187 0.0
O522 O 0.35498 0.39473 0.83609 0.0
O523 O 0.28428 0.48077 0.86787 0.0
O524 O 0.2773 0.37473 0.91139 0.0
O525 O 0.27378 0.44531 0.79031 0.0
O526 O 0.28636 0.33497 0.82024 0.0
O527 O 0.20511 0.40572 0.86522 0.0
Sc528 Sc 0.35862 0.28287 0.36478 0.0
Sc529 Sc 0.44132 0.24753 0.3657 0.0
Sc530 Sc 0.41992 0.31221 0.31409 0.0
O531 O 0.40669 0.28093 0.34839 0.0
C532 C 0.34601 0.29149 0.29343 0.0
C533 C 0.37408 0.204 0.3626 0.0
C534 C 0.45644 0.24344 0.29505 0.0
C535 C 0.40259 0.27172 0.42526 0.0
C536 C 0.37331 0.36071 0.35481 0.0
C537 C 0.48602 0.31391 0.35534 0.0
O538 O 0.335 0.2864 0.32028 0.0
O539 O 0.4059 0.20611 0.36587 0.0
O540 O 0.44472 0.27268 0.28979 0.0
O541 O 0.37556 0.27974 0.41133 0.0
O542 O 0.3954 0.3553 0.33429 0.0
O543 O 0.48104 0.28502 0.36731 0.0
O544 O 0.35843 0.33701 0.36908 0.0
O545 O 0.42872 0.26064 0.41171 0.0
O546 O 0.46562 0.32722 0.33645 0.0
O547 O 0.35442 0.22931 0.3612 0.0
O548 O 0.37625 0.29997 0.2878 0.0
O549 O 0.45783 0.23039 0.32146 0.0
Sc550 Sc 0.69676 0.35683 0.36509 0.0
Sc551 Sc 0.73228 0.43939 0.36496 0.0
Sc552 Sc 0.66664 0.41777 0.3145 0.0
O553 O 0.69851 0.40475 0.34838 0.0
C554 C 0.68676 0.34378 0.29394 0.0
C555 C 0.77557 0.37197 0.36161 0.0
C556 C 0.73509 0.45419 0.29419 0.0
C557 C 0.70921 0.40123 0.42515 0.0
C558 C 0.61884 0.37155 0.35636 0.0
C559 C 0.66576 0.48417 0.3551 0.0
O560 O 0.69202 0.33287 0.3208 0.0
O561 O 0.77364 0.40378 0.36496 0.0
O562 O 0.70567 0.4426 0.28948 0.0
O563 O 0.70108 0.37408 0.4115 0.0
O564 O 0.62393 0.39329 0.33546 0.0
O565 O 0.69493 0.4793 0.36657 0.0
O566 O 0.64275 0.35689 0.3705 0.0
O567 O 0.71982 0.42733 0.41126 0.0
O568 O 0.65194 0.4635 0.33681 0.0
O569 O 0.75016 0.35243 0.36048 0.0
O570 O 0.67856 0.37406 0.28825 0.0
O571 O 0.74876 0.45542 0.32034 0.0
Sc572 Sc 0.62285 0.6957 0.36551 0.0
Sc573 Sc 0.53973 0.73009 0.36478 0.0
Sc574 Sc 0.56279 0.66553 0.31378 0.0
O575 O 0.57512 0.69718 0.34812 0.0
C576 C 0.63731 0.68776 0.2946 0.0
C577 C 0.6061 0.77464 0.36569 0.0
C578 C 0.52588 0.73343 0.29352 0.0
C579 C 0.57781 0.7053 0.42515 0.0
C580 C 0.60884 0.61739 0.35455 0.0
C581 C 0.49547 0.66392 0.35384 0.0
O582 O 0.64726 0.69614 0.32112 0.0
O583 O 0.57416 0.77226 0.36404 0.0
O584 O 0.54006 0.70533 0.2881 0.0
O585 O 0.60426 0.69497 0.41155 0.0
O586 O 0.58501 0.62222 0.3356 0.0
O587 O 0.50095 0.69181 0.36739 0.0
O588 O 0.6251 0.64146 0.36685 0.0
O589 O 0.55296 0.71875 0.41129 0.0
O590 O 0.51552 0.65174 0.33408 0.0
O591 O 0.626 0.74951 0.36665 0.0
O592 O 0.60812 0.67601 0.28923 0.0
O593 O 0.52224 0.74541 0.32019 0.0
Sc594 Sc 0.3133 0.56075 0.3131 0.0
Sc595 Sc 0.24941 0.53805 0.36505 0.0
Sc596 Sc 0.28393 0.62105 0.36499 0.0
O597 O 0.28215 0.57328 0.34781 0.0
C598 C 0.36213 0.60685 0.35304 0.0
C599 C 0.31541 0.49365 0.35357 0.0
C600 C 0.27547 0.57614 0.42491 0.0
C601 C 0.24482 0.52422 0.29391 0.0
C602 C 0.29077 0.63522 0.29384 0.0
C603 C 0.20491 0.60441 0.36621 0.0
O604 O 0.35701 0.58298 0.33421 0.0
O605 O 0.28765 0.49923 0.36733 0.0
O606 O 0.28549 0.60257 0.41109 0.0
O607 O 0.27298 0.5381 0.2881 0.0
O608 O 0.28279 0.64523 0.32047 0.0
O609 O 0.20731 0.57249 0.36472 0.0
O610 O 0.30246 0.60601 0.28842 0.0
O611 O 0.23323 0.52059 0.32074 0.0
O612 O 0.23006 0.62432 0.36683 0.0
O613 O 0.32736 0.51354 0.33353 0.0
O614 O 0.33824 0.62317 0.36558 0.0
O615 O 0.26164 0.55134 0.41133 0.0
Sc616 Sc 0.41619 0.66474 0.16808 0.0
Sc617 Sc 0.43894 0.72935 0.11696 0.0
Sc618 Sc 0.35563 0.69538 0.11692 0.0
O619 O 0.40359 0.69653 0.13387 0.0
C620 C 0.36963 0.61696 0.12737 0.0
C621 C 0.48315 0.66304 0.12733 0.0
C622 C 0.40005 0.70524 0.05682 0.0
C623 C 0.45352 0.73247 0.18809 0.0
C624 C 0.34188 0.68703 0.18804 0.0
C625 C 0.37272 0.77421 0.11742 0.0
O626 O 0.39348 0.62165 0.14634 0.0
O627 O 0.47759 0.69099 0.11389 0.0
O628 O 0.37357 0.69521 0.07058 0.0
O629 O 0.43936 0.70439 0.19363 0.0
O630 O 0.33168 0.69532 0.16155 0.0
O631 O 0.40466 0.77156 0.1183 0.0
O632 O 0.37117 0.67538 0.19321 0.0
O633 O 0.45694 0.74448 0.16139 0.0
O634 O 0.35258 0.74926 0.11656 0.0
O635 O 0.46326 0.65084 0.14725 0.0
O636 O 0.35341 0.64112 0.11512 0.0
O637 O 0.42519 0.71823 0.07057 0.0
Sc638 Sc 0.31189 0.41743 0.16759 0.0
Sc639 Sc 0.24618 0.43899 0.11714 0.0
Sc640 Sc 0.28159 0.35634 0.11726 0.0
O641 O 0.27994 0.40434 0.1338 0.0
C642 C 0.35958 0.37093 0.12586 0.0
C643 C 0.31277 0.48371 0.12665 0.0
C644 C 0.26914 0.40051 0.05706 0.0
C645 C 0.24363 0.45429 0.18784 0.0
C646 C 0.29167 0.34349 0.18843 0.0
C647 C 0.20276 0.37165 0.12093 0.0
O648 O 0.35457 0.39286 0.14659 0.0
O649 O 0.28365 0.47877 0.11509 0.0
O650 O 0.27742 0.37344 0.0708 0.0
O651 O 0.27292 0.4424 0.19264 0.0
O652 O 0.28621 0.33254 0.16164 0.0
O653 O 0.20472 0.40349 0.11768 0.0
O654 O 0.30005 0.37375 0.19399 0.0
O655 O 0.23001 0.45552 0.16167 0.0
O656 O 0.22816 0.35208 0.12184 0.0
O657 O 0.32652 0.46315 0.14511 0.0
O658 O 0.33561 0.35619 0.1119 0.0
O659 O 0.25835 0.42658 0.07086 0.0
Sc660 Sc 0.55869 0.31226 0.16791 0.0
Sc661 Sc 0.53747 0.24702 0.11688 0.0
Sc662 Sc 0.62016 0.28241 0.11764 0.0
O663 O 0.57203 0.28062 0.13394 0.0
C664 C 0.60519 0.36037 0.12668 0.0
C665 C 0.49254 0.31337 0.12668 0.0
C666 C 0.57633 0.27072 0.05718 0.0
C667 C 0.5224 0.24357 0.18761 0.0
C668 C 0.63264 0.2918 0.18889 0.0
C669 C 0.60478 0.20356 0.1206 0.0
O670 O 0.58296 0.3552 0.14715 0.0
O671 O 0.49764 0.28445 0.11483 0.0
O672 O 0.60329 0.27892 0.07111 0.0
O673 O 0.53416 0.27283 0.19265 0.0
O674 O 0.6437 0.28626 0.16214 0.0
O675 O 0.57296 0.20559 0.1173 0.0
O676 O 0.60243 0.30053 0.19433 0.0
O677 O 0.52089 0.23036 0.16128 0.0
O678 O 0.62439 0.22891 0.12169 0.0
O679 O 0.51288 0.32681 0.14551 0.0
O680 O 0.62031 0.33651 0.11287 0.0
O681 O 0.55019 0.25966 0.07075 0.0
Sc682 Sc 0.69473 0.62067 0.11776 0.0
Sc683 Sc 0.72915 0.53759 0.11666 0.0
Sc684 Sc 0.66481 0.55956 0.16847 0.0
O685 O 0.69617 0.57253 0.13409 0.0
C686 C 0.68633 0.63341 0.18912 0.0
C687 C 0.77351 0.60421 0.12005 0.0
C688 C 0.73317 0.52229 0.18742 0.0
C689 C 0.70554 0.57697 0.0571 0.0
C690 C 0.61663 0.6063 0.12759 0.0
C691 C 0.66255 0.49339 0.12711 0.0
O692 O 0.692 0.6443 0.16232 0.0
O693 O 0.77106 0.57239 0.11723 0.0
O694 O 0.70438 0.53496 0.19297 0.0
O695 O 0.6973 0.60384 0.07113 0.0
O696 O 0.62181 0.58388 0.14788 0.0
O697 O 0.6911 0.49849 0.11452 0.0
O698 O 0.6405 0.62146 0.11378 0.0
O699 O 0.71671 0.55084 0.07059 0.0
O700 O 0.6498 0.51358 0.14648 0.0
O701 O 0.74842 0.6242 0.12098 0.0
O702 O 0.677 0.6034 0.19462 0.0
O703 O 0.74571 0.52023 0.16084 0.0
C704 C 0.16086 0.18306 0.27188 0.0
C705 C 0.18449 0.15672 0.27022 0.0
H706 H 0.12534 0.21313 0.24687 0.0
C707 C 0.19738 0.14703 0.24165 0.0
H708 H 0.15032 0.19063 0.29366 0.0
C709 C 0.18367 0.16046 0.2149 0.0
C710 C 0.15635 0.18296 0.21659 0.0
H711 H 0.21551 0.12657 0.23996 0.0
H712 H 0.19145 0.15 0.19314 0.0
C713 C 0.1465 0.19582 0.24513 0.0
C714 C 0.79554 0.15895 0.27221 0.0
C715 C 0.82236 0.18202 0.27032 0.0
H716 H 0.76425 0.12435 0.24742 0.0
C717 C 0.83187 0.19491 0.24169 0.0
H718 H 0.78807 0.14844 0.29405 0.0
C719 C 0.81766 0.18176 0.21506 0.0
C720 C 0.79454 0.15498 0.2169 0.0
H721 H 0.85266 0.21263 0.23981 0.0
H722 H 0.82791 0.18949 0.1932 0.0
C723 C 0.78199 0.14513 0.24557 0.0
C724 C 0.79223 0.81407 0.21639 0.0
C725 C 0.81952 0.7915 0.21767 0.0
H726 H 0.76108 0.84817 0.24193 0.0
C727 C 0.82979 0.77858 0.24607 0.0
H728 H 0.78419 0.82464 0.19475 0.0
C729 C 0.81593 0.79136 0.27304 0.0
C730 C 0.79236 0.81777 0.27175 0.0
H731 H 0.85098 0.76128 0.2475 0.0
H732 H 0.82693 0.78385 0.29466 0.0
C733 C 0.779 0.82751 0.24336 0.0
C734 C 0.15133 0.77711 0.24278 0.0
C735 C 0.16146 0.79052 0.27103 0.0
H736 H 0.15342 0.78223 0.19411 0.0
C737 C 0.18788 0.8141 0.2719 0.0
H738 H 0.13063 0.7592 0.24165 0.0
C739 C 0.20029 0.82787 0.24471 0.0
C740 C 0.187 0.81751 0.21648 0.0
H741 H 0.19566 0.82519 0.29339 0.0
H742 H 0.21751 0.84913 0.24587 0.0
C743 C 0.16438 0.79026 0.21558 0.0
C744 C 0.79417 0.81827 0.77193 0.0
C745 C 0.82094 0.7951 0.7705 0.0
H746 H 0.76357 0.85304 0.74658 0.0
C747 C 0.83094 0.78215 0.74205 0.0
H748 H 0.78637 0.82886 0.79362 0.0
C749 C 0.8173 0.79534 0.71516 0.0
C750 C 0.79427 0.82223 0.7166 0.0
H751 H 0.85175 0.7644 0.74053 0.0
H752 H 0.82799 0.7876 0.69349 0.0
C753 C 0.7812 0.83214 0.74504 0.0
C754 C 0.15064 0.78031 0.74359 0.0
C755 C 0.1605 0.7939 0.71531 0.0
H756 H 0.1526 0.78551 0.79225 0.0
C757 C 0.18621 0.81825 0.71438 0.0
H758 H 0.13044 0.76184 0.74476 0.0
C759 C 0.19816 0.83243 0.74152 0.0
C760 C 0.18513 0.82174 0.76977 0.0
H761 H 0.19374 0.82948 0.69286 0.0
H762 H 0.21493 0.85405 0.7403 0.0
C763 C 0.16326 0.79388 0.77075 0.0
C764 C 0.16117 0.18521 0.71487 0.0
C765 C 0.18503 0.15907 0.71637 0.0
H766 H 0.12559 0.21495 0.74011 0.0
C767 C 0.19822 0.14946 0.74486 0.0
H768 H 0.15038 0.19268 0.69315 0.0
C769 C 0.18461 0.16277 0.7717 0.0
C770 C 0.15711 0.18506 0.77018 0.0
H771 H 0.21649 0.12912 0.74643 0.0
H772 H 0.19262 0.15235 0.79341 0.0
C773 C 0.14692 0.19784 0.74171 0.0
C774 C 0.78305 0.14774 0.74191 0.0
C775 C 0.79603 0.15735 0.77045 0.0
H776 H 0.78856 0.15121 0.69338 0.0
C777 C 0.81946 0.18386 0.77213 0.0
H778 H 0.76508 0.12715 0.74021 0.0
C779 C 0.83349 0.19698 0.74537 0.0
C780 C 0.82348 0.18434 0.71681 0.0
H781 H 0.83006 0.19136 0.7939 0.0
H782 H 0.85449 0.21447 0.74708 0.0
C783 C 0.79641 0.16155 0.71515 0.0
C784 C 0.64982 0.69942 0.74218 0.0
C785 C 0.65975 0.68615 0.71381 0.0
H786 H 0.65219 0.69397 0.79078 0.0
C787 C 0.686 0.66239 0.71262 0.0
H788 H 0.62935 0.71757 0.74352 0.0
C789 C 0.6984 0.64828 0.73962 0.0
C790 C 0.68528 0.65852 0.76795 0.0
H791 H 0.69369 0.65152 0.691 0.0
H792 H 0.71558 0.627 0.73824 0.0
C793 C 0.66289 0.68595 0.76919 0.0
C794 C 0.33174 0.69897 0.73851 0.0
C795 C 0.32104 0.6861 0.76682 0.0
H796 H 0.32904 0.69409 0.68988 0.0
C797 C 0.29338 0.66399 0.76786 0.0
H798 H 0.35323 0.71591 0.73726 0.0
C799 C 0.28004 0.65099 0.74075 0.0
C800 C 0.29367 0.66072 0.71245 0.0
H801 H 0.28501 0.65344 0.78941 0.0
H802 H 0.26174 0.63065 0.74201 0.0
C803 C 0.31779 0.68664 0.71142 0.0
C804 C 0.33232 0.28323 0.74275 0.0
C805 C 0.3226 0.29612 0.71419 0.0
H806 H 0.32848 0.28849 0.79127 0.0
C807 C 0.2956 0.319 0.71244 0.0
H808 H 0.35326 0.26566 0.74452 0.0
C809 C 0.28205 0.33265 0.73916 0.0
C810 C 0.29475 0.3228 0.76775 0.0
H811 H 0.28799 0.32951 0.69065 0.0
H812 H 0.26417 0.35332 0.73742 0.0
C813 C 0.31808 0.29619 0.76946 0.0
C814 C 0.69648 0.33373 0.74313 0.0
C815 C 0.68381 0.32369 0.71459 0.0
H816 H 0.69075 0.3306 0.79165 0.0
C817 C 0.66077 0.29684 0.713 0.0
H818 H 0.71415 0.35459 0.74476 0.0
C819 C 0.64679 0.28374 0.73979 0.0
C820 C 0.65646 0.29677 0.7683 0.0
H821 H 0.65041 0.28899 0.69124 0.0
H822 H 0.62604 0.26594 0.73812 0.0
C823 C 0.68318 0.31996 0.76992 0.0
C824 C 0.2813 0.32932 0.24267 0.0
C825 C 0.29432 0.31982 0.2141 0.0
H826 H 0.28707 0.32611 0.29118 0.0
C827 C 0.31803 0.29355 0.2124 0.0
H828 H 0.26312 0.34973 0.24439 0.0
C829 C 0.33232 0.28068 0.23913 0.0
C830 C 0.32233 0.29336 0.2677 0.0
H831 H 0.32866 0.28612 0.19061 0.0
H832 H 0.35354 0.26344 0.23738 0.0
C833 C 0.29495 0.31577 0.26941 0.0
C834 C 0.68367 0.31596 0.21302 0.0
C835 C 0.65619 0.29367 0.21471 0.0
H836 H 0.71557 0.34978 0.23805 0.0
C837 C 0.64603 0.28109 0.24327 0.0
H838 H 0.69167 0.32621 0.19124 0.0
C839 C 0.66028 0.29392 0.27002 0.0
C840 C 0.68412 0.32007 0.26834 0.0
H841 H 0.62473 0.26395 0.24499 0.0
H842 H 0.64952 0.28658 0.29179 0.0
C843 C 0.69729 0.32946 0.23978 0.0
C844 C 0.66418 0.68521 0.21373 0.0
C845 C 0.68556 0.65698 0.21501 0.0
H846 H 0.6318 0.71805 0.23936 0.0
C847 C 0.69845 0.64647 0.24336 0.0
H848 H 0.65369 0.6935 0.19213 0.0
C849 C 0.6867 0.66118 0.27033 0.0
C850 C 0.6613 0.68586 0.26913 0.0
H851 H 0.71491 0.62463 0.2448 0.0
H852 H 0.69401 0.65008 0.29196 0.0
C853 C 0.65174 0.69931 0.24073 0.0
C854 C 0.31486 0.68595 0.26925 0.0
C855 C 0.29175 0.65912 0.26818 0.0
H856 H 0.3493 0.7165 0.24344 0.0
C857 C 0.27849 0.64904 0.23985 0.0
H858 H 0.32581 0.69373 0.2908 0.0
C859 C 0.29133 0.66265 0.21276 0.0
C860 C 0.31815 0.68578 0.21382 0.0
H861 H 0.26093 0.62806 0.23856 0.0
H862 H 0.28346 0.65179 0.19121 0.0
C863 C 0.32834 0.69892 0.24216 0.0
C864 C 0.14732 0.35304 0.10046 0.0
C865 C 0.16988 0.3557 0.12504 0.0
H866 H 0.10742 0.32363 0.08042 0.0
C867 C 0.16513 0.33584 0.15115 0.0
H868 H 0.15108 0.36795 0.07999 0.0
C869 C 0.14057 0.3108 0.15136 0.0
C870 C 0.12053 0.30545 0.12549 0.0
H871 H 0.18252 0.33755 0.17021 0.0
H872 H 0.13934 0.29361 0.17061 0.0
C873 C 0.12252 0.32782 0.10069 0.0
C874 C 0.62306 0.14777 0.10058 0.0
C875 C 0.62057 0.17064 0.12492 0.0
H876 H 0.65202 0.10721 0.08109 0.0
C877 C 0.64009 0.16583 0.15122 0.0
H878 H 0.60836 0.15153 0.07999 0.0
C879 C 0.66469 0.14083 0.15186 0.0
C880 C 0.66997 0.12043 0.12619 0.0
H881 H 0.63846 0.18341 0.17013 0.0
H882 H 0.68169 0.13954 0.17123 0.0
C883 C 0.64787 0.12254 0.10123 0.0
C884 C 0.81237 0.63774 0.15105 0.0
C885 C 0.80666 0.6195 0.12418 0.0
H886 H 0.83932 0.67845 0.17179 0.0
C887 C 0.82868 0.62314 0.0993 0.0
H888 H 0.79536 0.63527 0.17034 0.0
C889 C 0.85393 0.64786 0.10015 0.0
C890 C 0.85692 0.66875 0.12587 0.0
H891 H 0.82415 0.60948 0.07827 0.0
H892 H 0.86851 0.65302 0.07973 0.0
C893 C 0.83742 0.66228 0.1519 0.0
C894 C 0.32596 0.85033 0.14343 0.0
C895 C 0.30729 0.85708 0.11693 0.0
H896 H 0.36307 0.81802 0.16412 0.0
C897 C 0.31605 0.84154 0.08935 0.0
H898 H 0.31893 0.86176 0.16498 0.0
C899 C 0.34102 0.81682 0.08885 0.0
C900 C 0.35733 0.80754 0.11594 0.0
H901 H 0.30143 0.84623 0.06885 0.0
H902 H 0.34529 0.80274 0.06798 0.0
C903 C 0.35107 0.82548 0.14293 0.0
C904 C 0.1396 0.66178 0.39697 0.0
C905 C 0.12178 0.66958 0.37029 0.0
H906 H 0.18023 0.63348 0.41648 0.0
C907 C 0.12644 0.65005 0.34392 0.0
H908 H 0.13648 0.67699 0.41735 0.0
C909 C 0.15153 0.62515 0.34341 0.0
C910 C 0.17174 0.61995 0.36927 0.0
H911 H 0.11322 0.65631 0.32302 0.0
H912 H 0.15733 0.61249 0.32213 0.0
C913 C 0.16451 0.63703 0.39647 0.0
C914 C 0.3385 0.16545 0.33316 0.0
C915 C 0.35832 0.17097 0.35914 0.0
H916 H 0.29666 0.13862 0.31422 0.0
C917 C 0.35615 0.14878 0.38405 0.0
H918 H 0.33988 0.18252 0.31383 0.0
C919 C 0.33133 0.12359 0.38427 0.0
C920 C 0.30894 0.1208 0.35958 0.0
H921 H 0.37108 0.15312 0.4044 0.0
H922 H 0.32739 0.10884 0.40482 0.0
C923 C 0.31392 0.14043 0.33337 0.0
C924 C 0.83813 0.31034 0.33321 0.0
C925 C 0.85789 0.30578 0.35939 0.0
H926 H 0.79634 0.33645 0.31334 0.0
C927 C 0.85566 0.32887 0.38358 0.0
H928 H 0.83959 0.2926 0.31441 0.0
C929 C 0.83084 0.35407 0.38296 0.0
C930 C 0.8085 0.35594 0.35815 0.0
H931 H 0.87057 0.3253 0.40407 0.0
H932 H 0.82687 0.36959 0.403 0.0
C933 C 0.81353 0.33534 0.33259 0.0
C934 C 0.63892 0.81447 0.39625 0.0
C935 C 0.6217 0.80774 0.369 0.0
H936 H 0.6792 0.84182 0.41734 0.0
C937 C 0.62703 0.82822 0.34333 0.0
H938 H 0.63527 0.79853 0.41611 0.0
C939 C 0.65214 0.85309 0.34407 0.0
C940 C 0.67181 0.8572 0.37043 0.0
H941 H 0.61427 0.82281 0.32201 0.0
H942 H 0.65842 0.86659 0.3233 0.0
C943 C 0.66394 0.83909 0.39694 0.0
C944 C 0.81337 0.64098 0.83308 0.0
C945 C 0.80754 0.62132 0.85913 0.0
H946 H 0.84032 0.68281 0.81418 0.0
C947 C 0.82935 0.62378 0.88427 0.0
H948 H 0.79655 0.63943 0.8136 0.0
C949 C 0.85447 0.64868 0.8846 0.0
C950 C 0.85756 0.67088 0.85979 0.0
H951 H 0.82473 0.60903 0.90469 0.0
H952 H 0.86888 0.65283 0.90529 0.0
C953 C 0.83831 0.66566 0.8334 0.0
C954 C 0.33782 0.81512 0.83294 0.0
C955 C 0.3574 0.80884 0.85894 0.0
H956 H 0.29583 0.84216 0.81442 0.0
C957 C 0.35462 0.83002 0.88448 0.0
H958 H 0.33957 0.79875 0.81317 0.0
C959 C 0.32948 0.8549 0.88521 0.0
C960 C 0.30738 0.8584 0.86039 0.0
H961 H 0.36928 0.82503 0.90487 0.0
H962 H 0.32511 0.86879 0.90615 0.0
C963 C 0.3129 0.83982 0.83366 0.0
C964 C 0.12321 0.33068 0.88416 0.0
C965 C 0.1205 0.30793 0.85975 0.0
H966 H 0.15234 0.37114 0.90356 0.0
C967 C 0.13975 0.31288 0.8333 0.0
H968 H 0.10875 0.32679 0.90487 0.0
C969 C 0.16432 0.33791 0.83254 0.0
C970 C 0.16984 0.35817 0.85824 0.0
H971 H 0.13796 0.29536 0.81435 0.0
H972 H 0.18116 0.33927 0.81305 0.0
C973 C 0.14798 0.35593 0.88339 0.0
C974 C 0.64202 0.16766 0.83265 0.0
C975 C 0.62133 0.17247 0.85823 0.0
H976 H 0.68453 0.14144 0.8142 0.0
C977 C 0.62284 0.14966 0.88272 0.0
H978 H 0.64115 0.18517 0.81363 0.0
C979 C 0.64777 0.12454 0.88305 0.0
C980 C 0.67094 0.12244 0.85888 0.0
H981 H 0.60724 0.15341 0.90276 0.0
H982 H 0.65109 0.10925 0.90336 0.0
C983 C 0.66671 0.14274 0.83297 0.0
C984 C 0.83172 0.35601 0.60123 0.0
C985 C 0.80877 0.3583 0.62556 0.0
H986 H 0.87207 0.32698 0.58142 0.0
C987 C 0.81329 0.33828 0.6516 0.0
H988 H 0.82818 0.37108 0.58083 0.0
C989 C 0.838 0.3134 0.65193 0.0
C990 C 0.85842 0.30835 0.62622 0.0
H991 H 0.79564 0.33974 0.6705 0.0
H992 H 0.83906 0.29606 0.67108 0.0
C993 C 0.85668 0.33092 0.60157 0.0
C994 C 0.65106 0.85581 0.59828 0.0
C995 C 0.67177 0.85934 0.62406 0.0
H996 H 0.61245 0.8259 0.57689 0.0
C997 C 0.66489 0.84069 0.6505 0.0
H998 H 0.65655 0.86972 0.57756 0.0
C999 C 0.63993 0.816 0.65015 0.0
C1000 C 0.62174 0.80977 0.62333 0.0
H1001 H 0.68092 0.84301 0.67046 0.0
H1002 H 0.63711 0.79961 0.66982 0.0
C1003 C 0.62597 0.8309 0.59791 0.0
C1004 C 0.13956 0.66526 0.58811 0.0
C1005 C 0.1221 0.6719 0.61526 0.0
H1006 H 0.17985 0.6378 0.56712 0.0
C1007 C 0.12711 0.65122 0.64086 0.0
H1008 H 0.13614 0.68131 0.56829 0.0
C1009 C 0.15213 0.62623 0.64017 0.0
C1010 C 0.172 0.62215 0.6139 0.0
H1011 H 0.11416 0.65654 0.66212 0.0
H1012 H 0.15816 0.61257 0.66091 0.0
C1013 C 0.16444 0.64049 0.58744 0.0
C1014 C 0.33965 0.16768 0.6514 0.0
C1015 C 0.35898 0.17256 0.62499 0.0
H1016 H 0.29816 0.14135 0.67158 0.0
C1017 C 0.35637 0.14974 0.60062 0.0
H1018 H 0.34138 0.18525 0.67032 0.0
C1019 C 0.33159 0.12452 0.60137 0.0
C1020 C 0.30965 0.12235 0.62646 0.0
H1021 H 0.37091 0.15357 0.57995 0.0
H1022 H 0.32728 0.10926 0.58121 0.0
C1023 C 0.31508 0.14266 0.65214 0.0
C1024 C 0.16049 0.04129 0.10865 0.0
C1025 C 0.14518 0.01521 0.12554 0.0
H1026 H 0.15967 0.0936 0.09633 0.0
C1027 C 0.114 0.02153 0.13989 0.0
H1028 H 0.18436 0.03724 0.09709 0.0
C1029 C 0.09985 0.05379 0.13945 0.0
C1030 C 0.11651 0.08054 0.12462 0.0
H1031 H 0.10118 0.00192 0.1527 0.0
H1032 H 0.07662 0.05805 0.15198 0.0
C1033 C 0.14628 0.07364 0.10818 0.0
C1034 C 0.9542 0.11312 0.13666 0.0
C1035 C 0.96008 0.14505 0.12357 0.0
H1036 H 0.91799 0.07514 0.14806 0.0
C1037 C 0.93354 0.16119 0.10797 0.0
H1038 H 0.97416 0.09965 0.14844 0.0
C1039 C 0.90119 0.14696 0.10766 0.0
C1040 C 0.89477 0.11638 0.12302 0.0
H1041 H 0.93725 0.18566 0.0974 0.0
H1042 H 0.88087 0.16093 0.09691 0.0
C1043 C 0.92192 0.09899 0.13644 0.0
C1044 C 0.82707 0.89999 0.10867 0.0
C1045 C 0.85802 0.89374 0.12347 0.0
H1046 H 0.78842 0.93611 0.09838 0.0
C1047 C 0.87609 0.92112 0.13569 0.0
H1048 H 0.81259 0.87949 0.09883 0.0
C1049 C 0.86232 0.95353 0.13532 0.0
C1050 C 0.83005 0.95934 0.12286 0.0
H1051 H 0.90025 0.91731 0.14681 0.0
H1052 H 0.87633 0.97371 0.14622 0.0
C1053 C 0.81318 0.93249 0.10841 0.0
C1054 C 0.05431 0.87607 0.13829 0.0
C1055 C 0.08152 0.85832 0.12533 0.0
H1056 H 0.00177 0.87613 0.14933 0.0
C1057 C 0.07498 0.82792 0.10978 0.0
H1058 H 0.0583 0.89981 0.15004 0.0
C1059 C 0.04241 0.81423 0.10939 0.0
C1060 C 0.01575 0.8307 0.12451 0.0
H1061 H 0.0953 0.81372 0.09928 0.0
H1062 H 0.03861 0.78987 0.09866 0.0
C1063 C 0.0218 0.86245 0.13786 0.0
C1064 C 0.16513 0.93388 0.37807 0.0
C1065 C 0.14829 0.96076 0.36363 0.0
H1066 H 0.16587 0.88086 0.38742 0.0
C1067 C 0.11618 0.95495 0.35087 0.0
H1068 H 0.18978 0.9375 0.38833 0.0
C1069 C 0.10253 0.92249 0.35022 0.0
C1070 C 0.12062 0.8951 0.36242 0.0
H1071 H 0.10221 0.97517 0.33996 0.0
H1072 H 0.07849 0.9187 0.33889 0.0
C1073 C 0.15141 0.90135 0.37749 0.0
C1074 C 0.02465 0.11393 0.35102 0.0
C1075 C 0.01875 0.14606 0.36367 0.0
H1076 H 0.06093 0.07593 0.33993 0.0
C1077 C 0.04533 0.16253 0.3789 0.0
H1078 H 0.00465 0.10021 0.33955 0.0
C1079 C 0.07774 0.14844 0.3792 0.0
C1080 C 0.08417 0.11767 0.36421 0.0
H1081 H 0.0416 0.18716 0.38913 0.0
H1082 H 0.09809 0.16266 0.38961 0.0
C1083 C 0.05698 0.09994 0.35124 0.0
C1084 C 0.86447 0.02216 0.34744 0.0
C1085 C 0.83313 0.01603 0.36156 0.0
H1086 H 0.90222 0.05844 0.33569 0.0
C1087 C 0.81787 0.04212 0.37843 0.0
H1088 H 0.87726 0.00251 0.33468 0.0
C1089 C 0.83232 0.07436 0.37908 0.0
C1090 C 0.86226 0.0811 0.36283 0.0
H1091 H 0.79388 0.03819 0.38982 0.0
H1092 H 0.81897 0.09438 0.39087 0.0
C1093 C 0.87886 0.0543 0.34807 0.0
C1094 C 0.92459 0.8765 0.34689 0.0
C1095 C 0.89762 0.85946 0.36102 0.0
H1096 H 0.9768 0.8757 0.33464 0.0
C1097 C 0.90436 0.8295 0.37723 0.0
H1098 H 0.92046 0.89987 0.33456 0.0
C1099 C 0.93682 0.81555 0.37727 0.0
C1100 C 0.96318 0.83129 0.3611 0.0
H1101 H 0.88424 0.81584 0.38862 0.0
H1102 H 0.94077 0.79156 0.38864 0.0
C1103 C 0.95697 0.86258 0.34693 0.0
C1104 C 0.86318 0.95548 0.85268 0.0
C1105 C 0.83061 0.96117 0.86454 0.0
H1106 H 0.9016 0.91942 0.84214 0.0
C1107 C 0.81362 0.93433 0.87894 0.0
H1108 H 0.8773 0.97566 0.84187 0.0
C1109 C 0.82773 0.90192 0.87919 0.0
C1110 C 0.85903 0.89576 0.86496 0.0
H1111 H 0.78862 0.93787 0.88853 0.0
H1112 H 0.81315 0.8814 0.88892 0.0
C1113 C 0.87718 0.92316 0.85284 0.0
C1114 C 0.02246 0.86457 0.85196 0.0
C1115 C 0.01658 0.83252 0.86481 0.0
H1116 H 0.05878 0.90229 0.84018 0.0
C1117 C 0.04332 0.8159 0.87969 0.0
H1118 H 0.00235 0.87839 0.84073 0.0
C1119 C 0.07584 0.82975 0.87944 0.0
C1120 C 0.0822 0.86042 0.86422 0.0
H1121 H 0.03963 0.79131 0.89005 0.0
H1122 H 0.09626 0.81542 0.88962 0.0
C1123 C 0.05489 0.87833 0.85162 0.0
C1124 C 0.14812 0.0764 0.8794 0.0
C1125 C 0.11761 0.08291 0.86396 0.0
H1126 H 0.18652 0.04015 0.89002 0.0
C1127 C 0.09997 0.05575 0.85085 0.0
H1128 H 0.16226 0.09671 0.88995 0.0
C1129 C 0.11383 0.02336 0.85095 0.0
C1130 C 0.14572 0.01736 0.86409 0.0
H1131 H 0.07614 0.05973 0.8392 0.0
H1132 H 0.10021 0.00339 0.83936 0.0
C1133 C 0.16206 0.04393 0.87943 0.0
C1134 C 0.92299 0.10043 0.85155 0.0
C1135 C 0.89574 0.11792 0.86471 0.0
H1136 H 0.97527 0.10109 0.83961 0.0
C1137 C 0.90206 0.14865 0.87981 0.0
H1138 H 0.91915 0.07646 0.84014 0.0
C1139 C 0.93439 0.16295 0.87941 0.0
C1140 C 0.961 0.14673 0.86399 0.0
H1141 H 0.88167 0.1627 0.89036 0.0
H1142 H 0.938 0.18755 0.88974 0.0
C1143 C 0.95524 0.11463 0.85123 0.0
C1144 C 0.86549 0.02416 0.63683 0.0
C1145 C 0.83371 0.01827 0.62345 0.0
H1146 H 0.90335 0.06035 0.6485 0.0
C1147 C 0.81778 0.04476 0.60763 0.0
H1148 H 0.8788 0.00423 0.6488 0.0
C1149 C 0.83201 0.0771 0.60737 0.0
C1150 C 0.8624 0.08354 0.62301 0.0
H1151 H 0.79344 0.04105 0.59682 0.0
H1152 H 0.81817 0.09738 0.59642 0.0
C1153 C 0.87964 0.05642 0.63665 0.0
C1154 C 0.90361 0.83086 0.60853 0.0
C1155 C 0.89705 0.86118 0.6242 0.0
H1156 H 0.93986 0.79246 0.59786 0.0
C1157 C 0.9241 0.87842 0.63793 0.0
H1158 H 0.88339 0.81702 0.59752 0.0
C1159 C 0.95642 0.86437 0.6381 0.0
C1160 C 0.96246 0.83272 0.62458 0.0
H1161 H 0.92008 0.90208 0.64981 0.0
H1162 H 0.97631 0.8777 0.65008 0.0
C1163 C 0.93602 0.81674 0.60874 0.0
C1164 C 0.15092 0.90359 0.60911 0.0
C1165 C 0.11997 0.89739 0.62397 0.0
H1166 H 0.18967 0.93955 0.59885 0.0
C1167 C 0.10207 0.92476 0.63643 0.0
H1168 H 0.16525 0.88313 0.59901 0.0
C1169 C 0.11603 0.95709 0.63624 0.0
C1170 C 0.14828 0.9628 0.62367 0.0
H1171 H 0.07794 0.921 0.64763 0.0
H1172 H 0.10218 0.97727 0.64733 0.0
C1173 C 0.16495 0.93599 0.60899 0.0
C1174 C 0.05733 0.10191 0.63458 0.0
C1175 C 0.08467 0.1199 0.62215 0.0
H1176 H 0.00484 0.10192 0.6457 0.0
C1177 C 0.07843 0.15092 0.60749 0.0
H1178 H 0.06114 0.07769 0.64561 0.0
C1179 C 0.04599 0.16498 0.60763 0.0
C1180 C 0.01922 0.14821 0.62236 0.0
H1181 H 0.09892 0.16535 0.59751 0.0
H1182 H 0.04239 0.1898 0.59771 0.0
C1183 C 0.02497 0.11586 0.63463 0.0
C1184 C 0.61623 0.52482 0.63141 0.0
C1185 C 0.64877 0.51911 0.6195 0.0
H1186 H 0.57804 0.56096 0.64236 0.0
C1187 C 0.6659 0.54601 0.60535 0.0
H1188 H 0.60201 0.50458 0.64203 0.0
C1189 C 0.65199 0.5785 0.60545 0.0
C1190 C 0.62076 0.58466 0.61979 0.0
H1191 H 0.69089 0.54246 0.59573 0.0
H1192 H 0.66668 0.59906 0.59592 0.0
C1193 C 0.60243 0.55722 0.63161 0.0
C1194 C 0.40415 0.64988 0.60627 0.0
C1195 C 0.39773 0.61937 0.62175 0.0
H1196 H 0.44028 0.68826 0.59543 0.0
C1197 C 0.42497 0.60179 0.63485 0.0
H1198 H 0.3838 0.66395 0.59566 0.0
C1199 C 0.45735 0.6157 0.63464 0.0
C1200 C 0.46324 0.64756 0.62139 0.0
H1201 H 0.42107 0.57799 0.64656 0.0
H1202 H 0.4774 0.60215 0.64621 0.0
C1203 C 0.43658 0.66385 0.60611 0.0
C1204 C 0.31717 0.43625 0.60589 0.0
C1205 C 0.33292 0.46258 0.62205 0.0
H1206 H 0.3178 0.38376 0.59423 0.0
C1207 C 0.36458 0.45659 0.63561 0.0
H1208 H 0.29291 0.44006 0.59496 0.0
C1209 C 0.37884 0.42439 0.63518 0.0
C1210 C 0.36181 0.39739 0.62116 0.0
H1211 H 0.37775 0.47642 0.6478 0.0
H1212 H 0.40249 0.42038 0.64712 0.0
C1213 C 0.3315 0.40394 0.60543 0.0
C1214 C 0.55665 0.37979 0.63271 0.0
C1215 C 0.58394 0.36216 0.61977 0.0
H1216 H 0.5043 0.37928 0.6444 0.0
C1217 C 0.57767 0.33136 0.60479 0.0
H1218 H 0.56046 0.40382 0.64402 0.0
C1219 C 0.54531 0.31712 0.60509 0.0
C1220 C 0.51864 0.33348 0.62032 0.0
H1221 H 0.59809 0.31721 0.5944 0.0
H1222 H 0.54172 0.29247 0.59488 0.0
C1223 C 0.52437 0.36565 0.63294 0.0
C1224 C 0.5996 0.42432 0.8484 0.0
C1225 C 0.61689 0.39722 0.86202 0.0
H1226 H 0.60041 0.47648 0.83615 0.0
C1227 C 0.64734 0.40368 0.87754 0.0
H1228 H 0.57583 0.42037 0.83665 0.0
C1229 C 0.6616 0.436 0.87717 0.0
C1230 C 0.64562 0.46247 0.86134 0.0
H1231 H 0.66122 0.38341 0.88846 0.0
H1232 H 0.68599 0.43972 0.88788 0.0
C1233 C 0.61376 0.45657 0.84811 0.0
C1234 C 0.54321 0.6636 0.87659 0.0
C1235 C 0.51662 0.6471 0.86139 0.0
H1236 H 0.59604 0.66397 0.88704 0.0
C1237 C 0.52265 0.61515 0.84843 0.0
H1238 H 0.5394 0.68811 0.88704 0.0
C1239 C 0.55508 0.60137 0.84837 0.0
C1240 C 0.58225 0.61914 0.86135 0.0
H1241 H 0.50267 0.60143 0.83695 0.0
H1242 H 0.55909 0.57748 0.83686 0.0
C1243 C 0.57572 0.64973 0.8766 0.0
C1244 C 0.32801 0.57755 0.87629 0.0
C1245 C 0.359 0.58373 0.86152 0.0
H1246 H 0.28926 0.54153 0.88652 0.0
C1247 C 0.37706 0.55631 0.84934 0.0
H1248 H 0.31353 0.59808 0.88612 0.0
C1249 C 0.36321 0.52393 0.84967 0.0
C1250 C 0.3309 0.51821 0.86208 0.0
H1251 H 0.40126 0.56007 0.83825 0.0
H1252 H 0.37721 0.50372 0.83878 0.0
C1253 C 0.31406 0.54509 0.87653 0.0
C1254 C 0.40098 0.32984 0.87687 0.0
C1255 C 0.39476 0.36087 0.8622 0.0
H1256 H 0.43697 0.2909 0.88665 0.0
C1257 C 0.42212 0.37875 0.84966 0.0
H1258 H 0.38049 0.31548 0.88692 0.0
C1259 C 0.45444 0.36473 0.84958 0.0
C1260 C 0.46017 0.33239 0.86191 0.0
H1261 H 0.41833 0.40295 0.8386 0.0
H1262 H 0.47458 0.37862 0.83846 0.0
C1263 C 0.43339 0.3157 0.87668 0.0
C1264 C 0.36438 0.45496 0.34447 0.0
C1265 C 0.33321 0.46124 0.35884 0.0
H1266 H 0.40178 0.41847 0.33234 0.0
C1267 C 0.31788 0.43514 0.37568 0.0
H1268 H 0.37721 0.4746 0.3317 0.0
C1269 C 0.33209 0.40279 0.37609 0.0
C1270 C 0.36188 0.39593 0.35965 0.0
H1271 H 0.29401 0.43917 0.38724 0.0
H1272 H 0.31871 0.38281 0.38791 0.0
C1273 C 0.37853 0.4227 0.34487 0.0
C1274 C 0.57723 0.32961 0.37714 0.0
C1275 C 0.58372 0.36015 0.36175 0.0
H1276 H 0.54111 0.29097 0.38734 0.0
C1277 C 0.55662 0.37758 0.34827 0.0
H1278 H 0.59751 0.31562 0.38793 0.0
C1279 C 0.52433 0.36349 0.34798 0.0
C1280 C 0.5184 0.33156 0.36106 0.0
H1281 H 0.56061 0.40141 0.33663 0.0
H1282 H 0.50442 0.37695 0.33613 0.0
C1283 C 0.54487 0.31542 0.37676 0.0
C1284 C 0.6513 0.57604 0.37487 0.0
C1285 C 0.6204 0.58234 0.35999 0.0
H1286 H 0.6899 0.53994 0.38523 0.0
C1287 C 0.60243 0.55503 0.34754 0.0
H1288 H 0.66569 0.59647 0.38495 0.0
C1289 C 0.61627 0.52263 0.34779 0.0
C1290 C 0.64845 0.51681 0.36041 0.0
H1291 H 0.57833 0.55886 0.33632 0.0
H1292 H 0.60235 0.5025 0.33673 0.0
C1293 C 0.66521 0.54358 0.37505 0.0
C1294 C 0.42438 0.60118 0.34429 0.0
C1295 C 0.39731 0.61829 0.35816 0.0
H1296 H 0.47671 0.60188 0.33249 0.0
C1297 C 0.40391 0.64826 0.37436 0.0
H1298 H 0.42034 0.5778 0.33199 0.0
C1299 C 0.43638 0.66217 0.37464 0.0
C1300 C 0.46287 0.64636 0.35872 0.0
H1301 H 0.38371 0.66196 0.38556 0.0
H1302 H 0.44025 0.68618 0.38596 0.0
C1303 C 0.45678 0.61505 0.34458 0.0
C1304 C 0.31321 0.54322 0.10681 0.0
C1305 C 0.33006 0.51636 0.12127 0.0
H1306 H 0.31262 0.59618 0.09713 0.0
C1307 C 0.36232 0.52213 0.13376 0.0
H1308 H 0.28846 0.53963 0.09675 0.0
C1309 C 0.37612 0.55454 0.13408 0.0
C1310 C 0.35806 0.58193 0.12182 0.0
H1311 H 0.37631 0.50193 0.14468 0.0
H1312 H 0.40029 0.55831 0.14519 0.0
C1313 C 0.32709 0.5757 0.10705 0.0
C1314 C 0.42186 0.37703 0.13356 0.0
C1315 C 0.39468 0.35944 0.12043 0.0
H1316 H 0.47417 0.3766 0.14534 0.0
C1317 C 0.40109 0.32874 0.10531 0.0
H1318 H 0.41793 0.40098 0.14498 0.0
C1319 C 0.43349 0.31458 0.10561 0.0
C1320 C 0.46007 0.33092 0.12095 0.0
H1321 H 0.38074 0.31462 0.09479 0.0
H1322 H 0.4372 0.29001 0.09526 0.0
C1323 C 0.45418 0.36297 0.13376 0.0
C1324 C 0.6607 0.43464 0.10557 0.0
C1325 C 0.64482 0.461 0.12162 0.0
H1326 H 0.66046 0.38206 0.09428 0.0
C1327 C 0.61323 0.45489 0.1353 0.0
H1328 H 0.6849 0.43852 0.09453 0.0
C1329 C 0.59925 0.42255 0.1352 0.0
C1330 C 0.61647 0.39555 0.12134 0.0
H1331 H 0.59997 0.4747 0.14745 0.0
H1332 H 0.57569 0.41845 0.14727 0.0
C1333 C 0.64664 0.40222 0.10541 0.0
C1334 C 0.54209 0.66136 0.10605 0.0
C1335 C 0.51573 0.6455 0.12215 0.0
H1336 H 0.59475 0.66128 0.09488 0.0
C1337 C 0.52199 0.61415 0.1362 0.0
H1338 H 0.5381 0.6854 0.09477 0.0
C1339 C 0.55442 0.60036 0.13629 0.0
C1340 C 0.5814 0.61754 0.12231 0.0
H1341 H 0.50218 0.60093 0.14841 0.0
H1342 H 0.55859 0.57696 0.14857 0.0
C1343 C 0.57462 0.6475 0.10611 0.0
C1344 C 0.02454 0.25274 0.24266 0.0
C1345 C 0.0063 0.25007 0.21528 0.0
H1346 H 0.02194 0.25098 0.29143 0.0
C1347 C 0.97101 0.25279 0.21569 0.0
H1348 H 0.05185 0.25039 0.24265 0.0
C1349 C 0.95395 0.2524 0.24354 0.0
C1350 C 0.97221 0.25008 0.27093 0.0
H1351 H 0.95658 0.25037 0.19478 0.0
H1352 H 0.92666 0.2498 0.24356 0.0
C1353 C 0.00747 0.25314 0.27051 0.0
C1354 C 0.7261 0.95131 0.24233 0.0
C1355 C 0.72836 0.96894 0.27006 0.0
H1356 H 0.72744 0.95512 0.19361 0.0
C1357 C 0.72461 0.00414 0.27031 0.0
H1358 H 0.72909 0.92409 0.2418 0.0
C1359 C 0.72439 0.02186 0.24278 0.0
C1360 C 0.72701 0.00434 0.21503 0.0
H1361 H 0.7266 0.01816 0.29147 0.0
H1362 H 0.72621 0.04919 0.24326 0.0
C1363 C 0.72503 0.96901 0.21481 0.0
C1364 C 0.9553 0.72516 0.24417 0.0
C1365 C 0.97205 0.72768 0.21601 0.0
H1366 H 0.96043 0.72678 0.29276 0.0
C1367 C 0.00737 0.72531 0.21493 0.0
H1368 H 0.928 0.72723 0.24532 0.0
C1369 C 0.02589 0.72594 0.24201 0.0
C1370 C 0.00909 0.72806 0.27019 0.0
H1371 H 0.02068 0.72763 0.1934 0.0
H1372 H 0.05314 0.72857 0.24083 0.0
C1373 C 0.97383 0.72484 0.27125 0.0
C1374 C 0.25301 0.96977 0.27208 0.0
C1375 C 0.25094 0.00509 0.27151 0.0
H1376 H 0.24908 0.92452 0.24558 0.0
C1377 C 0.25343 0.02229 0.24356 0.0
H1378 H 0.2507 0.95612 0.29344 0.0
C1379 C 0.25328 0.00426 0.21622 0.0
C1380 C 0.2497 0.96904 0.21683 0.0
H1381 H 0.25155 0.04961 0.2428 0.0
H1382 H 0.25124 0.01803 0.19491 0.0
C1383 C 0.25197 0.95174 0.24475 0.0
C1384 C 0.00829 0.72796 0.77221 0.0
C1385 C 0.97297 0.73036 0.77164 0.0
H1386 H 0.05363 0.73094 0.74563 0.0
C1387 C 0.95575 0.72777 0.74372 0.0
H1388 H 0.02197 0.73034 0.79354 0.0
C1389 C 0.97382 0.72726 0.71637 0.0
C1390 C 0.00911 0.73032 0.71689 0.0
H1391 H 0.92844 0.72989 0.74295 0.0
H1392 H 0.96008 0.72914 0.69504 0.0
C1393 C 0.02636 0.72836 0.74485 0.0
C1394 C 0.25258 0.02551 0.74439 0.0
C1395 C 0.25059 0.00795 0.71662 0.0
H1396 H 0.25003 0.02177 0.79309 0.0
C1397 C 0.25313 0.97265 0.71644 0.0
H1398 H 0.25032 0.05281 0.74485 0.0
C1399 C 0.25213 0.95494 0.74397 0.0
C1400 C 0.24948 0.97254 0.77168 0.0
H1401 H 0.25117 0.95871 0.69523 0.0
H1402 H 0.2496 0.92767 0.74344 0.0
C1403 C 0.25246 0.0078 0.77193 0.0
C1404 C 0.00847 0.25394 0.71568 0.0
C1405 C 0.97315 0.25157 0.71526 0.0
H1406 H 0.05279 0.25043 0.74352 0.0
C1407 C 0.95492 0.2541 0.74268 0.0
H1408 H 0.02288 0.25159 0.69475 0.0
C1409 C 0.97198 0.25414 0.77053 0.0
C1410 C 0.00723 0.25085 0.77093 0.0
H1411 H 0.9276 0.25197 0.74266 0.0
H1412 H 0.9575 0.25198 0.79145 0.0
C1413 C 0.02551 0.25319 0.74353 0.0
C1414 C 0.72638 0.00833 0.71522 0.0
C1415 C 0.72869 0.97302 0.7151 0.0
H1416 H 0.72955 0.05288 0.74275 0.0
C1417 C 0.72575 0.95507 0.74263 0.0
H1418 H 0.72905 0.02254 0.69421 0.0
C1419 C 0.72528 0.97239 0.77034 0.0
C1420 C 0.72857 0.00762 0.77051 0.0
H1421 H 0.72781 0.92776 0.74286 0.0
H1422 H 0.72708 0.95811 0.7914 0.0
C1423 C 0.72674 0.02563 0.74294 0.0
C1424 C 0.50756 0.75264 0.7692 0.0
C1425 C 0.47224 0.75009 0.76876 0.0
H1426 H 0.55278 0.74979 0.74246 0.0
C1427 C 0.45489 0.75262 0.74089 0.0
H1428 H 0.52133 0.75028 0.79048 0.0
C1429 C 0.47284 0.75316 0.71348 0.0
C1430 C 0.50813 0.75026 0.7139 0.0
H1431 H 0.42759 0.75037 0.74021 0.0
H1432 H 0.45903 0.75119 0.69219 0.0
C1433 C 0.5255 0.75229 0.74178 0.0
C1434 C 0.22751 0.52726 0.74211 0.0
C1435 C 0.22952 0.50976 0.71429 0.0
H1436 H 0.22907 0.52325 0.79081 0.0
C1437 C 0.22585 0.47454 0.71397 0.0
H1438 H 0.2305 0.55448 0.74271 0.0
C1439 C 0.22581 0.45671 0.74144 0.0
C1440 C 0.22848 0.47411 0.76925 0.0
H1441 H 0.22771 0.46062 0.69274 0.0
H1442 H 0.22758 0.42938 0.74086 0.0
C1443 C 0.22658 0.50944 0.76957 0.0
C1444 C 0.47169 0.22621 0.76851 0.0
C1445 C 0.50696 0.22916 0.76896 0.0
H1446 H 0.42735 0.22905 0.74064 0.0
C1447 C 0.52525 0.22698 0.74156 0.0
H1448 H 0.45721 0.22829 0.78944 0.0
C1449 C 0.50823 0.22668 0.7137 0.0
C1450 C 0.47293 0.22938 0.71328 0.0
H1451 H 0.55254 0.22953 0.7416 0.0
H1452 H 0.52269 0.22912 0.6928 0.0
C1453 C 0.45466 0.22671 0.74065 0.0
C1454 C 0.75307 0.45555 0.74084 0.0
C1455 C 0.75078 0.47356 0.71329 0.0
H1456 H 0.75083 0.45851 0.78959 0.0
C1457 C 0.75325 0.50885 0.7135 0.0
H1458 H 0.75085 0.42825 0.74099 0.0
C1459 C 0.75247 0.52611 0.74124 0.0
C1460 C 0.75002 0.50807 0.76876 0.0
H1461 H 0.75106 0.52311 0.69246 0.0
H1462 H 0.74984 0.55338 0.74104 0.0
C1463 C 0.75311 0.47282 0.76858 0.0
C1464 C 0.50773 0.22391 0.26885 0.0
C1465 C 0.47243 0.22651 0.26922 0.0
H1466 H 0.55211 0.22708 0.24103 0.0
C1467 C 0.45424 0.22382 0.24181 0.0
H1468 H 0.52213 0.22635 0.28977 0.0
C1469 C 0.47135 0.22353 0.21397 0.0
C1470 C 0.5066 0.22672 0.2136 0.0
H1471 H 0.42693 0.22608 0.24179 0.0
H1472 H 0.45691 0.22566 0.19304 0.0
C1473 C 0.52483 0.2244 0.24101 0.0
C1474 C 0.753 0.47055 0.21287 0.0
C1475 C 0.75003 0.50581 0.21308 0.0
H1476 H 0.75084 0.42564 0.24005 0.0
C1477 C 0.75296 0.52349 0.24072 0.0
H1478 H 0.7504 0.45654 0.19176 0.0
C1479 C 0.75404 0.50586 0.26828 0.0
C1480 C 0.75132 0.47058 0.26817 0.0
H1481 H 0.75048 0.55076 0.2412 0.0
H1482 H 0.75217 0.51987 0.28946 0.0
C1483 C 0.75323 0.45292 0.24044 0.0
C1484 C 0.50627 0.75145 0.21252 0.0
C1485 C 0.471 0.74839 0.21374 0.0
H1486 H 0.55222 0.7492 0.23826 0.0
C1487 C 0.45435 0.75081 0.24196 0.0
H1488 H 0.51954 0.74931 0.19096 0.0
C1489 C 0.473 0.75166 0.26896 0.0
C1490 C 0.50831 0.74912 0.26779 0.0
H1491 H 0.42709 0.74832 0.24325 0.0
H1492 H 0.45974 0.74962 0.29054 0.0
C1493 C 0.52493 0.75135 0.23953 0.0
C1494 C 0.22548 0.45397 0.24165 0.0
C1495 C 0.22757 0.47118 0.21368 0.0
H1496 H 0.22774 0.45835 0.29028 0.0
C1497 C 0.2248 0.50645 0.21306 0.0
H1498 H 0.22787 0.42669 0.24244 0.0
C1499 C 0.22557 0.52454 0.24036 0.0
C1500 C 0.22826 0.50733 0.26829 0.0
H1501 H 0.22676 0.52011 0.19168 0.0
H1502 H 0.22797 0.55181 0.2395 0.0
C1503 C 0.22535 0.47205 0.26896 0.0
C1504 C 0.04663 0.21375 0.97741 0.0
C1505 C 0.07591 0.20472 0.96117 0.0
H1506 H 0.02358 0.22078 0.02097 0.0
C1507 C 0.10463 0.19401 0.9774 0.0
H1508 H 0.02397 0.2219 0.96564 0.0
C1509 C 0.1044 0.19334 0.00922 0.0
C1510 C 0.07544 0.20337 0.02547 0.0
H1511 H 0.12756 0.18669 0.96561 0.0
H1512 H 0.12717 0.18558 0.02102 0.0
C1513 C 0.0464 0.21307 0.0092 0.0
C1514 C 0.76213 0.04685 0.00904 0.0
C1515 C 0.77152 0.07583 0.0255 0.0
H1516 H 0.75423 0.0245 0.96532 0.0
C1517 C 0.78175 0.10484 0.00943 0.0
H1518 H 0.75426 0.024 0.02067 0.0
C1519 C 0.78173 0.10514 0.97761 0.0
C1520 C 0.77147 0.07643 0.96117 0.0
H1521 H 0.78929 0.12758 0.02138 0.0
H1522 H 0.78926 0.12808 0.96596 0.0
C1523 C 0.76209 0.04714 0.97725 0.0
C1524 C 0.92983 0.76288 0.97816 0.0
C1525 C 0.90069 0.77218 0.96184 0.0
H1526 H 0.95247 0.75488 0.02177 0.0
C1527 C 0.8717 0.78217 0.97808 0.0
H1528 H 0.95268 0.75522 0.96642 0.0
C1529 C 0.87157 0.78197 0.00992 0.0
C1530 C 0.90044 0.7718 0.02622 0.0
H1531 H 0.84884 0.78963 0.96624 0.0
H1532 H 0.84863 0.78929 0.0217 0.0
C1533 C 0.92971 0.76269 0.00997 0.0
C1534 C 0.21368 0.93035 0.97813 0.0
C1535 C 0.20349 0.90167 0.96161 0.0
H1536 H 0.2217 0.95256 0.02192 0.0
C1537 C 0.19152 0.8733 0.97763 0.0
H1538 H 0.22284 0.95275 0.96656 0.0
C1539 C 0.1908 0.87322 0.00948 0.0
C1540 C 0.20209 0.90148 0.02601 0.0
H1541 H 0.18324 0.85085 0.96564 0.0
H1542 H 0.1821 0.85066 0.02108 0.0
C1543 C 0.21301 0.93025 0.00995 0.0
C1544 C 0.10358 0.79057 0.50909 0.0
C1545 C 0.07625 0.77683 0.52545 0.0
H1546 H 0.12555 0.80028 0.46544 0.0
C1547 C 0.04848 0.76386 0.50922 0.0
H1548 H 0.12531 0.80097 0.52082 0.0
C1549 C 0.04862 0.76345 0.47737 0.0
C1550 C 0.07653 0.77601 0.46104 0.0
H1551 H 0.0269 0.75325 0.52106 0.0
H1552 H 0.02714 0.75256 0.46563 0.0
C1553 C 0.10372 0.79016 0.47726 0.0
C1554 C 0.21733 0.04775 0.4779 0.0
C1555 C 0.20776 0.07671 0.46144 0.0
H1556 H 0.22546 0.0254 0.52164 0.0
C1557 C 0.19749 0.10567 0.47754 0.0
H1558 H 0.22524 0.02494 0.46626 0.0
C1559 C 0.19762 0.10594 0.50936 0.0
C1560 C 0.20803 0.07726 0.52581 0.0
H1561 H 0.18982 0.12839 0.4656 0.0
H1562 H 0.19004 0.12885 0.52101 0.0
C1563 C 0.21746 0.04802 0.50971 0.0
C1564 C 0.93255 0.21487 0.50908 0.0
C1565 C 0.90335 0.20587 0.52547 0.0
H1566 H 0.95534 0.22197 0.46541 0.0
C1567 C 0.87447 0.19537 0.50937 0.0
H1568 H 0.95532 0.22288 0.52074 0.0
C1569 C 0.87449 0.19483 0.47755 0.0
C1570 C 0.90338 0.20478 0.46116 0.0
H1571 H 0.8516 0.18808 0.52128 0.0
H1572 H 0.85162 0.18718 0.46585 0.0
C1573 C 0.93256 0.21433 0.47729 0.0
C1574 C 0.78964 0.87527 0.47766 0.0
C1575 C 0.77748 0.90316 0.46108 0.0
H1576 H 0.79802 0.85328 0.52153 0.0
C1577 C 0.76604 0.93177 0.47703 0.0
H1578 H 0.79879 0.85287 0.46613 0.0
C1579 C 0.76561 0.93201 0.50884 0.0
C1580 C 0.77655 0.90362 0.52541 0.0
H1581 H 0.75671 0.9538 0.46499 0.0
H1582 H 0.75596 0.95422 0.52037 0.0
C1583 C 0.78914 0.87548 0.50948 0.0
C1584 C 0.54849 0.71542 0.47498 0.0
C1585 C 0.57679 0.70348 0.45884 0.0
H1586 H 0.52673 0.72642 0.51847 0.0
C1587 C 0.6049 0.69157 0.47528 0.0
H1588 H 0.52633 0.72465 0.46307 0.0
C1589 C 0.60516 0.69267 0.50708 0.0
C1590 C 0.5773 0.70565 0.52319 0.0
H1591 H 0.6271 0.68207 0.46361 0.0
H1592 H 0.62749 0.68385 0.51897 0.0
C1593 C 0.54873 0.71648 0.5068 0.0
C1594 C 0.29209 0.60241 0.47467 0.0
C1595 C 0.2783 0.57498 0.45854 0.0
H1596 H 0.30201 0.62459 0.51815 0.0
C1597 C 0.26556 0.54724 0.47499 0.0
H1598 H 0.30232 0.62411 0.46276 0.0
C1599 C 0.26536 0.54752 0.50682 0.0
C1600 C 0.2779 0.57555 0.52293 0.0
H1601 H 0.25493 0.52558 0.46333 0.0
H1602 H 0.25462 0.52607 0.51873 0.0
C1603 C 0.2919 0.60269 0.5065 0.0
C1604 C 0.43257 0.26522 0.50693 0.0
C1605 C 0.40338 0.27452 0.52319 0.0
H1606 H 0.4553 0.25719 0.46338 0.0
C1607 C 0.37447 0.28466 0.50693 0.0
H1608 H 0.45537 0.25747 0.51871 0.0
C1609 C 0.37443 0.2845 0.47511 0.0
C1610 C 0.4033 0.27419 0.45887 0.0
H1611 H 0.3516 0.29215 0.51874 0.0
H1612 H 0.35152 0.29186 0.4633 0.0
C1613 C 0.43253 0.26506 0.47514 0.0
C1614 C 0.71725 0.43157 0.50664 0.0
C1615 C 0.70778 0.40262 0.52316 0.0
H1616 H 0.725 0.45393 0.46286 0.0
C1617 C 0.69727 0.3737 0.50714 0.0
H1618 H 0.72532 0.45435 0.51823 0.0
C1619 C 0.69708 0.37345 0.47532 0.0
C1620 C 0.70739 0.40212 0.45881 0.0
H1621 H 0.68965 0.35099 0.51913 0.0
H1622 H 0.68934 0.35057 0.46372 0.0
C1623 C 0.71706 0.43132 0.47484 0.0
C1624 C 0.54653 0.26385 0.00725 0.0
C1625 C 0.57568 0.27311 0.02356 0.0
H1626 H 0.52379 0.25631 0.96364 0.0
C1627 C 0.60452 0.2836 0.00737 0.0
H1628 H 0.52379 0.25583 0.01899 0.0
C1629 C 0.60452 0.28388 0.97555 0.0
C1630 C 0.57568 0.27368 0.95924 0.0
H1631 H 0.62736 0.29107 0.01921 0.0
H1632 H 0.62736 0.29155 0.96378 0.0
C1633 C 0.54653 0.26414 0.97546 0.0
C1634 C 0.6935 0.60567 0.97541 0.0
C1635 C 0.70399 0.57695 0.95908 0.0
H1636 H 0.68561 0.62821 0.01912 0.0
C1637 C 0.71316 0.54768 0.97527 0.0
H1638 H 0.68609 0.62859 0.96367 0.0
C1639 C 0.71287 0.54746 0.00707 0.0
C1640 C 0.7034 0.5765 0.02344 0.0
H1641 H 0.72116 0.52502 0.96344 0.0
H1642 H 0.72067 0.52463 0.01878 0.0
C1643 C 0.69321 0.60544 0.00725 0.0
C1644 C 0.37254 0.69311 0.97478 0.0
C1645 C 0.40095 0.70491 0.9587 0.0
H1646 H 0.34999 0.68371 0.01829 0.0
C1647 C 0.42975 0.71493 0.97518 0.0
H1648 H 0.34999 0.68499 0.96284 0.0
C1649 C 0.42976 0.71418 0.007 0.0
C1650 C 0.40098 0.70336 0.02311 0.0
H1651 H 0.45218 0.72397 0.96356 0.0
H1652 H 0.45217 0.7227 0.01892 0.0
C1653 C 0.37256 0.69231 0.00663 0.0
C1654 C 0.28137 0.37268 0.00696 0.0
C1655 C 0.27113 0.4014 0.02341 0.0
H1656 H 0.28897 0.35023 0.96319 0.0
C1657 C 0.26182 0.4307 0.00733 0.0
H1658 H 0.28885 0.34971 0.01861 0.0
C1659 C 0.26189 0.431 0.97552 0.0
C1660 C 0.27127 0.40201 0.95907 0.0
H1661 H 0.25396 0.45335 0.01925 0.0
H1662 H 0.25408 0.45387 0.96389 0.0
C1663 C 0.28144 0.37298 0.97514 0.0
loop_
_geom_bond_atom_site_label_1
_geom_bond_atom_site_label_2
_geom_bond_distance
_geom_bond_site_symmetry_2
_ccdc_geom_bond_type
Sc0 O3 2.025 . S
Sc0 O10 2.105 . S
Sc0 O13 2.105 . S
Sc0 O16 2.105 . S
Sc0 O19 2.105 . S
Sc1 O3 2.025 . S
Sc1 O11 2.105 . S
Sc1 O15 2.105 . S
Sc1 O17 2.105 . S
Sc1 O21 2.105 . S
Sc2 O3 2.025 . S
Sc2 O12 2.105 . S
Sc2 O14 2.105 . S
Sc2 O18 2.105 . S
Sc2 O20 2.105 . S
O3 Sc0 2.025 . S
O3 Sc1 2.025 . S
O3 Sc2 2.025 . S
C4 O10 1.268 . S
C4 O20 1.268 . S
C5 O11 1.268 . S
C5 O19 1.268 . S
C6 O12 1.268 . S
C6 O21 1.268 . S
C7 O13 1.268 . S
C7 O17 1.268 . S
C8 O14 1.268 . S
C8 O16 1.268 . S
C9 O15 1.268 . S
C9 O18 1.268 . S
O10 Sc0 2.105 . S
O10 C4 1.268 . S
O11 Sc1 2.105 . S
O11 C5 1.268 . S
O12 Sc2 2.105 . S
O12 C6 1.268 . S
O13 Sc0 2.105 . S
O13 C7 1.268 . S
O14 Sc2 2.105 . S
O14 C8 1.268 . S
O15 Sc1 2.105 . S
O15 C9 1.268 . S
O16 Sc0 2.105 . S
O16 C8 1.268 . S
O17 Sc1 2.105 . S
O17 C7 1.268 . S
O18 Sc2 2.105 . S
O18 C9 1.268 . S
O19 Sc0 2.105 . S
O19 C5 1.268 . S
O20 Sc2 2.105 . S
O20 C4 1.268 . S
O21 Sc1 2.105 . S
O21 C6 1.268 . S
Sc22 O25 2.025 . S
Sc22 O32 2.105 . S
Sc22 O35 2.105 . S
Sc22 O38 2.105 . S
Sc22 O41 2.105 . S
Sc23 O25 2.025 . S
Sc23 O33 2.105 . S
Sc23 O37 2.105 . S
Sc23 O39 2.105 . S
Sc23 O43 2.105 . S
Sc24 O25 2.025 . S
Sc24 O34 2.105 . S
Sc24 O36 2.105 . S
Sc24 O40 2.105 . S
Sc24 O42 2.105 . S
O25 Sc22 2.025 . S
O25 Sc23 2.025 . S
O25 Sc24 2.025 . S
C26 O32 1.268 . S
C26 O42 1.268 . S
C27 O33 1.268 . S
C27 O41 1.268 . S
C28 O34 1.268 . S
C28 O43 1.268 . S
C29 O35 1.268 . S
C29 O39 1.268 . S
C30 O36 1.268 . S
C30 O38 1.268 . S
C31 O37 1.268 . S
C31 O40 1.268 . S
O32 Sc22 2.105 . S
O32 C26 1.268 . S
O33 Sc23 2.105 . S
O33 C27 1.268 . S
O34 Sc24 2.105 . S
O34 C28 1.268 . S
O35 Sc22 2.105 . S
O35 C29 1.268 . S
O36 Sc24 2.105 . S
O36 C30 1.268 . S
O37 Sc23 2.105 . S
O37 C31 1.268 . S
O38 Sc22 2.105 . S
O38 C30 1.268 . S
O39 Sc23 2.105 . S
O39 C29 1.268 . S
O40 Sc24 2.105 . S
O40 C31 1.268 . S
O41 Sc22 2.105 . S
O41 C27 1.268 . S
O42 Sc24 2.105 . S
O42 C26 1.268 . S
O43 Sc23 2.105 . S
O43 C28 1.268 . S
Sc44 O47 2.025 . S
Sc44 O54 2.105 . S
Sc44 O57 2.105 . S
Sc44 O60 2.105 . S
Sc44 O63 2.105 . S
Sc45 O47 2.025 . S
Sc45 O55 2.105 . S
Sc45 O59 2.105 . S
Sc45 O61 2.105 . S
Sc45 O65 2.105 . S
Sc46 O47 2.025 . S
Sc46 O56 2.105 . S
Sc46 O58 2.105 . S
Sc46 O62 2.105 . S
Sc46 O64 2.105 . S
O47 Sc44 2.025 . S
O47 Sc45 2.025 . S
O47 Sc46 2.025 . S
C48 O54 1.268 . S
C48 O64 1.268 . S
C49 O55 1.268 . S
C49 O63 1.268 . S
C50 O56 1.268 . S
C50 O65 1.268 . S
C51 O57 1.268 . S
C51 O61 1.268 . S
C52 O58 1.268 . S
C52 O60 1.268 . S
C53 O59 1.268 . S
C53 O62 1.268 . S
O54 Sc44 2.105 . S
O54 C48 1.268 . S
O55 Sc45 2.105 . S
O55 C49 1.268 . S
O56 Sc46 2.105 . S
O56 C50 1.268 . S
O57 Sc44 2.105 . S
O57 C51 1.268 . S
O58 Sc46 2.105 . S
O58 C52 1.268 . S
O59 Sc45 2.105 . S
O59 C53 1.268 . S
O60 Sc44 2.105 . S
O60 C52 1.268 . S
O61 Sc45 2.105 . S
O61 C51 1.268 . S
O62 Sc46 2.105 . S
O62 C53 1.268 . S
O63 Sc44 2.105 . S
O63 C49 1.268 . S
O64 Sc46 2.105 . S
O64 C48 1.268 . S
O65 Sc45 2.105 . S
O65 C50 1.268 . S
Sc66 O69 2.025 . S
Sc66 O76 2.105 . S
Sc66 O79 2.105 . S
Sc66 O82 2.105 . S
Sc66 O85 2.105 . S
Sc67 O69 2.025 . S
Sc67 O77 2.105 . S
Sc67 O81 2.105 . S
Sc67 O83 2.105 . S
Sc67 O87 2.105 . S
Sc68 O69 2.025 . S
Sc68 O78 2.105 . S
Sc68 O80 2.105 . S
Sc68 O84 2.105 . S
Sc68 O86 2.105 . S
O69 Sc66 2.025 . S
O69 Sc67 2.025 . S
O69 Sc68 2.025 . S
C70 O76 1.268 . S
C70 O86 1.268 . S
C71 O77 1.268 . S
C71 O85 1.268 . S
C72 O78 1.268 . S
C72 O87 1.268 . S
C73 O79 1.268 . S
C73 O83 1.268 . S
C74 O80 1.268 . S
C74 O82 1.268 . S
C75 O81 1.268 . S
C75 O84 1.268 . S
O76 Sc66 2.105 . S
O76 C70 1.268 . S
O77 Sc67 2.105 . S
O77 C71 1.268 . S
O78 Sc68 2.105 . S
O78 C72 1.268 . S
O79 Sc66 2.105 . S
O79 C73 1.268 . S
O80 Sc68 2.105 . S
O80 C74 1.268 . S
O81 Sc67 2.105 . S
O81 C75 1.268 . S
O82 Sc66 2.105 . S
O82 C74 1.268 . S
O83 Sc67 2.105 . S
O83 C73 1.268 . S
O84 Sc68 2.105 . S
O84 C75 1.268 . S
O85 Sc66 2.105 . S
O85 C71 1.268 . S
O86 Sc68 2.105 . S
O86 C70 1.268 . S
O87 Sc67 2.105 . S
O87 C72 1.268 . S
Sc88 O91 2.025 . S
Sc88 O98 2.105 . S
Sc88 O101 2.105 . S
Sc88 O104 2.105 . S
Sc88 O107 2.105 . S
Sc89 O91 2.025 . S
Sc89 O99 2.105 . S
Sc89 O103 2.105 . S
Sc89 O105 2.105 . S
Sc89 O109 2.105 . S
Sc90 O91 2.025 . S
Sc90 O100 2.105 . S
Sc90 O102 2.105 . S
Sc90 O106 2.105 . S
Sc90 O108 2.105 . S
O91 Sc88 2.025 . S
O91 Sc89 2.025 . S
O91 Sc90 2.025 . S
C92 O98 1.268 . S
C92 O108 1.268 . S
C93 O99 1.268 . S
C93 O107 1.268 . S
C94 O100 1.268 . S
C94 O109 1.268 . S
C95 O101 1.268 . S
C95 O105 1.268 . S
C96 O102 1.268 . S
C96 O104 1.268 . S
C97 O103 1.268 . S
C97 O106 1.268 . S
O98 Sc88 2.105 . S
O98 C92 1.268 . S
O99 Sc89 2.105 . S
O99 C93 1.268 . S
O100 Sc90 2.105 . S
O100 C94 1.268 . S
O101 Sc88 2.105 . S
O101 C95 1.268 . S
O102 Sc90 2.105 . S
O102 C96 1.268 . S
O103 Sc89 2.105 . S
O103 C97 1.268 . S
O104 Sc88 2.105 . S
O104 C96 1.268 . S
O105 Sc89 2.105 . S
O105 C95 1.268 . S
O106 Sc90 2.105 . S
O106 C97 1.268 . S
O107 Sc88 2.105 . S
O107 C93 1.268 . S
O108 Sc90 2.105 . S
O108 C92 1.268 . S
O109 Sc89 2.105 . S
O109 C94 1.268 . S
Sc110 O113 2.025 . S
Sc110 O120 2.105 . S
Sc110 O123 2.105 . S
Sc110 O126 2.105 . S
Sc110 O129 2.105 . S
Sc111 O113 2.025 . S
Sc111 O121 2.105 . S
Sc111 O125 2.105 . S
Sc111 O127 2.105 . S
Sc111 O131 2.105 . S
Sc112 O113 2.025 . S
Sc112 O122 2.105 . S
Sc112 O124 2.105 . S
Sc112 O128 2.105 . S
Sc112 O130 2.105 . S
O113 Sc110 2.025 . S
O113 Sc111 2.025 . S
O113 Sc112 2.025 . S
C114 O120 1.268 . S
C114 O130 1.268 . S
C115 O121 1.268 . S
C115 O129 1.268 . S
C116 O122 1.268 . S
C116 O131 1.268 . S
C117 O123 1.268 . S
C117 O127 1.268 . S
C118 O124 1.268 . S
C118 O126 1.268 . S
C119 O125 1.268 . S
C119 O128 1.268 . S
O120 Sc110 2.105 . S
O120 C114 1.268 . S
O121 Sc111 2.105 . S
O121 C115 1.268 . S
O122 Sc112 2.105 . S
O122 C116 1.268 . S
O123 Sc110 2.105 . S
O123 C117 1.268 . S
O124 Sc112 2.105 . S
O124 C118 1.268 . S
O125 Sc111 2.105 . S
O125 C119 1.268 . S
O126 Sc110 2.105 . S
O126 C118 1.268 . S
O127 Sc111 2.105 . S
O127 C117 1.268 . S
O128 Sc112 2.105 . S
O128 C119 1.268 . S
O129 Sc110 2.105 . S
O129 C115 1.268 . S
O130 Sc112 2.105 . S
O130 C114 1.268 . S
O131 Sc111 2.105 . S
O131 C116 1.268 . S
Sc132 O135 2.025 . S
Sc132 O142 2.105 . S
Sc132 O145 2.105 . S
Sc132 O148 2.105 . S
Sc132 O151 2.105 . S
Sc133 O135 2.025 . S
Sc133 O143 2.105 . S
Sc133 O147 2.105 . S
Sc133 O149 2.105 . S
Sc133 O153 2.105 . S
Sc134 O135 2.025 . S
Sc134 O144 2.105 . S
Sc134 O146 2.105 . S
Sc134 O150 2.105 . S
Sc134 O152 2.105 . S
O135 Sc132 2.025 . S
O135 Sc133 2.025 . S
O135 Sc134 2.025 . S
C136 O142 1.268 . S
C136 O152 1.268 . S
C137 O143 1.268 . S
C137 O151 1.268 . S
C138 O144 1.268 . S
C138 O153 1.268 . S
C139 O145 1.268 . S
C139 O149 1.268 . S
C140 O146 1.268 . S
C140 O148 1.268 . S
C141 O147 1.268 . S
C141 O150 1.268 . S
O142 Sc132 2.105 . S
O142 C136 1.268 . S
O143 Sc133 2.105 . S
O143 C137 1.268 . S
O144 Sc134 2.105 . S
O144 C138 1.268 . S
O145 Sc132 2.105 . S
O145 C139 1.268 . S
O146 Sc134 2.105 . S
O146 C140 1.268 . S
O147 Sc133 2.105 . S
O147 C141 1.268 . S
O148 Sc132 2.105 . S
O148 C140 1.268 . S
O149 Sc133 2.105 . S
O149 C139 1.268 . S
O150 Sc134 2.105 . S
O150 C141 1.268 . S
O151 Sc132 2.105 . S
O151 C137 1.268 . S
O152 Sc134 2.105 . S
O152 C136 1.268 . S
O153 Sc133 2.105 . S
O153 C138 1.268 . S
Sc154 O157 2.025 . S
Sc154 O164 2.105 . S
Sc154 O167 2.105 . S
Sc154 O170 2.105 . S
Sc154 O173 2.105 . S
Sc155 O157 2.025 . S
Sc155 O165 2.105 . S
Sc155 O169 2.105 . S
Sc155 O171 2.105 . S
Sc155 O175 2.105 . S
Sc156 O157 2.025 . S
Sc156 O166 2.105 . S
Sc156 O168 2.105 . S
Sc156 O172 2.105 . S
Sc156 O174 2.105 . S
O157 Sc154 2.025 . S
O157 Sc155 2.025 . S
O157 Sc156 2.025 . S
C158 O164 1.268 . S
C158 O174 1.268 . S
C159 O165 1.268 . S
C159 O173 1.268 . S
C160 O166 1.268 . S
C160 O175 1.268 . S
C161 O167 1.268 . S
C161 O171 1.268 . S
C162 O168 1.268 . S
C162 O170 1.268 . S
C163 O169 1.268 . S
C163 O172 1.268 . S
O164 Sc154 2.105 . S
O164 C158 1.268 . S
O165 Sc155 2.105 . S
O165 C159 1.268 . S
O166 Sc156 2.105 . S
O166 C160 1.268 . S
O167 Sc154 2.105 . S
O167 C161 1.268 . S
O168 Sc156 2.105 . S
O168 C162 1.268 . S
O169 Sc155 2.105 . S
O169 C163 1.268 . S
O170 Sc154 2.105 . S
O170 C162 1.268 . S
O171 Sc155 2.105 . S
O171 C161 1.268 . S
O172 Sc156 2.105 . S
O172 C163 1.268 . S
O173 Sc154 2.105 . S
O173 C159 1.268 . S
O174 Sc156 2.105 . S
O174 C158 1.268 . S
O175 Sc155 2.105 . S
O175 C160 1.268 . S
Sc176 O179 2.025 . S
Sc176 O186 2.105 . S
Sc176 O189 2.105 . S
Sc176 O192 2.105 . S
Sc176 O195 2.105 . S
Sc177 O179 2.025 . S
Sc177 O187 2.105 . S
Sc177 O191 2.105 . S
Sc177 O193 2.105 . S
Sc177 O197 2.105 . S
Sc178 O179 2.025 . S
Sc178 O188 2.105 . S
Sc178 O190 2.105 . S
Sc178 O194 2.105 . S
Sc178 O196 2.105 . S
O179 Sc176 2.025 . S
O179 Sc177 2.025 . S
O179 Sc178 2.025 . S
C180 O186 1.268 . S
C180 O196 1.268 . S
C181 O187 1.268 . S
C181 O195 1.268 . S
C182 O188 1.268 . S
C182 O197 1.268 . S
C183 O189 1.268 . S
C183 O193 1.268 . S
C184 O190 1.268 . S
C184 O192 1.268 . S
C185 O191 1.268 . S
C185 O194 1.268 . S
O186 Sc176 2.105 . S
O186 C180 1.268 . S
O187 Sc177 2.105 . S
O187 C181 1.268 . S
O188 Sc178 2.105 . S
O188 C182 1.268 . S
O189 Sc176 2.105 . S
O189 C183 1.268 . S
O190 Sc178 2.105 . S
O190 C184 1.268 . S
O191 Sc177 2.105 . S
O191 C185 1.268 . S
O192 Sc176 2.105 . S
O192 C184 1.268 . S
O193 Sc177 2.105 . S
O193 C183 1.268 . S
O194 Sc178 2.105 . S
O194 C185 1.268 . S
O195 Sc176 2.105 . S
O195 C181 1.268 . S
O196 Sc178 2.105 . S
O196 C180 1.268 . S
O197 Sc177 2.105 . S
O197 C182 1.268 . S
Sc198 O201 2.025 . S
Sc198 O208 2.105 . S
Sc198 O211 2.105 . S
Sc198 O214 2.105 . S
Sc198 O217 2.105 . S
Sc199 O201 2.025 . S
Sc199 O209 2.105 . S
Sc199 O213 2.105 . S
Sc199 O215 2.105 . S
Sc199 O219 2.105 . S
Sc200 O201 2.025 . S
Sc200 O210 2.105 . S
Sc200 O212 2.105 . S
Sc200 O216 2.105 . S
Sc200 O218 2.105 . S
O201 Sc198 2.025 . S
O201 Sc199 2.025 . S
O201 Sc200 2.025 . S
C202 O208 1.268 . S
C202 O218 1.268 . S
C203 O209 1.268 . S
C203 O217 1.268 . S
C204 O210 1.268 . S
C204 O219 1.268 . S
C205 O211 1.268 . S
C205 O215 1.268 . S
C206 O212 1.268 . S
C206 O214 1.268 . S
C207 O213 1.268 . S
C207 O216 1.268 . S
O208 Sc198 2.105 . S
O208 C202 1.268 . S
O209 Sc199 2.105 . S
O209 C203 1.268 . S
O210 Sc200 2.105 . S
O210 C204 1.268 . S
O211 Sc198 2.105 . S
O211 C205 1.268 . S
O212 Sc200 2.105 . S
O212 C206 1.268 . S
O213 Sc199 2.105 . S
O213 C207 1.268 . S
O214 Sc198 2.105 . S
O214 C206 1.268 . S
O215 Sc199 2.105 . S
O215 C205 1.268 . S
O216 Sc200 2.105 . S
O216 C207 1.268 . S
O217 Sc198 2.105 . S
O217 C203 1.268 . S
O218 Sc200 2.105 . S
O218 C202 1.268 . S
O219 Sc199 2.105 . S
O219 C204 1.268 . S
Sc220 O223 2.025 . S
Sc220 O230 2.105 . S
Sc220 O233 2.105 . S
Sc220 O236 2.105 . S
Sc220 O239 2.105 . S
Sc221 O223 2.025 . S
Sc221 O231 2.105 . S
Sc221 O235 2.105 . S
Sc221 O237 2.105 . S
Sc221 O241 2.105 . S
Sc222 O223 2.025 . S
Sc222 O232 2.105 . S
Sc222 O234 2.105 . S
Sc222 O238 2.105 . S
Sc222 O240 2.105 . S
O223 Sc220 2.025 . S
O223 Sc221 2.025 . S
O223 Sc222 2.025 . S
C224 O230 1.268 . S
C224 O240 1.268 . S
C225 O231 1.268 . S
C225 O239 1.268 . S
C226 O232 1.268 . S
C226 O241 1.268 . S
C227 O233 1.268 . S
C227 O237 1.268 . S
C228 O234 1.268 . S
C228 O236 1.268 . S
C229 O235 1.268 . S
C229 O238 1.268 . S
O230 Sc220 2.105 . S
O230 C224 1.268 . S
O231 Sc221 2.105 . S
O231 C225 1.268 . S
O232 Sc222 2.105 . S
O232 C226 1.268 . S
O233 Sc220 2.105 . S
O233 C227 1.268 . S
O234 Sc222 2.105 . S
O234 C228 1.268 . S
O235 Sc221 2.105 . S
O235 C229 1.268 . S
O236 Sc220 2.105 . S
O236 C228 1.268 . S
O237 Sc221 2.105 . S
O237 C227 1.268 . S
O238 Sc222 2.105 . S
O238 C229 1.268 . S
O239 Sc220 2.105 . S
O239 C225 1.268 . S
O240 Sc222 2.105 . S
O240 C224 1.268 . S
O241 Sc221 2.105 . S
O241 C226 1.268 . S
Sc242 O245 2.025 . S
Sc242 O252 2.105 . S
Sc242 O255 2.105 . S
Sc242 O258 2.105 . S
Sc242 O261 2.105 . S
Sc243 O245 2.025 . S
Sc243 O253 2.105 . S
Sc243 O257 2.105 . S
Sc243 O259 2.105 . S
Sc243 O263 2.105 . S
Sc244 O245 2.025 . S
Sc244 O254 2.105 . S
Sc244 O256 2.105 . S
Sc244 O260 2.105 . S
Sc244 O262 2.105 . S
O245 Sc242 2.025 . S
O245 Sc243 2.025 . S
O245 Sc244 2.025 . S
C246 O252 1.268 . S
C246 O262 1.268 . S
C247 O253 1.268 . S
C247 O261 1.268 . S
C248 O254 1.268 . S
C248 O263 1.268 . S
C249 O255 1.268 . S
C249 O259 1.268 . S
C250 O256 1.268 . S
C250 O258 1.268 . S
C251 O257 1.268 . S
C251 O260 1.268 . S
O252 Sc242 2.105 . S
O252 C246 1.268 . S
O253 Sc243 2.105 . S
O253 C247 1.268 . S
O254 Sc244 2.105 . S
O254 C248 1.268 . S
O255 Sc242 2.105 . S
O255 C249 1.268 . S
O256 Sc244 2.105 . S
O256 C250 1.268 . S
O257 Sc243 2.105 . S
O257 C251 1.268 . S
O258 Sc242 2.105 . S
O258 C250 1.268 . S
O259 Sc243 2.105 . S
O259 C249 1.268 . S
O260 Sc244 2.105 . S
O260 C251 1.268 . S
O261 Sc242 2.105 . S
O261 C247 1.268 . S
O262 Sc244 2.105 . S
O262 C246 1.268 . S
O263 Sc243 2.105 . S
O263 C248 1.268 . S
Sc264 O267 2.025 . S
Sc264 O274 2.105 . S
Sc264 O277 2.105 . S
Sc264 O280 2.105 . S
Sc264 O283 2.105 . S
Sc265 O267 2.025 . S
Sc265 O275 2.105 . S
Sc265 O279 2.105 . S
Sc265 O281 2.105 . S
Sc265 O285 2.105 . S
Sc266 O267 2.025 . S
Sc266 O276 2.105 . S
Sc266 O278 2.105 . S
Sc266 O282 2.105 . S
Sc266 O284 2.105 . S
O267 Sc264 2.025 . S
O267 Sc265 2.025 . S
O267 Sc266 2.025 . S
C268 O274 1.268 . S
C268 O284 1.268 . S
C269 O275 1.268 . S
C269 O283 1.268 . S
C270 O276 1.268 . S
C270 O285 1.268 . S
C271 O277 1.268 . S
C271 O281 1.268 . S
C272 O278 1.268 . S
C272 O280 1.268 . S
C273 O279 1.268 . S
C273 O282 1.268 . S
O274 Sc264 2.105 . S
O274 C268 1.268 . S
O275 Sc265 2.105 . S
O275 C269 1.268 . S
O276 Sc266 2.105 . S
O276 C270 1.268 . S
O277 Sc264 2.105 . S
O277 C271 1.268 . S
O278 Sc266 2.105 . S
O278 C272 1.268 . S
O279 Sc265 2.105 . S
O279 C273 1.268 . S
O280 Sc264 2.105 . S
O280 C272 1.268 . S
O281 Sc265 2.105 . S
O281 C271 1.268 . S
O282 Sc266 2.105 . S
O282 C273 1.268 . S
O283 Sc264 2.105 . S
O283 C269 1.268 . S
O284 Sc266 2.105 . S
O284 C268 1.268 . S
O285 Sc265 2.105 . S
O285 C270 1.268 . S
Sc286 O289 2.025 . S
Sc286 O296 2.105 . S
Sc286 O299 2.105 . S
Sc286 O302 2.105 . S
Sc286 O305 2.105 . S
Sc287 O289 2.025 . S
Sc287 O297 2.105 . S
Sc287 O301 2.105 . S
Sc287 O303 2.105 . S
Sc287 O307 2.105 . S
Sc288 O289 2.025 . S
Sc288 O298 2.105 . S
Sc288 O300 2.105 . S
Sc288 O304 2.105 . S
Sc288 O306 2.105 . S
O289 Sc286 2.025 . S
O289 Sc287 2.025 . S
O289 Sc288 2.025 . S
C290 O296 1.268 . S
C290 O306 1.268 . S
C291 O297 1.268 . S
C291 O305 1.268 . S
C292 O298 1.268 . S
C292 O307 1.268 . S
C293 O299 1.268 . S
C293 O303 1.268 . S
C294 O300 1.268 . S
C294 O302 1.268 . S
C295 O301 1.268 . S
C295 O304 1.268 . S
O296 Sc286 2.105 . S
O296 C290 1.268 . S
O297 Sc287 2.105 . S
O297 C291 1.268 . S
O298 Sc288 2.105 . S
O298 C292 1.268 . S
O299 Sc286 2.105 . S
O299 C293 1.268 . S
O300 Sc288 2.105 . S
O300 C294 1.268 . S
O301 Sc287 2.105 . S
O301 C295 1.268 . S
O302 Sc286 2.105 . S
O302 C294 1.268 . S
O303 Sc287 2.105 . S
O303 C293 1.268 . S
O304 Sc288 2.105 . S
O304 C295 1.268 . S
O305 Sc286 2.105 . S
O305 C291 1.268 . S
O306 Sc288 2.105 . S
O306 C290 1.268 . S
O307 Sc287 2.105 . S
O307 C292 1.268 . S
Sc308 O311 2.025 . S
Sc308 O318 2.105 . S
Sc308 O321 2.105 . S
Sc308 O324 2.105 . S
Sc308 O327 2.105 . S
Sc309 O311 2.025 . S
Sc309 O319 2.105 . S
Sc309 O323 2.105 . S
Sc309 O325 2.105 . S
Sc309 O329 2.105 . S
Sc310 O311 2.025 . S
Sc310 O320 2.105 . S
Sc310 O322 2.105 . S
Sc310 O326 2.105 . S
Sc310 O328 2.105 . S
O311 Sc308 2.025 . S
O311 Sc309 2.025 . S
O311 Sc310 2.025 . S
C312 O318 1.268 . S
C312 O328 1.268 . S
C313 O319 1.268 . S
C313 O327 1.268 . S
C314 O320 1.268 . S
C314 O329 1.268 . S
C315 O321 1.268 . S
C315 O325 1.268 . S
C316 O322 1.268 . S
C316 O324 1.268 . S
C317 O323 1.268 . S
C317 O326 1.268 . S
O318 Sc308 2.105 . S
O318 C312 1.268 . S
O319 Sc309 2.105 . S
O319 C313 1.268 . S
O320 Sc310 2.105 . S
O320 C314 1.268 . S
O321 Sc308 2.105 . S
O321 C315 1.268 . S
O322 Sc310 2.105 . S
O322 C316 1.268 . S
O323 Sc309 2.105 . S
O323 C317 1.268 . S
O324 Sc308 2.105 . S
O324 C316 1.268 . S
O325 Sc309 2.105 . S
O325 C315 1.268 . S
O326 Sc310 2.105 . S
O326 C317 1.268 . S
O327 Sc308 2.105 . S
O327 C313 1.268 . S
O328 Sc310 2.105 . S
O328 C312 1.268 . S
O329 Sc309 2.105 . S
O329 C314 1.268 . S
Sc330 O333 2.025 . S
Sc330 O340 2.105 . S
Sc330 O343 2.105 . S
Sc330 O346 2.105 . S
Sc330 O349 2.105 . S
Sc331 O333 2.025 . S
Sc331 O341 2.105 . S
Sc331 O345 2.105 . S
Sc331 O347 2.105 . S
Sc331 O351 2.105 . S
Sc332 O333 2.025 . S
Sc332 O342 2.105 . S
Sc332 O344 2.105 . S
Sc332 O348 2.105 . S
Sc332 O350 2.105 . S
O333 Sc330 2.025 . S
O333 Sc331 2.025 . S
O333 Sc332 2.025 . S
C334 O340 1.268 . S
C334 O350 1.268 . S
C335 O341 1.268 . S
C335 O349 1.268 . S
C336 O342 1.268 . S
C336 O351 1.268 . S
C337 O343 1.268 . S
C337 O347 1.268 . S
C338 O344 1.268 . S
C338 O346 1.268 . S
C339 O345 1.268 . S
C339 O348 1.268 . S
O340 Sc330 2.105 . S
O340 C334 1.268 . S
O341 Sc331 2.105 . S
O341 C335 1.268 . S
O342 Sc332 2.105 . S
O342 C336 1.268 . S
O343 Sc330 2.105 . S
O343 C337 1.268 . S
O344 Sc332 2.105 . S
O344 C338 1.268 . S
O345 Sc331 2.105 . S
O345 C339 1.268 . S
O346 Sc330 2.105 . S
O346 C338 1.268 . S
O347 Sc331 2.105 . S
O347 C337 1.268 . S
O348 Sc332 2.105 . S
O348 C339 1.268 . S
O349 Sc330 2.105 . S
O349 C335 1.268 . S
O350 Sc332 2.105 . S
O350 C334 1.268 . S
O351 Sc331 2.105 . S
O351 C336 1.268 . S
Sc352 O355 2.025 . S
Sc352 O362 2.105 . S
Sc352 O365 2.105 . S
Sc352 O368 2.105 . S
Sc352 O371 2.105 . S
Sc353 O355 2.025 . S
Sc353 O363 2.105 . S
Sc353 O367 2.105 . S
Sc353 O369 2.105 . S
Sc353 O373 2.105 . S
Sc354 O355 2.025 . S
Sc354 O364 2.105 . S
Sc354 O366 2.105 . S
Sc354 O370 2.105 . S
Sc354 O372 2.105 . S
O355 Sc352 2.025 . S
O355 Sc353 2.025 . S
O355 Sc354 2.025 . S
C356 O362 1.268 . S
C356 O372 1.268 . S
C357 O363 1.268 . S
C357 O371 1.268 . S
C358 O364 1.268 . S
C358 O373 1.268 . S
C359 O365 1.268 . S
C359 O369 1.268 . S
C360 O366 1.268 . S
C360 O368 1.268 . S
C361 O367 1.268 . S
C361 O370 1.268 . S
O362 Sc352 2.105 . S
O362 C356 1.268 . S
O363 Sc353 2.105 . S
O363 C357 1.268 . S
O364 Sc354 2.105 . S
O364 C358 1.268 . S
O365 Sc352 2.105 . S
O365 C359 1.268 . S
O366 Sc354 2.105 . S
O366 C360 1.268 . S
O367 Sc353 2.105 . S
O367 C361 1.268 . S
O368 Sc352 2.105 . S
O368 C360 1.268 . S
O369 Sc353 2.105 . S
O369 C359 1.268 . S
O370 Sc354 2.105 . S
O370 C361 1.268 . S
O371 Sc352 2.105 . S
O371 C357 1.268 . S
O372 Sc354 2.105 . S
O372 C356 1.268 . S
O373 Sc353 2.105 . S
O373 C358 1.268 . S
Sc374 O377 2.025 . S
Sc374 O384 2.105 . S
Sc374 O387 2.105 . S
Sc374 O390 2.105 . S
Sc374 O393 2.105 . S
Sc375 O377 2.025 . S
Sc375 O385 2.105 . S
Sc375 O389 2.105 . S
Sc375 O391 2.105 . S
Sc375 O395 2.105 . S
Sc376 O377 2.025 . S
Sc376 O386 2.105 . S
Sc376 O388 2.105 . S
Sc376 O392 2.105 . S
Sc376 O394 2.105 . S
O377 Sc374 2.025 . S
O377 Sc375 2.025 . S
O377 Sc376 2.025 . S
C378 O384 1.268 . S
C378 O394 1.268 . S
C379 O385 1.268 . S
C379 O393 1.268 . S
C380 O386 1.268 . S
C380 O395 1.268 . S
C381 O387 1.268 . S
C381 O391 1.268 . S
C382 O388 1.268 . S
C382 O390 1.268 . S
C383 O389 1.268 . S
C383 O392 1.268 . S
O384 Sc374 2.105 . S
O384 C378 1.268 . S
O385 Sc375 2.105 . S
O385 C379 1.268 . S
O386 Sc376 2.105 . S
O386 C380 1.268 . S
O387 Sc374 2.105 . S
O387 C381 1.268 . S
O388 Sc376 2.105 . S
O388 C382 1.268 . S
O389 Sc375 2.105 . S
O389 C383 1.268 . S
O390 Sc374 2.105 . S
O390 C382 1.268 . S
O391 Sc375 2.105 . S
O391 C381 1.268 . S
O392 Sc376 2.105 . S
O392 C383 1.268 . S
O393 Sc374 2.105 . S
O393 C379 1.268 . S
O394 Sc376 2.105 . S
O394 C378 1.268 . S
O395 Sc375 2.105 . S
O395 C380 1.268 . S
Sc396 O399 2.025 . S
Sc396 O406 2.105 . S
Sc396 O409 2.105 . S
Sc396 O412 2.105 . S
Sc396 O415 2.105 . S
Sc397 O399 2.025 . S
Sc397 O407 2.105 . S
Sc397 O411 2.105 . S
Sc397 O413 2.105 . S
Sc397 O417 2.105 . S
Sc398 O399 2.025 . S
Sc398 O408 2.105 . S
Sc398 O410 2.105 . S
Sc398 O414 2.105 . S
Sc398 O416 2.105 . S
O399 Sc396 2.025 . S
O399 Sc397 2.025 . S
O399 Sc398 2.025 . S
C400 O406 1.268 . S
C400 O416 1.268 . S
C401 O407 1.268 . S
C401 O415 1.268 . S
C402 O408 1.268 . S
C402 O417 1.268 . S
C403 O409 1.268 . S
C403 O413 1.268 . S
C404 O410 1.268 . S
C404 O412 1.268 . S
C405 O411 1.268 . S
C405 O414 1.268 . S
O406 Sc396 2.105 . S
O406 C400 1.268 . S
O407 Sc397 2.105 . S
O407 C401 1.268 . S
O408 Sc398 2.105 . S
O408 C402 1.268 . S
O409 Sc396 2.105 . S
O409 C403 1.268 . S
O410 Sc398 2.105 . S
O410 C404 1.268 . S
O411 Sc397 2.105 . S
O411 C405 1.268 . S
O412 Sc396 2.105 . S
O412 C404 1.268 . S
O413 Sc397 2.105 . S
O413 C403 1.268 . S
O414 Sc398 2.105 . S
O414 C405 1.268 . S
O415 Sc396 2.105 . S
O415 C401 1.268 . S
O416 Sc398 2.105 . S
O416 C400 1.268 . S
O417 Sc397 2.105 . S
O417 C402 1.268 . S
Sc418 O421 2.025 . S
Sc418 O428 2.105 . S
Sc418 O431 2.105 . S
Sc418 O434 2.105 . S
Sc418 O437 2.105 . S
Sc419 O421 2.025 . S
Sc419 O429 2.105 . S
Sc419 O433 2.105 . S
Sc419 O435 2.105 . S
Sc419 O439 2.105 . S
Sc420 O421 2.025 . S
Sc420 O430 2.105 . S
Sc420 O432 2.105 . S
Sc420 O436 2.105 . S
Sc420 O438 2.105 . S
O421 Sc418 2.025 . S
O421 Sc419 2.025 . S
O421 Sc420 2.025 . S
C422 O428 1.268 . S
C422 O438 1.268 . S
C423 O429 1.268 . S
C423 O437 1.268 . S
C424 O430 1.268 . S
C424 O439 1.268 . S
C425 O431 1.268 . S
C425 O435 1.268 . S
C426 O432 1.268 . S
C426 O434 1.268 . S
C427 O433 1.268 . S
C427 O436 1.268 . S
O428 Sc418 2.105 . S
O428 C422 1.268 . S
O429 Sc419 2.105 . S
O429 C423 1.268 . S
O430 Sc420 2.105 . S
O430 C424 1.268 . S
O431 Sc418 2.105 . S
O431 C425 1.268 . S
O432 Sc420 2.105 . S
O432 C426 1.268 . S
O433 Sc419 2.105 . S
O433 C427 1.268 . S
O434 Sc418 2.105 . S
O434 C426 1.268 . S
O435 Sc419 2.105 . S
O435 C425 1.268 . S
O436 Sc420 2.105 . S
O436 C427 1.268 . S
O437 Sc418 2.105 . S
O437 C423 1.268 . S
O438 Sc420 2.105 . S
O438 C422 1.268 . S
O439 Sc419 2.105 . S
O439 C424 1.268 . S
Sc440 O443 2.025 . S
Sc440 O450 2.105 . S
Sc440 O453 2.105 . S
Sc440 O456 2.105 . S
Sc440 O459 2.105 . S
Sc441 O443 2.025 . S
Sc441 O451 2.105 . S
Sc441 O455 2.105 . S
Sc441 O457 2.105 . S
Sc441 O461 2.105 . S
Sc442 O443 2.025 . S
Sc442 O452 2.105 . S
Sc442 O454 2.105 . S
Sc442 O458 2.105 . S
Sc442 O460 2.105 . S
O443 Sc440 2.025 . S
O443 Sc441 2.025 . S
O443 Sc442 2.025 . S
C444 O450 1.268 . S
C444 O460 1.268 . S
C445 O451 1.268 . S
C445 O459 1.268 . S
C446 O452 1.268 . S
C446 O461 1.268 . S
C447 O453 1.268 . S
C447 O457 1.268 . S
C448 O454 1.268 . S
C448 O456 1.268 . S
C449 O455 1.268 . S
C449 O458 1.268 . S
O450 Sc440 2.105 . S
O450 C444 1.268 . S
O451 Sc441 2.105 . S
O451 C445 1.268 . S
O452 Sc442 2.105 . S
O452 C446 1.268 . S
O453 Sc440 2.105 . S
O453 C447 1.268 . S
O454 Sc442 2.105 . S
O454 C448 1.268 . S
O455 Sc441 2.105 . S
O455 C449 1.268 . S
O456 Sc440 2.105 . S
O456 C448 1.268 . S
O457 Sc441 2.105 . S
O457 C447 1.268 . S
O458 Sc442 2.105 . S
O458 C449 1.268 . S
O459 Sc440 2.105 . S
O459 C445 1.268 . S
O460 Sc442 2.105 . S
O460 C444 1.268 . S
O461 Sc441 2.105 . S
O461 C446 1.268 . S
Sc462 O465 2.025 . S
Sc462 O472 2.105 . S
Sc462 O475 2.105 . S
Sc462 O478 2.105 . S
Sc462 O481 2.105 . S
Sc463 O465 2.025 . S
Sc463 O473 2.105 . S
Sc463 O477 2.105 . S
Sc463 O479 2.105 . S
Sc463 O483 2.105 . S
Sc464 O465 2.025 . S
Sc464 O474 2.105 . S
Sc464 O476 2.105 . S
Sc464 O480 2.105 . S
Sc464 O482 2.105 . S
O465 Sc462 2.025 . S
O465 Sc463 2.025 . S
O465 Sc464 2.025 . S
C466 O472 1.268 . S
C466 O482 1.268 . S
C467 O473 1.268 . S
C467 O481 1.268 . S
C468 O474 1.268 . S
C468 O483 1.268 . S
C469 O475 1.268 . S
C469 O479 1.268 . S
C470 O476 1.268 . S
C470 O478 1.268 . S
C471 O477 1.268 . S
C471 O480 1.268 . S
O472 Sc462 2.105 . S
O472 C466 1.268 . S
O473 Sc463 2.105 . S
O473 C467 1.268 . S
O474 Sc464 2.105 . S
O474 C468 1.268 . S
O475 Sc462 2.105 . S
O475 C469 1.268 . S
O476 Sc464 2.105 . S
O476 C470 1.268 . S
O477 Sc463 2.105 . S
O477 C471 1.268 . S
O478 Sc462 2.105 . S
O478 C470 1.268 . S
O479 Sc463 2.105 . S
O479 C469 1.268 . S
O480 Sc464 2.105 . S
O480 C471 1.268 . S
O481 Sc462 2.105 . S
O481 C467 1.268 . S
O482 Sc464 2.105 . S
O482 C466 1.268 . S
O483 Sc463 2.105 . S
O483 C468 1.268 . S
Sc484 O487 2.025 . S
Sc484 O494 2.105 . S
Sc484 O497 2.105 . S
Sc484 O500 2.105 . S
Sc484 O503 2.105 . S
Sc485 O487 2.025 . S
Sc485 O495 2.105 . S
Sc485 O499 2.105 . S
Sc485 O501 2.105 . S
Sc485 O505 2.105 . S
Sc486 O487 2.025 . S
Sc486 O496 2.105 . S
Sc486 O498 2.105 . S
Sc486 O502 2.105 . S
Sc486 O504 2.105 . S
O487 Sc484 2.025 . S
O487 Sc485 2.025 . S
O487 Sc486 2.025 . S
C488 O494 1.268 . S
C488 O504 1.268 . S
C489 O495 1.268 . S
C489 O503 1.268 . S
C490 O496 1.268 . S
C490 O505 1.268 . S
C491 O497 1.268 . S
C491 O501 1.268 . S
C492 O498 1.268 . S
C492 O500 1.268 . S
C493 O499 1.268 . S
C493 O502 1.268 . S
O494 Sc484 2.105 . S
O494 C488 1.268 . S
O495 Sc485 2.105 . S
O495 C489 1.268 . S
O496 Sc486 2.105 . S
O496 C490 1.268 . S
O497 Sc484 2.105 . S
O497 C491 1.268 . S
O498 Sc486 2.105 . S
O498 C492 1.268 . S
O499 Sc485 2.105 . S
O499 C493 1.268 . S
O500 Sc484 2.105 . S
O500 C492 1.268 . S
O501 Sc485 2.105 . S
O501 C491 1.268 . S
O502 Sc486 2.105 . S
O502 C493 1.268 . S
O503 Sc484 2.105 . S
O503 C489 1.268 . S
O504 Sc486 2.105 . S
O504 C488 1.268 . S
O505 Sc485 2.105 . S
O505 C490 1.268 . S
Sc506 O509 2.025 . S
Sc506 O516 2.105 . S
Sc506 O519 2.105 . S
Sc506 O522 2.105 . S
Sc506 O525 2.105 . S
Sc507 O509 2.025 . S
Sc507 O517 2.105 . S
Sc507 O521 2.105 . S
Sc507 O523 2.105 . S
Sc507 O527 2.105 . S
Sc508 O509 2.025 . S
Sc508 O518 2.105 . S
Sc508 O520 2.105 . S
Sc508 O524 2.105 . S
Sc508 O526 2.105 . S
O509 Sc506 2.025 . S
O509 Sc507 2.025 . S
O509 Sc508 2.025 . S
C510 O516 1.268 . S
C510 O526 1.268 . S
C511 O517 1.268 . S
C511 O525 1.268 . S
C512 O518 1.268 . S
C512 O527 1.268 . S
C513 O519 1.268 . S
C513 O523 1.268 . S
C514 O520 1.268 . S
C514 O522 1.268 . S
C515 O521 1.268 . S
C515 O524 1.268 . S
O516 Sc506 2.105 . S
O516 C510 1.268 . S
O517 Sc507 2.105 . S
O517 C511 1.268 . S
O518 Sc508 2.105 . S
O518 C512 1.268 . S
O519 Sc506 2.105 . S
O519 C513 1.268 . S
O520 Sc508 2.105 . S
O520 C514 1.268 . S
O521 Sc507 2.105 . S
O521 C515 1.268 . S
O522 Sc506 2.105 . S
O522 C514 1.268 . S
O523 Sc507 2.105 . S
O523 C513 1.268 . S
O524 Sc508 2.105 . S
O524 C515 1.268 . S
O525 Sc506 2.105 . S
O525 C511 1.268 . S
O526 Sc508 2.105 . S
O526 C510 1.268 . S
O527 Sc507 2.105 . S
O527 C512 1.268 . S
Sc528 O531 2.025 . S
Sc528 O538 2.105 . S
Sc528 O541 2.105 . S
Sc528 O544 2.105 . S
Sc528 O547 2.105 . S
Sc529 O531 2.025 . S
Sc529 O539 2.105 . S
Sc529 O543 2.105 . S
Sc529 O545 2.105 . S
Sc529 O549 2.105 . S
Sc530 O531 2.025 . S
Sc530 O540 2.105 . S
Sc530 O542 2.105 . S
Sc530 O546 2.105 . S
Sc530 O548 2.105 . S
O531 Sc528 2.025 . S
O531 Sc529 2.025 . S
O531 Sc530 2.025 . S
C532 O538 1.268 . S
C532 O548 1.268 . S
C533 O539 1.268 . S
C533 O547 1.268 . S
C534 O540 1.268 . S
C534 O549 1.268 . S
C535 O541 1.268 . S
C535 O545 1.268 . S
C536 O542 1.268 . S
C536 O544 1.268 . S
C537 O543 1.268 . S
C537 O546 1.268 . S
O538 Sc528 2.105 . S
O538 C532 1.268 . S
O539 Sc529 2.105 . S
O539 C533 1.268 . S
O540 Sc530 2.105 . S
O540 C534 1.268 . S
O541 Sc528 2.105 . S
O541 C535 1.268 . S
O542 Sc530 2.105 . S
O542 C536 1.268 . S
O543 Sc529 2.105 . S
O543 C537 1.268 . S
O544 Sc528 2.105 . S
O544 C536 1.268 . S
O545 Sc529 2.105 . S
O545 C535 1.268 . S
O546 Sc530 2.105 . S
O546 C537 1.268 . S
O547 Sc528 2.105 . S
O547 C533 1.268 . S
O548 Sc530 2.105 . S
O548 C532 1.268 . S
O549 Sc529 2.105 . S
O549 C534 1.268 . S
Sc550 O553 2.025 . S
Sc550 O560 2.105 . S
Sc550 O563 2.105 . S
Sc550 O566 2.105 . S
Sc550 O569 2.105 . S
Sc551 O553 2.025 . S
Sc551 O561 2.105 . S
Sc551 O565 2.105 . S
Sc551 O567 2.105 . S
Sc551 O571 2.105 . S
Sc552 O553 2.025 . S
Sc552 O562 2.105 . S
Sc552 O564 2.105 . S
Sc552 O568 2.105 . S
Sc552 O570 2.105 . S
O553 Sc550 2.025 . S
O553 Sc551 2.025 . S
O553 Sc552 2.025 . S
C554 O560 1.268 . S
C554 O570 1.268 . S
C555 O561 1.268 . S
C555 O569 1.268 . S
C556 O562 1.268 . S
C556 O571 1.268 . S
C557 O563 1.268 . S
C557 O567 1.268 . S
C558 O564 1.268 . S
C558 O566 1.268 . S
C559 O565 1.268 . S
C559 O568 1.268 . S
O560 Sc550 2.105 . S
O560 C554 1.268 . S
O561 Sc551 2.105 . S
O561 C555 1.268 . S
O562 Sc552 2.105 . S
O562 C556 1.268 . S
O563 Sc550 2.105 . S
O563 C557 1.268 . S
O564 Sc552 2.105 . S
O564 C558 1.268 . S
O565 Sc551 2.105 . S
O565 C559 1.268 . S
O566 Sc550 2.105 . S
O566 C558 1.268 . S
O567 Sc551 2.105 . S
O567 C557 1.268 . S
O568 Sc552 2.105 . S
O568 C559 1.268 . S
O569 Sc550 2.105 . S
O569 C555 1.268 . S
O570 Sc552 2.105 . S
O570 C554 1.268 . S
O571 Sc551 2.105 . S
O571 C556 1.268 . S
Sc572 O575 2.025 . S
Sc572 O582 2.105 . S
Sc572 O585 2.105 . S
Sc572 O588 2.105 . S
Sc572 O591 2.105 . S
Sc573 O575 2.025 . S
Sc573 O583 2.105 . S
Sc573 O587 2.105 . S
Sc573 O589 2.105 . S
Sc573 O593 2.105 . S
Sc574 O575 2.025 . S
Sc574 O584 2.105 . S
Sc574 O586 2.105 . S
Sc574 O590 2.105 . S
Sc574 O592 2.105 . S
O575 Sc572 2.025 . S
O575 Sc573 2.025 . S
O575 Sc574 2.025 . S
C576 O582 1.268 . S
C576 O592 1.268 . S
C577 O583 1.268 . S
C577 O591 1.268 . S
C578 O584 1.268 . S
C578 O593 1.268 . S
C579 O585 1.268 . S
C579 O589 1.268 . S
C580 O586 1.268 . S
C580 O588 1.268 . S
C581 O587 1.268 . S
C581 O590 1.268 . S
O582 Sc572 2.105 . S
O582 C576 1.268 . S
O583 Sc573 2.105 . S
O583 C577 1.268 . S
O584 Sc574 2.105 . S
O584 C578 1.268 . S
O585 Sc572 2.105 . S
O585 C579 1.268 . S
O586 Sc574 2.105 . S
O586 C580 1.268 . S
O587 Sc573 2.105 . S
O587 C581 1.268 . S
O588 Sc572 2.105 . S
O588 C580 1.268 . S
O589 Sc573 2.105 . S
O589 C579 1.268 . S
O590 Sc574 2.105 . S
O590 C581 1.268 . S
O591 Sc572 2.105 . S
O591 C577 1.268 . S
O592 Sc574 2.105 . S
O592 C576 1.268 . S
O593 Sc573 2.105 . S
O593 C578 1.268 . S
Sc594 O597 2.025 . S
Sc594 O604 2.105 . S
Sc594 O607 2.105 . S
Sc594 O610 2.105 . S
Sc594 O613 2.105 . S
Sc595 O597 2.025 . S
Sc595 O605 2.105 . S
Sc595 O609 2.105 . S
Sc595 O611 2.105 . S
Sc595 O615 2.105 . S
Sc596 O597 2.025 . S
Sc596 O606 2.105 . S
Sc596 O608 2.105 . S
Sc596 O612 2.105 . S
Sc596 O614 2.105 . S
O597 Sc594 2.025 . S
O597 Sc595 2.025 . S
O597 Sc596 2.025 . S
C598 O604 1.268 . S
C598 O614 1.268 . S
C599 O605 1.268 . S
C599 O613 1.268 . S
C600 O606 1.268 . S
C600 O615 1.268 . S
C601 O607 1.268 . S
C601 O611 1.268 . S
C602 O608 1.268 . S
C602 O610 1.268 . S
C603 O609 1.268 . S
C603 O612 1.268 . S
O604 Sc594 2.105 . S
O604 C598 1.268 . S
O605 Sc595 2.105 . S
O605 C599 1.268 . S
O606 Sc596 2.105 . S
O606 C600 1.268 . S
O607 Sc594 2.105 . S
O607 C601 1.268 . S
O608 Sc596 2.105 . S
O608 C602 1.268 . S
O609 Sc595 2.105 . S
O609 C603 1.268 . S
O610 Sc594 2.105 . S
O610 C602 1.268 . S
O611 Sc595 2.105 . S
O611 C601 1.268 . S
O612 Sc596 2.105 . S
O612 C603 1.268 . S
O613 Sc594 2.105 . S
O613 C599 1.268 . S
O614 Sc596 2.105 . S
O614 C598 1.268 . S
O615 Sc595 2.105 . S
O615 C600 1.268 . S
Sc616 O619 2.025 . S
Sc616 O626 2.105 . S
Sc616 O629 2.105 . S
Sc616 O632 2.105 . S
Sc616 O635 2.105 . S
Sc617 O619 2.025 . S
Sc617 O627 2.105 . S
Sc617 O631 2.105 . S
Sc617 O633 2.105 . S
Sc617 O637 2.105 . S
Sc618 O619 2.025 . S
Sc618 O628 2.105 . S
Sc618 O630 2.105 . S
Sc618 O634 2.105 . S
Sc618 O636 2.105 . S
O619 Sc616 2.025 . S
O619 Sc617 2.025 . S
O619 Sc618 2.025 . S
C620 O626 1.268 . S
C620 O636 1.268 . S
C621 O627 1.268 . S
C621 O635 1.268 . S
C622 O628 1.268 . S
C622 O637 1.268 . S
C623 O629 1.268 . S
C623 O633 1.268 . S
C624 O630 1.268 . S
C624 O632 1.268 . S
C625 O631 1.268 . S
C625 O634 1.268 . S
O626 Sc616 2.105 . S
O626 C620 1.268 . S
O627 Sc617 2.105 . S
O627 C621 1.268 . S
O628 Sc618 2.105 . S
O628 C622 1.268 . S
O629 Sc616 2.105 . S
O629 C623 1.268 . S
O630 Sc618 2.105 . S
O630 C624 1.268 . S
O631 Sc617 2.105 . S
O631 C625 1.268 . S
O632 Sc616 2.105 . S
O632 C624 1.268 . S
O633 Sc617 2.105 . S
O633 C623 1.268 . S
O634 Sc618 2.105 . S
O634 C625 1.268 . S
O635 Sc616 2.105 . S
O635 C621 1.268 . S
O636 Sc618 2.105 . S
O636 C620 1.268 . S
O637 Sc617 2.105 . S
O637 C622 1.268 . S
Sc638 O641 2.025 . S
Sc638 O648 2.105 . S
Sc638 O651 2.105 . S
Sc638 O654 2.105 . S
Sc638 O657 2.105 . S
Sc639 O641 2.025 . S
Sc639 O649 2.105 . S
Sc639 O653 2.105 . S
Sc639 O655 2.105 . S
Sc639 O659 2.105 . S
Sc640 O641 2.025 . S
Sc640 O650 2.105 . S
Sc640 O652 2.105 . S
Sc640 O656 2.105 . S
Sc640 O658 2.105 . S
O641 Sc638 2.025 . S
O641 Sc639 2.025 . S
O641 Sc640 2.025 . S
C642 O648 1.268 . S
C642 O658 1.268 . S
C643 O649 1.268 . S
C643 O657 1.268 . S
C644 O650 1.268 . S
C644 O659 1.268 . S
C645 O651 1.268 . S
C645 O655 1.268 . S
C646 O652 1.268 . S
C646 O654 1.268 . S
C647 O653 1.268 . S
C647 O656 1.268 . S
O648 Sc638 2.105 . S
O648 C642 1.268 . S
O649 Sc639 2.105 . S
O649 C643 1.268 . S
O650 Sc640 2.105 . S
O650 C644 1.268 . S
O651 Sc638 2.105 . S
O651 C645 1.268 . S
O652 Sc640 2.105 . S
O652 C646 1.268 . S
O653 Sc639 2.105 . S
O653 C647 1.268 . S
O654 Sc638 2.105 . S
O654 C646 1.268 . S
O655 Sc639 2.105 . S
O655 C645 1.268 . S
O656 Sc640 2.105 . S
O656 C647 1.268 . S
O657 Sc638 2.105 . S
O657 C643 1.268 . S
O658 Sc640 2.105 . S
O658 C642 1.268 . S
O659 Sc639 2.105 . S
O659 C644 1.268 . S
Sc660 O663 2.025 . S
Sc660 O670 2.105 . S
Sc660 O673 2.105 . S
Sc660 O676 2.105 . S
Sc660 O679 2.105 . S
Sc661 O663 2.025 . S
Sc661 O671 2.105 . S
Sc661 O675 2.105 . S
Sc661 O677 2.105 . S
Sc661 O681 2.105 . S
Sc662 O663 2.025 . S
Sc662 O672 2.105 . S
Sc662 O674 2.105 . S
Sc662 O678 2.105 . S
Sc662 O680 2.105 . S
O663 Sc660 2.025 . S
O663 Sc661 2.025 . S
O663 Sc662 2.025 . S
C664 O670 1.268 . S
C664 O680 1.268 . S
C665 O671 1.268 . S
C665 O679 1.268 . S
C666 O672 1.268 . S
C666 O681 1.268 . S
C667 O673 1.268 . S
C667 O677 1.268 . S
C668 O674 1.268 . S
C668 O676 1.268 . S
C669 O675 1.268 . S
C669 O678 1.268 . S
O670 Sc660 2.105 . S
O670 C664 1.268 . S
O671 Sc661 2.105 . S
O671 C665 1.268 . S
O672 Sc662 2.105 . S
O672 C666 1.268 . S
O673 Sc660 2.105 . S
O673 C667 1.268 . S
O674 Sc662 2.105 . S
O674 C668 1.268 . S
O675 Sc661 2.105 . S
O675 C669 1.268 . S
O676 Sc660 2.105 . S
O676 C668 1.268 . S
O677 Sc661 2.105 . S
O677 C667 1.268 . S
O678 Sc662 2.105 . S
O678 C669 1.268 . S
O679 Sc660 2.105 . S
O679 C665 1.268 . S
O680 Sc662 2.105 . S
O680 C664 1.268 . S
O681 Sc661 2.105 . S
O681 C666 1.268 . S
Sc682 O685 2.025 . S
Sc682 O692 2.105 . S
Sc682 O695 2.105 . S
Sc682 O698 2.105 . S
Sc682 O701 2.105 . S
Sc683 O685 2.025 . S
Sc683 O693 2.105 . S
Sc683 O697 2.105 . S
Sc683 O699 2.105 . S
Sc683 O703 2.105 . S
Sc684 O685 2.025 . S
Sc684 O694 2.105 . S
Sc684 O696 2.105 . S
Sc684 O700 2.105 . S
Sc684 O702 2.105 . S
O685 Sc682 2.025 . S
O685 Sc683 2.025 . S
O685 Sc684 2.025 . S
C686 O692 1.268 . S
C686 O702 1.268 . S
C687 O693 1.268 . S
C687 O701 1.268 . S
C688 O694 1.268 . S
C688 O703 1.268 . S
C689 O695 1.268 . S
C689 O699 1.268 . S
C690 O696 1.268 . S
C690 O698 1.268 . S
C691 O697 1.268 . S
C691 O700 1.268 . S
O692 Sc682 2.105 . S
O692 C686 1.268 . S
O693 Sc683 2.105 . S
O693 C687 1.268 . S
O694 Sc684 2.105 . S
O694 C688 1.268 . S
O695 Sc682 2.105 . S
O695 C689 1.268 . S
O696 Sc684 2.105 . S
O696 C690 1.268 . S
O697 Sc683 2.105 . S
O697 C691 1.268 . S
O698 Sc682 2.105 . S
O698 C690 1.268 . S
O699 Sc683 2.105 . S
O699 C689 1.268 . S
O700 Sc684 2.105 . S
O700 C691 1.268 . S
O701 Sc682 2.105 . S
O701 C687 1.268 . S
O702 Sc684 2.105 . S
O702 C686 1.268 . S
O703 Sc683 2.105 . S
O703 C688 1.268 . S
C704 C705 1.387 . S
C704 H708 0.950 . S
C704 C713 1.390 . S
C705 C704 1.387 . S
C705 C707 1.387 . S
H706 C713 0.950 . S
C707 C705 1.387 . S
C707 C709 1.390 . S
C707 H711 0.950 . S
H708 C704 0.950 . S
C709 C707 1.390 . S
C709 C710 1.387 . S
C709 H712 0.950 . S
C710 C709 1.387 . S
C710 C713 1.387 . S
H711 C707 0.950 . S
H712 C709 0.950 . S
C713 C704 1.390 . S
C713 H706 0.950 . S
C713 C710 1.387 . S
C714 C715 1.387 . S
C714 H718 0.950 . S
C714 C723 1.390 . S
C715 C714 1.387 . S
C715 C717 1.387 . S
H716 C723 0.950 . S
C717 C715 1.387 . S
C717 C719 1.390 . S
C717 H721 0.950 . S
H718 C714 0.950 . S
C719 C717 1.390 . S
C719 C720 1.387 . S
C719 H722 0.950 . S
C720 C719 1.387 . S
C720 C723 1.387 . S
H721 C717 0.950 . S
H722 C719 0.950 . S
C723 C714 1.390 . S
C723 H716 0.950 . S
C723 C720 1.387 . S
C724 C725 1.387 . S
C724 H728 0.950 . S
C724 C733 1.390 . S
C725 C724 1.387 . S
C725 C727 1.387 . S
H726 C733 0.950 . S
C727 C725 1.387 . S
C727 C729 1.390 . S
C727 H731 0.950 . S
H728 C724 0.950 . S
C729 C727 1.390 . S
C729 C730 1.387 . S
C729 H732 0.950 . S
C730 C729 1.387 . S
C730 C733 1.387 . S
H731 C727 0.950 . S
H732 C729 0.950 . S
C733 C724 1.390 . S
C733 H726 0.950 . S
C733 C730 1.387 . S
C734 C735 1.387 . S
C734 H738 0.950 . S
C734 C743 1.390 . S
C735 C734 1.387 . S
C735 C737 1.387 . S
H736 C743 0.950 . S
C737 C735 1.387 . S
C737 C739 1.390 . S
C737 H741 0.950 . S
H738 C734 0.950 . S
C739 C737 1.390 . S
C739 C740 1.387 . S
C739 H742 0.950 . S
C740 C739 1.387 . S
C740 C743 1.387 . S
H741 C737 0.950 . S
H742 C739 0.950 . S
C743 C734 1.390 . S
C743 H736 0.950 . S
C743 C740 1.387 . S
C744 C745 1.387 . S
C744 H748 0.950 . S
C744 C753 1.390 . S
C745 C744 1.387 . S
C745 C747 1.387 . S
H746 C753 0.950 . S
C747 C745 1.387 . S
C747 C749 1.390 . S
C747 H751 0.950 . S
H748 C744 0.950 . S
C749 C747 1.390 . S
C749 C750 1.387 . S
C749 H752 0.950 . S
C750 C749 1.387 . S
C750 C753 1.387 . S
H751 C747 0.950 . S
H752 C749 0.950 . S
C753 C744 1.390 . S
C753 H746 0.950 . S
C753 C750 1.387 . S
C754 C755 1.387 . S
C754 H758 0.950 . S
C754 C763 1.390 . S
C755 C754 1.387 . S
C755 C757 1.387 . S
H756 C763 0.950 . S
C757 C755 1.387 . S
C757 C759 1.390 . S
C757 H761 0.950 . S
H758 C754 0.950 . S
C759 C757 1.390 . S
C759 C760 1.387 . S
C759 H762 0.950 . S
C760 C759 1.387 . S
C760 C763 1.387 . S
H761 C757 0.950 . S
H762 C759 0.950 . S
C763 C754 1.390 . S
C763 H756 0.950 . S
C763 C760 1.387 . S
C764 C765 1.387 . S
C764 H768 0.950 . S
C764 C773 1.390 . S
C765 C764 1.387 . S
C765 C767 1.387 . S
H766 C773 0.950 . S
C767 C765 1.387 . S
C767 C769 1.390 . S
C767 H771 0.950 . S
H768 C764 0.950 . S
C769 C767 1.390 . S
C769 C770 1.387 . S
C769 H772 0.950 . S
C770 C769 1.387 . S
C770 C773 1.387 . S
H771 C767 0.950 . S
H772 C769 0.950 . S
C773 C764 1.390 . S
C773 H766 0.950 . S
C773 C770 1.387 . S
C774 C775 1.387 . S
C774 H778 0.950 . S
C774 C783 1.390 . S
C775 C774 1.387 . S
C775 C777 1.387 . S
H776 C783 0.950 . S
C777 C775 1.387 . S
C777 C779 1.390 . S
C777 H781 0.950 . S
H778 C774 0.950 . S
C779 C777 1.390 . S
C779 C780 1.387 . S
C779 H782 0.950 . S
C780 C779 1.387 . S
C780 C783 1.387 . S
H781 C777 0.950 . S
H782 C779 0.950 . S
C783 C774 1.390 . S
C783 H776 0.950 . S
C783 C780 1.387 . S
C784 C785 1.387 . S
C784 H788 0.950 . S
C784 C793 1.390 . S
C785 C784 1.387 . S
C785 C787 1.387 . S
H786 C793 0.950 . S
C787 C785 1.387 . S
C787 C789 1.390 . S
C787 H791 0.950 . S
H788 C784 0.950 . S
C789 C787 1.390 . S
C789 C790 1.387 . S
C789 H792 0.950 . S
C790 C789 1.387 . S
C790 C793 1.387 . S
H791 C787 0.950 . S
H792 C789 0.950 . S
C793 C784 1.390 . S
C793 H786 0.950 . S
C793 C790 1.387 . S
C794 C795 1.387 . S
C794 H798 0.950 . S
C794 C803 1.390 . S
C795 C794 1.387 . S
C795 C797 1.387 . S
H796 C803 0.950 . S
C797 C795 1.387 . S
C797 C799 1.390 . S
C797 H801 0.950 . S
H798 C794 0.950 . S
C799 C797 1.390 . S
C799 C800 1.387 . S
C799 H802 0.950 . S
C800 C799 1.387 . S
C800 C803 1.387 . S
H801 C797 0.950 . S
H802 C799 0.950 . S
C803 C794 1.390 . S
C803 H796 0.950 . S
C803 C800 1.387 . S
C804 C805 1.387 . S
C804 H808 0.950 . S
C804 C813 1.390 . S
C805 C804 1.387 . S
C805 C807 1.387 . S
H806 C813 0.950 . S
C807 C805 1.387 . S
C807 C809 1.390 . S
C807 H811 0.950 . S
H808 C804 0.950 . S
C809 C807 1.390 . S
C809 C810 1.387 . S
C809 H812 0.950 . S
C810 C809 1.387 . S
C810 C813 1.387 . S
H811 C807 0.950 . S
H812 C809 0.950 . S
C813 C804 1.390 . S
C813 H806 0.950 . S
C813 C810 1.387 . S
C814 C815 1.387 . S
C814 H818 0.950 . S
C814 C823 1.390 . S
C815 C814 1.387 . S
C815 C817 1.387 . S
H816 C823 0.950 . S
C817 C815 1.387 . S
C817 C819 1.390 . S
C817 H821 0.950 . S
H818 C814 0.950 . S
C819 C817 1.390 . S
C819 C820 1.387 . S
C819 H822 0.950 . S
C820 C819 1.387 . S
C820 C823 1.387 . S
H821 C817 0.950 . S
H822 C819 0.950 . S
C823 C814 1.390 . S
C823 H816 0.950 . S
C823 C820 1.387 . S
C824 C825 1.387 . S
C824 H828 0.950 . S
C824 C833 1.390 . S
C825 C824 1.387 . S
C825 C827 1.387 . S
H826 C833 0.950 . S
C827 C825 1.387 . S
C827 C829 1.390 . S
C827 H831 0.950 . S
H828 C824 0.950 . S
C829 C827 1.390 . S
C829 C830 1.387 . S
C829 H832 0.950 . S
C830 C829 1.387 . S
C830 C833 1.387 . S
H831 C827 0.950 . S
H832 C829 0.950 . S
C833 C824 1.390 . S
C833 H826 0.950 . S
C833 C830 1.387 . S
C834 C835 1.387 . S
C834 H838 0.950 . S
C834 C843 1.390 . S
C835 C834 1.387 . S
C835 C837 1.387 . S
H836 C843 0.950 . S
C837 C835 1.387 . S
C837 C839 1.390 . S
C837 H841 0.950 . S
H838 C834 0.950 . S
C839 C837 1.390 . S
C839 C840 1.387 . S
C839 H842 0.950 . S
C840 C839 1.387 . S
C840 C843 1.387 . S
H841 C837 0.950 . S
H842 C839 0.950 . S
C843 C834 1.390 . S
C843 H836 0.950 . S
C843 C840 1.387 . S
C844 C845 1.387 . S
C844 H848 0.950 . S
C844 C853 1.390 . S
C845 C844 1.387 . S
C845 C847 1.387 . S
H846 C853 0.950 . S
C847 C845 1.387 . S
C847 C849 1.390 . S
C847 H851 0.950 . S
H848 C844 0.950 . S
C849 C847 1.390 . S
C849 C850 1.387 . S
C849 H852 0.950 . S
C850 C849 1.387 . S
C850 C853 1.387 . S
H851 C847 0.950 . S
H852 C849 0.950 . S
C853 C844 1.390 . S
C853 H846 0.950 . S
C853 C850 1.387 . S
C854 C855 1.387 . S
C854 H858 0.950 . S
C854 C863 1.390 . S
C855 C854 1.387 . S
C855 C857 1.387 . S
H856 C863 0.950 . S
C857 C855 1.387 . S
C857 C859 1.390 . S
C857 H861 0.950 . S
H858 C854 0.950 . S
C859 C857 1.390 . S
C859 C860 1.387 . S
C859 H862 0.950 . S
C860 C859 1.387 . S
C860 C863 1.387 . S
H861 C857 0.950 . S
H862 C859 0.950 . S
C863 C854 1.390 . S
C863 H856 0.950 . S
C863 C860 1.387 . S
C864 C865 1.387 . S
C864 H868 0.950 . S
C864 C873 1.390 . S
C865 C864 1.387 . S
C865 C867 1.387 . S
H866 C873 0.950 . S
C867 C865 1.387 . S
C867 C869 1.390 . S
C867 H871 0.950 . S
H868 C864 0.950 . S
C869 C867 1.390 . S
C869 C870 1.387 . S
C869 H872 0.950 . S
C870 C869 1.387 . S
C870 C873 1.387 . S
H871 C867 0.950 . S
H872 C869 0.950 . S
C873 C864 1.390 . S
C873 H866 0.950 . S
C873 C870 1.387 . S
C874 C875 1.387 . S
C874 H878 0.950 . S
C874 C883 1.390 . S
C875 C874 1.387 . S
C875 C877 1.387 . S
H876 C883 0.950 . S
C877 C875 1.387 . S
C877 C879 1.390 . S
C877 H881 0.950 . S
H878 C874 0.950 . S
C879 C877 1.390 . S
C879 C880 1.387 . S
C879 H882 0.950 . S
C880 C879 1.387 . S
C880 C883 1.387 . S
H881 C877 0.950 . S
H882 C879 0.950 . S
C883 C874 1.390 . S
C883 H876 0.950 . S
C883 C880 1.387 . S
C884 C885 1.387 . S
C884 H888 0.950 . S
C884 C893 1.390 . S
C885 C884 1.387 . S
C885 C887 1.387 . S
H886 C893 0.950 . S
C887 C885 1.387 . S
C887 C889 1.390 . S
C887 H891 0.950 . S
H888 C884 0.950 . S
C889 C887 1.390 . S
C889 C890 1.387 . S
C889 H892 0.950 . S
C890 C889 1.387 . S
C890 C893 1.387 . S
H891 C887 0.950 . S
H892 C889 0.950 . S
C893 C884 1.390 . S
C893 H886 0.950 . S
C893 C890 1.387 . S
C894 C895 1.387 . S
C894 H898 0.950 . S
C894 C903 1.390 . S
C895 C894 1.387 . S
C895 C897 1.387 . S
H896 C903 0.950 . S
C897 C895 1.387 . S
C897 C899 1.390 . S
C897 H901 0.950 . S
H898 C894 0.950 . S
C899 C897 1.390 . S
C899 C900 1.387 . S
C899 H902 0.950 . S
C900 C899 1.387 . S
C900 C903 1.387 . S
H901 C897 0.950 . S
H902 C899 0.950 . S
C903 C894 1.390 . S
C903 H896 0.950 . S
C903 C900 1.387 . S
C904 C905 1.387 . S
C904 H908 0.950 . S
C904 C913 1.390 . S
C905 C904 1.387 . S
C905 C907 1.387 . S
H906 C913 0.950 . S
C907 C905 1.387 . S
C907 C909 1.390 . S
C907 H911 0.950 . S
H908 C904 0.950 . S
C909 C907 1.390 . S
C909 C910 1.387 . S
C909 H912 0.950 . S
C910 C909 1.387 . S
C910 C913 1.387 . S
H911 C907 0.950 . S
H912 C909 0.950 . S
C913 C904 1.390 . S
C913 H906 0.950 . S
C913 C910 1.387 . S
C914 C915 1.387 . S
C914 H918 0.950 . S
C914 C923 1.390 . S
C915 C914 1.387 . S
C915 C917 1.387 . S
H916 C923 0.950 . S
C917 C915 1.387 . S
C917 C919 1.390 . S
C917 H921 0.950 . S
H918 C914 0.950 . S
C919 C917 1.390 . S
C919 C920 1.387 . S
C919 H922 0.950 . S
C920 C919 1.387 . S
C920 C923 1.387 . S
H921 C917 0.950 . S
H922 C919 0.950 . S
C923 C914 1.390 . S
C923 H916 0.950 . S
C923 C920 1.387 . S
C924 C925 1.387 . S
C924 H928 0.950 . S
C924 C933 1.390 . S
C925 C924 1.387 . S
C925 C927 1.387 . S
H926 C933 0.950 . S
C927 C925 1.387 . S
C927 C929 1.390 . S
C927 H931 0.950 . S
H928 C924 0.950 . S
C929 C927 1.390 . S
C929 C930 1.387 . S
C929 H932 0.950 . S
C930 C929 1.387 . S
C930 C933 1.387 . S
H931 C927 0.950 . S
H932 C929 0.950 . S
C933 C924 1.390 . S
C933 H926 0.950 . S
C933 C930 1.387 . S
C934 C935 1.387 . S
C934 H938 0.950 . S
C934 C943 1.390 . S
C935 C934 1.387 . S
C935 C937 1.387 . S
H936 C943 0.950 . S
C937 C935 1.387 . S
C937 C939 1.390 . S
C937 H941 0.950 . S
H938 C934 0.950 . S
C939 C937 1.390 . S
C939 C940 1.387 . S
C939 H942 0.950 . S
C940 C939 1.387 . S
C940 C943 1.387 . S
H941 C937 0.950 . S
H942 C939 0.950 . S
C943 C934 1.390 . S
C943 H936 0.950 . S
C943 C940 1.387 . S
C944 C945 1.387 . S
C944 H948 0.950 . S
C944 C953 1.390 . S
C945 C944 1.387 . S
C945 C947 1.387 . S
H946 C953 0.950 . S
C947 C945 1.387 . S
C947 C949 1.390 . S
C947 H951 0.950 . S
H948 C944 0.950 . S
C949 C947 1.390 . S
C949 C950 1.387 . S
C949 H952 0.950 . S
C950 C949 1.387 . S
C950 C953 1.387 . S
H951 C947 0.950 . S
H952 C949 0.950 . S
C953 C944 1.390 . S
C953 H946 0.950 . S
C953 C950 1.387 . S
C954 C955 1.387 . S
C954 H958 0.950 . S
C954 C963 1.390 . S
C955 C954 1.387 . S
C955 C957 1.387 . S
H956 C963 0.950 . S
C957 C955 1.387 . S
C957 C959 1.390 . S
C957 H961 0.950 . S
H958 C954 0.950 . S
C959 C957 1.390 . S
C959 C960 1.387 . S
C959 H962 0.950 . S
C960 C959 1.387 . S
C960 C963 1.387 . S
H961 C957 0.950 . S
H962 C959 0.950 . S
C963 C954 1.390 . S
C963 H956 0.950 . S
C963 C960 1.387 . S
C964 C965 1.387 . S
C964 H968 0.950 . S
C964 C973 1.390 . S
C965 C964 1.387 . S
C965 C967 1.387 . S
H966 C973 0.950 . S
C967 C965 1.387 . S
C967 C969 1.390 . S
C967 H971 0.950 . S
H968 C964 0.950 . S
C969 C967 1.390 . S
C969 C970 1.387 . S
C969 H972 0.950 . S
C970 C969 1.387 . S
C970 C973 1.387 . S
H971 C967 0.950 . S
H972 C969 0.950 . S
C973 C964 1.390 . S
C973 H966 0.950 . S
C973 C970 1.387 . S
C974 C975 1.387 . S
C974 H978 0.950 . S
C974 C983 1.390 . S
C975 C974 1.387 . S
C975 C977 1.387 . S
H976 C983 0.950 . S
C977 C975 1.387 . S
C977 C979 1.390 . S
C977 H981 0.950 . S
H978 C974 0.950 . S
C979 C977 1.390 . S
C979 C980 1.387 . S
C979 H982 0.950 . S
C980 C979 1.387 . S
C980 C983 1.387 . S
H981 C977 0.950 . S
H982 C979 0.950 . S
C983 C974 1.390 . S
C983 H976 0.950 . S
C983 C980 1.387 . S
C984 C985 1.387 . S
C984 H988 0.950 . S
C984 C993 1.390 . S
C985 C984 1.387 . S
C985 C987 1.387 . S
H986 C993 0.950 . S
C987 C985 1.387 . S
C987 C989 1.390 . S
C987 H991 0.950 . S
H988 C984 0.950 . S
C989 C987 1.390 . S
C989 C990 1.387 . S
C989 H992 0.950 . S
C990 C989 1.387 . S
C990 C993 1.387 . S
H991 C987 0.950 . S
H992 C989 0.950 . S
C993 C984 1.390 . S
C993 H986 0.950 . S
C993 C990 1.387 . S
C994 C995 1.387 . S
C994 H998 0.950 . S
C994 C1003 1.390 . S
C995 C994 1.387 . S
C995 C997 1.387 . S
H996 C1003 0.950 . S
C997 C995 1.387 . S
C997 C999 1.390 . S
C997 H1001 0.950 . S
H998 C994 0.950 . S
C999 C997 1.390 . S
C999 C1000 1.387 . S
C999 H1002 0.950 . S
C1000 C999 1.387 . S
C1000 C1003 1.387 . S
H1001 C997 0.950 . S
H1002 C999 0.950 . S
C1003 C994 1.390 . S
C1003 H996 0.950 . S
C1003 C1000 1.387 . S
C1004 C1005 1.387 . S
C1004 H1008 0.950 . S
C1004 C1013 1.390 . S
C1005 C1004 1.387 . S
C1005 C1007 1.387 . S
H1006 C1013 0.950 . S
C1007 C1005 1.387 . S
C1007 C1009 1.390 . S
C1007 H1011 0.950 . S
H1008 C1004 0.950 . S
C1009 C1007 1.390 . S
C1009 C1010 1.387 . S
C1009 H1012 0.950 . S
C1010 C1009 1.387 . S
C1010 C1013 1.387 . S
H1011 C1007 0.950 . S
H1012 C1009 0.950 . S
C1013 C1004 1.390 . S
C1013 H1006 0.950 . S
C1013 C1010 1.387 . S
C1014 C1015 1.387 . S
C1014 H1018 0.950 . S
C1014 C1023 1.390 . S
C1015 C1014 1.387 . S
C1015 C1017 1.387 . S
H1016 C1023 0.950 . S
C1017 C1015 1.387 . S
C1017 C1019 1.390 . S
C1017 H1021 0.950 . S
H1018 C1014 0.950 . S
C1019 C1017 1.390 . S
C1019 C1020 1.387 . S
C1019 H1022 0.950 . S
C1020 C1019 1.387 . S
C1020 C1023 1.387 . S
H1021 C1017 0.950 . S
H1022 C1019 0.950 . S
C1023 C1014 1.390 . S
C1023 H1016 0.950 . S
C1023 C1020 1.387 . S
C1024 C1025 1.387 . S
C1024 H1028 0.950 . S
C1024 C1033 1.390 . S
C1025 C1024 1.387 . S
C1025 C1027 1.387 . S
H1026 C1033 0.950 . S
C1027 C1025 1.387 . S
C1027 C1029 1.390 . S
C1027 H1031 0.950 . S
H1028 C1024 0.950 . S
C1029 C1027 1.390 . S
C1029 C1030 1.387 . S
C1029 H1032 0.950 . S
C1030 C1029 1.387 . S
C1030 C1033 1.387 . S
H1031 C1027 0.950 . S
H1032 C1029 0.950 . S
C1033 C1024 1.390 . S
C1033 H1026 0.950 . S
C1033 C1030 1.387 . S
C1034 C1035 1.387 . S
C1034 H1038 0.950 . S
C1034 C1043 1.390 . S
C1035 C1034 1.387 . S
C1035 C1037 1.387 . S
H1036 C1043 0.950 . S
C1037 C1035 1.387 . S
C1037 C1039 1.390 . S
C1037 H1041 0.950 . S
H1038 C1034 0.950 . S
C1039 C1037 1.390 . S
C1039 C1040 1.387 . S
C1039 H1042 0.950 . S
C1040 C1039 1.387 . S
C1040 C1043 1.387 . S
H1041 C1037 0.950 . S
H1042 C1039 0.950 . S
C1043 C1034 1.390 . S
C1043 H1036 0.950 . S
C1043 C1040 1.387 . S
C1044 C1045 1.387 . S
C1044 H1048 0.950 . S
C1044 C1053 1.390 . S
C1045 C1044 1.387 . S
C1045 C1047 1.387 . S
H1046 C1053 0.950 . S
C1047 C1045 1.387 . S
C1047 C1049 1.390 . S
C1047 H1051 0.950 . S
H1048 C1044 0.950 . S
C1049 C1047 1.390 . S
C1049 C1050 1.387 . S
C1049 H1052 0.950 . S
C1050 C1049 1.387 . S
C1050 C1053 1.387 . S
H1051 C1047 0.950 . S
H1052 C1049 0.950 . S
C1053 C1044 1.390 . S
C1053 H1046 0.950 . S
C1053 C1050 1.387 . S
C1054 C1055 1.387 . S
C1054 H1058 0.950 . S
C1054 C1063 1.390 . S
C1055 C1054 1.387 . S
C1055 C1057 1.387 . S
H1056 C1063 0.950 . S
C1057 C1055 1.387 . S
C1057 C1059 1.390 . S
C1057 H1061 0.950 . S
H1058 C1054 0.950 . S
C1059 C1057 1.390 . S
C1059 C1060 1.387 . S
C1059 H1062 0.950 . S
C1060 C1059 1.387 . S
C1060 C1063 1.387 . S
H1061 C1057 0.950 . S
H1062 C1059 0.950 . S
C1063 C1054 1.390 . S
C1063 H1056 0.950 . S
C1063 C1060 1.387 . S
C1064 C1065 1.387 . S
C1064 H1068 0.950 . S
C1064 C1073 1.390 . S
C1065 C1064 1.387 . S
C1065 C1067 1.387 . S
H1066 C1073 0.950 . S
C1067 C1065 1.387 . S
C1067 C1069 1.390 . S
C1067 H1071 0.950 . S
H1068 C1064 0.950 . S
C1069 C1067 1.390 . S
C1069 C1070 1.387 . S
C1069 H1072 0.950 . S
C1070 C1069 1.387 . S
C1070 C1073 1.387 . S
H1071 C1067 0.950 . S
H1072 C1069 0.950 . S
C1073 C1064 1.390 . S
C1073 H1066 0.950 . S
C1073 C1070 1.387 . S
C1074 C1075 1.387 . S
C1074 H1078 0.950 . S
C1074 C1083 1.390 . S
C1075 C1074 1.387 . S
C1075 C1077 1.387 . S
H1076 C1083 0.950 . S
C1077 C1075 1.387 . S
C1077 C1079 1.390 . S
C1077 H1081 0.950 . S
H1078 C1074 0.950 . S
C1079 C1077 1.390 . S
C1079 C1080 1.387 . S
C1079 H1082 0.950 . S
C1080 C1079 1.387 . S
C1080 C1083 1.387 . S
H1081 C1077 0.950 . S
H1082 C1079 0.950 . S
C1083 C1074 1.390 . S
C1083 H1076 0.950 . S
C1083 C1080 1.387 . S
C1084 C1085 1.387 . S
C1084 H1088 0.950 . S
C1084 C1093 1.390 . S
C1085 C1084 1.387 . S
C1085 C1087 1.387 . S
H1086 C1093 0.950 . S
C1087 C1085 1.387 . S
C1087 C1089 1.390 . S
C1087 H1091 0.950 . S
H1088 C1084 0.950 . S
C1089 C1087 1.390 . S
C1089 C1090 1.387 . S
C1089 H1092 0.950 . S
C1090 C1089 1.387 . S
C1090 C1093 1.387 . S
H1091 C1087 0.950 . S
H1092 C1089 0.950 . S
C1093 C1084 1.390 . S
C1093 H1086 0.950 . S
C1093 C1090 1.387 . S
C1094 C1095 1.387 . S
C1094 H1098 0.950 . S
C1094 C1103 1.390 . S
C1095 C1094 1.387 . S
C1095 C1097 1.387 . S
H1096 C1103 0.950 . S
C1097 C1095 1.387 . S
C1097 C1099 1.390 . S
C1097 H1101 0.950 . S
H1098 C1094 0.950 . S
C1099 C1097 1.390 . S
C1099 C1100 1.387 . S
C1099 H1102 0.950 . S
C1100 C1099 1.387 . S
C1100 C1103 1.387 . S
H1101 C1097 0.950 . S
H1102 C1099 0.950 . S
C1103 C1094 1.390 . S
C1103 H1096 0.950 . S
C1103 C1100 1.387 . S
C1104 C1105 1.387 . S
C1104 H1108 0.950 . S
C1104 C1113 1.390 . S
C1105 C1104 1.387 . S
C1105 C1107 1.387 . S
H1106 C1113 0.950 . S
C1107 C1105 1.387 . S
C1107 C1109 1.390 . S
C1107 H1111 0.950 . S
H1108 C1104 0.950 . S
C1109 C1107 1.390 . S
C1109 C1110 1.387 . S
C1109 H1112 0.950 . S
C1110 C1109 1.387 . S
C1110 C1113 1.387 . S
H1111 C1107 0.950 . S
H1112 C1109 0.950 . S
C1113 C1104 1.390 . S
C1113 H1106 0.950 . S
C1113 C1110 1.387 . S
C1114 C1115 1.387 . S
C1114 H1118 0.950 . S
C1114 C1123 1.390 . S
C1115 C1114 1.387 . S
C1115 C1117 1.387 . S
H1116 C1123 0.950 . S
C1117 C1115 1.387 . S
C1117 C1119 1.390 . S
C1117 H1121 0.950 . S
H1118 C1114 0.950 . S
C1119 C1117 1.390 . S
C1119 C1120 1.387 . S
C1119 H1122 0.950 . S
C1120 C1119 1.387 . S
C1120 C1123 1.387 . S
H1121 C1117 0.950 . S
H1122 C1119 0.950 . S
C1123 C1114 1.390 . S
C1123 H1116 0.950 . S
C1123 C1120 1.387 . S
C1124 C1125 1.387 . S
C1124 H1128 0.950 . S
C1124 C1133 1.390 . S
C1125 C1124 1.387 . S
C1125 C1127 1.387 . S
H1126 C1133 0.950 . S
C1127 C1125 1.387 . S
C1127 C1129 1.390 . S
C1127 H1131 0.950 . S
H1128 C1124 0.950 . S
C1129 C1127 1.390 . S
C1129 C1130 1.387 . S
C1129 H1132 0.950 . S
C1130 C1129 1.387 . S
C1130 C1133 1.387 . S
H1131 C1127 0.950 . S
H1132 C1129 0.950 . S
C1133 C1124 1.390 . S
C1133 H1126 0.950 . S
C1133 C1130 1.387 . S
C1134 C1135 1.387 . S
C1134 H1138 0.950 . S
C1134 C1143 1.390 . S
C1135 C1134 1.387 . S
C1135 C1137 1.387 . S
H1136 C1143 0.950 . S
C1137 C1135 1.387 . S
C1137 C1139 1.390 . S
C1137 H1141 0.950 . S
H1138 C1134 0.950 . S
C1139 C1137 1.390 . S
C1139 C1140 1.387 . S
C1139 H1142 0.950 . S
C1140 C1139 1.387 . S
C1140 C1143 1.387 . S
H1141 C1137 0.950 . S
H1142 C1139 0.950 . S
C1143 C1134 1.390 . S
C1143 H1136 0.950 . S
C1143 C1140 1.387 . S
C1144 C1145 1.387 . S
C1144 H1148 0.950 . S
C1144 C1153 1.390 . S
C1145 C1144 1.387 . S
C1145 C1147 1.387 . S
H1146 C1153 0.950 . S
C1147 C1145 1.387 . S
C1147 C1149 1.390 . S
C1147 H1151 0.950 . S
H1148 C1144 0.950 . S
C1149 C1147 1.390 . S
C1149 C1150 1.387 . S
C1149 H1152 0.950 . S
C1150 C1149 1.387 . S
C1150 C1153 1.387 . S
H1151 C1147 0.950 . S
H1152 C1149 0.950 . S
C1153 C1144 1.390 . S
C1153 H1146 0.950 . S
C1153 C1150 1.387 . S
C1154 C1155 1.387 . S
C1154 H1158 0.950 . S
C1154 C1163 1.390 . S
C1155 C1154 1.387 . S
C1155 C1157 1.387 . S
H1156 C1163 0.950 . S
C1157 C1155 1.387 . S
C1157 C1159 1.390 . S
C1157 H1161 0.950 . S
H1158 C1154 0.950 . S
C1159 C1157 1.390 . S
C1159 C1160 1.387 . S
C1159 H1162 0.950 . S
C1160 C1159 1.387 . S
C1160 C1163 1.387 . S
H1161 C1157 0.950 . S
H1162 C1159 0.950 . S
C1163 C1154 1.390 . S
C1163 H1156 0.950 . S
C1163 C1160 1.387 . S
C1164 C1165 1.387 . S
C1164 H1168 0.950 . S
C1164 C1173 1.390 . S
C1165 C1164 1.387 . S
C1165 C1167 1.387 . S
H1166 C1173 0.950 . S
C1167 C1165 1.387 . S
C1167 C1169 1.390 . S
C1167 H1171 0.950 . S
H1168 C1164 0.950 . S
C1169 C1167 1.390 . S
C1169 C1170 1.387 . S
C1169 H1172 0.950 . S
C1170 C1169 1.387 . S
C1170 C1173 1.387 . S
H1171 C1167 0.950 . S
H1172 C1169 0.950 . S
C1173 C1164 1.390 . S
C1173 H1166 0.950 . S
C1173 C1170 1.387 . S
C1174 C1175 1.387 . S
C1174 H1178 0.950 . S
C1174 C1183 1.390 . S
C1175 C1174 1.387 . S
C1175 C1177 1.387 . S
H1176 C1183 0.950 . S
C1177 C1175 1.387 . S
C1177 C1179 1.390 . S
C1177 H1181 0.950 . S
H1178 C1174 0.950 . S
C1179 C1177 1.390 . S
C1179 C1180 1.387 . S
C1179 H1182 0.950 . S
C1180 C1179 1.387 . S
C1180 C1183 1.387 . S
H1181 C1177 0.950 . S
H1182 C1179 0.950 . S
C1183 C1174 1.390 . S
C1183 H1176 0.950 . S
C1183 C1180 1.387 . S
C1184 C1185 1.387 . S
C1184 H1188 0.950 . S
C1184 C1193 1.390 . S
C1185 C1184 1.387 . S
C1185 C1187 1.387 . S
H1186 C1193 0.950 . S
C1187 C1185 1.387 . S
C1187 C1189 1.390 . S
C1187 H1191 0.950 . S
H1188 C1184 0.950 . S
C1189 C1187 1.390 . S
C1189 C1190 1.387 . S
C1189 H1192 0.950 . S
C1190 C1189 1.387 . S
C1190 C1193 1.387 . S
H1191 C1187 0.950 . S
H1192 C1189 0.950 . S
C1193 C1184 1.390 . S
C1193 H1186 0.950 . S
C1193 C1190 1.387 . S
C1194 C1195 1.387 . S
C1194 H1198 0.950 . S
C1194 C1203 1.390 . S
C1195 C1194 1.387 . S
C1195 C1197 1.387 . S
H1196 C1203 0.950 . S
C1197 C1195 1.387 . S
C1197 C1199 1.390 . S
C1197 H1201 0.950 . S
H1198 C1194 0.950 . S
C1199 C1197 1.390 . S
C1199 C1200 1.387 . S
C1199 H1202 0.950 . S
C1200 C1199 1.387 . S
C1200 C1203 1.387 . S
H1201 C1197 0.950 . S
H1202 C1199 0.950 . S
C1203 C1194 1.390 . S
C1203 H1196 0.950 . S
C1203 C1200 1.387 . S
C1204 C1205 1.387 . S
C1204 H1208 0.950 . S
C1204 C1213 1.390 . S
C1205 C1204 1.387 . S
C1205 C1207 1.387 . S
H1206 C1213 0.950 . S
C1207 C1205 1.387 . S
C1207 C1209 1.390 . S
C1207 H1211 0.950 . S
H1208 C1204 0.950 . S
C1209 C1207 1.390 . S
C1209 C1210 1.387 . S
C1209 H1212 0.950 . S
C1210 C1209 1.387 . S
C1210 C1213 1.387 . S
H1211 C1207 0.950 . S
H1212 C1209 0.950 . S
C1213 C1204 1.390 . S
C1213 H1206 0.950 . S
C1213 C1210 1.387 . S
C1214 C1215 1.387 . S
C1214 H1218 0.950 . S
C1214 C1223 1.390 . S
C1215 C1214 1.387 . S
C1215 C1217 1.387 . S
H1216 C1223 0.950 . S
C1217 C1215 1.387 . S
C1217 C1219 1.390 . S
C1217 H1221 0.950 . S
H1218 C1214 0.950 . S
C1219 C1217 1.390 . S
C1219 C1220 1.387 . S
C1219 H1222 0.950 . S
C1220 C1219 1.387 . S
C1220 C1223 1.387 . S
H1221 C1217 0.950 . S
H1222 C1219 0.950 . S
C1223 C1214 1.390 . S
C1223 H1216 0.950 . S
C1223 C1220 1.387 . S
C1224 C1225 1.387 . S
C1224 H1228 0.950 . S
C1224 C1233 1.390 . S
C1225 C1224 1.387 . S
C1225 C1227 1.387 . S
H1226 C1233 0.950 . S
C1227 C1225 1.387 . S
C1227 C1229 1.390 . S
C1227 H1231 0.950 . S
H1228 C1224 0.950 . S
C1229 C1227 1.390 . S
C1229 C1230 1.387 . S
C1229 H1232 0.950 . S
C1230 C1229 1.387 . S
C1230 C1233 1.387 . S
H1231 C1227 0.950 . S
H1232 C1229 0.950 . S
C1233 C1224 1.390 . S
C1233 H1226 0.950 . S
C1233 C1230 1.387 . S
C1234 C1235 1.387 . S
C1234 H1238 0.950 . S
C1234 C1243 1.390 . S
C1235 C1234 1.387 . S
C1235 C1237 1.387 . S
H1236 C1243 0.950 . S
C1237 C1235 1.387 . S
C1237 C1239 1.390 . S
C1237 H1241 0.950 . S
H1238 C1234 0.950 . S
C1239 C1237 1.390 . S
C1239 C1240 1.387 . S
C1239 H1242 0.950 . S
C1240 C1239 1.387 . S
C1240 C1243 1.387 . S
H1241 C1237 0.950 . S
H1242 C1239 0.950 . S
C1243 C1234 1.390 . S
C1243 H1236 0.950 . S
C1243 C1240 1.387 . S
C1244 C1245 1.387 . S
C1244 H1248 0.950 . S
C1244 C1253 1.390 . S
C1245 C1244 1.387 . S
C1245 C1247 1.387 . S
H1246 C1253 0.950 . S
C1247 C1245 1.387 . S
C1247 C1249 1.390 . S
C1247 H1251 0.950 . S
H1248 C1244 0.950 . S
C1249 C1247 1.390 . S
C1249 C1250 1.387 . S
C1249 H1252 0.950 . S
C1250 C1249 1.387 . S
C1250 C1253 1.387 . S
H1251 C1247 0.950 . S
H1252 C1249 0.950 . S
C1253 C1244 1.390 . S
C1253 H1246 0.950 . S
C1253 C1250 1.387 . S
C1254 C1255 1.387 . S
C1254 H1258 0.950 . S
C1254 C1263 1.390 . S
C1255 C1254 1.387 . S
C1255 C1257 1.387 . S
H1256 C1263 0.950 . S
C1257 C1255 1.387 . S
C1257 C1259 1.390 . S
C1257 H1261 0.950 . S
H1258 C1254 0.950 . S
C1259 C1257 1.390 . S
C1259 C1260 1.387 . S
C1259 H1262 0.950 . S
C1260 C1259 1.387 . S
C1260 C1263 1.387 . S
H1261 C1257 0.950 . S
H1262 C1259 0.950 . S
C1263 C1254 1.390 . S
C1263 H1256 0.950 . S
C1263 C1260 1.387 . S
C1264 C1265 1.387 . S
C1264 H1268 0.950 . S
C1264 C1273 1.390 . S
C1265 C1264 1.387 . S
C1265 C1267 1.387 . S
H1266 C1273 0.950 . S
C1267 C1265 1.387 . S
C1267 C1269 1.390 . S
C1267 H1271 0.950 . S
H1268 C1264 0.950 . S
C1269 C1267 1.390 . S
C1269 C1270 1.387 . S
C1269 H1272 0.950 . S
C1270 C1269 1.387 . S
C1270 C1273 1.387 . S
H1271 C1267 0.950 . S
H1272 C1269 0.950 . S
C1273 C1264 1.390 . S
C1273 H1266 0.950 . S
C1273 C1270 1.387 . S
C1274 C1275 1.387 . S
C1274 H1278 0.950 . S
C1274 C1283 1.390 . S
C1275 C1274 1.387 . S
C1275 C1277 1.387 . S
H1276 C1283 0.950 . S
C1277 C1275 1.387 . S
C1277 C1279 1.390 . S
C1277 H1281 0.950 . S
H1278 C1274 0.950 . S
C1279 C1277 1.390 . S
C1279 C1280 1.387 . S
C1279 H1282 0.950 . S
C1280 C1279 1.387 . S
C1280 C1283 1.387 . S
H1281 C1277 0.950 . S
H1282 C1279 0.950 . S
C1283 C1274 1.390 . S
C1283 H1276 0.950 . S
C1283 C1280 1.387 . S
C1284 C1285 1.387 . S
C1284 H1288 0.950 . S
C1284 C1293 1.390 . S
C1285 C1284 1.387 . S
C1285 C1287 1.387 . S
H1286 C1293 0.950 . S
C1287 C1285 1.387 . S
C1287 C1289 1.390 . S
C1287 H1291 0.950 . S
H1288 C1284 0.950 . S
C1289 C1287 1.390 . S
C1289 C1290 1.387 . S
C1289 H1292 0.950 . S
C1290 C1289 1.387 . S
C1290 C1293 1.387 . S
H1291 C1287 0.950 . S
H1292 C1289 0.950 . S
C1293 C1284 1.390 . S
C1293 H1286 0.950 . S
C1293 C1290 1.387 . S
C1294 C1295 1.387 . S
C1294 H1298 0.950 . S
C1294 C1303 1.390 . S
C1295 C1294 1.387 . S
C1295 C1297 1.387 . S
H1296 C1303 0.950 . S
C1297 C1295 1.387 . S
C1297 C1299 1.390 . S
C1297 H1301 0.950 . S
H1298 C1294 0.950 . S
C1299 C1297 1.390 . S
C1299 C1300 1.387 . S
C1299 H1302 0.950 . S
C1300 C1299 1.387 . S
C1300 C1303 1.387 . S
H1301 C1297 0.950 . S
H1302 C1299 0.950 . S
C1303 C1294 1.390 . S
C1303 H1296 0.950 . S
C1303 C1300 1.387 . S
C1304 C1305 1.387 . S
C1304 H1308 0.950 . S
C1304 C1313 1.390 . S
C1305 C1304 1.387 . S
C1305 C1307 1.387 . S
H1306 C1313 0.950 . S
C1307 C1305 1.387 . S
C1307 C1309 1.390 . S
C1307 H1311 0.950 . S
H1308 C1304 0.950 . S
C1309 C1307 1.390 . S
C1309 C1310 1.387 . S
C1309 H1312 0.950 . S
C1310 C1309 1.387 . S
C1310 C1313 1.387 . S
H1311 C1307 0.950 . S
H1312 C1309 0.950 . S
C1313 C1304 1.390 . S
C1313 H1306 0.950 . S
C1313 C1310 1.387 . S
C1314 C1315 1.387 . S
C1314 H1318 0.950 . S
C1314 C1323 1.390 . S
C1315 C1314 1.387 . S
C1315 C1317 1.387 . S
H1316 C1323 0.950 . S
C1317 C1315 1.387 . S
C1317 C1319 1.390 . S
C1317 H1321 0.950 . S
H1318 C1314 0.950 . S
C1319 C1317 1.390 . S
C1319 C1320 1.387 . S
C1319 H1322 0.950 . S
C1320 C1319 1.387 . S
C1320 C1323 1.387 . S
H1321 C1317 0.950 . S
H1322 C1319 0.950 . S
C1323 C1314 1.390 . S
C1323 H1316 0.950 . S
C1323 C1320 1.387 . S
C1324 C1325 1.387 . S
C1324 H1328 0.950 . S
C1324 C1333 1.390 . S
C1325 C1324 1.387 . S
C1325 C1327 1.387 . S
H1326 C1333 0.950 . S
C1327 C1325 1.387 . S
C1327 C1329 1.390 . S
C1327 H1331 0.950 . S
H1328 C1324 0.950 . S
C1329 C1327 1.390 . S
C1329 C1330 1.387 . S
C1329 H1332 0.950 . S
C1330 C1329 1.387 . S
C1330 C1333 1.387 . S
H1331 C1327 0.950 . S
H1332 C1329 0.950 . S
C1333 C1324 1.390 . S
C1333 H1326 0.950 . S
C1333 C1330 1.387 . S
C1334 C1335 1.387 . S
C1334 H1338 0.950 . S
C1334 C1343 1.390 . S
C1335 C1334 1.387 . S
C1335 C1337 1.387 . S
H1336 C1343 0.950 . S
C1337 C1335 1.387 . S
C1337 C1339 1.390 . S
C1337 H1341 0.950 . S
H1338 C1334 0.950 . S
C1339 C1337 1.390 . S
C1339 C1340 1.387 . S
C1339 H1342 0.950 . S
C1340 C1339 1.387 . S
C1340 C1343 1.387 . S
H1341 C1337 0.950 . S
H1342 C1339 0.950 . S
C1343 C1334 1.390 . S
C1343 H1336 0.950 . S
C1343 C1340 1.387 . S
C1344 C1345 1.387 . S
C1344 H1348 0.950 . S
C1344 C1353 1.390 1_455 S
C1345 C1344 1.387 . S
C1345 C1347 1.387 . S
H1346 C1353 0.950 . S
C1347 C1345 1.387 . S
C1347 C1349 1.390 1_455 S
C1347 H1351 0.950 . S
H1348 C1344 0.950 . S
C1349 C1347 1.390 1_655 S
C1349 C1350 1.387 . S
C1349 H1352 0.950 . S
C1350 C1349 1.387 . S
C1350 C1353 1.387 . S
H1351 C1347 0.950 . S
H1352 C1349 0.950 . S
C1353 C1344 1.390 1_655 S
C1353 H1346 0.950 . S
C1353 C1350 1.387 . S
C1354 C1355 1.387 . S
C1354 H1358 0.950 . S
C1354 C1363 1.390 1_565 S
C1355 C1354 1.387 . S
C1355 C1357 1.387 . S
H1356 C1363 0.950 . S
C1357 C1355 1.387 . S
C1357 C1359 1.390 1_565 S
C1357 H1361 0.950 . S
H1358 C1354 0.950 . S
C1359 C1357 1.390 1_545 S
C1359 C1360 1.387 . S
C1359 H1362 0.950 . S
C1360 C1359 1.387 . S
C1360 C1363 1.387 . S
H1361 C1357 0.950 . S
H1362 C1359 0.950 . S
C1363 C1354 1.390 1_545 S
C1363 H1356 0.950 . S
C1363 C1360 1.387 . S
C1364 C1365 1.387 . S
C1364 H1368 0.950 . S
C1364 C1373 1.390 1_655 S
C1365 C1364 1.387 . S
C1365 C1367 1.387 . S
H1366 C1373 0.950 . S
C1367 C1365 1.387 . S
C1367 C1369 1.390 1_655 S
C1367 H1371 0.950 . S
H1368 C1364 0.950 . S
C1369 C1367 1.390 1_455 S
C1369 C1370 1.387 . S
C1369 H1372 0.950 . S
C1370 C1369 1.387 . S
C1370 C1373 1.387 . S
H1371 C1367 0.950 . S
H1372 C1369 0.950 . S
C1373 C1364 1.390 1_455 S
C1373 H1366 0.950 . S
C1373 C1370 1.387 . S
C1374 C1375 1.387 . S
C1374 H1378 0.950 . S
C1374 C1383 1.390 1_545 S
C1375 C1374 1.387 . S
C1375 C1377 1.387 . S
H1376 C1383 0.950 . S
C1377 C1375 1.387 . S
C1377 C1379 1.390 1_545 S
C1377 H1381 0.950 . S
H1378 C1374 0.950 . S
C1379 C1377 1.390 1_565 S
C1379 C1380 1.387 . S
C1379 H1382 0.950 . S
C1380 C1379 1.387 . S
C1380 C1383 1.387 . S
H1381 C1377 0.950 . S
H1382 C1379 0.950 . S
C1383 C1374 1.390 1_565 S
C1383 H1376 0.950 . S
C1383 C1380 1.387 . S
C1384 C1385 1.387 . S
C1384 H1388 0.950 . S
C1384 C1393 1.390 1_655 S
C1385 C1384 1.387 . S
C1385 C1387 1.387 . S
H1386 C1393 0.950 . S
C1387 C1385 1.387 . S
C1387 C1389 1.390 1_655 S
C1387 H1391 0.950 . S
H1388 C1384 0.950 . S
C1389 C1387 1.390 1_455 S
C1389 C1390 1.387 . S
C1389 H1392 0.950 . S
C1390 C1389 1.387 . S
C1390 C1393 1.387 . S
H1391 C1387 0.950 . S
H1392 C1389 0.950 . S
C1393 C1384 1.390 1_455 S
C1393 H1386 0.950 . S
C1393 C1390 1.387 . S
C1394 C1395 1.387 . S
C1394 H1398 0.950 . S
C1394 C1403 1.390 1_545 S
C1395 C1394 1.387 . S
C1395 C1397 1.387 . S
H1396 C1403 0.950 . S
C1397 C1395 1.387 . S
C1397 C1399 1.390 1_545 S
C1397 H1401 0.950 . S
H1398 C1394 0.950 . S
C1399 C1397 1.390 1_565 S
C1399 C1400 1.387 . S
C1399 H1402 0.950 . S
C1400 C1399 1.387 . S
C1400 C1403 1.387 . S
H1401 C1397 0.950 . S
H1402 C1399 0.950 . S
C1403 C1394 1.390 1_565 S
C1403 H1396 0.950 . S
C1403 C1400 1.387 . S
C1404 C1405 1.387 . S
C1404 H1408 0.950 . S
C1404 C1413 1.390 1_655 S
C1405 C1404 1.387 . S
C1405 C1407 1.387 . S
H1406 C1413 0.950 . S
C1407 C1405 1.387 . S
C1407 C1409 1.390 1_655 S
C1407 H1411 0.950 . S
H1408 C1404 0.950 . S
C1409 C1407 1.390 1_455 S
C1409 C1410 1.387 . S
C1409 H1412 0.950 . S
C1410 C1409 1.387 . S
C1410 C1413 1.387 . S
H1411 C1407 0.950 . S
H1412 C1409 0.950 . S
C1413 C1404 1.390 1_455 S
C1413 H1406 0.950 . S
C1413 C1410 1.387 . S
C1414 C1415 1.387 . S
C1414 H1418 0.950 . S
C1414 C1423 1.390 1_565 S
C1415 C1414 1.387 . S
C1415 C1417 1.387 . S
H1416 C1423 0.950 . S
C1417 C1415 1.387 . S
C1417 C1419 1.390 1_565 S
C1417 H1421 0.950 . S
H1418 C1414 0.950 . S
C1419 C1417 1.390 1_545 S
C1419 C1420 1.387 . S
C1419 H1422 0.950 . S
C1420 C1419 1.387 . S
C1420 C1423 1.387 . S
H1421 C1417 0.950 . S
H1422 C1419 0.950 . S
C1423 C1414 1.390 1_545 S
C1423 H1416 0.950 . S
C1423 C1420 1.387 . S
C1424 C1425 1.387 . S
C1424 H1428 0.950 . S
C1424 C1433 1.390 . S
C1425 C1424 1.387 . S
C1425 C1427 1.387 . S
H1426 C1433 0.950 . S
C1427 C1425 1.387 . S
C1427 C1429 1.390 . S
C1427 H1431 0.950 . S
H1428 C1424 0.950 . S
C1429 C1427 1.390 . S
C1429 C1430 1.387 . S
C1429 H1432 0.950 . S
C1430 C1429 1.387 . S
C1430 C1433 1.387 . S
H1431 C1427 0.950 . S
H1432 C1429 0.950 . S
C1433 C1424 1.390 . S
C1433 H1426 0.950 . S
C1433 C1430 1.387 . S
C1434 C1435 1.387 . S
C1434 H1438 0.950 . S
C1434 C1443 1.390 . S
C1435 C1434 1.387 . S
C1435 C1437 1.387 . S
H1436 C1443 0.950 . S
C1437 C1435 1.387 . S
C1437 C1439 1.390 . S
C1437 H1441 0.950 . S
H1438 C1434 0.950 . S
C1439 C1437 1.390 . S
C1439 C1440 1.387 . S
C1439 H1442 0.950 . S
C1440 C1439 1.387 . S
C1440 C1443 1.387 . S
H1441 C1437 0.950 . S
H1442 C1439 0.950 . S
C1443 C1434 1.390 . S
C1443 H1436 0.950 . S
C1443 C1440 1.387 . S
C1444 C1445 1.387 . S
C1444 H1448 0.950 . S
C1444 C1453 1.390 . S
C1445 C1444 1.387 . S
C1445 C1447 1.387 . S
H1446 C1453 0.950 . S
C1447 C1445 1.387 . S
C1447 C1449 1.390 . S
C1447 H1451 0.950 . S
H1448 C1444 0.950 . S
C1449 C1447 1.390 . S
C1449 C1450 1.387 . S
C1449 H1452 0.950 . S
C1450 C1449 1.387 . S
C1450 C1453 1.387 . S
H1451 C1447 0.950 . S
H1452 C1449 0.950 . S
C1453 C1444 1.390 . S
C1453 H1446 0.950 . S
C1453 C1450 1.387 . S
C1454 C1455 1.387 . S
C1454 H1458 0.950 . S
C1454 C1463 1.390 . S
C1455 C1454 1.387 . S
C1455 C1457 1.387 . S
H1456 C1463 0.950 . S
C1457 C1455 1.387 . S
C1457 C1459 1.390 . S
C1457 H1461 0.950 . S
H1458 C1454 0.950 . S
C1459 C1457 1.390 . S
C1459 C1460 1.387 . S
C1459 H1462 0.950 . S
C1460 C1459 1.387 . S
C1460 C1463 1.387 . S
H1461 C1457 0.950 . S
H1462 C1459 0.950 . S
C1463 C1454 1.390 . S
C1463 H1456 0.950 . S
C1463 C1460 1.387 . S
C1464 C1465 1.387 . S
C1464 H1468 0.950 . S
C1464 C1473 1.390 . S
C1465 C1464 1.387 . S
C1465 C1467 1.387 . S
H1466 C1473 0.950 . S
C1467 C1465 1.387 . S
C1467 C1469 1.390 . S
C1467 H1471 0.950 . S
H1468 C1464 0.950 . S
C1469 C1467 1.390 . S
C1469 C1470 1.387 . S
C1469 H1472 0.950 . S
C1470 C1469 1.387 . S
C1470 C1473 1.387 . S
H1471 C1467 0.950 . S
H1472 C1469 0.950 . S
C1473 C1464 1.390 . S
C1473 H1466 0.950 . S
C1473 C1470 1.387 . S
C1474 C1475 1.387 . S
C1474 H1478 0.950 . S
C1474 C1483 1.390 . S
C1475 C1474 1.387 . S
C1475 C1477 1.387 . S
H1476 C1483 0.950 . S
C1477 C1475 1.387 . S
C1477 C1479 1.390 . S
C1477 H1481 0.950 . S
H1478 C1474 0.950 . S
C1479 C1477 1.390 . S
C1479 C1480 1.387 . S
C1479 H1482 0.950 . S
C1480 C1479 1.387 . S
C1480 C1483 1.387 . S
H1481 C1477 0.950 . S
H1482 C1479 0.950 . S
C1483 C1474 1.390 . S
C1483 H1476 0.950 . S
C1483 C1480 1.387 . S
C1484 C1485 1.387 . S
C1484 H1488 0.950 . S
C1484 C1493 1.390 . S
C1485 C1484 1.387 . S
C1485 C1487 1.387 . S
H1486 C1493 0.950 . S
C1487 C1485 1.387 . S
C1487 C1489 1.390 . S
C1487 H1491 0.950 . S
H1488 C1484 0.950 . S
C1489 C1487 1.390 . S
C1489 C1490 1.387 . S
C1489 H1492 0.950 . S
C1490 C1489 1.387 . S
C1490 C1493 1.387 . S
H1491 C1487 0.950 . S
H1492 C1489 0.950 . S
C1493 C1484 1.390 . S
C1493 H1486 0.950 . S
C1493 C1490 1.387 . S
C1494 C1495 1.387 . S
C1494 H1498 0.950 . S
C1494 C1503 1.390 . S
C1495 C1494 1.387 . S
C1495 C1497 1.387 . S
H1496 C1503 0.950 . S
C1497 C1495 1.387 . S
C1497 C1499 1.390 . S
C1497 H1501 0.950 . S
H1498 C1494 0.950 . S
C1499 C1497 1.390 . S
C1499 C1500 1.387 . S
C1499 H1502 0.950 . S
C1500 C1499 1.387 . S
C1500 C1503 1.387 . S
H1501 C1497 0.950 . S
H1502 C1499 0.950 . S
C1503 C1494 1.390 . S
C1503 H1496 0.950 . S
C1503 C1500 1.387 . S
C1504 C1505 1.387 . S
C1504 H1508 0.950 . S
C1504 C1513 1.390 1_556 S
C1505 C1504 1.387 . S
C1505 C1507 1.387 . S
H1506 C1513 0.950 . S
C1507 C1505 1.387 . S
C1507 C1509 1.390 1_556 S
C1507 H1511 0.950 . S
H1508 C1504 0.950 . S
C1509 C1507 1.390 1_554 S
C1509 C1510 1.387 . S
C1509 H1512 0.950 . S
C1510 C1509 1.387 . S
C1510 C1513 1.387 . S
H1511 C1507 0.950 . S
H1512 C1509 0.950 . S
C1513 C1504 1.390 1_554 S
C1513 H1506 0.950 . S
C1513 C1510 1.387 . S
C1514 C1515 1.387 . S
C1514 H1518 0.950 . S
C1514 C1523 1.390 1_554 S
C1515 C1514 1.387 . S
C1515 C1517 1.387 . S
H1516 C1523 0.950 . S
C1517 C1515 1.387 . S
C1517 C1519 1.390 1_554 S
C1517 H1521 0.950 . S
H1518 C1514 0.950 . S
C1519 C1517 1.390 1_556 S
C1519 C1520 1.387 . S
C1519 H1522 0.950 . S
C1520 C1519 1.387 . S
C1520 C1523 1.387 . S
H1521 C1517 0.950 . S
H1522 C1519 0.950 . S
C1523 C1514 1.390 1_556 S
C1523 H1516 0.950 . S
C1523 C1520 1.387 . S
C1524 C1525 1.387 . S
C1524 H1528 0.950 . S
C1524 C1533 1.390 1_556 S
C1525 C1524 1.387 . S
C1525 C1527 1.387 . S
H1526 C1533 0.950 . S
C1527 C1525 1.387 . S
C1527 C1529 1.390 1_556 S
C1527 H1531 0.950 . S
H1528 C1524 0.950 . S
C1529 C1527 1.390 1_554 S
C1529 C1530 1.387 . S
C1529 H1532 0.950 . S
C1530 C1529 1.387 . S
C1530 C1533 1.387 . S
H1531 C1527 0.950 . S
H1532 C1529 0.950 . S
C1533 C1524 1.390 1_554 S
C1533 H1526 0.950 . S
C1533 C1530 1.387 . S
C1534 C1535 1.387 . S
C1534 H1538 0.950 . S
C1534 C1543 1.390 1_556 S
C1535 C1534 1.387 . S
C1535 C1537 1.387 . S
H1536 C1543 0.950 . S
C1537 C1535 1.387 . S
C1537 C1539 1.390 1_556 S
C1537 H1541 0.950 . S
H1538 C1534 0.950 . S
C1539 C1537 1.390 1_554 S
C1539 C1540 1.387 . S
C1539 H1542 0.950 . S
C1540 C1539 1.387 . S
C1540 C1543 1.387 . S
H1541 C1537 0.950 . S
H1542 C1539 0.950 . S
C1543 C1534 1.390 1_554 S
C1543 H1536 0.950 . S
C1543 C1540 1.387 . S
C1544 C1545 1.387 . S
C1544 H1548 0.950 . S
C1544 C1553 1.390 . S
C1545 C1544 1.387 . S
C1545 C1547 1.387 . S
H1546 C1553 0.950 . S
C1547 C1545 1.387 . S
C1547 C1549 1.390 . S
C1547 H1551 0.950 . S
H1548 C1544 0.950 . S
C1549 C1547 1.390 . S
C1549 C1550 1.387 . S
C1549 H1552 0.950 . S
C1550 C1549 1.387 . S
C1550 C1553 1.387 . S
H1551 C1547 0.950 . S
H1552 C1549 0.950 . S
C1553 C1544 1.390 . S
C1553 H1546 0.950 . S
C1553 C1550 1.387 . S
C1554 C1555 1.387 . S
C1554 H1558 0.950 . S
C1554 C1563 1.390 . S
C1555 C1554 1.387 . S
C1555 C1557 1.387 . S
H1556 C1563 0.950 . S
C1557 C1555 1.387 . S
C1557 C1559 1.390 . S
C1557 H1561 0.950 . S
H1558 C1554 0.950 . S
C1559 C1557 1.390 . S
C1559 C1560 1.387 . S
C1559 H1562 0.950 . S
C1560 C1559 1.387 . S
C1560 C1563 1.387 . S
H1561 C1557 0.950 . S
H1562 C1559 0.950 . S
C1563 C1554 1.390 . S
C1563 H1556 0.950 . S
C1563 C1560 1.387 . S
C1564 C1565 1.387 . S
C1564 H1568 0.950 . S
C1564 C1573 1.390 . S
C1565 C1564 1.387 . S
C1565 C1567 1.387 . S
H1566 C1573 0.950 . S
C1567 C1565 1.387 . S
C1567 C1569 1.390 . S
C1567 H1571 0.950 . S
H1568 C1564 0.950 . S
C1569 C1567 1.390 . S
C1569 C1570 1.387 . S
C1569 H1572 0.950 . S
C1570 C1569 1.387 . S
C1570 C1573 1.387 . S
H1571 C1567 0.950 . S
H1572 C1569 0.950 . S
C1573 C1564 1.390 . S
C1573 H1566 0.950 . S
C1573 C1570 1.387 . S
C1574 C1575 1.387 . S
C1574 H1578 0.950 . S
C1574 C1583 1.390 . S
C1575 C1574 1.387 . S
C1575 C1577 1.387 . S
H1576 C1583 0.950 . S
C1577 C1575 1.387 . S
C1577 C1579 1.390 . S
C1577 H1581 0.950 . S
H1578 C1574 0.950 . S
C1579 C1577 1.390 . S
C1579 C1580 1.387 . S
C1579 H1582 0.950 . S
C1580 C1579 1.387 . S
C1580 C1583 1.387 . S
H1581 C1577 0.950 . S
H1582 C1579 0.950 . S
C1583 C1574 1.390 . S
C1583 H1576 0.950 . S
C1583 C1580 1.387 . S
C1584 C1585 1.387 . S
C1584 H1588 0.950 . S
C1584 C1593 1.390 . S
C1585 C1584 1.387 . S
C1585 C1587 1.387 . S
H1586 C1593 0.950 . S
C1587 C1585 1.387 . S
C1587 C1589 1.390 . S
C1587 H1591 0.950 . S
H1588 C1584 0.950 . S
C1589 C1587 1.390 . S
C1589 C1590 1.387 . S
C1589 H1592 0.950 . S
C1590 C1589 1.387 . S
C1590 C1593 1.387 . S
H1591 C1587 0.950 . S
H1592 C1589 0.950 . S
C1593 C1584 1.390 . S
C1593 H1586 0.950 . S
C1593 C1590 1.387 . S
C1594 C1595 1.387 . S
C1594 H1598 0.950 . S
C1594 C1603 1.390 . S
C1595 C1594 1.387 . S
C1595 C1597 1.387 . S
H1596 C1603 0.950 . S
C1597 C1595 1.387 . S
C1597 C1599 1.390 . S
C1597 H1601 0.950 . S
H1598 C1594 0.950 . S
C1599 C1597 1.390 . S
C1599 C1600 1.387 . S
C1599 H1602 0.950 . S
C1600 C1599 1.387 . S
C1600 C1603 1.387 . S
H1601 C1597 0.950 . S
H1602 C1599 0.950 . S
C1603 C1594 1.390 . S
C1603 H1596 0.950 . S
C1603 C1600 1.387 . S
C1604 C1605 1.387 . S
C1604 H1608 0.950 . S
C1604 C1613 1.390 . S
C1605 C1604 1.387 . S
C1605 C1607 1.387 . S
H1606 C1613 0.950 . S
C1607 C1605 1.387 . S
C1607 C1609 1.390 . S
C1607 H1611 0.950 . S
H1608 C1604 0.950 . S
C1609 C1607 1.390 . S
C1609 C1610 1.387 . S
C1609 H1612 0.950 . S
C1610 C1609 1.387 . S
C1610 C1613 1.387 . S
H1611 C1607 0.950 . S
H1612 C1609 0.950 . S
C1613 C1604 1.390 . S
C1613 H1606 0.950 . S
C1613 C1610 1.387 . S
C1614 C1615 1.387 . S
C1614 H1618 0.950 . S
C1614 C1623 1.390 . S
C1615 C1614 1.387 . S
C1615 C1617 1.387 . S
H1616 C1623 0.950 . S
C1617 C1615 1.387 . S
C1617 C1619 1.390 . S
C1617 H1621 0.950 . S
H1618 C1614 0.950 . S
C1619 C1617 1.390 . S
C1619 C1620 1.387 . S
C1619 H1622 0.950 . S
C1620 C1619 1.387 . S
C1620 C1623 1.387 . S
H1621 C1617 0.950 . S
H1622 C1619 0.950 . S
C1623 C1614 1.390 . S
C1623 H1616 0.950 . S
C1623 C1620 1.387 . S
C1624 C1625 1.387 . S
C1624 H1628 0.950 . S
C1624 C1633 1.390 1_554 S
C1625 C1624 1.387 . S
C1625 C1627 1.387 . S
H1626 C1633 0.950 . S
C1627 C1625 1.387 . S
C1627 C1629 1.390 1_554 S
C1627 H1631 0.950 . S
H1628 C1624 0.950 . S
C1629 C1627 1.390 1_556 S
C1629 C1630 1.387 . S
C1629 H1632 0.950 . S
C1630 C1629 1.387 . S
C1630 C1633 1.387 . S
H1631 C1627 0.950 . S
H1632 C1629 0.950 . S
C1633 C1624 1.390 1_556 S
C1633 H1626 0.950 . S
C1633 C1630 1.387 . S
C1634 C1635 1.387 . S
C1634 H1638 0.950 . S
C1634 C1643 1.390 1_556 S
C1635 C1634 1.387 . S
C1635 C1637 1.387 . S
H1636 C1643 0.950 . S
C1637 C1635 1.387 . S
C1637 C1639 1.390 1_556 S
C1637 H1641 0.950 . S
H1638 C1634 0.950 . S
C1639 C1637 1.390 1_554 S
C1639 C1640 1.387 . S
C1639 H1642 0.950 . S
C1640 C1639 1.387 . S
C1640 C1643 1.387 . S
H1641 C1637 0.950 . S
H1642 C1639 0.950 . S
C1643 C1634 1.390 1_554 S
C1643 H1636 0.950 . S
C1643 C1640 1.387 . S
C1644 C1645 1.387 . S
C1644 H1648 0.950 . S
C1644 C1653 1.390 1_556 S
C1645 C1644 1.387 . S
C1645 C1647 1.387 . S
H1646 C1653 0.950 . S
C1647 C1645 1.387 . S
C1647 C1649 1.390 1_556 S
C1647 H1651 0.950 . S
H1648 C1644 0.950 . S
C1649 C1647 1.390 1_554 S
C1649 C1650 1.387 . S
C1649 H1652 0.950 . S
C1650 C1649 1.387 . S
C1650 C1653 1.387 . S
H1651 C1647 0.950 . S
H1652 C1649 0.950 . S
C1653 C1644 1.390 1_554 S
C1653 H1646 0.950 . S
C1653 C1650 1.387 . S
C1654 C1655 1.387 . S
C1654 H1658 0.950 . S
C1654 C1663 1.390 1_554 S
C1655 C1654 1.387 . S
C1655 C1657 1.387 . S
H1656 C1663 0.950 . S
C1657 C1655 1.387 . S
C1657 C1659 1.390 1_554 S
C1657 H1661 0.950 . S
H1658 C1654 0.950 . S
C1659 C1657 1.390 1_556 S
C1659 C1660 1.387 . S
C1659 H1662 0.950 . S
C1660 C1659 1.387 . S
C1660 C1663 1.387 . S
H1661 C1657 0.950 . S
H1662 C1659 0.950 . S
C1663 C1654 1.390 1_556 S
C1663 H1656 0.950 . S
C1663 C1660 1.387 . S
C705 C118 1.266 . S
C710 C8 1.269 . S
C715 C136 1.267 . S
C720 C26 1.267 . S
C725 C52 1.266 . S
C730 C158 1.269 . S
C735 C92 1.268 . S
C740 C74 1.266 . S
C745 C180 1.269 . S
C750 C294 1.266 . S
C755 C316 1.266 . S
C760 C202 1.268 . S
C765 C334 1.269 . S
C770 C224 1.266 . S
C775 C250 1.268 . S
C780 C272 1.268 . S
C785 C360 1.269 . S
C790 C470 1.267 . S
C795 C488 1.269 . S
C800 C378 1.266 . S
C805 C404 1.269 . S
C810 C510 1.266 . S
C815 C426 1.269 . S
C820 C444 1.266 . S
C825 C646 1.267 . S
C830 C532 1.269 . S
C835 C668 1.268 . S
C840 C554 1.266 . S
C845 C686 1.269 . S
C850 C576 1.266 . S
C855 C602 1.269 . S
C860 C624 1.266 . S
C865 C647 1.350 . S
C870 C7 1.348 . S
C875 C669 1.350 . S
C880 C28 1.348 . S
C885 C687 1.348 . S
C890 C51 1.350 . S
C895 C73 1.350 . S
C900 C625 1.348 . S
C905 C94 1.348 . S
C910 C603 1.350 . S
C915 C533 1.348 . S
C920 C117 1.350 . S
C925 C138 1.350 . S
C930 C555 1.348 . S
C935 C577 1.350 . S
C940 C160 1.348 . S
C945 C469 1.350 . S
C950 C181 1.348 . S
C955 C490 1.350 . S
C960 C203 1.348 . S
C965 C225 1.350 . S
C970 C512 1.348 . S
C975 C446 1.350 . S
C980 C251 1.348 . S
C985 C425 1.348 . S
C990 C273 1.350 . S
C995 C295 1.350 . S
C1000 C359 1.348 . S
C1005 C317 1.350 . S
C1010 C380 1.348 . S
C1015 C403 1.350 . S
C1020 C335 1.348 . S
C1025 C72 1.495 1_545 S
C1030 C4 1.453 . S
C1035 C6 1.496 1_655 S
C1040 C30 1.450 . S
C1045 C48 1.453 . S
C1050 C29 1.495 1_565 S
C1055 C70 1.450 . S
C1060 C50 1.495 1_455 S
C1065 C116 1.495 1_565 S
C1070 C96 1.453 . S
C1075 C139 1.495 1_455 S
C1080 C114 1.450 . S
C1085 C161 1.495 1_545 S
C1090 C140 1.450 . S
C1095 C162 1.450 . S
C1100 C95 1.495 1_655 S
C1105 C247 1.495 1_565 S
C1110 C184 1.453 . S
C1115 C185 1.495 1_455 S
C1120 C206 1.453 . S
C1125 C228 1.450 . S
C1130 C207 1.495 1_545 S
C1135 C246 1.453 . S
C1140 C229 1.495 1_655 S
C1145 C291 1.495 1_545 S
C1150 C268 1.453 . S
C1155 C290 1.450 . S
C1160 C313 1.495 1_655 S
C1165 C312 1.450 . S
C1170 C339 1.495 1_565 S
C1175 C338 1.453 . S
C1180 C269 1.495 1_455 S
C1185 C424 1.495 . S
C1190 C356 1.450 . S
C1195 C382 1.453 . S
C1200 C358 1.495 . S
C1205 C381 1.495 . S
C1210 C400 1.453 . S
C1215 C422 1.450 . S
C1220 C402 1.495 . S
C1225 C448 1.450 . S
C1230 C468 1.495 . S
C1235 C491 1.495 . S
C1240 C466 1.453 . S
C1245 C492 1.453 . S
C1250 C513 1.495 . S
C1255 C514 1.453 . S
C1260 C447 1.495 . S
C1265 C599 1.495 . S
C1270 C536 1.453 . S
C1275 C558 1.450 . S
C1280 C537 1.495 . S
C1285 C580 1.450 . S
C1290 C559 1.495 . S
C1295 C598 1.453 . S
C1300 C581 1.495 . S
C1305 C643 1.495 . S
C1310 C620 1.450 . S
C1315 C642 1.453 . S
C1320 C665 1.495 . S
C1325 C691 1.495 . S
C1330 C664 1.450 . S
C1335 C621 1.495 . S
C1340 C690 1.450 . S
C1345 C9 1.346 . S
C1350 C137 1.346 . S
C1355 C159 1.346 . S
C1360 C27 1.346 . S
C1365 C53 1.346 . S
C1370 C93 1.346 . S
C1375 C119 1.344 . S
C1380 C75 1.344 . S
C1385 C182 1.346 . S
C1390 C315 1.346 . S
C1395 C336 1.344 . S
C1400 C204 1.344 . S
C1405 C271 1.344 . S
C1410 C226 1.344 . S
C1415 C293 1.346 . S
C1420 C249 1.346 . S
C1425 C489 1.344 . S
C1430 C361 1.344 . S
C1435 C379 1.344 . S
C1440 C511 1.344 . S
C1445 C445 1.346 . S
C1450 C405 1.346 . S
C1455 C427 1.344 . S
C1460 C471 1.344 . S
C1465 C534 1.344 . S
C1470 C667 1.344 . S
C1475 C688 1.346 . S
C1480 C556 1.346 . S
C1485 C623 1.346 . S
C1490 C578 1.346 . S
C1495 C645 1.346 . S
C1500 C601 1.346 . S
C1505 C227 1.458 . S
C1510 C5 1.458 . S
C1515 C31 1.458 . S
C1520 C248 1.458 . S
C1525 C183 1.458 . S
C1530 C49 1.458 . S
C1535 C205 1.457 . S
C1540 C71 1.459 . S
C1545 C314 1.458 . S
C1550 C97 1.458 . S
C1555 C115 1.458 . S
C1560 C337 1.458 . S
C1565 C270 1.458 . S
C1570 C141 1.458 . S
C1575 C163 1.458 . S
C1580 C292 1.458 . S
C1585 C579 1.458 . S
C1590 C357 1.458 . S
C1595 C600 1.458 . S
C1600 C383 1.458 . S
C1605 C401 1.458 . S
C1610 C535 1.458 . S
C1615 C423 1.458 . S
C1620 C557 1.458 . S
C1625 C666 1.458 . S
C1630 C449 1.458 . S
C1635 C467 1.458 . S
C1640 C689 1.458 . S
C1645 C493 1.458 . S
C1650 C622 1.458 . S
C1655 C644 1.458 . S
C1660 C515 1.458 . S
