# Generated by pormake.
# Topology sml, (6)-cn, num edge types: 1
# Building blocks:
#     Node 0, Type 0, BuildingBlock: PAMTOO_clean_sbu_0, # of connection points: 6
#     Node 1, Type 0, BuildingBlock: PAMTOO_clean_sbu_0, # of connection points: 6
#     Node 2, Type 0, BuildingBlock: PAMTOO_clean_sbu_0, # of connection points: 6
#     Node 3, Type 0, BuildingBlock: PAMTOO_clean_sbu_0, # of connection points: 6
#     Node 4, Type 0, BuildingBlock: PAMTOO_clean_sbu_0, # of connection points: 6
#     Node 5, Type 0, BuildingBlock: PAMTOO_clean_sbu_0, # of connection points: 6
#     Edge 6, Type (0, 0), BuildingBlock: FUNLAD_clean_linker_0, # of connection points: 2
#     Edge 7, Type (0, 0), BuildingBlock: FUNLAD_clean_linker_0, # of connection points: 2
#     Edge 8, Type (0, 0), BuildingBlock: FUNLAD_clean_linker_0, # of connection points: 2
#     Edge 9, Type (0, 0), BuildingBlock: FUNLAD_clean_linker_0, # of connection points: 2
#     Edge 10, Type (0, 0), BuildingBlock: FUNLAD_clean_linker_0, # of connection points: 2
#     Edge 11, Type (0, 0), BuildingBlock: FUNLAD_clean_linker_0, # of connection points: 2
#     Edge 12, Type (0, 0), BuildingBlock: FUNLAD_clean_linker_0, # of connection points: 2
#     Edge 13, Type (0, 0), BuildingBlock: FUNLAD_clean_linker_0, # of connection points: 2
#     Edge 14, Type (0, 0), BuildingBlock: FUNLAD_clean_linker_0, # of connection points: 2
#     Edge 15, Type (0, 0), BuildingBlock: FUNLAD_clean_linker_0, # of connection points: 2
#     Edge 16, Type (0, 0), BuildingBlock: FUNLAD_clean_linker_0, # of connection points: 2
#     Edge 17, Type (0, 0), BuildingBlock: FUNLAD_clean_linker_0, # of connection points: 2
#     Edge 18, Type (0, 0), BuildingBlock: FUNLAD_clean_linker_0, # of connection points: 2
#     Edge 19, Type (0, 0), BuildingBlock: FUNLAD_clean_linker_0, # of connection points: 2
#     Edge 20, Type (0, 0), BuildingBlock: FUNLAD_clean_linker_0, # of connection points: 2
#     Edge 21, Type (0, 0), BuildingBlock: FUNLAD_clean_linker_0, # of connection points: 2
#     Edge 22, Type (0, 0), BuildingBlock: FUNLAD_clean_linker_0, # of connection points: 2
#     Edge 23, Type (0, 0), BuildingBlock: FUNLAD_clean_linker_0, # of connection points: 2
# Relax obj value: 0.168
# Max RMSD: 0.219
# Mean RMSD: 0.219
data_MOF--net-sml--node1-PAMTOO_clean_sbu_0--edge1-FUNLAD_clean_linker_0
_symmetry_space_group_name_H-M    P1
_symmetry_Int_Tables_number       1
_symmetry_cell_setting            triclinic
loop_
_symmetry_equiv_pos_as_xyz
'x, y, z'
_cell_length_a     39.858569
_cell_length_b     39.769693
_cell_length_c     27.607744
_cell_angle_alpha  90.077508
_cell_angle_beta   89.950642
_cell_angle_gamma 120.12479
loop_
_atom_site_label
_atom_site_type_symbol
_atom_site_fract_x
_atom_site_fract_y
_atom_site_fract_z
_atom_type_partial_charge
Dy0 Dy 0.15786 0.40375 0.96402 0.0
Dy1 Dy 0.21571 0.42228 0.06027 0.0
C2 C 0.21669 0.37103 0.97326 0.0
O3 O 0.11939 0.36807 0.02428 0.0
O4 O 0.16534 0.36229 0.06786 0.0
O5 O 0.11627 0.36401 0.91188 0.0
O6 O 0.13748 0.42572 0.90642 0.0
O7 O 0.16894 0.43446 0.0803 0.0
O8 O 0.15843 0.45233 1.00589 0.0
O9 O 0.24787 0.47246 1.00927 0.0
O10 O 0.21786 0.44168 0.93838 0.0
O11 O 0.24909 0.46164 0.11807 0.0
O12 O 0.24302 0.40446 0.11406 0.0
C13 C 0.129 0.35086 0.05765 0.0
O14 O 0.1817 0.36359 0.96117 0.0
O15 O 0.23817 0.39814 1.00477 0.0
C16 C 0.12751 0.39153 0.83343 0.0
C17 C 0.14783 0.39588 0.73436 0.0
C18 C 0.17104 0.39284 0.77062 0.0
C19 C 0.16104 0.39081 0.81961 0.0
C20 C 0.10398 0.39402 0.79758 0.0
C21 C 0.11398 0.39614 0.74854 0.0
C22 C 0.11826 0.39199 0.88511 0.0
C23 C 0.15731 0.45365 0.05333 0.0
C24 C 0.24633 0.47064 0.96161 0.0
C25 C 0.24279 0.42917 0.19174 0.0
C26 C 0.2209 0.41784 0.29058 0.0
C27 C 0.1926 0.40368 0.25376 0.0
C28 C 0.20345 0.40935 0.20487 0.0
C29 C 0.27112 0.44327 0.22813 0.0
C30 C 0.26032 0.43771 0.27708 0.0
C31 C 0.25428 0.43566 0.14028 0.0
H32 H 0.19699 0.39202 0.76119 0.0
H33 H 0.17974 0.38911 0.84679 0.0
H34 H 0.07819 0.39501 0.80756 0.0
H35 H 0.09569 0.39902 0.72186 0.0
H36 H 0.16202 0.38874 0.26269 0.0
H37 H 0.18111 0.39845 0.17725 0.0
H38 H 0.30163 0.45863 0.2187 0.0
H39 H 0.28288 0.4486 0.30436 0.0
Dy40 Dy 0.75629 0.18169 0.29154 0.0
Dy41 Dy 0.80834 0.23073 0.38838 0.0
C42 C 0.84601 0.2094 0.3014 0.0
O43 O 0.73834 0.13689 0.34938 0.0
O44 O 0.79292 0.16909 0.39724 0.0
O45 O 0.7389 0.13688 0.23693 0.0
O46 O 0.71772 0.17738 0.23393 0.0
O47 O 0.74666 0.20009 0.41118 0.0
O48 O 0.71799 0.19491 0.33742 0.0
O49 O 0.80104 0.27243 0.34176 0.0
O50 O 0.79677 0.2427 0.26939 0.0
O51 O 0.81981 0.27243 0.44532 0.0
O52 O 0.85352 0.24359 0.44087 0.0
C53 C 0.76066 0.13752 0.38486 0.0
O54 O 0.81144 0.18054 0.29042 0.0
O55 O 0.85084 0.2372 0.3314 0.0
C56 C 0.7317 0.15805 0.15976 0.0
C57 C 0.7515 0.17569 0.06096 0.0
C58 C 0.7789 0.19609 0.0976 0.0
C59 C 0.76909 0.18735 0.1465 0.0
C60 C 0.70441 0.13733 0.12353 0.0
C61 C 0.7142 0.14599 0.07458 0.0
C62 C 0.72065 0.1502 0.21122 0.0
C63 C 0.71691 0.19459 0.38501 0.0
C64 C 0.80306 0.27334 0.29431 0.0
C65 C 0.83703 0.25508 0.51873 0.0
C66 C 0.82194 0.23587 0.61805 0.0
C67 C 0.79482 0.21271 0.58241 0.0
C68 C 0.80232 0.22219 0.53328 0.0
C69 C 0.86425 0.27819 0.55389 0.0
C70 C 0.85682 0.2687 0.60309 0.0
C71 C 0.84468 0.26538 0.46705 0.0
H72 H 0.80802 0.21877 0.0885 0.0
H73 H 0.79058 0.2037 0.17402 0.0
H74 H 0.67533 0.11479 0.13311 0.0
H75 H 0.69222 0.13004 0.04745 0.0
H76 H 0.76746 0.18754 0.59247 0.0
H77 H 0.78091 0.20398 0.50662 0.0
H78 H 0.89127 0.30359 0.54331 0.0
H79 H 0.87863 0.28686 0.62935 0.0
Dy80 Dy 0.56529 0.74056 0.61621 0.0
Dy81 Dy 0.57462 0.79386 0.71438 0.0
C82 C 0.61969 0.83366 0.61697 0.0
O83 O 0.60145 0.73022 0.66868 0.0
O84 O 0.62739 0.78828 0.70933 0.0
O85 O 0.59003 0.71998 0.56213 0.0
O86 O 0.52856 0.7004 0.56104 0.0
O87 O 0.55092 0.73289 0.73789 0.0
O88 O 0.51791 0.70345 0.66861 0.0
O89 O 0.52132 0.78356 0.67432 0.0
O90 O 0.53928 0.77674 0.59775 0.0
O91 O 0.54613 0.80507 0.77338 0.0
O92 O 0.60877 0.83781 0.76802 0.0
C93 C 0.62819 0.75686 0.69674 0.0
O94 O 0.61479 0.80013 0.60173 0.0
O95 O 0.60186 0.83695 0.65522 0.0
C96 C 0.56003 0.70959 0.48573 0.0
C97 C 0.56449 0.72479 0.38515 0.0
C98 C 0.56442 0.75141 0.41885 0.0
C99 C 0.56227 0.74389 0.46866 0.0
C100 C 0.56034 0.68312 0.45249 0.0
C101 C 0.56258 0.69062 0.40272 0.0
C102 C 0.5576 0.70128 0.53801 0.0
C103 C 0.52269 0.70308 0.71568 0.0
C104 C 0.51828 0.7846 0.62703 0.0
C105 C 0.58135 0.82279 0.84675 0.0
C106 C 0.58374 0.8107 0.94744 0.0
C107 C 0.56667 0.77898 0.91515 0.0
C108 C 0.56559 0.78497 0.86534 0.0
C109 C 0.59898 0.85449 0.87855 0.0
C110 C 0.60026 0.84856 0.92833 0.0
C111 C 0.57857 0.82952 0.7947 0.0
H112 H 0.56543 0.77779 0.40676 0.0
H113 H 0.56218 0.76477 0.49386 0.0
H114 H 0.55891 0.65663 0.46503 0.0
H115 H 0.56327 0.66979 0.37804 0.0
H116 H 0.55329 0.74941 0.92842 0.0
H117 H 0.55188 0.76001 0.84143 0.0
H118 H 0.61149 0.88391 0.86491 0.0
H119 H 0.6143 0.87373 0.95183 0.0
Dy120 Dy 0.79268 0.57348 0.96353 0.0
Dy121 Dy 0.74708 0.57904 0.06156 0.0
C122 C 0.76985 0.63877 0.97567 0.0
O123 O 0.8369 0.59475 0.02192 0.0
O124 O 0.81009 0.62238 0.07003 0.0
O125 O 0.83871 0.59991 0.91048 0.0
O126 O 0.79454 0.53924 0.90403 0.0
O127 O 0.77238 0.54258 0.0822 0.0
O128 O 0.7755 0.51973 1.00695 0.0
O129 O 0.70278 0.5319 0.01436 0.0
O130 O 0.73255 0.55628 0.94169 0.0
O131 O 0.70415 0.55061 0.11759 0.0
O132 O 0.73848 0.61343 0.1156 0.0
C133 C 0.83955 0.61822 0.05707 0.0
O134 O 0.79789 0.63195 0.96458 0.0
O135 O 0.7418 0.61603 1.00529 0.0
C136 C 0.81801 0.57472 0.83191 0.0
C137 C 0.80536 0.58287 0.73306 0.0
C138 C 0.78262 0.58683 0.76919 0.0
C139 C 0.7889 0.5828 0.81816 0.0
C140 C 0.84102 0.57114 0.79625 0.0
C141 C 0.83481 0.57521 0.74726 0.0
C142 C 0.82372 0.56894 0.88318 0.0
C143 C 0.77539 0.51745 0.05447 0.0
C144 C 0.70152 0.5334 0.96692 0.0
C145 C 0.72302 0.58332 0.19217 0.0
C146 C 0.73855 0.58117 0.29153 0.0
C147 C 0.76212 0.57801 0.2559 0.0
C148 C 0.75444 0.57911 0.2067 0.0
C149 C 0.69968 0.58692 0.22737 0.0
C150 C 0.70739 0.58593 0.27666 0.0
C151 C 0.71405 0.58299 0.14046 0.0
H152 H 0.75941 0.59226 0.75962 0.0
H153 H 0.77075 0.58555 0.8453 0.0
H154 H 0.86366 0.56497 0.80627 0.0
H155 H 0.85326 0.57257 0.72052 0.0
H156 H 0.78663 0.57485 0.26605 0.0
H157 H 0.77286 0.57641 0.17993 0.0
H158 H 0.67524 0.59008 0.21675 0.0
H159 H 0.68843 0.58802 0.3031 0.0
Dy160 Dy 0.22052 0.80748 0.30158 0.0
Dy161 Dy 0.17429 0.75763 0.40022 0.0
C162 C 0.12832 0.76701 0.31257 0.0
O163 O 0.2333 0.85169 0.35872 0.0
O164 O 0.17954 0.816 0.40641 0.0
O165 O 0.23466 0.85307 0.24918 0.0
O166 O 0.26012 0.81628 0.24317 0.0
O167 O 0.23623 0.79493 0.41995 0.0
O168 O 0.26171 0.79695 0.34519 0.0
O169 O 0.18326 0.71756 0.35164 0.0
O170 O 0.18515 0.74592 0.2788 0.0
O171 O 0.16943 0.71803 0.45675 0.0
O172 O 0.12984 0.74039 0.45504 0.0
C173 C 0.2087 0.84944 0.39201 0.0
O174 O 0.16038 0.79792 0.29808 0.0
O175 O 0.12838 0.74309 0.34527 0.0
C176 C 0.24528 0.83688 0.17068 0.0
C177 C 0.22782 0.82459 0.07088 0.0
C178 C 0.20181 0.79858 0.10551 0.0
C179 C 0.21046 0.8047 0.15498 0.0
C180 C 0.2712 0.86299 0.13648 0.0
C181 C 0.26256 0.85695 0.08702 0.0
C182 C 0.25514 0.84291 0.22248 0.0
C183 C 0.26511 0.79982 0.39253 0.0
C184 C 0.17996 0.71589 0.30418 0.0
C185 C 0.14874 0.72941 0.53162 0.0
C186 C 0.16218 0.74419 0.63188 0.0
C187 C 0.18754 0.77136 0.5977 0.0
C188 C 0.18086 0.76402 0.548 0.0
C189 C 0.12315 0.70248 0.56538 0.0
C190 C 0.12976 0.70977 0.61505 0.0
C191 C 0.14219 0.72071 0.47956 0.0
H192 H 0.1746 0.77366 0.09443 0.0
H193 H 0.19006 0.78425 0.18098 0.0
H194 H 0.29829 0.88788 0.14801 0.0
H195 H 0.28345 0.87726 0.06137 0.0
H196 H 0.21301 0.79792 0.60931 0.0
H197 H 0.201 0.78512 0.52235 0.0
H198 H 0.09815 0.67566 0.55332 0.0
H199 H 0.10934 0.6885 0.64028 0.0
Dy200 Dy 0.40417 0.22412 0.62944 0.0
Dy201 Dy 0.40556 0.17629 0.72791 0.0
C202 C 0.34881 0.13226 0.64067 0.0
O203 O 0.37543 0.23948 0.68722 0.0
O204 O 0.35482 0.1853 0.73502 0.0
O205 O 0.37377 0.23909 0.57656 0.0
O206 O 0.43589 0.26318 0.57091 0.0
O207 O 0.43282 0.23835 0.74897 0.0
O208 O 0.45526 0.26553 0.67429 0.0
O209 O 0.45576 0.18675 0.68104 0.0
O210 O 0.4297 0.18807 0.60785 0.0
O211 O 0.43855 0.16891 0.78461 0.0
O212 O 0.37624 0.13112 0.78153 0.0
C213 C 0.35304 0.21602 0.72143 0.0
O214 O 0.35152 0.16511 0.62676 0.0
O215 O 0.37293 0.13119 0.67214 0.0
C216 C 0.40079 0.24954 0.49811 0.0
C217 C 0.39596 0.23318 0.39791 0.0
C218 C 0.39645 0.20709 0.43197 0.0
C219 C 0.39879 0.21518 0.48163 0.0
C220 C 0.40003 0.27548 0.46447 0.0
C221 C 0.39761 0.2674 0.41484 0.0
C222 C 0.40469 0.25908 0.55006 0.0
C223 C 0.45621 0.26796 0.72183 0.0
C224 C 0.45517 0.18429 0.63356 0.0
C225 C 0.40534 0.14782 0.85882 0.0
C226 C 0.40291 0.15941 0.95947 0.0
C227 C 0.4035 0.18644 0.92605 0.0
C228 C 0.40471 0.18069 0.87616 0.0
C229 C 0.40433 0.12062 0.89181 0.0
C230 C 0.4031 0.1263 0.94165 0.0
C231 C 0.40779 0.14198 0.80658 0.0
H232 H 0.39476 0.18028 0.42028 0.0
H233 H 0.39928 0.19477 0.50718 0.0
H234 H 0.40173 0.30222 0.47656 0.0
H235 H 0.39783 0.28838 0.38968 0.0
H236 H 0.40379 0.21243 0.93844 0.0
H237 H 0.40553 0.20206 0.85113 0.0
H238 H 0.40466 0.09501 0.87902 0.0
H239 H 0.40203 0.10458 0.96622 0.0
C240 C 0.33217 0.26351 0.74327 0.0
C241 C 0.3277 0.22638 0.74854 0.0
C242 C 0.31137 0.27506 0.77264 0.0
C243 C 0.28561 0.24963 0.8077 0.0
C244 C 0.27934 0.21177 0.81111 0.0
C245 C 0.30053 0.20029 0.78206 0.0
C246 C 0.26574 0.26261 0.84149 0.0
C247 C 0.28432 0.29859 0.86047 0.0
C248 C 0.26556 0.31394 0.89266 0.0
C249 C 0.28884 0.34464 0.92409 0.0
C250 C 0.27271 0.3623 0.95182 0.0
C251 C 0.23303 0.34987 0.94801 0.0
H252 H 0.20699 0.27778 0.86508 0.0
C253 C 0.20956 0.31855 0.91729 0.0
C254 C 0.22564 0.30073 0.88984 0.0
H255 H 0.17887 0.30835 0.91346 0.0
H256 H 0.35262 0.28419 0.71753 0.0
H257 H 0.3158 0.30408 0.76827 0.0
H258 H 0.25917 0.19159 0.83751 0.0
H259 H 0.29617 0.17131 0.78657 0.0
H260 H 0.23639 0.24171 0.85273 0.0
H261 H 0.31498 0.31759 0.85271 0.0
H262 H 0.31973 0.35544 0.92658 0.0
H263 H 0.2916 0.38647 0.975 0.0
C264 C 0.05933 0.3051 0.07633 0.0
C265 C 0.09856 0.3207 0.08831 0.0
C266 C 0.0305 0.28089 0.10879 0.0
C267 C 0.04041 0.2718 0.15392 0.0
C268 C 0.07956 0.28597 0.16489 0.0
C269 C 0.10841 0.30994 0.13223 0.0
C270 C 0.01115 0.25285 0.19261 0.0
C271 C 0.97323 0.22995 0.18316 0.0
C272 C 0.9426 0.22134 0.21937 0.0
C273 C 0.90523 0.19012 0.21073 0.0
C274 C 0.8741 0.1852 0.23896 0.0
C275 C 0.8797 0.21179 0.27609 0.0
H276 H 0.97676 0.27193 0.26518 0.0
C277 C 0.91738 0.24204 0.28623 0.0
C278 C 0.94857 0.24685 0.25811 0.0
H279 H 0.92262 0.26294 0.31463 0.0
H280 H 0.05088 0.31285 0.04275 0.0
H281 H 0.0007 0.27148 0.09948 0.0
H282 H 0.08792 0.27971 0.19958 0.0
H283 H 0.13844 0.32158 0.14262 0.0
H284 H 0.02099 0.26035 0.22981 0.0
H285 H 0.96389 0.21924 0.14657 0.0
H286 H 0.89984 0.17031 0.18087 0.0
H287 H 0.84541 0.16145 0.23022 0.0
C288 C 0.72157 0.06564 0.39772 0.0
C289 C 0.74803 0.10288 0.41512 0.0
C290 C 0.70886 0.03332 0.42791 0.0
C291 C 0.72216 0.03806 0.47601 0.0
C292 C 0.74829 0.07529 0.49332 0.0
C293 C 0.76147 0.10737 0.46305 0.0
C294 C 0.70748 0.00521 0.51007 0.0
C295 C 0.69892 0.96932 0.49643 0.0
C296 C 0.68209 0.9353 0.52946 0.0
C297 C 0.66798 0.89819 0.50923 0.0
C298 C 0.64899 0.86504 0.53806 0.0
C299 C 0.64355 0.86844 0.58767 0.0
H300 H 0.68995 0.96628 0.59784 0.0
C301 C 0.65904 0.90543 0.60844 0.0
C302 C 0.67847 0.93857 0.57983 0.0
H303 H 0.65578 0.9088 0.64682 0.0
H304 H 0.71062 0.06153 0.361 0.0
H305 H 0.68782 0.00495 0.41404 0.0
H306 H 0.75847 0.07958 0.53045 0.0
H307 H 0.78142 0.13584 0.47773 0.0
H308 H 0.70444 0.01171 0.54734 0.0
H309 H 0.70345 0.96435 0.45886 0.0
H310 H 0.67064 0.89473 0.47072 0.0
H311 H 0.63724 0.83676 0.52108 0.0
C312 C 0.68407 0.7761 0.75278 0.0
C313 C 0.65682 0.74908 0.72009 0.0
C314 C 0.7064 0.76602 0.78154 0.0
C315 C 0.70191 0.72872 0.77787 0.0
C316 C 0.67675 0.70283 0.74277 0.0
C317 C 0.65451 0.71294 0.71396 0.0
C318 C 0.71814 0.7137 0.81432 0.0
C319 C 0.7476 0.736 0.84427 0.0
C320 C 0.75635 0.71733 0.88429 0.0
C321 C 0.79242 0.71948 0.88685 0.0
C322 C 0.79774 0.69534 0.9188 0.0
C323 C 0.76714 0.6693 0.94889 0.0
H324 H 0.69888 0.69198 0.91555 0.0
C325 C 0.73223 0.66988 0.94908 0.0
C326 C 0.72681 0.69356 0.9168 0.0
H327 H 0.70822 0.65042 0.97204 0.0
H328 H 0.68674 0.80434 0.75812 0.0
H329 H 0.72509 0.7866 0.80859 0.0
H330 H 0.67284 0.67393 0.73925 0.0
H331 H 0.63403 0.69158 0.68881 0.0
H332 H 0.70366 0.68224 0.81845 0.0
H333 H 0.76529 0.76721 0.83943 0.0
H334 H 0.81551 0.73785 0.86207 0.0
H335 H 0.82515 0.69581 0.91829 0.0
C336 C 0.05918 0.71971 0.29363 0.0
C337 C 0.09167 0.75699 0.28806 0.0
C338 C 0.02591 0.70848 0.26623 0.0
C339 C 0.02447 0.7344 0.23293 0.0
C340 C 0.05586 0.77242 0.22955 0.0
C341 C 0.08943 0.78358 0.25659 0.0
C342 C -0.00893 0.72154 0.20012 0.0
C343 C 0.97461 0.68631 0.17913 0.0
C344 C 0.94141 0.67183 0.14559 0.0
C345 C 0.93639 0.64381 0.11104 0.0
C346 C 0.90396 0.62741 0.08093 0.0
C347 C 0.87562 0.63833 0.08544 0.0
H348 H 0.9161 0.70434 0.17648 0.0
C349 C 0.88092 0.66681 0.1196 0.0
C350 C 0.91356 0.68348 0.14941 0.0
H351 H 0.85948 0.6757 0.12406 0.0
H352 H 0.05984 0.69866 0.31788 0.0
H353 H 0.00156 0.67927 0.27046 0.0
H354 H 0.05505 0.79292 0.20445 0.0
H355 H 0.11388 0.81267 0.25196 0.0
H356 H 0.98199 0.74223 0.19041 0.0
H357 H -0.01306 0.66771 0.18532 0.0
H358 H 0.95741 0.63425 0.10771 0.0
H359 H 0.90059 0.60534 0.05519 0.0
C360 C 0.29798 0.09641 0.57787 0.0
C361 C 0.31902 0.09569 0.61829 0.0
C362 C 0.27239 0.06201 0.55398 0.0
C363 C 0.26745 0.02631 0.57015 0.0
C364 C 0.28658 0.02535 0.61226 0.0
C365 C 0.31237 0.05975 0.63597 0.0
C366 C 0.24495 0.99002 0.54217 0.0
C367 C 0.24444 0.98986 0.49344 0.0
C368 C 0.2314 0.95383 0.46519 0.0
C369 C 0.25088 0.95579 0.42205 0.0
C370 C 0.24295 0.92187 0.39762 0.0
C371 C 0.21494 0.8854 0.41561 0.0
H372 H 0.18561 0.91518 0.51429 0.0
C373 C 0.1938 0.88359 0.45727 0.0
C374 C 0.20194 0.91752 0.48187 0.0
H375 H 0.17168 0.85594 0.47173 0.0
H376 H 0.30208 0.12362 0.56371 0.0
H377 H 0.25712 0.06352 0.5224 0.0
H378 H 0.28293 -0.00191 0.62562 0.0
H379 H 0.32772 0.05819 0.66746 0.0
H380 H 0.23378 0.96279 0.56175 0.0
H381 H 0.25927 0.0172 0.47382 0.0
H382 H 0.27348 0.98351 0.4083 0.0
H383 H 0.25934 0.92426 0.36521 0.0
C384 C 0.13149 0.38174 0.64547 0.0
C385 C 0.15943 0.39982 0.6822 0.0
C386 C 0.1424 0.38624 0.59655 0.0
C387 C 0.18171 0.40879 0.58302 0.0
C388 C 0.20952 0.42686 0.6198 0.0
C389 C 0.19862 0.42242 0.66861 0.0
C390 C 0.19507 0.41553 0.5314 0.0
C391 C 0.17345 0.39412 0.49344 0.0
C392 C 0.187 0.40111 0.44191 0.0
C393 C 0.1668 0.37144 0.40771 0.0
C394 C 0.17782 0.37675 0.35889 0.0
C395 C 0.20935 0.41205 0.34276 0.0
H396 H 0.23414 0.46084 0.45012 0.0
C397 C 0.22949 0.4419 0.37684 0.0
C398 C 0.21841 0.43662 0.42569 0.0
H399 H 0.25341 0.46975 0.36559 0.0
H400 H 0.10105 0.36392 0.65447 0.0
H401 H 0.11971 0.37245 0.56976 0.0
H402 H 0.23997 0.44473 0.61075 0.0
H403 H 0.22095 0.43742 0.69566 0.0
H404 H 0.22468 0.43851 0.52503 0.0
H405 H 0.1449 0.36929 0.50007 0.0
H406 H 0.14238 0.34384 0.41882 0.0
H407 H 0.16182 0.35297 0.33384 0.0
C408 C 0.74854 0.1569 0.97303 0.0
C409 C 0.76151 0.18595 1.00888 0.0
C410 C 0.75738 0.16668 0.92409 0.0
C411 C 0.7796 0.20588 0.90975 0.0
C412 C 0.7923 0.23483 0.94561 0.0
C413 C 0.78356 0.22506 0.99448 0.0
C414 C 0.78891 0.21805 0.85799 0.0
C415 C 0.7886 0.19471 0.82213 0.0
C416 C 0.79761 0.2066 0.77018 0.0
C417 C 0.78736 0.17747 0.73498 0.0
C418 C 0.79523 0.18689 0.68588 0.0
C419 C 0.81379 0.22585 0.67051 0.0
H420 H 0.82605 0.26934 0.78042 0.0
C421 C 0.82447 0.25511 0.70572 0.0
C422 C 0.81662 0.24569 0.75488 0.0
H423 H 0.83859 0.28542 0.69528 0.0
H424 H 0.73161 0.12648 0.98279 0.0
H425 H 0.746 0.14337 0.8978 0.0
H426 H 0.80909 0.26527 0.93579 0.0
H427 H 0.79349 0.24826 0.02091 0.0
H428 H 0.79664 0.24772 0.84978 0.0
H429 H 0.78112 0.16515 0.83074 0.0
H430 H 0.77305 0.14714 0.74545 0.0
H431 H 0.78716 0.16357 0.66001 0.0
C432 C 0.58978 0.77016 0.31335 0.0
C433 C 0.56634 0.73243 0.33195 0.0
C434 C 0.59173 0.77713 0.2634 0.0
C435 C 0.57011 0.74649 0.23074 0.0
C436 C 0.54696 0.70883 0.24932 0.0
C437 C 0.54489 0.70189 0.2992 0.0
C438 C 0.57185 0.75223 0.17718 0.0
C439 C 0.58152 0.78641 0.15577 0.0
C440 C 0.58213 0.7917 0.10219 0.0
C441 C 0.57743 0.82195 0.08369 0.0
C442 C 0.57791 0.82805 0.03373 0.0
C443 C 0.58363 0.80433 1.00081 0.0
H444 H 0.59332 0.74534 0.08213 0.0
C445 C 0.58895 0.77438 0.01938 0.0
C446 C 0.58827 0.76815 0.06941 0.0
H447 H 0.59427 0.75604 0.99529 0.0
H448 H 0.60732 0.79427 0.33733 0.0
H449 H 0.61088 0.80639 0.25062 0.0
H450 H 0.53009 0.68461 0.22514 0.0
H451 H 0.52612 0.67254 0.31207 0.0
H452 H 0.56277 0.72663 0.15476 0.0
H453 H 0.58715 0.81117 0.17815 0.0
H454 H 0.57286 0.8407 0.10798 0.0
H455 H 0.57319 0.85107 0.02094 0.0
C456 C 0.80007 0.5612 0.64631 0.0
C457 C 0.79809 0.5862 0.6808 0.0
C458 C 0.79313 0.56414 0.59726 0.0
C459 C 0.7837 0.59207 0.58144 0.0
C460 C 0.78216 0.6173 0.61589 0.0
C461 C 0.78911 0.61435 0.66494 0.0
C462 C 0.77643 0.59668 0.52949 0.0
C463 C 0.76661 0.56876 0.4956 0.0
C464 C 0.75979 0.57337 0.44354 0.0
C465 C 0.76241 0.54856 0.40942 0.0
C466 C 0.7558 0.55128 0.36025 0.0
C467 C 0.746 0.57871 0.3439 0.0
H468 H 0.74624 0.61968 0.45231 0.0
C469 C 0.74293 0.60332 0.37803 0.0
C470 C 0.74969 0.6007 0.42729 0.0
H471 H 0.73552 0.62484 0.36665 0.0
H472 H 0.80667 0.53901 0.65723 0.0
H473 H 0.79586 0.54481 0.57211 0.0
H474 H 0.77541 0.63938 0.60485 0.0
H475 H 0.78793 0.63451 0.69034 0.0
H476 H 0.77914 0.62427 0.51927 0.0
H477 H 0.76384 0.54115 0.50579 0.0
H478 H 0.76971 0.52694 0.42082 0.0
H479 H 0.75775 0.5314 0.33511 0.0
C480 C 0.18344 0.7886 0.70456 0.0
C481 C 0.16979 0.75134 0.68481 0.0
C482 C 0.19076 0.79523 0.75428 0.0
C483 C 0.1844 0.7646 0.78558 0.0
C484 C 0.17113 0.72751 0.76565 0.0
C485 C 0.1638 0.7209 0.71602 0.0
C486 C 0.19224 0.77 0.83871 0.0
C487 C 0.19535 0.80033 0.86446 0.0
C488 C 0.20333 0.80542 0.91755 0.0
C489 C 0.2193 0.84287 0.9375 0.0
C490 C 0.22721 0.84909 0.98709 0.0
C491 C 0.21898 0.81789 0.01815 0.0
H492 H 0.1811 0.74454 0.93539 0.0
C493 C 0.20237 0.78027 0.9984 0.0
C494 C 0.19454 0.77405 0.94876 0.0
H495 H 0.19578 0.75558 0.02124 0.0
H496 H 0.18825 0.81269 0.68161 0.0
H497 H 0.20195 0.82453 0.76753 0.0
H498 H 0.16634 0.70342 0.78861 0.0
H499 H 0.15399 0.69198 0.70201 0.0
H500 H 0.19528 0.7476 0.85714 0.0
H501 H 0.19262 0.82298 0.84625 0.0
H502 H 0.22595 0.86754 0.91455 0.0
H503 H 0.2394 0.87835 1.00117 0.0
C504 C 0.41626 0.20977 0.32479 0.0
C505 C 0.39435 0.22513 0.34494 0.0
C506 C 0.41559 0.20319 0.27487 0.0
C507 C 0.39266 0.21152 0.2438 0.0
C508 C 0.37086 0.22692 0.26403 0.0
C509 C 0.37157 0.23353 0.3139 0.0
C510 C 0.39167 0.20608 0.19016 0.0
C511 C 0.40241 0.18279 0.16762 0.0
C512 C 0.40207 0.17777 0.11398 0.0
C513 C 0.42433 0.16275 0.09418 0.0
C514 C 0.42474 0.157 0.04425 0.0
C515 C 0.40259 0.16586 0.01267 0.0
H516 H 0.36111 0.19691 0.09596 0.0
C517 C 0.38007 0.18067 0.0324 0.0
C518 C 0.37967 0.18645 0.08242 0.0
H519 H 0.36209 0.18712 1.00925 0.0
H520 H 0.43475 0.20372 0.34748 0.0
H521 H 0.43389 0.19253 0.26101 0.0
H522 H 0.35305 0.23381 0.24115 0.0
H523 H 0.35403 0.24503 0.32818 0.0
H524 H 0.38146 0.22201 0.16878 0.0
H525 H 0.41255 0.16681 0.18903 0.0
H526 H 0.44179 0.15565 0.11743 0.0
H527 H 0.44282 0.14601 0.03037 0.0
C528 C 0.13748 0.47465 0.12775 0.0
C529 C 0.14539 0.479 0.07781 0.0
C530 C 0.13179 0.50173 0.15302 0.0
C531 C 0.13442 0.53409 0.12897 0.0
C532 C 0.13946 0.53689 0.07846 0.0
C533 C 0.14498 0.50959 0.05302 0.0
C534 C 0.1341 0.56631 0.15573 0.0
C535 C 0.14785 0.57608 0.20132 0.0
C536 C 0.15326 0.61126 0.22713 0.0
C537 C 0.15869 0.61353 0.27757 0.0
C538 C 0.16682 0.64724 0.30293 0.0
C539 C 0.17001 0.67954 0.2782 0.0
H540 H 0.15327 0.64367 0.16358 0.0
C541 C 0.16421 0.67715 0.22779 0.0
C542 C 0.15605 0.64351 0.20249 0.0
H543 H 0.16652 0.70153 0.20751 0.0
H544 H 0.1367 0.45083 0.14771 0.0
H545 H 0.1261 0.49753 0.19152 0.0
H546 H 0.141 0.56126 0.05898 0.0
H547 H 0.15074 0.51353 0.01448 0.0
H548 H 0.12501 0.58389 0.13589 0.0
H549 H 0.15724 0.55843 0.2205 0.0
H550 H 0.15707 0.58927 0.29743 0.0
H551 H 0.17115 0.64813 0.34174 0.0
C552 C 0.67776 0.18008 0.46063 0.0
C553 C 0.68104 0.18665 0.41038 0.0
C554 C 0.64438 0.17315 0.4853 0.0
C555 C 0.61364 0.17317 0.46036 0.0
C556 C 0.61643 0.17858 0.40993 0.0
C557 C 0.64984 0.18533 0.38512 0.0
C558 C 0.57847 0.16791 0.48566 0.0
C559 C 0.57845 0.17722 0.53264 0.0
C560 C 0.54466 0.17565 0.55754 0.0
C561 C 0.54406 0.17589 0.60842 0.0
C562 C 0.51442 0.17755 0.63338 0.0
C563 C 0.48486 0.17925 0.60785 0.0
H564 H 0.51435 0.17768 0.49294 0.0
C565 C 0.48501 0.17823 0.55695 0.0
C566 C 0.51462 0.17664 0.53204 0.0
H567 H 0.4628 0.17972 0.53607 0.0
H568 H 0.70095 0.1801 0.48111 0.0
H569 H 0.64284 0.1675 0.52378 0.0
H570 H 0.59299 0.17832 0.38977 0.0
H571 H 0.65137 0.18999 0.34635 0.0
H572 H 0.55246 0.15767 0.46396 0.0
H573 H 0.60464 0.18763 0.55405 0.0
H574 H 0.56696 0.1754 0.62898 0.0
H575 H 0.51518 0.17836 0.6726 0.0
C576 C 0.31555 0.52375 0.95082 0.0
C577 C 0.27804 0.50061 0.93204 0.0
C578 C 0.34583 0.5494 0.92052 0.0
C579 C 0.33883 0.55239 0.87111 0.0
C580 C 0.30103 0.53042 0.85313 0.0
C581 C 0.27104 0.5046 0.88307 0.0
C582 C 0.36975 0.57841 0.83711 0.0
C583 C 0.40719 0.58848 0.84212 0.0
C584 C 0.43738 0.61481 0.80752 0.0
C585 C 0.47483 0.63997 0.82491 0.0
C586 C 0.50302 0.66765 0.79439 0.0
C587 C 0.49443 0.67033 0.74561 0.0
H588 H 0.40118 0.59585 0.74301 0.0
C589 C 0.45772 0.64347 0.72734 0.0
C590 C 0.42938 0.61591 0.75803 0.0
H591 H 0.45039 0.64459 0.68983 0.0
H592 H 0.32168 0.52133 0.98846 0.0
H593 H 0.37446 0.56688 0.93596 0.0
H594 H 0.29478 0.53255 0.81542 0.0
H595 H 0.24232 0.48747 0.86758 0.0
H596 H 0.36086 0.58872 0.80596 0.0
H597 H 0.41644 0.57865 0.87337 0.0
H598 H 0.48187 0.63926 0.86266 0.0
H599 H 0.53127 0.68762 0.80945 0.0
C600 C 0.81242 0.30957 0.217 0.0
C601 C 0.81033 0.30861 0.26787 0.0
C602 C 0.81527 0.34111 0.19144 0.0
C603 C 0.8158 0.37227 0.21626 0.0
C604 C 0.81593 0.37232 0.26711 0.0
C605 C 0.81307 0.34073 0.29273 0.0
C606 C 0.8149 0.40451 0.19059 0.0
C607 C 0.79876 0.40038 0.14651 0.0
C608 C 0.79349 0.43106 0.12349 0.0
C609 C 0.79086 0.43177 0.07284 0.0
C610 C 0.78483 0.4597 0.05014 0.0
C611 C 0.78085 0.48716 0.07784 0.0
H612 H 0.78915 0.45766 0.19036 0.0
C613 C 0.78279 0.48595 0.1286 0.0
C614 C 0.78891 0.45819 0.15119 0.0
H615 H 0.77951 0.50644 0.15114 0.0
H616 H 0.81105 0.28557 0.19671 0.0
H617 H 0.81675 0.34072 0.15233 0.0
H618 H 0.81682 0.39622 0.28709 0.0
H619 H 0.81186 0.34103 0.33192 0.0
H620 H 0.82572 0.43171 0.21018 0.0
H621 H 0.78806 0.37335 0.12663 0.0
H622 H 0.79373 0.41081 0.05074 0.0
H623 H 0.78334 0.45975 0.01097 0.0
C624 C 0.30788 0.81744 0.46519 0.0
C625 C 0.30129 0.80688 0.41606 0.0
C626 C 0.34053 0.82125 0.48884 0.0
C627 C 0.36704 0.81389 0.46398 0.0
C628 C 0.36118 0.8049 0.41433 0.0
C629 C 0.3287 0.8015 0.39054 0.0
C630 C 0.40056 0.8143 0.48821 0.0
C631 C 0.40438 0.81319 0.53669 0.0
C632 C 0.43568 0.80907 0.56027 0.0
C633 C 0.43076 0.79648 0.60868 0.0
C634 C 0.45812 0.78953 0.63119 0.0
C635 C 0.49077 0.79481 0.60548 0.0
H636 H 0.47582 0.8279 0.49921 0.0
C637 C 0.4966 0.80896 0.55784 0.0
C638 C 0.46966 0.81646 0.53563 0.0
H639 H 0.52206 0.81421 0.53752 0.0
H640 H 0.28759 0.82247 0.48564 0.0
H641 H 0.34443 0.82977 0.52651 0.0
H642 H 0.3813 0.79952 0.39404 0.0
H643 H 0.32449 0.79348 0.35259 0.0
H644 H 0.42127 0.81247 0.4645 0.0
H645 H 0.38227 0.81223 0.56045 0.0
H646 H 0.40517 0.79103 0.62882 0.0
H647 H 0.45306 0.77885 0.66809 0.0
C648 C 0.66347 0.51026 0.89013 0.0
C649 C 0.66526 0.50734 0.94071 0.0
C650 C 0.63093 0.48319 0.86436 0.0
C651 C 0.59956 0.45235 0.88864 0.0
C652 C 0.60039 0.45081 0.93942 0.0
C653 C 0.63297 0.47796 0.96526 0.0
C654 C 0.56635 0.42045 0.86235 0.0
C655 C 0.56937 0.40943 0.8171 0.0
C656 C 0.53836 0.37391 0.79323 0.0
C657 C 0.53848 0.37096 0.74253 0.0
C658 C 0.51147 0.33682 0.71902 0.0
C659 C 0.48405 0.30477 0.74592 0.0
H660 H 0.51032 0.34228 0.85921 0.0
C661 C 0.4838 0.30783 0.79664 0.0
C662 C 0.51068 0.34189 0.82005 0.0
H663 H 0.4632 0.28365 0.81857 0.0
H664 H 0.68758 0.53301 0.87015 0.0
H665 H 0.63075 0.4864 0.82548 0.0
H666 H 0.57639 0.42763 0.95906 0.0
H667 H 0.6333 0.4751 1.00424 0.0
H668 H 0.53953 0.40392 0.88245 0.0
H669 H 0.59615 0.426 0.79693 0.0
H670 H 0.55978 0.39504 0.72104 0.0
H671 H 0.51249 0.33539 0.67991 0.0
loop_
_geom_bond_atom_site_label_1
_geom_bond_atom_site_label_2
_geom_bond_distance
_geom_bond_site_symmetry_2
_ccdc_geom_bond_type
Dy0 O3 2.307 1_556 S
Dy0 O5 2.395 . S
Dy0 O6 2.379 . S
Dy0 O8 2.339 . S
Dy0 O10 2.298 . S
Dy0 O14 2.275 . S
Dy0 C22 2.738 . S
Dy1 O4 2.298 . S
Dy1 O7 2.275 . S
Dy1 O9 2.307 1_554 S
Dy1 O11 2.395 . S
Dy1 O12 2.379 . S
Dy1 O15 2.339 . S
Dy1 C31 2.738 . S
C2 O14 1.254 . S
C2 O15 1.257 1_556 S
O3 Dy0 2.307 1_554 S
O3 C13 1.266 . S
O4 Dy1 2.298 . S
O4 C13 1.236 . S
O5 Dy0 2.395 . S
O5 C22 1.255 . S
O6 Dy0 2.379 . S
O6 C22 1.249 . S
O7 Dy1 2.275 . S
O7 C23 1.254 . S
O8 Dy0 2.339 . S
O8 C23 1.257 1_556 S
O9 Dy1 2.307 1_556 S
O9 C24 1.266 . S
O10 Dy0 2.298 . S
O10 C24 1.236 . S
O11 Dy1 2.395 . S
O11 C31 1.255 . S
O12 Dy1 2.379 . S
O12 C31 1.249 . S
C13 O3 1.266 . S
C13 O4 1.236 . S
O14 Dy0 2.275 . S
O14 C2 1.254 . S
O15 Dy1 2.339 . S
O15 C2 1.257 1_554 S
C16 C19 1.344 . S
C16 C20 1.328 . S
C16 C22 1.516 . S
C17 C18 1.304 . S
C17 C21 1.323 . S
C18 C17 1.304 . S
C18 C19 1.371 . S
C18 H32 0.930 . S
C19 C16 1.344 . S
C19 C18 1.371 . S
C19 H33 0.931 . S
C20 C16 1.328 . S
C20 C21 1.433 . S
C20 H34 0.931 . S
C21 C17 1.323 . S
C21 C20 1.433 . S
C21 H35 0.933 . S
C22 Dy0 2.738 . S
C22 O5 1.255 . S
C22 O6 1.249 . S
C22 C16 1.516 . S
C23 O7 1.254 . S
C23 O8 1.257 1_554 S
C24 O9 1.266 . S
C24 O10 1.236 . S
C25 C28 1.344 . S
C25 C29 1.328 . S
C25 C31 1.516 . S
C26 C27 1.304 . S
C26 C30 1.323 . S
C27 C26 1.304 . S
C27 C28 1.371 . S
C27 H36 0.930 . S
C28 C25 1.344 . S
C28 C27 1.371 . S
C28 H37 0.931 . S
C29 C25 1.328 . S
C29 C30 1.433 . S
C29 H38 0.931 . S
C30 C26 1.323 . S
C30 C29 1.433 . S
C30 H39 0.933 . S
C31 Dy1 2.738 . S
C31 O11 1.255 . S
C31 O12 1.249 . S
C31 C25 1.516 . S
H32 C18 0.930 . S
H33 C19 0.931 . S
H34 C20 0.931 . S
H35 C21 0.933 . S
H36 C27 0.930 . S
H37 C28 0.931 . S
H38 C29 0.931 . S
H39 C30 0.933 . S
Dy40 O43 2.307 . S
Dy40 O45 2.395 . S
Dy40 O46 2.379 . S
Dy40 O48 2.339 . S
Dy40 O50 2.298 . S
Dy40 O54 2.275 . S
Dy40 C62 2.738 . S
Dy41 O44 2.298 . S
Dy41 O47 2.275 . S
Dy41 O49 2.307 . S
Dy41 O51 2.395 . S
Dy41 O52 2.379 . S
Dy41 O55 2.339 . S
Dy41 C71 2.738 . S
C42 O54 1.254 . S
C42 O55 1.257 . S
O43 Dy40 2.307 . S
O43 C53 1.266 . S
O44 Dy41 2.298 . S
O44 C53 1.236 . S
O45 Dy40 2.395 . S
O45 C62 1.255 . S
O46 Dy40 2.379 . S
O46 C62 1.249 . S
O47 Dy41 2.275 . S
O47 C63 1.254 . S
O48 Dy40 2.339 . S
O48 C63 1.257 . S
O49 Dy41 2.307 . S
O49 C64 1.266 . S
O50 Dy40 2.298 . S
O50 C64 1.236 . S
O51 Dy41 2.395 . S
O51 C71 1.255 . S
O52 Dy41 2.379 . S
O52 C71 1.249 . S
C53 O43 1.266 . S
C53 O44 1.236 . S
O54 Dy40 2.275 . S
O54 C42 1.254 . S
O55 Dy41 2.339 . S
O55 C42 1.257 . S
C56 C59 1.344 . S
C56 C60 1.328 . S
C56 C62 1.516 . S
C57 C58 1.304 . S
C57 C61 1.323 . S
C58 C57 1.304 . S
C58 C59 1.371 . S
C58 H72 0.930 . S
C59 C56 1.344 . S
C59 C58 1.371 . S
C59 H73 0.931 . S
C60 C56 1.328 . S
C60 C61 1.433 . S
C60 H74 0.931 . S
C61 C57 1.323 . S
C61 C60 1.433 . S
C61 H75 0.933 . S
C62 Dy40 2.738 . S
C62 O45 1.255 . S
C62 O46 1.249 . S
C62 C56 1.516 . S
C63 O47 1.254 . S
C63 O48 1.257 . S
C64 O49 1.266 . S
C64 O50 1.236 . S
C65 C68 1.344 . S
C65 C69 1.328 . S
C65 C71 1.516 . S
C66 C67 1.304 . S
C66 C70 1.323 . S
C67 C66 1.304 . S
C67 C68 1.371 . S
C67 H76 0.930 . S
C68 C65 1.344 . S
C68 C67 1.371 . S
C68 H77 0.931 . S
C69 C65 1.328 . S
C69 C70 1.433 . S
C69 H78 0.931 . S
C70 C66 1.323 . S
C70 C69 1.433 . S
C70 H79 0.933 . S
C71 Dy41 2.738 . S
C71 O51 1.255 . S
C71 O52 1.249 . S
C71 C65 1.516 . S
H72 C58 0.930 . S
H73 C59 0.931 . S
H74 C60 0.931 . S
H75 C61 0.933 . S
H76 C67 0.930 . S
H77 C68 0.931 . S
H78 C69 0.931 . S
H79 C70 0.933 . S
Dy80 O83 2.307 . S
Dy80 O85 2.395 . S
Dy80 O86 2.379 . S
Dy80 O88 2.339 . S
Dy80 O90 2.298 . S
Dy80 O94 2.275 . S
Dy80 C102 2.738 . S
Dy81 O84 2.298 . S
Dy81 O87 2.275 . S
Dy81 O89 2.307 . S
Dy81 O91 2.395 . S
Dy81 O92 2.379 . S
Dy81 O95 2.339 . S
Dy81 C111 2.738 . S
C82 O94 1.254 . S
C82 O95 1.257 . S
O83 Dy80 2.307 . S
O83 C93 1.266 . S
O84 Dy81 2.298 . S
O84 C93 1.236 . S
O85 Dy80 2.395 . S
O85 C102 1.255 . S
O86 Dy80 2.379 . S
O86 C102 1.249 . S
O87 Dy81 2.275 . S
O87 C103 1.254 . S
O88 Dy80 2.339 . S
O88 C103 1.257 . S
O89 Dy81 2.307 . S
O89 C104 1.266 . S
O90 Dy80 2.298 . S
O90 C104 1.236 . S
O91 Dy81 2.395 . S
O91 C111 1.255 . S
O92 Dy81 2.379 . S
O92 C111 1.249 . S
C93 O83 1.266 . S
C93 O84 1.236 . S
O94 Dy80 2.275 . S
O94 C82 1.254 . S
O95 Dy81 2.339 . S
O95 C82 1.257 . S
C96 C99 1.344 . S
C96 C100 1.328 . S
C96 C102 1.516 . S
C97 C98 1.304 . S
C97 C101 1.323 . S
C98 C97 1.304 . S
C98 C99 1.371 . S
C98 H112 0.930 . S
C99 C96 1.344 . S
C99 C98 1.371 . S
C99 H113 0.931 . S
C100 C96 1.328 . S
C100 C101 1.433 . S
C100 H114 0.931 . S
C101 C97 1.323 . S
C101 C100 1.433 . S
C101 H115 0.933 . S
C102 Dy80 2.738 . S
C102 O85 1.255 . S
C102 O86 1.249 . S
C102 C96 1.516 . S
C103 O87 1.254 . S
C103 O88 1.257 . S
C104 O89 1.266 . S
C104 O90 1.236 . S
C105 C108 1.344 . S
C105 C109 1.328 . S
C105 C111 1.516 . S
C106 C107 1.304 . S
C106 C110 1.323 . S
C107 C106 1.304 . S
C107 C108 1.371 . S
C107 H116 0.930 . S
C108 C105 1.344 . S
C108 C107 1.371 . S
C108 H117 0.931 . S
C109 C105 1.328 . S
C109 C110 1.433 . S
C109 H118 0.931 . S
C110 C106 1.323 . S
C110 C109 1.433 . S
C110 H119 0.933 . S
C111 Dy81 2.738 . S
C111 O91 1.255 . S
C111 O92 1.249 . S
C111 C105 1.516 . S
H112 C98 0.930 . S
H113 C99 0.931 . S
H114 C100 0.931 . S
H115 C101 0.933 . S
H116 C107 0.930 . S
H117 C108 0.931 . S
H118 C109 0.931 . S
H119 C110 0.933 . S
Dy120 O123 2.307 1_556 S
Dy120 O125 2.395 . S
Dy120 O126 2.379 . S
Dy120 O128 2.339 . S
Dy120 O130 2.298 . S
Dy120 O134 2.275 . S
Dy120 C142 2.738 . S
Dy121 O124 2.298 . S
Dy121 O127 2.275 . S
Dy121 O129 2.307 1_554 S
Dy121 O131 2.395 . S
Dy121 O132 2.379 . S
Dy121 O135 2.339 . S
Dy121 C151 2.738 . S
C122 O134 1.254 . S
C122 O135 1.257 1_556 S
O123 Dy120 2.307 1_554 S
O123 C133 1.266 . S
O124 Dy121 2.298 . S
O124 C133 1.236 . S
O125 Dy120 2.395 . S
O125 C142 1.255 . S
O126 Dy120 2.379 . S
O126 C142 1.249 . S
O127 Dy121 2.275 . S
O127 C143 1.254 . S
O128 Dy120 2.339 . S
O128 C143 1.257 1_556 S
O129 Dy121 2.307 1_556 S
O129 C144 1.266 . S
O130 Dy120 2.298 . S
O130 C144 1.236 . S
O131 Dy121 2.395 . S
O131 C151 1.255 . S
O132 Dy121 2.379 . S
O132 C151 1.249 . S
C133 O123 1.266 . S
C133 O124 1.236 . S
O134 Dy120 2.275 . S
O134 C122 1.254 . S
O135 Dy121 2.339 . S
O135 C122 1.257 1_554 S
C136 C139 1.344 . S
C136 C140 1.328 . S
C136 C142 1.516 . S
C137 C138 1.304 . S
C137 C141 1.323 . S
C138 C137 1.304 . S
C138 C139 1.371 . S
C138 H152 0.930 . S
C139 C136 1.344 . S
C139 C138 1.371 . S
C139 H153 0.931 . S
C140 C136 1.328 . S
C140 C141 1.433 . S
C140 H154 0.931 . S
C141 C137 1.323 . S
C141 C140 1.433 . S
C141 H155 0.933 . S
C142 Dy120 2.738 . S
C142 O125 1.255 . S
C142 O126 1.249 . S
C142 C136 1.516 . S
C143 O127 1.254 . S
C143 O128 1.257 1_554 S
C144 O129 1.266 . S
C144 O130 1.236 . S
C145 C148 1.344 . S
C145 C149 1.328 . S
C145 C151 1.516 . S
C146 C147 1.304 . S
C146 C150 1.323 . S
C147 C146 1.304 . S
C147 C148 1.371 . S
C147 H156 0.930 . S
C148 C145 1.344 . S
C148 C147 1.371 . S
C148 H157 0.931 . S
C149 C145 1.328 . S
C149 C150 1.433 . S
C149 H158 0.931 . S
C150 C146 1.323 . S
C150 C149 1.433 . S
C150 H159 0.933 . S
C151 Dy121 2.738 . S
C151 O131 1.255 . S
C151 O132 1.249 . S
C151 C145 1.516 . S
H152 C138 0.930 . S
H153 C139 0.931 . S
H154 C140 0.931 . S
H155 C141 0.933 . S
H156 C147 0.930 . S
H157 C148 0.931 . S
H158 C149 0.931 . S
H159 C150 0.933 . S
Dy160 O163 2.307 . S
Dy160 O165 2.395 . S
Dy160 O166 2.379 . S
Dy160 O168 2.339 . S
Dy160 O170 2.298 . S
Dy160 O174 2.275 . S
Dy160 C182 2.738 . S
Dy161 O164 2.298 . S
Dy161 O167 2.275 . S
Dy161 O169 2.307 . S
Dy161 O171 2.395 . S
Dy161 O172 2.379 . S
Dy161 O175 2.339 . S
Dy161 C191 2.738 . S
C162 O174 1.254 . S
C162 O175 1.257 . S
O163 Dy160 2.307 . S
O163 C173 1.266 . S
O164 Dy161 2.298 . S
O164 C173 1.236 . S
O165 Dy160 2.395 . S
O165 C182 1.255 . S
O166 Dy160 2.379 . S
O166 C182 1.249 . S
O167 Dy161 2.275 . S
O167 C183 1.254 . S
O168 Dy160 2.339 . S
O168 C183 1.257 . S
O169 Dy161 2.307 . S
O169 C184 1.266 . S
O170 Dy160 2.298 . S
O170 C184 1.236 . S
O171 Dy161 2.395 . S
O171 C191 1.255 . S
O172 Dy161 2.379 . S
O172 C191 1.249 . S
C173 O163 1.266 . S
C173 O164 1.236 . S
O174 Dy160 2.275 . S
O174 C162 1.254 . S
O175 Dy161 2.339 . S
O175 C162 1.257 . S
C176 C179 1.344 . S
C176 C180 1.328 . S
C176 C182 1.516 . S
C177 C178 1.304 . S
C177 C181 1.323 . S
C178 C177 1.304 . S
C178 C179 1.371 . S
C178 H192 0.930 . S
C179 C176 1.344 . S
C179 C178 1.371 . S
C179 H193 0.931 . S
C180 C176 1.328 . S
C180 C181 1.433 . S
C180 H194 0.931 . S
C181 C177 1.323 . S
C181 C180 1.433 . S
C181 H195 0.933 . S
C182 Dy160 2.738 . S
C182 O165 1.255 . S
C182 O166 1.249 . S
C182 C176 1.516 . S
C183 O167 1.254 . S
C183 O168 1.257 . S
C184 O169 1.266 . S
C184 O170 1.236 . S
C185 C188 1.344 . S
C185 C189 1.328 . S
C185 C191 1.516 . S
C186 C187 1.304 . S
C186 C190 1.323 . S
C187 C186 1.304 . S
C187 C188 1.371 . S
C187 H196 0.930 . S
C188 C185 1.344 . S
C188 C187 1.371 . S
C188 H197 0.931 . S
C189 C185 1.328 . S
C189 C190 1.433 . S
C189 H198 0.931 . S
C190 C186 1.323 . S
C190 C189 1.433 . S
C190 H199 0.933 . S
C191 Dy161 2.738 . S
C191 O171 1.255 . S
C191 O172 1.249 . S
C191 C185 1.516 . S
H192 C178 0.930 . S
H193 C179 0.931 . S
H194 C180 0.931 . S
H195 C181 0.933 . S
H196 C187 0.930 . S
H197 C188 0.931 . S
H198 C189 0.931 . S
H199 C190 0.933 . S
Dy200 O203 2.307 . S
Dy200 O205 2.395 . S
Dy200 O206 2.379 . S
Dy200 O208 2.339 . S
Dy200 O210 2.298 . S
Dy200 O214 2.275 . S
Dy200 C222 2.738 . S
Dy201 O204 2.298 . S
Dy201 O207 2.275 . S
Dy201 O209 2.307 . S
Dy201 O211 2.395 . S
Dy201 O212 2.379 . S
Dy201 O215 2.339 . S
Dy201 C231 2.738 . S
C202 O214 1.254 . S
C202 O215 1.257 . S
O203 Dy200 2.307 . S
O203 C213 1.266 . S
O204 Dy201 2.298 . S
O204 C213 1.236 . S
O205 Dy200 2.395 . S
O205 C222 1.255 . S
O206 Dy200 2.379 . S
O206 C222 1.249 . S
O207 Dy201 2.275 . S
O207 C223 1.254 . S
O208 Dy200 2.339 . S
O208 C223 1.257 . S
O209 Dy201 2.307 . S
O209 C224 1.266 . S
O210 Dy200 2.298 . S
O210 C224 1.236 . S
O211 Dy201 2.395 . S
O211 C231 1.255 . S
O212 Dy201 2.379 . S
O212 C231 1.249 . S
C213 O203 1.266 . S
C213 O204 1.236 . S
O214 Dy200 2.275 . S
O214 C202 1.254 . S
O215 Dy201 2.339 . S
O215 C202 1.257 . S
C216 C219 1.344 . S
C216 C220 1.328 . S
C216 C222 1.516 . S
C217 C218 1.304 . S
C217 C221 1.323 . S
C218 C217 1.304 . S
C218 C219 1.371 . S
C218 H232 0.930 . S
C219 C216 1.344 . S
C219 C218 1.371 . S
C219 H233 0.931 . S
C220 C216 1.328 . S
C220 C221 1.433 . S
C220 H234 0.931 . S
C221 C217 1.323 . S
C221 C220 1.433 . S
C221 H235 0.933 . S
C222 Dy200 2.738 . S
C222 O205 1.255 . S
C222 O206 1.249 . S
C222 C216 1.516 . S
C223 O207 1.254 . S
C223 O208 1.257 . S
C224 O209 1.266 . S
C224 O210 1.236 . S
C225 C228 1.344 . S
C225 C229 1.328 . S
C225 C231 1.516 . S
C226 C227 1.304 . S
C226 C230 1.323 . S
C227 C226 1.304 . S
C227 C228 1.371 . S
C227 H236 0.930 . S
C228 C225 1.344 . S
C228 C227 1.371 . S
C228 H237 0.931 . S
C229 C225 1.328 . S
C229 C230 1.433 . S
C229 H238 0.931 . S
C230 C226 1.323 . S
C230 C229 1.433 . S
C230 H239 0.933 . S
C231 Dy201 2.738 . S
C231 O211 1.255 . S
C231 O212 1.249 . S
C231 C225 1.516 . S
H232 C218 0.930 . S
H233 C219 0.931 . S
H234 C220 0.931 . S
H235 C221 0.933 . S
H236 C227 0.930 . S
H237 C228 0.931 . S
H238 C229 0.931 . S
H239 C230 0.933 . S
C240 C241 1.386 . S
C240 C242 1.383 . S
C240 H256 0.951 . S
C241 C240 1.386 . S
C241 C245 1.383 . S
C242 C240 1.383 . S
C242 C243 1.402 . S
C242 H257 0.951 . S
C243 C242 1.402 . S
C243 C244 1.375 . S
C243 C246 1.481 . S
C244 C243 1.375 . S
C244 C245 1.367 . S
C244 H258 0.951 . S
C245 C241 1.383 . S
C245 C244 1.367 . S
C245 H259 0.950 . S
C246 C243 1.481 . S
C246 C247 1.297 . S
C246 H260 0.950 . S
C247 C246 1.297 . S
C247 C248 1.479 . S
C247 H261 0.950 . S
C248 C247 1.479 . S
C248 C249 1.375 . S
C248 C254 1.404 . S
C249 C248 1.375 . S
C249 C250 1.369 . S
C249 H262 0.950 . S
C250 C249 1.369 . S
C250 C251 1.392 . S
C250 H263 0.951 . S
C251 C250 1.392 . S
C251 C253 1.384 . S
H252 C254 0.949 . S
C253 C251 1.384 . S
C253 C254 1.385 . S
C253 H255 0.950 . S
C254 C248 1.404 . S
C254 H252 0.949 . S
C254 C253 1.385 . S
H255 C253 0.950 . S
H256 C240 0.951 . S
H257 C242 0.951 . S
H258 C244 0.951 . S
H259 C245 0.950 . S
H260 C246 0.950 . S
H261 C247 0.950 . S
H262 C249 0.950 . S
H263 C250 0.951 . S
C264 C265 1.386 . S
C264 C266 1.383 . S
C264 H280 0.951 . S
C265 C264 1.386 . S
C265 C269 1.383 . S
C266 C264 1.383 . S
C266 C267 1.402 . S
C266 H281 0.951 . S
C267 C266 1.402 . S
C267 C268 1.375 . S
C267 C270 1.481 . S
C268 C267 1.375 . S
C268 C269 1.367 . S
C268 H282 0.951 . S
C269 C265 1.383 . S
C269 C268 1.367 . S
C269 H283 0.950 . S
C270 C267 1.481 . S
C270 C271 1.297 1_455 S
C270 H284 0.950 . S
C271 C270 1.297 1_655 S
C271 C272 1.479 . S
C271 H285 0.950 . S
C272 C271 1.479 . S
C272 C273 1.375 . S
C272 C278 1.404 . S
C273 C272 1.375 . S
C273 C274 1.369 . S
C273 H286 0.950 . S
C274 C273 1.369 . S
C274 C275 1.392 . S
C274 H287 0.951 . S
C275 C274 1.392 . S
C275 C277 1.384 . S
H276 C278 0.949 . S
C277 C275 1.384 . S
C277 C278 1.385 . S
C277 H279 0.950 . S
C278 C272 1.404 . S
C278 H276 0.949 . S
C278 C277 1.385 . S
H279 C277 0.950 . S
H280 C264 0.951 . S
H281 C266 0.951 . S
H282 C268 0.951 . S
H283 C269 0.950 . S
H284 C270 0.950 . S
H285 C271 0.950 . S
H286 C273 0.950 . S
H287 C274 0.951 . S
C288 C289 1.386 . S
C288 C290 1.383 . S
C288 H304 0.951 . S
C289 C288 1.386 . S
C289 C293 1.383 . S
C290 C288 1.383 . S
C290 C291 1.402 . S
C290 H305 0.951 . S
C291 C290 1.402 . S
C291 C292 1.375 . S
C291 C294 1.481 . S
C292 C291 1.375 . S
C292 C293 1.367 . S
C292 H306 0.951 . S
C293 C289 1.383 . S
C293 C292 1.367 . S
C293 H307 0.950 . S
C294 C291 1.481 . S
C294 C295 1.297 1_545 S
C294 H308 0.950 . S
C295 C294 1.297 1_565 S
C295 C296 1.479 . S
C295 H309 0.950 . S
C296 C295 1.479 . S
C296 C297 1.375 . S
C296 C302 1.404 . S
C297 C296 1.375 . S
C297 C298 1.369 . S
C297 H310 0.950 . S
C298 C297 1.369 . S
C298 C299 1.392 . S
C298 H311 0.951 . S
C299 C298 1.392 . S
C299 C301 1.384 . S
H300 C302 0.949 . S
C301 C299 1.384 . S
C301 C302 1.385 . S
C301 H303 0.950 . S
C302 C296 1.404 . S
C302 H300 0.949 . S
C302 C301 1.385 . S
H303 C301 0.950 . S
H304 C288 0.951 . S
H305 C290 0.951 . S
H306 C292 0.951 . S
H307 C293 0.950 . S
H308 C294 0.950 . S
H309 C295 0.950 . S
H310 C297 0.950 . S
H311 C298 0.951 . S
C312 C313 1.386 . S
C312 C314 1.383 . S
C312 H328 0.951 . S
C313 C312 1.386 . S
C313 C317 1.383 . S
C314 C312 1.383 . S
C314 C315 1.402 . S
C314 H329 0.951 . S
C315 C314 1.402 . S
C315 C316 1.375 . S
C315 C318 1.481 . S
C316 C315 1.375 . S
C316 C317 1.367 . S
C316 H330 0.951 . S
C317 C313 1.383 . S
C317 C316 1.367 . S
C317 H331 0.950 . S
C318 C315 1.481 . S
C318 C319 1.297 . S
C318 H332 0.950 . S
C319 C318 1.297 . S
C319 C320 1.479 . S
C319 H333 0.950 . S
C320 C319 1.479 . S
C320 C321 1.375 . S
C320 C326 1.404 . S
C321 C320 1.375 . S
C321 C322 1.369 . S
C321 H334 0.950 . S
C322 C321 1.369 . S
C322 C323 1.392 . S
C322 H335 0.951 . S
C323 C322 1.392 . S
C323 C325 1.384 . S
H324 C326 0.949 . S
C325 C323 1.384 . S
C325 C326 1.385 . S
C325 H327 0.950 . S
C326 C320 1.404 . S
C326 H324 0.949 . S
C326 C325 1.385 . S
H327 C325 0.950 . S
H328 C312 0.951 . S
H329 C314 0.951 . S
H330 C316 0.951 . S
H331 C317 0.950 . S
H332 C318 0.950 . S
H333 C319 0.950 . S
H334 C321 0.950 . S
H335 C322 0.951 . S
C336 C337 1.386 . S
C336 C338 1.383 . S
C336 H352 0.951 . S
C337 C336 1.386 . S
C337 C341 1.383 . S
C338 C336 1.383 . S
C338 C339 1.402 . S
C338 H353 0.951 . S
C339 C338 1.402 . S
C339 C340 1.375 . S
C339 C342 1.481 . S
C340 C339 1.375 . S
C340 C341 1.367 . S
C340 H354 0.951 . S
C341 C337 1.383 . S
C341 C340 1.367 . S
C341 H355 0.950 . S
C342 C339 1.481 . S
C342 C343 1.297 1_455 S
C342 H356 0.950 . S
C343 C342 1.297 1_655 S
C343 C344 1.479 . S
C343 H357 0.950 . S
C344 C343 1.479 . S
C344 C345 1.375 . S
C344 C350 1.404 . S
C345 C344 1.375 . S
C345 C346 1.369 . S
C345 H358 0.950 . S
C346 C345 1.369 . S
C346 C347 1.392 . S
C346 H359 0.951 . S
C347 C346 1.392 . S
C347 C349 1.384 . S
H348 C350 0.949 . S
C349 C347 1.384 . S
C349 C350 1.385 . S
C349 H351 0.950 . S
C350 C344 1.404 . S
C350 H348 0.949 . S
C350 C349 1.385 . S
H351 C349 0.950 . S
H352 C336 0.951 . S
H353 C338 0.951 . S
H354 C340 0.951 . S
H355 C341 0.950 . S
H356 C342 0.950 . S
H357 C343 0.950 . S
H358 C345 0.950 . S
H359 C346 0.951 . S
C360 C361 1.386 . S
C360 C362 1.383 . S
C360 H376 0.951 . S
C361 C360 1.386 . S
C361 C365 1.383 . S
C362 C360 1.383 . S
C362 C363 1.402 . S
C362 H377 0.951 . S
C363 C362 1.402 . S
C363 C364 1.375 . S
C363 C366 1.481 1_545 S
C364 C363 1.375 . S
C364 C365 1.367 . S
C364 H378 0.951 . S
C365 C361 1.383 . S
C365 C364 1.367 . S
C365 H379 0.950 . S
C366 C363 1.481 1_565 S
C366 C367 1.297 . S
C366 H380 0.950 . S
C367 C366 1.297 . S
C367 C368 1.479 . S
C367 H381 0.950 1_565 S
C368 C367 1.479 . S
C368 C369 1.375 . S
C368 C374 1.404 . S
C369 C368 1.375 . S
C369 C370 1.369 . S
C369 H382 0.950 . S
C370 C369 1.369 . S
C370 C371 1.392 . S
C370 H383 0.951 . S
C371 C370 1.392 . S
C371 C373 1.384 . S
H372 C374 0.949 . S
C373 C371 1.384 . S
C373 C374 1.385 . S
C373 H375 0.950 . S
C374 C368 1.404 . S
C374 H372 0.949 . S
C374 C373 1.385 . S
H375 C373 0.950 . S
H376 C360 0.951 . S
H377 C362 0.951 . S
H378 C364 0.951 . S
H379 C365 0.950 . S
H380 C366 0.950 . S
H381 C367 0.950 1_545 S
H382 C369 0.950 . S
H383 C370 0.951 . S
C384 C385 1.386 . S
C384 C386 1.383 . S
C384 H400 0.951 . S
C385 C384 1.386 . S
C385 C389 1.383 . S
C386 C384 1.383 . S
C386 C387 1.402 . S
C386 H401 0.951 . S
C387 C386 1.402 . S
C387 C388 1.375 . S
C387 C390 1.481 . S
C388 C387 1.375 . S
C388 C389 1.367 . S
C388 H402 0.951 . S
C389 C385 1.383 . S
C389 C388 1.367 . S
C389 H403 0.950 . S
C390 C387 1.481 . S
C390 C391 1.297 . S
C390 H404 0.950 . S
C391 C390 1.297 . S
C391 C392 1.479 . S
C391 H405 0.950 . S
C392 C391 1.479 . S
C392 C393 1.375 . S
C392 C398 1.404 . S
C393 C392 1.375 . S
C393 C394 1.369 . S
C393 H406 0.950 . S
C394 C393 1.369 . S
C394 C395 1.392 . S
C394 H407 0.951 . S
C395 C394 1.392 . S
C395 C397 1.384 . S
H396 C398 0.949 . S
C397 C395 1.384 . S
C397 C398 1.385 . S
C397 H399 0.950 . S
C398 C392 1.404 . S
C398 H396 0.949 . S
C398 C397 1.385 . S
H399 C397 0.950 . S
H400 C384 0.951 . S
H401 C386 0.951 . S
H402 C388 0.951 . S
H403 C389 0.950 . S
H404 C390 0.950 . S
H405 C391 0.950 . S
H406 C393 0.950 . S
H407 C394 0.951 . S
C408 C409 1.386 . S
C408 C410 1.383 . S
C408 H424 0.951 . S
C409 C408 1.386 . S
C409 C413 1.383 . S
C410 C408 1.383 . S
C410 C411 1.402 . S
C410 H425 0.951 . S
C411 C410 1.402 . S
C411 C412 1.375 . S
C411 C414 1.481 . S
C412 C411 1.375 . S
C412 C413 1.367 . S
C412 H426 0.951 . S
C413 C409 1.383 . S
C413 C412 1.367 . S
C413 H427 0.950 1_556 S
C414 C411 1.481 . S
C414 C415 1.297 . S
C414 H428 0.950 . S
C415 C414 1.297 . S
C415 C416 1.479 . S
C415 H429 0.950 . S
C416 C415 1.479 . S
C416 C417 1.375 . S
C416 C422 1.404 . S
C417 C416 1.375 . S
C417 C418 1.369 . S
C417 H430 0.950 . S
C418 C417 1.369 . S
C418 C419 1.392 . S
C418 H431 0.951 . S
C419 C418 1.392 . S
C419 C421 1.384 . S
H420 C422 0.949 . S
C421 C419 1.384 . S
C421 C422 1.385 . S
C421 H423 0.950 . S
C422 C416 1.404 . S
C422 H420 0.949 . S
C422 C421 1.385 . S
H423 C421 0.950 . S
H424 C408 0.951 . S
H425 C410 0.951 . S
H426 C412 0.951 . S
H427 C413 0.950 1_554 S
H428 C414 0.950 . S
H429 C415 0.950 . S
H430 C417 0.950 . S
H431 C418 0.951 . S
C432 C433 1.386 . S
C432 C434 1.383 . S
C432 H448 0.951 . S
C433 C432 1.386 . S
C433 C437 1.383 . S
C434 C432 1.383 . S
C434 C435 1.402 . S
C434 H449 0.951 . S
C435 C434 1.402 . S
C435 C436 1.375 . S
C435 C438 1.481 . S
C436 C435 1.375 . S
C436 C437 1.367 . S
C436 H450 0.951 . S
C437 C433 1.383 . S
C437 C436 1.367 . S
C437 H451 0.950 . S
C438 C435 1.481 . S
C438 C439 1.297 . S
C438 H452 0.950 . S
C439 C438 1.297 . S
C439 C440 1.479 . S
C439 H453 0.950 . S
C440 C439 1.479 . S
C440 C441 1.375 . S
C440 C446 1.404 . S
C441 C440 1.375 . S
C441 C442 1.369 . S
C441 H454 0.950 . S
C442 C441 1.369 . S
C442 C443 1.392 . S
C442 H455 0.951 . S
C443 C442 1.392 . S
C443 C445 1.384 . S
H444 C446 0.949 . S
C445 C443 1.384 . S
C445 C446 1.385 . S
C445 H447 0.950 1_554 S
C446 C440 1.404 . S
C446 H444 0.949 . S
C446 C445 1.385 . S
H447 C445 0.950 1_556 S
H448 C432 0.951 . S
H449 C434 0.951 . S
H450 C436 0.951 . S
H451 C437 0.950 . S
H452 C438 0.950 . S
H453 C439 0.950 . S
H454 C441 0.950 . S
H455 C442 0.951 . S
C456 C457 1.386 . S
C456 C458 1.383 . S
C456 H472 0.951 . S
C457 C456 1.386 . S
C457 C461 1.383 . S
C458 C456 1.383 . S
C458 C459 1.402 . S
C458 H473 0.951 . S
C459 C458 1.402 . S
C459 C460 1.375 . S
C459 C462 1.481 . S
C460 C459 1.375 . S
C460 C461 1.367 . S
C460 H474 0.951 . S
C461 C457 1.383 . S
C461 C460 1.367 . S
C461 H475 0.950 . S
C462 C459 1.481 . S
C462 C463 1.297 . S
C462 H476 0.950 . S
C463 C462 1.297 . S
C463 C464 1.479 . S
C463 H477 0.950 . S
C464 C463 1.479 . S
C464 C465 1.375 . S
C464 C470 1.404 . S
C465 C464 1.375 . S
C465 C466 1.369 . S
C465 H478 0.950 . S
C466 C465 1.369 . S
C466 C467 1.392 . S
C466 H479 0.951 . S
C467 C466 1.392 . S
C467 C469 1.384 . S
H468 C470 0.949 . S
C469 C467 1.384 . S
C469 C470 1.385 . S
C469 H471 0.950 . S
C470 C464 1.404 . S
C470 H468 0.949 . S
C470 C469 1.385 . S
H471 C469 0.950 . S
H472 C456 0.951 . S
H473 C458 0.951 . S
H474 C460 0.951 . S
H475 C461 0.950 . S
H476 C462 0.950 . S
H477 C463 0.950 . S
H478 C465 0.950 . S
H479 C466 0.951 . S
C480 C481 1.386 . S
C480 C482 1.383 . S
C480 H496 0.951 . S
C481 C480 1.386 . S
C481 C485 1.383 . S
C482 C480 1.383 . S
C482 C483 1.402 . S
C482 H497 0.951 . S
C483 C482 1.402 . S
C483 C484 1.375 . S
C483 C486 1.481 . S
C484 C483 1.375 . S
C484 C485 1.367 . S
C484 H498 0.951 . S
C485 C481 1.383 . S
C485 C484 1.367 . S
C485 H499 0.950 . S
C486 C483 1.481 . S
C486 C487 1.297 . S
C486 H500 0.950 . S
C487 C486 1.297 . S
C487 C488 1.479 . S
C487 H501 0.950 . S
C488 C487 1.479 . S
C488 C489 1.375 . S
C488 C494 1.404 . S
C489 C488 1.375 . S
C489 C490 1.369 . S
C489 H502 0.950 . S
C490 C489 1.369 . S
C490 C491 1.392 . S
C490 H503 0.951 . S
C491 C490 1.392 . S
C491 C493 1.384 . S
H492 C494 0.949 . S
C493 C491 1.384 . S
C493 C494 1.385 . S
C493 H495 0.950 . S
C494 C488 1.404 . S
C494 H492 0.949 . S
C494 C493 1.385 . S
H495 C493 0.950 . S
H496 C480 0.951 . S
H497 C482 0.951 . S
H498 C484 0.951 . S
H499 C485 0.950 . S
H500 C486 0.950 . S
H501 C487 0.950 . S
H502 C489 0.950 . S
H503 C490 0.951 . S
C504 C505 1.386 . S
C504 C506 1.383 . S
C504 H520 0.951 . S
C505 C504 1.386 . S
C505 C509 1.383 . S
C506 C504 1.383 . S
C506 C507 1.402 . S
C506 H521 0.951 . S
C507 C506 1.402 . S
C507 C508 1.375 . S
C507 C510 1.481 . S
C508 C507 1.375 . S
C508 C509 1.367 . S
C508 H522 0.951 . S
C509 C505 1.383 . S
C509 C508 1.367 . S
C509 H523 0.950 . S
C510 C507 1.481 . S
C510 C511 1.297 . S
C510 H524 0.950 . S
C511 C510 1.297 . S
C511 C512 1.479 . S
C511 H525 0.950 . S
C512 C511 1.479 . S
C512 C513 1.375 . S
C512 C518 1.404 . S
C513 C512 1.375 . S
C513 C514 1.369 . S
C513 H526 0.950 . S
C514 C513 1.369 . S
C514 C515 1.392 . S
C514 H527 0.951 . S
C515 C514 1.392 . S
C515 C517 1.384 . S
H516 C518 0.949 . S
C517 C515 1.384 . S
C517 C518 1.385 . S
C517 H519 0.950 . S
C518 C512 1.404 . S
C518 H516 0.949 . S
C518 C517 1.385 . S
H519 C517 0.950 . S
H520 C504 0.951 . S
H521 C506 0.951 . S
H522 C508 0.951 . S
H523 C509 0.950 . S
H524 C510 0.950 . S
H525 C511 0.950 . S
H526 C513 0.950 . S
H527 C514 0.951 . S
C528 C529 1.386 . S
C528 C530 1.383 . S
C528 H544 0.951 . S
C529 C528 1.386 . S
C529 C533 1.383 . S
C530 C528 1.383 . S
C530 C531 1.402 . S
C530 H545 0.951 . S
C531 C530 1.402 . S
C531 C532 1.375 . S
C531 C534 1.481 . S
C532 C531 1.375 . S
C532 C533 1.367 . S
C532 H546 0.951 . S
C533 C529 1.383 . S
C533 C532 1.367 . S
C533 H547 0.950 . S
C534 C531 1.481 . S
C534 C535 1.297 . S
C534 H548 0.950 . S
C535 C534 1.297 . S
C535 C536 1.479 . S
C535 H549 0.950 . S
C536 C535 1.479 . S
C536 C537 1.375 . S
C536 C542 1.404 . S
C537 C536 1.375 . S
C537 C538 1.369 . S
C537 H550 0.950 . S
C538 C537 1.369 . S
C538 C539 1.392 . S
C538 H551 0.951 . S
C539 C538 1.392 . S
C539 C541 1.384 . S
H540 C542 0.949 . S
C541 C539 1.384 . S
C541 C542 1.385 . S
C541 H543 0.950 . S
C542 C536 1.404 . S
C542 H540 0.949 . S
C542 C541 1.385 . S
H543 C541 0.950 . S
H544 C528 0.951 . S
H545 C530 0.951 . S
H546 C532 0.951 . S
H547 C533 0.950 . S
H548 C534 0.950 . S
H549 C535 0.950 . S
H550 C537 0.950 . S
H551 C538 0.951 . S
C552 C553 1.386 . S
C552 C554 1.383 . S
C552 H568 0.951 . S
C553 C552 1.386 . S
C553 C557 1.383 . S
C554 C552 1.383 . S
C554 C555 1.402 . S
C554 H569 0.951 . S
C555 C554 1.402 . S
C555 C556 1.375 . S
C555 C558 1.481 . S
C556 C555 1.375 . S
C556 C557 1.367 . S
C556 H570 0.951 . S
C557 C553 1.383 . S
C557 C556 1.367 . S
C557 H571 0.950 . S
C558 C555 1.481 . S
C558 C559 1.297 . S
C558 H572 0.950 . S
C559 C558 1.297 . S
C559 C560 1.479 . S
C559 H573 0.950 . S
C560 C559 1.479 . S
C560 C561 1.375 . S
C560 C566 1.404 . S
C561 C560 1.375 . S
C561 C562 1.369 . S
C561 H574 0.950 . S
C562 C561 1.369 . S
C562 C563 1.392 . S
C562 H575 0.951 . S
C563 C562 1.392 . S
C563 C565 1.384 . S
H564 C566 0.949 . S
C565 C563 1.384 . S
C565 C566 1.385 . S
C565 H567 0.950 . S
C566 C560 1.404 . S
C566 H564 0.949 . S
C566 C565 1.385 . S
H567 C565 0.950 . S
H568 C552 0.951 . S
H569 C554 0.951 . S
H570 C556 0.951 . S
H571 C557 0.950 . S
H572 C558 0.950 . S
H573 C559 0.950 . S
H574 C561 0.950 . S
H575 C562 0.951 . S
C576 C577 1.386 . S
C576 C578 1.383 . S
C576 H592 0.951 . S
C577 C576 1.386 . S
C577 C581 1.383 . S
C578 C576 1.383 . S
C578 C579 1.402 . S
C578 H593 0.951 . S
C579 C578 1.402 . S
C579 C580 1.375 . S
C579 C582 1.481 . S
C580 C579 1.375 . S
C580 C581 1.367 . S
C580 H594 0.951 . S
C581 C577 1.383 . S
C581 C580 1.367 . S
C581 H595 0.950 . S
C582 C579 1.481 . S
C582 C583 1.297 . S
C582 H596 0.950 . S
C583 C582 1.297 . S
C583 C584 1.479 . S
C583 H597 0.950 . S
C584 C583 1.479 . S
C584 C585 1.375 . S
C584 C590 1.404 . S
C585 C584 1.375 . S
C585 C586 1.369 . S
C585 H598 0.950 . S
C586 C585 1.369 . S
C586 C587 1.392 . S
C586 H599 0.951 . S
C587 C586 1.392 . S
C587 C589 1.384 . S
H588 C590 0.949 . S
C589 C587 1.384 . S
C589 C590 1.385 . S
C589 H591 0.950 . S
C590 C584 1.404 . S
C590 H588 0.949 . S
C590 C589 1.385 . S
H591 C589 0.950 . S
H592 C576 0.951 . S
H593 C578 0.951 . S
H594 C580 0.951 . S
H595 C581 0.950 . S
H596 C582 0.950 . S
H597 C583 0.950 . S
H598 C585 0.950 . S
H599 C586 0.951 . S
C600 C601 1.386 . S
C600 C602 1.383 . S
C600 H616 0.951 . S
C601 C600 1.386 . S
C601 C605 1.383 . S
C602 C600 1.383 . S
C602 C603 1.402 . S
C602 H617 0.951 . S
C603 C602 1.402 . S
C603 C604 1.375 . S
C603 C606 1.481 . S
C604 C603 1.375 . S
C604 C605 1.367 . S
C604 H618 0.951 . S
C605 C601 1.383 . S
C605 C604 1.367 . S
C605 H619 0.950 . S
C606 C603 1.481 . S
C606 C607 1.297 . S
C606 H620 0.950 . S
C607 C606 1.297 . S
C607 C608 1.479 . S
C607 H621 0.950 . S
C608 C607 1.479 . S
C608 C609 1.375 . S
C608 C614 1.404 . S
C609 C608 1.375 . S
C609 C610 1.369 . S
C609 H622 0.950 . S
C610 C609 1.369 . S
C610 C611 1.392 . S
C610 H623 0.951 . S
C611 C610 1.392 . S
C611 C613 1.384 . S
H612 C614 0.949 . S
C613 C611 1.384 . S
C613 C614 1.385 . S
C613 H615 0.950 . S
C614 C608 1.404 . S
C614 H612 0.949 . S
C614 C613 1.385 . S
H615 C613 0.950 . S
H616 C600 0.951 . S
H617 C602 0.951 . S
H618 C604 0.951 . S
H619 C605 0.950 . S
H620 C606 0.950 . S
H621 C607 0.950 . S
H622 C609 0.950 . S
H623 C610 0.951 . S
C624 C625 1.386 . S
C624 C626 1.383 . S
C624 H640 0.951 . S
C625 C624 1.386 . S
C625 C629 1.383 . S
C626 C624 1.383 . S
C626 C627 1.402 . S
C626 H641 0.951 . S
C627 C626 1.402 . S
C627 C628 1.375 . S
C627 C630 1.481 . S
C628 C627 1.375 . S
C628 C629 1.367 . S
C628 H642 0.951 . S
C629 C625 1.383 . S
C629 C628 1.367 . S
C629 H643 0.950 . S
C630 C627 1.481 . S
C630 C631 1.297 . S
C630 H644 0.950 . S
C631 C630 1.297 . S
C631 C632 1.479 . S
C631 H645 0.950 . S
C632 C631 1.479 . S
C632 C633 1.375 . S
C632 C638 1.404 . S
C633 C632 1.375 . S
C633 C634 1.369 . S
C633 H646 0.950 . S
C634 C633 1.369 . S
C634 C635 1.392 . S
C634 H647 0.951 . S
C635 C634 1.392 . S
C635 C637 1.384 . S
H636 C638 0.949 . S
C637 C635 1.384 . S
C637 C638 1.385 . S
C637 H639 0.950 . S
C638 C632 1.404 . S
C638 H636 0.949 . S
C638 C637 1.385 . S
H639 C637 0.950 . S
H640 C624 0.951 . S
H641 C626 0.951 . S
H642 C628 0.951 . S
H643 C629 0.950 . S
H644 C630 0.950 . S
H645 C631 0.950 . S
H646 C633 0.950 . S
H647 C634 0.951 . S
C648 C649 1.386 . S
C648 C650 1.383 . S
C648 H664 0.951 . S
C649 C648 1.386 . S
C649 C653 1.383 . S
C650 C648 1.383 . S
C650 C651 1.402 . S
C650 H665 0.951 . S
C651 C650 1.402 . S
C651 C652 1.375 . S
C651 C654 1.481 . S
C652 C651 1.375 . S
C652 C653 1.367 . S
C652 H666 0.951 . S
C653 C649 1.383 . S
C653 C652 1.367 . S
C653 H667 0.950 . S
C654 C651 1.481 . S
C654 C655 1.297 . S
C654 H668 0.950 . S
C655 C654 1.297 . S
C655 C656 1.479 . S
C655 H669 0.950 . S
C656 C655 1.479 . S
C656 C657 1.375 . S
C656 C662 1.404 . S
C657 C656 1.375 . S
C657 C658 1.369 . S
C657 H670 0.950 . S
C658 C657 1.369 . S
C658 C659 1.392 . S
C658 H671 0.951 . S
C659 C658 1.392 . S
C659 C661 1.384 . S
H660 C662 0.949 . S
C661 C659 1.384 . S
C661 C662 1.385 . S
C661 H663 0.950 . S
C662 C656 1.404 . S
C662 H660 0.949 . S
C662 C661 1.385 . S
H663 C661 0.950 . S
H664 C648 0.951 . S
H665 C650 0.951 . S
H666 C652 0.951 . S
H667 C653 0.950 . S
H668 C654 0.950 . S
H669 C655 0.950 . S
H670 C657 0.950 . S
H671 C658 0.951 . S
C241 C213 1.377 . S
C251 C2 1.364 . S
C265 C13 1.373 . S
C275 C42 1.379 . S
C289 C53 1.369 . S
C299 C82 1.374 . S
C313 C93 1.359 . S
C323 C122 1.321 . S
C337 C162 1.364 . S
C347 C133 1.358 . S
C361 C202 1.330 . S
C371 C173 1.348 . S
C385 C17 1.284 . S
C395 C26 1.186 . S
C409 C57 1.253 1_556 S
C419 C66 1.210 . S
C433 C97 1.296 . S
C443 C106 1.267 1_554 S
C457 C137 1.226 . S
C467 C146 1.319 . S
C481 C186 1.295 . S
C491 C177 1.189 1_556 S
C505 C217 1.231 . S
C515 C226 1.325 1_554 S
C529 C23 1.595 . S
C539 C184 1.574 . S
C553 C63 1.599 . S
C563 C224 1.578 . S
C577 C24 1.596 . S
C587 C103 1.595 . S
C601 C64 1.573 . S
C611 C143 1.576 . S
C625 C183 1.592 . S
C635 C104 1.564 . S
C649 C144 1.581 . S
C659 C223 1.587 . S
