# Generated by pormake.
# Topology fna, (5)-cn, num edge types: 1
# Building blocks:
#     Node 0, Type 0, BuildingBlock: XOMCOT_clean_sbu_1, # of connection points: 5
#     Node 1, Type 0, BuildingBlock: XOMCOT_clean_sbu_1, # of connection points: 5
#     Node 2, Type 0, BuildingBlock: XOMCOT_clean_sbu_1, # of connection points: 5
#     Node 3, Type 0, BuildingBlock: XOMCOT_clean_sbu_1, # of connection points: 5
#     Node 4, Type 0, BuildingBlock: XOMCOT_clean_sbu_1, # of connection points: 5
#     Node 5, Type 0, BuildingBlock: XOMCOT_clean_sbu_1, # of connection points: 5
#     Node 6, Type 0, BuildingBlock: XOMCOT_clean_sbu_1, # of connection points: 5
#     Node 7, Type 0, BuildingBlock: XOMCOT_clean_sbu_1, # of connection points: 5
#     Node 8, Type 0, BuildingBlock: XOMCOT_clean_sbu_1, # of connection points: 5
#     Node 9, Type 0, BuildingBlock: XOMCOT_clean_sbu_1, # of connection points: 5
#     Node 10, Type 0, BuildingBlock: XOMCOT_clean_sbu_1, # of connection points: 5
#     Node 11, Type 0, BuildingBlock: XOMCOT_clean_sbu_1, # of connection points: 5
#     Edge 12, Type (0, 0), BuildingBlock: OJICUG_clean_linker_0, # of connection points: 2
#     Edge 13, Type (0, 0), BuildingBlock: OJICUG_clean_linker_0, # of connection points: 2
#     Edge 14, Type (0, 0), BuildingBlock: OJICUG_clean_linker_0, # of connection points: 2
#     Edge 15, Type (0, 0), BuildingBlock: OJICUG_clean_linker_0, # of connection points: 2
#     Edge 16, Type (0, 0), BuildingBlock: OJICUG_clean_linker_0, # of connection points: 2
#     Edge 17, Type (0, 0), BuildingBlock: OJICUG_clean_linker_0, # of connection points: 2
#     Edge 18, Type (0, 0), BuildingBlock: OJICUG_clean_linker_0, # of connection points: 2
#     Edge 19, Type (0, 0), BuildingBlock: OJICUG_clean_linker_0, # of connection points: 2
#     Edge 20, Type (0, 0), BuildingBlock: OJICUG_clean_linker_0, # of connection points: 2
#     Edge 21, Type (0, 0), BuildingBlock: OJICUG_clean_linker_0, # of connection points: 2
#     Edge 22, Type (0, 0), BuildingBlock: OJICUG_clean_linker_0, # of connection points: 2
#     Edge 23, Type (0, 0), BuildingBlock: OJICUG_clean_linker_0, # of connection points: 2
#     Edge 24, Type (0, 0), BuildingBlock: OJICUG_clean_linker_0, # of connection points: 2
#     Edge 25, Type (0, 0), BuildingBlock: OJICUG_clean_linker_0, # of connection points: 2
#     Edge 26, Type (0, 0), BuildingBlock: OJICUG_clean_linker_0, # of connection points: 2
#     Edge 27, Type (0, 0), BuildingBlock: OJICUG_clean_linker_0, # of connection points: 2
#     Edge 28, Type (0, 0), BuildingBlock: OJICUG_clean_linker_0, # of connection points: 2
#     Edge 29, Type (0, 0), BuildingBlock: OJICUG_clean_linker_0, # of connection points: 2
#     Edge 30, Type (0, 0), BuildingBlock: OJICUG_clean_linker_0, # of connection points: 2
#     Edge 31, Type (0, 0), BuildingBlock: OJICUG_clean_linker_0, # of connection points: 2
#     Edge 32, Type (0, 0), BuildingBlock: OJICUG_clean_linker_0, # of connection points: 2
#     Edge 33, Type (0, 0), BuildingBlock: OJICUG_clean_linker_0, # of connection points: 2
#     Edge 34, Type (0, 0), BuildingBlock: OJICUG_clean_linker_0, # of connection points: 2
#     Edge 35, Type (0, 0), BuildingBlock: OJICUG_clean_linker_0, # of connection points: 2
#     Edge 36, Type (0, 0), BuildingBlock: OJICUG_clean_linker_0, # of connection points: 2
#     Edge 37, Type (0, 0), BuildingBlock: OJICUG_clean_linker_0, # of connection points: 2
#     Edge 38, Type (0, 0), BuildingBlock: OJICUG_clean_linker_0, # of connection points: 2
#     Edge 39, Type (0, 0), BuildingBlock: OJICUG_clean_linker_0, # of connection points: 2
#     Edge 40, Type (0, 0), BuildingBlock: OJICUG_clean_linker_0, # of connection points: 2
#     Edge 41, Type (0, 0), BuildingBlock: OJICUG_clean_linker_0, # of connection points: 2
# Relax obj value: 0.388
# Max RMSD: 0.210
# Mean RMSD: 0.210
data_MOF--net-fna--node1-XOMCOT_clean_sbu_1--edge1-OJICUG_clean_linker_0
_symmetry_space_group_name_H-M    P1
_symmetry_Int_Tables_number       1
_symmetry_cell_setting            triclinic
loop_
_symmetry_equiv_pos_as_xyz
'x, y, z'
_cell_length_a     34.708458
_cell_length_b     34.671685
_cell_length_c     32.776148
_cell_angle_alpha  89.9836
_cell_angle_beta   89.974337
_cell_angle_gamma 120.03731
loop_
_atom_site_label
_atom_site_type_symbol
_atom_site_fract_x
_atom_site_fract_y
_atom_site_fract_z
_atom_type_partial_charge
C0 C 0.42431 0.35643 0.52014 0.0
C1 C 0.432 0.3726 0.55931 0.0
N2 N 0.39248 0.35614 0.57848 0.0
N3 N 0.38015 0.3302 0.51454 0.0
C4 C 0.36158 0.33039 0.5506 0.0
H5 H 0.44928 0.36268 0.49731 0.0
Co6 Co 0.35437 0.29834 0.46732 0.0
C7 C 0.27219 0.30637 0.46108 0.0
O8 O 0.28202 0.32194 0.42378 0.0
N9 N 0.32973 0.2648 0.41872 0.0
C10 C 0.31141 0.24471 0.35377 0.0
C11 C 0.32191 0.27766 0.38214 0.0
C12 C 0.32407 0.22379 0.41121 0.0
N13 N 0.31312 0.21086 0.37203 0.0
O14 O 0.33396 0.24486 0.49833 0.0
H15 H 0.32706 0.31031 0.37506 0.0
H16 H 0.33111 0.20491 0.43313 0.0
O17 O 0.29831 0.29685 0.48046 0.0
C18 C 0.36566 0.23767 0.50654 0.0
O19 O 0.40393 0.26189 0.4878 0.0
N20 N 0.37835 0.35282 0.439 0.0
C21 C 0.44148 0.44001 0.41826 0.0
C22 C 0.40568 0.43148 0.44375 0.0
C23 C 0.37428 0.38755 0.45369 0.0
C24 C 0.41168 0.36053 0.41238 0.0
C25 C 0.44319 0.40393 0.40099 0.0
H26 H 0.34994 0.38202 0.47689 0.0
H27 H 0.41622 0.33322 0.40278 0.0
H28 H 0.32617 0.31168 0.55632 0.0
H29 H 0.46431 0.39376 0.57287 0.0
H30 H 0.30524 0.24665 0.32169 0.0
H31 H 0.40372 0.4586 0.45807 0.0
H32 H 0.4709 0.40931 0.38183 0.0
C33 C 0.08769 0.41724 0.68725 0.0
C34 C 0.07935 0.4248 0.72652 0.0
N35 N 0.05729 0.38526 0.74591 0.0
N36 N 0.07065 0.37314 0.6818 0.0
C37 C 0.05257 0.35449 0.71805 0.0
H38 H 0.10577 0.4423 0.66426 0.0
Co39 Co 0.07711 0.34742 0.63468 0.0
C40 C 0.98738 0.26423 0.62899 0.0
O41 O 0.98108 0.27375 0.59177 0.0
N42 N 0.08629 0.32277 0.58622 0.0
C43 C 0.08728 0.30322 0.52156 0.0
C44 C 0.0651 0.31408 0.54986 0.0
C45 C 0.12175 0.31741 0.57861 0.0
N46 N 0.12326 0.30568 0.53957 0.0
O47 O 0.11092 0.32805 0.6658 0.0
H48 H 0.0373 0.31869 0.54287 0.0
H49 H 0.14792 0.32501 0.60038 0.0
O50 O 1.02303 0.29086 0.64812 0.0
C51 C 0.14936 0.36047 0.67427 0.0
O52 O 0.16282 0.39857 0.65537 0.0
N53 N 0.04592 0.37046 0.60623 0.0
C54 C 1.02092 0.43276 0.58528 0.0
C55 C 0.99399 0.39694 0.61095 0.0
C56 C 1.00698 0.36595 0.62099 0.0
C57 C 0.07117 0.40375 0.5794 0.0
C58 C 0.05881 0.43484 0.56789 0.0
H59 H 0.98844 0.34164 0.64433 0.0
H60 H 0.10312 0.40864 0.56973 0.0
H61 H 0.03673 0.31912 0.72392 0.0
H62 H 0.08996 0.45707 0.74 0.0
H63 H 0.07856 0.29613 0.48967 0.0
H64 H 0.96483 0.3947 0.62535 0.0
H65 H 0.08088 0.46258 0.54859 0.0
C66 C 0.6929 0.07968 0.85436 0.0
C67 C 0.67664 0.07109 0.89354 0.0
N68 N 0.6929 0.0478 0.91262 0.0
N69 N 0.7189 0.0615 0.84865 0.0
C70 C 0.71851 0.04255 0.88467 0.0
H71 H 0.68695 0.09873 0.83164 0.0
Co72 Co 0.75176 0.06783 0.80191 0.0
C73 C 0.73804 0.97495 0.79599 0.0
O74 O 0.71901 0.96802 0.76013 0.0
N75 N 0.78643 0.07669 0.75419 0.0
C76 C 0.80857 0.07663 0.69032 0.0
C77 C 0.77522 0.05432 0.71837 0.0
C78 C 0.82681 0.11286 0.74656 0.0
N79 N 0.841 0.11375 0.70799 0.0
O80 O 0.8045 0.09931 0.83417 0.0
H81 H 0.74329 0.0259 0.71128 0.0
H82 H 0.84428 0.13988 0.76786 0.0
O83 O 0.75107 1.01195 0.8144 0.0
C84 C 0.81128 0.13813 0.84227 0.0
O85 O 0.78777 0.15231 0.82249 0.0
N86 N 0.69821 0.03966 0.77205 0.0
C87 C 0.61378 0.0239 0.75013 0.0
C88 C 0.61855 0.9941 0.77576 0.0
C89 C 0.66114 1.00257 0.78637 0.0
C90 C 0.69413 0.06675 0.74441 0.0
C91 C 0.65229 0.05889 0.73234 0.0
H92 H 0.66404 0.9825 0.81007 0.0
H93 H 0.72333 0.09711 0.73462 0.0
H94 H 0.73717 0.02579 0.89037 0.0
H95 H 0.65568 0.08242 0.90724 0.0
H96 H 0.80781 0.06725 0.65872 0.0
H97 H 0.59001 0.96698 0.79069 0.0
H98 H 0.65036 0.08222 0.71165 0.0
C99 C 0.63176 0.68104 0.02035 0.0
C100 C 0.62411 0.66488 0.05954 0.0
N101 N 0.66361 0.68169 0.07876 0.0
N102 N 0.67589 0.70762 0.01478 0.0
C103 C 0.69446 0.70762 0.05089 0.0
H104 H 0.60677 0.67459 -0.00249 0.0
Co105 Co 0.70163 0.73982 0.96764 0.0
C106 C 0.78393 0.73196 0.9612 0.0
O107 O 0.77414 0.71643 0.92391 0.0
N108 N 0.72622 0.77369 0.91917 0.0
C109 C 0.74475 0.7942 0.85431 0.0
C110 C 0.73439 0.76116 0.88257 0.0
C111 C 0.7315 0.81457 0.91177 0.0
N112 N 0.74258 0.82777 0.87265 0.0
O113 O 0.72185 0.79312 -0.00111 0.0
H114 H 0.72954 0.72866 0.87539 0.0
H115 H 0.72412 0.83315 0.93374 0.0
O116 O 0.75777 0.74141 0.98061 0.0
C117 C 0.68991 0.79977 0.00755 0.0
O118 O 0.6516 0.77539 0.98897 0.0
N119 N 0.67781 0.68554 0.93906 0.0
C120 C 0.61478 0.59845 0.91801 0.0
C121 C 0.65052 0.60686 0.94347 0.0
C122 C 0.68188 0.65073 0.95357 0.0
C123 C 0.64455 0.67797 0.91244 0.0
C124 C 0.6131 0.63463 0.90089 0.0
H125 H 0.70617 0.65615 0.97675 0.0
H126 H 0.64001 0.70532 0.90298 0.0
H127 H 0.72985 0.72667 0.05664 0.0
H128 H 0.59181 0.64351 0.07309 0.0
H129 H 0.75114 0.79251 0.82223 0.0
H130 H 0.65247 0.57966 0.95767 0.0
H131 H 0.58543 0.62935 0.88176 0.0
C132 C 0.96791 0.6207 0.18753 0.0
C133 C 0.97628 0.61318 0.2268 0.0
N134 N 0.99838 0.65275 0.2461 0.0
N135 N 0.98498 0.6648 0.18199 0.0
C136 C 1.00309 0.68349 0.21819 0.0
H137 H 0.94982 0.59562 0.16459 0.0
Co138 Co 0.97862 0.69054 0.13482 0.0
C139 C 0.06841 0.77367 0.12909 0.0
O140 O 0.07477 0.76414 0.09189 0.0
N141 N 0.96954 0.7152 0.08633 0.0
C142 C 0.96867 0.73481 0.02166 0.0
C143 C 0.99078 0.72389 0.04998 0.0
C144 C 0.93412 0.72063 0.0787 0.0
N145 N 0.93269 0.7324 0.03966 0.0
O146 O 0.94483 0.70998 0.1659 0.0
H147 H 1.01857 0.71925 0.043 0.0
H148 H 0.90793 0.71305 0.10048 0.0
O149 O 0.03271 0.74706 0.14822 0.0
C150 C 0.90635 0.67763 0.17443 0.0
O151 O 0.89282 0.63948 0.15561 0.0
N152 N 1.0098 0.66744 0.10643 0.0
C153 C 0.03478 0.60509 0.08558 0.0
C154 C 0.06168 0.64089 0.11122 0.0
C155 C 0.0487 0.67191 0.12121 0.0
C156 C 0.98457 0.63415 0.07963 0.0
C157 C 0.99692 0.60304 0.06817 0.0
H158 H 0.06721 0.69621 0.14454 0.0
H159 H 0.95265 0.62928 0.06994 0.0
H160 H 1.01898 0.71887 0.22398 0.0
H161 H 0.96569 0.58093 0.24035 0.0
H162 H 0.97746 0.74194 0.98977 0.0
H163 H 0.09081 0.64312 0.12564 0.0
H164 H 0.97487 0.57531 0.04889 0.0
C165 C 0.36299 0.95926 0.35388 0.0
C166 C 0.37923 0.96781 0.39304 0.0
N167 N 0.36288 0.99098 0.41219 0.0
N168 N 0.33689 0.97734 0.34824 0.0
C169 C 0.33722 0.99621 0.38429 0.0
H170 H 0.36897 0.94026 0.33113 0.0
Co171 Co 0.30388 0.9708 0.30156 0.0
C172 C 0.31754 0.06366 0.29541 0.0
O173 O 0.33668 0.07062 0.25958 0.0
N174 N 0.26908 0.96172 0.25394 0.0
C175 C 0.24674 0.96162 0.19014 0.0
C176 C 0.2801 0.9841 0.21811 0.0
C177 C 0.22881 0.92537 0.24641 0.0
N178 N 0.21451 0.92439 0.20788 0.0
O179 O 0.25122 0.93936 0.33401 0.0
H180 H 0.31192 1.01264 0.21093 0.0
H181 H 0.21154 0.89831 0.26775 0.0
O182 O 0.30451 0.02666 0.31388 0.0
C183 C 0.24468 0.90068 0.3424 0.0
O184 O 0.26825 0.8865 0.32272 0.0
N185 N 0.35735 0.99894 0.2715 0.0
C186 C 0.44174 1.01466 0.24936 0.0
C187 C 0.43702 0.04449 0.27497 0.0
C188 C 0.39446 0.03604 0.28569 0.0
C189 C 0.36137 0.97183 0.24385 0.0
C190 C 0.40319 0.97967 0.23166 0.0
H191 H 0.39161 0.05615 0.30938 0.0
H192 H 0.33216 0.94146 0.23415 0.0
H193 H 0.31845 1.01284 0.39004 0.0
H194 H 0.40021 0.95648 0.40669 0.0
H195 H 0.24738 0.97098 0.15855 0.0
H196 H 0.46559 0.07162 0.28983 0.0
H197 H 0.40507 0.95632 0.21099 0.0
C198 C 0.68962 0.62098 0.30366 0.0
C199 C 0.67374 0.61343 0.2644 0.0
N200 N 0.6912 0.65298 0.24503 0.0
N201 N 0.71665 0.66508 0.30913 0.0
C202 C 0.71721 0.68374 0.2729 0.0
H203 H 0.68266 0.59592 0.32663 0.0
Co204 Co 0.74881 0.6908 0.35625 0.0
C205 C 0.74218 0.77394 0.36199 0.0
O206 O 0.7263 0.76438 0.39919 0.0
N207 N 0.7826 0.71544 0.40469 0.0
C208 C 0.80312 0.73498 0.46935 0.0
C209 C 0.7701 0.72414 0.44106 0.0
C210 C 0.82343 0.72079 0.41228 0.0
N211 N 0.83665 0.73252 0.45132 0.0
O212 O 0.802 0.71021 0.32509 0.0
H213 H 0.73768 0.71952 0.44807 0.0
H214 H 0.84199 0.71318 0.3905 0.0
O215 O 0.75125 0.74734 0.34284 0.0
C216 C 0.80805 0.67782 0.3166 0.0
O217 O 0.78342 0.6397 0.33551 0.0
N218 N 0.69456 0.66771 0.38472 0.0
C219 C 0.60726 0.6053 0.40565 0.0
C220 C 0.61613 0.64113 0.38001 0.0
C221 C 0.66011 0.67217 0.36998 0.0
C222 C 0.68654 0.63442 0.41153 0.0
C223 C 0.64309 0.60327 0.42302 0.0
H224 H 0.66588 0.69649 0.34665 0.0
H225 H 0.71361 0.62956 0.42119 0.0
H226 H 0.73671 0.71912 0.26704 0.0
H227 H 0.6521 0.58116 0.2509 0.0
H228 H 0.80148 0.74208 0.50124 0.0
H229 H 0.58921 0.64334 0.36562 0.0
H230 H 0.63745 0.57553 0.4423 0.0
C231 C 0.08656 0.68131 0.47051 0.0
C232 C 0.07808 0.66518 0.43134 0.0
N233 N 0.05516 0.68179 0.41217 0.0
N234 N 0.06877 0.70766 0.47614 0.0
C235 C 0.05009 0.70758 0.44007 0.0
H236 H 0.1052 0.67496 0.49333 0.0
Co237 Co 0.07496 0.73959 0.52336 0.0
C238 C 0.98478 0.73164 0.5297 0.0
O239 O 0.979 0.71602 0.56698 0.0
N240 N 0.08397 0.77318 0.57194 0.0
C241 C 0.08575 0.79333 0.63687 0.0
C242 C 0.06324 0.76038 0.60852 0.0
C243 C 0.11939 0.81413 0.57943 0.0
N244 N 0.12139 0.82711 0.61861 0.0
O245 O 0.10807 0.79304 0.49229 0.0
H246 H 0.03568 0.72778 0.61561 0.0
H247 H 0.14535 0.83294 0.55751 0.0
O248 O 1.02042 0.74115 0.51031 0.0
C249 C 0.14685 0.80003 0.48389 0.0
O250 O 0.16084 0.77573 0.50255 0.0
N251 N 0.04444 0.68515 0.55173 0.0
C252 C 1.02031 0.59796 0.57255 0.0
C253 C 0.99305 0.60648 0.54708 0.0
C254 C 1.00561 0.65041 0.5371 0.0
C255 C 0.07005 0.67744 0.57834 0.0
C256 C 0.05812 0.63405 0.58978 0.0
H257 H 0.9868 0.65593 0.51391 0.0
H258 H 0.10192 0.70475 0.58789 0.0
H259 H 0.03352 0.72641 0.43437 0.0
H260 H 0.08914 0.64395 0.41775 0.0
H261 H 0.07763 0.79143 0.66896 0.0
H262 H 0.96395 0.57936 0.5328 0.0
H263 H 0.08045 0.62868 0.60892 0.0
C264 C 0.42272 0.07866 0.63687 0.0
C265 C 0.43043 0.07013 0.5977 0.0
N266 N 0.39092 0.04701 0.57855 0.0
N267 N 0.37855 0.06062 0.64252 0.0
C268 C 0.36003 0.04179 0.60647 0.0
H269 H 0.4477 0.09764 0.65962 0.0
Co270 Co 0.35203 0.06722 0.68917 0.0
C271 C 0.27292 0.97425 0.69532 0.0
O272 O 0.28513 0.96725 0.73111 0.0
N273 N 0.32626 0.07637 0.73673 0.0
C274 C 0.30383 0.07649 0.80046 0.0
C275 C 0.31466 0.05393 0.77252 0.0
C276 C 0.32254 0.11283 0.74424 0.0
N277 N 0.30911 0.11383 0.78273 0.0
O278 O 0.33074 0.09853 0.65664 0.0
H279 H 0.31774 0.02528 0.77971 0.0
H280 H 0.33254 0.13995 0.72292 0.0
O281 O 0.29684 1.0113 0.67691 0.0
C282 C 0.36287 0.13714 0.64801 0.0
O283 O 0.40071 0.15144 0.66754 0.0
N284 N 0.37739 0.0392 0.71933 0.0
C285 C 0.44607 0.02362 0.7417 0.0
C286 C 0.41163 0.99376 0.71603 0.0
C287 C 0.37752 1.00214 0.70519 0.0
C288 C 0.40841 0.06635 0.74703 0.0
C289 C 0.44239 0.05858 0.75933 0.0
H290 H 0.35465 0.982 0.68147 0.0
H291 H 0.40948 0.09669 0.75669 0.0
H292 H 0.32463 0.02522 0.60071 0.0
H293 H 0.46274 0.08143 0.58404 0.0
H294 H 0.29496 0.06711 0.83204 0.0
H295 H 0.41317 0.96666 0.70122 0.0
H296 H 0.46753 0.08195 0.78005 0.0
C297 C 0.36653 0.41765 0.80308 0.0
C298 C 0.38239 0.42511 0.76379 0.0
N299 N 0.36485 0.38552 0.74452 0.0
N300 N 0.33945 0.37356 0.80866 0.0
C301 C 0.33882 0.35483 0.77247 0.0
H302 H 0.37356 0.44275 0.82601 0.0
Co303 Co 0.30734 0.34784 0.85584 0.0
C304 C 0.31405 0.26473 0.86154 0.0
O305 O 0.32999 0.27428 0.8987 0.0
N306 N 0.27359 0.32319 0.90435 0.0
C307 C 0.25309 0.30353 0.96902 0.0
C308 C 0.28611 0.31445 0.94068 0.0
C309 C 0.23276 0.3178 0.91202 0.0
N310 N 0.21954 0.306 0.95107 0.0
O311 O 0.25411 0.32839 0.82479 0.0
H312 H 0.31854 0.31905 0.94762 0.0
H313 H 0.21417 0.32541 0.89028 0.0
O314 O 0.30492 0.29132 0.84245 0.0
C315 C 0.24799 0.36073 0.81627 0.0
O316 O 0.27262 0.39889 0.83506 0.0
N317 N 0.36162 0.37097 0.88421 0.0
C318 C 0.44891 0.43332 0.9051 0.0
C319 C 0.44005 0.39755 0.87942 0.0
C320 C 0.39607 0.36653 0.86941 0.0
C321 C 0.36963 0.40422 0.91104 0.0
C322 C 0.41308 0.43534 0.92251 0.0
H323 H 0.39031 0.34225 0.84607 0.0
H324 H 0.34256 0.40906 0.92075 0.0
H325 H 0.31928 0.31945 0.7667 0.0
H326 H 0.40409 0.45734 0.75021 0.0
H327 H 0.25474 0.29638 0.0009 0.0
H328 H 0.46698 0.39536 0.86499 0.0
H329 H 0.41872 0.46304 0.94183 0.0
C330 C 0.96993 0.3573 0.9707 0.0
C331 C 0.9784 0.37343 0.93151 0.0
N332 N 1.0011 0.35663 0.91225 0.0
N333 N 0.9875 0.33074 0.97624 0.0
C334 C 1.00605 0.33072 0.94011 0.0
H335 H 0.9514 0.36375 0.99357 0.0
Co336 Co 0.98108 0.29858 0.02339 0.0
C337 C 0.07124 0.30644 0.02971 0.0
O338 O 0.077 0.32197 0.06701 0.0
N339 N 0.97185 0.26474 0.07188 0.0
C340 C 0.96991 0.24429 0.13674 0.0
C341 C 0.99256 0.27731 0.10845 0.0
C342 C 0.93628 0.22385 0.07931 0.0
N343 N 0.93419 0.21069 0.11844 0.0
O344 O 0.94799 0.24526 0.99219 0.0
H345 H 1.0202 0.30983 0.1156 0.0
H346 H 0.91031 0.20524 0.05737 0.0
O347 O 0.03562 0.29699 0.01034 0.0
C348 C 0.90937 0.2386 0.98361 0.0
O349 O 0.89547 0.26298 0.00224 0.0
N350 N 1.01157 0.35288 0.05193 0.0
C351 C 0.0356 0.43999 0.07288 0.0
C352 C 0.06295 0.43156 0.04741 0.0
C353 C 0.05044 0.38768 0.03737 0.0
C354 C 0.9859 0.36048 0.07856 0.0
C355 C 0.99777 0.40383 0.09006 0.0
H356 H 0.06931 0.38224 0.01416 0.0
H357 H 0.95401 0.33313 0.08807 0.0
H358 H 1.0224 0.31169 0.93433 0.0
H359 H 0.96745 0.39478 0.91797 0.0
H360 H 0.978 0.24601 0.16881 0.0
H361 H 0.09207 0.45875 0.03316 0.0
H362 H 0.97538 0.40913 0.10921 0.0
C363 C 0.63259 0.95888 0.137 0.0
C364 C 0.62491 0.96751 0.09785 0.0
N365 N 0.66445 0.99079 0.07873 0.0
N366 N 0.67676 0.97702 0.14265 0.0
C367 C 0.69532 0.99599 0.10663 0.0
H368 H 0.60759 0.93983 0.15975 0.0
Co369 Co 0.7033 0.97064 0.18934 0.0
C370 C 0.78252 0.0635 0.19523 0.0
O371 O 0.77043 0.07042 0.23112 0.0
N372 N 0.7291 0.96173 0.23701 0.0
C373 C 0.75131 0.96172 0.30085 0.0
C374 C 0.74031 0.98408 0.27283 0.0
C375 C 0.73325 0.92551 0.2446 0.0
N376 N 0.74654 0.92458 0.28314 0.0
O377 O 0.72451 0.93914 0.15701 0.0
H378 H 0.73686 1.01253 0.27997 0.0
H379 H 0.72364 0.89849 0.22328 0.0
O380 O 0.75851 0.0265 0.17682 0.0
C381 C 0.69243 0.90033 0.14892 0.0
O382 O 0.65475 0.88618 0.16874 0.0
N383 N 0.67799 0.99885 0.21928 0.0
C384 C 0.6093 1.0146 0.24125 0.0
C385 C 0.64389 0.0444 0.21562 0.0
C386 C 0.678 0.03594 0.20498 0.0
C387 C 0.64681 0.97176 0.24694 0.0
C388 C 0.61282 0.97962 0.25904 0.0
H389 H 0.70099 0.05602 0.18128 0.0
H390 H 0.64564 0.94139 0.25672 0.0
H391 H 0.73074 1.01273 0.10089 0.0
H392 H 0.59262 0.95622 0.0842 0.0
H393 H 0.75994 0.97108 0.33245 0.0
H394 H 0.64247 0.07153 0.20069 0.0
H395 H 0.58756 0.95628 0.27974 0.0
C396 C 0.32172 0.15608 0.59548 0.0
C397 C 0.36171 0.16172 0.6117 0.0
H398 H 0.29138 0.17624 0.54924 0.0
C399 C 0.40194 0.1905 0.59195 0.0
H400 H 0.29022 0.13378 0.61001 0.0
C401 C 0.40252 0.21356 0.55706 0.0
C402 C 0.36295 0.20918 0.54126 0.0
H403 H 0.43329 0.19502 0.6032 0.0
H404 H 0.4344 0.23573 0.54307 0.0
C405 C 0.32239 0.18014 0.56071 0.0
C406 C 0.2065 0.39911 0.72779 0.0
C407 C 0.17466 0.35888 0.70986 0.0
H408 H 0.25341 0.431 0.77558 0.0
C409 C 0.16599 0.31844 0.7278 0.0
H410 H 0.21368 0.4309 0.71513 0.0
C411 C 0.18943 0.3185 0.76276 0.0
C412 C 0.22097 0.35901 0.78073 0.0
H413 H 0.14137 0.28693 0.71473 0.0
H414 H 0.1828 0.28704 0.77577 0.0
C415 C 0.22901 0.39917 0.76288 0.0
C416 C 0.82959 0.19568 0.89526 0.0
C417 C 0.83786 0.1635 0.87796 0.0
H418 H 0.84475 0.24344 0.94229 0.0
C419 C 0.86946 0.15497 0.89634 0.0
H420 H 0.80511 0.20276 0.88224 0.0
C421 C 0.8929 0.17902 0.93107 0.0
C422 C 0.8841 0.21097 0.94835 0.0
H423 H 0.87625 0.13011 0.88373 0.0
H424 H 0.91764 0.17254 0.94444 0.0
C425 C 0.85206 0.21875 0.93012 0.0
C426 C 0.73307 0.8594 0.06002 0.0
C427 C 0.6923 0.82741 0.04282 0.0
H428 H 0.76538 0.90837 0.1073 0.0
C429 C 0.65249 0.8196 0.06115 0.0
H430 H 0.76427 0.86589 0.04658 0.0
C431 C 0.65313 0.8427 0.09601 0.0
C432 C 0.6936 0.87493 0.11323 0.0
H433 H 0.62048 0.79488 0.04904 0.0
H434 H 0.62158 0.8356 0.1091 0.0
C435 C 0.73371 0.88347 0.09476 0.0
C436 C 0.89002 0.71983 0.228 0.0
C437 C 0.88108 0.67933 0.21002 0.0
H438 H 0.87353 0.75138 0.27608 0.0
C439 C 0.849 0.63916 0.2279 0.0
H440 H 0.91481 0.7513 0.21496 0.0
C441 C 0.82657 0.6392 0.26304 0.0
C442 C 0.83493 0.67942 0.28097 0.0
H443 H 0.84159 0.60733 0.21519 0.0
H444 H 0.802 0.60741 0.27572 0.0
C445 C 0.86666 0.71987 0.263 0.0
C446 C 0.22886 0.84555 0.39721 0.0
C447 C 0.21863 0.87573 0.37849 0.0
H448 H 0.21519 0.79926 0.44532 0.0
C449 C 0.18536 0.88253 0.39564 0.0
H450 H 0.25477 0.84001 0.38521 0.0
C451 C 0.16197 0.85844 0.43042 0.0
C452 C 0.17244 0.82821 0.44895 0.0
H453 H 0.17708 0.90588 0.38192 0.0
H454 H 0.13578 0.86338 0.4427 0.0
C455 C 0.2064 0.82246 0.4321 0.0
C456 C 0.32364 0.17478 0.3113 0.0
C457 C 0.31146 0.17268 0.3525 0.0
H458 H 0.33511 0.14241 0.26127 0.0
C459 C 0.2996 0.13346 0.37459 0.0
H460 H 0.33359 0.20454 0.29343 0.0
C461 C 0.30059 0.09751 0.35603 0.0
C462 C 0.31381 0.10021 0.31507 0.0
H463 H 0.28966 0.13059 0.40626 0.0
H464 H 0.29168 0.06797 0.37396 0.0
C465 C 0.32488 0.13913 0.2929 0.0
C466 C 0.20387 0.31323 0.45911 0.0
C467 C 0.23266 0.30364 0.48139 0.0
H468 H 0.14723 0.32184 0.4599 0.0
C469 C 0.22386 0.29299 0.52303 0.0
H470 H 0.2095 0.32154 0.42698 0.0
C471 C 0.18764 0.29298 0.54206 0.0
C472 C 0.1593 0.30335 0.5198 0.0
H473 H 0.24523 0.28525 0.54108 0.0
H474 H 0.18185 0.28489 0.57419 0.0
C475 C 0.16774 0.31306 0.478 0.0
C476 C 0.87786 0.15774 0.64611 0.0
C477 C 0.87901 0.15016 0.68811 0.0
H478 H 0.91078 0.19924 0.5948 0.0
C479 C 0.91715 0.17972 0.71046 0.0
H480 H 0.84894 0.1362 0.62795 0.0
C481 C 0.95293 0.21632 0.69131 0.0
C482 C 0.95116 0.2243 0.64945 0.0
H483 H 0.91931 0.1746 0.74276 0.0
H484 H 0.98161 0.23865 0.70942 0.0
C485 C 0.91336 0.19428 0.6271 0.0
C486 C 0.75467 0.94096 0.85674 0.0
C487 C 0.74169 0.93837 0.81572 0.0
H488 H 0.76543 0.90779 0.90701 0.0
C489 C 0.73081 0.89953 0.79353 0.0
H490 H 0.76342 0.97044 0.87469 0.0
C491 C 0.73206 0.86388 0.81195 0.0
C492 C 0.74405 0.86589 0.85317 0.0
H493 H 0.72075 0.89632 0.76186 0.0
H494 H 0.7223 0.8342 0.79403 0.0
C495 C 0.75565 0.90501 0.87531 0.0
C496 C 0.83218 0.74523 0.02314 0.0
C497 C 0.82346 0.73468 0.98149 0.0
H498 H 0.87408 0.75318 0.0743 0.0
C499 C 0.85229 0.72515 0.95919 0.0
H500 H 0.81077 0.75293 0.0412 0.0
C501 C 0.88836 0.72525 0.97808 0.0
C502 C 0.89672 0.73483 0.01989 0.0
H503 H 0.84671 0.71692 0.92705 0.0
H504 H 0.90891 0.7165 0.95996 0.0
C505 C 0.86836 0.74517 0.04216 0.0
C506 C 0.17779 0.8803 0.14609 0.0
C507 C 0.1766 0.88786 0.18808 0.0
H508 H 0.14496 0.83877 0.09483 0.0
C509 C 0.13851 0.85821 0.21048 0.0
H510 H 0.20668 0.9019 0.12789 0.0
C511 C 0.10278 0.82156 0.19138 0.0
C512 C 0.10458 0.81362 0.14952 0.0
H513 H 0.13633 0.86331 0.24279 0.0
H514 H 0.07413 0.79917 0.20952 0.0
C515 C 0.14236 0.84371 0.12712 0.0
C516 C 0.94989 0.7451 0.46779 0.0
C517 C 0.94801 0.73444 0.50943 0.0
H518 H 0.91603 0.75326 0.41666 0.0
C519 C 0.90964 0.72489 0.53173 0.0
H520 H 0.97901 0.75282 0.44972 0.0
C521 C 0.87371 0.72511 0.51286 0.0
C522 C 0.875 0.73482 0.47107 0.0
H523 H 0.90694 0.71657 0.56386 0.0
H524 H 0.84441 0.71635 0.53098 0.0
C525 C 0.91371 0.74516 0.44879 0.0
C526 C 0.20483 0.89875 0.69776 0.0
C527 C 0.23269 0.93769 0.67562 0.0
H528 H 0.14813 0.83333 0.69719 0.0
C529 C 0.22222 0.94042 0.63466 0.0
H530 H 0.21174 0.89545 0.7294 0.0
C531 C 0.18532 0.90448 0.61607 0.0
C532 C 0.15792 0.86524 0.63814 0.0
H533 H 0.24287 0.96998 0.61675 0.0
H534 H 0.17828 0.90736 0.58441 0.0
C535 C 0.16796 0.86311 0.67933 0.0
C536 C 0.30053 0.21685 0.79923 0.0
C537 C 0.31022 0.22475 0.8411 0.0
H538 H 0.29232 0.17509 0.74781 0.0
C539 C 0.31777 0.19459 0.8635 0.0
H540 H 0.29437 0.23929 0.78108 0.0
C541 C 0.31653 0.15796 0.84453 0.0
C542 C 0.30784 0.15043 0.80253 0.0
H543 H 0.32526 0.1995 0.8958 0.0
H544 H 0.32371 0.13628 0.86273 0.0
C545 C 0.29954 0.18016 0.78012 0.0
C546 C 0.14641 0.31324 0.03164 0.0
C547 C 0.10804 0.30372 0.00937 0.0
H548 H 0.21167 0.32187 0.03079 0.0
C549 C 0.10622 0.2932 0.96771 0.0
H550 H 0.14907 0.32145 0.06377 0.0
C551 C 0.14245 0.29326 0.94865 0.0
C552 C 0.18115 0.30357 0.97088 0.0
H553 H 0.07711 0.28551 0.94967 0.0
H554 H 0.14016 0.28526 0.9165 0.0
C555 C 0.18238 0.31314 0.0127 0.0
C556 C 0.8507 0.13892 0.19764 0.0
C557 C 0.82275 0.10008 0.17547 0.0
H558 H 0.90751 0.20426 0.19709 0.0
C559 C 0.83312 0.09747 0.13444 0.0
H560 H 0.84387 0.14213 0.22932 0.0
C561 C 0.87004 0.13343 0.11583 0.0
C562 C 0.89756 0.17256 0.13795 0.0
H563 H 0.81239 0.068 0.1165 0.0
H564 H 0.87701 0.13064 0.08412 0.0
C565 C 0.8876 0.17457 0.17919 0.0
C566 C 0.73929 0.88051 0.34498 0.0
C567 C 0.74807 0.88813 0.30298 0.0
H568 H 0.73061 0.83894 0.39624 0.0
C569 C 0.75662 0.85856 0.2806 0.0
H570 H 0.73192 0.90205 0.36316 0.0
C571 C 0.75575 0.82192 0.29971 0.0
C572 C 0.74594 0.81391 0.34156 0.0
H573 H 0.76394 0.86371 0.2483 0.0
H574 H 0.76207 0.79959 0.28157 0.0
C575 C 0.73818 0.84393 0.36395 0.0
C576 C 0.50263 0.50893 0.45022 0.0
C577 C 0.48035 0.48555 0.41478 0.0
H578 H 0.56077 0.56532 0.47512 0.0
C579 C 0.49822 0.50387 0.37648 0.0
H580 H 0.48982 0.49511 0.48013 0.0
C581 C 0.53827 0.54434 0.37368 0.0
C582 C 0.56163 0.56663 0.40912 0.0
H583 H 0.48178 0.48629 0.34879 0.0
H584 H 0.55217 0.55705 0.34377 0.0
C585 C 0.5432 0.54888 0.44742 0.0
C586 C 1.01318 0.48908 0.54347 0.0
C587 C 1.01389 0.47138 0.58178 0.0
H588 H 1.01354 0.54279 0.51073 0.0
C589 C 1.0128 0.4937 0.61721 0.0
H590 H 1.01433 0.47262 0.51578 0.0
C591 C 1.01318 0.53415 0.61438 0.0
C592 C 1.01363 0.55243 0.57607 0.0
H593 H 1.014 0.48103 0.64712 0.0
H594 H 1.01432 0.55176 0.64206 0.0
C595 C 1.01254 0.52901 0.54064 0.0
C596 C 0.56946 0.06282 0.74659 0.0
C597 C 0.57027 0.02267 0.74681 0.0
H598 H 0.53061 0.09458 0.74403 0.0
C599 C 0.52945 0.98226 0.74644 0.0
H600 H 0.59994 0.09469 0.74796 0.0
C601 C 0.48897 0.9822 0.7456 0.0
C602 C 0.48842 0.02254 0.74517 0.0
H603 H 0.52872 0.95068 0.7466 0.0
H604 H 0.45816 0.95056 0.74544 0.0
C605 C 0.52932 0.06275 0.74542 0.0
C606 C 0.55354 0.52942 0.94982 0.0
C607 C 0.5759 0.55295 0.91442 0.0
H608 H 0.49533 0.47296 0.97462 0.0
C609 C 0.55807 0.53481 0.87609 0.0
H610 H 0.56632 0.54309 0.97975 0.0
C611 C 0.51799 0.49438 0.87321 0.0
C612 C 0.49456 0.47195 0.90862 0.0
H613 H 0.57456 0.55251 0.84843 0.0
H614 H 0.50412 0.48181 0.84329 0.0
C615 C 0.51295 0.48951 0.94695 0.0
C616 C 0.04252 0.50369 0.11471 0.0
C617 C 0.0422 0.48549 0.0764 0.0
H618 H 0.04156 0.55673 0.14744 0.0
C619 C 0.04333 0.50894 0.04097 0.0
H620 H 0.04134 0.48605 0.14239 0.0
C621 C 0.04263 0.54884 0.04379 0.0
C622 C 0.04181 0.56647 0.0821 0.0
H623 H 0.04243 0.49522 0.01105 0.0
H624 H 0.04153 0.56534 0.0161 0.0
C625 C 0.04284 0.54411 0.11753 0.0
C626 C 0.52608 0.05617 0.24563 0.0
C627 C 0.48521 1.0158 0.24602 0.0
H628 H 0.59736 0.08776 0.24472 0.0
C629 C 0.48595 0.97562 0.24584 0.0
H630 H 0.52687 0.08779 0.24574 0.0
C631 C 0.52605 0.97561 0.24476 0.0
C632 C 0.56699 1.01578 0.24454 0.0
H633 H 0.45544 0.94377 0.24722 0.0
H634 H 0.5247 0.94375 0.24342 0.0
C635 C 0.56652 0.05616 0.24486 0.0
C636 C 0.4102 0.40891 0.68169 0.0
C637 C 0.37165 0.37793 0.7026 0.0
H638 H 0.44666 0.42672 0.62582 0.0
C639 C 0.33987 0.33965 0.68185 0.0
H640 H 0.4356 0.43851 0.6968 0.0
C641 C 0.34657 0.33251 0.64118 0.0
C642 C 0.38516 0.36355 0.6203 0.0
H643 H 0.30954 0.31533 0.69681 0.0
H644 H 0.32171 0.30239 0.62635 0.0
C645 C 0.41682 0.40186 0.64104 0.0
C646 C 0.03643 0.33951 0.80873 0.0
C647 C 0.04304 0.37781 0.78788 0.0
H648 H 1.01745 0.30243 0.86437 0.0
C649 C 0.03579 0.40899 0.80878 0.0
H650 H 0.04219 0.31503 0.79379 0.0
C651 C 1.02235 0.40214 0.8495 0.0
C652 C 1.01559 0.36382 0.87034 0.0
H653 H 0.04007 0.4386 0.79362 0.0
H654 H 1.01763 0.42717 0.8647 0.0
C655 C 1.02281 0.33257 0.84947 0.0
C656 C 0.64739 0.02618 0.97538 0.0
C657 C 0.68575 0.03323 0.9545 0.0
H658 H 0.61086 1.00784 0.03128 0.0
C659 C 0.71712 0.02619 0.9753 0.0
H660 H 0.62234 0.03084 0.9602 0.0
C661 C 0.71024 1.01239 0.01599 0.0
C662 C 0.67186 1.00538 0.03685 0.0
H663 H 0.74731 0.0318 0.96037 0.0
H664 H 0.7348 1.00675 0.03087 0.0
C665 C 0.64055 1.01247 0.01605 0.0
C666 C 0.70938 0.70573 0.1415 0.0
C667 C 0.67092 0.67447 0.12064 0.0
H668 H 0.74629 0.72325 0.19716 0.0
C669 C 0.63938 0.63612 0.14147 0.0
H670 H 0.73415 0.73589 0.12661 0.0
C671 C 0.64597 0.62925 0.18218 0.0
C672 C 0.68439 0.66045 0.20307 0.0
H673 H 0.60964 0.61109 0.12629 0.0
H674 H 0.62065 0.59962 0.19734 0.0
C675 C 0.71606 0.69877 0.18224 0.0
C676 C 1.02016 0.62919 0.3089 0.0
C677 C 1.01274 0.66027 0.28802 0.0
H678 H 0.03863 0.61122 0.36475 0.0
C679 C 1.01932 0.69857 0.30881 0.0
H680 H 1.0159 0.59959 0.29376 0.0
C681 C 0.03309 0.70562 0.34949 0.0
C682 C 0.0405 0.67448 0.37034 0.0
H683 H 1.01341 0.72296 0.29388 0.0
H684 H 0.03842 0.73575 0.36436 0.0
C685 C 0.03376 0.63615 0.34955 0.0
C686 C 0.41495 0.0257 0.51572 0.0
C687 C 0.38359 0.03267 0.53661 0.0
H688 H 0.43333 1.00771 0.45976 0.0
C689 C 0.34528 0.02581 0.51576 0.0
H690 H 0.44459 0.03022 0.53092 0.0
C691 C 0.33851 1.01229 0.47499 0.0
C692 C 0.36993 1.00536 0.45412 0.0
H693 H 0.32068 0.03138 0.5307 0.0
H694 H 0.30837 1.00678 0.46007 0.0
C695 C 0.40823 1.01228 0.47498 0.0
loop_
_geom_bond_atom_site_label_1
_geom_bond_atom_site_label_2
_geom_bond_distance
_geom_bond_site_symmetry_2
_ccdc_geom_bond_type
C0 C1 1.351 . S
C0 N3 1.368 . S
C0 H5 0.931 . S
C1 C0 1.351 . S
C1 N2 1.373 . S
C1 H29 0.930 . S
N2 C1 1.373 . S
N2 C4 1.340 . S
N3 C0 1.368 . S
N3 C4 1.321 . S
N3 Co6 2.135 . S
C4 N2 1.340 . S
C4 N3 1.321 . S
C4 H28 0.930 . S
H5 C0 0.931 . S
Co6 N3 2.135 . S
Co6 N9 2.121 . S
Co6 O14 2.055 . S
Co6 O17 2.039 . S
Co6 N20 2.140 . S
C7 O8 1.227 . S
C7 O17 1.265 . S
O8 C7 1.227 . S
N9 Co6 2.121 . S
N9 C11 1.375 . S
N9 C12 1.313 . S
C10 C11 1.338 . S
C10 N13 1.377 . S
C10 H30 0.930 . S
C11 N9 1.375 . S
C11 C10 1.338 . S
C11 H15 0.931 . S
C12 N9 1.313 . S
C12 N13 1.344 . S
C12 H16 0.930 . S
N13 C10 1.377 . S
N13 C12 1.344 . S
O14 Co6 2.055 . S
O14 C18 1.253 . S
H15 C11 0.931 . S
H16 C12 0.930 . S
O17 Co6 2.039 . S
O17 C7 1.265 . S
C18 O14 1.253 . S
C18 O19 1.227 . S
O19 C18 1.227 . S
N20 Co6 2.140 . S
N20 C23 1.346 . S
N20 C24 1.345 . S
C21 C22 1.387 . S
C21 C25 1.391 . S
C22 C21 1.387 . S
C22 C23 1.369 . S
C22 H31 0.929 . S
C23 N20 1.346 . S
C23 C22 1.369 . S
C23 H26 0.928 . S
C24 N20 1.345 . S
C24 C25 1.371 . S
C24 H27 0.931 . S
C25 C21 1.391 . S
C25 C24 1.371 . S
C25 H32 0.930 . S
H26 C23 0.928 . S
H27 C24 0.931 . S
H28 C4 0.930 . S
H29 C1 0.930 . S
H30 C10 0.930 . S
H31 C22 0.929 . S
H32 C25 0.930 . S
C33 C34 1.351 . S
C33 N36 1.368 . S
C33 H38 0.931 . S
C34 C33 1.351 . S
C34 N35 1.373 . S
C34 H62 0.930 . S
N35 C34 1.373 . S
N35 C37 1.340 . S
N36 C33 1.368 . S
N36 C37 1.321 . S
N36 Co39 2.135 . S
C37 N35 1.340 . S
C37 N36 1.321 . S
C37 H61 0.930 1_455 S
H38 C33 0.931 . S
Co39 N36 2.135 . S
Co39 N42 2.121 . S
Co39 O47 2.055 . S
Co39 O50 2.039 . S
Co39 N53 2.140 . S
C40 O41 1.227 . S
C40 O50 1.265 1_655 S
O41 C40 1.227 . S
N42 Co39 2.121 . S
N42 C44 1.375 . S
N42 C45 1.313 . S
C43 C44 1.338 . S
C43 N46 1.377 . S
C43 H63 0.930 . S
C44 N42 1.375 . S
C44 C43 1.338 . S
C44 H48 0.931 . S
C45 N42 1.313 . S
C45 N46 1.344 . S
C45 H49 0.930 . S
N46 C43 1.377 . S
N46 C45 1.344 . S
O47 Co39 2.055 . S
O47 C51 1.253 . S
H48 C44 0.931 . S
H49 C45 0.930 . S
O50 Co39 2.039 . S
O50 C40 1.265 1_455 S
C51 O47 1.253 . S
C51 O52 1.227 . S
O52 C51 1.227 . S
N53 Co39 2.140 . S
N53 C56 1.346 . S
N53 C57 1.345 . S
C54 C55 1.387 . S
C54 C58 1.391 . S
C55 C54 1.387 . S
C55 C56 1.369 . S
C55 H64 0.929 1_455 S
C56 N53 1.346 . S
C56 C55 1.369 . S
C56 H59 0.928 . S
C57 N53 1.345 . S
C57 C58 1.371 . S
C57 H60 0.931 . S
C58 C54 1.391 . S
C58 C57 1.371 . S
C58 H65 0.930 . S
H59 C56 0.928 . S
H60 C57 0.931 . S
H61 C37 0.930 1_655 S
H62 C34 0.930 . S
H63 C43 0.930 . S
H64 C55 0.929 1_655 S
H65 C58 0.930 . S
C66 C67 1.351 . S
C66 N69 1.368 . S
C66 H71 0.931 . S
C67 C66 1.351 . S
C67 N68 1.373 . S
C67 H95 0.930 . S
N68 C67 1.373 . S
N68 C70 1.340 . S
N69 C66 1.368 . S
N69 C70 1.321 . S
N69 Co72 2.135 . S
C70 N68 1.340 . S
C70 N69 1.321 . S
C70 H94 0.930 1_545 S
H71 C66 0.931 . S
Co72 N69 2.135 . S
Co72 N75 2.121 . S
Co72 O80 2.055 . S
Co72 O83 2.039 . S
Co72 N86 2.140 . S
C73 O74 1.227 . S
C73 O83 1.265 1_565 S
O74 C73 1.227 . S
N75 Co72 2.121 . S
N75 C77 1.375 . S
N75 C78 1.313 . S
C76 C77 1.338 . S
C76 N79 1.377 . S
C76 H96 0.930 . S
C77 N75 1.375 . S
C77 C76 1.338 . S
C77 H81 0.931 . S
C78 N75 1.313 . S
C78 N79 1.344 . S
C78 H82 0.930 . S
N79 C76 1.377 . S
N79 C78 1.344 . S
O80 Co72 2.055 . S
O80 C84 1.253 . S
H81 C77 0.931 . S
H82 C78 0.930 . S
O83 Co72 2.039 . S
O83 C73 1.265 1_545 S
C84 O80 1.253 . S
C84 O85 1.227 . S
O85 C84 1.227 . S
N86 Co72 2.140 . S
N86 C89 1.346 . S
N86 C90 1.345 . S
C87 C88 1.387 . S
C87 C91 1.391 . S
C88 C87 1.387 . S
C88 C89 1.369 . S
C88 H97 0.929 1_545 S
C89 N86 1.346 . S
C89 C88 1.369 . S
C89 H92 0.928 . S
C90 N86 1.345 . S
C90 C91 1.371 . S
C90 H93 0.931 . S
C91 C87 1.391 . S
C91 C90 1.371 . S
C91 H98 0.930 . S
H92 C89 0.928 . S
H93 C90 0.931 . S
H94 C70 0.930 1_565 S
H95 C67 0.930 . S
H96 C76 0.930 . S
H97 C88 0.929 1_565 S
H98 C91 0.930 . S
C99 C100 1.351 . S
C99 N102 1.368 . S
C99 H104 0.931 . S
C100 C99 1.351 . S
C100 N101 1.373 . S
C100 H128 0.930 . S
N101 C100 1.373 . S
N101 C103 1.340 . S
N102 C99 1.368 . S
N102 C103 1.321 . S
N102 Co105 2.135 1_554 S
C103 N101 1.340 . S
C103 N102 1.321 . S
C103 H127 0.930 . S
H104 C99 0.931 . S
Co105 N102 2.135 1_556 S
Co105 N108 2.121 . S
Co105 O113 2.055 1_556 S
Co105 O116 2.039 . S
Co105 N119 2.140 . S
C106 O107 1.227 . S
C106 O116 1.265 . S
O107 C106 1.227 . S
N108 Co105 2.121 . S
N108 C110 1.375 . S
N108 C111 1.313 . S
C109 C110 1.338 . S
C109 N112 1.377 . S
C109 H129 0.930 . S
C110 N108 1.375 . S
C110 C109 1.338 . S
C110 H114 0.931 . S
C111 N108 1.313 . S
C111 N112 1.344 . S
C111 H115 0.930 . S
N112 C109 1.377 . S
N112 C111 1.344 . S
O113 Co105 2.055 1_554 S
O113 C117 1.253 . S
H114 C110 0.931 . S
H115 C111 0.930 . S
O116 Co105 2.039 . S
O116 C106 1.265 . S
C117 O113 1.253 . S
C117 O118 1.225 1_554 S
O118 C117 1.225 1_556 S
N119 Co105 2.140 . S
N119 C122 1.346 . S
N119 C123 1.345 . S
C120 C121 1.387 . S
C120 C124 1.391 . S
C121 C120 1.387 . S
C121 C122 1.369 . S
C121 H130 0.929 . S
C122 N119 1.346 . S
C122 C121 1.369 . S
C122 H125 0.928 . S
C123 N119 1.345 . S
C123 C124 1.371 . S
C123 H126 0.931 . S
C124 C120 1.391 . S
C124 C123 1.371 . S
C124 H131 0.930 . S
H125 C122 0.928 . S
H126 C123 0.931 . S
H127 C103 0.930 . S
H128 C100 0.930 . S
H129 C109 0.930 . S
H130 C121 0.929 . S
H131 C124 0.930 . S
C132 C133 1.351 . S
C132 N135 1.368 . S
C132 H137 0.931 . S
C133 C132 1.351 . S
C133 N134 1.373 . S
C133 H161 0.930 . S
N134 C133 1.373 . S
N134 C136 1.340 . S
N135 C132 1.368 . S
N135 C136 1.321 . S
N135 Co138 2.135 . S
C136 N134 1.340 . S
C136 N135 1.321 . S
C136 H160 0.930 1_655 S
H137 C132 0.931 . S
Co138 N135 2.135 . S
Co138 N141 2.121 . S
Co138 O146 2.055 . S
Co138 O149 2.039 . S
Co138 N152 2.140 . S
C139 O140 1.227 . S
C139 O149 1.265 1_455 S
O140 C139 1.227 . S
N141 Co138 2.121 . S
N141 C143 1.375 . S
N141 C144 1.313 . S
C142 C143 1.338 . S
C142 N145 1.377 . S
C142 H162 0.930 . S
C143 N141 1.375 . S
C143 C142 1.338 . S
C143 H147 0.931 . S
C144 N141 1.313 . S
C144 N145 1.344 . S
C144 H148 0.930 . S
N145 C142 1.377 . S
N145 C144 1.344 . S
O146 Co138 2.055 . S
O146 C150 1.253 . S
H147 C143 0.931 . S
H148 C144 0.930 . S
O149 Co138 2.039 . S
O149 C139 1.265 1_655 S
C150 O146 1.253 . S
C150 O151 1.227 . S
O151 C150 1.227 . S
N152 Co138 2.140 . S
N152 C155 1.346 . S
N152 C156 1.345 . S
C153 C154 1.387 . S
C153 C157 1.391 . S
C154 C153 1.387 . S
C154 C155 1.369 . S
C154 H163 0.929 1_655 S
C155 N152 1.346 . S
C155 C154 1.369 . S
C155 H158 0.928 . S
C156 N152 1.345 . S
C156 C157 1.371 . S
C156 H159 0.931 . S
C157 C153 1.391 . S
C157 C156 1.371 . S
C157 H164 0.930 . S
H158 C155 0.928 . S
H159 C156 0.931 . S
H160 C136 0.930 1_455 S
H161 C133 0.930 . S
H162 C142 0.930 . S
H163 C154 0.929 1_455 S
H164 C157 0.930 . S
C165 C166 1.351 . S
C165 N168 1.368 . S
C165 H170 0.931 . S
C166 C165 1.351 . S
C166 N167 1.373 . S
C166 H194 0.930 . S
N167 C166 1.373 . S
N167 C169 1.340 . S
N168 C165 1.368 . S
N168 C169 1.321 . S
N168 Co171 2.135 . S
C169 N167 1.340 . S
C169 N168 1.321 . S
C169 H193 0.930 1_565 S
H170 C165 0.931 . S
Co171 N168 2.135 . S
Co171 N174 2.121 . S
Co171 O179 2.055 . S
Co171 O182 2.039 . S
Co171 N185 2.140 . S
C172 O173 1.227 . S
C172 O182 1.265 1_545 S
O173 C172 1.227 . S
N174 Co171 2.121 . S
N174 C176 1.375 . S
N174 C177 1.313 . S
C175 C176 1.338 . S
C175 N178 1.377 . S
C175 H195 0.930 . S
C176 N174 1.375 . S
C176 C175 1.338 . S
C176 H180 0.931 . S
C177 N174 1.313 . S
C177 N178 1.344 . S
C177 H181 0.930 . S
N178 C175 1.377 . S
N178 C177 1.344 . S
O179 Co171 2.055 . S
O179 C183 1.253 . S
H180 C176 0.931 . S
H181 C177 0.930 . S
O182 Co171 2.039 . S
O182 C172 1.265 1_565 S
C183 O179 1.253 . S
C183 O184 1.227 . S
O184 C183 1.227 . S
N185 Co171 2.140 . S
N185 C188 1.346 . S
N185 C189 1.345 . S
C186 C187 1.387 . S
C186 C190 1.391 . S
C187 C186 1.387 . S
C187 C188 1.369 . S
C187 H196 0.929 1_565 S
C188 N185 1.346 . S
C188 C187 1.369 . S
C188 H191 0.928 . S
C189 N185 1.345 . S
C189 C190 1.371 . S
C189 H192 0.931 . S
C190 C186 1.391 . S
C190 C189 1.371 . S
C190 H197 0.930 . S
H191 C188 0.928 . S
H192 C189 0.931 . S
H193 C169 0.930 1_545 S
H194 C166 0.930 . S
H195 C175 0.930 . S
H196 C187 0.929 1_545 S
H197 C190 0.930 . S
C198 C199 1.351 . S
C198 N201 1.368 . S
C198 H203 0.931 . S
C199 C198 1.351 . S
C199 N200 1.373 . S
C199 H227 0.930 . S
N200 C199 1.373 . S
N200 C202 1.340 . S
N201 C198 1.368 . S
N201 C202 1.321 . S
N201 Co204 2.135 . S
C202 N200 1.340 . S
C202 N201 1.321 . S
C202 H226 0.930 . S
H203 C198 0.931 . S
Co204 N201 2.135 . S
Co204 N207 2.121 . S
Co204 O212 2.055 . S
Co204 O215 2.039 . S
Co204 N218 2.140 . S
C205 O206 1.227 . S
C205 O215 1.265 . S
O206 C205 1.227 . S
N207 Co204 2.121 . S
N207 C209 1.375 . S
N207 C210 1.313 . S
C208 C209 1.338 . S
C208 N211 1.377 . S
C208 H228 0.930 . S
C209 N207 1.375 . S
C209 C208 1.338 . S
C209 H213 0.931 . S
C210 N207 1.313 . S
C210 N211 1.344 . S
C210 H214 0.930 . S
N211 C208 1.377 . S
N211 C210 1.344 . S
O212 Co204 2.055 . S
O212 C216 1.253 . S
H213 C209 0.931 . S
H214 C210 0.930 . S
O215 Co204 2.039 . S
O215 C205 1.265 . S
C216 O212 1.253 . S
C216 O217 1.227 . S
O217 C216 1.227 . S
N218 Co204 2.140 . S
N218 C221 1.346 . S
N218 C222 1.345 . S
C219 C220 1.387 . S
C219 C223 1.391 . S
C220 C219 1.387 . S
C220 C221 1.369 . S
C220 H229 0.929 . S
C221 N218 1.346 . S
C221 C220 1.369 . S
C221 H224 0.928 . S
C222 N218 1.345 . S
C222 C223 1.371 . S
C222 H225 0.931 . S
C223 C219 1.391 . S
C223 C222 1.371 . S
C223 H230 0.930 . S
H224 C221 0.928 . S
H225 C222 0.931 . S
H226 C202 0.930 . S
H227 C199 0.930 . S
H228 C208 0.930 . S
H229 C220 0.929 . S
H230 C223 0.930 . S
C231 C232 1.351 . S
C231 N234 1.368 . S
C231 H236 0.931 . S
C232 C231 1.351 . S
C232 N233 1.373 . S
C232 H260 0.930 . S
N233 C232 1.373 . S
N233 C235 1.340 . S
N234 C231 1.368 . S
N234 C235 1.321 . S
N234 Co237 2.135 . S
C235 N233 1.340 . S
C235 N234 1.321 . S
C235 H259 0.930 1_455 S
H236 C231 0.931 . S
Co237 N234 2.135 . S
Co237 N240 2.121 . S
Co237 O245 2.055 . S
Co237 O248 2.039 . S
Co237 N251 2.140 . S
C238 O239 1.227 . S
C238 O248 1.265 1_655 S
O239 C238 1.227 . S
N240 Co237 2.121 . S
N240 C242 1.375 . S
N240 C243 1.313 . S
C241 C242 1.338 . S
C241 N244 1.377 . S
C241 H261 0.930 . S
C242 N240 1.375 . S
C242 C241 1.338 . S
C242 H246 0.931 . S
C243 N240 1.313 . S
C243 N244 1.344 . S
C243 H247 0.930 . S
N244 C241 1.377 . S
N244 C243 1.344 . S
O245 Co237 2.055 . S
O245 C249 1.253 . S
H246 C242 0.931 . S
H247 C243 0.930 . S
O248 Co237 2.039 . S
O248 C238 1.265 1_455 S
C249 O245 1.253 . S
C249 O250 1.227 . S
O250 C249 1.227 . S
N251 Co237 2.140 . S
N251 C254 1.346 . S
N251 C255 1.345 . S
C252 C253 1.387 . S
C252 C256 1.391 . S
C253 C252 1.387 . S
C253 C254 1.369 . S
C253 H262 0.929 1_455 S
C254 N251 1.346 . S
C254 C253 1.369 . S
C254 H257 0.928 . S
C255 N251 1.345 . S
C255 C256 1.371 . S
C255 H258 0.931 . S
C256 C252 1.391 . S
C256 C255 1.371 . S
C256 H263 0.930 . S
H257 C254 0.928 . S
H258 C255 0.931 . S
H259 C235 0.930 1_655 S
H260 C232 0.930 . S
H261 C241 0.930 . S
H262 C253 0.929 1_655 S
H263 C256 0.930 . S
C264 C265 1.351 . S
C264 N267 1.368 . S
C264 H269 0.931 . S
C265 C264 1.351 . S
C265 N266 1.373 . S
C265 H293 0.930 . S
N266 C265 1.373 . S
N266 C268 1.340 . S
N267 C264 1.368 . S
N267 C268 1.321 . S
N267 Co270 2.135 . S
C268 N266 1.340 . S
C268 N267 1.321 . S
C268 H292 0.930 1_545 S
H269 C264 0.931 . S
Co270 N267 2.135 . S
Co270 N273 2.121 . S
Co270 O278 2.055 . S
Co270 O281 2.039 . S
Co270 N284 2.140 . S
C271 O272 1.227 . S
C271 O281 1.265 1_565 S
O272 C271 1.227 . S
N273 Co270 2.121 . S
N273 C275 1.375 . S
N273 C276 1.313 . S
C274 C275 1.338 . S
C274 N277 1.377 . S
C274 H294 0.930 . S
C275 N273 1.375 . S
C275 C274 1.338 . S
C275 H279 0.931 . S
C276 N273 1.313 . S
C276 N277 1.344 . S
C276 H280 0.930 . S
N277 C274 1.377 . S
N277 C276 1.344 . S
O278 Co270 2.055 . S
O278 C282 1.253 . S
H279 C275 0.931 . S
H280 C276 0.930 . S
O281 Co270 2.039 . S
O281 C271 1.265 1_545 S
C282 O278 1.253 . S
C282 O283 1.227 . S
O283 C282 1.227 . S
N284 Co270 2.140 . S
N284 C287 1.346 . S
N284 C288 1.345 . S
C285 C286 1.387 . S
C285 C289 1.391 . S
C286 C285 1.387 . S
C286 C287 1.369 . S
C286 H295 0.929 1_545 S
C287 N284 1.346 . S
C287 C286 1.369 . S
C287 H290 0.928 . S
C288 N284 1.345 . S
C288 C289 1.371 . S
C288 H291 0.931 . S
C289 C285 1.391 . S
C289 C288 1.371 . S
C289 H296 0.930 . S
H290 C287 0.928 . S
H291 C288 0.931 . S
H292 C268 0.930 1_565 S
H293 C265 0.930 . S
H294 C274 0.930 . S
H295 C286 0.929 1_565 S
H296 C289 0.930 . S
C297 C298 1.351 . S
C297 N300 1.368 . S
C297 H302 0.931 . S
C298 C297 1.351 . S
C298 N299 1.373 . S
C298 H326 0.930 . S
N299 C298 1.373 . S
N299 C301 1.340 . S
N300 C297 1.368 . S
N300 C301 1.321 . S
N300 Co303 2.135 . S
C301 N299 1.340 . S
C301 N300 1.321 . S
C301 H325 0.930 . S
H302 C297 0.931 . S
Co303 N300 2.135 . S
Co303 N306 2.121 . S
Co303 O311 2.055 . S
Co303 O314 2.039 . S
Co303 N317 2.140 . S
C304 O305 1.227 . S
C304 O314 1.265 . S
O305 C304 1.227 . S
N306 Co303 2.121 . S
N306 C308 1.375 . S
N306 C309 1.313 . S
C307 C308 1.338 . S
C307 N310 1.377 . S
C307 H327 0.930 . S
C308 N306 1.375 . S
C308 C307 1.338 . S
C308 H312 0.931 . S
C309 N306 1.313 . S
C309 N310 1.344 . S
C309 H313 0.930 . S
N310 C307 1.377 . S
N310 C309 1.344 . S
O311 Co303 2.055 . S
O311 C315 1.253 . S
H312 C308 0.931 . S
H313 C309 0.930 . S
O314 Co303 2.039 . S
O314 C304 1.265 . S
C315 O311 1.253 . S
C315 O316 1.227 . S
O316 C315 1.227 . S
N317 Co303 2.140 . S
N317 C320 1.346 . S
N317 C321 1.345 . S
C318 C319 1.387 . S
C318 C322 1.391 . S
C319 C318 1.387 . S
C319 C320 1.369 . S
C319 H328 0.929 . S
C320 N317 1.346 . S
C320 C319 1.369 . S
C320 H323 0.928 . S
C321 N317 1.345 . S
C321 C322 1.371 . S
C321 H324 0.931 . S
C322 C318 1.391 . S
C322 C321 1.371 . S
C322 H329 0.930 . S
H323 C320 0.928 . S
H324 C321 0.931 . S
H325 C301 0.930 . S
H326 C298 0.930 . S
H327 C307 0.930 . S
H328 C319 0.929 . S
H329 C322 0.930 . S
C330 C331 1.351 . S
C330 N333 1.368 . S
C330 H335 0.931 . S
C331 C330 1.351 . S
C331 N332 1.373 . S
C331 H359 0.930 . S
N332 C331 1.373 . S
N332 C334 1.340 . S
N333 C330 1.368 . S
N333 C334 1.321 . S
N333 Co336 2.135 1_556 S
C334 N332 1.340 . S
C334 N333 1.321 . S
C334 H358 0.930 1_655 S
H335 C330 0.931 . S
Co336 N333 2.135 1_554 S
Co336 N339 2.121 . S
Co336 O344 2.055 1_554 S
Co336 O347 2.039 . S
Co336 N350 2.140 . S
C337 O338 1.227 . S
C337 O347 1.265 1_455 S
O338 C337 1.227 . S
N339 Co336 2.121 . S
N339 C341 1.375 . S
N339 C342 1.313 . S
C340 C341 1.338 . S
C340 N343 1.377 . S
C340 H360 0.930 . S
C341 N339 1.375 . S
C341 C340 1.338 . S
C341 H345 0.931 . S
C342 N339 1.313 . S
C342 N343 1.344 . S
C342 H346 0.930 . S
N343 C340 1.377 . S
N343 C342 1.344 . S
O344 Co336 2.055 1_556 S
O344 C348 1.253 . S
H345 C341 0.931 . S
H346 C342 0.930 . S
O347 Co336 2.039 . S
O347 C337 1.265 1_655 S
C348 O344 1.253 . S
C348 O349 1.225 1_556 S
O349 C348 1.225 1_554 S
N350 Co336 2.140 . S
N350 C353 1.346 . S
N350 C354 1.345 . S
C351 C352 1.387 . S
C351 C355 1.391 . S
C352 C351 1.387 . S
C352 C353 1.369 . S
C352 H361 0.929 1_655 S
C353 N350 1.346 . S
C353 C352 1.369 . S
C353 H356 0.928 . S
C354 N350 1.345 . S
C354 C355 1.371 . S
C354 H357 0.931 . S
C355 C351 1.391 . S
C355 C354 1.371 . S
C355 H362 0.930 . S
H356 C353 0.928 . S
H357 C354 0.931 . S
H358 C334 0.930 1_455 S
H359 C331 0.930 . S
H360 C340 0.930 . S
H361 C352 0.929 1_455 S
H362 C355 0.930 . S
C363 C364 1.351 . S
C363 N366 1.368 . S
C363 H368 0.931 . S
C364 C363 1.351 . S
C364 N365 1.373 . S
C364 H392 0.930 . S
N365 C364 1.373 . S
N365 C367 1.340 . S
N366 C363 1.368 . S
N366 C367 1.321 . S
N366 Co369 2.135 . S
C367 N365 1.340 . S
C367 N366 1.321 . S
C367 H391 0.930 1_565 S
H368 C363 0.931 . S
Co369 N366 2.135 . S
Co369 N372 2.121 . S
Co369 O377 2.055 . S
Co369 O380 2.039 . S
Co369 N383 2.140 . S
C370 O371 1.227 . S
C370 O380 1.265 1_545 S
O371 C370 1.227 . S
N372 Co369 2.121 . S
N372 C374 1.375 . S
N372 C375 1.313 . S
C373 C374 1.338 . S
C373 N376 1.377 . S
C373 H393 0.930 . S
C374 N372 1.375 . S
C374 C373 1.338 . S
C374 H378 0.931 . S
C375 N372 1.313 . S
C375 N376 1.344 . S
C375 H379 0.930 . S
N376 C373 1.377 . S
N376 C375 1.344 . S
O377 Co369 2.055 . S
O377 C381 1.253 . S
H378 C374 0.931 . S
H379 C375 0.930 . S
O380 Co369 2.039 . S
O380 C370 1.265 1_565 S
C381 O377 1.253 . S
C381 O382 1.227 . S
O382 C381 1.227 . S
N383 Co369 2.140 . S
N383 C386 1.346 . S
N383 C387 1.345 . S
C384 C385 1.387 . S
C384 C388 1.391 . S
C385 C384 1.387 . S
C385 C386 1.369 . S
C385 H394 0.929 1_565 S
C386 N383 1.346 . S
C386 C385 1.369 . S
C386 H389 0.928 . S
C387 N383 1.345 . S
C387 C388 1.371 . S
C387 H390 0.931 . S
C388 C384 1.391 . S
C388 C387 1.371 . S
C388 H395 0.930 . S
H389 C386 0.928 . S
H390 C387 0.931 . S
H391 C367 0.930 1_545 S
H392 C364 0.930 . S
H393 C373 0.930 . S
H394 C385 0.929 1_545 S
H395 C388 0.930 . S
C396 C397 1.387 . S
C396 H400 0.950 . S
C396 C405 1.390 . S
C397 C396 1.387 . S
C397 C399 1.387 . S
H398 C405 0.950 . S
C399 C397 1.387 . S
C399 C401 1.390 . S
C399 H403 0.950 . S
H400 C396 0.950 . S
C401 C399 1.390 . S
C401 C402 1.387 . S
C401 H404 0.950 . S
C402 C401 1.387 . S
C402 C405 1.387 . S
H403 C399 0.950 . S
H404 C401 0.950 . S
C405 C396 1.390 . S
C405 H398 0.950 . S
C405 C402 1.387 . S
C406 C407 1.387 . S
C406 H410 0.950 . S
C406 C415 1.390 . S
C407 C406 1.387 . S
C407 C409 1.387 . S
H408 C415 0.950 . S
C409 C407 1.387 . S
C409 C411 1.390 . S
C409 H413 0.950 . S
H410 C406 0.950 . S
C411 C409 1.390 . S
C411 C412 1.387 . S
C411 H414 0.950 . S
C412 C411 1.387 . S
C412 C415 1.387 . S
H413 C409 0.950 . S
H414 C411 0.950 . S
C415 C406 1.390 . S
C415 H408 0.950 . S
C415 C412 1.387 . S
C416 C417 1.387 . S
C416 H420 0.950 . S
C416 C425 1.390 . S
C417 C416 1.387 . S
C417 C419 1.387 . S
H418 C425 0.950 . S
C419 C417 1.387 . S
C419 C421 1.390 . S
C419 H423 0.950 . S
H420 C416 0.950 . S
C421 C419 1.390 . S
C421 C422 1.387 . S
C421 H424 0.950 . S
C422 C421 1.387 . S
C422 C425 1.387 . S
H423 C419 0.950 . S
H424 C421 0.950 . S
C425 C416 1.390 . S
C425 H418 0.950 . S
C425 C422 1.387 . S
C426 C427 1.387 . S
C426 H430 0.950 . S
C426 C435 1.390 . S
C427 C426 1.387 . S
C427 C429 1.387 . S
H428 C435 0.950 . S
C429 C427 1.387 . S
C429 C431 1.390 . S
C429 H433 0.950 . S
H430 C426 0.950 . S
C431 C429 1.390 . S
C431 C432 1.387 . S
C431 H434 0.950 . S
C432 C431 1.387 . S
C432 C435 1.387 . S
H433 C429 0.950 . S
H434 C431 0.950 . S
C435 C426 1.390 . S
C435 H428 0.950 . S
C435 C432 1.387 . S
C436 C437 1.387 . S
C436 H440 0.950 . S
C436 C445 1.390 . S
C437 C436 1.387 . S
C437 C439 1.387 . S
H438 C445 0.950 . S
C439 C437 1.387 . S
C439 C441 1.390 . S
C439 H443 0.950 . S
H440 C436 0.950 . S
C441 C439 1.390 . S
C441 C442 1.387 . S
C441 H444 0.950 . S
C442 C441 1.387 . S
C442 C445 1.387 . S
H443 C439 0.950 . S
H444 C441 0.950 . S
C445 C436 1.390 . S
C445 H438 0.950 . S
C445 C442 1.387 . S
C446 C447 1.387 . S
C446 H450 0.950 . S
C446 C455 1.390 . S
C447 C446 1.387 . S
C447 C449 1.387 . S
H448 C455 0.950 . S
C449 C447 1.387 . S
C449 C451 1.390 . S
C449 H453 0.950 . S
H450 C446 0.950 . S
C451 C449 1.390 . S
C451 C452 1.387 . S
C451 H454 0.950 . S
C452 C451 1.387 . S
C452 C455 1.387 . S
H453 C449 0.950 . S
H454 C451 0.950 . S
C455 C446 1.390 . S
C455 H448 0.950 . S
C455 C452 1.387 . S
C456 C457 1.387 . S
C456 H460 0.950 . S
C456 C465 1.390 . S
C457 C456 1.387 . S
C457 C459 1.387 . S
H458 C465 0.950 . S
C459 C457 1.387 . S
C459 C461 1.390 . S
C459 H463 0.950 . S
H460 C456 0.950 . S
C461 C459 1.390 . S
C461 C462 1.387 . S
C461 H464 0.950 . S
C462 C461 1.387 . S
C462 C465 1.387 . S
H463 C459 0.950 . S
H464 C461 0.950 . S
C465 C456 1.390 . S
C465 H458 0.950 . S
C465 C462 1.387 . S
C466 C467 1.387 . S
C466 H470 0.950 . S
C466 C475 1.390 . S
C467 C466 1.387 . S
C467 C469 1.387 . S
H468 C475 0.950 . S
C469 C467 1.387 . S
C469 C471 1.390 . S
C469 H473 0.950 . S
H470 C466 0.950 . S
C471 C469 1.390 . S
C471 C472 1.387 . S
C471 H474 0.950 . S
C472 C471 1.387 . S
C472 C475 1.387 . S
H473 C469 0.950 . S
H474 C471 0.950 . S
C475 C466 1.390 . S
C475 H468 0.950 . S
C475 C472 1.387 . S
C476 C477 1.387 . S
C476 H480 0.950 . S
C476 C485 1.390 . S
C477 C476 1.387 . S
C477 C479 1.387 . S
H478 C485 0.950 . S
C479 C477 1.387 . S
C479 C481 1.390 . S
C479 H483 0.950 . S
H480 C476 0.950 . S
C481 C479 1.390 . S
C481 C482 1.387 . S
C481 H484 0.950 . S
C482 C481 1.387 . S
C482 C485 1.387 . S
H483 C479 0.950 . S
H484 C481 0.950 . S
C485 C476 1.390 . S
C485 H478 0.950 . S
C485 C482 1.387 . S
C486 C487 1.387 . S
C486 H490 0.950 . S
C486 C495 1.390 . S
C487 C486 1.387 . S
C487 C489 1.387 . S
H488 C495 0.950 . S
C489 C487 1.387 . S
C489 C491 1.390 . S
C489 H493 0.950 . S
H490 C486 0.950 . S
C491 C489 1.390 . S
C491 C492 1.387 . S
C491 H494 0.950 . S
C492 C491 1.387 . S
C492 C495 1.387 . S
H493 C489 0.950 . S
H494 C491 0.950 . S
C495 C486 1.390 . S
C495 H488 0.950 . S
C495 C492 1.387 . S
C496 C497 1.387 1_554 S
C496 H500 0.950 . S
C496 C505 1.390 . S
C497 C496 1.387 1_556 S
C497 C499 1.387 . S
H498 C505 0.950 . S
C499 C497 1.387 . S
C499 C501 1.390 1_556 S
C499 H503 0.950 . S
H500 C496 0.950 . S
C501 C499 1.390 1_554 S
C501 C502 1.387 . S
C501 H504 0.950 . S
C502 C501 1.387 . S
C502 C505 1.387 . S
H503 C499 0.950 . S
H504 C501 0.950 . S
C505 C496 1.390 . S
C505 H498 0.950 . S
C505 C502 1.387 . S
C506 C507 1.387 . S
C506 H510 0.950 . S
C506 C515 1.390 . S
C507 C506 1.387 . S
C507 C509 1.387 . S
H508 C515 0.950 . S
C509 C507 1.387 . S
C509 C511 1.390 . S
C509 H513 0.950 . S
H510 C506 0.950 . S
C511 C509 1.390 . S
C511 C512 1.387 . S
C511 H514 0.950 . S
C512 C511 1.387 . S
C512 C515 1.387 . S
H513 C509 0.950 . S
H514 C511 0.950 . S
C515 C506 1.390 . S
C515 H508 0.950 . S
C515 C512 1.387 . S
C516 C517 1.387 . S
C516 H520 0.950 . S
C516 C525 1.390 . S
C517 C516 1.387 . S
C517 C519 1.387 . S
H518 C525 0.950 . S
C519 C517 1.387 . S
C519 C521 1.390 . S
C519 H523 0.950 . S
H520 C516 0.950 . S
C521 C519 1.390 . S
C521 C522 1.387 . S
C521 H524 0.950 . S
C522 C521 1.387 . S
C522 C525 1.387 . S
H523 C519 0.950 . S
H524 C521 0.950 . S
C525 C516 1.390 . S
C525 H518 0.950 . S
C525 C522 1.387 . S
C526 C527 1.387 . S
C526 H530 0.950 . S
C526 C535 1.390 . S
C527 C526 1.387 . S
C527 C529 1.387 . S
H528 C535 0.950 . S
C529 C527 1.387 . S
C529 C531 1.390 . S
C529 H533 0.950 . S
H530 C526 0.950 . S
C531 C529 1.390 . S
C531 C532 1.387 . S
C531 H534 0.950 . S
C532 C531 1.387 . S
C532 C535 1.387 . S
H533 C529 0.950 . S
H534 C531 0.950 . S
C535 C526 1.390 . S
C535 H528 0.950 . S
C535 C532 1.387 . S
C536 C537 1.387 . S
C536 H540 0.950 . S
C536 C545 1.390 . S
C537 C536 1.387 . S
C537 C539 1.387 . S
H538 C545 0.950 . S
C539 C537 1.387 . S
C539 C541 1.390 . S
C539 H543 0.950 . S
H540 C536 0.950 . S
C541 C539 1.390 . S
C541 C542 1.387 . S
C541 H544 0.950 . S
C542 C541 1.387 . S
C542 C545 1.387 . S
H543 C539 0.950 . S
H544 C541 0.950 . S
C545 C536 1.390 . S
C545 H538 0.950 . S
C545 C542 1.387 . S
C546 C547 1.387 . S
C546 H550 0.950 . S
C546 C555 1.390 . S
C547 C546 1.387 . S
C547 C549 1.387 1_554 S
H548 C555 0.950 . S
C549 C547 1.387 1_556 S
C549 C551 1.390 . S
C549 H553 0.950 . S
H550 C546 0.950 . S
C551 C549 1.390 . S
C551 C552 1.387 . S
C551 H554 0.950 . S
C552 C551 1.387 . S
C552 C555 1.387 1_556 S
H553 C549 0.950 . S
H554 C551 0.950 . S
C555 C546 1.390 . S
C555 H548 0.950 . S
C555 C552 1.387 1_554 S
C556 C557 1.387 . S
C556 H560 0.950 . S
C556 C565 1.390 . S
C557 C556 1.387 . S
C557 C559 1.387 . S
H558 C565 0.950 . S
C559 C557 1.387 . S
C559 C561 1.390 . S
C559 H563 0.950 . S
H560 C556 0.950 . S
C561 C559 1.390 . S
C561 C562 1.387 . S
C561 H564 0.950 . S
C562 C561 1.387 . S
C562 C565 1.387 . S
H563 C559 0.950 . S
H564 C561 0.950 . S
C565 C556 1.390 . S
C565 H558 0.950 . S
C565 C562 1.387 . S
C566 C567 1.387 . S
C566 H570 0.950 . S
C566 C575 1.390 . S
C567 C566 1.387 . S
C567 C569 1.387 . S
H568 C575 0.950 . S
C569 C567 1.387 . S
C569 C571 1.390 . S
C569 H573 0.950 . S
H570 C566 0.950 . S
C571 C569 1.390 . S
C571 C572 1.387 . S
C571 H574 0.950 . S
C572 C571 1.387 . S
C572 C575 1.387 . S
H573 C569 0.950 . S
H574 C571 0.950 . S
C575 C566 1.390 . S
C575 H568 0.950 . S
C575 C572 1.387 . S
C576 C577 1.387 . S
C576 H580 0.950 . S
C576 C585 1.390 . S
C577 C576 1.387 . S
C577 C579 1.387 . S
H578 C585 0.950 . S
C579 C577 1.387 . S
C579 C581 1.390 . S
C579 H583 0.950 . S
H580 C576 0.950 . S
C581 C579 1.390 . S
C581 C582 1.387 . S
C581 H584 0.950 . S
C582 C581 1.387 . S
C582 C585 1.387 . S
H583 C579 0.950 . S
H584 C581 0.950 . S
C585 C576 1.390 . S
C585 H578 0.950 . S
C585 C582 1.387 . S
C586 C587 1.387 . S
C586 H590 0.950 . S
C586 C595 1.390 . S
C587 C586 1.387 . S
C587 C589 1.387 . S
H588 C595 0.950 . S
C589 C587 1.387 . S
C589 C591 1.390 . S
C589 H593 0.950 . S
H590 C586 0.950 . S
C591 C589 1.390 . S
C591 C592 1.387 . S
C591 H594 0.950 . S
C592 C591 1.387 . S
C592 C595 1.387 . S
H593 C589 0.950 . S
H594 C591 0.950 . S
C595 C586 1.390 . S
C595 H588 0.950 . S
C595 C592 1.387 . S
C596 C597 1.387 . S
C596 H600 0.950 . S
C596 C605 1.390 . S
C597 C596 1.387 . S
C597 C599 1.387 . S
H598 C605 0.950 . S
C599 C597 1.387 . S
C599 C601 1.390 . S
C599 H603 0.950 1_545 S
H600 C596 0.950 . S
C601 C599 1.390 . S
C601 C602 1.387 . S
C601 H604 0.950 1_545 S
C602 C601 1.387 . S
C602 C605 1.387 . S
H603 C599 0.950 1_565 S
H604 C601 0.950 1_565 S
C605 C596 1.390 . S
C605 H598 0.950 . S
C605 C602 1.387 . S
C606 C607 1.387 . S
C606 H610 0.950 . S
C606 C615 1.390 . S
C607 C606 1.387 . S
C607 C609 1.387 . S
H608 C615 0.950 . S
C609 C607 1.387 . S
C609 C611 1.390 . S
C609 H613 0.950 . S
H610 C606 0.950 . S
C611 C609 1.390 . S
C611 C612 1.387 . S
C611 H614 0.950 . S
C612 C611 1.387 . S
C612 C615 1.387 . S
H613 C609 0.950 . S
H614 C611 0.950 . S
C615 C606 1.390 . S
C615 H608 0.950 . S
C615 C612 1.387 . S
C616 C617 1.387 . S
C616 H620 0.950 . S
C616 C625 1.390 . S
C617 C616 1.387 . S
C617 C619 1.387 . S
H618 C625 0.950 . S
C619 C617 1.387 . S
C619 C621 1.390 . S
C619 H623 0.950 . S
H620 C616 0.950 . S
C621 C619 1.390 . S
C621 C622 1.387 . S
C621 H624 0.950 . S
C622 C621 1.387 . S
C622 C625 1.387 . S
H623 C619 0.950 . S
H624 C621 0.950 . S
C625 C616 1.390 . S
C625 H618 0.950 . S
C625 C622 1.387 . S
C626 C627 1.387 . S
C626 H630 0.950 1_565 S
C626 C635 1.390 . S
C627 C626 1.387 . S
C627 C629 1.387 . S
H628 C635 0.950 1_545 S
C629 C627 1.387 . S
C629 C631 1.390 . S
C629 H633 0.950 . S
H630 C626 0.950 1_545 S
C631 C629 1.390 . S
C631 C632 1.387 . S
C631 H634 0.950 . S
C632 C631 1.387 . S
C632 C635 1.387 . S
H633 C629 0.950 . S
H634 C631 0.950 . S
C635 C626 1.390 . S
C635 H628 0.950 1_565 S
C635 C632 1.387 . S
C636 C637 1.387 . S
C636 H640 0.950 . S
C636 C645 1.390 . S
C637 C636 1.387 . S
C637 C639 1.387 . S
H638 C645 0.950 . S
C639 C637 1.387 . S
C639 C641 1.390 . S
C639 H643 0.950 . S
H640 C636 0.950 . S
C641 C639 1.390 . S
C641 C642 1.387 . S
C641 H644 0.950 . S
C642 C641 1.387 . S
C642 C645 1.387 . S
H643 C639 0.950 . S
H644 C641 0.950 . S
C645 C636 1.390 . S
C645 H638 0.950 . S
C645 C642 1.387 . S
C646 C647 1.387 . S
C646 H650 0.950 . S
C646 C655 1.390 . S
C647 C646 1.387 . S
C647 C649 1.387 1_655 S
H648 C655 0.950 . S
C649 C647 1.387 1_455 S
C649 C651 1.390 . S
C649 H653 0.950 . S
H650 C646 0.950 . S
C651 C649 1.390 . S
C651 C652 1.387 . S
C651 H654 0.950 . S
C652 C651 1.387 . S
C652 C655 1.387 1_455 S
H653 C649 0.950 . S
H654 C651 0.950 . S
C655 C646 1.390 . S
C655 H648 0.950 . S
C655 C652 1.387 1_655 S
C656 C657 1.387 . S
C656 H660 0.950 . S
C656 C665 1.390 1_566 S
C657 C656 1.387 . S
C657 C659 1.387 . S
H658 C665 0.950 . S
C659 C657 1.387 . S
C659 C661 1.390 1_566 S
C659 H663 0.950 . S
H660 C656 0.950 . S
C661 C659 1.390 1_544 S
C661 C662 1.387 . S
C661 H664 0.950 . S
C662 C661 1.387 . S
C662 C665 1.387 . S
H663 C659 0.950 . S
H664 C661 0.950 . S
C665 C656 1.390 1_544 S
C665 H658 0.950 . S
C665 C662 1.387 . S
C666 C667 1.387 . S
C666 H670 0.950 . S
C666 C675 1.390 . S
C667 C666 1.387 . S
C667 C669 1.387 . S
H668 C675 0.950 . S
C669 C667 1.387 . S
C669 C671 1.390 . S
C669 H673 0.950 . S
H670 C666 0.950 . S
C671 C669 1.390 . S
C671 C672 1.387 . S
C671 H674 0.950 . S
C672 C671 1.387 . S
C672 C675 1.387 . S
H673 C669 0.950 . S
H674 C671 0.950 . S
C675 C666 1.390 . S
C675 H668 0.950 . S
C675 C672 1.387 . S
C676 C677 1.387 1_655 S
C676 H680 0.950 . S
C676 C685 1.390 . S
C677 C676 1.387 1_455 S
C677 C679 1.387 . S
H678 C685 0.950 . S
C679 C677 1.387 . S
C679 C681 1.390 . S
C679 H683 0.950 . S
H680 C676 0.950 . S
C681 C679 1.390 . S
C681 C682 1.387 1_455 S
C681 H684 0.950 . S
C682 C681 1.387 1_655 S
C682 C685 1.387 . S
H683 C679 0.950 . S
H684 C681 0.950 . S
C685 C676 1.390 . S
C685 H678 0.950 . S
C685 C682 1.387 . S
C686 C687 1.387 . S
C686 H690 0.950 . S
C686 C695 1.390 1_565 S
C687 C686 1.387 . S
C687 C689 1.387 . S
H688 C695 0.950 . S
C689 C687 1.387 . S
C689 C691 1.390 1_565 S
C689 H693 0.950 . S
H690 C686 0.950 . S
C691 C689 1.390 1_545 S
C691 C692 1.387 . S
C691 H694 0.950 . S
C692 C691 1.387 . S
C692 C695 1.387 . S
H693 C689 0.950 . S
H694 C691 0.950 . S
C695 C686 1.390 1_545 S
C695 H688 0.950 . S
C695 C692 1.387 . S
C397 C282 1.235 . S
C402 C18 1.236 . S
C407 C51 1.238 . S
C412 C315 1.238 . S
C417 C84 1.238 . S
C422 C348 1.238 . S
C427 C117 1.234 . S
C432 C381 1.235 . S
C437 C150 1.234 . S
C442 C216 1.234 . S
C447 C183 1.238 . S
C452 C249 1.238 . S
C457 N13 1.821 . S
C462 C172 1.774 . S
C467 C7 1.773 . S
C472 N46 1.822 . S
C477 N79 1.821 . S
C482 C40 1.774 . S
C487 C73 1.776 . S
C492 N112 1.821 . S
C497 C106 1.776 . S
C502 N145 1.821 . S
C507 N178 1.822 . S
C512 C139 1.773 . S
C517 C238 1.775 . S
C522 N211 1.821 . S
C527 C271 1.773 . S
C532 N244 1.821 . S
C537 C304 1.775 . S
C542 N277 1.822 . S
C547 C337 1.773 . S
C552 N310 1.822 . S
C557 C370 1.773 . S
C562 N343 1.821 . S
C567 N376 1.821 . S
C572 C205 1.774 . S
C577 C21 1.398 . S
C582 C219 1.398 . S
C587 C54 1.398 . S
C592 C252 1.398 . S
C597 C87 1.397 . S
C602 C285 1.397 . S
C607 C120 1.398 . S
C612 C318 1.398 . S
C617 C351 1.398 . S
C622 C153 1.398 . S
C627 C186 1.399 . S
C632 C384 1.399 . S
C637 N299 0.903 . S
C642 N2 0.905 . S
C647 N35 0.912 1_655 S
C652 N332 0.910 1_455 S
C657 N68 0.903 1_565 S
C662 N365 0.903 1_545 S
C667 N101 0.911 . S
C672 N200 0.912 . S
C677 N134 0.903 1_455 S
C682 N233 0.904 1_655 S
C687 N266 0.903 1_565 S
C692 N167 0.903 1_545 S
