# Generated by pormake.
# Topology smu, (6)-cn, num edge types: 1
# Building blocks:
#     Node 0, Type 0, BuildingBlock: BETDEL_clean_sbu_0, # of connection points: 6
#     Node 1, Type 0, BuildingBlock: BETDEL_clean_sbu_0, # of connection points: 6
#     Node 2, Type 0, BuildingBlock: BETDEL_clean_sbu_0, # of connection points: 6
#     Node 3, Type 0, BuildingBlock: BETDEL_clean_sbu_0, # of connection points: 6
#     Node 4, Type 0, BuildingBlock: BETDEL_clean_sbu_0, # of connection points: 6
#     Node 5, Type 0, BuildingBlock: BETDEL_clean_sbu_0, # of connection points: 6
#     Edge 6, Type (0, 0), BuildingBlock: AJUNOK_clean_linker_0, # of connection points: 2
#     Edge 7, Type (0, 0), BuildingBlock: AJUNOK_clean_linker_0, # of connection points: 2
#     Edge 8, Type (0, 0), BuildingBlock: AJUNOK_clean_linker_0, # of connection points: 2
#     Edge 9, Type (0, 0), BuildingBlock: AJUNOK_clean_linker_0, # of connection points: 2
#     Edge 10, Type (0, 0), BuildingBlock: AJUNOK_clean_linker_0, # of connection points: 2
#     Edge 11, Type (0, 0), BuildingBlock: AJUNOK_clean_linker_0, # of connection points: 2
#     Edge 12, Type (0, 0), BuildingBlock: AJUNOK_clean_linker_0, # of connection points: 2
#     Edge 13, Type (0, 0), BuildingBlock: AJUNOK_clean_linker_0, # of connection points: 2
#     Edge 14, Type (0, 0), BuildingBlock: AJUNOK_clean_linker_0, # of connection points: 2
#     Edge 15, Type (0, 0), BuildingBlock: AJUNOK_clean_linker_0, # of connection points: 2
#     Edge 16, Type (0, 0), BuildingBlock: AJUNOK_clean_linker_0, # of connection points: 2
#     Edge 17, Type (0, 0), BuildingBlock: AJUNOK_clean_linker_0, # of connection points: 2
#     Edge 18, Type (0, 0), BuildingBlock: AJUNOK_clean_linker_0, # of connection points: 2
#     Edge 19, Type (0, 0), BuildingBlock: AJUNOK_clean_linker_0, # of connection points: 2
#     Edge 20, Type (0, 0), BuildingBlock: AJUNOK_clean_linker_0, # of connection points: 2
#     Edge 21, Type (0, 0), BuildingBlock: AJUNOK_clean_linker_0, # of connection points: 2
#     Edge 22, Type (0, 0), BuildingBlock: AJUNOK_clean_linker_0, # of connection points: 2
#     Edge 23, Type (0, 0), BuildingBlock: AJUNOK_clean_linker_0, # of connection points: 2
# Relax obj value: 0.197
# Max RMSD: 0.273
# Mean RMSD: 0.273
data_MOF--net-smu--node1-BETDEL_clean_sbu_0--edge1-AJUNOK_clean_linker_0
_symmetry_space_group_name_H-M    P1
_symmetry_Int_Tables_number       1
_symmetry_cell_setting            triclinic
loop_
_symmetry_equiv_pos_as_xyz
'x, y, z'
_cell_length_a     23.930064
_cell_length_b     23.72524
_cell_length_c     19.266726
_cell_angle_alpha  88.957101
_cell_angle_beta   90.550653
_cell_angle_gamma 120.3161
loop_
_atom_site_label
_atom_site_type_symbol
_atom_site_fract_x
_atom_site_fract_y
_atom_site_fract_z
_atom_type_partial_charge
Dy0 Dy 0.39781 0.0953 0.30716 0.0
C1 C 0.23579 0.19092 0.37453 0.0
C2 C 0.52099 0.12007 0.29396 0.0
Dy3 Dy 0.29956 0.12709 0.34066 0.0
O4 O 0.47398 0.08306 0.25127 0.0
O5 O 0.49928 0.1402 0.34326 0.0
O6 O 0.37395 0.02464 0.39178 0.0
O7 O 0.36138 0.1058 0.41033 0.0
C8 C 0.35348 0.05137 0.43478 0.0
C9 C 0.29448 0.09428 0.20572 0.0
O10 O 0.38659 0.22362 0.35953 0.0
O11 O 0.4463 0.20377 0.28414 0.0
O12 O 0.2194 0.13194 0.3956 0.0
O13 O 0.28528 0.21297 0.33394 0.0
O14 O 0.24479 0.08431 0.24149 0.0
O15 O 0.34511 0.12769 0.24144 0.0
O16 O 0.30611 0.99968 0.28243 0.0
O17 O 0.24436 0.02061 0.35894 0.0
C18 C 0.4368 0.24566 0.31862 0.0
C19 C 0.2522 0.97995 0.31957 0.0
Dy20 Dy 0.71677 0.63651 0.29056 0.0
C21 C 0.98589 0.8089 0.29 0.0
C22 C 0.59587 0.52807 0.2759 0.0
Dy23 Dy 0.85436 0.73854 0.27991 0.0
O24 O 0.61684 0.56397 0.33077 0.0
O25 O 0.63831 0.55665 0.22693 0.0
O26 O 0.73148 0.62057 0.40304 0.0
O27 O 0.78154 0.71395 0.36182 0.0
C28 C 0.76894 0.68166 0.41797 0.0
C29 C 0.79037 0.71361 0.15852 0.0
O30 O 0.86547 0.65491 0.31188 0.0
O31 O 0.765 0.57557 0.27864 0.0
O32 O 0.95397 0.78542 0.2329 0.0
O33 O 0.94593 0.79778 0.34061 0.0
O34 O 0.83782 0.77044 0.17581 0.0
O35 O 0.78368 0.67087 0.20378 0.0
O36 O 0.71075 0.7295 0.26991 0.0
O37 O 0.81778 0.80494 0.29948 0.0
C38 C 0.82527 0.59411 0.2966 0.0
C39 C 0.7585 0.79086 0.28248 0.0
Dy40 Dy 0.94631 0.3137 0.30009 0.0
C41 C 0.83764 0.05696 0.28603 0.0
C42 C 0.93237 0.42089 0.27431 0.0
Dy43 Dy 0.90673 0.19055 0.28703 0.0
O44 O 0.97575 0.4201 0.31493 0.0
O45 O 0.90126 0.36521 0.24395 0.0
O46 O 0.99493 0.34083 0.39897 0.0
O47 O 0.91408 0.24171 0.38832 0.0
C48 C 0.96136 0.28312 0.42716 0.0
C49 C 0.98432 0.25214 0.17795 0.0
O50 O 0.81987 0.18668 0.24324 0.0
O51 O 0.83839 0.2631 0.32017 0.0
O52 O 0.88951 0.09437 0.25101 0.0
O53 O 0.8244 0.09231 0.32553 0.0
O54 O 0.97886 0.20114 0.20951 0.0
O55 O 0.9436 0.26666 0.20184 0.0
O56 O 0.04346 0.3157 0.29724 0.0
O57 O 0.99334 0.21281 0.34413 0.0
C58 C 0.79766 0.21702 0.27858 0.0
C59 C 0.04682 0.26669 0.32822 0.0
Dy60 Dy 0.06296 0.30611 0.80163 0.0
C61 C 0.33076 0.47836 0.7701 0.0
C62 C 0.94173 0.20419 0.77711 0.0
Dy63 Dy 0.19882 0.39933 0.78153 0.0
O64 O 0.95957 0.23776 0.8342 0.0
O65 O 0.98811 0.23201 0.73204 0.0
O66 O 0.08375 0.26722 0.89686 0.0
O67 O 0.13686 0.36798 0.87808 0.0
C68 C 0.12419 0.32312 0.92303 0.0
C69 C 0.12289 0.3489 0.6655 0.0
O70 O 0.20653 0.31676 0.81897 0.0
O71 O 0.11039 0.24738 0.76904 0.0
O72 O 0.28822 0.48271 0.73119 0.0
O73 O 0.30092 0.43399 0.81769 0.0
O74 O 0.17718 0.34988 0.67394 0.0
O75 O 0.11302 0.37144 0.71826 0.0
O76 O 0.06002 0.40039 0.8148 0.0
O77 O 0.17227 0.4712 0.81503 0.0
C78 C 0.16692 0.25951 0.79446 0.0
C79 C 0.11244 0.45998 0.82163 0.0
Dy80 Dy 0.28515 0.99047 0.81298 0.0
C81 C 0.17239 0.72455 0.84184 0.0
C82 C 0.29223 0.1061 0.7773 0.0
Dy83 Dy 0.22695 0.85791 0.8271 0.0
O84 O 0.32009 0.09636 0.83053 0.0
O85 O 0.2677 0.05464 0.73932 0.0
O86 O 0.33471 1.01001 0.91307 0.0
O87 O 0.23796 0.93145 0.90748 0.0
C88 C 0.28596 0.96566 0.948 0.0
C89 C 0.24684 0.90634 0.69315 0.0
O90 O 0.14627 0.86347 0.86994 0.0
O91 O 0.17608 0.94687 0.79449 0.0
O92 O 0.15466 0.75419 0.79762 0.0
O93 O 0.22093 0.76795 0.8777 0.0
O94 O 0.19156 0.8598 0.71528 0.0
O95 O 0.286 0.92396 0.74175 0.0
O96 O 0.37402 0.98147 0.79378 0.0
O97 O 0.32747 0.88262 0.85152 0.0
C98 C 0.13004 0.89837 0.83134 0.0
C99 C 0.37911 0.93336 0.82437 0.0
Dy100 Dy 0.75105 0.77391 0.76996 0.0
C101 C 0.56987 0.85544 0.78819 0.0
C102 C 0.85926 0.76387 0.7537 0.0
Dy103 Dy 0.64985 0.80483 0.77248 0.0
O104 O 0.81449 0.73325 0.79986 0.0
O105 O 0.83934 0.79231 0.71036 0.0
O106 O 0.77808 0.80892 0.87776 0.0
O107 O 0.68031 0.75538 0.85279 0.0
C108 C 0.72011 0.77945 0.90295 0.0
C109 C 0.68703 0.78779 0.64345 0.0
O110 O 0.72882 0.89597 0.81665 0.0
O111 O 0.80491 0.88417 0.75971 0.0
O112 O 0.61049 0.86978 0.73766 0.0
O113 O 0.57155 0.81194 0.82859 0.0
O114 O 0.62729 0.76432 0.66228 0.0
O115 O 0.72195 0.81952 0.69331 0.0
O116 O 0.65909 0.67575 0.7424 0.0
O117 O 0.58481 0.70075 0.78728 0.0
C118 C 0.78699 0.92176 0.79071 0.0
C119 C 0.59856 0.65839 0.76166 0.0
C120 C 0.33832 1.01704 0.05968 0.0
C121 C 0.28091 0.98443 1.02011 0.0
C122 C 0.34256 0.05278 0.11891 0.0
C123 C 0.28944 0.05739 0.14162 0.0
H124 H 0.3816 1.01751 1.04269 0.0
H125 H 0.38813 0.07761 0.1466 0.0
S126 S 0.12676 0.9789 0.05895 0.0
N127 N 0.16898 0.9576 1.00968 0.0
N128 N 0.17638 0.02398 0.1212 0.0
C129 C 0.23096 0.02331 0.10397 0.0
C130 C 0.22668 0.98674 1.04353 0.0
C131 C 0.67714 0.69411 0.57304 0.0
C132 C 0.70992 0.76131 0.58722 0.0
C133 C 0.69901 0.66809 0.52176 0.0
C134 C 0.75456 0.70823 0.48137 0.0
H135 H 0.63466 0.66083 0.60236 0.0
H136 H 0.67059 0.61619 0.51225 0.0
S137 S 0.86034 0.88744 0.50047 0.0
N138 N 0.80322 0.86706 0.55933 0.0
N139 N 0.84333 0.81898 0.46174 0.0
C140 C 0.78887 0.77542 0.49642 0.0
C141 C 0.76698 0.80165 0.54951 0.0
C142 C 1.02495 0.32641 0.07104 0.0
C143 C 0.03085 0.28442 0.11924 0.0
C144 C 0.06314 0.34779 1.01015 0.0
C145 C 0.10883 0.32839 0.99593 0.0
H146 H 0.9879 0.33923 0.07799 0.0
H147 H 0.05258 0.37456 0.97112 0.0
S148 S 0.15074 0.22849 0.11043 0.0
N149 N 0.0926 0.23191 0.15202 0.0
N150 N 0.16282 0.27179 1.03841 0.0
C151 C 0.11917 0.29183 0.04664 0.0
C152 C 0.0805 0.26983 0.10798 0.0
C153 C 0.27562 1.01955 0.53705 0.0
C154 C 0.32736 1.01881 0.50351 0.0
C155 C 0.24531 0.97903 0.59606 0.0
C156 C 0.26583 0.93667 0.62303 0.0
H157 H 0.2576 0.05026 0.5168 0.0
H158 H 0.20689 0.98212 0.62171 0.0
S159 S 0.39829 0.91601 0.5549 0.0
N160 N 0.39711 0.97144 0.50296 0.0
N161 N 0.34044 0.89683 0.61221 0.0
C162 C 0.31708 0.93575 0.58996 0.0
C163 C 0.34772 0.97636 0.53075 0.0
C164 C 0.7014 0.76291 1.03179 0.0
C165 C 0.71228 0.74164 0.96863 0.0
C166 C 0.71631 0.74324 0.0955 0.0
C167 C 0.74712 0.7058 0.09844 0.0
H168 H 0.68531 0.79817 1.03199 0.0
H169 H 0.70777 0.76152 0.14256 0.0
S170 S 0.76735 0.62168 0.94943 0.0
N171 N 0.73843 0.66595 0.91457 0.0
N172 N 0.77377 0.63611 1.03356 0.0
C173 C 0.75054 0.67772 1.03654 0.0
C174 C 0.73193 0.69457 0.97186 0.0
C175 C 0.98492 0.32263 0.54625 0.0
C176 C 0.97836 0.27464 0.49971 0.0
C177 C 0.03113 0.34484 0.5996 0.0
C178 C 0.07383 0.32076 0.6089 0.0
H179 H 0.95832 0.34792 0.5372 0.0
H180 H 0.03557 0.38391 0.63177 0.0
S181 S 0.06516 0.18172 0.51523 0.0
N182 N 1.00936 0.19332 0.47752 0.0
N183 N 0.09838 0.2375 0.57598 0.0
C184 C 0.06398 0.2684 0.56763 0.0
C185 C 1.01547 0.24451 0.51391 0.0
C186 C 0.63464 0.19203 0.33191 0.0
C187 C 0.59084 0.14339 0.28664 0.0
C188 C 0.70139 0.21682 0.32758 0.0
C189 C 0.72726 0.19368 0.2781 0.0
H190 H 0.61735 0.21142 0.37143 0.0
H191 H 0.73272 0.2536 0.36421 0.0
S192 S 0.63355 0.06824 0.14535 0.0
N193 N 0.57802 0.07448 0.18926 0.0
N194 N 0.70367 0.12031 0.18094 0.0
C195 C 0.68407 0.14564 0.23156 0.0
C196 C 0.61584 0.12067 0.23587 0.0
C197 C 0.50204 0.42922 0.33063 0.0
C198 C 0.5508 0.45626 0.27984 0.0
C199 C 0.4657 0.36135 0.34274 0.0
C200 C 0.47752 0.31761 0.30561 0.0
H201 H 0.49259 0.46086 0.36214 0.0
H202 H 0.42848 0.34323 0.38229 0.0
S203 S 0.60214 0.36408 0.16861 0.0
N204 N 0.60971 0.43405 0.19252 0.0
N205 N 0.54274 0.30725 0.21618 0.0
C206 C 0.52633 0.34421 0.2546 0.0
C207 C 0.56251 0.4132 0.24145 0.0
C208 C 0.84851 0.45199 0.24655 0.0
C209 C 0.90836 0.46784 0.27747 0.0
C210 C 0.82069 0.49154 0.25474 0.0
C211 C 0.85175 0.54894 0.29387 0.0
H212 H 0.82223 0.40797 0.21651 0.0
H213 H 0.77503 0.47748 0.22928 0.0
S214 S 1.00906 0.6118 0.3865 0.0
N215 N 0.99723 0.54446 0.34941 0.0
N216 N 0.94597 0.61891 0.36485 0.0
C217 C 0.91173 0.56519 0.32517 0.0
C218 C 0.93976 0.52476 0.31692 0.0
C219 C 0.08609 0.5462 0.78902 0.0
C220 C 0.10804 0.51796 0.83893 0.0
C221 C 0.10406 0.61252 0.79259 0.0
C222 C 0.14521 0.65276 0.84565 0.0
H223 H 0.05947 0.51856 0.74408 0.0
H224 H 0.08896 0.6333 0.75108 0.0
S225 S 0.2077 0.59896 0.99396 0.0
N226 N 0.16664 0.53284 0.94689 0.0
N227 N 0.20065 0.65702 0.95343 0.0
C228 C 0.16311 0.62353 0.89859 0.0
C229 C 0.14441 0.55621 0.89522 0.0
C230 C 0.44387 0.88536 0.86828 0.0
C231 C 0.43785 0.92753 0.82028 0.0
C232 C 0.48788 0.864 0.85804 0.0
C233 C 0.52824 0.88411 0.79952 0.0
H234 H 0.41201 0.86601 0.91286 0.0
H235 H 0.48873 0.82974 0.8954 0.0
S236 S 0.53938 1.00239 0.66375 0.0
N237 N 0.48112 0.99429 0.71572 0.0
N238 N 0.5651 0.95475 0.69682 0.0
C239 C 0.52639 0.93004 0.75355 0.0
C240 C 0.48107 0.95183 0.76398 0.0
C241 C 0.44358 0.5124 0.81059 0.0
C242 C 0.40212 0.51469 0.75956 0.0
C243 C 0.51137 0.55206 0.80514 0.0
C244 C 0.54029 0.59469 0.74801 0.0
H245 H 0.42353 0.48289 0.8572 0.0
H246 H 0.54084 0.55424 0.84921 0.0
S247 S 0.45327 0.61145 0.59555 0.0
N248 N 0.39513 0.557 0.64622 0.0
N249 N 0.5216 0.63136 0.6363 0.0
C250 C 0.49923 0.5924 0.69381 0.0
C251 C 0.43043 0.55274 0.69961 0.0
C252 C 0.13712 0.17785 0.32321 0.0
C253 C 0.19009 0.21405 0.3663 0.0
C254 C 0.09529 0.2002 0.30581 0.0
C255 C 0.10423 0.25965 0.33093 0.0
H256 H 0.12798 0.1318 0.30234 0.0
H257 H 0.05315 0.16832 0.27517 0.0
S258 S 0.23595 0.37202 0.44743 0.0
N259 N 0.25166 0.31281 0.43323 0.0
N260 N 0.16949 0.35361 0.40305 0.0
C261 C 0.15775 0.29712 0.3736 0.0
C262 C 0.20166 0.27459 0.39059 0.0
C263 C 0.09685 0.86273 0.23802 0.0
C264 C 0.05676 0.83989 0.29711 0.0
C265 C 0.16448 0.90028 0.24474 0.0
C266 C 0.19347 0.91619 0.3106 0.0
H267 H 0.07583 0.85526 0.18657 0.0
H268 H 0.19337 0.92224 0.1987 0.0
S269 S 0.11132 0.85349 0.47999 0.0
N270 N 0.05192 0.82462 0.42257 0.0
N271 N 0.17871 0.89534 0.43472 0.0
C272 C 0.15446 0.8862 0.36915 0.0
C273 C 0.08596 0.84848 0.36259 0.0
C274 C 0.76188 0.94342 0.33223 0.0
C275 C 0.79996 0.98554 0.27806 0.0
C276 C 0.73849 0.87575 0.32923 0.0
C277 C 0.75204 0.84874 0.27175 0.0
H278 H 0.75471 0.96327 0.37928 0.0
H279 H 0.71555 0.84569 0.37487 0.0
S280 S 0.84447 0.93891 0.11404 0.0
N281 N 0.84326 0.99492 0.16224 0.0
N282 N 0.80401 0.87023 0.15892 0.0
C283 C 0.78587 0.89041 0.21548 0.0
C284 C 0.8086 0.95831 0.21805 0.0
C285 C 0.18691 0.17936 0.73211 0.0
C286 C 0.19144 0.21374 0.79244 0.0
C287 C 0.22251 0.1472 0.72586 0.0
C288 C 0.26416 0.14912 0.77939 0.0
H289 H 0.15751 0.17909 0.68885 0.0
H290 H 0.217 0.12023 0.67905 0.0
S291 S 0.28929 0.22979 0.94949 0.0
N292 N 0.23768 0.24505 0.9079 0.0
N293 N 0.30547 0.18665 0.89561 0.0
C294 C 0.26833 0.18303 0.84007 0.0
C295 C 0.23154 0.21456 0.84678 0.0
C296 C 0.0412 0.87706 0.74728 0.0
C297 C 0.06067 0.86918 0.81415 0.0
C298 C 0.97625 0.83965 0.72624 0.0
C299 C 0.9287 0.79268 0.77106 0.0
H300 H 0.07652 0.91107 0.71035 0.0
H301 H 0.96301 0.84834 0.67489 0.0
S302 S 0.95481 0.75545 0.95265 0.0
N303 N 0.02695 0.81296 0.92594 0.0
N304 N 0.90603 0.74159 0.88598 0.0
C305 C 0.94787 0.78448 0.838 0.0
C306 C 1.01344 0.82321 0.85972 0.0
C307 C 0.85785 0.10051 0.83461 0.0
C308 C 0.89448 0.13316 0.77523 0.0
C309 C 0.82381 0.03201 0.83956 0.0
C310 C 0.82648 0.99375 0.7861 0.0
H311 H 0.85711 0.12802 0.8785 0.0
H312 H 0.7962 1.00882 0.88623 0.0
S313 S 0.90981 0.0547 0.61682 0.0
N314 N 0.92653 0.12132 0.65914 0.0
N315 N 0.86432 0.99307 0.6698 0.0
C316 C 0.86118 0.02556 0.72566 0.0
C317 C 0.89452 0.09511 0.71981 0.0
loop_
_geom_bond_atom_site_label_1
_geom_bond_atom_site_label_2
_geom_bond_distance
_geom_bond_site_symmetry_2
_ccdc_geom_bond_type
Dy0 O4 2.398 . S
Dy0 O5 2.491 . S
Dy0 O6 2.403 . S
Dy0 O7 2.664 . S
Dy0 O11 2.326 . S
Dy0 O15 2.310 . S
Dy0 O16 2.351 1_545 S
C1 O12 1.185 . S
C1 O13 1.355 . S
C2 O4 1.185 . S
C2 O5 1.355 . S
Dy3 O7 2.310 . S
Dy3 O10 2.351 . S
Dy3 O12 2.398 . S
Dy3 O13 2.491 . S
Dy3 O14 2.403 . S
Dy3 O15 2.664 . S
Dy3 O17 2.326 . S
O4 Dy0 2.398 . S
O4 C2 1.185 . S
O5 Dy0 2.491 . S
O5 C2 1.355 . S
O6 Dy0 2.403 . S
O6 C8 1.254 . S
O7 Dy0 2.664 . S
O7 Dy3 2.310 . S
O7 C8 1.268 . S
C8 O6 1.254 . S
C8 O7 1.268 . S
C9 O14 1.254 . S
C9 O15 1.268 . S
O10 Dy3 2.351 . S
O10 C18 1.249 . S
O11 Dy0 2.326 . S
O11 C18 1.267 . S
O12 C1 1.185 . S
O12 Dy3 2.398 . S
O13 C1 1.355 . S
O13 Dy3 2.491 . S
O14 Dy3 2.403 . S
O14 C9 1.254 . S
O15 Dy0 2.310 . S
O15 Dy3 2.664 . S
O15 C9 1.268 . S
O16 Dy0 2.351 1_565 S
O16 C19 1.249 . S
O17 Dy3 2.326 . S
O17 C19 1.267 1_545 S
C18 O10 1.249 . S
C18 O11 1.267 . S
C19 O16 1.249 . S
C19 O17 1.267 1_565 S
Dy20 O24 2.398 . S
Dy20 O25 2.491 . S
Dy20 O26 2.403 . S
Dy20 O27 2.664 . S
Dy20 O31 2.326 . S
Dy20 O35 2.310 . S
Dy20 O36 2.351 . S
C21 O32 1.185 . S
C21 O33 1.355 . S
C22 O24 1.185 . S
C22 O25 1.355 . S
Dy23 O27 2.310 . S
Dy23 O30 2.351 . S
Dy23 O32 2.398 . S
Dy23 O33 2.491 . S
Dy23 O34 2.403 . S
Dy23 O35 2.664 . S
Dy23 O37 2.326 . S
O24 Dy20 2.398 . S
O24 C22 1.185 . S
O25 Dy20 2.491 . S
O25 C22 1.355 . S
O26 Dy20 2.403 . S
O26 C28 1.254 . S
O27 Dy20 2.664 . S
O27 Dy23 2.310 . S
O27 C28 1.268 . S
C28 O26 1.254 . S
C28 O27 1.268 . S
C29 O34 1.254 . S
C29 O35 1.268 . S
O30 Dy23 2.351 . S
O30 C38 1.249 . S
O31 Dy20 2.326 . S
O31 C38 1.267 . S
O32 C21 1.185 . S
O32 Dy23 2.398 . S
O33 C21 1.355 . S
O33 Dy23 2.491 . S
O34 Dy23 2.403 . S
O34 C29 1.254 . S
O35 Dy20 2.310 . S
O35 Dy23 2.664 . S
O35 C29 1.268 . S
O36 Dy20 2.351 . S
O36 C39 1.249 . S
O37 Dy23 2.326 . S
O37 C39 1.267 . S
C38 O30 1.249 . S
C38 O31 1.267 . S
C39 O36 1.249 . S
C39 O37 1.267 . S
Dy40 O44 2.398 . S
Dy40 O45 2.491 . S
Dy40 O46 2.403 . S
Dy40 O47 2.664 . S
Dy40 O51 2.326 . S
Dy40 O55 2.310 . S
Dy40 O56 2.351 1_655 S
C41 O52 1.185 . S
C41 O53 1.355 . S
C42 O44 1.185 . S
C42 O45 1.355 . S
Dy43 O47 2.310 . S
Dy43 O50 2.351 . S
Dy43 O52 2.398 . S
Dy43 O53 2.491 . S
Dy43 O54 2.403 . S
Dy43 O55 2.664 . S
Dy43 O57 2.326 . S
O44 Dy40 2.398 . S
O44 C42 1.185 . S
O45 Dy40 2.491 . S
O45 C42 1.355 . S
O46 Dy40 2.403 . S
O46 C48 1.254 . S
O47 Dy40 2.664 . S
O47 Dy43 2.310 . S
O47 C48 1.268 . S
C48 O46 1.254 . S
C48 O47 1.268 . S
C49 O54 1.254 . S
C49 O55 1.268 . S
O50 Dy43 2.351 . S
O50 C58 1.249 . S
O51 Dy40 2.326 . S
O51 C58 1.267 . S
O52 C41 1.185 . S
O52 Dy43 2.398 . S
O53 C41 1.355 . S
O53 Dy43 2.491 . S
O54 Dy43 2.403 . S
O54 C49 1.254 . S
O55 Dy40 2.310 . S
O55 Dy43 2.664 . S
O55 C49 1.268 . S
O56 Dy40 2.351 1_455 S
O56 C59 1.249 . S
O57 Dy43 2.326 . S
O57 C59 1.267 1_655 S
C58 O50 1.249 . S
C58 O51 1.267 . S
C59 O56 1.249 . S
C59 O57 1.267 1_455 S
Dy60 O64 2.398 1_455 S
Dy60 O65 2.491 1_455 S
Dy60 O66 2.403 . S
Dy60 O67 2.664 . S
Dy60 O71 2.326 . S
Dy60 O75 2.310 . S
Dy60 O76 2.351 . S
C61 O72 1.185 . S
C61 O73 1.355 . S
C62 O64 1.185 . S
C62 O65 1.355 . S
Dy63 O67 2.310 . S
Dy63 O70 2.351 . S
Dy63 O72 2.398 . S
Dy63 O73 2.491 . S
Dy63 O74 2.403 . S
Dy63 O75 2.664 . S
Dy63 O77 2.326 . S
O64 Dy60 2.398 1_655 S
O64 C62 1.185 . S
O65 Dy60 2.491 1_655 S
O65 C62 1.355 . S
O66 Dy60 2.403 . S
O66 C68 1.254 . S
O67 Dy60 2.664 . S
O67 Dy63 2.310 . S
O67 C68 1.268 . S
C68 O66 1.254 . S
C68 O67 1.268 . S
C69 O74 1.254 . S
C69 O75 1.268 . S
O70 Dy63 2.351 . S
O70 C78 1.249 . S
O71 Dy60 2.326 . S
O71 C78 1.267 . S
O72 C61 1.185 . S
O72 Dy63 2.398 . S
O73 C61 1.355 . S
O73 Dy63 2.491 . S
O74 Dy63 2.403 . S
O74 C69 1.254 . S
O75 Dy60 2.310 . S
O75 Dy63 2.664 . S
O75 C69 1.268 . S
O76 Dy60 2.351 . S
O76 C79 1.249 . S
O77 Dy63 2.326 . S
O77 C79 1.267 . S
C78 O70 1.249 . S
C78 O71 1.267 . S
C79 O76 1.249 . S
C79 O77 1.267 . S
Dy80 O84 2.398 1_565 S
Dy80 O85 2.491 1_565 S
Dy80 O86 2.403 . S
Dy80 O87 2.664 . S
Dy80 O91 2.326 . S
Dy80 O95 2.310 . S
Dy80 O96 2.351 . S
C81 O92 1.185 . S
C81 O93 1.355 . S
C82 O84 1.185 . S
C82 O85 1.355 . S
Dy83 O87 2.310 . S
Dy83 O90 2.351 . S
Dy83 O92 2.398 . S
Dy83 O93 2.491 . S
Dy83 O94 2.403 . S
Dy83 O95 2.664 . S
Dy83 O97 2.326 . S
O84 Dy80 2.398 1_545 S
O84 C82 1.185 . S
O85 Dy80 2.491 1_545 S
O85 C82 1.355 . S
O86 Dy80 2.403 . S
O86 C88 1.254 . S
O87 Dy80 2.664 . S
O87 Dy83 2.310 . S
O87 C88 1.268 . S
C88 O86 1.254 . S
C88 O87 1.268 . S
C89 O94 1.254 . S
C89 O95 1.268 . S
O90 Dy83 2.351 . S
O90 C98 1.249 . S
O91 Dy80 2.326 . S
O91 C98 1.267 . S
O92 C81 1.185 . S
O92 Dy83 2.398 . S
O93 C81 1.355 . S
O93 Dy83 2.491 . S
O94 Dy83 2.403 . S
O94 C89 1.254 . S
O95 Dy80 2.310 . S
O95 Dy83 2.664 . S
O95 C89 1.268 . S
O96 Dy80 2.351 . S
O96 C99 1.249 . S
O97 Dy83 2.326 . S
O97 C99 1.267 . S
C98 O90 1.249 . S
C98 O91 1.267 . S
C99 O96 1.249 . S
C99 O97 1.267 . S
Dy100 O104 2.398 . S
Dy100 O105 2.491 . S
Dy100 O106 2.403 . S
Dy100 O107 2.664 . S
Dy100 O111 2.326 . S
Dy100 O115 2.310 . S
Dy100 O116 2.351 . S
C101 O112 1.185 . S
C101 O113 1.355 . S
C102 O104 1.185 . S
C102 O105 1.355 . S
Dy103 O107 2.310 . S
Dy103 O110 2.351 . S
Dy103 O112 2.398 . S
Dy103 O113 2.491 . S
Dy103 O114 2.403 . S
Dy103 O115 2.664 . S
Dy103 O117 2.326 . S
O104 Dy100 2.398 . S
O104 C102 1.185 . S
O105 Dy100 2.491 . S
O105 C102 1.355 . S
O106 Dy100 2.403 . S
O106 C108 1.254 . S
O107 Dy100 2.664 . S
O107 Dy103 2.310 . S
O107 C108 1.268 . S
C108 O106 1.254 . S
C108 O107 1.268 . S
C109 O114 1.254 . S
C109 O115 1.268 . S
O110 Dy103 2.351 . S
O110 C118 1.249 . S
O111 Dy100 2.326 . S
O111 C118 1.267 . S
O112 C101 1.185 . S
O112 Dy103 2.398 . S
O113 C101 1.355 . S
O113 Dy103 2.491 . S
O114 Dy103 2.403 . S
O114 C109 1.254 . S
O115 Dy100 2.310 . S
O115 Dy103 2.664 . S
O115 C109 1.268 . S
O116 Dy100 2.351 . S
O116 C119 1.249 . S
O117 Dy103 2.326 . S
O117 C119 1.267 . S
C118 O110 1.249 . S
C118 O111 1.267 . S
C119 O116 1.249 . S
C119 O117 1.267 . S
C120 C121 1.369 1_554 S
C120 C122 1.419 . S
C120 H124 0.930 . S
C121 C120 1.369 1_556 S
C121 C130 1.429 1_565 S
C122 C120 1.419 . S
C122 C123 1.363 1_565 S
C122 H125 0.929 . S
C123 C122 1.363 1_545 S
C123 C129 1.428 1_554 S
H124 C120 0.930 . S
H125 C122 0.929 . S
S126 N127 1.613 . S
S126 N128 1.610 . S
N127 S126 1.613 . S
N127 C130 1.350 . S
N128 S126 1.610 . S
N128 C129 1.351 . S
C129 C123 1.428 1_556 S
C129 N128 1.351 . S
C129 C130 1.434 . S
C130 C121 1.429 1_545 S
C130 N127 1.350 . S
C130 C129 1.434 . S
C131 C132 1.369 . S
C131 C133 1.419 . S
C131 H135 0.930 . S
C132 C131 1.369 . S
C132 C141 1.429 . S
C133 C131 1.419 . S
C133 C134 1.363 . S
C133 H136 0.929 . S
C134 C133 1.363 . S
C134 C140 1.428 . S
H135 C131 0.930 . S
H136 C133 0.929 . S
S137 N138 1.613 . S
S137 N139 1.610 . S
N138 S137 1.613 . S
N138 C141 1.350 . S
N139 S137 1.610 . S
N139 C140 1.351 . S
C140 C134 1.428 . S
C140 N139 1.351 . S
C140 C141 1.434 . S
C141 C132 1.429 . S
C141 N138 1.350 . S
C141 C140 1.434 . S
C142 C143 1.369 1_556 S
C142 C144 1.416 1_655 S
C142 H146 0.930 . S
C143 C142 1.369 1_554 S
C143 C152 1.429 1_655 S
C144 C142 1.416 1_455 S
C144 C145 1.367 . S
C144 H147 0.928 1_455 S
C145 C144 1.367 . S
C145 C151 1.428 1_556 S
H146 C142 0.930 . S
H147 C144 0.928 1_655 S
S148 N149 1.613 . S
S148 N150 1.610 . S
N149 S148 1.613 . S
N149 C152 1.350 . S
N150 S148 1.610 . S
N150 C151 1.351 . S
C151 C145 1.428 1_554 S
C151 N150 1.351 . S
C151 C152 1.434 . S
C152 C143 1.429 1_455 S
C152 N149 1.350 . S
C152 C151 1.434 . S
C153 C154 1.369 . S
C153 C155 1.419 . S
C153 H157 0.930 . S
C154 C153 1.369 . S
C154 C163 1.429 1_545 S
C155 C153 1.419 . S
C155 C156 1.363 1_545 S
C155 H158 0.929 . S
C156 C155 1.363 1_565 S
C156 C162 1.428 . S
H157 C153 0.930 . S
H158 C155 0.929 . S
S159 N160 1.613 . S
S159 N161 1.610 . S
N160 S159 1.613 . S
N160 C163 1.350 . S
N161 S159 1.610 . S
N161 C162 1.351 . S
C162 C156 1.428 . S
C162 N161 1.351 . S
C162 C163 1.434 . S
C163 C154 1.429 1_565 S
C163 N160 1.350 . S
C163 C162 1.434 . S
C164 C165 1.369 1_554 S
C164 C166 1.419 . S
C164 H168 0.930 . S
C165 C164 1.369 1_556 S
C165 C174 1.429 . S
C166 C164 1.419 . S
C166 C167 1.363 . S
C166 H169 0.929 . S
C167 C166 1.363 . S
C167 C173 1.428 1_554 S
H168 C164 0.930 . S
H169 C166 0.929 . S
S170 N171 1.613 . S
S170 N172 1.610 . S
N171 S170 1.613 . S
N171 C174 1.350 . S
N172 S170 1.610 . S
N172 C173 1.351 . S
C173 C167 1.428 1_556 S
C173 N172 1.351 . S
C173 C174 1.434 . S
C174 C165 1.429 . S
C174 N171 1.350 . S
C174 C173 1.434 . S
C175 C176 1.369 . S
C175 C177 1.419 1_655 S
C175 H179 0.930 . S
C176 C175 1.369 . S
C176 C185 1.429 . S
C177 C175 1.419 1_455 S
C177 C178 1.363 . S
C177 H180 0.929 . S
C178 C177 1.363 . S
C178 C184 1.428 . S
H179 C175 0.930 . S
H180 C177 0.929 . S
S181 N182 1.613 . S
S181 N183 1.610 1_655 S
N182 S181 1.613 . S
N182 C185 1.350 . S
N183 S181 1.610 1_455 S
N183 C184 1.351 . S
C184 C178 1.428 . S
C184 N183 1.351 . S
C184 C185 1.434 1_455 S
C185 C176 1.429 . S
C185 N182 1.350 . S
C185 C184 1.434 1_655 S
C186 C187 1.369 . S
C186 C188 1.419 . S
C186 H190 0.930 . S
C187 C186 1.369 . S
C187 C196 1.429 . S
C188 C186 1.419 . S
C188 C189 1.363 . S
C188 H191 0.929 . S
C189 C188 1.363 . S
C189 C195 1.428 . S
H190 C186 0.930 . S
H191 C188 0.929 . S
S192 N193 1.613 . S
S192 N194 1.610 . S
N193 S192 1.613 . S
N193 C196 1.350 . S
N194 S192 1.610 . S
N194 C195 1.351 . S
C195 C189 1.428 . S
C195 N194 1.351 . S
C195 C196 1.434 . S
C196 C187 1.429 . S
C196 N193 1.350 . S
C196 C195 1.434 . S
C197 C198 1.369 . S
C197 C199 1.419 . S
C197 H201 0.930 . S
C198 C197 1.369 . S
C198 C207 1.429 . S
C199 C197 1.419 . S
C199 C200 1.363 . S
C199 H202 0.929 . S
C200 C199 1.363 . S
C200 C206 1.428 . S
H201 C197 0.930 . S
H202 C199 0.929 . S
S203 N204 1.613 . S
S203 N205 1.610 . S
N204 S203 1.613 . S
N204 C207 1.350 . S
N205 S203 1.610 . S
N205 C206 1.351 . S
C206 C200 1.428 . S
C206 N205 1.351 . S
C206 C207 1.434 . S
C207 C198 1.429 . S
C207 N204 1.350 . S
C207 C206 1.434 . S
C208 C209 1.369 . S
C208 C210 1.419 . S
C208 H212 0.930 . S
C209 C208 1.369 . S
C209 C218 1.429 . S
C210 C208 1.419 . S
C210 C211 1.363 . S
C210 H213 0.929 . S
C211 C210 1.363 . S
C211 C217 1.428 . S
H212 C208 0.930 . S
H213 C210 0.929 . S
S214 N215 1.613 . S
S214 N216 1.610 . S
N215 S214 1.613 . S
N215 C218 1.350 . S
N216 S214 1.610 . S
N216 C217 1.351 . S
C217 C211 1.428 . S
C217 N216 1.351 . S
C217 C218 1.434 . S
C218 C209 1.429 . S
C218 N215 1.350 . S
C218 C217 1.434 . S
C219 C220 1.369 . S
C219 C221 1.419 . S
C219 H223 0.930 . S
C220 C219 1.369 . S
C220 C229 1.429 . S
C221 C219 1.419 . S
C221 C222 1.363 . S
C221 H224 0.929 . S
C222 C221 1.363 . S
C222 C228 1.428 . S
H223 C219 0.930 . S
H224 C221 0.929 . S
S225 N226 1.613 . S
S225 N227 1.610 . S
N226 S225 1.613 . S
N226 C229 1.350 . S
N227 S225 1.610 . S
N227 C228 1.351 . S
C228 C222 1.428 . S
C228 N227 1.351 . S
C228 C229 1.434 . S
C229 C220 1.429 . S
C229 N226 1.350 . S
C229 C228 1.434 . S
C230 C231 1.369 . S
C230 C232 1.419 . S
C230 H234 0.930 . S
C231 C230 1.369 . S
C231 C240 1.429 . S
C232 C230 1.419 . S
C232 C233 1.363 . S
C232 H235 0.929 . S
C233 C232 1.363 . S
C233 C239 1.428 . S
H234 C230 0.930 . S
H235 C232 0.929 . S
S236 N237 1.613 . S
S236 N238 1.610 . S
N237 S236 1.613 . S
N237 C240 1.350 . S
N238 S236 1.610 . S
N238 C239 1.351 . S
C239 C233 1.428 . S
C239 N238 1.351 . S
C239 C240 1.434 . S
C240 C231 1.429 . S
C240 N237 1.350 . S
C240 C239 1.434 . S
C241 C242 1.369 . S
C241 C243 1.419 . S
C241 H245 0.930 . S
C242 C241 1.369 . S
C242 C251 1.429 . S
C243 C241 1.419 . S
C243 C244 1.363 . S
C243 H246 0.929 . S
C244 C243 1.363 . S
C244 C250 1.428 . S
H245 C241 0.930 . S
H246 C243 0.929 . S
S247 N248 1.613 . S
S247 N249 1.610 . S
N248 S247 1.613 . S
N248 C251 1.350 . S
N249 S247 1.610 . S
N249 C250 1.351 . S
C250 C244 1.428 . S
C250 N249 1.351 . S
C250 C251 1.434 . S
C251 C242 1.429 . S
C251 N248 1.350 . S
C251 C250 1.434 . S
C252 C253 1.369 . S
C252 C254 1.419 . S
C252 H256 0.930 . S
C253 C252 1.369 . S
C253 C262 1.429 . S
C254 C252 1.419 . S
C254 C255 1.363 . S
C254 H257 0.929 1_455 S
C255 C254 1.363 . S
C255 C261 1.428 . S
H256 C252 0.930 . S
H257 C254 0.929 1_655 S
S258 N259 1.613 . S
S258 N260 1.610 . S
N259 S258 1.613 . S
N259 C262 1.350 . S
N260 S258 1.610 . S
N260 C261 1.351 . S
C261 C255 1.428 . S
C261 N260 1.351 . S
C261 C262 1.434 . S
C262 C253 1.429 . S
C262 N259 1.350 . S
C262 C261 1.434 . S
C263 C264 1.369 . S
C263 C265 1.419 . S
C263 H267 0.930 . S
C264 C263 1.369 . S
C264 C273 1.429 . S
C265 C263 1.419 . S
C265 C266 1.363 . S
C265 H268 0.929 1_565 S
C266 C265 1.363 . S
C266 C272 1.428 . S
H267 C263 0.930 . S
H268 C265 0.929 1_545 S
S269 N270 1.613 . S
S269 N271 1.610 . S
N270 S269 1.613 . S
N270 C273 1.350 . S
N271 S269 1.610 . S
N271 C272 1.351 . S
C272 C266 1.428 . S
C272 N271 1.351 . S
C272 C273 1.434 . S
C273 C264 1.429 . S
C273 N270 1.350 . S
C273 C272 1.434 . S
C274 C275 1.369 . S
C274 C276 1.419 . S
C274 H278 0.930 . S
C275 C274 1.369 . S
C275 C284 1.429 . S
C276 C274 1.419 . S
C276 C277 1.363 . S
C276 H279 0.929 . S
C277 C276 1.363 . S
C277 C283 1.428 . S
H278 C274 0.930 . S
H279 C276 0.929 . S
S280 N281 1.613 . S
S280 N282 1.610 . S
N281 S280 1.613 . S
N281 C284 1.350 . S
N282 S280 1.610 . S
N282 C283 1.351 . S
C283 C277 1.428 . S
C283 N282 1.351 . S
C283 C284 1.434 . S
C284 C275 1.429 . S
C284 N281 1.350 . S
C284 C283 1.434 . S
C285 C286 1.369 . S
C285 C287 1.419 . S
C285 H289 0.930 . S
C286 C285 1.369 . S
C286 C295 1.429 . S
C287 C285 1.419 . S
C287 C288 1.363 . S
C287 H290 0.929 . S
C288 C287 1.363 . S
C288 C294 1.428 . S
H289 C285 0.930 . S
H290 C287 0.929 . S
S291 N292 1.613 . S
S291 N293 1.610 . S
N292 S291 1.613 . S
N292 C295 1.350 . S
N293 S291 1.610 . S
N293 C294 1.351 . S
C294 C288 1.428 . S
C294 N293 1.351 . S
C294 C295 1.434 . S
C295 C286 1.429 . S
C295 N292 1.350 . S
C295 C294 1.434 . S
C296 C297 1.369 . S
C296 C298 1.419 1_455 S
C296 H300 0.930 . S
C297 C296 1.369 . S
C297 C306 1.429 . S
C298 C296 1.419 1_655 S
C298 C299 1.363 . S
C298 H301 0.929 . S
C299 C298 1.363 . S
C299 C305 1.428 . S
H300 C296 0.930 . S
H301 C298 0.929 . S
S302 N303 1.613 1_655 S
S302 N304 1.610 . S
N303 S302 1.613 1_455 S
N303 C306 1.350 . S
N304 S302 1.610 . S
N304 C305 1.351 . S
C305 C299 1.428 . S
C305 N304 1.351 . S
C305 C306 1.434 1_655 S
C306 C297 1.429 . S
C306 N303 1.350 . S
C306 C305 1.434 1_455 S
C307 C308 1.369 . S
C307 C309 1.419 1_545 S
C307 H311 0.930 . S
C308 C307 1.369 . S
C308 C317 1.429 . S
C309 C307 1.419 1_565 S
C309 C310 1.363 . S
C309 H312 0.929 . S
C310 C309 1.363 . S
C310 C316 1.428 . S
H311 C307 0.930 . S
H312 C309 0.929 . S
S313 N314 1.613 1_565 S
S313 N315 1.610 . S
N314 S313 1.613 1_545 S
N314 C317 1.350 . S
N315 S313 1.610 . S
N315 C316 1.351 . S
C316 C310 1.428 . S
C316 N315 1.351 . S
C316 C317 1.434 1_565 S
C317 C308 1.429 . S
C317 N314 1.350 . S
C317 C316 1.434 1_545 S
C121 C88 1.903 . S
C123 C9 2.221 . S
C132 C109 2.215 . S
C134 C28 1.936 . S
C143 C49 2.216 . S
C145 C68 1.914 . S
C154 C8 1.928 . S
C156 C89 2.216 . S
C165 C108 1.905 . S
C167 C29 2.222 . S
C176 C48 1.938 . S
C178 C69 2.215 . S
C187 C2 1.758 . S
C189 C58 1.676 . S
C198 C22 1.755 . S
C200 C18 1.681 . S
C209 C42 1.758 . S
C211 C38 1.676 . S
C220 C79 1.718 . S
C222 C81 1.615 . S
C231 C99 1.714 . S
C233 C101 1.617 . S
C242 C61 1.608 . S
C244 C119 1.719 . S
C253 C1 1.162 . S
C255 C59 1.252 . S
C264 C21 1.159 1_455 S
C266 C19 1.252 . S
C275 C41 1.168 1_565 S
C277 C39 1.244 . S
C286 C78 1.212 . S
C288 C82 1.281 . S
C297 C98 1.212 . S
C299 C102 1.280 . S
C308 C62 1.283 . S
C310 C118 1.213 . S
