# Generated by pormake.
# Topology whd, (6)-cn, num edge types: 1
# Building blocks:
#     Node 0, Type 0, BuildingBlock: IZENUY_clean_sbu_0, # of connection points: 6
#     Node 1, Type 0, BuildingBlock: IZENUY_clean_sbu_0, # of connection points: 6
#     Node 2, Type 0, BuildingBlock: IZENUY_clean_sbu_0, # of connection points: 6
#     Node 3, Type 0, BuildingBlock: IZENUY_clean_sbu_0, # of connection points: 6
#     Node 4, Type 0, BuildingBlock: IZENUY_clean_sbu_0, # of connection points: 6
#     Node 5, Type 0, BuildingBlock: IZENUY_clean_sbu_0, # of connection points: 6
#     Node 6, Type 0, BuildingBlock: IZENUY_clean_sbu_0, # of connection points: 6
#     Node 7, Type 0, BuildingBlock: IZENUY_clean_sbu_0, # of connection points: 6
#     Node 8, Type 0, BuildingBlock: IZENUY_clean_sbu_0, # of connection points: 6
#     Node 9, Type 0, BuildingBlock: IZENUY_clean_sbu_0, # of connection points: 6
#     Node 10, Type 0, BuildingBlock: IZENUY_clean_sbu_0, # of connection points: 6
#     Node 11, Type 0, BuildingBlock: IZENUY_clean_sbu_0, # of connection points: 6
#     Node 12, Type 0, BuildingBlock: IZENUY_clean_sbu_0, # of connection points: 6
#     Node 13, Type 0, BuildingBlock: IZENUY_clean_sbu_0, # of connection points: 6
#     Node 14, Type 0, BuildingBlock: IZENUY_clean_sbu_0, # of connection points: 6
#     Node 15, Type 0, BuildingBlock: IZENUY_clean_sbu_0, # of connection points: 6
#     Edge 16, Type (0, 0), None
#     Edge 17, Type (0, 0), None
#     Edge 18, Type (0, 0), None
#     Edge 19, Type (0, 0), None
#     Edge 20, Type (0, 0), None
#     Edge 21, Type (0, 0), None
#     Edge 22, Type (0, 0), None
#     Edge 23, Type (0, 0), None
#     Edge 24, Type (0, 0), None
#     Edge 25, Type (0, 0), None
#     Edge 26, Type (0, 0), None
#     Edge 27, Type (0, 0), None
#     Edge 28, Type (0, 0), None
#     Edge 29, Type (0, 0), None
#     Edge 30, Type (0, 0), None
#     Edge 31, Type (0, 0), None
#     Edge 32, Type (0, 0), None
#     Edge 33, Type (0, 0), None
#     Edge 34, Type (0, 0), None
#     Edge 35, Type (0, 0), None
#     Edge 36, Type (0, 0), None
#     Edge 37, Type (0, 0), None
#     Edge 38, Type (0, 0), None
#     Edge 39, Type (0, 0), None
#     Edge 40, Type (0, 0), None
#     Edge 41, Type (0, 0), None
#     Edge 42, Type (0, 0), None
#     Edge 43, Type (0, 0), None
#     Edge 44, Type (0, 0), None
#     Edge 45, Type (0, 0), None
#     Edge 46, Type (0, 0), None
#     Edge 47, Type (0, 0), None
#     Edge 48, Type (0, 0), None
#     Edge 49, Type (0, 0), None
#     Edge 50, Type (0, 0), None
#     Edge 51, Type (0, 0), None
#     Edge 52, Type (0, 0), None
#     Edge 53, Type (0, 0), None
#     Edge 54, Type (0, 0), None
#     Edge 55, Type (0, 0), None
#     Edge 56, Type (0, 0), None
#     Edge 57, Type (0, 0), None
#     Edge 58, Type (0, 0), None
#     Edge 59, Type (0, 0), None
#     Edge 60, Type (0, 0), None
#     Edge 61, Type (0, 0), None
#     Edge 62, Type (0, 0), None
#     Edge 63, Type (0, 0), None
# Relax obj value: 0.276
# Max RMSD: 0.228
# Mean RMSD: 0.228
data_MOF--net-whd--node1-IZENUY_clean_sbu_0--edge1-none
_symmetry_space_group_name_H-M    P1
_symmetry_Int_Tables_number       1
_symmetry_cell_setting            triclinic
loop_
_symmetry_equiv_pos_as_xyz
'x, y, z'
_cell_length_a     24.140865
_cell_length_b     24.197046
_cell_length_c     13.119827
_cell_angle_alpha  90.000938
_cell_angle_beta   90.0
_cell_angle_gamma 90.000002
loop_
_atom_site_label
_atom_site_type_symbol
_atom_site_fract_x
_atom_site_fract_y
_atom_site_fract_z
_atom_type_partial_charge
Fe0 Fe 0.17646 0.33763 0.35224 0.0
Fe1 Fe 0.14318 0.44651 0.44485 0.0
O2 O 0.19065 0.4082 0.37226 0.0
Fe3 Fe 0.25127 0.43894 0.31845 0.0
O4 O 0.24721 0.39668 0.2007 0.0
O5 O 0.16755 0.35182 0.218 0.0
O6 O 0.10117 0.34123 0.3671 0.0
C7 C 0.07042 0.38089 0.34256 0.0
C8 C 0.29267 0.33736 0.36668 0.0
O9 O 0.08604 0.42972 0.35871 0.0
C10 C 0.23916 0.49368 0.51173 0.0
O11 O 0.18594 0.32297 0.48709 0.0
O12 O 0.1282 0.38917 0.53215 0.0
O13 O 0.29894 0.38882 0.38149 0.0
O14 O 0.24743 0.31954 0.33231 0.0
C15 C 0.1717 0.51932 0.28429 0.0
O16 O 0.19742 0.46492 0.53352 0.0
O17 O 0.26152 0.48932 0.42429 0.0
C18 C 0.15884 0.34841 0.5548 0.0
O19 O 0.15061 0.51021 0.37081 0.0
O20 O 0.2105 0.48985 0.24977 0.0
C21 C 0.20416 0.37427 0.16254 0.0
Fe22 Fe 0.3357 0.86331 0.7235 0.0
Fe23 Fe 0.43756 0.78912 0.7576 0.0
O24 O 0.40651 0.84946 0.70372 0.0
Fe25 Fe 0.44478 0.897 0.6313 0.0
O26 O 0.42774 0.95385 0.71755 0.0
O27 O 0.33907 0.93848 0.70901 0.0
O28 O 0.34971 0.87214 0.85784 0.0
C29 C 0.37235 0.83573 0.91334 0.0
C30 C 0.3466 0.8812 0.52106 0.0
O31 O 0.39508 0.79292 0.87522 0.0
C32 C 0.49227 0.80139 0.56427 0.0
O33 O 0.31785 0.79238 0.74301 0.0
O34 O 0.38766 0.7413 0.69444 0.0
O35 O 0.38732 0.91189 0.54397 0.0
O36 O 0.32119 0.85395 0.58858 0.0
C37 C 0.51779 0.86878 0.79196 0.0
O38 O 0.48812 0.77916 0.65181 0.0
O39 O 0.46336 0.84299 0.54253 0.0
C40 C 0.33604 0.74728 0.70893 0.0
O41 O 0.48831 0.83004 0.82646 0.0
O42 O 0.50868 0.88971 0.70533 0.0
C43 C 0.37874 0.96927 0.73362 0.0
Fe44 Fe 0.78693 0.60209 0.31845 0.0
Fe45 Fe 0.86174 0.70341 0.35226 0.0
O46 O 0.84755 0.63284 0.37227 0.0
Fe47 Fe 0.89502 0.59452 0.44485 0.0
O48 O 0.88758 0.53082 0.37081 0.0
O49 O 0.8277 0.55119 0.24977 0.0
O50 O 0.79099 0.64436 0.2007 0.0
C51 C 0.83404 0.66677 0.16255 0.0
C52 C 0.79904 0.54736 0.51174 0.0
O53 O 0.87065 0.68922 0.21801 0.0
C54 C 0.87936 0.69263 0.55481 0.0
O55 O 0.73926 0.65222 0.38149 0.0
O56 O 0.79077 0.7215 0.33232 0.0
O57 O 0.84078 0.57612 0.53353 0.0
O58 O 0.77667 0.55172 0.42429 0.0
C59 C 0.96778 0.66014 0.34257 0.0
O60 O 0.85226 0.71806 0.4871 0.0
O61 O 0.91 0.65186 0.53216 0.0
C62 C 0.74552 0.70368 0.36669 0.0
O63 O 0.93702 0.6998 0.36712 0.0
O64 O 0.95216 0.61131 0.35871 0.0
C65 C 0.86649 0.52172 0.28429 0.0
Fe66 Fe 0.60064 0.25191 0.75761 0.0
Fe67 Fe 0.59341 0.14404 0.6313 0.0
O68 O 0.63169 0.19158 0.70373 0.0
Fe69 Fe 0.7025 0.17772 0.72351 0.0
O70 O 0.68849 0.16889 0.85784 0.0
O71 O 0.64312 0.24812 0.87523 0.0
O72 O 0.54989 0.211 0.82647 0.0
C73 C 0.52041 0.17225 0.79197 0.0
C74 C 0.70216 0.29375 0.70893 0.0
O75 O 0.52952 0.15133 0.70533 0.0
C76 C 0.6916 0.15984 0.52107 0.0
O77 O 0.55008 0.26188 0.65182 0.0
O78 O 0.57484 0.19805 0.54253 0.0
O79 O 0.72034 0.24866 0.74303 0.0
O80 O 0.65053 0.29973 0.69446 0.0
C81 C 0.65946 0.07176 0.73362 0.0
O82 O 0.65088 0.12915 0.54398 0.0
O83 O 0.71701 0.18709 0.58859 0.0
C84 C 0.54593 0.23964 0.56428 0.0
O85 O 0.61046 0.08718 0.71755 0.0
O86 O 0.69913 0.10256 0.70902 0.0
C87 C 0.66584 0.20531 0.91335 0.0
Fe88 Fe 0.17646 0.70341 0.72361 0.0
Fe89 Fe 0.14316 0.59453 0.631 0.0
O90 O 0.19065 0.63284 0.70358 0.0
Fe91 Fe 0.25127 0.60209 0.75739 0.0
O92 O 0.2472 0.64435 0.87516 0.0
O93 O 0.16755 0.68922 0.85785 0.0
O94 O 0.10117 0.69981 0.70876 0.0
C95 C 0.07042 0.66015 0.73333 0.0
C96 C 0.29267 0.70368 0.70919 0.0
O97 O 0.08604 0.61132 0.71718 0.0
C98 C 0.23917 0.54743 0.56407 0.0
O99 O 0.18593 0.71807 0.58876 0.0
O100 O 0.12818 0.65188 0.54372 0.0
O101 O 0.29894 0.65222 0.69436 0.0
O102 O 0.24743 0.7215 0.74354 0.0
C103 C 0.17171 0.52172 0.79153 0.0
O104 O 0.19739 0.57613 0.54229 0.0
O105 O 0.26152 0.55173 0.65153 0.0
C106 C 0.15883 0.69263 0.52105 0.0
O107 O 0.15061 0.53083 0.70501 0.0
O108 O 0.2105 0.55119 0.82606 0.0
C109 C 0.20416 0.66677 0.91331 0.0
Fe110 Fe 0.59342 0.89701 0.44456 0.0
Fe111 Fe 0.70251 0.86332 0.35234 0.0
O112 O 0.6317 0.84946 0.37213 0.0
Fe113 Fe 0.60064 0.78912 0.31825 0.0
O114 O 0.54989 0.83004 0.24941 0.0
O115 O 0.52952 0.88971 0.37055 0.0
O116 O 0.61046 0.95385 0.35827 0.0
C117 C 0.65946 0.96927 0.34219 0.0
C118 C 0.54601 0.80139 0.51162 0.0
O119 O 0.69913 0.93848 0.36682 0.0
C120 C 0.70216 0.74728 0.3669 0.0
O121 O 0.6509 0.91191 0.53185 0.0
O122 O 0.71702 0.85395 0.48727 0.0
O123 O 0.55009 0.77916 0.42406 0.0
O124 O 0.57485 0.84302 0.53336 0.0
C125 C 0.66585 0.83573 0.1625 0.0
O126 O 0.72035 0.79238 0.33283 0.0
O127 O 0.65054 0.7413 0.3814 0.0
C128 C 0.6916 0.8812 0.55478 0.0
O129 O 0.68849 0.87214 0.21801 0.0
O130 O 0.64311 0.79292 0.20063 0.0
C131 C 0.5204 0.86878 0.28392 0.0
Fe132 Fe 0.86174 0.33762 0.7236 0.0
Fe133 Fe 0.89504 0.4465 0.631 0.0
O134 O 0.84755 0.4082 0.70357 0.0
Fe135 Fe 0.78693 0.43894 0.75739 0.0
O136 O 0.791 0.39669 0.87515 0.0
O137 O 0.87065 0.35181 0.85784 0.0
O138 O 0.93703 0.34123 0.70875 0.0
C139 C 0.96778 0.38089 0.73332 0.0
C140 C 0.74552 0.33736 0.70918 0.0
O141 O 0.95216 0.42972 0.71717 0.0
C142 C 0.79903 0.49361 0.56407 0.0
O143 O 0.85227 0.32297 0.58875 0.0
O144 O 0.91002 0.38916 0.54371 0.0
O145 O 0.73926 0.38882 0.69436 0.0
O146 O 0.79077 0.31953 0.74353 0.0
C147 C 0.86649 0.51932 0.79153 0.0
O148 O 0.84081 0.4649 0.54228 0.0
O149 O 0.77668 0.48931 0.65153 0.0
C150 C 0.87937 0.3484 0.52104 0.0
O151 O 0.88758 0.51021 0.70501 0.0
O152 O 0.8277 0.48985 0.82605 0.0
C153 C 0.83404 0.37426 0.9133 0.0
Fe154 Fe 0.43756 0.25191 0.31826 0.0
Fe155 Fe 0.44477 0.14403 0.44456 0.0
O156 O 0.4065 0.19157 0.37214 0.0
Fe157 Fe 0.33569 0.17772 0.35235 0.0
O158 O 0.3497 0.1689 0.21802 0.0
O159 O 0.39509 0.24812 0.20064 0.0
O160 O 0.48831 0.211 0.24942 0.0
C161 C 0.51779 0.17225 0.28393 0.0
C162 C 0.33603 0.29375 0.36691 0.0
O163 O 0.50868 0.15133 0.37056 0.0
C164 C 0.3466 0.15983 0.55478 0.0
O165 O 0.48811 0.26188 0.42407 0.0
O166 O 0.46334 0.19802 0.53337 0.0
O167 O 0.31784 0.24866 0.33285 0.0
O168 O 0.38766 0.29974 0.38141 0.0
C169 C 0.37874 0.07177 0.3422 0.0
O170 O 0.3873 0.12913 0.53186 0.0
O171 O 0.32118 0.18708 0.48728 0.0
C172 C 0.49219 0.23965 0.51163 0.0
O173 O 0.42774 0.08718 0.35828 0.0
O174 O 0.33906 0.10256 0.36683 0.0
C175 C 0.37235 0.20531 0.16252 0.0
Fe176 Fe 0.67646 0.83763 0.85225 0.0
Fe177 Fe 0.64317 0.94652 0.94483 0.0
O178 O 0.69065 0.9082 0.87226 0.0
Fe179 Fe 0.75127 0.93895 0.81844 0.0
O180 O 0.74721 0.89668 0.70069 0.0
O181 O 0.66756 0.85181 0.718 0.0
O182 O 0.60118 0.84123 0.8671 0.0
C183 C 0.57043 0.88089 0.84254 0.0
C184 C 0.79268 0.83737 0.86669 0.0
O185 O 0.58604 0.92972 0.85868 0.0
C186 C 0.73916 0.99368 1.01173 0.0
O187 O 0.68594 0.82299 0.9871 0.0
O188 O 0.62819 0.88918 1.03214 0.0
O189 O 0.79894 0.88883 0.88149 0.0
O190 O 0.74744 0.81955 0.83232 0.0
C191 C 0.67169 1.01931 0.78426 0.0
O192 O 0.69742 0.96492 1.03351 0.0
O193 O 0.76152 0.98932 0.92428 0.0
C194 C 0.65883 0.84842 0.0548 0.0
O195 O 0.65062 1.01022 0.87079 0.0
O196 O 0.71051 0.98985 0.74975 0.0
C197 C 0.70417 0.87425 0.66254 0.0
Fe198 Fe 0.94479 0.397 0.13131 0.0
Fe199 Fe 0.8357 0.36331 0.2235 0.0
O200 O 0.90651 0.34946 0.20373 0.0
Fe201 Fe 0.93757 0.28912 0.25761 0.0
O202 O 0.98831 0.33003 0.32648 0.0
O203 O 1.00868 0.38971 0.20534 0.0
O204 O 0.92774 0.45385 0.21757 0.0
C205 C 0.87874 0.46927 0.23364 0.0
C206 C 0.99227 0.3014 0.06427 0.0
O207 O 0.83907 0.43847 0.20902 0.0
C208 C 0.83604 0.24728 0.20892 0.0
O209 O 0.88732 0.4119 0.04399 0.0
O210 O 0.8212 0.35395 0.08857 0.0
O211 O 0.98812 0.27916 0.15182 0.0
O212 O 0.96336 0.34299 0.04254 0.0
C213 C 0.87233 0.33571 0.41334 0.0
O214 O 0.81786 0.29237 0.243 0.0
O215 O 0.88767 0.2413 0.19445 0.0
C216 C 0.84661 0.38121 1.02107 0.0
O217 O 0.8497 0.37213 0.35783 0.0
O218 O 0.89508 0.29291 0.37522 0.0
C219 C 1.01778 0.36879 0.29199 0.0
Fe220 Fe 0.39502 0.09452 0.94483 0.0
Fe221 Fe 0.28693 0.10209 0.81844 0.0
O222 O 0.34754 0.13283 0.87226 0.0
Fe223 Fe 0.36173 0.2034 0.85226 0.0
O224 O 0.43702 0.1998 0.86711 0.0
O225 O 0.45216 0.11131 0.85869 0.0
O226 O 0.38758 0.03082 0.8708 0.0
C227 C 0.3665 0.02173 0.78426 0.0
C228 C 0.37937 0.19262 0.05481 0.0
O229 O 0.32769 0.05119 0.74976 0.0
C230 C 0.24552 0.20367 0.86669 0.0
O231 O 0.34078 0.07611 1.03352 0.0
O232 O 0.27667 0.05171 0.92429 0.0
O233 O 0.35226 0.21805 0.98711 0.0
O234 O 0.41001 0.15185 1.03215 0.0
C235 C 0.33402 0.16679 0.66255 0.0
O236 O 0.23926 0.15221 0.88149 0.0
O237 O 0.29076 0.22149 0.83233 0.0
C238 C 0.29904 0.04736 1.01173 0.0
O239 O 0.29098 0.14435 0.70069 0.0
O240 O 0.37064 0.18922 0.71801 0.0
C241 C 0.46777 0.16014 0.84255 0.0
Fe242 Fe 0.10063 0.75192 0.25762 0.0
Fe243 Fe 0.09341 0.64404 0.13132 0.0
O244 O 0.13169 0.69158 0.20374 0.0
Fe245 Fe 0.2025 0.67773 0.22351 0.0
O246 O 0.18849 0.6689 0.35784 0.0
O247 O 0.14311 0.74813 0.37524 0.0
O248 O 0.04989 0.711 0.32649 0.0
C249 C 0.02042 0.67224 0.292 0.0
C250 C 0.20215 0.79376 0.20893 0.0
O251 O 0.02952 0.65133 0.20535 0.0
C252 C 0.19159 0.65983 1.02108 0.0
O253 O 0.05007 0.76188 0.15183 0.0
O254 O 0.07483 0.69804 0.04255 0.0
O255 O 0.22034 0.74867 0.24301 0.0
O256 O 0.15053 0.79974 0.19446 0.0
C257 C 0.15946 0.57177 0.23364 0.0
O258 O 0.15087 0.62914 0.04399 0.0
O259 O 0.217 0.68709 0.08858 0.0
C260 C 0.04593 0.73964 0.06428 0.0
O261 O 0.11046 0.58718 0.21757 0.0
O262 O 0.19913 0.60257 0.20902 0.0
C263 C 0.16586 0.70532 0.41335 0.0
Fe264 Fe 0.64316 0.09453 0.13102 0.0
Fe265 Fe 0.75127 0.10209 0.2574 0.0
O266 O 0.69065 0.13284 0.20359 0.0
Fe267 Fe 0.67646 0.20341 0.2236 0.0
O268 O 0.60118 0.19981 0.20877 0.0
O269 O 0.58604 0.11132 0.2172 0.0
O270 O 0.65062 0.03082 0.20503 0.0
C271 C 0.6717 0.02173 0.29156 0.0
C272 C 0.65882 0.19262 1.02106 0.0
O273 O 0.7105 0.05119 0.32607 0.0
C274 C 0.79268 0.20367 0.20918 0.0
O275 O 0.69738 0.07613 0.0423 0.0
O276 O 0.76152 0.05172 0.15154 0.0
O277 O 0.68593 0.21806 0.08875 0.0
O278 O 0.62817 0.15187 0.04373 0.0
C279 C 0.70418 0.16679 0.41331 0.0
O280 O 0.79894 0.15221 0.19436 0.0
O281 O 0.74744 0.2215 0.24352 0.0
C282 C 0.73917 0.04743 0.06408 0.0
O283 O 0.74721 0.14435 0.37516 0.0
O284 O 0.66756 0.18923 0.35785 0.0
C285 C 0.57043 0.16015 0.23335 0.0
Fe286 Fe 0.2025 0.36331 0.85235 0.0
Fe287 Fe 0.10063 0.28912 0.81824 0.0
O288 O 0.13169 0.34946 0.87212 0.0
Fe289 Fe 0.09342 0.39701 0.94454 0.0
O290 O 0.11046 0.45385 0.85825 0.0
O291 O 0.19913 0.43847 0.86682 0.0
O292 O 0.1885 0.37213 0.71801 0.0
C293 C 0.16587 0.33571 0.6625 0.0
C294 C 0.19159 0.38122 0.05477 0.0
O295 O 0.14311 0.29291 0.70062 0.0
C296 C 0.046 0.30139 1.01162 0.0
O297 O 0.22035 0.29237 0.83285 0.0
O298 O 0.15053 0.2413 0.8814 0.0
O299 O 0.15089 0.41192 1.03184 0.0
O300 O 0.217 0.35395 0.98728 0.0
C301 C 0.02042 0.36879 0.78389 0.0
O302 O 0.05008 0.27916 0.92405 0.0
O303 O 0.07485 0.34302 1.03335 0.0
C304 C 0.20215 0.24728 0.86691 0.0
O305 O 0.04989 0.33004 0.74939 0.0
O306 O 0.02952 0.38971 0.87053 0.0
C307 C 0.15946 0.46926 0.84217 0.0
Fe308 Fe 0.28693 0.93895 0.2574 0.0
Fe309 Fe 0.36174 0.83763 0.22359 0.0
O310 O 0.34755 0.9082 0.20358 0.0
Fe311 Fe 0.39504 0.94651 0.13101 0.0
O312 O 0.38758 1.01021 0.20503 0.0
O313 O 0.32769 0.98985 0.32607 0.0
O314 O 0.29099 0.89669 0.37516 0.0
C315 C 0.33402 0.87425 0.4133 0.0
C316 C 0.29903 0.99361 0.06408 0.0
O317 O 0.37064 0.85181 0.35784 0.0
C318 C 0.37938 0.84841 1.02105 0.0
O319 O 0.23926 0.88883 0.19436 0.0
O320 O 0.29076 0.81954 0.24351 0.0
O321 O 0.34081 0.96491 0.04229 0.0
O322 O 0.27668 0.98931 0.15154 0.0
C323 C 0.46777 0.88089 0.23334 0.0
O324 O 0.35226 0.82298 0.08874 0.0
O325 O 0.41003 0.88916 0.04372 0.0
C326 C 0.24552 0.83737 0.20918 0.0
O327 O 0.43702 0.84123 0.20875 0.0
O328 O 0.45216 0.92972 0.2172 0.0
C329 C 0.3665 1.01931 0.29156 0.0
Fe330 Fe 0.93757 0.75192 0.81826 0.0
Fe331 Fe 0.94478 0.64402 0.94454 0.0
O332 O 0.9065 0.69158 0.87213 0.0
Fe333 Fe 0.8357 0.67773 0.85235 0.0
O334 O 0.8497 0.66891 0.71802 0.0
O335 O 0.89509 0.74812 0.70063 0.0
O336 O 0.98831 0.711 0.7494 0.0
C337 C 1.01778 0.67224 0.7839 0.0
C338 C 0.83604 0.79376 0.86692 0.0
O339 O 1.00868 0.65133 0.87054 0.0
C340 C 0.8466 0.65982 0.05478 0.0
O341 O 0.98811 0.76188 0.92407 0.0
O342 O 0.96335 0.69801 1.03336 0.0
O343 O 0.81785 0.74867 0.83286 0.0
O344 O 0.88767 0.79974 0.88141 0.0
C345 C 0.87874 0.57177 0.84218 0.0
O346 O 0.88731 0.62912 1.03184 0.0
O347 O 0.82119 0.68708 0.98729 0.0
C348 C 0.99219 0.73965 1.01163 0.0
O349 O 0.92774 0.58719 0.85825 0.0
O350 O 0.83907 0.60256 0.86682 0.0
C351 C 0.87233 0.70532 0.66251 0.0
loop_
_geom_bond_atom_site_label_1
_geom_bond_atom_site_label_2
_geom_bond_distance
_geom_bond_site_symmetry_2
_ccdc_geom_bond_type
Fe0 O2 1.918 . S
Fe0 O5 1.997 . S
Fe0 O6 2.002 . S
Fe0 O11 1.976 . S
Fe0 O14 1.996 . S
Fe1 O2 1.918 . S
Fe1 O9 1.997 . S
Fe1 O12 1.996 . S
Fe1 O16 1.976 . S
Fe1 O19 2.002 . S
O2 Fe0 1.918 . S
O2 Fe1 1.918 . S
O2 Fe3 1.918 . S
Fe3 O2 1.918 . S
Fe3 O4 2.002 . S
Fe3 O13 1.976 . S
Fe3 O17 1.996 . S
Fe3 O20 1.997 . S
O4 Fe3 2.002 . S
O4 C21 1.295 . S
O5 Fe0 1.997 . S
O5 C21 1.235 . S
O6 Fe0 2.002 . S
O6 C7 1.295 . S
C7 O6 1.295 . S
C7 O9 1.235 . S
C8 O13 1.287 . S
C8 O14 1.255 . S
O9 Fe1 1.997 . S
O9 C7 1.235 . S
C10 O16 1.287 . S
C10 O17 1.255 . S
O11 Fe0 1.976 . S
O11 C18 1.287 . S
O12 Fe1 1.996 . S
O12 C18 1.255 . S
O13 Fe3 1.976 . S
O13 C8 1.287 . S
O14 Fe0 1.996 . S
O14 C8 1.255 . S
C15 O19 1.295 . S
C15 O20 1.235 . S
O16 Fe1 1.976 . S
O16 C10 1.287 . S
O17 Fe3 1.996 . S
O17 C10 1.255 . S
C18 O11 1.287 . S
C18 O12 1.255 . S
O19 Fe1 2.002 . S
O19 C15 1.295 . S
O20 Fe3 1.997 . S
O20 C15 1.235 . S
C21 O4 1.295 . S
C21 O5 1.235 . S
Fe22 O24 1.918 . S
Fe22 O27 1.997 . S
Fe22 O28 2.002 . S
Fe22 O33 1.976 . S
Fe22 O36 1.996 . S
Fe23 O24 1.918 . S
Fe23 O31 1.997 . S
Fe23 O34 1.996 . S
Fe23 O38 1.976 . S
Fe23 O41 2.002 . S
O24 Fe22 1.918 . S
O24 Fe23 1.918 . S
O24 Fe25 1.918 . S
Fe25 O24 1.918 . S
Fe25 O26 2.002 . S
Fe25 O35 1.976 . S
Fe25 O39 1.996 . S
Fe25 O42 1.997 . S
O26 Fe25 2.002 . S
O26 C43 1.295 . S
O27 Fe22 1.997 . S
O27 C43 1.235 . S
O28 Fe22 2.002 . S
O28 C29 1.295 . S
C29 O28 1.295 . S
C29 O31 1.235 . S
C30 O35 1.287 . S
C30 O36 1.255 . S
O31 Fe23 1.997 . S
O31 C29 1.235 . S
C32 O38 1.287 . S
C32 O39 1.255 . S
O33 Fe22 1.976 . S
O33 C40 1.287 . S
O34 Fe23 1.996 . S
O34 C40 1.255 . S
O35 Fe25 1.976 . S
O35 C30 1.287 . S
O36 Fe22 1.996 . S
O36 C30 1.255 . S
C37 O41 1.295 . S
C37 O42 1.235 . S
O38 Fe23 1.976 . S
O38 C32 1.287 . S
O39 Fe25 1.996 . S
O39 C32 1.255 . S
C40 O33 1.287 . S
C40 O34 1.255 . S
O41 Fe23 2.002 . S
O41 C37 1.295 . S
O42 Fe25 1.997 . S
O42 C37 1.235 . S
C43 O26 1.295 . S
C43 O27 1.235 . S
Fe44 O46 1.918 . S
Fe44 O49 1.997 . S
Fe44 O50 2.002 . S
Fe44 O55 1.976 . S
Fe44 O58 1.996 . S
Fe45 O46 1.918 . S
Fe45 O53 1.997 . S
Fe45 O56 1.996 . S
Fe45 O60 1.976 . S
Fe45 O63 2.002 . S
O46 Fe44 1.918 . S
O46 Fe45 1.918 . S
O46 Fe47 1.918 . S
Fe47 O46 1.918 . S
Fe47 O48 2.002 . S
Fe47 O57 1.976 . S
Fe47 O61 1.996 . S
Fe47 O64 1.997 . S
O48 Fe47 2.002 . S
O48 C65 1.295 . S
O49 Fe44 1.997 . S
O49 C65 1.235 . S
O50 Fe44 2.002 . S
O50 C51 1.295 . S
C51 O50 1.295 . S
C51 O53 1.235 . S
C52 O57 1.287 . S
C52 O58 1.255 . S
O53 Fe45 1.997 . S
O53 C51 1.235 . S
C54 O60 1.287 . S
C54 O61 1.255 . S
O55 Fe44 1.976 . S
O55 C62 1.287 . S
O56 Fe45 1.996 . S
O56 C62 1.255 . S
O57 Fe47 1.976 . S
O57 C52 1.287 . S
O58 Fe44 1.996 . S
O58 C52 1.255 . S
C59 O63 1.295 . S
C59 O64 1.235 . S
O60 Fe45 1.976 . S
O60 C54 1.287 . S
O61 Fe47 1.996 . S
O61 C54 1.255 . S
C62 O55 1.287 . S
C62 O56 1.255 . S
O63 Fe45 2.002 . S
O63 C59 1.295 . S
O64 Fe47 1.997 . S
O64 C59 1.235 . S
C65 O48 1.295 . S
C65 O49 1.235 . S
Fe66 O68 1.918 . S
Fe66 O71 1.997 . S
Fe66 O72 2.002 . S
Fe66 O77 1.976 . S
Fe66 O80 1.996 . S
Fe67 O68 1.918 . S
Fe67 O75 1.997 . S
Fe67 O78 1.996 . S
Fe67 O82 1.976 . S
Fe67 O85 2.002 . S
O68 Fe66 1.918 . S
O68 Fe67 1.918 . S
O68 Fe69 1.918 . S
Fe69 O68 1.918 . S
Fe69 O70 2.002 . S
Fe69 O79 1.976 . S
Fe69 O83 1.996 . S
Fe69 O86 1.997 . S
O70 Fe69 2.002 . S
O70 C87 1.295 . S
O71 Fe66 1.997 . S
O71 C87 1.235 . S
O72 Fe66 2.002 . S
O72 C73 1.295 . S
C73 O72 1.295 . S
C73 O75 1.235 . S
C74 O79 1.287 . S
C74 O80 1.255 . S
O75 Fe67 1.997 . S
O75 C73 1.235 . S
C76 O82 1.287 . S
C76 O83 1.255 . S
O77 Fe66 1.976 . S
O77 C84 1.287 . S
O78 Fe67 1.996 . S
O78 C84 1.255 . S
O79 Fe69 1.976 . S
O79 C74 1.287 . S
O80 Fe66 1.996 . S
O80 C74 1.255 . S
C81 O85 1.295 . S
C81 O86 1.235 . S
O82 Fe67 1.976 . S
O82 C76 1.287 . S
O83 Fe69 1.996 . S
O83 C76 1.255 . S
C84 O77 1.287 . S
C84 O78 1.255 . S
O85 Fe67 2.002 . S
O85 C81 1.295 . S
O86 Fe69 1.997 . S
O86 C81 1.235 . S
C87 O70 1.295 . S
C87 O71 1.235 . S
Fe88 O90 1.918 . S
Fe88 O93 1.997 . S
Fe88 O94 2.002 . S
Fe88 O99 1.976 . S
Fe88 O102 1.996 . S
Fe89 O90 1.918 . S
Fe89 O97 1.997 . S
Fe89 O100 1.996 . S
Fe89 O104 1.976 . S
Fe89 O107 2.002 . S
O90 Fe88 1.918 . S
O90 Fe89 1.918 . S
O90 Fe91 1.918 . S
Fe91 O90 1.918 . S
Fe91 O92 2.002 . S
Fe91 O101 1.976 . S
Fe91 O105 1.996 . S
Fe91 O108 1.997 . S
O92 Fe91 2.002 . S
O92 C109 1.295 . S
O93 Fe88 1.997 . S
O93 C109 1.235 . S
O94 Fe88 2.002 . S
O94 C95 1.295 . S
C95 O94 1.295 . S
C95 O97 1.235 . S
C96 O101 1.287 . S
C96 O102 1.255 . S
O97 Fe89 1.997 . S
O97 C95 1.235 . S
C98 O104 1.287 . S
C98 O105 1.255 . S
O99 Fe88 1.976 . S
O99 C106 1.287 . S
O100 Fe89 1.996 . S
O100 C106 1.255 . S
O101 Fe91 1.976 . S
O101 C96 1.287 . S
O102 Fe88 1.996 . S
O102 C96 1.255 . S
C103 O107 1.295 . S
C103 O108 1.235 . S
O104 Fe89 1.976 . S
O104 C98 1.287 . S
O105 Fe91 1.996 . S
O105 C98 1.255 . S
C106 O99 1.287 . S
C106 O100 1.255 . S
O107 Fe89 2.002 . S
O107 C103 1.295 . S
O108 Fe91 1.997 . S
O108 C103 1.235 . S
C109 O92 1.295 . S
C109 O93 1.235 . S
Fe110 O112 1.918 . S
Fe110 O115 1.997 . S
Fe110 O116 2.002 . S
Fe110 O121 1.976 . S
Fe110 O124 1.996 . S
Fe111 O112 1.918 . S
Fe111 O119 1.997 . S
Fe111 O122 1.996 . S
Fe111 O126 1.976 . S
Fe111 O129 2.002 . S
O112 Fe110 1.918 . S
O112 Fe111 1.918 . S
O112 Fe113 1.918 . S
Fe113 O112 1.918 . S
Fe113 O114 2.002 . S
Fe113 O123 1.976 . S
Fe113 O127 1.996 . S
Fe113 O130 1.997 . S
O114 Fe113 2.002 . S
O114 C131 1.295 . S
O115 Fe110 1.997 . S
O115 C131 1.235 . S
O116 Fe110 2.002 . S
O116 C117 1.295 . S
C117 O116 1.295 . S
C117 O119 1.235 . S
C118 O123 1.287 . S
C118 O124 1.255 . S
O119 Fe111 1.997 . S
O119 C117 1.235 . S
C120 O126 1.287 . S
C120 O127 1.255 . S
O121 Fe110 1.976 . S
O121 C128 1.287 . S
O122 Fe111 1.996 . S
O122 C128 1.255 . S
O123 Fe113 1.976 . S
O123 C118 1.287 . S
O124 Fe110 1.996 . S
O124 C118 1.255 . S
C125 O129 1.295 . S
C125 O130 1.235 . S
O126 Fe111 1.976 . S
O126 C120 1.287 . S
O127 Fe113 1.996 . S
O127 C120 1.255 . S
C128 O121 1.287 . S
C128 O122 1.255 . S
O129 Fe111 2.002 . S
O129 C125 1.295 . S
O130 Fe113 1.997 . S
O130 C125 1.235 . S
C131 O114 1.295 . S
C131 O115 1.235 . S
Fe132 O134 1.918 . S
Fe132 O137 1.997 . S
Fe132 O138 2.002 . S
Fe132 O143 1.976 . S
Fe132 O146 1.996 . S
Fe133 O134 1.918 . S
Fe133 O141 1.997 . S
Fe133 O144 1.996 . S
Fe133 O148 1.976 . S
Fe133 O151 2.002 . S
O134 Fe132 1.918 . S
O134 Fe133 1.918 . S
O134 Fe135 1.918 . S
Fe135 O134 1.918 . S
Fe135 O136 2.002 . S
Fe135 O145 1.976 . S
Fe135 O149 1.996 . S
Fe135 O152 1.997 . S
O136 Fe135 2.002 . S
O136 C153 1.295 . S
O137 Fe132 1.997 . S
O137 C153 1.235 . S
O138 Fe132 2.002 . S
O138 C139 1.295 . S
C139 O138 1.295 . S
C139 O141 1.235 . S
C140 O145 1.287 . S
C140 O146 1.255 . S
O141 Fe133 1.997 . S
O141 C139 1.235 . S
C142 O148 1.287 . S
C142 O149 1.255 . S
O143 Fe132 1.976 . S
O143 C150 1.287 . S
O144 Fe133 1.996 . S
O144 C150 1.255 . S
O145 Fe135 1.976 . S
O145 C140 1.287 . S
O146 Fe132 1.996 . S
O146 C140 1.255 . S
C147 O151 1.295 . S
C147 O152 1.235 . S
O148 Fe133 1.976 . S
O148 C142 1.287 . S
O149 Fe135 1.996 . S
O149 C142 1.255 . S
C150 O143 1.287 . S
C150 O144 1.255 . S
O151 Fe133 2.002 . S
O151 C147 1.295 . S
O152 Fe135 1.997 . S
O152 C147 1.235 . S
C153 O136 1.295 . S
C153 O137 1.235 . S
Fe154 O156 1.918 . S
Fe154 O159 1.997 . S
Fe154 O160 2.002 . S
Fe154 O165 1.976 . S
Fe154 O168 1.996 . S
Fe155 O156 1.918 . S
Fe155 O163 1.997 . S
Fe155 O166 1.996 . S
Fe155 O170 1.976 . S
Fe155 O173 2.002 . S
O156 Fe154 1.918 . S
O156 Fe155 1.918 . S
O156 Fe157 1.918 . S
Fe157 O156 1.918 . S
Fe157 O158 2.002 . S
Fe157 O167 1.976 . S
Fe157 O171 1.996 . S
Fe157 O174 1.997 . S
O158 Fe157 2.002 . S
O158 C175 1.295 . S
O159 Fe154 1.997 . S
O159 C175 1.235 . S
O160 Fe154 2.002 . S
O160 C161 1.295 . S
C161 O160 1.295 . S
C161 O163 1.235 . S
C162 O167 1.287 . S
C162 O168 1.255 . S
O163 Fe155 1.997 . S
O163 C161 1.235 . S
C164 O170 1.287 . S
C164 O171 1.255 . S
O165 Fe154 1.976 . S
O165 C172 1.287 . S
O166 Fe155 1.996 . S
O166 C172 1.255 . S
O167 Fe157 1.976 . S
O167 C162 1.287 . S
O168 Fe154 1.996 . S
O168 C162 1.255 . S
C169 O173 1.295 . S
C169 O174 1.235 . S
O170 Fe155 1.976 . S
O170 C164 1.287 . S
O171 Fe157 1.996 . S
O171 C164 1.255 . S
C172 O165 1.287 . S
C172 O166 1.255 . S
O173 Fe155 2.002 . S
O173 C169 1.295 . S
O174 Fe157 1.997 . S
O174 C169 1.235 . S
C175 O158 1.295 . S
C175 O159 1.235 . S
Fe176 O178 1.918 . S
Fe176 O181 1.997 . S
Fe176 O182 2.002 . S
Fe176 O187 1.976 . S
Fe176 O190 1.996 . S
Fe177 O178 1.918 . S
Fe177 O185 1.997 . S
Fe177 O188 1.996 1_556 S
Fe177 O192 1.976 . S
Fe177 O195 2.017 . S
O178 Fe176 1.918 . S
O178 Fe177 1.918 . S
O178 Fe179 1.918 . S
Fe179 O178 1.918 . S
Fe179 O180 2.002 . S
Fe179 O189 1.976 . S
Fe179 O193 1.996 . S
Fe179 O196 1.997 . S
O180 Fe179 2.002 . S
O180 C197 1.295 . S
O181 Fe176 1.997 . S
O181 C197 1.235 . S
O182 Fe176 2.002 . S
O182 C183 1.295 . S
C183 O182 1.295 . S
C183 O185 1.235 . S
C184 O189 1.287 . S
C184 O190 1.255 . S
O185 Fe177 1.997 . S
O185 C183 1.235 . S
C186 O192 1.287 . S
C186 O193 1.255 . S
O187 Fe176 1.976 . S
O187 C194 1.287 1_556 S
O188 Fe177 1.996 1_554 S
O188 C194 1.255 . S
O189 Fe179 1.976 . S
O189 C184 1.287 . S
O190 Fe176 1.996 . S
O190 C184 1.255 . S
C191 O195 1.289 1_545 S
C191 O196 1.235 1_545 S
O192 Fe177 1.976 . S
O192 C186 1.287 . S
O193 Fe179 1.996 . S
O193 C186 1.255 . S
C194 O187 1.287 1_554 S
C194 O188 1.255 . S
O195 Fe177 2.017 . S
O195 C191 1.289 1_565 S
O196 Fe179 1.997 . S
O196 C191 1.235 1_565 S
C197 O180 1.295 . S
C197 O181 1.235 . S
Fe198 O200 1.918 . S
Fe198 O203 1.997 . S
Fe198 O204 2.002 . S
Fe198 O209 1.976 1_554 S
Fe198 O212 1.996 . S
Fe199 O200 1.918 . S
Fe199 O207 1.997 . S
Fe199 O210 1.996 . S
Fe199 O214 1.976 . S
Fe199 O217 2.002 . S
O200 Fe198 1.918 . S
O200 Fe199 1.918 . S
O200 Fe201 1.918 . S
Fe201 O200 1.918 . S
Fe201 O202 2.002 . S
Fe201 O211 1.976 . S
Fe201 O215 1.996 . S
Fe201 O218 1.997 . S
O202 Fe201 2.002 . S
O202 C219 1.295 1_655 S
O203 Fe198 1.997 . S
O203 C219 1.235 1_655 S
O204 Fe198 2.002 . S
O204 C205 1.295 . S
C205 O204 1.295 . S
C205 O207 1.235 . S
C206 O211 1.287 . S
C206 O212 1.255 . S
O207 Fe199 1.997 . S
O207 C205 1.235 . S
C208 O214 1.287 . S
C208 O215 1.255 . S
O209 Fe198 1.976 1_556 S
O209 C216 1.287 . S
O210 Fe199 1.996 . S
O210 C216 1.255 1_554 S
O211 Fe201 1.976 . S
O211 C206 1.287 . S
O212 Fe198 1.996 . S
O212 C206 1.255 . S
C213 O217 1.295 . S
C213 O218 1.235 . S
O214 Fe199 1.976 . S
O214 C208 1.287 . S
O215 Fe201 1.996 . S
O215 C208 1.255 . S
C216 O209 1.287 . S
C216 O210 1.255 1_556 S
O217 Fe199 2.002 . S
O217 C213 1.295 . S
O218 Fe201 1.997 . S
O218 C213 1.235 . S
C219 O202 1.295 1_455 S
C219 O203 1.235 1_455 S
Fe220 O222 1.918 . S
Fe220 O225 1.997 . S
Fe220 O226 2.017 . S
Fe220 O231 1.976 . S
Fe220 O234 1.996 1_556 S
Fe221 O222 1.918 . S
Fe221 O229 1.997 . S
Fe221 O232 1.996 . S
Fe221 O236 1.976 . S
Fe221 O239 2.002 . S
O222 Fe220 1.918 . S
O222 Fe221 1.918 . S
O222 Fe223 1.918 . S
Fe223 O222 1.918 . S
Fe223 O224 2.002 . S
Fe223 O233 1.976 . S
Fe223 O237 1.996 . S
Fe223 O240 1.997 . S
O224 Fe223 2.002 . S
O224 C241 1.295 . S
O225 Fe220 1.997 . S
O225 C241 1.235 . S
O226 Fe220 2.017 . S
O226 C227 1.289 1_545 S
C227 O226 1.289 1_565 S
C227 O229 1.235 1_565 S
C228 O233 1.287 1_554 S
C228 O234 1.255 . S
O229 Fe221 1.997 . S
O229 C227 1.235 1_545 S
C230 O236 1.287 . S
C230 O237 1.255 . S
O231 Fe220 1.976 . S
O231 C238 1.287 . S
O232 Fe221 1.996 . S
O232 C238 1.255 . S
O233 Fe223 1.976 . S
O233 C228 1.287 1_556 S
O234 Fe220 1.996 1_554 S
O234 C228 1.255 . S
C235 O239 1.295 . S
C235 O240 1.235 . S
O236 Fe221 1.976 . S
O236 C230 1.287 . S
O237 Fe223 1.996 . S
O237 C230 1.255 . S
C238 O231 1.287 . S
C238 O232 1.255 . S
O239 Fe221 2.002 . S
O239 C235 1.295 . S
O240 Fe223 1.997 . S
O240 C235 1.235 . S
C241 O224 1.295 . S
C241 O225 1.235 . S
Fe242 O244 1.918 . S
Fe242 O247 1.997 . S
Fe242 O248 2.002 . S
Fe242 O253 1.976 . S
Fe242 O256 1.996 . S
Fe243 O244 1.918 . S
Fe243 O251 1.997 . S
Fe243 O254 1.996 . S
Fe243 O258 1.976 1_554 S
Fe243 O261 2.002 . S
O244 Fe242 1.918 . S
O244 Fe243 1.918 . S
O244 Fe245 1.918 . S
Fe245 O244 1.918 . S
Fe245 O246 2.002 . S
Fe245 O255 1.976 . S
Fe245 O259 1.996 . S
Fe245 O262 1.997 . S
O246 Fe245 2.002 . S
O246 C263 1.295 . S
O247 Fe242 1.997 . S
O247 C263 1.235 . S
O248 Fe242 2.002 . S
O248 C249 1.295 1_455 S
C249 O248 1.295 1_655 S
C249 O251 1.235 1_655 S
C250 O255 1.287 . S
C250 O256 1.255 . S
O251 Fe243 1.997 . S
O251 C249 1.235 1_455 S
C252 O258 1.287 . S
C252 O259 1.255 1_556 S
O253 Fe242 1.976 . S
O253 C260 1.287 . S
O254 Fe243 1.996 . S
O254 C260 1.255 . S
O255 Fe245 1.976 . S
O255 C250 1.287 . S
O256 Fe242 1.996 . S
O256 C250 1.255 . S
C257 O261 1.295 . S
C257 O262 1.235 . S
O258 Fe243 1.976 1_556 S
O258 C252 1.287 . S
O259 Fe245 1.996 . S
O259 C252 1.255 1_554 S
C260 O253 1.287 . S
C260 O254 1.255 . S
O261 Fe243 2.002 . S
O261 C257 1.295 . S
O262 Fe245 1.997 . S
O262 C257 1.235 . S
C263 O246 1.295 . S
C263 O247 1.235 . S
Fe264 O266 1.918 . S
Fe264 O269 1.997 . S
Fe264 O270 2.017 . S
Fe264 O275 1.976 . S
Fe264 O278 1.996 1_554 S
Fe265 O266 1.918 . S
Fe265 O273 1.997 . S
Fe265 O276 1.996 . S
Fe265 O280 1.976 . S
Fe265 O283 2.002 . S
O266 Fe264 1.918 . S
O266 Fe265 1.918 . S
O266 Fe267 1.918 . S
Fe267 O266 1.918 . S
Fe267 O268 2.002 . S
Fe267 O277 1.976 . S
Fe267 O281 1.996 . S
Fe267 O284 1.997 . S
O268 Fe267 2.002 . S
O268 C285 1.295 . S
O269 Fe264 1.997 . S
O269 C285 1.235 . S
O270 Fe264 2.017 . S
O270 C271 1.289 1_545 S
C271 O270 1.289 1_565 S
C271 O273 1.235 1_565 S
C272 O277 1.287 1_556 S
C272 O278 1.255 . S
O273 Fe265 1.997 . S
O273 C271 1.235 1_545 S
C274 O280 1.287 . S
C274 O281 1.255 . S
O275 Fe264 1.976 . S
O275 C282 1.287 . S
O276 Fe265 1.996 . S
O276 C282 1.255 . S
O277 Fe267 1.976 . S
O277 C272 1.287 1_554 S
O278 Fe264 1.996 1_556 S
O278 C272 1.255 . S
C279 O283 1.295 . S
C279 O284 1.235 . S
O280 Fe265 1.976 . S
O280 C274 1.287 . S
O281 Fe267 1.996 . S
O281 C274 1.255 . S
C282 O275 1.287 . S
C282 O276 1.255 . S
O283 Fe265 2.002 . S
O283 C279 1.295 . S
O284 Fe267 1.997 . S
O284 C279 1.235 . S
C285 O268 1.295 . S
C285 O269 1.235 . S
Fe286 O288 1.918 . S
Fe286 O291 1.997 . S
Fe286 O292 2.002 . S
Fe286 O297 1.976 . S
Fe286 O300 1.996 . S
Fe287 O288 1.918 . S
Fe287 O295 1.997 . S
Fe287 O298 1.996 . S
Fe287 O302 1.976 . S
Fe287 O305 2.002 . S
O288 Fe286 1.918 . S
O288 Fe287 1.918 . S
O288 Fe289 1.918 . S
Fe289 O288 1.918 . S
Fe289 O290 2.002 . S
Fe289 O299 1.976 1_556 S
Fe289 O303 1.996 . S
Fe289 O306 1.997 . S
O290 Fe289 2.002 . S
O290 C307 1.295 . S
O291 Fe286 1.997 . S
O291 C307 1.235 . S
O292 Fe286 2.002 . S
O292 C293 1.295 . S
C293 O292 1.295 . S
C293 O295 1.235 . S
C294 O299 1.287 . S
C294 O300 1.255 1_554 S
O295 Fe287 1.997 . S
O295 C293 1.235 . S
C296 O302 1.287 . S
C296 O303 1.255 . S
O297 Fe286 1.976 . S
O297 C304 1.287 . S
O298 Fe287 1.996 . S
O298 C304 1.255 . S
O299 Fe289 1.976 1_554 S
O299 C294 1.287 . S
O300 Fe286 1.996 . S
O300 C294 1.255 1_556 S
C301 O305 1.295 1_655 S
C301 O306 1.235 1_655 S
O302 Fe287 1.976 . S
O302 C296 1.287 . S
O303 Fe289 1.996 . S
O303 C296 1.255 . S
C304 O297 1.287 . S
C304 O298 1.255 . S
O305 Fe287 2.002 . S
O305 C301 1.295 1_455 S
O306 Fe289 1.997 . S
O306 C301 1.235 1_455 S
C307 O290 1.295 . S
C307 O291 1.235 . S
Fe308 O310 1.918 . S
Fe308 O313 1.997 . S
Fe308 O314 2.002 . S
Fe308 O319 1.976 . S
Fe308 O322 1.996 . S
Fe309 O310 1.918 . S
Fe309 O317 1.997 . S
Fe309 O320 1.996 . S
Fe309 O324 1.976 . S
Fe309 O327 2.002 . S
O310 Fe308 1.918 . S
O310 Fe309 1.918 . S
O310 Fe311 1.918 . S
Fe311 O310 1.918 . S
Fe311 O312 2.017 . S
Fe311 O321 1.976 . S
Fe311 O325 1.996 1_554 S
Fe311 O328 1.997 . S
O312 Fe311 2.017 . S
O312 C329 1.289 1_565 S
O313 Fe308 1.997 . S
O313 C329 1.235 1_565 S
O314 Fe308 2.002 . S
O314 C315 1.295 . S
C315 O314 1.295 . S
C315 O317 1.235 . S
C316 O321 1.287 . S
C316 O322 1.255 . S
O317 Fe309 1.997 . S
O317 C315 1.235 . S
C318 O324 1.287 1_556 S
C318 O325 1.255 . S
O319 Fe308 1.976 . S
O319 C326 1.287 . S
O320 Fe309 1.996 . S
O320 C326 1.255 . S
O321 Fe311 1.976 . S
O321 C316 1.287 . S
O322 Fe308 1.996 . S
O322 C316 1.255 . S
C323 O327 1.295 . S
C323 O328 1.235 . S
O324 Fe309 1.976 . S
O324 C318 1.287 1_554 S
O325 Fe311 1.996 1_556 S
O325 C318 1.255 . S
C326 O319 1.287 . S
C326 O320 1.255 . S
O327 Fe309 2.002 . S
O327 C323 1.295 . S
O328 Fe311 1.997 . S
O328 C323 1.235 . S
C329 O312 1.289 1_545 S
C329 O313 1.235 1_545 S
Fe330 O332 1.918 . S
Fe330 O335 1.997 . S
Fe330 O336 2.002 . S
Fe330 O341 1.976 . S
Fe330 O344 1.996 . S
Fe331 O332 1.918 . S
Fe331 O339 1.997 . S
Fe331 O342 1.996 . S
Fe331 O346 1.976 1_556 S
Fe331 O349 2.002 . S
O332 Fe330 1.918 . S
O332 Fe331 1.918 . S
O332 Fe333 1.918 . S
Fe333 O332 1.918 . S
Fe333 O334 2.002 . S
Fe333 O343 1.976 . S
Fe333 O347 1.996 . S
Fe333 O350 1.997 . S
O334 Fe333 2.002 . S
O334 C351 1.295 . S
O335 Fe330 1.997 . S
O335 C351 1.235 . S
O336 Fe330 2.002 . S
O336 C337 1.295 1_655 S
C337 O336 1.295 1_455 S
C337 O339 1.235 1_455 S
C338 O343 1.287 . S
C338 O344 1.255 . S
O339 Fe331 1.997 . S
O339 C337 1.235 1_655 S
C340 O346 1.287 . S
C340 O347 1.255 1_554 S
O341 Fe330 1.976 . S
O341 C348 1.287 . S
O342 Fe331 1.996 . S
O342 C348 1.255 . S
O343 Fe333 1.976 . S
O343 C338 1.287 . S
O344 Fe330 1.996 . S
O344 C338 1.255 . S
C345 O349 1.295 . S
C345 O350 1.235 . S
O346 Fe331 1.976 1_554 S
O346 C340 1.287 . S
O347 Fe333 1.996 . S
O347 C340 1.255 1_556 S
C348 O341 1.287 . S
C348 O342 1.255 . S
O349 Fe331 2.002 . S
O349 C345 1.295 . S
O350 Fe333 1.997 . S
O350 C345 1.235 . S
C351 O334 1.295 . S
C351 O335 1.235 . S
C15 C257 1.494 . S
C37 C183 1.485 . S
C205 C65 1.494 . S
C241 C73 1.484 . S
C103 C307 1.494 . S
C131 C323 1.484 . S
C345 C147 1.494 . S
C285 C161 1.484 . S
C191 C81 1.494 . S
C7 C219 1.485 . S
C43 C227 1.494 . S
C249 C59 1.484 . S
C271 C117 1.494 . S
C139 C301 1.484 . S
C169 C329 1.494 . S
C95 C337 1.484 . S
C98 C10 1.465 . S
C32 C118 1.370 . S
C142 C52 1.465 . S
C172 C84 1.370 . S
C282 C186 1.465 1_544 S
C206 C296 1.370 1_654 S
C238 C316 1.465 1_546 S
C348 C260 1.370 1_656 S
C21 C294 1.791 . S
C318 C29 1.787 . S
C340 C51 1.791 . S
C272 C87 1.787 . S
C109 C252 1.791 . S
C125 C194 1.787 . S
C153 C216 1.791 . S
C228 C175 1.787 . S
C128 C197 1.791 . S
C150 C213 1.787 . S
C235 C164 1.791 . S
C106 C263 1.787 . S
C76 C279 1.791 . S
C293 C18 1.787 . S
C30 C315 1.791 . S
C351 C54 1.787 . S
C162 C8 1.236 . S
C96 C40 1.236 . S
C120 C62 1.236 . S
C140 C74 1.236 . S
C184 C338 1.236 . S
C274 C208 1.236 . S
C304 C230 1.236 . S
C250 C326 1.236 . S
