# Generated by pormake.
# Topology acs-h, (5)-cn, num edge types: 1
# Building blocks:
#     Node 0, Type 0, BuildingBlock: XOMCOT_clean_sbu_1, # of connection points: 5
#     Node 1, Type 0, BuildingBlock: XOMCOT_clean_sbu_1, # of connection points: 5
#     Node 2, Type 0, BuildingBlock: XOMCOT_clean_sbu_1, # of connection points: 5
#     Node 3, Type 0, BuildingBlock: XOMCOT_clean_sbu_1, # of connection points: 5
#     Node 4, Type 0, BuildingBlock: XOMCOT_clean_sbu_1, # of connection points: 5
#     Node 5, Type 0, BuildingBlock: XOMCOT_clean_sbu_1, # of connection points: 5
#     Node 6, Type 0, BuildingBlock: XOMCOT_clean_sbu_1, # of connection points: 5
#     Node 7, Type 0, BuildingBlock: XOMCOT_clean_sbu_1, # of connection points: 5
#     Node 8, Type 0, BuildingBlock: XOMCOT_clean_sbu_1, # of connection points: 5
#     Node 9, Type 0, BuildingBlock: XOMCOT_clean_sbu_1, # of connection points: 5
#     Node 10, Type 0, BuildingBlock: XOMCOT_clean_sbu_1, # of connection points: 5
#     Node 11, Type 0, BuildingBlock: XOMCOT_clean_sbu_1, # of connection points: 5
#     Edge 12, Type (0, 0), BuildingBlock: XIVTED_clean_linker_0, # of connection points: 2
#     Edge 13, Type (0, 0), BuildingBlock: XIVTED_clean_linker_0, # of connection points: 2
#     Edge 14, Type (0, 0), BuildingBlock: XIVTED_clean_linker_0, # of connection points: 2
#     Edge 15, Type (0, 0), BuildingBlock: XIVTED_clean_linker_0, # of connection points: 2
#     Edge 16, Type (0, 0), BuildingBlock: XIVTED_clean_linker_0, # of connection points: 2
#     Edge 17, Type (0, 0), BuildingBlock: XIVTED_clean_linker_0, # of connection points: 2
#     Edge 18, Type (0, 0), BuildingBlock: XIVTED_clean_linker_0, # of connection points: 2
#     Edge 19, Type (0, 0), BuildingBlock: XIVTED_clean_linker_0, # of connection points: 2
#     Edge 20, Type (0, 0), BuildingBlock: XIVTED_clean_linker_0, # of connection points: 2
#     Edge 21, Type (0, 0), BuildingBlock: XIVTED_clean_linker_0, # of connection points: 2
#     Edge 22, Type (0, 0), BuildingBlock: XIVTED_clean_linker_0, # of connection points: 2
#     Edge 23, Type (0, 0), BuildingBlock: XIVTED_clean_linker_0, # of connection points: 2
#     Edge 24, Type (0, 0), BuildingBlock: XIVTED_clean_linker_0, # of connection points: 2
#     Edge 25, Type (0, 0), BuildingBlock: XIVTED_clean_linker_0, # of connection points: 2
#     Edge 26, Type (0, 0), BuildingBlock: XIVTED_clean_linker_0, # of connection points: 2
#     Edge 27, Type (0, 0), BuildingBlock: XIVTED_clean_linker_0, # of connection points: 2
#     Edge 28, Type (0, 0), BuildingBlock: XIVTED_clean_linker_0, # of connection points: 2
#     Edge 29, Type (0, 0), BuildingBlock: XIVTED_clean_linker_0, # of connection points: 2
#     Edge 30, Type (0, 0), BuildingBlock: XIVTED_clean_linker_0, # of connection points: 2
#     Edge 31, Type (0, 0), BuildingBlock: XIVTED_clean_linker_0, # of connection points: 2
#     Edge 32, Type (0, 0), BuildingBlock: XIVTED_clean_linker_0, # of connection points: 2
#     Edge 33, Type (0, 0), BuildingBlock: XIVTED_clean_linker_0, # of connection points: 2
#     Edge 34, Type (0, 0), BuildingBlock: XIVTED_clean_linker_0, # of connection points: 2
#     Edge 35, Type (0, 0), BuildingBlock: XIVTED_clean_linker_0, # of connection points: 2
#     Edge 36, Type (0, 0), BuildingBlock: XIVTED_clean_linker_0, # of connection points: 2
#     Edge 37, Type (0, 0), BuildingBlock: XIVTED_clean_linker_0, # of connection points: 2
#     Edge 38, Type (0, 0), BuildingBlock: XIVTED_clean_linker_0, # of connection points: 2
#     Edge 39, Type (0, 0), BuildingBlock: XIVTED_clean_linker_0, # of connection points: 2
#     Edge 40, Type (0, 0), BuildingBlock: XIVTED_clean_linker_0, # of connection points: 2
#     Edge 41, Type (0, 0), BuildingBlock: XIVTED_clean_linker_0, # of connection points: 2
# Relax obj value: 0.905
# Max RMSD: 0.277
# Mean RMSD: 0.277
data_MOF--net-acs-h--node1-XOMCOT_clean_sbu_1--edge1-XIVTED_clean_linker_0
_symmetry_space_group_name_H-M    P1
_symmetry_Int_Tables_number       1
_symmetry_cell_setting            triclinic
loop_
_symmetry_equiv_pos_as_xyz
'x, y, z'
_cell_length_a     47.735353
_cell_length_b     47.732645
_cell_length_c     39.85616
_cell_angle_alpha  89.961752
_cell_angle_beta   89.960336
_cell_angle_gamma 120.03664
loop_
_atom_site_label
_atom_site_type_symbol
_atom_site_fract_x
_atom_site_fract_y
_atom_site_fract_z
_atom_type_partial_charge
C0 C 0.50615 0.18169 0.05929 0.0
C1 C 0.53719 0.1905 0.04956 0.0
N2 N 0.55045 0.18106 0.07369 0.0
N3 N 0.50006 0.16701 0.08948 0.0
C4 C 0.52741 0.16676 0.09738 0.0
H5 H 0.48893 0.18508 0.04484 0.0
Co6 Co 0.46102 0.1472 0.11266 0.0
C7 C 0.48017 0.14798 0.18544 0.0
O8 O 0.45094 0.13605 0.19794 0.0
N9 N 0.42075 0.12659 0.13516 0.0
C10 C 0.37358 0.09017 0.15792 0.0
C11 C 0.40019 0.09454 0.14015 0.0
C12 C 0.40548 0.14092 0.14952 0.0
N13 N 0.37696 0.11942 0.16347 0.0
O14 O 0.46623 0.18881 0.12058 0.0
H15 H 0.40411 0.0752 0.13203 0.0
H16 H 0.41567 0.16679 0.15151 0.0
O17 O 0.48487 0.15229 0.15389 0.0
C18 C 0.4576 0.20274 0.09914 0.0
O19 O 0.4399 0.18604 0.07344 0.0
N20 N 0.45768 0.10761 0.10308 0.0
C21 C 0.47249 0.06398 0.07419 0.0
C22 C 0.47644 0.06987 0.10878 0.0
C23 C 0.46875 0.09186 0.12289 0.0
C24 C 0.44983 0.09908 0.07043 0.0
C25 C 0.45711 0.07722 0.05535 0.0
H26 H 0.47405 0.09773 0.14905 0.0
H27 H 0.44092 0.11177 0.05527 0.0
H28 H 0.52995 0.15502 0.11942 0.0
H29 H 0.54903 0.2029 0.0266 0.0
H30 H 0.35368 0.06738 0.16668 0.0
H31 H 0.48793 0.05985 0.12425 0.0
H32 H 0.45288 0.07254 0.02871 0.0
C33 C 0.81055 0.32653 0.04629 0.0
C34 C 0.80301 0.35027 0.0393 0.0
N35 N 0.81214 0.37064 0.06564 0.0
N36 N 0.82417 0.33185 0.07696 0.0
C37 C 0.82514 0.35911 0.08787 0.0
H38 H 0.80658 0.30683 0.02994 0.0
Co39 Co 0.84029 0.30805 0.09808 0.0
C40 C 0.84302 0.32571 0.17187 0.0
O41 O 0.8588 0.31137 0.18225 0.0
N42 N 0.85669 0.28376 0.11863 0.0
C43 C 0.8884 0.26533 0.13778 0.0
C44 C 0.88734 0.28905 0.11905 0.0
C45 C 0.8396 0.25626 0.13655 0.0
N46 N 0.85821 0.24465 0.14837 0.0
O47 O 0.79732 0.2736 0.10353 0.0
H48 H 0.90796 0.30914 0.10713 0.0
H49 H 0.81422 0.24575 0.14264 0.0
O50 O 0.83607 0.32509 0.14087 0.0
C51 C 0.78306 0.25213 0.08113 0.0
O52 O 0.79942 0.25192 0.0547 0.0
N53 N 0.88171 0.3425 0.09071 0.0
C54 C 0.92756 0.40075 0.06312 0.0
C55 C 0.92164 0.39821 0.09774 0.0
C56 C 0.8985 0.36859 0.11121 0.0
C57 C 0.89044 0.34348 0.05806 0.0
C58 C 0.91345 0.37252 0.04364 0.0
H59 H 0.89238 0.36788 0.13727 0.0
H60 H 0.87687 0.32245 0.04233 0.0
H61 H 0.83605 0.37092 0.11128 0.0
H62 H 0.79126 0.35207 0.01685 0.0
H63 H 0.90967 0.26368 0.14366 0.0
H64 H 0.9323 0.41941 0.1137 0.0
H65 H 0.9181 0.3734 0.01694 0.0
C66 C 0.66236 0.47855 0.05622 0.0
C67 C 0.63967 0.44668 0.05003 0.0
N68 N 0.62106 0.43453 0.07762 0.0
N69 N 0.65808 0.48633 0.08756 0.0
C70 C 0.63269 0.45905 0.09986 0.0
H71 H 0.68029 0.49519 0.03871 0.0
Co72 Co 0.68 0.52719 0.10686 0.0
C73 C 0.65783 0.51636 0.17921 0.0
O74 O 0.66741 0.54683 0.18552 0.0
N75 N 0.70232 0.56914 0.12566 0.0
C76 C 0.71617 0.61846 0.14472 0.0
C77 C 0.69348 0.59209 0.12699 0.0
C78 C 0.73082 0.58267 0.14217 0.0
N79 N 0.73969 0.61244 0.15378 0.0
O80 O 0.71543 0.52054 0.11519 0.0
H81 H 0.67139 0.58973 0.11699 0.0
H82 H 0.74423 0.57042 0.14738 0.0
O83 O 0.6623 0.50793 0.15025 0.0
C84 C 0.73639 0.52771 0.09214 0.0
O85 O 0.73541 0.54371 0.06575 0.0
N86 N 0.64497 0.53216 0.09621 0.0
C87 C 0.59122 0.52742 0.06436 0.0
C88 C 0.58898 0.51666 0.09747 0.0
C89 C 0.61616 0.519 0.11295 0.0
C90 C 0.64814 0.54494 0.06497 0.0
C91 C 0.62152 0.54299 0.04855 0.0
H92 H 0.61289 0.50776 0.1371 0.0
H93 H 0.67106 0.55473 0.05196 0.0
H94 H 0.62186 0.45743 0.12412 0.0
H95 H 0.63704 0.43357 0.02702 0.0
H96 H 0.71511 0.63993 0.15119 0.0
H97 H 0.56589 0.50401 0.11031 0.0
H98 H 0.62422 0.55185 0.02304 0.0
C99 C 0.83376 0.49247 0.43652 0.0
C100 C 0.8233 0.46108 0.44647 0.0
N101 N 0.81641 0.44262 0.41874 0.0
N102 N 0.83372 0.49374 0.40272 0.0
C103 C 0.82257 0.46296 0.39275 0.0
H104 H 0.84203 0.51325 0.4528 0.0
Co105 Co 0.85023 0.5307 0.37616 0.0
C106 C 0.83993 0.50033 0.30919 0.0
O107 O 0.82347 0.51399 0.29883 0.0
N108 N 0.8674 0.56807 0.34969 0.0
C109 C 0.90023 0.60933 0.31698 0.0
C110 C 0.89688 0.58338 0.33504 0.0
C111 C 0.85333 0.58525 0.3401 0.0
N112 N 0.87266 0.6104 0.31988 0.0
O113 O 0.80709 0.51876 0.36405 0.0
H114 H 0.91467 0.57575 0.33637 0.0
H115 H 0.82867 0.57837 0.34629 0.0
O116 O 0.85242 0.50652 0.3384 0.0
C117 C 0.79068 0.52361 0.38606 0.0
O118 O 0.8056 0.54039 0.41294 0.0
N119 N 0.89147 0.54169 0.39046 0.0
C120 C 0.945 0.55038 0.42615 0.0
C121 C 0.93541 0.53163 0.39691 0.0
C122 C 0.9083 0.52726 0.37956 0.0
C123 C 0.90193 0.5621 0.41724 0.0
C124 C 0.92869 0.56668 0.43572 0.0
H125 H 0.90019 0.51088 0.35861 0.0
H126 H 0.888 0.57299 0.42563 0.0
H127 H 0.82039 0.45566 0.36682 0.0
H128 H 0.82155 0.45269 0.47203 0.0
H129 H 0.92099 0.62533 0.30187 0.0
H130 H 0.94705 0.51823 0.389 0.0
H131 H 0.93546 0.58134 0.45823 0.0
C132 C 0.50805 0.33213 0.43041 0.0
C133 C 0.54026 0.35298 0.4372 0.0
N134 N 0.55505 0.36782 0.40838 0.0
N135 N 0.50261 0.33396 0.39755 0.0
C136 C 0.53172 0.35577 0.38476 0.0
H137 H 0.48959 0.31705 0.44835 0.0
Co138 Co 0.46224 0.31223 0.37737 0.0
C139 C 0.47352 0.34206 0.3084 0.0
O140 O 0.44422 0.33766 0.30539 0.0
N141 N 0.42052 0.2896 0.35773 0.0
C142 C 0.37089 0.27458 0.33876 0.0
C143 C 0.39748 0.29823 0.35539 0.0
C144 C 0.40684 0.26029 0.3428 0.0
N145 N 0.37684 0.25065 0.3313 0.0
O146 O 0.47105 0.27896 0.36607 0.0
H147 H 0.39993 0.32082 0.36389 0.0
H148 H 0.41895 0.24656 0.33891 0.0
O149 O 0.48154 0.33277 0.33486 0.0
C150 C 0.46551 0.25689 0.38731 0.0
O151 O 0.44779 0.25372 0.41383 0.0
N152 N 0.45549 0.34555 0.39089 0.0
C153 C 0.45574 0.39545 0.42666 0.0
C154 C 0.47216 0.40164 0.39602 0.0
C155 C 0.47224 0.37642 0.37877 0.0
C156 C 0.43802 0.3388 0.41979 0.0
C157 C 0.43765 0.36347 0.43809 0.0
H158 H 0.48821 0.38262 0.35756 0.0
H159 H 0.42597 0.31439 0.42965 0.0
H160 H 0.53569 0.36371 0.35893 0.0
H161 H 0.55183 0.35694 0.46145 0.0
H162 H 0.34927 0.27522 0.33197 0.0
H163 H 0.48729 0.42615 0.38695 0.0
H164 H 0.42488 0.35786 0.46182 0.0
C165 C 0.67589 0.19564 0.4384 0.0
C166 C 0.6549 0.20673 0.44562 0.0
N167 N 0.62854 0.1905 0.42619 0.0
N168 N 0.66306 0.17322 0.41388 0.0
C169 C 0.63392 0.17023 0.4075 0.0
H170 H 0.69938 0.20421 0.4496 0.0
Co171 Co 0.68214 0.15299 0.39103 0.0
C172 C 0.66652 0.17168 0.3244 0.0
O173 O 0.69614 0.19539 0.31901 0.0
N174 N 0.70144 0.13279 0.36819 0.0
C175 C 0.71751 0.09855 0.35102 0.0
C176 C 0.69741 0.10286 0.37266 0.0
C177 C 0.72438 0.14626 0.34424 0.0
N178 N 0.73458 0.12613 0.33366 0.0
O179 O 0.71776 0.19448 0.38095 0.0
H180 H 0.68128 0.08531 0.39078 0.0
H181 H 0.73369 0.17049 0.33454 0.0
O182 O 0.66001 0.15412 0.35057 0.0
C183 C 0.7424 0.2087 0.39985 0.0
O184 O 0.74551 0.19265 0.425 0.0
N185 N 0.64709 0.11315 0.40269 0.0
C186 C 0.5872 0.0691 0.42831 0.0
C187 C 0.59249 0.07128 0.39357 0.0
C188 C 0.62302 0.09345 0.38114 0.0
C189 C 0.64369 0.10791 0.43636 0.0
C190 C 0.61371 0.08597 0.44983 0.0
H191 H 0.62644 0.09645 0.35431 0.0
H192 H 0.66339 0.12332 0.45293 0.0
H193 H 0.61751 0.15463 0.38834 0.0
H194 H 0.65902 0.22583 0.46302 0.0
H195 H 0.71999 0.0773 0.34875 0.0
H196 H 0.57275 0.05813 0.37616 0.0
H197 H 0.61076 0.08402 0.47683 0.0
C198 C 0.48948 0.83247 0.94609 0.0
C199 C 0.45733 0.82043 0.95387 0.0
N200 N 0.44041 0.81302 0.92499 0.0
N201 N 0.49278 0.83291 0.91249 0.0
C202 C 0.46244 0.82041 0.90041 0.0
H203 H 0.50933 0.84134 0.96371 0.0
Co204 Co 0.53144 0.85075 0.88873 0.0
C205 C 0.50919 0.84877 0.81928 0.0
O206 O 0.52644 0.83619 0.80831 0.0
N207 N 0.57058 0.86918 0.86501 0.0
C208 C 0.61296 0.90283 0.83396 0.0
C209 C 0.58684 0.89932 0.85188 0.0
C210 C 0.58755 0.85503 0.85496 0.0
N211 N 0.61324 0.8748 0.83566 0.0
O212 O 0.51982 0.80838 0.87396 0.0
H213 H 0.57939 0.91724 0.85367 0.0
H214 H 0.57985 0.82987 0.85945 0.0
O215 O 0.51017 0.85604 0.85016 0.0
C216 C 0.52439 0.79147 0.89557 0.0
O217 O 0.5404 0.8057 0.92306 0.0
N218 N 0.54205 0.89105 0.90548 0.0
C219 C 0.55307 0.94477 0.94234 0.0
C220 C 0.53293 0.93535 0.91411 0.0
C221 C 0.52733 0.90807 0.89621 0.0
C222 C 0.56309 0.90085 0.93174 0.0
C223 C 0.56884 0.92769 0.95079 0.0
H224 H 0.50988 0.89995 0.87614 0.0
H225 H 0.57401 0.88662 0.93896 0.0
H226 H 0.45668 0.81796 0.87398 0.0
H227 H 0.44733 0.81788 0.97881 0.0
H228 H 0.62935 0.92379 0.81926 0.0
H229 H 0.51973 0.94754 0.90737 0.0
H230 H 0.58431 0.9342 0.97267 0.0
C231 C 0.1597 0.65491 0.94907 0.0
C232 C 0.17158 0.63462 0.9567 0.0
N233 N 0.18187 0.62773 0.92802 0.0
N234 N 0.16213 0.66033 0.91571 0.0
C235 C 0.17634 0.64405 0.9038 0.0
H236 H 0.14871 0.66396 0.96647 0.0
Co237 Co 0.14517 0.68118 0.89057 0.0
C238 C 0.15236 0.66183 0.82232 0.0
O239 O 0.16684 0.692 0.81192 0.0
N240 N 0.12765 0.70181 0.86513 0.0
C241 C 0.09494 0.71012 0.83208 0.0
C242 C 0.09766 0.68796 0.85166 0.0
C243 C 0.14255 0.73249 0.85346 0.0
N244 N 0.12334 0.7381 0.83295 0.0
O245 O 0.18813 0.71223 0.87766 0.0
H246 H 0.07923 0.66285 0.85437 0.0
H247 H 0.1678 0.74974 0.85783 0.0
O248 O 0.14192 0.655 0.85231 0.0
C249 C 0.20472 0.73315 0.89986 0.0
O250 O 0.18989 0.73491 0.9269 0.0
N251 N 0.10417 0.65099 0.90564 0.0
C252 C 0.05001 0.60679 0.94117 0.0
C253 C 0.06014 0.59708 0.91269 0.0
C254 C 0.08761 0.61947 0.89548 0.0
C255 C 0.09352 0.66135 0.93196 0.0
C256 C 0.06647 0.63948 0.9504 0.0
H257 H 0.09621 0.61079 0.87526 0.0
H258 H 0.10737 0.68633 0.9399 0.0
H259 H 0.18108 0.64276 0.87751 0.0
H260 H 0.17178 0.62503 0.98125 0.0
H261 H 0.07418 0.70539 0.81702 0.0
H262 H 0.04841 0.57188 0.90528 0.0
H263 H 0.05939 0.64768 0.97246 0.0
C264 C 0.3297 0.51108 0.93459 0.0
C265 C 0.35164 0.54316 0.94057 0.0
N266 N 0.36712 0.55667 0.9116 0.0
N267 N 0.33146 0.50443 0.90208 0.0
C268 C 0.3544 0.53271 0.88868 0.0
H269 H 0.31378 0.49352 0.95284 0.0
Co270 Co 0.3079 0.46365 0.88321 0.0
C271 C 0.33868 0.47227 0.81499 0.0
O272 O 0.33566 0.44335 0.81497 0.0
N273 N 0.28329 0.42206 0.86517 0.0
C274 C 0.25111 0.36867 0.86056 0.0
C275 C 0.27248 0.39335 0.88098 0.0
C276 C 0.2678 0.41412 0.83539 0.0
N277 N 0.24854 0.38189 0.83185 0.0
O278 O 0.27525 0.4733 0.87183 0.0
H279 H 0.27802 0.39022 0.90642 0.0
H280 H 0.26906 0.43174 0.81741 0.0
O281 O 0.32841 0.48128 0.83998 0.0
C282 C 0.25369 0.46685 0.89399 0.0
O283 O 0.25218 0.44913 0.91993 0.0
N284 N 0.34022 0.45517 0.89707 0.0
C285 C 0.38893 0.45283 0.93295 0.0
C286 C 0.39525 0.46737 0.90125 0.0
C287 C 0.37079 0.46902 0.88408 0.0
C288 C 0.33364 0.44055 0.92772 0.0
C289 C 0.35751 0.43865 0.94593 0.0
H290 H 0.37777 0.48421 0.86223 0.0
H291 H 0.31036 0.43258 0.93931 0.0
H292 H 0.36249 0.53564 0.86293 0.0
H293 H 0.35581 0.55556 0.96434 0.0
H294 H 0.23752 0.34318 0.8668 0.0
H295 H 0.41959 0.48002 0.89113 0.0
H296 H 0.35191 0.4279 0.97073 0.0
C297 C 0.19126 0.50997 0.5618 0.0
C298 C 0.20429 0.54218 0.55368 0.0
N299 N 0.18937 0.5543 0.57237 0.0
N300 N 0.16893 0.50217 0.58624 0.0
C301 C 0.16773 0.52951 0.59128 0.0
H302 H 0.19852 0.49378 0.55121 0.0
Co303 Co 0.14703 0.46387 0.6111 0.0
C304 C 0.15412 0.48856 0.68102 0.0
O305 O 0.15869 0.46569 0.69353 0.0
N306 N 0.12466 0.42514 0.63576 0.0
C307 C 0.09036 0.38534 0.66936 0.0
C308 C 0.0961 0.41273 0.65218 0.0
C309 C 0.13526 0.40439 0.64286 0.0
N310 N 0.11527 0.38025 0.66364 0.0
O311 O 0.18788 0.46919 0.62408 0.0
H312 H 0.08102 0.42359 0.65334 0.0
H313 H 0.15851 0.40815 0.63515 0.0
O314 O 0.14904 0.48922 0.64975 0.0
C315 C 0.20284 0.45966 0.60501 0.0
O316 O 0.1874 0.44098 0.57935 0.0
N317 N 0.10819 0.45981 0.5968 0.0
C318 C 0.06369 0.46939 0.56162 0.0
C319 C 0.06921 0.47728 0.59574 0.0
C320 C 0.0917 0.47237 0.61296 0.0
C321 C 0.10074 0.44893 0.56471 0.0
C322 C 0.07846 0.45353 0.5465 0.0
H323 H 0.09709 0.48064 0.63857 0.0
H324 H 0.11422 0.4392 0.55238 0.0
H325 H 0.15224 0.53171 0.60954 0.0
H326 H 0.22382 0.55585 0.53616 0.0
H327 H 0.07035 0.37145 0.68626 0.0
H328 H 0.05836 0.48961 0.60835 0.0
H329 H 0.07436 0.44658 0.52031 0.0
C330 C 0.48305 0.65146 0.55794 0.0
C331 C 0.45135 0.62869 0.55123 0.0
N332 N 0.43669 0.61508 0.5805 0.0
N333 N 0.48826 0.65208 0.59122 0.0
C334 C 0.45956 0.62972 0.60426 0.0
H335 H 0.50138 0.6661 0.53968 0.0
Co336 Co 0.52799 0.67632 0.61211 0.0
C337 C 0.5172 0.65033 0.68261 0.0
O338 O 0.5473 0.65723 0.68651 0.0
N339 N 0.5689 0.70131 0.63256 0.0
C340 C 0.61915 0.72043 0.65192 0.0
C341 C 0.59473 0.69668 0.63302 0.0
C342 C 0.57863 0.72831 0.65108 0.0
N343 N 0.60895 0.74035 0.66292 0.0
O344 O 0.51725 0.70907 0.61987 0.0
H345 H 0.59584 0.67683 0.62148 0.0
H346 H 0.5634 0.73839 0.65716 0.0
O347 O 0.50837 0.65726 0.65511 0.0
C348 C 0.52159 0.72857 0.59605 0.0
O349 O 0.53785 0.72853 0.56944 0.0
N350 N 0.53682 0.6436 0.6018 0.0
C351 C 0.5365 0.59271 0.56792 0.0
C352 C 0.52151 0.58766 0.5993 0.0
C353 C 0.52147 0.61335 0.61564 0.0
C354 C 0.55336 0.64936 0.57237 0.0
C355 C 0.55381 0.62425 0.5551 0.0
H356 H 0.50621 0.60772 0.63736 0.0
H357 H 0.56426 0.67318 0.56115 0.0
H358 H 0.45563 0.6232 0.63048 0.0
H359 H 0.44005 0.62258 0.52675 0.0
H360 H 0.64236 0.72263 0.65754 0.0
H361 H 0.50707 0.56353 0.60957 0.0
H362 H 0.56564 0.62906 0.53087 0.0
C363 C 0.33511 0.82667 0.5466 0.0
C364 C 0.35457 0.81396 0.53837 0.0
N365 N 0.36479 0.80698 0.56704 0.0
N366 N 0.33344 0.828 0.58026 0.0
C367 C 0.35125 0.81532 0.59193 0.0
H368 H 0.32377 0.83534 0.5292 0.0
Co369 Co 0.31389 0.84652 0.605 0.0
C370 C 0.33718 0.84629 0.67324 0.0
O371 O 0.30767 0.83389 0.68519 0.0
N372 N 0.29449 0.86564 0.62989 0.0
C373 C 0.28812 0.90005 0.66221 0.0
C374 C 0.30943 0.89596 0.64259 0.0
C375 C 0.264 0.85196 0.64192 0.0
N376 N 0.25956 0.87222 0.662 0.0
O377 O 0.28432 0.80464 0.6217 0.0
H378 H 0.33475 0.91361 0.6394 0.0
H379 H 0.24605 0.82682 0.63826 0.0
O380 O 0.34253 0.85299 0.64213 0.0
C381 C 0.26045 0.78656 0.60298 0.0
O382 O 0.2541 0.79947 0.57704 0.0
N383 N 0.34254 0.88633 0.58631 0.0
C384 C 0.38315 0.9395 0.54747 0.0
C385 C 0.39522 0.93113 0.57538 0.0
C386 C 0.37459 0.90407 0.59426 0.0
C387 C 0.33006 0.89495 0.56018 0.0
C388 C 0.35011 0.92145 0.54006 0.0
H389 H 0.38492 0.89687 0.61419 0.0
H390 H 0.3047 0.88011 0.55398 0.0
H391 H 0.35528 0.81334 0.61827 0.0
H392 H 0.36106 0.81065 0.51327 0.0
H393 H 0.29377 0.92128 0.67693 0.0
H394 H 0.42081 0.94415 0.58127 0.0
H395 H 0.34019 0.92713 0.51837 0.0
H396 H 0.67001 0.20467 0.26653 0.0
H397 H 0.47754 0.12276 0.248 0.0
H398 H 0.60147 0.12963 0.33228 0.0
H399 H 0.54502 0.18474 0.17252 0.0
H400 H 0.52303 0.12829 0.28145 0.0
H401 H 0.62483 0.19996 0.23313 0.0
C402 C 0.64553 0.1871 0.27388 0.0
C403 C 0.63965 0.16759 0.30237 0.0
C404 C 0.52789 0.14066 0.25754 0.0
C405 C 0.58776 0.16237 0.26446 0.0
C406 C 0.50193 0.13768 0.23854 0.0
C407 C 0.50745 0.15302 0.20722 0.0
C408 C 0.55965 0.15934 0.24529 0.0
C409 C 0.53959 0.17201 0.19622 0.0
C410 C 0.61973 0.18448 0.25483 0.0
C411 C 0.60733 0.14526 0.31064 0.0
N412 N 0.56445 0.17461 0.21518 0.0
N413 N 0.58267 0.1434 0.29191 0.0
H414 H 0.80423 0.35204 0.16244 0.0
H415 H 0.86827 0.4644 0.32539 0.0
H416 H 0.87224 0.3504 0.23252 0.0
H417 H 0.81273 0.47685 0.24734 0.0
H418 H 0.86694 0.42025 0.29365 0.0
H419 H 0.80327 0.39458 0.1956 0.0
C420 C 0.81897 0.36062 0.18483 0.0
C421 C 0.83884 0.34806 0.19433 0.0
C422 C 0.85517 0.43271 0.28335 0.0
C423 C 0.83752 0.39652 0.23272 0.0
C424 C 0.85606 0.45815 0.30141 0.0
C425 C 0.84083 0.47471 0.28895 0.0
C426 C 0.8388 0.42349 0.25256 0.0
C427 C 0.82497 0.46496 0.25789 0.0
C428 C 0.81835 0.38488 0.20379 0.0
C429 C 0.85666 0.35943 0.22413 0.0
N430 N 0.82432 0.43996 0.24079 0.0
N431 N 0.85572 0.38315 0.24215 0.0
H432 H 0.64521 0.45403 0.18556 0.0
H433 H 0.47595 0.39243 0.27351 0.0
H434 H 0.61522 0.52002 0.22215 0.0
H435 H 0.53104 0.34511 0.29388 0.0
H436 H 0.52265 0.4352 0.24356 0.0
H437 H 0.59993 0.40983 0.2162 0.0
C438 C 0.62941 0.45929 0.20046 0.0
C439 C 0.63409 0.49076 0.20157 0.0
C440 C 0.52435 0.41529 0.25439 0.0
C441 C 0.58192 0.44035 0.23548 0.0
C442 C 0.49763 0.39069 0.2711 0.0
C443 C 0.49964 0.36517 0.28609 0.0
C444 C 0.553 0.41398 0.25205 0.0
C445 C 0.52855 0.36441 0.28263 0.0
C446 C 0.60361 0.4341 0.21777 0.0
C447 C 0.61274 0.49623 0.22095 0.0
N448 N 0.55413 0.38844 0.2658 0.0
N449 N 0.58728 0.47116 0.23675 0.0
H450 H 0.50372 0.84162 0.75081 0.0
H451 H 0.33774 0.84273 0.74184 0.0
H452 H 0.46204 0.86278 0.8365 0.0
H453 H 0.3974 0.85814 0.65452 0.0
H454 H 0.38117 0.84593 0.77717 0.0
H455 H 0.46306 0.8436 0.71493 0.0
C456 C 0.48616 0.84682 0.76206 0.0
C457 C 0.48625 0.85189 0.79675 0.0
C458 C 0.38478 0.8488 0.75028 0.0
C459 C 0.43953 0.85382 0.75596 0.0
C460 C 0.35998 0.8469 0.7301 0.0
C461 C 0.36386 0.85006 0.69516 0.0
C462 C 0.41347 0.85339 0.73538 0.0
C463 C 0.39329 0.85552 0.68134 0.0
C464 C 0.46302 0.848 0.74157 0.0
C465 C 0.46292 0.85861 0.80994 0.0
N466 N 0.41684 0.85671 0.70145 0.0
N467 N 0.44035 0.85908 0.78959 0.0
H468 H 0.14364 0.48632 0.74906 0.0
H469 H 0.16937 0.66571 0.75601 0.0
H470 H 0.1666 0.54886 0.66296 0.0
H471 H 0.13367 0.5993 0.83971 0.0
H472 H 0.17043 0.62363 0.72206 0.0
H473 H 0.14267 0.52832 0.78377 0.0
C474 C 0.14849 0.50885 0.73746 0.0
C475 C 0.15469 0.51387 0.70292 0.0
C476 C 0.16225 0.61822 0.74784 0.0
C477 C 0.15365 0.56192 0.74231 0.0
C478 C 0.16159 0.64226 0.76721 0.0
C479 C 0.15133 0.63607 0.80074 0.0
C480 C 0.15279 0.58781 0.76212 0.0
C481 C 0.1416 0.60518 0.81392 0.0
C482 C 0.14779 0.53273 0.75721 0.0
C483 C 0.16089 0.54354 0.68921 0.0
N484 N 0.14269 0.58228 0.79464 0.0
N485 N 0.16021 0.56637 0.70889 0.0
H486 H 0.51987 0.60563 0.72328 0.0
H487 H 0.34221 0.52946 0.79769 0.0
H488 H 0.45621 0.6407 0.69262 0.0
H489 H 0.38915 0.47336 0.78138 0.0
H490 H 0.38596 0.57448 0.76644 0.0
H491 H 0.47494 0.56166 0.754 0.0
C492 C 0.49661 0.60445 0.72352 0.0
C493 C 0.49175 0.62686 0.70538 0.0
C494 C 0.38641 0.55215 0.76943 0.0
C495 C 0.44028 0.57651 0.74026 0.0
C496 C 0.36146 0.52645 0.78711 0.0
C497 C 0.36195 0.49755 0.79195 0.0
C498 C 0.41236 0.54915 0.75723 0.0
C499 C 0.3876 0.49504 0.77796 0.0
C500 C 0.47091 0.57913 0.74071 0.0
C501 C 0.46094 0.62386 0.70624 0.0
N502 N 0.41199 0.52066 0.76161 0.0
N503 N 0.43634 0.59916 0.72346 0.0
H504 H 0.47488 0.01008 0.09413 0.0
H505 H 0.56294 0.00476 0.92704 0.0
H506 H 0.50746 0.08281 0.0164 0.0
H507 H 0.54137 0.93837 0.00943 0.0
H508 H 0.54871 0.03754 0.96242 0.0
H509 H 0.50339 0.98604 0.06598 0.0
C510 C 0.48799 0.02093 0.07115 0.0
C511 C 0.48824 0.04802 0.05717 0.0
C512 C 0.54766 0.01614 0.97303 0.0
C513 C 0.52103 0.02097 0.02508 0.0
C514 C 0.55593 -0.00241 0.95289 0.0
C515 C 0.553 0.96882 0.96536 0.0
C516 C 0.53587 0.00544 0.00561 0.0
C517 C 0.54398 0.9605 -0.00102 0.0
C518 C 0.50436 0.00733 0.05518 0.0
C519 C 0.50576 0.0613 0.02747 0.0
N520 N 0.53512 0.97844 0.01782 0.0
N521 N 0.52129 0.04752 0.01233 0.0
H522 H 0.90827 0.41839 0.00677 0.0
H523 H 0.05544 0.60001 0.00822 0.0
H524 H 0.98224 0.45641 0.08318 0.0
H525 H 0.99084 0.55614 0.92443 0.0
H526 H 0.02224 0.55124 0.04141 0.0
H527 H 0.93301 0.47162 0.98084 0.0
C528 C 0.93007 0.43787 0.01782 0.0
C529 C 0.94374 0.43281 0.04671 0.0
C530 C 0.015 0.55253 0.01598 0.0
C531 C 0.97162 0.49411 0.01765 0.0
C532 C 0.03366 0.58047 -0.00281 0.0
C533 C 0.02588 0.58181 0.96354 0.0
C534 C 0.98848 0.52593 0.00087 0.0
C535 C -0.00227 0.55578 0.95024 0.0
C536 C 0.9439 0.46837 0.00325 0.0
C537 C 0.97115 0.45925 0.06074 0.0
N538 N 0.98023 0.52868 0.96884 0.0
N539 N 0.98437 0.48882 0.04591 0.0
H540 H 0.44045 0.44572 0.91567 0.0
H541 H 0.53708 0.52909 0.08422 0.0
H542 H 0.39993 0.47239 -0.00184 0.0
H543 H 0.5773 0.50274 0.00115 0.0
H544 H 0.48583 0.5069 0.05387 0.0
H545 H 0.48985 0.46351 0.94824 0.0
C546 C 0.44184 0.45488 0.94084 0.0
C547 C 0.4162 0.45766 0.95427 0.0
C548 C 0.50595 0.50614 0.04224 0.0
C549 C 0.47256 0.47847 0.9914 0.0
C550 C 0.53516 0.51889 0.05949 0.0
C551 C 0.56147 0.51796 0.04504 0.0
C552 C 0.50308 0.4923 0.01044 0.0
C553 C 0.55781 0.50453 0.01294 0.0
C554 C 0.47002 0.46514 0.95937 0.0
C555 C 0.41903 0.4695 0.98703 0.0
N556 N 0.52911 0.49214 -0.00325 0.0
N557 N 0.44688 0.47977 0.00439 0.0
H558 H 0.08096 0.49791 0.50007 0.0
H559 H 0.93803 0.53856 0.49328 0.0
H560 H 0.0084 0.47072 0.57736 0.0
H561 H 0.00293 0.55482 0.41064 0.0
H562 H 0.96882 0.5213 0.52781 0.0
H563 H 0.05598 0.52367 0.46908 0.0
C564 C 0.05941 0.49687 0.51025 0.0
C565 C 0.0465 0.48184 0.54118 0.0
C566 C 0.97662 0.52908 0.50227 0.0
C567 C 0.01843 0.5122 0.50633 0.0
C568 C 0.95935 0.5394 0.48271 0.0
C569 C 0.96791 0.54791 0.44903 0.0
C570 C 0.00252 0.52725 0.48796 0.0
C571 C 0.99539 0.54806 0.43642 0.0
C572 C 0.04545 0.51199 0.49276 0.0
C573 C 0.01916 0.48211 0.55364 0.0
N574 N 0.01155 0.53748 0.45581 0.0
N575 N 0.006 0.49708 0.53614 0.0
H576 H 0.45662 0.45146 0.41004 0.0
H577 H 0.53457 0.53618 0.58523 0.0
H578 H 0.47148 0.40212 0.49292 0.0
H579 H 0.5189 0.58485 0.5022 0.0
H580 H 0.51203 0.48674 0.55166 0.0
H581 H 0.47795 0.50034 0.44425 0.0
C582 C 0.46392 0.45085 0.43563 0.0
C583 C 0.46233 0.42283 0.44872 0.0
C584 C 0.5138 0.50834 0.54071 0.0
C585 C 0.48721 0.47856 0.48773 0.0
C586 C 0.52681 0.53654 0.55978 0.0
C587 C 0.52869 0.56461 0.54642 0.0
C588 C 0.5025 0.50828 0.50817 0.0
C589 C 0.5184 0.5639 0.51331 0.0
C590 C 0.47625 0.47873 0.45508 0.0
C591 C 0.47194 0.42313 0.48203 0.0
N592 N 0.50554 0.5361 0.49539 0.0
N593 N 0.48426 0.45071 0.50033 0.0
H594 H 0.5635 0.0918 0.47654 0.0
H595 H 0.38985 0.93238 0.48084 0.0
H596 H 0.53505 0.01058 0.41007 0.0
H597 H 0.42947 0.00141 0.56164 0.0
H598 H 0.43698 0.9679 0.4463 0.0
H599 H 0.50914 0.0651 0.50013 0.0
C600 C 0.54584 0.06816 0.46712 0.0
C601 C 0.55401 0.05288 0.44202 0.0
C602 C 0.43497 0.97557 0.47132 0.0
C603 C 0.49153 0.02263 0.46832 0.0
C604 C 0.408 0.95555 0.49084 0.0
C605 C 0.40615 0.96407 0.52407 0.0
C606 C 0.45997 0.00419 0.48528 0.0
C607 C 0.43032 0.99403 0.53615 0.0
C608 C 0.51474 0.05314 0.48032 0.0
C609 C 0.52981 0.02295 0.4297 0.0
N610 N 0.45651 0.0129 0.51686 0.0
N611 N 0.49964 0.00858 0.44326 0.0
H612 H 0.34519 0.24849 0.27431 0.0
H613 H 0.34887 0.09046 0.22214 0.0
H614 H 0.36688 0.19047 0.34041 0.0
H615 H 0.36262 0.16685 0.15459 0.0
H616 H 0.33032 0.11386 0.26543 0.0
H617 H 0.32666 0.20575 0.23179 0.0
C618 C 0.34493 0.22623 0.28024 0.0
C619 C 0.35819 0.22306 0.31038 0.0
C620 C 0.33645 0.12491 0.24078 0.0
C621 C 0.33738 0.17454 0.26226 0.0
C622 C 0.34687 0.11151 0.21608 0.0
C623 C 0.358 0.12735 0.18521 0.0
C624 C 0.33722 0.15422 0.23434 0.0
C625 C 0.35497 0.15452 0.1785 0.0
C626 C 0.33452 0.20197 0.25602 0.0
C627 C 0.35745 0.1939 0.31703 0.0
N628 N 0.34542 0.16752 0.20312 0.0
N629 N 0.34777 0.1709 0.2929 0.0
H630 H 0.72834 0.09373 0.27626 0.0
H631 H 0.88942 0.24431 0.20474 0.0
H632 H 0.79528 0.17621 0.33441 0.0
H633 H 0.80338 0.18679 0.14637 0.0
H634 H 0.86509 0.20593 0.2514 0.0
H635 H 0.76594 0.11475 0.22829 0.0
C636 C 0.7515 0.11567 0.27912 0.0
C637 C 0.7589 0.13363 0.30879 0.0
C638 C 0.85196 0.20125 0.228 0.0
C639 C 0.80158 0.15756 0.25488 0.0
C640 C 0.86587 0.22297 0.20142 0.0
C641 C 0.84801 0.21878 0.17212 0.0
C642 C 0.82021 0.17519 0.22492 0.0
C643 C 0.81753 0.19095 0.16894 0.0
C644 C 0.77277 0.12769 0.25191 0.0
C645 C 0.78888 0.16204 0.3116 0.0
N646 N 0.80432 0.17036 0.19525 0.0
N647 N 0.80907 0.17339 0.28481 0.0
H648 H 0.89992 0.64206 0.26133 0.0
H649 H 0.73722 0.63742 0.21369 0.0
H650 H 0.82327 0.62225 0.3317 0.0
H651 H 0.80141 0.62762 0.14502 0.0
H652 H 0.77878 0.65481 0.25757 0.0
H653 H 0.87495 0.66084 0.22106 0.0
C654 C 0.87827 0.64228 0.26882 0.0
C655 C 0.86293 0.62909 0.29961 0.0
C656 C 0.78414 0.64987 0.23258 0.0
C657 C 0.83397 0.65023 0.25304 0.0
C658 C 0.76058 0.64015 0.20762 0.0
C659 C 0.76605 0.6307 0.17616 0.0
C660 C 0.81316 0.65019 0.22566 0.0
C661 C 0.7964 0.63433 0.16928 0.0
C662 C 0.86395 0.65299 0.2456 0.0
C663 C 0.83514 0.63075 0.3077 0.0
N664 N 0.81873 0.64336 0.19401 0.0
N665 N 0.82106 0.6403 0.28421 0.0
H666 H 0.62752 0.82733 0.84716 0.0
H667 H 0.64537 0.74438 0.71679 0.0
H668 H 0.63782 0.89847 0.77389 0.0
H669 H 0.609 0.79666 0.66081 0.0
H670 H 0.66347 0.78554 0.76103 0.0
H671 H 0.64153 0.80017 0.80417 0.0
C672 C 0.63367 0.83776 0.82226 0.0
C673 C 0.6305 0.8646 0.81389 0.0
C674 C 0.65178 0.78815 0.73895 0.0
C675 C 0.64708 0.83406 0.76458 0.0
C676 C 0.6418 0.7649 0.71361 0.0
C677 C 0.62501 0.76693 0.68572 0.0
C678 C 0.6448 0.81337 0.73606 0.0
C679 C 0.62112 0.79396 0.68245 0.0
C680 C 0.64206 0.82245 0.79772 0.0
C681 C 0.6395 0.87762 0.78148 0.0
N682 N 0.63061 0.81597 0.70754 0.0
N683 N 0.64649 0.86168 0.75777 0.0
H684 H 0.09911 0.73815 0.77117 0.0
H685 H 0.26178 0.89664 0.72418 0.0
H686 H 0.17188 0.79984 0.84262 0.0
H687 H 0.19683 0.82621 0.65271 0.0
H688 H 0.22018 0.87171 0.76718 0.0
H689 H 0.12526 0.78001 0.72872 0.0
C690 C 0.12009 0.76079 0.77829 0.0
C691 C 0.1339 0.76509 0.81034 0.0
C692 C 0.21476 0.86213 0.74191 0.0
C693 C 0.16428 0.81291 0.76148 0.0
C694 C 0.23847 0.87649 0.71721 0.0
C695 C 0.23307 0.86289 0.68497 0.0
C696 C 0.18557 0.83391 0.73434 0.0
C697 C 0.20231 0.83679 0.67752 0.0
C698 C 0.13514 0.78467 0.75387 0.0
C699 C 0.16108 0.7951 0.81792 0.0
N700 N 0.1799 0.82273 0.70221 0.0
N701 N 0.17579 0.81765 0.79347 0.0
H702 H 0.15733 0.36009 0.64582 0.0
H703 H 0.18518 0.33738 0.83795 0.0
H704 H 0.09436 0.35517 0.72623 0.0
H705 H 0.26049 0.39103 0.76567 0.0
H706 H 0.1449 0.31926 0.79263 0.0
H707 H 0.18661 0.34516 0.68554 0.0
C708 C 0.14912 0.35513 0.6716 0.0
C709 C 0.12441 0.3606 0.68305 0.0
C710 C 0.17035 0.33417 0.78664 0.0
C711 C 0.15721 0.34271 0.72816 0.0
C712 C 0.19322 0.34443 0.81234 0.0
C713 C 0.22589 0.36603 0.80527 0.0
C714 C 0.18053 0.34527 0.75381 0.0
C715 C 0.23534 0.37475 0.7719 0.0
C716 C 0.16574 0.34644 0.69414 0.0
C717 C 0.1138 0.3522 0.71636 0.0
N718 N 0.21269 0.36459 0.74735 0.0
N719 N 0.13082 0.34444 0.73801 0.0
H720 H 0.46026 0.24235 0.048 0.0
H721 H 0.59939 0.40192 0.13639 0.0
H722 H 0.49349 0.24455 0.14921 0.0
H723 H 0.58046 0.39387 0.02995 0.0
H724 H 0.55395 0.34708 0.14396 0.0
H725 H 0.49674 0.30079 0.04399 0.0
C726 C 0.4747 0.25519 0.06964 0.0
C727 C 0.47411 0.23847 0.09886 0.0
C728 C 0.55964 0.35737 0.11897 0.0
C729 C 0.51614 0.30524 0.09425 0.0
C730 C 0.58552 0.38873 0.11463 0.0
C731 C 0.59391 0.40244 0.08242 0.0
C732 C 0.54188 0.33957 0.09093 0.0
C733 C 0.57521 0.38406 0.05511 0.0
C734 C 0.49572 0.28852 0.06721 0.0
C735 C 0.49341 0.25641 0.12607 0.0
N736 N 0.55011 0.35353 0.05998 0.0
N737 N 0.51387 0.28878 0.12299 0.0
H738 H 0.74308 0.23913 0.13493 0.0
H739 H 0.58813 0.18538 0.0206 0.0
H740 H 0.74211 0.22145 0.02864 0.0
H741 H 0.58605 0.18666 0.1288 0.0
H742 H 0.6437 0.19557 0.02295 0.0
H743 H 0.68448 0.21576 0.13361 0.0
C744 C 0.73043 0.22983 0.11141 0.0
C745 C 0.74747 0.23253 0.08178 0.0
C746 C 0.63094 0.19328 0.04617 0.0
C747 C 0.68049 0.20632 0.07992 0.0
C748 C 0.59934 0.18776 0.04482 0.0
C749 C 0.58253 0.18544 0.07453 0.0
C750 C 0.6459 0.19685 0.07746 0.0
C751 C 0.598 0.1881 0.10528 0.0
C752 C 0.69697 0.21653 0.11064 0.0
C753 C 0.72989 0.21991 0.05204 0.0
N754 N 0.62889 0.19397 0.10593 0.0
N755 N 0.69736 0.20781 0.05175 0.0
H756 H 0.81007 0.40963 0.01729 0.0
H757 H 0.74556 0.49412 0.14263 0.0
H758 H 0.8034 0.39403 0.12429 0.0
H759 H 0.77168 0.52444 0.03976 0.0
H760 H 0.76994 0.4599 0.13741 0.0
H761 H 0.79838 0.45357 0.02537 0.0
C762 C 0.80624 0.41551 0.04247 0.0
C763 C 0.80746 0.39796 0.07012 0.0
C764 C 0.77076 0.47439 0.11612 0.0
C765 C 0.79415 0.44822 0.07964 0.0
C766 C 0.75689 0.494 0.11912 0.0
C767 C 0.75625 0.51189 0.09148 0.0
C768 C 0.78368 0.47234 0.08514 0.0
C769 C 0.77144 0.51091 0.06167 0.0
C770 C 0.79981 0.44075 0.04713 0.0
C771 C 0.80286 0.40698 0.10229 0.0
N772 N 0.78409 0.49106 0.05913 0.0
N773 N 0.79606 0.43123 0.10613 0.0
H774 H 0.75119 0.48162 0.33746 0.0
H775 H 0.59456 0.41182 0.45419 0.0
H776 H 0.74864 0.52347 0.43262 0.0
H777 H 0.59157 0.38049 0.3521 0.0
H778 H 0.65115 0.45322 0.44623 0.0
H779 H 0.69256 0.44559 0.34104 0.0
C780 C 0.73827 0.48359 0.35885 0.0
C781 C 0.75491 0.50542 0.38493 0.0
C782 C 0.63811 0.43741 0.42548 0.0
C783 C 0.68797 0.46395 0.38941 0.0
C784 C 0.60587 0.41356 0.43014 0.0
C785 C 0.58837 0.39252 0.40386 0.0
C786 C 0.65316 0.4401 0.39439 0.0
C787 C 0.6041 0.39632 0.37297 0.0
C788 C 0.70481 0.46293 0.36093 0.0
C789 C 0.7369 0.5069 0.41202 0.0
N790 N 0.63568 0.41949 0.36916 0.0
N791 N 0.7045 0.4862 0.41373 0.0
H792 H 0.56469 0.14731 0.42101 0.0
H793 H 0.52261 0.27793 0.3544 0.0
H794 H 0.63453 0.24923 0.41872 0.0
H795 H 0.45545 0.20224 0.4205 0.0
H796 H 0.56128 0.25929 0.36297 0.0
H797 H 0.52158 0.1599 0.40808 0.0
C798 C 0.57075 0.17228 0.41796 0.0
C799 C 0.60288 0.1974 0.42126 0.0
C800 C 0.53785 0.24652 0.37516 0.0
C801 C 0.55459 0.21168 0.40543 0.0
C802 C 0.51563 0.25688 0.37005 0.0
C803 C 0.48583 0.24168 0.38696 0.0
C804 C 0.52999 0.22044 0.39675 0.0
C805 C 0.47827 0.21469 0.40718 0.0
C806 C 0.54636 0.17939 0.41059 0.0
C807 C 0.6099 0.22936 0.41688 0.0
N808 N 0.50032 0.20488 0.41162 0.0
N809 N 0.58597 0.23561 0.40879 0.0
H810 H 0.829 0.40747 0.46389 0.0
H811 H 0.74578 0.2488 0.34925 0.0
H812 H 0.7843 0.40108 0.36792 0.0
H813 H 0.78112 0.24991 0.44918 0.0
H814 H 0.76683 0.30687 0.35307 0.0
H815 H 0.81644 0.35136 0.45746 0.0
C816 C 0.81637 0.39427 0.44161 0.0
C817 C 0.80773 0.40911 0.4164 0.0
C818 C 0.77031 0.29453 0.37408 0.0
C819 C 0.79391 0.34517 0.40858 0.0
C820 C 0.75844 0.26136 0.37181 0.0
C821 C 0.76132 0.2444 0.39909 0.0
C822 C 0.78503 0.31091 0.40392 0.0
C823 C 0.77826 0.26201 0.42758 0.0
C824 C 0.8095 0.36235 0.4378 0.0
C825 C 0.79186 0.39092 0.3878 0.0
N826 N 0.78912 0.29429 0.42944 0.0
N827 N 0.78549 0.35998 0.3847 0.0
H828 H 0.38081 0.59204 0.85432 0.0
H829 H 0.52708 0.74885 0.93919 0.0
H830 H 0.41181 0.59624 0.95675 0.0
H831 H 0.48142 0.75271 0.84718 0.0
H832 H 0.4916 0.69033 0.94057 0.0
H833 H 0.42351 0.64848 0.84659 0.0
C834 C 0.39674 0.60476 0.87509 0.0
C835 C 0.39258 0.58954 0.90635 0.0
C836 C 0.48953 0.70392 0.9199 0.0
C837 C 0.44142 0.65391 0.89764 0.0
C838 C 0.5099 0.73735 0.91898 0.0
C839 C 0.50696 0.75578 0.89324 0.0
C840 C 0.46601 0.68869 0.89487 0.0
C841 C 0.48438 0.73946 0.86762 0.0
C842 C 0.421 0.63696 0.87069 0.0
C843 C 0.41378 0.6072 0.93246 0.0
N844 N 0.46452 0.70682 0.86924 0.0
N845 N 0.43724 0.63842 0.92752 0.0
H846 H 0.24385 0.72678 0.85363 0.0
H847 H 0.40217 0.82416 0.96691 0.0
H848 H 0.24701 0.77713 0.94476 0.0
H849 H 0.40147 0.77893 0.87295 0.0
H850 H 0.34554 0.8082 0.95823 0.0
H851 H 0.30219 0.74815 0.85826 0.0
C852 C 0.25687 0.74274 0.87431 0.0
C853 C 0.24047 0.74999 0.89899 0.0
C854 C 0.35777 0.8018 0.93946 0.0
C855 C 0.30709 0.77407 0.90472 0.0
C856 C 0.39006 0.81063 0.94458 0.0
C857 C 0.40663 0.80276 0.92072 0.0
C858 C 0.34176 0.78479 0.91031 0.0
C859 C 0.38977 0.78576 0.89189 0.0
C860 C 0.29015 0.75478 0.87705 0.0
C861 C 0.25859 0.77072 0.92527 0.0
N862 N 0.35825 0.77725 0.88755 0.0
N863 N 0.29083 0.78178 0.9276 0.0
H864 H 0.21977 0.62692 0.87773 0.0
H865 H 0.20992 0.46322 0.94062 0.0
H866 H 0.16688 0.5746 0.96591 0.0
H867 H 0.26019 0.51445 0.85083 0.0
H868 H 0.19074 0.50157 0.94827 0.0
H869 H 0.23296 0.5847 0.86638 0.0
C870 C 0.2109 0.60655 0.89473 0.0
C871 C 0.19211 0.60433 0.92281 0.0
C872 C 0.20569 0.50423 0.92671 0.0
C873 C 0.20727 0.55581 0.91 0.0
C874 C 0.2165 0.48221 0.9222 0.0
C875 C 0.23694 0.48579 0.89521 0.0
C876 C 0.2155 0.53009 0.90414 0.0
C877 C 0.24459 0.51082 0.8721 0.0
C878 C 0.21847 0.58242 0.88823 0.0
C879 C 0.18175 0.57757 0.94423 0.0
N880 N 0.23414 0.53221 0.8773 0.0
N881 N 0.18944 0.55433 0.93735 0.0
H882 H 0.3986 0.56766 0.53668 0.0
H883 H 0.24272 0.50059 0.65371 0.0
H884 H 0.39996 0.6037 0.63629 0.0
H885 H 0.24418 0.45652 0.55964 0.0
H886 H 0.30132 0.53555 0.65 0.0
H887 H 0.34268 0.52483 0.54586 0.0
C888 C 0.38711 0.56662 0.56043 0.0
C889 C 0.4039 0.58943 0.58565 0.0
C890 C 0.2889 0.51792 0.6304 0.0
C891 C 0.34005 0.54031 0.59652 0.0
C892 C 0.25543 0.49784 0.63258 0.0
C893 C 0.23848 0.47586 0.60674 0.0
C894 C 0.30546 0.51623 0.60202 0.0
C895 C 0.25622 0.47327 0.58003 0.0
C896 C 0.35529 0.54198 0.56581 0.0
C897 C 0.38803 0.58653 0.61622 0.0
N898 N 0.2887 0.49357 0.57811 0.0
N899 N 0.35693 0.56258 0.6207 0.0
H900 H 0.41215 0.81536 0.52331 0.0
H901 H 0.47962 0.72797 0.64342 0.0
H902 H 0.37102 0.7746 0.61995 0.0
H903 H 0.51955 0.76658 0.54576 0.0
H904 H 0.44225 0.74854 0.637 0.0
H905 H 0.45306 0.79962 0.53193 0.0
C906 C 0.4115 0.80286 0.54621 0.0
C907 C 0.38804 0.79632 0.57093 0.0
C908 C 0.45937 0.75275 0.61708 0.0
C909 C 0.43522 0.77871 0.58124 0.0
C910 C 0.48087 0.74118 0.62082 0.0
C911 C 0.50263 0.74535 0.59498 0.0
C912 C 0.45954 0.76855 0.58726 0.0
C913 C 0.50311 0.76266 0.56627 0.0
C914 C 0.43509 0.79415 0.55127 0.0
C915 C 0.38883 0.78053 0.60038 0.0
N916 N 0.4817 0.77338 0.56307 0.0
N917 N 0.412 0.77227 0.60469 0.0
H918 H 0.20127 0.7404 0.57972 0.0
H919 H 0.24997 0.60551 0.57417 0.0
H920 H 0.28706 0.75238 0.62899 0.0
H921 H 0.14949 0.57865 0.58116 0.0
H922 H 0.2653 0.66178 0.58606 0.0
H923 H 0.18201 0.68233 0.5738 0.0
C924 C 0.21572 0.73069 0.58982 0.0
C925 C 0.24572 0.75112 0.60492 0.0
C926 C 0.2399 0.64355 0.58494 0.0
C927 C 0.22448 0.68538 0.59722 0.0
C928 C 0.23119 0.61165 0.57774 0.0
C929 C 0.19848 0.58767 0.57647 0.0
C930 C 0.2157 0.65159 0.59023 0.0
C931 C 0.17497 0.59662 0.58193 0.0
C932 C 0.20478 0.69768 0.58636 0.0
C933 C 0.26366 0.73743 0.61742 0.0
N934 N 0.18402 0.62802 0.5883 0.0
N935 N 0.25302 0.70548 0.61275 0.0
loop_
_geom_bond_atom_site_label_1
_geom_bond_atom_site_label_2
_geom_bond_distance
_geom_bond_site_symmetry_2
_ccdc_geom_bond_type
C0 C1 1.351 . S
C0 N3 1.368 . S
C0 H5 0.931 . S
C1 C0 1.351 . S
C1 N2 1.373 . S
C1 H29 0.930 . S
N2 C1 1.373 . S
N2 C4 1.340 . S
N3 C0 1.368 . S
N3 C4 1.321 . S
N3 Co6 2.135 . S
C4 N2 1.340 . S
C4 N3 1.321 . S
C4 H28 0.930 . S
H5 C0 0.931 . S
Co6 N3 2.135 . S
Co6 N9 2.121 . S
Co6 O14 2.055 . S
Co6 O17 2.039 . S
Co6 N20 2.140 . S
C7 O8 1.227 . S
C7 O17 1.265 . S
O8 C7 1.227 . S
N9 Co6 2.121 . S
N9 C11 1.375 . S
N9 C12 1.313 . S
C10 C11 1.338 . S
C10 N13 1.377 . S
C10 H30 0.930 . S
C11 N9 1.375 . S
C11 C10 1.338 . S
C11 H15 0.931 . S
C12 N9 1.313 . S
C12 N13 1.344 . S
C12 H16 0.930 . S
N13 C10 1.377 . S
N13 C12 1.344 . S
O14 Co6 2.055 . S
O14 C18 1.253 . S
H15 C11 0.931 . S
H16 C12 0.930 . S
O17 Co6 2.039 . S
O17 C7 1.265 . S
C18 O14 1.253 . S
C18 O19 1.227 . S
O19 C18 1.227 . S
N20 Co6 2.140 . S
N20 C23 1.346 . S
N20 C24 1.345 . S
C21 C22 1.387 . S
C21 C25 1.391 . S
C22 C21 1.387 . S
C22 C23 1.369 . S
C22 H31 0.929 . S
C23 N20 1.346 . S
C23 C22 1.369 . S
C23 H26 0.928 . S
C24 N20 1.345 . S
C24 C25 1.371 . S
C24 H27 0.931 . S
C25 C21 1.391 . S
C25 C24 1.371 . S
C25 H32 0.930 . S
H26 C23 0.928 . S
H27 C24 0.931 . S
H28 C4 0.930 . S
H29 C1 0.930 . S
H30 C10 0.930 . S
H31 C22 0.929 . S
H32 C25 0.930 . S
C33 C34 1.351 . S
C33 N36 1.368 . S
C33 H38 0.931 . S
C34 C33 1.351 . S
C34 N35 1.373 . S
C34 H62 0.930 . S
N35 C34 1.373 . S
N35 C37 1.340 . S
N36 C33 1.368 . S
N36 C37 1.321 . S
N36 Co39 2.135 . S
C37 N35 1.340 . S
C37 N36 1.321 . S
C37 H61 0.930 . S
H38 C33 0.931 . S
Co39 N36 2.135 . S
Co39 N42 2.121 . S
Co39 O47 2.055 . S
Co39 O50 2.039 . S
Co39 N53 2.140 . S
C40 O41 1.227 . S
C40 O50 1.265 . S
O41 C40 1.227 . S
N42 Co39 2.121 . S
N42 C44 1.375 . S
N42 C45 1.313 . S
C43 C44 1.338 . S
C43 N46 1.377 . S
C43 H63 0.930 . S
C44 N42 1.375 . S
C44 C43 1.338 . S
C44 H48 0.931 . S
C45 N42 1.313 . S
C45 N46 1.344 . S
C45 H49 0.930 . S
N46 C43 1.377 . S
N46 C45 1.344 . S
O47 Co39 2.055 . S
O47 C51 1.253 . S
H48 C44 0.931 . S
H49 C45 0.930 . S
O50 Co39 2.039 . S
O50 C40 1.265 . S
C51 O47 1.253 . S
C51 O52 1.227 . S
O52 C51 1.227 . S
N53 Co39 2.140 . S
N53 C56 1.346 . S
N53 C57 1.345 . S
C54 C55 1.387 . S
C54 C58 1.391 . S
C55 C54 1.387 . S
C55 C56 1.369 . S
C55 H64 0.929 . S
C56 N53 1.346 . S
C56 C55 1.369 . S
C56 H59 0.928 . S
C57 N53 1.345 . S
C57 C58 1.371 . S
C57 H60 0.931 . S
C58 C54 1.391 . S
C58 C57 1.371 . S
C58 H65 0.930 . S
H59 C56 0.928 . S
H60 C57 0.931 . S
H61 C37 0.930 . S
H62 C34 0.930 . S
H63 C43 0.930 . S
H64 C55 0.929 . S
H65 C58 0.930 . S
C66 C67 1.351 . S
C66 N69 1.368 . S
C66 H71 0.931 . S
C67 C66 1.351 . S
C67 N68 1.373 . S
C67 H95 0.930 . S
N68 C67 1.373 . S
N68 C70 1.340 . S
N69 C66 1.368 . S
N69 C70 1.321 . S
N69 Co72 2.135 . S
C70 N68 1.340 . S
C70 N69 1.321 . S
C70 H94 0.930 . S
H71 C66 0.931 . S
Co72 N69 2.135 . S
Co72 N75 2.121 . S
Co72 O80 2.055 . S
Co72 O83 2.039 . S
Co72 N86 2.140 . S
C73 O74 1.227 . S
C73 O83 1.265 . S
O74 C73 1.227 . S
N75 Co72 2.121 . S
N75 C77 1.375 . S
N75 C78 1.313 . S
C76 C77 1.338 . S
C76 N79 1.377 . S
C76 H96 0.930 . S
C77 N75 1.375 . S
C77 C76 1.338 . S
C77 H81 0.931 . S
C78 N75 1.313 . S
C78 N79 1.344 . S
C78 H82 0.930 . S
N79 C76 1.377 . S
N79 C78 1.344 . S
O80 Co72 2.055 . S
O80 C84 1.253 . S
H81 C77 0.931 . S
H82 C78 0.930 . S
O83 Co72 2.039 . S
O83 C73 1.265 . S
C84 O80 1.253 . S
C84 O85 1.227 . S
O85 C84 1.227 . S
N86 Co72 2.140 . S
N86 C89 1.346 . S
N86 C90 1.345 . S
C87 C88 1.387 . S
C87 C91 1.391 . S
C88 C87 1.387 . S
C88 C89 1.369 . S
C88 H97 0.929 . S
C89 N86 1.346 . S
C89 C88 1.369 . S
C89 H92 0.928 . S
C90 N86 1.345 . S
C90 C91 1.371 . S
C90 H93 0.931 . S
C91 C87 1.391 . S
C91 C90 1.371 . S
C91 H98 0.930 . S
H92 C89 0.928 . S
H93 C90 0.931 . S
H94 C70 0.930 . S
H95 C67 0.930 . S
H96 C76 0.930 . S
H97 C88 0.929 . S
H98 C91 0.930 . S
C99 C100 1.351 . S
C99 N102 1.368 . S
C99 H104 0.931 . S
C100 C99 1.351 . S
C100 N101 1.373 . S
C100 H128 0.930 . S
N101 C100 1.373 . S
N101 C103 1.340 . S
N102 C99 1.368 . S
N102 C103 1.321 . S
N102 Co105 2.135 . S
C103 N101 1.340 . S
C103 N102 1.321 . S
C103 H127 0.930 . S
H104 C99 0.931 . S
Co105 N102 2.135 . S
Co105 N108 2.121 . S
Co105 O113 2.055 . S
Co105 O116 2.039 . S
Co105 N119 2.140 . S
C106 O107 1.227 . S
C106 O116 1.265 . S
O107 C106 1.227 . S
N108 Co105 2.121 . S
N108 C110 1.375 . S
N108 C111 1.313 . S
C109 C110 1.338 . S
C109 N112 1.377 . S
C109 H129 0.930 . S
C110 N108 1.375 . S
C110 C109 1.338 . S
C110 H114 0.931 . S
C111 N108 1.313 . S
C111 N112 1.344 . S
C111 H115 0.930 . S
N112 C109 1.377 . S
N112 C111 1.344 . S
O113 Co105 2.055 . S
O113 C117 1.253 . S
H114 C110 0.931 . S
H115 C111 0.930 . S
O116 Co105 2.039 . S
O116 C106 1.265 . S
C117 O113 1.253 . S
C117 O118 1.227 . S
O118 C117 1.227 . S
N119 Co105 2.140 . S
N119 C122 1.346 . S
N119 C123 1.345 . S
C120 C121 1.387 . S
C120 C124 1.391 . S
C121 C120 1.387 . S
C121 C122 1.369 . S
C121 H130 0.929 . S
C122 N119 1.346 . S
C122 C121 1.369 . S
C122 H125 0.928 . S
C123 N119 1.345 . S
C123 C124 1.371 . S
C123 H126 0.931 . S
C124 C120 1.391 . S
C124 C123 1.371 . S
C124 H131 0.930 . S
H125 C122 0.928 . S
H126 C123 0.931 . S
H127 C103 0.930 . S
H128 C100 0.930 . S
H129 C109 0.930 . S
H130 C121 0.929 . S
H131 C124 0.930 . S
C132 C133 1.351 . S
C132 N135 1.368 . S
C132 H137 0.931 . S
C133 C132 1.351 . S
C133 N134 1.373 . S
C133 H161 0.930 . S
N134 C133 1.373 . S
N134 C136 1.340 . S
N135 C132 1.368 . S
N135 C136 1.321 . S
N135 Co138 2.135 . S
C136 N134 1.340 . S
C136 N135 1.321 . S
C136 H160 0.930 . S
H137 C132 0.931 . S
Co138 N135 2.135 . S
Co138 N141 2.121 . S
Co138 O146 2.055 . S
Co138 O149 2.039 . S
Co138 N152 2.140 . S
C139 O140 1.227 . S
C139 O149 1.265 . S
O140 C139 1.227 . S
N141 Co138 2.121 . S
N141 C143 1.375 . S
N141 C144 1.313 . S
C142 C143 1.338 . S
C142 N145 1.377 . S
C142 H162 0.930 . S
C143 N141 1.375 . S
C143 C142 1.338 . S
C143 H147 0.931 . S
C144 N141 1.313 . S
C144 N145 1.344 . S
C144 H148 0.930 . S
N145 C142 1.377 . S
N145 C144 1.344 . S
O146 Co138 2.055 . S
O146 C150 1.253 . S
H147 C143 0.931 . S
H148 C144 0.930 . S
O149 Co138 2.039 . S
O149 C139 1.265 . S
C150 O146 1.253 . S
C150 O151 1.227 . S
O151 C150 1.227 . S
N152 Co138 2.140 . S
N152 C155 1.346 . S
N152 C156 1.345 . S
C153 C154 1.387 . S
C153 C157 1.391 . S
C154 C153 1.387 . S
C154 C155 1.369 . S
C154 H163 0.929 . S
C155 N152 1.346 . S
C155 C154 1.369 . S
C155 H158 0.928 . S
C156 N152 1.345 . S
C156 C157 1.371 . S
C156 H159 0.931 . S
C157 C153 1.391 . S
C157 C156 1.371 . S
C157 H164 0.930 . S
H158 C155 0.928 . S
H159 C156 0.931 . S
H160 C136 0.930 . S
H161 C133 0.930 . S
H162 C142 0.930 . S
H163 C154 0.929 . S
H164 C157 0.930 . S
C165 C166 1.351 . S
C165 N168 1.368 . S
C165 H170 0.931 . S
C166 C165 1.351 . S
C166 N167 1.373 . S
C166 H194 0.930 . S
N167 C166 1.373 . S
N167 C169 1.340 . S
N168 C165 1.368 . S
N168 C169 1.321 . S
N168 Co171 2.135 . S
C169 N167 1.340 . S
C169 N168 1.321 . S
C169 H193 0.930 . S
H170 C165 0.931 . S
Co171 N168 2.135 . S
Co171 N174 2.121 . S
Co171 O179 2.055 . S
Co171 O182 2.039 . S
Co171 N185 2.140 . S
C172 O173 1.227 . S
C172 O182 1.265 . S
O173 C172 1.227 . S
N174 Co171 2.121 . S
N174 C176 1.375 . S
N174 C177 1.313 . S
C175 C176 1.338 . S
C175 N178 1.377 . S
C175 H195 0.930 . S
C176 N174 1.375 . S
C176 C175 1.338 . S
C176 H180 0.931 . S
C177 N174 1.313 . S
C177 N178 1.344 . S
C177 H181 0.930 . S
N178 C175 1.377 . S
N178 C177 1.344 . S
O179 Co171 2.055 . S
O179 C183 1.253 . S
H180 C176 0.931 . S
H181 C177 0.930 . S
O182 Co171 2.039 . S
O182 C172 1.265 . S
C183 O179 1.253 . S
C183 O184 1.227 . S
O184 C183 1.227 . S
N185 Co171 2.140 . S
N185 C188 1.346 . S
N185 C189 1.345 . S
C186 C187 1.387 . S
C186 C190 1.391 . S
C187 C186 1.387 . S
C187 C188 1.369 . S
C187 H196 0.929 . S
C188 N185 1.346 . S
C188 C187 1.369 . S
C188 H191 0.928 . S
C189 N185 1.345 . S
C189 C190 1.371 . S
C189 H192 0.931 . S
C190 C186 1.391 . S
C190 C189 1.371 . S
C190 H197 0.930 . S
H191 C188 0.928 . S
H192 C189 0.931 . S
H193 C169 0.930 . S
H194 C166 0.930 . S
H195 C175 0.930 . S
H196 C187 0.929 . S
H197 C190 0.930 . S
C198 C199 1.351 . S
C198 N201 1.368 . S
C198 H203 0.931 . S
C199 C198 1.351 . S
C199 N200 1.373 . S
C199 H227 0.930 . S
N200 C199 1.373 . S
N200 C202 1.340 . S
N201 C198 1.368 . S
N201 C202 1.321 . S
N201 Co204 2.135 . S
C202 N200 1.340 . S
C202 N201 1.321 . S
C202 H226 0.930 . S
H203 C198 0.931 . S
Co204 N201 2.135 . S
Co204 N207 2.121 . S
Co204 O212 2.055 . S
Co204 O215 2.039 . S
Co204 N218 2.140 . S
C205 O206 1.227 . S
C205 O215 1.265 . S
O206 C205 1.227 . S
N207 Co204 2.121 . S
N207 C209 1.375 . S
N207 C210 1.313 . S
C208 C209 1.338 . S
C208 N211 1.377 . S
C208 H228 0.930 . S
C209 N207 1.375 . S
C209 C208 1.338 . S
C209 H213 0.931 . S
C210 N207 1.313 . S
C210 N211 1.344 . S
C210 H214 0.930 . S
N211 C208 1.377 . S
N211 C210 1.344 . S
O212 Co204 2.055 . S
O212 C216 1.253 . S
H213 C209 0.931 . S
H214 C210 0.930 . S
O215 Co204 2.039 . S
O215 C205 1.265 . S
C216 O212 1.253 . S
C216 O217 1.227 . S
O217 C216 1.227 . S
N218 Co204 2.140 . S
N218 C221 1.346 . S
N218 C222 1.345 . S
C219 C220 1.387 . S
C219 C223 1.391 . S
C220 C219 1.387 . S
C220 C221 1.369 . S
C220 H229 0.929 . S
C221 N218 1.346 . S
C221 C220 1.369 . S
C221 H224 0.928 . S
C222 N218 1.345 . S
C222 C223 1.371 . S
C222 H225 0.931 . S
C223 C219 1.391 . S
C223 C222 1.371 . S
C223 H230 0.930 . S
H224 C221 0.928 . S
H225 C222 0.931 . S
H226 C202 0.930 . S
H227 C199 0.930 . S
H228 C208 0.930 . S
H229 C220 0.929 . S
H230 C223 0.930 . S
C231 C232 1.351 . S
C231 N234 1.368 . S
C231 H236 0.931 . S
C232 C231 1.351 . S
C232 N233 1.373 . S
C232 H260 0.930 . S
N233 C232 1.373 . S
N233 C235 1.340 . S
N234 C231 1.368 . S
N234 C235 1.321 . S
N234 Co237 2.135 . S
C235 N233 1.340 . S
C235 N234 1.321 . S
C235 H259 0.930 . S
H236 C231 0.931 . S
Co237 N234 2.135 . S
Co237 N240 2.121 . S
Co237 O245 2.055 . S
Co237 O248 2.039 . S
Co237 N251 2.140 . S
C238 O239 1.227 . S
C238 O248 1.265 . S
O239 C238 1.227 . S
N240 Co237 2.121 . S
N240 C242 1.375 . S
N240 C243 1.313 . S
C241 C242 1.338 . S
C241 N244 1.377 . S
C241 H261 0.930 . S
C242 N240 1.375 . S
C242 C241 1.338 . S
C242 H246 0.931 . S
C243 N240 1.313 . S
C243 N244 1.344 . S
C243 H247 0.930 . S
N244 C241 1.377 . S
N244 C243 1.344 . S
O245 Co237 2.055 . S
O245 C249 1.253 . S
H246 C242 0.931 . S
H247 C243 0.930 . S
O248 Co237 2.039 . S
O248 C238 1.265 . S
C249 O245 1.253 . S
C249 O250 1.227 . S
O250 C249 1.227 . S
N251 Co237 2.140 . S
N251 C254 1.346 . S
N251 C255 1.345 . S
C252 C253 1.387 . S
C252 C256 1.391 . S
C253 C252 1.387 . S
C253 C254 1.369 . S
C253 H262 0.929 . S
C254 N251 1.346 . S
C254 C253 1.369 . S
C254 H257 0.928 . S
C255 N251 1.345 . S
C255 C256 1.371 . S
C255 H258 0.931 . S
C256 C252 1.391 . S
C256 C255 1.371 . S
C256 H263 0.930 . S
H257 C254 0.928 . S
H258 C255 0.931 . S
H259 C235 0.930 . S
H260 C232 0.930 . S
H261 C241 0.930 . S
H262 C253 0.929 . S
H263 C256 0.930 . S
C264 C265 1.351 . S
C264 N267 1.368 . S
C264 H269 0.931 . S
C265 C264 1.351 . S
C265 N266 1.373 . S
C265 H293 0.930 . S
N266 C265 1.373 . S
N266 C268 1.340 . S
N267 C264 1.368 . S
N267 C268 1.321 . S
N267 Co270 2.135 . S
C268 N266 1.340 . S
C268 N267 1.321 . S
C268 H292 0.930 . S
H269 C264 0.931 . S
Co270 N267 2.135 . S
Co270 N273 2.121 . S
Co270 O278 2.055 . S
Co270 O281 2.039 . S
Co270 N284 2.140 . S
C271 O272 1.227 . S
C271 O281 1.265 . S
O272 C271 1.227 . S
N273 Co270 2.121 . S
N273 C275 1.375 . S
N273 C276 1.313 . S
C274 C275 1.338 . S
C274 N277 1.377 . S
C274 H294 0.930 . S
C275 N273 1.375 . S
C275 C274 1.338 . S
C275 H279 0.931 . S
C276 N273 1.313 . S
C276 N277 1.344 . S
C276 H280 0.930 . S
N277 C274 1.377 . S
N277 C276 1.344 . S
O278 Co270 2.055 . S
O278 C282 1.253 . S
H279 C275 0.931 . S
H280 C276 0.930 . S
O281 Co270 2.039 . S
O281 C271 1.265 . S
C282 O278 1.253 . S
C282 O283 1.227 . S
O283 C282 1.227 . S
N284 Co270 2.140 . S
N284 C287 1.346 . S
N284 C288 1.345 . S
C285 C286 1.387 . S
C285 C289 1.391 . S
C286 C285 1.387 . S
C286 C287 1.369 . S
C286 H295 0.929 . S
C287 N284 1.346 . S
C287 C286 1.369 . S
C287 H290 0.928 . S
C288 N284 1.345 . S
C288 C289 1.371 . S
C288 H291 0.931 . S
C289 C285 1.391 . S
C289 C288 1.371 . S
C289 H296 0.930 . S
H290 C287 0.928 . S
H291 C288 0.931 . S
H292 C268 0.930 . S
H293 C265 0.930 . S
H294 C274 0.930 . S
H295 C286 0.929 . S
H296 C289 0.930 . S
C297 C298 1.351 . S
C297 N300 1.368 . S
C297 H302 0.931 . S
C298 C297 1.351 . S
C298 N299 1.373 . S
C298 H326 0.930 . S
N299 C298 1.373 . S
N299 C301 1.340 . S
N300 C297 1.368 . S
N300 C301 1.321 . S
N300 Co303 2.135 . S
C301 N299 1.340 . S
C301 N300 1.321 . S
C301 H325 0.930 . S
H302 C297 0.931 . S
Co303 N300 2.135 . S
Co303 N306 2.121 . S
Co303 O311 2.055 . S
Co303 O314 2.039 . S
Co303 N317 2.140 . S
C304 O305 1.227 . S
C304 O314 1.265 . S
O305 C304 1.227 . S
N306 Co303 2.121 . S
N306 C308 1.375 . S
N306 C309 1.313 . S
C307 C308 1.338 . S
C307 N310 1.377 . S
C307 H327 0.930 . S
C308 N306 1.375 . S
C308 C307 1.338 . S
C308 H312 0.931 . S
C309 N306 1.313 . S
C309 N310 1.344 . S
C309 H313 0.930 . S
N310 C307 1.377 . S
N310 C309 1.344 . S
O311 Co303 2.055 . S
O311 C315 1.253 . S
H312 C308 0.931 . S
H313 C309 0.930 . S
O314 Co303 2.039 . S
O314 C304 1.265 . S
C315 O311 1.253 . S
C315 O316 1.227 . S
O316 C315 1.227 . S
N317 Co303 2.140 . S
N317 C320 1.346 . S
N317 C321 1.345 . S
C318 C319 1.387 . S
C318 C322 1.391 . S
C319 C318 1.387 . S
C319 C320 1.369 . S
C319 H328 0.929 . S
C320 N317 1.346 . S
C320 C319 1.369 . S
C320 H323 0.928 . S
C321 N317 1.345 . S
C321 C322 1.371 . S
C321 H324 0.931 . S
C322 C318 1.391 . S
C322 C321 1.371 . S
C322 H329 0.930 . S
H323 C320 0.928 . S
H324 C321 0.931 . S
H325 C301 0.930 . S
H326 C298 0.930 . S
H327 C307 0.930 . S
H328 C319 0.929 . S
H329 C322 0.930 . S
C330 C331 1.351 . S
C330 N333 1.368 . S
C330 H335 0.931 . S
C331 C330 1.351 . S
C331 N332 1.373 . S
C331 H359 0.930 . S
N332 C331 1.373 . S
N332 C334 1.340 . S
N333 C330 1.368 . S
N333 C334 1.321 . S
N333 Co336 2.135 . S
C334 N332 1.340 . S
C334 N333 1.321 . S
C334 H358 0.930 . S
H335 C330 0.931 . S
Co336 N333 2.135 . S
Co336 N339 2.121 . S
Co336 O344 2.055 . S
Co336 O347 2.039 . S
Co336 N350 2.140 . S
C337 O338 1.227 . S
C337 O347 1.265 . S
O338 C337 1.227 . S
N339 Co336 2.121 . S
N339 C341 1.375 . S
N339 C342 1.313 . S
C340 C341 1.338 . S
C340 N343 1.377 . S
C340 H360 0.930 . S
C341 N339 1.375 . S
C341 C340 1.338 . S
C341 H345 0.931 . S
C342 N339 1.313 . S
C342 N343 1.344 . S
C342 H346 0.930 . S
N343 C340 1.377 . S
N343 C342 1.344 . S
O344 Co336 2.055 . S
O344 C348 1.253 . S
H345 C341 0.931 . S
H346 C342 0.930 . S
O347 Co336 2.039 . S
O347 C337 1.265 . S
C348 O344 1.253 . S
C348 O349 1.227 . S
O349 C348 1.227 . S
N350 Co336 2.140 . S
N350 C353 1.346 . S
N350 C354 1.345 . S
C351 C352 1.387 . S
C351 C355 1.391 . S
C352 C351 1.387 . S
C352 C353 1.369 . S
C352 H361 0.929 . S
C353 N350 1.346 . S
C353 C352 1.369 . S
C353 H356 0.928 . S
C354 N350 1.345 . S
C354 C355 1.371 . S
C354 H357 0.931 . S
C355 C351 1.391 . S
C355 C354 1.371 . S
C355 H362 0.930 . S
H356 C353 0.928 . S
H357 C354 0.931 . S
H358 C334 0.930 . S
H359 C331 0.930 . S
H360 C340 0.930 . S
H361 C352 0.929 . S
H362 C355 0.930 . S
C363 C364 1.351 . S
C363 N366 1.368 . S
C363 H368 0.931 . S
C364 C363 1.351 . S
C364 N365 1.373 . S
C364 H392 0.930 . S
N365 C364 1.373 . S
N365 C367 1.340 . S
N366 C363 1.368 . S
N366 C367 1.321 . S
N366 Co369 2.135 . S
C367 N365 1.340 . S
C367 N366 1.321 . S
C367 H391 0.930 . S
H368 C363 0.931 . S
Co369 N366 2.135 . S
Co369 N372 2.121 . S
Co369 O377 2.055 . S
Co369 O380 2.039 . S
Co369 N383 2.140 . S
C370 O371 1.227 . S
C370 O380 1.265 . S
O371 C370 1.227 . S
N372 Co369 2.121 . S
N372 C374 1.375 . S
N372 C375 1.313 . S
C373 C374 1.338 . S
C373 N376 1.377 . S
C373 H393 0.930 . S
C374 N372 1.375 . S
C374 C373 1.338 . S
C374 H378 0.931 . S
C375 N372 1.313 . S
C375 N376 1.344 . S
C375 H379 0.930 . S
N376 C373 1.377 . S
N376 C375 1.344 . S
O377 Co369 2.055 . S
O377 C381 1.253 . S
H378 C374 0.931 . S
H379 C375 0.930 . S
O380 Co369 2.039 . S
O380 C370 1.265 . S
C381 O377 1.253 . S
C381 O382 1.227 . S
O382 C381 1.227 . S
N383 Co369 2.140 . S
N383 C386 1.346 . S
N383 C387 1.345 . S
C384 C385 1.387 . S
C384 C388 1.391 . S
C385 C384 1.387 . S
C385 C386 1.369 . S
C385 H394 0.929 . S
C386 N383 1.346 . S
C386 C385 1.369 . S
C386 H389 0.928 . S
C387 N383 1.345 . S
C387 C388 1.371 . S
C387 H390 0.931 . S
C388 C384 1.391 . S
C388 C387 1.371 . S
C388 H395 0.930 . S
H389 C386 0.928 . S
H390 C387 0.931 . S
H391 C367 0.930 . S
H392 C364 0.930 . S
H393 C373 0.930 . S
H394 C385 0.929 . S
H395 C388 0.930 . S
H396 C402 0.930 . S
H397 C406 0.930 . S
H398 C411 0.929 . S
H399 C409 0.929 . S
H400 C404 0.929 . S
H401 C410 0.929 . S
C402 H396 0.930 . S
C402 C403 1.367 . S
C402 C410 1.378 . S
C403 C402 1.367 . S
C403 C411 1.433 . S
C404 H400 0.929 . S
C404 C406 1.378 . S
C404 C408 1.350 . S
C405 C408 1.463 . S
C405 C410 1.350 . S
C405 N413 1.427 . S
C406 H397 0.930 . S
C406 C404 1.378 . S
C406 C407 1.367 . S
C407 C406 1.367 . S
C407 C409 1.433 . S
C408 C404 1.350 . S
C408 C405 1.463 . S
C408 N412 1.427 . S
C409 H399 0.929 . S
C409 C407 1.433 . S
C409 N412 1.384 . S
C410 H401 0.929 . S
C410 C402 1.378 . S
C410 C405 1.350 . S
C411 H398 0.929 . S
C411 C403 1.433 . S
C411 N413 1.384 . S
N412 C408 1.427 . S
N412 C409 1.384 . S
N413 C405 1.427 . S
N413 C411 1.384 . S
H414 C420 0.930 . S
H415 C424 0.930 . S
H416 C429 0.929 . S
H417 C427 0.929 . S
H418 C422 0.929 . S
H419 C428 0.929 . S
C420 H414 0.930 . S
C420 C421 1.367 . S
C420 C428 1.378 . S
C421 C420 1.367 . S
C421 C429 1.433 . S
C422 H418 0.929 . S
C422 C424 1.378 . S
C422 C426 1.350 . S
C423 C426 1.463 . S
C423 C428 1.350 . S
C423 N431 1.427 . S
C424 H415 0.930 . S
C424 C422 1.378 . S
C424 C425 1.367 . S
C425 C424 1.367 . S
C425 C427 1.433 . S
C426 C422 1.350 . S
C426 C423 1.463 . S
C426 N430 1.427 . S
C427 H417 0.929 . S
C427 C425 1.433 . S
C427 N430 1.384 . S
C428 H419 0.929 . S
C428 C420 1.378 . S
C428 C423 1.350 . S
C429 H416 0.929 . S
C429 C421 1.433 . S
C429 N431 1.384 . S
N430 C426 1.427 . S
N430 C427 1.384 . S
N431 C423 1.427 . S
N431 C429 1.384 . S
H432 C438 0.930 . S
H433 C442 0.930 . S
H434 C447 0.929 . S
H435 C445 0.929 . S
H436 C440 0.929 . S
H437 C446 0.929 . S
C438 H432 0.930 . S
C438 C439 1.367 . S
C438 C446 1.378 . S
C439 C438 1.367 . S
C439 C447 1.433 . S
C440 H436 0.929 . S
C440 C442 1.378 . S
C440 C444 1.350 . S
C441 C444 1.463 . S
C441 C446 1.350 . S
C441 N449 1.427 . S
C442 H433 0.930 . S
C442 C440 1.378 . S
C442 C443 1.367 . S
C443 C442 1.367 . S
C443 C445 1.433 . S
C444 C440 1.350 . S
C444 C441 1.463 . S
C444 N448 1.427 . S
C445 H435 0.929 . S
C445 C443 1.433 . S
C445 N448 1.384 . S
C446 H437 0.929 . S
C446 C438 1.378 . S
C446 C441 1.350 . S
C447 H434 0.929 . S
C447 C439 1.433 . S
C447 N449 1.384 . S
N448 C444 1.427 . S
N448 C445 1.384 . S
N449 C441 1.427 . S
N449 C447 1.384 . S
H450 C456 0.930 . S
H451 C460 0.930 . S
H452 C465 0.929 . S
H453 C463 0.929 . S
H454 C458 0.929 . S
H455 C464 0.929 . S
C456 H450 0.930 . S
C456 C457 1.367 . S
C456 C464 1.378 . S
C457 C456 1.367 . S
C457 C465 1.433 . S
C458 H454 0.929 . S
C458 C460 1.378 . S
C458 C462 1.350 . S
C459 C462 1.463 . S
C459 C464 1.350 . S
C459 N467 1.427 . S
C460 H451 0.930 . S
C460 C458 1.378 . S
C460 C461 1.367 . S
C461 C460 1.367 . S
C461 C463 1.433 . S
C462 C458 1.350 . S
C462 C459 1.463 . S
C462 N466 1.427 . S
C463 H453 0.929 . S
C463 C461 1.433 . S
C463 N466 1.384 . S
C464 H455 0.929 . S
C464 C456 1.378 . S
C464 C459 1.350 . S
C465 H452 0.929 . S
C465 C457 1.433 . S
C465 N467 1.384 . S
N466 C462 1.427 . S
N466 C463 1.384 . S
N467 C459 1.427 . S
N467 C465 1.384 . S
H468 C474 0.930 . S
H469 C478 0.930 . S
H470 C483 0.929 . S
H471 C481 0.929 . S
H472 C476 0.929 . S
H473 C482 0.929 . S
C474 H468 0.930 . S
C474 C475 1.367 . S
C474 C482 1.378 . S
C475 C474 1.367 . S
C475 C483 1.433 . S
C476 H472 0.929 . S
C476 C478 1.378 . S
C476 C480 1.350 . S
C477 C480 1.463 . S
C477 C482 1.350 . S
C477 N485 1.427 . S
C478 H469 0.930 . S
C478 C476 1.378 . S
C478 C479 1.367 . S
C479 C478 1.367 . S
C479 C481 1.433 . S
C480 C476 1.350 . S
C480 C477 1.463 . S
C480 N484 1.427 . S
C481 H471 0.929 . S
C481 C479 1.433 . S
C481 N484 1.384 . S
C482 H473 0.929 . S
C482 C474 1.378 . S
C482 C477 1.350 . S
C483 H470 0.929 . S
C483 C475 1.433 . S
C483 N485 1.384 . S
N484 C480 1.427 . S
N484 C481 1.384 . S
N485 C477 1.427 . S
N485 C483 1.384 . S
H486 C492 0.930 . S
H487 C496 0.930 . S
H488 C501 0.929 . S
H489 C499 0.929 . S
H490 C494 0.929 . S
H491 C500 0.929 . S
C492 H486 0.930 . S
C492 C493 1.367 . S
C492 C500 1.378 . S
C493 C492 1.367 . S
C493 C501 1.433 . S
C494 H490 0.929 . S
C494 C496 1.378 . S
C494 C498 1.350 . S
C495 C498 1.463 . S
C495 C500 1.350 . S
C495 N503 1.427 . S
C496 H487 0.930 . S
C496 C494 1.378 . S
C496 C497 1.367 . S
C497 C496 1.367 . S
C497 C499 1.433 . S
C498 C494 1.350 . S
C498 C495 1.463 . S
C498 N502 1.427 . S
C499 H489 0.929 . S
C499 C497 1.433 . S
C499 N502 1.384 . S
C500 H491 0.929 . S
C500 C492 1.378 . S
C500 C495 1.350 . S
C501 H488 0.929 . S
C501 C493 1.433 . S
C501 N503 1.384 . S
N502 C498 1.427 . S
N502 C499 1.384 . S
N503 C495 1.427 . S
N503 C501 1.384 . S
H504 C510 0.931 . S
H505 C514 0.931 . S
H506 C519 0.929 . S
H507 C517 0.929 . S
H508 C512 0.929 . S
H509 C518 0.929 . S
C510 H504 0.931 . S
C510 C511 1.367 . S
C510 C518 1.378 1_545 S
C511 C510 1.367 . S
C511 C519 1.433 1_554 S
C512 H508 0.929 . S
C512 C514 1.378 1_545 S
C512 C516 1.350 1_545 S
C513 C516 1.463 1_544 S
C513 C518 1.350 1_545 S
C513 N521 1.427 1_554 S
C514 H505 0.931 . S
C514 C512 1.378 1_565 S
C514 C515 1.367 . S
C515 C514 1.367 . S
C515 C517 1.433 1_556 S
C516 C512 1.350 1_565 S
C516 C513 1.463 1_566 S
C516 N520 1.427 1_556 S
C517 H507 0.929 . S
C517 C515 1.433 1_554 S
C517 N520 1.384 . S
C518 H509 0.929 . S
C518 C510 1.378 1_565 S
C518 C513 1.350 1_565 S
C519 H506 0.929 . S
C519 C511 1.433 1_556 S
C519 N521 1.384 . S
N520 C516 1.427 1_554 S
N520 C517 1.384 . S
N521 C513 1.427 1_556 S
N521 C519 1.384 . S
H522 C528 0.930 . S
H523 C532 0.930 . S
H524 C537 0.929 . S
H525 C535 0.929 . S
H526 C530 0.929 . S
H527 C536 0.929 . S
C528 H522 0.930 . S
C528 C529 1.367 1_556 S
C528 C536 1.378 . S
C529 C528 1.367 1_554 S
C529 C537 1.433 . S
C530 H526 0.929 . S
C530 C532 1.378 . S
C530 C534 1.350 1_554 S
C531 C534 1.463 1_654 S
C531 C536 1.350 1_554 S
C531 N539 1.427 1_655 S
C532 H523 0.930 . S
C532 C530 1.378 . S
C532 C533 1.367 1_554 S
C533 C532 1.367 1_556 S
C533 C535 1.433 . S
C534 C530 1.350 1_556 S
C534 C531 1.463 1_456 S
C534 N538 1.427 1_455 S
C535 H525 0.929 . S
C535 C533 1.433 . S
C535 N538 1.384 1_455 S
C536 H527 0.929 . S
C536 C528 1.378 . S
C536 C531 1.350 1_556 S
C537 H524 0.929 . S
C537 C529 1.433 . S
C537 N539 1.384 1_655 S
N538 C534 1.427 1_655 S
N538 C535 1.384 1_655 S
N539 C531 1.427 1_455 S
N539 C537 1.384 1_455 S
H540 C546 0.930 . S
H541 C550 0.930 . S
H542 C555 0.929 . S
H543 C553 0.929 . S
H544 C548 0.929 . S
H545 C554 0.929 . S
C546 H540 0.930 . S
C546 C547 1.367 1_554 S
C546 C554 1.378 . S
C547 C546 1.367 1_556 S
C547 C555 1.433 . S
C548 H544 0.929 . S
C548 C550 1.378 . S
C548 C552 1.350 1_556 S
C549 C552 1.463 1_556 S
C549 C554 1.350 1_556 S
C549 N557 1.427 . S
C550 H541 0.930 . S
C550 C548 1.378 . S
C550 C551 1.367 1_556 S
C551 C550 1.367 1_554 S
C551 C553 1.433 . S
C552 C548 1.350 1_554 S
C552 C549 1.463 1_554 S
C552 N556 1.427 . S
C553 H543 0.929 . S
C553 C551 1.433 . S
C553 N556 1.384 . S
C554 H545 0.929 . S
C554 C546 1.378 . S
C554 C549 1.350 1_554 S
C555 H542 0.929 . S
C555 C547 1.433 . S
C555 N557 1.384 . S
N556 C552 1.427 . S
N556 C553 1.384 . S
N557 C549 1.427 . S
N557 C555 1.384 . S
H558 C564 0.930 . S
H559 C568 0.930 . S
H560 C573 0.929 1_655 S
H561 C571 0.929 1_455 S
H562 C566 0.929 . S
H563 C572 0.929 . S
C564 H558 0.930 . S
C564 C565 1.367 . S
C564 C572 1.378 . S
C565 C564 1.367 . S
C565 C573 1.433 . S
C566 H562 0.929 . S
C566 C568 1.378 . S
C566 C570 1.350 . S
C567 C570 1.463 1_455 S
C567 C572 1.350 . S
C567 N575 1.427 1_455 S
C568 H559 0.930 . S
C568 C566 1.378 . S
C568 C569 1.367 . S
C569 C568 1.367 . S
C569 C571 1.433 . S
C570 C566 1.350 . S
C570 C567 1.463 1_655 S
C570 N574 1.427 1_655 S
C571 H561 0.929 1_655 S
C571 C569 1.433 . S
C571 N574 1.384 1_655 S
C572 H563 0.929 . S
C572 C564 1.378 . S
C572 C567 1.350 . S
C573 H560 0.929 1_455 S
C573 C565 1.433 . S
C573 N575 1.384 1_455 S
N574 C570 1.427 1_455 S
N574 C571 1.384 1_455 S
N575 C567 1.427 1_655 S
N575 C573 1.384 1_655 S
H576 C582 0.930 . S
H577 C586 0.930 . S
H578 C591 0.929 . S
H579 C589 0.929 . S
H580 C584 0.929 . S
H581 C590 0.929 . S
C582 H576 0.930 . S
C582 C583 1.367 . S
C582 C590 1.378 . S
C583 C582 1.367 . S
C583 C591 1.433 . S
C584 H580 0.929 . S
C584 C586 1.378 . S
C584 C588 1.350 . S
C585 C588 1.463 . S
C585 C590 1.350 . S
C585 N593 1.427 . S
C586 H577 0.930 . S
C586 C584 1.378 . S
C586 C587 1.367 . S
C587 C586 1.367 . S
C587 C589 1.433 . S
C588 C584 1.350 . S
C588 C585 1.463 . S
C588 N592 1.427 . S
C589 H579 0.929 . S
C589 C587 1.433 . S
C589 N592 1.384 . S
C590 H581 0.929 . S
C590 C582 1.378 . S
C590 C585 1.350 . S
C591 H578 0.929 . S
C591 C583 1.433 . S
C591 N593 1.384 . S
N592 C588 1.427 . S
N592 C589 1.384 . S
N593 C585 1.427 . S
N593 C591 1.384 . S
H594 C600 0.930 . S
H595 C604 0.930 . S
H596 C609 0.929 . S
H597 C607 0.929 . S
H598 C602 0.929 . S
H599 C608 0.929 . S
C600 H594 0.930 . S
C600 C601 1.367 . S
C600 C608 1.378 . S
C601 C600 1.367 . S
C601 C609 1.433 . S
C602 H598 0.929 . S
C602 C604 1.378 . S
C602 C606 1.350 . S
C603 C606 1.463 1_545 S
C603 C608 1.350 . S
C603 N611 1.427 . S
C604 H595 0.930 . S
C604 C602 1.378 . S
C604 C605 1.367 . S
C605 C604 1.367 . S
C605 C607 1.433 . S
C606 C602 1.350 . S
C606 C603 1.463 1_565 S
C606 N610 1.427 . S
C607 H597 0.929 . S
C607 C605 1.433 . S
C607 N610 1.384 . S
C608 H599 0.929 . S
C608 C600 1.378 . S
C608 C603 1.350 . S
C609 H596 0.929 . S
C609 C601 1.433 . S
C609 N611 1.384 . S
N610 C606 1.427 . S
N610 C607 1.384 . S
N611 C603 1.427 . S
N611 C609 1.384 . S
H612 C618 0.930 . S
H613 C622 0.930 . S
H614 C627 0.929 . S
H615 C625 0.929 . S
H616 C620 0.929 . S
H617 C626 0.929 . S
C618 H612 0.930 . S
C618 C619 1.367 . S
C618 C626 1.378 . S
C619 C618 1.367 . S
C619 C627 1.433 . S
C620 H616 0.929 . S
C620 C622 1.378 . S
C620 C624 1.350 . S
C621 C624 1.463 . S
C621 C626 1.350 . S
C621 N629 1.427 . S
C622 H613 0.930 . S
C622 C620 1.378 . S
C622 C623 1.367 . S
C623 C622 1.367 . S
C623 C625 1.433 . S
C624 C620 1.350 . S
C624 C621 1.463 . S
C624 N628 1.427 . S
C625 H615 0.929 . S
C625 C623 1.433 . S
C625 N628 1.384 . S
C626 H617 0.929 . S
C626 C618 1.378 . S
C626 C621 1.350 . S
C627 H614 0.929 . S
C627 C619 1.433 . S
C627 N629 1.384 . S
N628 C624 1.427 . S
N628 C625 1.384 . S
N629 C621 1.427 . S
N629 C627 1.384 . S
H630 C636 0.930 . S
H631 C640 0.930 . S
H632 C645 0.929 . S
H633 C643 0.929 . S
H634 C638 0.929 . S
H635 C644 0.929 . S
C636 H630 0.930 . S
C636 C637 1.367 . S
C636 C644 1.378 . S
C637 C636 1.367 . S
C637 C645 1.433 . S
C638 H634 0.929 . S
C638 C640 1.378 . S
C638 C642 1.350 . S
C639 C642 1.463 . S
C639 C644 1.350 . S
C639 N647 1.427 . S
C640 H631 0.930 . S
C640 C638 1.378 . S
C640 C641 1.367 . S
C641 C640 1.367 . S
C641 C643 1.433 . S
C642 C638 1.350 . S
C642 C639 1.463 . S
C642 N646 1.427 . S
C643 H633 0.929 . S
C643 C641 1.433 . S
C643 N646 1.384 . S
C644 H635 0.929 . S
C644 C636 1.378 . S
C644 C639 1.350 . S
C645 H632 0.929 . S
C645 C637 1.433 . S
C645 N647 1.384 . S
N646 C642 1.427 . S
N646 C643 1.384 . S
N647 C639 1.427 . S
N647 C645 1.384 . S
H648 C654 0.930 . S
H649 C658 0.930 . S
H650 C663 0.929 . S
H651 C661 0.929 . S
H652 C656 0.929 . S
H653 C662 0.929 . S
C654 H648 0.930 . S
C654 C655 1.367 . S
C654 C662 1.378 . S
C655 C654 1.367 . S
C655 C663 1.433 . S
C656 H652 0.929 . S
C656 C658 1.378 . S
C656 C660 1.350 . S
C657 C660 1.463 . S
C657 C662 1.350 . S
C657 N665 1.427 . S
C658 H649 0.930 . S
C658 C656 1.378 . S
C658 C659 1.367 . S
C659 C658 1.367 . S
C659 C661 1.433 . S
C660 C656 1.350 . S
C660 C657 1.463 . S
C660 N664 1.427 . S
C661 H651 0.929 . S
C661 C659 1.433 . S
C661 N664 1.384 . S
C662 H653 0.929 . S
C662 C654 1.378 . S
C662 C657 1.350 . S
C663 H650 0.929 . S
C663 C655 1.433 . S
C663 N665 1.384 . S
N664 C660 1.427 . S
N664 C661 1.384 . S
N665 C657 1.427 . S
N665 C663 1.384 . S
H666 C672 0.930 . S
H667 C676 0.930 . S
H668 C681 0.929 . S
H669 C679 0.929 . S
H670 C674 0.929 . S
H671 C680 0.929 . S
C672 H666 0.930 . S
C672 C673 1.367 . S
C672 C680 1.378 . S
C673 C672 1.367 . S
C673 C681 1.433 . S
C674 H670 0.929 . S
C674 C676 1.378 . S
C674 C678 1.350 . S
C675 C678 1.463 . S
C675 C680 1.350 . S
C675 N683 1.427 . S
C676 H667 0.930 . S
C676 C674 1.378 . S
C676 C677 1.367 . S
C677 C676 1.367 . S
C677 C679 1.433 . S
C678 C674 1.350 . S
C678 C675 1.463 . S
C678 N682 1.427 . S
C679 H669 0.929 . S
C679 C677 1.433 . S
C679 N682 1.384 . S
C680 H671 0.929 . S
C680 C672 1.378 . S
C680 C675 1.350 . S
C681 H668 0.929 . S
C681 C673 1.433 . S
C681 N683 1.384 . S
N682 C678 1.427 . S
N682 C679 1.384 . S
N683 C675 1.427 . S
N683 C681 1.384 . S
H684 C690 0.930 . S
H685 C694 0.930 . S
H686 C699 0.929 . S
H687 C697 0.929 . S
H688 C692 0.929 . S
H689 C698 0.929 . S
C690 H684 0.930 . S
C690 C691 1.367 . S
C690 C698 1.378 . S
C691 C690 1.367 . S
C691 C699 1.433 . S
C692 H688 0.929 . S
C692 C694 1.378 . S
C692 C696 1.350 . S
C693 C696 1.463 . S
C693 C698 1.350 . S
C693 N701 1.427 . S
C694 H685 0.930 . S
C694 C692 1.378 . S
C694 C695 1.367 . S
C695 C694 1.367 . S
C695 C697 1.433 . S
C696 C692 1.350 . S
C696 C693 1.463 . S
C696 N700 1.427 . S
C697 H687 0.929 . S
C697 C695 1.433 . S
C697 N700 1.384 . S
C698 H689 0.929 . S
C698 C690 1.378 . S
C698 C693 1.350 . S
C699 H686 0.929 . S
C699 C691 1.433 . S
C699 N701 1.384 . S
N700 C696 1.427 . S
N700 C697 1.384 . S
N701 C693 1.427 . S
N701 C699 1.384 . S
H702 C708 0.930 . S
H703 C712 0.930 . S
H704 C717 0.929 . S
H705 C715 0.929 . S
H706 C710 0.929 . S
H707 C716 0.929 . S
C708 H702 0.930 . S
C708 C709 1.367 . S
C708 C716 1.378 . S
C709 C708 1.367 . S
C709 C717 1.433 . S
C710 H706 0.929 . S
C710 C712 1.378 . S
C710 C714 1.350 . S
C711 C714 1.463 . S
C711 C716 1.350 . S
C711 N719 1.427 . S
C712 H703 0.930 . S
C712 C710 1.378 . S
C712 C713 1.367 . S
C713 C712 1.367 . S
C713 C715 1.433 . S
C714 C710 1.350 . S
C714 C711 1.463 . S
C714 N718 1.427 . S
C715 H705 0.929 . S
C715 C713 1.433 . S
C715 N718 1.384 . S
C716 H707 0.929 . S
C716 C708 1.378 . S
C716 C711 1.350 . S
C717 H704 0.929 . S
C717 C709 1.433 . S
C717 N719 1.384 . S
N718 C714 1.427 . S
N718 C715 1.384 . S
N719 C711 1.427 . S
N719 C717 1.384 . S
H720 C726 0.930 . S
H721 C730 0.930 . S
H722 C735 0.929 . S
H723 C733 0.929 . S
H724 C728 0.929 . S
H725 C734 0.929 . S
C726 H720 0.930 . S
C726 C727 1.367 . S
C726 C734 1.378 . S
C727 C726 1.367 . S
C727 C735 1.433 . S
C728 H724 0.929 . S
C728 C730 1.378 . S
C728 C732 1.350 . S
C729 C732 1.463 . S
C729 C734 1.350 . S
C729 N737 1.427 . S
C730 H721 0.930 . S
C730 C728 1.378 . S
C730 C731 1.367 . S
C731 C730 1.367 . S
C731 C733 1.433 . S
C732 C728 1.350 . S
C732 C729 1.463 . S
C732 N736 1.427 . S
C733 H723 0.929 . S
C733 C731 1.433 . S
C733 N736 1.384 . S
C734 H725 0.929 . S
C734 C726 1.378 . S
C734 C729 1.350 . S
C735 H722 0.929 . S
C735 C727 1.433 . S
C735 N737 1.384 . S
N736 C732 1.427 . S
N736 C733 1.384 . S
N737 C729 1.427 . S
N737 C735 1.384 . S
H738 C744 0.930 . S
H739 C748 0.930 . S
H740 C753 0.929 . S
H741 C751 0.929 . S
H742 C746 0.929 . S
H743 C752 0.929 . S
C744 H738 0.930 . S
C744 C745 1.367 . S
C744 C752 1.378 . S
C745 C744 1.367 . S
C745 C753 1.433 . S
C746 H742 0.929 . S
C746 C748 1.378 . S
C746 C750 1.350 . S
C747 C750 1.463 . S
C747 C752 1.350 . S
C747 N755 1.427 . S
C748 H739 0.930 . S
C748 C746 1.378 . S
C748 C749 1.367 . S
C749 C748 1.367 . S
C749 C751 1.433 . S
C750 C746 1.350 . S
C750 C747 1.463 . S
C750 N754 1.427 . S
C751 H741 0.929 . S
C751 C749 1.433 . S
C751 N754 1.384 . S
C752 H743 0.929 . S
C752 C744 1.378 . S
C752 C747 1.350 . S
C753 H740 0.929 . S
C753 C745 1.433 . S
C753 N755 1.384 . S
N754 C750 1.427 . S
N754 C751 1.384 . S
N755 C747 1.427 . S
N755 C753 1.384 . S
H756 C762 0.930 . S
H757 C766 0.930 . S
H758 C771 0.929 . S
H759 C769 0.929 . S
H760 C764 0.929 . S
H761 C770 0.929 . S
C762 H756 0.930 . S
C762 C763 1.367 . S
C762 C770 1.378 . S
C763 C762 1.367 . S
C763 C771 1.433 . S
C764 H760 0.929 . S
C764 C766 1.378 . S
C764 C768 1.350 . S
C765 C768 1.463 . S
C765 C770 1.350 . S
C765 N773 1.427 . S
C766 H757 0.930 . S
C766 C764 1.378 . S
C766 C767 1.367 . S
C767 C766 1.367 . S
C767 C769 1.433 . S
C768 C764 1.350 . S
C768 C765 1.463 . S
C768 N772 1.427 . S
C769 H759 0.929 . S
C769 C767 1.433 . S
C769 N772 1.384 . S
C770 H761 0.929 . S
C770 C762 1.378 . S
C770 C765 1.350 . S
C771 H758 0.929 . S
C771 C763 1.433 . S
C771 N773 1.384 . S
N772 C768 1.427 . S
N772 C769 1.384 . S
N773 C765 1.427 . S
N773 C771 1.384 . S
H774 C780 0.930 . S
H775 C784 0.930 . S
H776 C789 0.929 . S
H777 C787 0.929 . S
H778 C782 0.929 . S
H779 C788 0.929 . S
C780 H774 0.930 . S
C780 C781 1.367 . S
C780 C788 1.378 . S
C781 C780 1.367 . S
C781 C789 1.433 . S
C782 H778 0.929 . S
C782 C784 1.378 . S
C782 C786 1.350 . S
C783 C786 1.463 . S
C783 C788 1.350 . S
C783 N791 1.427 . S
C784 H775 0.930 . S
C784 C782 1.378 . S
C784 C785 1.367 . S
C785 C784 1.367 . S
C785 C787 1.433 . S
C786 C782 1.350 . S
C786 C783 1.463 . S
C786 N790 1.427 . S
C787 H777 0.929 . S
C787 C785 1.433 . S
C787 N790 1.384 . S
C788 H779 0.929 . S
C788 C780 1.378 . S
C788 C783 1.350 . S
C789 H776 0.929 . S
C789 C781 1.433 . S
C789 N791 1.384 . S
N790 C786 1.427 . S
N790 C787 1.384 . S
N791 C783 1.427 . S
N791 C789 1.384 . S
H792 C798 0.930 . S
H793 C802 0.930 . S
H794 C807 0.929 . S
H795 C805 0.929 . S
H796 C800 0.929 . S
H797 C806 0.929 . S
C798 H792 0.930 . S
C798 C799 1.367 . S
C798 C806 1.378 . S
C799 C798 1.367 . S
C799 C807 1.433 . S
C800 H796 0.929 . S
C800 C802 1.378 . S
C800 C804 1.350 . S
C801 C804 1.463 . S
C801 C806 1.350 . S
C801 N809 1.427 . S
C802 H793 0.930 . S
C802 C800 1.378 . S
C802 C803 1.367 . S
C803 C802 1.367 . S
C803 C805 1.433 . S
C804 C800 1.350 . S
C804 C801 1.463 . S
C804 N808 1.427 . S
C805 H795 0.929 . S
C805 C803 1.433 . S
C805 N808 1.384 . S
C806 H797 0.929 . S
C806 C798 1.378 . S
C806 C801 1.350 . S
C807 H794 0.929 . S
C807 C799 1.433 . S
C807 N809 1.384 . S
N808 C804 1.427 . S
N808 C805 1.384 . S
N809 C801 1.427 . S
N809 C807 1.384 . S
H810 C816 0.930 . S
H811 C820 0.930 . S
H812 C825 0.929 . S
H813 C823 0.929 . S
H814 C818 0.929 . S
H815 C824 0.929 . S
C816 H810 0.930 . S
C816 C817 1.367 . S
C816 C824 1.378 . S
C817 C816 1.367 . S
C817 C825 1.433 . S
C818 H814 0.929 . S
C818 C820 1.378 . S
C818 C822 1.350 . S
C819 C822 1.463 . S
C819 C824 1.350 . S
C819 N827 1.427 . S
C820 H811 0.930 . S
C820 C818 1.378 . S
C820 C821 1.367 . S
C821 C820 1.367 . S
C821 C823 1.433 . S
C822 C818 1.350 . S
C822 C819 1.463 . S
C822 N826 1.427 . S
C823 H813 0.929 . S
C823 C821 1.433 . S
C823 N826 1.384 . S
C824 H815 0.929 . S
C824 C816 1.378 . S
C824 C819 1.350 . S
C825 H812 0.929 . S
C825 C817 1.433 . S
C825 N827 1.384 . S
N826 C822 1.427 . S
N826 C823 1.384 . S
N827 C819 1.427 . S
N827 C825 1.384 . S
H828 C834 0.930 . S
H829 C838 0.930 . S
H830 C843 0.929 . S
H831 C841 0.929 . S
H832 C836 0.929 . S
H833 C842 0.929 . S
C834 H828 0.930 . S
C834 C835 1.367 . S
C834 C842 1.378 . S
C835 C834 1.367 . S
C835 C843 1.433 . S
C836 H832 0.929 . S
C836 C838 1.378 . S
C836 C840 1.350 . S
C837 C840 1.463 . S
C837 C842 1.350 . S
C837 N845 1.427 . S
C838 H829 0.930 . S
C838 C836 1.378 . S
C838 C839 1.367 . S
C839 C838 1.367 . S
C839 C841 1.433 . S
C840 C836 1.350 . S
C840 C837 1.463 . S
C840 N844 1.427 . S
C841 H831 0.929 . S
C841 C839 1.433 . S
C841 N844 1.384 . S
C842 H833 0.929 . S
C842 C834 1.378 . S
C842 C837 1.350 . S
C843 H830 0.929 . S
C843 C835 1.433 . S
C843 N845 1.384 . S
N844 C840 1.427 . S
N844 C841 1.384 . S
N845 C837 1.427 . S
N845 C843 1.384 . S
H846 C852 0.930 . S
H847 C856 0.930 . S
H848 C861 0.929 . S
H849 C859 0.929 . S
H850 C854 0.929 . S
H851 C860 0.929 . S
C852 H846 0.930 . S
C852 C853 1.367 . S
C852 C860 1.378 . S
C853 C852 1.367 . S
C853 C861 1.433 . S
C854 H850 0.929 . S
C854 C856 1.378 . S
C854 C858 1.350 . S
C855 C858 1.463 . S
C855 C860 1.350 . S
C855 N863 1.427 . S
C856 H847 0.930 . S
C856 C854 1.378 . S
C856 C857 1.367 . S
C857 C856 1.367 . S
C857 C859 1.433 . S
C858 C854 1.350 . S
C858 C855 1.463 . S
C858 N862 1.427 . S
C859 H849 0.929 . S
C859 C857 1.433 . S
C859 N862 1.384 . S
C860 H851 0.929 . S
C860 C852 1.378 . S
C860 C855 1.350 . S
C861 H848 0.929 . S
C861 C853 1.433 . S
C861 N863 1.384 . S
N862 C858 1.427 . S
N862 C859 1.384 . S
N863 C855 1.427 . S
N863 C861 1.384 . S
H864 C870 0.930 . S
H865 C874 0.930 . S
H866 C879 0.929 . S
H867 C877 0.929 . S
H868 C872 0.929 . S
H869 C878 0.929 . S
C870 H864 0.930 . S
C870 C871 1.367 . S
C870 C878 1.378 . S
C871 C870 1.367 . S
C871 C879 1.433 . S
C872 H868 0.929 . S
C872 C874 1.378 . S
C872 C876 1.350 . S
C873 C876 1.463 . S
C873 C878 1.350 . S
C873 N881 1.427 . S
C874 H865 0.930 . S
C874 C872 1.378 . S
C874 C875 1.367 . S
C875 C874 1.367 . S
C875 C877 1.433 . S
C876 C872 1.350 . S
C876 C873 1.463 . S
C876 N880 1.427 . S
C877 H867 0.929 . S
C877 C875 1.433 . S
C877 N880 1.384 . S
C878 H869 0.929 . S
C878 C870 1.378 . S
C878 C873 1.350 . S
C879 H866 0.929 . S
C879 C871 1.433 . S
C879 N881 1.384 . S
N880 C876 1.427 . S
N880 C877 1.384 . S
N881 C873 1.427 . S
N881 C879 1.384 . S
H882 C888 0.930 . S
H883 C892 0.930 . S
H884 C897 0.929 . S
H885 C895 0.929 . S
H886 C890 0.929 . S
H887 C896 0.929 . S
C888 H882 0.930 . S
C888 C889 1.367 . S
C888 C896 1.378 . S
C889 C888 1.367 . S
C889 C897 1.433 . S
C890 H886 0.929 . S
C890 C892 1.378 . S
C890 C894 1.350 . S
C891 C894 1.463 . S
C891 C896 1.350 . S
C891 N899 1.427 . S
C892 H883 0.930 . S
C892 C890 1.378 . S
C892 C893 1.367 . S
C893 C892 1.367 . S
C893 C895 1.433 . S
C894 C890 1.350 . S
C894 C891 1.463 . S
C894 N898 1.427 . S
C895 H885 0.929 . S
C895 C893 1.433 . S
C895 N898 1.384 . S
C896 H887 0.929 . S
C896 C888 1.378 . S
C896 C891 1.350 . S
C897 H884 0.929 . S
C897 C889 1.433 . S
C897 N899 1.384 . S
N898 C894 1.427 . S
N898 C895 1.384 . S
N899 C891 1.427 . S
N899 C897 1.384 . S
H900 C906 0.930 . S
H901 C910 0.930 . S
H902 C915 0.929 . S
H903 C913 0.929 . S
H904 C908 0.929 . S
H905 C914 0.929 . S
C906 H900 0.930 . S
C906 C907 1.367 . S
C906 C914 1.378 . S
C907 C906 1.367 . S
C907 C915 1.433 . S
C908 H904 0.929 . S
C908 C910 1.378 . S
C908 C912 1.350 . S
C909 C912 1.463 . S
C909 C914 1.350 . S
C909 N917 1.427 . S
C910 H901 0.930 . S
C910 C908 1.378 . S
C910 C911 1.367 . S
C911 C910 1.367 . S
C911 C913 1.433 . S
C912 C908 1.350 . S
C912 C909 1.463 . S
C912 N916 1.427 . S
C913 H903 0.929 . S
C913 C911 1.433 . S
C913 N916 1.384 . S
C914 H905 0.929 . S
C914 C906 1.378 . S
C914 C909 1.350 . S
C915 H902 0.929 . S
C915 C907 1.433 . S
C915 N917 1.384 . S
N916 C912 1.427 . S
N916 C913 1.384 . S
N917 C909 1.427 . S
N917 C915 1.384 . S
H918 C924 0.930 . S
H919 C928 0.930 . S
H920 C933 0.929 . S
H921 C931 0.929 . S
H922 C926 0.929 . S
H923 C932 0.929 . S
C924 H918 0.930 . S
C924 C925 1.367 . S
C924 C932 1.378 . S
C925 C924 1.367 . S
C925 C933 1.433 . S
C926 H922 0.929 . S
C926 C928 1.378 . S
C926 C930 1.350 . S
C927 C930 1.463 . S
C927 C932 1.350 . S
C927 N935 1.427 . S
C928 H919 0.930 . S
C928 C926 1.378 . S
C928 C929 1.367 . S
C929 C928 1.367 . S
C929 C931 1.433 . S
C930 C926 1.350 . S
C930 C927 1.463 . S
C930 N934 1.427 . S
C931 H921 0.929 . S
C931 C929 1.433 . S
C931 N934 1.384 . S
C932 H923 0.929 . S
C932 C924 1.378 . S
C932 C927 1.350 . S
C933 H920 0.929 . S
C933 C925 1.433 . S
C933 N935 1.384 . S
N934 C930 1.427 . S
N934 C931 1.384 . S
N935 C927 1.427 . S
N935 C933 1.384 . S
C403 C172 0.928 . S
C407 C7 0.931 . S
C421 C40 0.917 . S
C425 C106 0.920 . S
C439 C73 0.919 . S
C443 C139 0.923 . S
C457 C205 0.930 . S
C461 C370 0.931 . S
C475 C304 0.931 . S
C479 C238 0.930 . S
C493 C337 0.923 . S
C497 C271 0.918 . S
C511 C21 2.155 . S
C515 C219 2.155 . S
C529 C54 2.154 . S
C533 C252 2.154 . S
C547 C285 2.163 . S
C551 C87 2.163 . S
C565 C318 2.150 . S
C569 C120 2.150 . S
C583 C153 2.155 . S
C587 C351 2.155 . S
C601 C186 2.156 . S
C605 C384 2.156 . S
C619 N145 1.444 . S
C623 N13 1.458 . S
C637 N178 1.444 . S
C641 N46 1.459 . S
C655 N112 1.447 . S
C659 N79 1.453 . S
C673 N211 1.446 . S
C677 N343 1.468 . S
C691 N244 1.450 . S
C695 N376 1.449 . S
C709 N310 1.453 . S
C713 N277 1.470 . S
C727 C18 0.826 . S
C731 N68 0.789 . S
C745 C51 0.810 . S
C749 N2 0.815 . S
C763 N35 0.810 . S
C767 C84 0.812 . S
C781 C117 0.807 . S
C785 N134 0.822 . S
C799 N167 0.820 . S
C803 C150 0.809 . S
C817 N101 0.802 . S
C821 C183 0.816 . S
C835 N266 0.811 . S
C839 C216 0.815 . S
C853 C249 0.816 . S
C857 N200 0.802 . S
C871 N233 0.788 . S
C875 C282 0.827 . S
C889 N332 0.822 . S
C893 C315 0.807 . S
C907 N365 0.801 . S
C911 C348 0.817 . S
C925 C381 0.825 . S
C929 N299 0.788 . S
