# Generated by pormake.
# Topology bor-e, (5)-cn, num edge types: 1
# Building blocks:
#     Node 0, Type 0, BuildingBlock: BEQFEK_clean_sbu_0, # of connection points: 5
#     Node 1, Type 0, BuildingBlock: BEQFEK_clean_sbu_0, # of connection points: 5
#     Node 2, Type 0, BuildingBlock: BEQFEK_clean_sbu_0, # of connection points: 5
#     Node 3, Type 0, BuildingBlock: BEQFEK_clean_sbu_0, # of connection points: 5
#     Node 4, Type 0, BuildingBlock: BEQFEK_clean_sbu_0, # of connection points: 5
#     Node 5, Type 0, BuildingBlock: BEQFEK_clean_sbu_0, # of connection points: 5
#     Node 6, Type 0, BuildingBlock: BEQFEK_clean_sbu_0, # of connection points: 5
#     Node 7, Type 0, BuildingBlock: BEQFEK_clean_sbu_0, # of connection points: 5
#     Node 8, Type 0, BuildingBlock: BEQFEK_clean_sbu_0, # of connection points: 5
#     Node 9, Type 0, BuildingBlock: BEQFEK_clean_sbu_0, # of connection points: 5
#     Node 10, Type 0, BuildingBlock: BEQFEK_clean_sbu_0, # of connection points: 5
#     Node 11, Type 0, BuildingBlock: BEQFEK_clean_sbu_0, # of connection points: 5
#     Edge 12, Type (0, 0), BuildingBlock: ZUJKAS_clean_linker_0, # of connection points: 2
#     Edge 13, Type (0, 0), BuildingBlock: ZUJKAS_clean_linker_0, # of connection points: 2
#     Edge 14, Type (0, 0), BuildingBlock: ZUJKAS_clean_linker_0, # of connection points: 2
#     Edge 15, Type (0, 0), BuildingBlock: ZUJKAS_clean_linker_0, # of connection points: 2
#     Edge 16, Type (0, 0), BuildingBlock: ZUJKAS_clean_linker_0, # of connection points: 2
#     Edge 17, Type (0, 0), BuildingBlock: ZUJKAS_clean_linker_0, # of connection points: 2
#     Edge 18, Type (0, 0), BuildingBlock: ZUJKAS_clean_linker_0, # of connection points: 2
#     Edge 19, Type (0, 0), BuildingBlock: ZUJKAS_clean_linker_0, # of connection points: 2
#     Edge 20, Type (0, 0), BuildingBlock: ZUJKAS_clean_linker_0, # of connection points: 2
#     Edge 21, Type (0, 0), BuildingBlock: ZUJKAS_clean_linker_0, # of connection points: 2
#     Edge 22, Type (0, 0), BuildingBlock: ZUJKAS_clean_linker_0, # of connection points: 2
#     Edge 23, Type (0, 0), BuildingBlock: ZUJKAS_clean_linker_0, # of connection points: 2
#     Edge 24, Type (0, 0), BuildingBlock: ZUJKAS_clean_linker_0, # of connection points: 2
#     Edge 25, Type (0, 0), BuildingBlock: ZUJKAS_clean_linker_0, # of connection points: 2
#     Edge 26, Type (0, 0), BuildingBlock: ZUJKAS_clean_linker_0, # of connection points: 2
#     Edge 27, Type (0, 0), BuildingBlock: ZUJKAS_clean_linker_0, # of connection points: 2
#     Edge 28, Type (0, 0), BuildingBlock: ZUJKAS_clean_linker_0, # of connection points: 2
#     Edge 29, Type (0, 0), BuildingBlock: ZUJKAS_clean_linker_0, # of connection points: 2
#     Edge 30, Type (0, 0), BuildingBlock: ZUJKAS_clean_linker_0, # of connection points: 2
#     Edge 31, Type (0, 0), BuildingBlock: ZUJKAS_clean_linker_0, # of connection points: 2
#     Edge 32, Type (0, 0), BuildingBlock: ZUJKAS_clean_linker_0, # of connection points: 2
#     Edge 33, Type (0, 0), BuildingBlock: ZUJKAS_clean_linker_0, # of connection points: 2
#     Edge 34, Type (0, 0), BuildingBlock: ZUJKAS_clean_linker_0, # of connection points: 2
#     Edge 35, Type (0, 0), BuildingBlock: ZUJKAS_clean_linker_0, # of connection points: 2
#     Edge 36, Type (0, 0), BuildingBlock: ZUJKAS_clean_linker_0, # of connection points: 2
#     Edge 37, Type (0, 0), BuildingBlock: ZUJKAS_clean_linker_0, # of connection points: 2
#     Edge 38, Type (0, 0), BuildingBlock: ZUJKAS_clean_linker_0, # of connection points: 2
#     Edge 39, Type (0, 0), BuildingBlock: ZUJKAS_clean_linker_0, # of connection points: 2
#     Edge 40, Type (0, 0), BuildingBlock: ZUJKAS_clean_linker_0, # of connection points: 2
#     Edge 41, Type (0, 0), BuildingBlock: ZUJKAS_clean_linker_0, # of connection points: 2
# Relax obj value: 0.531
# Max RMSD: 0.273
# Mean RMSD: 0.273
data_MOF--net-bor-e--node1-BEQFEK_clean_sbu_0--edge1-ZUJKAS_clean_linker_0
_symmetry_space_group_name_H-M    P1
_symmetry_Int_Tables_number       1
_symmetry_cell_setting            triclinic
loop_
_symmetry_equiv_pos_as_xyz
'x, y, z'
_cell_length_a     56.298498
_cell_length_b     56.287224
_cell_length_c     56.264394
_cell_angle_alpha  89.977949
_cell_angle_beta   90.02474
_cell_angle_gamma 90.06235
loop_
_atom_site_label
_atom_site_type_symbol
_atom_site_fract_x
_atom_site_fract_y
_atom_site_fract_z
_atom_type_partial_charge
Co0 Co 0.10153 0.13794 0.57253 0.0
Co1 Co 0.06979 0.15612 0.61406 0.0
C2 C 0.07366 0.18192 0.5671 0.0
O3 O 0.08806 0.16686 0.55834 0.0
O4 O 0.06551 0.17966 0.58808 0.0
C5 C 0.11793 0.11498 0.53155 0.0
O6 O 0.09599 0.11921 0.52478 0.0
C7 C 0.06013 0.19051 0.65073 0.0
C8 C 0.03582 0.17142 0.67495 0.0
C9 C 0.04811 0.19261 0.67212 0.0
N10 N 0.0552 0.16915 0.64142 0.0
N11 N 0.04032 0.15793 0.65571 0.0
C12 C 0.07827 0.20711 0.64055 0.0
H13 H 0.08942 0.19792 0.62716 0.0
H14 H 0.08974 0.21444 0.65483 0.0
H15 H 0.06906 0.22211 0.63167 0.0
C16 C 0.1378 0.13891 0.61012 0.0
N17 N 0.11583 0.14388 0.60218 0.0
N18 N 0.10239 0.15023 0.62018 0.0
C19 C 0.11528 0.14896 0.64035 0.0
C20 C 0.13819 0.14182 0.6346 0.0
C21 C 0.15769 0.13059 0.59457 0.0
H22 H 0.15802 0.14117 0.57794 0.0
H23 H 0.17511 0.13228 0.60365 0.0
H24 H 0.15468 0.1117 0.58977 0.0
O25 O 0.07631 0.11344 0.57625 0.0
O26 O 0.05376 0.12586 0.60608 0.0
H27 H 0.11598 0.14163 0.67816 0.0
H28 H 0.10409 0.17011 0.66981 0.0
C29 C 0.105 0.15108 0.6648 0.0
H30 H 0.0868 0.14357 0.66515 0.0
H31 H 0.03409 0.1407 0.65283 0.0
O32 O 0.12502 0.12339 0.55121 0.0
C33 C 0.05869 0.11057 0.59016 0.0
Co34 Co 0.1099 0.8637 0.42808 0.0
Co35 Co 0.08203 0.8438 0.38455 0.0
C36 C 0.08218 0.81971 0.43272 0.0
O37 O 0.09585 0.83499 0.44226 0.0
O38 O 0.07573 0.82149 0.41113 0.0
C39 C 0.12215 0.88843 0.46944 0.0
O40 O 0.09978 0.88384 0.47434 0.0
C41 C 0.07877 0.80821 0.34786 0.0
C42 C 0.05093 0.82201 0.32387 0.0
C43 C 0.06692 0.80353 0.32682 0.0
N44 N 0.07054 0.82871 0.35673 0.0
N45 N 0.05375 0.83684 0.34247 0.0
C46 C 0.09704 0.79311 0.35998 0.0
H47 H 0.09711 0.79648 0.37938 0.0
H48 H 0.11493 0.79758 0.35308 0.0
H49 H 0.09362 0.77399 0.35653 0.0
C50 C 0.14901 0.86315 0.3935 0.0
N51 N 0.12679 0.85719 0.39995 0.0
N52 N 0.11485 0.85031 0.38108 0.0
C53 C 0.12894 0.85234 0.36181 0.0
C54 C 0.15112 0.8603 0.36912 0.0
C55 C 0.1672 0.87315 0.41013 0.0
H56 H 0.16715 0.86291 0.42698 0.0
H57 H 0.18524 0.87258 0.4022 0.0
H58 H 0.1626 0.89186 0.41429 0.0
O59 O 0.08454 0.88736 0.42117 0.0
O60 O 0.06481 0.87399 0.38971 0.0
H61 H 0.10119 0.85642 0.33578 0.0
H62 H 0.13054 0.8632 0.32494 0.0
C63 C 0.12014 0.85123 0.33668 0.0
H64 H 0.12206 0.83286 0.32987 0.0
H65 H 0.04447 0.85264 0.34526 0.0
O66 O 0.13114 0.87962 0.45077 0.0
C67 C 0.06818 0.88969 0.40567 0.0
Co68 Co 0.88252 0.86608 0.56696 0.0
Co69 Co 0.91248 0.84674 0.60941 0.0
C70 C 0.90972 0.82178 0.56183 0.0
O71 O 0.89578 0.83704 0.55267 0.0
O72 O 0.91725 0.82385 0.58304 0.0
C73 C 0.86719 0.88908 0.52521 0.0
O74 O 0.88899 0.88418 0.51848 0.0
C75 C 0.91806 0.81208 0.64685 0.0
C76 C 0.94475 0.82845 0.67055 0.0
C77 C 0.92973 0.80903 0.66833 0.0
N78 N 0.92536 0.83258 0.63715 0.0
N79 N 0.94156 0.84218 0.65119 0.0
C80 C 0.90047 0.79571 0.63533 0.0
H81 H 0.90163 0.79703 0.61573 0.0
H82 H 0.88221 0.80092 0.64054 0.0
H83 H 0.90356 0.77704 0.64086 0.0
C84 C 0.84516 0.86596 0.60354 0.0
N85 N 0.8671 0.86012 0.59609 0.0
N86 N 0.87991 0.85337 0.61443 0.0
C87 C 0.86669 0.85534 0.63431 0.0
C88 C 0.84417 0.86313 0.628 0.0
C89 C 0.8261 0.87558 0.58771 0.0
H90 H 0.83038 0.89426 0.58304 0.0
H91 H 0.82536 0.86509 0.57103 0.0
H92 H 0.80848 0.875 0.59653 0.0
O93 O 0.90828 0.88983 0.57194 0.0
O94 O 0.92945 0.87677 0.60258 0.0
H95 H 0.89526 0.86013 0.65925 0.0
H96 H 0.86618 0.86537 0.67146 0.0
C97 C 0.87653 0.85411 0.65904 0.0
H98 H 0.87567 0.83553 0.66552 0.0
H99 H 0.94991 0.85842 0.6479 0.0
O100 O 0.85998 0.8814 0.54513 0.0
C101 C 0.92543 0.89225 0.58655 0.0
Co102 Co 0.89013 0.13264 0.41581 0.0
Co103 Co 0.92143 0.15266 0.37466 0.0
C104 C 0.91655 0.17757 0.42192 0.0
O105 O 0.90259 0.16191 0.43037 0.0
O106 O 0.92494 0.17587 0.401 0.0
C107 C 0.87323 0.10947 0.45695 0.0
O108 O 0.89504 0.11354 0.46423 0.0
C109 C 0.93229 0.1891 0.34031 0.0
C110 C 0.95488 0.17069 0.31404 0.0
C111 C 0.94423 0.19234 0.31902 0.0
N112 N 0.93578 0.16669 0.3476 0.0
N113 N 0.94958 0.15581 0.33205 0.0
C114 C 0.9154 0.20587 0.35216 0.0
H115 H 0.9029 0.19604 0.36382 0.0
H116 H 0.90519 0.21609 0.33874 0.0
H117 H 0.92562 0.21858 0.36324 0.0
C118 C 0.85432 0.13201 0.3778 0.0
N119 N 0.87585 0.13828 0.38607 0.0
N120 N 0.88902 0.14596 0.36836 0.0
C121 C 0.87631 0.1446 0.3481 0.0
C122 C 0.85389 0.13577 0.35345 0.0
C123 C 0.83605 0.11931 0.39242 0.0
H124 H 0.84361 0.1023 0.3989 0.0
H125 H 0.83151 0.13029 0.40814 0.0
H126 H 0.81966 0.11544 0.38221 0.0
O127 O 0.91608 0.10915 0.41208 0.0
O128 O 0.93831 0.12264 0.3824 0.0
H129 H 0.90248 0.13992 0.32092 0.0
H130 H 0.87297 0.14618 0.30967 0.0
C131 C 0.88595 0.15018 0.32394 0.0
H132 H 0.89039 0.16933 0.323 0.0
H133 H 0.9547 0.13804 0.33333 0.0
O134 O 0.86673 0.11765 0.43699 0.0
C135 C 0.93382 0.10702 0.39819 0.0
Co136 Co 0.57706 0.10214 0.13171 0.0
Co137 Co 0.61509 0.06947 0.15551 0.0
C138 C 0.5659 0.07781 0.17636 0.0
O139 O 0.55913 0.09185 0.15995 0.0
O140 O 0.58647 0.06841 0.17613 0.0
C141 C 0.53746 0.12998 0.11215 0.0
O142 O 0.52359 0.12031 0.12825 0.0
C143 C 0.64893 0.06436 0.19361 0.0
C144 C 0.67322 0.03645 0.18065 0.0
C145 C 0.67004 0.0528 0.1988 0.0
N146 N 0.64046 0.0558 0.17304 0.0
N147 N 0.65475 0.03875 0.16557 0.0
C148 C 0.63699 0.08358 0.20762 0.0
H149 H 0.61746 0.08136 0.20684 0.0
H150 H 0.64128 0.10113 0.19977 0.0
H151 H 0.64282 0.08331 0.22647 0.0
C152 C 0.6161 0.13668 0.13448 0.0
N153 N 0.60664 0.11536 0.13973 0.0
N154 N 0.62346 0.10112 0.14746 0.0
C155 C 0.64443 0.11267 0.14635 0.0
C156 C 0.64031 0.13564 0.13851 0.0
C157 C 0.60275 0.15654 0.12293 0.0
H158 H 0.59945 0.15196 0.10404 0.0
H159 H 0.58533 0.15888 0.13184 0.0
H160 H 0.61289 0.17344 0.12367 0.0
O161 O 0.5821 0.07475 0.11008 0.0
O162 O 0.60926 0.05108 0.12611 0.0
H163 H 0.66774 0.0825 0.14461 0.0
H164 H 0.6824 0.11078 0.14046 0.0
C165 C 0.66817 0.10134 0.15029 0.0
H166 H 0.67265 0.10214 0.16943 0.0
H167 H 0.65253 0.02953 0.14963 0.0
O168 O 0.55944 0.12505 0.11204 0.0
C169 C 0.59493 0.05614 0.10933 0.0
Co170 Co 0.12861 0.41564 0.88621 0.0
Co171 Co 0.15065 0.37287 0.91359 0.0
C172 C 0.1719 0.42282 0.91368 0.0
O173 O 0.1572 0.43171 0.89892 0.0
O174 O 0.17017 0.40129 0.92037 0.0
C175 C 0.11096 0.45326 0.85172 0.0
O176 O 0.13225 0.46083 0.84589 0.0
C177 C 0.18973 0.3399 0.91692 0.0
C178 C 0.17666 0.31269 0.94205 0.0
C179 C 0.19566 0.31845 0.92746 0.0
N180 N 0.16806 0.34622 0.92448 0.0
N181 N 0.16039 0.33008 0.93972 0.0
C182 C 0.20435 0.35447 0.90009 0.0
H183 H 0.2003 0.37359 0.90216 0.0
H184 H 0.19994 0.34946 0.88154 0.0
H185 H 0.2236 0.3515 0.9031 0.0
C186 C 0.12979 0.38088 0.8469 0.0
N187 N 0.13605 0.38784 0.86894 0.0
N188 N 0.14411 0.36939 0.8808 0.0
C189 C 0.14265 0.34996 0.8669 0.0
C190 C 0.13373 0.35666 0.84492 0.0
C191 C 0.11676 0.39623 0.82955 0.0
H192 H 0.09913 0.40093 0.83699 0.0
H193 H 0.12692 0.41286 0.82667 0.0
H194 H 0.11416 0.38718 0.81224 0.0
O195 O 0.1068 0.40719 0.91276 0.0
O196 O 0.12065 0.37528 0.93124 0.0
H197 H 0.13887 0.32268 0.89329 0.0
H198 H 0.13956 0.31167 0.86304 0.0
C199 C 0.14689 0.32511 0.87545 0.0
H200 H 0.16625 0.32199 0.87692 0.0
H201 H 0.14388 0.33067 0.94811 0.0
O202 O 0.10853 0.43658 0.86673 0.0
C203 C 0.10483 0.39119 0.92866 0.0
Co204 Co 0.41534 0.89249 0.13061 0.0
Co205 Co 0.37291 0.92177 0.15076 0.0
C206 C 0.42132 0.91915 0.17481 0.0
O207 O 0.43032 0.90506 0.15959 0.0
O208 O 0.40007 0.9266 0.17281 0.0
C209 C 0.4553 0.87861 0.10381 0.0
O210 O 0.46227 0.9003 0.10893 0.0
C211 C 0.33691 0.92458 0.18687 0.0
C212 C 0.31314 0.95321 0.17445 0.0
C213 C 0.31606 0.93639 0.19221 0.0
N214 N 0.34572 0.93361 0.16667 0.0
N215 N 0.33162 0.9509 0.15938 0.0
C216 C 0.34875 0.90538 0.20103 0.0
H217 H 0.36814 0.90525 0.19765 0.0
H218 H 0.3416 0.88783 0.19568 0.0
H219 H 0.34534 0.90784 0.2203 0.0
C220 C 0.37949 0.85451 0.13146 0.0
N221 N 0.3866 0.87665 0.13699 0.0
N222 N 0.36811 0.88923 0.14368 0.0
C223 C 0.34844 0.87565 0.14187 0.0
C224 C 0.35508 0.85316 0.1343 0.0
C225 C 0.39561 0.83549 0.12233 0.0
H226 H 0.39911 0.83868 0.10319 0.0
H227 H 0.41277 0.83604 0.132 0.0
H228 H 0.38749 0.81764 0.12445 0.0
O229 O 0.40938 0.91883 0.10784 0.0
O230 O 0.37848 0.9395 0.12093 0.0
H231 H 0.32311 0.90412 0.13854 0.0
H232 H 0.31167 0.87515 0.1309 0.0
C233 C 0.32356 0.885 0.14319 0.0
H234 H 0.31662 0.88263 0.16147 0.0
H235 H 0.33434 0.96077 0.14391 0.0
O236 O 0.43642 0.87074 0.11326 0.0
C237 C 0.3946 0.9358 0.10548 0.0
Co238 Co 0.86977 0.57903 0.88232 0.0
Co239 Co 0.85253 0.6198 0.91568 0.0
C240 C 0.82829 0.57147 0.91262 0.0
O241 O 0.84132 0.56345 0.89596 0.0
O242 O 0.83167 0.59209 0.92126 0.0
C243 C 0.89156 0.53812 0.8613 0.0
O244 O 0.88596 0.52777 0.88148 0.0
C245 C 0.8166 0.65489 0.92494 0.0
C246 C 0.83392 0.6797 0.94997 0.0
C247 C 0.81347 0.67631 0.93665 0.0
N248 N 0.83812 0.64637 0.9305 0.0
N249 N 0.8483 0.66102 0.94579 0.0
C250 C 0.79966 0.6426 0.90846 0.0
H251 H 0.80115 0.6231 0.91041 0.0
H252 H 0.80421 0.64709 0.88981 0.0
H253 H 0.78106 0.64805 0.91204 0.0
C254 C 0.86684 0.61753 0.84695 0.0
N255 N 0.86253 0.60884 0.86882 0.0
N256 N 0.85675 0.62643 0.88305 0.0
C257 C 0.85804 0.64701 0.87087 0.0
C258 C 0.86418 0.64197 0.84756 0.0
C259 C 0.87685 0.60325 0.8269 0.0
H260 H 0.89561 0.59881 0.83097 0.0
H261 H 0.86672 0.58644 0.82502 0.0
H262 H 0.87623 0.61322 0.8099 0.0
O263 O 0.89462 0.58293 0.90756 0.0
O264 O 0.88345 0.6133 0.93016 0.0
H265 H 0.86541 0.67124 0.8994 0.0
H266 H 0.86422 0.68508 0.87039 0.0
C267 C 0.85633 0.67117 0.88191 0.0
H268 H 0.83739 0.67569 0.88467 0.0
H269 H 0.86538 0.65873 0.95263 0.0
O270 O 0.88487 0.55932 0.85766 0.0
C271 C 0.89829 0.59708 0.92489 0.0
Co272 Co 0.57891 0.88086 0.86265 0.0
Co273 Co 0.62086 0.91301 0.84615 0.0
C274 C 0.57377 0.90951 0.81966 0.0
O275 O 0.56495 0.89365 0.83316 0.0
O276 O 0.59435 0.91808 0.8235 0.0
C277 C 0.53531 0.85693 0.87667 0.0
O278 O 0.52436 0.87096 0.86157 0.0
C279 C 0.65873 0.91764 0.81238 0.0
C280 C 0.67958 0.94837 0.82513 0.0
C281 C 0.67888 0.93092 0.80776 0.0
N282 N 0.6482 0.92644 0.83181 0.0
N283 N 0.66057 0.94495 0.83932 0.0
C284 C 0.649 0.89735 0.79814 0.0
H285 H 0.6296 0.89554 0.80103 0.0
H286 H 0.65756 0.88057 0.80387 0.0
H287 H 0.65273 0.89996 0.77894 0.0
C288 C 0.61655 0.84503 0.86371 0.0
N289 N 0.60856 0.86662 0.85736 0.0
N290 N 0.62671 0.88049 0.85252 0.0
C291 C 0.64698 0.86841 0.85655 0.0
C292 C 0.64119 0.84547 0.86362 0.0
C293 C 0.6008 0.82501 0.87138 0.0
H294 H 0.58464 0.82451 0.8601 0.0
H295 H 0.61017 0.80772 0.87012 0.0
H296 H 0.59522 0.82793 0.89006 0.0
O297 O 0.58292 0.90649 0.88699 0.0
O298 O 0.61341 0.92914 0.87615 0.0
H299 H 0.66925 0.89893 0.86275 0.0
H300 H 0.68202 0.8711 0.87209 0.0
C301 C 0.67098 0.87985 0.85829 0.0
H302 H 0.68029 0.87813 0.84102 0.0
H303 H 0.65624 0.955 0.85429 0.0
O304 O 0.55778 0.8578 0.87822 0.0
C305 C 0.59692 0.92393 0.89075 0.0
Co306 Co 0.86651 0.42298 0.10794 0.0
Co307 Co 0.84722 0.37533 0.08688 0.0
C308 C 0.82139 0.42173 0.08068 0.0
O309 O 0.83612 0.43337 0.09332 0.0
O310 O 0.82423 0.39967 0.07686 0.0
C311 C 0.87641 0.462 0.14237 0.0
O312 O 0.85722 0.45657 0.1545 0.0
C313 C 0.81277 0.3366 0.08407 0.0
C314 C 0.83349 0.30833 0.06641 0.0
C315 C 0.81172 0.31304 0.07688 0.0
N316 N 0.8344 0.34515 0.07874 0.0
N317 N 0.84657 0.32831 0.06783 0.0
C318 C 0.79362 0.35092 0.09575 0.0
H319 H 0.79442 0.36962 0.08977 0.0
H320 H 0.79629 0.35076 0.11528 0.0
H321 H 0.77578 0.34359 0.09162 0.0
C322 C 0.87235 0.39183 0.15048 0.0
N323 N 0.86319 0.39648 0.12876 0.0
N324 N 0.85436 0.37668 0.11989 0.0
C325 C 0.85725 0.35902 0.13581 0.0
C326 C 0.86858 0.36808 0.15568 0.0
C327 C 0.88848 0.40821 0.1639 0.0
H328 H 0.89965 0.41852 0.15139 0.0
H329 H 0.87759 0.42058 0.17463 0.0
H330 H 0.90023 0.39829 0.17624 0.0
O331 O 0.88938 0.41421 0.08267 0.0
O332 O 0.8769 0.37953 0.06867 0.0
H333 H 0.86211 0.32753 0.11505 0.0
H334 H 0.85691 0.32184 0.14624 0.0
C335 C 0.85211 0.33335 0.13098 0.0
H336 H 0.83291 0.33106 0.12754 0.0
H337 H 0.86404 0.33026 0.06194 0.0
O338 O 0.88176 0.45032 0.12382 0.0
C339 C 0.89189 0.39649 0.06885 0.0
Co340 Co 0.42253 0.10379 0.85577 0.0
Co341 Co 0.37542 0.0791 0.84015 0.0
C342 C 0.4222 0.07329 0.81358 0.0
O343 O 0.43385 0.08742 0.82689 0.0
O344 O 0.40036 0.06885 0.81749 0.0
C345 C 0.46445 0.11309 0.881 0.0
O346 O 0.46753 0.09025 0.87729 0.0
C347 C 0.33671 0.0786 0.80664 0.0
C348 C 0.3098 0.05576 0.82385 0.0
C349 C 0.31367 0.07022 0.80426 0.0
N350 N 0.34578 0.07002 0.82694 0.0
N351 N 0.32978 0.05613 0.83706 0.0
C352 C 0.35029 0.09425 0.7899 0.0
H353 H 0.34748 0.11312 0.79477 0.0
H354 H 0.34427 0.09152 0.77132 0.0
H355 H 0.36958 0.0906 0.79121 0.0
C356 C 0.39176 0.146 0.85443 0.0
N357 N 0.39579 0.12292 0.84971 0.0
N358 N 0.37552 0.11237 0.8449 0.0
C359 C 0.35777 0.12824 0.84723 0.0
C360 C 0.36752 0.15015 0.85307 0.0
C361 C 0.4106 0.16325 0.86179 0.0
H362 H 0.42698 0.16018 0.85128 0.0
H363 H 0.40459 0.18185 0.85925 0.0
H364 H 0.41481 0.16043 0.88085 0.0
O365 O 0.41439 0.08007 0.88087 0.0
O366 O 0.38021 0.06311 0.8709 0.0
H367 H 0.32212 0.13363 0.86061 0.0
H368 H 0.32396 0.12305 0.83057 0.0
C369 C 0.33199 0.12162 0.84851 0.0
H370 H 0.32993 0.10317 0.85502 0.0
H371 H 0.33223 0.04749 0.85329 0.0
O372 O 0.44728 0.12346 0.87074 0.0
C373 C 0.39753 0.0656 0.88525 0.0
Co374 Co 0.13093 0.56834 0.11561 0.0
Co375 Co 0.15075 0.61214 0.08763 0.0
C376 C 0.17579 0.5644 0.08921 0.0
O377 O 0.16076 0.55447 0.10295 0.0
O378 O 0.17319 0.58583 0.08252 0.0
C379 C 0.10276 0.52858 0.12863 0.0
O380 O 0.10553 0.52317 0.10609 0.0
C381 C 0.18614 0.64927 0.08284 0.0
C382 C 0.16944 0.6742 0.05751 0.0
C383 C 0.18922 0.67108 0.07184 0.0
N384 N 0.16523 0.6402 0.07582 0.0
N385 N 0.15546 0.65497 0.06041 0.0
C386 C 0.20277 0.637 0.09962 0.0
H387 H 0.20176 0.6175 0.09724 0.0
H388 H 0.19758 0.64098 0.1182 0.0
H389 H 0.22134 0.64302 0.09679 0.0
C390 C 0.1291 0.60413 0.15394 0.0
N391 N 0.13601 0.59724 0.13208 0.0
N392 N 0.14304 0.61599 0.12002 0.0
C393 C 0.14019 0.63551 0.13355 0.0
C394 C 0.13143 0.62858 0.15552 0.0
C395 C 0.11709 0.58818 0.17149 0.0
H396 H 0.0992 0.58348 0.16467 0.0
H397 H 0.12748 0.57157 0.17354 0.0
H398 H 0.11511 0.59686 0.18907 0.0
O399 O 0.10845 0.57392 0.08876 0.0
O400 O 0.12161 0.60575 0.06948 0.0
H401 H 0.13552 0.66237 0.10687 0.0
H402 H 0.13552 0.67373 0.13695 0.0
C403 C 0.14348 0.66046 0.1248 0.0
H404 H 0.16268 0.66445 0.12353 0.0
H405 H 0.13897 0.65225 0.05239 0.0
O406 O 0.11402 0.54623 0.13703 0.0
C407 C 0.10645 0.58916 0.07211 0.0
H408 H 0.09623 0.32703 0.84969 0.0
H409 H 0.07931 0.30056 0.81945 0.0
H410 H 0.13126 0.32529 0.76876 0.0
H411 H 0.14832 0.35173 0.79918 0.0
H412 H 0.06106 0.31284 0.77261 0.0
H413 H 0.13838 0.25131 0.77067 0.0
H414 H 0.13345 0.27198 0.7947 0.0
H415 H 0.14497 0.28235 0.76681 0.0
C416 C 0.10404 0.32664 0.8321 0.0
C417 C 0.12372 0.34092 0.82665 0.0
C418 C 0.09433 0.3117 0.81488 0.0
C419 C 0.10423 0.31087 0.79204 0.0
C420 C 0.12362 0.32553 0.78643 0.0
H421 H 0.05018 0.24078 0.66592 0.0
H422 H 0.06194 0.27041 0.69555 0.0
C423 C 0.13331 0.34055 0.80368 0.0
C424 C 0.09443 0.29426 0.7743 0.0
H425 H 0.10732 0.24375 0.74351 0.0
C426 C 0.07113 0.29775 0.76616 0.0
C427 C 0.10762 0.27451 0.76625 0.0
C428 C 0.13244 0.26959 0.77513 0.0
C429 C 0.06068 0.28197 0.74993 0.0
C430 C 0.07399 0.26238 0.74169 0.0
C431 C 0.09724 0.25886 0.74992 0.0
C432 C 0.06425 0.24517 0.72448 0.0
C433 C 0.03541 0.28607 0.74201 0.0
C434 C 0.06144 0.22131 0.73108 0.0
C435 C 0.05493 0.20438 0.71419 0.0
C436 C 0.0515 0.21105 0.69039 0.0
C437 C 0.05325 0.23513 0.68405 0.0
C438 C 0.05968 0.25208 0.70098 0.0
H439 H 0.02606 0.29895 0.75366 0.0
H440 H 0.03545 0.29326 0.72365 0.0
H441 H 0.02531 0.26911 0.74185 0.0
H442 H 0.06495 0.21571 0.74917 0.0
H443 H 0.05371 0.18592 0.71951 0.0
H444 H 0.17326 0.83587 0.33408 0.0
H445 H 0.2026 0.85118 0.30569 0.0
H446 H 0.20036 0.91961 0.34019 0.0
H447 H 0.17128 0.90425 0.36868 0.0
H448 H 0.19489 0.88818 0.27476 0.0
H449 H 0.2715 0.90812 0.33383 0.0
H450 H 0.24702 0.88953 0.34303 0.0
H451 H 0.24393 0.9213 0.34294 0.0
C452 C 0.17942 0.85404 0.33576 0.0
C453 C 0.1704 0.86883 0.35363 0.0
C454 C 0.19607 0.86277 0.3196 0.0
C455 C 0.20386 0.88642 0.32107 0.0
C456 C 0.19504 0.90115 0.33912 0.0
H457 H 0.29279 0.96718 0.22143 0.0
H458 H 0.26446 0.95705 0.25325 0.0
C459 C 0.17847 0.89238 0.35537 0.0
C460 C 0.21991 0.89605 0.30266 0.0
H461 H 0.27453 0.92093 0.29377 0.0
C462 C 0.2123 0.89534 0.27892 0.0
C463 C 0.24252 0.90555 0.30822 0.0
C464 C 0.25188 0.90603 0.33336 0.0
C465 C 0.22682 0.90364 0.26051 0.0
C466 C 0.24952 0.91274 0.26603 0.0
C467 C 0.25699 0.91402 0.28976 0.0
C468 C 0.26645 0.91916 0.24714 0.0
C469 C 0.21795 0.90243 0.23523 0.0
C470 C 0.27675 0.90116 0.23343 0.0
C471 C 0.29283 0.90685 0.21553 0.0
C472 C 0.29897 0.93063 0.21114 0.0
C473 C 0.28839 0.94871 0.22466 0.0
C474 C 0.27236 0.94298 0.24278 0.0
H475 H 0.19843 0.8996 0.23439 0.0
H476 H 0.22245 0.91899 0.22548 0.0
H477 H 0.22674 0.8874 0.22598 0.0
H478 H 0.2723 0.88269 0.2366 0.0
H479 H 0.30015 0.89263 0.20488 0.0
H480 H 0.96227 0.78824 0.69753 0.0
H481 H 0.95472 0.75854 0.72875 0.0
H482 H 0.88001 0.75991 0.71208 0.0
H483 H 0.88717 0.78995 0.68169 0.0
H484 H 0.91059 0.7665 0.76806 0.0
H485 H 0.91182 0.68613 0.71024 0.0
H486 H 0.93001 0.71189 0.70402 0.0
H487 H 0.8986 0.71308 0.69904 0.0
C488 C 0.94428 0.78207 0.7005 0.0
C489 C 0.92542 0.79078 0.68665 0.0
C490 C 0.94003 0.76517 0.71823 0.0
C491 C 0.91689 0.75693 0.72229 0.0
C492 C 0.89803 0.76585 0.70879 0.0
H493 H 0.84289 0.65325 0.80586 0.0
H494 H 0.85722 0.68147 0.77571 0.0
C495 C 0.90222 0.78277 0.69123 0.0
C496 C 0.91196 0.73948 0.7411 0.0
H497 H 0.89901 0.68099 0.74988 0.0
C498 C 0.90834 0.74773 0.76429 0.0
C499 C 0.9088 0.71521 0.73578 0.0
C500 C 0.91255 0.70584 0.71095 0.0
C501 C 0.90091 0.73227 0.78236 0.0
C502 C 0.89756 0.70792 0.77704 0.0
C503 C 0.90163 0.69966 0.75386 0.0
C504 C 0.88913 0.69085 0.79511 0.0
C505 C 0.89581 0.74231 0.80671 0.0
C506 C 0.90249 0.68664 0.81574 0.0
C507 C 0.89422 0.67079 0.83291 0.0
C508 C 0.87262 0.65884 0.82955 0.0
C509 C 0.85949 0.66258 0.80875 0.0
C510 C 0.86769 0.67854 0.79161 0.0
H511 H 0.89345 0.7619 0.80621 0.0
H512 H 0.87958 0.73418 0.81444 0.0
H513 H 0.91096 0.73835 0.81868 0.0
H514 H 0.91934 0.69553 0.81849 0.0
H515 H 0.90471 0.66774 0.84877 0.0
H516 H 0.699 0.02351 0.22431 0.0
H517 H 0.73111 0.03525 0.25158 0.0
H518 H 0.71464 0.10903 0.23921 0.0
H519 H 0.68329 0.09758 0.21179 0.0
H520 H 0.76354 0.09613 0.23353 0.0
H521 H 0.72483 0.06573 0.31943 0.0
H522 H 0.72522 0.04469 0.29534 0.0
H523 H 0.70689 0.07065 0.29326 0.0
C524 C 0.70211 0.0422 0.22771 0.0
C525 C 0.68817 0.05959 0.21649 0.0
C526 C 0.72033 0.04885 0.24328 0.0
C527 C 0.72492 0.07298 0.2476 0.0
C528 C 0.71113 0.09032 0.2363 0.0
H529 H 0.80757 0.14889 0.35137 0.0
H530 H 0.77664 0.13268 0.32512 0.0
C531 C 0.69297 0.0837 0.22086 0.0
C532 C 0.74475 0.08052 0.26298 0.0
H533 H 0.76291 0.08324 0.32076 0.0
C534 C 0.76354 0.0932 0.25259 0.0
C535 C 0.74443 0.07681 0.2878 0.0
C536 C 0.72423 0.06387 0.29978 0.0
C537 C 0.782 0.10251 0.26645 0.0
C538 C 0.78171 0.09878 0.29128 0.0
C539 C 0.76302 0.08595 0.30168 0.0
C540 C 0.80038 0.10863 0.30682 0.0
C541 C 0.80132 0.11682 0.25456 0.0
C542 C 0.82381 0.10037 0.30514 0.0
C543 C 0.84137 0.1096 0.32003 0.0
C544 C 0.83568 0.12718 0.33675 0.0
C545 C 0.81226 0.13544 0.33843 0.0
C546 C 0.79468 0.12617 0.32358 0.0
H547 H 0.79635 0.12214 0.2362 0.0
H548 H 0.80541 0.13307 0.26499 0.0
H549 H 0.81774 0.10598 0.25357 0.0
H550 H 0.82842 0.08658 0.29254 0.0
H551 H 0.85928 0.1027 0.31881 0.0
H552 H 0.09424 0.6588 0.15162 0.0
H553 H 0.07992 0.687 0.18163 0.0
H554 H 0.13219 0.66089 0.23125 0.0
H555 H 0.14664 0.63272 0.20111 0.0
H556 H 0.08228 0.66932 0.24944 0.0
H557 H 0.12376 0.74515 0.20116 0.0
H558 H 0.10526 0.72556 0.18394 0.0
H559 H 0.13258 0.71471 0.19624 0.0
C560 C 0.10254 0.6591 0.169 0.0
C561 C 0.12172 0.64408 0.17414 0.0
C562 C 0.09435 0.67508 0.18605 0.0
C563 C 0.10521 0.67609 0.20845 0.0
C564 C 0.12368 0.66031 0.21398 0.0
H565 H 0.1098 0.78664 0.31231 0.0
H566 H 0.11744 0.7546 0.28416 0.0
C567 C 0.13193 0.64436 0.19686 0.0
C568 C 0.09823 0.69459 0.22556 0.0
H569 H 0.10157 0.75425 0.23546 0.0
C570 C 0.08636 0.68791 0.24643 0.0
C571 C 0.10384 0.71872 0.22149 0.0
C572 C 0.11721 0.72659 0.1996 0.0
C573 C 0.07989 0.70492 0.26346 0.0
C574 C 0.08541 0.72907 0.2593 0.0
C575 C 0.09725 0.73569 0.23841 0.0
C576 C 0.08032 0.74767 0.27701 0.0
C577 C 0.06777 0.69699 0.28601 0.0
C578 C 0.05689 0.75445 0.28207 0.0
C579 C 0.05247 0.7727 0.29833 0.0
C580 C 0.07143 0.78415 0.30984 0.0
C581 C 0.09484 0.7775 0.30443 0.0
C582 C 0.09924 0.7594 0.28816 0.0
H583 H 0.06822 0.67737 0.28819 0.0
H584 H 0.0763 0.70534 0.30173 0.0
H585 H 0.04892 0.70274 0.28562 0.0
H586 H 0.0421 0.74584 0.27325 0.0
H587 H 0.03428 0.77775 0.30204 0.0
H588 H 0.82387 0.83794 0.66365 0.0
H589 H 0.79519 0.85227 0.69314 0.0
H590 H 0.79482 0.92107 0.65924 0.0
H591 H 0.82325 0.90666 0.62962 0.0
H592 H 0.80259 0.88921 0.72431 0.0
H593 H 0.72421 0.90736 0.66704 0.0
H594 H 0.749 0.88963 0.65715 0.0
H595 H 0.7512 0.92148 0.65754 0.0
C596 C 0.8173 0.85598 0.66236 0.0
C597 C 0.82538 0.87114 0.64432 0.0
C598 C 0.80103 0.86416 0.67916 0.0
C599 C 0.79267 0.88763 0.67816 0.0
C600 C 0.8006 0.90274 0.65998 0.0
H601 H 0.69997 0.9631 0.77831 0.0
H602 H 0.72911 0.95482 0.74674 0.0
C603 C 0.81679 0.89451 0.6431 0.0
C604 C 0.77677 0.89659 0.69701 0.0
H605 H 0.72155 0.91934 0.70731 0.0
C606 C 0.78488 0.89582 0.72059 0.0
C607 C 0.75377 0.90537 0.69203 0.0
C608 C 0.74389 0.90587 0.6671 0.0
C609 C 0.77046 0.90332 0.73941 0.0
C610 C 0.74733 0.91164 0.73448 0.0
C611 C 0.73939 0.91303 0.7109 0.0
C612 C 0.73046 0.91704 0.75373 0.0
C613 C 0.77993 0.90212 0.76447 0.0
C614 C 0.72176 0.89852 0.76792 0.0
C615 C 0.7052 0.90316 0.78568 0.0
C616 C 0.69697 0.92639 0.78945 0.0
C617 C 0.70604 0.94504 0.77558 0.0
C618 C 0.72254 0.94035 0.7576 0.0
H619 H 0.79962 0.90077 0.76481 0.0
H620 H 0.77447 0.91802 0.7748 0.0
H621 H 0.77253 0.8862 0.77345 0.0
H622 H 0.72765 0.88042 0.76509 0.0
H623 H 0.69899 0.88858 0.79659 0.0
H624 H 0.93821 0.19135 0.27121 0.0
H625 H 0.92975 0.22505 0.245 0.0
H626 H 0.93757 0.27318 0.30412 0.0
H627 H 0.94643 0.23955 0.33036 0.0
H628 H 0.8894 0.25669 0.25594 0.0
H629 H 0.97608 0.30372 0.24722 0.0
H630 H 0.97408 0.27257 0.25481 0.0
H631 H 0.96697 0.29472 0.27656 0.0
C632 C 0.93863 0.20916 0.27849 0.0
C633 C 0.94252 0.21288 0.30284 0.0
C634 C 0.93372 0.22834 0.26355 0.0
C635 C 0.93304 0.2515 0.2727 0.0
C636 C 0.93816 0.2554 0.29676 0.0
H637 H 0.85904 0.36927 0.20301 0.0
H638 H 0.87585 0.3432 0.23391 0.0
C639 C 0.94295 0.2362 0.31174 0.0
C640 C 0.92476 0.27117 0.25752 0.0
H641 H 0.94279 0.32142 0.22873 0.0
C642 C 0.901 0.27093 0.25007 0.0
C643 C 0.94004 0.28962 0.25002 0.0
C644 C 0.96578 0.29028 0.25738 0.0
C645 C 0.89211 0.28858 0.23495 0.0
C646 C 0.90739 0.30698 0.2273 0.0
C647 C 0.93113 0.30737 0.23491 0.0
C648 C 0.89937 0.32471 0.20977 0.0
C649 C 0.86665 0.28707 0.22666 0.0
C650 C 0.90758 0.32324 0.18631 0.0
C651 C 0.89796 0.3379 0.16882 0.0
C652 C 0.88008 0.35421 0.17462 0.0
C653 C 0.8727 0.35658 0.19828 0.0
C654 C 0.88225 0.34179 0.21581 0.0
H655 H 0.85821 0.26989 0.23154 0.0
H656 H 0.85624 0.30162 0.23492 0.0
H657 H 0.86563 0.28929 0.20707 0.0
H658 H 0.92079 0.31014 0.18139 0.0
H659 H 0.90403 0.3361 0.15063 0.0
H660 H 0.15632 0.16731 0.67145 0.0
H661 H 0.18684 0.15459 0.69998 0.0
H662 H 0.19261 0.08733 0.66372 0.0
H663 H 0.16201 0.09984 0.63545 0.0
H664 H 0.1848 0.11272 0.72982 0.0
H665 H 0.26203 0.11254 0.66817 0.0
H666 H 0.23484 0.12831 0.66173 0.0
H667 H 0.23622 0.09666 0.65802 0.0
C668 C 0.16424 0.14988 0.6696 0.0
C669 C 0.15715 0.13465 0.65118 0.0
C670 C 0.18159 0.14266 0.68581 0.0
C671 C 0.19212 0.12018 0.68368 0.0
C672 C 0.18499 0.10492 0.66532 0.0
H673 H 0.27945 0.04202 0.78488 0.0
H674 H 0.24915 0.0534 0.75553 0.0
C675 C 0.16761 0.1121 0.64919 0.0
C676 C 0.21006 0.11234 0.70109 0.0
H677 H 0.26836 0.09678 0.70673 0.0
C678 C 0.20307 0.10922 0.72482 0.0
C679 C 0.23385 0.1079 0.6944 0.0
C680 C 0.24234 0.11168 0.66924 0.0
C681 C 0.21931 0.10156 0.74208 0.0
C682 C 0.24299 0.09693 0.73532 0.0
C683 C 0.25005 0.10017 0.71166 0.0
C684 C 0.26101 0.08987 0.7529 0.0
C685 C 0.21129 0.09878 0.7675 0.0
C686 C 0.27743 0.10669 0.76101 0.0
C687 C 0.29452 0.10033 0.77776 0.0
C688 C 0.29574 0.07689 0.78631 0.0
C689 C 0.27905 0.06012 0.77834 0.0
C690 C 0.26181 0.06656 0.76165 0.0
H691 H 0.19277 0.10502 0.77021 0.0
H692 H 0.21235 0.07979 0.77269 0.0
H693 H 0.22325 0.10891 0.77951 0.0
H694 H 0.27679 0.12484 0.75462 0.0
H695 H 0.30634 0.11396 0.78436 0.0
H696 H 0.32011 0.8326 0.16032 0.0
H697 H 0.29305 0.80074 0.14783 0.0
H698 H 0.32669 0.79921 0.07892 0.0
H699 H 0.35394 0.83072 0.09153 0.0
H700 H 0.26108 0.80099 0.11148 0.0
H701 H 0.32768 0.72965 0.09736 0.0
H702 H 0.33461 0.75682 0.11292 0.0
H703 H 0.33365 0.75635 0.08097 0.0
C704 C 0.32176 0.82524 0.1426 0.0
C705 C 0.33923 0.83368 0.12698 0.0
C706 C 0.30637 0.80713 0.13548 0.0
C707 C 0.30819 0.79734 0.11261 0.0
C708 C 0.32544 0.80605 0.09687 0.0
H709 H 0.21118 0.69999 0.03984 0.0
H710 H 0.24067 0.73119 0.04824 0.0
C711 C 0.34095 0.82402 0.10405 0.0
C712 C 0.29142 0.77861 0.10498 0.0
H713 H 0.28818 0.72141 0.08496 0.0
C714 C 0.26701 0.7836 0.10568 0.0
C715 C 0.29926 0.75594 0.09744 0.0
C716 C 0.32521 0.74923 0.09731 0.0
C717 C 0.2502 0.76647 0.09906 0.0
C718 C 0.25806 0.74393 0.09153 0.0
C719 C 0.28239 0.73891 0.09056 0.0
C720 C 0.24105 0.72484 0.08615 0.0
C721 C 0.2241 0.77233 0.10039 0.0
C722 C 0.23175 0.71118 0.10474 0.0
C723 C 0.21509 0.69349 0.10002 0.0
C724 C 0.20763 0.68908 0.0766 0.0
C725 C 0.21689 0.70291 0.058 0.0
C726 C 0.23367 0.72062 0.06273 0.0
H727 H 0.22093 0.79131 0.10477 0.0
H728 H 0.21535 0.76818 0.08319 0.0
H729 H 0.21557 0.76116 0.11424 0.0
H730 H 0.23715 0.71448 0.12293 0.0
H731 H 0.20759 0.68375 0.11481 0.0
H732 H 0.21687 0.31035 0.88459 0.0
H733 H 0.25032 0.2843 0.87621 0.0
H734 H 0.25332 0.26391 0.95001 0.0
H735 H 0.22005 0.29079 0.9588 0.0
H736 H 0.29888 0.28299 0.90054 0.0
H737 H 0.24275 0.20155 0.90774 0.0
H738 H 0.23002 0.23054 0.90259 0.0
H739 H 0.24146 0.2231 0.93138 0.0
C740 C 0.2251 0.30104 0.89923 0.0
C741 C 0.21635 0.30318 0.92251 0.0
C742 C 0.24406 0.28596 0.89434 0.0
C743 C 0.25429 0.27243 0.91253 0.0
C744 C 0.24562 0.27438 0.93581 0.0
H745 H 0.37333 0.17457 0.89455 0.0
H746 H 0.34793 0.20634 0.91005 0.0
C747 C 0.22667 0.28962 0.94076 0.0
C748 C 0.27312 0.25534 0.90654 0.0
H749 H 0.28228 0.19654 0.8954 0.0
C750 C 0.29546 0.26404 0.89971 0.0
C751 C 0.2683 0.23075 0.9053 0.0
C752 C 0.24434 0.22076 0.91201 0.0
C753 C 0.31311 0.24866 0.89123 0.0
C754 C 0.30807 0.22416 0.88951 0.0
C755 C 0.28592 0.21541 0.8968 0.0
C756 C 0.32511 0.20731 0.87914 0.0
C757 C 0.33671 0.25861 0.88339 0.0
C758 C 0.32075 0.19777 0.85655 0.0
C759 C 0.33534 0.17991 0.84757 0.0
C760 C 0.35434 0.17126 0.86117 0.0
C761 C 0.3591 0.18133 0.88351 0.0
C762 C 0.34456 0.19931 0.89244 0.0
H763 H 0.33718 0.27832 0.88423 0.0
H764 H 0.351 0.25148 0.89497 0.0
H765 H 0.34061 0.2529 0.86491 0.0
H766 H 0.30569 0.20375 0.84615 0.0
H767 H 0.33136 0.17232 0.83032 0.0
H768 H 0.79306 0.70516 0.96983 0.0
H769 H 0.76153 0.73477 0.96325 0.0
H770 H 0.76046 0.71712 0.88871 0.0
H771 H 0.79223 0.6885 0.89487 0.0
H772 H 0.76404 0.77457 0.92481 0.0
H773 H 0.68915 0.71063 0.91631 0.0
H774 H 0.71586 0.704 0.9329 0.0
H775 H 0.71611 0.70279 0.90103 0.0
C776 C 0.78595 0.7076 0.9521 0.0
C777 C 0.79441 0.6939 0.93303 0.0
C778 C 0.76802 0.7244 0.9484 0.0
C779 C 0.75845 0.7276 0.92561 0.0
C780 C 0.76729 0.71439 0.90651 0.0
H781 H 0.68238 0.82923 0.84455 0.0
H782 H 0.71065 0.80133 0.86253 0.0
C783 C 0.78524 0.69783 0.91014 0.0
C784 C 0.73974 0.74526 0.92113 0.0
H785 H 0.68247 0.74991 0.90198 0.0
C786 C 0.74607 0.76932 0.92022 0.0
C787 C 0.7164 0.73818 0.91523 0.0
C788 C 0.7088 0.71251 0.91655 0.0
C789 C 0.72983 0.78648 0.91237 0.0
C790 C 0.70689 0.7792 0.9052 0.0
C791 C 0.70019 0.7553 0.90731 0.0
C792 C 0.68993 0.79599 0.89449 0.0
C793 C 0.73741 0.81216 0.91132 0.0
C794 C 0.66887 0.80174 0.9064 0.0
C795 C 0.65283 0.81766 0.89623 0.0
C796 C 0.6575 0.82771 0.87384 0.0
C797 C 0.67846 0.82167 0.86182 0.0
C798 C 0.69458 0.80589 0.87208 0.0
H799 H 0.75337 0.81556 0.92244 0.0
H800 H 0.74178 0.81688 0.89267 0.0
H801 H 0.72283 0.824 0.91732 0.0
H802 H 0.66505 0.79421 0.92371 0.0
H803 H 0.63708 0.82249 0.90612 0.0
H804 H 0.67 0.13409 0.1007 0.0
H805 H 0.69947 0.16419 0.08898 0.0
H806 H 0.67922 0.20732 0.14901 0.0
H807 H 0.64972 0.17723 0.16067 0.0
H808 H 0.68944 0.2159 0.08035 0.0
H809 H 0.75381 0.1974 0.15312 0.0
H810 H 0.7318 0.176 0.14366 0.0
H811 H 0.72321 0.20085 0.16167 0.0
C812 C 0.67204 0.15 0.11136 0.0
C813 C 0.65803 0.15348 0.13165 0.0
C814 C 0.6887 0.1671 0.10466 0.0
C815 C 0.69157 0.18774 0.1183 0.0
C816 C 0.67737 0.19132 0.13847 0.0
H817 H 0.78498 0.30821 0.11714 0.0
H818 H 0.75491 0.27821 0.12543 0.0
C819 C 0.66061 0.17427 0.14508 0.0
C820 C 0.70932 0.20567 0.11137 0.0
H821 H 0.76168 0.23064 0.12872 0.0
C822 C 0.70532 0.21913 0.09079 0.0
C823 C 0.72989 0.20968 0.12514 0.0
C824 C 0.73516 0.19515 0.14707 0.0
C825 C 0.72118 0.23709 0.08391 0.0
C826 C 0.74177 0.24119 0.09775 0.0
C827 C 0.74586 0.22746 0.11818 0.0
C828 C 0.75906 0.26004 0.0918 0.0
C829 C 0.71539 0.25198 0.06236 0.0
C830 C 0.77144 0.2597 0.07016 0.0
C831 C 0.78832 0.27722 0.06514 0.0
C832 C 0.79303 0.29529 0.0817 0.0
C833 C 0.78093 0.29527 0.10352 0.0
C834 C 0.764 0.27789 0.10846 0.0
H835 H 0.6963 0.25069 0.05749 0.0
H836 H 0.71988 0.27094 0.06545 0.0
H837 H 0.72598 0.24559 0.04702 0.0
H838 H 0.76836 0.24569 0.05734 0.0
H839 H 0.79775 0.2766 0.04838 0.0
H840 H 0.10404 0.91852 0.50269 0.0
H841 H 0.12043 0.95675 0.51436 0.0
H842 H 0.18482 0.94149 0.47573 0.0
H843 H 0.16812 0.9033 0.46319 0.0
H844 H 0.1594 0.97493 0.5364 0.0
H845 H 0.1596 -0.00145 0.4401 0.0
H846 H 0.14649 0.97135 0.45077 0.0
H847 H 0.17824 0.97436 0.44931 0.0
C848 C 0.1219 0.92298 0.49709 0.0
C849 C 0.13454 0.90816 0.48153 0.0
C850 C 0.1313 0.94487 0.50382 0.0
C851 C 0.15356 0.95225 0.49533 0.0
C852 C 0.16732 0.93641 0.4819 0.0
H853 H 0.16354 0.10101 0.5414 0.0
H854 H 0.18184 0.06325 0.53 0.0
C855 C 0.1578 0.91454 0.4749 0.0
C856 C 0.16047 0.97746 0.4983 0.0
H857 H 0.16214 0.02957 0.46728 0.0
C858 C 0.16065 0.98693 0.52135 0.0
C859 C 0.16211 0.99297 0.47853 0.0
C860 C 0.16149 0.98394 0.45325 0.0
C861 C 0.15999 0.01153 0.52517 0.0
C862 C 0.15993 0.02704 0.50532 0.0
C863 C 0.16219 0.01759 0.48238 0.0
C864 C 0.15254 0.05217 0.50769 0.0
C865 C 0.15705 0.02052 0.5503 0.0
C866 C 0.13099 0.05927 0.49733 0.0
C867 C 0.12072 0.08094 0.50342 0.0
C868 C 0.13171 0.09577 0.5202 0.0
C869 C 0.15445 0.08974 0.52871 0.0
C870 C 0.16487 0.06811 0.52236 0.0
H871 H 0.15415 0.00588 0.56322 0.0
H872 H 0.1733 0.03029 0.55572 0.0
H873 H 0.14177 0.03293 0.55144 0.0
H874 H 0.12124 0.04731 0.4858 0.0
H875 H 0.10332 0.08513 0.49635 0.0
H876 H 0.92243 0.77635 0.57372 0.0
H877 H 0.94861 0.75016 0.55077 0.0
H878 H 0.94985 0.80198 0.49407 0.0
H879 H 0.92211 0.82663 0.51578 0.0
H880 H 0.95619 0.76147 0.47575 0.0
H881 H 0.01603 0.76371 0.55489 0.0
H882 H 0.98872 0.74752 0.55716 0.0
H883 H 0.98833 0.77949 0.55515 0.0
C884 C 0.92777 0.7816 0.55598 0.0
C885 C 0.92062 0.8036 0.54658 0.0
C886 C 0.94298 0.76681 0.54301 0.0
C887 C 0.95221 0.77449 0.52111 0.0
C888 C 0.94324 0.79553 0.51097 0.0
H889 H 0.06932 0.82476 0.47865 0.0
H890 H 0.04065 0.80082 0.50001 0.0
C891 C 0.92736 0.80976 0.52343 0.0
C892 C 0.97333 0.76325 0.50983 0.0
H893 H 0.0333 0.76018 0.51804 0.0
C894 C 0.97309 0.76077 0.48499 0.0
C895 C 0.9953 0.76118 0.52203 0.0
C896 C 0.99728 0.76314 0.54874 0.0
C897 C 0.9942 0.76145 0.47177 0.0
C898 C 0.01622 0.76278 0.48399 0.0
C899 C 0.01638 0.76004 0.50879 0.0
C900 C 0.03766 0.77356 0.47282 0.0
C901 C 0.99231 0.76373 0.44508 0.0
C902 C 0.04679 0.76574 0.45094 0.0
C903 C 0.06261 0.78012 0.43819 0.0
C904 C 0.07039 0.80185 0.44776 0.0
C905 C 0.0636 0.8081 0.47086 0.0
C906 C 0.04718 0.79428 0.48312 0.0
H907 H 0.97359 0.76486 0.43892 0.0
H908 H 0.00175 0.77989 0.43884 0.0
H909 H 0.00045 0.74798 0.43652 0.0
H910 H 0.04068 0.74931 0.44306 0.0
H911 H 0.06796 0.77477 0.42049 0.0
H912 H 0.82806 0.09549 0.44541 0.0
H913 H 0.80802 0.05928 0.45863 0.0
H914 H 0.86566 0.04533 0.50724 0.0
H915 H 0.88537 0.0816 0.49466 0.0
H916 H 0.82598 0.01765 0.45005 0.0
H917 H 0.81163 0.02211 0.5463 0.0
H918 H 0.817 0.04849 0.5288 0.0
H919 H 0.84148 0.03141 0.54056 0.0
C920 C 0.83607 0.08511 0.4595 0.0
C921 C 0.85849 0.09122 0.46877 0.0
C922 C 0.82456 0.06442 0.46704 0.0
C923 C 0.83521 0.04961 0.48403 0.0
C924 C 0.85672 0.0567 0.49455 0.0
H925 H 0.88116 0.91599 0.48744 0.0
H926 H 0.86343 0.95304 0.47433 0.0
C927 C 0.86815 0.07741 0.48715 0.0
C928 C 0.82661 0.025 0.48772 0.0
H929 H 0.82439 0.98271 0.53089 0.0
C930 C 0.8248 0.01011 0.46775 0.0
C931 C 0.82426 0.01507 0.51067 0.0
C932 C 0.82342 0.03026 0.53272 0.0
C933 C 0.82377 0.98535 0.47025 0.0
C934 C 0.82521 0.97533 0.49323 0.0
C935 C 0.8239 0.9903 0.51317 0.0
C936 C 0.83246 0.95031 0.49706 0.0
C937 C 0.82246 0.97021 0.44818 0.0
C938 C 0.82081 0.93609 0.51392 0.0
C939 C 0.83119 0.91494 0.52176 0.0
C940 C 0.85345 0.90778 0.51293 0.0
C941 C 0.86404 0.921 0.49462 0.0
C942 C 0.85375 0.94216 0.48692 0.0
H943 H 0.81131 0.97895 0.43442 0.0
H944 H 0.84055 0.96815 0.44063 0.0
H945 H 0.81503 0.95233 0.45199 0.0
H946 H 0.80442 0.94205 0.52203 0.0
H947 H 0.82248 0.90504 0.53578 0.0
H948 H 0.92998 0.22307 0.41072 0.0
H949 H 0.95312 0.25016 0.43589 0.0
H950 H 0.95007 0.1988 0.49295 0.0
H951 H 0.9253 0.17322 0.46885 0.0
H952 H 0.95257 0.23971 0.51143 0.0
H953 H 0.02108 0.23989 0.43971 0.0
H954 H 0.99353 0.25487 0.43439 0.0
H955 H 0.99428 0.22291 0.43628 0.0
C956 C 0.93377 0.21806 0.42892 0.0
C957 C 0.92621 0.19596 0.43781 0.0
C958 C 0.94724 0.23338 0.44319 0.0
C959 C 0.95433 0.22621 0.46605 0.0
C960 C 0.94506 0.20492 0.47539 0.0
H961 H 0.06577 0.17806 0.51996 0.0
H962 H 0.03951 0.20233 0.49617 0.0
C963 C 0.93089 0.19014 0.46154 0.0
C964 C 0.97356 0.23841 0.47958 0.0
H965 H 0.03395 0.2432 0.47838 0.0
C966 C 0.9704 0.24089 0.50421 0.0
C967 C 0.9967 0.24125 0.47 0.0
C968 C 0.00176 0.23958 0.44369 0.0
C969 C 0.98986 0.24062 0.5198 0.0
C970 C 0.01315 0.23976 0.51021 0.0
C971 C 0.01609 0.24286 0.48561 0.0
C972 C 0.03322 0.22882 0.52355 0.0
C973 C 0.98495 0.23818 0.54608 0.0
C974 C 0.03972 0.23605 0.54657 0.0
C975 C 0.05411 0.22141 0.56066 0.0
C976 C 0.06313 0.20004 0.55144 0.0
C977 C 0.05903 0.19441 0.52755 0.0
C978 C 0.044 0.20845 0.51387 0.0
H979 H 0.96565 0.237 0.55006 0.0
H980 H 0.9936 0.22199 0.55326 0.0
H981 H 0.99206 0.25389 0.55561 0.0
H982 H 0.03267 0.25223 0.55414 0.0
H983 H 0.05741 0.22631 0.57899 0.0
H984 H 0.49913 0.09492 0.90962 0.0
H985 H 0.50987 0.10903 0.94922 0.0
H986 H 0.46562 0.17075 0.93959 0.0
H987 H 0.45512 0.15708 0.89971 0.0
H988 H 0.50822 0.17926 0.96682 0.0
H989 H 0.45579 0.10242 -0.00091 0.0
H990 H 0.47889 0.09396 0.97882 0.0
H991 H 0.45488 0.11241 0.96862 0.0
C992 C 0.49218 0.11182 0.91561 0.0
C993 C 0.47582 0.12457 0.90173 0.0
C994 C 0.49824 0.1198 0.93829 0.0
C995 C 0.48795 0.14054 0.94749 0.0
C996 C 0.4735 0.15455 0.93285 0.0
H997 H 0.4905 0.13823 0.1017 0.0
H998 H 0.47436 0.14918 0.06283 0.0
C999 C 0.46752 0.14666 0.91007 0.0
C1000 C 0.49031 0.14602 0.97306 0.0
H1001 H 0.48096 0.12138 0.0275 0.0
C1002 C 0.50203 0.16682 0.98019 0.0
C1003 C 0.48133 0.13025 0.99044 0.0
C1004 C 0.46678 0.10864 0.98391 0.0
C1005 C 0.50661 0.17134 0.00433 0.0
C1006 C 0.49972 0.15431 0.02156 0.0
C1007 C 0.48645 0.13442 0.0144 0.0
C1008 C 0.50871 0.15466 0.04636 0.0
C1009 C 0.51906 0.19411 0.01101 0.0
C1010 C 0.53329 0.15525 0.05039 0.0
C1011 C 0.54249 0.14933 0.0726 0.0
C1012 C 0.52734 0.14212 0.09113 0.0
C1013 C 0.50265 0.14348 0.08774 0.0
C1014 C 0.49341 0.14974 0.06551 0.0
H1015 H 0.51388 0.20874 -0.00119 0.0
H1016 H 0.51498 0.19952 0.02954 0.0
H1017 H 0.53854 0.19163 0.00927 0.0
H1018 H 0.54556 0.15839 0.03591 0.0
H1019 H 0.56162 0.14869 0.07462 0.0
H1020 H 0.21381 0.58041 0.0637 0.0
H1021 H 0.23324 0.55858 0.03171 0.0
H1022 H 0.19824 0.49429 0.05419 0.0
H1023 H 0.17852 0.51593 0.08615 0.0
H1024 H 0.25102 0.49471 0.02582 0.0
H1025 H 0.17121 0.53911 0.98702 0.0
H1026 H 0.19143 0.55555 0.00559 0.0
H1027 H 0.17276 0.53318 0.01847 0.0
C1028 C 0.21102 0.5614 0.06251 0.0
C1029 C 0.194 0.55002 0.07693 0.0
C1030 C 0.22233 0.54894 0.04431 0.0
C1031 C 0.21686 0.52499 0.04048 0.0
C1032 C 0.20267 0.51282 0.05698 0.0
H1033 H 0.19731 0.41235 0.95339 0.0
H1034 H 0.21721 0.44011 0.9793 0.0
C1035 C 0.19132 0.52526 0.07521 0.0
C1036 C 0.2198 0.51471 0.01658 0.0
H1037 H 0.18852 0.50874 0.96526 0.0
C1038 C 0.23774 0.49805 0.01226 0.0
C1039 C 0.20277 0.51962 -0.0012 0.0
C1040 C 0.18339 0.53781 0.00251 0.0
C1041 C 0.23811 0.48496 0.99098 0.0
C1042 C 0.2195 0.48804 0.97425 0.0
C1043 C 0.2028 0.50619 0.97793 0.0
C1044 C 0.21398 0.47026 0.95552 0.0
C1045 C 0.25812 0.46764 0.98698 0.0
C1046 C 0.20569 0.47758 0.93307 0.0
C1047 C 0.19323 0.46177 0.91846 0.0
C1048 C 0.1893 0.43826 0.9259 0.0
C1049 C 0.19987 0.43037 0.94712 0.0
C1050 C 0.21173 0.44626 0.96192 0.0
H1051 H 0.27511 0.47512 0.99371 0.0
H1052 H 0.25458 0.45112 0.99716 0.0
H1053 H 0.26027 0.46314 0.96789 0.0
H1054 H 0.20724 0.49599 0.92765 0.0
H1055 H 0.18557 0.46829 0.90205 0.0
H1056 H 0.49383 0.89149 0.07726 0.0
H1057 H 0.50396 0.87677 0.03772 0.0
H1058 H 0.44901 0.82362 0.04301 0.0
H1059 H 0.43909 0.8378 0.08282 0.0
H1060 H 0.49 0.80814 0.01763 0.0
H1061 H 0.45543 0.89447 0.9855 0.0
H1062 H 0.47883 0.89786 0.00691 0.0
H1063 H 0.45121 0.88429 0.01562 0.0
C1064 C 0.48429 0.87628 0.07031 0.0
C1065 C 0.46529 0.86619 0.08295 0.0
C1066 C 0.49003 0.86796 0.04767 0.0
C1067 C 0.47673 0.8496 0.03727 0.0
C1068 C 0.45928 0.838 0.05068 0.0
H1069 H 0.48711 0.85626 0.88402 0.0
H1070 H 0.46719 0.84652 0.92138 0.0
C1071 C 0.45363 0.84618 0.07342 0.0
C1072 C 0.4794 0.84442 0.01167 0.0
H1073 H 0.47773 0.8716 0.95769 0.0
C1074 C 0.48707 0.82186 0.00441 0.0
C1075 C 0.47459 0.86203 0.99442 0.0
C1076 C 0.4643 0.88593 0.00095 0.0
C1077 C 0.49176 0.81704 0.98035 0.0
C1078 C 0.48918 0.83545 0.96338 0.0
C1079 C 0.47988 0.85744 0.97059 0.0
C1080 C 0.499 0.83389 0.93897 0.0
C1081 C 0.49971 0.79241 0.97349 0.0
C1082 C 0.52317 0.82868 0.93591 0.0
C1083 C 0.53448 0.83388 0.91451 0.0
C1084 C 0.52197 0.84498 0.89592 0.0
C1085 C 0.4973 0.84798 0.8981 0.0
C1086 C 0.48589 0.84242 0.91947 0.0
H1087 H 0.49114 0.77884 0.985 0.0
H1088 H 0.4955 0.78833 0.95465 0.0
H1089 H 0.51918 0.79092 0.97615 0.0
H1090 H 0.53387 0.82259 0.95069 0.0
H1091 H 0.55347 0.83107 0.91337 0.0
H1092 H 0.81051 0.57645 0.9571 0.0
H1093 H 0.79022 0.54659 0.98049 0.0
H1094 H 0.78509 0.50128 0.91881 0.0
H1095 H 0.80734 0.53068 0.89551 0.0
H1096 H 0.75162 0.52173 0.98386 0.0
H1097 H 0.82542 0.46046 0.95875 0.0
H1098 H 0.82525 0.49103 0.94954 0.0
H1099 H 0.80628 0.46967 0.93505 0.0
C1100 C 0.8048 0.5603 0.94831 0.0
C1101 C 0.81116 0.5556 0.92463 0.0
C1102 C 0.79299 0.54323 0.96174 0.0
C1103 C 0.78683 0.52126 0.95168 0.0
C1104 C 0.79056 0.51768 0.92723 0.0
H1105 H 0.78924 0.40291 0.04943 0.0
H1106 H 0.76905 0.42446 0.01774 0.0
C1107 C 0.80312 0.53454 0.91388 0.0
C1108 C 0.78 0.50155 0.96787 0.0
H1109 H 0.80261 0.4504 0.9912 0.0
C1110 C 0.76241 0.50582 0.98514 0.0
C1111 C 0.79397 0.48064 0.96955 0.0
C1112 C 0.81388 0.47515 0.95239 0.0
C1113 C 0.76004 0.49107 0.00514 0.0
C1114 C 0.77528 0.47137 0.00761 0.0
C1115 C 0.79095 0.46561 0.98915 0.0
C1116 C 0.77907 0.45923 0.03059 0.0
C1117 C 0.74231 0.49742 0.02414 0.0
C1118 C 0.7903 0.47175 0.04903 0.0
C1119 C 0.80221 0.4595 0.06704 0.0
C1120 C 0.80308 0.43454 0.06677 0.0
C1121 C 0.78927 0.42215 0.04996 0.0
C1122 C 0.77753 0.43442 0.03188 0.0
H1123 H 0.7273 0.50785 0.0167 0.0
H1124 H 0.73521 0.48123 0.03293 0.0
H1125 H 0.75121 0.50847 0.03785 0.0
H1126 H 0.79199 0.49091 0.04819 0.0
H1127 H 0.81243 0.46959 0.07985 0.0
H1128 H 0.89134 0.46367 0.18851 0.0
H1129 H 0.92985 0.47913 0.20213 0.0
H1130 H 0.94254 0.50846 0.13243 0.0
H1131 H 0.90452 0.49281 0.11878 0.0
H1132 H 0.97093 0.4619 0.17918 0.0
H1133 H 0.96942 0.55993 0.1766 0.0
H1134 H 0.94272 0.54227 0.17957 0.0
H1135 H 0.95563 0.54736 0.15073 0.0
C1136 C 0.90193 0.47433 0.17647 0.0
C1137 C 0.89506 0.47715 0.15263 0.0
C1138 C 0.92395 0.48301 0.18422 0.0
C1139 C 0.93895 0.49509 0.16834 0.0
C1140 C 0.93107 0.49961 0.14512 0.0
H1141 H 0.07251 0.49324 0.11482 0.0
H1142 H 0.03451 0.48309 0.13291 0.0
C1143 C 0.90937 0.49062 0.1373 0.0
C1144 C 0.96426 0.49927 0.17406 0.0
H1145 H 0.00734 0.54123 0.16703 0.0
C1146 C 0.97891 0.47935 0.17732 0.0
C1147 C 0.97465 0.52201 0.17191 0.0
C1148 C 0.95973 0.54413 0.16976 0.0
C1149 C 0.00372 0.48133 0.17603 0.0
C1150 C 0.01399 0.50372 0.1712 0.0
C1151 C -0.00056 0.52397 0.17042 0.0
C1152 C 0.03898 0.50618 0.16336 0.0
C1153 C 0.01864 0.45925 0.17862 0.0
C1154 C 0.05437 0.52215 0.17472 0.0
C1155 C 0.07619 0.52798 0.16439 0.0
C1156 C 0.08276 0.51828 0.14228 0.0
C1157 C 0.068 0.50108 0.1318 0.0
C1158 C 0.04628 0.49515 0.14222 0.0
H1159 H 0.00971 0.44594 0.19016 0.0
H1160 H 0.02119 0.45106 0.16086 0.0
H1161 H 0.03638 0.46342 0.18619 0.0
H1162 H 0.04901 0.53091 0.191 0.0
H1163 H 0.08722 0.54115 0.17306 0.0
H1164 H 0.91226 0.55817 0.82209 0.0
H1165 H 0.9486 0.54502 0.80243 0.0
H1166 H 0.94878 0.48153 0.84535 0.0
H1167 H 0.91258 0.49454 0.86519 0.0
H1168 H 0.98869 0.53986 0.83048 0.0
H1169 H 0.97201 0.45707 0.78078 0.0
H1170 H 0.94867 0.47795 0.78791 0.0
H1171 H 0.95823 0.45635 0.80951 0.0
C1172 C 0.91962 0.54107 0.8269 0.0
C1173 C 0.90975 0.52758 0.84554 0.0
C1174 C 0.94036 0.53357 0.81554 0.0
C1175 C 0.95131 0.51228 0.82233 0.0
C1176 C 0.94039 0.49784 0.83952 0.0
H1177 H 0.06556 0.43962 0.86018 0.0
H1178 H 0.02933 0.45636 0.84439 0.0
C1179 C 0.91976 0.50539 0.85101 0.0
C1180 C 0.97606 0.50717 0.81515 0.0
H1181 H 0.01146 0.46105 0.7986 0.0
C1182 C 0.99381 0.52298 0.82275 0.0
C1183 C 0.9826 0.48529 0.80484 0.0
C1184 C 0.96433 0.46831 0.79506 0.0
C1185 C 0.01779 0.51625 0.82302 0.0
C1186 C 0.02408 0.49329 0.81501 0.0
C1187 C 0.00658 0.47859 0.8049 0.0
C1188 C 0.0469 0.48229 0.82206 0.0
C1189 C 0.03579 0.5328 0.83408 0.0
C1190 C 0.06901 0.49115 0.81456 0.0
C1191 C 0.09011 0.48169 0.8239 0.0
C1192 C 0.08925 0.4632 0.84072 0.0
C1193 C 0.06702 0.45397 0.84743 0.0
C1194 C 0.04617 0.4634 0.83824 0.0
H1195 H 0.02749 0.54915 0.84135 0.0
H1196 H 0.04541 0.52365 0.84868 0.0
H1197 H 0.04902 0.53816 0.82049 0.0
H1198 H 0.06995 0.50556 0.80184 0.0
H1199 H 0.10698 0.48901 0.81821 0.0
H1200 H 0.46913 0.92484 0.17332 0.0
H1201 H 0.49255 0.95137 0.19766 0.0
H1202 H 0.43192 0.96397 0.24299 0.0
H1203 H 0.40781 0.93842 0.21733 0.0
H1204 H 0.44632 0.00317 0.23192 0.0
H1205 H 0.52808 0.95855 0.25606 0.0
H1206 H 0.52503 0.95176 0.22522 0.0
H1207 H 0.50273 0.94158 0.24609 0.0
C1208 C 0.46096 0.9326 0.18892 0.0
C1209 C 0.4366 0.92981 0.19325 0.0
C1210 C 0.47451 0.94765 0.20315 0.0
C1211 C 0.46423 0.95963 0.22254 0.0
C1212 C 0.44034 0.95505 0.22817 0.0
H1213 H 0.57474 0.06203 0.22145 0.0
H1214 H 0.5476 0.0391 0.24653 0.0
C1215 C 0.42657 0.94043 0.21351 0.0
C1216 C 0.47707 0.98015 0.23321 0.0
H1217 H 0.53404 -0.0004 0.23707 0.0
C1218 C 0.46544 0.00225 0.23399 0.0
C1219 C 0.50179 0.97941 0.23759 0.0
C1220 C 0.51492 0.95641 0.2415 0.0
C1221 C 0.4784 0.02352 0.23472 0.0
C1222 C 0.50346 0.02259 0.23324 0.0
C1223 C 0.51482 0.00063 0.23689 0.0
C1224 C 0.51754 0.04234 0.22265 0.0
C1225 C 0.46499 0.04668 0.23556 0.0
C1226 C 0.50947 0.05307 0.20153 0.0
C1227 C 0.52471 0.06678 0.18765 0.0
C1228 C 0.54862 0.06932 0.19411 0.0
C1229 C 0.55637 0.06015 0.21601 0.0
C1230 C 0.54086 0.04701 0.23032 0.0
H1231 H 0.45039 0.04549 0.24879 0.0
H1232 H 0.47666 0.06186 0.24033 0.0
H1233 H 0.45661 0.0501 0.21803 0.0
H1234 H 0.49199 0.04923 0.19452 0.0
H1235 H 0.51832 0.07346 0.17075 0.0
H1236 H 0.46977 0.07329 0.80335 0.0
H1237 H 0.49122 0.04223 0.78228 0.0
H1238 H 0.42491 0.00967 0.7619 0.0
H1239 H 0.40321 0.0407 0.78291 0.0
H1240 H 0.452 0.98334 0.79298 0.0
H1241 H 0.5077 0.0122 0.71766 0.0
H1242 H 0.5091 0.03268 0.74205 0.0
H1243 H 0.48132 0.02809 0.72685 0.0
C1244 C 0.45968 0.06008 0.79362 0.0
C1245 C 0.4348 0.05909 0.7954 0.0
C1246 C 0.47201 0.04244 0.78131 0.0
C1247 C 0.45965 0.02363 0.77051 0.0
C1248 C 0.43476 0.0241 0.77001 0.0
H1249 H 0.53488 0.89094 0.7967 0.0
H1250 H 0.50544 0.91335 0.77368 0.0
C1251 C 0.42241 0.04178 0.78224 0.0
C1252 C 0.47238 0.00112 0.766 0.0
H1253 H 0.52351 0.97975 0.74179 0.0
C1254 C 0.46723 0.9821 0.78123 0.0
C1255 C 0.49211 -0.00033 0.75064 0.0
C1256 C 0.49775 0.0192 0.7332 0.0
C1257 C 0.48292 0.963 0.7838 0.0
C1258 C 0.50389 0.96242 0.76982 0.0
C1259 C 0.50756 0.9802 0.75259 0.0
C1260 C 0.52416 0.94689 0.77641 0.0
C1261 C 0.47802 0.9452 0.80334 0.0
C1262 C 0.5456 0.95766 0.78323 0.0
C1263 C 0.56277 0.94474 0.79546 0.0
C1264 C 0.5586 0.9209 0.80157 0.0
C1265 C 0.53826 0.90945 0.79267 0.0
C1266 C 0.52138 0.92228 0.77967 0.0
H1267 H 0.46301 0.95068 0.81492 0.0
H1268 H 0.4733 0.92781 0.79537 0.0
H1269 H 0.49392 0.9428 0.81476 0.0
H1270 H 0.54834 0.97657 0.78079 0.0
H1271 H 0.57837 0.95404 0.80187 0.0
H1272 H 0.02392 0.09495 0.62041 0.0
H1273 H 0.00193 0.05753 0.61849 0.0
H1274 H 0.03844 0.0392 0.55368 0.0
H1275 H 0.06093 0.07629 0.55571 0.0
H1276 H 0.97183 0.03989 0.58505 0.0
H1277 H 0.05022 0.98096 0.59434 0.0
H1278 H 0.0517 0.01252 0.59972 0.0
H1279 H 0.05228 0.00125 0.56981 0.0
C1280 C 0.02728 0.08299 0.60572 0.0
C1281 C 0.04434 0.08856 0.58832 0.0
C1282 C 0.01469 0.0616 0.60465 0.0
C1283 C 0.01888 0.04537 0.58619 0.0
C1284 C 0.03536 0.05117 0.56841 0.0
H1285 H 0.92524 0.92667 0.55217 0.0
H1286 H 0.94826 0.96347 0.55132 0.0
C1287 C 0.04809 0.07248 0.56953 0.0
C1288 C 0.00584 0.02246 0.58554 0.0
H1289 H 0.01347 0.96226 0.58538 0.0
C1290 C 0.98092 0.02291 0.58515 0.0
C1291 C 0.01775 0.00032 0.58598 0.0
C1292 C 0.04445 -0.00137 0.58772 0.0
C1293 C 0.96756 0.00185 0.58503 0.0
C1294 C 0.97947 0.97971 0.58477 0.0
C1295 C 0.00439 0.97925 0.58534 0.0
C1296 C 0.96638 0.95683 0.5846 0.0
C1297 C 0.94081 0.00352 0.58578 0.0
C1298 C 0.96963 0.94041 0.60309 0.0
C1299 C 0.95671 0.91918 0.6035 0.0
C1300 C 0.94028 0.91398 0.58539 0.0
C1301 C 0.93756 0.9302 0.56654 0.0
C1302 C 0.9506 0.95134 0.56608 0.0
H1303 H 0.93479 0.02112 0.59237 0.0
H1304 H 0.93364 0.00112 0.56756 0.0
H1305 H 0.93312 0.9895 0.59735 0.0
H1306 H 0.98183 0.94423 0.61749 0.0
H1307 H 0.95928 0.90709 0.61826 0.0
H1308 H 0.06796 0.92508 0.439 0.0
H1309 H 0.0448 0.96173 0.43865 0.0
H1310 H 0.01259 0.94099 0.37225 0.0
H1311 H 0.03533 0.904 0.37265 0.0
H1312 H 0.04541 -0.00243 0.40622 0.0
H1313 H 0.95509 0.9586 0.41189 0.0
H1314 H 0.9816 0.94152 0.41763 0.0
H1315 H 0.97226 0.94719 0.38758 0.0
C1316 C 0.0558 0.92817 0.42439 0.0
C1317 C 0.05343 0.91151 0.40589 0.0
C1318 C 0.04261 0.94917 0.42422 0.0
C1319 C 0.02675 0.95397 0.40559 0.0
C1320 C 0.02434 0.93742 0.38708 0.0
H1321 H 0.96938 0.09259 0.36816 0.0
H1322 H 0.99251 0.05589 0.37034 0.0
C1323 C 0.03744 0.91632 0.38728 0.0
C1324 C 0.01336 0.97666 0.4052 0.0
H1325 H 0.9574 -0.00015 0.40297 0.0
C1326 C 0.02616 -0.00191 0.4056 0.0
C1327 C 0.98824 0.9773 0.40472 0.0
C1328 C 0.97346 0.95494 0.40567 0.0
C1329 C 0.01454 0.02015 0.40519 0.0
C1330 C 0.98945 0.02077 0.40382 0.0
C1331 C 0.97665 -0.00066 0.40377 0.0
C1332 C 0.97604 0.04343 0.4028 0.0
C1333 C 0.02922 0.04254 0.40669 0.0
C1334 C 0.95881 0.04844 0.42008 0.0
C1335 C 0.94539 0.06926 0.41876 0.0
C1336 C 0.94891 0.08553 0.40009 0.0
C1337 C 0.96634 0.08056 0.38288 0.0
C1338 C 0.97967 0.05963 0.38416 0.0
H1339 H 0.0471 0.03904 0.41428 0.0
H1340 H 0.03168 0.04991 0.38857 0.0
H1341 H 0.02026 0.05619 0.41775 0.0
H1342 H 0.95567 0.03616 0.43458 0.0
H1343 H 0.93214 0.07248 0.43233 0.0
H1344 H 0.61384 0.01162 0.10296 0.0
H1345 H 0.61272 0.9874 0.06681 0.0
H1346 H 0.57289 0.04227 0.03109 0.0
H1347 H 0.57323 0.06613 0.06717 0.0
H1348 H 0.55515 -0.0005 0.02124 0.0
H1349 H 0.65291 -0.00167 0.00866 0.0
H1350 H 0.64348 0.9863 0.03665 0.0
H1351 H 0.63863 0.01723 0.03021 0.0
C1352 C 0.6048 0.01847 0.08742 0.0
C1353 C 0.59374 0.04086 0.08793 0.0
C1354 C 0.6043 0.00468 0.06672 0.0
C1355 C 0.59313 0.01323 0.04609 0.0
C1356 C 0.58169 0.03534 0.04676 0.0
H1357 H 0.61742 0.96662 0.90177 0.0
H1358 H 0.61516 0.98814 0.93942 0.0
C1359 C 0.58193 0.04898 0.06744 0.0
C1360 C 0.59334 -0.00061 0.02366 0.0
H1361 H 0.63014 0.97482 0.98224 0.0
C1362 C 0.57155 0.99409 0.0127 0.0
C1363 C 0.61476 0.99268 0.01235 0.0
C1364 C 0.63878 -0.00089 0.02242 0.0
C1365 C 0.57057 0.98233 0.99072 0.0
C1366 C 0.59197 0.97506 0.97974 0.0
C1367 C 0.61375 0.98029 0.99074 0.0
C1368 C 0.5923 0.9624 0.95662 0.0
C1369 C 0.54665 0.97851 0.9792 0.0
C1370 C 0.58019 0.94078 0.95374 0.0
C1371 C 0.58117 0.92862 0.93213 0.0
C1372 C 0.59469 0.9376 0.9131 0.0
C1373 C 0.60685 0.95922 0.91605 0.0
C1374 C 0.60561 0.97152 0.93758 0.0
H1375 H 0.53315 0.99112 0.98615 0.0
H1376 H 0.54771 0.98062 0.95961 0.0
H1377 H 0.54038 0.96024 0.98316 0.0
H1378 H 0.57032 0.93307 0.96835 0.0
H1379 H 0.57182 0.91186 0.93055 0.0
H1380 H 0.09258 0.35857 0.96279 0.0
H1381 H 0.05601 0.35738 0.98631 0.0
H1382 H 0.03202 0.42175 0.9524 0.0
H1383 H 0.06821 0.42299 0.92864 0.0
H1384 H 0.03785 0.39096 0.01797 0.0
H1385 H 0.9762 0.37611 0.9425 0.0
H1386 H 0.00792 0.37216 0.93994 0.0
H1387 H 0.99522 0.40144 0.93863 0.0
C1388 C 0.07953 0.37248 0.96033 0.0
C1389 C 0.08327 0.39079 0.94371 0.0
C1390 C 0.05866 0.37175 0.97377 0.0
C1391 C 0.04116 0.38923 0.97074 0.0
C1392 C 0.04507 0.40779 0.95459 0.0
H1393 H 0.92692 0.42979 0.06381 0.0
H1394 H 0.96305 0.42686 0.04006 0.0
C1395 C 0.06586 0.40853 0.94114 0.0
C1396 C 0.01898 0.38841 0.98478 0.0
H1397 H 0.95859 0.38684 0.97954 0.0
C1398 C 0.02052 0.38988 0.00961 0.0
C1399 C 0.99643 0.38667 0.9738 0.0
C1400 C 0.99377 0.38377 0.94727 0.0
C1401 C 2e-05 0.39039 0.02377 0.0
C1402 C 0.97746 0.38979 0.0127 0.0
C1403 C 0.97593 0.38757 0.98792 0.0
C1404 C 0.95522 0.39173 0.02654 0.0
C1405 C 0.00271 0.39146 0.05043 0.0
C1406 C 0.93846 0.37327 0.02613 0.0
C1407 C 0.91765 0.37494 0.03955 0.0
C1408 C 0.91321 0.39517 0.05353 0.0
C1409 C 0.92982 0.41387 0.05339 0.0
C1410 C 0.95058 0.41219 0.03995 0.0
H1411 H 0.02053 0.38526 0.05622 0.0
H1412 H 0.00056 0.41011 0.05642 0.0
H1413 H 0.98897 0.38048 0.0594 0.0
H1414 H 0.94168 0.35741 0.01571 0.0
H1415 H 0.90522 0.36024 0.03921 0.0
H1416 H 0.36343 0.03538 0.90243 0.0
H1417 H 0.36331 0.01445 0.94051 0.0
H1418 H 0.43207 0.04392 0.95717 0.0
H1419 H 0.43223 0.06525 0.91937 0.0
H1420 H 0.39437 0.98114 0.95793 0.0
H1421 H 0.39342 0.06093 0.01587 0.0
H1422 H 0.38746 0.0624 0.98437 0.0
H1423 H 0.41752 0.06038 0.995 0.0
C1424 C 0.37854 0.03744 0.91417 0.0
C1425 C 0.39778 0.0521 0.90786 0.0
C1426 C 0.37843 0.02547 0.93594 0.0
C1427 C 0.39748 0.02797 0.95183 0.0
C1428 C 0.41694 0.04218 0.94541 0.0
H1429 H 0.42822 0.93456 0.07048 0.0
H1430 H 0.4291 0.9574 0.03364 0.0
C1431 C 0.41705 0.05423 0.92369 0.0
C1432 C 0.39716 0.0153 0.97491 0.0
H1433 H 0.39918 0.0237 0.035 0.0
C1434 C 0.39536 0.99044 0.97479 0.0
C1435 C 0.39819 0.02752 0.99687 0.0
C1436 C 0.39904 0.05429 -0.00186 0.0
C1437 C 0.39486 0.9774 0.99603 0.0
C1438 C 0.39659 0.98956 0.01797 0.0
C1439 C 0.39806 0.01444 0.01813 0.0
C1440 C 0.3967 0.9767 0.04094 0.0
C1441 C 0.39211 0.95074 0.99479 0.0
C1442 C 0.37867 0.98065 0.05769 0.0
C1443 C 0.37818 0.96774 0.07894 0.0
C1444 C 0.39579 0.95071 0.08381 0.0
C1445 C 0.41424 0.94737 0.06725 0.0
C1446 C 0.41473 0.96032 0.04609 0.0
H1447 H 0.3848 0.94495 0.97738 0.0
H1448 H 0.40977 0.9423 0.99706 0.0
H1449 H 0.38025 0.94415 0.00912 0.0
H1450 H 0.36468 0.99335 0.05409 0.0
H1451 H 0.36377 0.9708 0.09131 0.0
H1452 H 0.91434 0.62683 0.95974 0.0
H1453 H 0.95045 0.62299 0.9834 0.0
H1454 H 0.96771 0.55793 0.94685 0.0
H1455 H 0.93181 0.56184 0.92265 0.0
H1456 H 0.96332 0.58748 0.01385 0.0
H1457 H 0.02893 0.59591 0.94059 0.0
H1458 H -0.00207 0.60317 0.93685 0.0
H1459 H 0.00742 0.57269 0.93652 0.0
C1460 C 0.92583 0.61173 0.95662 0.0
C1461 C 0.92022 0.59469 0.93921 0.0
C1462 C 0.94646 0.60956 0.97019 0.0
C1463 C 0.96191 0.59035 0.96666 0.0
C1464 C 0.95629 0.57316 0.9495 0.0
H1465 H 0.07272 0.55416 0.06946 0.0
H1466 H 0.03801 0.55276 0.04337 0.0
C1467 C 0.93569 0.57537 0.93578 0.0
C1468 C 0.98359 0.58823 0.98141 0.0
H1469 H 0.04415 0.58697 0.97879 0.0
C1470 C 0.98101 0.58731 0.0062 0.0
C1471 C 0.00661 0.58824 0.97135 0.0
C1472 C 0.0105 0.59027 0.94489 0.0
C1473 C 0.00084 0.5866 0.02127 0.0
C1474 C 0.02386 0.58627 0.01121 0.0
C1475 C 0.02646 0.58703 0.98641 0.0
C1476 C 0.0455 0.58634 0.02617 0.0
C1477 C 0.99696 0.58699 0.04781 0.0
C1478 C 0.06163 0.60527 0.02455 0.0
C1479 C 0.08161 0.60603 0.03924 0.0
C1480 C 0.08582 0.58784 0.05585 0.0
C1481 C 0.06989 0.56859 0.05703 0.0
C1482 C 0.04998 0.56779 0.04221 0.0
H1483 H 0.97881 0.59316 0.05248 0.0
H1484 H -0.00083 0.56875 0.05498 0.0
H1485 H 0.01008 0.59873 0.05672 0.0
H1486 H 0.05852 0.61972 0.0122 0.0
H1487 H 0.09353 0.62108 0.03781 0.0
loop_
_geom_bond_atom_site_label_1
_geom_bond_atom_site_label_2
_geom_bond_distance
_geom_bond_site_symmetry_2
_ccdc_geom_bond_type
Co0 O3 1.970 . S
Co0 N17 1.989 . S
Co0 O25 1.967 . S
Co0 O32 1.920 . S
Co1 O4 1.966 . S
Co1 N10 2.022 . S
Co1 N18 1.993 . S
Co1 O26 1.941 . S
C2 O3 1.258 . S
C2 O4 1.263 . S
O3 Co0 1.970 . S
O3 C2 1.258 . S
O4 Co1 1.966 . S
O4 C2 1.263 . S
C5 O6 1.235 . S
C5 O32 1.289 . S
O6 C5 1.235 . S
C7 C9 1.400 . S
C7 N10 1.351 . S
C7 C12 1.501 . S
C8 C9 1.387 . S
C8 N11 1.341 . S
C9 C7 1.400 . S
C9 C8 1.387 . S
N10 Co1 2.022 . S
N10 C7 1.351 . S
N10 N11 1.365 . S
N11 C8 1.341 . S
N11 N10 1.365 . S
N11 H31 0.862 . S
C12 C7 1.501 . S
C12 H13 0.961 . S
C12 H14 0.961 . S
C12 H15 0.960 . S
H13 C12 0.961 . S
H14 C12 0.961 . S
H15 C12 0.960 . S
C16 N17 1.342 . S
C16 C20 1.401 . S
C16 C21 1.499 . S
N17 Co0 1.989 . S
N17 C16 1.342 . S
N17 N18 1.388 . S
N18 Co1 1.993 . S
N18 N17 1.388 . S
N18 C19 1.346 . S
C19 N18 1.346 . S
C19 C20 1.396 . S
C19 C29 1.510 . S
C20 C16 1.401 . S
C20 C19 1.396 . S
C21 C16 1.499 . S
C21 H22 0.959 . S
C21 H23 0.960 . S
C21 H24 0.961 . S
H22 C21 0.959 . S
H23 C21 0.960 . S
H24 C21 0.961 . S
O25 Co0 1.967 . S
O25 C33 1.258 . S
O26 Co1 1.941 . S
O26 C33 1.266 . S
H27 C29 0.959 . S
H28 C29 0.961 . S
C29 C19 1.510 . S
C29 H27 0.959 . S
C29 H28 0.961 . S
C29 H30 0.960 . S
H30 C29 0.960 . S
H31 N11 0.862 . S
O32 Co0 1.920 . S
O32 C5 1.289 . S
C33 O25 1.258 . S
C33 O26 1.266 . S
Co34 O37 1.970 . S
Co34 N51 1.989 . S
Co34 O59 1.967 . S
Co34 O66 1.920 . S
Co35 O38 1.966 . S
Co35 N44 2.022 . S
Co35 N52 1.993 . S
Co35 O60 1.941 . S
C36 O37 1.258 . S
C36 O38 1.263 . S
O37 Co34 1.970 . S
O37 C36 1.258 . S
O38 Co35 1.966 . S
O38 C36 1.263 . S
C39 O40 1.235 . S
C39 O66 1.289 . S
O40 C39 1.235 . S
C41 C43 1.400 . S
C41 N44 1.351 . S
C41 C46 1.501 . S
C42 C43 1.387 . S
C42 N45 1.341 . S
C43 C41 1.400 . S
C43 C42 1.387 . S
N44 Co35 2.022 . S
N44 C41 1.351 . S
N44 N45 1.365 . S
N45 C42 1.341 . S
N45 N44 1.365 . S
N45 H65 0.862 . S
C46 C41 1.501 . S
C46 H47 0.961 . S
C46 H48 0.961 . S
C46 H49 0.960 . S
H47 C46 0.961 . S
H48 C46 0.961 . S
H49 C46 0.960 . S
C50 N51 1.342 . S
C50 C54 1.401 . S
C50 C55 1.499 . S
N51 Co34 1.989 . S
N51 C50 1.342 . S
N51 N52 1.388 . S
N52 Co35 1.993 . S
N52 N51 1.388 . S
N52 C53 1.346 . S
C53 N52 1.346 . S
C53 C54 1.396 . S
C53 C63 1.510 . S
C54 C50 1.401 . S
C54 C53 1.396 . S
C55 C50 1.499 . S
C55 H56 0.959 . S
C55 H57 0.960 . S
C55 H58 0.961 . S
H56 C55 0.959 . S
H57 C55 0.960 . S
H58 C55 0.961 . S
O59 Co34 1.967 . S
O59 C67 1.258 . S
O60 Co35 1.941 . S
O60 C67 1.266 . S
H61 C63 0.959 . S
H62 C63 0.961 . S
C63 C53 1.510 . S
C63 H61 0.959 . S
C63 H62 0.961 . S
C63 H64 0.960 . S
H64 C63 0.960 . S
H65 N45 0.862 . S
O66 Co34 1.920 . S
O66 C39 1.289 . S
C67 O59 1.258 . S
C67 O60 1.266 . S
Co68 O71 1.970 . S
Co68 N85 1.989 . S
Co68 O93 1.967 . S
Co68 O100 1.920 . S
Co69 O72 1.966 . S
Co69 N78 2.022 . S
Co69 N86 1.993 . S
Co69 O94 1.941 . S
C70 O71 1.258 . S
C70 O72 1.263 . S
O71 Co68 1.970 . S
O71 C70 1.258 . S
O72 Co69 1.966 . S
O72 C70 1.263 . S
C73 O74 1.235 . S
C73 O100 1.289 . S
O74 C73 1.235 . S
C75 C77 1.400 . S
C75 N78 1.351 . S
C75 C80 1.501 . S
C76 C77 1.387 . S
C76 N79 1.341 . S
C77 C75 1.400 . S
C77 C76 1.387 . S
N78 Co69 2.022 . S
N78 C75 1.351 . S
N78 N79 1.365 . S
N79 C76 1.341 . S
N79 N78 1.365 . S
N79 H99 0.862 . S
C80 C75 1.501 . S
C80 H81 0.961 . S
C80 H82 0.961 . S
C80 H83 0.960 . S
H81 C80 0.961 . S
H82 C80 0.961 . S
H83 C80 0.960 . S
C84 N85 1.342 . S
C84 C88 1.401 . S
C84 C89 1.499 . S
N85 Co68 1.989 . S
N85 C84 1.342 . S
N85 N86 1.388 . S
N86 Co69 1.993 . S
N86 N85 1.388 . S
N86 C87 1.346 . S
C87 N86 1.346 . S
C87 C88 1.396 . S
C87 C97 1.510 . S
C88 C84 1.401 . S
C88 C87 1.396 . S
C89 C84 1.499 . S
C89 H90 0.959 . S
C89 H91 0.960 . S
C89 H92 0.961 . S
H90 C89 0.959 . S
H91 C89 0.960 . S
H92 C89 0.961 . S
O93 Co68 1.967 . S
O93 C101 1.258 . S
O94 Co69 1.941 . S
O94 C101 1.266 . S
H95 C97 0.959 . S
H96 C97 0.961 . S
C97 C87 1.510 . S
C97 H95 0.959 . S
C97 H96 0.961 . S
C97 H98 0.960 . S
H98 C97 0.960 . S
H99 N79 0.862 . S
O100 Co68 1.920 . S
O100 C73 1.289 . S
C101 O93 1.258 . S
C101 O94 1.266 . S
Co102 O105 1.970 . S
Co102 N119 1.989 . S
Co102 O127 1.967 . S
Co102 O134 1.920 . S
Co103 O106 1.966 . S
Co103 N112 2.022 . S
Co103 N120 1.993 . S
Co103 O128 1.941 . S
C104 O105 1.258 . S
C104 O106 1.263 . S
O105 Co102 1.970 . S
O105 C104 1.258 . S
O106 Co103 1.966 . S
O106 C104 1.263 . S
C107 O108 1.235 . S
C107 O134 1.289 . S
O108 C107 1.235 . S
C109 C111 1.400 . S
C109 N112 1.351 . S
C109 C114 1.501 . S
C110 C111 1.387 . S
C110 N113 1.341 . S
C111 C109 1.400 . S
C111 C110 1.387 . S
N112 Co103 2.022 . S
N112 C109 1.351 . S
N112 N113 1.365 . S
N113 C110 1.341 . S
N113 N112 1.365 . S
N113 H133 0.862 . S
C114 C109 1.501 . S
C114 H115 0.961 . S
C114 H116 0.961 . S
C114 H117 0.960 . S
H115 C114 0.961 . S
H116 C114 0.961 . S
H117 C114 0.960 . S
C118 N119 1.342 . S
C118 C122 1.401 . S
C118 C123 1.499 . S
N119 Co102 1.989 . S
N119 C118 1.342 . S
N119 N120 1.388 . S
N120 Co103 1.993 . S
N120 N119 1.388 . S
N120 C121 1.346 . S
C121 N120 1.346 . S
C121 C122 1.396 . S
C121 C131 1.510 . S
C122 C118 1.401 . S
C122 C121 1.396 . S
C123 C118 1.499 . S
C123 H124 0.959 . S
C123 H125 0.960 . S
C123 H126 0.961 . S
H124 C123 0.959 . S
H125 C123 0.960 . S
H126 C123 0.961 . S
O127 Co102 1.967 . S
O127 C135 1.258 . S
O128 Co103 1.941 . S
O128 C135 1.266 . S
H129 C131 0.959 . S
H130 C131 0.961 . S
C131 C121 1.510 . S
C131 H129 0.959 . S
C131 H130 0.961 . S
C131 H132 0.960 . S
H132 C131 0.960 . S
H133 N113 0.862 . S
O134 Co102 1.920 . S
O134 C107 1.289 . S
C135 O127 1.258 . S
C135 O128 1.266 . S
Co136 O139 1.970 . S
Co136 N153 1.989 . S
Co136 O161 1.967 . S
Co136 O168 1.920 . S
Co137 O140 1.966 . S
Co137 N146 2.022 . S
Co137 N154 1.993 . S
Co137 O162 1.941 . S
C138 O139 1.258 . S
C138 O140 1.263 . S
O139 Co136 1.970 . S
O139 C138 1.258 . S
O140 Co137 1.966 . S
O140 C138 1.263 . S
C141 O142 1.235 . S
C141 O168 1.289 . S
O142 C141 1.235 . S
C143 C145 1.400 . S
C143 N146 1.351 . S
C143 C148 1.501 . S
C144 C145 1.387 . S
C144 N147 1.341 . S
C145 C143 1.400 . S
C145 C144 1.387 . S
N146 Co137 2.022 . S
N146 C143 1.351 . S
N146 N147 1.365 . S
N147 C144 1.341 . S
N147 N146 1.365 . S
N147 H167 0.862 . S
C148 C143 1.501 . S
C148 H149 0.961 . S
C148 H150 0.961 . S
C148 H151 0.960 . S
H149 C148 0.961 . S
H150 C148 0.961 . S
H151 C148 0.960 . S
C152 N153 1.342 . S
C152 C156 1.401 . S
C152 C157 1.499 . S
N153 Co136 1.989 . S
N153 C152 1.342 . S
N153 N154 1.388 . S
N154 Co137 1.993 . S
N154 N153 1.388 . S
N154 C155 1.346 . S
C155 N154 1.346 . S
C155 C156 1.396 . S
C155 C165 1.510 . S
C156 C152 1.401 . S
C156 C155 1.396 . S
C157 C152 1.499 . S
C157 H158 0.959 . S
C157 H159 0.960 . S
C157 H160 0.961 . S
H158 C157 0.959 . S
H159 C157 0.960 . S
H160 C157 0.961 . S
O161 Co136 1.967 . S
O161 C169 1.258 . S
O162 Co137 1.941 . S
O162 C169 1.266 . S
H163 C165 0.959 . S
H164 C165 0.961 . S
C165 C155 1.510 . S
C165 H163 0.959 . S
C165 H164 0.961 . S
C165 H166 0.960 . S
H166 C165 0.960 . S
H167 N147 0.862 . S
O168 Co136 1.920 . S
O168 C141 1.289 . S
C169 O161 1.258 . S
C169 O162 1.266 . S
Co170 O173 1.970 . S
Co170 N187 1.989 . S
Co170 O195 1.967 . S
Co170 O202 1.920 . S
Co171 O174 1.966 . S
Co171 N180 2.022 . S
Co171 N188 1.993 . S
Co171 O196 1.941 . S
C172 O173 1.258 . S
C172 O174 1.263 . S
O173 Co170 1.970 . S
O173 C172 1.258 . S
O174 Co171 1.966 . S
O174 C172 1.263 . S
C175 O176 1.235 . S
C175 O202 1.289 . S
O176 C175 1.235 . S
C177 C179 1.400 . S
C177 N180 1.351 . S
C177 C182 1.501 . S
C178 C179 1.387 . S
C178 N181 1.341 . S
C179 C177 1.400 . S
C179 C178 1.387 . S
N180 Co171 2.022 . S
N180 C177 1.351 . S
N180 N181 1.365 . S
N181 C178 1.341 . S
N181 N180 1.365 . S
N181 H201 0.862 . S
C182 C177 1.501 . S
C182 H183 0.961 . S
C182 H184 0.961 . S
C182 H185 0.960 . S
H183 C182 0.961 . S
H184 C182 0.961 . S
H185 C182 0.960 . S
C186 N187 1.342 . S
C186 C190 1.401 . S
C186 C191 1.499 . S
N187 Co170 1.989 . S
N187 C186 1.342 . S
N187 N188 1.388 . S
N188 Co171 1.993 . S
N188 N187 1.388 . S
N188 C189 1.346 . S
C189 N188 1.346 . S
C189 C190 1.396 . S
C189 C199 1.510 . S
C190 C186 1.401 . S
C190 C189 1.396 . S
C191 C186 1.499 . S
C191 H192 0.959 . S
C191 H193 0.960 . S
C191 H194 0.961 . S
H192 C191 0.959 . S
H193 C191 0.960 . S
H194 C191 0.961 . S
O195 Co170 1.967 . S
O195 C203 1.258 . S
O196 Co171 1.941 . S
O196 C203 1.266 . S
H197 C199 0.959 . S
H198 C199 0.961 . S
C199 C189 1.510 . S
C199 H197 0.959 . S
C199 H198 0.961 . S
C199 H200 0.960 . S
H200 C199 0.960 . S
H201 N181 0.862 . S
O202 Co170 1.920 . S
O202 C175 1.289 . S
C203 O195 1.258 . S
C203 O196 1.266 . S
Co204 O207 1.970 . S
Co204 N221 1.989 . S
Co204 O229 1.967 . S
Co204 O236 1.920 . S
Co205 O208 1.966 . S
Co205 N214 2.022 . S
Co205 N222 1.993 . S
Co205 O230 1.941 . S
C206 O207 1.258 . S
C206 O208 1.263 . S
O207 Co204 1.970 . S
O207 C206 1.258 . S
O208 Co205 1.966 . S
O208 C206 1.263 . S
C209 O210 1.235 . S
C209 O236 1.289 . S
O210 C209 1.235 . S
C211 C213 1.400 . S
C211 N214 1.351 . S
C211 C216 1.501 . S
C212 C213 1.387 . S
C212 N215 1.341 . S
C213 C211 1.400 . S
C213 C212 1.387 . S
N214 Co205 2.022 . S
N214 C211 1.351 . S
N214 N215 1.365 . S
N215 C212 1.341 . S
N215 N214 1.365 . S
N215 H235 0.862 . S
C216 C211 1.501 . S
C216 H217 0.961 . S
C216 H218 0.961 . S
C216 H219 0.960 . S
H217 C216 0.961 . S
H218 C216 0.961 . S
H219 C216 0.960 . S
C220 N221 1.342 . S
C220 C224 1.401 . S
C220 C225 1.499 . S
N221 Co204 1.989 . S
N221 C220 1.342 . S
N221 N222 1.388 . S
N222 Co205 1.993 . S
N222 N221 1.388 . S
N222 C223 1.346 . S
C223 N222 1.346 . S
C223 C224 1.396 . S
C223 C233 1.510 . S
C224 C220 1.401 . S
C224 C223 1.396 . S
C225 C220 1.499 . S
C225 H226 0.959 . S
C225 H227 0.960 . S
C225 H228 0.961 . S
H226 C225 0.959 . S
H227 C225 0.960 . S
H228 C225 0.961 . S
O229 Co204 1.967 . S
O229 C237 1.258 . S
O230 Co205 1.941 . S
O230 C237 1.266 . S
H231 C233 0.959 . S
H232 C233 0.961 . S
C233 C223 1.510 . S
C233 H231 0.959 . S
C233 H232 0.961 . S
C233 H234 0.960 . S
H234 C233 0.960 . S
H235 N215 0.862 . S
O236 Co204 1.920 . S
O236 C209 1.289 . S
C237 O229 1.258 . S
C237 O230 1.266 . S
Co238 O241 1.970 . S
Co238 N255 1.989 . S
Co238 O263 1.967 . S
Co238 O270 1.920 . S
Co239 O242 1.966 . S
Co239 N248 2.022 . S
Co239 N256 1.993 . S
Co239 O264 1.941 . S
C240 O241 1.258 . S
C240 O242 1.263 . S
O241 Co238 1.970 . S
O241 C240 1.258 . S
O242 Co239 1.966 . S
O242 C240 1.263 . S
C243 O244 1.235 . S
C243 O270 1.289 . S
O244 C243 1.235 . S
C245 C247 1.400 . S
C245 N248 1.351 . S
C245 C250 1.501 . S
C246 C247 1.387 . S
C246 N249 1.341 . S
C247 C245 1.400 . S
C247 C246 1.387 . S
N248 Co239 2.022 . S
N248 C245 1.351 . S
N248 N249 1.365 . S
N249 C246 1.341 . S
N249 N248 1.365 . S
N249 H269 0.862 . S
C250 C245 1.501 . S
C250 H251 0.961 . S
C250 H252 0.961 . S
C250 H253 0.960 . S
H251 C250 0.961 . S
H252 C250 0.961 . S
H253 C250 0.960 . S
C254 N255 1.342 . S
C254 C258 1.401 . S
C254 C259 1.499 . S
N255 Co238 1.989 . S
N255 C254 1.342 . S
N255 N256 1.388 . S
N256 Co239 1.993 . S
N256 N255 1.388 . S
N256 C257 1.346 . S
C257 N256 1.346 . S
C257 C258 1.396 . S
C257 C267 1.510 . S
C258 C254 1.401 . S
C258 C257 1.396 . S
C259 C254 1.499 . S
C259 H260 0.959 . S
C259 H261 0.960 . S
C259 H262 0.961 . S
H260 C259 0.959 . S
H261 C259 0.960 . S
H262 C259 0.961 . S
O263 Co238 1.967 . S
O263 C271 1.258 . S
O264 Co239 1.941 . S
O264 C271 1.266 . S
H265 C267 0.959 . S
H266 C267 0.961 . S
C267 C257 1.510 . S
C267 H265 0.959 . S
C267 H266 0.961 . S
C267 H268 0.960 . S
H268 C267 0.960 . S
H269 N249 0.862 . S
O270 Co238 1.920 . S
O270 C243 1.289 . S
C271 O263 1.258 . S
C271 O264 1.266 . S
Co272 O275 1.970 . S
Co272 N289 1.989 . S
Co272 O297 1.967 . S
Co272 O304 1.920 . S
Co273 O276 1.966 . S
Co273 N282 2.022 . S
Co273 N290 1.993 . S
Co273 O298 1.941 . S
C274 O275 1.258 . S
C274 O276 1.263 . S
O275 Co272 1.970 . S
O275 C274 1.258 . S
O276 Co273 1.966 . S
O276 C274 1.263 . S
C277 O278 1.235 . S
C277 O304 1.289 . S
O278 C277 1.235 . S
C279 C281 1.400 . S
C279 N282 1.351 . S
C279 C284 1.501 . S
C280 C281 1.387 . S
C280 N283 1.341 . S
C281 C279 1.400 . S
C281 C280 1.387 . S
N282 Co273 2.022 . S
N282 C279 1.351 . S
N282 N283 1.365 . S
N283 C280 1.341 . S
N283 N282 1.365 . S
N283 H303 0.862 . S
C284 C279 1.501 . S
C284 H285 0.961 . S
C284 H286 0.961 . S
C284 H287 0.960 . S
H285 C284 0.961 . S
H286 C284 0.961 . S
H287 C284 0.960 . S
C288 N289 1.342 . S
C288 C292 1.401 . S
C288 C293 1.499 . S
N289 Co272 1.989 . S
N289 C288 1.342 . S
N289 N290 1.388 . S
N290 Co273 1.993 . S
N290 N289 1.388 . S
N290 C291 1.346 . S
C291 N290 1.346 . S
C291 C292 1.396 . S
C291 C301 1.510 . S
C292 C288 1.401 . S
C292 C291 1.396 . S
C293 C288 1.499 . S
C293 H294 0.959 . S
C293 H295 0.960 . S
C293 H296 0.961 . S
H294 C293 0.959 . S
H295 C293 0.960 . S
H296 C293 0.961 . S
O297 Co272 1.967 . S
O297 C305 1.258 . S
O298 Co273 1.941 . S
O298 C305 1.266 . S
H299 C301 0.959 . S
H300 C301 0.961 . S
C301 C291 1.510 . S
C301 H299 0.959 . S
C301 H300 0.961 . S
C301 H302 0.960 . S
H302 C301 0.960 . S
H303 N283 0.862 . S
O304 Co272 1.920 . S
O304 C277 1.289 . S
C305 O297 1.258 . S
C305 O298 1.266 . S
Co306 O309 1.970 . S
Co306 N323 1.989 . S
Co306 O331 1.967 . S
Co306 O338 1.920 . S
Co307 O310 1.966 . S
Co307 N316 2.022 . S
Co307 N324 1.993 . S
Co307 O332 1.941 . S
C308 O309 1.258 . S
C308 O310 1.263 . S
O309 Co306 1.970 . S
O309 C308 1.258 . S
O310 Co307 1.966 . S
O310 C308 1.263 . S
C311 O312 1.235 . S
C311 O338 1.289 . S
O312 C311 1.235 . S
C313 C315 1.400 . S
C313 N316 1.351 . S
C313 C318 1.501 . S
C314 C315 1.387 . S
C314 N317 1.341 . S
C315 C313 1.400 . S
C315 C314 1.387 . S
N316 Co307 2.022 . S
N316 C313 1.351 . S
N316 N317 1.365 . S
N317 C314 1.341 . S
N317 N316 1.365 . S
N317 H337 0.862 . S
C318 C313 1.501 . S
C318 H319 0.961 . S
C318 H320 0.961 . S
C318 H321 0.960 . S
H319 C318 0.961 . S
H320 C318 0.961 . S
H321 C318 0.960 . S
C322 N323 1.342 . S
C322 C326 1.401 . S
C322 C327 1.499 . S
N323 Co306 1.989 . S
N323 C322 1.342 . S
N323 N324 1.388 . S
N324 Co307 1.993 . S
N324 N323 1.388 . S
N324 C325 1.346 . S
C325 N324 1.346 . S
C325 C326 1.396 . S
C325 C335 1.510 . S
C326 C322 1.401 . S
C326 C325 1.396 . S
C327 C322 1.499 . S
C327 H328 0.959 . S
C327 H329 0.960 . S
C327 H330 0.961 . S
H328 C327 0.959 . S
H329 C327 0.960 . S
H330 C327 0.961 . S
O331 Co306 1.967 . S
O331 C339 1.258 . S
O332 Co307 1.941 . S
O332 C339 1.266 . S
H333 C335 0.959 . S
H334 C335 0.961 . S
C335 C325 1.510 . S
C335 H333 0.959 . S
C335 H334 0.961 . S
C335 H336 0.960 . S
H336 C335 0.960 . S
H337 N317 0.862 . S
O338 Co306 1.920 . S
O338 C311 1.289 . S
C339 O331 1.258 . S
C339 O332 1.266 . S
Co340 O343 1.970 . S
Co340 N357 1.989 . S
Co340 O365 1.967 . S
Co340 O372 1.920 . S
Co341 O344 1.966 . S
Co341 N350 2.022 . S
Co341 N358 1.993 . S
Co341 O366 1.941 . S
C342 O343 1.258 . S
C342 O344 1.263 . S
O343 Co340 1.970 . S
O343 C342 1.258 . S
O344 Co341 1.966 . S
O344 C342 1.263 . S
C345 O346 1.235 . S
C345 O372 1.289 . S
O346 C345 1.235 . S
C347 C349 1.400 . S
C347 N350 1.351 . S
C347 C352 1.501 . S
C348 C349 1.387 . S
C348 N351 1.341 . S
C349 C347 1.400 . S
C349 C348 1.387 . S
N350 Co341 2.022 . S
N350 C347 1.351 . S
N350 N351 1.365 . S
N351 C348 1.341 . S
N351 N350 1.365 . S
N351 H371 0.862 . S
C352 C347 1.501 . S
C352 H353 0.961 . S
C352 H354 0.961 . S
C352 H355 0.960 . S
H353 C352 0.961 . S
H354 C352 0.961 . S
H355 C352 0.960 . S
C356 N357 1.342 . S
C356 C360 1.401 . S
C356 C361 1.499 . S
N357 Co340 1.989 . S
N357 C356 1.342 . S
N357 N358 1.388 . S
N358 Co341 1.993 . S
N358 N357 1.388 . S
N358 C359 1.346 . S
C359 N358 1.346 . S
C359 C360 1.396 . S
C359 C369 1.510 . S
C360 C356 1.401 . S
C360 C359 1.396 . S
C361 C356 1.499 . S
C361 H362 0.959 . S
C361 H363 0.960 . S
C361 H364 0.961 . S
H362 C361 0.959 . S
H363 C361 0.960 . S
H364 C361 0.961 . S
O365 Co340 1.967 . S
O365 C373 1.258 . S
O366 Co341 1.941 . S
O366 C373 1.266 . S
H367 C369 0.959 . S
H368 C369 0.961 . S
C369 C359 1.510 . S
C369 H367 0.959 . S
C369 H368 0.961 . S
C369 H370 0.960 . S
H370 C369 0.960 . S
H371 N351 0.862 . S
O372 Co340 1.920 . S
O372 C345 1.289 . S
C373 O365 1.258 . S
C373 O366 1.266 . S
Co374 O377 1.970 . S
Co374 N391 1.989 . S
Co374 O399 1.967 . S
Co374 O406 1.920 . S
Co375 O378 1.966 . S
Co375 N384 2.022 . S
Co375 N392 1.993 . S
Co375 O400 1.941 . S
C376 O377 1.258 . S
C376 O378 1.263 . S
O377 Co374 1.970 . S
O377 C376 1.258 . S
O378 Co375 1.966 . S
O378 C376 1.263 . S
C379 O380 1.235 . S
C379 O406 1.289 . S
O380 C379 1.235 . S
C381 C383 1.400 . S
C381 N384 1.351 . S
C381 C386 1.501 . S
C382 C383 1.387 . S
C382 N385 1.341 . S
C383 C381 1.400 . S
C383 C382 1.387 . S
N384 Co375 2.022 . S
N384 C381 1.351 . S
N384 N385 1.365 . S
N385 C382 1.341 . S
N385 N384 1.365 . S
N385 H405 0.862 . S
C386 C381 1.501 . S
C386 H387 0.961 . S
C386 H388 0.961 . S
C386 H389 0.960 . S
H387 C386 0.961 . S
H388 C386 0.961 . S
H389 C386 0.960 . S
C390 N391 1.342 . S
C390 C394 1.401 . S
C390 C395 1.499 . S
N391 Co374 1.989 . S
N391 C390 1.342 . S
N391 N392 1.388 . S
N392 Co375 1.993 . S
N392 N391 1.388 . S
N392 C393 1.346 . S
C393 N392 1.346 . S
C393 C394 1.396 . S
C393 C403 1.510 . S
C394 C390 1.401 . S
C394 C393 1.396 . S
C395 C390 1.499 . S
C395 H396 0.959 . S
C395 H397 0.960 . S
C395 H398 0.961 . S
H396 C395 0.959 . S
H397 C395 0.960 . S
H398 C395 0.961 . S
O399 Co374 1.967 . S
O399 C407 1.258 . S
O400 Co375 1.941 . S
O400 C407 1.266 . S
H401 C403 0.959 . S
H402 C403 0.961 . S
C403 C393 1.510 . S
C403 H401 0.959 . S
C403 H402 0.961 . S
C403 H404 0.960 . S
H404 C403 0.960 . S
H405 N385 0.862 . S
O406 Co374 1.920 . S
O406 C379 1.289 . S
C407 O399 1.258 . S
C407 O400 1.266 . S
H408 C416 0.929 . S
H409 C418 0.930 . S
H410 C420 0.930 . S
H411 C423 0.929 . S
H412 C426 0.930 . S
H413 C428 0.960 . S
H414 C428 0.960 . S
H415 C428 0.960 . S
C416 H408 0.929 . S
C416 C417 1.377 . S
C416 C418 1.384 . S
C417 C416 1.377 . S
C417 C423 1.390 . S
C418 H409 0.930 . S
C418 C416 1.384 . S
C418 C419 1.372 . S
C419 C418 1.372 . S
C419 C420 1.400 . S
C419 C424 1.490 . S
C420 H410 0.930 . S
C420 C419 1.400 . S
C420 C423 1.386 . S
H421 C437 0.930 . S
H422 C438 0.931 . S
C423 H411 0.929 . S
C423 C417 1.390 . S
C423 C420 1.386 . S
C424 C419 1.490 . S
C424 C426 1.395 . S
C424 C427 1.403 . S
H425 C431 0.930 . S
C426 H412 0.930 . S
C426 C424 1.395 . S
C426 C429 1.403 . S
C427 C424 1.403 . S
C427 C428 1.524 . S
C427 C431 1.400 . S
C428 H413 0.960 . S
C428 H414 0.960 . S
C428 H415 0.960 . S
C428 C427 1.524 . S
C429 C426 1.403 . S
C429 C430 1.392 . S
C429 C433 1.495 . S
C430 C429 1.392 . S
C430 C431 1.385 . S
C430 C432 1.478 . S
C431 H425 0.930 . S
C431 C427 1.400 . S
C431 C430 1.385 . S
C432 C430 1.478 . S
C432 C434 1.381 . S
C432 C438 1.383 . S
C433 C429 1.495 . S
C433 H439 0.959 . S
C433 H440 0.961 . S
C433 H441 0.960 . S
C434 C432 1.381 . S
C434 C435 1.394 . S
C434 H442 0.930 . S
C435 C434 1.394 . S
C435 C436 1.383 . S
C435 H443 0.929 . S
C436 C435 1.383 . S
C436 C437 1.377 . S
C437 H421 0.930 . S
C437 C436 1.377 . S
C437 C438 1.379 . S
C438 H422 0.931 . S
C438 C432 1.383 . S
C438 C437 1.379 . S
H439 C433 0.959 . S
H440 C433 0.961 . S
H441 C433 0.960 . S
H442 C434 0.930 . S
H443 C435 0.929 . S
H444 C452 0.929 . S
H445 C454 0.930 . S
H446 C456 0.930 . S
H447 C459 0.929 . S
H448 C462 0.930 . S
H449 C464 0.960 . S
H450 C464 0.960 . S
H451 C464 0.960 . S
C452 H444 0.929 . S
C452 C453 1.377 . S
C452 C454 1.384 . S
C453 C452 1.377 . S
C453 C459 1.390 . S
C454 H445 0.930 . S
C454 C452 1.384 . S
C454 C455 1.372 . S
C455 C454 1.372 . S
C455 C456 1.400 . S
C455 C460 1.490 . S
C456 H446 0.930 . S
C456 C455 1.400 . S
C456 C459 1.386 . S
H457 C473 0.930 . S
H458 C474 0.931 . S
C459 H447 0.929 . S
C459 C453 1.390 . S
C459 C456 1.386 . S
C460 C455 1.490 . S
C460 C462 1.395 . S
C460 C463 1.403 . S
H461 C467 0.930 . S
C462 H448 0.930 . S
C462 C460 1.395 . S
C462 C465 1.403 . S
C463 C460 1.403 . S
C463 C464 1.524 . S
C463 C467 1.400 . S
C464 H449 0.960 . S
C464 H450 0.960 . S
C464 H451 0.960 . S
C464 C463 1.524 . S
C465 C462 1.403 . S
C465 C466 1.392 . S
C465 C469 1.495 . S
C466 C465 1.392 . S
C466 C467 1.385 . S
C466 C468 1.478 . S
C467 H461 0.930 . S
C467 C463 1.400 . S
C467 C466 1.385 . S
C468 C466 1.478 . S
C468 C470 1.381 . S
C468 C474 1.383 . S
C469 C465 1.495 . S
C469 H475 0.959 . S
C469 H476 0.961 . S
C469 H477 0.960 . S
C470 C468 1.381 . S
C470 C471 1.394 . S
C470 H478 0.930 . S
C471 C470 1.394 . S
C471 C472 1.383 . S
C471 H479 0.929 . S
C472 C471 1.383 . S
C472 C473 1.377 . S
C473 H457 0.930 . S
C473 C472 1.377 . S
C473 C474 1.379 . S
C474 H458 0.931 . S
C474 C468 1.383 . S
C474 C473 1.379 . S
H475 C469 0.959 . S
H476 C469 0.961 . S
H477 C469 0.960 . S
H478 C470 0.930 . S
H479 C471 0.929 . S
H480 C488 0.929 . S
H481 C490 0.930 . S
H482 C492 0.930 . S
H483 C495 0.929 . S
H484 C498 0.930 . S
H485 C500 0.960 . S
H486 C500 0.960 . S
H487 C500 0.960 . S
C488 H480 0.929 . S
C488 C489 1.377 . S
C488 C490 1.384 . S
C489 C488 1.377 . S
C489 C495 1.390 . S
C490 H481 0.930 . S
C490 C488 1.384 . S
C490 C491 1.372 . S
C491 C490 1.372 . S
C491 C492 1.400 . S
C491 C496 1.490 . S
C492 H482 0.930 . S
C492 C491 1.400 . S
C492 C495 1.386 . S
H493 C509 0.930 . S
H494 C510 0.931 . S
C495 H483 0.929 . S
C495 C489 1.390 . S
C495 C492 1.386 . S
C496 C491 1.490 . S
C496 C498 1.395 . S
C496 C499 1.403 . S
H497 C503 0.930 . S
C498 H484 0.930 . S
C498 C496 1.395 . S
C498 C501 1.403 . S
C499 C496 1.403 . S
C499 C500 1.524 . S
C499 C503 1.400 . S
C500 H485 0.960 . S
C500 H486 0.960 . S
C500 H487 0.960 . S
C500 C499 1.524 . S
C501 C498 1.403 . S
C501 C502 1.392 . S
C501 C505 1.495 . S
C502 C501 1.392 . S
C502 C503 1.385 . S
C502 C504 1.478 . S
C503 H497 0.930 . S
C503 C499 1.400 . S
C503 C502 1.385 . S
C504 C502 1.478 . S
C504 C506 1.381 . S
C504 C510 1.383 . S
C505 C501 1.495 . S
C505 H511 0.959 . S
C505 H512 0.961 . S
C505 H513 0.960 . S
C506 C504 1.381 . S
C506 C507 1.394 . S
C506 H514 0.930 . S
C507 C506 1.394 . S
C507 C508 1.383 . S
C507 H515 0.929 . S
C508 C507 1.383 . S
C508 C509 1.377 . S
C509 H493 0.930 . S
C509 C508 1.377 . S
C509 C510 1.379 . S
C510 H494 0.931 . S
C510 C504 1.383 . S
C510 C509 1.379 . S
H511 C505 0.959 . S
H512 C505 0.961 . S
H513 C505 0.960 . S
H514 C506 0.930 . S
H515 C507 0.929 . S
H516 C524 0.929 . S
H517 C526 0.930 . S
H518 C528 0.930 . S
H519 C531 0.929 . S
H520 C534 0.930 . S
H521 C536 0.960 . S
H522 C536 0.960 . S
H523 C536 0.960 . S
C524 H516 0.929 . S
C524 C525 1.377 . S
C524 C526 1.384 . S
C525 C524 1.377 . S
C525 C531 1.390 . S
C526 H517 0.930 . S
C526 C524 1.384 . S
C526 C527 1.372 . S
C527 C526 1.372 . S
C527 C528 1.400 . S
C527 C532 1.490 . S
C528 H518 0.930 . S
C528 C527 1.400 . S
C528 C531 1.386 . S
H529 C545 0.930 . S
H530 C546 0.931 . S
C531 H519 0.929 . S
C531 C525 1.390 . S
C531 C528 1.386 . S
C532 C527 1.490 . S
C532 C534 1.395 . S
C532 C535 1.403 . S
H533 C539 0.930 . S
C534 H520 0.930 . S
C534 C532 1.395 . S
C534 C537 1.403 . S
C535 C532 1.403 . S
C535 C536 1.524 . S
C535 C539 1.400 . S
C536 H521 0.960 . S
C536 H522 0.960 . S
C536 H523 0.960 . S
C536 C535 1.524 . S
C537 C534 1.403 . S
C537 C538 1.392 . S
C537 C541 1.495 . S
C538 C537 1.392 . S
C538 C539 1.385 . S
C538 C540 1.478 . S
C539 H533 0.930 . S
C539 C535 1.400 . S
C539 C538 1.385 . S
C540 C538 1.478 . S
C540 C542 1.381 . S
C540 C546 1.383 . S
C541 C537 1.495 . S
C541 H547 0.959 . S
C541 H548 0.961 . S
C541 H549 0.960 . S
C542 C540 1.381 . S
C542 C543 1.394 . S
C542 H550 0.930 . S
C543 C542 1.394 . S
C543 C544 1.383 . S
C543 H551 0.929 . S
C544 C543 1.383 . S
C544 C545 1.377 . S
C545 H529 0.930 . S
C545 C544 1.377 . S
C545 C546 1.379 . S
C546 H530 0.931 . S
C546 C540 1.383 . S
C546 C545 1.379 . S
H547 C541 0.959 . S
H548 C541 0.961 . S
H549 C541 0.960 . S
H550 C542 0.930 . S
H551 C543 0.929 . S
H552 C560 0.929 . S
H553 C562 0.930 . S
H554 C564 0.930 . S
H555 C567 0.929 . S
H556 C570 0.930 . S
H557 C572 0.960 . S
H558 C572 0.960 . S
H559 C572 0.960 . S
C560 H552 0.929 . S
C560 C561 1.377 . S
C560 C562 1.384 . S
C561 C560 1.377 . S
C561 C567 1.390 . S
C562 H553 0.930 . S
C562 C560 1.384 . S
C562 C563 1.372 . S
C563 C562 1.372 . S
C563 C564 1.400 . S
C563 C568 1.490 . S
C564 H554 0.930 . S
C564 C563 1.400 . S
C564 C567 1.386 . S
H565 C581 0.930 . S
H566 C582 0.931 . S
C567 H555 0.929 . S
C567 C561 1.390 . S
C567 C564 1.386 . S
C568 C563 1.490 . S
C568 C570 1.395 . S
C568 C571 1.403 . S
H569 C575 0.930 . S
C570 H556 0.930 . S
C570 C568 1.395 . S
C570 C573 1.403 . S
C571 C568 1.403 . S
C571 C572 1.524 . S
C571 C575 1.400 . S
C572 H557 0.960 . S
C572 H558 0.960 . S
C572 H559 0.960 . S
C572 C571 1.524 . S
C573 C570 1.403 . S
C573 C574 1.392 . S
C573 C577 1.495 . S
C574 C573 1.392 . S
C574 C575 1.385 . S
C574 C576 1.478 . S
C575 H569 0.930 . S
C575 C571 1.400 . S
C575 C574 1.385 . S
C576 C574 1.478 . S
C576 C578 1.381 . S
C576 C582 1.383 . S
C577 C573 1.495 . S
C577 H583 0.959 . S
C577 H584 0.961 . S
C577 H585 0.960 . S
C578 C576 1.381 . S
C578 C579 1.394 . S
C578 H586 0.930 . S
C579 C578 1.394 . S
C579 C580 1.383 . S
C579 H587 0.929 . S
C580 C579 1.383 . S
C580 C581 1.377 . S
C581 H565 0.930 . S
C581 C580 1.377 . S
C581 C582 1.379 . S
C582 H566 0.931 . S
C582 C576 1.383 . S
C582 C581 1.379 . S
H583 C577 0.959 . S
H584 C577 0.961 . S
H585 C577 0.960 . S
H586 C578 0.930 . S
H587 C579 0.929 . S
H588 C596 0.929 . S
H589 C598 0.930 . S
H590 C600 0.930 . S
H591 C603 0.929 . S
H592 C606 0.930 . S
H593 C608 0.960 . S
H594 C608 0.960 . S
H595 C608 0.960 . S
C596 H588 0.929 . S
C596 C597 1.377 . S
C596 C598 1.384 . S
C597 C596 1.377 . S
C597 C603 1.390 . S
C598 H589 0.930 . S
C598 C596 1.384 . S
C598 C599 1.372 . S
C599 C598 1.372 . S
C599 C600 1.400 . S
C599 C604 1.490 . S
C600 H590 0.930 . S
C600 C599 1.400 . S
C600 C603 1.386 . S
H601 C617 0.930 . S
H602 C618 0.931 . S
C603 H591 0.929 . S
C603 C597 1.390 . S
C603 C600 1.386 . S
C604 C599 1.490 . S
C604 C606 1.395 . S
C604 C607 1.403 . S
H605 C611 0.930 . S
C606 H592 0.930 . S
C606 C604 1.395 . S
C606 C609 1.403 . S
C607 C604 1.403 . S
C607 C608 1.524 . S
C607 C611 1.400 . S
C608 H593 0.960 . S
C608 H594 0.960 . S
C608 H595 0.960 . S
C608 C607 1.524 . S
C609 C606 1.403 . S
C609 C610 1.392 . S
C609 C613 1.495 . S
C610 C609 1.392 . S
C610 C611 1.385 . S
C610 C612 1.478 . S
C611 H605 0.930 . S
C611 C607 1.400 . S
C611 C610 1.385 . S
C612 C610 1.478 . S
C612 C614 1.381 . S
C612 C618 1.383 . S
C613 C609 1.495 . S
C613 H619 0.959 . S
C613 H620 0.961 . S
C613 H621 0.960 . S
C614 C612 1.381 . S
C614 C615 1.394 . S
C614 H622 0.930 . S
C615 C614 1.394 . S
C615 C616 1.383 . S
C615 H623 0.929 . S
C616 C615 1.383 . S
C616 C617 1.377 . S
C617 H601 0.930 . S
C617 C616 1.377 . S
C617 C618 1.379 . S
C618 H602 0.931 . S
C618 C612 1.383 . S
C618 C617 1.379 . S
H619 C613 0.959 . S
H620 C613 0.961 . S
H621 C613 0.960 . S
H622 C614 0.930 . S
H623 C615 0.929 . S
H624 C632 0.929 . S
H625 C634 0.930 . S
H626 C636 0.930 . S
H627 C639 0.929 . S
H628 C642 0.930 . S
H629 C644 0.960 . S
H630 C644 0.960 . S
H631 C644 0.960 . S
C632 H624 0.929 . S
C632 C633 1.377 . S
C632 C634 1.384 . S
C633 C632 1.377 . S
C633 C639 1.390 . S
C634 H625 0.930 . S
C634 C632 1.384 . S
C634 C635 1.372 . S
C635 C634 1.372 . S
C635 C636 1.400 . S
C635 C640 1.490 . S
C636 H626 0.930 . S
C636 C635 1.400 . S
C636 C639 1.386 . S
H637 C653 0.930 . S
H638 C654 0.931 . S
C639 H627 0.929 . S
C639 C633 1.390 . S
C639 C636 1.386 . S
C640 C635 1.490 . S
C640 C642 1.395 . S
C640 C643 1.403 . S
H641 C647 0.930 . S
C642 H628 0.930 . S
C642 C640 1.395 . S
C642 C645 1.403 . S
C643 C640 1.403 . S
C643 C644 1.524 . S
C643 C647 1.400 . S
C644 H629 0.960 . S
C644 H630 0.960 . S
C644 H631 0.960 . S
C644 C643 1.524 . S
C645 C642 1.403 . S
C645 C646 1.392 . S
C645 C649 1.495 . S
C646 C645 1.392 . S
C646 C647 1.385 . S
C646 C648 1.478 . S
C647 H641 0.930 . S
C647 C643 1.400 . S
C647 C646 1.385 . S
C648 C646 1.478 . S
C648 C650 1.381 . S
C648 C654 1.383 . S
C649 C645 1.495 . S
C649 H655 0.959 . S
C649 H656 0.961 . S
C649 H657 0.960 . S
C650 C648 1.381 . S
C650 C651 1.394 . S
C650 H658 0.930 . S
C651 C650 1.394 . S
C651 C652 1.383 . S
C651 H659 0.929 . S
C652 C651 1.383 . S
C652 C653 1.377 . S
C653 H637 0.930 . S
C653 C652 1.377 . S
C653 C654 1.379 . S
C654 H638 0.931 . S
C654 C648 1.383 . S
C654 C653 1.379 . S
H655 C649 0.959 . S
H656 C649 0.961 . S
H657 C649 0.960 . S
H658 C650 0.930 . S
H659 C651 0.929 . S
H660 C668 0.929 . S
H661 C670 0.930 . S
H662 C672 0.930 . S
H663 C675 0.929 . S
H664 C678 0.930 . S
H665 C680 0.960 . S
H666 C680 0.960 . S
H667 C680 0.960 . S
C668 H660 0.929 . S
C668 C669 1.377 . S
C668 C670 1.384 . S
C669 C668 1.377 . S
C669 C675 1.390 . S
C670 H661 0.930 . S
C670 C668 1.384 . S
C670 C671 1.372 . S
C671 C670 1.372 . S
C671 C672 1.400 . S
C671 C676 1.490 . S
C672 H662 0.930 . S
C672 C671 1.400 . S
C672 C675 1.386 . S
H673 C689 0.930 . S
H674 C690 0.931 . S
C675 H663 0.929 . S
C675 C669 1.390 . S
C675 C672 1.386 . S
C676 C671 1.490 . S
C676 C678 1.395 . S
C676 C679 1.403 . S
H677 C683 0.930 . S
C678 H664 0.930 . S
C678 C676 1.395 . S
C678 C681 1.403 . S
C679 C676 1.403 . S
C679 C680 1.524 . S
C679 C683 1.400 . S
C680 H665 0.960 . S
C680 H666 0.960 . S
C680 H667 0.960 . S
C680 C679 1.524 . S
C681 C678 1.403 . S
C681 C682 1.392 . S
C681 C685 1.495 . S
C682 C681 1.392 . S
C682 C683 1.385 . S
C682 C684 1.478 . S
C683 H677 0.930 . S
C683 C679 1.400 . S
C683 C682 1.385 . S
C684 C682 1.478 . S
C684 C686 1.381 . S
C684 C690 1.383 . S
C685 C681 1.495 . S
C685 H691 0.959 . S
C685 H692 0.961 . S
C685 H693 0.960 . S
C686 C684 1.381 . S
C686 C687 1.394 . S
C686 H694 0.930 . S
C687 C686 1.394 . S
C687 C688 1.383 . S
C687 H695 0.929 . S
C688 C687 1.383 . S
C688 C689 1.377 . S
C689 H673 0.930 . S
C689 C688 1.377 . S
C689 C690 1.379 . S
C690 H674 0.931 . S
C690 C684 1.383 . S
C690 C689 1.379 . S
H691 C685 0.959 . S
H692 C685 0.961 . S
H693 C685 0.960 . S
H694 C686 0.930 . S
H695 C687 0.929 . S
H696 C704 0.929 . S
H697 C706 0.930 . S
H698 C708 0.930 . S
H699 C711 0.929 . S
H700 C714 0.930 . S
H701 C716 0.960 . S
H702 C716 0.960 . S
H703 C716 0.960 . S
C704 H696 0.929 . S
C704 C705 1.377 . S
C704 C706 1.384 . S
C705 C704 1.377 . S
C705 C711 1.390 . S
C706 H697 0.930 . S
C706 C704 1.384 . S
C706 C707 1.372 . S
C707 C706 1.372 . S
C707 C708 1.400 . S
C707 C712 1.490 . S
C708 H698 0.930 . S
C708 C707 1.400 . S
C708 C711 1.386 . S
H709 C725 0.930 . S
H710 C726 0.931 . S
C711 H699 0.929 . S
C711 C705 1.390 . S
C711 C708 1.386 . S
C712 C707 1.490 . S
C712 C714 1.395 . S
C712 C715 1.403 . S
H713 C719 0.930 . S
C714 H700 0.930 . S
C714 C712 1.395 . S
C714 C717 1.403 . S
C715 C712 1.403 . S
C715 C716 1.524 . S
C715 C719 1.400 . S
C716 H701 0.960 . S
C716 H702 0.960 . S
C716 H703 0.960 . S
C716 C715 1.524 . S
C717 C714 1.403 . S
C717 C718 1.392 . S
C717 C721 1.495 . S
C718 C717 1.392 . S
C718 C719 1.385 . S
C718 C720 1.478 . S
C719 H713 0.930 . S
C719 C715 1.400 . S
C719 C718 1.385 . S
C720 C718 1.478 . S
C720 C722 1.381 . S
C720 C726 1.383 . S
C721 C717 1.495 . S
C721 H727 0.959 . S
C721 H728 0.961 . S
C721 H729 0.960 . S
C722 C720 1.381 . S
C722 C723 1.394 . S
C722 H730 0.930 . S
C723 C722 1.394 . S
C723 C724 1.383 . S
C723 H731 0.929 . S
C724 C723 1.383 . S
C724 C725 1.377 . S
C725 H709 0.930 . S
C725 C724 1.377 . S
C725 C726 1.379 . S
C726 H710 0.931 . S
C726 C720 1.383 . S
C726 C725 1.379 . S
H727 C721 0.959 . S
H728 C721 0.961 . S
H729 C721 0.960 . S
H730 C722 0.930 . S
H731 C723 0.929 . S
H732 C740 0.929 . S
H733 C742 0.930 . S
H734 C744 0.930 . S
H735 C747 0.929 . S
H736 C750 0.930 . S
H737 C752 0.960 . S
H738 C752 0.960 . S
H739 C752 0.960 . S
C740 H732 0.929 . S
C740 C741 1.377 . S
C740 C742 1.384 . S
C741 C740 1.377 . S
C741 C747 1.390 . S
C742 H733 0.930 . S
C742 C740 1.384 . S
C742 C743 1.372 . S
C743 C742 1.372 . S
C743 C744 1.400 . S
C743 C748 1.490 . S
C744 H734 0.930 . S
C744 C743 1.400 . S
C744 C747 1.386 . S
H745 C761 0.930 . S
H746 C762 0.931 . S
C747 H735 0.929 . S
C747 C741 1.390 . S
C747 C744 1.386 . S
C748 C743 1.490 . S
C748 C750 1.395 . S
C748 C751 1.403 . S
H749 C755 0.930 . S
C750 H736 0.930 . S
C750 C748 1.395 . S
C750 C753 1.403 . S
C751 C748 1.403 . S
C751 C752 1.524 . S
C751 C755 1.400 . S
C752 H737 0.960 . S
C752 H738 0.960 . S
C752 H739 0.960 . S
C752 C751 1.524 . S
C753 C750 1.403 . S
C753 C754 1.392 . S
C753 C757 1.495 . S
C754 C753 1.392 . S
C754 C755 1.385 . S
C754 C756 1.478 . S
C755 H749 0.930 . S
C755 C751 1.400 . S
C755 C754 1.385 . S
C756 C754 1.478 . S
C756 C758 1.381 . S
C756 C762 1.383 . S
C757 C753 1.495 . S
C757 H763 0.959 . S
C757 H764 0.961 . S
C757 H765 0.960 . S
C758 C756 1.381 . S
C758 C759 1.394 . S
C758 H766 0.930 . S
C759 C758 1.394 . S
C759 C760 1.383 . S
C759 H767 0.929 . S
C760 C759 1.383 . S
C760 C761 1.377 . S
C761 H745 0.930 . S
C761 C760 1.377 . S
C761 C762 1.379 . S
C762 H746 0.931 . S
C762 C756 1.383 . S
C762 C761 1.379 . S
H763 C757 0.959 . S
H764 C757 0.961 . S
H765 C757 0.960 . S
H766 C758 0.930 . S
H767 C759 0.929 . S
H768 C776 0.929 . S
H769 C778 0.930 . S
H770 C780 0.930 . S
H771 C783 0.929 . S
H772 C786 0.930 . S
H773 C788 0.960 . S
H774 C788 0.960 . S
H775 C788 0.960 . S
C776 H768 0.929 . S
C776 C777 1.377 . S
C776 C778 1.384 . S
C777 C776 1.377 . S
C777 C783 1.390 . S
C778 H769 0.930 . S
C778 C776 1.384 . S
C778 C779 1.372 . S
C779 C778 1.372 . S
C779 C780 1.400 . S
C779 C784 1.490 . S
C780 H770 0.930 . S
C780 C779 1.400 . S
C780 C783 1.386 . S
H781 C797 0.930 . S
H782 C798 0.931 . S
C783 H771 0.929 . S
C783 C777 1.390 . S
C783 C780 1.386 . S
C784 C779 1.490 . S
C784 C786 1.395 . S
C784 C787 1.403 . S
H785 C791 0.930 . S
C786 H772 0.930 . S
C786 C784 1.395 . S
C786 C789 1.403 . S
C787 C784 1.403 . S
C787 C788 1.524 . S
C787 C791 1.400 . S
C788 H773 0.960 . S
C788 H774 0.960 . S
C788 H775 0.960 . S
C788 C787 1.524 . S
C789 C786 1.403 . S
C789 C790 1.392 . S
C789 C793 1.495 . S
C790 C789 1.392 . S
C790 C791 1.385 . S
C790 C792 1.478 . S
C791 H785 0.930 . S
C791 C787 1.400 . S
C791 C790 1.385 . S
C792 C790 1.478 . S
C792 C794 1.381 . S
C792 C798 1.383 . S
C793 C789 1.495 . S
C793 H799 0.959 . S
C793 H800 0.961 . S
C793 H801 0.960 . S
C794 C792 1.381 . S
C794 C795 1.394 . S
C794 H802 0.930 . S
C795 C794 1.394 . S
C795 C796 1.383 . S
C795 H803 0.929 . S
C796 C795 1.383 . S
C796 C797 1.377 . S
C797 H781 0.930 . S
C797 C796 1.377 . S
C797 C798 1.379 . S
C798 H782 0.931 . S
C798 C792 1.383 . S
C798 C797 1.379 . S
H799 C793 0.959 . S
H800 C793 0.961 . S
H801 C793 0.960 . S
H802 C794 0.930 . S
H803 C795 0.929 . S
H804 C812 0.929 . S
H805 C814 0.930 . S
H806 C816 0.930 . S
H807 C819 0.929 . S
H808 C822 0.930 . S
H809 C824 0.960 . S
H810 C824 0.960 . S
H811 C824 0.960 . S
C812 H804 0.929 . S
C812 C813 1.377 . S
C812 C814 1.384 . S
C813 C812 1.377 . S
C813 C819 1.390 . S
C814 H805 0.930 . S
C814 C812 1.384 . S
C814 C815 1.372 . S
C815 C814 1.372 . S
C815 C816 1.400 . S
C815 C820 1.490 . S
C816 H806 0.930 . S
C816 C815 1.400 . S
C816 C819 1.386 . S
H817 C833 0.930 . S
H818 C834 0.931 . S
C819 H807 0.929 . S
C819 C813 1.390 . S
C819 C816 1.386 . S
C820 C815 1.490 . S
C820 C822 1.395 . S
C820 C823 1.403 . S
H821 C827 0.930 . S
C822 H808 0.930 . S
C822 C820 1.395 . S
C822 C825 1.403 . S
C823 C820 1.403 . S
C823 C824 1.524 . S
C823 C827 1.400 . S
C824 H809 0.960 . S
C824 H810 0.960 . S
C824 H811 0.960 . S
C824 C823 1.524 . S
C825 C822 1.403 . S
C825 C826 1.392 . S
C825 C829 1.495 . S
C826 C825 1.392 . S
C826 C827 1.385 . S
C826 C828 1.478 . S
C827 H821 0.930 . S
C827 C823 1.400 . S
C827 C826 1.385 . S
C828 C826 1.478 . S
C828 C830 1.381 . S
C828 C834 1.383 . S
C829 C825 1.495 . S
C829 H835 0.959 . S
C829 H836 0.961 . S
C829 H837 0.960 . S
C830 C828 1.381 . S
C830 C831 1.394 . S
C830 H838 0.930 . S
C831 C830 1.394 . S
C831 C832 1.383 . S
C831 H839 0.929 . S
C832 C831 1.383 . S
C832 C833 1.377 . S
C833 H817 0.930 . S
C833 C832 1.377 . S
C833 C834 1.379 . S
C834 H818 0.931 . S
C834 C828 1.383 . S
C834 C833 1.379 . S
H835 C829 0.959 . S
H836 C829 0.961 . S
H837 C829 0.960 . S
H838 C830 0.930 . S
H839 C831 0.929 . S
H840 C848 0.929 . S
H841 C850 0.930 . S
H842 C852 0.930 . S
H843 C855 0.929 . S
H844 C858 0.930 . S
H845 C860 0.960 . S
H846 C860 0.960 1_565 S
H847 C860 0.960 1_565 S
C848 H840 0.929 . S
C848 C849 1.377 . S
C848 C850 1.384 . S
C849 C848 1.377 . S
C849 C855 1.390 . S
C850 H841 0.930 . S
C850 C848 1.384 . S
C850 C851 1.372 . S
C851 C850 1.372 . S
C851 C852 1.400 . S
C851 C856 1.490 . S
C852 H842 0.930 . S
C852 C851 1.400 . S
C852 C855 1.386 . S
H853 C869 0.930 . S
H854 C870 0.931 . S
C855 H843 0.929 . S
C855 C849 1.390 . S
C855 C852 1.386 . S
C856 C851 1.490 . S
C856 C858 1.395 . S
C856 C859 1.416 . S
H857 C863 0.930 . S
C858 H844 0.930 . S
C858 C856 1.395 . S
C858 C861 1.403 . S
C859 C856 1.416 . S
C859 C860 1.523 1_565 S
C859 C863 1.387 1_565 S
C860 H845 0.960 . S
C860 H846 0.960 1_545 S
C860 H847 0.960 1_545 S
C860 C859 1.523 1_545 S
C861 C858 1.403 . S
C861 C862 1.392 1_565 S
C861 C865 1.495 . S
C862 C861 1.392 1_545 S
C862 C863 1.385 . S
C862 C864 1.478 . S
C863 H857 0.930 . S
C863 C859 1.387 1_545 S
C863 C862 1.385 . S
C864 C862 1.478 . S
C864 C866 1.381 . S
C864 C870 1.383 . S
C865 C861 1.495 . S
C865 H871 0.959 . S
C865 H872 0.961 1_565 S
C865 H873 0.960 1_565 S
C866 C864 1.381 . S
C866 C867 1.394 . S
C866 H874 0.930 . S
C867 C866 1.394 . S
C867 C868 1.383 . S
C867 H875 0.929 . S
C868 C867 1.383 . S
C868 C869 1.377 . S
C869 H853 0.930 . S
C869 C868 1.377 . S
C869 C870 1.379 . S
C870 H854 0.931 . S
C870 C864 1.383 . S
C870 C869 1.379 . S
H871 C865 0.959 . S
H872 C865 0.961 1_545 S
H873 C865 0.960 1_545 S
H874 C866 0.930 . S
H875 C867 0.929 . S
H876 C884 0.929 . S
H877 C886 0.930 . S
H878 C888 0.930 . S
H879 C891 0.929 . S
H880 C894 0.930 . S
H881 C896 0.960 . S
H882 C896 0.960 . S
H883 C896 0.960 . S
C884 H876 0.929 . S
C884 C885 1.377 . S
C884 C886 1.384 . S
C885 C884 1.377 . S
C885 C891 1.390 . S
C886 H877 0.930 . S
C886 C884 1.384 . S
C886 C887 1.372 . S
C887 C886 1.372 . S
C887 C888 1.400 . S
C887 C892 1.490 . S
C888 H878 0.930 . S
C888 C887 1.400 . S
C888 C891 1.386 . S
H889 C905 0.930 . S
H890 C906 0.931 . S
C891 H879 0.929 . S
C891 C885 1.390 . S
C891 C888 1.386 . S
C892 C887 1.490 . S
C892 C894 1.395 . S
C892 C895 1.403 1_655 S
H893 C899 0.930 . S
C894 H880 0.930 . S
C894 C892 1.395 . S
C894 C897 1.403 . S
C895 C892 1.403 1_455 S
C895 C896 1.524 . S
C895 C899 1.400 . S
C896 H881 0.960 . S
C896 H882 0.960 . S
C896 H883 0.960 . S
C896 C895 1.524 . S
C897 C894 1.403 . S
C897 C898 1.392 1_655 S
C897 C901 1.495 . S
C898 C897 1.392 1_455 S
C898 C899 1.385 . S
C898 C900 1.478 . S
C899 H893 0.930 . S
C899 C895 1.400 . S
C899 C898 1.385 . S
C900 C898 1.478 . S
C900 C902 1.381 . S
C900 C906 1.383 . S
C901 C897 1.495 . S
C901 H907 0.959 . S
C901 H908 0.961 . S
C901 H909 0.960 . S
C902 C900 1.381 . S
C902 C903 1.394 . S
C902 H910 0.930 . S
C903 C902 1.394 . S
C903 C904 1.383 . S
C903 H911 0.929 . S
C904 C903 1.383 . S
C904 C905 1.377 . S
C905 H889 0.930 . S
C905 C904 1.377 . S
C905 C906 1.379 . S
C906 H890 0.931 . S
C906 C900 1.383 . S
C906 C905 1.379 . S
H907 C901 0.959 . S
H908 C901 0.961 . S
H909 C901 0.960 . S
H910 C902 0.930 . S
H911 C903 0.929 . S
H912 C920 0.929 . S
H913 C922 0.930 . S
H914 C924 0.930 . S
H915 C927 0.929 . S
H916 C930 0.932 . S
H917 C932 0.960 . S
H918 C932 0.960 . S
H919 C932 0.960 . S
C920 H912 0.929 . S
C920 C921 1.377 . S
C920 C922 1.384 . S
C921 C920 1.377 . S
C921 C927 1.390 . S
C922 H913 0.930 . S
C922 C920 1.384 . S
C922 C923 1.372 . S
C923 C922 1.372 . S
C923 C924 1.400 . S
C923 C928 1.490 . S
C924 H914 0.930 . S
C924 C923 1.400 . S
C924 C927 1.386 . S
H925 C941 0.930 . S
H926 C942 0.931 . S
C927 H915 0.929 . S
C927 C921 1.390 . S
C927 C924 1.386 . S
C928 C923 1.490 . S
C928 C930 1.409 . S
C928 C931 1.403 . S
H929 C935 0.930 . S
C930 H916 0.932 . S
C930 C928 1.409 . S
C930 C933 1.387 1_545 S
C931 C928 1.403 . S
C931 C932 1.524 . S
C931 C935 1.400 1_545 S
C932 H917 0.960 . S
C932 H918 0.960 . S
C932 H919 0.960 . S
C932 C931 1.524 . S
C933 C930 1.387 1_565 S
C933 C934 1.392 . S
C933 C937 1.495 . S
C934 C933 1.392 . S
C934 C935 1.385 . S
C934 C936 1.478 . S
C935 H929 0.930 . S
C935 C931 1.400 1_565 S
C935 C934 1.385 . S
C936 C934 1.478 . S
C936 C938 1.381 . S
C936 C942 1.383 . S
C937 C933 1.495 . S
C937 H943 0.959 . S
C937 H944 0.961 . S
C937 H945 0.960 . S
C938 C936 1.381 . S
C938 C939 1.394 . S
C938 H946 0.930 . S
C939 C938 1.394 . S
C939 C940 1.383 . S
C939 H947 0.929 . S
C940 C939 1.383 . S
C940 C941 1.377 . S
C941 H925 0.930 . S
C941 C940 1.377 . S
C941 C942 1.379 . S
C942 H926 0.931 . S
C942 C936 1.383 . S
C942 C941 1.379 . S
H943 C937 0.959 . S
H944 C937 0.961 . S
H945 C937 0.960 . S
H946 C938 0.930 . S
H947 C939 0.929 . S
H948 C956 0.929 . S
H949 C958 0.930 . S
H950 C960 0.930 . S
H951 C963 0.929 . S
H952 C966 0.930 . S
H953 C968 0.960 . S
H954 C968 0.960 . S
H955 C968 0.960 . S
C956 H948 0.929 . S
C956 C957 1.377 . S
C956 C958 1.384 . S
C957 C956 1.377 . S
C957 C963 1.390 . S
C958 H949 0.930 . S
C958 C956 1.384 . S
C958 C959 1.372 . S
C959 C958 1.372 . S
C959 C960 1.400 . S
C959 C964 1.490 . S
C960 H950 0.930 . S
C960 C959 1.400 . S
C960 C963 1.386 . S
H961 C977 0.930 . S
H962 C978 0.931 . S
C963 H951 0.929 . S
C963 C957 1.390 . S
C963 C960 1.386 . S
C964 C959 1.490 . S
C964 C966 1.395 . S
C964 C967 1.403 1_655 S
H965 C971 0.930 . S
C966 H952 0.930 . S
C966 C964 1.395 . S
C966 C969 1.403 . S
C967 C964 1.403 1_455 S
C967 C968 1.524 . S
C967 C971 1.400 . S
C968 H953 0.960 . S
C968 H954 0.960 . S
C968 H955 0.960 . S
C968 C967 1.524 . S
C969 C966 1.403 . S
C969 C970 1.392 1_655 S
C969 C973 1.495 . S
C970 C969 1.392 1_455 S
C970 C971 1.385 . S
C970 C972 1.478 . S
C971 H965 0.930 . S
C971 C967 1.400 . S
C971 C970 1.385 . S
C972 C970 1.478 . S
C972 C974 1.381 . S
C972 C978 1.383 . S
C973 C969 1.495 . S
C973 H979 0.959 . S
C973 H980 0.961 . S
C973 H981 0.960 . S
C974 C972 1.381 . S
C974 C975 1.394 . S
C974 H982 0.930 . S
C975 C974 1.394 . S
C975 C976 1.383 . S
C975 H983 0.929 . S
C976 C975 1.383 . S
C976 C977 1.377 . S
C977 H961 0.930 . S
C977 C976 1.377 . S
C977 C978 1.379 . S
C978 H962 0.931 . S
C978 C972 1.383 . S
C978 C977 1.379 . S
H979 C973 0.959 . S
H980 C973 0.961 . S
H981 C973 0.960 . S
H982 C974 0.930 . S
H983 C975 0.929 . S
H984 C992 0.929 . S
H985 C994 0.930 . S
H986 C996 0.930 . S
H987 C999 0.929 . S
H988 C1002 0.930 . S
H989 C1004 0.960 1_554 S
H990 C1004 0.960 . S
H991 C1004 0.960 . S
C992 H984 0.929 . S
C992 C993 1.377 . S
C992 C994 1.384 . S
C993 C992 1.377 . S
C993 C999 1.390 . S
C994 H985 0.930 . S
C994 C992 1.384 . S
C994 C995 1.372 . S
C995 C994 1.372 . S
C995 C996 1.400 . S
C995 C1000 1.490 . S
C996 H986 0.930 . S
C996 C995 1.400 . S
C996 C999 1.386 . S
H997 C1013 0.930 . S
H998 C1014 0.931 . S
C999 H987 0.929 . S
C999 C993 1.390 . S
C999 C996 1.386 . S
C1000 C995 1.490 . S
C1000 C1002 1.395 . S
C1000 C1003 1.403 . S
H1001 C1007 0.930 . S
C1002 H988 0.930 . S
C1002 C1000 1.395 . S
C1002 C1005 1.403 1_556 S
C1003 C1000 1.403 . S
C1003 C1004 1.524 . S
C1003 C1007 1.400 1_556 S
C1004 H989 0.960 1_556 S
C1004 H990 0.960 . S
C1004 H991 0.960 . S
C1004 C1003 1.524 . S
C1005 C1002 1.403 1_554 S
C1005 C1006 1.392 . S
C1005 C1009 1.495 . S
C1006 C1005 1.392 . S
C1006 C1007 1.385 . S
C1006 C1008 1.478 . S
C1007 H1001 0.930 . S
C1007 C1003 1.400 1_554 S
C1007 C1006 1.385 . S
C1008 C1006 1.478 . S
C1008 C1010 1.381 . S
C1008 C1014 1.383 . S
C1009 C1005 1.495 . S
C1009 H1015 0.959 1_554 S
C1009 H1016 0.961 . S
C1009 H1017 0.960 . S
C1010 C1008 1.381 . S
C1010 C1011 1.394 . S
C1010 H1018 0.930 . S
C1011 C1010 1.394 . S
C1011 C1012 1.383 . S
C1011 H1019 0.929 . S
C1012 C1011 1.383 . S
C1012 C1013 1.377 . S
C1013 H997 0.930 . S
C1013 C1012 1.377 . S
C1013 C1014 1.379 . S
C1014 H998 0.931 . S
C1014 C1008 1.383 . S
C1014 C1013 1.379 . S
H1015 C1009 0.959 1_556 S
H1016 C1009 0.961 . S
H1017 C1009 0.960 . S
H1018 C1010 0.930 . S
H1019 C1011 0.929 . S
H1020 C1028 0.929 . S
H1021 C1030 0.930 . S
H1022 C1032 0.930 . S
H1023 C1035 0.929 . S
H1024 C1038 0.930 . S
H1025 C1040 0.960 1_556 S
H1026 C1040 0.960 1_556 S
H1027 C1040 0.960 . S
C1028 H1020 0.929 . S
C1028 C1029 1.377 . S
C1028 C1030 1.384 . S
C1029 C1028 1.377 . S
C1029 C1035 1.390 . S
C1030 H1021 0.930 . S
C1030 C1028 1.384 . S
C1030 C1031 1.372 . S
C1031 C1030 1.372 . S
C1031 C1032 1.400 . S
C1031 C1036 1.490 . S
C1032 H1022 0.930 . S
C1032 C1031 1.400 . S
C1032 C1035 1.386 . S
H1033 C1049 0.930 . S
H1034 C1050 0.931 . S
C1035 H1023 0.929 . S
C1035 C1029 1.390 . S
C1035 C1032 1.386 . S
C1036 C1031 1.490 . S
C1036 C1038 1.395 . S
C1036 C1039 1.403 . S
H1037 C1043 0.930 . S
C1038 H1024 0.930 . S
C1038 C1036 1.395 . S
C1038 C1041 1.403 1_554 S
C1039 C1036 1.403 . S
C1039 C1040 1.524 . S
C1039 C1043 1.400 1_554 S
C1040 H1025 0.960 1_554 S
C1040 H1026 0.960 1_554 S
C1040 H1027 0.960 . S
C1040 C1039 1.524 . S
C1041 C1038 1.403 1_556 S
C1041 C1042 1.392 . S
C1041 C1045 1.495 . S
C1042 C1041 1.392 . S
C1042 C1043 1.385 . S
C1042 C1044 1.478 . S
C1043 H1037 0.930 . S
C1043 C1039 1.400 1_556 S
C1043 C1042 1.385 . S
C1044 C1042 1.478 . S
C1044 C1046 1.381 . S
C1044 C1050 1.383 . S
C1045 C1041 1.495 . S
C1045 H1051 0.959 1_556 S
C1045 H1052 0.961 . S
C1045 H1053 0.960 . S
C1046 C1044 1.381 . S
C1046 C1047 1.394 . S
C1046 H1054 0.930 . S
C1047 C1046 1.394 . S
C1047 C1048 1.383 . S
C1047 H1055 0.929 . S
C1048 C1047 1.383 . S
C1048 C1049 1.377 . S
C1049 H1033 0.930 . S
C1049 C1048 1.377 . S
C1049 C1050 1.379 . S
C1050 H1034 0.931 . S
C1050 C1044 1.383 . S
C1050 C1049 1.379 . S
H1051 C1045 0.959 1_554 S
H1052 C1045 0.961 . S
H1053 C1045 0.960 . S
H1054 C1046 0.930 . S
H1055 C1047 0.929 . S
H1056 C1064 0.929 . S
H1057 C1066 0.930 . S
H1058 C1068 0.930 . S
H1059 C1071 0.929 . S
H1060 C1074 0.930 . S
H1061 C1076 0.960 . S
H1062 C1076 0.960 . S
H1063 C1076 0.960 . S
C1064 H1056 0.929 . S
C1064 C1065 1.377 . S
C1064 C1066 1.384 . S
C1065 C1064 1.377 . S
C1065 C1071 1.390 . S
C1066 H1057 0.930 . S
C1066 C1064 1.384 . S
C1066 C1067 1.372 . S
C1067 C1066 1.372 . S
C1067 C1068 1.400 . S
C1067 C1072 1.490 . S
C1068 H1058 0.930 . S
C1068 C1067 1.400 . S
C1068 C1071 1.386 . S
H1069 C1085 0.930 . S
H1070 C1086 0.931 . S
C1071 H1059 0.929 . S
C1071 C1065 1.390 . S
C1071 C1068 1.386 . S
C1072 C1067 1.490 . S
C1072 C1074 1.395 . S
C1072 C1075 1.403 . S
H1073 C1079 0.930 . S
C1074 H1060 0.930 . S
C1074 C1072 1.395 . S
C1074 C1077 1.403 1_554 S
C1075 C1072 1.403 . S
C1075 C1076 1.524 . S
C1075 C1079 1.400 1_554 S
C1076 H1061 0.960 . S
C1076 H1062 0.960 . S
C1076 H1063 0.960 . S
C1076 C1075 1.524 . S
C1077 C1074 1.403 1_556 S
C1077 C1078 1.392 . S
C1077 C1081 1.495 . S
C1078 C1077 1.392 . S
C1078 C1079 1.385 . S
C1078 C1080 1.478 . S
C1079 H1073 0.930 . S
C1079 C1075 1.400 1_556 S
C1079 C1078 1.385 . S
C1080 C1078 1.478 . S
C1080 C1082 1.381 . S
C1080 C1086 1.383 . S
C1081 C1077 1.495 . S
C1081 H1087 0.959 . S
C1081 H1088 0.961 . S
C1081 H1089 0.960 . S
C1082 C1080 1.381 . S
C1082 C1083 1.394 . S
C1082 H1090 0.930 . S
C1083 C1082 1.394 . S
C1083 C1084 1.383 . S
C1083 H1091 0.929 . S
C1084 C1083 1.383 . S
C1084 C1085 1.377 . S
C1085 H1069 0.930 . S
C1085 C1084 1.377 . S
C1085 C1086 1.379 . S
C1086 H1070 0.931 . S
C1086 C1080 1.383 . S
C1086 C1085 1.379 . S
H1087 C1081 0.959 . S
H1088 C1081 0.961 . S
H1089 C1081 0.960 . S
H1090 C1082 0.930 . S
H1091 C1083 0.929 . S
H1092 C1100 0.929 . S
H1093 C1102 0.930 . S
H1094 C1104 0.930 . S
H1095 C1107 0.929 . S
H1096 C1110 0.930 . S
H1097 C1112 0.960 . S
H1098 C1112 0.960 . S
H1099 C1112 0.960 . S
C1100 H1092 0.929 . S
C1100 C1101 1.377 . S
C1100 C1102 1.384 . S
C1101 C1100 1.377 . S
C1101 C1107 1.390 . S
C1102 H1093 0.930 . S
C1102 C1100 1.384 . S
C1102 C1103 1.372 . S
C1103 C1102 1.372 . S
C1103 C1104 1.400 . S
C1103 C1108 1.490 . S
C1104 H1094 0.930 . S
C1104 C1103 1.400 . S
C1104 C1107 1.386 . S
H1105 C1121 0.930 . S
H1106 C1122 0.931 . S
C1107 H1095 0.929 . S
C1107 C1101 1.390 . S
C1107 C1104 1.386 . S
C1108 C1103 1.490 . S
C1108 C1110 1.395 1_556 S
C1108 C1111 1.403 . S
H1109 C1115 0.930 1_556 S
C1110 H1096 0.930 . S
C1110 C1108 1.395 1_554 S
C1110 C1113 1.403 . S
C1111 C1108 1.403 . S
C1111 C1112 1.524 . S
C1111 C1115 1.401 1_556 S
C1112 H1097 0.960 . S
C1112 H1098 0.960 . S
C1112 H1099 0.960 . S
C1112 C1111 1.524 . S
C1113 C1110 1.403 . S
C1113 C1114 1.392 . S
C1113 C1117 1.495 . S
C1114 C1113 1.392 . S
C1114 C1115 1.384 . S
C1114 C1116 1.478 . S
C1115 H1109 0.930 1_554 S
C1115 C1111 1.401 1_554 S
C1115 C1114 1.384 . S
C1116 C1114 1.478 . S
C1116 C1118 1.381 . S
C1116 C1122 1.383 . S
C1117 C1113 1.495 . S
C1117 H1123 0.959 . S
C1117 H1124 0.961 . S
C1117 H1125 0.960 . S
C1118 C1116 1.381 . S
C1118 C1119 1.394 . S
C1118 H1126 0.930 . S
C1119 C1118 1.394 . S
C1119 C1120 1.383 . S
C1119 H1127 0.929 . S
C1120 C1119 1.383 . S
C1120 C1121 1.377 . S
C1121 H1105 0.930 . S
C1121 C1120 1.377 . S
C1121 C1122 1.379 . S
C1122 H1106 0.931 . S
C1122 C1116 1.383 . S
C1122 C1121 1.379 . S
H1123 C1117 0.959 . S
H1124 C1117 0.961 . S
H1125 C1117 0.960 . S
H1126 C1118 0.930 . S
H1127 C1119 0.929 . S
H1128 C1136 0.929 . S
H1129 C1138 0.930 . S
H1130 C1140 0.930 . S
H1131 C1143 0.929 . S
H1132 C1146 0.930 . S
H1133 C1148 0.960 . S
H1134 C1148 0.960 . S
H1135 C1148 0.960 . S
C1136 H1128 0.929 . S
C1136 C1137 1.377 . S
C1136 C1138 1.384 . S
C1137 C1136 1.377 . S
C1137 C1143 1.390 . S
C1138 H1129 0.930 . S
C1138 C1136 1.384 . S
C1138 C1139 1.372 . S
C1139 C1138 1.372 . S
C1139 C1140 1.400 . S
C1139 C1144 1.490 . S
C1140 H1130 0.930 . S
C1140 C1139 1.400 . S
C1140 C1143 1.386 . S
H1141 C1157 0.930 . S
H1142 C1158 0.931 . S
C1143 H1131 0.929 . S
C1143 C1137 1.390 . S
C1143 C1140 1.386 . S
C1144 C1139 1.490 . S
C1144 C1146 1.395 . S
C1144 C1147 1.403 . S
H1145 C1151 0.930 . S
C1146 H1132 0.930 . S
C1146 C1144 1.395 . S
C1146 C1149 1.403 1_655 S
C1147 C1144 1.403 . S
C1147 C1148 1.524 . S
C1147 C1151 1.400 1_655 S
C1148 H1133 0.960 . S
C1148 H1134 0.960 . S
C1148 H1135 0.960 . S
C1148 C1147 1.524 . S
C1149 C1146 1.403 1_455 S
C1149 C1150 1.392 . S
C1149 C1153 1.495 . S
C1150 C1149 1.392 . S
C1150 C1151 1.385 . S
C1150 C1152 1.478 . S
C1151 H1145 0.930 . S
C1151 C1147 1.400 1_455 S
C1151 C1150 1.385 . S
C1152 C1150 1.478 . S
C1152 C1154 1.381 . S
C1152 C1158 1.383 . S
C1153 C1149 1.495 . S
C1153 H1159 0.959 . S
C1153 H1160 0.961 . S
C1153 H1161 0.960 . S
C1154 C1152 1.381 . S
C1154 C1155 1.394 . S
C1154 H1162 0.930 . S
C1155 C1154 1.394 . S
C1155 C1156 1.383 . S
C1155 H1163 0.929 . S
C1156 C1155 1.383 . S
C1156 C1157 1.377 . S
C1157 H1141 0.930 . S
C1157 C1156 1.377 . S
C1157 C1158 1.379 . S
C1158 H1142 0.931 . S
C1158 C1152 1.383 . S
C1158 C1157 1.379 . S
H1159 C1153 0.959 . S
H1160 C1153 0.961 . S
H1161 C1153 0.960 . S
H1162 C1154 0.930 . S
H1163 C1155 0.929 . S
H1164 C1172 0.929 . S
H1165 C1174 0.930 . S
H1166 C1176 0.930 . S
H1167 C1179 0.929 . S
H1168 C1182 0.930 . S
H1169 C1184 0.960 . S
H1170 C1184 0.960 . S
H1171 C1184 0.960 . S
C1172 H1164 0.929 . S
C1172 C1173 1.377 . S
C1172 C1174 1.384 . S
C1173 C1172 1.377 . S
C1173 C1179 1.390 . S
C1174 H1165 0.930 . S
C1174 C1172 1.384 . S
C1174 C1175 1.372 . S
C1175 C1174 1.372 . S
C1175 C1176 1.400 . S
C1175 C1180 1.490 . S
C1176 H1166 0.930 . S
C1176 C1175 1.400 . S
C1176 C1179 1.386 . S
H1177 C1193 0.930 . S
H1178 C1194 0.931 . S
C1179 H1167 0.929 . S
C1179 C1173 1.390 . S
C1179 C1176 1.386 . S
C1180 C1175 1.490 . S
C1180 C1182 1.395 . S
C1180 C1183 1.403 . S
H1181 C1187 0.930 . S
C1182 H1168 0.930 . S
C1182 C1180 1.395 . S
C1182 C1185 1.403 1_655 S
C1183 C1180 1.403 . S
C1183 C1184 1.524 . S
C1183 C1187 1.400 1_655 S
C1184 H1169 0.960 . S
C1184 H1170 0.960 . S
C1184 H1171 0.960 . S
C1184 C1183 1.524 . S
C1185 C1182 1.403 1_455 S
C1185 C1186 1.392 . S
C1185 C1189 1.495 . S
C1186 C1185 1.392 . S
C1186 C1187 1.385 . S
C1186 C1188 1.478 . S
C1187 H1181 0.930 . S
C1187 C1183 1.400 1_455 S
C1187 C1186 1.385 . S
C1188 C1186 1.478 . S
C1188 C1190 1.381 . S
C1188 C1194 1.383 . S
C1189 C1185 1.495 . S
C1189 H1195 0.959 . S
C1189 H1196 0.961 . S
C1189 H1197 0.960 . S
C1190 C1188 1.381 . S
C1190 C1191 1.394 . S
C1190 H1198 0.930 . S
C1191 C1190 1.394 . S
C1191 C1192 1.383 . S
C1191 H1199 0.929 . S
C1192 C1191 1.383 . S
C1192 C1193 1.377 . S
C1193 H1177 0.930 . S
C1193 C1192 1.377 . S
C1193 C1194 1.379 . S
C1194 H1178 0.931 . S
C1194 C1188 1.383 . S
C1194 C1193 1.379 . S
H1195 C1189 0.959 . S
H1196 C1189 0.961 . S
H1197 C1189 0.960 . S
H1198 C1190 0.930 . S
H1199 C1191 0.929 . S
H1200 C1208 0.929 . S
H1201 C1210 0.930 . S
H1202 C1212 0.930 . S
H1203 C1215 0.929 . S
H1204 C1218 0.930 . S
H1205 C1220 0.960 . S
H1206 C1220 0.960 . S
H1207 C1220 0.960 . S
C1208 H1200 0.929 . S
C1208 C1209 1.377 . S
C1208 C1210 1.384 . S
C1209 C1208 1.377 . S
C1209 C1215 1.390 . S
C1210 H1201 0.930 . S
C1210 C1208 1.384 . S
C1210 C1211 1.372 . S
C1211 C1210 1.372 . S
C1211 C1212 1.400 . S
C1211 C1216 1.490 . S
C1212 H1202 0.930 . S
C1212 C1211 1.400 . S
C1212 C1215 1.386 . S
H1213 C1229 0.930 . S
H1214 C1230 0.931 . S
C1215 H1203 0.929 . S
C1215 C1209 1.390 . S
C1215 C1212 1.386 . S
C1216 C1211 1.490 . S
C1216 C1218 1.395 1_565 S
C1216 C1219 1.403 . S
H1217 C1223 0.932 . S
C1218 H1204 0.930 . S
C1218 C1216 1.395 1_545 S
C1218 C1221 1.403 . S
C1219 C1216 1.403 . S
C1219 C1220 1.524 . S
C1219 C1223 1.415 . S
C1220 H1205 0.960 . S
C1220 H1206 0.960 . S
C1220 H1207 0.960 . S
C1220 C1219 1.524 . S
C1221 C1218 1.403 . S
C1221 C1222 1.392 . S
C1221 C1225 1.495 . S
C1222 C1221 1.392 . S
C1222 C1223 1.368 1_545 S
C1222 C1224 1.478 . S
C1223 H1217 0.932 . S
C1223 C1219 1.415 . S
C1223 C1222 1.368 1_565 S
C1224 C1222 1.478 . S
C1224 C1226 1.381 . S
C1224 C1230 1.383 . S
C1225 C1221 1.495 . S
C1225 H1231 0.959 . S
C1225 H1232 0.961 . S
C1225 H1233 0.960 . S
C1226 C1224 1.381 . S
C1226 C1227 1.394 . S
C1226 H1234 0.930 . S
C1227 C1226 1.394 . S
C1227 C1228 1.383 . S
C1227 H1235 0.929 . S
C1228 C1227 1.383 . S
C1228 C1229 1.377 . S
C1229 H1213 0.930 . S
C1229 C1228 1.377 . S
C1229 C1230 1.379 . S
C1230 H1214 0.931 . S
C1230 C1224 1.383 . S
C1230 C1229 1.379 . S
H1231 C1225 0.959 . S
H1232 C1225 0.961 . S
H1233 C1225 0.960 . S
H1234 C1226 0.930 . S
H1235 C1227 0.929 . S
H1236 C1244 0.929 . S
H1237 C1246 0.930 . S
H1238 C1248 0.930 . S
H1239 C1251 0.929 . S
H1240 C1254 0.930 . S
H1241 C1256 0.960 . S
H1242 C1256 0.960 . S
H1243 C1256 0.960 . S
C1244 H1236 0.929 . S
C1244 C1245 1.377 . S
C1244 C1246 1.384 . S
C1245 C1244 1.377 . S
C1245 C1251 1.390 . S
C1246 H1237 0.930 . S
C1246 C1244 1.384 . S
C1246 C1247 1.372 . S
C1247 C1246 1.372 . S
C1247 C1248 1.400 . S
C1247 C1252 1.490 . S
C1248 H1238 0.930 . S
C1248 C1247 1.400 . S
C1248 C1251 1.386 . S
H1249 C1265 0.930 . S
H1250 C1266 0.931 . S
C1251 H1239 0.929 . S
C1251 C1245 1.390 . S
C1251 C1248 1.386 . S
C1252 C1247 1.490 . S
C1252 C1254 1.395 . S
C1252 C1255 1.403 . S
H1253 C1259 0.930 . S
C1254 H1240 0.930 . S
C1254 C1252 1.395 . S
C1254 C1257 1.403 1_545 S
C1255 C1252 1.403 . S
C1255 C1256 1.524 . S
C1255 C1259 1.400 1_545 S
C1256 H1241 0.960 . S
C1256 H1242 0.960 . S
C1256 H1243 0.960 . S
C1256 C1255 1.524 . S
C1257 C1254 1.403 1_565 S
C1257 C1258 1.392 . S
C1257 C1261 1.495 . S
C1258 C1257 1.392 . S
C1258 C1259 1.385 . S
C1258 C1260 1.478 . S
C1259 H1253 0.930 . S
C1259 C1255 1.400 1_565 S
C1259 C1258 1.385 . S
C1260 C1258 1.478 . S
C1260 C1262 1.381 . S
C1260 C1266 1.383 . S
C1261 C1257 1.495 . S
C1261 H1267 0.959 . S
C1261 H1268 0.961 . S
C1261 H1269 0.960 . S
C1262 C1260 1.381 . S
C1262 C1263 1.394 . S
C1262 H1270 0.930 . S
C1263 C1262 1.394 . S
C1263 C1264 1.383 . S
C1263 H1271 0.929 . S
C1264 C1263 1.383 . S
C1264 C1265 1.377 . S
C1265 H1249 0.930 . S
C1265 C1264 1.377 . S
C1265 C1266 1.379 . S
C1266 H1250 0.931 . S
C1266 C1260 1.383 . S
C1266 C1265 1.379 . S
H1267 C1261 0.959 . S
H1268 C1261 0.961 . S
H1269 C1261 0.960 . S
H1270 C1262 0.930 . S
H1271 C1263 0.929 . S
H1272 C1280 0.929 . S
H1273 C1282 0.930 . S
H1274 C1284 0.930 . S
H1275 C1287 0.929 . S
H1276 C1290 0.930 . S
H1277 C1292 0.960 . S
H1278 C1292 0.960 1_545 S
H1279 C1292 0.972 . S
C1280 H1272 0.929 . S
C1280 C1281 1.377 . S
C1280 C1282 1.384 . S
C1281 C1280 1.377 . S
C1281 C1287 1.390 . S
C1282 H1273 0.930 . S
C1282 C1280 1.384 . S
C1282 C1283 1.372 . S
C1283 C1282 1.372 . S
C1283 C1284 1.400 . S
C1283 C1288 1.490 . S
C1284 H1274 0.930 . S
C1284 C1283 1.400 . S
C1284 C1287 1.386 . S
H1285 C1301 0.930 . S
H1286 C1302 0.931 . S
C1287 H1275 0.929 . S
C1287 C1281 1.390 . S
C1287 C1284 1.386 . S
C1288 C1283 1.490 . S
C1288 C1290 1.395 1_455 S
C1288 C1291 1.403 1_545 S
H1289 C1295 0.930 . S
C1290 H1276 0.930 . S
C1290 C1288 1.395 1_655 S
C1290 C1293 1.403 . S
C1291 C1288 1.403 1_565 S
C1291 C1292 1.524 . S
C1291 C1295 1.400 . S
C1292 H1277 0.960 . S
C1292 H1278 0.960 1_565 S
C1292 H1279 0.972 . S
C1292 C1291 1.524 . S
C1293 C1290 1.403 . S
C1293 C1294 1.392 1_545 S
C1293 C1297 1.495 . S
C1294 C1293 1.392 1_565 S
C1294 C1295 1.385 1_655 S
C1294 C1296 1.478 . S
C1295 H1289 0.930 . S
C1295 C1291 1.400 . S
C1295 C1294 1.385 1_455 S
C1296 C1294 1.478 . S
C1296 C1298 1.381 . S
C1296 C1302 1.383 . S
C1297 C1293 1.495 . S
C1297 H1303 0.959 . S
C1297 H1304 0.955 1_545 S
C1297 H1305 0.960 . S
C1298 C1296 1.381 . S
C1298 C1299 1.394 . S
C1298 H1306 0.930 . S
C1299 C1298 1.394 . S
C1299 C1300 1.383 . S
C1299 H1307 0.929 . S
C1300 C1299 1.383 . S
C1300 C1301 1.377 . S
C1301 H1285 0.930 . S
C1301 C1300 1.377 . S
C1301 C1302 1.379 . S
C1302 H1286 0.931 . S
C1302 C1296 1.383 . S
C1302 C1301 1.379 . S
H1303 C1297 0.959 . S
H1304 C1297 0.955 1_565 S
H1305 C1297 0.960 . S
H1306 C1298 0.930 . S
H1307 C1299 0.929 . S
H1308 C1316 0.929 . S
H1309 C1318 0.930 . S
H1310 C1320 0.930 . S
H1311 C1323 0.929 . S
H1312 C1326 0.930 . S
H1313 C1328 0.960 . S
H1314 C1328 0.960 . S
H1315 C1328 0.960 . S
C1316 H1308 0.929 . S
C1316 C1317 1.377 . S
C1316 C1318 1.384 . S
C1317 C1316 1.377 . S
C1317 C1323 1.390 . S
C1318 H1309 0.930 . S
C1318 C1316 1.384 . S
C1318 C1319 1.372 . S
C1319 C1318 1.372 . S
C1319 C1320 1.400 . S
C1319 C1324 1.490 . S
C1320 H1310 0.930 . S
C1320 C1319 1.400 . S
C1320 C1323 1.386 . S
H1321 C1337 0.930 . S
H1322 C1338 0.931 . S
C1323 H1311 0.929 . S
C1323 C1317 1.390 . S
C1323 C1320 1.386 . S
C1324 C1319 1.490 . S
C1324 C1326 1.395 1_565 S
C1324 C1327 1.403 1_455 S
H1325 C1331 0.930 . S
C1326 H1312 0.930 . S
C1326 C1324 1.395 1_545 S
C1326 C1329 1.403 . S
C1327 C1324 1.403 1_655 S
C1327 C1328 1.524 . S
C1327 C1331 1.400 1_565 S
C1328 H1313 0.960 . S
C1328 H1314 0.960 . S
C1328 H1315 0.960 . S
C1328 C1327 1.524 . S
C1329 C1326 1.403 . S
C1329 C1330 1.392 1_455 S
C1329 C1333 1.495 . S
C1330 C1329 1.392 1_655 S
C1330 C1331 1.385 . S
C1330 C1332 1.478 . S
C1331 H1325 0.930 . S
C1331 C1327 1.400 1_545 S
C1331 C1330 1.385 . S
C1332 C1330 1.478 . S
C1332 C1334 1.381 . S
C1332 C1338 1.383 . S
C1333 C1329 1.495 . S
C1333 H1339 0.959 . S
C1333 H1340 0.961 . S
C1333 H1341 0.960 . S
C1334 C1332 1.381 . S
C1334 C1335 1.394 . S
C1334 H1342 0.930 . S
C1335 C1334 1.394 . S
C1335 C1336 1.383 . S
C1335 H1343 0.929 . S
C1336 C1335 1.383 . S
C1336 C1337 1.377 . S
C1337 H1321 0.930 . S
C1337 C1336 1.377 . S
C1337 C1338 1.379 . S
C1338 H1322 0.931 . S
C1338 C1332 1.383 . S
C1338 C1337 1.379 . S
H1339 C1333 0.959 . S
H1340 C1333 0.961 . S
H1341 C1333 0.960 . S
H1342 C1334 0.930 . S
H1343 C1335 0.929 . S
H1344 C1352 0.929 . S
H1345 C1354 0.930 . S
H1346 C1356 0.930 . S
H1347 C1359 0.929 . S
H1348 C1362 0.928 1_545 S
H1349 C1364 0.960 1_556 S
H1350 C1364 0.960 . S
H1351 C1364 0.960 . S
C1352 H1344 0.929 . S
C1352 C1353 1.377 . S
C1352 C1354 1.384 . S
C1353 C1352 1.377 . S
C1353 C1359 1.390 . S
C1354 H1345 0.930 . S
C1354 C1352 1.384 . S
C1354 C1355 1.372 . S
C1355 C1354 1.372 . S
C1355 C1356 1.400 . S
C1355 C1360 1.490 . S
C1356 H1346 0.930 . S
C1356 C1355 1.400 . S
C1356 C1359 1.386 . S
H1357 C1373 0.930 . S
H1358 C1374 0.931 . S
C1359 H1347 0.929 . S
C1359 C1353 1.390 . S
C1359 C1356 1.386 . S
C1360 C1355 1.490 . S
C1360 C1362 1.388 1_545 S
C1360 C1363 1.403 . S
H1361 C1367 0.930 . S
C1362 H1348 0.928 1_565 S
C1362 C1360 1.388 1_565 S
C1362 C1365 1.410 1_554 S
C1363 C1360 1.403 . S
C1363 C1364 1.524 . S
C1363 C1367 1.400 1_544 S
C1364 H1349 0.960 1_554 S
C1364 H1350 0.960 . S
C1364 H1351 0.960 . S
C1364 C1363 1.524 . S
C1365 C1362 1.410 1_556 S
C1365 C1366 1.392 . S
C1365 C1369 1.495 . S
C1366 C1365 1.392 . S
C1366 C1367 1.385 . S
C1366 C1368 1.478 . S
C1367 H1361 0.930 . S
C1367 C1363 1.400 1_566 S
C1367 C1366 1.385 . S
C1368 C1366 1.478 . S
C1368 C1370 1.381 . S
C1368 C1374 1.383 . S
C1369 C1365 1.495 . S
C1369 H1375 0.959 1_556 S
C1369 H1376 0.961 . S
C1369 H1377 0.960 . S
C1370 C1368 1.381 . S
C1370 C1371 1.394 . S
C1370 H1378 0.930 . S
C1371 C1370 1.394 . S
C1371 C1372 1.383 . S
C1371 H1379 0.929 . S
C1372 C1371 1.383 . S
C1372 C1373 1.377 . S
C1373 H1357 0.930 . S
C1373 C1372 1.377 . S
C1373 C1374 1.379 . S
C1374 H1358 0.931 . S
C1374 C1368 1.383 . S
C1374 C1373 1.379 . S
H1375 C1369 0.959 1_554 S
H1376 C1369 0.961 . S
H1377 C1369 0.960 . S
H1378 C1370 0.930 . S
H1379 C1371 0.929 . S
H1380 C1388 0.929 . S
H1381 C1390 0.930 . S
H1382 C1392 0.930 . S
H1383 C1395 0.929 . S
H1384 C1398 0.930 . S
H1385 C1400 0.960 . S
H1386 C1400 0.960 . S
H1387 C1400 0.960 1_455 S
C1388 H1380 0.929 . S
C1388 C1389 1.377 . S
C1388 C1390 1.384 . S
C1389 C1388 1.377 . S
C1389 C1395 1.390 . S
C1390 H1381 0.930 . S
C1390 C1388 1.384 . S
C1390 C1391 1.372 . S
C1391 C1390 1.372 . S
C1391 C1392 1.400 . S
C1391 C1396 1.490 . S
C1392 H1382 0.930 . S
C1392 C1391 1.400 . S
C1392 C1395 1.386 . S
H1393 C1409 0.930 . S
H1394 C1410 0.931 . S
C1395 H1383 0.929 . S
C1395 C1389 1.390 . S
C1395 C1392 1.386 . S
C1396 C1391 1.490 . S
C1396 C1398 1.395 1_556 S
C1396 C1399 1.403 1_455 S
H1397 C1403 0.930 . S
C1398 H1384 0.930 . S
C1398 C1396 1.395 1_554 S
C1398 C1401 1.403 . S
C1399 C1396 1.403 1_655 S
C1399 C1400 1.524 . S
C1399 C1403 1.400 . S
C1400 H1385 0.960 . S
C1400 H1386 0.960 . S
C1400 H1387 0.960 1_655 S
C1400 C1399 1.524 . S
C1401 C1398 1.403 . S
C1401 C1402 1.392 1_455 S
C1401 C1405 1.495 . S
C1402 C1401 1.392 1_655 S
C1402 C1403 1.385 1_554 S
C1402 C1404 1.478 . S
C1403 H1397 0.930 . S
C1403 C1399 1.400 . S
C1403 C1402 1.385 1_556 S
C1404 C1402 1.478 . S
C1404 C1406 1.381 . S
C1404 C1410 1.383 . S
C1405 C1401 1.495 . S
C1405 H1411 0.959 . S
C1405 H1412 0.961 . S
C1405 H1413 0.961 1_455 S
C1406 C1404 1.381 . S
C1406 C1407 1.394 . S
C1406 H1414 0.930 . S
C1407 C1406 1.394 . S
C1407 C1408 1.383 . S
C1407 H1415 0.929 . S
C1408 C1407 1.383 . S
C1408 C1409 1.377 . S
C1409 H1393 0.930 . S
C1409 C1408 1.377 . S
C1409 C1410 1.379 . S
C1410 H1394 0.931 . S
C1410 C1404 1.383 . S
C1410 C1409 1.379 . S
H1411 C1405 0.959 . S
H1412 C1405 0.961 . S
H1413 C1405 0.961 1_655 S
H1414 C1406 0.930 . S
H1415 C1407 0.929 . S
H1416 C1424 0.929 . S
H1417 C1426 0.930 . S
H1418 C1428 0.930 . S
H1419 C1431 0.929 . S
H1420 C1434 0.930 . S
H1421 C1436 0.960 . S
H1422 C1436 0.977 . S
H1423 C1436 0.959 . S
C1424 H1416 0.929 . S
C1424 C1425 1.377 . S
C1424 C1426 1.384 . S
C1425 C1424 1.377 . S
C1425 C1431 1.390 . S
C1426 H1417 0.930 . S
C1426 C1424 1.384 . S
C1426 C1427 1.372 . S
C1427 C1426 1.372 . S
C1427 C1428 1.400 . S
C1427 C1432 1.490 . S
C1428 H1418 0.930 . S
C1428 C1427 1.400 . S
C1428 C1431 1.386 . S
H1429 C1445 0.930 . S
H1430 C1446 0.931 . S
C1431 H1419 0.929 . S
C1431 C1425 1.390 . S
C1431 C1428 1.386 . S
C1432 C1427 1.490 . S
C1432 C1434 1.395 1_545 S
C1432 C1435 1.403 1_556 S
H1433 C1439 0.930 . S
C1434 H1420 0.930 . S
C1434 C1432 1.395 1_565 S
C1434 C1437 1.403 . S
C1435 C1432 1.403 1_554 S
C1435 C1436 1.524 . S
C1435 C1439 1.400 . S
C1436 H1421 0.960 . S
C1436 H1422 0.977 . S
C1436 H1423 0.959 . S
C1436 C1435 1.524 . S
C1437 C1434 1.403 . S
C1437 C1438 1.392 1_556 S
C1437 C1441 1.495 . S
C1438 C1437 1.392 1_554 S
C1438 C1439 1.385 1_565 S
C1438 C1440 1.478 . S
C1439 H1433 0.930 . S
C1439 C1435 1.400 . S
C1439 C1438 1.385 1_545 S
C1440 C1438 1.478 . S
C1440 C1442 1.381 . S
C1440 C1446 1.383 . S
C1441 C1437 1.495 . S
C1441 H1447 0.959 . S
C1441 H1448 0.961 . S
C1441 H1449 0.960 . S
C1442 C1440 1.381 . S
C1442 C1443 1.394 . S
C1442 H1450 0.930 . S
C1443 C1442 1.394 . S
C1443 C1444 1.383 . S
C1443 H1451 0.929 . S
C1444 C1443 1.383 . S
C1444 C1445 1.377 . S
C1445 H1429 0.930 . S
C1445 C1444 1.377 . S
C1445 C1446 1.379 . S
C1446 H1430 0.931 . S
C1446 C1440 1.383 . S
C1446 C1445 1.379 . S
H1447 C1441 0.959 . S
H1448 C1441 0.961 . S
H1449 C1441 0.960 . S
H1450 C1442 0.930 . S
H1451 C1443 0.929 . S
H1452 C1460 0.929 . S
H1453 C1462 0.930 . S
H1454 C1464 0.930 . S
H1455 C1467 0.929 . S
H1456 C1470 0.930 1_556 S
H1457 C1472 0.960 1_455 S
H1458 C1472 0.960 . S
H1459 C1472 0.960 . S
C1460 H1452 0.929 . S
C1460 C1461 1.377 . S
C1460 C1462 1.384 . S
C1461 C1460 1.377 . S
C1461 C1467 1.390 . S
C1462 H1453 0.930 . S
C1462 C1460 1.384 . S
C1462 C1463 1.372 . S
C1463 C1462 1.372 . S
C1463 C1464 1.400 . S
C1463 C1468 1.490 . S
C1464 H1454 0.930 . S
C1464 C1463 1.400 . S
C1464 C1467 1.386 . S
H1465 C1481 0.930 . S
H1466 C1482 0.931 . S
C1467 H1455 0.929 . S
C1467 C1461 1.390 . S
C1467 C1464 1.386 . S
C1468 C1463 1.490 . S
C1468 C1470 1.392 1_556 S
C1468 C1471 1.403 . S
H1469 C1475 0.932 . S
C1470 H1456 0.930 1_554 S
C1470 C1468 1.392 1_554 S
C1470 C1473 1.406 1_655 S
C1471 C1468 1.403 . S
C1471 C1472 1.524 . S
C1471 C1475 1.373 1_656 S
C1472 H1457 0.960 1_655 S
C1472 H1458 0.960 . S
C1472 H1459 0.960 . S
C1472 C1471 1.524 . S
C1473 C1470 1.406 1_455 S
C1473 C1474 1.392 . S
C1473 C1477 1.495 . S
C1474 C1473 1.392 . S
C1474 C1475 1.412 . S
C1474 C1476 1.478 . S
C1475 H1469 0.932 . S
C1475 C1471 1.373 1_454 S
C1475 C1474 1.412 . S
C1476 C1474 1.478 . S
C1476 C1478 1.381 . S
C1476 C1482 1.383 . S
C1477 C1473 1.495 . S
C1477 H1483 0.959 1_455 S
C1477 H1484 0.961 . S
C1477 H1485 0.960 . S
C1478 C1476 1.381 . S
C1478 C1479 1.394 . S
C1478 H1486 0.930 . S
C1479 C1478 1.394 . S
C1479 C1480 1.383 . S
C1479 H1487 0.929 . S
C1480 C1479 1.383 . S
C1480 C1481 1.377 . S
C1481 H1465 0.930 . S
C1481 C1480 1.377 . S
C1481 C1482 1.379 . S
C1482 H1466 0.931 . S
C1482 C1476 1.383 . S
C1482 C1481 1.379 . S
H1483 C1477 0.959 1_655 S
H1484 C1477 0.961 . S
H1485 C1477 0.960 . S
H1486 C1478 0.930 . S
H1487 C1479 0.929 . S
C417 C190 0.937 . S
C436 C9 0.873 . S
C453 C54 0.940 . S
C472 C213 0.851 . S
C489 C77 0.907 . S
C508 C258 0.924 . S
C525 C145 0.911 . S
C544 C122 0.920 . S
C561 C394 0.934 . S
C580 C43 0.921 . S
C597 C88 0.939 . S
C616 C281 0.906 . S
C633 C111 0.899 . S
C652 C326 0.936 . S
C669 C20 0.940 . S
C688 C349 0.851 . S
C705 C224 0.939 . S
C724 C383 0.907 . S
C741 C179 0.901 . S
C760 C360 0.951 . S
C777 C247 0.916 . S
C796 C292 0.919 . S
C813 C156 0.935 . S
C832 C315 0.904 . S
C849 C39 0.232 . S
C868 C5 0.225 . S
C885 C70 0.726 . S
C904 C36 0.705 . S
C921 C107 0.258 . S
C940 C73 0.297 . S
C957 C104 0.724 . S
C976 C2 0.714 . S
C993 C345 0.235 . S
C1012 C141 0.300 . S
C1029 C376 0.715 . S
C1048 C172 0.754 . S
C1065 C209 0.243 . S
C1084 C277 0.321 . S
C1101 C240 0.708 . S
C1120 C308 0.755 . S
C1137 C311 0.253 . S
C1156 C379 0.321 . S
C1173 C243 0.256 . S
C1192 C175 0.244 . S
C1209 C206 0.709 . S
C1228 C138 0.745 . S
C1245 C342 0.725 . S
C1264 C274 0.669 . S
C1281 C33 1.139 . S
C1300 C101 1.118 . S
C1317 C67 1.132 . S
C1336 C135 1.151 . S
C1353 C169 1.140 . S
C1372 C305 1.115 . S
C1389 C203 1.137 . S
C1408 C339 1.126 . S
C1425 C373 1.138 . S
C1444 C237 1.122 . S
C1461 C271 1.134 . S
C1480 C407 1.142 . S
