# Generated by pormake.
# Topology ukw, (4)-cn, num edge types: 1
# Building blocks:
#     Node 0, Type 0, BuildingBlock: NAWXER_clean_sbu_0, # of connection points: 4
#     Node 1, Type 0, BuildingBlock: NAWXER_clean_sbu_0, # of connection points: 4
#     Node 2, Type 0, BuildingBlock: NAWXER_clean_sbu_0, # of connection points: 4
#     Node 3, Type 0, BuildingBlock: NAWXER_clean_sbu_0, # of connection points: 4
#     Node 4, Type 0, BuildingBlock: NAWXER_clean_sbu_0, # of connection points: 4
#     Node 5, Type 0, BuildingBlock: NAWXER_clean_sbu_0, # of connection points: 4
#     Node 6, Type 0, BuildingBlock: NAWXER_clean_sbu_0, # of connection points: 4
#     Node 7, Type 0, BuildingBlock: NAWXER_clean_sbu_0, # of connection points: 4
#     Node 8, Type 0, BuildingBlock: NAWXER_clean_sbu_0, # of connection points: 4
#     Node 9, Type 0, BuildingBlock: NAWXER_clean_sbu_0, # of connection points: 4
#     Node 10, Type 0, BuildingBlock: NAWXER_clean_sbu_0, # of connection points: 4
#     Node 11, Type 0, BuildingBlock: NAWXER_clean_sbu_0, # of connection points: 4
#     Node 12, Type 0, BuildingBlock: NAWXER_clean_sbu_0, # of connection points: 4
#     Node 13, Type 0, BuildingBlock: NAWXER_clean_sbu_0, # of connection points: 4
#     Node 14, Type 0, BuildingBlock: NAWXER_clean_sbu_0, # of connection points: 4
#     Node 15, Type 0, BuildingBlock: NAWXER_clean_sbu_0, # of connection points: 4
#     Node 16, Type 0, BuildingBlock: NAWXER_clean_sbu_0, # of connection points: 4
#     Node 17, Type 0, BuildingBlock: NAWXER_clean_sbu_0, # of connection points: 4
#     Node 18, Type 0, BuildingBlock: NAWXER_clean_sbu_0, # of connection points: 4
#     Node 19, Type 0, BuildingBlock: NAWXER_clean_sbu_0, # of connection points: 4
#     Node 20, Type 0, BuildingBlock: NAWXER_clean_sbu_0, # of connection points: 4
#     Node 21, Type 0, BuildingBlock: NAWXER_clean_sbu_0, # of connection points: 4
#     Node 22, Type 0, BuildingBlock: NAWXER_clean_sbu_0, # of connection points: 4
#     Node 23, Type 0, BuildingBlock: NAWXER_clean_sbu_0, # of connection points: 4
#     Node 24, Type 0, BuildingBlock: NAWXER_clean_sbu_0, # of connection points: 4
#     Node 25, Type 0, BuildingBlock: NAWXER_clean_sbu_0, # of connection points: 4
#     Node 26, Type 0, BuildingBlock: NAWXER_clean_sbu_0, # of connection points: 4
#     Node 27, Type 0, BuildingBlock: NAWXER_clean_sbu_0, # of connection points: 4
#     Node 28, Type 0, BuildingBlock: NAWXER_clean_sbu_0, # of connection points: 4
#     Node 29, Type 0, BuildingBlock: NAWXER_clean_sbu_0, # of connection points: 4
#     Node 30, Type 0, BuildingBlock: NAWXER_clean_sbu_0, # of connection points: 4
#     Node 31, Type 0, BuildingBlock: NAWXER_clean_sbu_0, # of connection points: 4
#     Node 32, Type 0, BuildingBlock: NAWXER_clean_sbu_0, # of connection points: 4
#     Node 33, Type 0, BuildingBlock: NAWXER_clean_sbu_0, # of connection points: 4
#     Node 34, Type 0, BuildingBlock: NAWXER_clean_sbu_0, # of connection points: 4
#     Node 35, Type 0, BuildingBlock: NAWXER_clean_sbu_0, # of connection points: 4
#     Node 36, Type 0, BuildingBlock: NAWXER_clean_sbu_0, # of connection points: 4
#     Node 37, Type 0, BuildingBlock: NAWXER_clean_sbu_0, # of connection points: 4
#     Node 38, Type 0, BuildingBlock: NAWXER_clean_sbu_0, # of connection points: 4
#     Node 39, Type 0, BuildingBlock: NAWXER_clean_sbu_0, # of connection points: 4
#     Node 40, Type 0, BuildingBlock: NAWXER_clean_sbu_0, # of connection points: 4
#     Node 41, Type 0, BuildingBlock: NAWXER_clean_sbu_0, # of connection points: 4
#     Node 42, Type 0, BuildingBlock: NAWXER_clean_sbu_0, # of connection points: 4
#     Node 43, Type 0, BuildingBlock: NAWXER_clean_sbu_0, # of connection points: 4
#     Node 44, Type 0, BuildingBlock: NAWXER_clean_sbu_0, # of connection points: 4
#     Node 45, Type 0, BuildingBlock: NAWXER_clean_sbu_0, # of connection points: 4
#     Node 46, Type 0, BuildingBlock: NAWXER_clean_sbu_0, # of connection points: 4
#     Node 47, Type 0, BuildingBlock: NAWXER_clean_sbu_0, # of connection points: 4
#     Node 48, Type 0, BuildingBlock: NAWXER_clean_sbu_0, # of connection points: 4
#     Node 49, Type 0, BuildingBlock: NAWXER_clean_sbu_0, # of connection points: 4
#     Node 50, Type 0, BuildingBlock: NAWXER_clean_sbu_0, # of connection points: 4
#     Node 51, Type 0, BuildingBlock: NAWXER_clean_sbu_0, # of connection points: 4
#     Node 52, Type 0, BuildingBlock: NAWXER_clean_sbu_0, # of connection points: 4
#     Node 53, Type 0, BuildingBlock: NAWXER_clean_sbu_0, # of connection points: 4
#     Node 54, Type 0, BuildingBlock: NAWXER_clean_sbu_0, # of connection points: 4
#     Node 55, Type 0, BuildingBlock: NAWXER_clean_sbu_0, # of connection points: 4
#     Node 56, Type 0, BuildingBlock: NAWXER_clean_sbu_0, # of connection points: 4
#     Node 57, Type 0, BuildingBlock: NAWXER_clean_sbu_0, # of connection points: 4
#     Node 58, Type 0, BuildingBlock: NAWXER_clean_sbu_0, # of connection points: 4
#     Node 59, Type 0, BuildingBlock: NAWXER_clean_sbu_0, # of connection points: 4
#     Node 60, Type 0, BuildingBlock: NAWXER_clean_sbu_0, # of connection points: 4
#     Node 61, Type 0, BuildingBlock: NAWXER_clean_sbu_0, # of connection points: 4
#     Node 62, Type 0, BuildingBlock: NAWXER_clean_sbu_0, # of connection points: 4
#     Node 63, Type 0, BuildingBlock: NAWXER_clean_sbu_0, # of connection points: 4
#     Node 64, Type 0, BuildingBlock: NAWXER_clean_sbu_0, # of connection points: 4
#     Node 65, Type 0, BuildingBlock: NAWXER_clean_sbu_0, # of connection points: 4
#     Node 66, Type 0, BuildingBlock: NAWXER_clean_sbu_0, # of connection points: 4
#     Node 67, Type 0, BuildingBlock: NAWXER_clean_sbu_0, # of connection points: 4
#     Node 68, Type 0, BuildingBlock: NAWXER_clean_sbu_0, # of connection points: 4
#     Node 69, Type 0, BuildingBlock: NAWXER_clean_sbu_0, # of connection points: 4
#     Node 70, Type 0, BuildingBlock: NAWXER_clean_sbu_0, # of connection points: 4
#     Node 71, Type 0, BuildingBlock: NAWXER_clean_sbu_0, # of connection points: 4
#     Node 72, Type 0, BuildingBlock: NAWXER_clean_sbu_0, # of connection points: 4
#     Node 73, Type 0, BuildingBlock: NAWXER_clean_sbu_0, # of connection points: 4
#     Node 74, Type 0, BuildingBlock: NAWXER_clean_sbu_0, # of connection points: 4
#     Node 75, Type 0, BuildingBlock: NAWXER_clean_sbu_0, # of connection points: 4
#     Node 76, Type 0, BuildingBlock: NAWXER_clean_sbu_0, # of connection points: 4
#     Node 77, Type 0, BuildingBlock: NAWXER_clean_sbu_0, # of connection points: 4
#     Node 78, Type 0, BuildingBlock: NAWXER_clean_sbu_0, # of connection points: 4
#     Node 79, Type 0, BuildingBlock: NAWXER_clean_sbu_0, # of connection points: 4
#     Node 80, Type 0, BuildingBlock: NAWXER_clean_sbu_0, # of connection points: 4
#     Node 81, Type 0, BuildingBlock: NAWXER_clean_sbu_0, # of connection points: 4
#     Node 82, Type 0, BuildingBlock: NAWXER_clean_sbu_0, # of connection points: 4
#     Node 83, Type 0, BuildingBlock: NAWXER_clean_sbu_0, # of connection points: 4
#     Node 84, Type 0, BuildingBlock: NAWXER_clean_sbu_0, # of connection points: 4
#     Node 85, Type 0, BuildingBlock: NAWXER_clean_sbu_0, # of connection points: 4
#     Node 86, Type 0, BuildingBlock: NAWXER_clean_sbu_0, # of connection points: 4
#     Node 87, Type 0, BuildingBlock: NAWXER_clean_sbu_0, # of connection points: 4
#     Node 88, Type 0, BuildingBlock: NAWXER_clean_sbu_0, # of connection points: 4
#     Node 89, Type 0, BuildingBlock: NAWXER_clean_sbu_0, # of connection points: 4
#     Node 90, Type 0, BuildingBlock: NAWXER_clean_sbu_0, # of connection points: 4
#     Node 91, Type 0, BuildingBlock: NAWXER_clean_sbu_0, # of connection points: 4
#     Node 92, Type 0, BuildingBlock: NAWXER_clean_sbu_0, # of connection points: 4
#     Node 93, Type 0, BuildingBlock: NAWXER_clean_sbu_0, # of connection points: 4
#     Node 94, Type 0, BuildingBlock: NAWXER_clean_sbu_0, # of connection points: 4
#     Node 95, Type 0, BuildingBlock: NAWXER_clean_sbu_0, # of connection points: 4
#     Edge 96, Type (0, 0), BuildingBlock: OJICUG_clean_linker_0, # of connection points: 2
#     Edge 97, Type (0, 0), BuildingBlock: OJICUG_clean_linker_0, # of connection points: 2
#     Edge 98, Type (0, 0), BuildingBlock: OJICUG_clean_linker_0, # of connection points: 2
#     Edge 99, Type (0, 0), BuildingBlock: OJICUG_clean_linker_0, # of connection points: 2
#     Edge 100, Type (0, 0), BuildingBlock: OJICUG_clean_linker_0, # of connection points: 2
#     Edge 101, Type (0, 0), BuildingBlock: OJICUG_clean_linker_0, # of connection points: 2
#     Edge 102, Type (0, 0), BuildingBlock: OJICUG_clean_linker_0, # of connection points: 2
#     Edge 103, Type (0, 0), BuildingBlock: OJICUG_clean_linker_0, # of connection points: 2
#     Edge 104, Type (0, 0), BuildingBlock: OJICUG_clean_linker_0, # of connection points: 2
#     Edge 105, Type (0, 0), BuildingBlock: OJICUG_clean_linker_0, # of connection points: 2
#     Edge 106, Type (0, 0), BuildingBlock: OJICUG_clean_linker_0, # of connection points: 2
#     Edge 107, Type (0, 0), BuildingBlock: OJICUG_clean_linker_0, # of connection points: 2
#     Edge 108, Type (0, 0), BuildingBlock: OJICUG_clean_linker_0, # of connection points: 2
#     Edge 109, Type (0, 0), BuildingBlock: OJICUG_clean_linker_0, # of connection points: 2
#     Edge 110, Type (0, 0), BuildingBlock: OJICUG_clean_linker_0, # of connection points: 2
#     Edge 111, Type (0, 0), BuildingBlock: OJICUG_clean_linker_0, # of connection points: 2
#     Edge 112, Type (0, 0), BuildingBlock: OJICUG_clean_linker_0, # of connection points: 2
#     Edge 113, Type (0, 0), BuildingBlock: OJICUG_clean_linker_0, # of connection points: 2
#     Edge 114, Type (0, 0), BuildingBlock: OJICUG_clean_linker_0, # of connection points: 2
#     Edge 115, Type (0, 0), BuildingBlock: OJICUG_clean_linker_0, # of connection points: 2
#     Edge 116, Type (0, 0), BuildingBlock: OJICUG_clean_linker_0, # of connection points: 2
#     Edge 117, Type (0, 0), BuildingBlock: OJICUG_clean_linker_0, # of connection points: 2
#     Edge 118, Type (0, 0), BuildingBlock: OJICUG_clean_linker_0, # of connection points: 2
#     Edge 119, Type (0, 0), BuildingBlock: OJICUG_clean_linker_0, # of connection points: 2
#     Edge 120, Type (0, 0), BuildingBlock: OJICUG_clean_linker_0, # of connection points: 2
#     Edge 121, Type (0, 0), BuildingBlock: OJICUG_clean_linker_0, # of connection points: 2
#     Edge 122, Type (0, 0), BuildingBlock: OJICUG_clean_linker_0, # of connection points: 2
#     Edge 123, Type (0, 0), BuildingBlock: OJICUG_clean_linker_0, # of connection points: 2
#     Edge 124, Type (0, 0), BuildingBlock: OJICUG_clean_linker_0, # of connection points: 2
#     Edge 125, Type (0, 0), BuildingBlock: OJICUG_clean_linker_0, # of connection points: 2
#     Edge 126, Type (0, 0), BuildingBlock: OJICUG_clean_linker_0, # of connection points: 2
#     Edge 127, Type (0, 0), BuildingBlock: OJICUG_clean_linker_0, # of connection points: 2
#     Edge 128, Type (0, 0), BuildingBlock: OJICUG_clean_linker_0, # of connection points: 2
#     Edge 129, Type (0, 0), BuildingBlock: OJICUG_clean_linker_0, # of connection points: 2
#     Edge 130, Type (0, 0), BuildingBlock: OJICUG_clean_linker_0, # of connection points: 2
#     Edge 131, Type (0, 0), BuildingBlock: OJICUG_clean_linker_0, # of connection points: 2
#     Edge 132, Type (0, 0), BuildingBlock: OJICUG_clean_linker_0, # of connection points: 2
#     Edge 133, Type (0, 0), BuildingBlock: OJICUG_clean_linker_0, # of connection points: 2
#     Edge 134, Type (0, 0), BuildingBlock: OJICUG_clean_linker_0, # of connection points: 2
#     Edge 135, Type (0, 0), BuildingBlock: OJICUG_clean_linker_0, # of connection points: 2
#     Edge 136, Type (0, 0), BuildingBlock: OJICUG_clean_linker_0, # of connection points: 2
#     Edge 137, Type (0, 0), BuildingBlock: OJICUG_clean_linker_0, # of connection points: 2
#     Edge 138, Type (0, 0), BuildingBlock: OJICUG_clean_linker_0, # of connection points: 2
#     Edge 139, Type (0, 0), BuildingBlock: OJICUG_clean_linker_0, # of connection points: 2
#     Edge 140, Type (0, 0), BuildingBlock: OJICUG_clean_linker_0, # of connection points: 2
#     Edge 141, Type (0, 0), BuildingBlock: OJICUG_clean_linker_0, # of connection points: 2
#     Edge 142, Type (0, 0), BuildingBlock: OJICUG_clean_linker_0, # of connection points: 2
#     Edge 143, Type (0, 0), BuildingBlock: OJICUG_clean_linker_0, # of connection points: 2
#     Edge 144, Type (0, 0), BuildingBlock: OJICUG_clean_linker_0, # of connection points: 2
#     Edge 145, Type (0, 0), BuildingBlock: OJICUG_clean_linker_0, # of connection points: 2
#     Edge 146, Type (0, 0), BuildingBlock: OJICUG_clean_linker_0, # of connection points: 2
#     Edge 147, Type (0, 0), BuildingBlock: OJICUG_clean_linker_0, # of connection points: 2
#     Edge 148, Type (0, 0), BuildingBlock: OJICUG_clean_linker_0, # of connection points: 2
#     Edge 149, Type (0, 0), BuildingBlock: OJICUG_clean_linker_0, # of connection points: 2
#     Edge 150, Type (0, 0), BuildingBlock: OJICUG_clean_linker_0, # of connection points: 2
#     Edge 151, Type (0, 0), BuildingBlock: OJICUG_clean_linker_0, # of connection points: 2
#     Edge 152, Type (0, 0), BuildingBlock: OJICUG_clean_linker_0, # of connection points: 2
#     Edge 153, Type (0, 0), BuildingBlock: OJICUG_clean_linker_0, # of connection points: 2
#     Edge 154, Type (0, 0), BuildingBlock: OJICUG_clean_linker_0, # of connection points: 2
#     Edge 155, Type (0, 0), BuildingBlock: OJICUG_clean_linker_0, # of connection points: 2
#     Edge 156, Type (0, 0), BuildingBlock: OJICUG_clean_linker_0, # of connection points: 2
#     Edge 157, Type (0, 0), BuildingBlock: OJICUG_clean_linker_0, # of connection points: 2
#     Edge 158, Type (0, 0), BuildingBlock: OJICUG_clean_linker_0, # of connection points: 2
#     Edge 159, Type (0, 0), BuildingBlock: OJICUG_clean_linker_0, # of connection points: 2
#     Edge 160, Type (0, 0), BuildingBlock: OJICUG_clean_linker_0, # of connection points: 2
#     Edge 161, Type (0, 0), BuildingBlock: OJICUG_clean_linker_0, # of connection points: 2
#     Edge 162, Type (0, 0), BuildingBlock: OJICUG_clean_linker_0, # of connection points: 2
#     Edge 163, Type (0, 0), BuildingBlock: OJICUG_clean_linker_0, # of connection points: 2
#     Edge 164, Type (0, 0), BuildingBlock: OJICUG_clean_linker_0, # of connection points: 2
#     Edge 165, Type (0, 0), BuildingBlock: OJICUG_clean_linker_0, # of connection points: 2
#     Edge 166, Type (0, 0), BuildingBlock: OJICUG_clean_linker_0, # of connection points: 2
#     Edge 167, Type (0, 0), BuildingBlock: OJICUG_clean_linker_0, # of connection points: 2
#     Edge 168, Type (0, 0), BuildingBlock: OJICUG_clean_linker_0, # of connection points: 2
#     Edge 169, Type (0, 0), BuildingBlock: OJICUG_clean_linker_0, # of connection points: 2
#     Edge 170, Type (0, 0), BuildingBlock: OJICUG_clean_linker_0, # of connection points: 2
#     Edge 171, Type (0, 0), BuildingBlock: OJICUG_clean_linker_0, # of connection points: 2
#     Edge 172, Type (0, 0), BuildingBlock: OJICUG_clean_linker_0, # of connection points: 2
#     Edge 173, Type (0, 0), BuildingBlock: OJICUG_clean_linker_0, # of connection points: 2
#     Edge 174, Type (0, 0), BuildingBlock: OJICUG_clean_linker_0, # of connection points: 2
#     Edge 175, Type (0, 0), BuildingBlock: OJICUG_clean_linker_0, # of connection points: 2
#     Edge 176, Type (0, 0), BuildingBlock: OJICUG_clean_linker_0, # of connection points: 2
#     Edge 177, Type (0, 0), BuildingBlock: OJICUG_clean_linker_0, # of connection points: 2
#     Edge 178, Type (0, 0), BuildingBlock: OJICUG_clean_linker_0, # of connection points: 2
#     Edge 179, Type (0, 0), BuildingBlock: OJICUG_clean_linker_0, # of connection points: 2
#     Edge 180, Type (0, 0), BuildingBlock: OJICUG_clean_linker_0, # of connection points: 2
#     Edge 181, Type (0, 0), BuildingBlock: OJICUG_clean_linker_0, # of connection points: 2
#     Edge 182, Type (0, 0), BuildingBlock: OJICUG_clean_linker_0, # of connection points: 2
#     Edge 183, Type (0, 0), BuildingBlock: OJICUG_clean_linker_0, # of connection points: 2
#     Edge 184, Type (0, 0), BuildingBlock: OJICUG_clean_linker_0, # of connection points: 2
#     Edge 185, Type (0, 0), BuildingBlock: OJICUG_clean_linker_0, # of connection points: 2
#     Edge 186, Type (0, 0), BuildingBlock: OJICUG_clean_linker_0, # of connection points: 2
#     Edge 187, Type (0, 0), BuildingBlock: OJICUG_clean_linker_0, # of connection points: 2
#     Edge 188, Type (0, 0), BuildingBlock: OJICUG_clean_linker_0, # of connection points: 2
#     Edge 189, Type (0, 0), BuildingBlock: OJICUG_clean_linker_0, # of connection points: 2
#     Edge 190, Type (0, 0), BuildingBlock: OJICUG_clean_linker_0, # of connection points: 2
#     Edge 191, Type (0, 0), BuildingBlock: OJICUG_clean_linker_0, # of connection points: 2
#     Edge 192, Type (0, 0), BuildingBlock: OJICUG_clean_linker_0, # of connection points: 2
#     Edge 193, Type (0, 0), BuildingBlock: OJICUG_clean_linker_0, # of connection points: 2
#     Edge 194, Type (0, 0), BuildingBlock: OJICUG_clean_linker_0, # of connection points: 2
#     Edge 195, Type (0, 0), BuildingBlock: OJICUG_clean_linker_0, # of connection points: 2
#     Edge 196, Type (0, 0), BuildingBlock: OJICUG_clean_linker_0, # of connection points: 2
#     Edge 197, Type (0, 0), BuildingBlock: OJICUG_clean_linker_0, # of connection points: 2
#     Edge 198, Type (0, 0), BuildingBlock: OJICUG_clean_linker_0, # of connection points: 2
#     Edge 199, Type (0, 0), BuildingBlock: OJICUG_clean_linker_0, # of connection points: 2
#     Edge 200, Type (0, 0), BuildingBlock: OJICUG_clean_linker_0, # of connection points: 2
#     Edge 201, Type (0, 0), BuildingBlock: OJICUG_clean_linker_0, # of connection points: 2
#     Edge 202, Type (0, 0), BuildingBlock: OJICUG_clean_linker_0, # of connection points: 2
#     Edge 203, Type (0, 0), BuildingBlock: OJICUG_clean_linker_0, # of connection points: 2
#     Edge 204, Type (0, 0), BuildingBlock: OJICUG_clean_linker_0, # of connection points: 2
#     Edge 205, Type (0, 0), BuildingBlock: OJICUG_clean_linker_0, # of connection points: 2
#     Edge 206, Type (0, 0), BuildingBlock: OJICUG_clean_linker_0, # of connection points: 2
#     Edge 207, Type (0, 0), BuildingBlock: OJICUG_clean_linker_0, # of connection points: 2
#     Edge 208, Type (0, 0), BuildingBlock: OJICUG_clean_linker_0, # of connection points: 2
#     Edge 209, Type (0, 0), BuildingBlock: OJICUG_clean_linker_0, # of connection points: 2
#     Edge 210, Type (0, 0), BuildingBlock: OJICUG_clean_linker_0, # of connection points: 2
#     Edge 211, Type (0, 0), BuildingBlock: OJICUG_clean_linker_0, # of connection points: 2
#     Edge 212, Type (0, 0), BuildingBlock: OJICUG_clean_linker_0, # of connection points: 2
#     Edge 213, Type (0, 0), BuildingBlock: OJICUG_clean_linker_0, # of connection points: 2
#     Edge 214, Type (0, 0), BuildingBlock: OJICUG_clean_linker_0, # of connection points: 2
#     Edge 215, Type (0, 0), BuildingBlock: OJICUG_clean_linker_0, # of connection points: 2
#     Edge 216, Type (0, 0), BuildingBlock: OJICUG_clean_linker_0, # of connection points: 2
#     Edge 217, Type (0, 0), BuildingBlock: OJICUG_clean_linker_0, # of connection points: 2
#     Edge 218, Type (0, 0), BuildingBlock: OJICUG_clean_linker_0, # of connection points: 2
#     Edge 219, Type (0, 0), BuildingBlock: OJICUG_clean_linker_0, # of connection points: 2
#     Edge 220, Type (0, 0), BuildingBlock: OJICUG_clean_linker_0, # of connection points: 2
#     Edge 221, Type (0, 0), BuildingBlock: OJICUG_clean_linker_0, # of connection points: 2
#     Edge 222, Type (0, 0), BuildingBlock: OJICUG_clean_linker_0, # of connection points: 2
#     Edge 223, Type (0, 0), BuildingBlock: OJICUG_clean_linker_0, # of connection points: 2
#     Edge 224, Type (0, 0), BuildingBlock: OJICUG_clean_linker_0, # of connection points: 2
#     Edge 225, Type (0, 0), BuildingBlock: OJICUG_clean_linker_0, # of connection points: 2
#     Edge 226, Type (0, 0), BuildingBlock: OJICUG_clean_linker_0, # of connection points: 2
#     Edge 227, Type (0, 0), BuildingBlock: OJICUG_clean_linker_0, # of connection points: 2
#     Edge 228, Type (0, 0), BuildingBlock: OJICUG_clean_linker_0, # of connection points: 2
#     Edge 229, Type (0, 0), BuildingBlock: OJICUG_clean_linker_0, # of connection points: 2
#     Edge 230, Type (0, 0), BuildingBlock: OJICUG_clean_linker_0, # of connection points: 2
#     Edge 231, Type (0, 0), BuildingBlock: OJICUG_clean_linker_0, # of connection points: 2
#     Edge 232, Type (0, 0), BuildingBlock: OJICUG_clean_linker_0, # of connection points: 2
#     Edge 233, Type (0, 0), BuildingBlock: OJICUG_clean_linker_0, # of connection points: 2
#     Edge 234, Type (0, 0), BuildingBlock: OJICUG_clean_linker_0, # of connection points: 2
#     Edge 235, Type (0, 0), BuildingBlock: OJICUG_clean_linker_0, # of connection points: 2
#     Edge 236, Type (0, 0), BuildingBlock: OJICUG_clean_linker_0, # of connection points: 2
#     Edge 237, Type (0, 0), BuildingBlock: OJICUG_clean_linker_0, # of connection points: 2
#     Edge 238, Type (0, 0), BuildingBlock: OJICUG_clean_linker_0, # of connection points: 2
#     Edge 239, Type (0, 0), BuildingBlock: OJICUG_clean_linker_0, # of connection points: 2
#     Edge 240, Type (0, 0), BuildingBlock: OJICUG_clean_linker_0, # of connection points: 2
#     Edge 241, Type (0, 0), BuildingBlock: OJICUG_clean_linker_0, # of connection points: 2
#     Edge 242, Type (0, 0), BuildingBlock: OJICUG_clean_linker_0, # of connection points: 2
#     Edge 243, Type (0, 0), BuildingBlock: OJICUG_clean_linker_0, # of connection points: 2
#     Edge 244, Type (0, 0), BuildingBlock: OJICUG_clean_linker_0, # of connection points: 2
#     Edge 245, Type (0, 0), BuildingBlock: OJICUG_clean_linker_0, # of connection points: 2
#     Edge 246, Type (0, 0), BuildingBlock: OJICUG_clean_linker_0, # of connection points: 2
#     Edge 247, Type (0, 0), BuildingBlock: OJICUG_clean_linker_0, # of connection points: 2
#     Edge 248, Type (0, 0), BuildingBlock: OJICUG_clean_linker_0, # of connection points: 2
#     Edge 249, Type (0, 0), BuildingBlock: OJICUG_clean_linker_0, # of connection points: 2
#     Edge 250, Type (0, 0), BuildingBlock: OJICUG_clean_linker_0, # of connection points: 2
#     Edge 251, Type (0, 0), BuildingBlock: OJICUG_clean_linker_0, # of connection points: 2
#     Edge 252, Type (0, 0), BuildingBlock: OJICUG_clean_linker_0, # of connection points: 2
#     Edge 253, Type (0, 0), BuildingBlock: OJICUG_clean_linker_0, # of connection points: 2
#     Edge 254, Type (0, 0), BuildingBlock: OJICUG_clean_linker_0, # of connection points: 2
#     Edge 255, Type (0, 0), BuildingBlock: OJICUG_clean_linker_0, # of connection points: 2
#     Edge 256, Type (0, 0), BuildingBlock: OJICUG_clean_linker_0, # of connection points: 2
#     Edge 257, Type (0, 0), BuildingBlock: OJICUG_clean_linker_0, # of connection points: 2
#     Edge 258, Type (0, 0), BuildingBlock: OJICUG_clean_linker_0, # of connection points: 2
#     Edge 259, Type (0, 0), BuildingBlock: OJICUG_clean_linker_0, # of connection points: 2
#     Edge 260, Type (0, 0), BuildingBlock: OJICUG_clean_linker_0, # of connection points: 2
#     Edge 261, Type (0, 0), BuildingBlock: OJICUG_clean_linker_0, # of connection points: 2
#     Edge 262, Type (0, 0), BuildingBlock: OJICUG_clean_linker_0, # of connection points: 2
#     Edge 263, Type (0, 0), BuildingBlock: OJICUG_clean_linker_0, # of connection points: 2
#     Edge 264, Type (0, 0), BuildingBlock: OJICUG_clean_linker_0, # of connection points: 2
#     Edge 265, Type (0, 0), BuildingBlock: OJICUG_clean_linker_0, # of connection points: 2
#     Edge 266, Type (0, 0), BuildingBlock: OJICUG_clean_linker_0, # of connection points: 2
#     Edge 267, Type (0, 0), BuildingBlock: OJICUG_clean_linker_0, # of connection points: 2
#     Edge 268, Type (0, 0), BuildingBlock: OJICUG_clean_linker_0, # of connection points: 2
#     Edge 269, Type (0, 0), BuildingBlock: OJICUG_clean_linker_0, # of connection points: 2
#     Edge 270, Type (0, 0), BuildingBlock: OJICUG_clean_linker_0, # of connection points: 2
#     Edge 271, Type (0, 0), BuildingBlock: OJICUG_clean_linker_0, # of connection points: 2
#     Edge 272, Type (0, 0), BuildingBlock: OJICUG_clean_linker_0, # of connection points: 2
#     Edge 273, Type (0, 0), BuildingBlock: OJICUG_clean_linker_0, # of connection points: 2
#     Edge 274, Type (0, 0), BuildingBlock: OJICUG_clean_linker_0, # of connection points: 2
#     Edge 275, Type (0, 0), BuildingBlock: OJICUG_clean_linker_0, # of connection points: 2
#     Edge 276, Type (0, 0), BuildingBlock: OJICUG_clean_linker_0, # of connection points: 2
#     Edge 277, Type (0, 0), BuildingBlock: OJICUG_clean_linker_0, # of connection points: 2
#     Edge 278, Type (0, 0), BuildingBlock: OJICUG_clean_linker_0, # of connection points: 2
#     Edge 279, Type (0, 0), BuildingBlock: OJICUG_clean_linker_0, # of connection points: 2
#     Edge 280, Type (0, 0), BuildingBlock: OJICUG_clean_linker_0, # of connection points: 2
#     Edge 281, Type (0, 0), BuildingBlock: OJICUG_clean_linker_0, # of connection points: 2
#     Edge 282, Type (0, 0), BuildingBlock: OJICUG_clean_linker_0, # of connection points: 2
#     Edge 283, Type (0, 0), BuildingBlock: OJICUG_clean_linker_0, # of connection points: 2
#     Edge 284, Type (0, 0), BuildingBlock: OJICUG_clean_linker_0, # of connection points: 2
#     Edge 285, Type (0, 0), BuildingBlock: OJICUG_clean_linker_0, # of connection points: 2
#     Edge 286, Type (0, 0), BuildingBlock: OJICUG_clean_linker_0, # of connection points: 2
#     Edge 287, Type (0, 0), BuildingBlock: OJICUG_clean_linker_0, # of connection points: 2
# Relax obj value: 0.131
# Max RMSD: 0.268
# Mean RMSD: 0.268
data_MOF--net-ukw--node1-NAWXER_clean_sbu_0--edge1-OJICUG_clean_linker_0
_symmetry_space_group_name_H-M    P1
_symmetry_Int_Tables_number       1
_symmetry_cell_setting            triclinic
loop_
_symmetry_equiv_pos_as_xyz
'x, y, z'
_cell_length_a     55.504222
_cell_length_b     55.50197
_cell_length_c     55.498652
_cell_angle_alpha  90.009193
_cell_angle_beta   90.011669
_cell_angle_gamma 89.986783
loop_
_atom_site_label
_atom_site_type_symbol
_atom_site_fract_x
_atom_site_fract_y
_atom_site_fract_z
_atom_type_partial_charge
C0 C 0.98826 0.07127 0.3622 0.0
C1 C 0.07093 0.08776 0.33985 0.0
O2 O 0.99251 0.094 0.3621 0.0
Zn3 Zn 0.02272 0.11703 0.35314 0.0
O4 O 0.00462 0.05661 0.35584 0.0
Zn5 Zn 0.02889 0.08018 0.34903 0.0
O6 O 0.03685 0.09544 0.3847 0.0
O7 O 0.02657 0.13394 0.38264 0.0
O8 O 0.05959 0.06797 0.3386 0.0
O9 O 0.05955 0.10723 0.34498 0.0
O10 O 0.01174 0.13598 0.32632 0.0
O11 O 0.01405 0.09742 0.31757 0.0
C12 C 0.03482 0.11629 0.39464 0.0
C13 C 0.00844 0.11898 0.31145 0.0
C14 C 0.17825 0.73966 0.61277 0.0
C15 C 0.15901 0.82154 0.59007 0.0
O16 O 0.15537 0.74312 0.61285 0.0
Zn17 Zn 0.13126 0.77266 0.60404 0.0
O18 O 0.19226 0.7565 0.60623 0.0
Zn19 Zn 0.16778 0.77976 0.59947 0.0
O20 O 0.15279 0.78738 0.63533 0.0
O21 O 0.11459 0.77603 0.6337 0.0
O22 O 0.17899 0.8106 0.58861 0.0
O23 O 0.13987 0.80979 0.5956 0.0
O24 O 0.11227 0.76091 0.57755 0.0
O25 O 0.15067 0.76387 0.56838 0.0
C26 C 0.13213 0.78473 0.64552 0.0
C27 C 0.12918 0.75766 0.56258 0.0
C28 C 0.46312 0.88202 0.8946 0.0
C29 C 0.48846 0.88278 0.81105 0.0
O30 O 0.46041 0.90304 0.8853 0.0
Zn31 Zn 0.46741 0.91977 0.85047 0.0
O32 O 0.47143 0.8649 0.8819 0.0
Zn33 Zn 0.47401 0.88276 0.85259 0.0
O34 O 0.50438 0.90587 0.86063 0.0
O35 O 0.49104 0.94342 0.85933 0.0
O36 O 0.48446 0.86506 0.82489 0.0
O37 O 0.48301 0.90412 0.81817 0.0
O38 O 0.43632 0.93173 0.84077 0.0
O39 O 0.43701 0.89228 0.84556 0.0
C40 C 0.5081 0.92858 0.86285 0.0
C41 C 0.42528 0.91175 0.84137 0.0
C42 C 0.31685 0.25696 0.11275 0.0
C43 C 0.33685 0.17505 0.09032 0.0
O44 O 0.33972 0.25353 0.11265 0.0
Zn45 Zn 0.36398 0.22429 0.10372 0.0
O46 O 0.30277 0.24015 0.10619 0.0
Zn47 Zn 0.32738 0.21692 0.09928 0.0
O48 O 0.34254 0.20988 0.13513 0.0
O49 O 0.38074 0.22131 0.13336 0.0
O50 O 0.31669 0.18567 0.08868 0.0
O51 O 0.35578 0.18716 0.09571 0.0
O52 O 0.3826 0.23609 0.07706 0.0
O53 O 0.34411 0.23309 0.06822 0.0
C54 C 0.36319 0.21275 0.14528 0.0
C55 C 0.36553 0.23941 0.06228 0.0
C56 C 0.98938 0.93129 0.13545 0.0
C57 C 0.07115 0.91245 0.15911 0.0
O58 O 0.99297 0.90844 0.13584 0.0
Zn59 Zn 0.02239 0.88456 0.14536 0.0
O60 O 0.00607 0.94556 0.14182 0.0
Zn61 Zn 0.02942 0.92124 0.14924 0.0
O62 O 0.03727 0.90545 0.11372 0.0
O63 O 0.02598 0.86726 0.11611 0.0
O64 O 0.06031 0.93252 0.16016 0.0
O65 O 0.05934 0.89329 0.15386 0.0
O66 O 0.01049 0.86618 0.1721 0.0
O67 O 0.01311 0.9048 0.18044 0.0
C68 C 0.03473 0.88456 0.10397 0.0
C69 C 0.00691 0.88342 0.18661 0.0
C70 C 0.36266 0.78744 0.35501 0.0
C71 C 0.35965 0.75969 0.4374 0.0
O72 O 0.34081 0.78721 0.36261 0.0
Zn73 Zn 0.32322 0.78003 0.39693 0.0
O74 O 0.37975 0.78199 0.36915 0.0
Zn75 Zn 0.36036 0.77544 0.39663 0.0
O76 O 0.33892 0.74412 0.38552 0.0
O77 O 0.30086 0.75559 0.38846 0.0
O78 O 0.3776 0.76416 0.42404 0.0
O79 O 0.33835 0.7648 0.42985 0.0
O80 O 0.30919 0.81065 0.40515 0.0
O81 O 0.34885 0.81101 0.40673 0.0
C82 C 0.3163 0.73944 0.38359 0.0
C83 C 0.32865 0.82198 0.40883 0.0
C84 C 0.46347 0.11418 0.60338 0.0
C85 C 0.49033 0.11632 0.68629 0.0
O86 O 0.46084 0.09342 0.61335 0.0
Zn87 Zn 0.46835 0.07807 0.64905 0.0
O88 O 0.47208 0.13165 0.61537 0.0
Zn89 Zn 0.47541 0.1147 0.64484 0.0
O90 O 0.50493 0.09076 0.63582 0.0
O91 O 0.49171 0.05373 0.64204 0.0
O92 O 0.48699 0.13339 0.67151 0.0
O93 O 0.48422 0.09487 0.68027 0.0
O94 O 0.43743 0.06682 0.65972 0.0
O95 O 0.43837 0.106 0.65306 0.0
C96 C 0.50848 0.0679 0.63565 0.0
C97 C 0.42656 0.08685 0.65837 0.0
C98 C 0.16002 0.17707 0.90897 0.0
C99 C 0.17943 0.25871 0.88575 0.0
O100 O 0.14095 0.18894 0.90352 0.0
Zn101 Zn 0.13244 0.22598 0.89515 0.0
O102 O 0.18008 0.18787 0.91041 0.0
Zn103 Zn 0.16905 0.21883 0.89955 0.0
O104 O 0.15232 0.23511 0.93058 0.0
O105 O 0.11382 0.23792 0.92178 0.0
O106 O 0.19354 0.24199 0.89243 0.0
O107 O 0.15656 0.25526 0.88589 0.0
O108 O 0.11558 0.22261 0.86557 0.0
O109 O 0.15382 0.21134 0.86377 0.0
C110 C 0.1309 0.24137 0.93653 0.0
C111 C 0.13312 0.21401 0.85366 0.0
C112 C 0.3127 0.00787 0.11659 0.0
C113 C 0.39595 0.03384 0.11483 0.0
O114 O 0.31888 0.01391 0.09516 0.0
Zn115 Zn 0.35033 0.02949 0.07852 0.0
O116 O 0.32744 0.01105 0.13373 0.0
Zn117 Zn 0.35432 0.02244 0.11519 0.0
O118 O 0.34641 0.05955 0.10647 0.0
O119 O 0.33998 0.06057 0.06726 0.0
O120 O 0.38378 0.02546 0.13228 0.0
O121 O 0.38607 0.03658 0.09403 0.0
O122 O 0.35725 0.006 0.05422 0.0
O123 O 0.36326 0.99283 0.09131 0.0
C124 C 0.34126 0.07142 0.08732 0.0
C125 C 0.36352 0.98923 0.06846 0.0
C126 C 0.25698 0.11041 0.32012 0.0
C127 C 0.17465 0.088 0.33787 0.0
O128 O 0.25289 0.11098 0.34291 0.0
Zn129 Zn 0.22281 0.10192 0.36646 0.0
O130 O 0.24069 0.10317 0.30578 0.0
Zn131 Zn 0.21684 0.09685 0.32968 0.0
O132 O 0.20962 0.13309 0.34377 0.0
O133 O 0.21771 0.13149 0.38287 0.0
O134 O 0.18583 0.0862 0.31804 0.0
O135 O 0.18623 0.09347 0.35708 0.0
O136 O 0.23433 0.07565 0.38595 0.0
O137 O 0.23246 0.06614 0.34756 0.0
C138 C 0.21073 0.14327 0.36455 0.0
C139 C 0.23819 0.06058 0.36924 0.0
C140 C 0.13646 0.0075 0.56685 0.0
C141 C 0.1579 0.92522 0.5863 0.0
O142 O 0.13662 0.00399 0.58971 0.0
Zn143 Zn 0.14538 0.9745 0.61378 0.0
O144 O 0.14278 0.99067 0.55269 0.0
Zn145 Zn 0.14958 0.96729 0.57716 0.0
O146 O 0.11371 0.9605 0.59246 0.0
O147 O 0.11584 0.97179 0.6307 0.0
O148 O 0.15974 0.93597 0.56623 0.0
O149 O 0.15277 0.93728 0.60533 0.0
O150 O 0.17223 0.98586 0.6324 0.0
O151 O 0.18089 0.98312 0.59385 0.0
C152 C 0.10375 0.96338 0.61319 0.0
C153 C 0.18696 0.98923 0.6153 0.0
C154 C 0.32164 0.90918 0.83857 0.0
C155 C 0.23983 0.88663 0.81879 0.0
O156 O 0.30967 0.90371 0.85757 0.0
Zn157 Zn 0.27255 0.89563 0.86591 0.0
O158 O 0.31091 0.91078 0.81847 0.0
Zn159 Zn 0.2798 0.90009 0.82931 0.0
O160 O 0.26363 0.93113 0.8461 0.0
O161 O 0.26073 0.92228 0.88459 0.0
O162 O 0.25661 0.89323 0.80472 0.0
O163 O 0.24325 0.88668 0.84166 0.0
O164 O 0.27558 0.86596 0.88265 0.0
O165 O 0.28685 0.86418 0.84441 0.0
C166 C 0.25734 0.93706 0.86753 0.0
C167 C 0.28402 0.85401 0.86505 0.0
C168 C 0.30965 0.98826 0.38652 0.0
C169 C 0.39189 0.95931 0.38543 0.0
O170 O 0.31641 0.98227 0.40785 0.0
Zn171 Zn 0.34852 0.96613 0.42356 0.0
O172 O 0.32361 0.98438 0.36889 0.0
Zn173 Zn 0.35041 0.97218 0.38662 0.0
O174 O 0.33972 0.93603 0.39669 0.0
O175 O 0.33888 0.93565 0.43644 0.0
O176 O 0.379 0.96719 0.36828 0.0
O177 O 0.383 0.95771 0.40674 0.0
O178 O 0.35705 0.98988 0.4469 0.0
O179 O 0.36102 0.00236 0.40931 0.0
C180 C 0.33631 0.92472 0.41657 0.0
C181 C 0.36254 0.00638 0.43206 0.0
C182 C 0.28552 0.14403 0.63475 0.0
C183 C 0.25886 0.06103 0.63224 0.0
O184 O 0.28823 0.13394 0.65545 0.0
Zn185 Zn 0.28105 0.09805 0.67057 0.0
O186 O 0.27712 0.13206 0.61715 0.0
Zn187 Zn 0.27399 0.10246 0.63393 0.0
O188 O 0.2446 0.11153 0.65796 0.0
O189 O 0.25769 0.10498 0.695 0.0
O190 O 0.26233 0.0758 0.6152 0.0
O191 O 0.265 0.06697 0.65371 0.0
O192 O 0.31214 0.08747 0.6816 0.0
O193 O 0.31104 0.09451 0.6425 0.0
C194 C 0.24103 0.11163 0.68081 0.0
C195 C 0.32296 0.08915 0.66156 0.0
C196 C 0.13459 0.9916 0.93187 0.0
C197 C 0.15728 0.07348 0.91256 0.0
O198 O 0.13496 0.99506 0.909 0.0
Zn199 Zn 0.14416 0.02443 0.88498 0.0
O200 O 0.1409 0.0084 0.94606 0.0
Zn201 Zn 0.1481 0.03164 0.92162 0.0
O202 O 0.11243 0.0389 0.90602 0.0
O203 O 0.1148 0.02755 0.86783 0.0
O204 O 0.15866 0.06274 0.93267 0.0
O205 O 0.15211 0.0615 0.89348 0.0
O206 O 0.171 0.0127 0.86659 0.0
O207 O 0.17938 0.01543 0.9052 0.0
C208 C 0.10262 0.03613 0.88519 0.0
C209 C 0.18555 0.00921 0.88382 0.0
C210 C 0.25701 0.88754 0.18148 0.0
C211 C 0.17477 0.9099 0.16276 0.0
O212 O 0.25319 0.88765 0.15867 0.0
Zn213 Zn 0.22357 0.89667 0.13489 0.0
O214 O 0.24041 0.89397 0.19586 0.0
Zn215 Zn 0.21676 0.90087 0.1716 0.0
O216 O 0.2095 0.86499 0.15635 0.0
O217 O 0.22035 0.8672 0.11801 0.0
O218 O 0.18566 0.91149 0.18278 0.0
O219 O 0.18662 0.9046 0.14365 0.0
O220 O 0.23515 0.92334 0.11617 0.0
O221 O 0.23289 0.93195 0.15476 0.0
C222 C 0.21207 0.85508 0.13555 0.0
C223 C 0.23893 0.93796 0.13329 0.0
C224 C 0.06626 0.36347 0.99056 0.0
C225 C 0.08497 0.34154 0.07299 0.0
O226 O 0.08906 0.36326 0.99436 0.0
Zn227 Zn 0.11282 0.35434 0.024 0.0
O228 O 0.05187 0.35715 0.00719 0.0
Zn229 Zn 0.07609 0.35022 0.0309 0.0
O230 O 0.09139 0.38603 0.03805 0.0
O231 O 0.12972 0.38387 0.02709 0.0
O232 O 0.06494 0.33986 0.06213 0.0
O233 O 0.10407 0.34669 0.06105 0.0
O234 O 0.13144 0.3275 0.01256 0.0
O235 O 0.09284 0.31898 0.01498 0.0
C236 C 0.11217 0.39596 0.03543 0.0
C237 C 0.11429 0.31288 0.00894 0.0
C238 C 0.56708 0.13526 0.00868 0.0
C239 C 0.58552 0.15859 0.92669 0.0
O240 O 0.58988 0.13556 0.00488 0.0
Zn241 Zn 0.61355 0.14489 0.97534 0.0
O242 O 0.55267 0.14175 0.99212 0.0
Zn243 Zn 0.5768 0.14904 0.96852 0.0
O244 O 0.5922 0.1134 0.96073 0.0
O245 O 0.63052 0.11545 0.97169 0.0
O246 O 0.56548 0.15989 0.93756 0.0
O247 O 0.60467 0.15326 0.93848 0.0
O248 O 0.63216 0.17159 0.98707 0.0
O249 O 0.59357 0.18016 0.98462 0.0
C250 C 0.61301 0.10346 0.96315 0.0
C251 C 0.61502 0.18623 0.99068 0.0
C252 C 0.06072 0.37221 0.23971 0.0
C253 C 0.14382 0.36767 0.21338 0.0
O254 O 0.06635 0.35057 0.23388 0.0
Zn255 Zn 0.0973 0.33268 0.21879 0.0
O256 O 0.0759 0.38891 0.23635 0.0
Zn257 Zn 0.10225 0.36939 0.22514 0.0
O258 O 0.09393 0.36006 0.18822 0.0
O259 O 0.0866 0.32099 0.18798 0.0
O260 O 0.13217 0.38557 0.22157 0.0
O261 O 0.13339 0.34708 0.21116 0.0
O262 O 0.10338 0.30875 0.24296 0.0
O263 O 0.11055 0.34593 0.25524 0.0
C264 C 0.08832 0.34079 0.17673 0.0
C265 C 0.11003 0.32319 0.2594 0.0
C266 C 0.91146 0.84095 0.42574 0.0
C267 C 0.93019 0.86296 0.50813 0.0
O268 O 0.89237 0.84605 0.43772 0.0
Zn269 Zn 0.88364 0.85379 0.47474 0.0
O270 O 0.93156 0.83948 0.4365 0.0
Zn271 Zn 0.92044 0.84978 0.46775 0.0
O272 O 0.90382 0.81845 0.48346 0.0
O273 O 0.86521 0.82682 0.48624 0.0
O274 O 0.94463 0.85666 0.49153 0.0
O275 O 0.9074 0.86275 0.50429 0.0
O276 O 0.86669 0.88335 0.47164 0.0
O277 O 0.90501 0.88553 0.46069 0.0
C278 C 0.88244 0.81222 0.48959 0.0
C279 C 0.88423 0.89547 0.46333 0.0
C280 C 0.93913 0.13509 0.23707 0.0
C281 C 0.85651 0.134 0.20921 0.0
O282 O 0.93214 0.15642 0.23144 0.0
Zn283 Zn 0.89984 0.17223 0.21598 0.0
O284 O 0.92534 0.11736 0.23296 0.0
Zn285 Zn 0.89826 0.13511 0.22134 0.0
O286 O 0.9084 0.14588 0.18531 0.0
O287 O 0.90901 0.18563 0.18554 0.0
O288 O 0.86964 0.11676 0.21646 0.0
O289 O 0.86527 0.15539 0.20789 0.0
O290 O 0.89182 0.19508 0.24049 0.0
O291 O 0.88804 0.15716 0.25207 0.0
C292 C 0.91156 0.16595 0.17426 0.0
C293 C 0.88666 0.17978 0.25669 0.0
C294 C 0.37746 0.68707 0.50814 0.0
C295 C 0.38336 0.6041 0.53423 0.0
O296 O 0.3992 0.68192 0.51406 0.0
Zn297 Zn 0.41749 0.65129 0.52946 0.0
O298 O 0.3611 0.67153 0.51145 0.0
Zn299 Zn 0.38104 0.6456 0.52279 0.0
O300 O 0.38984 0.65375 0.55989 0.0
O301 O 0.4287 0.66207 0.56036 0.0
O302 O 0.3653 0.6155 0.52602 0.0
O303 O 0.40374 0.61484 0.53677 0.0
O304 O 0.44188 0.6454 0.50582 0.0
O305 O 0.40504 0.63741 0.49302 0.0
C306 C 0.40892 0.65971 0.57151 0.0
C307 C 0.42785 0.63819 0.48925 0.0
C308 C 0.11722 0.67914 0.23944 0.0
C309 C 0.09219 0.66799 0.32225 0.0
O310 O 0.11301 0.65688 0.24404 0.0
Zn311 Zn 0.1031 0.63586 0.27542 0.0
O312 O 0.11528 0.69482 0.25597 0.0
Zn313 Zn 0.10442 0.67313 0.28056 0.0
O314 O 0.13727 0.65414 0.28908 0.0
O315 O 0.13099 0.61592 0.28017 0.0
O316 O 0.09634 0.68741 0.31098 0.0
O317 O 0.09377 0.64771 0.31126 0.0
O318 O 0.07483 0.61973 0.26477 0.0
O319 O 0.0707 0.65926 0.26542 0.0
C320 C 0.14489 0.63237 0.28779 0.0
C321 C 0.06222 0.63828 0.26038 0.0
C322 C 0.38637 0.31857 0.73982 0.0
C323 C 0.40813 0.3363 0.8224 0.0
O324 O 0.38669 0.34134 0.7438 0.0
Zn325 Zn 0.39568 0.36478 0.77367 0.0
O326 O 0.39255 0.30398 0.75633 0.0
Zn327 Zn 0.39943 0.32792 0.78027 0.0
O328 O 0.36373 0.34353 0.78721 0.0
O329 O 0.36627 0.38195 0.7767 0.0
O330 O 0.40949 0.31635 0.81137 0.0
O331 O 0.40318 0.35559 0.81066 0.0
O332 O 0.42278 0.38319 0.76256 0.0
O333 O 0.43093 0.3445 0.76491 0.0
C334 C 0.35396 0.36441 0.78469 0.0
C335 C 0.43731 0.36592 0.75909 0.0
C336 C 0.00771 0.93133 0.63466 0.0
C337 C 0.92575 0.91531 0.65919 0.0
O338 O 0.99116 0.9461 0.64017 0.0
Zn339 Zn 0.96741 0.9226 0.64817 0.0
O340 O 0.00377 0.90857 0.63599 0.0
Zn341 Zn 0.97367 0.88566 0.64614 0.0
O342 O 0.96937 0.86745 0.61731 0.0
O343 O 0.95987 0.90593 0.61345 0.0
O344 O 0.93725 0.8955 0.65598 0.0
O345 O 0.93664 0.93525 0.6571 0.0
O346 O 0.98303 0.90685 0.68045 0.0
O347 O 0.98552 0.86794 0.67314 0.0
C348 C 0.96174 0.8847 0.60441 0.0
C349 C 0.98904 0.88555 0.68724 0.0
C350 C 0.82871 0.17576 0.40648 0.0
C351 C 0.81813 0.25879 0.38163 0.0
O352 O 0.80931 0.18714 0.40243 0.0
Zn353 Zn 0.82375 0.21748 0.39418 0.0
O354 O 0.84903 0.1866 0.40467 0.0
Zn355 Zn 0.86112 0.22222 0.39511 0.0
O356 O 0.87773 0.23269 0.42317 0.0
O357 O 0.83823 0.23238 0.42777 0.0
O358 O 0.84037 0.25385 0.38557 0.0
O359 O 0.80224 0.24248 0.38365 0.0
O360 O 0.84219 0.20883 0.36108 0.0
O361 O 0.88058 0.21729 0.36697 0.0
C362 C 0.85937 0.23721 0.43601 0.0
C363 C 0.86388 0.20991 0.35323 0.0
C364 C 0.49128 0.06767 0.13708 0.0
C365 C 0.57312 0.08765 0.15986 0.0
O366 O 0.50807 0.05359 0.14369 0.0
Zn367 Zn 0.53119 0.07823 0.15082 0.0
O368 O 0.49466 0.09055 0.13732 0.0
Zn369 Zn 0.52385 0.11483 0.14659 0.0
O370 O 0.52675 0.13181 0.11706 0.0
O371 O 0.53811 0.0936 0.11498 0.0
O372 O 0.56103 0.10661 0.15451 0.0
O373 O 0.56245 0.06752 0.16145 0.0
O374 O 0.51469 0.0947 0.18188 0.0
O375 O 0.51186 0.13326 0.17335 0.0
C376 C 0.53519 0.11431 0.10496 0.0
C377 C 0.50832 0.11607 0.18794 0.0
C378 C 0.63412 0.78472 0.85359 0.0
C379 C 0.63276 0.75797 0.93653 0.0
O380 O 0.61679 0.77608 0.86576 0.0
Zn381 Zn 0.63397 0.77298 0.89512 0.0
O382 O 0.65493 0.78758 0.86343 0.0
Zn383 Zn 0.67058 0.78033 0.89909 0.0
O384 O 0.69508 0.75712 0.89195 0.0
O385 O 0.6581 0.74364 0.88598 0.0
O386 O 0.65413 0.76423 0.93038 0.0
O387 O 0.61556 0.76125 0.92189 0.0
O388 O 0.64237 0.81006 0.90335 0.0
O389 O 0.68157 0.81141 0.90979 0.0
C390 C 0.68098 0.74025 0.88566 0.0
C391 C 0.6614 0.82207 0.90863 0.0
C392 C 0.00695 0.06871 0.86244 0.0
C393 C 0.92529 0.08524 0.83716 0.0
O394 O 0.99083 0.05405 0.85548 0.0
Zn395 Zn 0.96713 0.07754 0.84757 0.0
O396 O 0.0028 0.0915 0.86204 0.0
Zn397 Zn 0.97284 0.11453 0.85132 0.0
O398 O 0.96644 0.13211 0.88001 0.0
O399 O 0.95883 0.09302 0.883 0.0
O400 O 0.93672 0.10465 0.84213 0.0
O401 O 0.93647 0.06533 0.83651 0.0
O402 O 0.98355 0.09422 0.8166 0.0
O403 O 0.98491 0.13298 0.82461 0.0
C404 C 0.95922 0.11424 0.89231 0.0
C405 C 0.98928 0.11571 0.81034 0.0
C406 C 0.68081 0.25739 0.61293 0.0
C407 C 0.66208 0.17499 0.59141 0.0
O408 O 0.69512 0.24066 0.6067 0.0
Zn409 Zn 0.67083 0.21715 0.5998 0.0
O410 O 0.65797 0.25374 0.61263 0.0
Zn411 Zn 0.63413 0.22408 0.60372 0.0
O412 O 0.61701 0.2214 0.63316 0.0
O413 O 0.65533 0.21049 0.63563 0.0
O414 O 0.64291 0.18687 0.59644 0.0
O415 O 0.68206 0.18593 0.58974 0.0
O416 O 0.6543 0.23293 0.56839 0.0
O417 O 0.61567 0.23535 0.57671 0.0
C418 C 0.63451 0.21329 0.64546 0.0
C419 C 0.63287 0.23891 0.56215 0.0
C420 C 0.53402 0.88193 0.39526 0.0
C421 C 0.50749 0.87948 0.3121 0.0
O422 O 0.5258 0.86428 0.38324 0.0
Zn423 Zn 0.52215 0.88121 0.35373 0.0
O424 O 0.53614 0.90277 0.38532 0.0
Zn425 Zn 0.52841 0.91805 0.34964 0.0
O426 O 0.50426 0.94176 0.35655 0.0
O427 O 0.49206 0.90439 0.36279 0.0
O428 O 0.51322 0.901 0.31826 0.0
O429 O 0.511 0.86241 0.32684 0.0
O430 O 0.55907 0.8908 0.34587 0.0
O431 O 0.55926 0.93001 0.33933 0.0
C432 C 0.48788 0.92714 0.36294 0.0
C433 C 0.57055 0.91021 0.3408 0.0
C434 C 0.86732 0.75815 0.06133 0.0
C435 C 0.86416 0.78571 0.14409 0.0
O436 O 0.88427 0.76164 0.07622 0.0
Zn437 Zn 0.86536 0.77364 0.10262 0.0
O438 O 0.84583 0.76439 0.06708 0.0
Zn439 Zn 0.8287 0.78064 0.09788 0.0
O440 O 0.81775 0.81161 0.08677 0.0
O441 O 0.85683 0.81054 0.09393 0.0
O442 O 0.84355 0.78827 0.13377 0.0
O443 O 0.88187 0.7772 0.13237 0.0
O444 O 0.84133 0.74429 0.11172 0.0
O445 O 0.8043 0.75721 0.10482 0.0
C446 C 0.83782 0.8224 0.08823 0.0
C447 C 0.8185 0.74063 0.11168 0.0
C448 C 0.60382 0.96202 0.88283 0.0
C449 C 0.68645 0.98935 0.88255 0.0
O450 O 0.61666 0.96894 0.86522 0.0
Zn451 Zn 0.64519 0.9739 0.88326 0.0
O452 O 0.61281 0.96085 0.90416 0.0
Zn453 Zn 0.64835 0.96779 0.92016 0.0
O454 O 0.64089 0.9914 0.94391 0.0
O455 O 0.63509 0.00398 0.90652 0.0
O456 O 0.67988 0.9837 0.90397 0.0
O457 O 0.67227 0.98531 0.86513 0.0
O458 O 0.65324 0.93732 0.89277 0.0
O459 O 0.65854 0.93672 0.93211 0.0
C460 C 0.63455 0.00788 0.92936 0.0
C461 C 0.65785 0.92565 0.91214 0.0
C462 C 0.74079 0.88351 0.68187 0.0
C463 C 0.82289 0.90789 0.66625 0.0
O464 O 0.75737 0.88874 0.69672 0.0
Zn465 Zn 0.78123 0.89677 0.67333 0.0
O466 O 0.74481 0.88492 0.65912 0.0
Zn467 Zn 0.77508 0.89498 0.63637 0.0
O468 O 0.77939 0.86629 0.61802 0.0
O469 O 0.78885 0.86215 0.65649 0.0
O470 O 0.81146 0.90478 0.64639 0.0
O471 O 0.81195 0.90566 0.68615 0.0
O472 O 0.76565 0.92915 0.65767 0.0
O473 O 0.76338 0.92204 0.6187 0.0
C474 C 0.78702 0.85327 0.63518 0.0
C475 C 0.75973 0.93603 0.63636 0.0
C476 C 0.83647 0.0732 0.41543 0.0
C477 C 0.86308 0.99174 0.43139 0.0
O478 O 0.83914 0.06246 0.43539 0.0
Zn479 Zn 0.84896 0.03195 0.42271 0.0
O480 O 0.83997 0.06175 0.39564 0.0
Zn481 Zn 0.85092 0.02565 0.38578 0.0
O482 O 0.82418 0.01326 0.36809 0.0
O483 O 0.81689 0.01578 0.40701 0.0
O484 O 0.86162 0.99567 0.40863 0.0
O485 O 0.85749 0.00826 0.44617 0.0
O486 O 0.8834 0.04047 0.40589 0.0
O487 O 0.87953 0.03072 0.36748 0.0
C488 C 0.81016 0.00962 0.38573 0.0
C489 C 0.89233 0.03881 0.3846 0.0
C490 C 0.67689 0.09066 0.16161 0.0
C491 C 0.76009 0.11161 0.17817 0.0
O492 O 0.68822 0.08907 0.18139 0.0
Zn493 Zn 0.71927 0.09891 0.16937 0.0
O494 O 0.68839 0.09565 0.14219 0.0
Zn495 Zn 0.72535 0.10298 0.13247 0.0
O496 O 0.73589 0.076 0.11355 0.0
O497 O 0.73381 0.06734 0.15213 0.0
O498 O 0.7557 0.11155 0.15546 0.0
O499 O 0.74378 0.10536 0.19293 0.0
O500 O 0.71225 0.13477 0.15421 0.0
O501 O 0.72219 0.13254 0.11561 0.0
C502 C 0.73925 0.06115 0.13055 0.0
C503 C 0.71448 0.14472 0.13338 0.0
C504 C 0.60426 0.03392 0.61577 0.0
C505 C 0.68722 0.00726 0.61968 0.0
O506 O 0.61592 0.02541 0.63351 0.0
Zn507 Zn 0.64575 0.02222 0.61717 0.0
O508 O 0.61467 0.03662 0.59523 0.0
Zn509 Zn 0.65076 0.0293 0.58067 0.0
O510 O 0.64423 0.00596 0.55612 0.0
O511 O 0.63707 0.99273 0.59296 0.0
O512 O 0.68164 0.01343 0.59811 0.0
O513 O 0.67206 0.01054 0.63642 0.0
O514 O 0.65393 0.05939 0.6087 0.0
O515 O 0.66151 0.06032 0.56969 0.0
C516 C 0.63736 0.98922 0.5701 0.0
C517 C 0.6596 0.07123 0.58967 0.0
C518 C 0.75649 0.88781 0.31991 0.0
C519 C 0.67431 0.90957 0.33922 0.0
O520 O 0.73979 0.89462 0.30583 0.0
Zn521 Zn 0.71636 0.90107 0.33031 0.0
O522 O 0.75289 0.88755 0.34276 0.0
Zn523 Zn 0.72333 0.89617 0.36686 0.0
O524 O 0.72036 0.86636 0.38324 0.0
O525 O 0.70936 0.8649 0.34489 0.0
O526 O 0.68616 0.904 0.35828 0.0
O527 O 0.68526 0.91163 0.31929 0.0
O528 O 0.7322 0.93198 0.3477 0.0
O529 O 0.73487 0.92258 0.38606 0.0
C530 C 0.71209 0.85456 0.36546 0.0
C531 C 0.73831 0.93763 0.36926 0.0
C532 C 0.89369 0.96444 0.11348 0.0
C533 C 0.80975 0.98826 0.11392 0.0
O534 O 0.8811 0.97264 0.13072 0.0
Zn535 Zn 0.8515 0.97483 0.11331 0.0
O536 O 0.88419 0.96163 0.09256 0.0
Zn537 Zn 0.84909 0.96825 0.07628 0.0
O538 O 0.85705 0.99236 0.05271 0.0
O539 O 0.85835 0.00553 0.09032 0.0
O540 O 0.81668 0.98299 0.09248 0.0
O541 O 0.82391 0.98459 0.13147 0.0
O542 O 0.8448 0.93781 0.10375 0.0
O543 O 0.83975 0.937 0.06432 0.0
C544 C 0.86013 0.00945 0.06761 0.0
C545 C 0.8406 0.92601 0.08433 0.0
C546 C 0.74018 0.11296 0.81834 0.0
C547 C 0.82177 0.0881 0.8358 0.0
O548 O 0.75658 0.10632 0.80385 0.0
Zn549 Zn 0.78021 0.09861 0.82773 0.0
O550 O 0.74408 0.11254 0.84113 0.0
Zn551 Zn 0.77373 0.1027 0.8645 0.0
O552 O 0.77815 0.13195 0.8816 0.0
O553 O 0.78891 0.13402 0.84323 0.0
O554 O 0.81031 0.09353 0.85513 0.0
O555 O 0.81068 0.08724 0.81586 0.0
O556 O 0.76401 0.0676 0.8446 0.0
O557 O 0.7618 0.0762 0.8832 0.0
C558 C 0.78686 0.14387 0.86413 0.0
C559 C 0.75804 0.06157 0.86609 0.0
C560 C 0.93285 0.63619 0.00755 0.0
C561 C 0.91345 0.6578 0.92531 0.0
O562 O 0.94703 0.6424 0.99071 0.0
Zn563 Zn 0.92257 0.64911 0.96729 0.0
O564 O 0.91 0.63628 0.004 0.0
Zn565 Zn 0.88595 0.6449 0.97447 0.0
O566 O 0.8691 0.61533 0.97168 0.0
O567 O 0.90732 0.61323 0.9604 0.0
O568 O 0.89441 0.65255 0.93732 0.0
O569 O 0.93353 0.65948 0.93606 0.0
O570 O 0.90583 0.68036 0.98321 0.0
O571 O 0.86728 0.67169 0.98589 0.0
C572 C 0.8866 0.60324 0.96327 0.0
C573 C 0.88438 0.6864 0.98933 0.0
C574 C 0.42993 0.86022 0.99032 0.0
C575 C 0.41026 0.83812 0.07242 0.0
O576 O 0.44411 0.85369 0.00706 0.0
Zn577 Zn 0.41961 0.84717 0.03057 0.0
O578 O 0.4071 0.86038 0.99395 0.0
Zn579 Zn 0.38296 0.85178 0.02335 0.0
O580 O 0.36641 0.88154 0.0264 0.0
O581 O 0.40467 0.88314 0.03767 0.0
O582 O 0.39132 0.84364 0.06039 0.0
O583 O 0.4304 0.83647 0.06176 0.0
O584 O 0.40254 0.81618 0.01466 0.0
O585 O 0.36409 0.82524 0.01168 0.0
C586 C 0.38405 0.89339 0.03489 0.0
C587 C 0.38108 0.81035 0.0084 0.0
C588 C 0.85438 0.63256 0.78518 0.0
C589 C 0.93709 0.63083 0.75744 0.0
O590 O 0.86638 0.61514 0.77647 0.0
Zn591 Zn 0.89578 0.63221 0.77288 0.0
O592 O 0.8643 0.65337 0.7877 0.0
Zn593 Zn 0.89989 0.66887 0.77989 0.0
O594 O 0.89257 0.69319 0.75654 0.0
O595 O 0.8864 0.65611 0.74342 0.0
O596 O 0.93102 0.65224 0.76363 0.0
O597 O 0.92247 0.61367 0.76099 0.0
O598 O 0.90427 0.64094 0.80986 0.0
O599 O 0.9108 0.68013 0.81078 0.0
C600 C 0.88611 0.67896 0.73984 0.0
C601 C 0.9096 0.66009 0.82166 0.0
C602 C 0.09124 0.15896 0.57144 0.0
C603 C 0.07135 0.13758 0.48931 0.0
O604 O 0.07134 0.16113 0.56047 0.0
Zn605 Zn 0.08224 0.15051 0.52942 0.0
O606 O 0.11026 0.15318 0.55961 0.0
Zn607 Zn 0.11863 0.14521 0.52226 0.0
O608 O 0.13812 0.17141 0.51066 0.0
O609 O 0.09994 0.18136 0.51377 0.0
O610 O 0.09423 0.13698 0.49273 0.0
O611 O 0.05753 0.1445 0.50617 0.0
O612 O 0.09647 0.11418 0.53638 0.0
O613 O 0.13473 0.1152 0.52511 0.0
C614 C 0.12153 0.18676 0.50754 0.0
C615 C 0.11691 0.1036 0.53352 0.0
C616 C 0.14426 0.86578 0.78491 0.0
C617 C 0.06102 0.8691 0.75911 0.0
O618 O 0.13236 0.88346 0.7766 0.0
Zn619 Zn 0.10261 0.86689 0.77386 0.0
O620 O 0.13402 0.84517 0.78772 0.0
Zn621 Zn 0.09791 0.83037 0.7809 0.0
O622 O 0.10435 0.80584 0.75753 0.0
O623 O 0.11115 0.84274 0.74424 0.0
O624 O 0.0668 0.84756 0.76518 0.0
O625 O 0.07602 0.88596 0.7625 0.0
O626 O 0.09518 0.85833 0.81119 0.0
O627 O 0.08765 0.81933 0.81209 0.0
C628 C 0.11097 0.81988 0.74073 0.0
C629 C 0.08979 0.83924 0.82307 0.0
C630 C 0.56862 0.36233 0.5084 0.0
C631 C 0.58725 0.33905 0.42656 0.0
O632 O 0.55433 0.35589 0.49173 0.0
Zn633 Zn 0.57857 0.34857 0.46833 0.0
O634 O 0.59146 0.36198 0.50478 0.0
Zn635 Zn 0.61526 0.35257 0.4753 0.0
O636 O 0.63239 0.38193 0.47175 0.0
O637 O 0.59414 0.38417 0.4606 0.0
O638 O 0.60643 0.34428 0.43836 0.0
O639 O 0.56721 0.33781 0.43744 0.0
O640 O 0.59516 0.31734 0.48442 0.0
O641 O 0.63376 0.3258 0.48705 0.0
C642 C 0.61499 0.394 0.46311 0.0
C643 C 0.61658 0.31119 0.49055 0.0
C644 C 0.8543 0.36358 0.71259 0.0
C645 C 0.9378 0.36486 0.73776 0.0
O646 O 0.86669 0.38108 0.72058 0.0
Zn647 Zn 0.89611 0.36383 0.72317 0.0
O648 O 0.86403 0.34271 0.70989 0.0
Zn649 Zn 0.8998 0.32705 0.71642 0.0
O650 O 0.89299 0.30294 0.74019 0.0
O651 O 0.88733 0.34023 0.75303 0.0
O652 O 0.93138 0.34346 0.73192 0.0
O653 O 0.92335 0.38216 0.73415 0.0
O654 O 0.90295 0.35482 0.68595 0.0
O655 O 0.90953 0.31565 0.6851 0.0
C656 C 0.88699 0.31743 0.75686 0.0
C657 C 0.90775 0.33557 0.67409 0.0
C658 C 0.64592 0.63319 0.21362 0.0
C659 C 0.56275 0.63094 0.23996 0.0
O660 O 0.63385 0.61556 0.22179 0.0
Zn661 Zn 0.60426 0.63244 0.22504 0.0
O662 O 0.6359 0.65396 0.21111 0.0
Zn663 Zn 0.60011 0.66923 0.21832 0.0
O664 O 0.6069 0.69333 0.24209 0.0
O665 O 0.6132 0.65609 0.25475 0.0
O666 O 0.56888 0.65238 0.23396 0.0
O667 O 0.57743 0.6138 0.2365 0.0
O668 O 0.59627 0.64144 0.18807 0.0
O669 O 0.58964 0.68063 0.18731 0.0
C670 C 0.61331 0.67888 0.25864 0.0
C671 C 0.59104 0.66065 0.17633 0.0
C672 C 0.57344 0.58747 0.8405 0.0
C673 C 0.4912 0.56846 0.86217 0.0
O674 O 0.56154 0.60662 0.84562 0.0
Zn675 Zn 0.5243 0.6153 0.85296 0.0
O676 O 0.56249 0.56751 0.83868 0.0
Zn677 Zn 0.53129 0.57865 0.84886 0.0
O678 O 0.51532 0.5952 0.81757 0.0
O679 O 0.51281 0.63379 0.826 0.0
O680 O 0.50795 0.55424 0.85578 0.0
O681 O 0.49476 0.59132 0.86195 0.0
O682 O 0.52707 0.63232 0.88251 0.0
O683 O 0.53808 0.59402 0.88472 0.0
C684 C 0.50923 0.61661 0.81141 0.0
C685 C 0.5353 0.61478 0.89467 0.0
C686 C 0.63483 0.2847 0.14547 0.0
C687 C 0.63204 0.25826 0.06242 0.0
O688 O 0.65548 0.28749 0.1353 0.0
Zn689 Zn 0.67047 0.28045 0.09933 0.0
O690 O 0.61721 0.27632 0.13353 0.0
Zn691 Zn 0.63388 0.27336 0.10386 0.0
O692 O 0.65801 0.24392 0.11266 0.0
O693 O 0.69499 0.25715 0.10603 0.0
O694 O 0.61505 0.26174 0.07725 0.0
O695 O 0.65352 0.26441 0.06828 0.0
O696 O 0.68142 0.31156 0.08876 0.0
O697 O 0.64236 0.31049 0.096 0.0
C698 C 0.68087 0.2404 0.11263 0.0
C699 C 0.6614 0.3224 0.09056 0.0
C700 C 0.00825 0.43102 0.36526 0.0
C701 C 0.92597 0.41885 0.33914 0.0
O702 O 0.00354 0.40848 0.36303 0.0
Zn703 Zn 0.97266 0.38711 0.35191 0.0
O704 O 0.99214 0.44654 0.36056 0.0
Zn705 Zn 0.96753 0.42427 0.35147 0.0
O706 O 0.95864 0.40634 0.38524 0.0
O707 O 0.96721 0.36784 0.3798 0.0
O708 O 0.93735 0.43835 0.3425 0.0
O709 O 0.93682 0.39859 0.34171 0.0
O710 O 0.98416 0.37007 0.32438 0.0
O711 O 0.98287 0.40932 0.31864 0.0
C712 C 0.95965 0.38466 0.3933 0.0
C713 C 0.98828 0.38813 0.31103 0.0
C714 C 0.8652 0.71252 0.64406 0.0
C715 C 0.86686 0.73966 0.5611 0.0
O716 O 0.84441 0.70999 0.63411 0.0
Zn717 Zn 0.82894 0.71737 0.59844 0.0
O718 O 0.88275 0.72088 0.63199 0.0
Zn719 Zn 0.86572 0.72425 0.60249 0.0
O720 O 0.84194 0.75373 0.61186 0.0
O721 O 0.80473 0.74096 0.60564 0.0
O722 O 0.88411 0.73606 0.57562 0.0
O723 O 0.84548 0.73349 0.56729 0.0
O724 O 0.81777 0.68628 0.58781 0.0
O725 O 0.85695 0.68728 0.59439 0.0
C726 C 0.81913 0.7575 0.61215 0.0
C727 C 0.83782 0.67542 0.58916 0.0
C728 C 0.50934 0.38185 0.68736 0.0
C729 C 0.53548 0.38358 0.60417 0.0
O730 O 0.51527 0.40328 0.68109 0.0
Zn731 Zn 0.53084 0.41992 0.64973 0.0
O732 O 0.51282 0.36463 0.67279 0.0
Zn733 Zn 0.52415 0.38309 0.64581 0.0
O734 O 0.56111 0.39214 0.65353 0.0
O735 O 0.56194 0.43135 0.65999 0.0
O736 O 0.52735 0.36601 0.61636 0.0
O737 O 0.53797 0.40442 0.61403 0.0
O738 O 0.507 0.44394 0.64275 0.0
O739 O 0.49444 0.40663 0.63667 0.0
C740 C 0.5729 0.41136 0.65858 0.0
C741 C 0.49051 0.42941 0.63638 0.0
C742 C 0.83739 0.32156 0.90877 0.0
C743 C 0.82167 0.23918 0.88551 0.0
O744 O 0.85732 0.31039 0.90505 0.0
Zn745 Zn 0.86737 0.27383 0.89513 0.0
O746 O 0.81762 0.31027 0.90739 0.0
Zn747 Zn 0.83058 0.27974 0.89835 0.0
O748 O 0.84776 0.26495 0.93036 0.0
O749 O 0.88632 0.26239 0.9215 0.0
O750 O 0.80707 0.25572 0.89144 0.0
O751 O 0.84445 0.24326 0.88595 0.0
O752 O 0.88463 0.27812 0.8658 0.0
O753 O 0.846 0.28736 0.86303 0.0
C754 C 0.86935 0.25914 0.9364 0.0
C755 C 0.86697 0.28561 0.85339 0.0
C756 C 0.92813 0.59154 0.15915 0.0
C757 C 0.01101 0.57408 0.13803 0.0
O758 O 0.93957 0.61085 0.15357 0.0
Zn759 Zn 0.97665 0.62027 0.14582 0.0
O760 O 0.93954 0.57187 0.16127 0.0
Zn761 Zn 0.97046 0.58358 0.15093 0.0
O762 O 0.98539 0.60156 0.1819 0.0
O763 O 0.98773 0.63987 0.17223 0.0
O764 O 0.99466 0.55966 0.14494 0.0
O765 O 0.00682 0.59682 0.13749 0.0
O766 O 0.97341 0.63635 0.1158 0.0
O767 O 0.96335 0.59774 0.11466 0.0
C768 C 0.99112 0.62324 0.18749 0.0
C769 C 0.96564 0.61827 0.10413 0.0
C770 C 0.63638 0.73815 0.43743 0.0
C771 C 0.6354 0.71097 0.35461 0.0
O772 O 0.65772 0.73245 0.43051 0.0
Zn773 Zn 0.67348 0.71702 0.39813 0.0
O774 O 0.61872 0.73426 0.42349 0.0
Zn775 Zn 0.63645 0.72278 0.39634 0.0
O776 O 0.64682 0.68641 0.4058 0.0
O777 O 0.68657 0.68633 0.40684 0.0
O778 O 0.61814 0.71841 0.36762 0.0
O779 O 0.6567 0.70935 0.36351 0.0
O780 O 0.69661 0.74113 0.39005 0.0
O781 O 0.65888 0.75329 0.38627 0.0
C782 C 0.66678 0.67515 0.40884 0.0
C783 C 0.68157 0.75755 0.38482 0.0
C784 C 0.86268 0.48946 0.5664 0.0
C785 C 0.84105 0.57175 0.58571 0.0
O786 O 0.86257 0.493 0.58926 0.0
Zn787 Zn 0.85399 0.52259 0.61329 0.0
O788 O 0.85649 0.50632 0.55222 0.0
Zn789 Zn 0.84982 0.52976 0.57666 0.0
O790 O 0.88569 0.53654 0.59196 0.0
O791 O 0.88355 0.52533 0.6302 0.0
O792 O 0.8395 0.56097 0.56563 0.0
O793 O 0.84629 0.55977 0.60478 0.0
O794 O 0.82719 0.51126 0.63195 0.0
O795 O 0.8185 0.51404 0.59341 0.0
C796 C 0.89568 0.53365 0.61269 0.0
C797 C 0.81244 0.50795 0.61486 0.0
C798 C 0.75946 0.61072 0.82067 0.0
C799 C 0.67722 0.58923 0.83981 0.0
O800 O 0.75586 0.61114 0.84353 0.0
Zn801 Zn 0.7262 0.60275 0.86762 0.0
O802 O 0.74274 0.60388 0.80665 0.0
Zn803 Zn 0.71928 0.59766 0.83111 0.0
O804 O 0.71216 0.63387 0.84551 0.0
O805 O 0.72316 0.63269 0.88385 0.0
O806 O 0.68828 0.58713 0.81995 0.0
O807 O 0.68897 0.59487 0.85893 0.0
O808 O 0.73763 0.57637 0.887 0.0
O809 O 0.73482 0.56671 0.84872 0.0
C810 C 0.71484 0.64436 0.86602 0.0
C811 C 0.74087 0.56115 0.87032 0.0
C812 C 0.68689 0.49034 0.11706 0.0
C813 C 0.60382 0.46335 0.11544 0.0
O814 O 0.68072 0.48407 0.09569 0.0
Zn815 Zn 0.64949 0.46792 0.07921 0.0
O816 O 0.67228 0.48693 0.13426 0.0
Zn817 Zn 0.6454 0.47508 0.11586 0.0
O818 O 0.65343 0.43796 0.10728 0.0
O819 O 0.66007 0.43689 0.0681 0.0
O820 O 0.61588 0.47188 0.13291 0.0
O821 O 0.61378 0.46064 0.09468 0.0
O822 O 0.6423 0.49113 0.05476 0.0
O823 O 0.63611 0.50442 0.09179 0.0
C824 C 0.65866 0.42606 0.08816 0.0
C825 C 0.63582 0.50788 0.06893 0.0
C826 C 0.74097 0.38669 0.31877 0.0
C827 C 0.8232 0.41239 0.33184 0.0
O828 O 0.74578 0.38753 0.34145 0.0
Zn829 Zn 0.77702 0.39816 0.36326 0.0
O830 O 0.7569 0.39274 0.30353 0.0
Zn831 Zn 0.78138 0.40035 0.32614 0.0
O832 O 0.78902 0.36526 0.34192 0.0
O833 O 0.78415 0.36978 0.38119 0.0
O834 O 0.81175 0.40956 0.31232 0.0
O835 O 0.81243 0.4092 0.35201 0.0
O836 O 0.76533 0.42462 0.38186 0.0
O837 O 0.76603 0.43232 0.34294 0.0
C838 C 0.78956 0.35657 0.36335 0.0
C839 C 0.7608 0.43881 0.36455 0.0
C840 C 0.81167 0.48814 0.8868 0.0
C841 C 0.89448 0.46115 0.88453 0.0
O842 O 0.81882 0.48227 0.90802 0.0
Zn843 Zn 0.85139 0.46665 0.92322 0.0
O844 O 0.82543 0.48439 0.86898 0.0
Zn845 Zn 0.85282 0.47283 0.88625 0.0
O846 O 0.84385 0.43624 0.89622 0.0
O847 O 0.84299 0.43571 0.93598 0.0
O848 O 0.88128 0.4688 0.86751 0.0
O849 O 0.88585 0.45926 0.90592 0.0
O850 O 0.85977 0.49046 0.94658 0.0
O851 O 0.86327 0.50304 0.90896 0.0
C852 C 0.84108 0.42471 0.91607 0.0
C853 C 0.86498 0.50701 0.93169 0.0
C854 C 0.74187 0.61257 0.18044 0.0
C855 C 0.82426 0.59112 0.16129 0.0
O856 O 0.7454 0.61219 0.15759 0.0
Zn857 Zn 0.77494 0.60315 0.13359 0.0
O858 O 0.75868 0.60639 0.19469 0.0
Zn859 Zn 0.78203 0.59935 0.17026 0.0
O860 O 0.78861 0.63513 0.15459 0.0
O861 O 0.7775 0.63257 0.11633 0.0
O862 O 0.8134 0.58933 0.18129 0.0
O863 O 0.81225 0.59607 0.14217 0.0
O864 O 0.76348 0.57601 0.11534 0.0
O865 O 0.76596 0.56794 0.15401 0.0
C866 C 0.78573 0.64491 0.13376 0.0
C867 C 0.75983 0.5616 0.13266 0.0
C868 C 0.63667 0.48976 0.42983 0.0
C869 C 0.66044 0.57207 0.41426 0.0
O870 O 0.63736 0.49392 0.40708 0.0
Zn871 Zn 0.64684 0.52442 0.38429 0.0
O872 O 0.64255 0.5062 0.44457 0.0
Zn873 Zn 0.64982 0.53028 0.42116 0.0
O874 O 0.61466 0.53808 0.40546 0.0
O875 O 0.61766 0.52886 0.36683 0.0
O876 O 0.65894 0.56086 0.43408 0.0
O877 O 0.65678 0.56084 0.39436 0.0
O878 O 0.67331 0.51296 0.36558 0.0
O879 O 0.68183 0.5152 0.40426 0.0
C880 C 0.60517 0.5364 0.38441 0.0
C881 C 0.68802 0.50947 0.38269 0.0
C882 C 0.67654 0.40831 0.66106 0.0
C883 C 0.75855 0.38557 0.67986 0.0
O884 O 0.68835 0.40298 0.64192 0.0
Zn885 Zn 0.72534 0.39488 0.63316 0.0
O886 O 0.68744 0.40974 0.68108 0.0
Zn887 Zn 0.71845 0.39911 0.66986 0.0
O888 O 0.7344 0.43026 0.65308 0.0
O889 O 0.73694 0.42159 0.61451 0.0
O890 O 0.74193 0.39211 0.69416 0.0
O891 O 0.75487 0.38575 0.65703 0.0
O892 O 0.72211 0.36537 0.61623 0.0
O893 O 0.71118 0.36332 0.65456 0.0
C894 C 0.74046 0.4363 0.63162 0.0
C895 C 0.7138 0.35331 0.63381 0.0
C896 C 0.58938 0.83882 0.57211 0.0
C897 C 0.57001 0.86092 0.49016 0.0
O898 O 0.6085 0.84442 0.56037 0.0
Zn899 Zn 0.61708 0.85256 0.52316 0.0
O900 O 0.56946 0.83699 0.5611 0.0
Zn901 Zn 0.58063 0.84772 0.53022 0.0
O902 O 0.59797 0.8167 0.51441 0.0
O903 O 0.63629 0.82618 0.51157 0.0
O904 O 0.55607 0.85422 0.50699 0.0
O905 O 0.59289 0.8612 0.4936 0.0
O906 O 0.6336 0.8823 0.52634 0.0
O907 O 0.59538 0.88379 0.53766 0.0
C908 C 0.61953 0.81106 0.50829 0.0
C909 C 0.61599 0.89407 0.53496 0.0
C910 C 0.06759 0.63443 0.50643 0.0
C911 C 0.08372 0.66068 0.42494 0.0
O912 O 0.09035 0.63588 0.50253 0.0
Zn913 Zn 0.11327 0.64656 0.47259 0.0
O914 O 0.0528 0.6401 0.48993 0.0
Zn915 Zn 0.07634 0.64854 0.46633 0.0
O916 O 0.09306 0.61393 0.45829 0.0
O917 O 0.13152 0.61787 0.4678 0.0
O918 O 0.06377 0.65821 0.43573 0.0
O919 O 0.1035 0.6572 0.43641 0.0
O920 O 0.13091 0.67333 0.48506 0.0
O921 O 0.09196 0.68051 0.48274 0.0
C922 C 0.11433 0.60497 0.46006 0.0
C923 C 0.11323 0.68724 0.48894 0.0
C924 C 0.61151 0.81823 0.75819 0.0
C925 C 0.58985 0.83688 0.67585 0.0
O926 O 0.61149 0.84106 0.75446 0.0
Zn927 Zn 0.60261 0.86489 0.72482 0.0
O928 O 0.60485 0.80397 0.74159 0.0
Zn929 Zn 0.59811 0.82823 0.718 0.0
O930 O 0.63407 0.84318 0.71095 0.0
O931 O 0.63229 0.88156 0.72178 0.0
O932 O 0.58788 0.81697 0.68686 0.0
O933 O 0.59509 0.85605 0.68767 0.0
O934 O 0.57587 0.88376 0.7362 0.0
O935 O 0.56693 0.84529 0.73362 0.0
C936 C 0.64422 0.86385 0.71355 0.0
C937 C 0.56099 0.8668 0.73962 0.0
C938 C 0.4306 0.36186 0.00793 0.0
C939 C 0.41109 0.33909 0.92606 0.0
O940 O 0.40774 0.36174 0.00442 0.0
Zn941 Zn 0.38362 0.35267 0.97508 0.0
O942 O 0.44475 0.35527 0.9912 0.0
Zn943 Zn 0.42025 0.3483 0.96792 0.0
O944 O 0.40504 0.38413 0.96069 0.0
O945 O 0.36679 0.38227 0.97192 0.0
O946 O 0.43118 0.33758 0.93682 0.0
O947 O 0.39206 0.34451 0.93801 0.0
O948 O 0.36499 0.32601 0.98689 0.0
O949 O 0.40351 0.31725 0.9841 0.0
C950 C 0.38434 0.39423 0.96344 0.0
C951 C 0.38208 0.31128 0.99033 0.0
C952 C 0.43698 0.63252 0.73951 0.0
C953 C 0.35402 0.63342 0.71236 0.0
O954 O 0.43065 0.65388 0.7334 0.0
Zn955 Zn 0.39929 0.67012 0.71721 0.0
O956 O 0.42256 0.61521 0.73588 0.0
Zn957 Zn 0.39553 0.63343 0.72417 0.0
O958 O 0.40329 0.64224 0.68707 0.0
O959 O 0.40971 0.68145 0.68618 0.0
O960 O 0.36625 0.61605 0.72088 0.0
O961 O 0.36374 0.65431 0.70979 0.0
O962 O 0.3918 0.69441 0.7405 0.0
O963 O 0.38593 0.65726 0.75361 0.0
C964 C 0.40829 0.66146 0.67524 0.0
C965 C 0.3854 0.68012 0.75717 0.0
C966 C 0.88535 0.18876 0.00988 0.0
C967 C 0.88061 0.10616 0.03714 0.0
O968 O 0.90655 0.1804 0.01427 0.0
Zn969 Zn 0.92103 0.1468 0.02926 0.0
O970 O 0.86706 0.17613 0.01513 0.0
Zn971 Zn 0.88372 0.14813 0.02563 0.0
O972 O 0.89648 0.15769 0.06087 0.0
O973 O 0.93601 0.15445 0.05959 0.0
O974 O 0.86375 0.12078 0.03225 0.0
O975 O 0.90257 0.11329 0.03657 0.0
O976 O 0.9424 0.13654 0.00449 0.0
O977 O 0.90407 0.13754 0.99343 0.0
C978 C 0.917 0.15896 0.07136 0.0
C979 C 0.92638 0.13375 0.98841 0.0
C980 C 0.56143 0.13297 0.75889 0.0
C981 C 0.64422 0.13466 0.78605 0.0
O982 O 0.56753 0.15439 0.76503 0.0
Zn983 Zn 0.59866 0.17098 0.78129 0.0
O984 O 0.57601 0.11578 0.7625 0.0
Zn985 Zn 0.60271 0.13426 0.77431 0.0
O986 O 0.59442 0.14294 0.81123 0.0
O987 O 0.58792 0.18213 0.81232 0.0
O988 O 0.63208 0.11718 0.77767 0.0
O989 O 0.63434 0.15548 0.78868 0.0
O990 O 0.60595 0.19528 0.75789 0.0
O991 O 0.61213 0.15813 0.74491 0.0
C992 C 0.58914 0.16205 0.82311 0.0
C993 C 0.6125 0.18096 0.74128 0.0
C994 C 0.93449 0.86739 0.25812 0.0
C995 C 0.85164 0.86572 0.28528 0.0
O996 O 0.92838 0.84598 0.2643 0.0
Zn997 Zn 0.89715 0.82937 0.28035 0.0
O998 O 0.91985 0.88456 0.26152 0.0
Zn999 Zn 0.89313 0.86603 0.27327 0.0
O1000 O 0.90156 0.85735 0.31028 0.0
O1001 O 0.90796 0.81814 0.3113 0.0
O1002 O 0.86371 0.88312 0.27667 0.0
O1003 O 0.86153 0.84491 0.28791 0.0
O1004 O 0.88999 0.80505 0.25695 0.0
O1005 O 0.88398 0.84212 0.24375 0.0
C1006 C 0.90687 0.83822 0.32212 0.0
C1007 C 0.88369 0.81927 0.24017 0.0
C1008 C 0.42565 0.41039 0.1577 0.0
C1009 C 0.50807 0.42962 0.13635 0.0
O1010 O 0.43653 0.43038 0.15958 0.0
Zn1011 Zn 0.46785 0.41937 0.14945 0.0
O1012 O 0.43763 0.39129 0.15258 0.0
Zn1013 Zn 0.47493 0.38274 0.1453 0.0
O1014 O 0.48636 0.36417 0.17222 0.0
O1015 O 0.48377 0.40275 0.18074 0.0
O1016 O 0.5045 0.40677 0.1365 0.0
O1017 O 0.49127 0.44382 0.14267 0.0
O1018 O 0.46115 0.40405 0.11356 0.0
O1019 O 0.47227 0.36577 0.11572 0.0
C1020 C 0.48989 0.38132 0.18686 0.0
C1021 C 0.46398 0.38331 0.10358 0.0
C1022 C 0.3631 0.7134 0.85264 0.0
C1023 C 0.36466 0.73921 0.93589 0.0
O1024 O 0.38053 0.7218 0.86484 0.0
Zn1025 Zn 0.36345 0.72467 0.89429 0.0
O1026 O 0.34231 0.71057 0.86249 0.0
Zn1027 Zn 0.32674 0.71746 0.8982 0.0
O1028 O 0.3024 0.741 0.89131 0.0
O1029 O 0.33952 0.75417 0.88543 0.0
O1030 O 0.34327 0.73309 0.92965 0.0
O1031 O 0.38186 0.73604 0.92124 0.0
O1032 O 0.35492 0.68759 0.90202 0.0
O1033 O 0.31572 0.68621 0.90843 0.0
C1034 C 0.31668 0.75778 0.88514 0.0
C1035 C 0.33587 0.67553 0.90709 0.0
C1036 C 0.07343 0.58543 0.657 0.0
C1037 C 0.99139 0.56649 0.63455 0.0
O1038 O 0.06257 0.56541 0.6586 0.0
Zn1039 Zn 0.03143 0.57655 0.6482 0.0
O1040 O 0.06151 0.60456 0.65186 0.0
Zn1041 Zn 0.02442 0.61324 0.64416 0.0
O1042 O 0.0128 0.63169 0.67103 0.0
O1043 O 0.01533 0.59308 0.67944 0.0
O1044 O 0.99498 0.58933 0.63489 0.0
O1045 O 0.00806 0.55221 0.64102 0.0
O1046 O 0.03855 0.59202 0.61245 0.0
O1047 O 0.02748 0.63031 0.61473 0.0
C1048 C 0.00922 0.6145 0.6856 0.0
C1049 C 0.03584 0.61283 0.60258 0.0
C1050 C 0.16792 0.32251 0.40901 0.0
C1051 C 0.17929 0.2402 0.38223 0.0
O1052 O 0.18736 0.31121 0.40499 0.0
Zn1053 Zn 0.17311 0.28109 0.39587 0.0
O1054 O 0.14762 0.31168 0.40673 0.0
Zn1055 Zn 0.13583 0.27611 0.39631 0.0
O1056 O 0.11909 0.26479 0.42401 0.0
O1057 O 0.15852 0.2653 0.42895 0.0
O1058 O 0.15694 0.2449 0.38593 0.0
O1059 O 0.19497 0.2566 0.38507 0.0
O1060 O 0.1548 0.29043 0.36276 0.0
O1061 O 0.11644 0.2816 0.36824 0.0
C1062 C 0.13737 0.26012 0.4369 0.0
C1063 C 0.13314 0.28941 0.35476 0.0
C1064 C 0.49059 0.61527 0.31176 0.0
C1065 C 0.46325 0.61501 0.3946 0.0
O1066 O 0.48689 0.63271 0.32603 0.0
Zn1067 Zn 0.47535 0.61462 0.35315 0.0
O1068 O 0.48465 0.59393 0.3183 0.0
Zn1069 Zn 0.4687 0.5778 0.34981 0.0
O1070 O 0.43788 0.56602 0.33928 0.0
O1071 O 0.43845 0.60534 0.34504 0.0
O1072 O 0.46091 0.59397 0.38512 0.0
O1073 O 0.47172 0.63227 0.38221 0.0
O1074 O 0.50509 0.59123 0.36285 0.0
O1075 O 0.49234 0.55389 0.35746 0.0
C1076 C 0.42681 0.58598 0.34016 0.0
C1077 C 0.50891 0.56843 0.36354 0.0
C1078 C 0.18241 0.75815 0.11405 0.0
C1079 C 0.1703 0.67603 0.08752 0.0
O1080 O 0.19793 0.74231 0.10842 0.0
Zn1081 Zn 0.17567 0.71782 0.09986 0.0
O1082 O 0.15981 0.75326 0.11246 0.0
Zn1083 Zn 0.13844 0.72207 0.10103 0.0
O1084 O 0.11974 0.71471 0.12887 0.0
O1085 O 0.15889 0.70985 0.13437 0.0
O1086 O 0.15007 0.6868 0.09021 0.0
O1087 O 0.18976 0.68745 0.09085 0.0
O1088 O 0.15981 0.73354 0.06759 0.0
O1089 O 0.12066 0.73385 0.07407 0.0
C1090 C 0.13724 0.70919 0.14248 0.0
C1091 C 0.13837 0.73871 0.0605 0.0
C1092 C 0.07245 0.41082 0.8393 0.0
C1093 C 0.99003 0.42891 0.86102 0.0
O1094 O 0.06141 0.43075 0.83775 0.0
Zn1095 Zn 0.03035 0.4193 0.84795 0.0
O1096 O 0.06074 0.39158 0.84447 0.0
Zn1097 Zn 0.02372 0.3825 0.85208 0.0
O1098 O 0.01246 0.36386 0.82512 0.0
O1099 O 0.01492 0.40245 0.8166 0.0
O1100 O 0.99395 0.40612 0.86092 0.0
O1101 O 0.00654 0.44339 0.85459 0.0
O1102 O 0.03722 0.4041 0.88386 0.0
O1103 O 0.02675 0.36565 0.88173 0.0
C1104 C 0.00902 0.38099 0.81042 0.0
C1105 C 0.03467 0.38335 0.89389 0.0
C1106 C 0.31697 0.24051 0.61416 0.0
C1107 C 0.33257 0.32248 0.58915 0.0
O1108 O 0.30209 0.25703 0.60884 0.0
Zn1109 Zn 0.32544 0.28084 0.60049 0.0
O1110 O 0.3397 0.24451 0.6126 0.0
Zn1111 Zn 0.36242 0.27469 0.60218 0.0
O1112 O 0.38089 0.27916 0.63078 0.0
O1113 O 0.34244 0.28863 0.63499 0.0
O1114 O 0.35242 0.31103 0.59225 0.0
O1115 O 0.31266 0.31158 0.59148 0.0
O1116 O 0.34094 0.265 0.56818 0.0
O1117 O 0.37994 0.26278 0.57512 0.0
C1118 C 0.36377 0.28685 0.64381 0.0
C1119 C 0.3622 0.25902 0.56124 0.0
C1120 C 0.10558 0.45976 0.38633 0.0
C1121 C 0.18831 0.48737 0.38678 0.0
O1122 O 0.11854 0.46699 0.36896 0.0
Zn1123 Zn 0.14728 0.47209 0.38705 0.0
O1124 O 0.11448 0.45856 0.40767 0.0
Zn1125 Zn 0.14905 0.46677 0.42425 0.0
O1126 O 0.14104 0.49153 0.44691 0.0
O1127 O 0.13711 0.50284 0.40893 0.0
O1128 O 0.18141 0.48183 0.40817 0.0
O1129 O 0.17429 0.48357 0.36915 0.0
O1130 O 0.15764 0.43621 0.39787 0.0
O1131 O 0.15821 0.43625 0.43764 0.0
C1132 C 0.13573 0.50761 0.43152 0.0
C1133 C 0.16086 0.42511 0.41789 0.0
C1134 C 0.23937 0.38711 0.17817 0.0
C1135 C 0.3218 0.40798 0.15874 0.0
O1136 O 0.2562 0.39378 0.19214 0.0
Zn1137 Zn 0.27966 0.39975 0.16759 0.0
O1138 O 0.24292 0.3866 0.15531 0.0
Zn1139 Zn 0.27265 0.39465 0.13112 0.0
O1140 O 0.27536 0.36468 0.11493 0.0
O1141 O 0.28643 0.36344 0.15325 0.0
O1142 O 0.30998 0.40234 0.13967 0.0
O1143 O 0.31079 0.41015 0.17863 0.0
O1144 O 0.2642 0.43074 0.14993 0.0
O1145 O 0.26135 0.42099 0.11166 0.0
C1146 C 0.28359 0.35295 0.13276 0.0
C1147 C 0.25814 0.43626 0.12832 0.0
C1148 C 0.3406 0.57199 0.9108 0.0
C1149 C 0.36349 0.49004 0.93005 0.0
O1150 O 0.3394 0.56127 0.93094 0.0
Zn1151 Zn 0.35005 0.5302 0.91988 0.0
O1152 O 0.34589 0.56004 0.89174 0.0
Zn1153 Zn 0.35416 0.52301 0.8832 0.0
O1154 O 0.32743 0.51133 0.86466 0.0
O1155 O 0.31881 0.51428 0.90321 0.0
O1156 O 0.36325 0.4936 0.9072 0.0
O1157 O 0.35709 0.5068 0.94426 0.0
O1158 O 0.38573 0.53748 0.90445 0.0
O1159 O 0.38363 0.52623 0.86621 0.0
C1160 C 0.31272 0.50808 0.8818 0.0
C1161 C 0.39569 0.53475 0.88369 0.0
C1162 C 0.1771 0.58837 0.65841 0.0
C1163 C 0.25897 0.61117 0.67756 0.0
O1164 O 0.1881 0.58657 0.67834 0.0
Zn1165 Zn 0.21891 0.59762 0.66719 0.0
O1166 O 0.1888 0.59417 0.63933 0.0
Zn1167 Zn 0.2258 0.6028 0.63065 0.0
O1168 O 0.23761 0.57663 0.61125 0.0
O1169 O 0.2348 0.56689 0.64952 0.0
O1170 O 0.25532 0.61156 0.65471 0.0
O1171 O 0.24235 0.60416 0.69161 0.0
O1172 O 0.2111 0.63368 0.65278 0.0
O1173 O 0.22217 0.63269 0.61446 0.0
C1174 C 0.24096 0.56142 0.62793 0.0
C1175 C 0.21356 0.6442 0.63227 0.0
C1176 C 0.10609 0.5402 0.11392 0.0
C1177 C 0.18775 0.50974 0.11156 0.0
O1178 O 0.11919 0.53218 0.13083 0.0
Zn1179 Zn 0.1473 0.52653 0.11196 0.0
O1180 O 0.11456 0.54147 0.0924 0.0
Zn1181 Zn 0.14859 0.53221 0.075 0.0
O1182 O 0.13927 0.50853 0.05199 0.0
O1183 O 0.1358 0.49627 0.0897 0.0
O1184 O 0.18073 0.51562 0.09029 0.0
O1185 O 0.17417 0.51406 0.12938 0.0
O1186 O 0.15845 0.56241 0.10129 0.0
O1187 O 0.15858 0.56224 0.06153 0.0
C1188 C 0.13384 0.49218 0.067 0.0
C1189 C 0.16171 0.57339 0.08119 0.0
C1190 C 0.2135 0.35394 0.86378 0.0
C1191 C 0.24019 0.43687 0.86552 0.0
O1192 O 0.22193 0.36605 0.88126 0.0
Zn1193 Zn 0.22507 0.39547 0.8642 0.0
O1194 O 0.21081 0.36384 0.84298 0.0
Zn1195 Zn 0.21804 0.39954 0.82751 0.0
O1196 O 0.24146 0.39242 0.80318 0.0
O1197 O 0.25452 0.38627 0.8403 0.0
O1198 O 0.23407 0.43074 0.8441 0.0
O1199 O 0.23668 0.42227 0.8827 0.0
O1200 O 0.18802 0.4034 0.85555 0.0
O1201 O 0.18693 0.41007 0.81638 0.0
C1202 C 0.25814 0.38598 0.81746 0.0
C1203 C 0.17611 0.40862 0.83644 0.0
C1204 C 0.39471 0.46119 0.61306 0.0
C1205 C 0.31208 0.48876 0.61131 0.0
O1206 O 0.38161 0.46892 0.63012 0.0
Zn1207 Zn 0.35306 0.47324 0.61157 0.0
O1208 O 0.38595 0.45931 0.59171 0.0
Zn1209 Zn 0.35146 0.46698 0.57464 0.0
O1210 O 0.35978 0.49069 0.55122 0.0
O1211 O 0.36334 0.50343 0.58877 0.0
O1212 O 0.31905 0.48278 0.59005 0.0
O1213 O 0.32596 0.48506 0.62906 0.0
O1214 O 0.3432 0.43684 0.60163 0.0
O1215 O 0.34253 0.43623 0.56188 0.0
C1216 C 0.36494 0.50734 0.56602 0.0
C1217 C 0.34015 0.42535 0.5818 0.0
C1218 C 0.32314 0.5871 0.33811 0.0
C1219 C 0.24031 0.60806 0.32044 0.0
O1220 O 0.31195 0.58499 0.3183 0.0
Zn1221 Zn 0.28096 0.59545 0.32985 0.0
O1222 O 0.31155 0.59267 0.35731 0.0
Zn1223 Zn 0.27467 0.6005 0.36659 0.0
O1224 O 0.26368 0.57414 0.38617 0.0
O1225 O 0.26589 0.56452 0.34781 0.0
O1226 O 0.24458 0.60865 0.34316 0.0
O1227 O 0.25667 0.60136 0.30592 0.0
O1228 O 0.28824 0.63173 0.34408 0.0
O1229 O 0.278 0.63047 0.38264 0.0
C1230 C 0.26018 0.55894 0.36949 0.0
C1231 C 0.28597 0.64216 0.36467 0.0
C1232 C 0.3825 0.10292 0.46386 0.0
C1233 C 0.37859 0.18594 0.49048 0.0
O1234 O 0.36477 0.11461 0.47237 0.0
Zn1235 Zn 0.38108 0.14445 0.47558 0.0
O1236 O 0.40305 0.11332 0.46114 0.0
Zn1237 Zn 0.41758 0.14944 0.46847 0.0
O1238 O 0.44214 0.14299 0.49175 0.0
O1239 O 0.4053 0.1358 0.50501 0.0
O1240 O 0.40014 0.18035 0.48428 0.0
O1241 O 0.36184 0.17078 0.48728 0.0
O1242 O 0.38957 0.15268 0.43847 0.0
O1243 O 0.42859 0.16021 0.43753 0.0
C1244 C 0.42817 0.13611 0.50849 0.0
C1245 C 0.40861 0.15835 0.42665 0.0
C1246 C 0.87551 0.30994 0.50704 0.0
C1247 C 0.88079 0.39306 0.53314 0.0
O1248 O 0.85898 0.3253 0.51045 0.0
Zn1249 Zn 0.87869 0.35148 0.52177 0.0
O1250 O 0.89721 0.31533 0.51287 0.0
Zn1251 Zn 0.9153 0.34611 0.52808 0.0
O1252 O 0.92687 0.33545 0.55893 0.0
O1253 O 0.88792 0.34338 0.55881 0.0
O1254 O 0.90127 0.38243 0.53545 0.0
O1255 O 0.86272 0.38151 0.52517 0.0
O1256 O 0.90234 0.35995 0.4918 0.0
O1257 O 0.93939 0.35214 0.50411 0.0
C1258 C 0.90716 0.33759 0.57027 0.0
C1259 C 0.9251 0.3593 0.48775 0.0
C1260 C 0.35229 0.13273 0.286 0.0
C1261 C 0.43531 0.13176 0.25904 0.0
O1262 O 0.36452 0.1154 0.27743 0.0
Zn1263 Zn 0.39381 0.13273 0.27411 0.0
O1264 O 0.362 0.15363 0.28859 0.0
Zn1265 Zn 0.39754 0.16943 0.28116 0.0
O1266 O 0.39019 0.19369 0.25782 0.0
O1267 O 0.38443 0.15656 0.24463 0.0
O1268 O 0.42897 0.15312 0.26518 0.0
O1269 O 0.42083 0.11446 0.26248 0.0
O1270 O 0.40171 0.14154 0.31117 0.0
O1271 O 0.40797 0.18078 0.31215 0.0
C1272 C 0.38395 0.17941 0.24107 0.0
C1273 C 0.4067 0.16074 0.32302 0.0
C1274 C 0.58745 0.65814 0.07269 0.0
C1275 C 0.56817 0.63582 0.99061 0.0
O1276 O 0.56736 0.65968 0.06193 0.0
Zn1277 Zn 0.57835 0.64917 0.03077 0.0
O1278 O 0.60649 0.65285 0.06071 0.0
Zn1279 Zn 0.61502 0.64492 0.02364 0.0
O1280 O 0.63364 0.67164 0.01205 0.0
O1281 O 0.5951 0.68034 0.01484 0.0
O1282 O 0.59102 0.63597 0.9942 0.0
O1283 O 0.55395 0.64228 0.00732 0.0
O1284 O 0.59364 0.61338 0.03787 0.0
O1285 O 0.63191 0.61537 0.02669 0.0
C1286 C 0.61653 0.68637 0.00868 0.0
C1287 C 0.61437 0.60335 0.03513 0.0
C1288 C 0.64485 0.36444 0.28677 0.0
C1289 C 0.56219 0.36531 0.25868 0.0
O1290 O 0.63265 0.38172 0.27805 0.0
Zn1291 Zn 0.60347 0.36434 0.2743 0.0
O1292 O 0.6352 0.3435 0.28923 0.0
Zn1293 Zn 0.59974 0.32766 0.28129 0.0
O1294 O 0.60744 0.30342 0.25801 0.0
O1295 O 0.61326 0.34056 0.2449 0.0
O1296 O 0.56847 0.34394 0.26487 0.0
O1297 O 0.57662 0.38261 0.26233 0.0
O1298 O 0.59506 0.35554 0.31119 0.0
O1299 O 0.58888 0.31628 0.31214 0.0
C1300 C 0.61383 0.31771 0.24134 0.0
C1301 C 0.58992 0.33635 0.323 0.0
C1302 C 0.07036 0.86154 0.00935 0.0
C1303 C 0.08938 0.84046 0.92692 0.0
O1304 O 0.05633 0.85454 0.99269 0.0
Zn1305 Zn 0.08077 0.84849 0.96914 0.0
O1306 O 0.0932 0.86209 0.00567 0.0
Zn1307 Zn 0.11724 0.8538 0.97591 0.0
O1308 O 0.13332 0.88379 0.97303 0.0
O1309 O 0.09491 0.88486 0.96223 0.0
O1310 O 0.10849 0.84616 0.93864 0.0
O1311 O 0.0696 0.83808 0.93807 0.0
O1312 O 0.09863 0.8176 0.98456 0.0
O1313 O 0.13685 0.82755 0.98714 0.0
C1314 C 0.11537 0.89543 0.96491 0.0
C1315 C 0.12031 0.81219 0.99047 0.0
C1316 C 0.35298 0.86534 0.21374 0.0
C1317 C 0.43651 0.86405 0.2391 0.0
O1318 O 0.36581 0.88239 0.22198 0.0
Zn1319 Zn 0.39501 0.86435 0.22465 0.0
O1320 O 0.36213 0.84425 0.21107 0.0
Zn1321 Zn 0.39684 0.82729 0.21812 0.0
O1322 O 0.38783 0.8038 0.2419 0.0
O1323 O 0.38689 0.84142 0.2551 0.0
O1324 O 0.42924 0.84276 0.23367 0.0
O1325 O 0.4228 0.88188 0.23508 0.0
O1326 O 0.40216 0.85471 0.18773 0.0
O1327 O 0.40652 0.8152 0.18706 0.0
C1328 C 0.38451 0.81874 0.2589 0.0
C1329 C 0.40623 0.8352 0.17603 0.0
C1330 C 0.1455 0.13379 0.71393 0.0
C1331 C 0.06204 0.13215 0.73911 0.0
O1332 O 0.13321 0.11631 0.7221 0.0
Zn1333 Zn 0.10373 0.13344 0.72456 0.0
O1334 O 0.13565 0.15459 0.71105 0.0
Zn1335 Zn 0.09979 0.17009 0.71753 0.0
O1336 O 0.10652 0.19446 0.74101 0.0
O1337 O 0.11243 0.15737 0.75425 0.0
O1338 O 0.06828 0.15358 0.73314 0.0
O1339 O 0.07666 0.11497 0.73567 0.0
O1340 O 0.0968 0.14211 0.68722 0.0
O1341 O 0.08997 0.18123 0.68619 0.0
C1342 C 0.11265 0.18022 0.75784 0.0
C1343 C 0.09186 0.16127 0.67526 0.0
C1344 C 0.11048 0.10338 0.35361 0.0
C1345 C 0.09742 0.08798 0.33841 0.0
H1346 H 0.14519 0.11481 0.36579 0.0
C1347 C 0.10989 0.07205 0.32319 0.0
H1348 H 0.10128 0.1156 0.36576 0.0
C1349 C 0.13514 0.07193 0.32286 0.0
C1350 C 0.14814 0.08708 0.33842 0.0
H1351 H 0.10014 0.05992 0.31142 0.0
H1352 H 0.14448 0.05984 0.31071 0.0
C1353 C 0.13558 0.1027 0.35386 0.0
C1354 C 0.14327 0.88633 0.60294 0.0
C1355 C 0.15882 0.89873 0.58732 0.0
H1356 H 0.13065 0.85208 0.61541 0.0
C1357 C 0.17402 0.88557 0.57196 0.0
H1358 H 0.13112 0.89608 0.61472 0.0
C1359 C 0.17408 0.86035 0.57268 0.0
C1360 C 0.15829 0.848 0.58813 0.0
H1361 H 0.18606 0.89477 0.55966 0.0
H1362 H 0.1863 0.85051 0.56107 0.0
C1363 C 0.14276 0.8612 0.60311 0.0
C1364 C 0.386 0.89525 0.85497 0.0
C1365 C 0.39881 0.91114 0.84003 0.0
H1366 H 0.35144 0.88283 0.86669 0.0
C1367 C 0.38608 0.92698 0.82496 0.0
H1368 H 0.39543 0.88308 0.86698 0.0
C1369 C 0.36085 0.92648 0.82442 0.0
C1370 C 0.34809 0.91079 0.83963 0.0
H1371 H 0.39562 0.93946 0.81339 0.0
H1372 H 0.35133 0.93847 0.81232 0.0
C1373 C 0.36088 0.89532 0.85502 0.0
C1374 C 0.32296 0.13564 0.07322 0.0
C1375 C 0.33813 0.14859 0.08879 0.0
H1376 H 0.31237 0.10075 0.06021 0.0
C1377 C 0.35385 0.136 0.1041 0.0
H1378 H 0.31061 0.145 0.06135 0.0
C1379 C 0.35422 0.11087 0.10407 0.0
C1380 C 0.33937 0.09787 0.08825 0.0
H1381 H 0.3655 0.14558 0.1165 0.0
H1382 H 0.36652 0.1016 0.11607 0.0
C1383 C 0.3239 0.11043 0.07263 0.0
C1384 C 0.11018 0.92725 0.17635 0.0
C1385 C 0.09759 0.91154 0.16101 0.0
H1386 H 0.14482 0.93875 0.18931 0.0
C1387 C 0.11054 0.89571 0.14613 0.0
H1388 H 0.10053 0.93969 0.18788 0.0
C1389 C 0.13566 0.89581 0.1463 0.0
C1390 C 0.1483 0.91125 0.16183 0.0
H1391 H 0.10125 0.88365 0.13391 0.0
H1392 H 0.1452 0.88343 0.13459 0.0
C1393 C 0.1354 0.92678 0.17709 0.0
C1394 C 0.31659 0.88812 0.39934 0.0
C1395 C 0.33209 0.89856 0.41636 0.0
H1396 H 0.30268 0.85532 0.38434 0.0
C1397 C 0.34513 0.88363 0.43211 0.0
H1398 H 0.30646 0.89933 0.38698 0.0
C1399 C 0.34361 0.85858 0.43007 0.0
C1400 C 0.32832 0.84814 0.41289 0.0
H1401 H 0.35739 0.89133 0.44522 0.0
H1402 H 0.35462 0.84737 0.44166 0.0
C1403 C 0.31437 0.86306 0.39793 0.0
C1404 C 0.38751 0.07202 0.67541 0.0
C1405 C 0.40011 0.0877 0.66007 0.0
H1406 H 0.35287 0.06048 0.68826 0.0
C1407 C 0.38719 0.10338 0.64501 0.0
H1408 H 0.39715 0.05969 0.68708 0.0
C1409 C 0.36207 0.10319 0.64504 0.0
C1410 C 0.34942 0.0878 0.66061 0.0
H1411 H 0.39651 0.11541 0.63278 0.0
H1412 H 0.35253 0.11548 0.63324 0.0
C1413 C 0.36229 0.0724 0.67601 0.0
C1414 C 0.17408 0.1128 0.92699 0.0
C1415 C 0.15875 0.09993 0.91151 0.0
H1416 H 0.18684 0.14764 0.93802 0.0
C1417 C 0.14355 0.11259 0.89575 0.0
H1418 H 0.18585 0.10337 0.93938 0.0
C1419 C 0.14347 0.13771 0.89562 0.0
C1420 C 0.15907 0.15063 0.91075 0.0
H1421 H 0.13132 0.10306 0.88387 0.0
H1422 H 0.13158 0.14704 0.88324 0.0
C1423 C 0.17456 0.13801 0.92629 0.0
C1424 C 0.10176 0.35653 0.13705 0.0
C1425 C 0.0866 0.3412 0.15025 0.0
H1426 H 0.11356 0.36802 0.1022 0.0
C1427 C 0.07107 0.32549 0.13788 0.0
H1428 H 0.11413 0.36858 0.14616 0.0
C1429 C 0.07041 0.3255 0.11264 0.0
C1430 C 0.08591 0.34056 0.0995 0.0
H1431 H 0.05931 0.31342 0.14771 0.0
H1432 H 0.05802 0.31356 0.10341 0.0
C1433 C 0.10166 0.35598 0.11193 0.0
C1434 C 0.60174 0.14466 0.88746 0.0
C1435 C 0.58645 0.16021 0.90025 0.0
H1436 H 0.61393 0.13262 0.85294 0.0
C1437 C 0.57146 0.17613 0.88752 0.0
H1438 H 0.61323 0.13198 0.89688 0.0
C1439 C 0.57222 0.17684 0.8623 0.0
C1440 C 0.58731 0.16101 0.84955 0.0
H1441 H 0.55943 0.18819 0.89706 0.0
H1442 H 0.56088 0.18956 0.85277 0.0
C1443 C 0.60192 0.14482 0.86235 0.0
C1444 C 0.89424 0.85505 0.36161 0.0
C1445 C 0.90898 0.83919 0.34855 0.0
H1446 H 0.88305 0.86741 0.39637 0.0
C1447 C 0.92447 0.82353 0.36104 0.0
H1448 H 0.88192 0.86708 0.35241 0.0
C1449 C 0.92548 0.82407 0.38625 0.0
C1450 C 0.91034 0.83962 0.39926 0.0
H1451 H 0.93592 0.81108 0.3513 0.0
H1452 H 0.9378 0.81213 0.39557 0.0
C1453 C 0.89467 0.85502 0.38673 0.0
C1454 C 0.93057 0.14906 0.13714 0.0
C1455 C 0.91544 0.16612 0.14804 0.0
H1456 H 0.9436 0.13413 0.10396 0.0
C1457 C 0.90228 0.18214 0.13351 0.0
H1458 H 0.94079 0.13649 0.14804 0.0
C1459 C 0.90325 0.18027 0.10842 0.0
C1460 C 0.91809 0.16297 0.09752 0.0
H1461 H 0.8903 0.19529 0.14156 0.0
H1462 H 0.89211 0.19204 0.09753 0.0
C1463 C 0.93224 0.1478 0.11203 0.0
C1464 C 0.42402 0.67679 0.63581 0.0
C1465 C 0.40932 0.66076 0.64874 0.0
H1466 H 0.43572 0.68877 0.60092 0.0
C1467 C 0.39417 0.64493 0.63611 0.0
H1468 H 0.43573 0.68926 0.64521 0.0
C1469 C 0.3935 0.64527 0.61098 0.0
C1470 C 0.40846 0.66099 0.59801 0.0
H1471 H 0.38239 0.63264 0.64567 0.0
H1472 H 0.38167 0.63283 0.60169 0.0
C1473 C 0.42392 0.67659 0.61059 0.0
C1474 C 0.10159 0.67991 0.38842 0.0
C1475 C 0.08415 0.66485 0.39878 0.0
H1476 H 0.11713 0.69337 0.35569 0.0
C1477 C 0.06819 0.65215 0.38378 0.0
H1478 H 0.11412 0.68978 0.39968 0.0
C1479 C 0.07043 0.65355 0.35875 0.0
C1480 C 0.08805 0.66839 0.34839 0.0
H1481 H 0.05476 0.64023 0.39142 0.0
H1482 H 0.05865 0.64281 0.34748 0.0
C1483 C 0.10323 0.68202 0.36337 0.0
C1484 C 0.39438 0.35269 0.8617 0.0
C1485 C 0.40953 0.33701 0.84888 0.0
H1486 H 0.38255 0.36499 0.89627 0.0
C1487 C 0.42488 0.32142 0.86161 0.0
H1488 H 0.38215 0.36466 0.85229 0.0
C1489 C 0.42546 0.32197 0.88683 0.0
C1490 C 0.41004 0.33745 0.89961 0.0
H1491 H 0.43663 0.3091 0.85206 0.0
H1492 H 0.43776 0.31016 0.89634 0.0
C1493 C 0.39439 0.35266 0.88683 0.0
C1494 C 0.88896 0.89865 0.67886 0.0
C1495 C 0.89953 0.91493 0.66272 0.0
H1496 H 0.85605 0.88437 0.6932 0.0
C1497 C 0.88474 0.92984 0.64858 0.0
H1498 H 0.90008 0.88693 0.68982 0.0
C1499 C 0.85967 0.92779 0.64986 0.0
C1500 C 0.84911 0.91148 0.66598 0.0
H1501 H 0.89258 0.94234 0.6358 0.0
H1502 H 0.84855 0.93882 0.6382 0.0
C1503 C 0.86389 0.89727 0.68082 0.0
C1504 C 0.84304 0.13946 0.42858 0.0
C1505 C 0.82823 0.14967 0.41085 0.0
H1506 H 0.85651 0.10693 0.44443 0.0
C1507 C 0.81471 0.13457 0.39569 0.0
H1508 H 0.8537 0.15082 0.44034 0.0
C1509 C 0.81695 0.10954 0.39744 0.0
C1510 C 0.83203 0.09932 0.41497 0.0
H1511 H 0.8034 0.14214 0.3817 0.0
H1512 H 0.8072 0.09818 0.38491 0.0
C1513 C 0.84457 0.11444 0.43093 0.0
C1514 C 0.63736 0.10462 0.14585 0.0
C1515 C 0.65038 0.08936 0.16126 0.0
H1516 H 0.60265 0.1165 0.13397 0.0
C1517 C 0.63781 0.07389 0.17686 0.0
H1518 H 0.64664 0.11694 0.13387 0.0
C1519 C 0.61258 0.07329 0.17656 0.0
C1520 C 0.59961 0.08879 0.16132 0.0
H1521 H 0.6475 0.06204 0.18898 0.0
H1522 H 0.60321 0.06087 0.18835 0.0
C1523 C 0.61223 0.10458 0.14612 0.0
C1524 C 0.67465 0.88644 0.92705 0.0
C1525 C 0.65938 0.89919 0.9114 0.0
H1526 H 0.68765 0.85167 0.9381 0.0
C1527 C 0.64447 0.88641 0.89547 0.0
H1528 H 0.68622 0.89597 0.93956 0.0
C1529 C 0.64463 0.86129 0.89527 0.0
C1530 C 0.66022 0.84849 0.91051 0.0
H1531 H 0.63231 0.89584 0.88344 0.0
H1532 H 0.63297 0.85189 0.88275 0.0
C1533 C 0.67541 0.86122 0.92627 0.0
C1534 C 0.8612 0.10148 0.85172 0.0
C1535 C 0.84818 0.08623 0.83635 0.0
H1536 H 0.89585 0.11352 0.86334 0.0
C1537 C 0.86065 0.0707 0.82073 0.0
H1538 H 0.85199 0.11387 0.86368 0.0
C1539 C 0.8859 0.07013 0.82088 0.0
C1540 C 0.89884 0.0858 0.83596 0.0
H1541 H 0.8509 0.05889 0.80862 0.0
H1542 H 0.89528 0.05777 0.80904 0.0
C1543 C 0.88627 0.10151 0.85128 0.0
C1544 C 0.67704 0.13559 0.57519 0.0
C1545 C 0.66133 0.14848 0.59028 0.0
H1546 H 0.68853 0.10075 0.56285 0.0
C1547 C 0.64564 0.13579 0.60553 0.0
H1548 H 0.68939 0.14502 0.56338 0.0
C1549 C 0.64578 0.11065 0.60587 0.0
C1550 C 0.66114 0.09772 0.59048 0.0
H1551 H 0.63358 0.14532 0.61758 0.0
H1552 H 0.63343 0.10131 0.61776 0.0
C1553 C 0.67662 0.11037 0.57497 0.0
C1554 C 0.60967 0.92588 0.32457 0.0
C1555 C 0.59706 0.90992 0.33963 0.0
H1556 H 0.64433 0.93801 0.31232 0.0
C1557 C 0.61002 0.89446 0.35489 0.0
H1558 H 0.60003 0.93807 0.31277 0.0
C1559 C 0.63514 0.89506 0.35529 0.0
C1560 C 0.64781 0.91066 0.33995 0.0
H1561 H 0.6007 0.88223 0.36693 0.0
H1562 H 0.64467 0.88287 0.3672 0.0
C1563 C 0.63491 0.92592 0.3244 0.0
C1564 C 0.85441 0.8618 0.10137 0.0
C1565 C 0.83888 0.84883 0.08621 0.0
H1566 H 0.8665 0.89649 0.11306 0.0
C1567 C 0.82363 0.86139 0.07039 0.0
H1568 H 0.86613 0.85253 0.11394 0.0
C1569 C 0.82422 0.88661 0.06951 0.0
C1570 C 0.8394 0.89953 0.0851 0.0
H1571 H 0.81143 0.85172 0.05861 0.0
H1572 H 0.81257 0.89601 0.05698 0.0
C1573 C 0.85442 0.88692 0.10107 0.0
C1574 C 0.92767 0.67453 0.88586 0.0
C1575 C 0.91238 0.65909 0.89883 0.0
H1576 H 0.93847 0.68729 0.85095 0.0
C1577 C 0.89676 0.64369 0.88625 0.0
H1578 H 0.93995 0.68647 0.89522 0.0
C1579 C 0.89656 0.64352 0.86112 0.0
C1580 C 0.91149 0.65923 0.84811 0.0
H1581 H 0.88503 0.63138 0.89585 0.0
H1582 H 0.88429 0.63148 0.85187 0.0
C1583 C 0.9269 0.67492 0.86065 0.0
C1584 C 0.42387 0.82054 0.11175 0.0
C1585 C 0.40903 0.83649 0.09887 0.0
H1586 H 0.43426 0.80723 0.14661 0.0
C1587 C 0.39367 0.85209 0.11152 0.0
H1588 H 0.43593 0.80843 0.10232 0.0
C1589 C 0.39337 0.85202 0.13664 0.0
C1590 C 0.40791 0.83587 0.14957 0.0
H1591 H 0.38227 0.86477 0.102 0.0
H1592 H 0.38139 0.8643 0.14596 0.0
C1593 C 0.42297 0.81991 0.13696 0.0
C1594 C 0.07622 0.17633 0.63569 0.0
C1595 C 0.09107 0.16053 0.64872 0.0
H1596 H 0.06435 0.18797 0.60075 0.0
C1597 C 0.10643 0.14482 0.63617 0.0
H1598 H 0.06433 0.18871 0.645 0.0
C1599 C 0.10709 0.14502 0.61102 0.0
C1600 C 0.09191 0.16047 0.59795 0.0
H1601 H 0.11832 0.1327 0.64582 0.0
H1602 H 0.11904 0.13265 0.60178 0.0
C1603 C 0.07631 0.17599 0.61047 0.0
C1604 C 0.10432 0.85539 0.86231 0.0
C1605 C 0.08887 0.83989 0.84961 0.0
H1606 H 0.11709 0.86708 0.8968 0.0
C1607 C 0.07392 0.82406 0.8625 0.0
H1608 H 0.11628 0.86752 0.85278 0.0
C1609 C 0.07408 0.82411 0.88773 0.0
C1610 C 0.08982 0.83936 0.90039 0.0
H1611 H 0.06197 0.81184 0.85308 0.0
H1612 H 0.06209 0.81208 0.89733 0.0
C1613 C 0.10502 0.8549 0.88745 0.0
C1614 C 0.6036 0.35282 0.38733 0.0
C1615 C 0.58808 0.33751 0.40012 0.0
H1616 H 0.61569 0.3649 0.3528 0.0
C1617 C 0.57259 0.32206 0.38739 0.0
H1618 H 0.61547 0.36513 0.39675 0.0
C1619 C 0.57306 0.32159 0.36217 0.0
C1620 C 0.58834 0.33722 0.34943 0.0
H1621 H 0.56038 0.31021 0.39694 0.0
H1622 H 0.56133 0.30924 0.35263 0.0
C1623 C 0.60349 0.35291 0.36222 0.0
C1624 C 0.92303 0.32036 0.63439 0.0
C1625 C 0.90832 0.33621 0.64755 0.0
H1626 H 0.9345 0.30864 0.59933 0.0
C1627 C 0.89287 0.35192 0.63512 0.0
H1628 H 0.93498 0.30798 0.64361 0.0
C1629 C 0.89194 0.35167 0.60999 0.0
C1630 C 0.90694 0.33617 0.59679 0.0
H1631 H 0.88109 0.36408 0.64486 0.0
H1632 H 0.8799 0.36404 0.60088 0.0
C1633 C 0.92267 0.32065 0.60916 0.0
C1634 C 0.57388 0.67547 0.13728 0.0
C1635 C 0.58935 0.65988 0.14987 0.0
H1636 H 0.5608 0.68684 0.10265 0.0
C1637 C 0.6044 0.64422 0.13691 0.0
H1638 H 0.56221 0.68778 0.14693 0.0
C1639 C 0.60423 0.64432 0.11179 0.0
C1640 C 0.58852 0.65959 0.09915 0.0
H1641 H 0.6167 0.63225 0.14621 0.0
H1642 H 0.61603 0.63203 0.10224 0.0
C1643 C 0.57315 0.675 0.11206 0.0
C1644 C 0.61289 0.57234 0.82463 0.0
C1645 C 0.59996 0.58817 0.83956 0.0
H1646 H 0.64776 0.56053 0.81272 0.0
C1647 C 0.6126 0.60378 0.85493 0.0
H1648 H 0.6035 0.56003 0.81274 0.0
C1649 C 0.63774 0.60343 0.85557 0.0
C1650 C 0.65071 0.58793 0.84036 0.0
H1651 H 0.60303 0.61591 0.86687 0.0
H1652 H 0.64704 0.61572 0.86756 0.0
C1653 C 0.63811 0.57254 0.82471 0.0
C1654 C 0.67545 0.38688 0.07334 0.0
C1655 C 0.66021 0.3996 0.08904 0.0
H1656 H 0.6881 0.35217 0.06178 0.0
C1657 C 0.64512 0.38676 0.10475 0.0
H1658 H 0.68714 0.39644 0.06097 0.0
C1659 C 0.64502 0.36163 0.10458 0.0
C1660 C 0.6605 0.34887 0.08917 0.0
H1661 H 0.63296 0.39616 0.1168 0.0
H1662 H 0.6332 0.35217 0.1169 0.0
C1663 C 0.67592 0.36167 0.07372 0.0
C1664 C 0.86405 0.40247 0.31634 0.0
C1665 C 0.84936 0.41646 0.33148 0.0
H1666 H 0.90016 0.39185 0.30735 0.0
C1667 C 0.86006 0.43248 0.34783 0.0
H1668 H 0.85612 0.38977 0.3038 0.0
C1669 C 0.88514 0.43426 0.34924 0.0
C1670 C 0.89982 0.41935 0.33499 0.0
H1671 H 0.84903 0.44331 0.35975 0.0
H1672 H 0.89305 0.44638 0.36234 0.0
C1673 C 0.88913 0.40356 0.31841 0.0
C1674 C 0.82331 0.63622 0.57204 0.0
C1675 C 0.83878 0.64895 0.58751 0.0
H1676 H 0.81221 0.6015 0.55899 0.0
C1677 C 0.8545 0.63612 0.60261 0.0
H1678 H 0.81095 0.64577 0.56033 0.0
C1679 C 0.85459 0.61099 0.60247 0.0
C1680 C 0.83945 0.59822 0.58675 0.0
H1681 H 0.86638 0.64552 0.61493 0.0
H1682 H 0.86691 0.60154 0.61432 0.0
C1683 C 0.82397 0.611 0.57134 0.0
C1684 C 0.61208 0.3949 0.64466 0.0
C1685 C 0.59937 0.41055 0.65993 0.0
H1686 H 0.64655 0.38257 0.6326 0.0
C1687 C 0.6122 0.42604 0.67529 0.0
H1688 H 0.60259 0.38302 0.63241 0.0
C1689 C 0.63742 0.42543 0.67575 0.0
C1690 C 0.65008 0.40998 0.6602 0.0
H1691 H 0.60273 0.43834 0.68713 0.0
H1692 H 0.64702 0.43716 0.68805 0.0
C1693 C 0.6372 0.39486 0.64455 0.0
C1694 C 0.82119 0.36208 0.89866 0.0
C1695 C 0.83722 0.34783 0.91213 0.0
H1696 H 0.81029 0.39792 0.88893 0.0
C1697 C 0.85365 0.35899 0.92773 0.0
H1698 H 0.80852 0.3538 0.88633 0.0
C1699 C 0.85401 0.38409 0.92986 0.0
C1700 C 0.83858 0.39836 0.91573 0.0
H1701 H 0.86619 0.3483 0.93821 0.0
H1702 H 0.86701 0.39241 0.94182 0.0
C1703 C 0.8222 0.38721 0.90008 0.0
C1704 C 0.88922 0.57594 0.17594 0.0
C1705 C 0.9016 0.59169 0.16046 0.0
H1706 H 0.85477 0.56369 0.18865 0.0
C1707 C 0.88838 0.60671 0.14498 0.0
H1708 H 0.89904 0.5641 0.18795 0.0
C1709 C 0.86324 0.60582 0.14475 0.0
C1710 C 0.85081 0.59039 0.16047 0.0
H1711 H 0.8975 0.61878 0.13264 0.0
H1712 H 0.85351 0.61764 0.13263 0.0
C1713 C 0.86398 0.57562 0.17626 0.0
C1714 C 0.65017 0.61273 0.43002 0.0
C1715 C 0.66378 0.59834 0.41425 0.0
H1716 H 0.64002 0.64867 0.44022 0.0
C1717 C 0.67924 0.60935 0.3976 0.0
H1718 H 0.63792 0.60456 0.44283 0.0
C1719 C 0.68107 0.63446 0.39674 0.0
C1720 C 0.66675 0.64886 0.41187 0.0
H1721 H 0.68979 0.59855 0.38522 0.0
H1722 H 0.69291 0.64266 0.38356 0.0
C1723 C 0.65129 0.63785 0.42851 0.0
C1724 C 0.57415 0.82206 0.61113 0.0
C1725 C 0.58997 0.83734 0.5986 0.0
H1726 H 0.56197 0.80964 0.6457 0.0
C1727 C 0.60531 0.85265 0.61163 0.0
H1728 H 0.56206 0.8102 0.60143 0.0
C1729 C 0.60461 0.85297 0.63676 0.0
C1730 C 0.58904 0.83751 0.64934 0.0
H1731 H 0.61743 0.86484 0.60237 0.0
H1732 H 0.61664 0.86498 0.64637 0.0
C1733 C 0.57401 0.82183 0.63636 0.0
C1734 C 0.38612 0.42528 0.17367 0.0
C1735 C 0.39912 0.40956 0.15868 0.0
H1736 H 0.35122 0.43684 0.18573 0.0
C1737 C 0.3865 0.39386 0.14336 0.0
H1738 H 0.39547 0.43765 0.18553 0.0
C1739 C 0.36135 0.39402 0.14283 0.0
C1740 C 0.34832 0.40942 0.1581 0.0
H1741 H 0.39611 0.38179 0.13138 0.0
H1742 H 0.35208 0.38168 0.13087 0.0
C1743 C 0.3609 0.4249 0.1737 0.0
C1744 C 0.32188 0.63621 0.92428 0.0
C1745 C 0.3371 0.64909 0.90871 0.0
H1746 H 0.3114 0.60137 0.93753 0.0
C1747 C 0.35293 0.63645 0.89358 0.0
H1748 H 0.30945 0.64562 0.93603 0.0
C1749 C 0.35342 0.61133 0.89381 0.0
C1750 C 0.33856 0.59841 0.90967 0.0
H1751 H 0.36463 0.64598 0.88119 0.0
H1752 H 0.36583 0.60203 0.88196 0.0
C1753 C 0.32294 0.61101 0.92509 0.0
C1754 C 0.1376 0.60201 0.64239 0.0
C1755 C 0.15064 0.58669 0.65771 0.0
H1756 H 0.10286 0.61406 0.6308 0.0
C1757 C 0.13813 0.57115 0.67328 0.0
H1758 H 0.14683 0.6144 0.63046 0.0
C1759 C 0.11291 0.57063 0.67316 0.0
C1760 C 0.09991 0.5863 0.65812 0.0
H1761 H 0.14785 0.55928 0.68535 0.0
H1762 H 0.10357 0.55824 0.68499 0.0
C1763 C 0.11247 0.60205 0.64283 0.0
C1764 C 0.18102 0.38862 0.40115 0.0
C1765 C 0.16508 0.39896 0.41781 0.0
H1766 H 0.19503 0.35594 0.38603 0.0
C1767 C 0.15142 0.38396 0.43293 0.0
H1768 H 0.19162 0.3999 0.38926 0.0
C1769 C 0.15274 0.35893 0.43052 0.0
C1770 C 0.16841 0.34859 0.41361 0.0
H1771 H 0.13881 0.39161 0.44571 0.0
H1772 H 0.14125 0.34766 0.44156 0.0
C1773 C 0.18301 0.36358 0.39939 0.0
C1774 C 0.38742 0.6025 0.35337 0.0
C1775 C 0.40034 0.58655 0.3386 0.0
H1776 H 0.35279 0.61455 0.36523 0.0
C1777 C 0.38773 0.57036 0.32379 0.0
H1778 H 0.39674 0.61493 0.3652 0.0
C1779 C 0.36249 0.57047 0.32345 0.0
C1780 C 0.34963 0.58613 0.33862 0.0
H1781 H 0.39736 0.55781 0.31235 0.0
H1782 H 0.35305 0.55813 0.31164 0.0
C1783 C 0.36231 0.60206 0.35362 0.0
C1784 C 0.18204 0.60999 0.09767 0.0
C1785 C 0.16632 0.59947 0.08092 0.0
H1786 H 0.19633 0.64287 0.11213 0.0
C1787 C 0.15342 0.61429 0.06495 0.0
H1788 H 0.19209 0.59887 0.11018 0.0
C1789 C 0.15522 0.63934 0.06658 0.0
C1790 C 0.17067 0.64987 0.08355 0.0
H1791 H 0.141 0.60653 0.05203 0.0
H1792 H 0.14424 0.65049 0.05491 0.0
C1793 C 0.18455 0.63505 0.09867 0.0
C1794 C 0.13679 0.42537 0.82188 0.0
C1795 C 0.14964 0.41004 0.83739 0.0
H1796 H 0.10195 0.43798 0.81065 0.0
C1797 C 0.13695 0.39478 0.85305 0.0
H1798 H 0.14623 0.43719 0.80957 0.0
C1799 C 0.11183 0.39459 0.85304 0.0
C1800 C 0.09893 0.41015 0.83784 0.0
H1801 H 0.14646 0.38256 0.86495 0.0
H1802 H 0.10249 0.38262 0.8653 0.0
C1803 C 0.11157 0.42575 0.82244 0.0
C1804 C 0.32026 0.38863 0.5984 0.0
C1805 C 0.33646 0.39913 0.58213 0.0
H1806 H 0.30576 0.35578 0.61266 0.0
C1807 C 0.35049 0.38427 0.56718 0.0
H1808 H 0.30938 0.39979 0.61015 0.0
C1809 C 0.34906 0.35921 0.5692 0.0
C1810 C 0.3329 0.34871 0.58551 0.0
H1811 H 0.3633 0.39205 0.55467 0.0
H1812 H 0.36066 0.34804 0.55816 0.0
C1813 C 0.31816 0.36356 0.59975 0.0
C1814 C 0.39251 0.14436 0.38731 0.0
C1815 C 0.4078 0.15984 0.40019 0.0
H1816 H 0.38085 0.13206 0.35269 0.0
C1817 C 0.42324 0.17539 0.38754 0.0
H1818 H 0.38069 0.13196 0.39667 0.0
C1819 C 0.42301 0.17576 0.36232 0.0
C1820 C 0.40799 0.15995 0.34949 0.0
H1821 H 0.43528 0.18739 0.39714 0.0
H1822 H 0.43472 0.18818 0.35286 0.0
C1823 C 0.39285 0.14418 0.36219 0.0
C1824 C 0.98857 0.14708 0.28218 0.0
C1825 C 0.99512 0.1235 0.28876 0.0
H1826 H 0.96598 0.16932 0.26021 0.0
C1827 C 0.98613 0.1041 0.27519 0.0
H1828 H 0.99536 0.16245 0.29211 0.0
C1829 C 0.96921 0.10804 0.25696 0.0
C1830 C 0.96108 0.13147 0.2518 0.0
H1831 H 0.99093 0.08571 0.27964 0.0
H1832 H 0.96149 0.09258 0.24788 0.0
C1833 C 0.97178 0.15104 0.2638 0.0
C1834 C 0.10114 0.73701 0.53376 0.0
C1835 C 0.1247 0.74378 0.5402 0.0
H1836 H 0.07895 0.71407 0.51208 0.0
C1837 C 0.14412 0.73458 0.52682 0.0
H1838 H 0.08575 0.74393 0.54358 0.0
C1839 C 0.14023 0.71737 0.50885 0.0
C1840 C 0.11681 0.70916 0.50373 0.0
H1841 H 0.16249 0.73951 0.53119 0.0
H1842 H 0.1557 0.70958 0.49985 0.0
C1843 C 0.09722 0.71995 0.51562 0.0
C1844 C 0.52548 0.85182 0.76306 0.0
C1845 C 0.5387 0.87125 0.75363 0.0
H1846 H 0.49896 0.84024 0.78853 0.0
C1847 C 0.53228 0.89481 0.76043 0.0
H1848 H 0.52984 0.83345 0.75813 0.0
C1849 C 0.51442 0.89872 0.77778 0.0
C1850 C 0.50277 0.87914 0.78881 0.0
H1851 H 0.54196 0.9102 0.75335 0.0
H1852 H 0.51095 0.91701 0.78367 0.0
C1853 C 0.50777 0.85572 0.78055 0.0
C1854 C 0.35428 0.28197 0.01043 0.0
C1855 C 0.37786 0.28915 0.00462 0.0
H1856 H 0.33186 0.26018 0.03296 0.0
C1857 C 0.39734 0.27695 0.01526 0.0
H1858 H 0.33888 0.29089 0.0024 0.0
C1859 C 0.39331 0.25947 0.03294 0.0
C1860 C 0.36973 0.25366 0.04013 0.0
H1861 H 0.41573 0.28196 0.01112 0.0
H1862 H 0.40871 0.25143 0.04185 0.0
C1863 C 0.35025 0.26431 0.02793 0.0
C1864 C 0.98175 0.89895 0.22066 0.0
C1865 C 0.9925 0.87939 0.20869 0.0
H1866 H 0.95497 0.9105 0.24589 0.0
C1867 C 0.98665 0.85586 0.21602 0.0
H1868 H 0.98591 0.91731 0.21552 0.0
C1869 C 0.96903 0.85195 0.23358 0.0
C1870 C 0.95672 0.87151 0.24397 0.0
H1871 H 0.99477 0.84039 0.2073 0.0
H1872 H 0.96399 0.83359 0.23782 0.0
C1873 C 0.96395 0.89505 0.23804 0.0
C1874 C 0.39101 0.72387 0.48591 0.0
C1875 C 0.37211 0.70934 0.49441 0.0
H1876 H 0.40181 0.75151 0.46135 0.0
C1877 C 0.34843 0.7145 0.48696 0.0
H1878 H 0.40944 0.72054 0.49141 0.0
C1879 C 0.34403 0.73242 0.46978 0.0
C1880 C 0.36325 0.74538 0.45962 0.0
H1881 H 0.33342 0.70379 0.49334 0.0
H1882 H 0.32579 0.7349 0.46328 0.0
C1883 C 0.38663 0.74164 0.46863 0.0
C1884 C 0.51463 0.10118 0.72111 0.0
C1885 C 0.50431 0.12062 0.70859 0.0
H1886 H 0.54078 0.08984 0.74708 0.0
C1887 C 0.51017 0.14423 0.71567 0.0
H1888 H 0.51042 0.08277 0.71618 0.0
C1889 C 0.52746 0.14829 0.73353 0.0
C1890 C 0.53939 0.12881 0.74448 0.0
H1891 H 0.50237 0.15961 0.70653 0.0
H1892 H 0.53258 0.16668 0.73757 0.0
C1893 C 0.53209 0.10523 0.7388 0.0
C1894 C 0.10306 0.26142 0.96587 0.0
C1895 C 0.12665 0.25558 0.95872 0.0
H1896 H 0.08062 0.28382 0.9878 0.0
C1897 C 0.14611 0.26605 0.9711 0.0
H1898 H 0.08767 0.25351 0.95684 0.0
C1899 C 0.14207 0.28358 0.98874 0.0
C1900 C 0.11849 0.2908 0.99454 0.0
H1901 H 0.16451 0.26188 0.96611 0.0
H1902 H 0.15747 0.29236 0.99691 0.0
C1903 C 0.09902 0.27876 0.9837 0.0
C1904 C 0.28281 0.98869 0.14441 0.0
C1905 C 0.29018 0.99422 0.12082 0.0
H1906 H 0.26038 0.96686 0.16689 0.0
C1907 C 0.27765 0.98392 0.10136 0.0
H1908 H 0.29195 0.99649 0.15979 0.0
C1909 C 0.25963 0.9668 0.10543 0.0
C1910 C 0.25363 0.95981 0.12903 0.0
H1911 H 0.28279 0.98788 0.08296 0.0
H1912 H 0.25134 0.95809 0.09005 0.0
C1913 C 0.26463 0.97174 0.14848 0.0
C1914 C 0.27661 0.01481 0.40211 0.0
C1915 C 0.28752 0.00269 0.38274 0.0
H1916 H 0.25224 0.04265 0.41307 0.0
C1917 C 0.27916 0.00719 0.35924 0.0
H1918 H 0.2826 0.01173 0.42043 0.0
C1919 C 0.26168 0.02481 0.35503 0.0
C1920 C 0.25232 0.03846 0.37419 0.0
H1921 H 0.28704 0.99799 0.34394 0.0
H1922 H 0.25665 0.02872 0.33658 0.0
C1923 C 0.25925 0.0326 0.39787 0.0
C1924 C 0.21641 0.00903 0.64317 0.0
C1925 C 0.20917 0.00338 0.61956 0.0
H1926 H 0.23823 0.03141 0.66572 0.0
C1927 C 0.22133 0.01416 0.60014 0.0
H1928 H 0.20754 0.00088 0.65853 0.0
C1929 C 0.23881 0.03182 0.60426 0.0
C1930 C 0.24465 0.03887 0.62789 0.0
H1931 H 0.21626 0.01015 0.58172 0.0
H1932 H 0.2468 0.04084 0.58892 0.0
C1933 C 0.23407 0.02651 0.6473 0.0
C1934 C 0.23706 0.96628 0.89534 0.0
C1935 C 0.2431 0.95922 0.87177 0.0
H1936 H 0.21439 0.98805 0.91767 0.0
C1937 C 0.23273 0.97163 0.85226 0.0
H1938 H 0.24488 0.95722 0.91076 0.0
C1939 C 0.21511 0.98918 0.85622 0.0
C1940 C 0.20768 0.99487 0.87977 0.0
H1941 H 0.23706 0.96672 0.83387 0.0
H1942 H 0.20642 0.99738 0.84078 0.0
C1943 C 0.21961 0.98402 0.8993 0.0
C1944 C 0.64703 0.2334 0.0279 0.0
C1945 C 0.62764 0.24397 0.04031 0.0
H1946 H 0.65824 0.20685 0.00227 0.0
C1947 C 0.60401 0.23805 0.03337 0.0
H1948 H 0.66546 0.23763 0.03273 0.0
C1949 C 0.59987 0.22052 0.01576 0.0
C1950 C 0.61928 0.20839 0.00492 0.0
H1951 H 0.58867 0.24602 0.04244 0.0
H1952 H 0.58145 0.2154 0.01182 0.0
C1953 C 0.64289 0.21569 0.01047 0.0
C1954 C 0.00674 0.36163 0.27963 0.0
C1955 C 0.00252 0.38489 0.28872 0.0
H1956 H 0.02817 0.3394 0.2566 0.0
C1957 C 0.01489 0.40446 0.27845 0.0
H1958 H 0.99732 0.3462 0.28698 0.0
C1959 C 0.03273 0.40054 0.26109 0.0
C1960 C 0.03841 0.37701 0.25355 0.0
H1961 H 0.01201 0.42262 0.285 0.0
H1962 H 0.04302 0.41582 0.25465 0.0
C1963 C 0.02443 0.35774 0.26215 0.0
C1964 C 0.89432 0.76011 0.53169 0.0
C1965 C 0.87083 0.7541 0.53902 0.0
H1966 H 0.91643 0.78292 0.50988 0.0
C1967 C 0.8512 0.76472 0.52704 0.0
H1968 H 0.90983 0.7521 0.54042 0.0
C1969 C 0.85497 0.78255 0.50965 0.0
C1970 C 0.87846 0.78993 0.50371 0.0
H1971 H 0.83286 0.76044 0.53217 0.0
H1972 H 0.83946 0.79143 0.5018 0.0
C1973 C 0.89809 0.77776 0.51412 0.0
C1974 C 0.01245 0.60897 0.22457 0.0
C1975 C 0.00486 0.62815 0.20987 0.0
H1976 H 0.03636 0.59723 0.25241 0.0
C1977 C 0.01331 0.6515 0.21497 0.0
H1978 H 0.00616 0.59079 0.22131 0.0
C1979 C 0.0306 0.65523 0.23296 0.0
C1980 C 0.03985 0.63564 0.24607 0.0
H1981 H 0.00769 0.66672 0.20412 0.0
H1982 H 0.03792 0.67316 0.23535 0.0
C1983 C 0.02981 0.61267 0.24242 0.0
C1984 C 0.46701 0.39348 0.73927 0.0
C1985 C 0.45963 0.36996 0.74507 0.0
H1986 H 0.48897 0.41572 0.71673 0.0
C1987 C 0.47177 0.35038 0.73454 0.0
H1988 H 0.45818 0.40896 0.74724 0.0
C1989 C 0.48931 0.35425 0.71689 0.0
C1990 C 0.49523 0.37778 0.70962 0.0
H1991 H 0.46661 0.33202 0.73869 0.0
H1992 H 0.49725 0.33878 0.70802 0.0
C1993 C 0.48473 0.39735 0.7218 0.0
C1994 C 0.0148 0.90134 0.72078 0.0
C1995 C 0.00321 0.88183 0.70956 0.0
H1996 H 0.04219 0.91264 0.74549 0.0
C1997 C 0.00808 0.85836 0.71777 0.0
H1998 H 0.01142 0.91965 0.71493 0.0
C1999 C 0.02562 0.85434 0.73539 0.0
C2000 C 0.03881 0.87369 0.74501 0.0
H2001 H -0.00072 0.84294 0.70965 0.0
H2002 H 0.02989 0.83593 0.74027 0.0
C2003 C 0.03251 0.8973 0.73827 0.0
C2004 C 0.8855 0.25512 0.46804 0.0
C2005 C 0.86237 0.2515 0.45835 0.0
H2006 H 0.90775 0.27618 0.49139 0.0
C2007 C 0.84294 0.26461 0.4679 0.0
H2008 H 0.90083 0.24513 0.46123 0.0
C2009 C 0.84693 0.28257 0.48516 0.0
C2010 C 0.87042 0.28763 0.49327 0.0
H2011 H 0.82489 0.26224 0.46086 0.0
H2012 H 0.83181 0.2934 0.49104 0.0
C2013 C 0.88947 0.27294 0.48537 0.0
C2014 C 0.46515 0.10431 0.23919 0.0
C2015 C 0.45763 0.1278 0.24496 0.0
H2016 H 0.4875 0.08215 0.21692 0.0
C2017 C 0.46976 0.14742 0.2345 0.0
H2018 H 0.45631 0.0888 0.24708 0.0
C2019 C 0.48753 0.14361 0.21706 0.0
C2020 C 0.49371 0.1201 0.20991 0.0
H2021 H 0.46449 0.16576 0.23861 0.0
H2022 H 0.49552 0.1591 0.20829 0.0
C2023 C 0.4831 0.10049 0.22193 0.0
C2024 C 0.64428 0.71563 0.98847 0.0
C2025 C 0.62072 0.70853 0.99445 0.0
H2026 H 0.66661 0.73727 0.96569 0.0
C2027 C 0.6012 0.72079 0.98395 0.0
H2028 H 0.65971 0.70668 0.9964 0.0
C2029 C 0.60515 0.73821 0.9662 0.0
C2030 C 0.6287 0.74387 0.95879 0.0
H2031 H 0.58282 0.71585 0.98824 0.0
H2032 H 0.58972 0.74627 0.95739 0.0
C2033 C 0.64824 0.73323 0.97089 0.0
C2034 C 0.02747 0.14748 0.76372 0.0
C2035 C 0.03976 0.12799 0.75319 0.0
H2036 H 0.00168 0.15889 0.79003 0.0
C2037 C 0.03251 0.10442 0.75899 0.0
H2038 H 0.03254 0.16587 0.7596 0.0
C2039 C 0.0147 0.10042 0.77634 0.0
C2040 C 0.00392 0.11991 0.78841 0.0
H2041 H 0.04148 0.089 0.75105 0.0
H2042 H 0.0105 0.08202 0.78133 0.0
C2043 C 0.0098 0.14348 0.78123 0.0
C2044 C 0.60122 0.27667 0.51517 0.0
C2045 C 0.62073 0.28895 0.5047 0.0
H2046 H 0.58976 0.25097 0.54153 0.0
C2047 C 0.64429 0.2817 0.51054 0.0
H2048 H 0.58284 0.28173 0.51099 0.0
C2049 C 0.64826 0.26391 0.52793 0.0
C2050 C 0.62875 0.25319 0.53999 0.0
H2051 H 0.65972 0.29065 0.50263 0.0
H2052 H 0.66664 0.25975 0.53301 0.0
C2053 C 0.60519 0.25905 0.53273 0.0
C2054 C 0.48447 0.89464 0.27639 0.0
C2055 C 0.49368 0.87513 0.28967 0.0
H2056 H 0.45927 0.90641 0.24969 0.0
C2057 C 0.48682 0.85162 0.28316 0.0
H2058 H 0.48949 0.91298 0.2808 0.0
C2059 C 0.46957 0.84784 0.26517 0.0
C2060 C 0.45872 0.86752 0.25347 0.0
H2061 H 0.49373 0.83617 0.29288 0.0
H2062 H 0.46359 0.8296 0.26164 0.0
C2063 C 0.46711 0.89088 0.25854 0.0
C2064 C 0.8954 0.73796 0.03231 0.0
C2065 C 0.87176 0.74389 0.03922 0.0
H2066 H 0.91797 0.7154 0.01068 0.0
C2067 C 0.85238 0.73346 0.02668 0.0
H2068 H 0.91072 0.74584 0.04148 0.0
C2069 C 0.85653 0.71586 0.00914 0.0
C2070 C 0.88014 0.70854 0.0036 0.0
H2071 H 0.83395 0.7377 0.03147 0.0
H2072 H 0.84118 0.7071 0.00084 0.0
C2073 C 0.89955 0.72055 0.01458 0.0
C2074 C 0.73767 0.03257 0.89403 0.0
C2075 C 0.74383 0.03942 0.87043 0.0
H2076 H 0.71494 0.01095 0.91642 0.0
C2077 C 0.73369 0.02676 0.85098 0.0
H2078 H 0.74534 0.04182 0.90942 0.0
C2079 C 0.71615 0.00915 0.85499 0.0
C2080 C 0.70856 0.0037 0.87854 0.0
H2081 H 0.73814 0.03148 0.83257 0.0
H2082 H 0.70763 0.00074 0.83957 0.0
C2083 C 0.72028 0.01481 0.89805 0.0
C2084 C 0.73346 0.96916 0.65215 0.0
C2085 C 0.74544 0.95826 0.63268 0.0
H2086 H 0.70563 0.99342 0.66332 0.0
C2087 C 0.74074 0.96661 0.60922 0.0
H2088 H 0.7367 0.96318 0.67045 0.0
C2089 C 0.72303 0.98403 0.60514 0.0
C2090 C 0.70948 0.99331 0.62442 0.0
H2091 H 0.74983 0.95873 0.59385 0.0
H2092 H 0.71893 0.98903 0.58672 0.0
C2093 C 0.71558 0.98644 0.64805 0.0
C2094 C 0.75938 0.9659 0.39752 0.0
C2095 C 0.75248 0.95976 0.37391 0.0
H2096 H 0.78282 0.98689 0.41986 0.0
C2097 C 0.76199 0.97306 0.35458 0.0
H2098 H 0.75225 0.95614 0.41284 0.0
C2099 C 0.77961 0.99058 0.3586 0.0
C2100 C 0.78794 0.99533 0.38205 0.0
H2101 H 0.75698 0.96891 0.33617 0.0
H2102 H 0.78762 -0.00051 0.34319 0.0
C2103 C 0.77687 0.9836 0.40156 0.0
C2104 C 0.75897 0.0319 0.10238 0.0
C2105 C 0.75269 0.03855 0.12601 0.0
H2106 H 0.78171 0.0103 0.07996 0.0
C2107 C 0.76224 0.02531 0.14538 0.0
H2108 H 0.75175 0.04157 0.08705 0.0
C2109 C 0.77951 0.00744 0.14131 0.0
C2110 C 0.78742 0.00232 0.1178 0.0
H2111 H 0.75766 0.02983 0.1638 0.0
H2112 H 0.78771 0.99868 0.15671 0.0
C2113 C 0.77611 0.01388 0.09831 0.0
C2114 C 0.39226 0.75854 0.96586 0.0
C2115 C 0.36872 0.7531 0.95828 0.0
H2116 H 0.41465 0.78063 0.98811 0.0
C2117 C 0.34919 0.76384 0.97033 0.0
H2118 H 0.40768 0.7504 0.95708 0.0
C2119 C 0.35319 0.78134 0.988 0.0
C2120 C 0.37678 0.78824 0.99414 0.0
H2121 H 0.33082 0.75997 0.965 0.0
H2122 H 0.33779 0.79039 0.99587 0.0
C2123 C 0.39625 0.77585 0.98371 0.0
C2124 C 0.96645 0.60309 0.73726 0.0
C2125 C 0.95924 0.62666 0.74314 0.0
H2126 H 0.98833 0.58074 0.71473 0.0
C2127 C 0.97148 0.64617 0.73261 0.0
H2128 H 0.95752 0.58767 0.74521 0.0
C2129 C 0.98903 0.64219 0.71499 0.0
C2130 C 0.99487 0.61863 0.70772 0.0
H2131 H 0.96644 0.66455 0.73681 0.0
H2132 H 0.9971 0.65762 0.70617 0.0
C2133 C 0.98418 0.59912 0.71981 0.0
C2134 C 0.10723 0.22353 0.48567 0.0
C2135 C 0.12641 0.2091 0.49373 0.0
H2136 H 0.09573 0.25129 0.46154 0.0
C2137 C 0.14989 0.21446 0.4858 0.0
H2138 H 0.08895 0.22004 0.49153 0.0
C2139 C 0.15381 0.23253 0.46866 0.0
C2140 C 0.13429 0.24547 0.459 0.0
H2141 H 0.16511 0.20382 0.4918 0.0
H2142 H 0.17189 0.2352 0.46182 0.0
C2143 C 0.11112 0.24147 0.46844 0.0
C2144 C 0.96743 0.39238 0.75779 0.0
C2145 C 0.95997 0.36886 0.75208 0.0
H2146 H 0.98921 0.41468 0.78046 0.0
C2147 C 0.97177 0.3493 0.76303 0.0
H2148 H 0.95884 0.40784 0.74953 0.0
C2149 C 0.98907 0.35322 0.78092 0.0
C2150 C 0.99508 0.37677 0.78805 0.0
H2151 H 0.96652 0.33094 0.75898 0.0
H2152 H 0.99675 0.33778 0.79007 0.0
C2153 C 0.9849 0.3963 0.77552 0.0
C2154 C 0.53352 0.60327 0.26039 0.0
C2155 C 0.54052 0.62679 0.25411 0.0
H2156 H 0.51182 0.58114 0.2833 0.0
C2157 C 0.52802 0.64637 0.26421 0.0
H2158 H 0.54265 0.58779 0.25277 0.0
C2159 C 0.51046 0.64257 0.28185 0.0
C2160 C 0.50487 0.6191 0.28956 0.0
H2161 H 0.53287 0.66473 0.25969 0.0
H2162 H 0.50221 0.65808 0.29035 0.0
C2163 C 0.51578 0.59946 0.27786 0.0
C2164 C 0.48442 0.60117 0.77703 0.0
C2165 C 0.49487 0.62073 0.78927 0.0
H2166 H 0.45795 0.58955 0.7515 0.0
C2167 C 0.48874 0.64426 0.78215 0.0
H2168 H 0.48879 0.58281 0.78199 0.0
C2169 C 0.47116 0.64813 0.76451 0.0
C2170 C 0.45917 0.62854 0.75382 0.0
H2171 H 0.4966 0.65973 0.79109 0.0
H2172 H 0.4659 0.66648 0.76043 0.0
C2173 C 0.46667 0.60503 0.75957 0.0
C2174 C 0.85877 0.21994 0.99102 0.0
C2175 C 0.88208 0.21094 0.99538 0.0
H2176 H 0.83645 0.24254 0.96915 0.0
C2177 C 0.90158 0.22107 0.98285 0.0
H2178 H 0.84335 0.2127 0.00053 0.0
C2179 C 0.8976 0.23819 0.96478 0.0
C2180 C 0.87404 0.24557 0.95894 0.0
H2181 H 0.91977 0.21463 0.98581 0.0
H2182 H 0.91288 0.24454 0.95445 0.0
C2183 C 0.85479 0.23711 0.97302 0.0
C2184 C 0.60913 0.75734 0.46781 0.0
C2185 C 0.63262 0.75256 0.45958 0.0
H2186 H 0.58658 0.77933 0.49003 0.0
C2187 C 0.65205 0.76457 0.4705 0.0
H2188 H 0.59377 0.74825 0.45992 0.0
C2189 C 0.64791 0.78255 0.48768 0.0
C2190 C 0.62426 0.78873 0.49442 0.0
H2191 H 0.67037 0.76128 0.46462 0.0
H2192 H 0.66317 0.7925 0.49467 0.0
C2193 C 0.60501 0.77517 0.48513 0.0
C2194 C 0.7653 0.47072 0.64679 0.0
C2195 C 0.75465 0.45846 0.62734 0.0
H2196 H 0.79193 0.49621 0.65808 0.0
C2197 C 0.76043 0.46561 0.60374 0.0
H2198 H 0.76118 0.46573 0.6652 0.0
C2199 C 0.77794 0.48324 0.59966 0.0
C2200 C 0.79019 0.49388 0.61911 0.0
H2201 H 0.75238 0.45667 0.58837 0.0
H2202 H 0.78297 0.48731 0.58125 0.0
C2203 C 0.78299 0.48817 0.64271 0.0
C2204 C 0.78081 0.50705 0.85994 0.0
C2205 C 0.78948 0.50256 0.88332 0.0
H2206 H 0.75827 0.52882 0.83751 0.0
C2207 C 0.77901 0.51488 0.9028 0.0
H2208 H 0.78836 0.49769 0.84455 0.0
C2209 C 0.76184 0.5329 0.89874 0.0
C2210 C 0.75468 0.53879 0.87514 0.0
H2211 H 0.78525 0.51182 0.92104 0.0
H2212 H 0.75521 0.54311 0.914 0.0
C2213 C 0.76352 0.5249 0.8559 0.0
C2214 C 0.72153 0.51469 0.10148 0.0
C2215 C 0.70916 0.50449 0.12109 0.0
H2216 H 0.74747 0.5407 0.08974 0.0
C2217 C 0.71645 0.51055 0.14459 0.0
H2218 H 0.71645 0.51036 0.08314 0.0
C2219 C 0.7344 0.52782 0.14838 0.0
C2220 C 0.74526 0.53957 0.12874 0.0
H2221 H 0.70743 0.50286 0.1601 0.0
H2222 H 0.73861 0.53304 0.16671 0.0
C2223 C 0.73931 0.53214 0.10526 0.0
C2224 C 0.74097 0.46793 0.3928 0.0
C2225 C 0.7464 0.46084 0.36906 0.0
H2226 H 0.71847 0.48923 0.41577 0.0
C2227 C 0.73518 0.47293 0.34986 0.0
H2228 H 0.74946 0.45913 0.40801 0.0
C2229 C 0.71733 0.49014 0.35433 0.0
C2230 C 0.71044 0.49572 0.37808 0.0
H2231 H 0.73902 0.46802 0.33136 0.0
H2232 H 0.708 0.49807 0.33913 0.0
C2233 C 0.72322 0.48526 0.39726 0.0
C2234 C 0.53252 0.39282 0.23865 0.0
C2235 C 0.54002 0.3693 0.24436 0.0
H2236 H 0.51038 0.41509 0.21629 0.0
C2237 C 0.52802 0.34973 0.23365 0.0
H2238 H 0.54126 0.40829 0.24673 0.0
C2239 C 0.51041 0.35363 0.21605 0.0
C2240 C 0.50427 0.37717 0.20898 0.0
H2241 H 0.53328 0.33138 0.23771 0.0
H2242 H 0.50253 0.33817 0.2071 0.0
C2243 C 0.51474 0.39671 0.22122 0.0
C2244 C 0.15364 0.76603 0.02798 0.0
C2245 C 0.13442 0.75344 0.0386 0.0
H2246 H 0.16428 0.79448 0.00422 0.0
C2247 C 0.11088 0.75781 0.03027 0.0
H2248 H 0.17199 0.76307 0.03393 0.0
C2249 C 0.10646 0.77575 0.01316 0.0
C2250 C 0.12546 0.78984 0.00415 0.0
H2251 H 0.09568 0.74826 0.03793 0.0
H2252 H 0.08797 0.77955 0.00818 0.0
C2253 C 0.1492 0.78412 0.01099 0.0
C2254 C 0.39319 0.22194 0.51338 0.0
C2255 C 0.37389 0.20828 0.50434 0.0
H2256 H 0.40459 0.24898 0.53837 0.0
C2257 C 0.35029 0.21438 0.5113 0.0
H2258 H 0.41158 0.21784 0.50829 0.0
C2259 C 0.34626 0.23241 0.52846 0.0
C2260 C 0.36577 0.24452 0.53913 0.0
H2261 H 0.33499 0.20435 0.50451 0.0
H2262 H 0.328 0.23565 0.53453 0.0
C2263 C 0.38918 0.2398 0.53067 0.0
C2264 C 0.22186 0.51323 0.40232 0.0
C2265 C 0.2107 0.50135 0.38294 0.0
H2266 H 0.24652 0.54078 0.4133 0.0
C2267 C 0.21904 0.50578 0.35944 0.0
H2268 H 0.21591 0.51016 0.42066 0.0
C2269 C 0.23669 0.52322 0.35522 0.0
C2270 C 0.2462 0.53675 0.37441 0.0
H2271 H 0.21098 0.49674 0.34413 0.0
H2272 H 0.24166 0.52717 0.33677 0.0
C2273 C 0.23938 0.53084 0.39809 0.0
C2274 C 0.22011 0.48252 0.0957 0.0
C2275 C 0.20968 0.49496 0.11514 0.0
H2276 H 0.24383 0.4542 0.08459 0.0
C2277 C 0.21828 0.49046 0.13854 0.0
H2278 H 0.21393 0.4856 0.07744 0.0
C2279 C 0.23551 0.47255 0.14265 0.0
C2280 C 0.24435 0.45861 0.12344 0.0
H2281 H 0.21078 0.49989 0.1539 0.0
H2282 H 0.24072 0.46866 0.16105 0.0
C2283 C 0.23721 0.46445 0.09982 0.0
C2284 C 0.27807 0.4837 0.89716 0.0
C2285 C 0.29041 0.49409 0.87764 0.0
H2286 H 0.25227 0.45745 0.90864 0.0
C2287 C 0.28313 0.48829 0.85408 0.0
H2288 H 0.28315 0.48785 0.91555 0.0
C2289 C 0.26528 0.47099 0.85012 0.0
C2290 C 0.25453 0.45897 0.86965 0.0
H2291 H 0.29213 0.49616 0.83865 0.0
H2292 H 0.2611 0.46592 0.83174 0.0
C2293 C 0.26039 0.46621 0.8932 0.0
C2294 C 0.28134 0.50766 0.63828 0.0
C2295 C 0.2899 0.50314 0.61487 0.0
H2296 H 0.25878 0.52935 0.66075 0.0
C2297 C 0.27927 0.51535 0.5954 0.0
H2298 H 0.28901 0.49839 0.65365 0.0
C2299 C 0.26201 0.53328 0.59949 0.0
C2300 C 0.25493 0.53918 0.62311 0.0
H2301 H 0.28542 0.51226 0.57714 0.0
H2302 H 0.25524 0.5434 0.58424 0.0
C2303 C 0.26396 0.52542 0.64235 0.0
C2304 C 0.06375 0.10843 0.42816 0.0
C2305 C 0.04312 0.12024 0.41951 0.0
H2306 H 0.08923 0.10512 0.45705 0.0
C2307 C 0.03135 0.13706 0.43428 0.0
H2308 H 0.07324 0.09554 0.41698 0.0
C2309 C 0.04013 0.14211 0.45732 0.0
C2310 C 0.06125 0.13097 0.46566 0.0
H2311 H 0.0154 0.14639 0.42797 0.0
H2312 H 0.03082 0.15531 0.46829 0.0
C2313 C 0.07295 0.11402 0.45095 0.0
C2314 C 0.13425 0.82225 0.70225 0.0
C2315 C 0.11766 0.81006 0.71699 0.0
H2316 H 0.15237 0.82329 0.66811 0.0
C2317 C 0.10688 0.78881 0.70851 0.0
H2318 H 0.14287 0.83863 0.70844 0.0
C2319 C 0.11188 0.78039 0.68534 0.0
C2320 C 0.12829 0.79268 0.67052 0.0
H2321 H 0.09396 0.77914 0.7195 0.0
H2322 H 0.10281 0.76434 0.67893 0.0
C2323 C 0.13979 0.81342 0.67931 0.0
C2324 C 0.42736 0.88407 0.95236 0.0
C2325 C 0.43942 0.86689 0.96648 0.0
H2326 H 0.42588 0.90276 0.91861 0.0
C2327 C 0.45993 0.85537 0.95717 0.0
H2328 H 0.41152 0.89321 0.9592 0.0
C2329 C 0.46775 0.86036 0.93376 0.0
C2330 C 0.45562 0.87748 0.91962 0.0
H2331 H 0.46943 0.84194 0.96768 0.0
H2332 H 0.48327 0.85084 0.9267 0.0
C2333 C 0.43561 0.8896 0.92924 0.0
C2334 C 0.3831 0.21799 0.18514 0.0
C2335 C 0.36695 0.20528 0.17041 0.0
H2336 H 0.40067 0.22001 0.21945 0.0
C2337 C 0.35549 0.18464 0.17945 0.0
H2338 H 0.39211 0.23399 0.17852 0.0
C2339 C 0.36085 0.1763 0.2026 0.0
C2340 C 0.3772 0.18889 0.21725 0.0
H2341 H 0.34308 0.17447 0.16832 0.0
H2342 H 0.35232 0.15995 0.209 0.0
C2343 C 0.38792 0.21006 0.20852 0.0
C2344 C 0.06361 0.89152 0.0702 0.0
C2345 C 0.04287 0.88014 0.07912 0.0
H2346 H 0.08893 0.89409 0.04112 0.0
C2347 C 0.03076 0.8633 0.06464 0.0
H2348 H 0.07335 0.90442 0.08115 0.0
C2349 C 0.03933 0.8578 0.04163 0.0
C2350 C 0.06055 0.86852 0.03301 0.0
H2351 H 0.01471 0.85431 0.07115 0.0
H2352 H 0.02975 0.84461 0.03088 0.0
C2353 C 0.07259 0.88549 0.04744 0.0
C2354 C 0.38715 0.81122 0.32617 0.0
C2355 C 0.36814 0.79509 0.3303 0.0
H2356 H 0.40676 0.83183 0.30007 0.0
C2357 C 0.35456 0.78651 0.31076 0.0
H2358 H 0.39776 0.81811 0.34105 0.0
C2359 C 0.36025 0.7937 0.28728 0.0
C2360 C 0.37895 0.81024 0.28328 0.0
H2361 H 0.33987 0.77399 0.31364 0.0
H2362 H 0.34976 0.7868 0.27233 0.0
C2363 C 0.39223 0.81908 0.30286 0.0
C2364 C 0.42597 0.11241 0.54668 0.0
C2365 C 0.43805 0.12922 0.53213 0.0
H2366 H 0.42505 0.09394 0.58062 0.0
C2367 C 0.45924 0.14005 0.54068 0.0
H2368 H 0.40963 0.10376 0.54041 0.0
C2369 C 0.4677 0.13486 0.56379 0.0
C2370 C 0.45551 0.11823 0.57843 0.0
H2371 H 0.46883 0.15314 0.52983 0.0
H2372 H 0.48371 0.14396 0.57028 0.0
C2373 C 0.43484 0.10669 0.56955 0.0
C2374 C 0.13561 0.17731 0.79644 0.0
C2375 C 0.11918 0.18975 0.78173 0.0
H2376 H 0.15342 0.17572 0.83072 0.0
C2377 C 0.10828 0.21085 0.79043 0.0
H2378 H 0.14429 0.16102 0.79007 0.0
C2379 C 0.11304 0.21888 0.8138 0.0
C2380 C 0.12932 0.20635 0.82856 0.0
H2381 H 0.09547 0.22069 0.77946 0.0
H2382 H 0.10392 0.23485 0.82037 0.0
C2383 C 0.14092 0.18576 0.81957 0.0
C2384 C 0.45876 0.03689 0.14072 0.0
C2385 C 0.46764 0.05797 0.12995 0.0
H2386 H 0.42873 0.01293 0.14457 0.0
C2387 C 0.4533 0.07031 0.11314 0.0
H2388 H 0.46945 0.02713 0.15381 0.0
C2389 C 0.43029 0.06184 0.10738 0.0
C2390 C 0.42105 0.04133 0.1189 0.0
H2391 H 0.45982 0.08658 0.10455 0.0
H2392 H 0.41939 0.07185 0.09464 0.0
C2393 C 0.4355 0.02884 0.1355 0.0
C2394 C 0.18109 0.1723 0.38073 0.0
C2395 C 0.20223 0.16802 0.36763 0.0
H2396 H 0.15696 0.1987 0.39516 0.0
C2397 C 0.21545 0.18747 0.35845 0.0
H2398 H 0.17071 0.15741 0.38793 0.0
C2399 C 0.20794 0.2111 0.36303 0.0
C2400 C 0.18678 0.21545 0.37626 0.0
H2401 H 0.23186 0.18437 0.34835 0.0
H2402 H 0.21865 0.22594 0.35626 0.0
C2403 C 0.17323 0.19584 0.38475 0.0
C2404 C 0.04054 0.96171 0.63789 0.0
C2405 C 0.0317 0.94026 0.62782 0.0
H2406 H 0.07063 0.98562 0.64138 0.0
C2407 C 0.04632 0.92705 0.61192 0.0
H2408 H 0.02965 0.97213 0.65029 0.0
C2409 C 0.0695 0.93513 0.60631 0.0
C2410 C 0.07861 0.95611 0.61712 0.0
H2411 H 0.03983 0.91048 0.60389 0.0
H2412 H 0.08061 0.92454 0.59425 0.0
C2413 C 0.06394 0.96937 0.63287 0.0
C2414 C 0.28644 0.79069 0.88975 0.0
C2415 C 0.30727 0.78169 0.87858 0.0
H2416 H 0.26299 0.82101 0.89446 0.0
C2417 C 0.3197 0.7962 0.86199 0.0
H2418 H 0.27663 0.77988 0.9027 0.0
C2419 C 0.31155 0.81946 0.85681 0.0
C2420 C 0.29129 0.82879 0.86871 0.0
H2421 H 0.33578 0.7896 0.85311 0.0
H2422 H 0.3216 0.83046 0.8442 0.0
C2423 C 0.27872 0.81419 0.88512 0.0
C2424 C 0.44999 0.92386 0.38699 0.0
C2425 C 0.46383 0.93609 0.36968 0.0
H2426 H 0.41639 0.92213 0.40604 0.0
C2427 C 0.45417 0.95645 0.35822 0.0
H2428 H 0.45712 0.90813 0.3961 0.0
C2429 C 0.43073 0.964 0.3634 0.0
C2430 C 0.41687 0.95178 0.38067 0.0
H2431 H 0.46445 0.96608 0.34472 0.0
H2432 H 0.42344 0.97945 0.35393 0.0
C2433 C 0.42681 0.93189 0.39273 0.0
C2434 C 0.31364 0.17836 0.64189 0.0
C2435 C 0.2927 0.16924 0.63104 0.0
H2436 H 0.3381 0.20818 0.64457 0.0
C2437 C 0.27928 0.18401 0.61551 0.0
H2438 H 0.32434 0.16718 0.6538 0.0
C2439 C 0.28676 0.20753 0.61075 0.0
C2440 C 0.30818 0.2164 0.62086 0.0
H2441 H 0.26305 0.17732 0.60699 0.0
H2442 H 0.27622 0.2185 0.59851 0.0
C2443 C 0.32154 0.20168 0.63653 0.0
C2444 C 0.06315 0.0306 0.86472 0.0
C2445 C 0.07753 0.04353 0.88101 0.0
H2446 H 0.02924 0.02822 0.84654 0.0
C2447 C 0.0682 0.06428 0.89207 0.0
H2448 H 0.06999 0.01452 0.856 0.0
C2449 C 0.0451 0.07248 0.88618 0.0
C2450 C 0.0308 0.05963 0.86971 0.0
H2451 H 0.07907 0.07461 0.90456 0.0
H2452 H 0.03845 0.08888 0.89442 0.0
C2453 C 0.03986 0.03839 0.85938 0.0
C2454 C 0.21893 0.81535 0.11616 0.0
C2455 C 0.20516 0.8298 0.13165 0.0
H2456 H 0.22272 0.78109 0.09894 0.0
C2457 C 0.1842 0.82032 0.14216 0.0
H2458 H 0.23518 0.82231 0.10788 0.0
C2459 C 0.17668 0.7969 0.13652 0.0
C2460 C 0.19045 0.78249 0.12091 0.0
H2461 H 0.17323 0.83127 0.15402 0.0
H2462 H 0.16015 0.79008 0.14432 0.0
C2463 C 0.21184 0.79179 0.11112 0.0
C2464 C 0.10564 0.43019 0.06387 0.0
C2465 C 0.11606 0.42112 0.04268 0.0
H2466 H 0.1036 0.4599 0.08857 0.0
C2467 C 0.13145 0.43586 0.0291 0.0
H2468 H 0.09387 0.41901 0.0747 0.0
C2469 C 0.13648 0.4593 0.03664 0.0
C2470 C 0.12681 0.46813 0.05829 0.0
H2471 H 0.13966 0.42921 0.01269 0.0
H2472 H 0.14861 0.47023 0.02595 0.0
C2473 C 0.11129 0.45343 0.07184 0.0
C2474 C 0.63819 0.04046 0.95999 0.0
C2475 C 0.62773 0.03179 0.93865 0.0
H2476 H 0.64194 0.07025 0.98424 0.0
C2477 C 0.61145 0.04646 0.92598 0.0
H2478 H 0.65089 0.02955 0.97003 0.0
C2479 C 0.60583 0.06952 0.93449 0.0
C2480 C 0.61699 0.07844 0.95536 0.0
H2481 H 0.6031 0.04011 0.90951 0.0
H2482 H 0.59345 0.08066 0.92431 0.0
C2483 C 0.63314 0.06372 0.96807 0.0
C2484 C 0.1776 0.35909 0.18494 0.0
C2485 C 0.16891 0.37103 0.20547 0.0
H2486 H 0.20674 0.35526 0.15984 0.0
C2487 C 0.1839 0.38746 0.21753 0.0
H2488 H 0.16627 0.34649 0.17524 0.0
C2489 C 0.20715 0.39204 0.2091 0.0
C2490 C 0.21554 0.38081 0.18804 0.0
H2491 H 0.17756 0.39687 0.23342 0.0
H2492 H 0.21826 0.40497 0.2186 0.0
C2493 C 0.20062 0.36421 0.17607 0.0
C2494 C 0.89126 0.92978 0.43514 0.0
C2495 C 0.88036 0.92065 0.45605 0.0
H2496 H 0.89387 0.95954 0.41058 0.0
C2497 C 0.86463 0.93535 0.4693 0.0
H2498 H 0.90332 0.91865 0.42456 0.0
C2499 C 0.85975 0.95882 0.4617 0.0
C2500 C 0.86992 0.9677 0.44032 0.0
H2501 H 0.85605 0.92866 0.48551 0.0
H2502 H 0.84736 0.96974 0.47213 0.0
C2503 C 0.88578 0.95304 0.42711 0.0
C2504 C 0.8178 0.11178 0.21423 0.0
C2505 C 0.83141 0.12926 0.20203 0.0
H2506 H 0.78415 0.09296 0.21657 0.0
C2507 C 0.82113 0.14153 0.18245 0.0
H2508 H 0.82535 0.10215 0.22944 0.0
C2509 C 0.79786 0.1358 0.17468 0.0
C2510 C 0.78425 0.11829 0.18688 0.0
H2511 H 0.83136 0.15501 0.1727 0.0
H2512 H 0.79047 0.14508 0.15918 0.0
C2513 C 0.79426 0.10661 0.20696 0.0
C2514 C 0.39136 0.57006 0.5625 0.0
C2515 C 0.38048 0.57878 0.5414 0.0
H2516 H 0.39449 0.54047 0.5872 0.0
C2517 C 0.3655 0.56354 0.5279 0.0
H2518 H 0.40283 0.58162 0.57326 0.0
C2519 C 0.36125 0.53996 0.53549 0.0
C2520 C 0.37131 0.53148 0.55709 0.0
H2521 H 0.35695 0.56992 0.51155 0.0
H2522 H 0.34937 0.52865 0.52489 0.0
C2523 C 0.3865 0.54666 0.5705 0.0
C2524 C 0.20606 0.60263 0.29176 0.0
C2525 C 0.21628 0.61478 0.31145 0.0
H2526 H 0.17498 0.59833 0.26916 0.0
C2527 C 0.20305 0.63297 0.32304 0.0
H2528 H 0.21589 0.58843 0.28266 0.0
C2529 C 0.18001 0.63904 0.31495 0.0
C2530 C 0.16954 0.62649 0.29564 0.0
H2531 H 0.2106 0.6426 0.33825 0.0
H2532 H 0.17016 0.65317 0.32415 0.0
C2533 C 0.18269 0.60818 0.28415 0.0
C2534 C 0.29105 0.39006 0.78717 0.0
C2535 C 0.28193 0.37906 0.80803 0.0
H2536 H 0.32138 0.39427 0.76366 0.0
C2537 C 0.2962 0.36223 0.82044 0.0
H2538 H 0.28042 0.40319 0.77738 0.0
C2539 C 0.31934 0.35667 0.81224 0.0
C2540 C 0.32879 0.36841 0.79194 0.0
H2541 H 0.2895 0.35347 0.83655 0.0
H2542 H 0.33017 0.34389 0.82227 0.0
C2543 C 0.31445 0.38505 0.7794 0.0
C2544 C 0.92721 0.88713 0.54587 0.0
C2545 C 0.93932 0.86969 0.53209 0.0
H2546 H 0.92532 0.90601 0.57953 0.0
C2547 C 0.95942 0.8579 0.54189 0.0
H2548 H 0.91167 0.89648 0.53863 0.0
C2549 C 0.96677 0.86284 0.56546 0.0
C2550 C 0.95459 0.88019 0.57928 0.0
H2551 H 0.96893 0.84428 0.53164 0.0
H2552 H 0.98198 0.85311 0.57289 0.0
C2553 C 0.93504 0.89263 0.56916 0.0
C2554 C 0.88671 0.21494 0.31489 0.0
C2555 C 0.86935 0.20248 0.32839 0.0
H2556 H 0.90527 0.21784 0.28115 0.0
C2557 C 0.85733 0.18279 0.31802 0.0
H2558 H 0.89613 0.23025 0.32252 0.0
C2559 C 0.86303 0.17529 0.29466 0.0
C2560 C 0.88021 0.18792 0.28107 0.0
H2561 H 0.84393 0.17287 0.32817 0.0
H2562 H 0.85387 0.15978 0.28714 0.0
C2563 C 0.89181 0.20796 0.29125 0.0
C2564 C 0.56261 0.1065 0.07023 0.0
C2565 C 0.54227 0.11814 0.07972 0.0
H2566 H 0.58671 0.10322 0.04022 0.0
C2567 C 0.52942 0.13447 0.06527 0.0
H2568 H 0.57287 0.09395 0.08111 0.0
C2569 C 0.53695 0.13929 0.04176 0.0
C2570 C 0.55786 0.12841 0.03259 0.0
H2571 H 0.51363 0.14359 0.07222 0.0
H2572 H 0.52693 0.1522 0.03107 0.0
C2573 C 0.57056 0.11188 0.04695 0.0
C2574 C 0.61333 0.77964 0.81414 0.0
C2575 C 0.62988 0.79225 0.82854 0.0
H2576 H 0.59497 0.77773 0.78024 0.0
C2577 C 0.64119 0.81287 0.81927 0.0
H2578 H 0.60442 0.76365 0.82093 0.0
C2579 C 0.63531 0.82128 0.79626 0.0
C2580 C 0.61858 0.80878 0.78195 0.0
H2581 H 0.65388 0.82297 0.83013 0.0
H2582 H 0.64379 0.83758 0.78969 0.0
C2583 C 0.60799 0.78763 0.79089 0.0
C2584 C 0.95187 0.11032 0.95974 0.0
C2585 C 0.93365 0.12743 0.96374 0.0
H2586 H 0.97382 0.09215 0.93351 0.0
C2587 C 0.9234 0.13954 0.94407 0.0
H2588 H 0.95999 0.1008 0.97472 0.0
C2589 C 0.93187 0.13523 0.92077 0.0
C2590 C 0.9501 0.11817 0.91679 0.0
H2591 H 0.90947 0.15295 0.94681 0.0
H2592 H 0.92416 0.14517 0.90583 0.0
C2593 C 0.95973 0.10537 0.93631 0.0
C2594 C 0.60884 0.21128 0.70835 0.0
C2595 C 0.61962 0.19033 0.71753 0.0
H2596 H 0.60489 0.23476 0.67795 0.0
C2597 C 0.63638 0.17775 0.70334 0.0
H2598 H 0.59578 0.22122 0.71892 0.0
C2599 C 0.64206 0.18584 0.68019 0.0
C2600 C 0.63051 0.20621 0.67066 0.0
H2601 H 0.64498 0.16157 0.7101 0.0
H2602 H 0.65476 0.17565 0.66941 0.0
C2603 C 0.61397 0.21895 0.68495 0.0
C2604 C 0.56283 0.88981 0.42886 0.0
C2605 C 0.54219 0.87804 0.42017 0.0
H2606 H 0.58818 0.89316 0.45786 0.0
C2607 C 0.53027 0.86137 0.43497 0.0
H2608 H 0.57243 0.90259 0.41766 0.0
C2609 C 0.5389 0.85641 0.45807 0.0
C2610 C 0.56003 0.86751 0.46646 0.0
H2611 H 0.51431 0.85208 0.42862 0.0
H2612 H 0.52949 0.84332 0.46906 0.0
C2613 C 0.57189 0.88431 0.45172 0.0
C2614 C 0.86096 0.82222 0.20142 0.0
C2615 C 0.87723 0.80974 0.21626 0.0
H2616 H 0.84355 0.82392 0.16693 0.0
C2617 C 0.8882 0.78865 0.20762 0.0
H2618 H 0.85224 0.83851 0.20773 0.0
C2619 C 0.88371 0.7807 0.18418 0.0
C2620 C 0.86763 0.79329 0.16926 0.0
H2621 H 0.90091 0.77878 0.21868 0.0
H2622 H 0.89291 0.76475 0.17766 0.0
C2623 C 0.85591 0.81385 0.1782 0.0
C2624 C 0.55955 0.9637 0.89035 0.0
C2625 C 0.57927 0.95354 0.87827 0.0
H2626 H 0.52103 0.9641 0.89429 0.0
C2627 C 0.57551 0.93518 0.86133 0.0
H2628 H 0.56221 0.97793 0.90345 0.0
C2629 C 0.55229 0.92681 0.8567 0.0
C2630 C 0.53245 0.93727 0.86834 0.0
H2631 H 0.59059 0.92712 0.8519 0.0
H2632 H 0.54978 0.91249 0.84366 0.0
C2633 C 0.53615 0.9559 0.88507 0.0
C2634 C 0.82201 0.79498 0.63677 0.0
C2635 C 0.80991 0.78133 0.61922 0.0
H2636 H 0.82373 0.82842 0.65606 0.0
C2637 C 0.78965 0.7911 0.60768 0.0
H2638 H 0.83766 0.78776 0.64593 0.0
C2639 C 0.78212 0.81453 0.61298 0.0
C2640 C 0.79429 0.82823 0.63044 0.0
H2641 H 0.78013 0.78095 0.59399 0.0
H2642 H 0.7668 0.82196 0.60343 0.0
C2643 C 0.81401 0.81813 0.64262 0.0
C2644 C 0.93121 0.03427 0.3626 0.0
C2645 C 0.91727 0.04648 0.37983 0.0
H2646 H 0.96497 0.03226 0.344 0.0
C2647 C 0.92709 0.06646 0.39182 0.0
H2648 H 0.92402 0.01875 0.35319 0.0
C2649 C 0.95024 0.07458 0.38609 0.0
C2650 C 0.96418 0.06234 0.36886 0.0
H2651 H 0.9166 0.07622 0.40509 0.0
H2652 H 0.95729 0.09036 0.39517 0.0
C2653 C 0.95461 0.04191 0.35744 0.0
C2654 C 0.6784 0.20223 0.13626 0.0
C2655 C 0.69052 0.21664 0.11935 0.0
H2656 H 0.677 0.16818 0.15447 0.0
C2657 C 0.71134 0.20772 0.10811 0.0
H2658 H 0.66233 0.20879 0.1452 0.0
C2659 C 0.71935 0.18437 0.11296 0.0
C2660 C 0.70708 0.16987 0.12966 0.0
H2661 H 0.72092 0.21846 0.09493 0.0
H2662 H 0.73503 0.17757 0.10353 0.0
C2663 C 0.68684 0.17913 0.14165 0.0
C2664 C 0.57029 0.06221 0.60763 0.0
C2665 C 0.57912 0.04153 0.6192 0.0
H2666 H 0.54092 0.08709 0.60419 0.0
C2667 C 0.56418 0.02896 0.63527 0.0
H2668 H 0.58158 0.07228 0.59529 0.0
C2669 C 0.54083 0.03706 0.63991 0.0
C2670 C 0.53231 0.05827 0.62909 0.0
H2671 H 0.57063 0.01294 0.64438 0.0
H2672 H 0.52976 0.02721 0.65261 0.0
C2673 C 0.54715 0.07072 0.61281 0.0
C2674 C 0.71147 0.79075 0.3886 0.0
C2675 C 0.69013 0.78181 0.37839 0.0
H2676 H 0.7349 0.82113 0.39276 0.0
C2677 C 0.67663 0.79659 0.3629 0.0
H2678 H 0.72212 0.77974 0.40071 0.0
C2679 C 0.68431 0.82005 0.35784 0.0
C2680 C 0.70516 0.82924 0.36881 0.0
H2681 H 0.66013 0.79004 0.35479 0.0
H2682 H 0.6735 0.83129 0.34608 0.0
C2683 C 0.71872 0.8144 0.38414 0.0
C2684 C 0.95641 0.96154 0.13972 0.0
C2685 C 0.96557 0.94075 0.12859 0.0
H2686 H 0.92608 0.9851 0.14394 0.0
C2687 C 0.95134 0.92845 0.11166 0.0
H2688 H 0.967 0.97124 0.15294 0.0
C2689 C 0.92824 0.93674 0.10605 0.0
C2690 C 0.91876 0.95702 0.11784 0.0
H2691 H 0.95806 0.91239 0.10282 0.0
H2692 H 0.91748 0.92681 0.09314 0.0
C2693 C 0.93303 0.9694 0.13466 0.0
C2694 C 0.82498 0.20029 0.86285 0.0
C2695 C 0.81242 0.21515 0.87904 0.0
H2696 H 0.82622 0.16605 0.84483 0.0
C2697 C 0.79098 0.20673 0.88949 0.0
H2698 H 0.84152 0.20644 0.85451 0.0
C2699 C 0.78261 0.18358 0.88442 0.0
C2700 C 0.79512 0.16871 0.86825 0.0
H2701 H 0.78101 0.2178 0.90211 0.0
H2702 H 0.76632 0.17729 0.89314 0.0
C2703 C 0.81618 0.17733 0.8572 0.0
C2704 C 0.89327 0.5689 0.93502 0.0
C2705 C 0.88269 0.57805 0.95609 0.0
H2706 H 0.89545 0.53915 0.91042 0.0
C2707 C 0.86713 0.56338 0.96957 0.0
H2708 H 0.90517 0.58001 0.92426 0.0
C2709 C 0.86207 0.53994 0.96203 0.0
C2710 C 0.8719 0.53106 0.94049 0.0
H2711 H 0.8588 0.5701 0.9859 0.0
H2712 H 0.84983 0.52905 0.97263 0.0
C2713 C 0.88761 0.54567 0.92706 0.0
C2714 C 0.36421 0.93332 0.02976 0.0
C2715 C 0.38039 0.91854 0.0424 0.0
H2716 H 0.34666 0.96764 0.02785 0.0
C2717 C 0.3919 0.92754 0.06304 0.0
H2718 H 0.35516 0.92674 0.01376 0.0
C2719 C 0.38655 0.95068 0.07146 0.0
C2720 C 0.37018 0.96538 0.05893 0.0
H2721 H 0.40431 0.91638 0.07317 0.0
H2722 H 0.39513 0.95704 0.0878 0.0
C2723 C 0.35942 0.95669 0.03776 0.0
C2724 C 0.79172 0.60657 0.78968 0.0
C2725 C 0.78318 0.61746 0.81085 0.0
H2726 H 0.82127 0.60263 0.76516 0.0
C2727 C 0.79778 0.63427 0.8229 0.0
H2728 H 0.78085 0.59349 0.78011 0.0
C2729 C 0.82064 0.63998 0.81398 0.0
C2730 C 0.82948 0.62842 0.79329 0.0
H2731 H 0.79153 0.64298 0.83922 0.0
H2732 H 0.83172 0.65276 0.82372 0.0
C2733 C 0.81482 0.61174 0.78117 0.0
C2734 C 0.1085 0.06937 0.56141 0.0
C2735 C 0.12018 0.07834 0.54086 0.0
H2736 H 0.10494 0.03984 0.58606 0.0
C2737 C 0.13623 0.06343 0.5282 0.0
H2738 H 0.09618 0.08063 0.57154 0.0
C2739 C 0.14078 0.03999 0.53613 0.0
C2740 C 0.1299 0.03135 0.55726 0.0
H2741 H 0.1454 0.06998 0.51226 0.0
H2742 H 0.15349 0.02896 0.52624 0.0
C2743 C 0.11361 0.04616 0.56976 0.0
C2744 C 0.20153 0.86321 0.82141 0.0
C2745 C 0.21612 0.87979 0.80906 0.0
H2746 H 0.16735 0.84525 0.82294 0.0
C2747 C 0.20743 0.89063 0.78793 0.0
H2748 H 0.2079 0.85456 0.83771 0.0
C2749 C 0.18411 0.88575 0.77985 0.0
C2750 C 0.16942 0.8694 0.79236 0.0
H2751 H 0.21831 0.90355 0.77815 0.0
H2752 H 0.17749 0.89488 0.76391 0.0
C2753 C 0.17846 0.85778 0.81291 0.0
C2754 C 0.64032 0.45696 0.46024 0.0
C2755 C 0.63002 0.4657 0.43885 0.0
H2756 H 0.64384 0.42711 0.48445 0.0
C2757 C 0.61388 0.45105 0.42597 0.0
H2758 H 0.6529 0.46787 0.47043 0.0
C2759 C 0.60819 0.42797 0.43438 0.0
C2760 C 0.61913 0.419 0.45535 0.0
H2761 H 0.60565 0.45745 0.40947 0.0
H2762 H 0.59588 0.41685 0.42407 0.0
C2763 C 0.6352 0.43368 0.46821 0.0
C2764 C 0.79652 0.36168 0.67685 0.0
C2765 C 0.78234 0.37857 0.68927 0.0
H2766 H 0.8304 0.34319 0.67501 0.0
C2767 C 0.7915 0.38951 0.71015 0.0
H2768 H 0.78978 0.35296 0.66074 0.0
C2769 C 0.81487 0.38437 0.71794 0.0
C2770 C 0.82913 0.36767 0.70538 0.0
H2771 H 0.78093 0.40268 0.71996 0.0
H2772 H 0.82185 0.39356 0.73369 0.0
C2773 C 0.81963 0.356 0.68507 0.0
C2774 C 0.70913 0.60825 0.2109 0.0
C2775 C 0.71801 0.61925 0.18994 0.0
H2776 H 0.67897 0.60381 0.2346 0.0
C2777 C 0.70347 0.63582 0.1775 0.0
H2778 H 0.71996 0.59532 0.22072 0.0
C2779 C 0.68029 0.64115 0.1858 0.0
C2780 C 0.67109 0.62943 0.20622 0.0
H2781 H 0.70998 0.64457 0.16131 0.0
H2782 H 0.66926 0.65375 0.17575 0.0
C2783 C 0.68571 0.61303 0.21876 0.0
C2784 C 0.56288 0.60687 0.92923 0.0
C2785 C 0.54257 0.61865 0.91986 0.0
H2786 H 0.58723 0.6035 0.95904 0.0
C2787 C 0.53002 0.63519 0.93433 0.0
H2788 H 0.57293 0.59417 0.91832 0.0
C2789 C 0.53781 0.64007 0.95775 0.0
C2790 C 0.5587 0.62903 0.96678 0.0
H2791 H 0.51426 0.64444 0.92746 0.0
H2792 H 0.52802 0.65312 0.96847 0.0
C2793 C 0.5711 0.61229 0.9524 0.0
C2794 C 0.64254 0.31267 0.1798 0.0
C2795 C 0.63115 0.29203 0.17066 0.0
H2796 H 0.64556 0.3373 0.20942 0.0
C2797 C 0.61503 0.27921 0.18534 0.0
H2798 H 0.65491 0.32292 0.16871 0.0
C2799 C 0.61016 0.28706 0.20874 0.0
C2800 C 0.62077 0.30826 0.21755 0.0
H2801 H 0.60608 0.26321 0.17865 0.0
H2802 H 0.59741 0.27704 0.2196 0.0
C2803 C 0.63711 0.32093 0.20296 0.0
C2804 C 0.96291 0.3608 0.43121 0.0
C2805 C 0.95152 0.37907 0.41791 0.0
H2806 H 0.96375 0.34064 0.46414 0.0
C2807 C 0.93177 0.39125 0.42797 0.0
H2808 H 0.97822 0.3512 0.42382 0.0
C2809 C 0.92309 0.38474 0.4507 0.0
C2810 C 0.93451 0.3665 0.46401 0.0
H2811 H 0.92262 0.4053 0.41796 0.0
H2812 H 0.90752 0.39406 0.45793 0.0
C2813 C 0.95471 0.35483 0.45424 0.0
C2814 C 0.8628 0.67608 0.70144 0.0
C2815 C 0.87937 0.68849 0.71601 0.0
H2816 H 0.84482 0.67445 0.66725 0.0
C2817 C 0.89031 0.7095 0.70718 0.0
H2818 H 0.8541 0.65985 0.7079 0.0
C2819 C 0.88548 0.71746 0.68381 0.0
C2820 C 0.86908 0.70495 0.66917 0.0
H2821 H 0.90324 0.71931 0.71803 0.0
H2822 H 0.89465 0.73335 0.67713 0.0
C2823 C 0.85742 0.68447 0.6783 0.0
C2824 C 0.53031 0.36319 0.56453 0.0
C2825 C 0.54288 0.37966 0.57904 0.0
H2826 H 0.52835 0.34527 0.5304 0.0
C2827 C 0.56332 0.39131 0.56978 0.0
H2828 H 0.51447 0.35404 0.57132 0.0
C2829 C 0.57161 0.38582 0.54664 0.0
C2830 C 0.55916 0.36917 0.53221 0.0
H2831 H 0.57337 0.40396 0.58074 0.0
H2832 H 0.58781 0.39451 0.54007 0.0
C2833 C 0.53818 0.35826 0.54115 0.0
C2834 C 0.89226 0.28792 0.7903 0.0
C2835 C 0.88058 0.30829 0.78091 0.0
H2836 H 0.89737 0.26506 0.82101 0.0
C2837 C 0.86358 0.32052 0.79512 0.0
H2838 H 0.90553 0.27829 0.77972 0.0
C2839 C 0.85843 0.31257 0.81846 0.0
C2840 C 0.8708 0.29276 0.82816 0.0
H2841 H 0.85432 0.33625 0.7882 0.0
H2842 H 0.84543 0.3224 0.8292 0.0
C2843 C 0.88768 0.28045 0.81389 0.0
C2844 C 0.93009 0.61362 0.04636 0.0
C2845 C 0.94238 0.63003 0.03153 0.0
H2846 H 0.92831 0.59653 0.08098 0.0
C2847 C 0.96314 0.64151 0.04029 0.0
H2848 H 0.91405 0.60452 0.03995 0.0
C2849 C 0.97089 0.63742 0.06388 0.0
C2850 C 0.95844 0.62123 0.0788 0.0
H2851 H 0.97284 0.65433 0.02924 0.0
H2852 H 0.98653 0.64702 0.07052 0.0
C2853 C 0.93828 0.60897 0.06972 0.0
C2854 C 0.63758 0.67605 0.29632 0.0
C2855 C 0.62005 0.68804 0.28257 0.0
H2856 H 0.65666 0.67443 0.32989 0.0
C2857 C 0.60826 0.70818 0.29231 0.0
H2858 H 0.64693 0.66049 0.28913 0.0
C2859 C 0.61332 0.7157 0.31578 0.0
C2860 C 0.63079 0.70366 0.32957 0.0
H2861 H 0.59457 0.71761 0.28206 0.0
H2862 H 0.6036 0.73094 0.32317 0.0
C2863 C 0.6432 0.68405 0.31952 0.0
C2864 C 0.93528 0.52817 0.63307 0.0
C2865 C 0.92085 0.54089 0.61663 0.0
H2866 H 0.96931 0.52605 0.65117 0.0
C2867 C 0.9302 0.56138 0.60516 0.0
H2868 H 0.92842 0.51227 0.64209 0.0
C2869 C 0.95331 0.56961 0.61083 0.0
C2870 C 0.96764 0.55705 0.62749 0.0
H2871 H 0.91931 0.57156 0.59255 0.0
H2872 H 0.95993 0.58587 0.60229 0.0
C2873 C 0.95864 0.53598 0.63819 0.0
C2874 C 0.67825 0.70158 0.86278 0.0
C2875 C 0.69068 0.71644 0.87907 0.0
H2876 H 0.67666 0.66712 0.84534 0.0
C2877 C 0.71185 0.70791 0.88996 0.0
H2878 H 0.6619 0.70782 0.85412 0.0
C2879 C 0.71991 0.68452 0.8854 0.0
C2880 C 0.70734 0.66956 0.86933 0.0
H2881 H 0.72168 0.71899 0.90267 0.0
H2882 H 0.73589 0.67804 0.89457 0.0
C2883 C 0.68673 0.67842 0.85766 0.0
C2884 C 0.56961 0.43522 0.10773 0.0
C2885 C 0.57872 0.45573 0.11938 0.0
H2886 H 0.54006 0.41056 0.1044 0.0
C2887 C 0.56408 0.46821 0.13582 0.0
H2888 H 0.58065 0.42523 0.09511 0.0
C2889 C 0.54072 0.4602 0.14067 0.0
C2890 C 0.53192 0.43917 0.12971 0.0
H2891 H 0.57074 0.48411 0.14498 0.0
H2892 H 0.52986 0.46999 0.1536 0.0
C2893 C 0.5465 0.4268 0.11313 0.0
C2894 C 0.7876 0.31275 0.35345 0.0
C2895 C 0.79709 0.33156 0.36744 0.0
H2896 H 0.78639 0.27449 0.34756 0.0
C2897 C 0.81371 0.32633 0.38575 0.0
H2898 H 0.77468 0.31647 0.3393 0.0
C2899 C 0.82097 0.30262 0.38988 0.0
C2900 C 0.81105 0.28373 0.37634 0.0
H2901 H 0.82128 0.34063 0.39668 0.0
H2902 H 0.8339 0.29898 0.40406 0.0
C2903 C 0.79419 0.28887 0.3582 0.0
C2904 C 0.933 0.46589 0.86193 0.0
C2905 C 0.91943 0.4538 0.87952 0.0
H2906 H 0.96646 0.46778 0.84273 0.0
C2907 C 0.92955 0.43406 0.89164 0.0
H2908 H 0.92554 0.48122 0.85241 0.0
C2909 C 0.95263 0.426 0.88566 0.0
C2910 C 0.96617 0.43804 0.86801 0.0
H2911 H 0.91934 0.42439 0.90519 0.0
H2912 H 0.95989 0.41037 0.89482 0.0
C2913 C 0.95636 0.4583 0.85649 0.0
C2914 C 0.78042 0.68431 0.11288 0.0
C2915 C 0.79293 0.67008 0.12965 0.0
H2916 H 0.77843 0.71821 0.0945 0.0
C2917 C 0.81318 0.67963 0.14139 0.0
H2918 H 0.76471 0.67731 0.10365 0.0
C2919 C 0.82138 0.70274 0.13571 0.0
C2920 C 0.80902 0.71689 0.11874 0.0
H2921 H 0.8232 0.6689 0.15426 0.0
H2922 H 0.83745 0.70951 0.14448 0.0
C2923 C 0.7882 0.70768 0.10773 0.0
C2924 C 0.54708 0.57168 0.38713 0.0
C2925 C 0.53289 0.5593 0.37022 0.0
H2926 H 0.5811 0.57361 0.40541 0.0
C2927 C 0.54224 0.53875 0.35884 0.0
H2928 H 0.54019 0.58757 0.39614 0.0
C2929 C 0.56576 0.53121 0.36361 0.0
C2930 C 0.58001 0.54366 0.3804 0.0
H2931 H 0.53168 0.529 0.34563 0.0
H2932 H 0.57284 0.51567 0.35415 0.0
C2933 C 0.57036 0.56367 0.39248 0.0
C2934 C 0.6777 0.29576 0.63619 0.0
C2935 C 0.69021 0.28126 0.61963 0.0
H2936 H 0.67586 0.32992 0.65419 0.0
C2937 C 0.7112 0.29018 0.60873 0.0
H2938 H 0.6615 0.28921 0.64488 0.0
C2939 C 0.71903 0.31359 0.61359 0.0
C2940 C 0.70641 0.32816 0.62997 0.0
H2941 H 0.72108 0.27938 0.59582 0.0
H2942 H 0.7349 0.32035 0.60445 0.0
C2943 C 0.68596 0.31892 0.64161 0.0
C2944 C 0.6083 0.9279 0.5636 0.0
C2945 C 0.61974 0.91912 0.54283 0.0
H2946 H 0.60536 0.95701 0.58886 0.0
C2947 C 0.63612 0.93393 0.53049 0.0
H2948 H 0.59575 0.91671 0.57351 0.0
C2949 C 0.64119 0.95708 0.53892 0.0
C2950 C 0.63051 0.96554 0.56023 0.0
H2951 H 0.64515 0.92752 0.51441 0.0
H2952 H 0.65411 0.96804 0.52922 0.0
C2953 C 0.61391 0.95083 0.57243 0.0
C2954 C 0.10718 0.56944 0.43336 0.0
C2955 C 0.11889 0.57974 0.45328 0.0
H2956 H 0.10383 0.53844 0.41049 0.0
C2957 C 0.13547 0.56592 0.46646 0.0
H2958 H 0.09438 0.57984 0.4229 0.0
C2959 C 0.14029 0.54213 0.45984 0.0
C2960 C 0.12919 0.53205 0.43947 0.0
H2961 H 0.14462 0.57348 0.48196 0.0
H2962 H 0.15326 0.53186 0.47021 0.0
C2963 C 0.11261 0.54588 0.42626 0.0
C2964 C 0.67847 0.8563 0.68546 0.0
C2965 C 0.66943 0.8674 0.70631 0.0
H2966 H 0.70825 0.85319 0.661 0.0
C2967 C 0.6843 0.88295 0.71957 0.0
H2968 H 0.6672 0.84437 0.67488 0.0
C2969 C 0.70785 0.88748 0.71203 0.0
C2970 C 0.71664 0.8771 0.69071 0.0
H2971 H 0.67768 0.89167 0.73574 0.0
H2972 H 0.71891 0.89974 0.72246 0.0
C2973 C 0.70181 0.86142 0.67749 0.0
C2974 C 0.35939 0.45741 0.96065 0.0
C2975 C 0.37025 0.46623 0.93958 0.0
H2976 H 0.35511 0.42735 0.98449 0.0
C2977 C 0.38677 0.45165 0.92711 0.0
H2978 H 0.3465 0.46827 0.9705 0.0
C2979 C 0.39216 0.42851 0.93546 0.0
C2980 C 0.38055 0.41937 0.95598 0.0
H2981 H 0.39542 0.45811 0.91085 0.0
H2982 H 0.4047 0.41745 0.92538 0.0
C2983 C 0.36423 0.43403 0.96857 0.0
C2984 C 0.31462 0.61234 0.71664 0.0
C2985 C 0.32907 0.62915 0.70448 0.0
H2986 H 0.28075 0.5939 0.7179 0.0
C2987 C 0.31997 0.64079 0.68396 0.0
H2988 H 0.32128 0.60316 0.73254 0.0
C2989 C 0.29706 0.63503 0.67522 0.0
C2990 C 0.28267 0.61807 0.6873 0.0
H2991 H 0.33088 0.65369 0.67419 0.0
H2992 H 0.29061 0.64379 0.65901 0.0
C2993 C 0.29146 0.6071 0.70833 0.0
C2994 C 0.88876 0.062 0.03539 0.0
C2995 C 0.87497 0.0813 0.0442 0.0
H2996 H 0.89423 0.02367 0.03542 0.0
C2997 C 0.85602 0.07675 0.06029 0.0
H2998 H 0.90343 0.06518 0.02292 0.0
C2999 C 0.85134 0.05327 0.06801 0.0
C3000 C 0.86497 0.03397 0.05904 0.0
H3001 H 0.84526 0.09142 0.06739 0.0
H3002 H 0.83694 0.05015 0.08083 0.0
C3003 C 0.88347 0.03838 0.04242 0.0
C3004 C 0.70721 0.10931 0.78811 0.0
C3005 C 0.71631 0.11998 0.80915 0.0
H3006 H 0.6769 0.10539 0.76454 0.0
C3007 C 0.70198 0.13651 0.8219 0.0
H3008 H 0.71787 0.09642 0.77805 0.0
C3009 C 0.67878 0.1421 0.81381 0.0
C3010 C 0.66938 0.13068 0.79331 0.0
H3011 H 0.70867 0.145 0.83815 0.0
H3012 H 0.6679 0.15465 0.82408 0.0
C3013 C 0.68379 0.11435 0.78045 0.0
C3014 C 0.81759 0.85831 0.31369 0.0
C3015 C 0.82665 0.86986 0.29311 0.0
H3016 H 0.78825 0.85539 0.33865 0.0
C3017 C 0.81212 0.88654 0.28082 0.0
H3018 H 0.82856 0.84552 0.32355 0.0
C3019 C 0.78894 0.89175 0.2891 0.0
C3020 C 0.7802 0.88091 0.3102 0.0
H3021 H 0.81875 0.89564 0.26487 0.0
H3022 H 0.77818 0.90487 0.27944 0.0
C3023 C 0.79466 0.86406 0.32238 0.0
C3024 C 0.46911 0.36283 0.06395 0.0
C3025 C 0.45662 0.3794 0.07843 0.0
H3026 H 0.47092 0.34474 0.02989 0.0
C3027 C 0.43622 0.3911 0.06914 0.0
H3028 H 0.48493 0.35363 0.07076 0.0
C3029 C 0.42786 0.38555 0.04605 0.0
C3030 C 0.4402 0.36878 0.03167 0.0
H3031 H 0.42621 0.40381 0.08007 0.0
H3032 H 0.41167 0.39428 0.03948 0.0
C3033 C 0.46117 0.35783 0.04061 0.0
C3034 C 0.3888 0.71079 0.78979 0.0
C3035 C 0.37827 0.68959 0.78089 0.0
H3036 H 0.39245 0.73473 0.81986 0.0
C3037 C 0.36169 0.67699 0.79526 0.0
H3038 H 0.40172 0.72075 0.77908 0.0
C3039 C 0.35591 0.68534 0.8183 0.0
C3040 C 0.36719 0.70599 0.82754 0.0
H3041 H 0.35329 0.66063 0.78871 0.0
H3042 H 0.34335 0.67515 0.82923 0.0
C3043 C 0.38357 0.71872 0.81308 0.0
C3044 C 0.07193 0.61153 0.54496 0.0
C3045 C 0.05868 0.62746 0.53041 0.0
H3046 H 0.07457 0.59384 0.57925 0.0
C3047 C 0.0373 0.63757 0.53936 0.0
H3048 H 0.08846 0.60349 0.5384 0.0
C3049 C 0.02975 0.63256 0.56281 0.0
C3050 C 0.04306 0.61679 0.57741 0.0
H3051 H 0.02685 0.65 0.52853 0.0
H3052 H 0.01354 0.64109 0.56958 0.0
C3053 C 0.06395 0.60593 0.56819 0.0
C3054 C 0.14024 0.31714 0.32012 0.0
C3055 C 0.12766 0.29762 0.33014 0.0
H3056 H 0.14407 0.34089 0.28988 0.0
C3057 C 0.1096 0.28623 0.31657 0.0
H3058 H 0.15417 0.32627 0.33031 0.0
C3059 C 0.10433 0.29413 0.29324 0.0
C3060 C 0.1165 0.31403 0.28345 0.0
H3061 H 0.09973 0.27108 0.32391 0.0
H3062 H 0.09032 0.28508 0.28309 0.0
C3063 C 0.13443 0.32553 0.2971 0.0
C3064 C 0.43468 0.60792 0.42858 0.0
C3065 C 0.45516 0.61958 0.41944 0.0
H3066 H 0.40962 0.60513 0.45786 0.0
C3067 C 0.46708 0.63674 0.4337 0.0
H3068 H 0.42509 0.59477 0.41781 0.0
C3069 C 0.45859 0.64226 0.45673 0.0
C3070 C 0.43762 0.63123 0.46558 0.0
H3071 H 0.48293 0.64595 0.427 0.0
H3072 H 0.468 0.65569 0.46732 0.0
C3073 C 0.42577 0.61396 0.45136 0.0
C3074 C 0.14641 0.7103 0.18647 0.0
C3075 C 0.13256 0.70135 0.16729 0.0
H3076 H 0.15184 0.71068 0.22479 0.0
C3077 C 0.11398 0.68487 0.17194 0.0
H3078 H 0.16079 0.72309 0.18319 0.0
C3079 C 0.10946 0.67719 0.19545 0.0
C3080 C 0.12289 0.68656 0.21471 0.0
H3081 H 0.10318 0.67769 0.15735 0.0
H3082 H 0.09509 0.66437 0.19866 0.0
C3083 C 0.14128 0.70329 0.21013 0.0
C3084 C 0.06954 0.3867 0.95219 0.0
C3085 C 0.05704 0.37001 0.96655 0.0
H3086 H 0.07176 0.40449 0.91795 0.0
C3087 C 0.03643 0.35868 0.95727 0.0
H3088 H 0.08547 0.39569 0.959 0.0
C3089 C 0.029 0.36323 0.93365 0.0
C3090 C 0.04163 0.37973 0.91922 0.0
H3091 H 0.02658 0.34565 0.96795 0.0
H3092 H 0.01344 0.35377 0.92662 0.0
C3093 C 0.06167 0.3918 0.92882 0.0
C3094 C 0.3564 0.3139 0.67892 0.0
C3095 C 0.36855 0.29415 0.66883 0.0
H3096 H 0.35298 0.33744 0.70936 0.0
C3097 C 0.38591 0.2819 0.68257 0.0
H3098 H 0.34302 0.32367 0.66859 0.0
C3099 C 0.3911 0.28932 0.70605 0.0
C3100 C 0.37955 0.30958 0.71583 0.0
H3101 H 0.39544 0.26655 0.67515 0.0
H3102 H 0.40469 0.27971 0.71626 0.0
C3103 C 0.36215 0.3218 0.70212 0.0
C3104 C 0.06638 0.46615 0.36557 0.0
C3105 C 0.08038 0.45288 0.38191 0.0
H3106 H 0.0322 0.46992 0.34805 0.0
C3107 C 0.07029 0.43275 0.39343 0.0
H3108 H 0.0738 0.4818 0.35655 0.0
C3109 C 0.04674 0.42554 0.38804 0.0
C3110 C 0.03273 0.4389 0.37174 0.0
H3111 H 0.08085 0.42221 0.40603 0.0
H3112 H 0.03945 0.40963 0.39667 0.0
C3113 C 0.04262 0.45945 0.36082 0.0
C3114 C 0.31125 0.31856 0.14122 0.0
C3115 C 0.29082 0.32767 0.12944 0.0
H3116 H 0.33582 0.28895 0.14475 0.0
C3117 C 0.27822 0.31291 0.1132 0.0
H3118 H 0.32133 0.3297 0.15369 0.0
C3119 C 0.28613 0.28948 0.10854 0.0
C3120 C 0.30717 0.28072 0.1195 0.0
H3121 H 0.26237 0.31957 0.10395 0.0
H3122 H 0.27632 0.27857 0.09567 0.0
C3123 C 0.31958 0.29537 0.13601 0.0
C3124 C 0.43533 0.52978 0.86327 0.0
C3125 C 0.42076 0.54232 0.8797 0.0
H3126 H 0.46943 0.52797 0.84528 0.0
C3127 C 0.42989 0.5629 0.89121 0.0
H3128 H 0.42865 0.51382 0.85422 0.0
C3129 C 0.45294 0.57135 0.88563 0.0
C3130 C 0.46744 0.55891 0.86901 0.0
H3131 H 0.41888 0.57295 0.90383 0.0
H3132 H 0.45941 0.58764 0.89423 0.0
C3133 C 0.45863 0.5378 0.85823 0.0
C3134 C 0.21786 0.68439 0.61284 0.0
C3135 C 0.20556 0.66924 0.62891 0.0
H3136 H 0.2191 0.71887 0.59559 0.0
C3137 C 0.18478 0.67776 0.64055 0.0
H3138 H 0.23395 0.67819 0.60368 0.0
C3139 C 0.17592 0.70079 0.63544 0.0
C3140 C 0.18812 0.71586 0.61918 0.0
H3141 H 0.17491 0.66629 0.65288 0.0
H3142 H 0.15949 0.70678 0.64412 0.0
C3143 C 0.20942 0.70764 0.60828 0.0
C3144 C 0.06776 0.53655 0.13703 0.0
C3145 C 0.08136 0.54825 0.11919 0.0
H3146 H 0.03447 0.53527 0.15655 0.0
C3147 C 0.07144 0.56812 0.10709 0.0
H3148 H 0.07503 0.52113 0.14655 0.0
C3149 C 0.04853 0.57661 0.11328 0.0
C3150 C 0.03492 0.56487 0.13111 0.0
H3151 H 0.08166 0.5775 0.09336 0.0
H3152 H 0.0414 0.59226 0.10406 0.0
C3153 C 0.04458 0.54456 0.14268 0.0
C3154 C 0.18531 0.31979 0.8563 0.0
C3155 C 0.2059 0.3289 0.86781 0.0
H3156 H 0.16046 0.29036 0.85341 0.0
C3157 C 0.21837 0.31437 0.88433 0.0
H3158 H 0.17532 0.33077 0.84362 0.0
C3159 C 0.21025 0.29113 0.88948 0.0
C3160 C 0.18911 0.28236 0.87872 0.0
H3161 H 0.23433 0.32105 0.89338 0.0
H3162 H 0.22001 0.28037 0.90251 0.0
C3163 C 0.17677 0.2968 0.86199 0.0
C3164 C 0.42988 0.43419 0.60589 0.0
C3165 C 0.41972 0.45394 0.61796 0.0
H3166 H 0.46031 0.4106 0.60271 0.0
C3167 C 0.43334 0.46619 0.63542 0.0
H3168 H 0.41964 0.42441 0.59244 0.0
C3169 C 0.45677 0.45874 0.64079 0.0
C3170 C 0.46661 0.43846 0.62934 0.0
H3171 H 0.42586 0.48154 0.64489 0.0
H3172 H 0.46688 0.46834 0.65446 0.0
C3173 C 0.45303 0.42626 0.61182 0.0
C3174 C 0.27927 0.68251 0.38281 0.0
C3175 C 0.29302 0.6675 0.36784 0.0
H3176 H 0.27567 0.71728 0.39901 0.0
C3177 C 0.31414 0.6765 0.35722 0.0
H3178 H 0.26291 0.67591 0.39117 0.0
C3179 C 0.32185 0.7 0.36225 0.0
C3180 C 0.30809 0.71498 0.37733 0.0
H3181 H 0.32511 0.66511 0.34577 0.0
H3182 H 0.3385 0.70645 0.3544 0.0
C3183 C 0.28654 0.70615 0.38721 0.0
C3184 C 0.38985 0.06875 0.43552 0.0
C3185 C 0.3791 0.07767 0.45661 0.0
H3186 H 0.39255 0.03908 0.41085 0.0
C3187 C 0.36385 0.06268 0.47007 0.0
H3188 H 0.40153 0.08011 0.42478 0.0
C3189 C 0.35923 0.03916 0.4625 0.0
C3190 C 0.3692 0.03049 0.44092 0.0
H3191 H 0.3554 0.0692 0.48642 0.0
H3192 H 0.34717 0.02805 0.47308 0.0
C3193 C 0.38462 0.04542 0.42752 0.0
C3194 C 0.86178 0.43338 0.52798 0.0
C3195 C 0.87782 0.41834 0.5405 0.0
H3196 H 0.84491 0.46804 0.5261 0.0
C3197 C 0.88986 0.42725 0.56087 0.0
H3198 H 0.85234 0.42688 0.51218 0.0
C3199 C 0.88514 0.45055 0.5692 0.0
C3200 C 0.86887 0.4655 0.55683 0.0
H3201 H 0.90219 0.41589 0.57089 0.0
H3202 H 0.89408 0.45684 0.58538 0.0
C3203 C 0.85762 0.4569 0.53587 0.0
C3204 C 0.31298 0.11158 0.28157 0.0
C3205 C 0.32733 0.12843 0.29381 0.0
H3206 H 0.27917 0.09309 0.28008 0.0
C3207 C 0.31809 0.14004 0.3143 0.0
H3208 H 0.31973 0.10242 0.26571 0.0
C3209 C 0.29512 0.13425 0.32289 0.0
C3210 C 0.28083 0.11727 0.31071 0.0
H3211 H 0.32893 0.15297 0.32413 0.0
H3212 H 0.28855 0.14301 0.33905 0.0
C3213 C 0.28979 0.10631 0.28974 0.0
C3214 C 0.63463 0.56364 0.03009 0.0
C3215 C 0.61825 0.57826 0.04266 0.0
H3216 H 0.65257 0.52951 0.02832 0.0
C3217 C 0.60676 0.56918 0.06326 0.0
H3218 H 0.64367 0.57029 0.01412 0.0
C3219 C 0.61231 0.54613 0.07173 0.0
C3220 C 0.6289 0.5316 0.0593 0.0
H3221 H 0.59419 0.58023 0.07332 0.0
H3222 H 0.60375 0.53971 0.08805 0.0
C3223 C 0.63964 0.54034 0.03815 0.0
C3224 C 0.68429 0.38491 0.28135 0.0
C3225 C 0.66986 0.3688 0.29441 0.0
H3226 H 0.71832 0.40275 0.27864 0.0
C3227 C 0.67913 0.35798 0.31533 0.0
H3228 H 0.67751 0.39345 0.26515 0.0
C3229 C 0.7023 0.36381 0.32345 0.0
C3230 C 0.71672 0.37995 0.31032 0.0
H3231 H 0.6682 0.34564 0.32578 0.0
H3232 H 0.70897 0.35566 0.33988 0.0
C3233 C 0.70762 0.39016 0.28903 0.0
C3234 C 0.13894 0.9591 0.96254 0.0
C3235 C 0.12802 0.96776 0.94144 0.0
H3236 H 0.14372 0.92905 0.98629 0.0
C3237 C 0.11175 0.95296 0.9289 0.0
H3238 H 0.15164 0.97014 0.97244 0.0
C3239 C 0.10675 0.92971 0.93718 0.0
C3240 C 0.1185 0.92072 0.95768 0.0
H3241 H 0.10306 0.9593 0.91261 0.0
H3242 H 0.09447 0.91844 0.92701 0.0
C3243 C 0.13449 0.93563 0.97039 0.0
C3244 C 0.31394 0.88711 0.21875 0.0
C3245 C 0.32793 0.87001 0.20642 0.0
H3246 H 0.28007 0.90559 0.22083 0.0
C3247 C 0.31809 0.85799 0.18645 0.0
H3248 H 0.32116 0.89654 0.23424 0.0
C3249 C 0.2949 0.8636 0.17844 0.0
C3250 C 0.28093 0.88076 0.19071 0.0
H3251 H 0.32861 0.84483 0.17658 0.0
H3252 H 0.28789 0.85454 0.16262 0.0
C3253 C 0.29047 0.89218 0.21117 0.0
C3254 C 0.18496 0.11304 0.71919 0.0
C3255 C 0.17064 0.12973 0.70667 0.0
H3256 H 0.21887 0.09468 0.72108 0.0
C3257 C 0.18005 0.14134 0.68628 0.0
H3258 H 0.17804 0.1039 0.735 0.0
C3259 C 0.20311 0.1356 0.67797 0.0
C3260 C 0.21733 0.1187 0.69034 0.0
H3261 H 0.16925 0.15413 0.67625 0.0
H3262 H 0.20978 0.14427 0.6618 0.0
C3263 C 0.20827 0.10784 0.7113 0.0
loop_
_geom_bond_atom_site_label_1
_geom_bond_atom_site_label_2
_geom_bond_distance
_geom_bond_site_symmetry_2
_ccdc_geom_bond_type
C0 O2 1.247 . S
C0 O4 1.250 1_655 S
C1 O8 1.247 . S
C1 O9 1.258 . S
O2 C0 1.247 . S
O2 Zn3 2.028 1_655 S
Zn3 O2 2.028 1_455 S
Zn3 O7 2.035 . S
Zn3 O9 2.035 . S
Zn3 O10 2.028 . S
O4 C0 1.250 1_455 S
O4 Zn5 2.048 . S
Zn5 O4 2.048 . S
Zn5 O6 2.028 . S
Zn5 O8 2.028 . S
Zn5 O11 2.035 . S
O6 Zn5 2.028 . S
O6 C12 1.247 . S
O7 Zn3 2.035 . S
O7 C12 1.258 . S
O8 C1 1.247 . S
O8 Zn5 2.028 . S
O9 C1 1.258 . S
O9 Zn3 2.035 . S
O10 Zn3 2.028 . S
O10 C13 1.247 . S
O11 Zn5 2.035 . S
O11 C13 1.258 . S
C12 O6 1.247 . S
C12 O7 1.258 . S
C13 O10 1.247 . S
C13 O11 1.258 . S
C14 O16 1.247 . S
C14 O18 1.258 . S
C15 O22 1.247 . S
C15 O23 1.258 . S
O16 C14 1.247 . S
O16 Zn17 2.028 . S
Zn17 O16 2.028 . S
Zn17 O21 2.035 . S
Zn17 O23 2.035 . S
Zn17 O24 2.028 . S
O18 C14 1.258 . S
O18 Zn19 2.035 . S
Zn19 O18 2.035 . S
Zn19 O20 2.028 . S
Zn19 O22 2.028 . S
Zn19 O25 2.035 . S
O20 Zn19 2.028 . S
O20 C26 1.247 . S
O21 Zn17 2.035 . S
O21 C26 1.258 . S
O22 C15 1.247 . S
O22 Zn19 2.028 . S
O23 C15 1.258 . S
O23 Zn17 2.035 . S
O24 Zn17 2.028 . S
O24 C27 1.247 . S
O25 Zn19 2.035 . S
O25 C27 1.258 . S
C26 O20 1.247 . S
C26 O21 1.258 . S
C27 O24 1.247 . S
C27 O25 1.258 . S
C28 O30 1.247 . S
C28 O32 1.258 . S
C29 O36 1.247 . S
C29 O37 1.258 . S
O30 C28 1.247 . S
O30 Zn31 2.028 . S
Zn31 O30 2.028 . S
Zn31 O35 2.035 . S
Zn31 O37 2.035 . S
Zn31 O38 2.028 . S
O32 C28 1.258 . S
O32 Zn33 2.035 . S
Zn33 O32 2.035 . S
Zn33 O34 2.028 . S
Zn33 O36 2.028 . S
Zn33 O39 2.035 . S
O34 Zn33 2.028 . S
O34 C40 1.247 . S
O35 Zn31 2.035 . S
O35 C40 1.258 . S
O36 C29 1.247 . S
O36 Zn33 2.028 . S
O37 C29 1.258 . S
O37 Zn31 2.035 . S
O38 Zn31 2.028 . S
O38 C41 1.247 . S
O39 Zn33 2.035 . S
O39 C41 1.258 . S
C40 O34 1.247 . S
C40 O35 1.258 . S
C41 O38 1.247 . S
C41 O39 1.258 . S
C42 O44 1.247 . S
C42 O46 1.258 . S
C43 O50 1.247 . S
C43 O51 1.258 . S
O44 C42 1.247 . S
O44 Zn45 2.028 . S
Zn45 O44 2.028 . S
Zn45 O49 2.035 . S
Zn45 O51 2.035 . S
Zn45 O52 2.028 . S
O46 C42 1.258 . S
O46 Zn47 2.035 . S
Zn47 O46 2.035 . S
Zn47 O48 2.028 . S
Zn47 O50 2.028 . S
Zn47 O53 2.035 . S
O48 Zn47 2.028 . S
O48 C54 1.247 . S
O49 Zn45 2.035 . S
O49 C54 1.258 . S
O50 C43 1.247 . S
O50 Zn47 2.028 . S
O51 C43 1.258 . S
O51 Zn45 2.035 . S
O52 Zn45 2.028 . S
O52 C55 1.247 . S
O53 Zn47 2.035 . S
O53 C55 1.258 . S
C54 O48 1.247 . S
C54 O49 1.258 . S
C55 O52 1.247 . S
C55 O53 1.258 . S
C56 O58 1.247 . S
C56 O60 1.250 1_655 S
C57 O64 1.247 . S
C57 O65 1.258 . S
O58 C56 1.247 . S
O58 Zn59 2.028 1_655 S
Zn59 O58 2.028 1_455 S
Zn59 O63 2.035 . S
Zn59 O65 2.035 . S
Zn59 O66 2.028 . S
O60 C56 1.250 1_455 S
O60 Zn61 2.048 . S
Zn61 O60 2.048 . S
Zn61 O62 2.028 . S
Zn61 O64 2.028 . S
Zn61 O67 2.035 . S
O62 Zn61 2.028 . S
O62 C68 1.247 . S
O63 Zn59 2.035 . S
O63 C68 1.258 . S
O64 C57 1.247 . S
O64 Zn61 2.028 . S
O65 C57 1.258 . S
O65 Zn59 2.035 . S
O66 Zn59 2.028 . S
O66 C69 1.247 . S
O67 Zn61 2.035 . S
O67 C69 1.258 . S
C68 O62 1.247 . S
C68 O63 1.258 . S
C69 O66 1.247 . S
C69 O67 1.258 . S
C70 O72 1.247 . S
C70 O74 1.258 . S
C71 O78 1.247 . S
C71 O79 1.258 . S
O72 C70 1.247 . S
O72 Zn73 2.028 . S
Zn73 O72 2.028 . S
Zn73 O77 2.035 . S
Zn73 O79 2.035 . S
Zn73 O80 2.028 . S
O74 C70 1.258 . S
O74 Zn75 2.035 . S
Zn75 O74 2.035 . S
Zn75 O76 2.028 . S
Zn75 O78 2.028 . S
Zn75 O81 2.035 . S
O76 Zn75 2.028 . S
O76 C82 1.247 . S
O77 Zn73 2.035 . S
O77 C82 1.258 . S
O78 C71 1.247 . S
O78 Zn75 2.028 . S
O79 C71 1.258 . S
O79 Zn73 2.035 . S
O80 Zn73 2.028 . S
O80 C83 1.247 . S
O81 Zn75 2.035 . S
O81 C83 1.258 . S
C82 O76 1.247 . S
C82 O77 1.258 . S
C83 O80 1.247 . S
C83 O81 1.258 . S
C84 O86 1.247 . S
C84 O88 1.258 . S
C85 O92 1.247 . S
C85 O93 1.258 . S
O86 C84 1.247 . S
O86 Zn87 2.028 . S
Zn87 O86 2.028 . S
Zn87 O91 2.035 . S
Zn87 O93 2.035 . S
Zn87 O94 2.028 . S
O88 C84 1.258 . S
O88 Zn89 2.035 . S
Zn89 O88 2.035 . S
Zn89 O90 2.028 . S
Zn89 O92 2.028 . S
Zn89 O95 2.035 . S
O90 Zn89 2.028 . S
O90 C96 1.247 . S
O91 Zn87 2.035 . S
O91 C96 1.258 . S
O92 C85 1.247 . S
O92 Zn89 2.028 . S
O93 C85 1.258 . S
O93 Zn87 2.035 . S
O94 Zn87 2.028 . S
O94 C97 1.247 . S
O95 Zn89 2.035 . S
O95 C97 1.258 . S
C96 O90 1.247 . S
C96 O91 1.258 . S
C97 O94 1.247 . S
C97 O95 1.258 . S
C98 O100 1.247 . S
C98 O102 1.258 . S
C99 O106 1.247 . S
C99 O107 1.258 . S
O100 C98 1.247 . S
O100 Zn101 2.028 . S
Zn101 O100 2.028 . S
Zn101 O105 2.035 . S
Zn101 O107 2.035 . S
Zn101 O108 2.028 . S
O102 C98 1.258 . S
O102 Zn103 2.035 . S
Zn103 O102 2.035 . S
Zn103 O104 2.028 . S
Zn103 O106 2.028 . S
Zn103 O109 2.035 . S
O104 Zn103 2.028 . S
O104 C110 1.247 . S
O105 Zn101 2.035 . S
O105 C110 1.258 . S
O106 C99 1.247 . S
O106 Zn103 2.028 . S
O107 C99 1.258 . S
O107 Zn101 2.035 . S
O108 Zn101 2.028 . S
O108 C111 1.247 . S
O109 Zn103 2.035 . S
O109 C111 1.258 . S
C110 O104 1.247 . S
C110 O105 1.258 . S
C111 O108 1.247 . S
C111 O109 1.258 . S
C112 O114 1.247 . S
C112 O116 1.258 . S
C113 O120 1.247 . S
C113 O121 1.258 . S
O114 C112 1.247 . S
O114 Zn115 2.028 . S
Zn115 O114 2.028 . S
Zn115 O119 2.035 . S
Zn115 O121 2.035 . S
Zn115 O122 2.038 . S
O116 C112 1.258 . S
O116 Zn117 2.035 . S
Zn117 O116 2.035 . S
Zn117 O118 2.028 . S
Zn117 O120 2.028 . S
Zn117 O123 2.035 1_545 S
O118 Zn117 2.028 . S
O118 C124 1.247 . S
O119 Zn115 2.035 . S
O119 C124 1.258 . S
O120 C113 1.247 . S
O120 Zn117 2.028 . S
O121 C113 1.258 . S
O121 Zn115 2.035 . S
O122 Zn115 2.038 . S
O122 C125 1.240 1_545 S
O123 Zn117 2.035 1_565 S
O123 C125 1.258 . S
C124 O118 1.247 . S
C124 O119 1.258 . S
C125 O122 1.240 1_565 S
C125 O123 1.258 . S
C126 O128 1.247 . S
C126 O130 1.258 . S
C127 O134 1.247 . S
C127 O135 1.258 . S
O128 C126 1.247 . S
O128 Zn129 2.028 . S
Zn129 O128 2.028 . S
Zn129 O133 2.035 . S
Zn129 O135 2.035 . S
Zn129 O136 2.028 . S
O130 C126 1.258 . S
O130 Zn131 2.035 . S
Zn131 O130 2.035 . S
Zn131 O132 2.028 . S
Zn131 O134 2.028 . S
Zn131 O137 2.035 . S
O132 Zn131 2.028 . S
O132 C138 1.247 . S
O133 Zn129 2.035 . S
O133 C138 1.258 . S
O134 C127 1.247 . S
O134 Zn131 2.028 . S
O135 C127 1.258 . S
O135 Zn129 2.035 . S
O136 Zn129 2.028 . S
O136 C139 1.247 . S
O137 Zn131 2.035 . S
O137 C139 1.258 . S
C138 O132 1.247 . S
C138 O133 1.258 . S
C139 O136 1.247 . S
C139 O137 1.258 . S
C140 O142 1.247 . S
C140 O144 1.250 1_545 S
C141 O148 1.247 . S
C141 O149 1.258 . S
O142 C140 1.247 . S
O142 Zn143 2.028 1_545 S
Zn143 O142 2.028 1_565 S
Zn143 O147 2.035 . S
Zn143 O149 2.035 . S
Zn143 O150 2.028 . S
O144 C140 1.250 1_565 S
O144 Zn145 2.048 . S
Zn145 O144 2.048 . S
Zn145 O146 2.028 . S
Zn145 O148 2.028 . S
Zn145 O151 2.035 . S
O146 Zn145 2.028 . S
O146 C152 1.247 . S
O147 Zn143 2.035 . S
O147 C152 1.258 . S
O148 C141 1.247 . S
O148 Zn145 2.028 . S
O149 C141 1.258 . S
O149 Zn143 2.035 . S
O150 Zn143 2.028 . S
O150 C153 1.247 . S
O151 Zn145 2.035 . S
O151 C153 1.258 . S
C152 O146 1.247 . S
C152 O147 1.258 . S
C153 O150 1.247 . S
C153 O151 1.258 . S
C154 O156 1.247 . S
C154 O158 1.258 . S
C155 O162 1.247 . S
C155 O163 1.258 . S
O156 C154 1.247 . S
O156 Zn157 2.028 . S
Zn157 O156 2.028 . S
Zn157 O161 2.035 . S
Zn157 O163 2.035 . S
Zn157 O164 2.028 . S
O158 C154 1.258 . S
O158 Zn159 2.035 . S
Zn159 O158 2.035 . S
Zn159 O160 2.028 . S
Zn159 O162 2.028 . S
Zn159 O165 2.035 . S
O160 Zn159 2.028 . S
O160 C166 1.247 . S
O161 Zn157 2.035 . S
O161 C166 1.258 . S
O162 C155 1.247 . S
O162 Zn159 2.028 . S
O163 C155 1.258 . S
O163 Zn157 2.035 . S
O164 Zn157 2.028 . S
O164 C167 1.247 . S
O165 Zn159 2.035 . S
O165 C167 1.258 . S
C166 O160 1.247 . S
C166 O161 1.258 . S
C167 O164 1.247 . S
C167 O165 1.258 . S
C168 O170 1.247 . S
C168 O172 1.258 . S
C169 O176 1.247 . S
C169 O177 1.258 . S
O170 C168 1.247 . S
O170 Zn171 2.028 . S
Zn171 O170 2.028 . S
Zn171 O175 2.035 . S
Zn171 O177 2.035 . S
Zn171 O178 2.038 . S
O172 C168 1.258 . S
O172 Zn173 2.035 . S
Zn173 O172 2.035 . S
Zn173 O174 2.028 . S
Zn173 O176 2.028 . S
Zn173 O179 2.035 1_565 S
O174 Zn173 2.028 . S
O174 C180 1.247 . S
O175 Zn171 2.035 . S
O175 C180 1.258 . S
O176 C169 1.247 . S
O176 Zn173 2.028 . S
O177 C169 1.258 . S
O177 Zn171 2.035 . S
O178 Zn171 2.038 . S
O178 C181 1.240 1_565 S
O179 Zn173 2.035 1_545 S
O179 C181 1.258 . S
C180 O174 1.247 . S
C180 O175 1.258 . S
C181 O178 1.240 1_545 S
C181 O179 1.258 . S
C182 O184 1.247 . S
C182 O186 1.258 . S
C183 O190 1.247 . S
C183 O191 1.258 . S
O184 C182 1.247 . S
O184 Zn185 2.028 . S
Zn185 O184 2.028 . S
Zn185 O189 2.035 . S
Zn185 O191 2.035 . S
Zn185 O192 2.028 . S
O186 C182 1.258 . S
O186 Zn187 2.035 . S
Zn187 O186 2.035 . S
Zn187 O188 2.028 . S
Zn187 O190 2.028 . S
Zn187 O193 2.035 . S
O188 Zn187 2.028 . S
O188 C194 1.247 . S
O189 Zn185 2.035 . S
O189 C194 1.258 . S
O190 C183 1.247 . S
O190 Zn187 2.028 . S
O191 C183 1.258 . S
O191 Zn185 2.035 . S
O192 Zn185 2.028 . S
O192 C195 1.247 . S
O193 Zn187 2.035 . S
O193 C195 1.258 . S
C194 O188 1.247 . S
C194 O189 1.258 . S
C195 O192 1.247 . S
C195 O193 1.258 . S
C196 O198 1.247 . S
C196 O200 1.250 1_565 S
C197 O204 1.247 . S
C197 O205 1.258 . S
O198 C196 1.247 . S
O198 Zn199 2.028 1_565 S
Zn199 O198 2.028 1_545 S
Zn199 O203 2.035 . S
Zn199 O205 2.035 . S
Zn199 O206 2.028 . S
O200 C196 1.250 1_545 S
O200 Zn201 2.048 . S
Zn201 O200 2.048 . S
Zn201 O202 2.028 . S
Zn201 O204 2.028 . S
Zn201 O207 2.035 . S
O202 Zn201 2.028 . S
O202 C208 1.247 . S
O203 Zn199 2.035 . S
O203 C208 1.258 . S
O204 C197 1.247 . S
O204 Zn201 2.028 . S
O205 C197 1.258 . S
O205 Zn199 2.035 . S
O206 Zn199 2.028 . S
O206 C209 1.247 . S
O207 Zn201 2.035 . S
O207 C209 1.258 . S
C208 O202 1.247 . S
C208 O203 1.258 . S
C209 O206 1.247 . S
C209 O207 1.258 . S
C210 O212 1.247 . S
C210 O214 1.258 . S
C211 O218 1.247 . S
C211 O219 1.258 . S
O212 C210 1.247 . S
O212 Zn213 2.028 . S
Zn213 O212 2.028 . S
Zn213 O217 2.035 . S
Zn213 O219 2.035 . S
Zn213 O220 2.028 . S
O214 C210 1.258 . S
O214 Zn215 2.035 . S
Zn215 O214 2.035 . S
Zn215 O216 2.028 . S
Zn215 O218 2.028 . S
Zn215 O221 2.035 . S
O216 Zn215 2.028 . S
O216 C222 1.247 . S
O217 Zn213 2.035 . S
O217 C222 1.258 . S
O218 C211 1.247 . S
O218 Zn215 2.028 . S
O219 C211 1.258 . S
O219 Zn213 2.035 . S
O220 Zn213 2.028 . S
O220 C223 1.247 . S
O221 Zn215 2.035 . S
O221 C223 1.258 . S
C222 O216 1.247 . S
C222 O217 1.258 . S
C223 O220 1.247 . S
C223 O221 1.258 . S
C224 O226 1.247 . S
C224 O228 1.250 1_556 S
C225 O232 1.247 . S
C225 O233 1.258 . S
O226 C224 1.247 . S
O226 Zn227 2.028 1_556 S
Zn227 O226 2.028 1_554 S
Zn227 O231 2.035 . S
Zn227 O233 2.035 . S
Zn227 O234 2.028 . S
O228 C224 1.250 1_554 S
O228 Zn229 2.048 . S
Zn229 O228 2.048 . S
Zn229 O230 2.028 . S
Zn229 O232 2.028 . S
Zn229 O235 2.035 . S
O230 Zn229 2.028 . S
O230 C236 1.247 . S
O231 Zn227 2.035 . S
O231 C236 1.258 . S
O232 C225 1.247 . S
O232 Zn229 2.028 . S
O233 C225 1.258 . S
O233 Zn227 2.035 . S
O234 Zn227 2.028 . S
O234 C237 1.247 . S
O235 Zn229 2.035 . S
O235 C237 1.258 . S
C236 O230 1.247 . S
C236 O231 1.258 . S
C237 O234 1.247 . S
C237 O235 1.258 . S
C238 O240 1.247 . S
C238 O242 1.250 1_554 S
C239 O246 1.247 . S
C239 O247 1.258 . S
O240 C238 1.247 . S
O240 Zn241 2.028 1_554 S
Zn241 O240 2.028 1_556 S
Zn241 O245 2.035 . S
Zn241 O247 2.035 . S
Zn241 O248 2.028 . S
O242 C238 1.250 1_556 S
O242 Zn243 2.048 . S
Zn243 O242 2.048 . S
Zn243 O244 2.028 . S
Zn243 O246 2.028 . S
Zn243 O249 2.035 . S
O244 Zn243 2.028 . S
O244 C250 1.247 . S
O245 Zn241 2.035 . S
O245 C250 1.258 . S
O246 C239 1.247 . S
O246 Zn243 2.028 . S
O247 C239 1.258 . S
O247 Zn241 2.035 . S
O248 Zn241 2.028 . S
O248 C251 1.247 . S
O249 Zn243 2.035 . S
O249 C251 1.258 . S
C250 O244 1.247 . S
C250 O245 1.258 . S
C251 O248 1.247 . S
C251 O249 1.258 . S
C252 O254 1.247 . S
C252 O256 1.258 . S
C253 O260 1.247 . S
C253 O261 1.258 . S
O254 C252 1.247 . S
O254 Zn255 2.028 . S
Zn255 O254 2.028 . S
Zn255 O259 2.035 . S
Zn255 O261 2.035 . S
Zn255 O262 2.028 . S
O256 C252 1.258 . S
O256 Zn257 2.035 . S
Zn257 O256 2.035 . S
Zn257 O258 2.028 . S
Zn257 O260 2.028 . S
Zn257 O263 2.035 . S
O258 Zn257 2.028 . S
O258 C264 1.247 . S
O259 Zn255 2.035 . S
O259 C264 1.258 . S
O260 C253 1.247 . S
O260 Zn257 2.028 . S
O261 C253 1.258 . S
O261 Zn255 2.035 . S
O262 Zn255 2.028 . S
O262 C265 1.247 . S
O263 Zn257 2.035 . S
O263 C265 1.258 . S
C264 O258 1.247 . S
C264 O259 1.258 . S
C265 O262 1.247 . S
C265 O263 1.258 . S
C266 O268 1.247 . S
C266 O270 1.258 . S
C267 O274 1.247 . S
C267 O275 1.258 . S
O268 C266 1.247 . S
O268 Zn269 2.028 . S
Zn269 O268 2.028 . S
Zn269 O273 2.035 . S
Zn269 O275 2.035 . S
Zn269 O276 2.028 . S
O270 C266 1.258 . S
O270 Zn271 2.035 . S
Zn271 O270 2.035 . S
Zn271 O272 2.028 . S
Zn271 O274 2.028 . S
Zn271 O277 2.035 . S
O272 Zn271 2.028 . S
O272 C278 1.247 . S
O273 Zn269 2.035 . S
O273 C278 1.258 . S
O274 C267 1.247 . S
O274 Zn271 2.028 . S
O275 C267 1.258 . S
O275 Zn269 2.035 . S
O276 Zn269 2.028 . S
O276 C279 1.247 . S
O277 Zn271 2.035 . S
O277 C279 1.258 . S
C278 O272 1.247 . S
C278 O273 1.258 . S
C279 O276 1.247 . S
C279 O277 1.258 . S
C280 O282 1.247 . S
C280 O284 1.258 . S
C281 O288 1.247 . S
C281 O289 1.258 . S
O282 C280 1.247 . S
O282 Zn283 2.028 . S
Zn283 O282 2.028 . S
Zn283 O287 2.035 . S
Zn283 O289 2.035 . S
Zn283 O290 2.028 . S
O284 C280 1.258 . S
O284 Zn285 2.035 . S
Zn285 O284 2.035 . S
Zn285 O286 2.028 . S
Zn285 O288 2.028 . S
Zn285 O291 2.035 . S
O286 Zn285 2.028 . S
O286 C292 1.247 . S
O287 Zn283 2.035 . S
O287 C292 1.258 . S
O288 C281 1.247 . S
O288 Zn285 2.028 . S
O289 C281 1.258 . S
O289 Zn283 2.035 . S
O290 Zn283 2.028 . S
O290 C293 1.247 . S
O291 Zn285 2.035 . S
O291 C293 1.258 . S
C292 O286 1.247 . S
C292 O287 1.258 . S
C293 O290 1.247 . S
C293 O291 1.258 . S
C294 O296 1.247 . S
C294 O298 1.258 . S
C295 O302 1.247 . S
C295 O303 1.258 . S
O296 C294 1.247 . S
O296 Zn297 2.028 . S
Zn297 O296 2.028 . S
Zn297 O301 2.035 . S
Zn297 O303 2.035 . S
Zn297 O304 2.028 . S
O298 C294 1.258 . S
O298 Zn299 2.035 . S
Zn299 O298 2.035 . S
Zn299 O300 2.028 . S
Zn299 O302 2.028 . S
Zn299 O305 2.035 . S
O300 Zn299 2.028 . S
O300 C306 1.247 . S
O301 Zn297 2.035 . S
O301 C306 1.258 . S
O302 C295 1.247 . S
O302 Zn299 2.028 . S
O303 C295 1.258 . S
O303 Zn297 2.035 . S
O304 Zn297 2.028 . S
O304 C307 1.247 . S
O305 Zn299 2.035 . S
O305 C307 1.258 . S
C306 O300 1.247 . S
C306 O301 1.258 . S
C307 O304 1.247 . S
C307 O305 1.258 . S
C308 O310 1.247 . S
C308 O312 1.258 . S
C309 O316 1.247 . S
C309 O317 1.258 . S
O310 C308 1.247 . S
O310 Zn311 2.028 . S
Zn311 O310 2.028 . S
Zn311 O315 2.035 . S
Zn311 O317 2.035 . S
Zn311 O318 2.028 . S
O312 C308 1.258 . S
O312 Zn313 2.035 . S
Zn313 O312 2.035 . S
Zn313 O314 2.028 . S
Zn313 O316 2.028 . S
Zn313 O319 2.035 . S
O314 Zn313 2.028 . S
O314 C320 1.247 . S
O315 Zn311 2.035 . S
O315 C320 1.258 . S
O316 C309 1.247 . S
O316 Zn313 2.028 . S
O317 C309 1.258 . S
O317 Zn311 2.035 . S
O318 Zn311 2.028 . S
O318 C321 1.247 . S
O319 Zn313 2.035 . S
O319 C321 1.258 . S
C320 O314 1.247 . S
C320 O315 1.258 . S
C321 O318 1.247 . S
C321 O319 1.258 . S
C322 O324 1.247 . S
C322 O326 1.258 . S
C323 O330 1.247 . S
C323 O331 1.258 . S
O324 C322 1.247 . S
O324 Zn325 2.028 . S
Zn325 O324 2.028 . S
Zn325 O329 2.035 . S
Zn325 O331 2.035 . S
Zn325 O332 2.028 . S
O326 C322 1.258 . S
O326 Zn327 2.035 . S
Zn327 O326 2.035 . S
Zn327 O328 2.028 . S
Zn327 O330 2.028 . S
Zn327 O333 2.035 . S
O328 Zn327 2.028 . S
O328 C334 1.247 . S
O329 Zn325 2.035 . S
O329 C334 1.258 . S
O330 C323 1.247 . S
O330 Zn327 2.028 . S
O331 C323 1.258 . S
O331 Zn325 2.035 . S
O332 Zn325 2.028 . S
O332 C335 1.247 . S
O333 Zn327 2.035 . S
O333 C335 1.258 . S
C334 O328 1.247 . S
C334 O329 1.258 . S
C335 O332 1.247 . S
C335 O333 1.258 . S
C336 O338 1.240 1_455 S
C336 O340 1.258 . S
C337 O344 1.247 . S
C337 O345 1.258 . S
O338 C336 1.240 1_655 S
O338 Zn339 2.038 . S
Zn339 O338 2.038 . S
Zn339 O343 2.035 . S
Zn339 O345 2.035 . S
Zn339 O346 2.028 . S
O340 C336 1.258 . S
O340 Zn341 2.035 1_455 S
Zn341 O340 2.035 1_655 S
Zn341 O342 2.028 . S
Zn341 O344 2.028 . S
Zn341 O347 2.035 . S
O342 Zn341 2.028 . S
O342 C348 1.247 . S
O343 Zn339 2.035 . S
O343 C348 1.258 . S
O344 C337 1.247 . S
O344 Zn341 2.028 . S
O345 C337 1.258 . S
O345 Zn339 2.035 . S
O346 Zn339 2.028 . S
O346 C349 1.247 . S
O347 Zn341 2.035 . S
O347 C349 1.258 . S
C348 O342 1.247 . S
C348 O343 1.258 . S
C349 O346 1.247 . S
C349 O347 1.258 . S
C350 O352 1.247 . S
C350 O354 1.258 . S
C351 O358 1.247 . S
C351 O359 1.258 . S
O352 C350 1.247 . S
O352 Zn353 2.028 . S
Zn353 O352 2.028 . S
Zn353 O357 2.035 . S
Zn353 O359 2.035 . S
Zn353 O360 2.028 . S
O354 C350 1.258 . S
O354 Zn355 2.035 . S
Zn355 O354 2.035 . S
Zn355 O356 2.028 . S
Zn355 O358 2.028 . S
Zn355 O361 2.035 . S
O356 Zn355 2.028 . S
O356 C362 1.247 . S
O357 Zn353 2.035 . S
O357 C362 1.258 . S
O358 C351 1.247 . S
O358 Zn355 2.028 . S
O359 C351 1.258 . S
O359 Zn353 2.035 . S
O360 Zn353 2.028 . S
O360 C363 1.247 . S
O361 Zn355 2.035 . S
O361 C363 1.258 . S
C362 O356 1.247 . S
C362 O357 1.258 . S
C363 O360 1.247 . S
C363 O361 1.258 . S
C364 O366 1.247 . S
C364 O368 1.258 . S
C365 O372 1.247 . S
C365 O373 1.258 . S
O366 C364 1.247 . S
O366 Zn367 2.028 . S
Zn367 O366 2.028 . S
Zn367 O371 2.035 . S
Zn367 O373 2.035 . S
Zn367 O374 2.028 . S
O368 C364 1.258 . S
O368 Zn369 2.035 . S
Zn369 O368 2.035 . S
Zn369 O370 2.028 . S
Zn369 O372 2.028 . S
Zn369 O375 2.035 . S
O370 Zn369 2.028 . S
O370 C376 1.247 . S
O371 Zn367 2.035 . S
O371 C376 1.258 . S
O372 C365 1.247 . S
O372 Zn369 2.028 . S
O373 C365 1.258 . S
O373 Zn367 2.035 . S
O374 Zn367 2.028 . S
O374 C377 1.247 . S
O375 Zn369 2.035 . S
O375 C377 1.258 . S
C376 O370 1.247 . S
C376 O371 1.258 . S
C377 O374 1.247 . S
C377 O375 1.258 . S
C378 O380 1.247 . S
C378 O382 1.258 . S
C379 O386 1.247 . S
C379 O387 1.258 . S
O380 C378 1.247 . S
O380 Zn381 2.028 . S
Zn381 O380 2.028 . S
Zn381 O385 2.035 . S
Zn381 O387 2.035 . S
Zn381 O388 2.028 . S
O382 C378 1.258 . S
O382 Zn383 2.035 . S
Zn383 O382 2.035 . S
Zn383 O384 2.028 . S
Zn383 O386 2.028 . S
Zn383 O389 2.035 . S
O384 Zn383 2.028 . S
O384 C390 1.247 . S
O385 Zn381 2.035 . S
O385 C390 1.258 . S
O386 C379 1.247 . S
O386 Zn383 2.028 . S
O387 C379 1.258 . S
O387 Zn381 2.035 . S
O388 Zn381 2.028 . S
O388 C391 1.247 . S
O389 Zn383 2.035 . S
O389 C391 1.258 . S
C390 O384 1.247 . S
C390 O385 1.258 . S
C391 O388 1.247 . S
C391 O389 1.258 . S
C392 O394 1.240 1_455 S
C392 O396 1.258 . S
C393 O400 1.247 . S
C393 O401 1.258 . S
O394 C392 1.240 1_655 S
O394 Zn395 2.038 . S
Zn395 O394 2.038 . S
Zn395 O399 2.035 . S
Zn395 O401 2.035 . S
Zn395 O402 2.028 . S
O396 C392 1.258 . S
O396 Zn397 2.035 1_455 S
Zn397 O396 2.035 1_655 S
Zn397 O398 2.028 . S
Zn397 O400 2.028 . S
Zn397 O403 2.035 . S
O398 Zn397 2.028 . S
O398 C404 1.247 . S
O399 Zn395 2.035 . S
O399 C404 1.258 . S
O400 C393 1.247 . S
O400 Zn397 2.028 . S
O401 C393 1.258 . S
O401 Zn395 2.035 . S
O402 Zn395 2.028 . S
O402 C405 1.247 . S
O403 Zn397 2.035 . S
O403 C405 1.258 . S
C404 O398 1.247 . S
C404 O399 1.258 . S
C405 O402 1.247 . S
C405 O403 1.258 . S
C406 O408 1.247 . S
C406 O410 1.258 . S
C407 O414 1.247 . S
C407 O415 1.258 . S
O408 C406 1.247 . S
O408 Zn409 2.028 . S
Zn409 O408 2.028 . S
Zn409 O413 2.035 . S
Zn409 O415 2.035 . S
Zn409 O416 2.028 . S
O410 C406 1.258 . S
O410 Zn411 2.035 . S
Zn411 O410 2.035 . S
Zn411 O412 2.028 . S
Zn411 O414 2.028 . S
Zn411 O417 2.035 . S
O412 Zn411 2.028 . S
O412 C418 1.247 . S
O413 Zn409 2.035 . S
O413 C418 1.258 . S
O414 C407 1.247 . S
O414 Zn411 2.028 . S
O415 C407 1.258 . S
O415 Zn409 2.035 . S
O416 Zn409 2.028 . S
O416 C419 1.247 . S
O417 Zn411 2.035 . S
O417 C419 1.258 . S
C418 O412 1.247 . S
C418 O413 1.258 . S
C419 O416 1.247 . S
C419 O417 1.258 . S
C420 O422 1.247 . S
C420 O424 1.258 . S
C421 O428 1.247 . S
C421 O429 1.258 . S
O422 C420 1.247 . S
O422 Zn423 2.028 . S
Zn423 O422 2.028 . S
Zn423 O427 2.035 . S
Zn423 O429 2.035 . S
Zn423 O430 2.028 . S
O424 C420 1.258 . S
O424 Zn425 2.035 . S
Zn425 O424 2.035 . S
Zn425 O426 2.028 . S
Zn425 O428 2.028 . S
Zn425 O431 2.035 . S
O426 Zn425 2.028 . S
O426 C432 1.247 . S
O427 Zn423 2.035 . S
O427 C432 1.258 . S
O428 C421 1.247 . S
O428 Zn425 2.028 . S
O429 C421 1.258 . S
O429 Zn423 2.035 . S
O430 Zn423 2.028 . S
O430 C433 1.247 . S
O431 Zn425 2.035 . S
O431 C433 1.258 . S
C432 O426 1.247 . S
C432 O427 1.258 . S
C433 O430 1.247 . S
C433 O431 1.258 . S
C434 O436 1.247 . S
C434 O438 1.258 . S
C435 O442 1.247 . S
C435 O443 1.258 . S
O436 C434 1.247 . S
O436 Zn437 2.028 . S
Zn437 O436 2.028 . S
Zn437 O441 2.035 . S
Zn437 O443 2.035 . S
Zn437 O444 2.028 . S
O438 C434 1.258 . S
O438 Zn439 2.035 . S
Zn439 O438 2.035 . S
Zn439 O440 2.028 . S
Zn439 O442 2.028 . S
Zn439 O445 2.035 . S
O440 Zn439 2.028 . S
O440 C446 1.247 . S
O441 Zn437 2.035 . S
O441 C446 1.258 . S
O442 C435 1.247 . S
O442 Zn439 2.028 . S
O443 C435 1.258 . S
O443 Zn437 2.035 . S
O444 Zn437 2.028 . S
O444 C447 1.247 . S
O445 Zn439 2.035 . S
O445 C447 1.258 . S
C446 O440 1.247 . S
C446 O441 1.258 . S
C447 O444 1.247 . S
C447 O445 1.258 . S
C448 O450 1.247 . S
C448 O452 1.258 . S
C449 O456 1.247 . S
C449 O457 1.258 . S
O450 C448 1.247 . S
O450 Zn451 2.028 . S
Zn451 O450 2.028 . S
Zn451 O455 2.035 1_565 S
Zn451 O457 2.035 . S
Zn451 O458 2.028 . S
O452 C448 1.258 . S
O452 Zn453 2.035 . S
Zn453 O452 2.035 . S
Zn453 O454 2.038 . S
Zn453 O456 2.028 . S
Zn453 O459 2.035 . S
O454 Zn453 2.038 . S
O454 C460 1.240 1_565 S
O455 Zn451 2.035 1_545 S
O455 C460 1.258 . S
O456 C449 1.247 . S
O456 Zn453 2.028 . S
O457 C449 1.258 . S
O457 Zn451 2.035 . S
O458 Zn451 2.028 . S
O458 C461 1.247 . S
O459 Zn453 2.035 . S
O459 C461 1.258 . S
C460 O454 1.240 1_545 S
C460 O455 1.258 . S
C461 O458 1.247 . S
C461 O459 1.258 . S
C462 O464 1.247 . S
C462 O466 1.258 . S
C463 O470 1.247 . S
C463 O471 1.258 . S
O464 C462 1.247 . S
O464 Zn465 2.028 . S
Zn465 O464 2.028 . S
Zn465 O469 2.035 . S
Zn465 O471 2.035 . S
Zn465 O472 2.028 . S
O466 C462 1.258 . S
O466 Zn467 2.035 . S
Zn467 O466 2.035 . S
Zn467 O468 2.028 . S
Zn467 O470 2.028 . S
Zn467 O473 2.035 . S
O468 Zn467 2.028 . S
O468 C474 1.247 . S
O469 Zn465 2.035 . S
O469 C474 1.258 . S
O470 C463 1.247 . S
O470 Zn467 2.028 . S
O471 C463 1.258 . S
O471 Zn465 2.035 . S
O472 Zn465 2.028 . S
O472 C475 1.247 . S
O473 Zn467 2.035 . S
O473 C475 1.258 . S
C474 O468 1.247 . S
C474 O469 1.258 . S
C475 O472 1.247 . S
C475 O473 1.258 . S
C476 O478 1.247 . S
C476 O480 1.258 . S
C477 O484 1.247 . S
C477 O485 1.250 1_565 S
O478 C476 1.247 . S
O478 Zn479 2.028 . S
Zn479 O478 2.028 . S
Zn479 O483 2.035 . S
Zn479 O485 2.048 . S
Zn479 O486 2.028 . S
O480 C476 1.258 . S
O480 Zn481 2.035 . S
Zn481 O480 2.035 . S
Zn481 O482 2.028 . S
Zn481 O484 2.028 1_545 S
Zn481 O487 2.035 . S
O482 Zn481 2.028 . S
O482 C488 1.247 . S
O483 Zn479 2.035 . S
O483 C488 1.258 . S
O484 C477 1.247 . S
O484 Zn481 2.028 1_565 S
O485 C477 1.250 1_545 S
O485 Zn479 2.048 . S
O486 Zn479 2.028 . S
O486 C489 1.247 . S
O487 Zn481 2.035 . S
O487 C489 1.258 . S
C488 O482 1.247 . S
C488 O483 1.258 . S
C489 O486 1.247 . S
C489 O487 1.258 . S
C490 O492 1.247 . S
C490 O494 1.258 . S
C491 O498 1.247 . S
C491 O499 1.258 . S
O492 C490 1.247 . S
O492 Zn493 2.028 . S
Zn493 O492 2.028 . S
Zn493 O497 2.035 . S
Zn493 O499 2.035 . S
Zn493 O500 2.028 . S
O494 C490 1.258 . S
O494 Zn495 2.035 . S
Zn495 O494 2.035 . S
Zn495 O496 2.028 . S
Zn495 O498 2.028 . S
Zn495 O501 2.035 . S
O496 Zn495 2.028 . S
O496 C502 1.247 . S
O497 Zn493 2.035 . S
O497 C502 1.258 . S
O498 C491 1.247 . S
O498 Zn495 2.028 . S
O499 C491 1.258 . S
O499 Zn493 2.035 . S
O500 Zn493 2.028 . S
O500 C503 1.247 . S
O501 Zn495 2.035 . S
O501 C503 1.258 . S
C502 O496 1.247 . S
C502 O497 1.258 . S
C503 O500 1.247 . S
C503 O501 1.258 . S
C504 O506 1.247 . S
C504 O508 1.258 . S
C505 O512 1.247 . S
C505 O513 1.258 . S
O506 C504 1.247 . S
O506 Zn507 2.028 . S
Zn507 O506 2.028 . S
Zn507 O511 2.035 1_545 S
Zn507 O513 2.035 . S
Zn507 O514 2.028 . S
O508 C504 1.258 . S
O508 Zn509 2.035 . S
Zn509 O508 2.035 . S
Zn509 O510 2.038 . S
Zn509 O512 2.028 . S
Zn509 O515 2.035 . S
O510 Zn509 2.038 . S
O510 C516 1.240 1_545 S
O511 Zn507 2.035 1_565 S
O511 C516 1.258 . S
O512 C505 1.247 . S
O512 Zn509 2.028 . S
O513 C505 1.258 . S
O513 Zn507 2.035 . S
O514 Zn507 2.028 . S
O514 C517 1.247 . S
O515 Zn509 2.035 . S
O515 C517 1.258 . S
C516 O510 1.240 1_565 S
C516 O511 1.258 . S
C517 O514 1.247 . S
C517 O515 1.258 . S
C518 O520 1.247 . S
C518 O522 1.258 . S
C519 O526 1.247 . S
C519 O527 1.258 . S
O520 C518 1.247 . S
O520 Zn521 2.028 . S
Zn521 O520 2.028 . S
Zn521 O525 2.035 . S
Zn521 O527 2.035 . S
Zn521 O528 2.028 . S
O522 C518 1.258 . S
O522 Zn523 2.035 . S
Zn523 O522 2.035 . S
Zn523 O524 2.028 . S
Zn523 O526 2.028 . S
Zn523 O529 2.035 . S
O524 Zn523 2.028 . S
O524 C530 1.247 . S
O525 Zn521 2.035 . S
O525 C530 1.258 . S
O526 C519 1.247 . S
O526 Zn523 2.028 . S
O527 C519 1.258 . S
O527 Zn521 2.035 . S
O528 Zn521 2.028 . S
O528 C531 1.247 . S
O529 Zn523 2.035 . S
O529 C531 1.258 . S
C530 O524 1.247 . S
C530 O525 1.258 . S
C531 O528 1.247 . S
C531 O529 1.258 . S
C532 O534 1.247 . S
C532 O536 1.258 . S
C533 O540 1.247 . S
C533 O541 1.258 . S
O534 C532 1.247 . S
O534 Zn535 2.028 . S
Zn535 O534 2.028 . S
Zn535 O539 2.035 1_565 S
Zn535 O541 2.035 . S
Zn535 O542 2.028 . S
O536 C532 1.258 . S
O536 Zn537 2.035 . S
Zn537 O536 2.035 . S
Zn537 O538 2.038 . S
Zn537 O540 2.028 . S
Zn537 O543 2.035 . S
O538 Zn537 2.038 . S
O538 C544 1.240 1_565 S
O539 Zn535 2.035 1_545 S
O539 C544 1.258 . S
O540 C533 1.247 . S
O540 Zn537 2.028 . S
O541 C533 1.258 . S
O541 Zn535 2.035 . S
O542 Zn535 2.028 . S
O542 C545 1.247 . S
O543 Zn537 2.035 . S
O543 C545 1.258 . S
C544 O538 1.240 1_545 S
C544 O539 1.258 . S
C545 O542 1.247 . S
C545 O543 1.258 . S
C546 O548 1.247 . S
C546 O550 1.258 . S
C547 O554 1.247 . S
C547 O555 1.258 . S
O548 C546 1.247 . S
O548 Zn549 2.028 . S
Zn549 O548 2.028 . S
Zn549 O553 2.035 . S
Zn549 O555 2.035 . S
Zn549 O556 2.028 . S
O550 C546 1.258 . S
O550 Zn551 2.035 . S
Zn551 O550 2.035 . S
Zn551 O552 2.028 . S
Zn551 O554 2.028 . S
Zn551 O557 2.035 . S
O552 Zn551 2.028 . S
O552 C558 1.247 . S
O553 Zn549 2.035 . S
O553 C558 1.258 . S
O554 C547 1.247 . S
O554 Zn551 2.028 . S
O555 C547 1.258 . S
O555 Zn549 2.035 . S
O556 Zn549 2.028 . S
O556 C559 1.247 . S
O557 Zn551 2.035 . S
O557 C559 1.258 . S
C558 O552 1.247 . S
C558 O553 1.258 . S
C559 O556 1.247 . S
C559 O557 1.258 . S
C560 O562 1.240 1_554 S
C560 O564 1.258 . S
C561 O568 1.247 . S
C561 O569 1.258 . S
O562 C560 1.240 1_556 S
O562 Zn563 2.038 . S
Zn563 O562 2.038 . S
Zn563 O567 2.035 . S
Zn563 O569 2.035 . S
Zn563 O570 2.028 . S
O564 C560 1.258 . S
O564 Zn565 2.035 1_554 S
Zn565 O564 2.035 1_556 S
Zn565 O566 2.028 . S
Zn565 O568 2.028 . S
Zn565 O571 2.035 . S
O566 Zn565 2.028 . S
O566 C572 1.247 . S
O567 Zn563 2.035 . S
O567 C572 1.258 . S
O568 C561 1.247 . S
O568 Zn565 2.028 . S
O569 C561 1.258 . S
O569 Zn563 2.035 . S
O570 Zn563 2.028 . S
O570 C573 1.247 . S
O571 Zn565 2.035 . S
O571 C573 1.258 . S
C572 O566 1.247 . S
C572 O567 1.258 . S
C573 O570 1.247 . S
C573 O571 1.258 . S
C574 O576 1.240 1_556 S
C574 O578 1.258 . S
C575 O582 1.247 . S
C575 O583 1.258 . S
O576 C574 1.240 1_554 S
O576 Zn577 2.038 . S
Zn577 O576 2.038 . S
Zn577 O581 2.035 . S
Zn577 O583 2.035 . S
Zn577 O584 2.028 . S
O578 C574 1.258 . S
O578 Zn579 2.035 1_556 S
Zn579 O578 2.035 1_554 S
Zn579 O580 2.028 . S
Zn579 O582 2.028 . S
Zn579 O585 2.035 . S
O580 Zn579 2.028 . S
O580 C586 1.247 . S
O581 Zn577 2.035 . S
O581 C586 1.258 . S
O582 C575 1.247 . S
O582 Zn579 2.028 . S
O583 C575 1.258 . S
O583 Zn577 2.035 . S
O584 Zn577 2.028 . S
O584 C587 1.247 . S
O585 Zn579 2.035 . S
O585 C587 1.258 . S
C586 O580 1.247 . S
C586 O581 1.258 . S
C587 O584 1.247 . S
C587 O585 1.258 . S
C588 O590 1.247 . S
C588 O592 1.258 . S
C589 O596 1.247 . S
C589 O597 1.258 . S
O590 C588 1.247 . S
O590 Zn591 2.028 . S
Zn591 O590 2.028 . S
Zn591 O595 2.035 . S
Zn591 O597 2.035 . S
Zn591 O598 2.028 . S
O592 C588 1.258 . S
O592 Zn593 2.035 . S
Zn593 O592 2.035 . S
Zn593 O594 2.028 . S
Zn593 O596 2.028 . S
Zn593 O599 2.035 . S
O594 Zn593 2.028 . S
O594 C600 1.247 . S
O595 Zn591 2.035 . S
O595 C600 1.258 . S
O596 C589 1.247 . S
O596 Zn593 2.028 . S
O597 C589 1.258 . S
O597 Zn591 2.035 . S
O598 Zn591 2.028 . S
O598 C601 1.247 . S
O599 Zn593 2.035 . S
O599 C601 1.258 . S
C600 O594 1.247 . S
C600 O595 1.258 . S
C601 O598 1.247 . S
C601 O599 1.258 . S
C602 O604 1.247 . S
C602 O606 1.258 . S
C603 O610 1.247 . S
C603 O611 1.258 . S
O604 C602 1.247 . S
O604 Zn605 2.028 . S
Zn605 O604 2.028 . S
Zn605 O609 2.035 . S
Zn605 O611 2.035 . S
Zn605 O612 2.028 . S
O606 C602 1.258 . S
O606 Zn607 2.035 . S
Zn607 O606 2.035 . S
Zn607 O608 2.028 . S
Zn607 O610 2.028 . S
Zn607 O613 2.035 . S
O608 Zn607 2.028 . S
O608 C614 1.247 . S
O609 Zn605 2.035 . S
O609 C614 1.258 . S
O610 C603 1.247 . S
O610 Zn607 2.028 . S
O611 C603 1.258 . S
O611 Zn605 2.035 . S
O612 Zn605 2.028 . S
O612 C615 1.247 . S
O613 Zn607 2.035 . S
O613 C615 1.258 . S
C614 O608 1.247 . S
C614 O609 1.258 . S
C615 O612 1.247 . S
C615 O613 1.258 . S
C616 O618 1.247 . S
C616 O620 1.258 . S
C617 O624 1.247 . S
C617 O625 1.258 . S
O618 C616 1.247 . S
O618 Zn619 2.028 . S
Zn619 O618 2.028 . S
Zn619 O623 2.035 . S
Zn619 O625 2.035 . S
Zn619 O626 2.028 . S
O620 C616 1.258 . S
O620 Zn621 2.035 . S
Zn621 O620 2.035 . S
Zn621 O622 2.028 . S
Zn621 O624 2.028 . S
Zn621 O627 2.035 . S
O622 Zn621 2.028 . S
O622 C628 1.247 . S
O623 Zn619 2.035 . S
O623 C628 1.258 . S
O624 C617 1.247 . S
O624 Zn621 2.028 . S
O625 C617 1.258 . S
O625 Zn619 2.035 . S
O626 Zn619 2.028 . S
O626 C629 1.247 . S
O627 Zn621 2.035 . S
O627 C629 1.258 . S
C628 O622 1.247 . S
C628 O623 1.258 . S
C629 O626 1.247 . S
C629 O627 1.258 . S
C630 O632 1.247 . S
C630 O634 1.258 . S
C631 O638 1.247 . S
C631 O639 1.258 . S
O632 C630 1.247 . S
O632 Zn633 2.028 . S
Zn633 O632 2.028 . S
Zn633 O637 2.035 . S
Zn633 O639 2.035 . S
Zn633 O640 2.028 . S
O634 C630 1.258 . S
O634 Zn635 2.035 . S
Zn635 O634 2.035 . S
Zn635 O636 2.028 . S
Zn635 O638 2.028 . S
Zn635 O641 2.035 . S
O636 Zn635 2.028 . S
O636 C642 1.247 . S
O637 Zn633 2.035 . S
O637 C642 1.258 . S
O638 C631 1.247 . S
O638 Zn635 2.028 . S
O639 C631 1.258 . S
O639 Zn633 2.035 . S
O640 Zn633 2.028 . S
O640 C643 1.247 . S
O641 Zn635 2.035 . S
O641 C643 1.258 . S
C642 O636 1.247 . S
C642 O637 1.258 . S
C643 O640 1.247 . S
C643 O641 1.258 . S
C644 O646 1.247 . S
C644 O648 1.258 . S
C645 O652 1.247 . S
C645 O653 1.258 . S
O646 C644 1.247 . S
O646 Zn647 2.028 . S
Zn647 O646 2.028 . S
Zn647 O651 2.035 . S
Zn647 O653 2.035 . S
Zn647 O654 2.028 . S
O648 C644 1.258 . S
O648 Zn649 2.035 . S
Zn649 O648 2.035 . S
Zn649 O650 2.028 . S
Zn649 O652 2.028 . S
Zn649 O655 2.035 . S
O650 Zn649 2.028 . S
O650 C656 1.247 . S
O651 Zn647 2.035 . S
O651 C656 1.258 . S
O652 C645 1.247 . S
O652 Zn649 2.028 . S
O653 C645 1.258 . S
O653 Zn647 2.035 . S
O654 Zn647 2.028 . S
O654 C657 1.247 . S
O655 Zn649 2.035 . S
O655 C657 1.258 . S
C656 O650 1.247 . S
C656 O651 1.258 . S
C657 O654 1.247 . S
C657 O655 1.258 . S
C658 O660 1.247 . S
C658 O662 1.258 . S
C659 O666 1.247 . S
C659 O667 1.258 . S
O660 C658 1.247 . S
O660 Zn661 2.028 . S
Zn661 O660 2.028 . S
Zn661 O665 2.035 . S
Zn661 O667 2.035 . S
Zn661 O668 2.028 . S
O662 C658 1.258 . S
O662 Zn663 2.035 . S
Zn663 O662 2.035 . S
Zn663 O664 2.028 . S
Zn663 O666 2.028 . S
Zn663 O669 2.035 . S
O664 Zn663 2.028 . S
O664 C670 1.247 . S
O665 Zn661 2.035 . S
O665 C670 1.258 . S
O666 C659 1.247 . S
O666 Zn663 2.028 . S
O667 C659 1.258 . S
O667 Zn661 2.035 . S
O668 Zn661 2.028 . S
O668 C671 1.247 . S
O669 Zn663 2.035 . S
O669 C671 1.258 . S
C670 O664 1.247 . S
C670 O665 1.258 . S
C671 O668 1.247 . S
C671 O669 1.258 . S
C672 O674 1.247 . S
C672 O676 1.258 . S
C673 O680 1.247 . S
C673 O681 1.258 . S
O674 C672 1.247 . S
O674 Zn675 2.028 . S
Zn675 O674 2.028 . S
Zn675 O679 2.035 . S
Zn675 O681 2.035 . S
Zn675 O682 2.028 . S
O676 C672 1.258 . S
O676 Zn677 2.035 . S
Zn677 O676 2.035 . S
Zn677 O678 2.028 . S
Zn677 O680 2.028 . S
Zn677 O683 2.035 . S
O678 Zn677 2.028 . S
O678 C684 1.247 . S
O679 Zn675 2.035 . S
O679 C684 1.258 . S
O680 C673 1.247 . S
O680 Zn677 2.028 . S
O681 C673 1.258 . S
O681 Zn675 2.035 . S
O682 Zn675 2.028 . S
O682 C685 1.247 . S
O683 Zn677 2.035 . S
O683 C685 1.258 . S
C684 O678 1.247 . S
C684 O679 1.258 . S
C685 O682 1.247 . S
C685 O683 1.258 . S
C686 O688 1.247 . S
C686 O690 1.258 . S
C687 O694 1.247 . S
C687 O695 1.258 . S
O688 C686 1.247 . S
O688 Zn689 2.028 . S
Zn689 O688 2.028 . S
Zn689 O693 2.035 . S
Zn689 O695 2.035 . S
Zn689 O696 2.028 . S
O690 C686 1.258 . S
O690 Zn691 2.035 . S
Zn691 O690 2.035 . S
Zn691 O692 2.028 . S
Zn691 O694 2.028 . S
Zn691 O697 2.035 . S
O692 Zn691 2.028 . S
O692 C698 1.247 . S
O693 Zn689 2.035 . S
O693 C698 1.258 . S
O694 C687 1.247 . S
O694 Zn691 2.028 . S
O695 C687 1.258 . S
O695 Zn689 2.035 . S
O696 Zn689 2.028 . S
O696 C699 1.247 . S
O697 Zn691 2.035 . S
O697 C699 1.258 . S
C698 O692 1.247 . S
C698 O693 1.258 . S
C699 O696 1.247 . S
C699 O697 1.258 . S
C700 O702 1.247 . S
C700 O704 1.250 1_455 S
C701 O708 1.247 . S
C701 O709 1.258 . S
O702 C700 1.247 . S
O702 Zn703 2.028 1_455 S
Zn703 O702 2.028 1_655 S
Zn703 O707 2.035 . S
Zn703 O709 2.035 . S
Zn703 O710 2.028 . S
O704 C700 1.250 1_655 S
O704 Zn705 2.048 . S
Zn705 O704 2.048 . S
Zn705 O706 2.028 . S
Zn705 O708 2.028 . S
Zn705 O711 2.035 . S
O706 Zn705 2.028 . S
O706 C712 1.247 . S
O707 Zn703 2.035 . S
O707 C712 1.258 . S
O708 C701 1.247 . S
O708 Zn705 2.028 . S
O709 C701 1.258 . S
O709 Zn703 2.035 . S
O710 Zn703 2.028 . S
O710 C713 1.247 . S
O711 Zn705 2.035 . S
O711 C713 1.258 . S
C712 O706 1.247 . S
C712 O707 1.258 . S
C713 O710 1.247 . S
C713 O711 1.258 . S
C714 O716 1.247 . S
C714 O718 1.258 . S
C715 O722 1.247 . S
C715 O723 1.258 . S
O716 C714 1.247 . S
O716 Zn717 2.028 . S
Zn717 O716 2.028 . S
Zn717 O721 2.035 . S
Zn717 O723 2.035 . S
Zn717 O724 2.028 . S
O718 C714 1.258 . S
O718 Zn719 2.035 . S
Zn719 O718 2.035 . S
Zn719 O720 2.028 . S
Zn719 O722 2.028 . S
Zn719 O725 2.035 . S
O720 Zn719 2.028 . S
O720 C726 1.247 . S
O721 Zn717 2.035 . S
O721 C726 1.258 . S
O722 C715 1.247 . S
O722 Zn719 2.028 . S
O723 C715 1.258 . S
O723 Zn717 2.035 . S
O724 Zn717 2.028 . S
O724 C727 1.247 . S
O725 Zn719 2.035 . S
O725 C727 1.258 . S
C726 O720 1.247 . S
C726 O721 1.258 . S
C727 O724 1.247 . S
C727 O725 1.258 . S
C728 O730 1.247 . S
C728 O732 1.258 . S
C729 O736 1.247 . S
C729 O737 1.258 . S
O730 C728 1.247 . S
O730 Zn731 2.028 . S
Zn731 O730 2.028 . S
Zn731 O735 2.035 . S
Zn731 O737 2.035 . S
Zn731 O738 2.028 . S
O732 C728 1.258 . S
O732 Zn733 2.035 . S
Zn733 O732 2.035 . S
Zn733 O734 2.028 . S
Zn733 O736 2.028 . S
Zn733 O739 2.035 . S
O734 Zn733 2.028 . S
O734 C740 1.247 . S
O735 Zn731 2.035 . S
O735 C740 1.258 . S
O736 C729 1.247 . S
O736 Zn733 2.028 . S
O737 C729 1.258 . S
O737 Zn731 2.035 . S
O738 Zn731 2.028 . S
O738 C741 1.247 . S
O739 Zn733 2.035 . S
O739 C741 1.258 . S
C740 O734 1.247 . S
C740 O735 1.258 . S
C741 O738 1.247 . S
C741 O739 1.258 . S
C742 O744 1.247 . S
C742 O746 1.258 . S
C743 O750 1.247 . S
C743 O751 1.258 . S
O744 C742 1.247 . S
O744 Zn745 2.028 . S
Zn745 O744 2.028 . S
Zn745 O749 2.035 . S
Zn745 O751 2.035 . S
Zn745 O752 2.028 . S
O746 C742 1.258 . S
O746 Zn747 2.035 . S
Zn747 O746 2.035 . S
Zn747 O748 2.028 . S
Zn747 O750 2.028 . S
Zn747 O753 2.035 . S
O748 Zn747 2.028 . S
O748 C754 1.247 . S
O749 Zn745 2.035 . S
O749 C754 1.258 . S
O750 C743 1.247 . S
O750 Zn747 2.028 . S
O751 C743 1.258 . S
O751 Zn745 2.035 . S
O752 Zn745 2.028 . S
O752 C755 1.247 . S
O753 Zn747 2.035 . S
O753 C755 1.258 . S
C754 O748 1.247 . S
C754 O749 1.258 . S
C755 O752 1.247 . S
C755 O753 1.258 . S
C756 O758 1.247 . S
C756 O760 1.258 . S
C757 O764 1.240 1_455 S
C757 O765 1.258 . S
O758 C756 1.247 . S
O758 Zn759 2.028 . S
Zn759 O758 2.028 . S
Zn759 O763 2.035 . S
Zn759 O765 2.035 1_655 S
Zn759 O766 2.028 . S
O760 C756 1.258 . S
O760 Zn761 2.035 . S
Zn761 O760 2.035 . S
Zn761 O762 2.028 . S
Zn761 O764 2.038 . S
Zn761 O767 2.035 . S
O762 Zn761 2.028 . S
O762 C768 1.247 . S
O763 Zn759 2.035 . S
O763 C768 1.258 . S
O764 C757 1.240 1_655 S
O764 Zn761 2.038 . S
O765 C757 1.258 . S
O765 Zn759 2.035 1_455 S
O766 Zn759 2.028 . S
O766 C769 1.247 . S
O767 Zn761 2.035 . S
O767 C769 1.258 . S
C768 O762 1.247 . S
C768 O763 1.258 . S
C769 O766 1.247 . S
C769 O767 1.258 . S
C770 O772 1.247 . S
C770 O774 1.258 . S
C771 O778 1.247 . S
C771 O779 1.258 . S
O772 C770 1.247 . S
O772 Zn773 2.028 . S
Zn773 O772 2.028 . S
Zn773 O777 2.035 . S
Zn773 O779 2.035 . S
Zn773 O780 2.028 . S
O774 C770 1.258 . S
O774 Zn775 2.035 . S
Zn775 O774 2.035 . S
Zn775 O776 2.028 . S
Zn775 O778 2.028 . S
Zn775 O781 2.035 . S
O776 Zn775 2.028 . S
O776 C782 1.247 . S
O777 Zn773 2.035 . S
O777 C782 1.258 . S
O778 C771 1.247 . S
O778 Zn775 2.028 . S
O779 C771 1.258 . S
O779 Zn773 2.035 . S
O780 Zn773 2.028 . S
O780 C783 1.247 . S
O781 Zn775 2.035 . S
O781 C783 1.258 . S
C782 O776 1.247 . S
C782 O777 1.258 . S
C783 O780 1.247 . S
C783 O781 1.258 . S
C784 O786 1.247 . S
C784 O788 1.258 . S
C785 O792 1.247 . S
C785 O793 1.258 . S
O786 C784 1.247 . S
O786 Zn787 2.028 . S
Zn787 O786 2.028 . S
Zn787 O791 2.035 . S
Zn787 O793 2.035 . S
Zn787 O794 2.028 . S
O788 C784 1.258 . S
O788 Zn789 2.035 . S
Zn789 O788 2.035 . S
Zn789 O790 2.028 . S
Zn789 O792 2.028 . S
Zn789 O795 2.035 . S
O790 Zn789 2.028 . S
O790 C796 1.247 . S
O791 Zn787 2.035 . S
O791 C796 1.258 . S
O792 C785 1.247 . S
O792 Zn789 2.028 . S
O793 C785 1.258 . S
O793 Zn787 2.035 . S
O794 Zn787 2.028 . S
O794 C797 1.247 . S
O795 Zn789 2.035 . S
O795 C797 1.258 . S
C796 O790 1.247 . S
C796 O791 1.258 . S
C797 O794 1.247 . S
C797 O795 1.258 . S
C798 O800 1.247 . S
C798 O802 1.258 . S
C799 O806 1.247 . S
C799 O807 1.258 . S
O800 C798 1.247 . S
O800 Zn801 2.028 . S
Zn801 O800 2.028 . S
Zn801 O805 2.035 . S
Zn801 O807 2.035 . S
Zn801 O808 2.028 . S
O802 C798 1.258 . S
O802 Zn803 2.035 . S
Zn803 O802 2.035 . S
Zn803 O804 2.028 . S
Zn803 O806 2.028 . S
Zn803 O809 2.035 . S
O804 Zn803 2.028 . S
O804 C810 1.247 . S
O805 Zn801 2.035 . S
O805 C810 1.258 . S
O806 C799 1.247 . S
O806 Zn803 2.028 . S
O807 C799 1.258 . S
O807 Zn801 2.035 . S
O808 Zn801 2.028 . S
O808 C811 1.247 . S
O809 Zn803 2.035 . S
O809 C811 1.258 . S
C810 O804 1.247 . S
C810 O805 1.258 . S
C811 O808 1.247 . S
C811 O809 1.258 . S
C812 O814 1.247 . S
C812 O816 1.258 . S
C813 O820 1.247 . S
C813 O821 1.258 . S
O814 C812 1.247 . S
O814 Zn815 2.028 . S
Zn815 O814 2.028 . S
Zn815 O819 2.035 . S
Zn815 O821 2.035 . S
Zn815 O822 2.028 . S
O816 C812 1.258 . S
O816 Zn817 2.035 . S
Zn817 O816 2.035 . S
Zn817 O818 2.028 . S
Zn817 O820 2.028 . S
Zn817 O823 2.035 . S
O818 Zn817 2.028 . S
O818 C824 1.247 . S
O819 Zn815 2.035 . S
O819 C824 1.258 . S
O820 C813 1.247 . S
O820 Zn817 2.028 . S
O821 C813 1.258 . S
O821 Zn815 2.035 . S
O822 Zn815 2.028 . S
O822 C825 1.247 . S
O823 Zn817 2.035 . S
O823 C825 1.258 . S
C824 O818 1.247 . S
C824 O819 1.258 . S
C825 O822 1.247 . S
C825 O823 1.258 . S
C826 O828 1.247 . S
C826 O830 1.258 . S
C827 O834 1.247 . S
C827 O835 1.258 . S
O828 C826 1.247 . S
O828 Zn829 2.028 . S
Zn829 O828 2.028 . S
Zn829 O833 2.035 . S
Zn829 O835 2.035 . S
Zn829 O836 2.028 . S
O830 C826 1.258 . S
O830 Zn831 2.035 . S
Zn831 O830 2.035 . S
Zn831 O832 2.028 . S
Zn831 O834 2.028 . S
Zn831 O837 2.035 . S
O832 Zn831 2.028 . S
O832 C838 1.247 . S
O833 Zn829 2.035 . S
O833 C838 1.258 . S
O834 C827 1.247 . S
O834 Zn831 2.028 . S
O835 C827 1.258 . S
O835 Zn829 2.035 . S
O836 Zn829 2.028 . S
O836 C839 1.247 . S
O837 Zn831 2.035 . S
O837 C839 1.258 . S
C838 O832 1.247 . S
C838 O833 1.258 . S
C839 O836 1.247 . S
C839 O837 1.258 . S
C840 O842 1.247 . S
C840 O844 1.258 . S
C841 O848 1.247 . S
C841 O849 1.258 . S
O842 C840 1.247 . S
O842 Zn843 2.028 . S
Zn843 O842 2.028 . S
Zn843 O847 2.035 . S
Zn843 O849 2.035 . S
Zn843 O850 2.028 . S
O844 C840 1.258 . S
O844 Zn845 2.035 . S
Zn845 O844 2.035 . S
Zn845 O846 2.028 . S
Zn845 O848 2.028 . S
Zn845 O851 2.035 . S
O846 Zn845 2.028 . S
O846 C852 1.247 . S
O847 Zn843 2.035 . S
O847 C852 1.258 . S
O848 C841 1.247 . S
O848 Zn845 2.028 . S
O849 C841 1.258 . S
O849 Zn843 2.035 . S
O850 Zn843 2.028 . S
O850 C853 1.247 . S
O851 Zn845 2.035 . S
O851 C853 1.258 . S
C852 O846 1.247 . S
C852 O847 1.258 . S
C853 O850 1.247 . S
C853 O851 1.258 . S
C854 O856 1.247 . S
C854 O858 1.258 . S
C855 O862 1.247 . S
C855 O863 1.258 . S
O856 C854 1.247 . S
O856 Zn857 2.028 . S
Zn857 O856 2.028 . S
Zn857 O861 2.035 . S
Zn857 O863 2.035 . S
Zn857 O864 2.028 . S
O858 C854 1.258 . S
O858 Zn859 2.035 . S
Zn859 O858 2.035 . S
Zn859 O860 2.028 . S
Zn859 O862 2.028 . S
Zn859 O865 2.035 . S
O860 Zn859 2.028 . S
O860 C866 1.247 . S
O861 Zn857 2.035 . S
O861 C866 1.258 . S
O862 C855 1.247 . S
O862 Zn859 2.028 . S
O863 C855 1.258 . S
O863 Zn857 2.035 . S
O864 Zn857 2.028 . S
O864 C867 1.247 . S
O865 Zn859 2.035 . S
O865 C867 1.258 . S
C866 O860 1.247 . S
C866 O861 1.258 . S
C867 O864 1.247 . S
C867 O865 1.258 . S
C868 O870 1.247 . S
C868 O872 1.258 . S
C869 O876 1.247 . S
C869 O877 1.258 . S
O870 C868 1.247 . S
O870 Zn871 2.028 . S
Zn871 O870 2.028 . S
Zn871 O875 2.035 . S
Zn871 O877 2.035 . S
Zn871 O878 2.028 . S
O872 C868 1.258 . S
O872 Zn873 2.035 . S
Zn873 O872 2.035 . S
Zn873 O874 2.028 . S
Zn873 O876 2.028 . S
Zn873 O879 2.035 . S
O874 Zn873 2.028 . S
O874 C880 1.247 . S
O875 Zn871 2.035 . S
O875 C880 1.258 . S
O876 C869 1.247 . S
O876 Zn873 2.028 . S
O877 C869 1.258 . S
O877 Zn871 2.035 . S
O878 Zn871 2.028 . S
O878 C881 1.247 . S
O879 Zn873 2.035 . S
O879 C881 1.258 . S
C880 O874 1.247 . S
C880 O875 1.258 . S
C881 O878 1.247 . S
C881 O879 1.258 . S
C882 O884 1.247 . S
C882 O886 1.258 . S
C883 O890 1.247 . S
C883 O891 1.258 . S
O884 C882 1.247 . S
O884 Zn885 2.028 . S
Zn885 O884 2.028 . S
Zn885 O889 2.035 . S
Zn885 O891 2.035 . S
Zn885 O892 2.028 . S
O886 C882 1.258 . S
O886 Zn887 2.035 . S
Zn887 O886 2.035 . S
Zn887 O888 2.028 . S
Zn887 O890 2.028 . S
Zn887 O893 2.035 . S
O888 Zn887 2.028 . S
O888 C894 1.247 . S
O889 Zn885 2.035 . S
O889 C894 1.258 . S
O890 C883 1.247 . S
O890 Zn887 2.028 . S
O891 C883 1.258 . S
O891 Zn885 2.035 . S
O892 Zn885 2.028 . S
O892 C895 1.247 . S
O893 Zn887 2.035 . S
O893 C895 1.258 . S
C894 O888 1.247 . S
C894 O889 1.258 . S
C895 O892 1.247 . S
C895 O893 1.258 . S
C896 O898 1.247 . S
C896 O900 1.258 . S
C897 O904 1.247 . S
C897 O905 1.258 . S
O898 C896 1.247 . S
O898 Zn899 2.028 . S
Zn899 O898 2.028 . S
Zn899 O903 2.035 . S
Zn899 O905 2.035 . S
Zn899 O906 2.028 . S
O900 C896 1.258 . S
O900 Zn901 2.035 . S
Zn901 O900 2.035 . S
Zn901 O902 2.028 . S
Zn901 O904 2.028 . S
Zn901 O907 2.035 . S
O902 Zn901 2.028 . S
O902 C908 1.247 . S
O903 Zn899 2.035 . S
O903 C908 1.258 . S
O904 C897 1.247 . S
O904 Zn901 2.028 . S
O905 C897 1.258 . S
O905 Zn899 2.035 . S
O906 Zn899 2.028 . S
O906 C909 1.247 . S
O907 Zn901 2.035 . S
O907 C909 1.258 . S
C908 O902 1.247 . S
C908 O903 1.258 . S
C909 O906 1.247 . S
C909 O907 1.258 . S
C910 O912 1.247 . S
C910 O914 1.258 . S
C911 O918 1.247 . S
C911 O919 1.258 . S
O912 C910 1.247 . S
O912 Zn913 2.028 . S
Zn913 O912 2.028 . S
Zn913 O917 2.035 . S
Zn913 O919 2.035 . S
Zn913 O920 2.028 . S
O914 C910 1.258 . S
O914 Zn915 2.035 . S
Zn915 O914 2.035 . S
Zn915 O916 2.028 . S
Zn915 O918 2.028 . S
Zn915 O921 2.035 . S
O916 Zn915 2.028 . S
O916 C922 1.247 . S
O917 Zn913 2.035 . S
O917 C922 1.258 . S
O918 C911 1.247 . S
O918 Zn915 2.028 . S
O919 C911 1.258 . S
O919 Zn913 2.035 . S
O920 Zn913 2.028 . S
O920 C923 1.247 . S
O921 Zn915 2.035 . S
O921 C923 1.258 . S
C922 O916 1.247 . S
C922 O917 1.258 . S
C923 O920 1.247 . S
C923 O921 1.258 . S
C924 O926 1.247 . S
C924 O928 1.258 . S
C925 O932 1.247 . S
C925 O933 1.258 . S
O926 C924 1.247 . S
O926 Zn927 2.028 . S
Zn927 O926 2.028 . S
Zn927 O931 2.035 . S
Zn927 O933 2.035 . S
Zn927 O934 2.028 . S
O928 C924 1.258 . S
O928 Zn929 2.035 . S
Zn929 O928 2.035 . S
Zn929 O930 2.028 . S
Zn929 O932 2.028 . S
Zn929 O935 2.035 . S
O930 Zn929 2.028 . S
O930 C936 1.247 . S
O931 Zn927 2.035 . S
O931 C936 1.258 . S
O932 C925 1.247 . S
O932 Zn929 2.028 . S
O933 C925 1.258 . S
O933 Zn927 2.035 . S
O934 Zn927 2.028 . S
O934 C937 1.247 . S
O935 Zn929 2.035 . S
O935 C937 1.258 . S
C936 O930 1.247 . S
C936 O931 1.258 . S
C937 O934 1.247 . S
C937 O935 1.258 . S
C938 O940 1.247 . S
C938 O942 1.250 1_554 S
C939 O946 1.247 . S
C939 O947 1.258 . S
O940 C938 1.247 . S
O940 Zn941 2.028 1_554 S
Zn941 O940 2.028 1_556 S
Zn941 O945 2.035 . S
Zn941 O947 2.035 . S
Zn941 O948 2.028 . S
O942 C938 1.250 1_556 S
O942 Zn943 2.048 . S
Zn943 O942 2.048 . S
Zn943 O944 2.028 . S
Zn943 O946 2.028 . S
Zn943 O949 2.035 . S
O944 Zn943 2.028 . S
O944 C950 1.247 . S
O945 Zn941 2.035 . S
O945 C950 1.258 . S
O946 C939 1.247 . S
O946 Zn943 2.028 . S
O947 C939 1.258 . S
O947 Zn941 2.035 . S
O948 Zn941 2.028 . S
O948 C951 1.247 . S
O949 Zn943 2.035 . S
O949 C951 1.258 . S
C950 O944 1.247 . S
C950 O945 1.258 . S
C951 O948 1.247 . S
C951 O949 1.258 . S
C952 O954 1.247 . S
C952 O956 1.258 . S
C953 O960 1.247 . S
C953 O961 1.258 . S
O954 C952 1.247 . S
O954 Zn955 2.028 . S
Zn955 O954 2.028 . S
Zn955 O959 2.035 . S
Zn955 O961 2.035 . S
Zn955 O962 2.028 . S
O956 C952 1.258 . S
O956 Zn957 2.035 . S
Zn957 O956 2.035 . S
Zn957 O958 2.028 . S
Zn957 O960 2.028 . S
Zn957 O963 2.035 . S
O958 Zn957 2.028 . S
O958 C964 1.247 . S
O959 Zn955 2.035 . S
O959 C964 1.258 . S
O960 C953 1.247 . S
O960 Zn957 2.028 . S
O961 C953 1.258 . S
O961 Zn955 2.035 . S
O962 Zn955 2.028 . S
O962 C965 1.247 . S
O963 Zn957 2.035 . S
O963 C965 1.258 . S
C964 O958 1.247 . S
C964 O959 1.258 . S
C965 O962 1.247 . S
C965 O963 1.258 . S
C966 O968 1.247 . S
C966 O970 1.258 . S
C967 O974 1.247 . S
C967 O975 1.258 . S
O968 C966 1.247 . S
O968 Zn969 2.028 . S
Zn969 O968 2.028 . S
Zn969 O973 2.035 . S
Zn969 O975 2.035 . S
Zn969 O976 2.038 . S
O970 C966 1.258 . S
O970 Zn971 2.035 . S
Zn971 O970 2.035 . S
Zn971 O972 2.028 . S
Zn971 O974 2.028 . S
Zn971 O977 2.035 1_554 S
O972 Zn971 2.028 . S
O972 C978 1.247 . S
O973 Zn969 2.035 . S
O973 C978 1.258 . S
O974 C967 1.247 . S
O974 Zn971 2.028 . S
O975 C967 1.258 . S
O975 Zn969 2.035 . S
O976 Zn969 2.038 . S
O976 C979 1.240 1_554 S
O977 Zn971 2.035 1_556 S
O977 C979 1.258 . S
C978 O972 1.247 . S
C978 O973 1.258 . S
C979 O976 1.240 1_556 S
C979 O977 1.258 . S
C980 O982 1.247 . S
C980 O984 1.258 . S
C981 O988 1.247 . S
C981 O989 1.258 . S
O982 C980 1.247 . S
O982 Zn983 2.028 . S
Zn983 O982 2.028 . S
Zn983 O987 2.035 . S
Zn983 O989 2.035 . S
Zn983 O990 2.028 . S
O984 C980 1.258 . S
O984 Zn985 2.035 . S
Zn985 O984 2.035 . S
Zn985 O986 2.028 . S
Zn985 O988 2.028 . S
Zn985 O991 2.035 . S
O986 Zn985 2.028 . S
O986 C992 1.247 . S
O987 Zn983 2.035 . S
O987 C992 1.258 . S
O988 C981 1.247 . S
O988 Zn985 2.028 . S
O989 C981 1.258 . S
O989 Zn983 2.035 . S
O990 Zn983 2.028 . S
O990 C993 1.247 . S
O991 Zn985 2.035 . S
O991 C993 1.258 . S
C992 O986 1.247 . S
C992 O987 1.258 . S
C993 O990 1.247 . S
C993 O991 1.258 . S
C994 O996 1.247 . S
C994 O998 1.258 . S
C995 O1002 1.247 . S
C995 O1003 1.258 . S
O996 C994 1.247 . S
O996 Zn997 2.028 . S
Zn997 O996 2.028 . S
Zn997 O1001 2.035 . S
Zn997 O1003 2.035 . S
Zn997 O1004 2.028 . S
O998 C994 1.258 . S
O998 Zn999 2.035 . S
Zn999 O998 2.035 . S
Zn999 O1000 2.028 . S
Zn999 O1002 2.028 . S
Zn999 O1005 2.035 . S
O1000 Zn999 2.028 . S
O1000 C1006 1.247 . S
O1001 Zn997 2.035 . S
O1001 C1006 1.258 . S
O1002 C995 1.247 . S
O1002 Zn999 2.028 . S
O1003 C995 1.258 . S
O1003 Zn997 2.035 . S
O1004 Zn997 2.028 . S
O1004 C1007 1.247 . S
O1005 Zn999 2.035 . S
O1005 C1007 1.258 . S
C1006 O1000 1.247 . S
C1006 O1001 1.258 . S
C1007 O1004 1.247 . S
C1007 O1005 1.258 . S
C1008 O1010 1.247 . S
C1008 O1012 1.258 . S
C1009 O1016 1.247 . S
C1009 O1017 1.258 . S
O1010 C1008 1.247 . S
O1010 Zn1011 2.028 . S
Zn1011 O1010 2.028 . S
Zn1011 O1015 2.035 . S
Zn1011 O1017 2.035 . S
Zn1011 O1018 2.028 . S
O1012 C1008 1.258 . S
O1012 Zn1013 2.035 . S
Zn1013 O1012 2.035 . S
Zn1013 O1014 2.028 . S
Zn1013 O1016 2.028 . S
Zn1013 O1019 2.035 . S
O1014 Zn1013 2.028 . S
O1014 C1020 1.247 . S
O1015 Zn1011 2.035 . S
O1015 C1020 1.258 . S
O1016 C1009 1.247 . S
O1016 Zn1013 2.028 . S
O1017 C1009 1.258 . S
O1017 Zn1011 2.035 . S
O1018 Zn1011 2.028 . S
O1018 C1021 1.247 . S
O1019 Zn1013 2.035 . S
O1019 C1021 1.258 . S
C1020 O1014 1.247 . S
C1020 O1015 1.258 . S
C1021 O1018 1.247 . S
C1021 O1019 1.258 . S
C1022 O1024 1.247 . S
C1022 O1026 1.258 . S
C1023 O1030 1.247 . S
C1023 O1031 1.258 . S
O1024 C1022 1.247 . S
O1024 Zn1025 2.028 . S
Zn1025 O1024 2.028 . S
Zn1025 O1029 2.035 . S
Zn1025 O1031 2.035 . S
Zn1025 O1032 2.028 . S
O1026 C1022 1.258 . S
O1026 Zn1027 2.035 . S
Zn1027 O1026 2.035 . S
Zn1027 O1028 2.028 . S
Zn1027 O1030 2.028 . S
Zn1027 O1033 2.035 . S
O1028 Zn1027 2.028 . S
O1028 C1034 1.247 . S
O1029 Zn1025 2.035 . S
O1029 C1034 1.258 . S
O1030 C1023 1.247 . S
O1030 Zn1027 2.028 . S
O1031 C1023 1.258 . S
O1031 Zn1025 2.035 . S
O1032 Zn1025 2.028 . S
O1032 C1035 1.247 . S
O1033 Zn1027 2.035 . S
O1033 C1035 1.258 . S
C1034 O1028 1.247 . S
C1034 O1029 1.258 . S
C1035 O1032 1.247 . S
C1035 O1033 1.258 . S
C1036 O1038 1.247 . S
C1036 O1040 1.258 . S
C1037 O1044 1.247 . S
C1037 O1045 1.250 1_655 S
O1038 C1036 1.247 . S
O1038 Zn1039 2.028 . S
Zn1039 O1038 2.028 . S
Zn1039 O1043 2.035 . S
Zn1039 O1045 2.048 . S
Zn1039 O1046 2.028 . S
O1040 C1036 1.258 . S
O1040 Zn1041 2.035 . S
Zn1041 O1040 2.035 . S
Zn1041 O1042 2.028 . S
Zn1041 O1044 2.028 1_455 S
Zn1041 O1047 2.035 . S
O1042 Zn1041 2.028 . S
O1042 C1048 1.247 . S
O1043 Zn1039 2.035 . S
O1043 C1048 1.258 . S
O1044 C1037 1.247 . S
O1044 Zn1041 2.028 1_655 S
O1045 C1037 1.250 1_455 S
O1045 Zn1039 2.048 . S
O1046 Zn1039 2.028 . S
O1046 C1049 1.247 . S
O1047 Zn1041 2.035 . S
O1047 C1049 1.258 . S
C1048 O1042 1.247 . S
C1048 O1043 1.258 . S
C1049 O1046 1.247 . S
C1049 O1047 1.258 . S
C1050 O1052 1.247 . S
C1050 O1054 1.258 . S
C1051 O1058 1.247 . S
C1051 O1059 1.258 . S
O1052 C1050 1.247 . S
O1052 Zn1053 2.028 . S
Zn1053 O1052 2.028 . S
Zn1053 O1057 2.035 . S
Zn1053 O1059 2.035 . S
Zn1053 O1060 2.028 . S
O1054 C1050 1.258 . S
O1054 Zn1055 2.035 . S
Zn1055 O1054 2.035 . S
Zn1055 O1056 2.028 . S
Zn1055 O1058 2.028 . S
Zn1055 O1061 2.035 . S
O1056 Zn1055 2.028 . S
O1056 C1062 1.247 . S
O1057 Zn1053 2.035 . S
O1057 C1062 1.258 . S
O1058 C1051 1.247 . S
O1058 Zn1055 2.028 . S
O1059 C1051 1.258 . S
O1059 Zn1053 2.035 . S
O1060 Zn1053 2.028 . S
O1060 C1063 1.247 . S
O1061 Zn1055 2.035 . S
O1061 C1063 1.258 . S
C1062 O1056 1.247 . S
C1062 O1057 1.258 . S
C1063 O1060 1.247 . S
C1063 O1061 1.258 . S
C1064 O1066 1.247 . S
C1064 O1068 1.258 . S
C1065 O1072 1.247 . S
C1065 O1073 1.258 . S
O1066 C1064 1.247 . S
O1066 Zn1067 2.028 . S
Zn1067 O1066 2.028 . S
Zn1067 O1071 2.035 . S
Zn1067 O1073 2.035 . S
Zn1067 O1074 2.028 . S
O1068 C1064 1.258 . S
O1068 Zn1069 2.035 . S
Zn1069 O1068 2.035 . S
Zn1069 O1070 2.028 . S
Zn1069 O1072 2.028 . S
Zn1069 O1075 2.035 . S
O1070 Zn1069 2.028 . S
O1070 C1076 1.247 . S
O1071 Zn1067 2.035 . S
O1071 C1076 1.258 . S
O1072 C1065 1.247 . S
O1072 Zn1069 2.028 . S
O1073 C1065 1.258 . S
O1073 Zn1067 2.035 . S
O1074 Zn1067 2.028 . S
O1074 C1077 1.247 . S
O1075 Zn1069 2.035 . S
O1075 C1077 1.258 . S
C1076 O1070 1.247 . S
C1076 O1071 1.258 . S
C1077 O1074 1.247 . S
C1077 O1075 1.258 . S
C1078 O1080 1.247 . S
C1078 O1082 1.258 . S
C1079 O1086 1.247 . S
C1079 O1087 1.258 . S
O1080 C1078 1.247 . S
O1080 Zn1081 2.028 . S
Zn1081 O1080 2.028 . S
Zn1081 O1085 2.035 . S
Zn1081 O1087 2.035 . S
Zn1081 O1088 2.028 . S
O1082 C1078 1.258 . S
O1082 Zn1083 2.035 . S
Zn1083 O1082 2.035 . S
Zn1083 O1084 2.028 . S
Zn1083 O1086 2.028 . S
Zn1083 O1089 2.035 . S
O1084 Zn1083 2.028 . S
O1084 C1090 1.247 . S
O1085 Zn1081 2.035 . S
O1085 C1090 1.258 . S
O1086 C1079 1.247 . S
O1086 Zn1083 2.028 . S
O1087 C1079 1.258 . S
O1087 Zn1081 2.035 . S
O1088 Zn1081 2.028 . S
O1088 C1091 1.247 . S
O1089 Zn1083 2.035 . S
O1089 C1091 1.258 . S
C1090 O1084 1.247 . S
C1090 O1085 1.258 . S
C1091 O1088 1.247 . S
C1091 O1089 1.258 . S
C1092 O1094 1.247 . S
C1092 O1096 1.258 . S
C1093 O1100 1.247 . S
C1093 O1101 1.250 1_655 S
O1094 C1092 1.247 . S
O1094 Zn1095 2.028 . S
Zn1095 O1094 2.028 . S
Zn1095 O1099 2.035 . S
Zn1095 O1101 2.048 . S
Zn1095 O1102 2.028 . S
O1096 C1092 1.258 . S
O1096 Zn1097 2.035 . S
Zn1097 O1096 2.035 . S
Zn1097 O1098 2.028 . S
Zn1097 O1100 2.028 1_455 S
Zn1097 O1103 2.035 . S
O1098 Zn1097 2.028 . S
O1098 C1104 1.247 . S
O1099 Zn1095 2.035 . S
O1099 C1104 1.258 . S
O1100 C1093 1.247 . S
O1100 Zn1097 2.028 1_655 S
O1101 C1093 1.250 1_455 S
O1101 Zn1095 2.048 . S
O1102 Zn1095 2.028 . S
O1102 C1105 1.247 . S
O1103 Zn1097 2.035 . S
O1103 C1105 1.258 . S
C1104 O1098 1.247 . S
C1104 O1099 1.258 . S
C1105 O1102 1.247 . S
C1105 O1103 1.258 . S
C1106 O1108 1.247 . S
C1106 O1110 1.258 . S
C1107 O1114 1.247 . S
C1107 O1115 1.258 . S
O1108 C1106 1.247 . S
O1108 Zn1109 2.028 . S
Zn1109 O1108 2.028 . S
Zn1109 O1113 2.035 . S
Zn1109 O1115 2.035 . S
Zn1109 O1116 2.028 . S
O1110 C1106 1.258 . S
O1110 Zn1111 2.035 . S
Zn1111 O1110 2.035 . S
Zn1111 O1112 2.028 . S
Zn1111 O1114 2.028 . S
Zn1111 O1117 2.035 . S
O1112 Zn1111 2.028 . S
O1112 C1118 1.247 . S
O1113 Zn1109 2.035 . S
O1113 C1118 1.258 . S
O1114 C1107 1.247 . S
O1114 Zn1111 2.028 . S
O1115 C1107 1.258 . S
O1115 Zn1109 2.035 . S
O1116 Zn1109 2.028 . S
O1116 C1119 1.247 . S
O1117 Zn1111 2.035 . S
O1117 C1119 1.258 . S
C1118 O1112 1.247 . S
C1118 O1113 1.258 . S
C1119 O1116 1.247 . S
C1119 O1117 1.258 . S
C1120 O1122 1.247 . S
C1120 O1124 1.258 . S
C1121 O1128 1.247 . S
C1121 O1129 1.258 . S
O1122 C1120 1.247 . S
O1122 Zn1123 2.028 . S
Zn1123 O1122 2.028 . S
Zn1123 O1127 2.035 . S
Zn1123 O1129 2.035 . S
Zn1123 O1130 2.028 . S
O1124 C1120 1.258 . S
O1124 Zn1125 2.035 . S
Zn1125 O1124 2.035 . S
Zn1125 O1126 2.028 . S
Zn1125 O1128 2.028 . S
Zn1125 O1131 2.035 . S
O1126 Zn1125 2.028 . S
O1126 C1132 1.247 . S
O1127 Zn1123 2.035 . S
O1127 C1132 1.258 . S
O1128 C1121 1.247 . S
O1128 Zn1125 2.028 . S
O1129 C1121 1.258 . S
O1129 Zn1123 2.035 . S
O1130 Zn1123 2.028 . S
O1130 C1133 1.247 . S
O1131 Zn1125 2.035 . S
O1131 C1133 1.258 . S
C1132 O1126 1.247 . S
C1132 O1127 1.258 . S
C1133 O1130 1.247 . S
C1133 O1131 1.258 . S
C1134 O1136 1.247 . S
C1134 O1138 1.258 . S
C1135 O1142 1.247 . S
C1135 O1143 1.258 . S
O1136 C1134 1.247 . S
O1136 Zn1137 2.028 . S
Zn1137 O1136 2.028 . S
Zn1137 O1141 2.035 . S
Zn1137 O1143 2.035 . S
Zn1137 O1144 2.028 . S
O1138 C1134 1.258 . S
O1138 Zn1139 2.035 . S
Zn1139 O1138 2.035 . S
Zn1139 O1140 2.028 . S
Zn1139 O1142 2.028 . S
Zn1139 O1145 2.035 . S
O1140 Zn1139 2.028 . S
O1140 C1146 1.247 . S
O1141 Zn1137 2.035 . S
O1141 C1146 1.258 . S
O1142 C1135 1.247 . S
O1142 Zn1139 2.028 . S
O1143 C1135 1.258 . S
O1143 Zn1137 2.035 . S
O1144 Zn1137 2.028 . S
O1144 C1147 1.247 . S
O1145 Zn1139 2.035 . S
O1145 C1147 1.258 . S
C1146 O1140 1.247 . S
C1146 O1141 1.258 . S
C1147 O1144 1.247 . S
C1147 O1145 1.258 . S
C1148 O1150 1.247 . S
C1148 O1152 1.258 . S
C1149 O1156 1.247 . S
C1149 O1157 1.258 . S
O1150 C1148 1.247 . S
O1150 Zn1151 2.028 . S
Zn1151 O1150 2.028 . S
Zn1151 O1155 2.035 . S
Zn1151 O1157 2.035 . S
Zn1151 O1158 2.028 . S
O1152 C1148 1.258 . S
O1152 Zn1153 2.035 . S
Zn1153 O1152 2.035 . S
Zn1153 O1154 2.028 . S
Zn1153 O1156 2.028 . S
Zn1153 O1159 2.035 . S
O1154 Zn1153 2.028 . S
O1154 C1160 1.247 . S
O1155 Zn1151 2.035 . S
O1155 C1160 1.258 . S
O1156 C1149 1.247 . S
O1156 Zn1153 2.028 . S
O1157 C1149 1.258 . S
O1157 Zn1151 2.035 . S
O1158 Zn1151 2.028 . S
O1158 C1161 1.247 . S
O1159 Zn1153 2.035 . S
O1159 C1161 1.258 . S
C1160 O1154 1.247 . S
C1160 O1155 1.258 . S
C1161 O1158 1.247 . S
C1161 O1159 1.258 . S
C1162 O1164 1.247 . S
C1162 O1166 1.258 . S
C1163 O1170 1.247 . S
C1163 O1171 1.258 . S
O1164 C1162 1.247 . S
O1164 Zn1165 2.028 . S
Zn1165 O1164 2.028 . S
Zn1165 O1169 2.035 . S
Zn1165 O1171 2.035 . S
Zn1165 O1172 2.028 . S
O1166 C1162 1.258 . S
O1166 Zn1167 2.035 . S
Zn1167 O1166 2.035 . S
Zn1167 O1168 2.028 . S
Zn1167 O1170 2.028 . S
Zn1167 O1173 2.035 . S
O1168 Zn1167 2.028 . S
O1168 C1174 1.247 . S
O1169 Zn1165 2.035 . S
O1169 C1174 1.258 . S
O1170 C1163 1.247 . S
O1170 Zn1167 2.028 . S
O1171 C1163 1.258 . S
O1171 Zn1165 2.035 . S
O1172 Zn1165 2.028 . S
O1172 C1175 1.247 . S
O1173 Zn1167 2.035 . S
O1173 C1175 1.258 . S
C1174 O1168 1.247 . S
C1174 O1169 1.258 . S
C1175 O1172 1.247 . S
C1175 O1173 1.258 . S
C1176 O1178 1.247 . S
C1176 O1180 1.258 . S
C1177 O1184 1.247 . S
C1177 O1185 1.258 . S
O1178 C1176 1.247 . S
O1178 Zn1179 2.028 . S
Zn1179 O1178 2.028 . S
Zn1179 O1183 2.035 . S
Zn1179 O1185 2.035 . S
Zn1179 O1186 2.028 . S
O1180 C1176 1.258 . S
O1180 Zn1181 2.035 . S
Zn1181 O1180 2.035 . S
Zn1181 O1182 2.028 . S
Zn1181 O1184 2.028 . S
Zn1181 O1187 2.035 . S
O1182 Zn1181 2.028 . S
O1182 C1188 1.247 . S
O1183 Zn1179 2.035 . S
O1183 C1188 1.258 . S
O1184 C1177 1.247 . S
O1184 Zn1181 2.028 . S
O1185 C1177 1.258 . S
O1185 Zn1179 2.035 . S
O1186 Zn1179 2.028 . S
O1186 C1189 1.247 . S
O1187 Zn1181 2.035 . S
O1187 C1189 1.258 . S
C1188 O1182 1.247 . S
C1188 O1183 1.258 . S
C1189 O1186 1.247 . S
C1189 O1187 1.258 . S
C1190 O1192 1.247 . S
C1190 O1194 1.258 . S
C1191 O1198 1.247 . S
C1191 O1199 1.258 . S
O1192 C1190 1.247 . S
O1192 Zn1193 2.028 . S
Zn1193 O1192 2.028 . S
Zn1193 O1197 2.035 . S
Zn1193 O1199 2.035 . S
Zn1193 O1200 2.028 . S
O1194 C1190 1.258 . S
O1194 Zn1195 2.035 . S
Zn1195 O1194 2.035 . S
Zn1195 O1196 2.028 . S
Zn1195 O1198 2.028 . S
Zn1195 O1201 2.035 . S
O1196 Zn1195 2.028 . S
O1196 C1202 1.247 . S
O1197 Zn1193 2.035 . S
O1197 C1202 1.258 . S
O1198 C1191 1.247 . S
O1198 Zn1195 2.028 . S
O1199 C1191 1.258 . S
O1199 Zn1193 2.035 . S
O1200 Zn1193 2.028 . S
O1200 C1203 1.247 . S
O1201 Zn1195 2.035 . S
O1201 C1203 1.258 . S
C1202 O1196 1.247 . S
C1202 O1197 1.258 . S
C1203 O1200 1.247 . S
C1203 O1201 1.258 . S
C1204 O1206 1.247 . S
C1204 O1208 1.258 . S
C1205 O1212 1.247 . S
C1205 O1213 1.258 . S
O1206 C1204 1.247 . S
O1206 Zn1207 2.028 . S
Zn1207 O1206 2.028 . S
Zn1207 O1211 2.035 . S
Zn1207 O1213 2.035 . S
Zn1207 O1214 2.028 . S
O1208 C1204 1.258 . S
O1208 Zn1209 2.035 . S
Zn1209 O1208 2.035 . S
Zn1209 O1210 2.028 . S
Zn1209 O1212 2.028 . S
Zn1209 O1215 2.035 . S
O1210 Zn1209 2.028 . S
O1210 C1216 1.247 . S
O1211 Zn1207 2.035 . S
O1211 C1216 1.258 . S
O1212 C1205 1.247 . S
O1212 Zn1209 2.028 . S
O1213 C1205 1.258 . S
O1213 Zn1207 2.035 . S
O1214 Zn1207 2.028 . S
O1214 C1217 1.247 . S
O1215 Zn1209 2.035 . S
O1215 C1217 1.258 . S
C1216 O1210 1.247 . S
C1216 O1211 1.258 . S
C1217 O1214 1.247 . S
C1217 O1215 1.258 . S
C1218 O1220 1.247 . S
C1218 O1222 1.258 . S
C1219 O1226 1.247 . S
C1219 O1227 1.258 . S
O1220 C1218 1.247 . S
O1220 Zn1221 2.028 . S
Zn1221 O1220 2.028 . S
Zn1221 O1225 2.035 . S
Zn1221 O1227 2.035 . S
Zn1221 O1228 2.028 . S
O1222 C1218 1.258 . S
O1222 Zn1223 2.035 . S
Zn1223 O1222 2.035 . S
Zn1223 O1224 2.028 . S
Zn1223 O1226 2.028 . S
Zn1223 O1229 2.035 . S
O1224 Zn1223 2.028 . S
O1224 C1230 1.247 . S
O1225 Zn1221 2.035 . S
O1225 C1230 1.258 . S
O1226 C1219 1.247 . S
O1226 Zn1223 2.028 . S
O1227 C1219 1.258 . S
O1227 Zn1221 2.035 . S
O1228 Zn1221 2.028 . S
O1228 C1231 1.247 . S
O1229 Zn1223 2.035 . S
O1229 C1231 1.258 . S
C1230 O1224 1.247 . S
C1230 O1225 1.258 . S
C1231 O1228 1.247 . S
C1231 O1229 1.258 . S
C1232 O1234 1.247 . S
C1232 O1236 1.258 . S
C1233 O1240 1.247 . S
C1233 O1241 1.258 . S
O1234 C1232 1.247 . S
O1234 Zn1235 2.028 . S
Zn1235 O1234 2.028 . S
Zn1235 O1239 2.035 . S
Zn1235 O1241 2.035 . S
Zn1235 O1242 2.028 . S
O1236 C1232 1.258 . S
O1236 Zn1237 2.035 . S
Zn1237 O1236 2.035 . S
Zn1237 O1238 2.028 . S
Zn1237 O1240 2.028 . S
Zn1237 O1243 2.035 . S
O1238 Zn1237 2.028 . S
O1238 C1244 1.247 . S
O1239 Zn1235 2.035 . S
O1239 C1244 1.258 . S
O1240 C1233 1.247 . S
O1240 Zn1237 2.028 . S
O1241 C1233 1.258 . S
O1241 Zn1235 2.035 . S
O1242 Zn1235 2.028 . S
O1242 C1245 1.247 . S
O1243 Zn1237 2.035 . S
O1243 C1245 1.258 . S
C1244 O1238 1.247 . S
C1244 O1239 1.258 . S
C1245 O1242 1.247 . S
C1245 O1243 1.258 . S
C1246 O1248 1.247 . S
C1246 O1250 1.258 . S
C1247 O1254 1.247 . S
C1247 O1255 1.258 . S
O1248 C1246 1.247 . S
O1248 Zn1249 2.028 . S
Zn1249 O1248 2.028 . S
Zn1249 O1253 2.035 . S
Zn1249 O1255 2.035 . S
Zn1249 O1256 2.028 . S
O1250 C1246 1.258 . S
O1250 Zn1251 2.035 . S
Zn1251 O1250 2.035 . S
Zn1251 O1252 2.028 . S
Zn1251 O1254 2.028 . S
Zn1251 O1257 2.035 . S
O1252 Zn1251 2.028 . S
O1252 C1258 1.247 . S
O1253 Zn1249 2.035 . S
O1253 C1258 1.258 . S
O1254 C1247 1.247 . S
O1254 Zn1251 2.028 . S
O1255 C1247 1.258 . S
O1255 Zn1249 2.035 . S
O1256 Zn1249 2.028 . S
O1256 C1259 1.247 . S
O1257 Zn1251 2.035 . S
O1257 C1259 1.258 . S
C1258 O1252 1.247 . S
C1258 O1253 1.258 . S
C1259 O1256 1.247 . S
C1259 O1257 1.258 . S
C1260 O1262 1.247 . S
C1260 O1264 1.258 . S
C1261 O1268 1.247 . S
C1261 O1269 1.258 . S
O1262 C1260 1.247 . S
O1262 Zn1263 2.028 . S
Zn1263 O1262 2.028 . S
Zn1263 O1267 2.035 . S
Zn1263 O1269 2.035 . S
Zn1263 O1270 2.028 . S
O1264 C1260 1.258 . S
O1264 Zn1265 2.035 . S
Zn1265 O1264 2.035 . S
Zn1265 O1266 2.028 . S
Zn1265 O1268 2.028 . S
Zn1265 O1271 2.035 . S
O1266 Zn1265 2.028 . S
O1266 C1272 1.247 . S
O1267 Zn1263 2.035 . S
O1267 C1272 1.258 . S
O1268 C1261 1.247 . S
O1268 Zn1265 2.028 . S
O1269 C1261 1.258 . S
O1269 Zn1263 2.035 . S
O1270 Zn1263 2.028 . S
O1270 C1273 1.247 . S
O1271 Zn1265 2.035 . S
O1271 C1273 1.258 . S
C1272 O1266 1.247 . S
C1272 O1267 1.258 . S
C1273 O1270 1.247 . S
C1273 O1271 1.258 . S
C1274 O1276 1.247 . S
C1274 O1278 1.258 . S
C1275 O1282 1.247 . S
C1275 O1283 1.250 1_556 S
O1276 C1274 1.247 . S
O1276 Zn1277 2.028 . S
Zn1277 O1276 2.028 . S
Zn1277 O1281 2.035 . S
Zn1277 O1283 2.048 . S
Zn1277 O1284 2.028 . S
O1278 C1274 1.258 . S
O1278 Zn1279 2.035 . S
Zn1279 O1278 2.035 . S
Zn1279 O1280 2.028 . S
Zn1279 O1282 2.028 1_554 S
Zn1279 O1285 2.035 . S
O1280 Zn1279 2.028 . S
O1280 C1286 1.247 . S
O1281 Zn1277 2.035 . S
O1281 C1286 1.258 . S
O1282 C1275 1.247 . S
O1282 Zn1279 2.028 1_556 S
O1283 C1275 1.250 1_554 S
O1283 Zn1277 2.048 . S
O1284 Zn1277 2.028 . S
O1284 C1287 1.247 . S
O1285 Zn1279 2.035 . S
O1285 C1287 1.258 . S
C1286 O1280 1.247 . S
C1286 O1281 1.258 . S
C1287 O1284 1.247 . S
C1287 O1285 1.258 . S
C1288 O1290 1.247 . S
C1288 O1292 1.258 . S
C1289 O1296 1.247 . S
C1289 O1297 1.258 . S
O1290 C1288 1.247 . S
O1290 Zn1291 2.028 . S
Zn1291 O1290 2.028 . S
Zn1291 O1295 2.035 . S
Zn1291 O1297 2.035 . S
Zn1291 O1298 2.028 . S
O1292 C1288 1.258 . S
O1292 Zn1293 2.035 . S
Zn1293 O1292 2.035 . S
Zn1293 O1294 2.028 . S
Zn1293 O1296 2.028 . S
Zn1293 O1299 2.035 . S
O1294 Zn1293 2.028 . S
O1294 C1300 1.247 . S
O1295 Zn1291 2.035 . S
O1295 C1300 1.258 . S
O1296 C1289 1.247 . S
O1296 Zn1293 2.028 . S
O1297 C1289 1.258 . S
O1297 Zn1291 2.035 . S
O1298 Zn1291 2.028 . S
O1298 C1301 1.247 . S
O1299 Zn1293 2.035 . S
O1299 C1301 1.258 . S
C1300 O1294 1.247 . S
C1300 O1295 1.258 . S
C1301 O1298 1.247 . S
C1301 O1299 1.258 . S
C1302 O1304 1.240 1_554 S
C1302 O1306 1.258 . S
C1303 O1310 1.247 . S
C1303 O1311 1.258 . S
O1304 C1302 1.240 1_556 S
O1304 Zn1305 2.038 . S
Zn1305 O1304 2.038 . S
Zn1305 O1309 2.035 . S
Zn1305 O1311 2.035 . S
Zn1305 O1312 2.028 . S
O1306 C1302 1.258 . S
O1306 Zn1307 2.035 1_554 S
Zn1307 O1306 2.035 1_556 S
Zn1307 O1308 2.028 . S
Zn1307 O1310 2.028 . S
Zn1307 O1313 2.035 . S
O1308 Zn1307 2.028 . S
O1308 C1314 1.247 . S
O1309 Zn1305 2.035 . S
O1309 C1314 1.258 . S
O1310 C1303 1.247 . S
O1310 Zn1307 2.028 . S
O1311 C1303 1.258 . S
O1311 Zn1305 2.035 . S
O1312 Zn1305 2.028 . S
O1312 C1315 1.247 . S
O1313 Zn1307 2.035 . S
O1313 C1315 1.258 . S
C1314 O1308 1.247 . S
C1314 O1309 1.258 . S
C1315 O1312 1.247 . S
C1315 O1313 1.258 . S
C1316 O1318 1.247 . S
C1316 O1320 1.258 . S
C1317 O1324 1.247 . S
C1317 O1325 1.258 . S
O1318 C1316 1.247 . S
O1318 Zn1319 2.028 . S
Zn1319 O1318 2.028 . S
Zn1319 O1323 2.035 . S
Zn1319 O1325 2.035 . S
Zn1319 O1326 2.028 . S
O1320 C1316 1.258 . S
O1320 Zn1321 2.035 . S
Zn1321 O1320 2.035 . S
Zn1321 O1322 2.028 . S
Zn1321 O1324 2.028 . S
Zn1321 O1327 2.035 . S
O1322 Zn1321 2.028 . S
O1322 C1328 1.247 . S
O1323 Zn1319 2.035 . S
O1323 C1328 1.258 . S
O1324 C1317 1.247 . S
O1324 Zn1321 2.028 . S
O1325 C1317 1.258 . S
O1325 Zn1319 2.035 . S
O1326 Zn1319 2.028 . S
O1326 C1329 1.247 . S
O1327 Zn1321 2.035 . S
O1327 C1329 1.258 . S
C1328 O1322 1.247 . S
C1328 O1323 1.258 . S
C1329 O1326 1.247 . S
C1329 O1327 1.258 . S
C1330 O1332 1.247 . S
C1330 O1334 1.258 . S
C1331 O1338 1.247 . S
C1331 O1339 1.258 . S
O1332 C1330 1.247 . S
O1332 Zn1333 2.028 . S
Zn1333 O1332 2.028 . S
Zn1333 O1337 2.035 . S
Zn1333 O1339 2.035 . S
Zn1333 O1340 2.028 . S
O1334 C1330 1.258 . S
O1334 Zn1335 2.035 . S
Zn1335 O1334 2.035 . S
Zn1335 O1336 2.028 . S
Zn1335 O1338 2.028 . S
Zn1335 O1341 2.035 . S
O1336 Zn1335 2.028 . S
O1336 C1342 1.247 . S
O1337 Zn1333 2.035 . S
O1337 C1342 1.258 . S
O1338 C1331 1.247 . S
O1338 Zn1335 2.028 . S
O1339 C1331 1.258 . S
O1339 Zn1333 2.035 . S
O1340 Zn1333 2.028 . S
O1340 C1343 1.247 . S
O1341 Zn1335 2.035 . S
O1341 C1343 1.258 . S
C1342 O1336 1.247 . S
C1342 O1337 1.258 . S
C1343 O1340 1.247 . S
C1343 O1341 1.258 . S
C1344 C1345 1.387 . S
C1344 H1348 0.950 . S
C1344 C1353 1.390 . S
C1345 C1344 1.387 . S
C1345 C1347 1.387 . S
H1346 C1353 0.950 . S
C1347 C1345 1.387 . S
C1347 C1349 1.390 . S
C1347 H1351 0.950 . S
H1348 C1344 0.950 . S
C1349 C1347 1.390 . S
C1349 C1350 1.387 . S
C1349 H1352 0.950 . S
C1350 C1349 1.387 . S
C1350 C1353 1.387 . S
H1351 C1347 0.950 . S
H1352 C1349 0.950 . S
C1353 C1344 1.390 . S
C1353 H1346 0.950 . S
C1353 C1350 1.387 . S
C1354 C1355 1.387 . S
C1354 H1358 0.950 . S
C1354 C1363 1.390 . S
C1355 C1354 1.387 . S
C1355 C1357 1.387 . S
H1356 C1363 0.950 . S
C1357 C1355 1.387 . S
C1357 C1359 1.390 . S
C1357 H1361 0.950 . S
H1358 C1354 0.950 . S
C1359 C1357 1.390 . S
C1359 C1360 1.387 . S
C1359 H1362 0.950 . S
C1360 C1359 1.387 . S
C1360 C1363 1.387 . S
H1361 C1357 0.950 . S
H1362 C1359 0.950 . S
C1363 C1354 1.390 . S
C1363 H1356 0.950 . S
C1363 C1360 1.387 . S
C1364 C1365 1.387 . S
C1364 H1368 0.950 . S
C1364 C1373 1.390 . S
C1365 C1364 1.387 . S
C1365 C1367 1.387 . S
H1366 C1373 0.950 . S
C1367 C1365 1.387 . S
C1367 C1369 1.390 . S
C1367 H1371 0.950 . S
H1368 C1364 0.950 . S
C1369 C1367 1.390 . S
C1369 C1370 1.387 . S
C1369 H1372 0.950 . S
C1370 C1369 1.387 . S
C1370 C1373 1.387 . S
H1371 C1367 0.950 . S
H1372 C1369 0.950 . S
C1373 C1364 1.390 . S
C1373 H1366 0.950 . S
C1373 C1370 1.387 . S
C1374 C1375 1.387 . S
C1374 H1378 0.950 . S
C1374 C1383 1.390 . S
C1375 C1374 1.387 . S
C1375 C1377 1.387 . S
H1376 C1383 0.950 . S
C1377 C1375 1.387 . S
C1377 C1379 1.390 . S
C1377 H1381 0.950 . S
H1378 C1374 0.950 . S
C1379 C1377 1.390 . S
C1379 C1380 1.387 . S
C1379 H1382 0.950 . S
C1380 C1379 1.387 . S
C1380 C1383 1.387 . S
H1381 C1377 0.950 . S
H1382 C1379 0.950 . S
C1383 C1374 1.390 . S
C1383 H1376 0.950 . S
C1383 C1380 1.387 . S
C1384 C1385 1.387 . S
C1384 H1388 0.950 . S
C1384 C1393 1.390 . S
C1385 C1384 1.387 . S
C1385 C1387 1.387 . S
H1386 C1393 0.950 . S
C1387 C1385 1.387 . S
C1387 C1389 1.390 . S
C1387 H1391 0.950 . S
H1388 C1384 0.950 . S
C1389 C1387 1.390 . S
C1389 C1390 1.387 . S
C1389 H1392 0.950 . S
C1390 C1389 1.387 . S
C1390 C1393 1.387 . S
H1391 C1387 0.950 . S
H1392 C1389 0.950 . S
C1393 C1384 1.390 . S
C1393 H1386 0.950 . S
C1393 C1390 1.387 . S
C1394 C1395 1.387 . S
C1394 H1398 0.950 . S
C1394 C1403 1.390 . S
C1395 C1394 1.387 . S
C1395 C1397 1.387 . S
H1396 C1403 0.950 . S
C1397 C1395 1.387 . S
C1397 C1399 1.390 . S
C1397 H1401 0.950 . S
H1398 C1394 0.950 . S
C1399 C1397 1.390 . S
C1399 C1400 1.387 . S
C1399 H1402 0.950 . S
C1400 C1399 1.387 . S
C1400 C1403 1.387 . S
H1401 C1397 0.950 . S
H1402 C1399 0.950 . S
C1403 C1394 1.390 . S
C1403 H1396 0.950 . S
C1403 C1400 1.387 . S
C1404 C1405 1.387 . S
C1404 H1408 0.950 . S
C1404 C1413 1.390 . S
C1405 C1404 1.387 . S
C1405 C1407 1.387 . S
H1406 C1413 0.950 . S
C1407 C1405 1.387 . S
C1407 C1409 1.390 . S
C1407 H1411 0.950 . S
H1408 C1404 0.950 . S
C1409 C1407 1.390 . S
C1409 C1410 1.387 . S
C1409 H1412 0.950 . S
C1410 C1409 1.387 . S
C1410 C1413 1.387 . S
H1411 C1407 0.950 . S
H1412 C1409 0.950 . S
C1413 C1404 1.390 . S
C1413 H1406 0.950 . S
C1413 C1410 1.387 . S
C1414 C1415 1.387 . S
C1414 H1418 0.950 . S
C1414 C1423 1.390 . S
C1415 C1414 1.387 . S
C1415 C1417 1.387 . S
H1416 C1423 0.950 . S
C1417 C1415 1.387 . S
C1417 C1419 1.390 . S
C1417 H1421 0.950 . S
H1418 C1414 0.950 . S
C1419 C1417 1.390 . S
C1419 C1420 1.387 . S
C1419 H1422 0.950 . S
C1420 C1419 1.387 . S
C1420 C1423 1.387 . S
H1421 C1417 0.950 . S
H1422 C1419 0.950 . S
C1423 C1414 1.390 . S
C1423 H1416 0.950 . S
C1423 C1420 1.387 . S
C1424 C1425 1.387 . S
C1424 H1428 0.950 . S
C1424 C1433 1.390 . S
C1425 C1424 1.387 . S
C1425 C1427 1.387 . S
H1426 C1433 0.950 . S
C1427 C1425 1.387 . S
C1427 C1429 1.390 . S
C1427 H1431 0.950 . S
H1428 C1424 0.950 . S
C1429 C1427 1.390 . S
C1429 C1430 1.387 . S
C1429 H1432 0.950 . S
C1430 C1429 1.387 . S
C1430 C1433 1.387 . S
H1431 C1427 0.950 . S
H1432 C1429 0.950 . S
C1433 C1424 1.390 . S
C1433 H1426 0.950 . S
C1433 C1430 1.387 . S
C1434 C1435 1.387 . S
C1434 H1438 0.950 . S
C1434 C1443 1.390 . S
C1435 C1434 1.387 . S
C1435 C1437 1.387 . S
H1436 C1443 0.950 . S
C1437 C1435 1.387 . S
C1437 C1439 1.390 . S
C1437 H1441 0.950 . S
H1438 C1434 0.950 . S
C1439 C1437 1.390 . S
C1439 C1440 1.387 . S
C1439 H1442 0.950 . S
C1440 C1439 1.387 . S
C1440 C1443 1.387 . S
H1441 C1437 0.950 . S
H1442 C1439 0.950 . S
C1443 C1434 1.390 . S
C1443 H1436 0.950 . S
C1443 C1440 1.387 . S
C1444 C1445 1.387 . S
C1444 H1448 0.950 . S
C1444 C1453 1.390 . S
C1445 C1444 1.387 . S
C1445 C1447 1.387 . S
H1446 C1453 0.950 . S
C1447 C1445 1.387 . S
C1447 C1449 1.390 . S
C1447 H1451 0.950 . S
H1448 C1444 0.950 . S
C1449 C1447 1.390 . S
C1449 C1450 1.387 . S
C1449 H1452 0.950 . S
C1450 C1449 1.387 . S
C1450 C1453 1.387 . S
H1451 C1447 0.950 . S
H1452 C1449 0.950 . S
C1453 C1444 1.390 . S
C1453 H1446 0.950 . S
C1453 C1450 1.387 . S
C1454 C1455 1.387 . S
C1454 H1458 0.950 . S
C1454 C1463 1.390 . S
C1455 C1454 1.387 . S
C1455 C1457 1.387 . S
H1456 C1463 0.950 . S
C1457 C1455 1.387 . S
C1457 C1459 1.390 . S
C1457 H1461 0.950 . S
H1458 C1454 0.950 . S
C1459 C1457 1.390 . S
C1459 C1460 1.387 . S
C1459 H1462 0.950 . S
C1460 C1459 1.387 . S
C1460 C1463 1.387 . S
H1461 C1457 0.950 . S
H1462 C1459 0.950 . S
C1463 C1454 1.390 . S
C1463 H1456 0.950 . S
C1463 C1460 1.387 . S
C1464 C1465 1.387 . S
C1464 H1468 0.950 . S
C1464 C1473 1.390 . S
C1465 C1464 1.387 . S
C1465 C1467 1.387 . S
H1466 C1473 0.950 . S
C1467 C1465 1.387 . S
C1467 C1469 1.390 . S
C1467 H1471 0.950 . S
H1468 C1464 0.950 . S
C1469 C1467 1.390 . S
C1469 C1470 1.387 . S
C1469 H1472 0.950 . S
C1470 C1469 1.387 . S
C1470 C1473 1.387 . S
H1471 C1467 0.950 . S
H1472 C1469 0.950 . S
C1473 C1464 1.390 . S
C1473 H1466 0.950 . S
C1473 C1470 1.387 . S
C1474 C1475 1.387 . S
C1474 H1478 0.950 . S
C1474 C1483 1.390 . S
C1475 C1474 1.387 . S
C1475 C1477 1.387 . S
H1476 C1483 0.950 . S
C1477 C1475 1.387 . S
C1477 C1479 1.390 . S
C1477 H1481 0.950 . S
H1478 C1474 0.950 . S
C1479 C1477 1.390 . S
C1479 C1480 1.387 . S
C1479 H1482 0.950 . S
C1480 C1479 1.387 . S
C1480 C1483 1.387 . S
H1481 C1477 0.950 . S
H1482 C1479 0.950 . S
C1483 C1474 1.390 . S
C1483 H1476 0.950 . S
C1483 C1480 1.387 . S
C1484 C1485 1.387 . S
C1484 H1488 0.950 . S
C1484 C1493 1.390 . S
C1485 C1484 1.387 . S
C1485 C1487 1.387 . S
H1486 C1493 0.950 . S
C1487 C1485 1.387 . S
C1487 C1489 1.390 . S
C1487 H1491 0.950 . S
H1488 C1484 0.950 . S
C1489 C1487 1.390 . S
C1489 C1490 1.387 . S
C1489 H1492 0.950 . S
C1490 C1489 1.387 . S
C1490 C1493 1.387 . S
H1491 C1487 0.950 . S
H1492 C1489 0.950 . S
C1493 C1484 1.390 . S
C1493 H1486 0.950 . S
C1493 C1490 1.387 . S
C1494 C1495 1.387 . S
C1494 H1498 0.950 . S
C1494 C1503 1.390 . S
C1495 C1494 1.387 . S
C1495 C1497 1.387 . S
H1496 C1503 0.950 . S
C1497 C1495 1.387 . S
C1497 C1499 1.390 . S
C1497 H1501 0.950 . S
H1498 C1494 0.950 . S
C1499 C1497 1.390 . S
C1499 C1500 1.387 . S
C1499 H1502 0.950 . S
C1500 C1499 1.387 . S
C1500 C1503 1.387 . S
H1501 C1497 0.950 . S
H1502 C1499 0.950 . S
C1503 C1494 1.390 . S
C1503 H1496 0.950 . S
C1503 C1500 1.387 . S
C1504 C1505 1.387 . S
C1504 H1508 0.950 . S
C1504 C1513 1.390 . S
C1505 C1504 1.387 . S
C1505 C1507 1.387 . S
H1506 C1513 0.950 . S
C1507 C1505 1.387 . S
C1507 C1509 1.390 . S
C1507 H1511 0.950 . S
H1508 C1504 0.950 . S
C1509 C1507 1.390 . S
C1509 C1510 1.387 . S
C1509 H1512 0.950 . S
C1510 C1509 1.387 . S
C1510 C1513 1.387 . S
H1511 C1507 0.950 . S
H1512 C1509 0.950 . S
C1513 C1504 1.390 . S
C1513 H1506 0.950 . S
C1513 C1510 1.387 . S
C1514 C1515 1.387 . S
C1514 H1518 0.950 . S
C1514 C1523 1.390 . S
C1515 C1514 1.387 . S
C1515 C1517 1.387 . S
H1516 C1523 0.950 . S
C1517 C1515 1.387 . S
C1517 C1519 1.390 . S
C1517 H1521 0.950 . S
H1518 C1514 0.950 . S
C1519 C1517 1.390 . S
C1519 C1520 1.387 . S
C1519 H1522 0.950 . S
C1520 C1519 1.387 . S
C1520 C1523 1.387 . S
H1521 C1517 0.950 . S
H1522 C1519 0.950 . S
C1523 C1514 1.390 . S
C1523 H1516 0.950 . S
C1523 C1520 1.387 . S
C1524 C1525 1.387 . S
C1524 H1528 0.950 . S
C1524 C1533 1.390 . S
C1525 C1524 1.387 . S
C1525 C1527 1.387 . S
H1526 C1533 0.950 . S
C1527 C1525 1.387 . S
C1527 C1529 1.390 . S
C1527 H1531 0.950 . S
H1528 C1524 0.950 . S
C1529 C1527 1.390 . S
C1529 C1530 1.387 . S
C1529 H1532 0.950 . S
C1530 C1529 1.387 . S
C1530 C1533 1.387 . S
H1531 C1527 0.950 . S
H1532 C1529 0.950 . S
C1533 C1524 1.390 . S
C1533 H1526 0.950 . S
C1533 C1530 1.387 . S
C1534 C1535 1.387 . S
C1534 H1538 0.950 . S
C1534 C1543 1.390 . S
C1535 C1534 1.387 . S
C1535 C1537 1.387 . S
H1536 C1543 0.950 . S
C1537 C1535 1.387 . S
C1537 C1539 1.390 . S
C1537 H1541 0.950 . S
H1538 C1534 0.950 . S
C1539 C1537 1.390 . S
C1539 C1540 1.387 . S
C1539 H1542 0.950 . S
C1540 C1539 1.387 . S
C1540 C1543 1.387 . S
H1541 C1537 0.950 . S
H1542 C1539 0.950 . S
C1543 C1534 1.390 . S
C1543 H1536 0.950 . S
C1543 C1540 1.387 . S
C1544 C1545 1.387 . S
C1544 H1548 0.950 . S
C1544 C1553 1.390 . S
C1545 C1544 1.387 . S
C1545 C1547 1.387 . S
H1546 C1553 0.950 . S
C1547 C1545 1.387 . S
C1547 C1549 1.390 . S
C1547 H1551 0.950 . S
H1548 C1544 0.950 . S
C1549 C1547 1.390 . S
C1549 C1550 1.387 . S
C1549 H1552 0.950 . S
C1550 C1549 1.387 . S
C1550 C1553 1.387 . S
H1551 C1547 0.950 . S
H1552 C1549 0.950 . S
C1553 C1544 1.390 . S
C1553 H1546 0.950 . S
C1553 C1550 1.387 . S
C1554 C1555 1.387 . S
C1554 H1558 0.950 . S
C1554 C1563 1.390 . S
C1555 C1554 1.387 . S
C1555 C1557 1.387 . S
H1556 C1563 0.950 . S
C1557 C1555 1.387 . S
C1557 C1559 1.390 . S
C1557 H1561 0.950 . S
H1558 C1554 0.950 . S
C1559 C1557 1.390 . S
C1559 C1560 1.387 . S
C1559 H1562 0.950 . S
C1560 C1559 1.387 . S
C1560 C1563 1.387 . S
H1561 C1557 0.950 . S
H1562 C1559 0.950 . S
C1563 C1554 1.390 . S
C1563 H1556 0.950 . S
C1563 C1560 1.387 . S
C1564 C1565 1.387 . S
C1564 H1568 0.950 . S
C1564 C1573 1.390 . S
C1565 C1564 1.387 . S
C1565 C1567 1.387 . S
H1566 C1573 0.950 . S
C1567 C1565 1.387 . S
C1567 C1569 1.390 . S
C1567 H1571 0.950 . S
H1568 C1564 0.950 . S
C1569 C1567 1.390 . S
C1569 C1570 1.387 . S
C1569 H1572 0.950 . S
C1570 C1569 1.387 . S
C1570 C1573 1.387 . S
H1571 C1567 0.950 . S
H1572 C1569 0.950 . S
C1573 C1564 1.390 . S
C1573 H1566 0.950 . S
C1573 C1570 1.387 . S
C1574 C1575 1.387 . S
C1574 H1578 0.950 . S
C1574 C1583 1.390 . S
C1575 C1574 1.387 . S
C1575 C1577 1.387 . S
H1576 C1583 0.950 . S
C1577 C1575 1.387 . S
C1577 C1579 1.390 . S
C1577 H1581 0.950 . S
H1578 C1574 0.950 . S
C1579 C1577 1.390 . S
C1579 C1580 1.387 . S
C1579 H1582 0.950 . S
C1580 C1579 1.387 . S
C1580 C1583 1.387 . S
H1581 C1577 0.950 . S
H1582 C1579 0.950 . S
C1583 C1574 1.390 . S
C1583 H1576 0.950 . S
C1583 C1580 1.387 . S
C1584 C1585 1.387 . S
C1584 H1588 0.950 . S
C1584 C1593 1.390 . S
C1585 C1584 1.387 . S
C1585 C1587 1.387 . S
H1586 C1593 0.950 . S
C1587 C1585 1.387 . S
C1587 C1589 1.390 . S
C1587 H1591 0.950 . S
H1588 C1584 0.950 . S
C1589 C1587 1.390 . S
C1589 C1590 1.387 . S
C1589 H1592 0.950 . S
C1590 C1589 1.387 . S
C1590 C1593 1.387 . S
H1591 C1587 0.950 . S
H1592 C1589 0.950 . S
C1593 C1584 1.390 . S
C1593 H1586 0.950 . S
C1593 C1590 1.387 . S
C1594 C1595 1.387 . S
C1594 H1598 0.950 . S
C1594 C1603 1.390 . S
C1595 C1594 1.387 . S
C1595 C1597 1.387 . S
H1596 C1603 0.950 . S
C1597 C1595 1.387 . S
C1597 C1599 1.390 . S
C1597 H1601 0.950 . S
H1598 C1594 0.950 . S
C1599 C1597 1.390 . S
C1599 C1600 1.387 . S
C1599 H1602 0.950 . S
C1600 C1599 1.387 . S
C1600 C1603 1.387 . S
H1601 C1597 0.950 . S
H1602 C1599 0.950 . S
C1603 C1594 1.390 . S
C1603 H1596 0.950 . S
C1603 C1600 1.387 . S
C1604 C1605 1.387 . S
C1604 H1608 0.950 . S
C1604 C1613 1.390 . S
C1605 C1604 1.387 . S
C1605 C1607 1.387 . S
H1606 C1613 0.950 . S
C1607 C1605 1.387 . S
C1607 C1609 1.390 . S
C1607 H1611 0.950 . S
H1608 C1604 0.950 . S
C1609 C1607 1.390 . S
C1609 C1610 1.387 . S
C1609 H1612 0.950 . S
C1610 C1609 1.387 . S
C1610 C1613 1.387 . S
H1611 C1607 0.950 . S
H1612 C1609 0.950 . S
C1613 C1604 1.390 . S
C1613 H1606 0.950 . S
C1613 C1610 1.387 . S
C1614 C1615 1.387 . S
C1614 H1618 0.950 . S
C1614 C1623 1.390 . S
C1615 C1614 1.387 . S
C1615 C1617 1.387 . S
H1616 C1623 0.950 . S
C1617 C1615 1.387 . S
C1617 C1619 1.390 . S
C1617 H1621 0.950 . S
H1618 C1614 0.950 . S
C1619 C1617 1.390 . S
C1619 C1620 1.387 . S
C1619 H1622 0.950 . S
C1620 C1619 1.387 . S
C1620 C1623 1.387 . S
H1621 C1617 0.950 . S
H1622 C1619 0.950 . S
C1623 C1614 1.390 . S
C1623 H1616 0.950 . S
C1623 C1620 1.387 . S
C1624 C1625 1.387 . S
C1624 H1628 0.950 . S
C1624 C1633 1.390 . S
C1625 C1624 1.387 . S
C1625 C1627 1.387 . S
H1626 C1633 0.950 . S
C1627 C1625 1.387 . S
C1627 C1629 1.390 . S
C1627 H1631 0.950 . S
H1628 C1624 0.950 . S
C1629 C1627 1.390 . S
C1629 C1630 1.387 . S
C1629 H1632 0.950 . S
C1630 C1629 1.387 . S
C1630 C1633 1.387 . S
H1631 C1627 0.950 . S
H1632 C1629 0.950 . S
C1633 C1624 1.390 . S
C1633 H1626 0.950 . S
C1633 C1630 1.387 . S
C1634 C1635 1.387 . S
C1634 H1638 0.950 . S
C1634 C1643 1.390 . S
C1635 C1634 1.387 . S
C1635 C1637 1.387 . S
H1636 C1643 0.950 . S
C1637 C1635 1.387 . S
C1637 C1639 1.390 . S
C1637 H1641 0.950 . S
H1638 C1634 0.950 . S
C1639 C1637 1.390 . S
C1639 C1640 1.387 . S
C1639 H1642 0.950 . S
C1640 C1639 1.387 . S
C1640 C1643 1.387 . S
H1641 C1637 0.950 . S
H1642 C1639 0.950 . S
C1643 C1634 1.390 . S
C1643 H1636 0.950 . S
C1643 C1640 1.387 . S
C1644 C1645 1.387 . S
C1644 H1648 0.950 . S
C1644 C1653 1.390 . S
C1645 C1644 1.387 . S
C1645 C1647 1.387 . S
H1646 C1653 0.950 . S
C1647 C1645 1.387 . S
C1647 C1649 1.390 . S
C1647 H1651 0.950 . S
H1648 C1644 0.950 . S
C1649 C1647 1.390 . S
C1649 C1650 1.387 . S
C1649 H1652 0.950 . S
C1650 C1649 1.387 . S
C1650 C1653 1.387 . S
H1651 C1647 0.950 . S
H1652 C1649 0.950 . S
C1653 C1644 1.390 . S
C1653 H1646 0.950 . S
C1653 C1650 1.387 . S
C1654 C1655 1.387 . S
C1654 H1658 0.950 . S
C1654 C1663 1.390 . S
C1655 C1654 1.387 . S
C1655 C1657 1.387 . S
H1656 C1663 0.950 . S
C1657 C1655 1.387 . S
C1657 C1659 1.390 . S
C1657 H1661 0.950 . S
H1658 C1654 0.950 . S
C1659 C1657 1.390 . S
C1659 C1660 1.387 . S
C1659 H1662 0.950 . S
C1660 C1659 1.387 . S
C1660 C1663 1.387 . S
H1661 C1657 0.950 . S
H1662 C1659 0.950 . S
C1663 C1654 1.390 . S
C1663 H1656 0.950 . S
C1663 C1660 1.387 . S
C1664 C1665 1.387 . S
C1664 H1668 0.950 . S
C1664 C1673 1.390 . S
C1665 C1664 1.387 . S
C1665 C1667 1.387 . S
H1666 C1673 0.950 . S
C1667 C1665 1.387 . S
C1667 C1669 1.390 . S
C1667 H1671 0.950 . S
H1668 C1664 0.950 . S
C1669 C1667 1.390 . S
C1669 C1670 1.387 . S
C1669 H1672 0.950 . S
C1670 C1669 1.387 . S
C1670 C1673 1.387 . S
H1671 C1667 0.950 . S
H1672 C1669 0.950 . S
C1673 C1664 1.390 . S
C1673 H1666 0.950 . S
C1673 C1670 1.387 . S
C1674 C1675 1.387 . S
C1674 H1678 0.950 . S
C1674 C1683 1.390 . S
C1675 C1674 1.387 . S
C1675 C1677 1.387 . S
H1676 C1683 0.950 . S
C1677 C1675 1.387 . S
C1677 C1679 1.390 . S
C1677 H1681 0.950 . S
H1678 C1674 0.950 . S
C1679 C1677 1.390 . S
C1679 C1680 1.387 . S
C1679 H1682 0.950 . S
C1680 C1679 1.387 . S
C1680 C1683 1.387 . S
H1681 C1677 0.950 . S
H1682 C1679 0.950 . S
C1683 C1674 1.390 . S
C1683 H1676 0.950 . S
C1683 C1680 1.387 . S
C1684 C1685 1.387 . S
C1684 H1688 0.950 . S
C1684 C1693 1.390 . S
C1685 C1684 1.387 . S
C1685 C1687 1.387 . S
H1686 C1693 0.950 . S
C1687 C1685 1.387 . S
C1687 C1689 1.390 . S
C1687 H1691 0.950 . S
H1688 C1684 0.950 . S
C1689 C1687 1.390 . S
C1689 C1690 1.387 . S
C1689 H1692 0.950 . S
C1690 C1689 1.387 . S
C1690 C1693 1.387 . S
H1691 C1687 0.950 . S
H1692 C1689 0.950 . S
C1693 C1684 1.390 . S
C1693 H1686 0.950 . S
C1693 C1690 1.387 . S
C1694 C1695 1.387 . S
C1694 H1698 0.950 . S
C1694 C1703 1.390 . S
C1695 C1694 1.387 . S
C1695 C1697 1.387 . S
H1696 C1703 0.950 . S
C1697 C1695 1.387 . S
C1697 C1699 1.390 . S
C1697 H1701 0.950 . S
H1698 C1694 0.950 . S
C1699 C1697 1.390 . S
C1699 C1700 1.387 . S
C1699 H1702 0.950 . S
C1700 C1699 1.387 . S
C1700 C1703 1.387 . S
H1701 C1697 0.950 . S
H1702 C1699 0.950 . S
C1703 C1694 1.390 . S
C1703 H1696 0.950 . S
C1703 C1700 1.387 . S
C1704 C1705 1.387 . S
C1704 H1708 0.950 . S
C1704 C1713 1.390 . S
C1705 C1704 1.387 . S
C1705 C1707 1.387 . S
H1706 C1713 0.950 . S
C1707 C1705 1.387 . S
C1707 C1709 1.390 . S
C1707 H1711 0.950 . S
H1708 C1704 0.950 . S
C1709 C1707 1.390 . S
C1709 C1710 1.387 . S
C1709 H1712 0.950 . S
C1710 C1709 1.387 . S
C1710 C1713 1.387 . S
H1711 C1707 0.950 . S
H1712 C1709 0.950 . S
C1713 C1704 1.390 . S
C1713 H1706 0.950 . S
C1713 C1710 1.387 . S
C1714 C1715 1.387 . S
C1714 H1718 0.950 . S
C1714 C1723 1.390 . S
C1715 C1714 1.387 . S
C1715 C1717 1.387 . S
H1716 C1723 0.950 . S
C1717 C1715 1.387 . S
C1717 C1719 1.390 . S
C1717 H1721 0.950 . S
H1718 C1714 0.950 . S
C1719 C1717 1.390 . S
C1719 C1720 1.387 . S
C1719 H1722 0.950 . S
C1720 C1719 1.387 . S
C1720 C1723 1.387 . S
H1721 C1717 0.950 . S
H1722 C1719 0.950 . S
C1723 C1714 1.390 . S
C1723 H1716 0.950 . S
C1723 C1720 1.387 . S
C1724 C1725 1.387 . S
C1724 H1728 0.950 . S
C1724 C1733 1.390 . S
C1725 C1724 1.387 . S
C1725 C1727 1.387 . S
H1726 C1733 0.950 . S
C1727 C1725 1.387 . S
C1727 C1729 1.390 . S
C1727 H1731 0.950 . S
H1728 C1724 0.950 . S
C1729 C1727 1.390 . S
C1729 C1730 1.387 . S
C1729 H1732 0.950 . S
C1730 C1729 1.387 . S
C1730 C1733 1.387 . S
H1731 C1727 0.950 . S
H1732 C1729 0.950 . S
C1733 C1724 1.390 . S
C1733 H1726 0.950 . S
C1733 C1730 1.387 . S
C1734 C1735 1.387 . S
C1734 H1738 0.950 . S
C1734 C1743 1.390 . S
C1735 C1734 1.387 . S
C1735 C1737 1.387 . S
H1736 C1743 0.950 . S
C1737 C1735 1.387 . S
C1737 C1739 1.390 . S
C1737 H1741 0.950 . S
H1738 C1734 0.950 . S
C1739 C1737 1.390 . S
C1739 C1740 1.387 . S
C1739 H1742 0.950 . S
C1740 C1739 1.387 . S
C1740 C1743 1.387 . S
H1741 C1737 0.950 . S
H1742 C1739 0.950 . S
C1743 C1734 1.390 . S
C1743 H1736 0.950 . S
C1743 C1740 1.387 . S
C1744 C1745 1.387 . S
C1744 H1748 0.950 . S
C1744 C1753 1.390 . S
C1745 C1744 1.387 . S
C1745 C1747 1.387 . S
H1746 C1753 0.950 . S
C1747 C1745 1.387 . S
C1747 C1749 1.390 . S
C1747 H1751 0.950 . S
H1748 C1744 0.950 . S
C1749 C1747 1.390 . S
C1749 C1750 1.387 . S
C1749 H1752 0.950 . S
C1750 C1749 1.387 . S
C1750 C1753 1.387 . S
H1751 C1747 0.950 . S
H1752 C1749 0.950 . S
C1753 C1744 1.390 . S
C1753 H1746 0.950 . S
C1753 C1750 1.387 . S
C1754 C1755 1.387 . S
C1754 H1758 0.950 . S
C1754 C1763 1.390 . S
C1755 C1754 1.387 . S
C1755 C1757 1.387 . S
H1756 C1763 0.950 . S
C1757 C1755 1.387 . S
C1757 C1759 1.390 . S
C1757 H1761 0.950 . S
H1758 C1754 0.950 . S
C1759 C1757 1.390 . S
C1759 C1760 1.387 . S
C1759 H1762 0.950 . S
C1760 C1759 1.387 . S
C1760 C1763 1.387 . S
H1761 C1757 0.950 . S
H1762 C1759 0.950 . S
C1763 C1754 1.390 . S
C1763 H1756 0.950 . S
C1763 C1760 1.387 . S
C1764 C1765 1.387 . S
C1764 H1768 0.950 . S
C1764 C1773 1.390 . S
C1765 C1764 1.387 . S
C1765 C1767 1.387 . S
H1766 C1773 0.950 . S
C1767 C1765 1.387 . S
C1767 C1769 1.390 . S
C1767 H1771 0.950 . S
H1768 C1764 0.950 . S
C1769 C1767 1.390 . S
C1769 C1770 1.387 . S
C1769 H1772 0.950 . S
C1770 C1769 1.387 . S
C1770 C1773 1.387 . S
H1771 C1767 0.950 . S
H1772 C1769 0.950 . S
C1773 C1764 1.390 . S
C1773 H1766 0.950 . S
C1773 C1770 1.387 . S
C1774 C1775 1.387 . S
C1774 H1778 0.950 . S
C1774 C1783 1.390 . S
C1775 C1774 1.387 . S
C1775 C1777 1.387 . S
H1776 C1783 0.950 . S
C1777 C1775 1.387 . S
C1777 C1779 1.390 . S
C1777 H1781 0.950 . S
H1778 C1774 0.950 . S
C1779 C1777 1.390 . S
C1779 C1780 1.387 . S
C1779 H1782 0.950 . S
C1780 C1779 1.387 . S
C1780 C1783 1.387 . S
H1781 C1777 0.950 . S
H1782 C1779 0.950 . S
C1783 C1774 1.390 . S
C1783 H1776 0.950 . S
C1783 C1780 1.387 . S
C1784 C1785 1.387 . S
C1784 H1788 0.950 . S
C1784 C1793 1.390 . S
C1785 C1784 1.387 . S
C1785 C1787 1.387 . S
H1786 C1793 0.950 . S
C1787 C1785 1.387 . S
C1787 C1789 1.390 . S
C1787 H1791 0.950 . S
H1788 C1784 0.950 . S
C1789 C1787 1.390 . S
C1789 C1790 1.387 . S
C1789 H1792 0.950 . S
C1790 C1789 1.387 . S
C1790 C1793 1.387 . S
H1791 C1787 0.950 . S
H1792 C1789 0.950 . S
C1793 C1784 1.390 . S
C1793 H1786 0.950 . S
C1793 C1790 1.387 . S
C1794 C1795 1.387 . S
C1794 H1798 0.950 . S
C1794 C1803 1.390 . S
C1795 C1794 1.387 . S
C1795 C1797 1.387 . S
H1796 C1803 0.950 . S
C1797 C1795 1.387 . S
C1797 C1799 1.390 . S
C1797 H1801 0.950 . S
H1798 C1794 0.950 . S
C1799 C1797 1.390 . S
C1799 C1800 1.387 . S
C1799 H1802 0.950 . S
C1800 C1799 1.387 . S
C1800 C1803 1.387 . S
H1801 C1797 0.950 . S
H1802 C1799 0.950 . S
C1803 C1794 1.390 . S
C1803 H1796 0.950 . S
C1803 C1800 1.387 . S
C1804 C1805 1.387 . S
C1804 H1808 0.950 . S
C1804 C1813 1.390 . S
C1805 C1804 1.387 . S
C1805 C1807 1.387 . S
H1806 C1813 0.950 . S
C1807 C1805 1.387 . S
C1807 C1809 1.390 . S
C1807 H1811 0.950 . S
H1808 C1804 0.950 . S
C1809 C1807 1.390 . S
C1809 C1810 1.387 . S
C1809 H1812 0.950 . S
C1810 C1809 1.387 . S
C1810 C1813 1.387 . S
H1811 C1807 0.950 . S
H1812 C1809 0.950 . S
C1813 C1804 1.390 . S
C1813 H1806 0.950 . S
C1813 C1810 1.387 . S
C1814 C1815 1.387 . S
C1814 H1818 0.950 . S
C1814 C1823 1.390 . S
C1815 C1814 1.387 . S
C1815 C1817 1.387 . S
H1816 C1823 0.950 . S
C1817 C1815 1.387 . S
C1817 C1819 1.390 . S
C1817 H1821 0.950 . S
H1818 C1814 0.950 . S
C1819 C1817 1.390 . S
C1819 C1820 1.387 . S
C1819 H1822 0.950 . S
C1820 C1819 1.387 . S
C1820 C1823 1.387 . S
H1821 C1817 0.950 . S
H1822 C1819 0.950 . S
C1823 C1814 1.390 . S
C1823 H1816 0.950 . S
C1823 C1820 1.387 . S
C1824 C1825 1.387 . S
C1824 H1828 0.950 . S
C1824 C1833 1.390 . S
C1825 C1824 1.387 . S
C1825 C1827 1.387 . S
H1826 C1833 0.950 . S
C1827 C1825 1.387 . S
C1827 C1829 1.390 . S
C1827 H1831 0.950 1_655 S
H1828 C1824 0.950 . S
C1829 C1827 1.390 . S
C1829 C1830 1.387 . S
C1829 H1832 0.950 . S
C1830 C1829 1.387 . S
C1830 C1833 1.387 . S
H1831 C1827 0.950 1_455 S
H1832 C1829 0.950 . S
C1833 C1824 1.390 . S
C1833 H1826 0.950 . S
C1833 C1830 1.387 . S
C1834 C1835 1.387 . S
C1834 H1838 0.950 . S
C1834 C1843 1.390 . S
C1835 C1834 1.387 . S
C1835 C1837 1.387 . S
H1836 C1843 0.950 . S
C1837 C1835 1.387 . S
C1837 C1839 1.390 . S
C1837 H1841 0.950 . S
H1838 C1834 0.950 . S
C1839 C1837 1.390 . S
C1839 C1840 1.387 . S
C1839 H1842 0.950 . S
C1840 C1839 1.387 . S
C1840 C1843 1.387 . S
H1841 C1837 0.950 . S
H1842 C1839 0.950 . S
C1843 C1834 1.390 . S
C1843 H1836 0.950 . S
C1843 C1840 1.387 . S
C1844 C1845 1.387 . S
C1844 H1848 0.950 . S
C1844 C1853 1.390 . S
C1845 C1844 1.387 . S
C1845 C1847 1.387 . S
H1846 C1853 0.950 . S
C1847 C1845 1.387 . S
C1847 C1849 1.390 . S
C1847 H1851 0.950 . S
H1848 C1844 0.950 . S
C1849 C1847 1.390 . S
C1849 C1850 1.387 . S
C1849 H1852 0.950 . S
C1850 C1849 1.387 . S
C1850 C1853 1.387 . S
H1851 C1847 0.950 . S
H1852 C1849 0.950 . S
C1853 C1844 1.390 . S
C1853 H1846 0.950 . S
C1853 C1850 1.387 . S
C1854 C1855 1.387 . S
C1854 H1858 0.950 . S
C1854 C1863 1.390 . S
C1855 C1854 1.387 . S
C1855 C1857 1.387 . S
H1856 C1863 0.950 . S
C1857 C1855 1.387 . S
C1857 C1859 1.390 . S
C1857 H1861 0.950 . S
H1858 C1854 0.950 . S
C1859 C1857 1.390 . S
C1859 C1860 1.387 . S
C1859 H1862 0.950 . S
C1860 C1859 1.387 . S
C1860 C1863 1.387 . S
H1861 C1857 0.950 . S
H1862 C1859 0.950 . S
C1863 C1854 1.390 . S
C1863 H1856 0.950 . S
C1863 C1860 1.387 . S
C1864 C1865 1.387 . S
C1864 H1868 0.950 . S
C1864 C1873 1.390 . S
C1865 C1864 1.387 . S
C1865 C1867 1.387 . S
H1866 C1873 0.950 . S
C1867 C1865 1.387 . S
C1867 C1869 1.390 . S
C1867 H1871 0.950 . S
H1868 C1864 0.950 . S
C1869 C1867 1.390 . S
C1869 C1870 1.387 . S
C1869 H1872 0.950 . S
C1870 C1869 1.387 . S
C1870 C1873 1.387 . S
H1871 C1867 0.950 . S
H1872 C1869 0.950 . S
C1873 C1864 1.390 . S
C1873 H1866 0.950 . S
C1873 C1870 1.387 . S
C1874 C1875 1.387 . S
C1874 H1878 0.950 . S
C1874 C1883 1.390 . S
C1875 C1874 1.387 . S
C1875 C1877 1.387 . S
H1876 C1883 0.950 . S
C1877 C1875 1.387 . S
C1877 C1879 1.390 . S
C1877 H1881 0.950 . S
H1878 C1874 0.950 . S
C1879 C1877 1.390 . S
C1879 C1880 1.387 . S
C1879 H1882 0.950 . S
C1880 C1879 1.387 . S
C1880 C1883 1.387 . S
H1881 C1877 0.950 . S
H1882 C1879 0.950 . S
C1883 C1874 1.390 . S
C1883 H1876 0.950 . S
C1883 C1880 1.387 . S
C1884 C1885 1.387 . S
C1884 H1888 0.950 . S
C1884 C1893 1.390 . S
C1885 C1884 1.387 . S
C1885 C1887 1.387 . S
H1886 C1893 0.950 . S
C1887 C1885 1.387 . S
C1887 C1889 1.390 . S
C1887 H1891 0.950 . S
H1888 C1884 0.950 . S
C1889 C1887 1.390 . S
C1889 C1890 1.387 . S
C1889 H1892 0.950 . S
C1890 C1889 1.387 . S
C1890 C1893 1.387 . S
H1891 C1887 0.950 . S
H1892 C1889 0.950 . S
C1893 C1884 1.390 . S
C1893 H1886 0.950 . S
C1893 C1890 1.387 . S
C1894 C1895 1.387 . S
C1894 H1898 0.950 . S
C1894 C1903 1.390 . S
C1895 C1894 1.387 . S
C1895 C1897 1.387 . S
H1896 C1903 0.950 . S
C1897 C1895 1.387 . S
C1897 C1899 1.390 1_556 S
C1897 H1901 0.950 . S
H1898 C1894 0.950 . S
C1899 C1897 1.390 1_554 S
C1899 C1900 1.387 1_554 S
C1899 H1902 0.950 . S
C1900 C1899 1.387 1_556 S
C1900 C1903 1.387 . S
H1901 C1897 0.950 . S
H1902 C1899 0.950 . S
C1903 C1894 1.390 . S
C1903 H1896 0.950 . S
C1903 C1900 1.387 . S
C1904 C1905 1.387 1_545 S
C1904 H1908 0.950 . S
C1904 C1913 1.390 1_545 S
C1905 C1904 1.387 1_565 S
C1905 C1907 1.387 . S
H1906 C1913 0.950 . S
C1907 C1905 1.387 . S
C1907 C1909 1.390 . S
C1907 H1911 0.950 . S
H1908 C1904 0.950 . S
C1909 C1907 1.390 . S
C1909 C1910 1.387 . S
C1909 H1912 0.950 . S
C1910 C1909 1.387 . S
C1910 C1913 1.387 . S
H1911 C1907 0.950 . S
H1912 C1909 0.950 . S
C1913 C1904 1.390 1_565 S
C1913 H1906 0.950 . S
C1913 C1910 1.387 . S
C1914 C1915 1.387 . S
C1914 H1918 0.950 . S
C1914 C1923 1.390 . S
C1915 C1914 1.387 . S
C1915 C1917 1.387 . S
H1916 C1923 0.950 . S
C1917 C1915 1.387 . S
C1917 C1919 1.390 . S
C1917 H1921 0.950 1_545 S
H1918 C1914 0.950 . S
C1919 C1917 1.390 . S
C1919 C1920 1.387 . S
C1919 H1922 0.950 . S
C1920 C1919 1.387 . S
C1920 C1923 1.387 . S
H1921 C1917 0.950 1_565 S
H1922 C1919 0.950 . S
C1923 C1914 1.390 . S
C1923 H1916 0.950 . S
C1923 C1920 1.387 . S
C1924 C1925 1.387 . S
C1924 H1928 0.950 1_545 S
C1924 C1933 1.390 . S
C1925 C1924 1.387 . S
C1925 C1927 1.387 . S
H1926 C1933 0.950 . S
C1927 C1925 1.387 . S
C1927 C1929 1.390 . S
C1927 H1931 0.950 . S
H1928 C1924 0.950 1_565 S
C1929 C1927 1.390 . S
C1929 C1930 1.387 . S
C1929 H1932 0.950 . S
C1930 C1929 1.387 . S
C1930 C1933 1.387 . S
H1931 C1927 0.950 . S
H1932 C1929 0.950 . S
C1933 C1924 1.390 . S
C1933 H1926 0.950 . S
C1933 C1930 1.387 . S
C1934 C1935 1.387 . S
C1934 H1938 0.950 . S
C1934 C1943 1.390 . S
C1935 C1934 1.387 . S
C1935 C1937 1.387 . S
H1936 C1943 0.950 . S
C1937 C1935 1.387 . S
C1937 C1939 1.390 . S
C1937 H1941 0.950 . S
H1938 C1934 0.950 . S
C1939 C1937 1.390 . S
C1939 C1940 1.387 . S
C1939 H1942 0.950 1_565 S
C1940 C1939 1.387 . S
C1940 C1943 1.387 . S
H1941 C1937 0.950 . S
H1942 C1939 0.950 1_545 S
C1943 C1934 1.390 . S
C1943 H1936 0.950 . S
C1943 C1940 1.387 . S
C1944 C1945 1.387 . S
C1944 H1948 0.950 . S
C1944 C1953 1.390 . S
C1945 C1944 1.387 . S
C1945 C1947 1.387 . S
H1946 C1953 0.950 . S
C1947 C1945 1.387 . S
C1947 C1949 1.390 . S
C1947 H1951 0.950 . S
H1948 C1944 0.950 . S
C1949 C1947 1.390 . S
C1949 C1950 1.387 . S
C1949 H1952 0.950 1_554 S
C1950 C1949 1.387 . S
C1950 C1953 1.387 . S
H1951 C1947 0.950 . S
H1952 C1949 0.950 1_556 S
C1953 C1944 1.390 . S
C1953 H1946 0.950 . S
C1953 C1950 1.387 . S
C1954 C1955 1.387 1_655 S
C1954 H1958 0.950 . S
C1954 C1963 1.390 1_655 S
C1955 C1954 1.387 1_455 S
C1955 C1957 1.387 . S
H1956 C1963 0.950 . S
C1957 C1955 1.387 . S
C1957 C1959 1.390 . S
C1957 H1961 0.950 . S
H1958 C1954 0.950 . S
C1959 C1957 1.390 . S
C1959 C1960 1.387 . S
C1959 H1962 0.950 . S
C1960 C1959 1.387 . S
C1960 C1963 1.387 . S
H1961 C1957 0.950 . S
H1962 C1959 0.950 . S
C1963 C1954 1.390 1_455 S
C1963 H1956 0.950 . S
C1963 C1960 1.387 . S
C1964 C1965 1.387 . S
C1964 H1968 0.950 . S
C1964 C1973 1.390 . S
C1965 C1964 1.387 . S
C1965 C1967 1.387 . S
H1966 C1973 0.950 . S
C1967 C1965 1.387 . S
C1967 C1969 1.390 . S
C1967 H1971 0.950 . S
H1968 C1964 0.950 . S
C1969 C1967 1.390 . S
C1969 C1970 1.387 . S
C1969 H1972 0.950 . S
C1970 C1969 1.387 . S
C1970 C1973 1.387 . S
H1971 C1967 0.950 . S
H1972 C1969 0.950 . S
C1973 C1964 1.390 . S
C1973 H1966 0.950 . S
C1973 C1970 1.387 . S
C1974 C1975 1.387 . S
C1974 H1978 0.950 1_455 S
C1974 C1983 1.390 . S
C1975 C1974 1.387 . S
C1975 C1977 1.387 . S
H1976 C1983 0.950 . S
C1977 C1975 1.387 . S
C1977 C1979 1.390 . S
C1977 H1981 0.950 . S
H1978 C1974 0.950 1_655 S
C1979 C1977 1.390 . S
C1979 C1980 1.387 . S
C1979 H1982 0.950 . S
C1980 C1979 1.387 . S
C1980 C1983 1.387 . S
H1981 C1977 0.950 . S
H1982 C1979 0.950 . S
C1983 C1974 1.390 . S
C1983 H1976 0.950 . S
C1983 C1980 1.387 . S
C1984 C1985 1.387 . S
C1984 H1988 0.950 . S
C1984 C1993 1.390 . S
C1985 C1984 1.387 . S
C1985 C1987 1.387 . S
H1986 C1993 0.950 . S
C1987 C1985 1.387 . S
C1987 C1989 1.390 . S
C1987 H1991 0.950 . S
H1988 C1984 0.950 . S
C1989 C1987 1.390 . S
C1989 C1990 1.387 . S
C1989 H1992 0.950 . S
C1990 C1989 1.387 . S
C1990 C1993 1.387 . S
H1991 C1987 0.950 . S
H1992 C1989 0.950 . S
C1993 C1984 1.390 . S
C1993 H1986 0.950 . S
C1993 C1990 1.387 . S
C1994 C1995 1.387 . S
C1994 H1998 0.950 . S
C1994 C2003 1.390 . S
C1995 C1994 1.387 . S
C1995 C1997 1.387 . S
H1996 C2003 0.950 . S
C1997 C1995 1.387 . S
C1997 C1999 1.390 . S
C1997 H2001 0.950 1_455 S
H1998 C1994 0.950 . S
C1999 C1997 1.390 . S
C1999 C2000 1.387 . S
C1999 H2002 0.950 . S
C2000 C1999 1.387 . S
C2000 C2003 1.387 . S
H2001 C1997 0.950 1_655 S
H2002 C1999 0.950 . S
C2003 C1994 1.390 . S
C2003 H1996 0.950 . S
C2003 C2000 1.387 . S
C2004 C2005 1.387 . S
C2004 H2008 0.950 . S
C2004 C2013 1.390 . S
C2005 C2004 1.387 . S
C2005 C2007 1.387 . S
H2006 C2013 0.950 . S
C2007 C2005 1.387 . S
C2007 C2009 1.390 . S
C2007 H2011 0.950 . S
H2008 C2004 0.950 . S
C2009 C2007 1.390 . S
C2009 C2010 1.387 . S
C2009 H2012 0.950 . S
C2010 C2009 1.387 . S
C2010 C2013 1.387 . S
H2011 C2007 0.950 . S
H2012 C2009 0.950 . S
C2013 C2004 1.390 . S
C2013 H2006 0.950 . S
C2013 C2010 1.387 . S
C2014 C2015 1.387 . S
C2014 H2018 0.950 . S
C2014 C2023 1.390 . S
C2015 C2014 1.387 . S
C2015 C2017 1.387 . S
H2016 C2023 0.950 . S
C2017 C2015 1.387 . S
C2017 C2019 1.390 . S
C2017 H2021 0.950 . S
H2018 C2014 0.950 . S
C2019 C2017 1.390 . S
C2019 C2020 1.387 . S
C2019 H2022 0.950 . S
C2020 C2019 1.387 . S
C2020 C2023 1.387 . S
H2021 C2017 0.950 . S
H2022 C2019 0.950 . S
C2023 C2014 1.390 . S
C2023 H2016 0.950 . S
C2023 C2020 1.387 . S
C2024 C2025 1.387 1_554 S
C2024 H2028 0.950 . S
C2024 C2033 1.390 1_554 S
C2025 C2024 1.387 1_556 S
C2025 C2027 1.387 . S
H2026 C2033 0.950 . S
C2027 C2025 1.387 . S
C2027 C2029 1.390 . S
C2027 H2031 0.950 . S
H2028 C2024 0.950 . S
C2029 C2027 1.390 . S
C2029 C2030 1.387 . S
C2029 H2032 0.950 . S
C2030 C2029 1.387 . S
C2030 C2033 1.387 . S
H2031 C2027 0.950 . S
H2032 C2029 0.950 . S
C2033 C2024 1.390 1_556 S
C2033 H2026 0.950 . S
C2033 C2030 1.387 . S
C2034 C2035 1.387 . S
C2034 H2038 0.950 . S
C2034 C2043 1.390 . S
C2035 C2034 1.387 . S
C2035 C2037 1.387 . S
H2036 C2043 0.950 . S
C2037 C2035 1.387 . S
C2037 C2039 1.390 . S
C2037 H2041 0.950 . S
H2038 C2034 0.950 . S
C2039 C2037 1.390 . S
C2039 C2040 1.387 . S
C2039 H2042 0.950 1_455 S
C2040 C2039 1.387 . S
C2040 C2043 1.387 . S
H2041 C2037 0.950 . S
H2042 C2039 0.950 1_655 S
C2043 C2034 1.390 . S
C2043 H2036 0.950 . S
C2043 C2040 1.387 . S
C2044 C2045 1.387 . S
C2044 H2048 0.950 . S
C2044 C2053 1.390 . S
C2045 C2044 1.387 . S
C2045 C2047 1.387 . S
H2046 C2053 0.950 . S
C2047 C2045 1.387 . S
C2047 C2049 1.390 . S
C2047 H2051 0.950 . S
H2048 C2044 0.950 . S
C2049 C2047 1.390 . S
C2049 C2050 1.387 . S
C2049 H2052 0.950 . S
C2050 C2049 1.387 . S
C2050 C2053 1.387 . S
H2051 C2047 0.950 . S
H2052 C2049 0.950 . S
C2053 C2044 1.390 . S
C2053 H2046 0.950 . S
C2053 C2050 1.387 . S
C2054 C2055 1.387 . S
C2054 H2058 0.950 . S
C2054 C2063 1.390 . S
C2055 C2054 1.387 . S
C2055 C2057 1.387 . S
H2056 C2063 0.950 . S
C2057 C2055 1.387 . S
C2057 C2059 1.390 . S
C2057 H2061 0.950 . S
H2058 C2054 0.950 . S
C2059 C2057 1.390 . S
C2059 C2060 1.387 . S
C2059 H2062 0.950 . S
C2060 C2059 1.387 . S
C2060 C2063 1.387 . S
H2061 C2057 0.950 . S
H2062 C2059 0.950 . S
C2063 C2054 1.390 . S
C2063 H2056 0.950 . S
C2063 C2060 1.387 . S
C2064 C2065 1.387 . S
C2064 H2068 0.950 . S
C2064 C2073 1.390 . S
C2065 C2064 1.387 . S
C2065 C2067 1.387 . S
H2066 C2073 0.950 . S
C2067 C2065 1.387 . S
C2067 C2069 1.390 . S
C2067 H2071 0.950 . S
H2068 C2064 0.950 . S
C2069 C2067 1.390 . S
C2069 C2070 1.387 . S
C2069 H2072 0.950 1_554 S
C2070 C2069 1.387 . S
C2070 C2073 1.387 . S
H2071 C2067 0.950 . S
H2072 C2069 0.950 1_556 S
C2073 C2064 1.390 . S
C2073 H2066 0.950 . S
C2073 C2070 1.387 . S
C2074 C2075 1.387 . S
C2074 H2078 0.950 . S
C2074 C2083 1.390 . S
C2075 C2074 1.387 . S
C2075 C2077 1.387 . S
H2076 C2083 0.950 . S
C2077 C2075 1.387 . S
C2077 C2079 1.397 . S
C2077 H2081 0.950 . S
H2078 C2074 0.950 . S
C2079 C2077 1.397 . S
C2079 C2080 1.393 . S
C2079 H2082 0.937 1_545 S
C2080 C2079 1.393 . S
C2080 C2083 1.387 . S
H2081 C2077 0.950 . S
H2082 C2079 0.937 1_565 S
C2083 C2074 1.390 . S
C2083 H2076 0.950 . S
C2083 C2080 1.387 . S
C2084 C2085 1.387 . S
C2084 H2088 0.950 . S
C2084 C2093 1.390 . S
C2085 C2084 1.387 . S
C2085 C2087 1.387 . S
H2086 C2093 0.950 1_545 S
C2087 C2085 1.387 . S
C2087 C2089 1.390 . S
C2087 H2091 0.950 . S
H2088 C2084 0.950 . S
C2089 C2087 1.390 . S
C2089 C2090 1.387 . S
C2089 H2092 0.950 . S
C2090 C2089 1.387 . S
C2090 C2093 1.387 . S
H2091 C2087 0.950 . S
H2092 C2089 0.950 . S
C2093 C2084 1.390 . S
C2093 H2086 0.950 1_565 S
C2093 C2090 1.387 . S
C2094 C2095 1.387 . S
C2094 H2098 0.950 . S
C2094 C2103 1.390 . S
C2095 C2094 1.387 . S
C2095 C2097 1.387 . S
H2096 C2103 0.950 . S
C2097 C2095 1.387 . S
C2097 C2099 1.386 1_565 S
C2097 H2101 0.950 . S
H2098 C2094 0.950 . S
C2099 C2097 1.386 1_545 S
C2099 C2100 1.384 1_545 S
C2099 H2102 0.958 . S
C2100 C2099 1.384 1_565 S
C2100 C2103 1.387 . S
H2101 C2097 0.950 . S
H2102 C2099 0.958 . S
C2103 C2094 1.390 . S
C2103 H2096 0.950 . S
C2103 C2100 1.387 . S
C2104 C2105 1.387 . S
C2104 H2108 0.950 . S
C2104 C2113 1.390 . S
C2105 C2104 1.387 . S
C2105 C2107 1.387 . S
H2106 C2113 0.950 . S
C2107 C2105 1.387 . S
C2107 C2109 1.390 . S
C2107 H2111 0.950 . S
H2108 C2104 0.950 . S
C2109 C2107 1.390 . S
C2109 C2110 1.387 . S
C2109 H2112 0.950 . S
C2110 C2109 1.387 . S
C2110 C2113 1.387 . S
H2111 C2107 0.950 . S
H2112 C2109 0.950 . S
C2113 C2104 1.390 . S
C2113 H2106 0.950 . S
C2113 C2110 1.387 . S
C2114 C2115 1.387 . S
C2114 H2118 0.950 . S
C2114 C2123 1.390 . S
C2115 C2114 1.387 . S
C2115 C2117 1.387 . S
H2116 C2123 0.950 . S
C2117 C2115 1.387 . S
C2117 C2119 1.371 1_556 S
C2117 H2121 0.950 . S
H2118 C2114 0.950 . S
C2119 C2117 1.371 1_554 S
C2119 C2120 1.370 1_554 S
C2119 H2122 0.987 . S
C2120 C2119 1.370 1_556 S
C2120 C2123 1.387 . S
H2121 C2117 0.950 . S
H2122 C2119 0.987 . S
C2123 C2114 1.390 . S
C2123 H2116 0.950 . S
C2123 C2120 1.387 . S
C2124 C2125 1.387 . S
C2124 H2128 0.950 . S
C2124 C2133 1.390 . S
C2125 C2124 1.387 . S
C2125 C2127 1.387 . S
H2126 C2133 0.950 1_455 S
C2127 C2125 1.387 . S
C2127 C2129 1.390 . S
C2127 H2131 0.950 . S
H2128 C2124 0.950 . S
C2129 C2127 1.390 . S
C2129 C2130 1.387 . S
C2129 H2132 0.950 . S
C2130 C2129 1.387 . S
C2130 C2133 1.387 . S
H2131 C2127 0.950 . S
H2132 C2129 0.950 . S
C2133 C2124 1.390 . S
C2133 H2126 0.950 1_655 S
C2133 C2130 1.387 . S
C2134 C2135 1.387 . S
C2134 H2138 0.950 . S
C2134 C2143 1.390 . S
C2135 C2134 1.387 . S
C2135 C2137 1.387 . S
H2136 C2143 0.950 . S
C2137 C2135 1.387 . S
C2137 C2139 1.390 . S
C2137 H2141 0.950 . S
H2138 C2134 0.950 . S
C2139 C2137 1.390 . S
C2139 C2140 1.387 . S
C2139 H2142 0.950 . S
C2140 C2139 1.387 . S
C2140 C2143 1.387 . S
H2141 C2137 0.950 . S
H2142 C2139 0.950 . S
C2143 C2134 1.390 . S
C2143 H2136 0.950 . S
C2143 C2140 1.387 . S
C2144 C2145 1.387 . S
C2144 H2148 0.950 . S
C2144 C2153 1.390 . S
C2145 C2144 1.387 . S
C2145 C2147 1.387 . S
H2146 C2153 0.950 . S
C2147 C2145 1.387 . S
C2147 C2149 1.377 1_655 S
C2147 H2151 0.950 . S
H2148 C2144 0.950 . S
C2149 C2147 1.377 1_455 S
C2149 C2150 1.376 1_455 S
C2149 H2152 0.975 . S
C2150 C2149 1.376 1_655 S
C2150 C2153 1.387 . S
H2151 C2147 0.950 . S
H2152 C2149 0.975 . S
C2153 C2144 1.390 . S
C2153 H2146 0.950 . S
C2153 C2150 1.387 . S
C2154 C2155 1.387 . S
C2154 H2158 0.950 . S
C2154 C2163 1.390 . S
C2155 C2154 1.387 . S
C2155 C2157 1.387 . S
H2156 C2163 0.950 . S
C2157 C2155 1.387 . S
C2157 C2159 1.390 . S
C2157 H2161 0.950 . S
H2158 C2154 0.950 . S
C2159 C2157 1.390 . S
C2159 C2160 1.387 . S
C2159 H2162 0.950 . S
C2160 C2159 1.387 . S
C2160 C2163 1.387 . S
H2161 C2157 0.950 . S
H2162 C2159 0.950 . S
C2163 C2154 1.390 . S
C2163 H2156 0.950 . S
C2163 C2160 1.387 . S
C2164 C2165 1.387 . S
C2164 H2168 0.950 . S
C2164 C2173 1.390 . S
C2165 C2164 1.387 . S
C2165 C2167 1.387 . S
H2166 C2173 0.950 . S
C2167 C2165 1.387 . S
C2167 C2169 1.390 . S
C2167 H2171 0.950 . S
H2168 C2164 0.950 . S
C2169 C2167 1.390 . S
C2169 C2170 1.387 . S
C2169 H2172 0.950 . S
C2170 C2169 1.387 . S
C2170 C2173 1.387 . S
H2171 C2167 0.950 . S
H2172 C2169 0.950 . S
C2173 C2164 1.390 . S
C2173 H2166 0.950 . S
C2173 C2170 1.387 . S
C2174 C2175 1.387 . S
C2174 H2178 0.950 . S
C2174 C2183 1.390 . S
C2175 C2174 1.387 . S
C2175 C2177 1.387 . S
H2176 C2183 0.950 . S
C2177 C2175 1.387 . S
C2177 C2179 1.390 . S
C2177 H2181 0.950 1_556 S
H2178 C2174 0.950 . S
C2179 C2177 1.390 . S
C2179 C2180 1.387 . S
C2179 H2182 0.950 . S
C2180 C2179 1.387 . S
C2180 C2183 1.387 . S
H2181 C2177 0.950 1_554 S
H2182 C2179 0.950 . S
C2183 C2174 1.390 . S
C2183 H2176 0.950 . S
C2183 C2180 1.387 . S
C2184 C2185 1.387 . S
C2184 H2188 0.950 . S
C2184 C2193 1.390 . S
C2185 C2184 1.387 . S
C2185 C2187 1.387 . S
H2186 C2193 0.950 . S
C2187 C2185 1.387 . S
C2187 C2189 1.390 . S
C2187 H2191 0.950 . S
H2188 C2184 0.950 . S
C2189 C2187 1.390 . S
C2189 C2190 1.387 . S
C2189 H2192 0.950 . S
C2190 C2189 1.387 . S
C2190 C2193 1.387 . S
H2191 C2187 0.950 . S
H2192 C2189 0.950 . S
C2193 C2184 1.390 . S
C2193 H2186 0.950 . S
C2193 C2190 1.387 . S
C2194 C2195 1.387 . S
C2194 H2198 0.950 . S
C2194 C2203 1.390 . S
C2195 C2194 1.387 . S
C2195 C2197 1.387 . S
H2196 C2203 0.950 . S
C2197 C2195 1.387 . S
C2197 C2199 1.390 . S
C2197 H2201 0.950 . S
H2198 C2194 0.950 . S
C2199 C2197 1.390 . S
C2199 C2200 1.387 . S
C2199 H2202 0.950 . S
C2200 C2199 1.387 . S
C2200 C2203 1.387 . S
H2201 C2197 0.950 . S
H2202 C2199 0.950 . S
C2203 C2194 1.390 . S
C2203 H2196 0.950 . S
C2203 C2200 1.387 . S
C2204 C2205 1.387 . S
C2204 H2208 0.950 . S
C2204 C2213 1.390 . S
C2205 C2204 1.387 . S
C2205 C2207 1.387 . S
H2206 C2213 0.950 . S
C2207 C2205 1.387 . S
C2207 C2209 1.390 . S
C2207 H2211 0.950 . S
H2208 C2204 0.950 . S
C2209 C2207 1.390 . S
C2209 C2210 1.387 . S
C2209 H2212 0.950 . S
C2210 C2209 1.387 . S
C2210 C2213 1.387 . S
H2211 C2207 0.950 . S
H2212 C2209 0.950 . S
C2213 C2204 1.390 . S
C2213 H2206 0.950 . S
C2213 C2210 1.387 . S
C2214 C2215 1.387 . S
C2214 H2218 0.950 . S
C2214 C2223 1.390 . S
C2215 C2214 1.387 . S
C2215 C2217 1.387 . S
H2216 C2223 0.950 . S
C2217 C2215 1.387 . S
C2217 C2219 1.390 . S
C2217 H2221 0.950 . S
H2218 C2214 0.950 . S
C2219 C2217 1.390 . S
C2219 C2220 1.387 . S
C2219 H2222 0.950 . S
C2220 C2219 1.387 . S
C2220 C2223 1.387 . S
H2221 C2217 0.950 . S
H2222 C2219 0.950 . S
C2223 C2214 1.390 . S
C2223 H2216 0.950 . S
C2223 C2220 1.387 . S
C2224 C2225 1.387 . S
C2224 H2228 0.950 . S
C2224 C2233 1.390 . S
C2225 C2224 1.387 . S
C2225 C2227 1.387 . S
H2226 C2233 0.950 . S
C2227 C2225 1.387 . S
C2227 C2229 1.390 . S
C2227 H2231 0.950 . S
H2228 C2224 0.950 . S
C2229 C2227 1.390 . S
C2229 C2230 1.387 . S
C2229 H2232 0.950 . S
C2230 C2229 1.387 . S
C2230 C2233 1.387 . S
H2231 C2227 0.950 . S
H2232 C2229 0.950 . S
C2233 C2224 1.390 . S
C2233 H2226 0.950 . S
C2233 C2230 1.387 . S
C2234 C2235 1.387 . S
C2234 H2238 0.950 . S
C2234 C2243 1.390 . S
C2235 C2234 1.387 . S
C2235 C2237 1.387 . S
H2236 C2243 0.950 . S
C2237 C2235 1.387 . S
C2237 C2239 1.390 . S
C2237 H2241 0.950 . S
H2238 C2234 0.950 . S
C2239 C2237 1.390 . S
C2239 C2240 1.387 . S
C2239 H2242 0.950 . S
C2240 C2239 1.387 . S
C2240 C2243 1.387 . S
H2241 C2237 0.950 . S
H2242 C2239 0.950 . S
C2243 C2234 1.390 . S
C2243 H2236 0.950 . S
C2243 C2240 1.387 . S
C2244 C2245 1.387 . S
C2244 H2248 0.950 . S
C2244 C2253 1.390 . S
C2245 C2244 1.387 . S
C2245 C2247 1.387 . S
H2246 C2253 0.950 1_556 S
C2247 C2245 1.387 . S
C2247 C2249 1.390 . S
C2247 H2251 0.950 . S
H2248 C2244 0.950 . S
C2249 C2247 1.390 . S
C2249 C2250 1.387 . S
C2249 H2252 0.950 . S
C2250 C2249 1.387 . S
C2250 C2253 1.387 . S
H2251 C2247 0.950 . S
H2252 C2249 0.950 . S
C2253 C2244 1.390 . S
C2253 H2246 0.950 1_554 S
C2253 C2250 1.387 . S
C2254 C2255 1.387 . S
C2254 H2258 0.950 . S
C2254 C2263 1.390 . S
C2255 C2254 1.387 . S
C2255 C2257 1.387 . S
H2256 C2263 0.950 . S
C2257 C2255 1.387 . S
C2257 C2259 1.390 . S
C2257 H2261 0.950 . S
H2258 C2254 0.950 . S
C2259 C2257 1.390 . S
C2259 C2260 1.387 . S
C2259 H2262 0.950 . S
C2260 C2259 1.387 . S
C2260 C2263 1.387 . S
H2261 C2257 0.950 . S
H2262 C2259 0.950 . S
C2263 C2254 1.390 . S
C2263 H2256 0.950 . S
C2263 C2260 1.387 . S
C2264 C2265 1.387 . S
C2264 H2268 0.950 . S
C2264 C2273 1.390 . S
C2265 C2264 1.387 . S
C2265 C2267 1.387 . S
H2266 C2273 0.950 . S
C2267 C2265 1.387 . S
C2267 C2269 1.390 . S
C2267 H2271 0.950 . S
H2268 C2264 0.950 . S
C2269 C2267 1.390 . S
C2269 C2270 1.387 . S
C2269 H2272 0.950 . S
C2270 C2269 1.387 . S
C2270 C2273 1.387 . S
H2271 C2267 0.950 . S
H2272 C2269 0.950 . S
C2273 C2264 1.390 . S
C2273 H2266 0.950 . S
C2273 C2270 1.387 . S
C2274 C2275 1.387 . S
C2274 H2278 0.950 . S
C2274 C2283 1.390 . S
C2275 C2274 1.387 . S
C2275 C2277 1.387 . S
H2276 C2283 0.950 . S
C2277 C2275 1.387 . S
C2277 C2279 1.390 . S
C2277 H2281 0.950 . S
H2278 C2274 0.950 . S
C2279 C2277 1.390 . S
C2279 C2280 1.387 . S
C2279 H2282 0.950 . S
C2280 C2279 1.387 . S
C2280 C2283 1.387 . S
H2281 C2277 0.950 . S
H2282 C2279 0.950 . S
C2283 C2274 1.390 . S
C2283 H2276 0.950 . S
C2283 C2280 1.387 . S
C2284 C2285 1.387 . S
C2284 H2288 0.950 . S
C2284 C2293 1.390 . S
C2285 C2284 1.387 . S
C2285 C2287 1.387 . S
H2286 C2293 0.950 . S
C2287 C2285 1.387 . S
C2287 C2289 1.390 . S
C2287 H2291 0.950 . S
H2288 C2284 0.950 . S
C2289 C2287 1.390 . S
C2289 C2290 1.387 . S
C2289 H2292 0.950 . S
C2290 C2289 1.387 . S
C2290 C2293 1.387 . S
H2291 C2287 0.950 . S
H2292 C2289 0.950 . S
C2293 C2284 1.390 . S
C2293 H2286 0.950 . S
C2293 C2290 1.387 . S
C2294 C2295 1.387 . S
C2294 H2298 0.950 . S
C2294 C2303 1.390 . S
C2295 C2294 1.387 . S
C2295 C2297 1.387 . S
H2296 C2303 0.950 . S
C2297 C2295 1.387 . S
C2297 C2299 1.390 . S
C2297 H2301 0.950 . S
H2298 C2294 0.950 . S
C2299 C2297 1.390 . S
C2299 C2300 1.387 . S
C2299 H2302 0.950 . S
C2300 C2299 1.387 . S
C2300 C2303 1.387 . S
H2301 C2297 0.950 . S
H2302 C2299 0.950 . S
C2303 C2294 1.390 . S
C2303 H2296 0.950 . S
C2303 C2300 1.387 . S
C2304 C2305 1.387 . S
C2304 H2308 0.950 . S
C2304 C2313 1.390 . S
C2305 C2304 1.387 . S
C2305 C2307 1.387 . S
H2306 C2313 0.950 . S
C2307 C2305 1.387 . S
C2307 C2309 1.390 . S
C2307 H2311 0.950 . S
H2308 C2304 0.950 . S
C2309 C2307 1.390 . S
C2309 C2310 1.387 . S
C2309 H2312 0.950 . S
C2310 C2309 1.387 . S
C2310 C2313 1.387 . S
H2311 C2307 0.950 . S
H2312 C2309 0.950 . S
C2313 C2304 1.390 . S
C2313 H2306 0.950 . S
C2313 C2310 1.387 . S
C2314 C2315 1.387 . S
C2314 H2318 0.950 . S
C2314 C2323 1.390 . S
C2315 C2314 1.387 . S
C2315 C2317 1.387 . S
H2316 C2323 0.950 . S
C2317 C2315 1.387 . S
C2317 C2319 1.390 . S
C2317 H2321 0.950 . S
H2318 C2314 0.950 . S
C2319 C2317 1.390 . S
C2319 C2320 1.387 . S
C2319 H2322 0.950 . S
C2320 C2319 1.387 . S
C2320 C2323 1.387 . S
H2321 C2317 0.950 . S
H2322 C2319 0.950 . S
C2323 C2314 1.390 . S
C2323 H2316 0.950 . S
C2323 C2320 1.387 . S
C2324 C2325 1.387 . S
C2324 H2328 0.950 . S
C2324 C2333 1.390 . S
C2325 C2324 1.387 . S
C2325 C2327 1.387 . S
H2326 C2333 0.950 . S
C2327 C2325 1.387 . S
C2327 C2329 1.390 . S
C2327 H2331 0.950 . S
H2328 C2324 0.950 . S
C2329 C2327 1.390 . S
C2329 C2330 1.387 . S
C2329 H2332 0.950 . S
C2330 C2329 1.387 . S
C2330 C2333 1.387 . S
H2331 C2327 0.950 . S
H2332 C2329 0.950 . S
C2333 C2324 1.390 . S
C2333 H2326 0.950 . S
C2333 C2330 1.387 . S
C2334 C2335 1.387 . S
C2334 H2338 0.950 . S
C2334 C2343 1.390 . S
C2335 C2334 1.387 . S
C2335 C2337 1.387 . S
H2336 C2343 0.950 . S
C2337 C2335 1.387 . S
C2337 C2339 1.390 . S
C2337 H2341 0.950 . S
H2338 C2334 0.950 . S
C2339 C2337 1.390 . S
C2339 C2340 1.387 . S
C2339 H2342 0.950 . S
C2340 C2339 1.387 . S
C2340 C2343 1.387 . S
H2341 C2337 0.950 . S
H2342 C2339 0.950 . S
C2343 C2334 1.390 . S
C2343 H2336 0.950 . S
C2343 C2340 1.387 . S
C2344 C2345 1.387 . S
C2344 H2348 0.950 . S
C2344 C2353 1.390 . S
C2345 C2344 1.387 . S
C2345 C2347 1.387 . S
H2346 C2353 0.950 . S
C2347 C2345 1.387 . S
C2347 C2349 1.390 . S
C2347 H2351 0.950 . S
H2348 C2344 0.950 . S
C2349 C2347 1.390 . S
C2349 C2350 1.387 . S
C2349 H2352 0.950 . S
C2350 C2349 1.387 . S
C2350 C2353 1.387 . S
H2351 C2347 0.950 . S
H2352 C2349 0.950 . S
C2353 C2344 1.390 . S
C2353 H2346 0.950 . S
C2353 C2350 1.387 . S
C2354 C2355 1.387 . S
C2354 H2358 0.950 . S
C2354 C2363 1.390 . S
C2355 C2354 1.387 . S
C2355 C2357 1.387 . S
H2356 C2363 0.950 . S
C2357 C2355 1.387 . S
C2357 C2359 1.390 . S
C2357 H2361 0.950 . S
H2358 C2354 0.950 . S
C2359 C2357 1.390 . S
C2359 C2360 1.387 . S
C2359 H2362 0.950 . S
C2360 C2359 1.387 . S
C2360 C2363 1.387 . S
H2361 C2357 0.950 . S
H2362 C2359 0.950 . S
C2363 C2354 1.390 . S
C2363 H2356 0.950 . S
C2363 C2360 1.387 . S
C2364 C2365 1.387 . S
C2364 H2368 0.950 . S
C2364 C2373 1.390 . S
C2365 C2364 1.387 . S
C2365 C2367 1.387 . S
H2366 C2373 0.950 . S
C2367 C2365 1.387 . S
C2367 C2369 1.390 . S
C2367 H2371 0.950 . S
H2368 C2364 0.950 . S
C2369 C2367 1.390 . S
C2369 C2370 1.387 . S
C2369 H2372 0.950 . S
C2370 C2369 1.387 . S
C2370 C2373 1.387 . S
H2371 C2367 0.950 . S
H2372 C2369 0.950 . S
C2373 C2364 1.390 . S
C2373 H2366 0.950 . S
C2373 C2370 1.387 . S
C2374 C2375 1.387 . S
C2374 H2378 0.950 . S
C2374 C2383 1.390 . S
C2375 C2374 1.387 . S
C2375 C2377 1.387 . S
H2376 C2383 0.950 . S
C2377 C2375 1.387 . S
C2377 C2379 1.390 . S
C2377 H2381 0.950 . S
H2378 C2374 0.950 . S
C2379 C2377 1.390 . S
C2379 C2380 1.387 . S
C2379 H2382 0.950 . S
C2380 C2379 1.387 . S
C2380 C2383 1.387 . S
H2381 C2377 0.950 . S
H2382 C2379 0.950 . S
C2383 C2374 1.390 . S
C2383 H2376 0.950 . S
C2383 C2380 1.387 . S
C2384 C2385 1.387 . S
C2384 H2388 0.950 . S
C2384 C2393 1.390 . S
C2385 C2384 1.387 . S
C2385 C2387 1.387 . S
H2386 C2393 0.950 . S
C2387 C2385 1.387 . S
C2387 C2389 1.390 . S
C2387 H2391 0.950 . S
H2388 C2384 0.950 . S
C2389 C2387 1.390 . S
C2389 C2390 1.387 . S
C2389 H2392 0.950 . S
C2390 C2389 1.387 . S
C2390 C2393 1.387 . S
H2391 C2387 0.950 . S
H2392 C2389 0.950 . S
C2393 C2384 1.390 . S
C2393 H2386 0.950 . S
C2393 C2390 1.387 . S
C2394 C2395 1.387 . S
C2394 H2398 0.950 . S
C2394 C2403 1.390 . S
C2395 C2394 1.387 . S
C2395 C2397 1.387 . S
H2396 C2403 0.950 . S
C2397 C2395 1.387 . S
C2397 C2399 1.390 . S
C2397 H2401 0.950 . S
H2398 C2394 0.950 . S
C2399 C2397 1.390 . S
C2399 C2400 1.387 . S
C2399 H2402 0.950 . S
C2400 C2399 1.387 . S
C2400 C2403 1.387 . S
H2401 C2397 0.950 . S
H2402 C2399 0.950 . S
C2403 C2394 1.390 . S
C2403 H2396 0.950 . S
C2403 C2400 1.387 . S
C2404 C2405 1.387 . S
C2404 H2408 0.950 . S
C2404 C2413 1.390 . S
C2405 C2404 1.387 . S
C2405 C2407 1.387 . S
H2406 C2413 0.950 . S
C2407 C2405 1.387 . S
C2407 C2409 1.390 . S
C2407 H2411 0.950 . S
H2408 C2404 0.950 . S
C2409 C2407 1.390 . S
C2409 C2410 1.387 . S
C2409 H2412 0.950 . S
C2410 C2409 1.387 . S
C2410 C2413 1.387 . S
H2411 C2407 0.950 . S
H2412 C2409 0.950 . S
C2413 C2404 1.390 . S
C2413 H2406 0.950 . S
C2413 C2410 1.387 . S
C2414 C2415 1.387 . S
C2414 H2418 0.950 . S
C2414 C2423 1.390 . S
C2415 C2414 1.387 . S
C2415 C2417 1.387 . S
H2416 C2423 0.950 . S
C2417 C2415 1.387 . S
C2417 C2419 1.390 . S
C2417 H2421 0.950 . S
H2418 C2414 0.950 . S
C2419 C2417 1.390 . S
C2419 C2420 1.387 . S
C2419 H2422 0.950 . S
C2420 C2419 1.387 . S
C2420 C2423 1.387 . S
H2421 C2417 0.950 . S
H2422 C2419 0.950 . S
C2423 C2414 1.390 . S
C2423 H2416 0.950 . S
C2423 C2420 1.387 . S
C2424 C2425 1.387 . S
C2424 H2428 0.950 . S
C2424 C2433 1.390 . S
C2425 C2424 1.387 . S
C2425 C2427 1.387 . S
H2426 C2433 0.950 . S
C2427 C2425 1.387 . S
C2427 C2429 1.390 . S
C2427 H2431 0.950 . S
H2428 C2424 0.950 . S
C2429 C2427 1.390 . S
C2429 C2430 1.387 . S
C2429 H2432 0.950 . S
C2430 C2429 1.387 . S
C2430 C2433 1.387 . S
H2431 C2427 0.950 . S
H2432 C2429 0.950 . S
C2433 C2424 1.390 . S
C2433 H2426 0.950 . S
C2433 C2430 1.387 . S
C2434 C2435 1.387 . S
C2434 H2438 0.950 . S
C2434 C2443 1.390 . S
C2435 C2434 1.387 . S
C2435 C2437 1.387 . S
H2436 C2443 0.950 . S
C2437 C2435 1.387 . S
C2437 C2439 1.390 . S
C2437 H2441 0.950 . S
H2438 C2434 0.950 . S
C2439 C2437 1.390 . S
C2439 C2440 1.387 . S
C2439 H2442 0.950 . S
C2440 C2439 1.387 . S
C2440 C2443 1.387 . S
H2441 C2437 0.950 . S
H2442 C2439 0.950 . S
C2443 C2434 1.390 . S
C2443 H2436 0.950 . S
C2443 C2440 1.387 . S
C2444 C2445 1.387 . S
C2444 H2448 0.950 . S
C2444 C2453 1.390 . S
C2445 C2444 1.387 . S
C2445 C2447 1.387 . S
H2446 C2453 0.950 . S
C2447 C2445 1.387 . S
C2447 C2449 1.390 . S
C2447 H2451 0.950 . S
H2448 C2444 0.950 . S
C2449 C2447 1.390 . S
C2449 C2450 1.387 . S
C2449 H2452 0.950 . S
C2450 C2449 1.387 . S
C2450 C2453 1.387 . S
H2451 C2447 0.950 . S
H2452 C2449 0.950 . S
C2453 C2444 1.390 . S
C2453 H2446 0.950 . S
C2453 C2450 1.387 . S
C2454 C2455 1.387 . S
C2454 H2458 0.950 . S
C2454 C2463 1.390 . S
C2455 C2454 1.387 . S
C2455 C2457 1.387 . S
H2456 C2463 0.950 . S
C2457 C2455 1.387 . S
C2457 C2459 1.390 . S
C2457 H2461 0.950 . S
H2458 C2454 0.950 . S
C2459 C2457 1.390 . S
C2459 C2460 1.387 . S
C2459 H2462 0.950 . S
C2460 C2459 1.387 . S
C2460 C2463 1.387 . S
H2461 C2457 0.950 . S
H2462 C2459 0.950 . S
C2463 C2454 1.390 . S
C2463 H2456 0.950 . S
C2463 C2460 1.387 . S
C2464 C2465 1.387 . S
C2464 H2468 0.950 . S
C2464 C2473 1.390 . S
C2465 C2464 1.387 . S
C2465 C2467 1.387 . S
H2466 C2473 0.950 . S
C2467 C2465 1.387 . S
C2467 C2469 1.390 . S
C2467 H2471 0.950 . S
H2468 C2464 0.950 . S
C2469 C2467 1.390 . S
C2469 C2470 1.387 . S
C2469 H2472 0.950 . S
C2470 C2469 1.387 . S
C2470 C2473 1.387 . S
H2471 C2467 0.950 . S
H2472 C2469 0.950 . S
C2473 C2464 1.390 . S
C2473 H2466 0.950 . S
C2473 C2470 1.387 . S
C2474 C2475 1.387 . S
C2474 H2478 0.950 . S
C2474 C2483 1.390 . S
C2475 C2474 1.387 . S
C2475 C2477 1.387 . S
H2476 C2483 0.950 . S
C2477 C2475 1.387 . S
C2477 C2479 1.390 . S
C2477 H2481 0.950 . S
H2478 C2474 0.950 . S
C2479 C2477 1.390 . S
C2479 C2480 1.387 . S
C2479 H2482 0.950 . S
C2480 C2479 1.387 . S
C2480 C2483 1.387 . S
H2481 C2477 0.950 . S
H2482 C2479 0.950 . S
C2483 C2474 1.390 . S
C2483 H2476 0.950 . S
C2483 C2480 1.387 . S
C2484 C2485 1.387 . S
C2484 H2488 0.950 . S
C2484 C2493 1.390 . S
C2485 C2484 1.387 . S
C2485 C2487 1.387 . S
H2486 C2493 0.950 . S
C2487 C2485 1.387 . S
C2487 C2489 1.390 . S
C2487 H2491 0.950 . S
H2488 C2484 0.950 . S
C2489 C2487 1.390 . S
C2489 C2490 1.387 . S
C2489 H2492 0.950 . S
C2490 C2489 1.387 . S
C2490 C2493 1.387 . S
H2491 C2487 0.950 . S
H2492 C2489 0.950 . S
C2493 C2484 1.390 . S
C2493 H2486 0.950 . S
C2493 C2490 1.387 . S
C2494 C2495 1.387 . S
C2494 H2498 0.950 . S
C2494 C2503 1.390 . S
C2495 C2494 1.387 . S
C2495 C2497 1.387 . S
H2496 C2503 0.950 . S
C2497 C2495 1.387 . S
C2497 C2499 1.390 . S
C2497 H2501 0.950 . S
H2498 C2494 0.950 . S
C2499 C2497 1.390 . S
C2499 C2500 1.387 . S
C2499 H2502 0.950 . S
C2500 C2499 1.387 . S
C2500 C2503 1.387 . S
H2501 C2497 0.950 . S
H2502 C2499 0.950 . S
C2503 C2494 1.390 . S
C2503 H2496 0.950 . S
C2503 C2500 1.387 . S
C2504 C2505 1.387 . S
C2504 H2508 0.950 . S
C2504 C2513 1.390 . S
C2505 C2504 1.387 . S
C2505 C2507 1.387 . S
H2506 C2513 0.950 . S
C2507 C2505 1.387 . S
C2507 C2509 1.390 . S
C2507 H2511 0.950 . S
H2508 C2504 0.950 . S
C2509 C2507 1.390 . S
C2509 C2510 1.387 . S
C2509 H2512 0.950 . S
C2510 C2509 1.387 . S
C2510 C2513 1.387 . S
H2511 C2507 0.950 . S
H2512 C2509 0.950 . S
C2513 C2504 1.390 . S
C2513 H2506 0.950 . S
C2513 C2510 1.387 . S
C2514 C2515 1.387 . S
C2514 H2518 0.950 . S
C2514 C2523 1.390 . S
C2515 C2514 1.387 . S
C2515 C2517 1.387 . S
H2516 C2523 0.950 . S
C2517 C2515 1.387 . S
C2517 C2519 1.390 . S
C2517 H2521 0.950 . S
H2518 C2514 0.950 . S
C2519 C2517 1.390 . S
C2519 C2520 1.387 . S
C2519 H2522 0.950 . S
C2520 C2519 1.387 . S
C2520 C2523 1.387 . S
H2521 C2517 0.950 . S
H2522 C2519 0.950 . S
C2523 C2514 1.390 . S
C2523 H2516 0.950 . S
C2523 C2520 1.387 . S
C2524 C2525 1.387 . S
C2524 H2528 0.950 . S
C2524 C2533 1.390 . S
C2525 C2524 1.387 . S
C2525 C2527 1.387 . S
H2526 C2533 0.950 . S
C2527 C2525 1.387 . S
C2527 C2529 1.390 . S
C2527 H2531 0.950 . S
H2528 C2524 0.950 . S
C2529 C2527 1.390 . S
C2529 C2530 1.387 . S
C2529 H2532 0.950 . S
C2530 C2529 1.387 . S
C2530 C2533 1.387 . S
H2531 C2527 0.950 . S
H2532 C2529 0.950 . S
C2533 C2524 1.390 . S
C2533 H2526 0.950 . S
C2533 C2530 1.387 . S
C2534 C2535 1.387 . S
C2534 H2538 0.950 . S
C2534 C2543 1.390 . S
C2535 C2534 1.387 . S
C2535 C2537 1.387 . S
H2536 C2543 0.950 . S
C2537 C2535 1.387 . S
C2537 C2539 1.390 . S
C2537 H2541 0.950 . S
H2538 C2534 0.950 . S
C2539 C2537 1.390 . S
C2539 C2540 1.387 . S
C2539 H2542 0.950 . S
C2540 C2539 1.387 . S
C2540 C2543 1.387 . S
H2541 C2537 0.950 . S
H2542 C2539 0.950 . S
C2543 C2534 1.390 . S
C2543 H2536 0.950 . S
C2543 C2540 1.387 . S
C2544 C2545 1.387 . S
C2544 H2548 0.950 . S
C2544 C2553 1.390 . S
C2545 C2544 1.387 . S
C2545 C2547 1.387 . S
H2546 C2553 0.950 . S
C2547 C2545 1.387 . S
C2547 C2549 1.390 . S
C2547 H2551 0.950 . S
H2548 C2544 0.950 . S
C2549 C2547 1.390 . S
C2549 C2550 1.387 . S
C2549 H2552 0.950 . S
C2550 C2549 1.387 . S
C2550 C2553 1.387 . S
H2551 C2547 0.950 . S
H2552 C2549 0.950 . S
C2553 C2544 1.390 . S
C2553 H2546 0.950 . S
C2553 C2550 1.387 . S
C2554 C2555 1.387 . S
C2554 H2558 0.950 . S
C2554 C2563 1.390 . S
C2555 C2554 1.387 . S
C2555 C2557 1.387 . S
H2556 C2563 0.950 . S
C2557 C2555 1.387 . S
C2557 C2559 1.390 . S
C2557 H2561 0.950 . S
H2558 C2554 0.950 . S
C2559 C2557 1.390 . S
C2559 C2560 1.387 . S
C2559 H2562 0.950 . S
C2560 C2559 1.387 . S
C2560 C2563 1.387 . S
H2561 C2557 0.950 . S
H2562 C2559 0.950 . S
C2563 C2554 1.390 . S
C2563 H2556 0.950 . S
C2563 C2560 1.387 . S
C2564 C2565 1.387 . S
C2564 H2568 0.950 . S
C2564 C2573 1.390 . S
C2565 C2564 1.387 . S
C2565 C2567 1.387 . S
H2566 C2573 0.950 . S
C2567 C2565 1.387 . S
C2567 C2569 1.390 . S
C2567 H2571 0.950 . S
H2568 C2564 0.950 . S
C2569 C2567 1.390 . S
C2569 C2570 1.387 . S
C2569 H2572 0.950 . S
C2570 C2569 1.387 . S
C2570 C2573 1.387 . S
H2571 C2567 0.950 . S
H2572 C2569 0.950 . S
C2573 C2564 1.390 . S
C2573 H2566 0.950 . S
C2573 C2570 1.387 . S
C2574 C2575 1.387 . S
C2574 H2578 0.950 . S
C2574 C2583 1.390 . S
C2575 C2574 1.387 . S
C2575 C2577 1.387 . S
H2576 C2583 0.950 . S
C2577 C2575 1.387 . S
C2577 C2579 1.390 . S
C2577 H2581 0.950 . S
H2578 C2574 0.950 . S
C2579 C2577 1.390 . S
C2579 C2580 1.387 . S
C2579 H2582 0.950 . S
C2580 C2579 1.387 . S
C2580 C2583 1.387 . S
H2581 C2577 0.950 . S
H2582 C2579 0.950 . S
C2583 C2574 1.390 . S
C2583 H2576 0.950 . S
C2583 C2580 1.387 . S
C2584 C2585 1.387 . S
C2584 H2588 0.950 . S
C2584 C2593 1.390 . S
C2585 C2584 1.387 . S
C2585 C2587 1.387 . S
H2586 C2593 0.950 . S
C2587 C2585 1.387 . S
C2587 C2589 1.390 . S
C2587 H2591 0.950 . S
H2588 C2584 0.950 . S
C2589 C2587 1.390 . S
C2589 C2590 1.387 . S
C2589 H2592 0.950 . S
C2590 C2589 1.387 . S
C2590 C2593 1.387 . S
H2591 C2587 0.950 . S
H2592 C2589 0.950 . S
C2593 C2584 1.390 . S
C2593 H2586 0.950 . S
C2593 C2590 1.387 . S
C2594 C2595 1.387 . S
C2594 H2598 0.950 . S
C2594 C2603 1.390 . S
C2595 C2594 1.387 . S
C2595 C2597 1.387 . S
H2596 C2603 0.950 . S
C2597 C2595 1.387 . S
C2597 C2599 1.390 . S
C2597 H2601 0.950 . S
H2598 C2594 0.950 . S
C2599 C2597 1.390 . S
C2599 C2600 1.387 . S
C2599 H2602 0.950 . S
C2600 C2599 1.387 . S
C2600 C2603 1.387 . S
H2601 C2597 0.950 . S
H2602 C2599 0.950 . S
C2603 C2594 1.390 . S
C2603 H2596 0.950 . S
C2603 C2600 1.387 . S
C2604 C2605 1.387 . S
C2604 H2608 0.950 . S
C2604 C2613 1.390 . S
C2605 C2604 1.387 . S
C2605 C2607 1.387 . S
H2606 C2613 0.950 . S
C2607 C2605 1.387 . S
C2607 C2609 1.390 . S
C2607 H2611 0.950 . S
H2608 C2604 0.950 . S
C2609 C2607 1.390 . S
C2609 C2610 1.387 . S
C2609 H2612 0.950 . S
C2610 C2609 1.387 . S
C2610 C2613 1.387 . S
H2611 C2607 0.950 . S
H2612 C2609 0.950 . S
C2613 C2604 1.390 . S
C2613 H2606 0.950 . S
C2613 C2610 1.387 . S
C2614 C2615 1.387 . S
C2614 H2618 0.950 . S
C2614 C2623 1.390 . S
C2615 C2614 1.387 . S
C2615 C2617 1.387 . S
H2616 C2623 0.950 . S
C2617 C2615 1.387 . S
C2617 C2619 1.390 . S
C2617 H2621 0.950 . S
H2618 C2614 0.950 . S
C2619 C2617 1.390 . S
C2619 C2620 1.387 . S
C2619 H2622 0.950 . S
C2620 C2619 1.387 . S
C2620 C2623 1.387 . S
H2621 C2617 0.950 . S
H2622 C2619 0.950 . S
C2623 C2614 1.390 . S
C2623 H2616 0.950 . S
C2623 C2620 1.387 . S
C2624 C2625 1.387 . S
C2624 H2628 0.950 . S
C2624 C2633 1.390 . S
C2625 C2624 1.387 . S
C2625 C2627 1.387 . S
H2626 C2633 0.950 . S
C2627 C2625 1.387 . S
C2627 C2629 1.390 . S
C2627 H2631 0.950 . S
H2628 C2624 0.950 . S
C2629 C2627 1.390 . S
C2629 C2630 1.387 . S
C2629 H2632 0.950 . S
C2630 C2629 1.387 . S
C2630 C2633 1.387 . S
H2631 C2627 0.950 . S
H2632 C2629 0.950 . S
C2633 C2624 1.390 . S
C2633 H2626 0.950 . S
C2633 C2630 1.387 . S
C2634 C2635 1.387 . S
C2634 H2638 0.950 . S
C2634 C2643 1.390 . S
C2635 C2634 1.387 . S
C2635 C2637 1.387 . S
H2636 C2643 0.950 . S
C2637 C2635 1.387 . S
C2637 C2639 1.390 . S
C2637 H2641 0.950 . S
H2638 C2634 0.950 . S
C2639 C2637 1.390 . S
C2639 C2640 1.387 . S
C2639 H2642 0.950 . S
C2640 C2639 1.387 . S
C2640 C2643 1.387 . S
H2641 C2637 0.950 . S
H2642 C2639 0.950 . S
C2643 C2634 1.390 . S
C2643 H2636 0.950 . S
C2643 C2640 1.387 . S
C2644 C2645 1.387 . S
C2644 H2648 0.950 . S
C2644 C2653 1.390 . S
C2645 C2644 1.387 . S
C2645 C2647 1.387 . S
H2646 C2653 0.950 . S
C2647 C2645 1.387 . S
C2647 C2649 1.390 . S
C2647 H2651 0.950 . S
H2648 C2644 0.950 . S
C2649 C2647 1.390 . S
C2649 C2650 1.387 . S
C2649 H2652 0.950 . S
C2650 C2649 1.387 . S
C2650 C2653 1.387 . S
H2651 C2647 0.950 . S
H2652 C2649 0.950 . S
C2653 C2644 1.390 . S
C2653 H2646 0.950 . S
C2653 C2650 1.387 . S
C2654 C2655 1.387 . S
C2654 H2658 0.950 . S
C2654 C2663 1.390 . S
C2655 C2654 1.387 . S
C2655 C2657 1.387 . S
H2656 C2663 0.950 . S
C2657 C2655 1.387 . S
C2657 C2659 1.390 . S
C2657 H2661 0.950 . S
H2658 C2654 0.950 . S
C2659 C2657 1.390 . S
C2659 C2660 1.387 . S
C2659 H2662 0.950 . S
C2660 C2659 1.387 . S
C2660 C2663 1.387 . S
H2661 C2657 0.950 . S
H2662 C2659 0.950 . S
C2663 C2654 1.390 . S
C2663 H2656 0.950 . S
C2663 C2660 1.387 . S
C2664 C2665 1.387 . S
C2664 H2668 0.950 . S
C2664 C2673 1.390 . S
C2665 C2664 1.387 . S
C2665 C2667 1.387 . S
H2666 C2673 0.950 . S
C2667 C2665 1.387 . S
C2667 C2669 1.390 . S
C2667 H2671 0.950 . S
H2668 C2664 0.950 . S
C2669 C2667 1.390 . S
C2669 C2670 1.387 . S
C2669 H2672 0.950 . S
C2670 C2669 1.387 . S
C2670 C2673 1.387 . S
H2671 C2667 0.950 . S
H2672 C2669 0.950 . S
C2673 C2664 1.390 . S
C2673 H2666 0.950 . S
C2673 C2670 1.387 . S
C2674 C2675 1.387 . S
C2674 H2678 0.950 . S
C2674 C2683 1.390 . S
C2675 C2674 1.387 . S
C2675 C2677 1.387 . S
H2676 C2683 0.950 . S
C2677 C2675 1.387 . S
C2677 C2679 1.390 . S
C2677 H2681 0.950 . S
H2678 C2674 0.950 . S
C2679 C2677 1.390 . S
C2679 C2680 1.387 . S
C2679 H2682 0.950 . S
C2680 C2679 1.387 . S
C2680 C2683 1.387 . S
H2681 C2677 0.950 . S
H2682 C2679 0.950 . S
C2683 C2674 1.390 . S
C2683 H2676 0.950 . S
C2683 C2680 1.387 . S
C2684 C2685 1.387 . S
C2684 H2688 0.950 . S
C2684 C2693 1.390 . S
C2685 C2684 1.387 . S
C2685 C2687 1.387 . S
H2686 C2693 0.950 . S
C2687 C2685 1.387 . S
C2687 C2689 1.390 . S
C2687 H2691 0.950 . S
H2688 C2684 0.950 . S
C2689 C2687 1.390 . S
C2689 C2690 1.387 . S
C2689 H2692 0.950 . S
C2690 C2689 1.387 . S
C2690 C2693 1.387 . S
H2691 C2687 0.950 . S
H2692 C2689 0.950 . S
C2693 C2684 1.390 . S
C2693 H2686 0.950 . S
C2693 C2690 1.387 . S
C2694 C2695 1.387 . S
C2694 H2698 0.950 . S
C2694 C2703 1.390 . S
C2695 C2694 1.387 . S
C2695 C2697 1.387 . S
H2696 C2703 0.950 . S
C2697 C2695 1.387 . S
C2697 C2699 1.390 . S
C2697 H2701 0.950 . S
H2698 C2694 0.950 . S
C2699 C2697 1.390 . S
C2699 C2700 1.387 . S
C2699 H2702 0.950 . S
C2700 C2699 1.387 . S
C2700 C2703 1.387 . S
H2701 C2697 0.950 . S
H2702 C2699 0.950 . S
C2703 C2694 1.390 . S
C2703 H2696 0.950 . S
C2703 C2700 1.387 . S
C2704 C2705 1.387 . S
C2704 H2708 0.950 . S
C2704 C2713 1.390 . S
C2705 C2704 1.387 . S
C2705 C2707 1.387 . S
H2706 C2713 0.950 . S
C2707 C2705 1.387 . S
C2707 C2709 1.390 . S
C2707 H2711 0.950 . S
H2708 C2704 0.950 . S
C2709 C2707 1.390 . S
C2709 C2710 1.387 . S
C2709 H2712 0.950 . S
C2710 C2709 1.387 . S
C2710 C2713 1.387 . S
H2711 C2707 0.950 . S
H2712 C2709 0.950 . S
C2713 C2704 1.390 . S
C2713 H2706 0.950 . S
C2713 C2710 1.387 . S
C2714 C2715 1.387 . S
C2714 H2718 0.950 . S
C2714 C2723 1.390 . S
C2715 C2714 1.387 . S
C2715 C2717 1.387 . S
H2716 C2723 0.950 . S
C2717 C2715 1.387 . S
C2717 C2719 1.390 . S
C2717 H2721 0.950 . S
H2718 C2714 0.950 . S
C2719 C2717 1.390 . S
C2719 C2720 1.387 . S
C2719 H2722 0.950 . S
C2720 C2719 1.387 . S
C2720 C2723 1.387 . S
H2721 C2717 0.950 . S
H2722 C2719 0.950 . S
C2723 C2714 1.390 . S
C2723 H2716 0.950 . S
C2723 C2720 1.387 . S
C2724 C2725 1.387 . S
C2724 H2728 0.950 . S
C2724 C2733 1.390 . S
C2725 C2724 1.387 . S
C2725 C2727 1.387 . S
H2726 C2733 0.950 . S
C2727 C2725 1.387 . S
C2727 C2729 1.390 . S
C2727 H2731 0.950 . S
H2728 C2724 0.950 . S
C2729 C2727 1.390 . S
C2729 C2730 1.387 . S
C2729 H2732 0.950 . S
C2730 C2729 1.387 . S
C2730 C2733 1.387 . S
H2731 C2727 0.950 . S
H2732 C2729 0.950 . S
C2733 C2724 1.390 . S
C2733 H2726 0.950 . S
C2733 C2730 1.387 . S
C2734 C2735 1.387 . S
C2734 H2738 0.950 . S
C2734 C2743 1.390 . S
C2735 C2734 1.387 . S
C2735 C2737 1.387 . S
H2736 C2743 0.950 . S
C2737 C2735 1.387 . S
C2737 C2739 1.390 . S
C2737 H2741 0.950 . S
H2738 C2734 0.950 . S
C2739 C2737 1.390 . S
C2739 C2740 1.387 . S
C2739 H2742 0.950 . S
C2740 C2739 1.387 . S
C2740 C2743 1.387 . S
H2741 C2737 0.950 . S
H2742 C2739 0.950 . S
C2743 C2734 1.390 . S
C2743 H2736 0.950 . S
C2743 C2740 1.387 . S
C2744 C2745 1.387 . S
C2744 H2748 0.950 . S
C2744 C2753 1.390 . S
C2745 C2744 1.387 . S
C2745 C2747 1.387 . S
H2746 C2753 0.950 . S
C2747 C2745 1.387 . S
C2747 C2749 1.390 . S
C2747 H2751 0.950 . S
H2748 C2744 0.950 . S
C2749 C2747 1.390 . S
C2749 C2750 1.387 . S
C2749 H2752 0.950 . S
C2750 C2749 1.387 . S
C2750 C2753 1.387 . S
H2751 C2747 0.950 . S
H2752 C2749 0.950 . S
C2753 C2744 1.390 . S
C2753 H2746 0.950 . S
C2753 C2750 1.387 . S
C2754 C2755 1.387 . S
C2754 H2758 0.950 . S
C2754 C2763 1.390 . S
C2755 C2754 1.387 . S
C2755 C2757 1.387 . S
H2756 C2763 0.950 . S
C2757 C2755 1.387 . S
C2757 C2759 1.390 . S
C2757 H2761 0.950 . S
H2758 C2754 0.950 . S
C2759 C2757 1.390 . S
C2759 C2760 1.387 . S
C2759 H2762 0.950 . S
C2760 C2759 1.387 . S
C2760 C2763 1.387 . S
H2761 C2757 0.950 . S
H2762 C2759 0.950 . S
C2763 C2754 1.390 . S
C2763 H2756 0.950 . S
C2763 C2760 1.387 . S
C2764 C2765 1.387 . S
C2764 H2768 0.950 . S
C2764 C2773 1.390 . S
C2765 C2764 1.387 . S
C2765 C2767 1.387 . S
H2766 C2773 0.950 . S
C2767 C2765 1.387 . S
C2767 C2769 1.390 . S
C2767 H2771 0.950 . S
H2768 C2764 0.950 . S
C2769 C2767 1.390 . S
C2769 C2770 1.387 . S
C2769 H2772 0.950 . S
C2770 C2769 1.387 . S
C2770 C2773 1.387 . S
H2771 C2767 0.950 . S
H2772 C2769 0.950 . S
C2773 C2764 1.390 . S
C2773 H2766 0.950 . S
C2773 C2770 1.387 . S
C2774 C2775 1.387 . S
C2774 H2778 0.950 . S
C2774 C2783 1.390 . S
C2775 C2774 1.387 . S
C2775 C2777 1.387 . S
H2776 C2783 0.950 . S
C2777 C2775 1.387 . S
C2777 C2779 1.390 . S
C2777 H2781 0.950 . S
H2778 C2774 0.950 . S
C2779 C2777 1.390 . S
C2779 C2780 1.387 . S
C2779 H2782 0.950 . S
C2780 C2779 1.387 . S
C2780 C2783 1.387 . S
H2781 C2777 0.950 . S
H2782 C2779 0.950 . S
C2783 C2774 1.390 . S
C2783 H2776 0.950 . S
C2783 C2780 1.387 . S
C2784 C2785 1.387 . S
C2784 H2788 0.950 . S
C2784 C2793 1.390 . S
C2785 C2784 1.387 . S
C2785 C2787 1.387 . S
H2786 C2793 0.950 . S
C2787 C2785 1.387 . S
C2787 C2789 1.390 . S
C2787 H2791 0.950 . S
H2788 C2784 0.950 . S
C2789 C2787 1.390 . S
C2789 C2790 1.387 . S
C2789 H2792 0.950 . S
C2790 C2789 1.387 . S
C2790 C2793 1.387 . S
H2791 C2787 0.950 . S
H2792 C2789 0.950 . S
C2793 C2784 1.390 . S
C2793 H2786 0.950 . S
C2793 C2790 1.387 . S
C2794 C2795 1.387 . S
C2794 H2798 0.950 . S
C2794 C2803 1.390 . S
C2795 C2794 1.387 . S
C2795 C2797 1.387 . S
H2796 C2803 0.950 . S
C2797 C2795 1.387 . S
C2797 C2799 1.390 . S
C2797 H2801 0.950 . S
H2798 C2794 0.950 . S
C2799 C2797 1.390 . S
C2799 C2800 1.387 . S
C2799 H2802 0.950 . S
C2800 C2799 1.387 . S
C2800 C2803 1.387 . S
H2801 C2797 0.950 . S
H2802 C2799 0.950 . S
C2803 C2794 1.390 . S
C2803 H2796 0.950 . S
C2803 C2800 1.387 . S
C2804 C2805 1.387 . S
C2804 H2808 0.950 . S
C2804 C2813 1.390 . S
C2805 C2804 1.387 . S
C2805 C2807 1.387 . S
H2806 C2813 0.950 . S
C2807 C2805 1.387 . S
C2807 C2809 1.390 . S
C2807 H2811 0.950 . S
H2808 C2804 0.950 . S
C2809 C2807 1.390 . S
C2809 C2810 1.387 . S
C2809 H2812 0.950 . S
C2810 C2809 1.387 . S
C2810 C2813 1.387 . S
H2811 C2807 0.950 . S
H2812 C2809 0.950 . S
C2813 C2804 1.390 . S
C2813 H2806 0.950 . S
C2813 C2810 1.387 . S
C2814 C2815 1.387 . S
C2814 H2818 0.950 . S
C2814 C2823 1.390 . S
C2815 C2814 1.387 . S
C2815 C2817 1.387 . S
H2816 C2823 0.950 . S
C2817 C2815 1.387 . S
C2817 C2819 1.390 . S
C2817 H2821 0.950 . S
H2818 C2814 0.950 . S
C2819 C2817 1.390 . S
C2819 C2820 1.387 . S
C2819 H2822 0.950 . S
C2820 C2819 1.387 . S
C2820 C2823 1.387 . S
H2821 C2817 0.950 . S
H2822 C2819 0.950 . S
C2823 C2814 1.390 . S
C2823 H2816 0.950 . S
C2823 C2820 1.387 . S
C2824 C2825 1.387 . S
C2824 H2828 0.950 . S
C2824 C2833 1.390 . S
C2825 C2824 1.387 . S
C2825 C2827 1.387 . S
H2826 C2833 0.950 . S
C2827 C2825 1.387 . S
C2827 C2829 1.390 . S
C2827 H2831 0.950 . S
H2828 C2824 0.950 . S
C2829 C2827 1.390 . S
C2829 C2830 1.387 . S
C2829 H2832 0.950 . S
C2830 C2829 1.387 . S
C2830 C2833 1.387 . S
H2831 C2827 0.950 . S
H2832 C2829 0.950 . S
C2833 C2824 1.390 . S
C2833 H2826 0.950 . S
C2833 C2830 1.387 . S
C2834 C2835 1.387 . S
C2834 H2838 0.950 . S
C2834 C2843 1.390 . S
C2835 C2834 1.387 . S
C2835 C2837 1.387 . S
H2836 C2843 0.950 . S
C2837 C2835 1.387 . S
C2837 C2839 1.390 . S
C2837 H2841 0.950 . S
H2838 C2834 0.950 . S
C2839 C2837 1.390 . S
C2839 C2840 1.387 . S
C2839 H2842 0.950 . S
C2840 C2839 1.387 . S
C2840 C2843 1.387 . S
H2841 C2837 0.950 . S
H2842 C2839 0.950 . S
C2843 C2834 1.390 . S
C2843 H2836 0.950 . S
C2843 C2840 1.387 . S
C2844 C2845 1.387 . S
C2844 H2848 0.950 . S
C2844 C2853 1.390 . S
C2845 C2844 1.387 . S
C2845 C2847 1.387 . S
H2846 C2853 0.950 . S
C2847 C2845 1.387 . S
C2847 C2849 1.390 . S
C2847 H2851 0.950 . S
H2848 C2844 0.950 . S
C2849 C2847 1.390 . S
C2849 C2850 1.387 . S
C2849 H2852 0.950 . S
C2850 C2849 1.387 . S
C2850 C2853 1.387 . S
H2851 C2847 0.950 . S
H2852 C2849 0.950 . S
C2853 C2844 1.390 . S
C2853 H2846 0.950 . S
C2853 C2850 1.387 . S
C2854 C2855 1.387 . S
C2854 H2858 0.950 . S
C2854 C2863 1.390 . S
C2855 C2854 1.387 . S
C2855 C2857 1.387 . S
H2856 C2863 0.950 . S
C2857 C2855 1.387 . S
C2857 C2859 1.390 . S
C2857 H2861 0.950 . S
H2858 C2854 0.950 . S
C2859 C2857 1.390 . S
C2859 C2860 1.387 . S
C2859 H2862 0.950 . S
C2860 C2859 1.387 . S
C2860 C2863 1.387 . S
H2861 C2857 0.950 . S
H2862 C2859 0.950 . S
C2863 C2854 1.390 . S
C2863 H2856 0.950 . S
C2863 C2860 1.387 . S
C2864 C2865 1.387 . S
C2864 H2868 0.950 . S
C2864 C2873 1.390 . S
C2865 C2864 1.387 . S
C2865 C2867 1.387 . S
H2866 C2873 0.950 . S
C2867 C2865 1.387 . S
C2867 C2869 1.390 . S
C2867 H2871 0.950 . S
H2868 C2864 0.950 . S
C2869 C2867 1.390 . S
C2869 C2870 1.387 . S
C2869 H2872 0.950 . S
C2870 C2869 1.387 . S
C2870 C2873 1.387 . S
H2871 C2867 0.950 . S
H2872 C2869 0.950 . S
C2873 C2864 1.390 . S
C2873 H2866 0.950 . S
C2873 C2870 1.387 . S
C2874 C2875 1.387 . S
C2874 H2878 0.950 . S
C2874 C2883 1.390 . S
C2875 C2874 1.387 . S
C2875 C2877 1.387 . S
H2876 C2883 0.950 . S
C2877 C2875 1.387 . S
C2877 C2879 1.390 . S
C2877 H2881 0.950 . S
H2878 C2874 0.950 . S
C2879 C2877 1.390 . S
C2879 C2880 1.387 . S
C2879 H2882 0.950 . S
C2880 C2879 1.387 . S
C2880 C2883 1.387 . S
H2881 C2877 0.950 . S
H2882 C2879 0.950 . S
C2883 C2874 1.390 . S
C2883 H2876 0.950 . S
C2883 C2880 1.387 . S
C2884 C2885 1.387 . S
C2884 H2888 0.950 . S
C2884 C2893 1.390 . S
C2885 C2884 1.387 . S
C2885 C2887 1.387 . S
H2886 C2893 0.950 . S
C2887 C2885 1.387 . S
C2887 C2889 1.390 . S
C2887 H2891 0.950 . S
H2888 C2884 0.950 . S
C2889 C2887 1.390 . S
C2889 C2890 1.387 . S
C2889 H2892 0.950 . S
C2890 C2889 1.387 . S
C2890 C2893 1.387 . S
H2891 C2887 0.950 . S
H2892 C2889 0.950 . S
C2893 C2884 1.390 . S
C2893 H2886 0.950 . S
C2893 C2890 1.387 . S
C2894 C2895 1.387 . S
C2894 H2898 0.950 . S
C2894 C2903 1.390 . S
C2895 C2894 1.387 . S
C2895 C2897 1.387 . S
H2896 C2903 0.950 . S
C2897 C2895 1.387 . S
C2897 C2899 1.390 . S
C2897 H2901 0.950 . S
H2898 C2894 0.950 . S
C2899 C2897 1.390 . S
C2899 C2900 1.387 . S
C2899 H2902 0.950 . S
C2900 C2899 1.387 . S
C2900 C2903 1.387 . S
H2901 C2897 0.950 . S
H2902 C2899 0.950 . S
C2903 C2894 1.390 . S
C2903 H2896 0.950 . S
C2903 C2900 1.387 . S
C2904 C2905 1.387 . S
C2904 H2908 0.950 . S
C2904 C2913 1.390 . S
C2905 C2904 1.387 . S
C2905 C2907 1.387 . S
H2906 C2913 0.950 . S
C2907 C2905 1.387 . S
C2907 C2909 1.390 . S
C2907 H2911 0.950 . S
H2908 C2904 0.950 . S
C2909 C2907 1.390 . S
C2909 C2910 1.387 . S
C2909 H2912 0.950 . S
C2910 C2909 1.387 . S
C2910 C2913 1.387 . S
H2911 C2907 0.950 . S
H2912 C2909 0.950 . S
C2913 C2904 1.390 . S
C2913 H2906 0.950 . S
C2913 C2910 1.387 . S
C2914 C2915 1.387 . S
C2914 H2918 0.950 . S
C2914 C2923 1.390 . S
C2915 C2914 1.387 . S
C2915 C2917 1.387 . S
H2916 C2923 0.950 . S
C2917 C2915 1.387 . S
C2917 C2919 1.390 . S
C2917 H2921 0.950 . S
H2918 C2914 0.950 . S
C2919 C2917 1.390 . S
C2919 C2920 1.387 . S
C2919 H2922 0.950 . S
C2920 C2919 1.387 . S
C2920 C2923 1.387 . S
H2921 C2917 0.950 . S
H2922 C2919 0.950 . S
C2923 C2914 1.390 . S
C2923 H2916 0.950 . S
C2923 C2920 1.387 . S
C2924 C2925 1.387 . S
C2924 H2928 0.950 . S
C2924 C2933 1.390 . S
C2925 C2924 1.387 . S
C2925 C2927 1.387 . S
H2926 C2933 0.950 . S
C2927 C2925 1.387 . S
C2927 C2929 1.390 . S
C2927 H2931 0.950 . S
H2928 C2924 0.950 . S
C2929 C2927 1.390 . S
C2929 C2930 1.387 . S
C2929 H2932 0.950 . S
C2930 C2929 1.387 . S
C2930 C2933 1.387 . S
H2931 C2927 0.950 . S
H2932 C2929 0.950 . S
C2933 C2924 1.390 . S
C2933 H2926 0.950 . S
C2933 C2930 1.387 . S
C2934 C2935 1.387 . S
C2934 H2938 0.950 . S
C2934 C2943 1.390 . S
C2935 C2934 1.387 . S
C2935 C2937 1.387 . S
H2936 C2943 0.950 . S
C2937 C2935 1.387 . S
C2937 C2939 1.390 . S
C2937 H2941 0.950 . S
H2938 C2934 0.950 . S
C2939 C2937 1.390 . S
C2939 C2940 1.387 . S
C2939 H2942 0.950 . S
C2940 C2939 1.387 . S
C2940 C2943 1.387 . S
H2941 C2937 0.950 . S
H2942 C2939 0.950 . S
C2943 C2934 1.390 . S
C2943 H2936 0.950 . S
C2943 C2940 1.387 . S
C2944 C2945 1.387 . S
C2944 H2948 0.950 . S
C2944 C2953 1.390 . S
C2945 C2944 1.387 . S
C2945 C2947 1.387 . S
H2946 C2953 0.950 . S
C2947 C2945 1.387 . S
C2947 C2949 1.390 . S
C2947 H2951 0.950 . S
H2948 C2944 0.950 . S
C2949 C2947 1.390 . S
C2949 C2950 1.387 . S
C2949 H2952 0.950 . S
C2950 C2949 1.387 . S
C2950 C2953 1.387 . S
H2951 C2947 0.950 . S
H2952 C2949 0.950 . S
C2953 C2944 1.390 . S
C2953 H2946 0.950 . S
C2953 C2950 1.387 . S
C2954 C2955 1.387 . S
C2954 H2958 0.950 . S
C2954 C2963 1.390 . S
C2955 C2954 1.387 . S
C2955 C2957 1.387 . S
H2956 C2963 0.950 . S
C2957 C2955 1.387 . S
C2957 C2959 1.390 . S
C2957 H2961 0.950 . S
H2958 C2954 0.950 . S
C2959 C2957 1.390 . S
C2959 C2960 1.387 . S
C2959 H2962 0.950 . S
C2960 C2959 1.387 . S
C2960 C2963 1.387 . S
H2961 C2957 0.950 . S
H2962 C2959 0.950 . S
C2963 C2954 1.390 . S
C2963 H2956 0.950 . S
C2963 C2960 1.387 . S
C2964 C2965 1.387 . S
C2964 H2968 0.950 . S
C2964 C2973 1.390 . S
C2965 C2964 1.387 . S
C2965 C2967 1.387 . S
H2966 C2973 0.950 . S
C2967 C2965 1.387 . S
C2967 C2969 1.390 . S
C2967 H2971 0.950 . S
H2968 C2964 0.950 . S
C2969 C2967 1.390 . S
C2969 C2970 1.387 . S
C2969 H2972 0.950 . S
C2970 C2969 1.387 . S
C2970 C2973 1.387 . S
H2971 C2967 0.950 . S
H2972 C2969 0.950 . S
C2973 C2964 1.390 . S
C2973 H2966 0.950 . S
C2973 C2970 1.387 . S
C2974 C2975 1.387 . S
C2974 H2978 0.950 . S
C2974 C2983 1.390 . S
C2975 C2974 1.387 . S
C2975 C2977 1.387 . S
H2976 C2983 0.950 . S
C2977 C2975 1.387 . S
C2977 C2979 1.390 . S
C2977 H2981 0.950 . S
H2978 C2974 0.950 . S
C2979 C2977 1.390 . S
C2979 C2980 1.387 . S
C2979 H2982 0.950 . S
C2980 C2979 1.387 . S
C2980 C2983 1.387 . S
H2981 C2977 0.950 . S
H2982 C2979 0.950 . S
C2983 C2974 1.390 . S
C2983 H2976 0.950 . S
C2983 C2980 1.387 . S
C2984 C2985 1.387 . S
C2984 H2988 0.950 . S
C2984 C2993 1.390 . S
C2985 C2984 1.387 . S
C2985 C2987 1.387 . S
H2986 C2993 0.950 . S
C2987 C2985 1.387 . S
C2987 C2989 1.390 . S
C2987 H2991 0.950 . S
H2988 C2984 0.950 . S
C2989 C2987 1.390 . S
C2989 C2990 1.387 . S
C2989 H2992 0.950 . S
C2990 C2989 1.387 . S
C2990 C2993 1.387 . S
H2991 C2987 0.950 . S
H2992 C2989 0.950 . S
C2993 C2984 1.390 . S
C2993 H2986 0.950 . S
C2993 C2990 1.387 . S
C2994 C2995 1.387 . S
C2994 H2998 0.950 . S
C2994 C3003 1.390 . S
C2995 C2994 1.387 . S
C2995 C2997 1.387 . S
H2996 C3003 0.950 . S
C2997 C2995 1.387 . S
C2997 C2999 1.390 . S
C2997 H3001 0.950 . S
H2998 C2994 0.950 . S
C2999 C2997 1.390 . S
C2999 C3000 1.387 . S
C2999 H3002 0.950 . S
C3000 C2999 1.387 . S
C3000 C3003 1.387 . S
H3001 C2997 0.950 . S
H3002 C2999 0.950 . S
C3003 C2994 1.390 . S
C3003 H2996 0.950 . S
C3003 C3000 1.387 . S
C3004 C3005 1.387 . S
C3004 H3008 0.950 . S
C3004 C3013 1.390 . S
C3005 C3004 1.387 . S
C3005 C3007 1.387 . S
H3006 C3013 0.950 . S
C3007 C3005 1.387 . S
C3007 C3009 1.390 . S
C3007 H3011 0.950 . S
H3008 C3004 0.950 . S
C3009 C3007 1.390 . S
C3009 C3010 1.387 . S
C3009 H3012 0.950 . S
C3010 C3009 1.387 . S
C3010 C3013 1.387 . S
H3011 C3007 0.950 . S
H3012 C3009 0.950 . S
C3013 C3004 1.390 . S
C3013 H3006 0.950 . S
C3013 C3010 1.387 . S
C3014 C3015 1.387 . S
C3014 H3018 0.950 . S
C3014 C3023 1.390 . S
C3015 C3014 1.387 . S
C3015 C3017 1.387 . S
H3016 C3023 0.950 . S
C3017 C3015 1.387 . S
C3017 C3019 1.390 . S
C3017 H3021 0.950 . S
H3018 C3014 0.950 . S
C3019 C3017 1.390 . S
C3019 C3020 1.387 . S
C3019 H3022 0.950 . S
C3020 C3019 1.387 . S
C3020 C3023 1.387 . S
H3021 C3017 0.950 . S
H3022 C3019 0.950 . S
C3023 C3014 1.390 . S
C3023 H3016 0.950 . S
C3023 C3020 1.387 . S
C3024 C3025 1.387 . S
C3024 H3028 0.950 . S
C3024 C3033 1.390 . S
C3025 C3024 1.387 . S
C3025 C3027 1.387 . S
H3026 C3033 0.950 . S
C3027 C3025 1.387 . S
C3027 C3029 1.390 . S
C3027 H3031 0.950 . S
H3028 C3024 0.950 . S
C3029 C3027 1.390 . S
C3029 C3030 1.387 . S
C3029 H3032 0.950 . S
C3030 C3029 1.387 . S
C3030 C3033 1.387 . S
H3031 C3027 0.950 . S
H3032 C3029 0.950 . S
C3033 C3024 1.390 . S
C3033 H3026 0.950 . S
C3033 C3030 1.387 . S
C3034 C3035 1.387 . S
C3034 H3038 0.950 . S
C3034 C3043 1.390 . S
C3035 C3034 1.387 . S
C3035 C3037 1.387 . S
H3036 C3043 0.950 . S
C3037 C3035 1.387 . S
C3037 C3039 1.390 . S
C3037 H3041 0.950 . S
H3038 C3034 0.950 . S
C3039 C3037 1.390 . S
C3039 C3040 1.387 . S
C3039 H3042 0.950 . S
C3040 C3039 1.387 . S
C3040 C3043 1.387 . S
H3041 C3037 0.950 . S
H3042 C3039 0.950 . S
C3043 C3034 1.390 . S
C3043 H3036 0.950 . S
C3043 C3040 1.387 . S
C3044 C3045 1.387 . S
C3044 H3048 0.950 . S
C3044 C3053 1.390 . S
C3045 C3044 1.387 . S
C3045 C3047 1.387 . S
H3046 C3053 0.950 . S
C3047 C3045 1.387 . S
C3047 C3049 1.390 . S
C3047 H3051 0.950 . S
H3048 C3044 0.950 . S
C3049 C3047 1.390 . S
C3049 C3050 1.387 . S
C3049 H3052 0.950 . S
C3050 C3049 1.387 . S
C3050 C3053 1.387 . S
H3051 C3047 0.950 . S
H3052 C3049 0.950 . S
C3053 C3044 1.390 . S
C3053 H3046 0.950 . S
C3053 C3050 1.387 . S
C3054 C3055 1.387 . S
C3054 H3058 0.950 . S
C3054 C3063 1.390 . S
C3055 C3054 1.387 . S
C3055 C3057 1.387 . S
H3056 C3063 0.950 . S
C3057 C3055 1.387 . S
C3057 C3059 1.390 . S
C3057 H3061 0.950 . S
H3058 C3054 0.950 . S
C3059 C3057 1.390 . S
C3059 C3060 1.387 . S
C3059 H3062 0.950 . S
C3060 C3059 1.387 . S
C3060 C3063 1.387 . S
H3061 C3057 0.950 . S
H3062 C3059 0.950 . S
C3063 C3054 1.390 . S
C3063 H3056 0.950 . S
C3063 C3060 1.387 . S
C3064 C3065 1.387 . S
C3064 H3068 0.950 . S
C3064 C3073 1.390 . S
C3065 C3064 1.387 . S
C3065 C3067 1.387 . S
H3066 C3073 0.950 . S
C3067 C3065 1.387 . S
C3067 C3069 1.390 . S
C3067 H3071 0.950 . S
H3068 C3064 0.950 . S
C3069 C3067 1.390 . S
C3069 C3070 1.387 . S
C3069 H3072 0.950 . S
C3070 C3069 1.387 . S
C3070 C3073 1.387 . S
H3071 C3067 0.950 . S
H3072 C3069 0.950 . S
C3073 C3064 1.390 . S
C3073 H3066 0.950 . S
C3073 C3070 1.387 . S
C3074 C3075 1.387 . S
C3074 H3078 0.950 . S
C3074 C3083 1.390 . S
C3075 C3074 1.387 . S
C3075 C3077 1.387 . S
H3076 C3083 0.950 . S
C3077 C3075 1.387 . S
C3077 C3079 1.390 . S
C3077 H3081 0.950 . S
H3078 C3074 0.950 . S
C3079 C3077 1.390 . S
C3079 C3080 1.387 . S
C3079 H3082 0.950 . S
C3080 C3079 1.387 . S
C3080 C3083 1.387 . S
H3081 C3077 0.950 . S
H3082 C3079 0.950 . S
C3083 C3074 1.390 . S
C3083 H3076 0.950 . S
C3083 C3080 1.387 . S
C3084 C3085 1.387 . S
C3084 H3088 0.950 . S
C3084 C3093 1.390 . S
C3085 C3084 1.387 . S
C3085 C3087 1.387 . S
H3086 C3093 0.950 . S
C3087 C3085 1.387 . S
C3087 C3089 1.390 . S
C3087 H3091 0.950 . S
H3088 C3084 0.950 . S
C3089 C3087 1.390 . S
C3089 C3090 1.387 . S
C3089 H3092 0.950 . S
C3090 C3089 1.387 . S
C3090 C3093 1.387 . S
H3091 C3087 0.950 . S
H3092 C3089 0.950 . S
C3093 C3084 1.390 . S
C3093 H3086 0.950 . S
C3093 C3090 1.387 . S
C3094 C3095 1.387 . S
C3094 H3098 0.950 . S
C3094 C3103 1.390 . S
C3095 C3094 1.387 . S
C3095 C3097 1.387 . S
H3096 C3103 0.950 . S
C3097 C3095 1.387 . S
C3097 C3099 1.390 . S
C3097 H3101 0.950 . S
H3098 C3094 0.950 . S
C3099 C3097 1.390 . S
C3099 C3100 1.387 . S
C3099 H3102 0.950 . S
C3100 C3099 1.387 . S
C3100 C3103 1.387 . S
H3101 C3097 0.950 . S
H3102 C3099 0.950 . S
C3103 C3094 1.390 . S
C3103 H3096 0.950 . S
C3103 C3100 1.387 . S
C3104 C3105 1.387 . S
C3104 H3108 0.950 . S
C3104 C3113 1.390 . S
C3105 C3104 1.387 . S
C3105 C3107 1.387 . S
H3106 C3113 0.950 . S
C3107 C3105 1.387 . S
C3107 C3109 1.390 . S
C3107 H3111 0.950 . S
H3108 C3104 0.950 . S
C3109 C3107 1.390 . S
C3109 C3110 1.387 . S
C3109 H3112 0.950 . S
C3110 C3109 1.387 . S
C3110 C3113 1.387 . S
H3111 C3107 0.950 . S
H3112 C3109 0.950 . S
C3113 C3104 1.390 . S
C3113 H3106 0.950 . S
C3113 C3110 1.387 . S
C3114 C3115 1.387 . S
C3114 H3118 0.950 . S
C3114 C3123 1.390 . S
C3115 C3114 1.387 . S
C3115 C3117 1.387 . S
H3116 C3123 0.950 . S
C3117 C3115 1.387 . S
C3117 C3119 1.390 . S
C3117 H3121 0.950 . S
H3118 C3114 0.950 . S
C3119 C3117 1.390 . S
C3119 C3120 1.387 . S
C3119 H3122 0.950 . S
C3120 C3119 1.387 . S
C3120 C3123 1.387 . S
H3121 C3117 0.950 . S
H3122 C3119 0.950 . S
C3123 C3114 1.390 . S
C3123 H3116 0.950 . S
C3123 C3120 1.387 . S
C3124 C3125 1.387 . S
C3124 H3128 0.950 . S
C3124 C3133 1.390 . S
C3125 C3124 1.387 . S
C3125 C3127 1.387 . S
H3126 C3133 0.950 . S
C3127 C3125 1.387 . S
C3127 C3129 1.390 . S
C3127 H3131 0.950 . S
H3128 C3124 0.950 . S
C3129 C3127 1.390 . S
C3129 C3130 1.387 . S
C3129 H3132 0.950 . S
C3130 C3129 1.387 . S
C3130 C3133 1.387 . S
H3131 C3127 0.950 . S
H3132 C3129 0.950 . S
C3133 C3124 1.390 . S
C3133 H3126 0.950 . S
C3133 C3130 1.387 . S
C3134 C3135 1.387 . S
C3134 H3138 0.950 . S
C3134 C3143 1.390 . S
C3135 C3134 1.387 . S
C3135 C3137 1.387 . S
H3136 C3143 0.950 . S
C3137 C3135 1.387 . S
C3137 C3139 1.390 . S
C3137 H3141 0.950 . S
H3138 C3134 0.950 . S
C3139 C3137 1.390 . S
C3139 C3140 1.387 . S
C3139 H3142 0.950 . S
C3140 C3139 1.387 . S
C3140 C3143 1.387 . S
H3141 C3137 0.950 . S
H3142 C3139 0.950 . S
C3143 C3134 1.390 . S
C3143 H3136 0.950 . S
C3143 C3140 1.387 . S
C3144 C3145 1.387 . S
C3144 H3148 0.950 . S
C3144 C3153 1.390 . S
C3145 C3144 1.387 . S
C3145 C3147 1.387 . S
H3146 C3153 0.950 . S
C3147 C3145 1.387 . S
C3147 C3149 1.390 . S
C3147 H3151 0.950 . S
H3148 C3144 0.950 . S
C3149 C3147 1.390 . S
C3149 C3150 1.387 . S
C3149 H3152 0.950 . S
C3150 C3149 1.387 . S
C3150 C3153 1.387 . S
H3151 C3147 0.950 . S
H3152 C3149 0.950 . S
C3153 C3144 1.390 . S
C3153 H3146 0.950 . S
C3153 C3150 1.387 . S
C3154 C3155 1.387 . S
C3154 H3158 0.950 . S
C3154 C3163 1.390 . S
C3155 C3154 1.387 . S
C3155 C3157 1.387 . S
H3156 C3163 0.950 . S
C3157 C3155 1.387 . S
C3157 C3159 1.390 . S
C3157 H3161 0.950 . S
H3158 C3154 0.950 . S
C3159 C3157 1.390 . S
C3159 C3160 1.387 . S
C3159 H3162 0.950 . S
C3160 C3159 1.387 . S
C3160 C3163 1.387 . S
H3161 C3157 0.950 . S
H3162 C3159 0.950 . S
C3163 C3154 1.390 . S
C3163 H3156 0.950 . S
C3163 C3160 1.387 . S
C3164 C3165 1.387 . S
C3164 H3168 0.950 . S
C3164 C3173 1.390 . S
C3165 C3164 1.387 . S
C3165 C3167 1.387 . S
H3166 C3173 0.950 . S
C3167 C3165 1.387 . S
C3167 C3169 1.390 . S
C3167 H3171 0.950 . S
H3168 C3164 0.950 . S
C3169 C3167 1.390 . S
C3169 C3170 1.387 . S
C3169 H3172 0.950 . S
C3170 C3169 1.387 . S
C3170 C3173 1.387 . S
H3171 C3167 0.950 . S
H3172 C3169 0.950 . S
C3173 C3164 1.390 . S
C3173 H3166 0.950 . S
C3173 C3170 1.387 . S
C3174 C3175 1.387 . S
C3174 H3178 0.950 . S
C3174 C3183 1.390 . S
C3175 C3174 1.387 . S
C3175 C3177 1.387 . S
H3176 C3183 0.950 . S
C3177 C3175 1.387 . S
C3177 C3179 1.390 . S
C3177 H3181 0.950 . S
H3178 C3174 0.950 . S
C3179 C3177 1.390 . S
C3179 C3180 1.387 . S
C3179 H3182 0.950 . S
C3180 C3179 1.387 . S
C3180 C3183 1.387 . S
H3181 C3177 0.950 . S
H3182 C3179 0.950 . S
C3183 C3174 1.390 . S
C3183 H3176 0.950 . S
C3183 C3180 1.387 . S
C3184 C3185 1.387 . S
C3184 H3188 0.950 . S
C3184 C3193 1.390 . S
C3185 C3184 1.387 . S
C3185 C3187 1.387 . S
H3186 C3193 0.950 . S
C3187 C3185 1.387 . S
C3187 C3189 1.390 . S
C3187 H3191 0.950 . S
H3188 C3184 0.950 . S
C3189 C3187 1.390 . S
C3189 C3190 1.387 . S
C3189 H3192 0.950 . S
C3190 C3189 1.387 . S
C3190 C3193 1.387 . S
H3191 C3187 0.950 . S
H3192 C3189 0.950 . S
C3193 C3184 1.390 . S
C3193 H3186 0.950 . S
C3193 C3190 1.387 . S
C3194 C3195 1.387 . S
C3194 H3198 0.950 . S
C3194 C3203 1.390 . S
C3195 C3194 1.387 . S
C3195 C3197 1.387 . S
H3196 C3203 0.950 . S
C3197 C3195 1.387 . S
C3197 C3199 1.390 . S
C3197 H3201 0.950 . S
H3198 C3194 0.950 . S
C3199 C3197 1.390 . S
C3199 C3200 1.387 . S
C3199 H3202 0.950 . S
C3200 C3199 1.387 . S
C3200 C3203 1.387 . S
H3201 C3197 0.950 . S
H3202 C3199 0.950 . S
C3203 C3194 1.390 . S
C3203 H3196 0.950 . S
C3203 C3200 1.387 . S
C3204 C3205 1.387 . S
C3204 H3208 0.950 . S
C3204 C3213 1.390 . S
C3205 C3204 1.387 . S
C3205 C3207 1.387 . S
H3206 C3213 0.950 . S
C3207 C3205 1.387 . S
C3207 C3209 1.390 . S
C3207 H3211 0.950 . S
H3208 C3204 0.950 . S
C3209 C3207 1.390 . S
C3209 C3210 1.387 . S
C3209 H3212 0.950 . S
C3210 C3209 1.387 . S
C3210 C3213 1.387 . S
H3211 C3207 0.950 . S
H3212 C3209 0.950 . S
C3213 C3204 1.390 . S
C3213 H3206 0.950 . S
C3213 C3210 1.387 . S
C3214 C3215 1.387 . S
C3214 H3218 0.950 . S
C3214 C3223 1.390 . S
C3215 C3214 1.387 . S
C3215 C3217 1.387 . S
H3216 C3223 0.950 . S
C3217 C3215 1.387 . S
C3217 C3219 1.390 . S
C3217 H3221 0.950 . S
H3218 C3214 0.950 . S
C3219 C3217 1.390 . S
C3219 C3220 1.387 . S
C3219 H3222 0.950 . S
C3220 C3219 1.387 . S
C3220 C3223 1.387 . S
H3221 C3217 0.950 . S
H3222 C3219 0.950 . S
C3223 C3214 1.390 . S
C3223 H3216 0.950 . S
C3223 C3220 1.387 . S
C3224 C3225 1.387 . S
C3224 H3228 0.950 . S
C3224 C3233 1.390 . S
C3225 C3224 1.387 . S
C3225 C3227 1.387 . S
H3226 C3233 0.950 . S
C3227 C3225 1.387 . S
C3227 C3229 1.390 . S
C3227 H3231 0.950 . S
H3228 C3224 0.950 . S
C3229 C3227 1.390 . S
C3229 C3230 1.387 . S
C3229 H3232 0.950 . S
C3230 C3229 1.387 . S
C3230 C3233 1.387 . S
H3231 C3227 0.950 . S
H3232 C3229 0.950 . S
C3233 C3224 1.390 . S
C3233 H3226 0.950 . S
C3233 C3230 1.387 . S
C3234 C3235 1.387 . S
C3234 H3238 0.950 . S
C3234 C3243 1.390 . S
C3235 C3234 1.387 . S
C3235 C3237 1.387 . S
H3236 C3243 0.950 . S
C3237 C3235 1.387 . S
C3237 C3239 1.390 . S
C3237 H3241 0.950 . S
H3238 C3234 0.950 . S
C3239 C3237 1.390 . S
C3239 C3240 1.387 . S
C3239 H3242 0.950 . S
C3240 C3239 1.387 . S
C3240 C3243 1.387 . S
H3241 C3237 0.950 . S
H3242 C3239 0.950 . S
C3243 C3234 1.390 . S
C3243 H3236 0.950 . S
C3243 C3240 1.387 . S
C3244 C3245 1.387 . S
C3244 H3248 0.950 . S
C3244 C3253 1.390 . S
C3245 C3244 1.387 . S
C3245 C3247 1.387 . S
H3246 C3253 0.950 . S
C3247 C3245 1.387 . S
C3247 C3249 1.390 . S
C3247 H3251 0.950 . S
H3248 C3244 0.950 . S
C3249 C3247 1.390 . S
C3249 C3250 1.387 . S
C3249 H3252 0.950 . S
C3250 C3249 1.387 . S
C3250 C3253 1.387 . S
H3251 C3247 0.950 . S
H3252 C3249 0.950 . S
C3253 C3244 1.390 . S
C3253 H3246 0.950 . S
C3253 C3250 1.387 . S
C3254 C3255 1.387 . S
C3254 H3258 0.950 . S
C3254 C3263 1.390 . S
C3255 C3254 1.387 . S
C3255 C3257 1.387 . S
H3256 C3263 0.950 . S
C3257 C3255 1.387 . S
C3257 C3259 1.390 . S
C3257 H3261 0.950 . S
H3258 C3254 0.950 . S
C3259 C3257 1.390 . S
C3259 C3260 1.387 . S
C3259 H3262 0.950 . S
C3260 C3259 1.387 . S
C3260 C3263 1.387 . S
H3261 C3257 0.950 . S
H3262 C3259 0.950 . S
C3263 C3254 1.390 . S
C3263 H3256 0.950 . S
C3263 C3260 1.387 . S
C1345 C1 1.567 . S
C1350 C127 1.567 . S
C1355 C141 1.567 . S
C1360 C15 1.567 . S
C1365 C41 1.567 . S
C1370 C154 1.569 . S
C1375 C43 1.565 . S
C1380 C124 1.566 . S
C1385 C57 1.564 . S
C1390 C211 1.564 . S
C1395 C180 1.568 . S
C1400 C83 1.566 . S
C1405 C97 1.564 . S
C1410 C195 1.564 . S
C1415 C197 1.565 . S
C1420 C98 1.566 . S
C1425 C264 1.568 . S
C1430 C225 1.567 . S
C1435 C239 1.566 . S
C1440 C992 1.568 . S
C1445 C1006 1.568 . S
C1450 C266 1.568 . S
C1455 C292 1.568 . S
C1460 C978 1.568 . S
C1465 C964 1.566 . S
C1470 C306 1.566 . S
C1475 C911 1.566 . S
C1480 C309 1.566 . S
C1485 C323 1.567 . S
C1490 C939 1.567 . S
C1495 C337 1.567 . S
C1500 C463 1.567 . S
C1505 C350 1.566 . S
C1510 C476 1.566 . S
C1515 C490 1.564 . S
C1520 C365 1.566 . S
C1525 C461 1.569 . S
C1530 C391 1.569 . S
C1535 C547 1.566 . S
C1540 C393 1.566 . S
C1545 C407 1.568 . S
C1550 C517 1.568 . S
C1555 C433 1.569 . S
C1560 C519 1.569 . S
C1565 C446 1.565 . S
C1570 C545 1.566 . S
C1575 C561 1.569 . S
C1580 C601 1.569 . S
C1585 C575 1.569 . S
C1590 C1329 1.569 . S
C1595 C1343 1.568 . S
C1600 C602 1.567 . S
C1605 C629 1.566 . S
C1610 C1303 1.566 . S
C1615 C631 1.566 . S
C1620 C1301 1.566 . S
C1625 C657 1.568 . S
C1630 C1258 1.567 . S
C1635 C671 1.568 . S
C1640 C1274 1.567 . S
C1645 C672 1.566 . S
C1650 C799 1.564 . S
C1655 C824 1.566 . S
C1660 C699 1.565 . S
C1665 C827 1.566 . S
C1670 C701 1.566 . S
C1675 C727 1.564 . S
C1680 C785 1.564 . S
C1685 C740 1.569 . S
C1690 C882 1.569 . S
C1695 C742 1.567 . S
C1700 C852 1.567 . S
C1705 C756 1.566 . S
C1710 C855 1.564 . S
C1715 C869 1.565 . S
C1720 C782 1.567 . S
C1725 C896 1.566 . S
C1730 C925 1.565 . S
C1735 C1008 1.567 . S
C1740 C1135 1.569 . S
C1745 C1035 1.568 . S
C1750 C1148 1.567 . S
C1755 C1162 1.564 . S
C1760 C1036 1.564 . S
C1765 C1133 1.567 . S
C1770 C1050 1.565 . S
C1775 C1076 1.564 . S
C1780 C1218 1.564 . S
C1785 C1189 1.568 . S
C1790 C1079 1.568 . S
C1795 C1203 1.569 . S
C1800 C1092 1.567 . S
C1805 C1217 1.567 . S
C1810 C1107 1.567 . S
C1815 C1245 1.566 . S
C1820 C1273 1.566 . S
C1825 C13 2.150 1_655 S
C1830 C280 2.155 . S
C1835 C27 2.150 . S
C1840 C923 2.150 . S
C1845 C937 2.150 . S
C1850 C29 2.149 . S
C1855 C951 2.149 1_554 S
C1860 C55 2.150 . S
C1865 C69 2.148 1_655 S
C1870 C994 2.152 . S
C1875 C294 2.152 . S
C1880 C71 2.147 . S
C1885 C85 2.147 . S
C1890 C980 2.152 . S
C1895 C110 2.154 . S
C1900 C237 2.150 1_556 S
C1905 C112 2.152 1_565 S
C1910 C223 2.148 . S
C1915 C168 2.154 1_545 S
C1920 C139 2.148 . S
C1925 C153 2.147 1_545 S
C1930 C183 2.148 . S
C1935 C166 2.153 . S
C1940 C209 2.149 1_565 S
C1945 C687 2.150 . S
C1950 C251 2.150 1_554 S
C1955 C713 2.147 1_455 S
C1960 C252 2.152 . S
C1965 C715 2.150 . S
C1970 C278 2.155 . S
C1975 C768 2.152 1_455 S
C1980 C321 2.147 . S
C1985 C335 2.147 . S
C1990 C728 2.153 . S
C1995 C349 2.153 1_455 S
C2000 C617 2.154 . S
C2005 C362 2.147 . S
C2010 C1246 2.147 . S
C2015 C1261 2.153 . S
C2020 C377 2.152 . S
C2025 C1286 2.150 1_556 S
C2030 C379 2.154 . S
C2035 C1331 2.152 . S
C2040 C405 2.152 1_455 S
C2045 C643 2.155 . S
C2050 C419 2.155 . S
C2055 C421 2.153 . S
C2060 C1317 2.154 . S
C2065 C434 2.149 . S
C2070 C573 2.153 1_554 S
C2075 C559 2.152 . S
C2080 C449 2.152 1_545 S
C2085 C475 2.153 . S
C2090 C505 2.154 1_565 S
C2095 C531 2.153 . S
C2100 C488 2.147 1_565 S
C2105 C502 2.149 . S
C2110 C533 2.153 1_545 S
C2115 C1023 2.152 . S
C2120 C587 2.152 1_556 S
C2125 C589 2.155 . S
C2130 C1048 2.149 1_655 S
C2135 C614 2.149 . S
C2140 C1062 2.150 . S
C2145 C645 2.152 . S
C2150 C1104 2.147 1_655 S
C2155 C659 2.154 . S
C2160 C1064 2.149 . S
C2165 C684 2.152 . S
C2170 C952 2.152 . S
C2175 C966 2.154 1_556 S
C2180 C754 2.155 . S
C2185 C770 2.152 . S
C2190 C908 2.152 . S
C2195 C894 2.153 . S
C2200 C797 2.147 . S
C2205 C840 2.152 . S
C2210 C811 2.147 . S
C2215 C812 2.153 . S
C2220 C867 2.147 . S
C2225 C839 2.148 . S
C2230 C881 2.149 . S
C2235 C1289 2.154 . S
C2240 C1020 2.148 . S
C2245 C1091 2.153 . S
C2250 C1315 2.154 1_554 S
C2255 C1233 2.152 . S
C2260 C1119 2.152 . S
C2265 C1121 2.153 . S
C2270 C1230 2.149 . S
C2275 C1177 2.153 . S
C2280 C1147 2.154 . S
C2285 C1160 2.148 . S
C2290 C1191 2.154 . S
C2295 C1205 2.153 . S
C2300 C1174 2.147 . S
C2305 C12 1.559 . S
C2310 C603 1.624 . S
C2315 C628 1.625 . S
C2320 C26 1.559 . S
C2325 C574 1.625 . S
C2330 C28 1.559 . S
C2335 C54 1.556 . S
C2340 C1272 1.623 . S
C2345 C68 1.559 . S
C2350 C1302 1.625 . S
C2355 C70 1.560 . S
C2360 C1328 1.624 . S
C2365 C1244 1.625 . S
C2370 C84 1.560 . S
C2375 C1342 1.625 . S
C2380 C111 1.556 . S
C2385 C364 1.623 . S
C2390 C113 1.554 . S
C2395 C138 1.560 . S
C2400 C1051 1.624 . S
C2405 C336 1.623 . S
C2410 C152 1.556 . S
C2415 C1034 1.624 . S
C2420 C167 1.555 . S
C2425 C432 1.625 . S
C2430 C169 1.555 . S
C2435 C182 1.559 . S
C2440 C1106 1.625 . S
C2445 C208 1.558 . S
C2450 C392 1.623 . S
C2455 C222 1.556 . S
C2460 C1078 1.623 . S
C2465 C236 1.559 . S
C2470 C1188 1.625 . S
C2475 C460 1.623 . S
C2480 C250 1.556 . S
C2485 C253 1.555 . S
C2490 C1134 1.625 . S
C2495 C279 1.556 . S
C2500 C477 1.625 . S
C2505 C281 1.554 . S
C2510 C491 1.623 . S
C2515 C295 1.556 . S
C2520 C1216 1.625 . S
C2525 C1219 1.623 . S
C2530 C320 1.557 . S
C2535 C1202 1.623 . S
C2540 C334 1.557 . S
C2545 C267 1.623 . S
C2550 C348 1.553 . S
C2555 C363 1.559 . S
C2560 C293 1.625 . S
C2565 C376 1.554 . S
C2570 C238 1.623 . S
C2575 C378 1.556 . S
C2580 C924 1.625 . S
C2585 C979 1.624 . S
C2590 C404 1.556 . S
C2595 C993 1.625 . S
C2600 C418 1.556 . S
C2605 C420 1.554 . S
C2610 C897 1.623 . S
C2615 C1007 1.623 . S
C2620 C435 1.556 . S
C2625 C448 1.556 . S
C2630 C40 1.624 . S
C2635 C726 1.623 . S
C2640 C474 1.555 . S
C2645 C489 1.560 . S
C2650 C0 1.624 . S
C2655 C698 1.624 . S
C2660 C503 1.559 . S
C2665 C504 1.554 . S
C2670 C96 1.623 . S
C2675 C783 1.624 . S
C2680 C530 1.554 . S
C2685 C56 1.625 . S
C2690 C532 1.556 . S
C2695 C743 1.623 . S
C2700 C558 1.552 . S
C2705 C572 1.553 . S
C2710 C853 1.623 . S
C2715 C586 1.556 . S
C2720 C125 1.625 . S
C2725 C798 1.625 . S
C2730 C588 1.556 . S
C2735 C615 1.556 . S
C2740 C140 1.622 . S
C2745 C155 1.623 . S
C2750 C616 1.553 . S
C2755 C868 1.624 . S
C2760 C642 1.556 . S
C2765 C883 1.623 . S
C2770 C644 1.553 . S
C2775 C854 1.624 . S
C2780 C658 1.556 . S
C2785 C685 1.556 . S
C2790 C1275 1.625 . S
C2795 C686 1.560 . S
C2800 C1300 1.625 . S
C2805 C712 1.558 . S
C2810 C1259 1.623 . S
C2815 C600 1.625 . S
C2820 C714 1.559 . S
C2825 C729 1.553 . S
C2830 C630 1.623 . S
C2835 C656 1.623 . S
C2840 C755 1.552 . S
C2845 C560 1.625 . S
C2850 C769 1.555 . S
C2855 C670 1.625 . S
C2860 C771 1.555 . S
C2865 C796 1.556 . S
C2870 C1037 1.622 . S
C2875 C390 1.624 . S
C2880 C810 1.560 . S
C2885 C813 1.556 . S
C2890 C1009 1.624 . S
C2895 C838 1.556 . S
C2900 C351 1.623 . S
C2905 C841 1.554 . S
C2910 C1093 1.623 . S
C2915 C866 1.556 . S
C2920 C447 1.623 . S
C2925 C1077 1.624 . S
C2930 C880 1.558 . S
C2935 C406 1.625 . S
C2940 C895 1.555 . S
C2945 C909 1.556 . S
C2950 C516 1.625 . S
C2955 C922 1.560 . S
C2960 C1132 1.625 . S
C2965 C936 1.557 . S
C2970 C462 1.624 . S
C2975 C1149 1.622 . S
C2980 C950 1.556 . S
C2985 C953 1.554 . S
C2990 C1163 1.623 . S
C2995 C967 1.552 . S
C3000 C544 1.623 . S
C3005 C546 1.623 . S
C3010 C981 1.553 . S
C3015 C995 1.555 . S
C3020 C518 1.625 . S
C3025 C1021 1.559 . S
C3030 C938 1.625 . S
C3035 C965 1.625 . S
C3040 C1022 1.556 . S
C3045 C910 1.622 . S
C3050 C1049 1.557 . S
C3055 C1063 1.557 . S
C3060 C265 1.623 . S
C3065 C1065 1.557 . S
C3070 C307 1.623 . S
C3075 C1090 1.556 . S
C3080 C308 1.624 . S
C3085 C224 1.623 . S
C3090 C1105 1.559 . S
C3095 C1118 1.554 . S
C3100 C322 1.623 . S
C3105 C1120 1.555 . S
C3110 C700 1.624 . S
C3115 C1146 1.552 . S
C3120 C42 1.623 . S
C3125 C1161 1.558 . S
C3130 C673 1.624 . S
C3135 C1175 1.558 . S
C3140 C14 1.624 . S
C3145 C1176 1.556 . S
C3150 C757 1.625 . S
C3155 C1190 1.552 . S
C3160 C99 1.623 . S
C3165 C1204 1.553 . S
C3170 C741 1.623 . S
C3175 C1231 1.559 . S
C3180 C82 1.624 . S
C3185 C1232 1.553 . S
C3190 C181 1.623 . S
C3195 C1247 1.559 . S
C3200 C784 1.625 . S
C3205 C1260 1.556 . S
C3210 C126 1.624 . S
C3215 C1287 1.559 . S
C3220 C825 1.625 . S
C3225 C1288 1.556 . S
C3230 C826 1.625 . S
C3235 C196 1.625 . S
C3240 C1314 1.556 . S
C3245 C1316 1.555 . S
C3250 C210 1.624 . S
C3255 C1330 1.555 . S
C3260 C194 1.624 . S
