# Generated by pormake.
# Topology ukm, (4)-cn, num edge types: 1
# Building blocks:
#     Node 0, Type 0, BuildingBlock: NAHDIM_clean_sbu_0, # of connection points: 4
#     Node 1, Type 0, BuildingBlock: NAHDIM_clean_sbu_0, # of connection points: 4
#     Node 2, Type 0, BuildingBlock: NAHDIM_clean_sbu_0, # of connection points: 4
#     Node 3, Type 0, BuildingBlock: NAHDIM_clean_sbu_0, # of connection points: 4
#     Node 4, Type 0, BuildingBlock: NAHDIM_clean_sbu_0, # of connection points: 4
#     Node 5, Type 0, BuildingBlock: NAHDIM_clean_sbu_0, # of connection points: 4
#     Node 6, Type 0, BuildingBlock: NAHDIM_clean_sbu_0, # of connection points: 4
#     Node 7, Type 0, BuildingBlock: NAHDIM_clean_sbu_0, # of connection points: 4
#     Node 8, Type 0, BuildingBlock: NAHDIM_clean_sbu_0, # of connection points: 4
#     Node 9, Type 0, BuildingBlock: NAHDIM_clean_sbu_0, # of connection points: 4
#     Node 10, Type 0, BuildingBlock: NAHDIM_clean_sbu_0, # of connection points: 4
#     Node 11, Type 0, BuildingBlock: NAHDIM_clean_sbu_0, # of connection points: 4
#     Node 12, Type 0, BuildingBlock: NAHDIM_clean_sbu_0, # of connection points: 4
#     Node 13, Type 0, BuildingBlock: NAHDIM_clean_sbu_0, # of connection points: 4
#     Node 14, Type 0, BuildingBlock: NAHDIM_clean_sbu_0, # of connection points: 4
#     Node 15, Type 0, BuildingBlock: NAHDIM_clean_sbu_0, # of connection points: 4
#     Node 16, Type 0, BuildingBlock: NAHDIM_clean_sbu_0, # of connection points: 4
#     Node 17, Type 0, BuildingBlock: NAHDIM_clean_sbu_0, # of connection points: 4
#     Node 18, Type 0, BuildingBlock: NAHDIM_clean_sbu_0, # of connection points: 4
#     Node 19, Type 0, BuildingBlock: NAHDIM_clean_sbu_0, # of connection points: 4
#     Node 20, Type 0, BuildingBlock: NAHDIM_clean_sbu_0, # of connection points: 4
#     Node 21, Type 0, BuildingBlock: NAHDIM_clean_sbu_0, # of connection points: 4
#     Node 22, Type 0, BuildingBlock: NAHDIM_clean_sbu_0, # of connection points: 4
#     Node 23, Type 0, BuildingBlock: NAHDIM_clean_sbu_0, # of connection points: 4
#     Node 24, Type 0, BuildingBlock: NAHDIM_clean_sbu_0, # of connection points: 4
#     Node 25, Type 0, BuildingBlock: NAHDIM_clean_sbu_0, # of connection points: 4
#     Node 26, Type 0, BuildingBlock: NAHDIM_clean_sbu_0, # of connection points: 4
#     Node 27, Type 0, BuildingBlock: NAHDIM_clean_sbu_0, # of connection points: 4
#     Node 28, Type 0, BuildingBlock: NAHDIM_clean_sbu_0, # of connection points: 4
#     Node 29, Type 0, BuildingBlock: NAHDIM_clean_sbu_0, # of connection points: 4
#     Node 30, Type 0, BuildingBlock: NAHDIM_clean_sbu_0, # of connection points: 4
#     Node 31, Type 0, BuildingBlock: NAHDIM_clean_sbu_0, # of connection points: 4
#     Edge 32, Type (0, 0), BuildingBlock: UVAHIK_clean_linker_0, # of connection points: 2
#     Edge 33, Type (0, 0), BuildingBlock: UVAHIK_clean_linker_0, # of connection points: 2
#     Edge 34, Type (0, 0), BuildingBlock: UVAHIK_clean_linker_0, # of connection points: 2
#     Edge 35, Type (0, 0), BuildingBlock: UVAHIK_clean_linker_0, # of connection points: 2
#     Edge 36, Type (0, 0), BuildingBlock: UVAHIK_clean_linker_0, # of connection points: 2
#     Edge 37, Type (0, 0), BuildingBlock: UVAHIK_clean_linker_0, # of connection points: 2
#     Edge 38, Type (0, 0), BuildingBlock: UVAHIK_clean_linker_0, # of connection points: 2
#     Edge 39, Type (0, 0), BuildingBlock: UVAHIK_clean_linker_0, # of connection points: 2
#     Edge 40, Type (0, 0), BuildingBlock: UVAHIK_clean_linker_0, # of connection points: 2
#     Edge 41, Type (0, 0), BuildingBlock: UVAHIK_clean_linker_0, # of connection points: 2
#     Edge 42, Type (0, 0), BuildingBlock: UVAHIK_clean_linker_0, # of connection points: 2
#     Edge 43, Type (0, 0), BuildingBlock: UVAHIK_clean_linker_0, # of connection points: 2
#     Edge 44, Type (0, 0), BuildingBlock: UVAHIK_clean_linker_0, # of connection points: 2
#     Edge 45, Type (0, 0), BuildingBlock: UVAHIK_clean_linker_0, # of connection points: 2
#     Edge 46, Type (0, 0), BuildingBlock: UVAHIK_clean_linker_0, # of connection points: 2
#     Edge 47, Type (0, 0), BuildingBlock: UVAHIK_clean_linker_0, # of connection points: 2
#     Edge 48, Type (0, 0), BuildingBlock: UVAHIK_clean_linker_0, # of connection points: 2
#     Edge 49, Type (0, 0), BuildingBlock: UVAHIK_clean_linker_0, # of connection points: 2
#     Edge 50, Type (0, 0), BuildingBlock: UVAHIK_clean_linker_0, # of connection points: 2
#     Edge 51, Type (0, 0), BuildingBlock: UVAHIK_clean_linker_0, # of connection points: 2
#     Edge 52, Type (0, 0), BuildingBlock: UVAHIK_clean_linker_0, # of connection points: 2
#     Edge 53, Type (0, 0), BuildingBlock: UVAHIK_clean_linker_0, # of connection points: 2
#     Edge 54, Type (0, 0), BuildingBlock: UVAHIK_clean_linker_0, # of connection points: 2
#     Edge 55, Type (0, 0), BuildingBlock: UVAHIK_clean_linker_0, # of connection points: 2
#     Edge 56, Type (0, 0), BuildingBlock: UVAHIK_clean_linker_0, # of connection points: 2
#     Edge 57, Type (0, 0), BuildingBlock: UVAHIK_clean_linker_0, # of connection points: 2
#     Edge 58, Type (0, 0), BuildingBlock: UVAHIK_clean_linker_0, # of connection points: 2
#     Edge 59, Type (0, 0), BuildingBlock: UVAHIK_clean_linker_0, # of connection points: 2
#     Edge 60, Type (0, 0), BuildingBlock: UVAHIK_clean_linker_0, # of connection points: 2
#     Edge 61, Type (0, 0), BuildingBlock: UVAHIK_clean_linker_0, # of connection points: 2
#     Edge 62, Type (0, 0), BuildingBlock: UVAHIK_clean_linker_0, # of connection points: 2
#     Edge 63, Type (0, 0), BuildingBlock: UVAHIK_clean_linker_0, # of connection points: 2
#     Edge 64, Type (0, 0), BuildingBlock: UVAHIK_clean_linker_0, # of connection points: 2
#     Edge 65, Type (0, 0), BuildingBlock: UVAHIK_clean_linker_0, # of connection points: 2
#     Edge 66, Type (0, 0), BuildingBlock: UVAHIK_clean_linker_0, # of connection points: 2
#     Edge 67, Type (0, 0), BuildingBlock: UVAHIK_clean_linker_0, # of connection points: 2
#     Edge 68, Type (0, 0), BuildingBlock: UVAHIK_clean_linker_0, # of connection points: 2
#     Edge 69, Type (0, 0), BuildingBlock: UVAHIK_clean_linker_0, # of connection points: 2
#     Edge 70, Type (0, 0), BuildingBlock: UVAHIK_clean_linker_0, # of connection points: 2
#     Edge 71, Type (0, 0), BuildingBlock: UVAHIK_clean_linker_0, # of connection points: 2
#     Edge 72, Type (0, 0), BuildingBlock: UVAHIK_clean_linker_0, # of connection points: 2
#     Edge 73, Type (0, 0), BuildingBlock: UVAHIK_clean_linker_0, # of connection points: 2
#     Edge 74, Type (0, 0), BuildingBlock: UVAHIK_clean_linker_0, # of connection points: 2
#     Edge 75, Type (0, 0), BuildingBlock: UVAHIK_clean_linker_0, # of connection points: 2
#     Edge 76, Type (0, 0), BuildingBlock: UVAHIK_clean_linker_0, # of connection points: 2
#     Edge 77, Type (0, 0), BuildingBlock: UVAHIK_clean_linker_0, # of connection points: 2
#     Edge 78, Type (0, 0), BuildingBlock: UVAHIK_clean_linker_0, # of connection points: 2
#     Edge 79, Type (0, 0), BuildingBlock: UVAHIK_clean_linker_0, # of connection points: 2
#     Edge 80, Type (0, 0), BuildingBlock: UVAHIK_clean_linker_0, # of connection points: 2
#     Edge 81, Type (0, 0), BuildingBlock: UVAHIK_clean_linker_0, # of connection points: 2
#     Edge 82, Type (0, 0), BuildingBlock: UVAHIK_clean_linker_0, # of connection points: 2
#     Edge 83, Type (0, 0), BuildingBlock: UVAHIK_clean_linker_0, # of connection points: 2
#     Edge 84, Type (0, 0), BuildingBlock: UVAHIK_clean_linker_0, # of connection points: 2
#     Edge 85, Type (0, 0), BuildingBlock: UVAHIK_clean_linker_0, # of connection points: 2
#     Edge 86, Type (0, 0), BuildingBlock: UVAHIK_clean_linker_0, # of connection points: 2
#     Edge 87, Type (0, 0), BuildingBlock: UVAHIK_clean_linker_0, # of connection points: 2
#     Edge 88, Type (0, 0), BuildingBlock: UVAHIK_clean_linker_0, # of connection points: 2
#     Edge 89, Type (0, 0), BuildingBlock: UVAHIK_clean_linker_0, # of connection points: 2
#     Edge 90, Type (0, 0), BuildingBlock: UVAHIK_clean_linker_0, # of connection points: 2
#     Edge 91, Type (0, 0), BuildingBlock: UVAHIK_clean_linker_0, # of connection points: 2
#     Edge 92, Type (0, 0), BuildingBlock: UVAHIK_clean_linker_0, # of connection points: 2
#     Edge 93, Type (0, 0), BuildingBlock: UVAHIK_clean_linker_0, # of connection points: 2
#     Edge 94, Type (0, 0), BuildingBlock: UVAHIK_clean_linker_0, # of connection points: 2
#     Edge 95, Type (0, 0), BuildingBlock: UVAHIK_clean_linker_0, # of connection points: 2
# Relax obj value: 0.265
# Max RMSD: 0.216
# Mean RMSD: 0.216
data_MOF--net-ukm--node1-NAHDIM_clean_sbu_0--edge1-UVAHIK_clean_linker_0
_symmetry_space_group_name_H-M    P1
_symmetry_Int_Tables_number       1
_symmetry_cell_setting            triclinic
loop_
_symmetry_equiv_pos_as_xyz
'x, y, z'
_cell_length_a     33.441484
_cell_length_b     133.90127
_cell_length_c     49.55691
_cell_angle_alpha  89.986811
_cell_angle_beta   90.003632
_cell_angle_gamma 90.019082
loop_
_atom_site_label
_atom_site_type_symbol
_atom_site_fract_x
_atom_site_fract_y
_atom_site_fract_z
_atom_type_partial_charge
C0 C 0.10934 0.27895 0.29853 0.0
O1 O 0.14423 0.28025 0.28691 0.0
O2 O 0.18684 0.29367 0.3372 0.0
Zn3 Zn 0.13242 0.29733 0.32205 0.0
O4 O 0.13793 0.304 0.28603 0.0
C5 C 0.12519 0.31347 0.35948 0.0
O6 O 0.16398 0.31208 0.36139 0.0
O7 O 0.09769 0.28525 0.31603 0.0
C8 C 0.16286 0.31086 0.28044 0.0
O9 O 0.18884 0.31378 0.29868 0.0
C10 C 0.2167 0.29197 0.32197 0.0
O11 O 0.21189 0.29217 0.29568 0.0
O12 O 0.10466 0.3075 0.34518 0.0
C13 C 0.13936 0.95284 0.27587 0.0
O14 O 0.10088 0.95336 0.27067 0.0
O15 O 0.06561 0.93576 0.30233 0.0
Zn16 Zn 0.11713 0.93277 0.28258 0.0
O17 O 0.10508 0.9305 0.24337 0.0
C18 C 0.12684 0.91216 0.29179 0.0
O19 O 0.09364 0.91222 0.27762 0.0
O20 O 0.15409 0.94454 0.28335 0.0
C21 C 0.128 0.92547 0.22811 0.0
O22 O 0.16074 0.92152 0.23811 0.0
C23 C 0.03256 0.93288 0.29229 0.0
O24 O 0.03276 0.92791 0.26944 0.0
O25 O 0.14334 0.92044 0.29762 0.0
C26 C 0.04801 0.95611 0.88057 0.0
O27 O 0.08342 0.95544 0.86924 0.0
O28 O 0.12003 0.93739 0.88303 0.0
Zn29 Zn 0.06192 0.93539 0.89299 0.0
O30 O 0.05968 0.93218 0.93246 0.0
C31 C 0.05268 0.92194 0.84882 0.0
O32 O 0.07527 0.92864 0.83684 0.0
O33 O 0.03124 0.94821 0.88921 0.0
C34 C 0.06097 0.92351 0.94281 0.0
O35 O 0.0638 0.91563 0.92714 0.0
C36 C 0.14558 0.93065 0.88846 0.0
O37 O 0.13356 0.92237 0.90008 0.0
O38 O 0.03992 0.92373 0.87245 0.0
C39 C 0.16895 0.29115 0.9455 0.0
O40 O 0.13616 0.29224 0.93122 0.0
O41 O 0.11422 0.31263 0.92924 0.0
Zn42 Zn 0.16952 0.31284 0.94559 0.0
O43 O 0.16619 0.31937 0.98212 0.0
C44 C 0.24362 0.32207 0.92586 0.0
O45 O 0.26126 0.31725 0.94562 0.0
O46 O 0.18904 0.29883 0.95207 0.0
C47 C 0.19354 0.31773 -0.00064 0.0
O48 O 0.22391 0.31203 0.9927 0.0
C49 C 0.08359 0.31171 0.94425 0.0
O50 O 0.08844 0.31095 0.97048 0.0
O51 O 0.20634 0.32089 0.92191 0.0
C52 C 0.94604 0.69763 0.69806 0.0
O53 O 0.90756 0.69698 0.70309 0.0
O54 O 0.87879 0.67861 0.67965 0.0
Zn55 Zn 0.93473 0.67688 0.69428 0.0
O56 O 0.93166 0.67384 0.73405 0.0
C57 C 0.99176 0.66085 0.68479 0.0
O58 O 0.00752 0.66395 0.70755 0.0
O59 O 0.96498 0.68979 0.69131 0.0
C60 C 0.95984 0.6765 0.7497 0.0
O61 O 0.99134 0.68102 0.7396 0.0
C62 C 0.8488 0.67498 0.69202 0.0
O63 O 0.85461 0.66983 0.71424 0.0
O64 O 0.96183 0.66547 0.67502 0.0
C65 C 0.85055 0.04288 0.71385 0.0
O66 O 0.8882 0.04527 0.71788 0.0
O67 O 0.90133 0.0606 0.66644 0.0
Zn68 Zn 0.84901 0.06189 0.68686 0.0
O69 O 0.86069 0.06992 0.72027 0.0
C70 C 0.76937 0.06754 0.66965 0.0
O71 O 0.75836 0.06104 0.68805 0.0
O72 O 0.82863 0.04865 0.69984 0.0
C73 C 0.83423 0.07375 0.73547 0.0
O74 O 0.79629 0.07272 0.72927 0.0
C75 C 0.92432 0.06818 0.66702 0.0
O76 O 0.91172 0.07636 0.67889 0.0
O77 O 0.80644 0.0689 0.66507 0.0
C78 C 0.9721 0.04213 0.04242 0.0
O79 O 0.94227 0.04171 0.05962 0.0
O80 O 0.90522 0.06053 0.06298 0.0
Zn81 Zn 0.95942 0.0634 0.04685 0.0
O82 O 0.95263 0.07133 0.01286 0.0
C83 C 0.98648 0.0709 0.09796 0.0
O84 O 0.96679 0.06313 0.10725 0.0
O85 O 0.98645 0.05059 0.03598 0.0
C86 C 0.926 0.07794 0.00902 0.0
O87 O 0.90051 0.08006 0.02835 0.0
C88 C 0.87492 0.05828 0.04873 0.0
O89 O 0.87857 0.05772 0.02238 0.0
O90 O 0.99038 0.07192 0.07262 0.0
C91 C 0.8649 0.70404 0.1009 0.0
O92 O 0.89393 0.70386 0.11875 0.0
O93 O 0.94128 0.6852 0.10711 0.0
Zn94 Zn 0.88882 0.6835 0.08747 0.0
O95 O 0.89937 0.68063 0.04814 0.0
C96 C 0.86836 0.66336 0.09424 0.0
O97 O 0.90244 0.66266 0.08123 0.0
O98 O 0.85709 0.69622 0.08737 0.0
C99 C 0.93171 0.67742 0.03784 0.0
O100 O 0.96269 0.67562 0.05339 0.0
C101 C 0.96633 0.69133 0.09718 0.0
O102 O 0.95641 0.69643 0.07553 0.0
O103 O 0.85612 0.67195 0.10141 0.0
C104 C 0.15537 0.78009 0.81594 0.0
O105 O 0.19336 0.77893 0.82179 0.0
O106 O 0.23147 0.79882 0.82738 0.0
Zn107 Zn 0.17858 0.80074 0.80826 0.0
O108 O 0.18542 0.8026 0.76815 0.0
C109 C 0.17305 0.82115 0.81602 0.0
O110 O 0.20924 0.82 0.80623 0.0
O111 O 0.14196 0.78884 0.81182 0.0
C112 C 0.21492 0.80578 0.75445 0.0
O113 O 0.24857 0.80815 0.76653 0.0
C114 C 0.26073 0.79403 0.81734 0.0
O115 O 0.25673 0.78974 0.79365 0.0
O116 O 0.15227 0.81342 0.82098 0.0
C117 C 0.18647 0.44725 0.81038 0.0
O118 O 0.15886 0.44792 0.82914 0.0
O119 O 0.10796 0.4301 0.82409 0.0
Zn120 Zn 0.15969 0.42663 0.80529 0.0
O121 O 0.14732 0.42176 0.76796 0.0
C122 C 0.22356 0.41589 0.83452 0.0
O123 O 0.24175 0.42452 0.83746 0.0
O124 O 0.19345 0.43884 0.79953 0.0
C125 C 0.11494 0.41772 0.76015 0.0
O126 O 0.08569 0.41629 0.77741 0.0
C127 C 0.08388 0.43579 0.81147 0.0
O128 O 0.09426 0.43922 0.78762 0.0
O129 O 0.1895 0.41552 0.8232 0.0
C130 C 0.07765 0.45154 0.43195 0.0
O131 O 0.11451 0.44997 0.44009 0.0
O132 O 0.1451 0.43333 0.4064 0.0
Zn133 Zn 0.08926 0.43149 0.42086 0.0
O134 O 0.09387 0.42734 0.45977 0.0
C135 C 0.03586 0.41488 0.41043 0.0
O136 O 0.01925 0.41768 0.4332 0.0
O137 O 0.05898 0.44446 0.4204 0.0
C138 C 0.06654 0.42927 0.47682 0.0
O139 O 0.03443 0.43411 0.46895 0.0
C140 C 0.17105 0.42687 0.4132 0.0
O141 O 0.16017 0.41943 0.42887 0.0
O142 O 0.06362 0.42019 0.40037 0.0
C143 C 0.13197 0.78276 0.42834 0.0
O144 O 0.09728 0.78512 0.43903 0.0
O145 O 0.06826 0.8026 0.40768 0.0
Zn146 Zn 0.12707 0.80307 0.41672 0.0
O147 O 0.13481 0.80743 0.45534 0.0
C148 C 0.18617 0.81739 0.39638 0.0
O149 O 0.20629 0.81521 0.41833 0.0
O150 O 0.15059 0.78931 0.41468 0.0
C151 C 0.16645 0.80479 0.46767 0.0
O152 O 0.19363 0.79958 0.45473 0.0
C153 C 0.04252 0.80733 0.42157 0.0
O154 O 0.05442 0.81254 0.44254 0.0
O155 O 0.15348 0.81288 0.39154 0.0
C156 C 0.84842 0.20322 0.19463 0.0
O157 O 0.81199 0.20267 0.20447 0.0
O158 O 0.77835 0.18372 0.1721 0.0
Zn159 Zn 0.83218 0.18291 0.19041 0.0
O160 O 0.82524 0.18205 0.23062 0.0
C161 C 0.85508 0.16261 0.19175 0.0
O162 O 0.82665 0.16269 0.21003 0.0
O163 O 0.86404 0.1954 0.18465 0.0
C164 C 0.8569 0.18113 0.24457 0.0
O165 O 0.89167 0.18098 0.23222 0.0
C166 C 0.74815 0.17978 0.18348 0.0
O167 O 0.75296 0.17518 0.20667 0.0
O168 O 0.86276 0.17062 0.1789 0.0
C169 C 0.77411 0.53488 0.18474 0.0
O170 O 0.80688 0.53591 0.1704 0.0
O171 O 0.83324 0.55666 0.1733 0.0
Zn172 Zn 0.77787 0.55654 0.18939 0.0
O173 O 0.78099 0.56179 0.2271 0.0
C174 C 0.74995 0.5676 0.14373 0.0
O175 O 0.77531 0.56178 0.13098 0.0
O176 O 0.75565 0.54263 0.19273 0.0
C177 C 0.80511 0.56851 0.23499 0.0
O178 O 0.83013 0.57255 0.21771 0.0
C179 C 0.86389 0.55346 0.18575 0.0
O180 O 0.85962 0.54951 0.20985 0.0
O181 O 0.74333 0.56604 0.1686 0.0
C182 C 0.87269 0.53496 0.55069 0.0
O183 O 0.8354 0.53678 0.54395 0.0
O184 O 0.81224 0.5528 0.5904 0.0
Zn185 Zn 0.86302 0.55452 0.56912 0.0
O186 O 0.84763 0.55921 0.53217 0.0
C187 C 0.92856 0.56451 0.59951 0.0
O188 O 0.94038 0.55568 0.60785 0.0
O189 O 0.89197 0.54155 0.56376 0.0
C190 C 0.87324 0.56347 0.51715 0.0
O191 O 0.90983 0.56478 0.52615 0.0
C192 C 0.78685 0.55981 0.58822 0.0
O193 O 0.79631 0.56773 0.57393 0.0
O194 O 0.89774 0.56526 0.58468 0.0
C195 C 0.77757 0.19137 0.6026 0.0
O196 O 0.80927 0.1904 0.61802 0.0
O197 O 0.85104 0.17166 0.59977 0.0
Zn198 Zn 0.79549 0.17113 0.58351 0.0
O199 O 0.80145 0.17019 0.54335 0.0
C200 C 0.72868 0.15876 0.60395 0.0
O201 O 0.70977 0.16713 0.6092 0.0
O202 O 0.76542 0.18393 0.58897 0.0
C203 C 0.83013 0.16593 0.53112 0.0
O204 O 0.85841 0.16151 0.54511 0.0
C205 C 0.87544 0.17802 0.59006 0.0
O206 O 0.86304 0.18407 0.57094 0.0
O207 O 0.76419 0.15901 0.59476 0.0
C208 C 0.58965 0.29105 0.80847 0.0
O209 O 0.62676 0.29163 0.79989 0.0
O210 O 0.6611 0.30949 0.8348 0.0
Zn211 Zn 0.60801 0.31107 0.81542 0.0
O212 O 0.61766 0.31267 0.77566 0.0
C213 C 0.59732 0.33148 0.81776 0.0
O214 O 0.62943 0.33041 0.80276 0.0
O215 O 0.57364 0.29879 0.81868 0.0
C216 C 0.58926 0.31493 0.75979 0.0
O217 O 0.55301 0.31606 0.76956 0.0
C218 C 0.69343 0.30878 0.82138 0.0
O219 O 0.69179 0.30876 0.79491 0.0
O220 O 0.58095 0.32373 0.82771 0.0
C221 C 0.66206 0.95967 0.84145 0.0
O222 O 0.62289 0.95988 0.84317 0.0
O223 O 0.59035 0.93933 0.84028 0.0
Zn224 Zn 0.6473 0.93923 0.82661 0.0
O225 O 0.64606 0.93963 0.78616 0.0
C226 C 0.6617 0.91874 0.82389 0.0
O227 O 0.63278 0.9199 0.80621 0.0
O228 O 0.67932 0.95135 0.83734 0.0
C229 C 0.6771 0.93736 0.77272 0.0
O230 O 0.70981 0.93473 0.78557 0.0
C231 C 0.56304 0.94361 0.82666 0.0
O232 O 0.57269 0.94837 0.8044 0.0
O233 O 0.67383 0.9263 0.83707 0.0
C234 C 0.55651 0.96496 0.43506 0.0
O235 O 0.59288 0.96559 0.42524 0.0
O236 O 0.62422 0.94465 0.41601 0.0
Zn237 Zn 0.57509 0.94394 0.43972 0.0
O238 O 0.59262 0.94251 0.47809 0.0
C239 C 0.51939 0.93042 0.4116 0.0
O240 O 0.5162 0.93737 0.393 0.0
O241 O 0.54167 0.9564 0.43968 0.0
C242 C 0.61867 0.93639 0.48666 0.0
O243 O 0.63652 0.93035 0.46959 0.0
C244 C 0.65566 0.94881 0.42512 0.0
O245 O 0.65458 0.95303 0.44905 0.0
O246 O 0.54219 0.93183 0.43172 0.0
C247 C 0.70743 0.2772 0.44145 0.0
O248 O 0.67786 0.27673 0.42406 0.0
O249 O 0.6415 0.29614 0.42036 0.0
Zn250 Zn 0.69571 0.29859 0.43696 0.0
O251 O 0.68855 0.30611 0.47151 0.0
C252 C 0.72788 0.30618 0.38694 0.0
O253 O 0.70727 0.29881 0.37627 0.0
O254 O 0.72175 0.28568 0.44775 0.0
C255 C 0.66063 0.31225 0.47672 0.0
O256 O 0.6339 0.31434 0.45814 0.0
C257 C 0.61268 0.29295 0.43471 0.0
O258 O 0.61883 0.29108 0.46041 0.0
O259 O 0.72901 0.30705 0.41244 0.0
C260 C 0.47141 0.70716 0.17819 0.0
O261 O 0.44049 0.70643 0.16196 0.0
O262 O 0.40051 0.68804 0.17437 0.0
Zn263 Zn 0.45754 0.68609 0.18662 0.0
O264 O 0.4572 0.6804 0.22398 0.0
C265 C 0.48333 0.6773 0.13665 0.0
O266 O 0.46754 0.68542 0.12624 0.0
O267 O 0.48532 0.69932 0.18914 0.0
C268 C 0.43269 0.67377 0.23187 0.0
O269 O 0.40679 0.67002 0.21469 0.0
C270 C 0.37351 0.69089 0.1907 0.0
O271 O 0.38303 0.69277 0.21592 0.0
O272 O 0.48446 0.67635 0.16212 0.0
C273 C 0.39188 0.03315 0.18798 0.0
O274 O 0.43047 0.03174 0.1851 0.0
O275 O 0.4657 0.053 0.17458 0.0
Zn276 Zn 0.41422 0.05401 0.19596 0.0
O277 O 0.42481 0.05488 0.23604 0.0
C278 C 0.38998 0.07445 0.19835 0.0
O279 O 0.41831 0.07458 0.21665 0.0
O280 O 0.37869 0.04198 0.19112 0.0
C281 C 0.45559 0.05834 0.24787 0.0
O282 O 0.48583 0.06168 0.23355 0.0
C283 C 0.49579 0.04812 0.18313 0.0
O284 O 0.49327 0.04332 0.2062 0.0
O285 O 0.38325 0.06642 0.18542 0.0
C286 C 0.42682 0.04538 0.60104 0.0
O287 O 0.38927 0.04616 0.60848 0.0
O288 O 0.36558 0.06765 0.60268 0.0
Zn289 Zn 0.42359 0.06698 0.59081 0.0
O290 O 0.42513 0.06931 0.55054 0.0
C291 C 0.49065 0.08047 0.60031 0.0
O292 O 0.50513 0.07633 0.5784 0.0
O293 O 0.44673 0.05324 0.59601 0.0
C294 C 0.45262 0.06525 0.5366 0.0
O295 O 0.48012 0.05989 0.54873 0.0
C296 C 0.33906 0.06343 0.58818 0.0
O297 O 0.3502 0.05866 0.56627 0.0
O298 O 0.45708 0.07752 0.60952 0.0
C299 C 0.3571 0.70582 0.55895 0.0
O300 O 0.39486 0.70516 0.5519 0.0
O301 O 0.42435 0.68669 0.5914 0.0
Zn302 Zn 0.37309 0.68568 0.56981 0.0
O303 O 0.38661 0.68333 0.53082 0.0
C304 C 0.35386 0.66552 0.57257 0.0
O305 O 0.38757 0.66545 0.55896 0.0
O306 O 0.34054 0.6983 0.56993 0.0
C307 C 0.35894 0.68111 0.51432 0.0
O308 O 0.32191 0.68055 0.52306 0.0
C309 C 0.45697 0.6887 0.57934 0.0
O310 O 0.4564 0.69043 0.55325 0.0
O311 O 0.34073 0.67377 0.58164 0.0
C312 C 0.54275 0.79811 0.32205 0.0
O313 O 0.56903 0.79821 0.34175 0.0
O314 O 0.60924 0.81753 0.33937 0.0
Zn315 Zn 0.55631 0.81955 0.32074 0.0
O316 O 0.56826 0.82645 0.28553 0.0
C317 C 0.49009 0.83256 0.33312 0.0
O318 O 0.47973 0.83048 0.30819 0.0
O319 O 0.53143 0.80631 0.31171 0.0
C320 C 0.54676 0.82499 0.26475 0.0
O321 O 0.51541 0.81911 0.2665 0.0
C322 C 0.63711 0.81339 0.32597 0.0
O323 O 0.62984 0.81046 0.30115 0.0
O324 O 0.5207 0.82834 0.3432 0.0
C325 C 0.67467 0.44261 0.31316 0.0
O326 O 0.64123 0.44245 0.32704 0.0
O327 O 0.59901 0.42364 0.31675 0.0
Zn328 Zn 0.65129 0.42256 0.29672 0.0
O329 O 0.63917 0.42215 0.2571 0.0
C330 C 0.66567 0.402 0.29456 0.0
O331 O 0.63421 0.4029 0.27887 0.0
O332 O 0.68605 0.43472 0.30117 0.0
C333 C 0.66681 0.41987 0.24063 0.0
O334 O 0.70257 0.41774 0.24997 0.0
C335 C 0.57165 0.42924 0.30731 0.0
O336 O 0.57881 0.43443 0.28534 0.0
O337 O 0.67943 0.40972 0.30627 0.0
C338 C 0.58505 0.46636 0.92914 0.0
O339 O 0.62122 0.465 0.93879 0.0
O340 O 0.65653 0.44869 0.89902 0.0
Zn341 Zn 0.59984 0.44662 0.91236 0.0
O342 O 0.60084 0.44096 0.94976 0.0
C343 C 0.54416 0.43123 0.89807 0.0
O344 O 0.53037 0.43313 0.92235 0.0
O345 O 0.56929 0.45949 0.91498 0.0
C346 C 0.61834 0.43288 0.95613 0.0
O347 O 0.63784 0.42783 0.93761 0.0
C348 C 0.68613 0.4491 0.91514 0.0
O349 O 0.67972 0.44872 0.94126 0.0
O350 O 0.57249 0.43655 0.88874 0.0
C351 C 0.74036 0.79247 0.96297 0.0
O352 O 0.71421 0.79141 0.9434 0.0
O353 O 0.6651 0.8087 0.94158 0.0
Zn354 Zn 0.71572 0.8131 0.96028 0.0
O355 O 0.70133 0.82067 0.99385 0.0
C356 C 0.74363 0.82202 0.9108 0.0
O357 O 0.72474 0.81446 0.8997 0.0
O358 O 0.74765 0.80116 0.97203 0.0
C359 C 0.6707 0.82623 0.99582 0.0
O360 O 0.64683 0.82734 0.97498 0.0
C361 C 0.63578 0.80512 0.95472 0.0
O362 O 0.6386 0.80416 0.98104 0.0
O363 O 0.74587 0.82251 0.93635 0.0
C364 C 0.36826 0.20766 0.70466 0.0
O365 O 0.33243 0.20551 0.71389 0.0
O366 O 0.31151 0.18685 0.66906 0.0
Zn367 Zn 0.36366 0.18727 0.68982 0.0
O368 O 0.35115 0.18378 0.72832 0.0
C369 C 0.40674 0.16884 0.68651 0.0
O370 O 0.3807 0.16647 0.70528 0.0
O371 O 0.38725 0.20105 0.69145 0.0
C372 C 0.37882 0.18341 0.74584 0.0
O373 O 0.41578 0.18535 0.73852 0.0
C374 C 0.28815 0.1796 0.67433 0.0
O375 O 0.3001 0.17271 0.69139 0.0
O376 O 0.40473 0.17742 0.67556 0.0
C377 C 0.27891 0.53291 0.65039 0.0
O378 O 0.3113 0.5333 0.63544 0.0
O379 O 0.34781 0.55345 0.64607 0.0
Zn380 Zn 0.29007 0.5544 0.65737 0.0
O381 O 0.2889 0.55971 0.69515 0.0
C382 C 0.23456 0.56982 0.64261 0.0
O383 O 0.22196 0.56847 0.66746 0.0
O384 O 0.26393 0.54096 0.65942 0.0
C385 C 0.31481 0.56568 0.70466 0.0
O386 O 0.34393 0.56888 0.6891 0.0
C387 C 0.37307 0.54854 0.65993 0.0
O388 O 0.36077 0.54355 0.6812 0.0
O389 O 0.26162 0.56411 0.6333 0.0
C390 C 0.34607 0.54509 0.04077 0.0
O391 O 0.30845 0.54567 0.03325 0.0
O392 O 0.27946 0.56418 0.06906 0.0
Zn393 Zn 0.33013 0.56532 0.04726 0.0
O394 O 0.3172 0.56641 0.00776 0.0
C395 C 0.35382 0.58558 0.04509 0.0
O396 O 0.32384 0.58566 0.02797 0.0
O397 O 0.36292 0.55286 0.05017 0.0
C398 C 0.34675 0.56743 0.99189 0.0
O399 O 0.38305 0.56766 0.00202 0.0
C400 C 0.24757 0.56821 0.06033 0.0
O401 O 0.24866 0.57322 0.03755 0.0
O402 O 0.36209 0.57753 0.05752 0.0
C403 C 0.2486 0.19939 0.08368 0.0
O404 O 0.28025 0.19888 0.09931 0.0
O405 O 0.32156 0.1804 0.08822 0.0
Zn406 Zn 0.26615 0.17856 0.07297 0.0
O407 O 0.27132 0.17424 0.03445 0.0
C408 C 0.24157 0.16749 0.11924 0.0
O409 O 0.25653 0.17529 0.13175 0.0
O410 O 0.23577 0.19149 0.07241 0.0
C411 C 0.3 0.1689 0.02587 0.0
O412 O 0.3271 0.16563 0.04292 0.0
C413 C 0.34879 0.18521 0.07591 0.0
O414 O 0.34044 0.18952 0.05276 0.0
O415 O 0.23946 0.16761 0.09366 0.0
C416 C 0.04886 0.40143 0.37658 0.0
C417 C 0.0299 0.40458 0.40039 0.0
C418 C 0.05119 0.39128 0.37029 0.0
C419 C 0.01637 0.36582 0.38938 0.0
H420 H 0.12514 0.35869 0.37031 0.0
C421 C 0.06853 0.32571 0.36114 0.0
C422 C 0.10726 0.3229 0.36922 0.0
C423 C 0.05444 0.33536 0.36619 0.0
C424 C 0.09471 0.36054 0.37587 0.0
H425 H 0.99526 0.39964 0.43494 0.0
H426 H -0.0001 0.38195 0.42418 0.0
H427 H 0.10676 0.37616 0.37378 0.0
H428 H 0.16021 0.32773 0.39088 0.0
H429 H 0.13537 0.34447 0.40008 0.0
H430 H 0.00488 0.35009 0.3921 0.0
C431 C 0.01283 0.3873 0.41029 0.0
C432 C 0.08395 0.37057 0.37738 0.0
C433 C 0.01027 0.39746 0.4165 0.0
C434 C 0.13045 0.32969 0.38409 0.0
C435 C 0.11632 0.33931 0.3892 0.0
C436 C 0.02718 0.35573 0.38781 0.0
C437 C 0.03483 0.38408 0.38775 0.0
C438 C 0.04473 0.37335 0.38425 0.0
C439 C 0.07876 0.34236 0.37947 0.0
C440 C 0.06662 0.353 0.38131 0.0
H441 H 0.0638 0.40674 0.36353 0.0
H442 H 0.06746 0.38905 0.35238 0.0
H443 H 0.98589 0.36773 0.39465 0.0
H444 H 0.04986 0.32064 0.34967 0.0
H445 H 0.0254 0.33749 0.35841 0.0
C446 C 0.17925 0.90227 0.31638 0.0
C447 C 0.14544 0.90257 0.29953 0.0
C448 C 0.19618 0.89312 0.32376 0.0
C449 C 0.19825 0.86627 0.30536 0.0
H450 H 0.21377 0.86191 0.38197 0.0
C451 C 0.1757 0.82854 0.35658 0.0
C452 C 0.19766 0.82612 0.37983 0.0
C453 C 0.18178 0.83764 0.34349 0.0
C454 C 0.21062 0.86303 0.36043 0.0
H455 H 0.10347 0.89353 0.27673 0.0
H456 H 0.13267 0.87765 0.28974 0.0
H457 H 0.2008 0.87871 0.36539 0.0
H458 H 0.24546 0.83101 0.40637 0.0
H459 H 0.25607 0.84693 0.38341 0.0
H460 H 0.2063 0.85051 0.30057 0.0
C461 C 0.14644 0.88446 0.29703 0.0
C462 C 0.20311 0.87267 0.35094 0.0
C463 C 0.12942 0.89357 0.28982 0.0
C464 C 0.22781 0.83269 0.38861 0.0
C465 C 0.2338 0.84182 0.37556 0.0
C466 C 0.2058 0.85663 0.31484 0.0
C467 C 0.17983 0.88411 0.31421 0.0
C468 C 0.19532 0.87432 0.32345 0.0
C469 C 0.20994 0.84453 0.35339 0.0
C470 C 0.21055 0.85486 0.3426 0.0
H471 H 0.19237 0.9091 0.32409 0.0
H472 H 0.22198 0.89307 0.33698 0.0
H473 H 0.19317 0.86736 0.28397 0.0
H474 H 0.15243 0.82362 0.34918 0.0
H475 H 0.16263 0.83952 0.32662 0.0
C476 C 0.07495 0.90886 0.81623 0.0
C477 C 0.05115 0.9116 0.83839 0.0
C478 C 0.08161 0.8988 0.81042 0.0
C479 C 0.05163 0.87281 0.82356 0.0
H480 H 0.166 0.86806 0.82421 0.0
C481 C 0.12055 0.83308 0.83279 0.0
C482 C 0.15588 0.83127 0.81825 0.0
C483 C 0.10453 0.84273 0.8341 0.0
C484 C 0.13397 0.86921 0.82347 0.0
H485 H 0.01222 0.90597 0.86998 0.0
H486 H 0.02372 0.88838 0.85958 0.0
H487 H 0.14103 0.88504 0.82544 0.0
H488 H 0.20136 0.83807 0.79298 0.0
H489 H 0.173 0.85468 0.79449 0.0
H490 H 0.04464 0.85692 0.82127 0.0
C491 C 0.03744 0.89403 0.84693 0.0
C492 C 0.11969 0.87897 0.8242 0.0
C493 C 0.03099 0.9041 0.85291 0.0
C494 C 0.17448 0.83924 0.80476 0.0
C495 C 0.15824 0.8488 0.80572 0.0
C496 C 0.06597 0.86299 0.82241 0.0
C497 C 0.06429 0.89131 0.82645 0.0
C498 C 0.07845 0.88088 0.8242 0.0
C499 C 0.12332 0.85072 0.82063 0.0
C500 C 0.1074 0.86108 0.82229 0.0
H501 H 0.09063 0.91444 0.80448 0.0
H502 H 0.10198 0.89687 0.79424 0.0
H503 H 0.01966 0.87411 0.82367 0.0
H504 H 0.10554 0.82706 0.84333 0.0
H505 H 0.07782 0.84396 0.846 0.0
C506 C 0.27682 0.40626 0.85929 0.0
C507 C 0.24363 0.40645 0.84187 0.0
C508 C 0.29489 0.39715 0.86613 0.0
C509 C 0.30174 0.37069 0.84471 0.0
H510 H 0.30116 0.36446 0.92107 0.0
C511 C 0.24909 0.33387 0.88719 0.0
C512 C 0.26478 0.33013 0.91142 0.0
C513 C 0.26409 0.34266 0.87607 0.0
C514 C 0.30275 0.3661 0.8997 0.0
H515 H 0.20426 0.39731 0.81727 0.0
H516 H 0.23557 0.3816 0.82905 0.0
H517 H 0.29494 0.38177 0.90649 0.0
H518 H 0.31038 0.33224 0.94203 0.0
H519 H 0.33618 0.34779 0.92273 0.0
H520 H 0.30663 0.35496 0.83787 0.0
C521 C 0.24788 0.38842 0.83737 0.0
C522 C 0.29915 0.37603 0.89136 0.0
C523 C 0.22957 0.39743 0.83091 0.0
C524 C 0.29768 0.33496 0.92332 0.0
C525 C 0.31236 0.34387 0.91236 0.0
C526 C 0.30532 0.36078 0.85303 0.0
C527 C 0.28051 0.38816 0.85516 0.0
C528 C 0.29631 0.37834 0.86379 0.0
C529 C 0.29482 0.34797 0.8891 0.0
C530 C 0.30357 0.35835 0.88056 0.0
H531 H 0.28833 0.4131 0.86797 0.0
H532 H 0.31988 0.39713 0.88003 0.0
H533 H 0.30039 0.37231 0.82331 0.0
H534 H 0.2239 0.33026 0.8775 0.0
H535 H 0.2496 0.34567 0.85828 0.0
C536 C 0.97989 0.5737 0.62714 0.0
C537 C 0.95107 0.57365 0.6065 0.0
C538 C 0.99925 0.5826 0.63427 0.0
C539 C 0.0182 0.60854 0.61055 0.0
H540 H 0.0104 0.61556 0.68623 0.0
C541 C 0.98895 0.64812 0.64795 0.0
C542 C 0.00477 0.65129 0.67276 0.0
C543 C 0.99646 0.6385 0.63845 0.0
C544 C 0.01381 0.61367 0.6651 0.0
H545 H 0.92128 0.58277 0.57636 0.0
H546 H 0.95458 0.59816 0.5888 0.0
H547 H 0.99801 0.5984 0.67221 0.0
H548 H 0.04304 0.64705 0.70625 0.0
H549 H 0.05589 0.63018 0.68966 0.0
H550 H 0.03179 0.62393 0.6033 0.0
C551 C 0.96258 0.59138 0.59943 0.0
C552 C 0.00671 0.60382 0.65708 0.0
C553 C 0.94308 0.58256 0.59252 0.0
C554 C 0.03021 0.64482 0.68711 0.0
C555 C 0.03749 0.63515 0.67768 0.0
C556 C 0.02523 0.61838 0.61856 0.0
C557 C 0.99048 0.59155 0.6206 0.0
C558 C 0.00711 0.60126 0.62959 0.0
C559 C 0.01981 0.63181 0.65361 0.0
C560 C 0.02144 0.62112 0.64579 0.0
H561 H 0.98676 0.56694 0.6382 0.0
H562 H 0.0207 0.58252 0.65065 0.0
H563 H 0.01952 0.60673 0.58926 0.0
H564 H 0.96942 0.65294 0.63634 0.0
H565 H 0.98204 0.63612 0.61996 0.0
C566 C 0.70319 0.07631 0.67059 0.0
C567 C 0.73961 0.07432 0.65742 0.0
C568 C 0.67835 0.08404 0.66159 0.0
C569 C 0.66332 0.1023 0.60588 0.0
H570 H 0.66045 0.12199 0.6632 0.0
C571 C 0.72335 0.1407 0.59287 0.0
C572 C 0.70833 0.14901 0.60682 0.0
C573 C 0.70588 0.13135 0.59597 0.0
C574 C 0.65958 0.11656 0.64699 0.0
H575 H 0.77689 0.07824 0.62328 0.0
H576 H 0.73361 0.09159 0.60743 0.0
H577 H 0.66775 0.10439 0.67437 0.0
H578 H 0.66205 0.15412 0.63418 0.0
H579 H 0.632 0.1375 0.64038 0.0
H580 H 0.65864 0.11458 0.57844 0.0
C581 C 0.72408 0.08723 0.62469 0.0
C582 C 0.66379 0.10645 0.6534 0.0
C583 C 0.74915 0.07965 0.63391 0.0
C584 C 0.67441 0.14782 0.62331 0.0
C585 C 0.65715 0.13835 0.62678 0.0
C586 C 0.65901 0.11239 0.59949 0.0
C587 C 0.68917 0.08976 0.63899 0.0
C588 C 0.66891 0.09934 0.6328 0.0
C589 C 0.6731 0.13 0.61333 0.0
C590 C 0.66045 0.11967 0.61992 0.0
H591 H 0.69506 0.07231 0.68878 0.0
H592 H 0.65167 0.08584 0.67299 0.0
H593 H 0.66616 0.09693 0.58964 0.0
H594 H 0.74914 0.14138 0.57975 0.0
H595 H 0.71949 0.12506 0.58575 0.0
C596 C 0.90494 0.15256 0.16532 0.0
C597 C 0.87852 0.15341 0.18723 0.0
C598 C 0.92596 0.14367 0.16093 0.0
C599 C 0.91843 0.11685 0.17599 0.0
H600 H 0.02533 0.1158 0.14583 0.0
C601 C 0.98103 0.07951 0.14261 0.0
C602 C 0.9938 0.07963 0.11561 0.0
C603 C 0.9776 0.08843 0.15707 0.0
C604 C 0.99553 0.11598 0.15436 0.0
H605 H 0.8549 0.1458 0.22247 0.0
H606 H 0.89187 0.13043 0.21508 0.0
H607 H 0.99712 0.13187 0.15958 0.0
H608 H 0.01776 0.08901 0.08374 0.0
H609 H 0.01111 0.10451 0.1087 0.0
H610 H 0.91598 0.1011 0.16999 0.0
C611 C 0.89571 0.13651 0.20089 0.0
C612 C 0.97931 0.12518 0.16211 0.0
C613 C 0.87453 0.14533 0.20513 0.0
C614 C 0.0073 0.08867 0.10441 0.0
C615 C 0.00371 0.09759 0.11881 0.0
C616 C 0.93459 0.10769 0.16831 0.0
C617 C 0.92114 0.1355 0.17849 0.0
C618 C 0.94025 0.12573 0.17253 0.0
C619 C 0.98678 0.09762 0.14476 0.0
C620 C 0.973 0.10716 0.1569 0.0
H621 H 0.90874 0.15868 0.15123 0.0
H622 H 0.94497 0.1431 0.14331 0.0
H623 H 0.88802 0.117 0.18349 0.0
H624 H 0.97099 0.07265 0.152 0.0
H625 H 0.96541 0.08819 0.17731 0.0
C626 C 0.7144 0.58402 0.1466 0.0
C627 C 0.73835 0.57732 0.13189 0.0
C628 C 0.71217 0.59406 0.1391 0.0
C629 C 0.7455 0.6125 0.08683 0.0
H630 H 0.77056 0.6287 0.1495 0.0
C631 C 0.85233 0.64565 0.08342 0.0
C632 C 0.84308 0.6544 0.09773 0.0
C633 C 0.82814 0.63722 0.08561 0.0
C634 C 0.76276 0.62436 0.13182 0.0
H635 H 0.77499 0.57567 0.09605 0.0
H636 H 0.77187 0.59312 0.08333 0.0
H637 H 0.74505 0.61185 0.15568 0.0
H638 H 0.80111 0.66119 0.12559 0.0
H639 H 0.75917 0.64623 0.13002 0.0
H640 H 0.76601 0.62485 0.0631 0.0
C641 C 0.75454 0.59069 0.10058 0.0
C642 C 0.74794 0.61469 0.13531 0.0
C643 C 0.75654 0.58064 0.10797 0.0
C644 C 0.80904 0.65453 0.11438 0.0
C645 C 0.78503 0.64601 0.11687 0.0
C646 C 0.76066 0.62214 0.08337 0.0
C647 C 0.73399 0.59761 0.11682 0.0
C648 C 0.74063 0.6085 0.11286 0.0
C649 C 0.79433 0.63729 0.10238 0.0
C650 C 0.77084 0.628 0.10586 0.0
H651 H 0.69947 0.58166 0.16492 0.0
H652 H 0.69522 0.59915 0.15165 0.0
H653 H 0.73938 0.60802 0.06912 0.0
H654 H 0.8782 0.6453 0.0703 0.0
H655 H 0.83646 0.63054 0.0746 0.0
C656 C 0.54698 0.41998 0.85792 0.0
C657 C 0.53318 0.42185 0.8842 0.0
C658 C 0.54408 0.41043 0.84685 0.0
C659 C 0.50266 0.38486 0.85625 0.0
H660 H 0.60611 0.37711 0.82786 0.0
C661 C 0.55556 0.34367 0.84412 0.0
C662 C 0.58079 0.34156 0.82219 0.0
C663 C 0.54311 0.35349 0.84908 0.0
C664 C 0.57674 0.37915 0.83523 0.0
H665 H 0.50227 0.41541 0.91854 0.0
H666 H 0.49791 0.39868 0.89938 0.0
H667 H 0.59418 0.39436 0.83984 0.0
H668 H 0.61028 0.34788 0.78713 0.0
H669 H 0.58787 0.36484 0.79531 0.0
H670 H 0.48575 0.36947 0.85204 0.0
C671 C 0.51072 0.4046 0.88725 0.0
C672 C 0.56986 0.38908 0.84207 0.0
C673 C 0.51337 0.41419 0.89828 0.0
C674 C 0.59154 0.34931 0.80454 0.0
C675 C 0.57875 0.35904 0.80926 0.0
C676 C 0.50953 0.37487 0.84927 0.0
C677 C 0.52762 0.40254 0.8619 0.0
C678 C 0.53286 0.39207 0.85275 0.0
C679 C 0.55541 0.36132 0.83201 0.0
C680 C 0.54676 0.37191 0.83874 0.0
H681 H 0.56184 0.42577 0.84639 0.0
H682 H 0.5565 0.40912 0.82698 0.0
H683 H 0.47381 0.38695 0.86442 0.0
H684 H 0.54671 0.33781 0.85797 0.0
H685 H 0.52527 0.35501 0.86685 0.0
C686 C 0.76979 0.83946 0.90721 0.0
C687 C 0.75363 0.83096 0.89461 0.0
C688 C 0.77051 0.84863 0.89381 0.0
C689 C 0.70971 0.86142 0.844 0.0
H690 H 0.78467 0.88313 0.85513 0.0
C691 C 0.67189 0.90111 0.80923 0.0
C692 C 0.68008 0.90881 0.82767 0.0
C693 C 0.68787 0.89159 0.81301 0.0
C694 C 0.76341 0.87715 0.85194 0.0
H695 H 0.72967 0.82517 0.85704 0.0
H696 H 0.73129 0.84118 0.83357 0.0
H697 H 0.80317 0.86615 0.86835 0.0
H698 H 0.71237 0.91266 0.86414 0.0
H699 H 0.73937 0.89592 0.87126 0.0
H700 H 0.66925 0.87236 0.82875 0.0
C701 C 0.74256 0.84078 0.85404 0.0
C702 C 0.77408 0.86743 0.85938 0.0
C703 C 0.74184 0.8316 0.86745 0.0
C704 C 0.70547 0.90686 0.84962 0.0
C705 C 0.72121 0.89729 0.85356 0.0
C706 C 0.69902 0.87111 0.83667 0.0
C707 C 0.75516 0.84947 0.86752 0.0
C708 C 0.74701 0.85949 0.85595 0.0
C709 C 0.7121 0.88951 0.83548 0.0
C710 C 0.72541 0.87912 0.841 0.0
H711 H 0.77951 0.8392 0.92805 0.0
H712 H 0.78032 0.85517 0.90481 0.0
H713 H 0.68779 0.85553 0.8416 0.0
H714 H 0.65293 0.9024 0.79185 0.0
H715 H 0.68088 0.88583 0.79841 0.0
C716 C 0.45317 0.84874 0.33222 0.0
C717 C 0.47213 0.84118 0.34713 0.0
C718 C 0.44447 0.85792 0.3442 0.0
C719 C 0.48565 0.87318 0.39891 0.0
H720 H 0.40781 0.89251 0.3737 0.0
C721 C 0.49896 0.9139 0.43025 0.0
C722 C 0.49918 0.92067 0.40858 0.0
C723 C 0.48453 0.90422 0.4268 0.0
C724 C 0.4296 0.88717 0.38098 0.0
H725 H 0.49239 0.83681 0.38694 0.0
H726 H 0.47563 0.85268 0.4082 0.0
H727 H 0.40028 0.8749 0.36153 0.0
H728 H 0.48189 0.92283 0.36682 0.0
H729 H 0.45729 0.90579 0.36062 0.0
H730 H 0.51556 0.8854 0.41771 0.0
C731 C 0.46905 0.8517 0.38697 0.0
C732 C 0.42536 0.87709 0.37401 0.0
C733 C 0.47844 0.84258 0.37486 0.0
C734 C 0.48232 0.91776 0.38384 0.0
C735 C 0.46798 0.90802 0.38035 0.0
C736 C 0.48965 0.88319 0.40602 0.0
C737 C 0.45401 0.85966 0.37144 0.0
C738 C 0.45395 0.87001 0.38235 0.0
C739 C 0.47017 0.90107 0.40158 0.0
C740 C 0.46225 0.89033 0.39665 0.0
H741 H 0.44782 0.84786 0.31079 0.0
H742 H 0.43307 0.86386 0.33152 0.0
H743 H 0.50886 0.86805 0.40522 0.0
H744 H 0.51111 0.91596 0.44973 0.0
H745 H 0.48593 0.89908 0.44366 0.0
C746 C 0.7595 0.32299 0.38207 0.0
C747 C 0.74158 0.3146 0.37 0.0
C748 C 0.76361 0.3319 0.36769 0.0
C749 C 0.70832 0.34477 0.31534 0.0
H750 H 0.78647 0.36573 0.32697 0.0
C751 C 0.67643 0.38448 0.27937 0.0
C752 C 0.68462 0.39213 0.29796 0.0
C753 C 0.69201 0.37493 0.28313 0.0
C754 C 0.76437 0.35995 0.32359 0.0
H755 H 0.71836 0.30862 0.33246 0.0
H756 H 0.72595 0.32416 0.30727 0.0
H757 H 0.80129 0.34866 0.34153 0.0
H758 H 0.71688 0.3959 0.33448 0.0
H759 H 0.74299 0.37907 0.3417 0.0
H760 H 0.67053 0.356 0.29872 0.0
C761 C 0.73591 0.3239 0.32806 0.0
C762 C 0.77294 0.35018 0.3318 0.0
C763 C 0.73174 0.31499 0.34246 0.0
C764 C 0.70998 0.39013 0.31988 0.0
C765 C 0.72519 0.38051 0.32387 0.0
C766 C 0.69972 0.3545 0.30727 0.0
C767 C 0.75 0.33258 0.34094 0.0
C768 C 0.7446 0.34253 0.32826 0.0
C769 C 0.71567 0.37274 0.30581 0.0
C770 C 0.72724 0.36226 0.31178 0.0
H771 H 0.76787 0.32291 0.40318 0.0
H772 H 0.77452 0.33843 0.37825 0.0
H773 H 0.68542 0.33912 0.31283 0.0
H774 H 0.65758 0.38585 0.26197 0.0
H775 H 0.68484 0.3692 0.26848 0.0
C776 C 0.37515 0.60253 0.03019 0.0
C777 C 0.37823 0.59466 0.0488 0.0
C778 C 0.39697 0.6113 0.03384 0.0
C779 C 0.47965 0.62285 0.07336 0.0
H780 H 0.41708 0.6469 0.06291 0.0
C781 C 0.50287 0.6594 0.13142 0.0
C782 C 0.49081 0.66845 0.11954 0.0
C783 C 0.50037 0.65047 0.11701 0.0
C784 C 0.4355 0.64031 0.06531 0.0
H785 H 0.40756 0.58965 0.08537 0.0
H786 H 0.44471 0.60514 0.09237 0.0
H787 H 0.38974 0.63096 0.04929 0.0
H788 H 0.47145 0.6754 0.08222 0.0
H789 H 0.46753 0.65981 0.05694 0.0
H790 H 0.52467 0.63229 0.09067 0.0
C791 C 0.42605 0.60446 0.0746 0.0
C792 C 0.41972 0.63113 0.05754 0.0
C793 C 0.40449 0.59561 0.07076 0.0
C794 C 0.48036 0.66853 0.09209 0.0
C795 C 0.47794 0.6596 0.07764 0.0
C796 C 0.49545 0.63208 0.08125 0.0
C797 C 0.42201 0.61246 0.0564 0.0
C798 C 0.44118 0.62226 0.062 0.0
C799 C 0.48591 0.65042 0.09039 0.0
C800 C 0.47311 0.64088 0.07785 0.0
H801 H 0.35571 0.60196 0.01277 0.0
H802 H 0.39379 0.61723 0.01914 0.0
H803 H 0.49722 0.61616 0.07666 0.0
H804 H 0.51157 0.65909 0.15246 0.0
H805 H 0.50669 0.64355 0.12747 0.0
C806 C 0.24835 0.15708 0.16088 0.0
C807 C 0.23722 0.15787 0.13363 0.0
C808 C 0.25416 0.1477 0.1726 0.0
C809 C 0.24434 0.12026 0.16217 0.0
H810 H 0.35026 0.11987 0.19396 0.0
C811 C 0.34035 0.08439 0.17136 0.0
C812 C 0.36553 0.08349 0.19391 0.0
C813 C 0.31838 0.09315 0.16715 0.0
C814 C 0.32031 0.11982 0.18567 0.0
H815 H 0.21892 0.14947 0.09825 0.0
H816 H 0.2295 0.13316 0.1186 0.0
H817 H 0.31949 0.13571 0.18284 0.0
H818 H 0.38596 0.09085 0.23042 0.0
H819 H 0.34721 0.10595 0.22343 0.0
H820 H 0.24582 0.10428 0.16449 0.0
C821 C 0.23383 0.13975 0.13094 0.0
C822 C 0.30257 0.12893 0.17934 0.0
C823 C 0.22798 0.14912 0.11922 0.0
C824 C 0.36735 0.09137 0.21258 0.0
C825 C 0.34516 0.10005 0.20855 0.0
C826 C 0.26208 0.1111 0.16866 0.0
C827 C 0.24891 0.13896 0.15731 0.0
C828 C 0.26465 0.12927 0.16718 0.0
C829 C 0.32096 0.10113 0.18556 0.0
C830 C 0.30053 0.11078 0.18016 0.0
H831 H 0.25518 0.16367 0.17267 0.0
H832 H 0.26496 0.14731 0.19319 0.0
H833 H 0.21501 0.1203 0.15291 0.0
H834 H 0.33828 0.07842 0.15667 0.0
H835 H 0.30036 0.09378 0.14908 0.0
C836 C 0.5372 0.09505 0.59635 0.0
C837 C 0.51023 0.08939 0.61189 0.0
C838 C 0.5498 0.10446 0.60523 0.0
C839 C 0.54744 0.1221 0.66304 0.0
H840 H 0.50169 0.14057 0.61128 0.0
C841 C 0.44268 0.1528 0.69407 0.0
C842 C 0.43811 0.16158 0.67889 0.0
C843 C 0.4704 0.14557 0.68648 0.0
C844 C 0.51582 0.13567 0.62581 0.0
H845 H 0.47881 0.08861 0.65006 0.0
H846 H 0.50101 0.10492 0.66566 0.0
H847 H 0.52055 0.1239 0.59687 0.0
H848 H 0.46055 0.1699 0.64454 0.0
H849 H 0.50905 0.15713 0.63098 0.0
H850 H 0.54029 0.13368 0.69239 0.0
C851 C 0.51231 0.10217 0.64658 0.0
C852 C 0.52669 0.12608 0.61751 0.0
C853 C 0.49918 0.09286 0.63752 0.0
C854 C 0.46316 0.16317 0.6565 0.0
C855 C 0.49094 0.15587 0.64878 0.0
C856 C 0.53691 0.13172 0.6713 0.0
C857 C 0.53628 0.10824 0.63002 0.0
C858 C 0.53987 0.119 0.63647 0.0
C859 C 0.49437 0.1469 0.66345 0.0
C860 C 0.51823 0.13834 0.65319 0.0
H861 H 0.5465 0.09254 0.57655 0.0
H862 H 0.56828 0.109 0.59211 0.0
H863 H 0.55831 0.11683 0.67792 0.0
H864 H 0.42415 0.15137 0.71157 0.0
H865 H 0.4715 0.1387 0.69798 0.0
C866 C 0.33673 0.64846 0.5567 0.0
C867 C 0.3306 0.65622 0.57526 0.0
C868 C 0.31623 0.63946 0.55931 0.0
C869 C 0.2331 0.62659 0.59536 0.0
H870 H 0.3007 0.60349 0.58357 0.0
C871 C 0.21063 0.5875 0.64252 0.0
C872 C 0.22558 0.57922 0.62827 0.0
C873 C 0.21266 0.59706 0.63125 0.0
C874 C 0.28098 0.60982 0.58637 0.0
H875 H 0.29718 0.66083 0.61056 0.0
H876 H 0.26246 0.64485 0.61598 0.0
H877 H 0.32644 0.61996 0.57404 0.0
H878 H 0.24909 0.57424 0.58979 0.0
H879 H 0.25185 0.59088 0.56997 0.0
H880 H 0.18827 0.61627 0.60903 0.0
C881 C 0.28247 0.64581 0.599 0.0
C882 C 0.29581 0.61931 0.58092 0.0
C883 C 0.30257 0.65493 0.59607 0.0
C884 C 0.23808 0.58051 0.60144 0.0
C885 C 0.23979 0.59004 0.59013 0.0
C886 C 0.21826 0.61703 0.60103 0.0
C887 C 0.28969 0.63791 0.58091 0.0
C888 C 0.27226 0.62784 0.58549 0.0
C889 C 0.22937 0.59846 0.60551 0.0
C890 C 0.24223 0.60855 0.59674 0.0
H891 H 0.35748 0.64933 0.54007 0.0
H892 H 0.3217 0.63365 0.54457 0.0
H893 H 0.21404 0.633 0.59886 0.0
H894 H 0.20053 0.58674 0.66318 0.0
H895 H 0.20433 0.6034 0.6436 0.0
C896 C 0.53907 0.29003 0.4395 0.0
C897 C 0.57241 0.29172 0.42286 0.0
C898 C 0.50076 0.28929 0.42841 0.0
C899 C 0.44354 0.29614 0.36718 0.0
H900 H 0.36455 0.2779 0.3965 0.0
C901 C 0.29068 0.29018 0.31652 0.0
C902 C 0.25712 0.2906 0.33355 0.0
C903 C 0.32917 0.28961 0.32733 0.0
C904 C 0.38627 0.28307 0.38823 0.0
H905 H 0.59189 0.29366 0.38144 0.0
H906 H 0.52528 0.29214 0.36203 0.0
H907 H 0.4321 0.27812 0.41525 0.0
H908 H 0.23758 0.29045 0.3753 0.0
H909 H 0.30498 0.28941 0.39417 0.0
H910 H 0.39779 0.30103 0.34006 0.0
C911 C 0.52851 0.29163 0.38373 0.0
C912 C 0.42493 0.28322 0.399 0.0
C913 C 0.56676 0.29245 0.39484 0.0
C914 C 0.26283 0.29015 0.36164 0.0
C915 C 0.30139 0.28951 0.37245 0.0
C916 C 0.40505 0.29593 0.35632 0.0
C917 C 0.49495 0.29015 0.40039 0.0
C918 C 0.45403 0.28978 0.38864 0.0
C919 C 0.33496 0.28939 0.35539 0.0
C920 C 0.37598 0.28941 0.36676 0.0
H921 H 0.54241 0.28948 0.46119 0.0
H922 H 0.4756 0.28829 0.44189 0.0
H923 H 0.46485 0.30144 0.35907 0.0
H924 H 0.28737 0.29048 0.2948 0.0
H925 H 0.35447 0.2894 0.31369 0.0
C926 C 0.95805 0.93169 0.29473 0.0
C927 C 0.99419 0.93513 0.30583 0.0
C928 C 0.92166 0.93381 0.30725 0.0
C929 C 0.878 0.94091 0.37272 0.0
H930 H 0.7854 0.94769 0.32926 0.0
C931 C 0.7285 0.9527 0.42076 0.0
C932 C 0.69372 0.94837 0.40996 0.0
C933 C 0.76513 0.95175 0.40749 0.0
C934 C 0.81091 0.94573 0.34164 0.0
H935 H 0.02043 0.94354 0.33878 0.0
H936 H 0.95672 0.94732 0.36056 0.0
H937 H 0.84973 0.94479 0.30742 0.0
H938 H 0.66994 0.93982 0.37641 0.0
H939 H 0.73401 0.9381 0.35331 0.0
H940 H 0.83914 0.94179 0.40692 0.0
C941 C 0.95664 0.94288 0.3423 0.0
C942 C 0.84776 0.94406 0.32915 0.0
C943 C 0.99312 0.94075 0.32977 0.0
C944 C 0.69618 0.94326 0.38524 0.0
C945 C 0.73286 0.94231 0.37195 0.0
C946 C 0.84117 0.94259 0.38521 0.0
C947 C 0.92049 0.93944 0.33116 0.0
C948 C 0.88167 0.94157 0.34453 0.0
C949 C 0.76782 0.94644 0.38311 0.0
C950 C 0.80716 0.94497 0.36981 0.0
H951 H 0.95779 0.92731 0.27636 0.0
H952 H 0.89443 0.93091 0.29837 0.0
H953 H 0.90338 0.93886 0.38511 0.0
H954 H 0.72764 0.95673 0.4397 0.0
H955 H 0.7914 0.95514 0.41639 0.0
C956 C 0.50877 0.93604 0.85491 0.0
C957 C 0.52068 0.94291 0.83502 0.0
C958 C 0.46837 0.93495 0.86155 0.0
C959 C 0.37104 0.94762 0.85914 0.0
H960 H 0.32742 0.9208 0.86138 0.0
C961 C 0.20111 0.94027 0.86652 0.0
C962 C 0.18844 0.93217 0.88239 0.0
C963 C 0.24173 0.94169 0.86099 0.0
C964 C 0.33915 0.92834 0.86125 0.0
H965 H 0.4997 0.95422 0.80705 0.0
H966 H 0.42924 0.95239 0.8189 0.0
H967 H 0.39839 0.92322 0.85242 0.0
H968 H 0.20845 0.91927 0.90516 0.0
H969 H 0.27914 0.92188 0.89615 0.0
H970 H 0.31205 0.95276 0.86836 0.0
C971 C 0.45116 0.94784 0.82928 0.0
C972 C 0.37983 0.92971 0.85606 0.0
C973 C 0.49148 0.94884 0.82242 0.0
C974 C 0.2172 0.92555 0.89269 0.0
C975 C 0.25778 0.92701 0.88738 0.0
C976 C 0.3304 0.94624 0.86461 0.0
C977 C 0.43915 0.9408 0.84867 0.0
C978 C 0.39616 0.93937 0.85487 0.0
C979 C 0.27061 0.93509 0.87141 0.0
C980 C 0.3139 0.93658 0.86566 0.0
H981 H 0.53054 0.93135 0.86497 0.0
H982 H 0.45995 0.92953 0.87676 0.0
H983 H 0.38294 0.95514 0.85859 0.0
H984 H 0.17964 0.94549 0.85818 0.0
H985 H 0.2504 0.9479 0.84826 0.0
C986 C 0.76807 0.30796 0.81988 0.0
C987 C 0.7327 0.30837 0.83515 0.0
C988 C 0.80534 0.30792 0.83255 0.0
C989 C 0.85533 0.31473 0.89631 0.0
H990 H 0.94119 0.2984 0.86769 0.0
C991 C 0.00906 0.31089 0.94902 0.0
C992 C 0.04303 0.31127 0.93234 0.0
C993 C 0.97076 0.31036 0.93782 0.0
C994 C 0.91761 0.30307 0.87576 0.0
H995 H 0.70875 0.30892 0.87579 0.0
H996 H 0.77399 0.30871 0.89799 0.0
H997 H 0.87493 0.29751 0.84735 0.0
H998 H 0.06338 0.31141 0.89077 0.0
H999 H 0.99654 0.31049 0.87124 0.0
H1000 H 0.89816 0.32028 0.92474 0.0
C1001 C 0.77283 0.30857 0.87615 0.0
C1002 C 0.87963 0.30256 0.86412 0.0
C1003 C 0.73544 0.30862 0.86344 0.0
C1004 C 0.03785 0.31112 0.9042 0.0
C1005 C 0.99957 0.31053 0.893 0.0
C1006 C 0.89333 0.31521 0.90802 0.0
C1007 C 0.80822 0.30825 0.86082 0.0
C1008 C 0.84811 0.30845 0.87409 0.0
C1009 C 0.9656 0.31012 0.90968 0.0
C1010 C 0.92496 0.30944 0.89773 0.0
H1011 H 0.7671 0.3078 0.79804 0.0
H1012 H 0.83196 0.30783 0.8201 0.0
H1013 H 0.83188 0.31947 0.90425 0.0
H1014 H 0.01199 0.311 0.97079 0.0
H1015 H 0.94521 0.30996 0.9512 0.0
C1016 C 0.7745 0.67344 0.69686 0.0
C1017 C 0.80774 0.67676 0.68197 0.0
C1018 C 0.73568 0.67524 0.68763 0.0
C1019 C 0.67804 0.69134 0.64088 0.0
H1020 H 0.59803 0.67048 0.64685 0.0
C1021 C 0.53066 0.69168 0.58085 0.0
C1022 C 0.49559 0.68849 0.59388 0.0
C1023 C 0.56768 0.6909 0.59365 0.0
C1024 C 0.61987 0.67643 0.6454 0.0
H1025 H 0.82626 0.68451 0.64562 0.0
H1026 H 0.7586 0.68748 0.62927 0.0
H1027 H 0.66497 0.66767 0.6648 0.0
H1028 H 0.47175 0.68217 0.63085 0.0
H1029 H 0.5367 0.68079 0.65325 0.0
H1030 H 0.63308 0.70001 0.62095 0.0
C1031 C 0.76249 0.68365 0.64834 0.0
C1032 C 0.65826 0.67482 0.65567 0.0
C1033 C 0.80131 0.68188 0.65761 0.0
C1034 C 0.49824 0.68469 0.62027 0.0
C1035 C 0.53542 0.68385 0.63303 0.0
C1036 C 0.63972 0.69292 0.63051 0.0
C1037 C 0.7292 0.68037 0.66327 0.0
C1038 C 0.68792 0.68222 0.6533 0.0
C1039 C 0.57055 0.68686 0.61974 0.0
C1040 C 0.61034 0.68545 0.63243 0.0
H1041 H 0.77839 0.66951 0.71578 0.0
H1042 H 0.71073 0.67272 0.69979 0.0
H1043 H 0.69992 0.69727 0.63919 0.0
H1044 H 0.52966 0.69465 0.56053 0.0
H1045 H 0.59424 0.69319 0.58277 0.0
C1046 C 0.99315 0.07527 0.66291 0.0
C1047 C 0.9658 0.06766 0.65656 0.0
C1048 C 0.03287 0.0747 0.6544 0.0
C1049 C 0.10918 0.05668 0.62972 0.0
H1050 H 0.16685 0.08096 0.61207 0.0
C1051 C 0.26879 0.05717 0.58377 0.0
C1052 C 0.29629 0.06373 0.59591 0.0
C1053 C 0.22829 0.05747 0.59074 0.0
C1054 C 0.15117 0.07413 0.61712 0.0
H1055 H 0.95861 0.05353 0.63582 0.0
H1056 H 0.02779 0.05265 0.62012 0.0
H1057 H 0.09609 0.08185 0.62348 0.0
H1058 H 0.30282 0.07575 0.62487 0.0
H1059 H 0.23182 0.07639 0.6367 0.0
H1060 H 0.16443 0.04898 0.62266 0.0
C1061 C 0.01876 0.05898 0.63229 0.0
C1062 C 0.1106 0.07462 0.62376 0.0
C1063 C 0.97899 0.0595 0.64111 0.0
C1064 C 0.28239 0.0706 0.61518 0.0
C1065 C 0.24176 0.071 0.62185 0.0
C1066 C 0.14967 0.05618 0.62271 0.0
C1067 C 0.04633 0.06654 0.63898 0.0
C1068 C 0.08909 0.06592 0.63047 0.0
C1069 C 0.21431 0.06443 0.6097 0.0
C1070 C 0.17116 0.06491 0.6166 0.0
H1071 H 0.98415 0.08162 0.675 0.0
H1072 H 0.05321 0.08057 0.6605 0.0
H1073 H 0.09393 0.04984 0.63516 0.0
H1074 H 0.27855 0.05176 0.5689 0.0
H1075 H 0.20777 0.05237 0.58094 0.0
C1076 C 0.53559 0.0518 0.14141 0.0
C1077 C 0.534 0.04832 0.16816 0.0
C1078 C 0.57212 0.05233 0.12774 0.0
C1079 C 0.6787 0.05538 0.13992 0.0
H1080 H 0.69286 0.04472 0.06782 0.0
C1081 C 0.83358 0.05468 0.0896 0.0
C1082 C 0.8358 0.05654 0.06176 0.0
C1083 C 0.79661 0.05325 0.10212 0.0
C1084 C 0.68931 0.04787 0.08779 0.0
H1085 H 0.56936 0.04259 0.20145 0.0
H1086 H 0.63313 0.04369 0.1777 0.0
H1087 H 0.62814 0.04312 0.09024 0.0
H1088 H 0.8011 0.05837 0.02515 0.0
H1089 H 0.73645 0.05624 0.04709 0.0
H1090 H 0.73913 0.06043 0.13743 0.0
C1091 C 0.6061 0.04597 0.16733 0.0
C1092 C 0.65227 0.04691 0.10064 0.0
C1093 C 0.56957 0.0453 0.18085 0.0
C1094 C 0.80032 0.05689 0.04664 0.0
C1095 C 0.76325 0.05561 0.05922 0.0
C1096 C 0.71551 0.05648 0.12698 0.0
C1097 C 0.60775 0.04954 0.14072 0.0
C1098 C 0.64674 0.05061 0.12687 0.0
C1099 C 0.76089 0.05381 0.08717 0.0
C1100 C 0.72143 0.05269 0.10079 0.0
H1101 H 0.50866 0.05416 0.13108 0.0
H1102 H 0.57266 0.05516 0.10726 0.0
H1103 H 0.67501 0.05843 0.16002 0.0
H1104 H 0.86046 0.05426 0.10176 0.0
H1105 H 0.79613 0.05166 0.12354 0.0
C1106 C 0.03824 0.69596 0.09215 0.0
C1107 C 0.00727 0.69207 0.10819 0.0
C1108 C 0.07748 0.69615 0.10173 0.0
C1109 C 0.13859 0.69686 0.16212 0.0
H1110 H 0.21992 0.68426 0.11797 0.0
C1111 C 0.30019 0.69119 0.20052 0.0
C1112 C 0.33152 0.69164 0.18171 0.0
C1113 C 0.2604 0.69146 0.19194 0.0
C1114 C 0.19785 0.68798 0.13038 0.0
H1115 H 0.99285 0.6856 0.14711 0.0
H1116 H 0.06166 0.68619 0.16415 0.0
H1117 H 0.15087 0.6846 0.10243 0.0
H1118 H 0.34594 0.69304 0.13925 0.0
H1119 H 0.27672 0.69397 0.1243 0.0
H1120 H 0.18545 0.70056 0.18969 0.0
C1121 C 0.05538 0.68898 0.14407 0.0
C1122 C 0.15824 0.68811 0.12151 0.0
C1123 C 0.01616 0.68861 0.13429 0.0
C1124 C 0.32236 0.69258 0.15419 0.0
C1125 C 0.2826 0.69303 0.14563 0.0
C1126 C 0.17838 0.6969 0.17081 0.0
C1127 C 0.08642 0.69263 0.1277 0.0
C1128 C 0.12828 0.69252 0.13731 0.0
C1129 C 0.25101 0.69236 0.16435 0.0
C1130 C 0.20859 0.69244 0.15507 0.0
H1131 H 0.03236 0.69864 0.07191 0.0
H1132 H 0.10091 0.69905 0.08882 0.0
H1133 H 0.11597 0.70038 0.17454 0.0
H1134 H 0.30638 0.69039 0.22187 0.0
H1135 H 0.23706 0.69075 0.20695 0.0
C1136 C 0.56226 0.80169 0.95508 0.0
C1137 C 0.59823 0.80254 0.94065 0.0
C1138 C 0.52636 0.7998 0.94158 0.0
C1139 C 0.48085 0.80132 0.87328 0.0
H1140 H 0.39581 0.78608 0.90701 0.0
C1141 C 0.33457 0.79103 0.81791 0.0
C1142 C 0.29941 0.79366 0.83172 0.0
C1143 C 0.3715 0.79127 0.83109 0.0
C1144 C 0.41934 0.79036 0.89742 0.0
H1145 H 0.62515 0.80172 0.90093 0.0
H1146 H 0.56291 0.79804 0.87747 0.0
H1147 H 0.46001 0.78782 0.92998 0.0
H1148 H 0.27515 0.79827 0.87036 0.0
H1149 H 0.33971 0.7985 0.89348 0.0
H1150 H 0.44015 0.8037 0.84054 0.0
C1151 C 0.56202 0.79916 0.8991 0.0
C1152 C 0.45606 0.79141 0.9106 0.0
C1153 C 0.5978 0.8012 0.91255 0.0
C1154 C 0.30176 0.79624 0.85916 0.0
C1155 C 0.33862 0.79632 0.87244 0.0
C1156 C 0.44437 0.80014 0.85997 0.0
C1157 C 0.5257 0.79857 0.91337 0.0
C1158 C 0.48719 0.797 0.89883 0.0
C1159 C 0.37387 0.79397 0.85842 0.0
C1160 C 0.41316 0.79474 0.87202 0.0
H1161 H 0.56163 0.80275 0.97674 0.0
H1162 H 0.49901 0.79957 0.95325 0.0
H1163 H 0.50369 0.80585 0.86378 0.0
H1164 H 0.33371 0.78903 0.79675 0.0
H1165 H 0.39826 0.78937 0.81989 0.0
C1166 C 0.73514 0.45082 0.87713 0.0
C1167 C 0.72753 0.44919 0.90465 0.0
C1168 C 0.77416 0.4503 0.86709 0.0
C1169 C 0.88112 0.44993 0.88849 0.0
H1170 H 0.89644 0.43727 0.81889 0.0
C1171 C 0.03449 0.43582 0.84957 0.0
C1172 C 0.04404 0.43815 0.82268 0.0
C1173 C 0.99633 0.43784 0.85976 0.0
C1174 C 0.89258 0.44091 0.83825 0.0
H1175 H 0.75493 0.44586 0.9433 0.0
H1176 H 0.82259 0.44467 0.92576 0.0
H1177 H 0.82897 0.43966 0.8362 0.0
H1178 H 0.02116 0.44451 0.78546 0.0
H1179 H 0.95455 0.44792 0.80319 0.0
H1180 H 0.94504 0.45087 0.89072 0.0
C1181 C 0.79871 0.44658 0.91194 0.0
C1182 C 0.8539 0.44233 0.84814 0.0
C1183 C 0.75979 0.44721 0.922 0.0
C1184 C 0.01478 0.44262 0.80627 0.0
C1185 C 0.97656 0.44453 0.81635 0.0
C1186 C 0.91984 0.44841 0.8787 0.0
C1187 C 0.8064 0.44803 0.88431 0.0
C1188 C 0.84763 0.44684 0.87342 0.0
C1189 C 0.9669 0.44212 0.84315 0.0
C1190 C 0.92592 0.44387 0.85349 0.0
H1191 H 0.71093 0.45244 0.86328 0.0
H1192 H 0.77901 0.45166 0.8458 0.0
H1193 H 0.87747 0.45359 0.90782 0.0
H1194 H 0.05642 0.43239 0.86272 0.0
H1195 H 0.98957 0.43585 0.88045 0.0
C1196 C 0.52238 0.42326 0.34185 0.0
C1197 C 0.53187 0.42967 0.32032 0.0
C1198 C 0.48411 0.42333 0.35317 0.0
C1199 C 0.39253 0.4385 0.35974 0.0
H1200 H 0.34124 0.41294 0.37219 0.0
C1201 C 0.22413 0.43492 0.38474 0.0
C1202 C 0.21285 0.42761 0.40362 0.0
C1203 C 0.26355 0.43544 0.37541 0.0
C1204 C 0.35528 0.42014 0.36921 0.0
H1205 H 0.50889 0.44135 0.29423 0.0
H1206 H 0.44215 0.44147 0.31401 0.0
H1207 H 0.40945 0.41345 0.35508 0.0
H1208 H 0.23431 0.41524 0.42792 0.0
H1209 H 0.303 0.41625 0.41206 0.0
H1210 H 0.33837 0.4452 0.37394 0.0
C1211 C 0.46435 0.43642 0.3222 0.0
C1212 C 0.39439 0.42043 0.35938 0.0
C1213 C 0.50255 0.43631 0.31077 0.0
C1214 C 0.24191 0.42092 0.41322 0.0
C1215 C 0.2813 0.42146 0.404 0.0
C1216 C 0.35343 0.43822 0.3697 0.0
C1217 C 0.45459 0.42985 0.34332 0.0
C1218 C 0.41341 0.42961 0.35447 0.0
C1219 C 0.29257 0.42868 0.38484 0.0
C1220 C 0.3343 0.42903 0.3745 0.0
H1221 H 0.54432 0.41807 0.34972 0.0
H1222 H 0.4776 0.41827 0.36965 0.0
H1223 H 0.40658 0.44569 0.35642 0.0
H1224 H 0.20241 0.44018 0.37691 0.0
H1225 H 0.27108 0.44101 0.36041 0.0
C1226 C 0.68653 0.81595 0.36344 0.0
C1227 C 0.67738 0.81206 0.33783 0.0
C1228 C 0.72505 0.81497 0.37411 0.0
C1229 C 0.81825 0.80036 0.36775 0.0
H1230 H 0.8677 0.82359 0.40044 0.0
C1231 C 0.98743 0.80241 0.38995 0.0
C1232 C -0.00018 0.80724 0.4137 0.0
C1233 C 0.94732 0.80261 0.38206 0.0
C1234 C 0.85416 0.81698 0.39175 0.0
H1235 H 0.70133 0.80397 0.30352 0.0
H1236 H 0.76842 0.80229 0.3221 0.0
H1237 H 0.79889 0.82458 0.38448 0.0
H1238 H 0.97961 0.81589 0.4481 0.0
H1239 H 0.90957 0.81611 0.43455 0.0
H1240 H 0.87353 0.79276 0.37492 0.0
C1241 C 0.74579 0.80603 0.33402 0.0
C1242 C 0.81471 0.81756 0.38258 0.0
C1243 C 0.70737 0.80705 0.32331 0.0
C1244 C 0.97111 0.81214 0.4296 0.0
C1245 C 0.93097 0.81232 0.42176 0.0
C1246 C 0.85765 0.79977 0.377 0.0
C1247 C 0.75514 0.81004 0.35946 0.0
C1248 C 0.79642 0.80928 0.37029 0.0
C1249 C 0.91863 0.80761 0.3978 0.0
C1250 C 0.8762 0.8081 0.38891 0.0
H1251 H 0.66408 0.81984 0.37517 0.0
H1252 H 0.73124 0.81804 0.39389 0.0
H1253 H 0.80477 0.7938 0.35872 0.0
H1254 H 0.0088 0.79858 0.37719 0.0
H1255 H 0.93897 0.79902 0.3633 0.0
C1256 C 0.70196 0.18555 0.14667 0.0
C1257 C 0.70793 0.18045 0.17115 0.0
C1258 C 0.66372 0.18622 0.13535 0.0
C1259 C 0.56435 0.17415 0.13689 0.0
H1260 H 0.52685 0.19924 0.10714 0.0
C1261 C 0.39888 0.18051 0.11119 0.0
C1262 C 0.39001 0.18537 0.08677 0.0
C1263 C 0.43808 0.18015 0.1208 0.0
C1264 C 0.53706 0.19216 0.1151 0.0
H1265 H 0.6784 0.17208 0.20292 0.0
H1266 H 0.61194 0.17332 0.18334 0.0
H1267 H 0.59492 0.19803 0.12475 0.0
H1268 H 0.4153 0.19382 0.05354 0.0
H1269 H 0.48391 0.19314 0.07032 0.0
H1270 H 0.50658 0.16827 0.12741 0.0
C1271 C 0.6368 0.17669 0.17269 0.0
C1272 C 0.57605 0.19145 0.12516 0.0
C1273 C 0.67492 0.17603 0.184 0.0
C1274 C 0.42113 0.19003 0.07244 0.0
C1275 C 0.46042 0.18968 0.0821 0.0
C1276 C 0.52546 0.17485 0.12687 0.0
C1277 C 0.63072 0.18178 0.14823 0.0
C1278 C 0.58999 0.18246 0.13641 0.0
C1279 C 0.46938 0.18463 0.10624 0.0
C1280 C 0.51121 0.18388 0.1161 0.0
H1281 H 0.72678 0.18903 0.13625 0.0
H1282 H 0.66007 0.19012 0.11635 0.0
H1283 H 0.57443 0.16706 0.14493 0.0
H1284 H 0.3756 0.17689 0.12281 0.0
H1285 H 0.44388 0.17636 0.13972 0.0
C1286 C 0.20773 0.56168 0.09947 0.0
C1287 C 0.20936 0.567 0.07503 0.0
C1288 C 0.17131 0.56033 0.11285 0.0
C1289 C 0.06822 0.57036 0.11681 0.0
H1290 H 0.04321 0.54445 0.14749 0.0
C1291 C 0.90867 0.55964 0.14892 0.0
C1292 C 0.90407 0.55463 0.17365 0.0
C1293 C 0.94663 0.56113 0.13792 0.0
C1294 C 0.04995 0.55176 0.13928 0.0
H1295 H 0.17402 0.5751 0.04554 0.0
H1296 H 0.11062 0.57263 0.06862 0.0
H1297 H 0.10844 0.54724 0.12669 0.0
H1298 H 0.93573 0.54713 0.20604 0.0
H1299 H 0.00214 0.54973 0.18674 0.0
H1300 H 0.00956 0.57483 0.12907 0.0
C1301 C 0.13751 0.56963 0.07771 0.0
C1302 C 0.08733 0.55337 0.12741 0.0
C1303 C 0.17387 0.571 0.06438 0.0
C1304 C 0.93825 0.55101 0.18695 0.0
C1305 C 0.97628 0.55247 0.17585 0.0
C1306 C 0.03085 0.56874 0.12858 0.0
C1307 C 0.13574 0.56426 0.10206 0.0
C1308 C 0.09676 0.56266 0.11582 0.0
C1309 C 0.98087 0.55762 0.15133 0.0
C1310 C 0.02116 0.5594 0.13973 0.0
H1311 H 0.23457 0.55852 0.10825 0.0
H1312 H 0.17105 0.55626 0.13174 0.0
H1313 H 0.07479 0.57767 0.10855 0.0
H1314 H 0.88297 0.56251 0.1381 0.0
H1315 H 0.94915 0.565 0.11879 0.0
C1316 C 0.71651 0.56582 0.59293 0.0
C1317 C 0.74606 0.55876 0.59944 0.0
C1318 C 0.67724 0.56456 0.60181 0.0
C1319 C 0.60693 0.54519 0.626 0.0
H1320 H 0.54169 0.56823 0.64354 0.0
C1321 C 0.44373 0.54271 0.66609 0.0
C1322 C 0.41615 0.54908 0.65336 0.0
C1323 C 0.48468 0.54359 0.6608 0.0
C1324 C 0.55953 0.56173 0.63857 0.0
H1325 H 0.7578 0.54499 0.62106 0.0
H1326 H 0.68929 0.54292 0.6372 0.0
H1327 H 0.61245 0.57048 0.63356 0.0
H1328 H 0.40985 0.56131 0.62493 0.0
H1329 H 0.48126 0.56289 0.61594 0.0
H1330 H 0.55372 0.53646 0.63136 0.0
C1331 C 0.69633 0.54932 0.6247 0.0
C1332 C 0.60006 0.56301 0.63278 0.0
C1333 C 0.73566 0.55054 0.61561 0.0
C1334 C 0.4303 0.55628 0.63504 0.0
C1335 C 0.4712 0.55723 0.63003 0.0
C1336 C 0.56641 0.5439 0.63209 0.0
C1337 C 0.66653 0.55627 0.61766 0.0
C1338 C 0.62416 0.55478 0.62597 0.0
C1339 C 0.4988 0.55095 0.64297 0.0
C1340 C 0.54221 0.55218 0.638 0.0
H1341 H 0.72341 0.57221 0.58038 0.0
H1342 H 0.65505 0.56998 0.59556 0.0
H1343 H 0.62439 0.53869 0.6205 0.0
H1344 H 0.43374 0.53709 0.68029 0.0
H1345 H 0.50536 0.53867 0.67111 0.0
C1346 C 0.93278 0.17119 0.61709 0.0
C1347 C 0.91758 0.17839 0.59922 0.0
C1348 C 0.97302 0.17139 0.62482 0.0
C1349 C 0.07175 0.18144 0.604 0.0
H1350 H 0.10149 0.175 0.67757 0.0
C1351 C 0.23231 0.18685 0.64648 0.0
C1352 C 0.24693 0.17925 0.66339 0.0
C1353 C 0.19244 0.18674 0.6378 0.0
C1354 C 0.09371 0.17672 0.65687 0.0
H1355 H 0.93261 0.19157 0.57581 0.0
H1356 H 0.0024 0.19203 0.58968 0.0
H1357 H 0.03122 0.17491 0.66465 0.0
H1358 H 0.23137 0.16543 0.68379 0.0
H1359 H 0.16226 0.16524 0.66857 0.0
H1360 H 0.1344 0.18332 0.59636 0.0
C1361 C 0.98352 0.1861 0.59732 0.0
C1362 C 0.0534 0.17666 0.64945 0.0
C1363 C 0.94338 0.18587 0.58951 0.0
C1364 C 0.2211 0.17144 0.6709 0.0
C1365 C 0.18135 0.17136 0.66233 0.0
C1366 C 0.1121 0.18154 0.61147 0.0
C1367 C 0.99894 0.17883 0.61495 0.0
C1368 C 0.04189 0.17898 0.6229 0.0
C1369 C 0.16639 0.17906 0.64595 0.0
C1370 C 0.12354 0.17913 0.63796 0.0
H1371 H 0.91376 0.1653 0.62482 0.0
H1372 H 0.98396 0.16559 0.63816 0.0
H1373 H 0.06405 0.18313 0.58327 0.0
H1374 H 0.25141 0.19298 0.64035 0.0
H1375 H 0.18174 0.19282 0.6253 0.0
C1376 C 0.85691 0.22028 0.2142 0.0
C1377 C 0.87309 0.21218 0.19984 0.0
C1378 C 0.88147 0.22804 0.22307 0.0
C1379 C 0.98025 0.23989 0.21464 0.0
H1380 H 0.9673 0.24674 0.2902 0.0
C1381 C 0.09674 0.26361 0.27112 0.0
C1382 C 0.08247 0.27092 0.28904 0.0
C1383 C 0.07079 0.25654 0.26011 0.0
C1384 C 0.97101 0.24503 0.26899 0.0
H1385 H 0.92731 0.20619 0.18207 0.0
H1386 H 0.97018 0.21979 0.1975 0.0
H1387 H 0.9219 0.23479 0.26937 0.0
H1388 H 0.0299 0.27641 0.30993 0.0
H1389 H 0.98442 0.26414 0.29042 0.0
H1390 H 0.02928 0.25015 0.2142 0.0
C1391 C 0.93849 0.22011 0.20192 0.0
C1392 C 0.94497 0.23818 0.25705 0.0
C1393 C 0.91393 0.21231 0.19313 0.0
C1394 C 0.04185 0.27084 0.29628 0.0
C1395 C 0.01581 0.26379 0.28513 0.0
C1396 C 0.00618 0.24678 0.22654 0.0
C1397 C 0.92268 0.22791 0.21764 0.0
C1398 C 0.9494 0.23551 0.22979 0.0
C1399 C 0.02989 0.25664 0.26664 0.0
C1400 C 0.00201 0.24939 0.25391 0.0
H1401 H 0.82551 0.22045 0.21955 0.0
H1402 H 0.86835 0.23405 0.23472 0.0
H1403 H 0.98414 0.23804 0.19352 0.0
H1404 H 0.12795 0.26343 0.26528 0.0
H1405 H 0.08281 0.251 0.24641 0.0
C1406 C 0.20734 0.96012 0.26802 0.0
C1407 C 0.16569 0.96138 0.26948 0.0
C1408 C 0.23178 0.96789 0.25892 0.0
C1409 C 0.22725 0.99108 0.21839 0.0
H1410 H 0.33271 0.99566 0.24844 0.0
C1411 C 0.32361 0.02599 0.19559 0.0
C1412 C 0.36491 0.02453 0.19207 0.0
C1413 C 0.29894 0.01805 0.20312 0.0
C1414 C 0.3035 0.99439 0.23964 0.0
H1415 H 0.11718 0.97192 0.26376 0.0
H1416 H 0.15989 0.98555 0.24862 0.0
H1417 H 0.29041 0.9826 0.26738 0.0
H1418 H 0.41236 0.01347 0.1924 0.0
H1419 H 0.36921 -0.00038 0.20556 0.0
H1420 H 0.24025 0.00303 0.19098 0.0
C1421 C 0.17361 0.97848 0.25376 0.0
C1422 C 0.27924 0.98691 0.25049 0.0
C1423 C 0.14915 0.97069 0.26267 0.0
C1424 C 0.3807 0.01487 0.19504 0.0
C1425 C 0.35608 0.00694 0.20277 0.0
C1426 C 0.25142 -0.00139 0.20768 0.0
C1427 C 0.21513 0.97711 0.25127 0.0
C1428 C 0.2408 0.98516 0.24001 0.0
C1429 C 0.31513 0.0085 0.20744 0.0
C1430 C 0.2898 0.00033 0.21817 0.0
H1431 H 0.22099 0.95302 0.27299 0.0
H1432 H 0.26357 0.96653 0.25701 0.0
H1433 H 0.19813 0.98982 0.20947 0.0
H1434 H 0.31049 0.03334 0.19339 0.0
H1435 H 0.26749 0.01947 0.20668 0.0
C1436 C 0.96197 0.0242 0.02992 0.0
C1437 C 0.9835 0.03314 0.02682 0.0
C1438 C 0.9685 0.01618 0.01245 0.0
C1439 C 0.03986 0.00559 0.96359 0.0
H1440 H 0.94571 0.99249 0.9346 0.0
C1441 C 0.05509 0.97467 0.88426 0.0
C1442 C 0.0331 0.96596 0.88972 0.0
C1443 C 0.0464 0.98357 0.8978 0.0
C1444 C 0.9723 -0.00397 0.94261 0.0
H1445 H 0.03021 0.0405 0.00379 0.0
H1446 H 0.04173 0.02647 0.97342 0.0
H1447 H 0.93802 0.00621 0.96657 0.0
H1448 H 0.98258 0.95997 0.91198 0.0
H1449 H 0.96777 0.9754 0.93569 0.0
H1450 H 0.07421 0.99532 0.94012 0.0
C1451 C 0.01974 0.02567 0.98932 0.0
C1452 C 0.9679 0.00387 0.96098 0.0
C1453 C 0.01309 0.03371 0.00672 0.0
C1454 C 0.00024 0.96653 0.90736 0.0
C1455 C 0.99166 0.97541 0.92094 0.0
C1456 C 0.04427 -0.00227 0.9453 0.0
C1457 C 0.99686 0.01691 0.99161 0.0
C1458 C 0.00164 0.00867 0.97185 0.0
C1459 C 0.01558 0.98393 0.91707 0.0
C1460 C 0.01055 0.99281 0.93474 0.0
H1461 H 0.93904 0.02349 0.04523 0.0
H1462 H 0.95096 0.00945 0.01502 0.0
H1463 H 0.06642 0.00909 0.97179 0.0
H1464 H 0.08035 0.97452 0.8706 0.0
H1465 H 0.06478 0.99007 0.89387 0.0
C1466 C 0.20057 0.20974 0.05692 0.0
C1467 C 0.23337 0.2092 0.07461 0.0
C1468 C 0.19056 0.21875 0.04445 0.0
C1469 C 0.20865 0.2461 0.04557 0.0
H1470 H 0.18791 0.24399 0.96875 0.0
C1471 C 0.2106 0.28048 0.976 0.0
C1472 C 0.1788 0.28135 0.95759 0.0
C1473 C 0.21679 0.27159 0.99009 0.0
C1474 C 0.19327 0.2447 0.99022 0.0
H1475 H 0.2798 0.21784 0.09437 0.0
H1476 H 0.26258 0.23352 0.07243 0.0
H1477 H 0.19665 0.22888 0.99548 0.0
H1478 H 0.12957 0.27343 0.93873 0.0
H1479 H 0.14047 0.25789 0.96332 0.0
H1480 H 0.20576 0.26194 0.04017 0.0
C1481 C 0.24442 0.227 0.06829 0.0
C1482 C 0.1981 0.23604 0.00559 0.0
C1483 C 0.25435 0.21799 0.08085 0.0
C1484 C 0.15436 0.273 0.95275 0.0
C1485 C 0.16064 0.26409 0.96681 0.0
C1486 C 0.20392 0.25476 0.03018 0.0
C1487 C 0.21317 0.22741 0.04934 0.0
C1488 C 0.20598 0.23664 0.03343 0.0
C1489 C 0.19142 0.26336 0.98602 0.0
C1490 C 0.19637 0.25415 0.00231 0.0
H1491 H 0.18354 0.20311 0.05187 0.0
H1492 H 0.16573 0.21887 0.03042 0.0
H1493 H 0.21421 0.24681 0.06702 0.0
H1494 H 0.23008 0.28676 0.98014 0.0
H1495 H 0.24122 0.27119 0.0044 0.0
C1496 C 0.94687 0.71565 0.7111 0.0
C1497 C 0.96792 0.70682 0.70539 0.0
C1498 C 0.96659 0.7239 0.72206 0.0
C1499 C 0.06747 0.7345 0.73572 0.0
H1500 H 0.01183 0.74842 0.79321 0.0
C1501 C 0.14866 0.76187 0.80602 0.0
C1502 C 0.13077 0.77132 0.80859 0.0
C1503 C 0.12757 0.75394 0.79455 0.0
C1504 C 0.0276 0.74463 0.7771 0.0
H1505 H 0.02647 0.69986 0.70567 0.0
H1506 H 0.06071 0.71414 0.72527 0.0
H1507 H 0.97801 0.73504 0.76881 0.0
H1508 H 0.07584 0.77968 0.80278 0.0
H1509 H 0.03884 0.76574 0.78309 0.0
H1510 H 0.11733 0.74398 0.74449 0.0
C1511 C 0.02908 0.71479 0.72091 0.0
C1512 C 0.0082 0.73701 0.76297 0.0
C1513 C 0.00943 0.70657 0.7097 0.0
C1514 C 0.09052 0.7725 0.80101 0.0
C1515 C 0.0693 0.76452 0.78976 0.0
C1516 C 0.08696 0.74205 0.75003 0.0
C1517 C 0.00774 0.72347 0.7278 0.0
C1518 C 0.02792 0.73184 0.74212 0.0
C1519 C 0.08804 0.75526 0.78569 0.0
C1520 C 0.06727 0.74716 0.7709 0.0
H1521 H 0.9149 0.7161 0.7078 0.0
H1522 H 0.94939 0.73055 0.7265 0.0
H1523 H 0.08335 0.7308 0.71952 0.0
H1524 H 0.17956 0.76069 0.81173 0.0
H1525 H 0.14248 0.74682 0.79205 0.0
C1526 C 0.66367 0.97811 0.83392 0.0
C1527 C 0.6845 0.96908 0.83735 0.0
C1528 C 0.68329 0.98656 0.82407 0.0
C1529 C 0.78015 -0.00152 0.8111 0.0
H1530 H 0.72798 0.00849 0.74665 0.0
C1531 C 0.85694 0.0269 0.73989 0.0
C1532 C 0.83268 0.03421 0.72784 0.0
C1533 C 0.8398 0.01901 0.75434 0.0
C1534 C 0.74271 0.00594 0.76484 0.0
H1535 H 0.74301 0.9621 0.83552 0.0
H1536 H 0.77738 0.97697 0.8187 0.0
H1537 H 0.69655 0.99528 0.7727 0.0
H1538 H 0.77144 0.03904 0.72171 0.0
H1539 H 0.7417 0.02555 0.74749 0.0
H1540 H 0.82602 0.00927 0.80358 0.0
C1541 C 0.74578 0.97743 0.82337 0.0
C1542 C 0.72467 -0.00166 0.77973 0.0
C1543 C 0.72606 0.96893 0.83295 0.0
C1544 C 0.79097 0.03346 0.73046 0.0
C1545 C 0.77389 0.02568 0.7452 0.0
C1546 C 0.798 0.00622 0.7964 0.0
C1547 C 0.72421 0.98619 0.81782 0.0
C1548 C 0.74317 0.99453 0.80298 0.0
C1549 C 0.79803 0.01833 0.75735 0.0
C1550 C 0.77949 0.01004 0.77304 0.0
H1551 H 0.63171 0.97852 0.83727 0.0
H1552 H 0.66613 0.99328 0.82032 0.0
H1553 H 0.79497 0.99566 0.82899 0.0
H1554 H 0.8892 0.02728 0.73816 0.0
H1555 H 0.85933 0.01341 0.76299 0.0
C1556 C 0.78284 0.78471 -0.00104 0.0
C1557 C 0.75635 0.78361 0.97711 0.0
C1558 C 0.79422 0.77644 0.01432 0.0
C1559 C 0.75926 0.75136 0.03295 0.0
H1560 H 0.86882 0.74704 0.05569 0.0
C1561 C 0.81601 0.71371 0.07318 0.0
C1562 C 0.8462 0.7136 0.09291 0.0
C1563 C 0.80262 0.72271 0.06229 0.0
C1564 C 0.83794 0.74823 0.04996 0.0
H1565 H 0.72229 0.77288 0.95365 0.0
H1566 H 0.74243 0.75845 0.98036 0.0
H1567 H 0.85219 0.76175 0.02893 0.0
H1568 H 0.88427 0.72292 0.11788 0.0
H1569 H 0.86041 0.73869 0.09906 0.0
H1570 H 0.74497 0.73783 0.05378 0.0
C1571 C 0.75387 0.76574 0.98583 0.0
C1572 C 0.82848 0.75664 0.03451 0.0
C1573 C 0.74264 0.774 0.97039 0.0
C1574 C 0.86109 0.72274 0.10263 0.0
C1575 C 0.84768 0.73177 0.09168 0.0
C1576 C 0.76867 0.74298 0.04847 0.0
C1577 C 0.77922 0.7669 0.00823 0.0
C1578 C 0.78915 0.7582 0.0255 0.0
C1579 C 0.81903 0.73183 0.0709 0.0
C1580 C 0.80822 0.74124 0.05682 0.0
H1581 H 0.79395 0.79201 0.00467 0.0
H1582 H 0.8137 0.77756 0.03152 0.0
H1583 H 0.72851 0.75249 0.02678 0.0
H1584 H 0.80378 0.70681 0.06529 0.0
H1585 H 0.78077 0.72247 0.04617 0.0
C1586 C 0.28672 0.51446 0.65712 0.0
C1587 C 0.26506 0.52329 0.66168 0.0
C1588 C 0.27792 0.5058 0.67174 0.0
C1589 C 0.20212 0.49427 0.71702 0.0
H1590 H 0.29373 0.48017 0.74629 0.0
C1591 C 0.18472 0.46568 0.80239 0.0
C1592 C 0.2026 0.45636 0.79753 0.0
C1593 C 0.19447 0.47392 0.78638 0.0
C1594 C 0.2679 0.48401 0.73815 0.0
H1595 H 0.21547 0.52977 0.68389 0.0
H1596 H 0.20055 0.51479 0.70948 0.0
H1597 H 0.30408 0.49389 0.71462 0.0
H1598 H 0.24689 0.44854 0.77349 0.0
H1599 H 0.26415 0.46296 0.74578 0.0
H1600 H 0.16602 0.48448 0.74093 0.0
C1601 C 0.22417 0.51448 0.69455 0.0
C1602 C 0.27375 0.49181 0.71985 0.0
C1603 C 0.23286 0.5231 0.67992 0.0
C1604 C 0.23245 0.45562 0.77764 0.0
C1605 C 0.24241 0.46387 0.7618 0.0
C1606 C 0.1963 0.48652 0.73545 0.0
C1607 C 0.24728 0.5058 0.6912 0.0
C1608 C 0.24092 0.49707 0.70917 0.0
C1609 C 0.22255 0.47301 0.76543 0.0
C1610 C 0.22912 0.48135 0.74631 0.0
H1611 H 0.31159 0.51433 0.64312 0.0
H1612 H 0.29575 0.49917 0.66829 0.0
H1613 H 0.17616 0.49805 0.70888 0.0
H1614 H 0.16168 0.46651 0.81758 0.0
H1615 H 0.17922 0.48093 0.78991 0.0
C1616 C 0.0779 0.46838 0.45353 0.0
C1617 C 0.05677 0.4608 0.44006 0.0
C1618 C 0.05777 0.47655 0.46448 0.0
C1619 C 0.96302 0.49064 0.46305 0.0
H1620 H 0.99346 0.49798 0.53595 0.0
C1621 C 0.87137 0.51874 0.52567 0.0
C1622 C 0.89296 0.5259 0.54044 0.0
C1623 C 0.89091 0.51065 0.51379 0.0
C1624 C 0.98487 0.4961 0.5155 0.0
H1625 H 0.99807 0.45608 0.42647 0.0
H1626 H 0.96283 0.47039 0.44566 0.0
H1627 H 0.02869 0.48451 0.51304 0.0
H1628 H 0.95191 0.53004 0.55488 0.0
H1629 H 0.9861 0.51595 0.53396 0.0
H1630 H 0.91928 0.50226 0.46549 0.0
C1631 C 0.99504 0.47001 0.44766 0.0
C1632 C 0.00509 0.48839 0.50235 0.0
C1633 C 0.01522 0.4618 0.43669 0.0
C1634 C 0.93438 0.52464 0.54371 0.0
C1635 C 0.95396 0.51654 0.53178 0.0
C1636 C 0.94284 0.49838 0.47619 0.0
C1637 C 0.01603 0.47735 0.4622 0.0
C1638 C 0.99447 0.48559 0.47596 0.0
C1639 C 0.93252 0.50953 0.51637 0.0
C1640 C 0.95357 0.5012 0.50256 0.0
H1641 H 0.10997 0.46788 0.45631 0.0
H1642 H 0.07487 0.48219 0.47509 0.0
H1643 H 0.95443 0.48871 0.44263 0.0
H1644 H 0.83938 0.51947 0.52287 0.0
H1645 H 0.87341 0.50528 0.50249 0.0
C1646 C 0.35119 0.72211 0.53485 0.0
C1647 C 0.33288 0.71435 0.54943 0.0
C1648 C 0.32811 0.72936 0.52198 0.0
C1649 C 0.22851 0.74091 0.51909 0.0
H1650 H 0.25771 0.74641 0.44477 0.0
C1651 C 0.13171 0.76634 0.45227 0.0
C1652 C 0.15241 0.77352 0.43701 0.0
C1653 C 0.15224 0.75846 0.46445 0.0
C1654 C 0.24935 0.74503 0.46555 0.0
H1655 H 0.276 0.70845 0.56323 0.0
H1656 H 0.23562 0.7212 0.54082 0.0
H1657 H 0.29691 0.73455 0.47105 0.0
H1658 H 0.21059 0.77778 0.42142 0.0
H1659 H 0.24644 0.76411 0.44288 0.0
H1660 H 0.18136 0.75151 0.51379 0.0
C1661 C 0.26789 0.72162 0.53932 0.0
C1662 C 0.27183 0.73824 0.48061 0.0
C1663 C 0.29102 0.71433 0.55214 0.0
C1664 C 0.19372 0.77235 0.43296 0.0
C1665 C 0.21429 0.76449 0.44526 0.0
C1666 C 0.20612 0.74775 0.50406 0.0
C1667 C 0.2862 0.72904 0.52349 0.0
C1668 C 0.26183 0.73617 0.50759 0.0
C1669 C 0.19393 0.7576 0.46172 0.0
C1670 C 0.21642 0.74993 0.47715 0.0
H1671 H 0.38338 0.7224 0.53252 0.0
H1672 H 0.34306 0.73511 0.51039 0.0
H1673 H 0.2203 0.73951 0.53989 0.0
H1674 H 0.09981 0.76699 0.45561 0.0
H1675 H 0.13553 0.75315 0.4765 0.0
C1676 C 0.6749 0.4613 0.31308 0.0
C1677 C 0.69353 0.45226 0.30607 0.0
C1678 C 0.68782 0.4703 0.30178 0.0
C1679 C 0.73795 0.47935 0.24049 0.0
H1680 H 0.73399 0.50494 0.27692 0.0
C1681 C 0.7865 0.51653 0.19028 0.0
C1682 C 0.76297 0.52499 0.19577 0.0
C1683 C 0.77931 0.50752 0.20368 0.0
C1684 C 0.73487 0.49785 0.26642 0.0
H1685 H 0.74254 0.44569 0.2835 0.0
H1686 H 0.76555 0.46142 0.26427 0.0
H1687 H 0.72266 0.48965 0.30258 0.0
H1688 H 0.71221 0.53047 0.21871 0.0
H1689 H 0.69947 0.51473 0.24179 0.0
H1690 H 0.74991 0.48756 0.2043 0.0
C1691 C 0.74024 0.46151 0.2779 0.0
C1692 C 0.72849 0.4891 0.28114 0.0
C1693 C 0.72724 0.45251 0.28912 0.0
C1694 C 0.73104 0.52412 0.21408 0.0
C1695 C 0.72395 0.51512 0.22752 0.0
C1696 C 0.74443 0.48811 0.22579 0.0
C1697 C 0.71979 0.47046 0.28335 0.0
C1698 C 0.7296 0.47974 0.2683 0.0
C1699 C 0.7485 0.50679 0.22288 0.0
C1700 C 0.74255 0.49746 0.23854 0.0
H1701 H 0.64887 0.46138 0.32609 0.0
H1702 H 0.67128 0.47704 0.30635 0.0
H1703 H 0.73828 0.47229 0.22984 0.0
H1704 H 0.81137 0.51695 0.17632 0.0
H1705 H 0.79882 0.50123 0.19973 0.0
C1706 C 0.78509 0.20997 0.60172 0.0
C1707 C 0.7628 0.20141 0.59518 0.0
C1708 C 0.77681 0.21909 0.58915 0.0
C1709 C 0.70388 0.23229 0.54492 0.0
H1710 H 0.79915 0.24459 0.51502 0.0
C1711 C 0.69603 0.25948 0.45542 0.0
C1712 C 0.71827 0.26834 0.45769 0.0
C1713 C 0.70189 0.25166 0.47367 0.0
C1714 C 0.77229 0.24132 0.52345 0.0
H1715 H 0.71193 0.19591 0.5724 0.0
H1716 H 0.69775 0.21172 0.55046 0.0
H1717 H 0.8057 0.23096 0.54729 0.0
H1718 H 0.7656 0.27574 0.48004 0.0
H1719 H 0.77595 0.26207 0.51174 0.0
H1720 H 0.67052 0.24251 0.52051 0.0
C1721 C 0.72162 0.21145 0.5652 0.0
C1722 C 0.77601 0.23354 0.54208 0.0
C1723 C 0.72989 0.20235 0.57772 0.0
C1724 C 0.74793 0.26902 0.47774 0.0
C1725 C 0.7539 0.26118 0.49591 0.0
C1726 C 0.70018 0.24004 0.52622 0.0
C1727 C 0.74602 0.21982 0.56992 0.0
C1728 C 0.74184 0.22885 0.55275 0.0
C1729 C 0.73026 0.25253 0.49446 0.0
C1730 C 0.73435 0.24453 0.51499 0.0
H1731 H 0.81051 0.20951 0.61521 0.0
H1732 H 0.79561 0.22547 0.59363 0.0
H1733 H 0.677 0.22893 0.55303 0.0
H1734 H 0.67302 0.2587 0.44018 0.0
H1735 H 0.68379 0.24499 0.47173 0.0
C1736 C 0.58389 0.27378 0.78996 0.0
C1737 C 0.56575 0.282 0.80263 0.0
C1738 C 0.561 0.26568 0.78133 0.0
C1739 C 0.45813 0.25918 0.7613 0.0
H1740 H 0.49979 0.23217 0.76318 0.0
C1741 C 0.36775 0.2242 0.72828 0.0
C1742 C 0.38853 0.21695 0.71327 0.0
C1743 C 0.38797 0.23238 0.73929 0.0
C1744 C 0.48793 0.23969 0.76229 0.0
H1745 H 0.50947 0.28798 0.81719 0.0
H1746 H 0.46945 0.27369 0.8025 0.0
H1747 H 0.53717 0.2456 0.78469 0.0
H1748 H 0.44657 0.21284 0.69715 0.0
H1749 H 0.48174 0.22713 0.71631 0.0
H1750 H 0.40874 0.2532 0.73896 0.0
C1751 C 0.50137 0.27362 0.79881 0.0
C1752 C 0.50931 0.24739 0.77465 0.0
C1753 C 0.52434 0.28176 0.80744 0.0
C1754 C 0.42966 0.21827 0.70865 0.0
C1755 C 0.4499 0.22641 0.71981 0.0
C1756 C 0.4366 0.25146 0.74907 0.0
C1757 C 0.51938 0.26556 0.78523 0.0
C1758 C 0.49496 0.25726 0.77401 0.0
C1759 C 0.42941 0.23345 0.73566 0.0
C1760 C 0.45156 0.24165 0.74914 0.0
H1761 H 0.61571 0.27372 0.78591 0.0
H1762 H 0.57585 0.25968 0.77067 0.0
H1763 H 0.44647 0.26671 0.76009 0.0
H1764 H 0.33604 0.22341 0.73219 0.0
H1765 H 0.37142 0.23767 0.75148 0.0
C1766 C 0.48111 0.03518 0.58015 0.0
C1767 C 0.44249 0.0357 0.59126 0.0
C1768 C 0.49292 0.02687 0.56521 0.0
C1769 C 0.44812 0.00707 0.52372 0.0
H1770 H 0.55743 -0.00244 0.51974 0.0
C1771 C 0.50032 0.97302 0.46035 0.0
C1772 C 0.53764 0.97384 0.44742 0.0
C1773 C 0.4865 0.98067 0.47709 0.0
C1774 C 0.52686 0.00022 0.52045 0.0
H1775 H 0.38728 0.0275 0.59744 0.0
H1776 H 0.40834 0.01285 0.57185 0.0
H1777 H 0.53906 0.00973 0.55412 0.0
H1778 H 0.58811 0.98368 0.44019 0.0
H1779 H 0.5638 -0.00297 0.4693 0.0
H1780 H 0.43603 -0.00252 0.49007 0.0
C1781 C 0.42903 0.01902 0.57407 0.0
C1782 C 0.51631 0.00716 0.5402 0.0
C1783 C 0.41714 0.02737 0.58899 0.0
C1784 C 0.55938 0.98277 0.44998 0.0
C1785 C 0.54567 0.99039 0.46685 0.0
C1786 C 0.45865 7e-05 0.50407 0.0
C1787 C 0.46649 0.01884 0.56118 0.0
C1788 C 0.47692 0.01076 0.54189 0.0
C1789 C 0.5098 0.98926 0.48128 0.0
C1790 C 0.49824 -0.00333 0.50203 0.0
H1791 H 0.50149 0.04145 0.58162 0.0
H1792 H 0.52191 0.02702 0.55549 0.0
H1793 H 0.41767 0.00982 0.52413 0.0
H1794 H 0.48274 0.96625 0.4587 0.0
H1795 H 0.45869 0.97961 0.48792 0.0
C1796 C 0.55073 0.77965 0.31614 0.0
C1797 C 0.53166 0.78861 0.30885 0.0
C1798 C 0.54432 0.77095 0.3012 0.0
C1799 C 0.47619 0.75905 0.25235 0.0
H1800 H 0.57015 0.74371 0.23269 0.0
C1801 C 0.46503 0.72579 0.17952 0.0
C1802 C 0.48474 0.71706 0.18792 0.0
C1803 C 0.47297 0.73491 0.19211 0.0
C1804 C 0.5436 0.74787 0.23815 0.0
H1805 H 0.48951 0.79534 0.28093 0.0
H1806 H 0.47829 0.78015 0.255 0.0
H1807 H 0.57738 0.75854 0.26085 0.0
H1808 H 0.53008 0.71118 0.21495 0.0
H1809 H 0.54358 0.72702 0.237 0.0
H1810 H 0.44231 0.74834 0.22999 0.0
C1811 C 0.49817 0.77985 0.27224 0.0
C1812 C 0.54772 0.75634 0.25435 0.0
C1813 C 0.50469 0.78856 0.28708 0.0
C1814 C 0.51426 0.71775 0.20802 0.0
C1815 C 0.52214 0.72686 0.22062 0.0
C1816 C 0.47204 0.75056 0.23623 0.0
C1817 C 0.51856 0.77101 0.27879 0.0
C1818 C 0.51404 0.76199 0.26173 0.0
C1819 C 0.50079 0.73549 0.21333 0.0
C1820 C 0.50568 0.74485 0.22904 0.0
H1821 H 0.57163 0.77943 0.33282 0.0
H1822 H 0.55993 0.76419 0.30699 0.0
H1823 H 0.44966 0.7632 0.25792 0.0
H1824 H 0.4423 0.72552 0.16396 0.0
H1825 H 0.45661 0.74147 0.18566 0.0
C1826 C 0.57918 0.48265 0.95335 0.0
C1827 C 0.56125 0.47506 0.93797 0.0
C1828 C 0.55605 0.49029 0.96449 0.0
C1829 C 0.45705 0.50257 0.96048 0.0
H1830 H 0.48072 0.51031 0.03423 0.0
C1831 C 0.35176 0.52808 0.02051 0.0
C1832 C 0.3699 0.53616 0.03385 0.0
C1833 C 0.3749 0.52028 0.01028 0.0
C1834 C 0.47394 0.50827 0.01358 0.0
H1835 H 0.50513 0.4697 0.92145 0.0
H1836 H 0.46468 0.48296 0.94114 0.0
H1837 H 0.52195 0.49774 0.01197 0.0
H1838 H 0.42637 0.54213 0.04819 0.0
H1839 H 0.46679 0.52847 0.03034 0.0
H1840 H 0.4089 0.51306 0.96218 0.0
C1841 C 0.4967 0.48308 0.94437 0.0
C1842 C 0.49762 0.5011 0.00077 0.0
C1843 C 0.51988 0.47546 0.93313 0.0
C1844 C 0.41148 0.53601 0.038 0.0
C1845 C 0.43464 0.52818 0.02782 0.0
C1846 C 0.43329 0.50969 0.97333 0.0
C1847 C 0.51443 0.49048 0.96058 0.0
C1848 C 0.4895 0.49818 0.97405 0.0
C1849 C 0.41667 0.52037 0.01326 0.0
C1850 C 0.44148 0.51262 1e-05 0.0
H1851 H 0.61104 0.4826 0.9573 0.0
H1852 H 0.57075 0.49599 0.97639 0.0
H1853 H 0.45033 0.5006 0.93978 0.0
H1854 H 0.31977 0.52792 0.01712 0.0
H1855 H 0.36016 0.51426 -0.00041 0.0
C1856 C 0.19942 0.31808 0.24104 0.0
C1857 C 0.16339 0.31509 0.25306 0.0
C1858 C 0.20016 0.321 0.21395 0.0
C1859 C 0.14019 0.31777 0.15165 0.0
H1860 H 0.22037 0.33541 0.12122 0.0
C1861 C 0.1515 0.32391 0.0376 0.0
C1862 C 0.18916 0.32115 0.02749 0.0
C1863 C 0.14637 0.32568 0.06516 0.0
C1864 C 0.19765 0.33053 0.12955 0.0
H1865 H 0.09953 0.31353 0.24718 0.0
H1866 H 0.10029 0.31914 0.20052 0.0
H1867 H 0.21398 0.33398 0.17024 0.0
H1868 H 0.25151 0.31884 0.03781 0.0
H1869 H 0.24255 0.32206 0.0859 0.0
H1870 H 0.124 0.31432 0.11099 0.0
C1871 C 0.12836 0.3188 0.21136 0.0
C1872 C 0.19414 0.32964 0.15758 0.0
C1873 C 0.12782 0.31564 0.23816 0.0
C1874 C 0.22207 0.32087 0.04509 0.0
C1875 C 0.21704 0.32279 0.07256 0.0
C1876 C 0.14326 0.31879 0.12375 0.0
C1877 C 0.1647 0.3212 0.19859 0.0
C1878 C 0.16591 0.32307 0.16898 0.0
C1879 C 0.17892 0.3249 0.08294 0.0
C1880 C 0.1725 0.32502 0.11244 0.0
H1881 H 0.22727 0.31768 0.25216 0.0
H1882 H 0.2288 0.32267 0.20483 0.0
H1883 H 0.11872 0.31245 0.15947 0.0
H1884 H 0.1256 0.3242 0.02449 0.0
H1885 H 0.11671 0.32734 0.07273 0.0
C1886 C 0.08035 0.9142 0.98461 0.0
C1887 C 0.06206 0.92249 0.9724 0.0
C1888 C 0.08502 0.91384 0.01264 0.0
C1889 C 0.08756 0.93086 0.07159 0.0
H1890 H 0.08421 0.90628 0.11295 0.0
C1891 C 0.08899 0.93043 0.18734 0.0
C1892 C 0.11819 0.92431 0.19927 0.0
C1893 C 0.08069 0.92966 0.15985 0.0
C1894 C 0.08538 0.91318 0.10154 0.0
H1895 H 0.03205 0.93656 0.97982 0.0
H1896 H 0.03853 0.93575 0.02859 0.0
H1897 H 0.07058 0.90586 0.06445 0.0
H1898 H 0.16069 0.91238 0.192 0.0
H1899 H 0.14562 0.91094 0.1438 0.0
H1900 H 0.10151 0.93818 0.10878 0.0
C1901 C 0.05081 0.92971 0.01665 0.0
C1902 C 0.07773 0.91295 0.07379 0.0
C1903 C 0.0468 0.93015 0.9887 0.0
C1904 C 0.13819 0.91723 0.18331 0.0
C1905 C 0.12944 0.91636 0.15582 0.0
C1906 C 0.09461 0.9311 0.09928 0.0
C1907 C 0.07094 0.92169 0.02895 0.0
C1908 C 0.07865 0.92181 0.05849 0.0
C1909 C 0.101 0.92266 0.14384 0.0
C1910 C 0.09354 0.92227 0.11449 0.0
H1911 H 0.09251 0.90821 0.97245 0.0
H1912 H 0.10095 0.90759 0.02137 0.0
H1913 H 0.08966 0.93779 0.06041 0.0
H1914 H 0.07304 0.93596 0.19912 0.0
H1915 H 0.05842 0.93455 0.15106 0.0
C1916 C 0.99042 0.67613 0.79565 0.0
C1917 C 0.95672 0.67488 0.77906 0.0
C1918 C 0.98717 0.67511 0.82359 0.0
C1919 C 0.91564 0.67811 0.8779 0.0
H1920 H 0.9921 0.66319 0.92076 0.0
C1921 C 0.89918 0.6752 0.99293 0.0
C1922 C 0.93423 0.67582 0.00845 0.0
C1923 C 0.9013 0.67405 0.965 0.0
C1924 C 0.97076 0.66748 0.90912 0.0
H1925 H 0.89333 0.67142 0.77862 0.0
H1926 H 0.8876 0.66979 0.8276 0.0
H1927 H 0.99716 0.66301 0.87159 0.0
H1928 H 0.999 0.67562 0.007 0.0
H1929 H 0.00283 0.67397 0.95808 0.0
H1930 H 0.89005 0.68292 0.91512 0.0
C1931 C 0.91649 0.67153 0.81889 0.0
C1932 C 0.97358 0.66733 0.88099 0.0
C1933 C 0.91983 0.67242 0.7909 0.0
C1934 C 0.97148 0.67513 0.99554 0.0
C1935 C 0.97363 0.67411 0.96751 0.0
C1936 C 0.91309 0.67837 0.90598 0.0
C1937 C 0.95007 0.67295 0.83547 0.0
C1938 C 0.94611 0.67267 0.86517 0.0
C1939 C 0.93854 0.67365 0.95188 0.0
C1940 C 0.94069 0.67308 0.92196 0.0
H1941 H 0.01928 0.67799 0.78709 0.0
H1942 H 0.01344 0.67632 0.83597 0.0
H1943 H 0.89446 0.68242 0.86614 0.0
H1944 H 0.87 0.67559 0.00237 0.0
H1945 H 0.87367 0.6735 0.95371 0.0
C1946 C 0.88684 0.07963 0.76755 0.0
C1947 C 0.84616 0.07834 0.76137 0.0
C1948 C 0.89852 0.08271 0.79326 0.0
C1949 C 0.86282 0.09287 0.85865 0.0
H1950 H 0.94342 0.07512 0.88793 0.0
C1951 C 0.88283 0.08495 0.97245 0.0
C1952 C 0.92081 0.0821 0.98172 0.0
C1953 C 0.87683 0.08713 0.94515 0.0
C1954 C 0.92159 0.08033 0.88007 0.0
H1955 H 0.78573 0.0799 0.77671 0.0
H1956 H 0.80621 0.08511 0.8218 0.0
H1957 H 0.92722 0.07431 0.84043 0.0
H1958 H 0.983 0.08023 0.97053 0.0
H1959 H 0.97294 0.08441 0.92321 0.0
H1960 H 0.85661 0.09871 0.89871 0.0
C1961 C 0.82904 0.08383 0.80669 0.0
C1962 C 0.91224 0.07985 0.85274 0.0
C1963 C 0.81732 0.08078 0.7809 0.0
C1964 C 0.95326 0.08225 0.96378 0.0
C1965 C 0.94742 0.08459 0.93665 0.0
C1966 C 0.87238 0.09341 0.88612 0.0
C1967 C 0.8698 0.08452 0.81336 0.0
C1968 C 0.88233 0.08599 0.84178 0.0
C1969 C 0.90885 0.08662 0.92677 0.0
C1970 C 0.90146 0.08702 0.89722 0.0
H1971 H 0.9098 0.07795 0.75282 0.0
H1972 H 0.93014 0.08335 0.79768 0.0
H1973 H 0.83983 0.09775 0.85069 0.0
H1974 H 0.85729 0.08487 0.9859 0.0
H1975 H 0.84668 0.0886 0.93824 0.0
C1976 C 0.24401 0.80762 0.7081 0.0
C1977 C 0.21045 0.80704 0.72503 0.0
C1978 C 0.23922 0.80847 0.68015 0.0
C1979 C 0.16365 0.80414 0.62655 0.0
H1980 H 0.2378 0.81927 0.58239 0.0
C1981 C 0.13911 0.80983 0.51265 0.0
C1982 C 0.17181 0.807 0.49661 0.0
C1983 C 0.14368 0.81099 0.5405 0.0
C1984 C 0.21691 0.81503 0.59454 0.0
H1985 H 0.14561 0.80731 0.7262 0.0
H1986 H 0.13724 0.80914 0.67781 0.0
H1987 H 0.24601 0.81909 0.63139 0.0
H1988 H 0.23528 0.80363 0.49685 0.0
H1989 H 0.24326 0.80579 0.54544 0.0
H1990 H 0.13438 0.80018 0.58968 0.0
C1991 C 0.16729 0.80859 0.68581 0.0
C1992 C 0.22171 0.81486 0.62256 0.0
C1993 C 0.17208 0.80759 0.71362 0.0
C1994 C 0.20948 0.80576 0.50873 0.0
C1995 C 0.21414 0.80706 0.53649 0.0
C1996 C 0.15857 0.80442 0.59863 0.0
C1997 C 0.20074 0.80889 0.66866 0.0
C1998 C 0.19528 0.80936 0.6389 0.0
C1999 C 0.18113 0.80949 0.55268 0.0
C2000 C 0.1853 0.8098 0.58237 0.0
H2001 H 0.27395 0.80719 0.71638 0.0
H2002 H 0.26567 0.80855 0.66756 0.0
H2003 H 0.14322 0.79964 0.63835 0.0
H2004 H 0.10972 0.81083 0.50386 0.0
H2005 H 0.11783 0.81294 0.55258 0.0
C2006 C 0.07084 0.41597 0.71968 0.0
C2007 C 0.10919 0.41576 0.73116 0.0
C2008 C 0.06618 0.41558 0.69165 0.0
C2009 C 0.124 0.42121 0.63003 0.0
H2010 H 0.0318 0.40997 0.59357 0.0
C2011 C 0.10759 0.42235 0.51463 0.0
C2012 C 0.07093 0.42611 0.50521 0.0
C2013 C 0.11221 0.41973 0.54171 0.0
C2014 C 0.05766 0.41314 0.60357 0.0
H2015 H 0.17247 0.41418 0.72272 0.0
H2016 H 0.16434 0.41309 0.67403 0.0
H2017 H 0.04035 0.4073 0.64206 0.0
H2018 H 0.01003 0.42979 0.51657 0.0
H2019 H 0.01818 0.42518 0.56392 0.0
H2020 H 0.14127 0.42704 0.5916 0.0
C2021 C 0.1379 0.41395 0.68643 0.0
C2022 C 0.06252 0.41165 0.6313 0.0
C2023 C 0.14257 0.41451 0.71434 0.0
C2024 C 0.0387 0.42696 0.52325 0.0
C2025 C 0.04323 0.42425 0.5503 0.0
C2026 C 0.11935 0.4226 0.60234 0.0
C2027 C 0.0998 0.41483 0.67467 0.0
C2028 C 0.09559 0.41575 0.64491 0.0
C2029 C 0.08018 0.42074 0.55983 0.0
C2030 C 0.08596 0.41867 0.58889 0.0
H2031 H 0.04461 0.41697 0.73221 0.0
H2032 H 0.03641 0.41636 0.68333 0.0
H2033 H 0.14932 0.4247 0.63987 0.0
H2034 H 0.13295 0.42157 0.5012 0.0
H2035 H 0.14093 0.41697 0.54854 0.0
C2036 C 0.88896 0.17709 0.28881 0.0
C2037 C 0.85462 0.17971 0.27407 0.0
C2038 C 0.88666 0.17543 0.31657 0.0
C2039 C 0.82656 0.18128 0.37627 0.0
H2040 H 0.87679 0.15779 0.40711 0.0
C2041 C 0.79974 0.17006 0.48649 0.0
C2042 C 0.83265 0.1666 0.50142 0.0
C2043 C 0.80257 0.17132 0.45863 0.0
C2044 C 0.86304 0.16445 0.39887 0.0
H2045 H 0.79104 0.18275 0.27689 0.0
H2046 H 0.78713 0.17992 0.32547 0.0
H2047 H 0.88194 0.16092 0.35869 0.0
H2048 H 0.89417 0.16158 0.4988 0.0
H2049 H 0.89941 0.16396 0.45011 0.0
H2050 H 0.80811 0.18493 0.41633 0.0
C2051 C 0.8158 0.17917 0.31551 0.0
C2052 C 0.86593 0.16622 0.37116 0.0
C2053 C 0.81802 0.18075 0.2877 0.0
C2054 C 0.86824 0.16422 0.48782 0.0
C2055 C 0.87118 0.16555 0.45991 0.0
C2056 C 0.8239 0.17955 0.40397 0.0
C2057 C 0.85006 0.17644 0.33018 0.0
C2058 C 0.84755 0.17463 0.35959 0.0
C2059 C 0.83849 0.16923 0.44505 0.0
C2060 C 0.84189 0.17108 0.41559 0.0
H2061 H 0.91761 0.17623 0.27888 0.0
H2062 H 0.9136 0.17344 0.32745 0.0
H2063 H 0.81262 0.1879 0.36793 0.0
H2064 H 0.77176 0.17187 0.49635 0.0
H2065 H 0.77654 0.17395 0.44774 0.0
C2066 C 0.82347 0.56483 0.47972 0.0
C2067 C 0.86246 0.56642 0.48937 0.0
C2068 C 0.81394 0.56689 0.4529 0.0
C2069 C 0.84777 0.57997 0.39128 0.0
H2070 H 0.79121 0.55854 0.35506 0.0
C2071 C 0.8418 0.57523 0.27512 0.0
C2072 C 0.80716 0.57097 0.26395 0.0
C2073 C 0.84546 0.57628 0.30309 0.0
C2074 C 0.80632 0.5647 0.36489 0.0
H2075 H 0.92158 0.57184 0.47878 0.0
H2076 H 0.90495 0.57534 0.43177 0.0
H2077 H 0.80308 0.55749 0.40324 0.0
H2078 H 0.748 0.56523 0.27295 0.0
H2079 H 0.75391 0.56732 0.32153 0.0
H2080 H 0.85143 0.5871 0.35262 0.0
C2081 C 0.88173 0.57256 0.44504 0.0
C2082 C 0.81318 0.56409 0.39255 0.0
C2083 C 0.89131 0.57049 0.47191 0.0
C2084 C 0.77533 0.56838 0.28104 0.0
C2085 C 0.77879 0.56954 0.30888 0.0
C2086 C 0.84073 0.58062 0.3635 0.0
C2087 C 0.84316 0.57059 0.43515 0.0
C2088 C 0.83417 0.57167 0.40603 0.0
C2089 C 0.81438 0.57319 0.3203 0.0
C2090 C 0.82011 0.57295 0.34999 0.0
H2091 H 0.80044 0.56179 0.49272 0.0
H2092 H 0.78379 0.56544 0.44592 0.0
H2093 H 0.8638 0.58596 0.40122 0.0
H2094 H 0.86681 0.57729 0.2624 0.0
H2095 H 0.87337 0.57907 0.31125 0.0
C2096 C 0.61789 0.3188 0.51424 0.0
C2097 C 0.65552 0.31575 0.50472 0.0
C2098 C 0.61184 0.32044 0.54182 0.0
C2099 C 0.65367 0.31196 0.60624 0.0
H2100 H 0.5834 0.33177 0.63793 0.0
C2101 C 0.63636 0.31541 0.72073 0.0
C2102 C 0.59722 0.31633 0.73073 0.0
C2103 C 0.64401 0.31647 0.69324 0.0
C2104 C 0.6029 0.32617 0.62928 0.0
H2105 H 0.71709 0.31288 0.51606 0.0
H2106 H 0.70682 0.31598 0.56392 0.0
H2107 H 0.59662 0.33213 0.58933 0.0
H2108 H 0.53553 0.3193 0.71981 0.0
H2109 H 0.54893 0.32102 0.67157 0.0
H2110 H 0.65968 0.30591 0.64587 0.0
C2111 C 0.68166 0.31679 0.55032 0.0
C2112 C 0.61049 0.32638 0.60152 0.0
C2113 C 0.6876 0.31507 0.5229 0.0
C2114 C 0.56599 0.31852 0.7127 0.0
C2115 C 0.57369 0.31958 0.68512 0.0
C2116 C 0.64617 0.31177 0.63386 0.0
C2117 C 0.64342 0.31912 0.56023 0.0
C2118 C 0.63603 0.31927 0.58973 0.0
C2119 C 0.61273 0.31844 0.67509 0.0
C2120 C 0.62076 0.31886 0.64571 0.0
H2121 H 0.59262 0.31937 0.50066 0.0
H2122 H 0.582 0.32219 0.54884 0.0
H2123 H 0.67265 0.30622 0.59772 0.0
H2124 H 0.66116 0.31381 0.73411 0.0
H2125 H 0.67451 0.31571 0.68615 0.0
C2126 C 0.60656 0.94207 0.53383 0.0
C2127 C 0.62913 0.93635 0.51561 0.0
C2128 C 0.61636 0.94226 0.56112 0.0
C2129 C 0.67016 0.92838 0.61396 0.0
H2130 H 0.65755 0.95328 0.65307 0.0
C2131 C 0.70663 0.93297 0.72784 0.0
C2132 C 0.67602 0.93749 0.74297 0.0
C2133 C 0.705 0.93295 0.69966 0.0
C2134 C 0.66114 0.94628 0.64239 0.0
H2135 H 0.6797 0.92631 0.51174 0.0
H2136 H 0.69726 0.92677 0.55964 0.0
H2137 H 0.6481 0.95301 0.60433 0.0
H2138 H 0.61999 0.94561 0.74051 0.0
H2139 H 0.61743 0.94565 0.69137 0.0
H2140 H 0.68318 0.92169 0.65227 0.0
C2141 C 0.67165 0.93101 0.55274 0.0
C2142 C 0.65562 0.94611 0.61452 0.0
C2143 C 0.66168 0.93077 0.52532 0.0
C2144 C 0.64401 0.94207 0.72941 0.0
C2145 C 0.64265 0.94214 0.7013 0.0
C2146 C 0.67603 0.92858 0.64189 0.0
C2147 C 0.64916 0.9368 0.5709 0.0
C2148 C 0.65912 0.93711 0.60007 0.0
C2149 C 0.67303 0.93756 0.68617 0.0
C2150 C 0.67071 0.93749 0.65638 0.0
H2151 H 0.58109 0.94639 0.52706 0.0
H2152 H 0.59782 0.94662 0.57463 0.0
H2153 H 0.67277 0.92132 0.60346 0.0
H2154 H 0.73162 0.92937 0.73775 0.0
H2155 H 0.72885 0.9294 0.68841 0.0
C2156 C 0.33868 0.67567 0.46797 0.0
C2157 C 0.36852 0.67899 0.48582 0.0
C2158 C 0.3478 0.67375 0.44096 0.0
C2159 C 0.41919 0.68078 0.38848 0.0
H2160 H 0.37825 0.65761 0.35047 0.0
C2161 C 0.46107 0.67413 0.27834 0.0
C2162 C 0.42955 0.67158 0.26095 0.0
C2163 C 0.4562 0.67353 0.30623 0.0
C2164 C 0.38968 0.66415 0.36078 0.0
H2165 H 0.43143 0.68276 0.48946 0.0
H2166 H 0.44723 0.67943 0.44232 0.0
H2167 H 0.36402 0.65969 0.39856 0.0
H2168 H 0.36893 0.66587 0.259 0.0
H2169 H 0.36001 0.66504 0.3078 0.0
H2170 H 0.44389 0.68544 0.35085 0.0
C2171 C 0.41677 0.67838 0.44919 0.0
C2172 C 0.38154 0.66533 0.38827 0.0
C2173 C 0.40771 0.68025 0.4762 0.0
C2174 C 0.39379 0.66787 0.27194 0.0
C2175 C 0.38873 0.66737 0.29991 0.0
C2176 C 0.42712 0.67964 0.36106 0.0
C2177 C 0.38687 0.67516 0.43127 0.0
C2178 C 0.39617 0.67368 0.40234 0.0
C2179 C 0.41951 0.67048 0.31736 0.0
C2180 C 0.41244 0.67132 0.34684 0.0
H2181 H 0.30822 0.6746 0.47481 0.0
H2182 H 0.32409 0.67137 0.42752 0.0
H2183 H 0.43025 0.68738 0.39869 0.0
H2184 H 0.48918 0.67689 0.27042 0.0
H2185 H 0.48086 0.67572 0.3191 0.0
C2186 C 0.41781 0.06838 0.49272 0.0
C2187 C 0.45299 0.06613 0.50696 0.0
C2188 C 0.4177 0.06834 0.46452 0.0
C2189 C 0.48096 0.0706 0.40488 0.0
H2190 H 0.40391 0.0531 0.37048 0.0
C2191 C 0.49135 0.06072 0.29175 0.0
C2192 C 0.4555 0.05943 0.27747 0.0
C2193 C 0.49087 0.0619 0.31978 0.0
C2194 C 0.42519 0.05817 0.37962 0.0
H2195 H 0.51592 0.06249 0.50303 0.0
H2196 H 0.51584 0.06265 0.45375 0.0
H2197 H 0.4025 0.05524 0.41925 0.0
H2198 H 0.39095 0.05857 0.28113 0.0
H2199 H 0.38991 0.061 0.32966 0.0
H2200 H 0.50323 0.07375 0.36536 0.0
C2201 C 0.48838 0.06435 0.46441 0.0
C2202 C 0.42439 0.05936 0.40759 0.0
C2203 C 0.48834 0.06421 0.49255 0.0
C2204 C 0.41915 0.05942 0.29165 0.0
C2205 C 0.41859 0.06077 0.31954 0.0
C2206 C 0.48137 0.06956 0.37683 0.0
C2207 C 0.45293 0.06625 0.45017 0.0
C2208 C 0.45244 0.06552 0.42045 0.0
C2209 C 0.45443 0.06198 0.33403 0.0
C2210 C 0.45367 0.06326 0.36385 0.0
H2211 H 0.39012 0.06986 0.50334 0.0
H2212 H 0.39005 0.06986 0.4539 0.0
H2213 H 0.50276 0.07544 0.41441 0.0
H2214 H 0.51982 0.06072 0.28132 0.0
H2215 H 0.51912 0.06263 0.33026 0.0
C2216 C 0.61947 0.83177 0.02925 0.0
C2217 C 0.65976 0.83035 0.02237 0.0
C2218 C 0.60884 0.83418 0.05574 0.0
C2219 C 0.64963 0.83147 0.12462 0.0
H2220 H 0.55152 0.84501 0.1446 0.0
C2221 C 0.59755 0.83302 0.23468 0.0
C2222 C 0.55896 0.82908 0.23833 0.0
C2223 C 0.61074 0.83575 0.20898 0.0
C2224 C 0.57912 0.84127 0.13926 0.0
H2225 H 0.72074 0.83116 0.03693 0.0
H2226 H 0.70249 0.83584 0.08277 0.0
H2227 H 0.57432 0.84549 0.09773 0.0
H2228 H 0.50306 0.82554 0.21828 0.0
H2229 H 0.52611 0.83036 0.17342 0.0
H2230 H 0.6542 0.82719 0.16605 0.0
C2231 C 0.67885 0.83468 0.06817 0.0
C2232 C 0.5921 0.84149 0.11243 0.0
C2233 C 0.68939 0.83207 0.04186 0.0
C2234 C 0.53306 0.82848 0.21606 0.0
C2235 C 0.54612 0.83131 0.19042 0.0
C2236 C 0.63697 0.83138 0.15141 0.0
C2237 C 0.63839 0.83539 0.07572 0.0
C2238 C 0.62705 0.83638 0.10465 0.0
C2239 C 0.58543 0.83471 0.18654 0.0
C2240 C 0.60116 0.83608 0.15888 0.0
H2241 H 0.59602 0.83046 0.01459 0.0
H2242 H 0.57737 0.83455 0.06076 0.0
H2243 H 0.67617 0.82726 0.11947 0.0
H2244 H 0.61817 0.83361 0.25146 0.0
H2245 H 0.64112 0.83841 0.20651 0.0
C2246 C 0.59058 0.43355 0.00268 0.0
C2247 C 0.61903 0.42973 0.98461 0.0
C2248 C 0.59292 0.43134 0.03011 0.0
C2249 C 0.64192 0.41478 0.08043 0.0
H2250 H 0.62029 0.43705 0.12832 0.0
C2251 C 0.68771 0.41612 0.19323 0.0
C2252 C 0.65897 0.41983 0.21133 0.0
C2253 C 0.68083 0.41644 0.16544 0.0
C2254 C 0.62599 0.43073 0.11522 0.0
H2255 H 0.6715 0.42034 0.98082 0.0
H2256 H 0.67643 0.41671 0.029 0.0
H2257 H 0.61198 0.43915 0.07995 0.0
H2258 H 0.60015 0.42657 0.21458 0.0
H2259 H 0.5884 0.4272 0.16605 0.0
H2260 H 0.65716 0.40649 0.11602 0.0
C2261 C 0.65181 0.42126 0.02191 0.0
C2262 C 0.6211 0.43191 0.08748 0.0
C2263 C 0.64912 0.42337 0.99433 0.0
C2264 C 0.62294 0.42369 0.20114 0.0
C2265 C 0.61624 0.42408 0.17338 0.0
C2266 C 0.6472 0.41363 0.10825 0.0
C2267 C 0.62415 0.42538 0.04018 0.0
C2268 C 0.62887 0.42395 0.06973 0.0
C2269 C 0.64527 0.42055 0.15528 0.0
C2270 C 0.63918 0.4216 0.12586 0.0
H2271 H 0.56669 0.43836 0.99568 0.0
H2272 H 0.5705 0.43443 0.04349 0.0
H2273 H 0.64775 0.40847 0.06736 0.0
H2274 H 0.7157 0.41306 0.20048 0.0
H2275 H 0.7038 0.41373 0.15187 0.0
C2276 C 0.32956 0.1797 0.78239 0.0
C2277 C 0.36951 0.18055 0.7739 0.0
C2278 C 0.32061 0.17712 0.80898 0.0
C2279 C 0.36126 0.16522 0.8698 0.0
H2280 H 0.28466 0.18194 0.90728 0.0
C2281 C 0.34326 0.16544 0.9858 0.0
C2282 C 0.30537 0.16757 0.99656 0.0
C2283 C 0.34942 0.16563 0.95792 0.0
C2284 C 0.3055 0.17705 0.89704 0.0
H2285 H 0.43141 0.17916 0.78647 0.0
H2286 H 0.41565 0.17463 0.83304 0.0
H2287 H 0.29869 0.185 0.8599 0.0
H2288 H 0.24357 0.17081 0.98665 0.0
H2289 H 0.25393 0.1708 0.93804 0.0
H2290 H 0.36805 0.15726 0.90699 0.0
C2291 C 0.39135 0.17594 0.81902 0.0
C2292 C 0.31365 0.17885 0.8699 0.0
C2293 C 0.40034 0.17861 0.79244 0.0
C2294 C 0.27324 0.16928 0.97892 0.0
C2295 C 0.27926 0.16934 0.95108 0.0
C2296 C 0.35282 0.16336 0.89697 0.0
C2297 C 0.3514 0.17526 0.82757 0.0
C2298 C 0.34182 0.17301 0.85607 0.0
C2299 C 0.31767 0.16784 0.94026 0.0
C2300 C 0.32505 0.16931 0.91097 0.0
H2301 H 0.30512 0.18111 0.76856 0.0
H2302 H 0.28955 0.17656 0.81502 0.0
H2303 H 0.38283 0.16055 0.85949 0.0
H2304 H 0.36861 0.16412 -0.00106 0.0
H2305 H 0.37945 0.16452 0.95033 0.0
C2306 C 0.30235 0.56724 0.95123 0.0
C2307 C 0.3405 0.56855 0.96257 0.0
C2308 C 0.29676 0.56812 0.9234 0.0
C2309 C 0.34141 0.57856 0.86162 0.0
H2310 H 0.28294 0.55738 0.8257 0.0
C2311 C 0.34828 0.57193 0.74655 0.0
C2312 C 0.31407 0.56816 0.73366 0.0
C2313 C 0.34882 0.57317 0.77454 0.0
C2314 C 0.29869 0.56347 0.8354 0.0
H2315 H 0.40256 0.572 0.95372 0.0
H2316 H 0.39273 0.57352 0.90516 0.0
H2317 H 0.28859 0.5573 0.87462 0.0
H2318 H 0.25276 0.56335 0.73965 0.0
H2319 H 0.25331 0.56578 0.78831 0.0
H2320 H 0.35168 0.58471 0.82236 0.0
C2321 C 0.36715 0.57187 0.91781 0.0
C2322 C 0.302 0.5634 0.86345 0.0
C2323 C 0.3728 0.57092 0.94559 0.0
C2324 C 0.27976 0.56614 0.74908 0.0
C2325 C 0.28016 0.56748 0.77698 0.0
C2326 C 0.33787 0.57868 0.83352 0.0
C2327 C 0.32915 0.57041 0.90643 0.0
C2328 C 0.32373 0.57088 0.87681 0.0
C2329 C 0.315 0.57076 0.79014 0.0
C2330 C 0.31679 0.57107 0.82007 0.0
H2331 H 0.27685 0.56544 0.9638 0.0
H2332 H 0.26708 0.56703 0.91515 0.0
H2333 H 0.35796 0.58448 0.87147 0.0
H2334 H 0.3752 0.57352 0.73518 0.0
H2335 H 0.37628 0.57563 0.78403 0.0
loop_
_geom_bond_atom_site_label_1
_geom_bond_atom_site_label_2
_geom_bond_distance
_geom_bond_site_symmetry_2
_ccdc_geom_bond_type
C0 O1 1.160 . S
C0 O7 1.185 . S
O1 C0 1.160 . S
O2 Zn3 1.899 . S
O2 C10 1.284 . S
Zn3 O2 1.899 . S
Zn3 O4 2.032 . S
Zn3 O7 2.086 . S
Zn3 O12 1.977 . S
O4 Zn3 2.032 . S
O4 C8 1.278 . S
C5 O6 1.203 . S
C5 O12 1.267 . S
O6 C5 1.203 . S
O7 C0 1.185 . S
O7 Zn3 2.086 . S
C8 O4 1.278 . S
C8 O9 1.211 . S
O9 C8 1.211 . S
C10 O2 1.284 . S
C10 O11 1.273 . S
O11 C10 1.273 . S
O12 Zn3 1.977 . S
O12 C5 1.267 . S
C13 O14 1.160 . S
C13 O20 1.185 . S
O14 C13 1.160 . S
O15 Zn16 1.899 . S
O15 C23 1.284 . S
Zn16 O15 1.899 . S
Zn16 O17 2.032 . S
Zn16 O20 2.086 . S
Zn16 O25 1.977 . S
O17 Zn16 2.032 . S
O17 C21 1.278 . S
C18 O19 1.203 . S
C18 O25 1.267 . S
O19 C18 1.203 . S
O20 C13 1.185 . S
O20 Zn16 2.086 . S
C21 O17 1.278 . S
C21 O22 1.211 . S
O22 C21 1.211 . S
C23 O15 1.284 . S
C23 O24 1.273 . S
O24 C23 1.273 . S
O25 Zn16 1.977 . S
O25 C18 1.267 . S
C26 O27 1.160 . S
C26 O33 1.185 . S
O27 C26 1.160 . S
O28 Zn29 1.899 . S
O28 C36 1.284 . S
Zn29 O28 1.899 . S
Zn29 O30 2.032 . S
Zn29 O33 2.086 . S
Zn29 O38 1.977 . S
O30 Zn29 2.032 . S
O30 C34 1.256 1_556 S
C31 O32 1.203 . S
C31 O38 1.267 . S
O32 C31 1.203 . S
O33 C26 1.185 . S
O33 Zn29 2.086 . S
C34 O30 1.256 1_554 S
C34 O35 1.200 1_554 S
O35 C34 1.200 1_556 S
C36 O28 1.284 . S
C36 O37 1.273 . S
O37 C36 1.273 . S
O38 Zn29 1.977 . S
O38 C31 1.267 . S
C39 O40 1.160 . S
C39 O46 1.185 . S
O40 C39 1.160 . S
O41 Zn42 1.899 . S
O41 C49 1.284 . S
Zn42 O41 1.899 . S
Zn42 O43 2.032 . S
Zn42 O46 2.086 . S
Zn42 O51 1.977 . S
O43 Zn42 2.032 . S
O43 C47 1.256 1_556 S
C44 O45 1.203 . S
C44 O51 1.267 . S
O45 C44 1.203 . S
O46 C39 1.185 . S
O46 Zn42 2.086 . S
C47 O43 1.256 1_554 S
C47 O48 1.200 1_554 S
O48 C47 1.200 1_556 S
C49 O41 1.284 . S
C49 O50 1.273 . S
O50 C49 1.273 . S
O51 Zn42 1.977 . S
O51 C44 1.267 . S
C52 O53 1.160 . S
C52 O59 1.185 . S
O53 C52 1.160 . S
O54 Zn55 1.899 . S
O54 C62 1.284 . S
Zn55 O54 1.899 . S
Zn55 O56 2.032 . S
Zn55 O59 2.086 . S
Zn55 O64 1.977 . S
O56 Zn55 2.032 . S
O56 C60 1.278 . S
C57 O58 1.203 . S
C57 O64 1.267 . S
O58 C57 1.203 . S
O59 C52 1.185 . S
O59 Zn55 2.086 . S
C60 O56 1.278 . S
C60 O61 1.211 . S
O61 C60 1.211 . S
C62 O54 1.284 . S
C62 O63 1.273 . S
O63 C62 1.273 . S
O64 Zn55 1.977 . S
O64 C57 1.267 . S
C65 O66 1.160 . S
C65 O72 1.185 . S
O66 C65 1.160 . S
O67 Zn68 1.899 . S
O67 C75 1.284 . S
Zn68 O67 1.899 . S
Zn68 O69 2.032 . S
Zn68 O72 2.086 . S
Zn68 O77 1.977 . S
O69 Zn68 2.032 . S
O69 C73 1.278 . S
C70 O71 1.203 . S
C70 O77 1.267 . S
O71 C70 1.203 . S
O72 C65 1.185 . S
O72 Zn68 2.086 . S
C73 O69 1.278 . S
C73 O74 1.211 . S
O74 C73 1.211 . S
C75 O67 1.284 . S
C75 O76 1.273 . S
O76 C75 1.273 . S
O77 Zn68 1.977 . S
O77 C70 1.267 . S
C78 O79 1.160 . S
C78 O85 1.185 . S
O79 C78 1.160 . S
O80 Zn81 1.899 . S
O80 C88 1.284 . S
Zn81 O80 1.899 . S
Zn81 O82 2.032 . S
Zn81 O85 2.086 . S
Zn81 O90 1.977 . S
O82 Zn81 2.032 . S
O82 C86 1.256 1_554 S
C83 O84 1.203 . S
C83 O90 1.267 . S
O84 C83 1.203 . S
O85 C78 1.185 . S
O85 Zn81 2.086 . S
C86 O82 1.256 1_556 S
C86 O87 1.200 1_556 S
O87 C86 1.200 1_554 S
C88 O80 1.284 . S
C88 O89 1.273 . S
O89 C88 1.273 . S
O90 Zn81 1.977 . S
O90 C83 1.267 . S
C91 O92 1.160 . S
C91 O98 1.185 . S
O92 C91 1.160 . S
O93 Zn94 1.899 . S
O93 C101 1.284 . S
Zn94 O93 1.899 . S
Zn94 O95 2.032 . S
Zn94 O98 2.086 . S
Zn94 O103 1.977 . S
O95 Zn94 2.032 . S
O95 C99 1.256 1_554 S
C96 O97 1.203 . S
C96 O103 1.267 . S
O97 C96 1.203 . S
O98 C91 1.185 . S
O98 Zn94 2.086 . S
C99 O95 1.256 1_556 S
C99 O100 1.200 1_556 S
O100 C99 1.200 1_554 S
C101 O93 1.284 . S
C101 O102 1.273 . S
O102 C101 1.273 . S
O103 Zn94 1.977 . S
O103 C96 1.267 . S
C104 O105 1.160 . S
C104 O111 1.185 . S
O105 C104 1.160 . S
O106 Zn107 1.899 . S
O106 C114 1.284 . S
Zn107 O106 1.899 . S
Zn107 O108 2.032 . S
Zn107 O111 2.086 . S
Zn107 O116 1.977 . S
O108 Zn107 2.032 . S
O108 C112 1.278 . S
C109 O110 1.203 . S
C109 O116 1.267 . S
O110 C109 1.203 . S
O111 C104 1.185 . S
O111 Zn107 2.086 . S
C112 O108 1.278 . S
C112 O113 1.211 . S
O113 C112 1.211 . S
C114 O106 1.284 . S
C114 O115 1.273 . S
O115 C114 1.273 . S
O116 Zn107 1.977 . S
O116 C109 1.267 . S
C117 O118 1.160 . S
C117 O124 1.185 . S
O118 C117 1.160 . S
O119 Zn120 1.899 . S
O119 C127 1.284 . S
Zn120 O119 1.899 . S
Zn120 O121 2.032 . S
Zn120 O124 2.086 . S
Zn120 O129 1.977 . S
O121 Zn120 2.032 . S
O121 C125 1.278 . S
C122 O123 1.203 . S
C122 O129 1.267 . S
O123 C122 1.203 . S
O124 C117 1.185 . S
O124 Zn120 2.086 . S
C125 O121 1.278 . S
C125 O126 1.211 . S
O126 C125 1.211 . S
C127 O119 1.284 . S
C127 O128 1.273 . S
O128 C127 1.273 . S
O129 Zn120 1.977 . S
O129 C122 1.267 . S
C130 O131 1.160 . S
C130 O137 1.185 . S
O131 C130 1.160 . S
O132 Zn133 1.899 . S
O132 C140 1.284 . S
Zn133 O132 1.899 . S
Zn133 O134 2.032 . S
Zn133 O137 2.086 . S
Zn133 O142 1.977 . S
O134 Zn133 2.032 . S
O134 C138 1.278 . S
C135 O136 1.203 . S
C135 O142 1.267 . S
O136 C135 1.203 . S
O137 C130 1.185 . S
O137 Zn133 2.086 . S
C138 O134 1.278 . S
C138 O139 1.211 . S
O139 C138 1.211 . S
C140 O132 1.284 . S
C140 O141 1.273 . S
O141 C140 1.273 . S
O142 Zn133 1.977 . S
O142 C135 1.267 . S
C143 O144 1.160 . S
C143 O150 1.185 . S
O144 C143 1.160 . S
O145 Zn146 1.899 . S
O145 C153 1.284 . S
Zn146 O145 1.899 . S
Zn146 O147 2.032 . S
Zn146 O150 2.086 . S
Zn146 O155 1.977 . S
O147 Zn146 2.032 . S
O147 C151 1.278 . S
C148 O149 1.203 . S
C148 O155 1.267 . S
O149 C148 1.203 . S
O150 C143 1.185 . S
O150 Zn146 2.086 . S
C151 O147 1.278 . S
C151 O152 1.211 . S
O152 C151 1.211 . S
C153 O145 1.284 . S
C153 O154 1.273 . S
O154 C153 1.273 . S
O155 Zn146 1.977 . S
O155 C148 1.267 . S
C156 O157 1.160 . S
C156 O163 1.185 . S
O157 C156 1.160 . S
O158 Zn159 1.899 . S
O158 C166 1.284 . S
Zn159 O158 1.899 . S
Zn159 O160 2.032 . S
Zn159 O163 2.086 . S
Zn159 O168 1.977 . S
O160 Zn159 2.032 . S
O160 C164 1.278 . S
C161 O162 1.203 . S
C161 O168 1.267 . S
O162 C161 1.203 . S
O163 C156 1.185 . S
O163 Zn159 2.086 . S
C164 O160 1.278 . S
C164 O165 1.211 . S
O165 C164 1.211 . S
C166 O158 1.284 . S
C166 O167 1.273 . S
O167 C166 1.273 . S
O168 Zn159 1.977 . S
O168 C161 1.267 . S
C169 O170 1.160 . S
C169 O176 1.185 . S
O170 C169 1.160 . S
O171 Zn172 1.899 . S
O171 C179 1.284 . S
Zn172 O171 1.899 . S
Zn172 O173 2.032 . S
Zn172 O176 2.086 . S
Zn172 O181 1.977 . S
O173 Zn172 2.032 . S
O173 C177 1.278 . S
C174 O175 1.203 . S
C174 O181 1.267 . S
O175 C174 1.203 . S
O176 C169 1.185 . S
O176 Zn172 2.086 . S
C177 O173 1.278 . S
C177 O178 1.211 . S
O178 C177 1.211 . S
C179 O171 1.284 . S
C179 O180 1.273 . S
O180 C179 1.273 . S
O181 Zn172 1.977 . S
O181 C174 1.267 . S
C182 O183 1.160 . S
C182 O189 1.185 . S
O183 C182 1.160 . S
O184 Zn185 1.899 . S
O184 C192 1.284 . S
Zn185 O184 1.899 . S
Zn185 O186 2.032 . S
Zn185 O189 2.086 . S
Zn185 O194 1.977 . S
O186 Zn185 2.032 . S
O186 C190 1.278 . S
C187 O188 1.203 . S
C187 O194 1.267 . S
O188 C187 1.203 . S
O189 C182 1.185 . S
O189 Zn185 2.086 . S
C190 O186 1.278 . S
C190 O191 1.211 . S
O191 C190 1.211 . S
C192 O184 1.284 . S
C192 O193 1.273 . S
O193 C192 1.273 . S
O194 Zn185 1.977 . S
O194 C187 1.267 . S
C195 O196 1.160 . S
C195 O202 1.185 . S
O196 C195 1.160 . S
O197 Zn198 1.899 . S
O197 C205 1.284 . S
Zn198 O197 1.899 . S
Zn198 O199 2.032 . S
Zn198 O202 2.086 . S
Zn198 O207 1.977 . S
O199 Zn198 2.032 . S
O199 C203 1.278 . S
C200 O201 1.203 . S
C200 O207 1.267 . S
O201 C200 1.203 . S
O202 C195 1.185 . S
O202 Zn198 2.086 . S
C203 O199 1.278 . S
C203 O204 1.211 . S
O204 C203 1.211 . S
C205 O197 1.284 . S
C205 O206 1.273 . S
O206 C205 1.273 . S
O207 Zn198 1.977 . S
O207 C200 1.267 . S
C208 O209 1.160 . S
C208 O215 1.185 . S
O209 C208 1.160 . S
O210 Zn211 1.899 . S
O210 C218 1.284 . S
Zn211 O210 1.899 . S
Zn211 O212 2.032 . S
Zn211 O215 2.086 . S
Zn211 O220 1.977 . S
O212 Zn211 2.032 . S
O212 C216 1.278 . S
C213 O214 1.203 . S
C213 O220 1.267 . S
O214 C213 1.203 . S
O215 C208 1.185 . S
O215 Zn211 2.086 . S
C216 O212 1.278 . S
C216 O217 1.211 . S
O217 C216 1.211 . S
C218 O210 1.284 . S
C218 O219 1.273 . S
O219 C218 1.273 . S
O220 Zn211 1.977 . S
O220 C213 1.267 . S
C221 O222 1.160 . S
C221 O228 1.185 . S
O222 C221 1.160 . S
O223 Zn224 1.899 . S
O223 C231 1.284 . S
Zn224 O223 1.899 . S
Zn224 O225 2.032 . S
Zn224 O228 2.086 . S
Zn224 O233 1.977 . S
O225 Zn224 2.032 . S
O225 C229 1.278 . S
C226 O227 1.203 . S
C226 O233 1.267 . S
O227 C226 1.203 . S
O228 C221 1.185 . S
O228 Zn224 2.086 . S
C229 O225 1.278 . S
C229 O230 1.211 . S
O230 C229 1.211 . S
C231 O223 1.284 . S
C231 O232 1.273 . S
O232 C231 1.273 . S
O233 Zn224 1.977 . S
O233 C226 1.267 . S
C234 O235 1.160 . S
C234 O241 1.185 . S
O235 C234 1.160 . S
O236 Zn237 1.899 . S
O236 C244 1.284 . S
Zn237 O236 1.899 . S
Zn237 O238 2.032 . S
Zn237 O241 2.086 . S
Zn237 O246 1.977 . S
O238 Zn237 2.032 . S
O238 C242 1.278 . S
C239 O240 1.203 . S
C239 O246 1.267 . S
O240 C239 1.203 . S
O241 C234 1.185 . S
O241 Zn237 2.086 . S
C242 O238 1.278 . S
C242 O243 1.211 . S
O243 C242 1.211 . S
C244 O236 1.284 . S
C244 O245 1.273 . S
O245 C244 1.273 . S
O246 Zn237 1.977 . S
O246 C239 1.267 . S
C247 O248 1.160 . S
C247 O254 1.185 . S
O248 C247 1.160 . S
O249 Zn250 1.899 . S
O249 C257 1.284 . S
Zn250 O249 1.899 . S
Zn250 O251 2.032 . S
Zn250 O254 2.086 . S
Zn250 O259 1.977 . S
O251 Zn250 2.032 . S
O251 C255 1.278 . S
C252 O253 1.203 . S
C252 O259 1.267 . S
O253 C252 1.203 . S
O254 C247 1.185 . S
O254 Zn250 2.086 . S
C255 O251 1.278 . S
C255 O256 1.211 . S
O256 C255 1.211 . S
C257 O249 1.284 . S
C257 O258 1.273 . S
O258 C257 1.273 . S
O259 Zn250 1.977 . S
O259 C252 1.267 . S
C260 O261 1.160 . S
C260 O267 1.185 . S
O261 C260 1.160 . S
O262 Zn263 1.899 . S
O262 C270 1.284 . S
Zn263 O262 1.899 . S
Zn263 O264 2.032 . S
Zn263 O267 2.086 . S
Zn263 O272 1.977 . S
O264 Zn263 2.032 . S
O264 C268 1.278 . S
C265 O266 1.203 . S
C265 O272 1.267 . S
O266 C265 1.203 . S
O267 C260 1.185 . S
O267 Zn263 2.086 . S
C268 O264 1.278 . S
C268 O269 1.211 . S
O269 C268 1.211 . S
C270 O262 1.284 . S
C270 O271 1.273 . S
O271 C270 1.273 . S
O272 Zn263 1.977 . S
O272 C265 1.267 . S
C273 O274 1.160 . S
C273 O280 1.185 . S
O274 C273 1.160 . S
O275 Zn276 1.899 . S
O275 C283 1.284 . S
Zn276 O275 1.899 . S
Zn276 O277 2.032 . S
Zn276 O280 2.086 . S
Zn276 O285 1.977 . S
O277 Zn276 2.032 . S
O277 C281 1.278 . S
C278 O279 1.203 . S
C278 O285 1.267 . S
O279 C278 1.203 . S
O280 C273 1.185 . S
O280 Zn276 2.086 . S
C281 O277 1.278 . S
C281 O282 1.211 . S
O282 C281 1.211 . S
C283 O275 1.284 . S
C283 O284 1.273 . S
O284 C283 1.273 . S
O285 Zn276 1.977 . S
O285 C278 1.267 . S
C286 O287 1.160 . S
C286 O293 1.185 . S
O287 C286 1.160 . S
O288 Zn289 1.899 . S
O288 C296 1.284 . S
Zn289 O288 1.899 . S
Zn289 O290 2.032 . S
Zn289 O293 2.086 . S
Zn289 O298 1.977 . S
O290 Zn289 2.032 . S
O290 C294 1.278 . S
C291 O292 1.203 . S
C291 O298 1.267 . S
O292 C291 1.203 . S
O293 C286 1.185 . S
O293 Zn289 2.086 . S
C294 O290 1.278 . S
C294 O295 1.211 . S
O295 C294 1.211 . S
C296 O288 1.284 . S
C296 O297 1.273 . S
O297 C296 1.273 . S
O298 Zn289 1.977 . S
O298 C291 1.267 . S
C299 O300 1.160 . S
C299 O306 1.185 . S
O300 C299 1.160 . S
O301 Zn302 1.899 . S
O301 C309 1.284 . S
Zn302 O301 1.899 . S
Zn302 O303 2.032 . S
Zn302 O306 2.086 . S
Zn302 O311 1.977 . S
O303 Zn302 2.032 . S
O303 C307 1.278 . S
C304 O305 1.203 . S
C304 O311 1.267 . S
O305 C304 1.203 . S
O306 C299 1.185 . S
O306 Zn302 2.086 . S
C307 O303 1.278 . S
C307 O308 1.211 . S
O308 C307 1.211 . S
C309 O301 1.284 . S
C309 O310 1.273 . S
O310 C309 1.273 . S
O311 Zn302 1.977 . S
O311 C304 1.267 . S
C312 O313 1.160 . S
C312 O319 1.185 . S
O313 C312 1.160 . S
O314 Zn315 1.899 . S
O314 C322 1.284 . S
Zn315 O314 1.899 . S
Zn315 O316 2.032 . S
Zn315 O319 2.086 . S
Zn315 O324 1.977 . S
O316 Zn315 2.032 . S
O316 C320 1.278 . S
C317 O318 1.203 . S
C317 O324 1.267 . S
O318 C317 1.203 . S
O319 C312 1.185 . S
O319 Zn315 2.086 . S
C320 O316 1.278 . S
C320 O321 1.211 . S
O321 C320 1.211 . S
C322 O314 1.284 . S
C322 O323 1.273 . S
O323 C322 1.273 . S
O324 Zn315 1.977 . S
O324 C317 1.267 . S
C325 O326 1.160 . S
C325 O332 1.185 . S
O326 C325 1.160 . S
O327 Zn328 1.899 . S
O327 C335 1.284 . S
Zn328 O327 1.899 . S
Zn328 O329 2.032 . S
Zn328 O332 2.086 . S
Zn328 O337 1.977 . S
O329 Zn328 2.032 . S
O329 C333 1.278 . S
C330 O331 1.203 . S
C330 O337 1.267 . S
O331 C330 1.203 . S
O332 C325 1.185 . S
O332 Zn328 2.086 . S
C333 O329 1.278 . S
C333 O334 1.211 . S
O334 C333 1.211 . S
C335 O327 1.284 . S
C335 O336 1.273 . S
O336 C335 1.273 . S
O337 Zn328 1.977 . S
O337 C330 1.267 . S
C338 O339 1.160 . S
C338 O345 1.185 . S
O339 C338 1.160 . S
O340 Zn341 1.899 . S
O340 C348 1.284 . S
Zn341 O340 1.899 . S
Zn341 O342 2.032 . S
Zn341 O345 2.086 . S
Zn341 O350 1.977 . S
O342 Zn341 2.032 . S
O342 C346 1.256 1_556 S
C343 O344 1.203 . S
C343 O350 1.267 . S
O344 C343 1.203 . S
O345 C338 1.185 . S
O345 Zn341 2.086 . S
C346 O342 1.256 1_554 S
C346 O347 1.200 1_554 S
O347 C346 1.200 1_556 S
C348 O340 1.284 . S
C348 O349 1.273 . S
O349 C348 1.273 . S
O350 Zn341 1.977 . S
O350 C343 1.267 . S
C351 O352 1.160 . S
C351 O358 1.185 . S
O352 C351 1.160 . S
O353 Zn354 1.899 . S
O353 C361 1.284 . S
Zn354 O353 1.899 . S
Zn354 O355 2.032 . S
Zn354 O358 2.086 . S
Zn354 O363 1.977 . S
O355 Zn354 2.032 . S
O355 C359 1.256 1_556 S
C356 O357 1.203 . S
C356 O363 1.267 . S
O357 C356 1.203 . S
O358 C351 1.185 . S
O358 Zn354 2.086 . S
C359 O355 1.256 1_554 S
C359 O360 1.200 1_554 S
O360 C359 1.200 1_556 S
C361 O353 1.284 . S
C361 O362 1.273 . S
O362 C361 1.273 . S
O363 Zn354 1.977 . S
O363 C356 1.267 . S
C364 O365 1.160 . S
C364 O371 1.185 . S
O365 C364 1.160 . S
O366 Zn367 1.899 . S
O366 C374 1.284 . S
Zn367 O366 1.899 . S
Zn367 O368 2.032 . S
Zn367 O371 2.086 . S
Zn367 O376 1.977 . S
O368 Zn367 2.032 . S
O368 C372 1.278 . S
C369 O370 1.203 . S
C369 O376 1.267 . S
O370 C369 1.203 . S
O371 C364 1.185 . S
O371 Zn367 2.086 . S
C372 O368 1.278 . S
C372 O373 1.211 . S
O373 C372 1.211 . S
C374 O366 1.284 . S
C374 O375 1.273 . S
O375 C374 1.273 . S
O376 Zn367 1.977 . S
O376 C369 1.267 . S
C377 O378 1.160 . S
C377 O384 1.185 . S
O378 C377 1.160 . S
O379 Zn380 1.899 . S
O379 C387 1.284 . S
Zn380 O379 1.899 . S
Zn380 O381 2.032 . S
Zn380 O384 2.086 . S
Zn380 O389 1.977 . S
O381 Zn380 2.032 . S
O381 C385 1.278 . S
C382 O383 1.203 . S
C382 O389 1.267 . S
O383 C382 1.203 . S
O384 C377 1.185 . S
O384 Zn380 2.086 . S
C385 O381 1.278 . S
C385 O386 1.211 . S
O386 C385 1.211 . S
C387 O379 1.284 . S
C387 O388 1.273 . S
O388 C387 1.273 . S
O389 Zn380 1.977 . S
O389 C382 1.267 . S
C390 O391 1.160 . S
C390 O397 1.185 . S
O391 C390 1.160 . S
O392 Zn393 1.899 . S
O392 C400 1.284 . S
Zn393 O392 1.899 . S
Zn393 O394 2.032 . S
Zn393 O397 2.086 . S
Zn393 O402 1.977 . S
O394 Zn393 2.032 . S
O394 C398 1.256 1_554 S
C395 O396 1.203 . S
C395 O402 1.267 . S
O396 C395 1.203 . S
O397 C390 1.185 . S
O397 Zn393 2.086 . S
C398 O394 1.256 1_556 S
C398 O399 1.200 1_556 S
O399 C398 1.200 1_554 S
C400 O392 1.284 . S
C400 O401 1.273 . S
O401 C400 1.273 . S
O402 Zn393 1.977 . S
O402 C395 1.267 . S
C403 O404 1.160 . S
C403 O410 1.185 . S
O404 C403 1.160 . S
O405 Zn406 1.899 . S
O405 C413 1.284 . S
Zn406 O405 1.899 . S
Zn406 O407 2.032 . S
Zn406 O410 2.086 . S
Zn406 O415 1.977 . S
O407 Zn406 2.032 . S
O407 C411 1.256 1_554 S
C408 O409 1.203 . S
C408 O415 1.267 . S
O409 C408 1.203 . S
O410 C403 1.185 . S
O410 Zn406 2.086 . S
C411 O407 1.256 1_556 S
C411 O412 1.200 1_556 S
O412 C411 1.200 1_554 S
C413 O405 1.284 . S
C413 O414 1.273 . S
O414 C413 1.273 . S
O415 Zn406 1.977 . S
O415 C408 1.267 . S
C416 C417 1.349 . S
C416 C418 1.327 . S
C416 H441 0.950 . S
C417 C416 1.349 . S
C417 C433 1.349 . S
C418 C416 1.327 . S
C418 C437 1.429 . S
C418 H442 0.950 . S
C419 C436 1.574 . S
C419 C438 1.368 . S
C419 H443 0.949 . S
H420 C424 0.949 . S
C421 C422 1.349 . S
C421 C423 1.327 . S
C421 H444 0.950 . S
C422 C421 1.349 . S
C422 C434 1.349 . S
C423 C421 1.327 . S
C423 C439 1.429 . S
C423 H445 0.950 . S
C424 H420 0.949 . S
C424 C432 1.574 . S
C424 C440 1.368 . S
H425 C433 0.950 . S
H426 C431 0.950 . S
H427 C432 0.949 . S
H428 C434 0.950 . S
H429 C435 0.950 . S
H430 C436 0.949 . S
C431 H426 0.950 . S
C431 C433 1.327 . S
C431 C437 1.429 . S
C432 C424 1.574 . S
C432 H427 0.949 . S
C432 C438 1.368 . S
C433 C417 1.349 . S
C433 H425 0.950 . S
C433 C431 1.327 . S
C434 C422 1.349 . S
C434 H428 0.950 . S
C434 C435 1.327 . S
C435 H429 0.950 . S
C435 C434 1.327 . S
C435 C439 1.429 . S
C436 C419 1.574 . S
C436 H430 0.949 . S
C436 C440 1.368 . S
C437 C418 1.429 . S
C437 C431 1.429 . S
C437 C438 1.523 . S
C438 C419 1.368 . S
C438 C432 1.368 . S
C438 C437 1.523 . S
C439 C423 1.429 . S
C439 C435 1.429 . S
C439 C440 1.523 . S
C440 C424 1.368 . S
C440 C436 1.368 . S
C440 C439 1.523 . S
H441 C416 0.950 . S
H442 C418 0.950 . S
H443 C419 0.949 . S
H444 C421 0.950 . S
H445 C423 0.950 . S
C446 C447 1.349 . S
C446 C448 1.327 . S
C446 H471 0.950 . S
C447 C446 1.349 . S
C447 C463 1.349 . S
C448 C446 1.327 . S
C448 C467 1.429 . S
C448 H472 0.950 . S
C449 C466 1.574 . S
C449 C468 1.368 . S
C449 H473 0.949 . S
H450 C454 0.949 . S
C451 C452 1.349 . S
C451 C453 1.327 . S
C451 H474 0.950 . S
C452 C451 1.349 . S
C452 C464 1.349 . S
C453 C451 1.327 . S
C453 C469 1.429 . S
C453 H475 0.950 . S
C454 H450 0.949 . S
C454 C462 1.574 . S
C454 C470 1.368 . S
H455 C463 0.950 . S
H456 C461 0.950 . S
H457 C462 0.949 . S
H458 C464 0.950 . S
H459 C465 0.950 . S
H460 C466 0.949 . S
C461 H456 0.950 . S
C461 C463 1.327 . S
C461 C467 1.429 . S
C462 C454 1.574 . S
C462 H457 0.949 . S
C462 C468 1.368 . S
C463 C447 1.349 . S
C463 H455 0.950 . S
C463 C461 1.327 . S
C464 C452 1.349 . S
C464 H458 0.950 . S
C464 C465 1.327 . S
C465 H459 0.950 . S
C465 C464 1.327 . S
C465 C469 1.429 . S
C466 C449 1.574 . S
C466 H460 0.949 . S
C466 C470 1.368 . S
C467 C448 1.429 . S
C467 C461 1.429 . S
C467 C468 1.523 . S
C468 C449 1.368 . S
C468 C462 1.368 . S
C468 C467 1.523 . S
C469 C453 1.429 . S
C469 C465 1.429 . S
C469 C470 1.523 . S
C470 C454 1.368 . S
C470 C466 1.368 . S
C470 C469 1.523 . S
H471 C446 0.950 . S
H472 C448 0.950 . S
H473 C449 0.949 . S
H474 C451 0.950 . S
H475 C453 0.950 . S
C476 C477 1.349 . S
C476 C478 1.327 . S
C476 H501 0.950 . S
C477 C476 1.349 . S
C477 C493 1.349 . S
C478 C476 1.327 . S
C478 C497 1.429 . S
C478 H502 0.950 . S
C479 C496 1.574 . S
C479 C498 1.368 . S
C479 H503 0.949 . S
H480 C484 0.949 . S
C481 C482 1.349 . S
C481 C483 1.327 . S
C481 H504 0.950 . S
C482 C481 1.349 . S
C482 C494 1.349 . S
C483 C481 1.327 . S
C483 C499 1.429 . S
C483 H505 0.950 . S
C484 H480 0.949 . S
C484 C492 1.574 . S
C484 C500 1.368 . S
H485 C493 0.950 . S
H486 C491 0.950 . S
H487 C492 0.949 . S
H488 C494 0.950 . S
H489 C495 0.950 . S
H490 C496 0.949 . S
C491 H486 0.950 . S
C491 C493 1.327 . S
C491 C497 1.429 . S
C492 C484 1.574 . S
C492 H487 0.949 . S
C492 C498 1.368 . S
C493 C477 1.349 . S
C493 H485 0.950 . S
C493 C491 1.327 . S
C494 C482 1.349 . S
C494 H488 0.950 . S
C494 C495 1.327 . S
C495 H489 0.950 . S
C495 C494 1.327 . S
C495 C499 1.429 . S
C496 C479 1.574 . S
C496 H490 0.949 . S
C496 C500 1.368 . S
C497 C478 1.429 . S
C497 C491 1.429 . S
C497 C498 1.523 . S
C498 C479 1.368 . S
C498 C492 1.368 . S
C498 C497 1.523 . S
C499 C483 1.429 . S
C499 C495 1.429 . S
C499 C500 1.523 . S
C500 C484 1.368 . S
C500 C496 1.368 . S
C500 C499 1.523 . S
H501 C476 0.950 . S
H502 C478 0.950 . S
H503 C479 0.949 . S
H504 C481 0.950 . S
H505 C483 0.950 . S
C506 C507 1.349 . S
C506 C508 1.327 . S
C506 H531 0.950 . S
C507 C506 1.349 . S
C507 C523 1.349 . S
C508 C506 1.327 . S
C508 C527 1.429 . S
C508 H532 0.950 . S
C509 C526 1.574 . S
C509 C528 1.368 . S
C509 H533 0.949 . S
H510 C514 0.949 . S
C511 C512 1.349 . S
C511 C513 1.327 . S
C511 H534 0.950 . S
C512 C511 1.349 . S
C512 C524 1.349 . S
C513 C511 1.327 . S
C513 C529 1.429 . S
C513 H535 0.950 . S
C514 H510 0.949 . S
C514 C522 1.574 . S
C514 C530 1.368 . S
H515 C523 0.950 . S
H516 C521 0.950 . S
H517 C522 0.949 . S
H518 C524 0.950 . S
H519 C525 0.950 . S
H520 C526 0.949 . S
C521 H516 0.950 . S
C521 C523 1.327 . S
C521 C527 1.429 . S
C522 C514 1.574 . S
C522 H517 0.949 . S
C522 C528 1.368 . S
C523 C507 1.349 . S
C523 H515 0.950 . S
C523 C521 1.327 . S
C524 C512 1.349 . S
C524 H518 0.950 . S
C524 C525 1.327 . S
C525 H519 0.950 . S
C525 C524 1.327 . S
C525 C529 1.429 . S
C526 C509 1.574 . S
C526 H520 0.949 . S
C526 C530 1.368 . S
C527 C508 1.429 . S
C527 C521 1.429 . S
C527 C528 1.523 . S
C528 C509 1.368 . S
C528 C522 1.368 . S
C528 C527 1.523 . S
C529 C513 1.429 . S
C529 C525 1.429 . S
C529 C530 1.523 . S
C530 C514 1.368 . S
C530 C526 1.368 . S
C530 C529 1.523 . S
H531 C506 0.950 . S
H532 C508 0.950 . S
H533 C509 0.949 . S
H534 C511 0.950 . S
H535 C513 0.950 . S
C536 C537 1.349 . S
C536 C538 1.327 . S
C536 H561 0.950 . S
C537 C536 1.349 . S
C537 C553 1.349 . S
C538 C536 1.327 . S
C538 C557 1.429 . S
C538 H562 0.950 . S
C539 C556 1.574 . S
C539 C558 1.368 . S
C539 H563 0.949 . S
H540 C544 0.949 . S
C541 C542 1.349 . S
C541 C543 1.327 . S
C541 H564 0.950 . S
C542 C541 1.349 . S
C542 C554 1.349 . S
C543 C541 1.327 . S
C543 C559 1.429 . S
C543 H565 0.950 . S
C544 H540 0.949 . S
C544 C552 1.574 . S
C544 C560 1.368 . S
H545 C553 0.950 . S
H546 C551 0.950 . S
H547 C552 0.949 . S
H548 C554 0.950 . S
H549 C555 0.950 . S
H550 C556 0.949 . S
C551 H546 0.950 . S
C551 C553 1.327 . S
C551 C557 1.429 . S
C552 C544 1.574 . S
C552 H547 0.949 . S
C552 C558 1.368 . S
C553 C537 1.349 . S
C553 H545 0.950 . S
C553 C551 1.327 . S
C554 C542 1.349 . S
C554 H548 0.950 . S
C554 C555 1.327 . S
C555 H549 0.950 . S
C555 C554 1.327 . S
C555 C559 1.429 . S
C556 C539 1.574 . S
C556 H550 0.949 . S
C556 C560 1.368 . S
C557 C538 1.429 . S
C557 C551 1.429 . S
C557 C558 1.523 . S
C558 C539 1.368 . S
C558 C552 1.368 . S
C558 C557 1.523 . S
C559 C543 1.429 . S
C559 C555 1.429 . S
C559 C560 1.523 . S
C560 C544 1.368 . S
C560 C556 1.368 . S
C560 C559 1.523 . S
H561 C536 0.950 . S
H562 C538 0.950 . S
H563 C539 0.949 . S
H564 C541 0.950 . S
H565 C543 0.950 . S
C566 C567 1.349 . S
C566 C568 1.327 . S
C566 H591 0.950 . S
C567 C566 1.349 . S
C567 C583 1.349 . S
C568 C566 1.327 . S
C568 C587 1.429 . S
C568 H592 0.950 . S
C569 C586 1.574 . S
C569 C588 1.368 . S
C569 H593 0.949 . S
H570 C574 0.949 . S
C571 C572 1.349 . S
C571 C573 1.327 . S
C571 H594 0.950 . S
C572 C571 1.349 . S
C572 C584 1.349 . S
C573 C571 1.327 . S
C573 C589 1.429 . S
C573 H595 0.950 . S
C574 H570 0.949 . S
C574 C582 1.574 . S
C574 C590 1.368 . S
H575 C583 0.950 . S
H576 C581 0.950 . S
H577 C582 0.949 . S
H578 C584 0.950 . S
H579 C585 0.950 . S
H580 C586 0.949 . S
C581 H576 0.950 . S
C581 C583 1.327 . S
C581 C587 1.429 . S
C582 C574 1.574 . S
C582 H577 0.949 . S
C582 C588 1.368 . S
C583 C567 1.349 . S
C583 H575 0.950 . S
C583 C581 1.327 . S
C584 C572 1.349 . S
C584 H578 0.950 . S
C584 C585 1.327 . S
C585 H579 0.950 . S
C585 C584 1.327 . S
C585 C589 1.429 . S
C586 C569 1.574 . S
C586 H580 0.949 . S
C586 C590 1.368 . S
C587 C568 1.429 . S
C587 C581 1.429 . S
C587 C588 1.523 . S
C588 C569 1.368 . S
C588 C582 1.368 . S
C588 C587 1.523 . S
C589 C573 1.429 . S
C589 C585 1.429 . S
C589 C590 1.523 . S
C590 C574 1.368 . S
C590 C586 1.368 . S
C590 C589 1.523 . S
H591 C566 0.950 . S
H592 C568 0.950 . S
H593 C569 0.949 . S
H594 C571 0.950 . S
H595 C573 0.950 . S
C596 C597 1.349 . S
C596 C598 1.327 . S
C596 H621 0.950 . S
C597 C596 1.349 . S
C597 C613 1.349 . S
C598 C596 1.327 . S
C598 C617 1.429 . S
C598 H622 0.950 . S
C599 C616 1.574 . S
C599 C618 1.368 . S
C599 H623 0.949 . S
H600 C604 0.949 . S
C601 C602 1.349 . S
C601 C603 1.327 . S
C601 H624 0.950 . S
C602 C601 1.349 . S
C602 C614 1.349 . S
C603 C601 1.327 . S
C603 C619 1.429 . S
C603 H625 0.950 . S
C604 H600 0.949 . S
C604 C612 1.574 . S
C604 C620 1.368 . S
H605 C613 0.950 . S
H606 C611 0.950 . S
H607 C612 0.949 . S
H608 C614 0.950 . S
H609 C615 0.950 . S
H610 C616 0.949 . S
C611 H606 0.950 . S
C611 C613 1.327 . S
C611 C617 1.429 . S
C612 C604 1.574 . S
C612 H607 0.949 . S
C612 C618 1.368 . S
C613 C597 1.349 . S
C613 H605 0.950 . S
C613 C611 1.327 . S
C614 C602 1.349 . S
C614 H608 0.950 . S
C614 C615 1.327 . S
C615 H609 0.950 . S
C615 C614 1.327 . S
C615 C619 1.429 . S
C616 C599 1.574 . S
C616 H610 0.949 . S
C616 C620 1.368 . S
C617 C598 1.429 . S
C617 C611 1.429 . S
C617 C618 1.523 . S
C618 C599 1.368 . S
C618 C612 1.368 . S
C618 C617 1.523 . S
C619 C603 1.429 . S
C619 C615 1.429 . S
C619 C620 1.523 . S
C620 C604 1.368 . S
C620 C616 1.368 . S
C620 C619 1.523 . S
H621 C596 0.950 . S
H622 C598 0.950 . S
H623 C599 0.949 . S
H624 C601 0.950 . S
H625 C603 0.950 . S
C626 C627 1.349 . S
C626 C628 1.327 . S
C626 H651 0.950 . S
C627 C626 1.349 . S
C627 C643 1.349 . S
C628 C626 1.327 . S
C628 C647 1.429 . S
C628 H652 0.950 . S
C629 C646 1.574 . S
C629 C648 1.368 . S
C629 H653 0.949 . S
H630 C634 0.949 . S
C631 C632 1.349 . S
C631 C633 1.327 . S
C631 H654 0.950 . S
C632 C631 1.349 . S
C632 C644 1.349 . S
C633 C631 1.327 . S
C633 C649 1.429 . S
C633 H655 0.950 . S
C634 H630 0.949 . S
C634 C642 1.574 . S
C634 C650 1.368 . S
H635 C643 0.950 . S
H636 C641 0.950 . S
H637 C642 0.949 . S
H638 C644 0.950 . S
H639 C645 0.950 . S
H640 C646 0.949 . S
C641 H636 0.950 . S
C641 C643 1.327 . S
C641 C647 1.429 . S
C642 C634 1.574 . S
C642 H637 0.949 . S
C642 C648 1.368 . S
C643 C627 1.349 . S
C643 H635 0.950 . S
C643 C641 1.327 . S
C644 C632 1.349 . S
C644 H638 0.950 . S
C644 C645 1.327 . S
C645 H639 0.950 . S
C645 C644 1.327 . S
C645 C649 1.429 . S
C646 C629 1.574 . S
C646 H640 0.949 . S
C646 C650 1.368 . S
C647 C628 1.429 . S
C647 C641 1.429 . S
C647 C648 1.523 . S
C648 C629 1.368 . S
C648 C642 1.368 . S
C648 C647 1.523 . S
C649 C633 1.429 . S
C649 C645 1.429 . S
C649 C650 1.523 . S
C650 C634 1.368 . S
C650 C646 1.368 . S
C650 C649 1.523 . S
H651 C626 0.950 . S
H652 C628 0.950 . S
H653 C629 0.949 . S
H654 C631 0.950 . S
H655 C633 0.950 . S
C656 C657 1.349 . S
C656 C658 1.327 . S
C656 H681 0.950 . S
C657 C656 1.349 . S
C657 C673 1.349 . S
C658 C656 1.327 . S
C658 C677 1.429 . S
C658 H682 0.950 . S
C659 C676 1.574 . S
C659 C678 1.368 . S
C659 H683 0.949 . S
H660 C664 0.949 . S
C661 C662 1.349 . S
C661 C663 1.327 . S
C661 H684 0.950 . S
C662 C661 1.349 . S
C662 C674 1.349 . S
C663 C661 1.327 . S
C663 C679 1.429 . S
C663 H685 0.950 . S
C664 H660 0.949 . S
C664 C672 1.574 . S
C664 C680 1.368 . S
H665 C673 0.950 . S
H666 C671 0.950 . S
H667 C672 0.949 . S
H668 C674 0.950 . S
H669 C675 0.950 . S
H670 C676 0.949 . S
C671 H666 0.950 . S
C671 C673 1.327 . S
C671 C677 1.429 . S
C672 C664 1.574 . S
C672 H667 0.949 . S
C672 C678 1.368 . S
C673 C657 1.349 . S
C673 H665 0.950 . S
C673 C671 1.327 . S
C674 C662 1.349 . S
C674 H668 0.950 . S
C674 C675 1.327 . S
C675 H669 0.950 . S
C675 C674 1.327 . S
C675 C679 1.429 . S
C676 C659 1.574 . S
C676 H670 0.949 . S
C676 C680 1.368 . S
C677 C658 1.429 . S
C677 C671 1.429 . S
C677 C678 1.523 . S
C678 C659 1.368 . S
C678 C672 1.368 . S
C678 C677 1.523 . S
C679 C663 1.429 . S
C679 C675 1.429 . S
C679 C680 1.523 . S
C680 C664 1.368 . S
C680 C676 1.368 . S
C680 C679 1.523 . S
H681 C656 0.950 . S
H682 C658 0.950 . S
H683 C659 0.949 . S
H684 C661 0.950 . S
H685 C663 0.950 . S
C686 C687 1.349 . S
C686 C688 1.327 . S
C686 H711 0.950 . S
C687 C686 1.349 . S
C687 C703 1.349 . S
C688 C686 1.327 . S
C688 C707 1.429 . S
C688 H712 0.950 . S
C689 C706 1.574 . S
C689 C708 1.368 . S
C689 H713 0.949 . S
H690 C694 0.949 . S
C691 C692 1.349 . S
C691 C693 1.327 . S
C691 H714 0.950 . S
C692 C691 1.349 . S
C692 C704 1.349 . S
C693 C691 1.327 . S
C693 C709 1.429 . S
C693 H715 0.950 . S
C694 H690 0.949 . S
C694 C702 1.574 . S
C694 C710 1.368 . S
H695 C703 0.950 . S
H696 C701 0.950 . S
H697 C702 0.949 . S
H698 C704 0.950 . S
H699 C705 0.950 . S
H700 C706 0.949 . S
C701 H696 0.950 . S
C701 C703 1.327 . S
C701 C707 1.429 . S
C702 C694 1.574 . S
C702 H697 0.949 . S
C702 C708 1.368 . S
C703 C687 1.349 . S
C703 H695 0.950 . S
C703 C701 1.327 . S
C704 C692 1.349 . S
C704 H698 0.950 . S
C704 C705 1.327 . S
C705 H699 0.950 . S
C705 C704 1.327 . S
C705 C709 1.429 . S
C706 C689 1.574 . S
C706 H700 0.949 . S
C706 C710 1.368 . S
C707 C688 1.429 . S
C707 C701 1.429 . S
C707 C708 1.523 . S
C708 C689 1.368 . S
C708 C702 1.368 . S
C708 C707 1.523 . S
C709 C693 1.429 . S
C709 C705 1.429 . S
C709 C710 1.523 . S
C710 C694 1.368 . S
C710 C706 1.368 . S
C710 C709 1.523 . S
H711 C686 0.950 . S
H712 C688 0.950 . S
H713 C689 0.949 . S
H714 C691 0.950 . S
H715 C693 0.950 . S
C716 C717 1.349 . S
C716 C718 1.327 . S
C716 H741 0.950 . S
C717 C716 1.349 . S
C717 C733 1.349 . S
C718 C716 1.327 . S
C718 C737 1.429 . S
C718 H742 0.950 . S
C719 C736 1.574 . S
C719 C738 1.368 . S
C719 H743 0.949 . S
H720 C724 0.949 . S
C721 C722 1.349 . S
C721 C723 1.327 . S
C721 H744 0.950 . S
C722 C721 1.349 . S
C722 C734 1.349 . S
C723 C721 1.327 . S
C723 C739 1.429 . S
C723 H745 0.950 . S
C724 H720 0.949 . S
C724 C732 1.574 . S
C724 C740 1.368 . S
H725 C733 0.950 . S
H726 C731 0.950 . S
H727 C732 0.949 . S
H728 C734 0.950 . S
H729 C735 0.950 . S
H730 C736 0.949 . S
C731 H726 0.950 . S
C731 C733 1.327 . S
C731 C737 1.429 . S
C732 C724 1.574 . S
C732 H727 0.949 . S
C732 C738 1.368 . S
C733 C717 1.349 . S
C733 H725 0.950 . S
C733 C731 1.327 . S
C734 C722 1.349 . S
C734 H728 0.950 . S
C734 C735 1.327 . S
C735 H729 0.950 . S
C735 C734 1.327 . S
C735 C739 1.429 . S
C736 C719 1.574 . S
C736 H730 0.949 . S
C736 C740 1.368 . S
C737 C718 1.429 . S
C737 C731 1.429 . S
C737 C738 1.523 . S
C738 C719 1.368 . S
C738 C732 1.368 . S
C738 C737 1.523 . S
C739 C723 1.429 . S
C739 C735 1.429 . S
C739 C740 1.523 . S
C740 C724 1.368 . S
C740 C736 1.368 . S
C740 C739 1.523 . S
H741 C716 0.950 . S
H742 C718 0.950 . S
H743 C719 0.949 . S
H744 C721 0.950 . S
H745 C723 0.950 . S
C746 C747 1.349 . S
C746 C748 1.327 . S
C746 H771 0.950 . S
C747 C746 1.349 . S
C747 C763 1.349 . S
C748 C746 1.327 . S
C748 C767 1.429 . S
C748 H772 0.950 . S
C749 C766 1.574 . S
C749 C768 1.368 . S
C749 H773 0.949 . S
H750 C754 0.949 . S
C751 C752 1.349 . S
C751 C753 1.327 . S
C751 H774 0.950 . S
C752 C751 1.349 . S
C752 C764 1.349 . S
C753 C751 1.327 . S
C753 C769 1.429 . S
C753 H775 0.950 . S
C754 H750 0.949 . S
C754 C762 1.574 . S
C754 C770 1.368 . S
H755 C763 0.950 . S
H756 C761 0.950 . S
H757 C762 0.949 . S
H758 C764 0.950 . S
H759 C765 0.950 . S
H760 C766 0.949 . S
C761 H756 0.950 . S
C761 C763 1.327 . S
C761 C767 1.429 . S
C762 C754 1.574 . S
C762 H757 0.949 . S
C762 C768 1.368 . S
C763 C747 1.349 . S
C763 H755 0.950 . S
C763 C761 1.327 . S
C764 C752 1.349 . S
C764 H758 0.950 . S
C764 C765 1.327 . S
C765 H759 0.950 . S
C765 C764 1.327 . S
C765 C769 1.429 . S
C766 C749 1.574 . S
C766 H760 0.949 . S
C766 C770 1.368 . S
C767 C748 1.429 . S
C767 C761 1.429 . S
C767 C768 1.523 . S
C768 C749 1.368 . S
C768 C762 1.368 . S
C768 C767 1.523 . S
C769 C753 1.429 . S
C769 C765 1.429 . S
C769 C770 1.523 . S
C770 C754 1.368 . S
C770 C766 1.368 . S
C770 C769 1.523 . S
H771 C746 0.950 . S
H772 C748 0.950 . S
H773 C749 0.949 . S
H774 C751 0.950 . S
H775 C753 0.950 . S
C776 C777 1.349 . S
C776 C778 1.327 . S
C776 H801 0.950 . S
C777 C776 1.349 . S
C777 C793 1.349 . S
C778 C776 1.327 . S
C778 C797 1.429 . S
C778 H802 0.950 . S
C779 C796 1.574 . S
C779 C798 1.368 . S
C779 H803 0.949 . S
H780 C784 0.949 . S
C781 C782 1.349 . S
C781 C783 1.327 . S
C781 H804 0.950 . S
C782 C781 1.349 . S
C782 C794 1.349 . S
C783 C781 1.327 . S
C783 C799 1.429 . S
C783 H805 0.950 . S
C784 H780 0.949 . S
C784 C792 1.574 . S
C784 C800 1.368 . S
H785 C793 0.950 . S
H786 C791 0.950 . S
H787 C792 0.949 . S
H788 C794 0.950 . S
H789 C795 0.950 . S
H790 C796 0.949 . S
C791 H786 0.950 . S
C791 C793 1.327 . S
C791 C797 1.429 . S
C792 C784 1.574 . S
C792 H787 0.949 . S
C792 C798 1.368 . S
C793 C777 1.349 . S
C793 H785 0.950 . S
C793 C791 1.327 . S
C794 C782 1.349 . S
C794 H788 0.950 . S
C794 C795 1.327 . S
C795 H789 0.950 . S
C795 C794 1.327 . S
C795 C799 1.429 . S
C796 C779 1.574 . S
C796 H790 0.949 . S
C796 C800 1.368 . S
C797 C778 1.429 . S
C797 C791 1.429 . S
C797 C798 1.523 . S
C798 C779 1.368 . S
C798 C792 1.368 . S
C798 C797 1.523 . S
C799 C783 1.429 . S
C799 C795 1.429 . S
C799 C800 1.523 . S
C800 C784 1.368 . S
C800 C796 1.368 . S
C800 C799 1.523 . S
H801 C776 0.950 . S
H802 C778 0.950 . S
H803 C779 0.949 . S
H804 C781 0.950 . S
H805 C783 0.950 . S
C806 C807 1.349 . S
C806 C808 1.327 . S
C806 H831 0.950 . S
C807 C806 1.349 . S
C807 C823 1.349 . S
C808 C806 1.327 . S
C808 C827 1.429 . S
C808 H832 0.950 . S
C809 C826 1.574 . S
C809 C828 1.368 . S
C809 H833 0.949 . S
H810 C814 0.949 . S
C811 C812 1.349 . S
C811 C813 1.327 . S
C811 H834 0.950 . S
C812 C811 1.349 . S
C812 C824 1.349 . S
C813 C811 1.327 . S
C813 C829 1.429 . S
C813 H835 0.950 . S
C814 H810 0.949 . S
C814 C822 1.574 . S
C814 C830 1.368 . S
H815 C823 0.950 . S
H816 C821 0.950 . S
H817 C822 0.949 . S
H818 C824 0.950 . S
H819 C825 0.950 . S
H820 C826 0.949 . S
C821 H816 0.950 . S
C821 C823 1.327 . S
C821 C827 1.429 . S
C822 C814 1.574 . S
C822 H817 0.949 . S
C822 C828 1.368 . S
C823 C807 1.349 . S
C823 H815 0.950 . S
C823 C821 1.327 . S
C824 C812 1.349 . S
C824 H818 0.950 . S
C824 C825 1.327 . S
C825 H819 0.950 . S
C825 C824 1.327 . S
C825 C829 1.429 . S
C826 C809 1.574 . S
C826 H820 0.949 . S
C826 C830 1.368 . S
C827 C808 1.429 . S
C827 C821 1.429 . S
C827 C828 1.523 . S
C828 C809 1.368 . S
C828 C822 1.368 . S
C828 C827 1.523 . S
C829 C813 1.429 . S
C829 C825 1.429 . S
C829 C830 1.523 . S
C830 C814 1.368 . S
C830 C826 1.368 . S
C830 C829 1.523 . S
H831 C806 0.950 . S
H832 C808 0.950 . S
H833 C809 0.949 . S
H834 C811 0.950 . S
H835 C813 0.950 . S
C836 C837 1.349 . S
C836 C838 1.327 . S
C836 H861 0.950 . S
C837 C836 1.349 . S
C837 C853 1.349 . S
C838 C836 1.327 . S
C838 C857 1.429 . S
C838 H862 0.950 . S
C839 C856 1.574 . S
C839 C858 1.368 . S
C839 H863 0.949 . S
H840 C844 0.949 . S
C841 C842 1.349 . S
C841 C843 1.327 . S
C841 H864 0.950 . S
C842 C841 1.349 . S
C842 C854 1.349 . S
C843 C841 1.327 . S
C843 C859 1.429 . S
C843 H865 0.950 . S
C844 H840 0.949 . S
C844 C852 1.574 . S
C844 C860 1.368 . S
H845 C853 0.950 . S
H846 C851 0.950 . S
H847 C852 0.949 . S
H848 C854 0.950 . S
H849 C855 0.950 . S
H850 C856 0.949 . S
C851 H846 0.950 . S
C851 C853 1.327 . S
C851 C857 1.429 . S
C852 C844 1.574 . S
C852 H847 0.949 . S
C852 C858 1.368 . S
C853 C837 1.349 . S
C853 H845 0.950 . S
C853 C851 1.327 . S
C854 C842 1.349 . S
C854 H848 0.950 . S
C854 C855 1.327 . S
C855 H849 0.950 . S
C855 C854 1.327 . S
C855 C859 1.429 . S
C856 C839 1.574 . S
C856 H850 0.949 . S
C856 C860 1.368 . S
C857 C838 1.429 . S
C857 C851 1.429 . S
C857 C858 1.523 . S
C858 C839 1.368 . S
C858 C852 1.368 . S
C858 C857 1.523 . S
C859 C843 1.429 . S
C859 C855 1.429 . S
C859 C860 1.523 . S
C860 C844 1.368 . S
C860 C856 1.368 . S
C860 C859 1.523 . S
H861 C836 0.950 . S
H862 C838 0.950 . S
H863 C839 0.949 . S
H864 C841 0.950 . S
H865 C843 0.950 . S
C866 C867 1.349 . S
C866 C868 1.327 . S
C866 H891 0.950 . S
C867 C866 1.349 . S
C867 C883 1.349 . S
C868 C866 1.327 . S
C868 C887 1.429 . S
C868 H892 0.950 . S
C869 C886 1.574 . S
C869 C888 1.368 . S
C869 H893 0.949 . S
H870 C874 0.949 . S
C871 C872 1.349 . S
C871 C873 1.327 . S
C871 H894 0.950 . S
C872 C871 1.349 . S
C872 C884 1.349 . S
C873 C871 1.327 . S
C873 C889 1.429 . S
C873 H895 0.950 . S
C874 H870 0.949 . S
C874 C882 1.574 . S
C874 C890 1.368 . S
H875 C883 0.950 . S
H876 C881 0.950 . S
H877 C882 0.949 . S
H878 C884 0.950 . S
H879 C885 0.950 . S
H880 C886 0.949 . S
C881 H876 0.950 . S
C881 C883 1.327 . S
C881 C887 1.429 . S
C882 C874 1.574 . S
C882 H877 0.949 . S
C882 C888 1.368 . S
C883 C867 1.349 . S
C883 H875 0.950 . S
C883 C881 1.327 . S
C884 C872 1.349 . S
C884 H878 0.950 . S
C884 C885 1.327 . S
C885 H879 0.950 . S
C885 C884 1.327 . S
C885 C889 1.429 . S
C886 C869 1.574 . S
C886 H880 0.949 . S
C886 C890 1.368 . S
C887 C868 1.429 . S
C887 C881 1.429 . S
C887 C888 1.523 . S
C888 C869 1.368 . S
C888 C882 1.368 . S
C888 C887 1.523 . S
C889 C873 1.429 . S
C889 C885 1.429 . S
C889 C890 1.523 . S
C890 C874 1.368 . S
C890 C886 1.368 . S
C890 C889 1.523 . S
H891 C866 0.950 . S
H892 C868 0.950 . S
H893 C869 0.949 . S
H894 C871 0.950 . S
H895 C873 0.950 . S
C896 C897 1.349 . S
C896 C898 1.327 . S
C896 H921 0.950 . S
C897 C896 1.349 . S
C897 C913 1.349 . S
C898 C896 1.327 . S
C898 C917 1.429 . S
C898 H922 0.950 . S
C899 C916 1.574 . S
C899 C918 1.368 . S
C899 H923 0.949 . S
H900 C904 0.949 . S
C901 C902 1.349 . S
C901 C903 1.327 . S
C901 H924 0.950 . S
C902 C901 1.349 . S
C902 C914 1.349 . S
C903 C901 1.327 . S
C903 C919 1.429 . S
C903 H925 0.950 . S
C904 H900 0.949 . S
C904 C912 1.574 . S
C904 C920 1.368 . S
H905 C913 0.950 . S
H906 C911 0.950 . S
H907 C912 0.949 . S
H908 C914 0.950 . S
H909 C915 0.950 . S
H910 C916 0.949 . S
C911 H906 0.950 . S
C911 C913 1.327 . S
C911 C917 1.429 . S
C912 C904 1.574 . S
C912 H907 0.949 . S
C912 C918 1.368 . S
C913 C897 1.349 . S
C913 H905 0.950 . S
C913 C911 1.327 . S
C914 C902 1.349 . S
C914 H908 0.950 . S
C914 C915 1.327 . S
C915 H909 0.950 . S
C915 C914 1.327 . S
C915 C919 1.429 . S
C916 C899 1.574 . S
C916 H910 0.949 . S
C916 C920 1.368 . S
C917 C898 1.429 . S
C917 C911 1.429 . S
C917 C918 1.523 . S
C918 C899 1.368 . S
C918 C912 1.368 . S
C918 C917 1.523 . S
C919 C903 1.429 . S
C919 C915 1.429 . S
C919 C920 1.523 . S
C920 C904 1.368 . S
C920 C916 1.368 . S
C920 C919 1.523 . S
H921 C896 0.950 . S
H922 C898 0.950 . S
H923 C899 0.949 . S
H924 C901 0.950 . S
H925 C903 0.950 . S
C926 C927 1.349 . S
C926 C928 1.327 1_455 S
C926 H951 0.950 . S
C927 C926 1.349 . S
C927 C943 1.349 . S
C928 C926 1.327 1_655 S
C928 C947 1.429 . S
C928 H952 0.950 . S
C929 C946 1.574 . S
C929 C948 1.368 . S
C929 H953 0.949 . S
H930 C934 0.949 . S
C931 C932 1.349 . S
C931 C933 1.327 . S
C931 H954 0.950 . S
C932 C931 1.349 . S
C932 C944 1.349 . S
C933 C931 1.327 . S
C933 C949 1.429 . S
C933 H955 0.950 . S
C934 H930 0.949 . S
C934 C942 1.574 . S
C934 C950 1.368 . S
H935 C943 0.950 . S
H936 C941 0.950 . S
H937 C942 0.949 . S
H938 C944 0.950 . S
H939 C945 0.950 . S
H940 C946 0.949 . S
C941 H936 0.950 . S
C941 C943 1.327 1_655 S
C941 C947 1.429 . S
C942 C934 1.574 . S
C942 H937 0.949 . S
C942 C948 1.368 . S
C943 C927 1.349 . S
C943 H935 0.950 . S
C943 C941 1.327 1_455 S
C944 C932 1.349 . S
C944 H938 0.950 . S
C944 C945 1.327 . S
C945 H939 0.950 . S
C945 C944 1.327 . S
C945 C949 1.429 . S
C946 C929 1.574 . S
C946 H940 0.949 . S
C946 C950 1.368 . S
C947 C928 1.429 . S
C947 C941 1.429 . S
C947 C948 1.523 . S
C948 C929 1.368 . S
C948 C942 1.368 . S
C948 C947 1.523 . S
C949 C933 1.429 . S
C949 C945 1.429 . S
C949 C950 1.523 . S
C950 C934 1.368 . S
C950 C946 1.368 . S
C950 C949 1.523 . S
H951 C926 0.950 . S
H952 C928 0.950 . S
H953 C929 0.949 . S
H954 C931 0.950 . S
H955 C933 0.950 . S
C956 C957 1.349 . S
C956 C958 1.327 . S
C956 H981 0.950 . S
C957 C956 1.349 . S
C957 C973 1.349 . S
C958 C956 1.327 . S
C958 C977 1.429 . S
C958 H982 0.950 . S
C959 C976 1.574 . S
C959 C978 1.368 . S
C959 H983 0.949 . S
H960 C964 0.949 . S
C961 C962 1.349 . S
C961 C963 1.327 . S
C961 H984 0.950 . S
C962 C961 1.349 . S
C962 C974 1.349 . S
C963 C961 1.327 . S
C963 C979 1.429 . S
C963 H985 0.950 . S
C964 H960 0.949 . S
C964 C972 1.574 . S
C964 C980 1.368 . S
H965 C973 0.950 . S
H966 C971 0.950 . S
H967 C972 0.949 . S
H968 C974 0.950 . S
H969 C975 0.950 . S
H970 C976 0.949 . S
C971 H966 0.950 . S
C971 C973 1.327 . S
C971 C977 1.429 . S
C972 C964 1.574 . S
C972 H967 0.949 . S
C972 C978 1.368 . S
C973 C957 1.349 . S
C973 H965 0.950 . S
C973 C971 1.327 . S
C974 C962 1.349 . S
C974 H968 0.950 . S
C974 C975 1.327 . S
C975 H969 0.950 . S
C975 C974 1.327 . S
C975 C979 1.429 . S
C976 C959 1.574 . S
C976 H970 0.949 . S
C976 C980 1.368 . S
C977 C958 1.429 . S
C977 C971 1.429 . S
C977 C978 1.523 . S
C978 C959 1.368 . S
C978 C972 1.368 . S
C978 C977 1.523 . S
C979 C963 1.429 . S
C979 C975 1.429 . S
C979 C980 1.523 . S
C980 C964 1.368 . S
C980 C976 1.368 . S
C980 C979 1.523 . S
H981 C956 0.950 . S
H982 C958 0.950 . S
H983 C959 0.949 . S
H984 C961 0.950 . S
H985 C963 0.950 . S
C986 C987 1.349 . S
C986 C988 1.327 . S
C986 H1011 0.950 . S
C987 C986 1.349 . S
C987 C1003 1.349 . S
C988 C986 1.327 . S
C988 C1007 1.429 . S
C988 H1012 0.950 . S
C989 C1006 1.574 . S
C989 C1008 1.368 . S
C989 H1013 0.949 . S
H990 C994 0.949 . S
C991 C992 1.349 . S
C991 C993 1.327 1_455 S
C991 H1014 0.950 . S
C992 C991 1.349 . S
C992 C1004 1.349 . S
C993 C991 1.327 1_655 S
C993 C1009 1.429 . S
C993 H1015 0.950 . S
C994 H990 0.949 . S
C994 C1002 1.574 . S
C994 C1010 1.368 . S
H995 C1003 0.950 . S
H996 C1001 0.950 . S
H997 C1002 0.949 . S
H998 C1004 0.950 . S
H999 C1005 0.950 . S
H1000 C1006 0.949 . S
C1001 H996 0.950 . S
C1001 C1003 1.327 . S
C1001 C1007 1.429 . S
C1002 C994 1.574 . S
C1002 H997 0.949 . S
C1002 C1008 1.368 . S
C1003 C987 1.349 . S
C1003 H995 0.950 . S
C1003 C1001 1.327 . S
C1004 C992 1.349 . S
C1004 H998 0.950 . S
C1004 C1005 1.327 1_455 S
C1005 H999 0.950 . S
C1005 C1004 1.327 1_655 S
C1005 C1009 1.429 . S
C1006 C989 1.574 . S
C1006 H1000 0.949 . S
C1006 C1010 1.368 . S
C1007 C988 1.429 . S
C1007 C1001 1.429 . S
C1007 C1008 1.523 . S
C1008 C989 1.368 . S
C1008 C1002 1.368 . S
C1008 C1007 1.523 . S
C1009 C993 1.429 . S
C1009 C1005 1.429 . S
C1009 C1010 1.523 . S
C1010 C994 1.368 . S
C1010 C1006 1.368 . S
C1010 C1009 1.523 . S
H1011 C986 0.950 . S
H1012 C988 0.950 . S
H1013 C989 0.949 . S
H1014 C991 0.950 . S
H1015 C993 0.950 . S
C1016 C1017 1.349 . S
C1016 C1018 1.327 . S
C1016 H1041 0.950 . S
C1017 C1016 1.349 . S
C1017 C1033 1.349 . S
C1018 C1016 1.327 . S
C1018 C1037 1.429 . S
C1018 H1042 0.950 . S
C1019 C1036 1.574 . S
C1019 C1038 1.368 . S
C1019 H1043 0.949 . S
H1020 C1024 0.949 . S
C1021 C1022 1.349 . S
C1021 C1023 1.327 . S
C1021 H1044 0.950 . S
C1022 C1021 1.349 . S
C1022 C1034 1.349 . S
C1023 C1021 1.327 . S
C1023 C1039 1.429 . S
C1023 H1045 0.950 . S
C1024 H1020 0.949 . S
C1024 C1032 1.574 . S
C1024 C1040 1.368 . S
H1025 C1033 0.950 . S
H1026 C1031 0.950 . S
H1027 C1032 0.949 . S
H1028 C1034 0.950 . S
H1029 C1035 0.950 . S
H1030 C1036 0.949 . S
C1031 H1026 0.950 . S
C1031 C1033 1.327 . S
C1031 C1037 1.429 . S
C1032 C1024 1.574 . S
C1032 H1027 0.949 . S
C1032 C1038 1.368 . S
C1033 C1017 1.349 . S
C1033 H1025 0.950 . S
C1033 C1031 1.327 . S
C1034 C1022 1.349 . S
C1034 H1028 0.950 . S
C1034 C1035 1.327 . S
C1035 H1029 0.950 . S
C1035 C1034 1.327 . S
C1035 C1039 1.429 . S
C1036 C1019 1.574 . S
C1036 H1030 0.949 . S
C1036 C1040 1.368 . S
C1037 C1018 1.429 . S
C1037 C1031 1.429 . S
C1037 C1038 1.523 . S
C1038 C1019 1.368 . S
C1038 C1032 1.368 . S
C1038 C1037 1.523 . S
C1039 C1023 1.429 . S
C1039 C1035 1.429 . S
C1039 C1040 1.523 . S
C1040 C1024 1.368 . S
C1040 C1036 1.368 . S
C1040 C1039 1.523 . S
H1041 C1016 0.950 . S
H1042 C1018 0.950 . S
H1043 C1019 0.949 . S
H1044 C1021 0.950 . S
H1045 C1023 0.950 . S
C1046 C1047 1.349 . S
C1046 C1048 1.327 1_655 S
C1046 H1071 0.950 . S
C1047 C1046 1.349 . S
C1047 C1063 1.349 . S
C1048 C1046 1.327 1_455 S
C1048 C1067 1.429 . S
C1048 H1072 0.950 . S
C1049 C1066 1.574 . S
C1049 C1068 1.368 . S
C1049 H1073 0.949 . S
H1050 C1054 0.949 . S
C1051 C1052 1.349 . S
C1051 C1053 1.327 . S
C1051 H1074 0.950 . S
C1052 C1051 1.349 . S
C1052 C1064 1.349 . S
C1053 C1051 1.327 . S
C1053 C1069 1.429 . S
C1053 H1075 0.950 . S
C1054 H1050 0.949 . S
C1054 C1062 1.574 . S
C1054 C1070 1.368 . S
H1055 C1063 0.950 . S
H1056 C1061 0.950 . S
H1057 C1062 0.949 . S
H1058 C1064 0.950 . S
H1059 C1065 0.950 . S
H1060 C1066 0.949 . S
C1061 H1056 0.950 . S
C1061 C1063 1.327 1_455 S
C1061 C1067 1.429 . S
C1062 C1054 1.574 . S
C1062 H1057 0.949 . S
C1062 C1068 1.368 . S
C1063 C1047 1.349 . S
C1063 H1055 0.950 . S
C1063 C1061 1.327 1_655 S
C1064 C1052 1.349 . S
C1064 H1058 0.950 . S
C1064 C1065 1.327 . S
C1065 H1059 0.950 . S
C1065 C1064 1.327 . S
C1065 C1069 1.429 . S
C1066 C1049 1.574 . S
C1066 H1060 0.949 . S
C1066 C1070 1.368 . S
C1067 C1048 1.429 . S
C1067 C1061 1.429 . S
C1067 C1068 1.523 . S
C1068 C1049 1.368 . S
C1068 C1062 1.368 . S
C1068 C1067 1.523 . S
C1069 C1053 1.429 . S
C1069 C1065 1.429 . S
C1069 C1070 1.523 . S
C1070 C1054 1.368 . S
C1070 C1066 1.368 . S
C1070 C1069 1.523 . S
H1071 C1046 0.950 . S
H1072 C1048 0.950 . S
H1073 C1049 0.949 . S
H1074 C1051 0.950 . S
H1075 C1053 0.950 . S
C1076 C1077 1.349 . S
C1076 C1078 1.327 . S
C1076 H1101 0.950 . S
C1077 C1076 1.349 . S
C1077 C1093 1.349 . S
C1078 C1076 1.327 . S
C1078 C1097 1.429 . S
C1078 H1102 0.950 . S
C1079 C1096 1.574 . S
C1079 C1098 1.368 . S
C1079 H1103 0.949 . S
H1080 C1084 0.949 . S
C1081 C1082 1.349 . S
C1081 C1083 1.327 . S
C1081 H1104 0.950 . S
C1082 C1081 1.349 . S
C1082 C1094 1.349 . S
C1083 C1081 1.327 . S
C1083 C1099 1.429 . S
C1083 H1105 0.950 . S
C1084 H1080 0.949 . S
C1084 C1092 1.574 . S
C1084 C1100 1.368 . S
H1085 C1093 0.950 . S
H1086 C1091 0.950 . S
H1087 C1092 0.949 . S
H1088 C1094 0.950 . S
H1089 C1095 0.950 . S
H1090 C1096 0.949 . S
C1091 H1086 0.950 . S
C1091 C1093 1.327 . S
C1091 C1097 1.429 . S
C1092 C1084 1.574 . S
C1092 H1087 0.949 . S
C1092 C1098 1.368 . S
C1093 C1077 1.349 . S
C1093 H1085 0.950 . S
C1093 C1091 1.327 . S
C1094 C1082 1.349 . S
C1094 H1088 0.950 . S
C1094 C1095 1.327 . S
C1095 H1089 0.950 . S
C1095 C1094 1.327 . S
C1095 C1099 1.429 . S
C1096 C1079 1.574 . S
C1096 H1090 0.949 . S
C1096 C1100 1.368 . S
C1097 C1078 1.429 . S
C1097 C1091 1.429 . S
C1097 C1098 1.523 . S
C1098 C1079 1.368 . S
C1098 C1092 1.368 . S
C1098 C1097 1.523 . S
C1099 C1083 1.429 . S
C1099 C1095 1.429 . S
C1099 C1100 1.523 . S
C1100 C1084 1.368 . S
C1100 C1096 1.368 . S
C1100 C1099 1.523 . S
H1101 C1076 0.950 . S
H1102 C1078 0.950 . S
H1103 C1079 0.949 . S
H1104 C1081 0.950 . S
H1105 C1083 0.950 . S
C1106 C1107 1.349 . S
C1106 C1108 1.327 1_655 S
C1106 H1131 0.950 . S
C1107 C1106 1.349 . S
C1107 C1123 1.349 . S
C1108 C1106 1.327 1_455 S
C1108 C1127 1.429 . S
C1108 H1132 0.950 . S
C1109 C1126 1.574 . S
C1109 C1128 1.368 . S
C1109 H1133 0.949 . S
H1110 C1114 0.949 . S
C1111 C1112 1.349 . S
C1111 C1113 1.327 . S
C1111 H1134 0.950 . S
C1112 C1111 1.349 . S
C1112 C1124 1.349 . S
C1113 C1111 1.327 . S
C1113 C1129 1.429 . S
C1113 H1135 0.950 . S
C1114 H1110 0.949 . S
C1114 C1122 1.574 . S
C1114 C1130 1.368 . S
H1115 C1123 0.950 . S
H1116 C1121 0.950 . S
H1117 C1122 0.949 . S
H1118 C1124 0.950 . S
H1119 C1125 0.950 . S
H1120 C1126 0.949 . S
C1121 H1116 0.950 . S
C1121 C1123 1.327 1_455 S
C1121 C1127 1.429 . S
C1122 C1114 1.574 . S
C1122 H1117 0.949 . S
C1122 C1128 1.368 . S
C1123 C1107 1.349 . S
C1123 H1115 0.950 . S
C1123 C1121 1.327 1_655 S
C1124 C1112 1.349 . S
C1124 H1118 0.950 . S
C1124 C1125 1.327 . S
C1125 H1119 0.950 . S
C1125 C1124 1.327 . S
C1125 C1129 1.429 . S
C1126 C1109 1.574 . S
C1126 H1120 0.949 . S
C1126 C1130 1.368 . S
C1127 C1108 1.429 . S
C1127 C1121 1.429 . S
C1127 C1128 1.523 . S
C1128 C1109 1.368 . S
C1128 C1122 1.368 . S
C1128 C1127 1.523 . S
C1129 C1113 1.429 . S
C1129 C1125 1.429 . S
C1129 C1130 1.523 . S
C1130 C1114 1.368 . S
C1130 C1126 1.368 . S
C1130 C1129 1.523 . S
H1131 C1106 0.950 . S
H1132 C1108 0.950 . S
H1133 C1109 0.949 . S
H1134 C1111 0.950 . S
H1135 C1113 0.950 . S
C1136 C1137 1.349 . S
C1136 C1138 1.327 . S
C1136 H1161 0.950 . S
C1137 C1136 1.349 . S
C1137 C1153 1.349 . S
C1138 C1136 1.327 . S
C1138 C1157 1.429 . S
C1138 H1162 0.950 . S
C1139 C1156 1.574 . S
C1139 C1158 1.368 . S
C1139 H1163 0.949 . S
H1140 C1144 0.949 . S
C1141 C1142 1.349 . S
C1141 C1143 1.327 . S
C1141 H1164 0.950 . S
C1142 C1141 1.349 . S
C1142 C1154 1.349 . S
C1143 C1141 1.327 . S
C1143 C1159 1.429 . S
C1143 H1165 0.950 . S
C1144 H1140 0.949 . S
C1144 C1152 1.574 . S
C1144 C1160 1.368 . S
H1145 C1153 0.950 . S
H1146 C1151 0.950 . S
H1147 C1152 0.949 . S
H1148 C1154 0.950 . S
H1149 C1155 0.950 . S
H1150 C1156 0.949 . S
C1151 H1146 0.950 . S
C1151 C1153 1.327 . S
C1151 C1157 1.429 . S
C1152 C1144 1.574 . S
C1152 H1147 0.949 . S
C1152 C1158 1.368 . S
C1153 C1137 1.349 . S
C1153 H1145 0.950 . S
C1153 C1151 1.327 . S
C1154 C1142 1.349 . S
C1154 H1148 0.950 . S
C1154 C1155 1.327 . S
C1155 H1149 0.950 . S
C1155 C1154 1.327 . S
C1155 C1159 1.429 . S
C1156 C1139 1.574 . S
C1156 H1150 0.949 . S
C1156 C1160 1.368 . S
C1157 C1138 1.429 . S
C1157 C1151 1.429 . S
C1157 C1158 1.523 . S
C1158 C1139 1.368 . S
C1158 C1152 1.368 . S
C1158 C1157 1.523 . S
C1159 C1143 1.429 . S
C1159 C1155 1.429 . S
C1159 C1160 1.523 . S
C1160 C1144 1.368 . S
C1160 C1156 1.368 . S
C1160 C1159 1.523 . S
H1161 C1136 0.950 . S
H1162 C1138 0.950 . S
H1163 C1139 0.949 . S
H1164 C1141 0.950 . S
H1165 C1143 0.950 . S
C1166 C1167 1.349 . S
C1166 C1168 1.327 . S
C1166 H1191 0.950 . S
C1167 C1166 1.349 . S
C1167 C1183 1.349 . S
C1168 C1166 1.327 . S
C1168 C1187 1.429 . S
C1168 H1192 0.950 . S
C1169 C1186 1.574 . S
C1169 C1188 1.368 . S
C1169 H1193 0.949 . S
H1170 C1174 0.949 . S
C1171 C1172 1.349 . S
C1171 C1173 1.327 1_455 S
C1171 H1194 0.950 . S
C1172 C1171 1.349 . S
C1172 C1184 1.349 . S
C1173 C1171 1.327 1_655 S
C1173 C1189 1.429 . S
C1173 H1195 0.950 . S
C1174 H1170 0.949 . S
C1174 C1182 1.574 . S
C1174 C1190 1.368 . S
H1175 C1183 0.950 . S
H1176 C1181 0.950 . S
H1177 C1182 0.949 . S
H1178 C1184 0.950 . S
H1179 C1185 0.950 . S
H1180 C1186 0.949 . S
C1181 H1176 0.950 . S
C1181 C1183 1.327 . S
C1181 C1187 1.429 . S
C1182 C1174 1.574 . S
C1182 H1177 0.949 . S
C1182 C1188 1.368 . S
C1183 C1167 1.349 . S
C1183 H1175 0.950 . S
C1183 C1181 1.327 . S
C1184 C1172 1.349 . S
C1184 H1178 0.950 . S
C1184 C1185 1.327 1_455 S
C1185 H1179 0.950 . S
C1185 C1184 1.327 1_655 S
C1185 C1189 1.429 . S
C1186 C1169 1.574 . S
C1186 H1180 0.949 . S
C1186 C1190 1.368 . S
C1187 C1168 1.429 . S
C1187 C1181 1.429 . S
C1187 C1188 1.523 . S
C1188 C1169 1.368 . S
C1188 C1182 1.368 . S
C1188 C1187 1.523 . S
C1189 C1173 1.429 . S
C1189 C1185 1.429 . S
C1189 C1190 1.523 . S
C1190 C1174 1.368 . S
C1190 C1186 1.368 . S
C1190 C1189 1.523 . S
H1191 C1166 0.950 . S
H1192 C1168 0.950 . S
H1193 C1169 0.949 . S
H1194 C1171 0.950 . S
H1195 C1173 0.950 . S
C1196 C1197 1.349 . S
C1196 C1198 1.327 . S
C1196 H1221 0.950 . S
C1197 C1196 1.349 . S
C1197 C1213 1.349 . S
C1198 C1196 1.327 . S
C1198 C1217 1.429 . S
C1198 H1222 0.950 . S
C1199 C1216 1.574 . S
C1199 C1218 1.368 . S
C1199 H1223 0.949 . S
H1200 C1204 0.949 . S
C1201 C1202 1.349 . S
C1201 C1203 1.327 . S
C1201 H1224 0.950 . S
C1202 C1201 1.349 . S
C1202 C1214 1.349 . S
C1203 C1201 1.327 . S
C1203 C1219 1.429 . S
C1203 H1225 0.950 . S
C1204 H1200 0.949 . S
C1204 C1212 1.574 . S
C1204 C1220 1.368 . S
H1205 C1213 0.950 . S
H1206 C1211 0.950 . S
H1207 C1212 0.949 . S
H1208 C1214 0.950 . S
H1209 C1215 0.950 . S
H1210 C1216 0.949 . S
C1211 H1206 0.950 . S
C1211 C1213 1.327 . S
C1211 C1217 1.429 . S
C1212 C1204 1.574 . S
C1212 H1207 0.949 . S
C1212 C1218 1.368 . S
C1213 C1197 1.349 . S
C1213 H1205 0.950 . S
C1213 C1211 1.327 . S
C1214 C1202 1.349 . S
C1214 H1208 0.950 . S
C1214 C1215 1.327 . S
C1215 H1209 0.950 . S
C1215 C1214 1.327 . S
C1215 C1219 1.429 . S
C1216 C1199 1.574 . S
C1216 H1210 0.949 . S
C1216 C1220 1.368 . S
C1217 C1198 1.429 . S
C1217 C1211 1.429 . S
C1217 C1218 1.523 . S
C1218 C1199 1.368 . S
C1218 C1212 1.368 . S
C1218 C1217 1.523 . S
C1219 C1203 1.429 . S
C1219 C1215 1.429 . S
C1219 C1220 1.523 . S
C1220 C1204 1.368 . S
C1220 C1216 1.368 . S
C1220 C1219 1.523 . S
H1221 C1196 0.950 . S
H1222 C1198 0.950 . S
H1223 C1199 0.949 . S
H1224 C1201 0.950 . S
H1225 C1203 0.950 . S
C1226 C1227 1.349 . S
C1226 C1228 1.327 . S
C1226 H1251 0.950 . S
C1227 C1226 1.349 . S
C1227 C1243 1.349 . S
C1228 C1226 1.327 . S
C1228 C1247 1.429 . S
C1228 H1252 0.950 . S
C1229 C1246 1.574 . S
C1229 C1248 1.368 . S
C1229 H1253 0.949 . S
H1230 C1234 0.949 . S
C1231 C1232 1.349 . S
C1231 C1233 1.327 1_455 S
C1231 H1254 0.950 . S
C1232 C1231 1.349 . S
C1232 C1244 1.349 . S
C1233 C1231 1.327 1_655 S
C1233 C1249 1.429 . S
C1233 H1255 0.950 . S
C1234 H1230 0.949 . S
C1234 C1242 1.574 . S
C1234 C1250 1.368 . S
H1235 C1243 0.950 . S
H1236 C1241 0.950 . S
H1237 C1242 0.949 . S
H1238 C1244 0.950 . S
H1239 C1245 0.950 . S
H1240 C1246 0.949 . S
C1241 H1236 0.950 . S
C1241 C1243 1.327 . S
C1241 C1247 1.429 . S
C1242 C1234 1.574 . S
C1242 H1237 0.949 . S
C1242 C1248 1.368 . S
C1243 C1227 1.349 . S
C1243 H1235 0.950 . S
C1243 C1241 1.327 . S
C1244 C1232 1.349 . S
C1244 H1238 0.950 . S
C1244 C1245 1.327 1_455 S
C1245 H1239 0.950 . S
C1245 C1244 1.327 1_655 S
C1245 C1249 1.429 . S
C1246 C1229 1.574 . S
C1246 H1240 0.949 . S
C1246 C1250 1.368 . S
C1247 C1228 1.429 . S
C1247 C1241 1.429 . S
C1247 C1248 1.523 . S
C1248 C1229 1.368 . S
C1248 C1242 1.368 . S
C1248 C1247 1.523 . S
C1249 C1233 1.429 . S
C1249 C1245 1.429 . S
C1249 C1250 1.523 . S
C1250 C1234 1.368 . S
C1250 C1246 1.368 . S
C1250 C1249 1.523 . S
H1251 C1226 0.950 . S
H1252 C1228 0.950 . S
H1253 C1229 0.949 . S
H1254 C1231 0.950 . S
H1255 C1233 0.950 . S
C1256 C1257 1.349 . S
C1256 C1258 1.327 . S
C1256 H1281 0.950 . S
C1257 C1256 1.349 . S
C1257 C1273 1.349 . S
C1258 C1256 1.327 . S
C1258 C1277 1.429 . S
C1258 H1282 0.950 . S
C1259 C1276 1.574 . S
C1259 C1278 1.368 . S
C1259 H1283 0.949 . S
H1260 C1264 0.949 . S
C1261 C1262 1.349 . S
C1261 C1263 1.327 . S
C1261 H1284 0.950 . S
C1262 C1261 1.349 . S
C1262 C1274 1.349 . S
C1263 C1261 1.327 . S
C1263 C1279 1.429 . S
C1263 H1285 0.950 . S
C1264 H1260 0.949 . S
C1264 C1272 1.574 . S
C1264 C1280 1.368 . S
H1265 C1273 0.950 . S
H1266 C1271 0.950 . S
H1267 C1272 0.949 . S
H1268 C1274 0.950 . S
H1269 C1275 0.950 . S
H1270 C1276 0.949 . S
C1271 H1266 0.950 . S
C1271 C1273 1.327 . S
C1271 C1277 1.429 . S
C1272 C1264 1.574 . S
C1272 H1267 0.949 . S
C1272 C1278 1.368 . S
C1273 C1257 1.349 . S
C1273 H1265 0.950 . S
C1273 C1271 1.327 . S
C1274 C1262 1.349 . S
C1274 H1268 0.950 . S
C1274 C1275 1.327 . S
C1275 H1269 0.950 . S
C1275 C1274 1.327 . S
C1275 C1279 1.429 . S
C1276 C1259 1.574 . S
C1276 H1270 0.949 . S
C1276 C1280 1.368 . S
C1277 C1258 1.429 . S
C1277 C1271 1.429 . S
C1277 C1278 1.523 . S
C1278 C1259 1.368 . S
C1278 C1272 1.368 . S
C1278 C1277 1.523 . S
C1279 C1263 1.429 . S
C1279 C1275 1.429 . S
C1279 C1280 1.523 . S
C1280 C1264 1.368 . S
C1280 C1276 1.368 . S
C1280 C1279 1.523 . S
H1281 C1256 0.950 . S
H1282 C1258 0.950 . S
H1283 C1259 0.949 . S
H1284 C1261 0.950 . S
H1285 C1263 0.950 . S
C1286 C1287 1.349 . S
C1286 C1288 1.327 . S
C1286 H1311 0.950 . S
C1287 C1286 1.349 . S
C1287 C1303 1.349 . S
C1288 C1286 1.327 . S
C1288 C1307 1.429 . S
C1288 H1312 0.950 . S
C1289 C1306 1.574 . S
C1289 C1308 1.368 . S
C1289 H1313 0.949 . S
H1290 C1294 0.949 . S
C1291 C1292 1.349 . S
C1291 C1293 1.327 1_655 S
C1291 H1314 0.950 . S
C1292 C1291 1.349 . S
C1292 C1304 1.349 . S
C1293 C1291 1.327 1_455 S
C1293 C1309 1.429 . S
C1293 H1315 0.950 . S
C1294 H1290 0.949 . S
C1294 C1302 1.574 . S
C1294 C1310 1.368 . S
H1295 C1303 0.950 . S
H1296 C1301 0.950 . S
H1297 C1302 0.949 . S
H1298 C1304 0.950 . S
H1299 C1305 0.950 . S
H1300 C1306 0.949 . S
C1301 H1296 0.950 . S
C1301 C1303 1.327 . S
C1301 C1307 1.429 . S
C1302 C1294 1.574 . S
C1302 H1297 0.949 . S
C1302 C1308 1.368 . S
C1303 C1287 1.349 . S
C1303 H1295 0.950 . S
C1303 C1301 1.327 . S
C1304 C1292 1.349 . S
C1304 H1298 0.950 . S
C1304 C1305 1.327 1_655 S
C1305 H1299 0.950 . S
C1305 C1304 1.327 1_455 S
C1305 C1309 1.429 . S
C1306 C1289 1.574 . S
C1306 H1300 0.949 . S
C1306 C1310 1.368 . S
C1307 C1288 1.429 . S
C1307 C1301 1.429 . S
C1307 C1308 1.523 . S
C1308 C1289 1.368 . S
C1308 C1302 1.368 . S
C1308 C1307 1.523 . S
C1309 C1293 1.429 . S
C1309 C1305 1.429 . S
C1309 C1310 1.523 . S
C1310 C1294 1.368 . S
C1310 C1306 1.368 . S
C1310 C1309 1.523 . S
H1311 C1286 0.950 . S
H1312 C1288 0.950 . S
H1313 C1289 0.949 . S
H1314 C1291 0.950 . S
H1315 C1293 0.950 . S
C1316 C1317 1.349 . S
C1316 C1318 1.327 . S
C1316 H1341 0.950 . S
C1317 C1316 1.349 . S
C1317 C1333 1.349 . S
C1318 C1316 1.327 . S
C1318 C1337 1.429 . S
C1318 H1342 0.950 . S
C1319 C1336 1.574 . S
C1319 C1338 1.368 . S
C1319 H1343 0.949 . S
H1320 C1324 0.949 . S
C1321 C1322 1.349 . S
C1321 C1323 1.327 . S
C1321 H1344 0.950 . S
C1322 C1321 1.349 . S
C1322 C1334 1.349 . S
C1323 C1321 1.327 . S
C1323 C1339 1.429 . S
C1323 H1345 0.950 . S
C1324 H1320 0.949 . S
C1324 C1332 1.574 . S
C1324 C1340 1.368 . S
H1325 C1333 0.950 . S
H1326 C1331 0.950 . S
H1327 C1332 0.949 . S
H1328 C1334 0.950 . S
H1329 C1335 0.950 . S
H1330 C1336 0.949 . S
C1331 H1326 0.950 . S
C1331 C1333 1.327 . S
C1331 C1337 1.429 . S
C1332 C1324 1.574 . S
C1332 H1327 0.949 . S
C1332 C1338 1.368 . S
C1333 C1317 1.349 . S
C1333 H1325 0.950 . S
C1333 C1331 1.327 . S
C1334 C1322 1.349 . S
C1334 H1328 0.950 . S
C1334 C1335 1.327 . S
C1335 H1329 0.950 . S
C1335 C1334 1.327 . S
C1335 C1339 1.429 . S
C1336 C1319 1.574 . S
C1336 H1330 0.949 . S
C1336 C1340 1.368 . S
C1337 C1318 1.429 . S
C1337 C1331 1.429 . S
C1337 C1338 1.523 . S
C1338 C1319 1.368 . S
C1338 C1332 1.368 . S
C1338 C1337 1.523 . S
C1339 C1323 1.429 . S
C1339 C1335 1.429 . S
C1339 C1340 1.523 . S
C1340 C1324 1.368 . S
C1340 C1336 1.368 . S
C1340 C1339 1.523 . S
H1341 C1316 0.950 . S
H1342 C1318 0.950 . S
H1343 C1319 0.949 . S
H1344 C1321 0.950 . S
H1345 C1323 0.950 . S
C1346 C1347 1.349 . S
C1346 C1348 1.327 1_655 S
C1346 H1371 0.950 . S
C1347 C1346 1.349 . S
C1347 C1363 1.349 . S
C1348 C1346 1.327 1_455 S
C1348 C1367 1.429 . S
C1348 H1372 0.950 . S
C1349 C1366 1.574 . S
C1349 C1368 1.368 . S
C1349 H1373 0.949 . S
H1350 C1354 0.949 . S
C1351 C1352 1.349 . S
C1351 C1353 1.327 . S
C1351 H1374 0.950 . S
C1352 C1351 1.349 . S
C1352 C1364 1.349 . S
C1353 C1351 1.327 . S
C1353 C1369 1.429 . S
C1353 H1375 0.950 . S
C1354 H1350 0.949 . S
C1354 C1362 1.574 . S
C1354 C1370 1.368 . S
H1355 C1363 0.950 . S
H1356 C1361 0.950 . S
H1357 C1362 0.949 . S
H1358 C1364 0.950 . S
H1359 C1365 0.950 . S
H1360 C1366 0.949 . S
C1361 H1356 0.950 . S
C1361 C1363 1.327 1_455 S
C1361 C1367 1.429 . S
C1362 C1354 1.574 . S
C1362 H1357 0.949 . S
C1362 C1368 1.368 . S
C1363 C1347 1.349 . S
C1363 H1355 0.950 . S
C1363 C1361 1.327 1_655 S
C1364 C1352 1.349 . S
C1364 H1358 0.950 . S
C1364 C1365 1.327 . S
C1365 H1359 0.950 . S
C1365 C1364 1.327 . S
C1365 C1369 1.429 . S
C1366 C1349 1.574 . S
C1366 H1360 0.949 . S
C1366 C1370 1.368 . S
C1367 C1348 1.429 . S
C1367 C1361 1.429 . S
C1367 C1368 1.523 . S
C1368 C1349 1.368 . S
C1368 C1362 1.368 . S
C1368 C1367 1.523 . S
C1369 C1353 1.429 . S
C1369 C1365 1.429 . S
C1369 C1370 1.523 . S
C1370 C1354 1.368 . S
C1370 C1366 1.368 . S
C1370 C1369 1.523 . S
H1371 C1346 0.950 . S
H1372 C1348 0.950 . S
H1373 C1349 0.949 . S
H1374 C1351 0.950 . S
H1375 C1353 0.950 . S
C1376 C1377 1.349 . S
C1376 C1378 1.327 . S
C1376 H1401 0.950 . S
C1377 C1376 1.349 . S
C1377 C1393 1.349 . S
C1378 C1376 1.327 . S
C1378 C1397 1.429 . S
C1378 H1402 0.950 . S
C1379 C1396 1.574 . S
C1379 C1398 1.368 1_455 S
C1379 H1403 0.949 . S
H1380 C1384 0.949 . S
C1381 C1382 1.349 . S
C1381 C1383 1.327 . S
C1381 H1404 0.950 . S
C1382 C1381 1.349 . S
C1382 C1394 1.349 . S
C1383 C1381 1.327 . S
C1383 C1399 1.429 . S
C1383 H1405 0.950 . S
C1384 H1380 0.949 . S
C1384 C1392 1.574 . S
C1384 C1400 1.368 1_655 S
H1385 C1393 0.950 . S
H1386 C1391 0.950 1_455 S
H1387 C1392 0.949 . S
H1388 C1394 0.950 . S
H1389 C1395 0.950 1_655 S
H1390 C1396 0.949 . S
C1391 H1386 0.950 1_655 S
C1391 C1393 1.327 . S
C1391 C1397 1.429 . S
C1392 C1384 1.574 . S
C1392 H1387 0.949 . S
C1392 C1398 1.368 . S
C1393 C1377 1.349 . S
C1393 H1385 0.950 . S
C1393 C1391 1.327 . S
C1394 C1382 1.349 . S
C1394 H1388 0.950 . S
C1394 C1395 1.327 . S
C1395 H1389 0.950 1_455 S
C1395 C1394 1.327 . S
C1395 C1399 1.429 . S
C1396 C1379 1.574 . S
C1396 H1390 0.949 . S
C1396 C1400 1.368 . S
C1397 C1378 1.429 . S
C1397 C1391 1.429 . S
C1397 C1398 1.523 . S
C1398 C1379 1.368 1_655 S
C1398 C1392 1.368 . S
C1398 C1397 1.523 . S
C1399 C1383 1.429 . S
C1399 C1395 1.429 . S
C1399 C1400 1.523 . S
C1400 C1384 1.368 1_455 S
C1400 C1396 1.368 . S
C1400 C1399 1.523 . S
H1401 C1376 0.950 . S
H1402 C1378 0.950 . S
H1403 C1379 0.949 . S
H1404 C1381 0.950 . S
H1405 C1383 0.950 . S
C1406 C1407 1.349 . S
C1406 C1408 1.327 . S
C1406 H1431 0.950 . S
C1407 C1406 1.349 . S
C1407 C1423 1.349 . S
C1408 C1406 1.327 . S
C1408 C1427 1.429 . S
C1408 H1432 0.950 . S
C1409 C1426 1.574 1_565 S
C1409 C1428 1.368 . S
C1409 H1433 0.949 . S
H1410 C1414 0.949 . S
C1411 C1412 1.349 . S
C1411 C1413 1.327 . S
C1411 H1434 0.950 . S
C1412 C1411 1.349 . S
C1412 C1424 1.349 . S
C1413 C1411 1.327 . S
C1413 C1429 1.429 . S
C1413 H1435 0.950 . S
C1414 H1410 0.949 . S
C1414 C1422 1.574 1_545 S
C1414 C1430 1.368 . S
H1415 C1423 0.950 . S
H1416 C1421 0.950 . S
H1417 C1422 0.949 . S
H1418 C1424 0.950 . S
H1419 C1425 0.950 . S
H1420 C1426 0.949 . S
C1421 H1416 0.950 . S
C1421 C1423 1.327 . S
C1421 C1427 1.429 . S
C1422 C1414 1.574 1_565 S
C1422 H1417 0.949 . S
C1422 C1428 1.368 . S
C1423 C1407 1.349 . S
C1423 H1415 0.950 . S
C1423 C1421 1.327 . S
C1424 C1412 1.349 . S
C1424 H1418 0.950 . S
C1424 C1425 1.327 . S
C1425 H1419 0.950 . S
C1425 C1424 1.327 . S
C1425 C1429 1.429 . S
C1426 C1409 1.574 1_545 S
C1426 H1420 0.949 . S
C1426 C1430 1.368 . S
C1427 C1408 1.429 . S
C1427 C1421 1.429 . S
C1427 C1428 1.523 . S
C1428 C1409 1.368 . S
C1428 C1422 1.368 . S
C1428 C1427 1.523 . S
C1429 C1413 1.429 . S
C1429 C1425 1.429 . S
C1429 C1430 1.523 . S
C1430 C1414 1.368 . S
C1430 C1426 1.368 . S
C1430 C1429 1.523 . S
H1431 C1406 0.950 . S
H1432 C1408 0.950 . S
H1433 C1409 0.949 . S
H1434 C1411 0.950 . S
H1435 C1413 0.950 . S
C1436 C1437 1.349 . S
C1436 C1438 1.327 . S
C1436 H1461 0.950 . S
C1437 C1436 1.349 . S
C1437 C1453 1.349 . S
C1438 C1436 1.327 . S
C1438 C1457 1.429 . S
C1438 H1462 0.950 . S
C1439 C1456 1.545 1_545 S
C1439 C1458 1.368 1_456 S
C1439 H1463 0.949 . S
H1440 C1444 0.949 . S
C1441 C1442 1.349 . S
C1441 C1443 1.327 . S
C1441 H1464 0.950 . S
C1442 C1441 1.349 . S
C1442 C1454 1.349 . S
C1443 C1441 1.327 . S
C1443 C1459 1.429 . S
C1443 H1465 0.950 . S
C1444 H1440 0.949 . S
C1444 C1452 1.545 1_565 S
C1444 C1460 1.368 1_654 S
H1445 C1453 0.950 . S
H1446 C1451 0.950 1_455 S
H1447 C1452 0.947 . S
H1448 C1454 0.950 . S
H1449 C1455 0.950 1_655 S
H1450 C1456 0.947 . S
C1451 H1446 0.950 1_655 S
C1451 C1453 1.327 . S
C1451 C1457 1.429 . S
C1452 C1444 1.545 1_545 S
C1452 H1447 0.947 . S
C1452 C1458 1.395 . S
C1453 C1437 1.349 . S
C1453 H1445 0.950 . S
C1453 C1451 1.327 . S
C1454 C1442 1.349 . S
C1454 H1448 0.950 . S
C1454 C1455 1.327 . S
C1455 H1449 0.950 1_455 S
C1455 C1454 1.327 . S
C1455 C1459 1.429 . S
C1456 C1439 1.545 1_565 S
C1456 H1450 0.947 . S
C1456 C1460 1.395 . S
C1457 C1438 1.429 . S
C1457 C1451 1.429 . S
C1457 C1458 1.523 . S
C1458 C1439 1.368 1_654 S
C1458 C1452 1.395 . S
C1458 C1457 1.523 . S
C1459 C1443 1.429 . S
C1459 C1455 1.429 . S
C1459 C1460 1.523 . S
C1460 C1444 1.368 1_456 S
C1460 C1456 1.395 . S
C1460 C1459 1.523 . S
H1461 C1436 0.950 . S
H1462 C1438 0.950 . S
H1463 C1439 0.949 . S
H1464 C1441 0.950 . S
H1465 C1443 0.950 . S
C1466 C1467 1.349 . S
C1466 C1468 1.327 . S
C1466 H1491 0.950 . S
C1467 C1466 1.349 . S
C1467 C1483 1.349 . S
C1468 C1466 1.327 . S
C1468 C1487 1.429 . S
C1468 H1492 0.950 . S
C1469 C1486 1.574 1_554 S
C1469 C1488 1.368 . S
C1469 H1493 0.949 . S
H1470 C1474 0.949 . S
C1471 C1472 1.349 . S
C1471 C1473 1.327 . S
C1471 H1494 0.950 . S
C1472 C1471 1.349 . S
C1472 C1484 1.349 . S
C1473 C1471 1.327 . S
C1473 C1489 1.429 . S
C1473 H1495 0.950 . S
C1474 H1470 0.949 . S
C1474 C1482 1.574 1_556 S
C1474 C1490 1.368 . S
H1475 C1483 0.950 . S
H1476 C1481 0.950 . S
H1477 C1482 0.949 . S
H1478 C1484 0.950 . S
H1479 C1485 0.950 . S
H1480 C1486 0.949 . S
C1481 H1476 0.950 . S
C1481 C1483 1.327 . S
C1481 C1487 1.429 . S
C1482 C1474 1.574 1_554 S
C1482 H1477 0.949 . S
C1482 C1488 1.368 . S
C1483 C1467 1.349 . S
C1483 H1475 0.950 . S
C1483 C1481 1.327 . S
C1484 C1472 1.349 . S
C1484 H1478 0.950 . S
C1484 C1485 1.327 . S
C1485 H1479 0.950 . S
C1485 C1484 1.327 . S
C1485 C1489 1.429 . S
C1486 C1469 1.574 1_556 S
C1486 H1480 0.949 . S
C1486 C1490 1.368 . S
C1487 C1468 1.429 . S
C1487 C1481 1.429 . S
C1487 C1488 1.523 . S
C1488 C1469 1.368 . S
C1488 C1482 1.368 . S
C1488 C1487 1.523 . S
C1489 C1473 1.429 . S
C1489 C1485 1.429 . S
C1489 C1490 1.523 . S
C1490 C1474 1.368 . S
C1490 C1486 1.368 . S
C1490 C1489 1.523 . S
H1491 C1466 0.950 . S
H1492 C1468 0.950 . S
H1493 C1469 0.949 . S
H1494 C1471 0.950 . S
H1495 C1473 0.950 . S
C1496 C1497 1.349 . S
C1496 C1498 1.327 . S
C1496 H1521 0.950 . S
C1497 C1496 1.349 . S
C1497 C1513 1.349 . S
C1498 C1496 1.327 . S
C1498 C1517 1.429 . S
C1498 H1522 0.950 . S
C1499 C1516 1.574 . S
C1499 C1518 1.368 1_455 S
C1499 H1523 0.949 . S
H1500 C1504 0.949 . S
C1501 C1502 1.349 . S
C1501 C1503 1.327 . S
C1501 H1524 0.950 . S
C1502 C1501 1.349 . S
C1502 C1514 1.349 . S
C1503 C1501 1.327 . S
C1503 C1519 1.429 . S
C1503 H1525 0.950 . S
C1504 H1500 0.949 . S
C1504 C1512 1.574 . S
C1504 C1520 1.368 1_655 S
H1505 C1513 0.950 . S
H1506 C1511 0.950 1_455 S
H1507 C1512 0.949 . S
H1508 C1514 0.950 . S
H1509 C1515 0.950 1_655 S
H1510 C1516 0.949 . S
C1511 H1506 0.950 1_655 S
C1511 C1513 1.327 . S
C1511 C1517 1.429 . S
C1512 C1504 1.574 . S
C1512 H1507 0.949 . S
C1512 C1518 1.368 . S
C1513 C1497 1.349 . S
C1513 H1505 0.950 . S
C1513 C1511 1.327 . S
C1514 C1502 1.349 . S
C1514 H1508 0.950 . S
C1514 C1515 1.327 . S
C1515 H1509 0.950 1_455 S
C1515 C1514 1.327 . S
C1515 C1519 1.429 . S
C1516 C1499 1.574 . S
C1516 H1510 0.949 . S
C1516 C1520 1.368 . S
C1517 C1498 1.429 . S
C1517 C1511 1.429 . S
C1517 C1518 1.523 . S
C1518 C1499 1.368 1_655 S
C1518 C1512 1.368 . S
C1518 C1517 1.523 . S
C1519 C1503 1.429 . S
C1519 C1515 1.429 . S
C1519 C1520 1.523 . S
C1520 C1504 1.368 1_455 S
C1520 C1516 1.368 . S
C1520 C1519 1.523 . S
H1521 C1496 0.950 . S
H1522 C1498 0.950 . S
H1523 C1499 0.949 . S
H1524 C1501 0.950 . S
H1525 C1503 0.950 . S
C1526 C1527 1.349 . S
C1526 C1528 1.327 . S
C1526 H1551 0.950 . S
C1527 C1526 1.349 . S
C1527 C1543 1.349 . S
C1528 C1526 1.327 . S
C1528 C1547 1.429 . S
C1528 H1552 0.950 . S
C1529 C1546 1.571 1_565 S
C1529 C1548 1.368 . S
C1529 H1553 0.949 . S
H1530 C1534 0.949 . S
C1531 C1532 1.349 . S
C1531 C1533 1.327 . S
C1531 H1554 0.950 . S
C1532 C1531 1.349 . S
C1532 C1544 1.349 . S
C1533 C1531 1.327 . S
C1533 C1549 1.429 . S
C1533 H1555 0.950 . S
C1534 H1530 0.949 . S
C1534 C1542 1.571 1_545 S
C1534 C1550 1.368 . S
H1535 C1543 0.950 . S
H1536 C1541 0.950 . S
H1537 C1542 0.948 . S
H1538 C1544 0.950 . S
H1539 C1545 0.950 . S
H1540 C1546 0.948 . S
C1541 H1536 0.950 . S
C1541 C1543 1.327 . S
C1541 C1547 1.429 . S
C1542 C1534 1.571 1_565 S
C1542 H1537 0.948 . S
C1542 C1548 1.371 . S
C1543 C1527 1.349 . S
C1543 H1535 0.950 . S
C1543 C1541 1.327 . S
C1544 C1532 1.349 . S
C1544 H1538 0.950 . S
C1544 C1545 1.327 . S
C1545 H1539 0.950 . S
C1545 C1544 1.327 . S
C1545 C1549 1.429 . S
C1546 C1529 1.571 1_545 S
C1546 H1540 0.948 . S
C1546 C1550 1.371 . S
C1547 C1528 1.429 . S
C1547 C1541 1.429 . S
C1547 C1548 1.523 . S
C1548 C1529 1.368 . S
C1548 C1542 1.371 . S
C1548 C1547 1.523 . S
C1549 C1533 1.429 . S
C1549 C1545 1.429 . S
C1549 C1550 1.523 . S
C1550 C1534 1.368 . S
C1550 C1546 1.371 . S
C1550 C1549 1.523 . S
H1551 C1526 0.950 . S
H1552 C1528 0.950 . S
H1553 C1529 0.949 . S
H1554 C1531 0.950 . S
H1555 C1533 0.950 . S
C1556 C1557 1.349 . S
C1556 C1558 1.327 . S
C1556 H1581 0.950 . S
C1557 C1556 1.349 . S
C1557 C1573 1.349 . S
C1558 C1556 1.327 . S
C1558 C1577 1.429 . S
C1558 H1582 0.950 . S
C1559 C1576 1.574 . S
C1559 C1578 1.368 1_554 S
C1559 H1583 0.949 . S
H1560 C1564 0.949 . S
C1561 C1562 1.349 . S
C1561 C1563 1.327 . S
C1561 H1584 0.950 . S
C1562 C1561 1.349 . S
C1562 C1574 1.349 . S
C1563 C1561 1.327 . S
C1563 C1579 1.429 . S
C1563 H1585 0.950 . S
C1564 H1560 0.949 . S
C1564 C1572 1.574 . S
C1564 C1580 1.368 1_556 S
H1565 C1573 0.950 . S
H1566 C1571 0.950 1_554 S
H1567 C1572 0.949 . S
H1568 C1574 0.950 . S
H1569 C1575 0.950 1_556 S
H1570 C1576 0.949 . S
C1571 H1566 0.950 1_556 S
C1571 C1573 1.327 . S
C1571 C1577 1.429 . S
C1572 C1564 1.574 . S
C1572 H1567 0.949 . S
C1572 C1578 1.368 . S
C1573 C1557 1.349 . S
C1573 H1565 0.950 . S
C1573 C1571 1.327 . S
C1574 C1562 1.349 . S
C1574 H1568 0.950 . S
C1574 C1575 1.327 . S
C1575 H1569 0.950 1_554 S
C1575 C1574 1.327 . S
C1575 C1579 1.429 . S
C1576 C1559 1.574 . S
C1576 H1570 0.949 . S
C1576 C1580 1.368 . S
C1577 C1558 1.429 . S
C1577 C1571 1.429 . S
C1577 C1578 1.523 . S
C1578 C1559 1.368 1_556 S
C1578 C1572 1.368 . S
C1578 C1577 1.523 . S
C1579 C1563 1.429 . S
C1579 C1575 1.429 . S
C1579 C1580 1.523 . S
C1580 C1564 1.368 1_554 S
C1580 C1576 1.368 . S
C1580 C1579 1.523 . S
H1581 C1556 0.950 . S
H1582 C1558 0.950 . S
H1583 C1559 0.949 . S
H1584 C1561 0.950 . S
H1585 C1563 0.950 . S
C1586 C1587 1.349 . S
C1586 C1588 1.327 . S
C1586 H1611 0.950 . S
C1587 C1586 1.349 . S
C1587 C1603 1.349 . S
C1588 C1586 1.327 . S
C1588 C1607 1.429 . S
C1588 H1612 0.950 . S
C1589 C1606 1.574 . S
C1589 C1608 1.368 . S
C1589 H1613 0.949 . S
H1590 C1594 0.949 . S
C1591 C1592 1.349 . S
C1591 C1593 1.327 . S
C1591 H1614 0.950 . S
C1592 C1591 1.349 . S
C1592 C1604 1.349 . S
C1593 C1591 1.327 . S
C1593 C1609 1.429 . S
C1593 H1615 0.950 . S
C1594 H1590 0.949 . S
C1594 C1602 1.574 . S
C1594 C1610 1.368 . S
H1595 C1603 0.950 . S
H1596 C1601 0.950 . S
H1597 C1602 0.949 . S
H1598 C1604 0.950 . S
H1599 C1605 0.950 . S
H1600 C1606 0.949 . S
C1601 H1596 0.950 . S
C1601 C1603 1.327 . S
C1601 C1607 1.429 . S
C1602 C1594 1.574 . S
C1602 H1597 0.949 . S
C1602 C1608 1.368 . S
C1603 C1587 1.349 . S
C1603 H1595 0.950 . S
C1603 C1601 1.327 . S
C1604 C1592 1.349 . S
C1604 H1598 0.950 . S
C1604 C1605 1.327 . S
C1605 H1599 0.950 . S
C1605 C1604 1.327 . S
C1605 C1609 1.429 . S
C1606 C1589 1.574 . S
C1606 H1600 0.949 . S
C1606 C1610 1.368 . S
C1607 C1588 1.429 . S
C1607 C1601 1.429 . S
C1607 C1608 1.523 . S
C1608 C1589 1.368 . S
C1608 C1602 1.368 . S
C1608 C1607 1.523 . S
C1609 C1593 1.429 . S
C1609 C1605 1.429 . S
C1609 C1610 1.523 . S
C1610 C1594 1.368 . S
C1610 C1606 1.368 . S
C1610 C1609 1.523 . S
H1611 C1586 0.950 . S
H1612 C1588 0.950 . S
H1613 C1589 0.949 . S
H1614 C1591 0.950 . S
H1615 C1593 0.950 . S
C1616 C1617 1.349 . S
C1616 C1618 1.327 . S
C1616 H1641 0.950 . S
C1617 C1616 1.349 . S
C1617 C1633 1.349 . S
C1618 C1616 1.327 . S
C1618 C1637 1.429 . S
C1618 H1642 0.950 . S
C1619 C1636 1.574 . S
C1619 C1638 1.368 1_655 S
C1619 H1643 0.949 . S
H1620 C1624 0.949 . S
C1621 C1622 1.349 . S
C1621 C1623 1.327 . S
C1621 H1644 0.950 . S
C1622 C1621 1.349 . S
C1622 C1634 1.349 . S
C1623 C1621 1.327 . S
C1623 C1639 1.429 . S
C1623 H1645 0.950 . S
C1624 H1620 0.949 . S
C1624 C1632 1.574 . S
C1624 C1640 1.368 1_455 S
H1625 C1633 0.950 . S
H1626 C1631 0.950 . S
H1627 C1632 0.949 . S
H1628 C1634 0.950 . S
H1629 C1635 0.950 . S
H1630 C1636 0.949 . S
C1631 H1626 0.950 . S
C1631 C1633 1.327 . S
C1631 C1637 1.429 . S
C1632 C1624 1.574 . S
C1632 H1627 0.949 . S
C1632 C1638 1.368 . S
C1633 C1617 1.349 . S
C1633 H1625 0.950 . S
C1633 C1631 1.327 . S
C1634 C1622 1.349 . S
C1634 H1628 0.950 . S
C1634 C1635 1.327 . S
C1635 H1629 0.950 . S
C1635 C1634 1.327 . S
C1635 C1639 1.429 . S
C1636 C1619 1.574 . S
C1636 H1630 0.949 . S
C1636 C1640 1.368 . S
C1637 C1618 1.429 . S
C1637 C1631 1.429 . S
C1637 C1638 1.523 . S
C1638 C1619 1.368 1_455 S
C1638 C1632 1.368 . S
C1638 C1637 1.523 . S
C1639 C1623 1.429 . S
C1639 C1635 1.429 . S
C1639 C1640 1.523 . S
C1640 C1624 1.368 1_655 S
C1640 C1636 1.368 . S
C1640 C1639 1.523 . S
H1641 C1616 0.950 . S
H1642 C1618 0.950 . S
H1643 C1619 0.949 . S
H1644 C1621 0.950 . S
H1645 C1623 0.950 . S
C1646 C1647 1.349 . S
C1646 C1648 1.327 . S
C1646 H1671 0.950 . S
C1647 C1646 1.349 . S
C1647 C1663 1.349 . S
C1648 C1646 1.327 . S
C1648 C1667 1.429 . S
C1648 H1672 0.950 . S
C1649 C1666 1.574 . S
C1649 C1668 1.368 . S
C1649 H1673 0.949 . S
H1650 C1654 0.949 . S
C1651 C1652 1.349 . S
C1651 C1653 1.327 . S
C1651 H1674 0.950 . S
C1652 C1651 1.349 . S
C1652 C1664 1.349 . S
C1653 C1651 1.327 . S
C1653 C1669 1.429 . S
C1653 H1675 0.950 . S
C1654 H1650 0.949 . S
C1654 C1662 1.574 . S
C1654 C1670 1.368 . S
H1655 C1663 0.950 . S
H1656 C1661 0.950 . S
H1657 C1662 0.949 . S
H1658 C1664 0.950 . S
H1659 C1665 0.950 . S
H1660 C1666 0.949 . S
C1661 H1656 0.950 . S
C1661 C1663 1.327 . S
C1661 C1667 1.429 . S
C1662 C1654 1.574 . S
C1662 H1657 0.949 . S
C1662 C1668 1.368 . S
C1663 C1647 1.349 . S
C1663 H1655 0.950 . S
C1663 C1661 1.327 . S
C1664 C1652 1.349 . S
C1664 H1658 0.950 . S
C1664 C1665 1.327 . S
C1665 H1659 0.950 . S
C1665 C1664 1.327 . S
C1665 C1669 1.429 . S
C1666 C1649 1.574 . S
C1666 H1660 0.949 . S
C1666 C1670 1.368 . S
C1667 C1648 1.429 . S
C1667 C1661 1.429 . S
C1667 C1668 1.523 . S
C1668 C1649 1.368 . S
C1668 C1662 1.368 . S
C1668 C1667 1.523 . S
C1669 C1653 1.429 . S
C1669 C1665 1.429 . S
C1669 C1670 1.523 . S
C1670 C1654 1.368 . S
C1670 C1666 1.368 . S
C1670 C1669 1.523 . S
H1671 C1646 0.950 . S
H1672 C1648 0.950 . S
H1673 C1649 0.949 . S
H1674 C1651 0.950 . S
H1675 C1653 0.950 . S
C1676 C1677 1.349 . S
C1676 C1678 1.327 . S
C1676 H1701 0.950 . S
C1677 C1676 1.349 . S
C1677 C1693 1.349 . S
C1678 C1676 1.327 . S
C1678 C1697 1.429 . S
C1678 H1702 0.950 . S
C1679 C1696 1.574 . S
C1679 C1698 1.368 . S
C1679 H1703 0.949 . S
H1680 C1684 0.949 . S
C1681 C1682 1.349 . S
C1681 C1683 1.327 . S
C1681 H1704 0.950 . S
C1682 C1681 1.349 . S
C1682 C1694 1.349 . S
C1683 C1681 1.327 . S
C1683 C1699 1.429 . S
C1683 H1705 0.950 . S
C1684 H1680 0.949 . S
C1684 C1692 1.574 . S
C1684 C1700 1.368 . S
H1685 C1693 0.950 . S
H1686 C1691 0.950 . S
H1687 C1692 0.949 . S
H1688 C1694 0.950 . S
H1689 C1695 0.950 . S
H1690 C1696 0.949 . S
C1691 H1686 0.950 . S
C1691 C1693 1.327 . S
C1691 C1697 1.429 . S
C1692 C1684 1.574 . S
C1692 H1687 0.949 . S
C1692 C1698 1.368 . S
C1693 C1677 1.349 . S
C1693 H1685 0.950 . S
C1693 C1691 1.327 . S
C1694 C1682 1.349 . S
C1694 H1688 0.950 . S
C1694 C1695 1.327 . S
C1695 H1689 0.950 . S
C1695 C1694 1.327 . S
C1695 C1699 1.429 . S
C1696 C1679 1.574 . S
C1696 H1690 0.949 . S
C1696 C1700 1.368 . S
C1697 C1678 1.429 . S
C1697 C1691 1.429 . S
C1697 C1698 1.523 . S
C1698 C1679 1.368 . S
C1698 C1692 1.368 . S
C1698 C1697 1.523 . S
C1699 C1683 1.429 . S
C1699 C1695 1.429 . S
C1699 C1700 1.523 . S
C1700 C1684 1.368 . S
C1700 C1696 1.368 . S
C1700 C1699 1.523 . S
H1701 C1676 0.950 . S
H1702 C1678 0.950 . S
H1703 C1679 0.949 . S
H1704 C1681 0.950 . S
H1705 C1683 0.950 . S
C1706 C1707 1.349 . S
C1706 C1708 1.327 . S
C1706 H1731 0.950 . S
C1707 C1706 1.349 . S
C1707 C1723 1.349 . S
C1708 C1706 1.327 . S
C1708 C1727 1.429 . S
C1708 H1732 0.950 . S
C1709 C1726 1.574 . S
C1709 C1728 1.368 . S
C1709 H1733 0.949 . S
H1710 C1714 0.949 . S
C1711 C1712 1.349 . S
C1711 C1713 1.327 . S
C1711 H1734 0.950 . S
C1712 C1711 1.349 . S
C1712 C1724 1.349 . S
C1713 C1711 1.327 . S
C1713 C1729 1.429 . S
C1713 H1735 0.950 . S
C1714 H1710 0.949 . S
C1714 C1722 1.574 . S
C1714 C1730 1.368 . S
H1715 C1723 0.950 . S
H1716 C1721 0.950 . S
H1717 C1722 0.949 . S
H1718 C1724 0.950 . S
H1719 C1725 0.950 . S
H1720 C1726 0.949 . S
C1721 H1716 0.950 . S
C1721 C1723 1.327 . S
C1721 C1727 1.429 . S
C1722 C1714 1.574 . S
C1722 H1717 0.949 . S
C1722 C1728 1.368 . S
C1723 C1707 1.349 . S
C1723 H1715 0.950 . S
C1723 C1721 1.327 . S
C1724 C1712 1.349 . S
C1724 H1718 0.950 . S
C1724 C1725 1.327 . S
C1725 H1719 0.950 . S
C1725 C1724 1.327 . S
C1725 C1729 1.429 . S
C1726 C1709 1.574 . S
C1726 H1720 0.949 . S
C1726 C1730 1.368 . S
C1727 C1708 1.429 . S
C1727 C1721 1.429 . S
C1727 C1728 1.523 . S
C1728 C1709 1.368 . S
C1728 C1722 1.368 . S
C1728 C1727 1.523 . S
C1729 C1713 1.429 . S
C1729 C1725 1.429 . S
C1729 C1730 1.523 . S
C1730 C1714 1.368 . S
C1730 C1726 1.368 . S
C1730 C1729 1.523 . S
H1731 C1706 0.950 . S
H1732 C1708 0.950 . S
H1733 C1709 0.949 . S
H1734 C1711 0.950 . S
H1735 C1713 0.950 . S
C1736 C1737 1.349 . S
C1736 C1738 1.327 . S
C1736 H1761 0.950 . S
C1737 C1736 1.349 . S
C1737 C1753 1.349 . S
C1738 C1736 1.327 . S
C1738 C1757 1.429 . S
C1738 H1762 0.950 . S
C1739 C1756 1.574 . S
C1739 C1758 1.368 . S
C1739 H1763 0.949 . S
H1740 C1744 0.949 . S
C1741 C1742 1.349 . S
C1741 C1743 1.327 . S
C1741 H1764 0.950 . S
C1742 C1741 1.349 . S
C1742 C1754 1.349 . S
C1743 C1741 1.327 . S
C1743 C1759 1.429 . S
C1743 H1765 0.950 . S
C1744 H1740 0.949 . S
C1744 C1752 1.574 . S
C1744 C1760 1.368 . S
H1745 C1753 0.950 . S
H1746 C1751 0.950 . S
H1747 C1752 0.949 . S
H1748 C1754 0.950 . S
H1749 C1755 0.950 . S
H1750 C1756 0.949 . S
C1751 H1746 0.950 . S
C1751 C1753 1.327 . S
C1751 C1757 1.429 . S
C1752 C1744 1.574 . S
C1752 H1747 0.949 . S
C1752 C1758 1.368 . S
C1753 C1737 1.349 . S
C1753 H1745 0.950 . S
C1753 C1751 1.327 . S
C1754 C1742 1.349 . S
C1754 H1748 0.950 . S
C1754 C1755 1.327 . S
C1755 H1749 0.950 . S
C1755 C1754 1.327 . S
C1755 C1759 1.429 . S
C1756 C1739 1.574 . S
C1756 H1750 0.949 . S
C1756 C1760 1.368 . S
C1757 C1738 1.429 . S
C1757 C1751 1.429 . S
C1757 C1758 1.523 . S
C1758 C1739 1.368 . S
C1758 C1752 1.368 . S
C1758 C1757 1.523 . S
C1759 C1743 1.429 . S
C1759 C1755 1.429 . S
C1759 C1760 1.523 . S
C1760 C1744 1.368 . S
C1760 C1756 1.368 . S
C1760 C1759 1.523 . S
H1761 C1736 0.950 . S
H1762 C1738 0.950 . S
H1763 C1739 0.949 . S
H1764 C1741 0.950 . S
H1765 C1743 0.950 . S
C1766 C1767 1.349 . S
C1766 C1768 1.327 . S
C1766 H1791 0.950 . S
C1767 C1766 1.349 . S
C1767 C1783 1.349 . S
C1768 C1766 1.327 . S
C1768 C1787 1.429 . S
C1768 H1792 0.950 . S
C1769 C1786 1.526 1_545 S
C1769 C1788 1.368 . S
C1769 H1793 0.949 . S
H1770 C1774 0.949 . S
C1771 C1772 1.349 . S
C1771 C1773 1.327 . S
C1771 H1794 0.950 . S
C1772 C1771 1.349 . S
C1772 C1784 1.349 . S
C1773 C1771 1.327 . S
C1773 C1789 1.429 . S
C1773 H1795 0.950 . S
C1774 H1770 0.949 . S
C1774 C1782 1.526 1_565 S
C1774 C1790 1.368 . S
H1775 C1783 0.950 . S
H1776 C1781 0.950 . S
H1777 C1782 0.955 . S
H1778 C1784 0.950 . S
H1779 C1785 0.950 . S
H1780 C1786 0.955 . S
C1781 H1776 0.950 . S
C1781 C1783 1.327 . S
C1781 C1787 1.429 . S
C1782 C1774 1.526 1_545 S
C1782 H1777 0.955 . S
C1782 C1788 1.412 . S
C1783 C1767 1.349 . S
C1783 H1775 0.950 . S
C1783 C1781 1.327 . S
C1784 C1772 1.349 . S
C1784 H1778 0.950 . S
C1784 C1785 1.327 . S
C1785 H1779 0.950 . S
C1785 C1784 1.327 . S
C1785 C1789 1.429 . S
C1786 C1769 1.526 1_565 S
C1786 H1780 0.955 . S
C1786 C1790 1.412 . S
C1787 C1768 1.429 . S
C1787 C1781 1.429 . S
C1787 C1788 1.523 . S
C1788 C1769 1.368 . S
C1788 C1782 1.412 . S
C1788 C1787 1.523 . S
C1789 C1773 1.429 . S
C1789 C1785 1.429 . S
C1789 C1790 1.523 . S
C1790 C1774 1.368 . S
C1790 C1786 1.412 . S
C1790 C1789 1.523 . S
H1791 C1766 0.950 . S
H1792 C1768 0.950 . S
H1793 C1769 0.949 . S
H1794 C1771 0.950 . S
H1795 C1773 0.950 . S
C1796 C1797 1.349 . S
C1796 C1798 1.327 . S
C1796 H1821 0.950 . S
C1797 C1796 1.349 . S
C1797 C1813 1.349 . S
C1798 C1796 1.327 . S
C1798 C1817 1.429 . S
C1798 H1822 0.950 . S
C1799 C1816 1.574 . S
C1799 C1818 1.368 . S
C1799 H1823 0.949 . S
H1800 C1804 0.949 . S
C1801 C1802 1.349 . S
C1801 C1803 1.327 . S
C1801 H1824 0.950 . S
C1802 C1801 1.349 . S
C1802 C1814 1.349 . S
C1803 C1801 1.327 . S
C1803 C1819 1.429 . S
C1803 H1825 0.950 . S
C1804 H1800 0.949 . S
C1804 C1812 1.574 . S
C1804 C1820 1.368 . S
H1805 C1813 0.950 . S
H1806 C1811 0.950 . S
H1807 C1812 0.949 . S
H1808 C1814 0.950 . S
H1809 C1815 0.950 . S
H1810 C1816 0.949 . S
C1811 H1806 0.950 . S
C1811 C1813 1.327 . S
C1811 C1817 1.429 . S
C1812 C1804 1.574 . S
C1812 H1807 0.949 . S
C1812 C1818 1.368 . S
C1813 C1797 1.349 . S
C1813 H1805 0.950 . S
C1813 C1811 1.327 . S
C1814 C1802 1.349 . S
C1814 H1808 0.950 . S
C1814 C1815 1.327 . S
C1815 H1809 0.950 . S
C1815 C1814 1.327 . S
C1815 C1819 1.429 . S
C1816 C1799 1.574 . S
C1816 H1810 0.949 . S
C1816 C1820 1.368 . S
C1817 C1798 1.429 . S
C1817 C1811 1.429 . S
C1817 C1818 1.523 . S
C1818 C1799 1.368 . S
C1818 C1812 1.368 . S
C1818 C1817 1.523 . S
C1819 C1803 1.429 . S
C1819 C1815 1.429 . S
C1819 C1820 1.523 . S
C1820 C1804 1.368 . S
C1820 C1816 1.368 . S
C1820 C1819 1.523 . S
H1821 C1796 0.950 . S
H1822 C1798 0.950 . S
H1823 C1799 0.949 . S
H1824 C1801 0.950 . S
H1825 C1803 0.950 . S
C1826 C1827 1.349 . S
C1826 C1828 1.327 . S
C1826 H1851 0.950 . S
C1827 C1826 1.349 . S
C1827 C1843 1.349 . S
C1828 C1826 1.327 . S
C1828 C1847 1.429 . S
C1828 H1852 0.950 1_556 S
C1829 C1846 1.574 . S
C1829 C1848 1.368 . S
C1829 H1853 0.949 . S
H1830 C1834 0.949 . S
C1831 C1832 1.349 . S
C1831 C1833 1.327 . S
C1831 H1854 0.950 . S
C1832 C1831 1.349 . S
C1832 C1844 1.349 . S
C1833 C1831 1.327 . S
C1833 C1849 1.429 . S
C1833 H1855 0.950 1_554 S
C1834 H1830 0.949 . S
C1834 C1842 1.574 . S
C1834 C1850 1.368 . S
H1835 C1843 0.950 . S
H1836 C1841 0.950 . S
H1837 C1842 0.949 . S
H1838 C1844 0.950 . S
H1839 C1845 0.950 . S
H1840 C1846 0.949 . S
C1841 H1836 0.950 . S
C1841 C1843 1.327 . S
C1841 C1847 1.429 . S
C1842 C1834 1.574 . S
C1842 H1837 0.949 . S
C1842 C1848 1.368 1_554 S
C1843 C1827 1.349 . S
C1843 H1835 0.950 . S
C1843 C1841 1.327 . S
C1844 C1832 1.349 . S
C1844 H1838 0.950 . S
C1844 C1845 1.327 . S
C1845 H1839 0.950 . S
C1845 C1844 1.327 . S
C1845 C1849 1.429 . S
C1846 C1829 1.574 . S
C1846 H1840 0.949 . S
C1846 C1850 1.368 1_556 S
C1847 C1828 1.429 . S
C1847 C1841 1.429 . S
C1847 C1848 1.523 . S
C1848 C1829 1.368 . S
C1848 C1842 1.368 1_556 S
C1848 C1847 1.523 . S
C1849 C1833 1.429 . S
C1849 C1845 1.429 . S
C1849 C1850 1.523 . S
C1850 C1834 1.368 . S
C1850 C1846 1.368 1_554 S
C1850 C1849 1.523 . S
H1851 C1826 0.950 . S
H1852 C1828 0.950 1_554 S
H1853 C1829 0.949 . S
H1854 C1831 0.950 . S
H1855 C1833 0.950 1_556 S
C1856 C1857 1.349 . S
C1856 C1858 1.327 . S
C1856 H1881 0.950 . S
C1857 C1856 1.349 . S
C1857 C1873 1.349 . S
C1858 C1856 1.327 . S
C1858 C1877 1.429 . S
C1858 H1882 0.950 . S
C1859 C1876 1.574 . S
C1859 C1878 1.368 . S
C1859 H1883 0.949 . S
H1860 C1864 0.949 . S
C1861 C1862 1.349 . S
C1861 C1863 1.327 . S
C1861 H1884 0.950 . S
C1862 C1861 1.349 . S
C1862 C1874 1.349 . S
C1863 C1861 1.327 . S
C1863 C1879 1.429 . S
C1863 H1885 0.950 . S
C1864 H1860 0.949 . S
C1864 C1872 1.574 . S
C1864 C1880 1.368 . S
H1865 C1873 0.950 . S
H1866 C1871 0.950 . S
H1867 C1872 0.949 . S
H1868 C1874 0.950 . S
H1869 C1875 0.950 . S
H1870 C1876 0.949 . S
C1871 H1866 0.950 . S
C1871 C1873 1.327 . S
C1871 C1877 1.429 . S
C1872 C1864 1.574 . S
C1872 H1867 0.949 . S
C1872 C1878 1.368 . S
C1873 C1857 1.349 . S
C1873 H1865 0.950 . S
C1873 C1871 1.327 . S
C1874 C1862 1.349 . S
C1874 H1868 0.950 . S
C1874 C1875 1.327 . S
C1875 H1869 0.950 . S
C1875 C1874 1.327 . S
C1875 C1879 1.429 . S
C1876 C1859 1.574 . S
C1876 H1870 0.949 . S
C1876 C1880 1.368 . S
C1877 C1858 1.429 . S
C1877 C1871 1.429 . S
C1877 C1878 1.523 . S
C1878 C1859 1.368 . S
C1878 C1872 1.368 . S
C1878 C1877 1.523 . S
C1879 C1863 1.429 . S
C1879 C1875 1.429 . S
C1879 C1880 1.523 . S
C1880 C1864 1.368 . S
C1880 C1876 1.368 . S
C1880 C1879 1.523 . S
H1881 C1856 0.950 . S
H1882 C1858 0.950 . S
H1883 C1859 0.949 . S
H1884 C1861 0.950 . S
H1885 C1863 0.950 . S
C1886 C1887 1.349 . S
C1886 C1888 1.327 . S
C1886 H1911 0.950 . S
C1887 C1886 1.349 . S
C1887 C1903 1.349 . S
C1888 C1886 1.327 . S
C1888 C1907 1.429 . S
C1888 H1912 0.950 . S
C1889 C1906 1.574 . S
C1889 C1908 1.368 . S
C1889 H1913 0.949 . S
H1890 C1894 0.949 . S
C1891 C1892 1.349 . S
C1891 C1893 1.327 . S
C1891 H1914 0.950 . S
C1892 C1891 1.349 . S
C1892 C1904 1.349 . S
C1893 C1891 1.327 . S
C1893 C1909 1.429 . S
C1893 H1915 0.950 . S
C1894 H1890 0.949 . S
C1894 C1902 1.574 . S
C1894 C1910 1.368 . S
H1895 C1903 0.950 . S
H1896 C1901 0.950 . S
H1897 C1902 0.949 . S
H1898 C1904 0.950 . S
H1899 C1905 0.950 . S
H1900 C1906 0.949 . S
C1901 H1896 0.950 . S
C1901 C1903 1.327 . S
C1901 C1907 1.429 . S
C1902 C1894 1.574 . S
C1902 H1897 0.949 . S
C1902 C1908 1.368 . S
C1903 C1887 1.349 . S
C1903 H1895 0.950 . S
C1903 C1901 1.327 . S
C1904 C1892 1.349 . S
C1904 H1898 0.950 . S
C1904 C1905 1.327 . S
C1905 H1899 0.950 . S
C1905 C1904 1.327 . S
C1905 C1909 1.429 . S
C1906 C1889 1.574 . S
C1906 H1900 0.949 . S
C1906 C1910 1.368 . S
C1907 C1888 1.429 . S
C1907 C1901 1.429 . S
C1907 C1908 1.523 . S
C1908 C1889 1.368 . S
C1908 C1902 1.368 . S
C1908 C1907 1.523 . S
C1909 C1893 1.429 . S
C1909 C1905 1.429 . S
C1909 C1910 1.523 . S
C1910 C1894 1.368 . S
C1910 C1906 1.368 . S
C1910 C1909 1.523 . S
H1911 C1886 0.950 . S
H1912 C1888 0.950 . S
H1913 C1889 0.949 . S
H1914 C1891 0.950 . S
H1915 C1893 0.950 . S
C1916 C1917 1.349 . S
C1916 C1918 1.327 . S
C1916 H1941 0.950 . S
C1917 C1916 1.349 . S
C1917 C1933 1.349 . S
C1918 C1916 1.327 . S
C1918 C1937 1.429 . S
C1918 H1942 0.950 . S
C1919 C1936 1.574 . S
C1919 C1938 1.368 . S
C1919 H1943 0.949 . S
H1920 C1924 0.949 . S
C1921 C1922 1.349 . S
C1921 C1923 1.327 . S
C1921 H1944 0.950 . S
C1922 C1921 1.349 . S
C1922 C1934 1.349 . S
C1923 C1921 1.327 . S
C1923 C1939 1.429 . S
C1923 H1945 0.950 . S
C1924 H1920 0.949 . S
C1924 C1932 1.574 . S
C1924 C1940 1.368 . S
H1925 C1933 0.950 . S
H1926 C1931 0.950 . S
H1927 C1932 0.949 . S
H1928 C1934 0.950 . S
H1929 C1935 0.950 . S
H1930 C1936 0.949 . S
C1931 H1926 0.950 . S
C1931 C1933 1.327 . S
C1931 C1937 1.429 . S
C1932 C1924 1.574 . S
C1932 H1927 0.949 . S
C1932 C1938 1.368 . S
C1933 C1917 1.349 . S
C1933 H1925 0.950 . S
C1933 C1931 1.327 . S
C1934 C1922 1.349 . S
C1934 H1928 0.950 . S
C1934 C1935 1.327 . S
C1935 H1929 0.950 . S
C1935 C1934 1.327 . S
C1935 C1939 1.429 . S
C1936 C1919 1.574 . S
C1936 H1930 0.949 . S
C1936 C1940 1.368 . S
C1937 C1918 1.429 . S
C1937 C1931 1.429 . S
C1937 C1938 1.523 . S
C1938 C1919 1.368 . S
C1938 C1932 1.368 . S
C1938 C1937 1.523 . S
C1939 C1923 1.429 . S
C1939 C1935 1.429 . S
C1939 C1940 1.523 . S
C1940 C1924 1.368 . S
C1940 C1936 1.368 . S
C1940 C1939 1.523 . S
H1941 C1916 0.950 . S
H1942 C1918 0.950 . S
H1943 C1919 0.949 . S
H1944 C1921 0.950 . S
H1945 C1923 0.950 . S
C1946 C1947 1.349 . S
C1946 C1948 1.327 . S
C1946 H1971 0.950 . S
C1947 C1946 1.349 . S
C1947 C1963 1.349 . S
C1948 C1946 1.327 . S
C1948 C1967 1.429 . S
C1948 H1972 0.950 . S
C1949 C1966 1.574 . S
C1949 C1968 1.368 . S
C1949 H1973 0.949 . S
H1950 C1954 0.949 . S
C1951 C1952 1.349 . S
C1951 C1953 1.327 . S
C1951 H1974 0.950 . S
C1952 C1951 1.349 . S
C1952 C1964 1.349 . S
C1953 C1951 1.327 . S
C1953 C1969 1.429 . S
C1953 H1975 0.950 . S
C1954 H1950 0.949 . S
C1954 C1962 1.574 . S
C1954 C1970 1.368 . S
H1955 C1963 0.950 . S
H1956 C1961 0.950 . S
H1957 C1962 0.949 . S
H1958 C1964 0.950 . S
H1959 C1965 0.950 . S
H1960 C1966 0.949 . S
C1961 H1956 0.950 . S
C1961 C1963 1.327 . S
C1961 C1967 1.429 . S
C1962 C1954 1.574 . S
C1962 H1957 0.949 . S
C1962 C1968 1.368 . S
C1963 C1947 1.349 . S
C1963 H1955 0.950 . S
C1963 C1961 1.327 . S
C1964 C1952 1.349 . S
C1964 H1958 0.950 . S
C1964 C1965 1.327 . S
C1965 H1959 0.950 . S
C1965 C1964 1.327 . S
C1965 C1969 1.429 . S
C1966 C1949 1.574 . S
C1966 H1960 0.949 . S
C1966 C1970 1.368 . S
C1967 C1948 1.429 . S
C1967 C1961 1.429 . S
C1967 C1968 1.523 . S
C1968 C1949 1.368 . S
C1968 C1962 1.368 . S
C1968 C1967 1.523 . S
C1969 C1953 1.429 . S
C1969 C1965 1.429 . S
C1969 C1970 1.523 . S
C1970 C1954 1.368 . S
C1970 C1966 1.368 . S
C1970 C1969 1.523 . S
H1971 C1946 0.950 . S
H1972 C1948 0.950 . S
H1973 C1949 0.949 . S
H1974 C1951 0.950 . S
H1975 C1953 0.950 . S
C1976 C1977 1.349 . S
C1976 C1978 1.327 . S
C1976 H2001 0.950 . S
C1977 C1976 1.349 . S
C1977 C1993 1.349 . S
C1978 C1976 1.327 . S
C1978 C1997 1.429 . S
C1978 H2002 0.950 . S
C1979 C1996 1.574 . S
C1979 C1998 1.368 . S
C1979 H2003 0.949 . S
H1980 C1984 0.949 . S
C1981 C1982 1.349 . S
C1981 C1983 1.327 . S
C1981 H2004 0.950 . S
C1982 C1981 1.349 . S
C1982 C1994 1.349 . S
C1983 C1981 1.327 . S
C1983 C1999 1.429 . S
C1983 H2005 0.950 . S
C1984 H1980 0.949 . S
C1984 C1992 1.574 . S
C1984 C2000 1.368 . S
H1985 C1993 0.950 . S
H1986 C1991 0.950 . S
H1987 C1992 0.949 . S
H1988 C1994 0.950 . S
H1989 C1995 0.950 . S
H1990 C1996 0.949 . S
C1991 H1986 0.950 . S
C1991 C1993 1.327 . S
C1991 C1997 1.429 . S
C1992 C1984 1.574 . S
C1992 H1987 0.949 . S
C1992 C1998 1.368 . S
C1993 C1977 1.349 . S
C1993 H1985 0.950 . S
C1993 C1991 1.327 . S
C1994 C1982 1.349 . S
C1994 H1988 0.950 . S
C1994 C1995 1.327 . S
C1995 H1989 0.950 . S
C1995 C1994 1.327 . S
C1995 C1999 1.429 . S
C1996 C1979 1.574 . S
C1996 H1990 0.949 . S
C1996 C2000 1.368 . S
C1997 C1978 1.429 . S
C1997 C1991 1.429 . S
C1997 C1998 1.523 . S
C1998 C1979 1.368 . S
C1998 C1992 1.368 . S
C1998 C1997 1.523 . S
C1999 C1983 1.429 . S
C1999 C1995 1.429 . S
C1999 C2000 1.523 . S
C2000 C1984 1.368 . S
C2000 C1996 1.368 . S
C2000 C1999 1.523 . S
H2001 C1976 0.950 . S
H2002 C1978 0.950 . S
H2003 C1979 0.949 . S
H2004 C1981 0.950 . S
H2005 C1983 0.950 . S
C2006 C2007 1.349 . S
C2006 C2008 1.327 . S
C2006 H2031 0.950 . S
C2007 C2006 1.349 . S
C2007 C2023 1.349 . S
C2008 C2006 1.327 . S
C2008 C2027 1.429 . S
C2008 H2032 0.950 . S
C2009 C2026 1.574 . S
C2009 C2028 1.368 . S
C2009 H2033 0.949 . S
H2010 C2014 0.949 . S
C2011 C2012 1.349 . S
C2011 C2013 1.327 . S
C2011 H2034 0.950 . S
C2012 C2011 1.349 . S
C2012 C2024 1.349 . S
C2013 C2011 1.327 . S
C2013 C2029 1.429 . S
C2013 H2035 0.950 . S
C2014 H2010 0.949 . S
C2014 C2022 1.574 . S
C2014 C2030 1.368 . S
H2015 C2023 0.950 . S
H2016 C2021 0.950 . S
H2017 C2022 0.949 . S
H2018 C2024 0.950 . S
H2019 C2025 0.950 . S
H2020 C2026 0.949 . S
C2021 H2016 0.950 . S
C2021 C2023 1.327 . S
C2021 C2027 1.429 . S
C2022 C2014 1.574 . S
C2022 H2017 0.949 . S
C2022 C2028 1.368 . S
C2023 C2007 1.349 . S
C2023 H2015 0.950 . S
C2023 C2021 1.327 . S
C2024 C2012 1.349 . S
C2024 H2018 0.950 . S
C2024 C2025 1.327 . S
C2025 H2019 0.950 . S
C2025 C2024 1.327 . S
C2025 C2029 1.429 . S
C2026 C2009 1.574 . S
C2026 H2020 0.949 . S
C2026 C2030 1.368 . S
C2027 C2008 1.429 . S
C2027 C2021 1.429 . S
C2027 C2028 1.523 . S
C2028 C2009 1.368 . S
C2028 C2022 1.368 . S
C2028 C2027 1.523 . S
C2029 C2013 1.429 . S
C2029 C2025 1.429 . S
C2029 C2030 1.523 . S
C2030 C2014 1.368 . S
C2030 C2026 1.368 . S
C2030 C2029 1.523 . S
H2031 C2006 0.950 . S
H2032 C2008 0.950 . S
H2033 C2009 0.949 . S
H2034 C2011 0.950 . S
H2035 C2013 0.950 . S
C2036 C2037 1.349 . S
C2036 C2038 1.327 . S
C2036 H2061 0.950 . S
C2037 C2036 1.349 . S
C2037 C2053 1.349 . S
C2038 C2036 1.327 . S
C2038 C2057 1.429 . S
C2038 H2062 0.950 . S
C2039 C2056 1.574 . S
C2039 C2058 1.368 . S
C2039 H2063 0.949 . S
H2040 C2044 0.949 . S
C2041 C2042 1.349 . S
C2041 C2043 1.327 . S
C2041 H2064 0.950 . S
C2042 C2041 1.349 . S
C2042 C2054 1.349 . S
C2043 C2041 1.327 . S
C2043 C2059 1.429 . S
C2043 H2065 0.950 . S
C2044 H2040 0.949 . S
C2044 C2052 1.574 . S
C2044 C2060 1.368 . S
H2045 C2053 0.950 . S
H2046 C2051 0.950 . S
H2047 C2052 0.949 . S
H2048 C2054 0.950 . S
H2049 C2055 0.950 . S
H2050 C2056 0.949 . S
C2051 H2046 0.950 . S
C2051 C2053 1.327 . S
C2051 C2057 1.429 . S
C2052 C2044 1.574 . S
C2052 H2047 0.949 . S
C2052 C2058 1.368 . S
C2053 C2037 1.349 . S
C2053 H2045 0.950 . S
C2053 C2051 1.327 . S
C2054 C2042 1.349 . S
C2054 H2048 0.950 . S
C2054 C2055 1.327 . S
C2055 H2049 0.950 . S
C2055 C2054 1.327 . S
C2055 C2059 1.429 . S
C2056 C2039 1.574 . S
C2056 H2050 0.949 . S
C2056 C2060 1.368 . S
C2057 C2038 1.429 . S
C2057 C2051 1.429 . S
C2057 C2058 1.523 . S
C2058 C2039 1.368 . S
C2058 C2052 1.368 . S
C2058 C2057 1.523 . S
C2059 C2043 1.429 . S
C2059 C2055 1.429 . S
C2059 C2060 1.523 . S
C2060 C2044 1.368 . S
C2060 C2056 1.368 . S
C2060 C2059 1.523 . S
H2061 C2036 0.950 . S
H2062 C2038 0.950 . S
H2063 C2039 0.949 . S
H2064 C2041 0.950 . S
H2065 C2043 0.950 . S
C2066 C2067 1.349 . S
C2066 C2068 1.327 . S
C2066 H2091 0.950 . S
C2067 C2066 1.349 . S
C2067 C2083 1.349 . S
C2068 C2066 1.327 . S
C2068 C2087 1.429 . S
C2068 H2092 0.950 . S
C2069 C2086 1.574 . S
C2069 C2088 1.368 . S
C2069 H2093 0.949 . S
H2070 C2074 0.949 . S
C2071 C2072 1.349 . S
C2071 C2073 1.327 . S
C2071 H2094 0.950 . S
C2072 C2071 1.349 . S
C2072 C2084 1.349 . S
C2073 C2071 1.327 . S
C2073 C2089 1.429 . S
C2073 H2095 0.950 . S
C2074 H2070 0.949 . S
C2074 C2082 1.574 . S
C2074 C2090 1.368 . S
H2075 C2083 0.950 . S
H2076 C2081 0.950 . S
H2077 C2082 0.949 . S
H2078 C2084 0.950 . S
H2079 C2085 0.950 . S
H2080 C2086 0.949 . S
C2081 H2076 0.950 . S
C2081 C2083 1.327 . S
C2081 C2087 1.429 . S
C2082 C2074 1.574 . S
C2082 H2077 0.949 . S
C2082 C2088 1.368 . S
C2083 C2067 1.349 . S
C2083 H2075 0.950 . S
C2083 C2081 1.327 . S
C2084 C2072 1.349 . S
C2084 H2078 0.950 . S
C2084 C2085 1.327 . S
C2085 H2079 0.950 . S
C2085 C2084 1.327 . S
C2085 C2089 1.429 . S
C2086 C2069 1.574 . S
C2086 H2080 0.949 . S
C2086 C2090 1.368 . S
C2087 C2068 1.429 . S
C2087 C2081 1.429 . S
C2087 C2088 1.523 . S
C2088 C2069 1.368 . S
C2088 C2082 1.368 . S
C2088 C2087 1.523 . S
C2089 C2073 1.429 . S
C2089 C2085 1.429 . S
C2089 C2090 1.523 . S
C2090 C2074 1.368 . S
C2090 C2086 1.368 . S
C2090 C2089 1.523 . S
H2091 C2066 0.950 . S
H2092 C2068 0.950 . S
H2093 C2069 0.949 . S
H2094 C2071 0.950 . S
H2095 C2073 0.950 . S
C2096 C2097 1.349 . S
C2096 C2098 1.327 . S
C2096 H2121 0.950 . S
C2097 C2096 1.349 . S
C2097 C2113 1.349 . S
C2098 C2096 1.327 . S
C2098 C2117 1.429 . S
C2098 H2122 0.950 . S
C2099 C2116 1.574 . S
C2099 C2118 1.368 . S
C2099 H2123 0.949 . S
H2100 C2104 0.949 . S
C2101 C2102 1.349 . S
C2101 C2103 1.327 . S
C2101 H2124 0.950 . S
C2102 C2101 1.349 . S
C2102 C2114 1.349 . S
C2103 C2101 1.327 . S
C2103 C2119 1.429 . S
C2103 H2125 0.950 . S
C2104 H2100 0.949 . S
C2104 C2112 1.574 . S
C2104 C2120 1.368 . S
H2105 C2113 0.950 . S
H2106 C2111 0.950 . S
H2107 C2112 0.949 . S
H2108 C2114 0.950 . S
H2109 C2115 0.950 . S
H2110 C2116 0.949 . S
C2111 H2106 0.950 . S
C2111 C2113 1.327 . S
C2111 C2117 1.429 . S
C2112 C2104 1.574 . S
C2112 H2107 0.949 . S
C2112 C2118 1.368 . S
C2113 C2097 1.349 . S
C2113 H2105 0.950 . S
C2113 C2111 1.327 . S
C2114 C2102 1.349 . S
C2114 H2108 0.950 . S
C2114 C2115 1.327 . S
C2115 H2109 0.950 . S
C2115 C2114 1.327 . S
C2115 C2119 1.429 . S
C2116 C2099 1.574 . S
C2116 H2110 0.949 . S
C2116 C2120 1.368 . S
C2117 C2098 1.429 . S
C2117 C2111 1.429 . S
C2117 C2118 1.523 . S
C2118 C2099 1.368 . S
C2118 C2112 1.368 . S
C2118 C2117 1.523 . S
C2119 C2103 1.429 . S
C2119 C2115 1.429 . S
C2119 C2120 1.523 . S
C2120 C2104 1.368 . S
C2120 C2116 1.368 . S
C2120 C2119 1.523 . S
H2121 C2096 0.950 . S
H2122 C2098 0.950 . S
H2123 C2099 0.949 . S
H2124 C2101 0.950 . S
H2125 C2103 0.950 . S
C2126 C2127 1.349 . S
C2126 C2128 1.327 . S
C2126 H2151 0.950 . S
C2127 C2126 1.349 . S
C2127 C2143 1.349 . S
C2128 C2126 1.327 . S
C2128 C2147 1.429 . S
C2128 H2152 0.950 . S
C2129 C2146 1.574 . S
C2129 C2148 1.368 . S
C2129 H2153 0.949 . S
H2130 C2134 0.949 . S
C2131 C2132 1.349 . S
C2131 C2133 1.327 . S
C2131 H2154 0.950 . S
C2132 C2131 1.349 . S
C2132 C2144 1.349 . S
C2133 C2131 1.327 . S
C2133 C2149 1.429 . S
C2133 H2155 0.950 . S
C2134 H2130 0.949 . S
C2134 C2142 1.574 . S
C2134 C2150 1.368 . S
H2135 C2143 0.950 . S
H2136 C2141 0.950 . S
H2137 C2142 0.949 . S
H2138 C2144 0.950 . S
H2139 C2145 0.950 . S
H2140 C2146 0.949 . S
C2141 H2136 0.950 . S
C2141 C2143 1.327 . S
C2141 C2147 1.429 . S
C2142 C2134 1.574 . S
C2142 H2137 0.949 . S
C2142 C2148 1.368 . S
C2143 C2127 1.349 . S
C2143 H2135 0.950 . S
C2143 C2141 1.327 . S
C2144 C2132 1.349 . S
C2144 H2138 0.950 . S
C2144 C2145 1.327 . S
C2145 H2139 0.950 . S
C2145 C2144 1.327 . S
C2145 C2149 1.429 . S
C2146 C2129 1.574 . S
C2146 H2140 0.949 . S
C2146 C2150 1.368 . S
C2147 C2128 1.429 . S
C2147 C2141 1.429 . S
C2147 C2148 1.523 . S
C2148 C2129 1.368 . S
C2148 C2142 1.368 . S
C2148 C2147 1.523 . S
C2149 C2133 1.429 . S
C2149 C2145 1.429 . S
C2149 C2150 1.523 . S
C2150 C2134 1.368 . S
C2150 C2146 1.368 . S
C2150 C2149 1.523 . S
H2151 C2126 0.950 . S
H2152 C2128 0.950 . S
H2153 C2129 0.949 . S
H2154 C2131 0.950 . S
H2155 C2133 0.950 . S
C2156 C2157 1.349 . S
C2156 C2158 1.327 . S
C2156 H2181 0.950 . S
C2157 C2156 1.349 . S
C2157 C2173 1.349 . S
C2158 C2156 1.327 . S
C2158 C2177 1.429 . S
C2158 H2182 0.950 . S
C2159 C2176 1.574 . S
C2159 C2178 1.368 . S
C2159 H2183 0.949 . S
H2160 C2164 0.949 . S
C2161 C2162 1.349 . S
C2161 C2163 1.327 . S
C2161 H2184 0.950 . S
C2162 C2161 1.349 . S
C2162 C2174 1.349 . S
C2163 C2161 1.327 . S
C2163 C2179 1.429 . S
C2163 H2185 0.950 . S
C2164 H2160 0.949 . S
C2164 C2172 1.574 . S
C2164 C2180 1.368 . S
H2165 C2173 0.950 . S
H2166 C2171 0.950 . S
H2167 C2172 0.949 . S
H2168 C2174 0.950 . S
H2169 C2175 0.950 . S
H2170 C2176 0.949 . S
C2171 H2166 0.950 . S
C2171 C2173 1.327 . S
C2171 C2177 1.429 . S
C2172 C2164 1.574 . S
C2172 H2167 0.949 . S
C2172 C2178 1.368 . S
C2173 C2157 1.349 . S
C2173 H2165 0.950 . S
C2173 C2171 1.327 . S
C2174 C2162 1.349 . S
C2174 H2168 0.950 . S
C2174 C2175 1.327 . S
C2175 H2169 0.950 . S
C2175 C2174 1.327 . S
C2175 C2179 1.429 . S
C2176 C2159 1.574 . S
C2176 H2170 0.949 . S
C2176 C2180 1.368 . S
C2177 C2158 1.429 . S
C2177 C2171 1.429 . S
C2177 C2178 1.523 . S
C2178 C2159 1.368 . S
C2178 C2172 1.368 . S
C2178 C2177 1.523 . S
C2179 C2163 1.429 . S
C2179 C2175 1.429 . S
C2179 C2180 1.523 . S
C2180 C2164 1.368 . S
C2180 C2176 1.368 . S
C2180 C2179 1.523 . S
H2181 C2156 0.950 . S
H2182 C2158 0.950 . S
H2183 C2159 0.949 . S
H2184 C2161 0.950 . S
H2185 C2163 0.950 . S
C2186 C2187 1.349 . S
C2186 C2188 1.327 . S
C2186 H2211 0.950 . S
C2187 C2186 1.349 . S
C2187 C2203 1.349 . S
C2188 C2186 1.327 . S
C2188 C2207 1.429 . S
C2188 H2212 0.950 . S
C2189 C2206 1.574 . S
C2189 C2208 1.368 . S
C2189 H2213 0.949 . S
H2190 C2194 0.949 . S
C2191 C2192 1.349 . S
C2191 C2193 1.327 . S
C2191 H2214 0.950 . S
C2192 C2191 1.349 . S
C2192 C2204 1.349 . S
C2193 C2191 1.327 . S
C2193 C2209 1.429 . S
C2193 H2215 0.950 . S
C2194 H2190 0.949 . S
C2194 C2202 1.574 . S
C2194 C2210 1.368 . S
H2195 C2203 0.950 . S
H2196 C2201 0.950 . S
H2197 C2202 0.949 . S
H2198 C2204 0.950 . S
H2199 C2205 0.950 . S
H2200 C2206 0.949 . S
C2201 H2196 0.950 . S
C2201 C2203 1.327 . S
C2201 C2207 1.429 . S
C2202 C2194 1.574 . S
C2202 H2197 0.949 . S
C2202 C2208 1.368 . S
C2203 C2187 1.349 . S
C2203 H2195 0.950 . S
C2203 C2201 1.327 . S
C2204 C2192 1.349 . S
C2204 H2198 0.950 . S
C2204 C2205 1.327 . S
C2205 H2199 0.950 . S
C2205 C2204 1.327 . S
C2205 C2209 1.429 . S
C2206 C2189 1.574 . S
C2206 H2200 0.949 . S
C2206 C2210 1.368 . S
C2207 C2188 1.429 . S
C2207 C2201 1.429 . S
C2207 C2208 1.523 . S
C2208 C2189 1.368 . S
C2208 C2202 1.368 . S
C2208 C2207 1.523 . S
C2209 C2193 1.429 . S
C2209 C2205 1.429 . S
C2209 C2210 1.523 . S
C2210 C2194 1.368 . S
C2210 C2206 1.368 . S
C2210 C2209 1.523 . S
H2211 C2186 0.950 . S
H2212 C2188 0.950 . S
H2213 C2189 0.949 . S
H2214 C2191 0.950 . S
H2215 C2193 0.950 . S
C2216 C2217 1.349 . S
C2216 C2218 1.327 . S
C2216 H2241 0.950 . S
C2217 C2216 1.349 . S
C2217 C2233 1.349 . S
C2218 C2216 1.327 . S
C2218 C2237 1.429 . S
C2218 H2242 0.950 . S
C2219 C2236 1.574 . S
C2219 C2238 1.368 . S
C2219 H2243 0.949 . S
H2220 C2224 0.949 . S
C2221 C2222 1.349 . S
C2221 C2223 1.327 . S
C2221 H2244 0.950 . S
C2222 C2221 1.349 . S
C2222 C2234 1.349 . S
C2223 C2221 1.327 . S
C2223 C2239 1.429 . S
C2223 H2245 0.950 . S
C2224 H2220 0.949 . S
C2224 C2232 1.574 . S
C2224 C2240 1.368 . S
H2225 C2233 0.950 . S
H2226 C2231 0.950 . S
H2227 C2232 0.949 . S
H2228 C2234 0.950 . S
H2229 C2235 0.950 . S
H2230 C2236 0.949 . S
C2231 H2226 0.950 . S
C2231 C2233 1.327 . S
C2231 C2237 1.429 . S
C2232 C2224 1.574 . S
C2232 H2227 0.949 . S
C2232 C2238 1.368 . S
C2233 C2217 1.349 . S
C2233 H2225 0.950 . S
C2233 C2231 1.327 . S
C2234 C2222 1.349 . S
C2234 H2228 0.950 . S
C2234 C2235 1.327 . S
C2235 H2229 0.950 . S
C2235 C2234 1.327 . S
C2235 C2239 1.429 . S
C2236 C2219 1.574 . S
C2236 H2230 0.949 . S
C2236 C2240 1.368 . S
C2237 C2218 1.429 . S
C2237 C2231 1.429 . S
C2237 C2238 1.523 . S
C2238 C2219 1.368 . S
C2238 C2232 1.368 . S
C2238 C2237 1.523 . S
C2239 C2223 1.429 . S
C2239 C2235 1.429 . S
C2239 C2240 1.523 . S
C2240 C2224 1.368 . S
C2240 C2236 1.368 . S
C2240 C2239 1.523 . S
H2241 C2216 0.950 . S
H2242 C2218 0.950 . S
H2243 C2219 0.949 . S
H2244 C2221 0.950 . S
H2245 C2223 0.950 . S
C2246 C2247 1.349 . S
C2246 C2248 1.327 . S
C2246 H2271 0.950 . S
C2247 C2246 1.349 . S
C2247 C2263 1.349 . S
C2248 C2246 1.327 . S
C2248 C2267 1.429 . S
C2248 H2272 0.950 . S
C2249 C2266 1.574 . S
C2249 C2268 1.368 . S
C2249 H2273 0.949 . S
H2250 C2254 0.949 . S
C2251 C2252 1.349 . S
C2251 C2253 1.327 . S
C2251 H2274 0.950 . S
C2252 C2251 1.349 . S
C2252 C2264 1.349 . S
C2253 C2251 1.327 . S
C2253 C2269 1.429 . S
C2253 H2275 0.950 . S
C2254 H2250 0.949 . S
C2254 C2262 1.574 . S
C2254 C2270 1.368 . S
H2255 C2263 0.950 . S
H2256 C2261 0.950 . S
H2257 C2262 0.949 . S
H2258 C2264 0.950 . S
H2259 C2265 0.950 . S
H2260 C2266 0.949 . S
C2261 H2256 0.950 . S
C2261 C2263 1.327 . S
C2261 C2267 1.429 . S
C2262 C2254 1.574 . S
C2262 H2257 0.949 . S
C2262 C2268 1.368 . S
C2263 C2247 1.349 . S
C2263 H2255 0.950 . S
C2263 C2261 1.327 . S
C2264 C2252 1.349 . S
C2264 H2258 0.950 . S
C2264 C2265 1.327 . S
C2265 H2259 0.950 . S
C2265 C2264 1.327 . S
C2265 C2269 1.429 . S
C2266 C2249 1.574 . S
C2266 H2260 0.949 . S
C2266 C2270 1.368 . S
C2267 C2248 1.429 . S
C2267 C2261 1.429 . S
C2267 C2268 1.523 . S
C2268 C2249 1.368 . S
C2268 C2262 1.368 . S
C2268 C2267 1.523 . S
C2269 C2253 1.429 . S
C2269 C2265 1.429 . S
C2269 C2270 1.523 . S
C2270 C2254 1.368 . S
C2270 C2266 1.368 . S
C2270 C2269 1.523 . S
H2271 C2246 0.950 . S
H2272 C2248 0.950 . S
H2273 C2249 0.949 . S
H2274 C2251 0.950 . S
H2275 C2253 0.950 . S
C2276 C2277 1.349 . S
C2276 C2278 1.327 . S
C2276 H2301 0.950 . S
C2277 C2276 1.349 . S
C2277 C2293 1.349 . S
C2278 C2276 1.327 . S
C2278 C2297 1.429 . S
C2278 H2302 0.950 . S
C2279 C2296 1.574 . S
C2279 C2298 1.368 . S
C2279 H2303 0.949 . S
H2280 C2284 0.949 . S
C2281 C2282 1.349 . S
C2281 C2283 1.327 . S
C2281 H2304 0.950 . S
C2282 C2281 1.349 . S
C2282 C2294 1.349 . S
C2283 C2281 1.327 . S
C2283 C2299 1.429 . S
C2283 H2305 0.950 . S
C2284 H2280 0.949 . S
C2284 C2292 1.574 . S
C2284 C2300 1.368 . S
H2285 C2293 0.950 . S
H2286 C2291 0.950 . S
H2287 C2292 0.949 . S
H2288 C2294 0.950 . S
H2289 C2295 0.950 . S
H2290 C2296 0.949 . S
C2291 H2286 0.950 . S
C2291 C2293 1.327 . S
C2291 C2297 1.429 . S
C2292 C2284 1.574 . S
C2292 H2287 0.949 . S
C2292 C2298 1.368 . S
C2293 C2277 1.349 . S
C2293 H2285 0.950 . S
C2293 C2291 1.327 . S
C2294 C2282 1.349 . S
C2294 H2288 0.950 . S
C2294 C2295 1.327 . S
C2295 H2289 0.950 . S
C2295 C2294 1.327 . S
C2295 C2299 1.429 . S
C2296 C2279 1.574 . S
C2296 H2290 0.949 . S
C2296 C2300 1.368 . S
C2297 C2278 1.429 . S
C2297 C2291 1.429 . S
C2297 C2298 1.523 . S
C2298 C2279 1.368 . S
C2298 C2292 1.368 . S
C2298 C2297 1.523 . S
C2299 C2283 1.429 . S
C2299 C2295 1.429 . S
C2299 C2300 1.523 . S
C2300 C2284 1.368 . S
C2300 C2296 1.368 . S
C2300 C2299 1.523 . S
H2301 C2276 0.950 . S
H2302 C2278 0.950 . S
H2303 C2279 0.949 . S
H2304 C2281 0.950 . S
H2305 C2283 0.950 . S
C2306 C2307 1.349 . S
C2306 C2308 1.327 . S
C2306 H2331 0.950 . S
C2307 C2306 1.349 . S
C2307 C2323 1.349 . S
C2308 C2306 1.327 . S
C2308 C2327 1.429 . S
C2308 H2332 0.950 . S
C2309 C2326 1.574 . S
C2309 C2328 1.368 . S
C2309 H2333 0.949 . S
H2310 C2314 0.949 . S
C2311 C2312 1.349 . S
C2311 C2313 1.327 . S
C2311 H2334 0.950 . S
C2312 C2311 1.349 . S
C2312 C2324 1.349 . S
C2313 C2311 1.327 . S
C2313 C2329 1.429 . S
C2313 H2335 0.950 . S
C2314 H2310 0.949 . S
C2314 C2322 1.574 . S
C2314 C2330 1.368 . S
H2315 C2323 0.950 . S
H2316 C2321 0.950 . S
H2317 C2322 0.949 . S
H2318 C2324 0.950 . S
H2319 C2325 0.950 . S
H2320 C2326 0.949 . S
C2321 H2316 0.950 . S
C2321 C2323 1.327 . S
C2321 C2327 1.429 . S
C2322 C2314 1.574 . S
C2322 H2317 0.949 . S
C2322 C2328 1.368 . S
C2323 C2307 1.349 . S
C2323 H2315 0.950 . S
C2323 C2321 1.327 . S
C2324 C2312 1.349 . S
C2324 H2318 0.950 . S
C2324 C2325 1.327 . S
C2325 H2319 0.950 . S
C2325 C2324 1.327 . S
C2325 C2329 1.429 . S
C2326 C2309 1.574 . S
C2326 H2320 0.949 . S
C2326 C2330 1.368 . S
C2327 C2308 1.429 . S
C2327 C2321 1.429 . S
C2327 C2328 1.523 . S
C2328 C2309 1.368 . S
C2328 C2322 1.368 . S
C2328 C2327 1.523 . S
C2329 C2313 1.429 . S
C2329 C2325 1.429 . S
C2329 C2330 1.523 . S
C2330 C2314 1.368 . S
C2330 C2326 1.368 . S
C2330 C2329 1.523 . S
H2331 C2306 0.950 . S
H2332 C2308 0.950 . S
H2333 C2309 0.949 . S
H2334 C2311 0.950 . S
H2335 C2313 0.950 . S
C417 C135 0.892 . S
C422 C5 0.892 . S
C447 C18 0.892 . S
C452 C148 0.892 . S
C477 C31 0.892 . S
C482 C109 0.892 . S
C507 C122 0.892 . S
C512 C44 0.892 . S
C537 C187 0.892 . S
C542 C57 0.892 . S
C567 C70 0.892 . S
C572 C200 0.892 . S
C597 C161 0.892 . S
C602 C83 0.892 . S
C627 C174 0.892 . S
C632 C96 0.892 . S
C657 C343 0.892 . S
C662 C213 0.892 . S
C687 C356 0.892 . S
C692 C226 0.892 . S
C717 C317 0.892 . S
C722 C239 0.892 . S
C747 C252 0.892 . S
C752 C330 0.892 . S
C777 C395 0.892 . S
C782 C265 0.892 . S
C807 C408 0.892 . S
C812 C278 0.892 . S
C837 C291 0.892 . S
C842 C369 0.892 . S
C867 C304 0.892 . S
C872 C382 0.892 . S
C897 C257 1.546 . S
C902 C10 1.546 . S
C927 C23 1.546 . S
C932 C244 1.546 . S
C957 C231 1.546 . S
C962 C36 1.546 . S
C987 C218 1.546 . S
C992 C49 1.546 . S
C1017 C62 1.546 . S
C1022 C309 1.546 . S
C1047 C75 1.546 . S
C1052 C296 1.546 . S
C1077 C283 1.546 . S
C1082 C88 1.546 . S
C1107 C101 1.546 . S
C1112 C270 1.546 . S
C1137 C361 1.546 . S
C1142 C114 1.546 . S
C1167 C348 1.546 . S
C1172 C127 1.546 . S
C1197 C335 1.546 . S
C1202 C140 1.546 . S
C1227 C322 1.546 . S
C1232 C153 1.546 . S
C1257 C166 1.546 . S
C1262 C413 1.546 . S
C1287 C400 1.546 . S
C1292 C179 1.546 . S
C1317 C192 1.546 . S
C1322 C387 1.546 . S
C1347 C205 1.546 . S
C1352 C374 1.546 . S
C1377 C156 1.112 . S
C1382 C0 1.112 . S
C1407 C13 1.112 . S
C1412 C273 1.112 . S
C1437 C78 1.112 . S
C1442 C26 1.112 . S
C1467 C403 1.112 . S
C1472 C39 1.112 . S
C1497 C52 1.112 . S
C1502 C104 1.112 . S
C1527 C221 1.112 . S
C1532 C65 1.112 . S
C1557 C351 1.112 . S
C1562 C91 1.112 . S
C1587 C377 1.112 . S
C1592 C117 1.112 . S
C1617 C130 1.112 . S
C1622 C182 1.112 . S
C1647 C299 1.112 . S
C1652 C143 1.112 . S
C1677 C325 1.112 . S
C1682 C169 1.112 . S
C1707 C195 1.112 . S
C1712 C247 1.112 . S
C1737 C208 1.112 . S
C1742 C364 1.112 . S
C1767 C286 1.112 . S
C1772 C234 1.112 . S
C1797 C312 1.112 . S
C1802 C260 1.112 . S
C1827 C338 1.112 . S
C1832 C390 1.112 . S
C1857 C8 0.556 . S
C1862 C47 0.594 . S
C1887 C34 0.593 . S
C1892 C21 0.556 . S
C1917 C60 0.556 . S
C1922 C99 0.594 . S
C1947 C73 0.556 . S
C1952 C86 0.593 . S
C1977 C112 0.556 . S
C1982 C151 0.556 . S
C2007 C125 0.556 . S
C2012 C138 0.556 . S
C2037 C164 0.556 . S
C2042 C203 0.556 . S
C2067 C190 0.556 . S
C2072 C177 0.556 . S
C2097 C255 0.556 . S
C2102 C216 0.556 . S
C2127 C242 0.556 . S
C2132 C229 0.556 . S
C2157 C307 0.556 . S
C2162 C268 0.556 . S
C2187 C294 0.556 . S
C2192 C281 0.556 . S
C2217 C359 0.594 . S
C2222 C320 0.556 . S
C2247 C346 0.593 . S
C2252 C333 0.556 . S
C2277 C372 0.556 . S
C2282 C411 0.594 . S
C2307 C398 0.593 . S
C2312 C385 0.556 . S
