# Generated by pormake.
# Topology nfb, (4)-cn, num edge types: 1
# Building blocks:
#     Node 0, Type 0, BuildingBlock: TATPOV_clean_sbu_0, # of connection points: 4
#     Node 1, Type 0, BuildingBlock: TATPOV_clean_sbu_0, # of connection points: 4
#     Node 2, Type 0, BuildingBlock: TATPOV_clean_sbu_0, # of connection points: 4
#     Node 3, Type 0, BuildingBlock: TATPOV_clean_sbu_0, # of connection points: 4
#     Node 4, Type 0, BuildingBlock: TATPOV_clean_sbu_0, # of connection points: 4
#     Node 5, Type 0, BuildingBlock: TATPOV_clean_sbu_0, # of connection points: 4
#     Node 6, Type 0, BuildingBlock: TATPOV_clean_sbu_0, # of connection points: 4
#     Node 7, Type 0, BuildingBlock: TATPOV_clean_sbu_0, # of connection points: 4
#     Node 8, Type 0, BuildingBlock: TATPOV_clean_sbu_0, # of connection points: 4
#     Node 9, Type 0, BuildingBlock: TATPOV_clean_sbu_0, # of connection points: 4
#     Node 10, Type 0, BuildingBlock: TATPOV_clean_sbu_0, # of connection points: 4
#     Node 11, Type 0, BuildingBlock: TATPOV_clean_sbu_0, # of connection points: 4
#     Node 12, Type 0, BuildingBlock: TATPOV_clean_sbu_0, # of connection points: 4
#     Node 13, Type 0, BuildingBlock: TATPOV_clean_sbu_0, # of connection points: 4
#     Node 14, Type 0, BuildingBlock: TATPOV_clean_sbu_0, # of connection points: 4
#     Node 15, Type 0, BuildingBlock: TATPOV_clean_sbu_0, # of connection points: 4
#     Node 16, Type 0, BuildingBlock: TATPOV_clean_sbu_0, # of connection points: 4
#     Node 17, Type 0, BuildingBlock: TATPOV_clean_sbu_0, # of connection points: 4
#     Node 18, Type 0, BuildingBlock: TATPOV_clean_sbu_0, # of connection points: 4
#     Node 19, Type 0, BuildingBlock: TATPOV_clean_sbu_0, # of connection points: 4
#     Node 20, Type 0, BuildingBlock: TATPOV_clean_sbu_0, # of connection points: 4
#     Node 21, Type 0, BuildingBlock: TATPOV_clean_sbu_0, # of connection points: 4
#     Node 22, Type 0, BuildingBlock: TATPOV_clean_sbu_0, # of connection points: 4
#     Node 23, Type 0, BuildingBlock: TATPOV_clean_sbu_0, # of connection points: 4
#     Node 24, Type 0, BuildingBlock: TATPOV_clean_sbu_0, # of connection points: 4
#     Node 25, Type 0, BuildingBlock: TATPOV_clean_sbu_0, # of connection points: 4
#     Node 26, Type 0, BuildingBlock: TATPOV_clean_sbu_0, # of connection points: 4
#     Node 27, Type 0, BuildingBlock: TATPOV_clean_sbu_0, # of connection points: 4
#     Node 28, Type 0, BuildingBlock: TATPOV_clean_sbu_0, # of connection points: 4
#     Node 29, Type 0, BuildingBlock: TATPOV_clean_sbu_0, # of connection points: 4
#     Node 30, Type 0, BuildingBlock: TATPOV_clean_sbu_0, # of connection points: 4
#     Node 31, Type 0, BuildingBlock: TATPOV_clean_sbu_0, # of connection points: 4
#     Node 32, Type 0, BuildingBlock: TATPOV_clean_sbu_0, # of connection points: 4
#     Node 33, Type 0, BuildingBlock: TATPOV_clean_sbu_0, # of connection points: 4
#     Node 34, Type 0, BuildingBlock: TATPOV_clean_sbu_0, # of connection points: 4
#     Node 35, Type 0, BuildingBlock: TATPOV_clean_sbu_0, # of connection points: 4
#     Node 36, Type 0, BuildingBlock: TATPOV_clean_sbu_0, # of connection points: 4
#     Node 37, Type 0, BuildingBlock: TATPOV_clean_sbu_0, # of connection points: 4
#     Node 38, Type 0, BuildingBlock: TATPOV_clean_sbu_0, # of connection points: 4
#     Node 39, Type 0, BuildingBlock: TATPOV_clean_sbu_0, # of connection points: 4
#     Node 40, Type 0, BuildingBlock: TATPOV_clean_sbu_0, # of connection points: 4
#     Node 41, Type 0, BuildingBlock: TATPOV_clean_sbu_0, # of connection points: 4
#     Node 42, Type 0, BuildingBlock: TATPOV_clean_sbu_0, # of connection points: 4
#     Node 43, Type 0, BuildingBlock: TATPOV_clean_sbu_0, # of connection points: 4
#     Node 44, Type 0, BuildingBlock: TATPOV_clean_sbu_0, # of connection points: 4
#     Node 45, Type 0, BuildingBlock: TATPOV_clean_sbu_0, # of connection points: 4
#     Node 46, Type 0, BuildingBlock: TATPOV_clean_sbu_0, # of connection points: 4
#     Node 47, Type 0, BuildingBlock: TATPOV_clean_sbu_0, # of connection points: 4
#     Edge 48, Type (0, 0), BuildingBlock: XIVTED_clean_linker_0, # of connection points: 2
#     Edge 49, Type (0, 0), BuildingBlock: XIVTED_clean_linker_0, # of connection points: 2
#     Edge 50, Type (0, 0), BuildingBlock: XIVTED_clean_linker_0, # of connection points: 2
#     Edge 51, Type (0, 0), BuildingBlock: XIVTED_clean_linker_0, # of connection points: 2
#     Edge 52, Type (0, 0), BuildingBlock: XIVTED_clean_linker_0, # of connection points: 2
#     Edge 53, Type (0, 0), BuildingBlock: XIVTED_clean_linker_0, # of connection points: 2
#     Edge 54, Type (0, 0), BuildingBlock: XIVTED_clean_linker_0, # of connection points: 2
#     Edge 55, Type (0, 0), BuildingBlock: XIVTED_clean_linker_0, # of connection points: 2
#     Edge 56, Type (0, 0), BuildingBlock: XIVTED_clean_linker_0, # of connection points: 2
#     Edge 57, Type (0, 0), BuildingBlock: XIVTED_clean_linker_0, # of connection points: 2
#     Edge 58, Type (0, 0), BuildingBlock: XIVTED_clean_linker_0, # of connection points: 2
#     Edge 59, Type (0, 0), BuildingBlock: XIVTED_clean_linker_0, # of connection points: 2
#     Edge 60, Type (0, 0), BuildingBlock: XIVTED_clean_linker_0, # of connection points: 2
#     Edge 61, Type (0, 0), BuildingBlock: XIVTED_clean_linker_0, # of connection points: 2
#     Edge 62, Type (0, 0), BuildingBlock: XIVTED_clean_linker_0, # of connection points: 2
#     Edge 63, Type (0, 0), BuildingBlock: XIVTED_clean_linker_0, # of connection points: 2
#     Edge 64, Type (0, 0), BuildingBlock: XIVTED_clean_linker_0, # of connection points: 2
#     Edge 65, Type (0, 0), BuildingBlock: XIVTED_clean_linker_0, # of connection points: 2
#     Edge 66, Type (0, 0), BuildingBlock: XIVTED_clean_linker_0, # of connection points: 2
#     Edge 67, Type (0, 0), BuildingBlock: XIVTED_clean_linker_0, # of connection points: 2
#     Edge 68, Type (0, 0), BuildingBlock: XIVTED_clean_linker_0, # of connection points: 2
#     Edge 69, Type (0, 0), BuildingBlock: XIVTED_clean_linker_0, # of connection points: 2
#     Edge 70, Type (0, 0), BuildingBlock: XIVTED_clean_linker_0, # of connection points: 2
#     Edge 71, Type (0, 0), BuildingBlock: XIVTED_clean_linker_0, # of connection points: 2
#     Edge 72, Type (0, 0), BuildingBlock: XIVTED_clean_linker_0, # of connection points: 2
#     Edge 73, Type (0, 0), BuildingBlock: XIVTED_clean_linker_0, # of connection points: 2
#     Edge 74, Type (0, 0), BuildingBlock: XIVTED_clean_linker_0, # of connection points: 2
#     Edge 75, Type (0, 0), BuildingBlock: XIVTED_clean_linker_0, # of connection points: 2
#     Edge 76, Type (0, 0), BuildingBlock: XIVTED_clean_linker_0, # of connection points: 2
#     Edge 77, Type (0, 0), BuildingBlock: XIVTED_clean_linker_0, # of connection points: 2
#     Edge 78, Type (0, 0), BuildingBlock: XIVTED_clean_linker_0, # of connection points: 2
#     Edge 79, Type (0, 0), BuildingBlock: XIVTED_clean_linker_0, # of connection points: 2
#     Edge 80, Type (0, 0), BuildingBlock: XIVTED_clean_linker_0, # of connection points: 2
#     Edge 81, Type (0, 0), BuildingBlock: XIVTED_clean_linker_0, # of connection points: 2
#     Edge 82, Type (0, 0), BuildingBlock: XIVTED_clean_linker_0, # of connection points: 2
#     Edge 83, Type (0, 0), BuildingBlock: XIVTED_clean_linker_0, # of connection points: 2
#     Edge 84, Type (0, 0), BuildingBlock: XIVTED_clean_linker_0, # of connection points: 2
#     Edge 85, Type (0, 0), BuildingBlock: XIVTED_clean_linker_0, # of connection points: 2
#     Edge 86, Type (0, 0), BuildingBlock: XIVTED_clean_linker_0, # of connection points: 2
#     Edge 87, Type (0, 0), BuildingBlock: XIVTED_clean_linker_0, # of connection points: 2
#     Edge 88, Type (0, 0), BuildingBlock: XIVTED_clean_linker_0, # of connection points: 2
#     Edge 89, Type (0, 0), BuildingBlock: XIVTED_clean_linker_0, # of connection points: 2
#     Edge 90, Type (0, 0), BuildingBlock: XIVTED_clean_linker_0, # of connection points: 2
#     Edge 91, Type (0, 0), BuildingBlock: XIVTED_clean_linker_0, # of connection points: 2
#     Edge 92, Type (0, 0), BuildingBlock: XIVTED_clean_linker_0, # of connection points: 2
#     Edge 93, Type (0, 0), BuildingBlock: XIVTED_clean_linker_0, # of connection points: 2
#     Edge 94, Type (0, 0), BuildingBlock: XIVTED_clean_linker_0, # of connection points: 2
#     Edge 95, Type (0, 0), BuildingBlock: XIVTED_clean_linker_0, # of connection points: 2
#     Edge 96, Type (0, 0), BuildingBlock: XIVTED_clean_linker_0, # of connection points: 2
#     Edge 97, Type (0, 0), BuildingBlock: XIVTED_clean_linker_0, # of connection points: 2
#     Edge 98, Type (0, 0), BuildingBlock: XIVTED_clean_linker_0, # of connection points: 2
#     Edge 99, Type (0, 0), BuildingBlock: XIVTED_clean_linker_0, # of connection points: 2
#     Edge 100, Type (0, 0), BuildingBlock: XIVTED_clean_linker_0, # of connection points: 2
#     Edge 101, Type (0, 0), BuildingBlock: XIVTED_clean_linker_0, # of connection points: 2
#     Edge 102, Type (0, 0), BuildingBlock: XIVTED_clean_linker_0, # of connection points: 2
#     Edge 103, Type (0, 0), BuildingBlock: XIVTED_clean_linker_0, # of connection points: 2
#     Edge 104, Type (0, 0), BuildingBlock: XIVTED_clean_linker_0, # of connection points: 2
#     Edge 105, Type (0, 0), BuildingBlock: XIVTED_clean_linker_0, # of connection points: 2
#     Edge 106, Type (0, 0), BuildingBlock: XIVTED_clean_linker_0, # of connection points: 2
#     Edge 107, Type (0, 0), BuildingBlock: XIVTED_clean_linker_0, # of connection points: 2
#     Edge 108, Type (0, 0), BuildingBlock: XIVTED_clean_linker_0, # of connection points: 2
#     Edge 109, Type (0, 0), BuildingBlock: XIVTED_clean_linker_0, # of connection points: 2
#     Edge 110, Type (0, 0), BuildingBlock: XIVTED_clean_linker_0, # of connection points: 2
#     Edge 111, Type (0, 0), BuildingBlock: XIVTED_clean_linker_0, # of connection points: 2
#     Edge 112, Type (0, 0), BuildingBlock: XIVTED_clean_linker_0, # of connection points: 2
#     Edge 113, Type (0, 0), BuildingBlock: XIVTED_clean_linker_0, # of connection points: 2
#     Edge 114, Type (0, 0), BuildingBlock: XIVTED_clean_linker_0, # of connection points: 2
#     Edge 115, Type (0, 0), BuildingBlock: XIVTED_clean_linker_0, # of connection points: 2
#     Edge 116, Type (0, 0), BuildingBlock: XIVTED_clean_linker_0, # of connection points: 2
#     Edge 117, Type (0, 0), BuildingBlock: XIVTED_clean_linker_0, # of connection points: 2
#     Edge 118, Type (0, 0), BuildingBlock: XIVTED_clean_linker_0, # of connection points: 2
#     Edge 119, Type (0, 0), BuildingBlock: XIVTED_clean_linker_0, # of connection points: 2
#     Edge 120, Type (0, 0), BuildingBlock: XIVTED_clean_linker_0, # of connection points: 2
#     Edge 121, Type (0, 0), BuildingBlock: XIVTED_clean_linker_0, # of connection points: 2
#     Edge 122, Type (0, 0), BuildingBlock: XIVTED_clean_linker_0, # of connection points: 2
#     Edge 123, Type (0, 0), BuildingBlock: XIVTED_clean_linker_0, # of connection points: 2
#     Edge 124, Type (0, 0), BuildingBlock: XIVTED_clean_linker_0, # of connection points: 2
#     Edge 125, Type (0, 0), BuildingBlock: XIVTED_clean_linker_0, # of connection points: 2
#     Edge 126, Type (0, 0), BuildingBlock: XIVTED_clean_linker_0, # of connection points: 2
#     Edge 127, Type (0, 0), BuildingBlock: XIVTED_clean_linker_0, # of connection points: 2
#     Edge 128, Type (0, 0), BuildingBlock: XIVTED_clean_linker_0, # of connection points: 2
#     Edge 129, Type (0, 0), BuildingBlock: XIVTED_clean_linker_0, # of connection points: 2
#     Edge 130, Type (0, 0), BuildingBlock: XIVTED_clean_linker_0, # of connection points: 2
#     Edge 131, Type (0, 0), BuildingBlock: XIVTED_clean_linker_0, # of connection points: 2
#     Edge 132, Type (0, 0), BuildingBlock: XIVTED_clean_linker_0, # of connection points: 2
#     Edge 133, Type (0, 0), BuildingBlock: XIVTED_clean_linker_0, # of connection points: 2
#     Edge 134, Type (0, 0), BuildingBlock: XIVTED_clean_linker_0, # of connection points: 2
#     Edge 135, Type (0, 0), BuildingBlock: XIVTED_clean_linker_0, # of connection points: 2
#     Edge 136, Type (0, 0), BuildingBlock: XIVTED_clean_linker_0, # of connection points: 2
#     Edge 137, Type (0, 0), BuildingBlock: XIVTED_clean_linker_0, # of connection points: 2
#     Edge 138, Type (0, 0), BuildingBlock: XIVTED_clean_linker_0, # of connection points: 2
#     Edge 139, Type (0, 0), BuildingBlock: XIVTED_clean_linker_0, # of connection points: 2
#     Edge 140, Type (0, 0), BuildingBlock: XIVTED_clean_linker_0, # of connection points: 2
#     Edge 141, Type (0, 0), BuildingBlock: XIVTED_clean_linker_0, # of connection points: 2
#     Edge 142, Type (0, 0), BuildingBlock: XIVTED_clean_linker_0, # of connection points: 2
#     Edge 143, Type (0, 0), BuildingBlock: XIVTED_clean_linker_0, # of connection points: 2
# Relax obj value: 0.382
# Max RMSD: 0.221
# Mean RMSD: 0.178
data_MOF--net-nfb--node1-TATPOV_clean_sbu_0--edge1-XIVTED_clean_linker_0
_symmetry_space_group_name_H-M    P1
_symmetry_Int_Tables_number       1
_symmetry_cell_setting            triclinic
loop_
_symmetry_equiv_pos_as_xyz
'x, y, z'
_cell_length_a     58.342949
_cell_length_b     57.444114
_cell_length_c     57.427643
_cell_angle_alpha  90.007704
_cell_angle_beta   89.975626
_cell_angle_gamma 89.473552
loop_
_atom_site_label
_atom_site_type_symbol
_atom_site_fract_x
_atom_site_fract_y
_atom_site_fract_z
_atom_type_partial_charge
Zn0 Zn 0.11883 0.1443 0.32023 0.0
Zn1 Zn 0.11583 0.13199 0.36529 0.0
O2 O 0.08828 0.11597 0.35 0.0
O3 O 0.09137 0.12314 0.31257 0.0
O4 O 0.1134 0.12275 0.3987 0.0
O5 O 0.15352 0.13598 0.3219 0.0
O6 O 0.14945 0.12436 0.3581 0.0
C7 C 0.08041 0.11419 0.32939 0.0
C8 C 0.10963 0.18268 0.35141 0.0
O9 O 0.11156 0.16696 0.36685 0.0
O10 O 0.11095 0.17754 0.32997 0.0
C11 C 0.12534 0.1344 0.41294 0.0
O12 O 0.13854 0.15102 0.40499 0.0
C13 C 0.16232 0.12841 0.3407 0.0
Zn14 Zn 0.43444 0.6055 0.87269 0.0
Zn15 Zn 0.3907 0.59566 0.88573 0.0
O16 O 0.38899 0.63028 0.87767 0.0
O17 O 0.42335 0.63923 0.86506 0.0
O18 O 0.35823 0.58905 0.89421 0.0
O19 O 0.4332 0.57596 0.85151 0.0
O20 O 0.39728 0.57067 0.86154 0.0
C21 C 0.40301 0.64541 0.87028 0.0
C22 C 0.42914 0.59317 0.9214 0.0
O23 O 0.40837 0.59014 0.91545 0.0
O24 O 0.44373 0.6003 0.90672 0.0
C25 C 0.34813 0.6009 0.90986 0.0
O26 O 0.35957 0.61698 0.92109 0.0
C27 C 0.41497 0.56409 0.85031 0.0
Zn28 Zn 0.88708 0.85362 0.32268 0.0
Zn29 Zn 0.88937 0.86891 0.3665 0.0
O30 O 0.91677 0.88379 0.34972 0.0
O31 O 0.91382 0.8746 0.31275 0.0
O32 O 0.89221 0.8816 0.39867 0.0
O33 O 0.85231 0.86128 0.32322 0.0
O34 O 0.85557 0.87515 0.35871 0.0
C35 C 0.92465 0.88457 0.32904 0.0
C36 C 0.89687 0.81773 0.35689 0.0
O37 O 0.89399 0.83428 0.37131 0.0
O38 O 0.89592 0.82154 0.33516 0.0
C39 C 0.9092 0.87526 0.411 0.0
O40 O 0.92467 0.86111 0.40203 0.0
C41 C 0.84305 0.86976 0.34141 0.0
Zn42 Zn 0.57953 0.39795 0.86945 0.0
Zn43 Zn 0.6231 0.40932 0.88194 0.0
O44 O 0.62628 0.37469 0.87444 0.0
O45 O 0.59197 0.36445 0.86275 0.0
O46 O 0.65494 0.41742 0.89117 0.0
O47 O 0.58024 0.4271 0.84765 0.0
O48 O 0.61611 0.4335 0.85718 0.0
C49 C 0.61259 0.359 0.86763 0.0
C50 C 0.58431 0.41166 0.91758 0.0
O51 O 0.60493 0.41492 0.9113 0.0
O52 O 0.56976 0.40378 0.90327 0.0
C53 C 0.66357 0.40913 0.90972 0.0
O54 O 0.65113 0.39548 0.92293 0.0
C55 C 0.59818 0.43939 0.84601 0.0
Zn56 Zn 0.13186 0.92862 0.62834 0.0
Zn57 Zn 0.12742 0.88193 0.62575 0.0
O58 O 0.16074 0.88617 0.63559 0.0
O59 O 0.16624 0.92384 0.63739 0.0
O60 O 0.12752 0.84741 0.62484 0.0
O61 O 0.10242 0.92848 0.64925 0.0
O62 O 0.09987 0.89046 0.64606 0.0
C63 C 0.17416 0.9032 0.6385 0.0
C64 C 0.12237 0.91116 0.58198 0.0
O65 O 0.12224 0.89158 0.59234 0.0
O66 O 0.12617 0.92972 0.59326 0.0
C67 C 0.11541 0.83374 0.61276 0.0
O68 O 0.09907 0.84212 0.59935 0.0
C69 C 0.09158 0.90976 0.65318 0.0
Zn70 Zn 0.58611 0.62234 0.13944 0.0
Zn71 Zn 0.63094 0.61125 0.13291 0.0
O72 O 0.63219 0.64596 0.14106 0.0
O73 O 0.59636 0.65583 0.14794 0.0
O74 O 0.66403 0.60333 0.12841 0.0
O75 O 0.58371 0.5934 0.16102 0.0
O76 O 0.62037 0.58614 0.15559 0.0
C77 C 0.61727 0.66152 0.14589 0.0
C78 C 0.59774 0.60957 0.09208 0.0
O79 O 0.61753 0.60651 0.10089 0.0
O80 O 0.58119 0.61659 0.10466 0.0
C81 C 0.67497 0.61294 0.11194 0.0
O82 O 0.66419 0.62769 0.0982 0.0
C83 C 0.60118 0.58048 0.16438 0.0
Zn84 Zn 0.87848 0.07945 0.62969 0.0
Zn85 Zn 0.8805 0.12657 0.63349 0.0
O86 O 0.84829 0.12075 0.64594 0.0
O87 O 0.84407 0.0834 0.6393 0.0
O88 O 0.88075 0.16122 0.63349 0.0
O89 O 0.90817 0.07864 0.65012 0.0
O90 O 0.90949 0.11687 0.65107 0.0
C91 C 0.83549 0.10302 0.645 0.0
C92 C 0.88376 0.1022 0.58592 0.0
O93 O 0.88258 0.11995 0.59907 0.0
O94 O 0.88338 0.08191 0.59458 0.0
C95 C 0.86427 0.1706 0.62237 0.0
O96 O 0.84922 0.15725 0.61198 0.0
C97 C 0.91856 0.09718 0.65576 0.0
Zn98 Zn 0.41841 0.3907 0.14326 0.0
Zn99 Zn 0.37361 0.40109 0.13501 0.0
O100 O 0.37255 0.3665 0.14356 0.0
O101 O 0.40828 0.35711 0.15156 0.0
O102 O 0.3406 0.40853 0.12925 0.0
O103 O 0.41955 0.41993 0.16462 0.0
O104 O 0.38304 0.4266 0.15769 0.0
C105 C 0.38751 0.35116 0.14891 0.0
C106 C 0.4082 0.40257 0.09536 0.0
O107 O 0.38808 0.40548 0.10344 0.0
O108 O 0.42442 0.39606 0.10861 0.0
C109 C 0.33031 0.39854 0.11259 0.0
O110 O 0.34168 0.38369 0.09945 0.0
C111 C 0.40179 0.43264 0.16715 0.0
Zn112 Zn 0.33182 0.13866 0.1266 0.0
Zn113 Zn 0.37494 0.13493 0.11104 0.0
O114 O 0.35702 0.10924 0.09428 0.0
O115 O 0.32085 0.11305 0.1042 0.0
O116 O 0.40602 0.13258 0.09656 0.0
O117 O 0.33242 0.17441 0.12137 0.0
O118 O 0.36795 0.16996 0.10946 0.0
C119 C 0.33646 0.10205 0.09329 0.0
C120 C 0.36606 0.12317 0.16095 0.0
O121 O 0.38044 0.12599 0.14457 0.0
O122 O 0.34485 0.1269 0.15755 0.0
C123 C 0.41606 0.11294 0.09495 0.0
O124 O 0.40564 0.09425 0.1026 0.0
C125 C 0.3512 0.18329 0.11479 0.0
Zn126 Zn 0.38323 0.87197 0.58397 0.0
Zn127 Zn 0.38623 0.8741 0.63057 0.0
O128 O 0.35257 0.86627 0.62477 0.0
O129 O 0.34839 0.8649 0.58685 0.0
O130 O 0.38555 0.87377 0.66514 0.0
O131 O 0.4114 0.84939 0.58414 0.0
O132 O 0.41362 0.85314 0.62215 0.0
C133 C 0.33965 0.86426 0.6071 0.0
C134 C 0.394 0.91776 0.60249 0.0
O135 O 0.39264 0.90753 0.62208 0.0
O136 O 0.39089 0.90654 0.58375 0.0
C137 C 0.39734 0.88587 0.6791 0.0
O138 O 0.41317 0.89982 0.671 0.0
C139 C 0.42196 0.84543 0.60312 0.0
Zn140 Zn 0.67825 0.87331 0.12749 0.0
Zn141 Zn 0.63474 0.87697 0.1126 0.0
O142 O 0.6515 0.90284 0.09514 0.0
O143 O 0.68773 0.89975 0.1051 0.0
O144 O 0.6031 0.87831 0.09971 0.0
O145 O 0.67772 0.83755 0.12146 0.0
O146 O 0.64201 0.84218 0.11028 0.0
C147 C 0.67191 0.91041 0.09414 0.0
C148 C 0.64458 0.88781 0.16271 0.0
O149 O 0.63014 0.88553 0.14632 0.0
O150 O 0.66576 0.88405 0.1591 0.0
C151 C 0.5921 0.89717 0.0963 0.0
O152 O 0.60203 0.91714 0.1007 0.0
C153 C 0.65885 0.82877 0.11502 0.0
Zn154 Zn 0.62717 0.13342 0.58715 0.0
Zn155 Zn 0.6222 0.12831 0.63378 0.0
O156 O 0.65605 0.13698 0.6306 0.0
O157 O 0.66171 0.14038 0.59298 0.0
O158 O 0.62002 0.12411 0.66812 0.0
O159 O 0.59881 0.15582 0.58838 0.0
O160 O 0.59571 0.15052 0.62615 0.0
C161 C 0.66963 0.14001 0.61359 0.0
C162 C 0.6156 0.08682 0.60153 0.0
O163 O 0.61598 0.09606 0.62164 0.0
O164 O 0.61985 0.0989 0.58358 0.0
C165 C 0.63495 0.11091 0.67753 0.0
O166 O 0.65011 0.1002 0.66431 0.0
C167 C 0.58795 0.1592 0.60731 0.0
Zn168 Zn 0.33496 0.85555 0.88861 0.0
Zn169 Zn 0.37971 0.86348 0.89714 0.0
O170 O 0.36274 0.88766 0.91694 0.0
O171 O 0.32603 0.88293 0.91041 0.0
O172 O 0.41229 0.8708 0.90454 0.0
O173 O 0.34061 0.82087 0.89713 0.0
O174 O 0.3773 0.82811 0.90149 0.0
C175 C 0.34209 0.89432 0.91985 0.0
C176 C 0.36151 0.87068 0.84842 0.0
O177 O 0.37782 0.87145 0.86304 0.0
O178 O 0.34171 0.86426 0.85476 0.0
C179 C 0.41859 0.89156 0.90061 0.0
O180 O 0.40363 0.90663 0.89227 0.0
C181 C 0.36099 0.81356 0.90041 0.0
Zn182 Zn 0.6309 0.82801 0.35991 0.0
Zn183 Zn 0.63026 0.87006 0.37887 0.0
O184 O 0.60245 0.85281 0.39275 0.0
O185 O 0.60482 0.81656 0.38086 0.0
O186 O 0.62961 0.90077 0.39517 0.0
O187 O 0.66584 0.82586 0.3654 0.0
O188 O 0.66404 0.86013 0.3823 0.0
C189 C 0.59424 0.83233 0.39212 0.0
C190 C 0.62045 0.86586 0.32775 0.0
O191 O 0.62443 0.87882 0.34519 0.0
O192 O 0.62107 0.84387 0.32977 0.0
C193 C 0.61106 0.91235 0.39691 0.0
O194 O 0.59206 0.90354 0.38854 0.0
C195 C 0.67588 0.84293 0.37489 0.0
Zn196 Zn 0.67995 0.14838 0.8888 0.0
Zn197 Zn 0.63455 0.14202 0.89562 0.0
O198 O 0.64938 0.11681 0.91585 0.0
O199 O 0.68652 0.12115 0.91167 0.0
O200 O 0.60114 0.13846 0.90166 0.0
O201 O 0.67542 0.18371 0.89589 0.0
O202 O 0.63868 0.17697 0.90012 0.0
C203 C 0.66975 0.10981 0.91987 0.0
C204 C 0.65442 0.13291 0.84797 0.0
O205 O 0.63736 0.13364 0.86173 0.0
O206 O 0.67425 0.13832 0.85511 0.0
C207 C 0.59153 0.11883 0.90382 0.0
O208 O 0.60398 0.09969 0.90265 0.0
C209 C 0.65513 0.19131 0.89904 0.0
Zn210 Zn 0.37449 0.17223 0.36153 0.0
Zn211 Zn 0.37488 0.12898 0.37771 0.0
O212 O 0.40229 0.14519 0.39341 0.0
O213 O 0.40037 0.18208 0.38361 0.0
O214 O 0.3748 0.09742 0.3922 0.0
O215 O 0.33939 0.17409 0.36653 0.0
O216 O 0.34103 0.13869 0.38087 0.0
C217 C 0.41062 0.16561 0.39415 0.0
C218 C 0.38604 0.13643 0.3273 0.0
O219 O 0.38181 0.12232 0.34377 0.0
O220 O 0.38497 0.15824 0.33068 0.0
C221 C 0.393 0.08536 0.39442 0.0
O222 O 0.41262 0.09407 0.38754 0.0
C223 C 0.32924 0.15635 0.37456 0.0
Zn224 Zn 0.07211 0.37283 0.11274 0.0
Zn225 Zn 0.11671 0.38161 0.10178 0.0
O226 O 0.11834 0.37362 0.13637 0.0
O227 O 0.08306 0.3651 0.14637 0.0
O228 O 0.1496 0.38763 0.0946 0.0
O229 O 0.07147 0.35112 0.08366 0.0
O230 O 0.10789 0.35802 0.07705 0.0
C231 C 0.10389 0.36816 0.15197 0.0
C232 C 0.081 0.42059 0.09979 0.0
O233 O 0.10122 0.41273 0.09666 0.0
O234 O 0.06526 0.40734 0.10704 0.0
C235 C 0.15996 0.40338 0.10586 0.0
O236 O 0.14853 0.41579 0.12126 0.0
C237 C 0.08927 0.3483 0.07118 0.0
Zn238 Zn 0.09112 0.64457 0.89573 0.0
Zn239 Zn 0.13536 0.63374 0.90593 0.0
O240 O 0.13689 0.64165 0.87115 0.0
O241 O 0.10175 0.65224 0.862 0.0
O242 O 0.16808 0.62673 0.91358 0.0
O243 O 0.0906 0.66602 0.92496 0.0
O244 O 0.12679 0.6572 0.93121 0.0
C245 C 0.12232 0.64801 0.85588 0.0
C246 C 0.09907 0.59621 0.9081 0.0
O247 O 0.11955 0.60306 0.9109 0.0
O248 O 0.0836 0.61033 0.90137 0.0
C249 C 0.17816 0.60897 0.90512 0.0
O250 O 0.16679 0.59503 0.89124 0.0
C251 C 0.10848 0.66766 0.93745 0.0
Zn252 Zn 0.841 0.61451 0.37081 0.0
Zn253 Zn 0.88525 0.60126 0.37443 0.0
O254 O 0.86923 0.58402 0.40097 0.0
O255 O 0.8326 0.59263 0.39808 0.0
O256 O 0.91753 0.58985 0.37611 0.0
O257 O 0.84216 0.60734 0.33528 0.0
O258 O 0.87824 0.59722 0.33989 0.0
C259 C 0.84889 0.58249 0.4088 0.0
C260 C 0.87301 0.65147 0.38314 0.0
O261 O 0.88812 0.6355 0.38133 0.0
O262 O 0.85197 0.64696 0.38012 0.0
C263 C 0.92829 0.58682 0.39509 0.0
O264 O 0.91772 0.5906 0.41496 0.0
C265 C 0.86126 0.60113 0.32652 0.0
Zn266 Zn 0.91532 0.35888 0.90063 0.0
Zn267 Zn 0.87223 0.37314 0.91223 0.0
O268 O 0.86881 0.36554 0.87762 0.0
O269 O 0.90281 0.35248 0.86724 0.0
O270 O 0.84063 0.38343 0.92069 0.0
O271 O 0.91434 0.33729 0.92987 0.0
O272 O 0.87894 0.34862 0.93688 0.0
C273 C 0.88238 0.35819 0.86186 0.0
C274 C 0.91176 0.40741 0.91362 0.0
O275 O 0.89094 0.40203 0.91701 0.0
O276 O 0.92597 0.39232 0.90614 0.0
C277 C 0.83222 0.40199 0.91209 0.0
O278 O 0.84471 0.41447 0.89781 0.0
C279 C 0.89653 0.33672 0.94261 0.0
Zn280 Zn 0.16634 0.38823 0.36251 0.0
Zn281 Zn 0.12166 0.40028 0.36693 0.0
O282 O 0.13732 0.41774 0.39349 0.0
O283 O 0.17412 0.41015 0.38998 0.0
O284 O 0.08876 0.40924 0.37005 0.0
O285 O 0.16377 0.39598 0.32718 0.0
O286 O 0.12769 0.40589 0.33246 0.0
C287 C 0.15771 0.41975 0.40104 0.0
C288 C 0.13601 0.35008 0.37413 0.0
O289 O 0.12058 0.36576 0.3727 0.0
O290 O 0.15695 0.35514 0.37131 0.0
C291 C 0.07871 0.40879 0.38966 0.0
O292 O 0.09059 0.40371 0.40844 0.0
C293 C 0.14454 0.4023 0.31881 0.0
Zn294 Zn 0.93439 0.62825 0.11986 0.0
Zn295 Zn 0.88953 0.62157 0.10919 0.0
O296 O 0.88851 0.6289 0.14403 0.0
O297 O 0.92417 0.63615 0.15366 0.0
O298 O 0.85637 0.61722 0.10208 0.0
O299 O 0.93601 0.6503 0.09115 0.0
O300 O 0.89929 0.64507 0.08467 0.0
C301 C 0.90332 0.63369 0.15951 0.0
C302 C 0.92343 0.58114 0.10605 0.0
O303 O 0.90352 0.58988 0.10322 0.0
O304 O 0.93972 0.59358 0.1135 0.0
C305 C 0.84536 0.60151 0.11274 0.0
O306 O 0.85622 0.58807 0.12769 0.0
C307 C 0.91829 0.65402 0.07879 0.0
Zn308 Zn 0.81578 0.38339 0.65213 0.0
Zn309 Zn 0.86128 0.38962 0.64603 0.0
O310 O 0.84675 0.40956 0.62036 0.0
O311 O 0.80955 0.40564 0.62429 0.0
O312 O 0.89476 0.39532 0.64252 0.0
O313 O 0.81966 0.39101 0.68739 0.0
O314 O 0.85659 0.39429 0.68098 0.0
C315 C 0.82652 0.41356 0.61302 0.0
C316 C 0.84166 0.34198 0.63801 0.0
O317 O 0.85867 0.35564 0.63833 0.0
O318 O 0.82174 0.34941 0.64311 0.0
C319 C 0.90454 0.39771 0.62291 0.0
O320 O 0.89226 0.39704 0.60376 0.0
C321 C 0.83986 0.39363 0.69518 0.0
Zn322 Zn 0.1861 0.62672 0.64491 0.0
Zn323 Zn 0.14169 0.61711 0.63795 0.0
O324 O 0.15874 0.59783 0.61326 0.0
O325 O 0.19539 0.60462 0.61795 0.0
O326 O 0.10924 0.60807 0.63218 0.0
O327 O 0.18221 0.61909 0.67998 0.0
O328 O 0.14554 0.61375 0.67343 0.0
C329 C 0.17937 0.59512 0.60653 0.0
C330 C 0.15767 0.66597 0.62935 0.0
O331 O 0.1417 0.65108 0.6293 0.0
O332 O 0.17783 0.66008 0.6354 0.0
C333 C 0.10114 0.61143 0.61191 0.0
O334 O 0.11432 0.62049 0.59578 0.0
C335 C 0.16213 0.61556 0.68772 0.0
Zn336 Zn 0.88211 0.91862 0.62608 0.0
Zn337 Zn 0.88787 0.87197 0.62804 0.0
O338 O 0.91467 0.88299 0.6482 0.0
O339 O 0.91071 0.92109 0.64768 0.0
O340 O 0.88943 0.83731 0.62937 0.0
O341 O 0.8478 0.91445 0.63474 0.0
O342 O 0.8539 0.87672 0.63641 0.0
C343 C 0.92212 0.90307 0.65358 0.0
C344 C 0.89402 0.89744 0.582 0.0
O345 O 0.89417 0.87889 0.5941 0.0
O346 O 0.88911 0.91686 0.59132 0.0
C347 C 0.90271 0.82459 0.6172 0.0
O348 O 0.91817 0.83434 0.60382 0.0
C349 C 0.84014 0.894 0.63743 0.0
Zn350 Zn 0.57437 0.37212 0.13287 0.0
Zn351 Zn 0.61919 0.38166 0.12443 0.0
O352 O 0.61112 0.40486 0.14988 0.0
O353 O 0.57445 0.39971 0.15657 0.0
O354 O 0.65201 0.38917 0.11899 0.0
O355 O 0.58456 0.33764 0.1384 0.0
O356 O 0.62018 0.34651 0.13003 0.0
C357 C 0.5927 0.41109 0.16005 0.0
C358 C 0.58339 0.38933 0.08647 0.0
O359 O 0.60376 0.39045 0.09424 0.0
O360 O 0.56744 0.38135 0.09909 0.0
C361 C 0.66299 0.38352 0.10072 0.0
O362 O 0.65256 0.37197 0.08413 0.0
C363 C 0.60522 0.33129 0.13491 0.0
Zn364 Zn 0.12896 0.08585 0.62821 0.0
Zn365 Zn 0.12467 0.13255 0.6331 0.0
O366 O 0.09637 0.12092 0.65075 0.0
O367 O 0.10005 0.08282 0.64918 0.0
O368 O 0.12298 0.16716 0.63514 0.0
O369 O 0.16318 0.08973 0.63758 0.0
O370 O 0.15772 0.1271 0.64381 0.0
C371 C 0.08857 0.10075 0.65521 0.0
C372 C 0.12123 0.10974 0.58505 0.0
O373 O 0.12194 0.12735 0.59842 0.0
O374 O 0.12301 0.08937 0.59339 0.0
C375 C 0.10967 0.17928 0.62243 0.0
O376 O 0.09469 0.16882 0.60905 0.0
C377 C 0.17113 0.10954 0.64292 0.0
Zn378 Zn 0.43063 0.64102 0.13426 0.0
Zn379 Zn 0.38663 0.63056 0.12223 0.0
O380 O 0.39136 0.60795 0.14888 0.0
O381 O 0.42757 0.61333 0.15785 0.0
O382 O 0.35485 0.6245 0.11149 0.0
O383 O 0.41953 0.67555 0.1384 0.0
O384 O 0.38481 0.66552 0.12793 0.0
C385 C 0.40911 0.60196 0.16031 0.0
C386 C 0.42632 0.62225 0.08816 0.0
O387 O 0.40547 0.62103 0.09442 0.0
O388 O 0.4411 0.63129 0.10149 0.0
C389 C 0.34466 0.6051 0.11232 0.0
O390 O 0.35527 0.58675 0.12093 0.0
C391 C 0.39892 0.68121 0.1337 0.0
Zn392 Zn 0.86986 0.14041 0.32213 0.0
Zn393 Zn 0.87522 0.12899 0.36718 0.0
O394 O 0.84166 0.12065 0.36075 0.0
O395 O 0.83659 0.12836 0.32363 0.0
O396 O 0.87883 0.11961 0.40039 0.0
O397 O 0.89986 0.12224 0.31443 0.0
O398 O 0.90299 0.11348 0.35152 0.0
C399 C 0.82845 0.12217 0.34317 0.0
C400 C 0.87592 0.17981 0.35328 0.0
O401 O 0.87814 0.16407 0.36868 0.0
O402 O 0.87244 0.17435 0.33218 0.0
C403 C 0.86698 0.13083 0.41522 0.0
O404 O 0.85297 0.14736 0.40802 0.0
C405 C 0.9111 0.11287 0.33095 0.0
Zn406 Zn 0.42359 0.3554 0.88071 0.0
Zn407 Zn 0.37822 0.36564 0.88458 0.0
O408 O 0.38915 0.38928 0.86061 0.0
O409 O 0.426 0.38214 0.85648 0.0
O410 O 0.3445 0.37178 0.88595 0.0
O411 O 0.41516 0.32075 0.87505 0.0
O412 O 0.37891 0.3304 0.87936 0.0
C413 C 0.40846 0.39459 0.85187 0.0
C414 C 0.40955 0.37343 0.92592 0.0
O415 O 0.38986 0.37428 0.91646 0.0
O416 O 0.42673 0.36566 0.91469 0.0
C417 C 0.33492 0.38796 0.89759 0.0
O418 O 0.34754 0.40232 0.90981 0.0
C419 C 0.39429 0.31482 0.8765 0.0
Zn420 Zn 0.13163 0.85323 0.32525 0.0
Zn421 Zn 0.12848 0.87 0.36879 0.0
O422 O 0.16219 0.87699 0.36182 0.0
O423 O 0.16607 0.86188 0.32683 0.0
O424 O 0.12377 0.88115 0.40121 0.0
O425 O 0.10408 0.87373 0.31521 0.0
O426 O 0.10121 0.88495 0.35164 0.0
C427 C 0.17496 0.87113 0.34476 0.0
C428 C 0.12296 0.81815 0.35984 0.0
O429 O 0.12483 0.83543 0.37348 0.0
O430 O 0.1241 0.821 0.33798 0.0
C431 C 0.12784 0.90123 0.40932 0.0
O432 O 0.13648 0.91731 0.39571 0.0
C433 C 0.09327 0.88474 0.33099 0.0
Zn434 Zn 0.58645 0.64783 0.87542 0.0
Zn435 Zn 0.63182 0.63811 0.88066 0.0
O436 O 0.62199 0.61421 0.85647 0.0
O437 O 0.58512 0.62067 0.85156 0.0
O438 O 0.66546 0.6322 0.88358 0.0
O439 O 0.59489 0.6824 0.86938 0.0
O440 O 0.63111 0.67321 0.87478 0.0
C441 C 0.60297 0.60855 0.84734 0.0
C442 C 0.59931 0.63087 0.9213 0.0
O443 O 0.61923 0.62991 0.9123 0.0
O444 O 0.58238 0.6383 0.9095 0.0
C445 C 0.67427 0.61457 0.89361 0.0
O446 O 0.66086 0.5987 0.90267 0.0
C447 C 0.61567 0.68857 0.87124 0.0
Zn448 Zn 0.67623 0.89925 0.8863 0.0
Zn449 Zn 0.63132 0.90575 0.89443 0.0
O450 O 0.63721 0.87112 0.90045 0.0
O451 O 0.67407 0.86458 0.89609 0.0
O452 O 0.59838 0.9082 0.9032 0.0
O453 O 0.6833 0.92784 0.90707 0.0
O454 O 0.64626 0.93231 0.91259 0.0
C455 C 0.65407 0.85693 0.89997 0.0
C456 C 0.64796 0.91021 0.84522 0.0
O457 O 0.63152 0.91153 0.85972 0.0
O458 O 0.66813 0.90546 0.85216 0.0
C459 C 0.58531 0.92507 0.89766 0.0
O460 O 0.59367 0.94271 0.88595 0.0
C461 C 0.66665 0.93944 0.91557 0.0
Zn462 Zn 0.61647 0.16773 0.36045 0.0
Zn463 Zn 0.61496 0.12459 0.37738 0.0
O464 O 0.64897 0.1327 0.38238 0.0
O465 O 0.6512 0.16781 0.3674 0.0
O466 O 0.6113 0.09279 0.39103 0.0
O467 O 0.58996 0.17886 0.38136 0.0
O468 O 0.58742 0.14226 0.39185 0.0
C469 C 0.66101 0.14999 0.3761 0.0
C470 C 0.60725 0.13222 0.32593 0.0
O471 O 0.61033 0.11845 0.34299 0.0
O472 O 0.60775 0.15407 0.32895 0.0
C473 C 0.62518 0.0824 0.40463 0.0
O474 O 0.64406 0.0928 0.41119 0.0
C475 C 0.57933 0.16294 0.39205 0.0
Zn476 Zn 0.32999 0.10555 0.89086 0.0
Zn477 Zn 0.37534 0.09823 0.89838 0.0
O478 O 0.36978 0.1327 0.90583 0.0
O479 O 0.33307 0.13995 0.90134 0.0
O480 O 0.40895 0.09512 0.90458 0.0
O481 O 0.32377 0.0764 0.91123 0.0
O482 O 0.36082 0.07154 0.91657 0.0
C483 C 0.35315 0.14717 0.90555 0.0
C484 C 0.3571 0.09503 0.84929 0.0
O485 O 0.37354 0.09314 0.86369 0.0
O486 O 0.33706 0.1001 0.85637 0.0
C487 C 0.42108 0.11056 0.89481 0.0
O488 O 0.411 0.12627 0.8816 0.0
C489 C 0.34037 0.06454 0.91949 0.0
Zn490 Zn 0.38826 0.82877 0.3574 0.0
Zn491 Zn 0.38877 0.87171 0.37558 0.0
O492 O 0.35513 0.86229 0.38063 0.0
O493 O 0.35361 0.82752 0.36477 0.0
O494 O 0.39157 0.90346 0.38978 0.0
O495 O 0.41528 0.81817 0.37793 0.0
O496 O 0.41671 0.85448 0.38969 0.0
C497 C 0.34346 0.84483 0.37408 0.0
C498 C 0.39641 0.86547 0.32382 0.0
O499 O 0.39319 0.87867 0.34131 0.0
O500 O 0.39632 0.84352 0.32619 0.0
C501 C 0.37553 0.91513 0.39931 0.0
O502 O 0.35501 0.90611 0.40107 0.0
C503 C 0.42538 0.83404 0.38921 0.0
Zn504 Zn 0.66893 0.1193 0.12405 0.0
Zn505 Zn 0.62548 0.11356 0.10937 0.0
O506 O 0.63076 0.14854 0.10471 0.0
O507 O 0.66637 0.15434 0.11552 0.0
O508 O 0.5937 0.10844 0.09752 0.0
O509 O 0.67989 0.09212 0.10324 0.0
O510 O 0.64388 0.08743 0.09331 0.0
C511 C 0.6472 0.16244 0.10863 0.0
C512 C 0.63621 0.10676 0.16032 0.0
O513 O 0.62178 0.10753 0.14376 0.0
O514 O 0.65728 0.11049 0.15648 0.0
C515 C 0.584 0.12051 0.08176 0.0
O516 O 0.59523 0.13751 0.07175 0.0
C517 C 0.66469 0.08052 0.09266 0.0
Zn518 Zn 0.37991 0.13689 0.58871 0.0
Zn519 Zn 0.38391 0.13373 0.63543 0.0
O520 O 0.41105 0.15465 0.62719 0.0
O521 O 0.40796 0.15894 0.58926 0.0
O522 O 0.38417 0.13134 0.67004 0.0
O523 O 0.34531 0.14468 0.59288 0.0
O524 O 0.35012 0.14261 0.63072 0.0
C525 C 0.4189 0.1625 0.60805 0.0
C526 C 0.39127 0.09072 0.60539 0.0
O527 O 0.39021 0.10069 0.62513 0.0
O528 O 0.38763 0.10223 0.58689 0.0
C529 C 0.39635 0.11712 0.6817 0.0
O530 O 0.41174 0.10413 0.67101 0.0
C531 C 0.33692 0.14521 0.61329 0.0
Zn532 Zn 0.33353 0.89204 0.12307 0.0
Zn533 Zn 0.37745 0.89702 0.10899 0.0
O534 O 0.37073 0.86279 0.10217 0.0
O535 O 0.33551 0.85696 0.11411 0.0
O536 O 0.40971 0.90046 0.09771 0.0
O537 O 0.32411 0.9201 0.10244 0.0
O538 O 0.36046 0.92427 0.09344 0.0
C539 C 0.35433 0.84892 0.10623 0.0
C540 C 0.3661 0.90226 0.16011 0.0
O541 O 0.38074 0.90138 0.14372 0.0
O542 O 0.34493 0.8997 0.15584 0.0
C543 C 0.42365 0.8839 0.10199 0.0
O544 O 0.41642 0.8656 0.11346 0.0
C545 C 0.33982 0.93162 0.09251 0.0
Zn546 Zn 0.63086 0.86762 0.58374 0.0
Zn547 Zn 0.62679 0.87191 0.6304 0.0
O548 O 0.59948 0.85095 0.62271 0.0
O549 O 0.60251 0.84594 0.58486 0.0
O550 O 0.62634 0.87534 0.66497 0.0
O551 O 0.66539 0.85963 0.58819 0.0
O552 O 0.66063 0.86268 0.62598 0.0
C553 C 0.59152 0.84285 0.60373 0.0
C554 C 0.61969 0.91418 0.59915 0.0
O555 O 0.62057 0.90465 0.61912 0.0
O556 O 0.62347 0.90227 0.58093 0.0
C557 C 0.61317 0.88881 0.67645 0.0
O558 O 0.59696 0.90054 0.66559 0.0
C559 C 0.67379 0.85955 0.60859 0.0
Zn560 Zn 0.93683 0.62099 0.87131 0.0
Zn561 Zn 0.89101 0.61819 0.88014 0.0
O562 O 0.90146 0.64248 0.90357 0.0
O563 O 0.93863 0.6452 0.89816 0.0
O564 O 0.85702 0.61794 0.88486 0.0
O565 O 0.92929 0.62701 0.83645 0.0
O566 O 0.89286 0.62287 0.84492 0.0
C567 C 0.92075 0.65067 0.90962 0.0
C568 C 0.92185 0.5763 0.8893 0.0
O569 O 0.90232 0.58635 0.88984 0.0
O570 O 0.93924 0.58687 0.88149 0.0
C571 C 0.84571 0.60345 0.89688 0.0
O572 O 0.85652 0.58668 0.90802 0.0
C573 C 0.90857 0.62565 0.82984 0.0
Zn574 Zn 0.91592 0.36723 0.15059 0.0
Zn575 Zn 0.87189 0.37877 0.13943 0.0
O576 O 0.87853 0.35177 0.11745 0.0
O577 O 0.91469 0.34284 0.12372 0.0
O578 O 0.83963 0.38723 0.13131 0.0
O579 O 0.90487 0.36373 0.18499 0.0
O580 O 0.87013 0.37468 0.17477 0.0
C581 C 0.89644 0.34025 0.11196 0.0
C582 C 0.91038 0.41337 0.13124 0.0
O583 O 0.88955 0.40718 0.12985 0.0
O584 O 0.92527 0.39993 0.14027 0.0
C585 C 0.83235 0.38713 0.11046 0.0
O586 O 0.84644 0.38165 0.09343 0.0
C587 C 0.88442 0.36917 0.19061 0.0
Zn588 Zn 0.1669 0.39138 0.61303 0.0
Zn589 Zn 0.12125 0.39744 0.60603 0.0
O590 O 0.12641 0.40565 0.64029 0.0
O591 O 0.16331 0.40263 0.64712 0.0
O592 O 0.08738 0.40226 0.60309 0.0
O593 O 0.17225 0.41135 0.58342 0.0
O594 O 0.13503 0.41583 0.57902 0.0
C595 C 0.14308 0.40627 0.65452 0.0
C596 C 0.14151 0.34884 0.60369 0.0
O597 O 0.12458 0.36275 0.60152 0.0
O598 O 0.16125 0.35656 0.60853 0.0
C599 C 0.07568 0.39205 0.61863 0.0
O600 O 0.08635 0.3794 0.63439 0.0
C601 C 0.15536 0.41915 0.57174 0.0
Zn602 Zn 0.08824 0.63405 0.14647 0.0
Zn603 Zn 0.13238 0.62276 0.1341 0.0
O604 O 0.12424 0.64907 0.11176 0.0
O605 O 0.08849 0.65851 0.11952 0.0
O606 O 0.16435 0.61366 0.12488 0.0
O607 O 0.10056 0.63761 0.18043 0.0
O608 O 0.13535 0.62772 0.16927 0.0
C609 C 0.10628 0.66078 0.10697 0.0
C610 C 0.09368 0.58789 0.12735 0.0
O611 O 0.11443 0.59424 0.12565 0.0
O612 O 0.07876 0.60125 0.13648 0.0
C613 C 0.17769 0.62791 0.11496 0.0
O614 O 0.17056 0.64927 0.1109 0.0
C615 C 0.12133 0.63294 0.18546 0.0
Zn616 Zn 0.84296 0.61299 0.62008 0.0
Zn617 Zn 0.88782 0.60513 0.61252 0.0
O618 O 0.88328 0.59859 0.64726 0.0
O619 O 0.84649 0.60248 0.65437 0.0
O620 O 0.92095 0.59741 0.60862 0.0
O621 O 0.83541 0.59268 0.59135 0.0
O622 O 0.87236 0.58709 0.58614 0.0
C623 C 0.86672 0.59871 0.66169 0.0
C624 C 0.87 0.65428 0.6089 0.0
O625 O 0.88651 0.63982 0.60703 0.0
O626 O 0.85009 0.64731 0.61422 0.0
C627 C 0.93235 0.60353 0.59086 0.0
O628 O 0.92191 0.61464 0.57384 0.0
C629 C 0.85179 0.58427 0.57935 0.0
Zn630 Zn 0.07326 0.38254 0.86407 0.0
Zn631 Zn 0.11906 0.38467 0.87267 0.0
O632 O 0.10828 0.36052 0.89613 0.0
O633 O 0.07112 0.35799 0.89054 0.0
O634 O 0.15297 0.38482 0.87747 0.0
O635 O 0.08066 0.37695 0.82909 0.0
O636 O 0.11721 0.38014 0.83745 0.0
C637 C 0.08893 0.35239 0.90206 0.0
C638 C 0.08895 0.42696 0.88216 0.0
O639 O 0.10837 0.41672 0.8823 0.0
O640 O 0.07131 0.41652 0.87477 0.0
C641 C 0.16338 0.39632 0.89304 0.0
O642 O 0.15158 0.40922 0.90773 0.0
C643 C 0.1014 0.37791 0.82241 0.0
Zn644 Zn 0.18637 0.61847 0.39522 0.0
Zn645 Zn 0.1427 0.60415 0.39922 0.0
O646 O 0.1507 0.59696 0.36523 0.0
O647 O 0.18589 0.60914 0.36018 0.0
O648 O 0.11063 0.59243 0.402 0.0
O649 O 0.19537 0.59869 0.42402 0.0
O650 O 0.15901 0.58978 0.42753 0.0
C651 C 0.16745 0.60115 0.35171 0.0
C652 C 0.15269 0.65538 0.40332 0.0
O653 O 0.13839 0.63886 0.4024 0.0
O654 O 0.17404 0.65125 0.40177 0.0
C655 C 0.09708 0.59697 0.38527 0.0
O656 O 0.10464 0.60889 0.36737 0.0
C657 C 0.17938 0.58918 0.4355 0.0
Zn658 Zn 0.81778 0.38592 0.39871 0.0
Zn659 Zn 0.86308 0.39002 0.4064 0.0
O660 O 0.85794 0.39901 0.37219 0.0
O661 O 0.82102 0.39866 0.36511 0.0
O662 O 0.89656 0.39604 0.41014 0.0
O663 O 0.81142 0.4043 0.42926 0.0
O664 O 0.84863 0.40701 0.43424 0.0
C665 C 0.84143 0.40107 0.35785 0.0
C666 C 0.84365 0.34205 0.40514 0.0
O667 O 0.86071 0.35511 0.40895 0.0
O668 O 0.82409 0.35084 0.40069 0.0
C669 C 0.9096 0.38863 0.394 0.0
O670 O 0.90072 0.37684 0.37666 0.0
C671 C 0.82832 0.41078 0.44154 0.0
H672 H 0.1615 0.31344 0.39072 0.0
H673 H 0.09081 0.21932 0.3276 0.0
H674 H 0.09515 0.33109 0.36213 0.0
H675 H 0.12649 0.20179 0.39114 0.0
H676 H 0.09388 0.26066 0.33765 0.0
H677 H 0.15119 0.27215 0.38926 0.0
C678 C 0.14469 0.30863 0.38444 0.0
C679 C 0.1292 0.3256 0.37641 0.0
C680 C 0.10067 0.24768 0.34954 0.0
C681 C 0.11759 0.27875 0.37427 0.0
C682 C 0.099 0.22419 0.34378 0.0
C683 C 0.10848 0.20724 0.35853 0.0
C684 C 0.11249 0.25415 0.36977 0.0
C685 C 0.11891 0.21438 0.37934 0.0
C686 C 0.1388 0.28517 0.3837 0.0
C687 C 0.10759 0.31851 0.36849 0.0
N688 N 0.12108 0.23739 0.38414 0.0
N689 N 0.10258 0.29554 0.36716 0.0
H690 H 0.31971 0.56891 0.89005 0.0
H691 H 0.2062 0.63381 0.93384 0.0
H692 H 0.31971 0.62736 0.93733 0.0
H693 H 0.2062 0.5751 0.88687 0.0
H694 H 0.24749 0.62896 0.93875 0.0
H695 H 0.27799 0.56804 0.89226 0.0
C696 C 0.31095 0.58143 0.90108 0.0
C697 C 0.3232 0.59844 0.9133 0.0
C698 C 0.23845 0.61702 0.9275 0.0
C699 C 0.2754 0.59762 0.91578 0.0
C700 C 0.21486 0.61979 0.92466 0.0
C701 C 0.20278 0.605 0.90969 0.0
C702 C 0.25007 0.5994 0.9152 0.0
C703 C 0.21486 0.58702 0.89843 0.0
C704 C 0.28711 0.58093 0.90233 0.0
C705 C 0.31095 0.61407 0.92748 0.0
N706 N 0.23789 0.58485 0.90126 0.0
N707 N 0.2877 0.61344 0.92814 0.0
H708 H 0.91787 0.78088 0.33548 0.0
H709 H 0.84798 0.68801 0.40052 0.0
H710 H 0.88021 0.79995 0.39741 0.0
H711 H 0.91424 0.67022 0.37177 0.0
H712 H 0.85834 0.72923 0.39912 0.0
H713 H 0.9162 0.73999 0.3474 0.0
C714 C 0.90955 0.77645 0.35174 0.0
C715 C 0.89901 0.79368 0.36542 0.0
C716 C 0.87074 0.71622 0.39358 0.0
C717 C 0.89666 0.7472 0.37882 0.0
C718 C 0.86482 0.69277 0.39427 0.0
C719 C 0.8802 0.67578 0.38605 0.0
C720 C 0.89189 0.72262 0.38399 0.0
C721 C 0.90186 0.68281 0.37823 0.0
C722 C 0.9087 0.75321 0.35857 0.0
C723 C 0.88853 0.78712 0.38639 0.0
N724 N 0.9069 0.70579 0.37689 0.0
N725 N 0.88716 0.76428 0.39223 0.0
H726 H 0.80668 0.43656 0.89159 0.0
H727 H 0.68939 0.38911 0.94426 0.0
H728 H 0.80246 0.38104 0.94207 0.0
H729 H 0.69343 0.43754 0.88692 0.0
H730 H 0.73087 0.39175 0.94918 0.0
H731 H 0.76536 0.44282 0.89525 0.0
C732 C 0.79712 0.42587 0.90365 0.0
C733 C 0.80794 0.40798 0.91624 0.0
C734 C 0.72263 0.40198 0.93568 0.0
C735 C 0.76074 0.415 0.92045 0.0
C736 C 0.69895 0.40051 0.93289 0.0
C737 C 0.68802 0.41281 0.91489 0.0
C738 C 0.73541 0.41584 0.92037 0.0
C739 C 0.70122 0.42748 0.9008 0.0
C740 C 0.77353 0.42943 0.9057 0.0
C741 C 0.79475 0.3948 0.93175 0.0
N742 N 0.72427 0.4284 0.90369 0.0
N743 N 0.77179 0.39842 0.93325 0.0
H744 H 0.18616 0.70337 0.63201 0.0
H745 H 0.09076 0.79718 0.59482 0.0
H746 H 0.11712 0.68428 0.6133 0.0
H747 H 0.15362 0.81338 0.63084 0.0
H748 H 0.10163 0.75574 0.59591 0.0
H749 H 0.17614 0.74409 0.62537 0.0
C750 C 0.16893 0.70771 0.62635 0.0
C751 C 0.15238 0.69042 0.62347 0.0
C752 C 0.11298 0.76847 0.60351 0.0
C753 C 0.14078 0.73703 0.61593 0.0
C754 C 0.1068 0.79205 0.6029 0.0
C755 C 0.12121 0.8087 0.61292 0.0
C756 C 0.13379 0.76172 0.61396 0.0
C757 C 0.14185 0.80116 0.62309 0.0
C758 C 0.1632 0.73098 0.62263 0.0
C759 C 0.13035 0.69709 0.61596 0.0
N760 N 0.1475 0.77826 0.62333 0.0
N761 N 0.12513 0.71993 0.61255 0.0
H762 H 0.70415 0.63259 0.08039 0.0
H763 H 0.8158 0.57282 0.1358 0.0
H764 H 0.70232 0.58336 0.13718 0.0
H765 H 0.81782 0.62644 0.08314 0.0
H766 H 0.77402 0.57292 0.13319 0.0
H767 H 0.74562 0.62708 0.07792 0.0
C768 C 0.71244 0.62051 0.09224 0.0
C769 C 0.69979 0.60859 0.10917 0.0
C770 C 0.78362 0.58455 0.1221 0.0
C771 C 0.74723 0.60224 0.10646 0.0
C772 C 0.80748 0.58447 0.12355 0.0
C773 C 0.8203 0.59982 0.10984 0.0
C774 C 0.77252 0.60008 0.10684 0.0
C775 C 0.80861 0.61445 0.09419 0.0
C776 C 0.73612 0.61739 0.09083 0.0
C777 C 0.71142 0.59306 0.12398 0.0
N778 N 0.78537 0.61433 0.09323 0.0
N779 N 0.73451 0.59044 0.12237 0.0
H780 H 0.82669 0.19544 0.60826 0.0
H781 H 0.8826 0.31893 0.63411 0.0
H782 H 0.89511 0.20363 0.63554 0.0
H783 H 0.80948 0.30851 0.62985 0.0
H784 H 0.88865 0.27733 0.6278 0.0
H785 H 0.82142 0.23767 0.60942 0.0
C786 C 0.84066 0.20613 0.61435 0.0
C787 C 0.86133 0.19606 0.62197 0.0
C788 C 0.8713 0.28419 0.62817 0.0
C789 C 0.85542 0.24423 0.62322 0.0
C790 C 0.86781 0.30793 0.63168 0.0
C791 C 0.84547 0.31715 0.63269 0.0
C792 C 0.85234 0.26963 0.62544 0.0
C793 C 0.82697 0.30208 0.62939 0.0
C794 C 0.8376 0.23019 0.61507 0.0
C795 C 0.87885 0.2107 0.62969 0.0
N796 N 0.83083 0.279 0.62593 0.0
N797 N 0.87549 0.2341 0.63012 0.0
H798 H 0.30192 0.42844 0.13625 0.0
H799 H 0.18863 0.38061 0.0756 0.0
H800 H 0.30228 0.37775 0.08071 0.0
H801 H 0.1883 0.43193 0.13056 0.0
H802 H 0.23039 0.3822 0.07457 0.0
H803 H 0.2605 0.43269 0.13189 0.0
C804 C 0.29331 0.4183 0.12304 0.0
C805 C 0.30554 0.40253 0.10898 0.0
C806 C 0.22119 0.39326 0.08673 0.0
C807 C 0.25812 0.40728 0.10394 0.0
C808 C 0.19733 0.39237 0.08732 0.0
C809 C 0.18498 0.40597 0.10338 0.0
C810 C 0.23279 0.40777 0.10237 0.0
C811 C 0.19714 0.42101 0.11801 0.0
C812 C 0.26965 0.42076 0.12054 0.0
C813 C 0.29352 0.38999 0.09204 0.0
N814 N 0.2204 0.42135 0.11731 0.0
N815 N 0.27043 0.3925 0.09011 0.0
H816 H 0.40804 0.13207 0.1797 0.0
H817 H 0.36971 0.09647 0.30803 0.0
H818 H 0.34246 0.10186 0.19587 0.0
H819 H 0.41059 0.15677 0.29257 0.0
H820 H 0.36975 0.08649 0.26649 0.0
H821 H 0.41868 0.12899 0.22089 0.0
C822 C 0.39611 0.12429 0.19181 0.0
C823 C 0.37418 0.11759 0.18456 0.0
C824 C 0.37913 0.10158 0.27236 0.0
C825 C 0.38636 0.11376 0.23127 0.0
C826 C 0.37921 0.10723 0.29598 0.0
C827 C 0.38985 0.12768 0.30354 0.0
C828 C 0.39015 0.11624 0.25646 0.0
C829 C 0.40187 0.14107 0.28729 0.0
C830 C 0.40218 0.12259 0.21523 0.0
C831 C 0.35938 0.10759 0.2009 0.0
N832 N 0.40156 0.13521 0.26441 0.0
N833 N 0.36567 0.10613 0.2236 0.0
H834 H 0.36074 0.86512 0.69949 0.0
H835 H 0.40042 0.88919 0.82963 0.0
H836 H 0.42115 0.90488 0.71572 0.0
H837 H 0.33322 0.86432 0.81105 0.0
H838 H 0.40893 0.89479 0.78835 0.0
H839 H 0.35126 0.86384 0.74062 0.0
C840 C 0.37208 0.87357 0.71173 0.0
C841 C 0.39187 0.88505 0.70416 0.0
C842 C 0.39227 0.8883 0.79335 0.0
C843 C 0.38098 0.88366 0.75145 0.0
C844 C 0.38739 0.88505 0.81689 0.0
C845 C 0.36612 0.87608 0.82377 0.0
C846 C 0.37585 0.88231 0.77661 0.0
C847 C 0.34986 0.87119 0.80654 0.0
C848 C 0.36655 0.87293 0.73524 0.0
C849 C 0.40577 0.89581 0.72083 0.0
N850 N 0.35515 0.87418 0.78374 0.0
N851 N 0.40013 0.89474 0.74379 0.0
H852 H 0.60189 0.88019 0.18036 0.0
H853 H 0.63905 0.90601 0.31131 0.0
H854 H 0.66874 0.90565 0.19929 0.0
H855 H 0.59599 0.84871 0.29129 0.0
H856 H 0.64065 0.91832 0.27042 0.0
H857 H 0.59072 0.88133 0.22145 0.0
C858 C 0.61403 0.88654 0.19308 0.0
C859 C 0.63642 0.89244 0.18655 0.0
C860 C 0.63043 0.90339 0.27516 0.0
C861 C 0.62363 0.89404 0.23324 0.0
C862 C 0.62942 0.89642 0.2984 0.0
C863 C 0.61764 0.87614 0.30448 0.0
C864 C 0.6192 0.89022 0.25815 0.0
C865 C 0.60552 0.86426 0.28716 0.0
C866 C 0.60764 0.88712 0.21646 0.0
C867 C 0.65145 0.90058 0.20371 0.0
N868 N 0.60674 0.8714 0.26468 0.0
N869 N 0.64483 0.90097 0.22637 0.0
H870 H 0.61371 0.12819 0.82511 0.0
H871 H 0.6711 0.0948 0.7033 0.0
H872 H 0.68692 0.12238 0.81506 0.0
H873 H 0.60316 0.12456 0.70979 0.0
H874 H 0.67539 0.09688 0.74561 0.0
H875 H 0.60806 0.11909 0.78401 0.0
C876 C 0.6286 0.12486 0.8143 0.0
C877 C 0.65085 0.12627 0.82345 0.0
C878 C 0.6595 0.10278 0.73774 0.0
C879 C 0.64444 0.11572 0.77653 0.0
C880 C 0.65698 0.10149 0.71364 0.0
C881 C 0.63681 0.10973 0.70306 0.0
C882 C 0.64163 0.11211 0.75127 0.0
C883 C 0.61907 0.11824 0.71726 0.0
C884 C 0.62534 0.11971 0.79086 0.0
C885 C 0.66949 0.1217 0.80865 0.0
N886 N 0.62192 0.11928 0.74068 0.0
N887 N 0.66587 0.11667 0.78585 0.0
H888 H 0.86805 0.80053 0.63764 0.0
H889 H 0.90932 0.67549 0.59411 0.0
H890 H 0.92786 0.79105 0.59417 0.0
H891 H 0.84118 0.69042 0.61986 0.0
H892 H 0.91778 0.71711 0.59546 0.0
H893 H 0.85977 0.75933 0.63376 0.0
C894 C 0.87956 0.78976 0.62738 0.0
C895 C 0.89869 0.79928 0.61618 0.0
C896 C 0.90093 0.71125 0.60061 0.0
C897 C 0.88916 0.75197 0.61158 0.0
C898 C 0.89607 0.68752 0.59984 0.0
C899 C 0.87453 0.67945 0.60701 0.0
C900 C 0.88424 0.72692 0.60887 0.0
C901 C 0.85801 0.69582 0.6142 0.0
C902 C 0.87471 0.76623 0.62504 0.0
C903 C 0.91292 0.78442 0.60308 0.0
N904 N 0.86329 0.71875 0.61515 0.0
N905 N 0.90789 0.76143 0.60116 0.0
H906 H 0.80816 0.37741 0.07073 0.0
H907 H 0.68839 0.40948 0.13069 0.0
H908 H 0.80065 0.40604 0.13986 0.0
H909 H 0.69382 0.36931 0.06732 0.0
H910 H 0.72969 0.4147 0.13036 0.0
H911 H 0.76654 0.38053 0.06551 0.0
C912 C 0.7978 0.38462 0.08468 0.0
C913 C 0.80779 0.39121 0.10588 0.0
C914 C 0.72188 0.40485 0.11643 0.0
C915 C 0.76041 0.39482 0.10002 0.0
C916 C 0.69826 0.40185 0.1166 0.0
C917 C 0.68768 0.38861 0.0992 0.0
C918 C 0.7351 0.39447 0.09879 0.0
C919 C 0.70133 0.37945 0.0812 0.0
C920 C 0.77408 0.38632 0.08171 0.0
C921 C 0.79362 0.40047 0.12335 0.0
N922 N 0.72443 0.38235 0.08158 0.0
N923 N 0.77065 0.40186 0.12008 0.0
H924 H 0.14381 0.20473 0.64219 0.0
H925 H 0.10288 0.32626 0.5894 0.0
H926 H 0.08465 0.21129 0.59739 0.0
H927 H 0.17062 0.31383 0.61731 0.0
H928 H 0.09468 0.28483 0.59358 0.0
H929 H 0.15212 0.24567 0.63575 0.0
C930 C 0.13244 0.21482 0.63113 0.0
C931 C 0.1135 0.20455 0.62028 0.0
C932 C 0.1114 0.29116 0.59857 0.0
C933 C 0.12308 0.25146 0.6127 0.0
C934 C 0.11613 0.31478 0.59616 0.0
C935 C 0.13745 0.32353 0.60312 0.0
C936 C 0.12801 0.27626 0.60827 0.0
C937 C 0.15397 0.30786 0.61172 0.0
C938 C 0.13732 0.23817 0.62732 0.0
C939 C 0.09944 0.21851 0.60608 0.0
N940 N 0.14881 0.28501 0.61427 0.0
N941 N 0.1045 0.24131 0.60271 0.0
H942 H 0.19978 0.58696 0.12563 0.0
H943 H 0.32074 0.63627 0.08606 0.0
H944 H 0.20961 0.65303 0.09134 0.0
H945 H 0.31296 0.57231 0.1246 0.0
H946 H 0.27936 0.63859 0.08129 0.0
H947 H 0.24028 0.57764 0.11933 0.0
C948 C 0.21039 0.59941 0.11658 0.0
C949 C 0.20143 0.62099 0.10935 0.0
C950 C 0.28666 0.62389 0.09058 0.0
C951 C 0.24765 0.61041 0.10207 0.0
C952 C 0.3103 0.62255 0.09331 0.0
C953 C 0.32021 0.60431 0.10615 0.0
C954 C 0.27277 0.60701 0.10099 0.0
C955 C 0.30594 0.58679 0.11478 0.0
C956 C 0.23349 0.59406 0.11297 0.0
C957 C 0.21588 0.63635 0.09753 0.0
N958 N 0.28283 0.58877 0.11238 0.0
N959 N 0.23832 0.63084 0.09445 0.0
H960 H 0.85589 0.21574 0.32968 0.0
H961 H 0.87971 0.31531 0.42073 0.0
H962 H 0.891 0.19948 0.39392 0.0
H963 H 0.81698 0.31179 0.38104 0.0
H964 H 0.88902 0.27531 0.40859 0.0
H965 H 0.8476 0.25474 0.34457 0.0
C966 C 0.86222 0.2205 0.34674 0.0
C967 C 0.8741 0.20435 0.36062 0.0
C968 C 0.87312 0.2833 0.40285 0.0
C969 C 0.86454 0.2488 0.37771 0.0
C970 C 0.86774 0.30601 0.40981 0.0
C971 C 0.84755 0.31686 0.40186 0.0
C972 C 0.85847 0.27177 0.38741 0.0
C973 C 0.83268 0.30408 0.38767 0.0
C974 C 0.85724 0.24263 0.35531 0.0
C975 C 0.88172 0.21142 0.38271 0.0
N976 N 0.83863 0.28234 0.38058 0.0
N977 N 0.87685 0.23323 0.39061 0.0
H978 H 0.19207 0.36946 0.8667 0.0
H979 H 0.30766 0.4183 0.92256 0.0
H980 H 0.19227 0.42072 0.92173 0.0
H981 H 0.30467 0.36251 0.87225 0.0
H982 H 0.26568 0.42079 0.92198 0.0
H983 H 0.23365 0.36798 0.86801 0.0
C984 C 0.20087 0.38042 0.87911 0.0
C985 C 0.18865 0.39524 0.89415 0.0
C986 C 0.27427 0.40802 0.9111 0.0
C987 C 0.23649 0.39364 0.89572 0.0
C988 C 0.29821 0.40662 0.91138 0.0
C989 C 0.30969 0.39016 0.89744 0.0
C990 C 0.26184 0.39292 0.89671 0.0
C991 C 0.2966 0.37545 0.88332 0.0
C992 C 0.22467 0.37955 0.87986 0.0
C993 C 0.20103 0.40902 0.90985 0.0
N994 N 0.27343 0.3772 0.88332 0.0
N995 N 0.22433 0.40792 0.91021 0.0
H996 H 0.10666 0.77862 0.33924 0.0
H997 H 0.17461 0.69423 0.41891 0.0
H998 H 0.13728 0.804 0.40268 0.0
H999 H 0.11206 0.67151 0.38624 0.0
H1000 H 0.16285 0.73474 0.4121 0.0
H1001 H 0.10971 0.73883 0.35448 0.0
C1002 C 0.11375 0.77583 0.35646 0.0
C1003 C 0.12187 0.79453 0.36968 0.0
C1004 C 0.15154 0.72084 0.40685 0.0
C1005 C 0.12575 0.74935 0.38689 0.0
C1006 C 0.15825 0.69781 0.41066 0.0
C1007 C 0.14432 0.6796 0.40301 0.0
C1008 C 0.13114 0.72554 0.39472 0.0
C1009 C 0.12327 0.68509 0.39244 0.0
C1010 C 0.11537 0.75321 0.36517 0.0
C1011 C 0.13082 0.79004 0.39194 0.0
N1012 N 0.11751 0.70762 0.38812 0.0
N1013 N 0.13296 0.76781 0.39968 0.0
H1014 H 0.81885 0.6373 0.87748 0.0
H1015 H 0.69982 0.57979 0.91427 0.0
H1016 H 0.81502 0.57388 0.91763 0.0
H1017 H 0.70615 0.64427 0.87624 0.0
H1018 H 0.74174 0.57691 0.91612 0.0
H1019 H 0.77729 0.63983 0.87741 0.0
C1020 C 0.80926 0.62389 0.88635 0.0
C1021 C 0.82046 0.6053 0.89754 0.0
C1022 C 0.73389 0.59167 0.90741 0.0
C1023 C 0.77263 0.60808 0.89747 0.0
C1024 C 0.70999 0.59332 0.90632 0.0
C1025 C 0.69946 0.61228 0.89505 0.0
C1026 C 0.74726 0.60911 0.89712 0.0
C1027 C 0.71347 0.62932 0.88509 0.0
C1028 C 0.78547 0.62535 0.8863 0.0
C1029 C 0.80707 0.5885 0.90878 0.0
N1030 N 0.73659 0.6273 0.88635 0.0
N1031 N 0.7838 0.59025 0.90841 0.0
H1032 H 0.60731 0.92145 0.82371 0.0
H1033 H 0.6503 0.87401 0.70124 0.0
H1034 H 0.67745 0.90149 0.80924 0.0
H1035 H 0.58718 0.91326 0.70828 0.0
H1036 H 0.65918 0.88218 0.74173 0.0
H1037 H 0.5986 0.91793 0.78216 0.0
C1038 C 0.62095 0.91662 0.81179 0.0
C1039 C 0.64312 0.91155 0.82001 0.0
C1040 C 0.64341 0.88908 0.73445 0.0
C1041 C 0.63314 0.90719 0.77265 0.0
C1042 C 0.63821 0.88427 0.71134 0.0
C1043 C 0.61791 0.89293 0.70135 0.0
C1044 C 0.62811 0.90245 0.74787 0.0
C1045 C 0.60301 0.90624 0.71531 0.0
C1046 C 0.61593 0.9146 0.78811 0.0
C1047 C 0.6601 0.90546 0.80376 0.0
N1048 N 0.60835 0.91053 0.73797 0.0
N1049 N 0.65469 0.90319 0.78092 0.0
H1050 H 0.59366 0.11692 0.17726 0.0
H1051 H 0.62603 0.09181 0.3096 0.0
H1052 H 0.66018 0.09086 0.19813 0.0
H1053 H 0.58604 0.15165 0.28819 0.0
H1054 H 0.62964 0.08012 0.26867 0.0
H1055 H 0.58212 0.11821 0.21826 0.0
C1056 C 0.60565 0.11098 0.19042 0.0
C1057 C 0.62801 0.10403 0.1844 0.0
C1058 C 0.6197 0.09553 0.27308 0.0
C1059 C 0.61478 0.1052 0.23098 0.0
C1060 C 0.61752 0.10215 0.29634 0.0
C1061 C 0.60591 0.12285 0.30214 0.0
C1062 C 0.60976 0.10945 0.25571 0.0
C1063 C 0.59533 0.13571 0.28434 0.0
C1064 C 0.59907 0.11181 0.21373 0.0
C1065 C 0.64289 0.09659 0.20212 0.0
N1066 N 0.59758 0.12883 0.26183 0.0
N1067 N 0.63603 0.09745 0.22471 0.0
H1068 H 0.36035 0.13509 0.70626 0.0
H1069 H 0.39682 0.08079 0.82797 0.0
H1070 H 0.41968 0.09013 0.7135 0.0
H1071 H 0.32888 0.10742 0.81329 0.0
H1072 H 0.40648 0.08475 0.78673 0.0
H1073 H 0.35 0.12691 0.74642 0.0
C1074 C 0.37132 0.12359 0.71634 0.0
C1075 C 0.39097 0.1133 0.7065 0.0
C1076 C 0.38939 0.08945 0.79253 0.0
C1077 C 0.37905 0.10376 0.75257 0.0
C1078 C 0.38384 0.08718 0.81604 0.0
C1079 C 0.36204 0.09396 0.82411 0.0
C1080 C 0.37314 0.09884 0.7771 0.0
C1081 C 0.34589 0.10204 0.80787 0.0
C1082 C 0.36526 0.11878 0.73924 0.0
C1083 C 0.4044 0.09844 0.72041 0.0
N1084 N 0.35186 0.10452 0.78518 0.0
N1085 N 0.39824 0.09417 0.74284 0.0
H1086 H 0.34205 0.91686 0.19841 0.0
H1087 H 0.41702 0.84706 0.2852 0.0
H1088 H 0.40805 0.88979 0.17706 0.0
H1089 H 0.37793 0.90661 0.30903 0.0
H1090 H 0.41351 0.86142 0.24519 0.0
H1091 H 0.35384 0.91277 0.23916 0.0
C1092 C 0.35912 0.9104 0.20231 0.0
C1093 C 0.37404 0.90347 0.18441 0.0
C1094 C 0.4061 0.87154 0.25926 0.0
C1095 C 0.38737 0.89835 0.23072 0.0
C1096 C 0.40802 0.86333 0.28202 0.0
C1097 C 0.39762 0.87561 0.30033 0.0
C1098 C 0.39315 0.89176 0.25482 0.0
C1099 C 0.3862 0.89664 0.29535 0.0
C1100 C 0.36586 0.90817 0.2255 0.0
C1101 C 0.39602 0.8953 0.19036 0.0
N1102 N 0.38382 0.90382 0.27295 0.0
N1103 N 0.40187 0.89248 0.21307 0.0
H1104 H 0.12387 0.15085 0.5616 0.0
H1105 H 0.10687 0.09672 0.43514 0.0
H1106 H 0.11508 0.07704 0.55071 0.0
H1107 H 0.14022 0.16226 0.44806 0.0
H1108 H 0.10431 0.09039 0.4773 0.0
H1109 H 0.12382 0.15663 0.51962 0.0
C1110 C 0.12178 0.13584 0.55039 0.0
C1111 C 0.11963 0.11337 0.55968 0.0
C1112 C 0.1122 0.10611 0.47082 0.0
C1113 C 0.11956 0.11997 0.51157 0.0
C1114 C 0.11362 0.10976 0.44684 0.0
C1115 C 0.12382 0.13002 0.43815 0.0
C1116 C 0.12072 0.12302 0.48609 0.0
C1117 C 0.13233 0.14634 0.45401 0.0
C1118 C 0.12186 0.13918 0.52642 0.0
C1119 C 0.11693 0.09463 0.54427 0.0
N1120 N 0.13049 0.14253 0.47723 0.0
N1121 N 0.11697 0.09834 0.52089 0.0
H1122 H 0.40866 0.56559 0.95348 0.0
H1123 H 0.4628 0.63423 0.06023 0.0
H1124 H 0.46339 0.61496 0.94549 0.0
H1125 H 0.40443 0.58876 0.06393 0.0
H1126 H 0.46936 0.62138 0.01989 0.0
H1127 H 0.4136 0.56715 0.9955 0.0
C1128 C 0.42197 0.57651 0.96061 0.0
C1129 C 0.43534 0.5905 0.94609 0.0
C1130 C 0.45535 0.614 0.02972 0.0
C1131 C 0.44076 0.59287 0.99424 0.0
C1132 C 0.45162 0.6213 0.05268 0.0
C1133 C 0.43276 0.6129 0.06517 0.0
C1134 C 0.44019 0.5981 0.01947 0.0
C1135 C 0.41887 0.59609 0.05472 0.0
C1136 C 0.42479 0.57745 0.98462 0.0
C1137 C 0.4526 0.60406 0.95617 0.0
N1138 N 0.42275 0.58942 0.03246 0.0
N1139 N 0.45452 0.60531 0.97975 0.0
H1140 H 0.8845 0.90918 0.43339 0.0
H1141 H 0.91551 0.862 0.55887 0.0
H1142 H 0.93595 0.85594 0.44504 0.0
H1143 H 0.88455 0.92971 0.54815 0.0
H1144 H 0.92229 0.85893 0.51706 0.0
H1145 H 0.88352 0.91682 0.47527 0.0
C1146 C 0.89574 0.89925 0.44474 0.0
C1147 C 0.91019 0.88176 0.43579 0.0
C1148 C 0.9142 0.87456 0.52388 0.0
C1149 C 0.90897 0.89025 0.48359 0.0
C1150 C 0.91021 0.87627 0.54771 0.0
C1151 C 0.8993 0.89607 0.55694 0.0
C1152 C 0.9069 0.89261 0.50911 0.0
C1153 C 0.89298 0.91412 0.54172 0.0
C1154 C 0.89521 0.90367 0.4686 0.0
C1155 C 0.9245 0.86953 0.45123 0.0
N1156 N 0.89663 0.91184 0.51847 0.0
N1157 N 0.92331 0.8738 0.47445 0.0
H1158 H 0.60602 0.43909 0.94892 0.0
H1159 H 0.5466 0.37913 0.05838 0.0
H1160 H 0.5494 0.39169 0.94246 0.0
H1161 H 0.60964 0.41787 0.06015 0.0
H1162 H 0.54183 0.39002 0.01728 0.0
H1163 H 0.60127 0.43874 0.99098 0.0
C1164 C 0.59234 0.42885 0.95638 0.0
C1165 C 0.57836 0.41505 0.94227 0.0
C1166 C 0.55653 0.39632 0.02682 0.0
C1167 C 0.5731 0.41418 0.9905 0.0
C1168 C 0.55926 0.39014 0.05022 0.0
C1169 C 0.57875 0.39729 0.06252 0.0
C1170 C 0.57332 0.4099 0.01589 0.0
C1171 C 0.59457 0.41161 0.05121 0.0
C1172 C 0.58966 0.42861 0.98042 0.0
C1173 C 0.56067 0.40242 0.9528 0.0
N1174 N 0.59157 0.4173 0.02853 0.0
N1175 N 0.5588 0.40192 0.97641 0.0
H1176 H 0.10534 0.87706 0.55421 0.0
H1177 H 0.1399 0.93944 0.43543 0.0
H1178 H 0.13214 0.94685 0.55187 0.0
H1179 H 0.10607 0.87303 0.44003 0.0
H1180 H 0.13518 0.94417 0.47764 0.0
H1181 H 0.10332 0.87686 0.51195 0.0
C1182 C 0.11068 0.89243 0.54478 0.0
C1183 C 0.11913 0.91192 0.55655 0.0
C1184 C 0.12863 0.92869 0.4693 0.0
C1185 C 0.11706 0.91175 0.50801 0.0
C1186 C 0.13132 0.92598 0.44525 0.0
C1187 C 0.12365 0.90568 0.43426 0.0
C1188 C 0.11823 0.91094 0.48229 0.0
C1189 C 0.11255 0.88884 0.44777 0.0
C1190 C 0.10949 0.89233 0.52061 0.0
C1191 C 0.12559 0.93143 0.54344 0.0
N1192 N 0.11034 0.89179 0.47105 0.0
N1193 N 0.12467 0.93076 0.51979 0.0
H1194 H 0.56139 0.63663 0.94921 0.0
H1195 H 0.62755 0.58933 0.06151 0.0
H1196 H 0.63022 0.60827 0.94895 0.0
H1197 H 0.56152 0.62376 0.06486 0.0
H1198 H 0.62547 0.5901 0.01924 0.0
H1199 H 0.55816 0.62658 0.99054 0.0
C1200 C 0.57574 0.62814 0.95777 0.0
C1201 C 0.59623 0.62358 0.94571 0.0
C1202 C 0.61131 0.59731 0.02917 0.0
C1203 C 0.5926 0.61199 0.99278 0.0
C1204 C 0.61247 0.59684 0.05334 0.0
C1205 C 0.59484 0.60684 0.06673 0.0
C1206 C 0.59247 0.60803 0.01823 0.0
C1207 C 0.57558 0.61603 0.05519 0.0
C1208 C 0.57387 0.62241 0.98133 0.0
C1209 C 0.61421 0.61243 0.95762 0.0
N1210 N 0.57504 0.61671 0.03153 0.0
N1211 N 0.61201 0.60716 0.9805 0.0
H1212 H 0.85182 0.15752 0.45136 0.0
H1213 H 0.88959 0.06945 0.55135 0.0
H1214 H 0.88824 0.09354 0.43604 0.0
H1215 H 0.87734 0.1429 0.56254 0.0
H1216 H 0.88613 0.07595 0.50923 0.0
H1217 H 0.85719 0.15019 0.4928 0.0
C1218 C 0.86088 0.14188 0.45672 0.0
C1219 C 0.86964 0.12613 0.44028 0.0
C1220 C 0.88439 0.09059 0.521 0.0
C1221 C 0.87584 0.11764 0.48765 0.0
C1222 C 0.88635 0.08691 0.54497 0.0
C1223 C 0.88369 0.10564 0.56047 0.0
C1224 C 0.87941 0.11305 0.51266 0.0
C1225 C 0.87952 0.12792 0.55129 0.0
C1226 C 0.86405 0.13777 0.48037 0.0
C1227 C 0.8813 0.10616 0.44821 0.0
N1228 N 0.87732 0.13095 0.52801 0.0
N1229 N 0.884 0.10241 0.47141 0.0
H1230 H 0.44699 0.36881 0.95466 0.0
H1231 H 0.37942 0.42216 0.06343 0.0
H1232 H 0.37814 0.39699 0.95218 0.0
H1233 H 0.44499 0.3872 0.06958 0.0
H1234 H 0.38229 0.41939 0.02128 0.0
H1235 H 0.44968 0.38096 0.99547 0.0
C1236 C 0.43251 0.37767 0.96263 0.0
C1237 C 0.41219 0.3816 0.95011 0.0
C1238 C 0.39619 0.41252 0.0318 0.0
C1239 C 0.41523 0.39565 0.99654 0.0
C1240 C 0.39458 0.41414 0.05589 0.0
C1241 C 0.41182 0.40453 0.07004 0.0
C1242 C 0.41506 0.40101 0.02172 0.0
C1243 C 0.43121 0.39465 0.0593 0.0
C1244 C 0.43408 0.38461 0.98588 0.0
C1245 C 0.39403 0.39329 0.96123 0.0
N1246 N 0.43217 0.39283 0.03572 0.0
N1247 N 0.39595 0.39977 0.98382 0.0
H1248 H 0.5542 0.14977 0.05893 0.0
H1249 H 0.44499 0.07517 0.09554 0.0
H1250 H 0.55788 0.08327 0.09381 0.0
H1251 H 0.44169 0.14763 0.07569 0.0
H1252 H 0.48588 0.0747 0.08636 0.0
H1253 H 0.51253 0.14584 0.05636 0.0
C1254 C 0.5463 0.13419 0.06571 0.0
C1255 C 0.55944 0.117 0.07695 0.0
C1256 C 0.47614 0.09063 0.08379 0.0
C1257 C 0.51194 0.11243 0.0741 0.0
C1258 C 0.45279 0.09091 0.08899 0.0
C1259 C 0.44001 0.11158 0.08676 0.0
C1260 C 0.48673 0.11115 0.07625 0.0
C1261 C 0.45098 0.13139 0.078 0.0
C1262 C 0.52253 0.132 0.06432 0.0
C1263 C 0.54834 0.09712 0.08534 0.0
N1264 N 0.47377 0.13075 0.07327 0.0
N1265 N 0.5252 0.09548 0.08393 0.0
H1266 H 0.39428 0.94637 0.56429 0.0
H1267 H 0.40236 0.06165 0.64132 0.0
H1268 H 0.40285 0.9468 0.639 0.0
H1269 H 0.39081 0.06225 0.56703 0.0
H1270 H 0.40709 0.01956 0.6399 0.0
H1271 H 0.3975 0.98875 0.56411 0.0
C1272 C 0.39704 0.95534 0.58063 0.0
C1273 C 0.39803 0.94306 0.60173 0.0
C1274 C 0.40367 0.02888 0.62386 0.0
C1275 C 0.40165 0.99147 0.60163 0.0
C1276 C 0.40094 0.05295 0.62466 0.0
C1277 C 0.39592 0.06547 0.60429 0.0
C1278 C 0.40125 0.01718 0.60256 0.0
C1279 C 0.3945 0.05326 0.58318 0.0
C1280 C 0.39885 0.97953 0.5805 0.0
C1281 C 0.40175 0.95557 0.62235 0.0
N1282 N 0.39696 0.02972 0.58289 0.0
N1283 N 0.40326 0.9791 0.62179 0.0
H1284 H 0.45519 0.84882 0.09974 0.0
H1285 H 0.56134 0.93346 0.09256 0.0
H1286 H 0.4474 0.92292 0.08955 0.0
H1287 H 0.56679 0.85863 0.08692 0.0
H1288 H 0.51969 0.93047 0.08863 0.0
H1289 H 0.49616 0.85228 0.0926 0.0
C1290 C 0.46212 0.86581 0.09585 0.0
C1291 C 0.44798 0.88565 0.09551 0.0
C1292 C 0.53007 0.91476 0.08792 0.0
C1293 C 0.4949 0.88981 0.08748 0.0
C1294 C 0.55383 0.91645 0.09017 0.0
C1295 C 0.56751 0.89624 0.09049 0.0
C1296 C 0.52003 0.89269 0.08617 0.0
C1297 C 0.5569 0.87467 0.08714 0.0
C1298 C 0.4855 0.86778 0.09166 0.0
C1299 C 0.45778 0.90721 0.09009 0.0
N1300 N 0.53378 0.87345 0.08543 0.0
N1301 N 0.48075 0.90878 0.0866 0.0
H1302 H 0.60046 0.05757 0.6354 0.0
H1303 H 0.62243 0.94237 0.56062 0.0
H1304 H 0.62107 0.05873 0.56316 0.0
H1305 H 0.60598 0.94336 0.63397 0.0
H1306 H 0.6172 0.9847 0.55949 0.0
H1307 H 0.5973 0.01548 0.63331 0.0
C1308 C 0.60418 0.04898 0.61902 0.0
C1309 C 0.61134 0.06165 0.5995 0.0
C1310 C 0.61457 0.97558 0.57576 0.0
C1311 C 0.60792 0.01332 0.59705 0.0
C1312 C 0.61753 0.95144 0.57642 0.0
C1313 C 0.61491 0.93937 0.59749 0.0
C1314 C 0.6089 0.98761 0.59629 0.0
C1315 C 0.60846 0.95196 0.6174 0.0
C1316 C 0.60236 0.0249 0.61784 0.0
C1317 C 0.61565 0.04959 0.57867 0.0
N1318 N 0.60582 0.97539 0.61632 0.0
N1319 N 0.61411 0.02601 0.57805 0.0
H1320 H 0.45305 0.86601 0.92068 0.0
H1321 H 0.55083 0.95485 0.88379 0.0
H1322 H 0.43892 0.93252 0.88844 0.0
H1323 H 0.56325 0.89118 0.92193 0.0
H1324 H 0.50957 0.94875 0.88793 0.0
H1325 H 0.49333 0.87647 0.92374 0.0
C1326 C 0.4584 0.88287 0.91435 0.0
C1327 C 0.44266 0.89832 0.90408 0.0
C1328 C 0.52136 0.93625 0.89559 0.0
C1329 C 0.48878 0.9104 0.90743 0.0
C1330 C 0.5449 0.93975 0.89325 0.0
C1331 C 0.56049 0.92335 0.90226 0.0
C1332 C 0.51344 0.91619 0.90693 0.0
C1333 C 0.55186 0.90415 0.91445 0.0
C1334 C 0.48141 0.88887 0.91615 0.0
C1335 C 0.45052 0.92002 0.89636 0.0
N1336 N 0.52894 0.901 0.91623 0.0
N1337 N 0.4731 0.92534 0.898 0.0
H1338 H 0.64739 0.9358 0.41544 0.0
H1339 H 0.58535 0.05835 0.40017 0.0
H1340 H 0.57592 0.94423 0.3975 0.0
H1341 H 0.65558 0.0505 0.42269 0.0
H1342 H 0.58013 0.01659 0.40476 0.0
H1343 H 0.6493 0.97738 0.42381 0.0
C1344 C 0.63201 0.94634 0.41354 0.0
C1345 C 0.61155 0.93661 0.40534 0.0
C1346 C 0.59662 0.02399 0.40899 0.0
C1347 C 0.61369 0.98423 0.41477 0.0
C1348 C 0.59963 0.04785 0.40633 0.0
C1349 C 0.62106 0.05784 0.41067 0.0
C1350 C 0.61525 0.00993 0.41577 0.0
C1351 C 0.63883 0.04347 0.41895 0.0
C1352 C 0.63312 0.97009 0.41835 0.0
C1353 C 0.59212 0.95104 0.40349 0.0
N1354 N 0.63564 0.02015 0.42088 0.0
N1355 N 0.59376 0.97419 0.40784 0.0
H1356 H 0.44923 0.07665 0.9131 0.0
H1357 H 0.56106 0.15505 0.90237 0.0
H1358 H 0.44967 0.14629 0.88482 0.0
H1359 H 0.56464 0.08025 0.90957 0.0
H1360 H 0.51943 0.15301 0.90252 0.0
H1361 H 0.49097 0.07855 0.91793 0.0
C1362 C 0.45809 0.09234 0.908 0.0
C1363 C 0.44605 0.1113 0.89841 0.0
C1364 C 0.52931 0.13703 0.90413 0.0
C1365 C 0.49346 0.11362 0.90407 0.0
C1366 C 0.5531 0.13817 0.90413 0.0
C1367 C 0.56636 0.11774 0.90573 0.0
C1368 C 0.51863 0.11533 0.90586 0.0
C1369 C 0.55506 0.0964 0.90811 0.0
C1370 C 0.48185 0.09338 0.91072 0.0
C1371 C 0.4583 0.1312 0.8921 0.0
N1372 N 0.53177 0.09572 0.90802 0.0
N1373 N 0.48132 0.13184 0.89507 0.0
H1374 H 0.41623 0.93828 0.40014 0.0
H1375 H 0.35521 0.06236 0.41016 0.0
H1376 H 0.34377 0.948 0.41254 0.0
H1377 H 0.42734 0.05254 0.39589 0.0
H1378 H 0.3519 0.02074 0.41755 0.0
H1379 H 0.42171 0.98001 0.40505 0.0
C1380 C 0.40149 0.94916 0.40415 0.0
C1381 C 0.37944 0.9397 0.40555 0.0
C1382 C 0.36851 0.02771 0.41306 0.0
C1383 C 0.38559 0.98753 0.41104 0.0
C1384 C 0.37043 0.05149 0.40883 0.0
C1385 C 0.39152 0.06088 0.402 0.0
C1386 C 0.38779 0.01318 0.41033 0.0
C1387 C 0.41069 0.04601 0.40084 0.0
C1388 C 0.40465 0.973 0.40696 0.0
C1389 C 0.36104 0.95458 0.41109 0.0
N1390 N 0.4083 0.02283 0.40467 0.0
N1391 N 0.36449 0.97783 0.41333 0.0
H1392 H 0.04641 0.44711 0.11894 0.0
H1393 H 0.11628 0.5626 0.09465 0.0
H1394 H 0.10646 0.45147 0.07529 0.0
H1395 H 0.0566 0.56098 0.13905 0.0
H1396 H 0.10827 0.52319 0.08203 0.0
H1397 H 0.04501 0.48973 0.12091 0.0
C1398 C 0.05897 0.45703 0.10935 0.0
C1399 C 0.07685 0.4458 0.0973 0.0
C1400 C 0.09676 0.53141 0.0944 0.0
C1401 C 0.07545 0.49429 0.09962 0.0
C1402 C 0.1014 0.55392 0.10171 0.0
C1403 C 0.08733 0.56486 0.11828 0.0
C1404 C 0.07811 0.5195 0.10402 0.0
C1405 C 0.068 0.55301 0.12642 0.0
C1406 C 0.05822 0.48133 0.11057 0.0
C1407 C 0.09264 0.45943 0.08514 0.0
N1408 N 0.06414 0.53073 0.11949 0.0
N1409 N 0.09172 0.48293 0.08685 0.0
H1410 H 0.12595 0.56291 0.92835 0.0
H1411 H 0.05288 0.45774 0.87757 0.0
H1412 H 0.06103 0.57256 0.89341 0.0
H1413 H 0.12122 0.45134 0.90587 0.0
H1414 H 0.05217 0.49881 0.88916 0.0
H1415 H 0.12067 0.521 0.92682 0.0
C1416 C 0.11043 0.55621 0.92059 0.0
C1417 C 0.09409 0.57123 0.91063 0.0
C1418 C 0.06721 0.4883 0.89299 0.0
C1419 C 0.08807 0.52317 0.90852 0.0
C1420 C 0.06763 0.4649 0.88638 0.0
C1421 C 0.08728 0.45121 0.89044 0.0
C1422 C 0.08652 0.49794 0.9038 0.0
C1423 C 0.10585 0.46131 0.90205 0.0
C1424 C 0.10744 0.53225 0.91968 0.0
C1425 C 0.07416 0.56158 0.9011 0.0
N1426 N 0.10505 0.48407 0.90818 0.0
N1427 N 0.07185 0.53808 0.89996 0.0
H1428 H 0.0665 0.59557 0.34957 0.0
H1429 H 0.95823 0.58321 0.43183 0.0
H1430 H 0.07255 0.58302 0.42343 0.0
H1431 H 0.95506 0.57964 0.35678 0.0
H1432 H 1.00008 0.58071 0.42955 0.0
H1433 H 0.02563 0.5877 0.35202 0.0
C1434 C 0.05922 0.59101 0.3663 0.0
C1435 C 0.07284 0.59019 0.38637 0.0
C1436 C 0.99017 0.58015 0.41362 0.0
C1437 C 0.02602 0.58132 0.38938 0.0
C1438 C 0.96629 0.58159 0.41491 0.0
C1439 C 0.95317 0.58203 0.39445 0.0
C1440 C 1.00088 0.57934 0.39172 0.0
C1441 C 0.96449 0.57971 0.373 0.0
C1442 C 0.0359 0.58641 0.36769 0.0
C1443 C 0.06259 0.58394 0.40755 0.0
N1444 N 0.9877 0.57876 0.3722 0.0
N1445 N 0.03968 0.58003 0.40858 0.0
H1446 H 0.89243 0.55343 0.91775 0.0
H1447 H 0.9497 0.42934 0.896 0.0
H1448 H 0.95604 0.54433 0.88028 0.0
H1449 H 0.8887 0.44144 0.937 0.0
H1450 H 0.95589 0.47146 0.89461 0.0
H1451 H 0.89403 0.51276 0.92918 0.0
C1452 C 0.9068 0.54285 0.91197 0.0
C1453 C 0.92393 0.55215 0.89771 0.0
C1454 C 0.94138 0.46483 0.90423 0.0
C1455 C 0.92585 0.50537 0.91067 0.0
C1456 C 0.93789 0.4408 0.9051 0.0
C1457 C 0.91842 0.43195 0.91626 0.0
C1458 C 0.92526 0.47993 0.91458 0.0
C1459 C 0.9037 0.44754 0.92783 0.0
C1460 C 0.90778 0.51961 0.91861 0.0
C1461 C 0.94238 0.53775 0.89113 0.0
N1462 N 0.90728 0.47075 0.92644 0.0
N1463 N 0.9427 0.51491 0.89739 0.0
H1464 H 0.04901 0.41337 0.35321 0.0
H1465 H 0.93563 0.40434 0.4304 0.0
H1466 H 0.05095 0.40812 0.42823 0.0
H1467 H 0.93947 0.38543 0.35772 0.0
H1468 H 0.97674 0.41292 0.42976 0.0
H1469 H 0.00736 0.4112 0.35457 0.0
C1470 C 0.04068 0.41202 0.37001 0.0
C1471 C 0.0535 0.41061 0.39064 0.0
C1472 C 0.9685 0.40694 0.41399 0.0
C1473 C 0.00582 0.40804 0.39224 0.0
C1474 C 0.94511 0.40206 0.41432 0.0
C1475 C 0.93423 0.394 0.39411 0.0
C1476 C 0.98089 0.40406 0.39322 0.0
C1477 C 0.94724 0.39139 0.37374 0.0
C1478 C 0.0169 0.41068 0.37074 0.0
C1479 C 0.04173 0.40904 0.4119 0.0
N1480 N 0.96989 0.39644 0.37381 0.0
N1481 N 0.01849 0.40765 0.41216 0.0
H1482 H 0.94949 0.43821 0.14026 0.0
H1483 H 0.89673 0.55193 0.08081 0.0
H1484 H 0.88583 0.44116 0.10201 0.0
H1485 H 0.95721 0.55289 0.12406 0.0
H1486 H 0.8977 0.5096 0.0815 0.0
H1487 H 0.95727 0.47838 0.12828 0.0
C1488 C 0.93731 0.4472 0.12914 0.0
C1489 C 0.91678 0.43654 0.12249 0.0
C1490 C 0.91096 0.519 0.09063 0.0
C1491 C 0.92558 0.48218 0.10868 0.0
C1492 C 0.91042 0.54319 0.09021 0.0
C1493 C 0.92665 0.55589 0.10277 0.0
C1494 C 0.92764 0.50739 0.10402 0.0
C1495 C 0.94424 0.5437 0.11432 0.0
C1496 C 0.94175 0.47008 0.12232 0.0
C1497 C 0.90166 0.44886 0.10794 0.0
N1498 N 0.94403 0.52005 0.11504 0.0
N1499 N 0.90629 0.47105 0.1017 0.0
H1500 H 0.93162 0.4051 0.58453 0.0
H1501 H 0.04724 0.37992 0.65404 0.0
H1502 H 0.93483 0.3942 0.65889 0.0
H1503 H 0.04694 0.40958 0.58496 0.0
H1504 H 0.00564 0.3832 0.6551 0.0
H1505 H 0.97362 0.4054 0.58331 0.0
C1506 C 0.94113 0.4029 0.60059 0.0
C1507 C 0.92972 0.39948 0.62182 0.0
C1508 C 0.01464 0.3891 0.63973 0.0
C1509 C 0.97755 0.39965 0.6205 0.0
C1510 C 0.0384 0.38713 0.63907 0.0
C1511 C 0.05053 0.39442 0.61935 0.0
C1512 C 1.00285 0.3982 0.62043 0.0
C1513 C 0.0382 0.40376 0.60051 0.0
C1514 C 0.96505 0.40312 0.59988 0.0
C1515 C 0.94287 0.39681 0.64211 0.0
N1516 N 0.01495 0.40526 0.60144 0.0
N1517 N 0.96606 0.39678 0.64091 0.0
H1518 H 0.07034 0.58933 0.6399 0.0
H1519 H 0.96329 0.61904 0.55849 0.0
H1520 H 0.07671 0.62215 0.57259 0.0
H1521 H 0.9587 0.58123 0.6233 0.0
H1522 H 0.0051 0.61762 0.56153 0.0
H1523 H 0.02965 0.58365 0.63252 0.0
C1524 C 0.0632 0.59524 0.62351 0.0
C1525 C 0.07688 0.60644 0.60694 0.0
C1526 C 0.99492 0.60944 0.57495 0.0
C1527 C 0.03025 0.60008 0.59838 0.0
C1528 C 0.97106 0.61022 0.57321 0.0
C1529 C 0.95749 0.6005 0.59081 0.0
C1530 C 0.00521 0.59894 0.59447 0.0
C1531 C 0.96847 0.58919 0.60944 0.0
C1532 C 0.03995 0.59194 0.61927 0.0
C1533 C 0.06675 0.61355 0.58591 0.0
N1534 N 0.99167 0.58892 0.61087 0.0
N1535 N 0.04397 0.61044 0.58231 0.0
H1536 H 0.93909 0.08989 0.36187 0.0
H1537 H 0.05332 0.11725 0.29015 0.0
H1538 H 0.93878 0.11842 0.29237 0.0
H1539 H 0.05243 0.09277 0.36117 0.0
H1540 H 0.01187 0.11119 0.28792 0.0
H1541 H 0.98051 0.08424 0.35906 0.0
C1542 C 0.94763 0.09459 0.34581 0.0
C1543 C 0.93529 0.10487 0.3274 0.0
C1544 C 0.02081 0.10679 0.30387 0.0
C1545 C 0.98314 0.09873 0.32422 0.0
C1546 C 0.04457 0.11009 0.30512 0.0
C1547 C 0.05651 0.10573 0.32597 0.0
C1548 C 0.00879 0.09904 0.3236 0.0
C1549 C 0.04405 0.09657 0.34477 0.0
C1550 C 0.97139 0.09143 0.34426 0.0
C1551 C 0.94747 0.11049 0.30704 0.0
N1552 N 0.02094 0.0938 0.34322 0.0
N1553 N 0.97071 0.10765 0.30612 0.0
H1554 H 0.44803 0.41899 0.843 0.0
H1555 H 0.37809 0.53851 0.8365 0.0
H1556 H 0.37446 0.42415 0.83672 0.0
H1557 H 0.45179 0.535 0.84145 0.0
H1558 H 0.37738 0.49674 0.82892 0.0
H1559 H 0.45067 0.46076 0.8349 0.0
C1560 C 0.43246 0.4287 0.83927 0.0
C1561 C 0.41095 0.41795 0.84085 0.0
C1562 C 0.39379 0.50509 0.83124 0.0
C1563 C 0.41386 0.46603 0.83194 0.0
C1564 C 0.39421 0.52905 0.83547 0.0
C1565 C 0.41502 0.54035 0.83983 0.0
C1566 C 0.41431 0.49207 0.8317 0.0
C1567 C 0.43534 0.52708 0.83819 0.0
C1568 C 0.43398 0.45266 0.83482 0.0
C1569 C 0.39142 0.43162 0.83595 0.0
N1570 N 0.43445 0.5036 0.8347 0.0
N1571 N 0.39333 0.4549 0.83208 0.0
H1572 H 0.0657 0.91007 0.36049 0.0
H1573 H 0.95166 0.88009 0.28986 0.0
H1574 H 0.06593 0.87833 0.29239 0.0
H1575 H 0.95245 0.90759 0.35979 0.0
H1576 H 0.99307 0.88627 0.28731 0.0
H1577 H 0.02438 0.91629 0.35719 0.0
C1578 C 0.05718 0.90482 0.34461 0.0
C1579 C 0.06943 0.89341 0.3268 0.0
C1580 C 0.98412 0.89132 0.30307 0.0
C1581 C 0.02173 0.90018 0.32307 0.0
C1582 C 0.96038 0.88794 0.30449 0.0
C1583 C 0.94844 0.8931 0.32517 0.0
C1584 C 0.9961 0.89994 0.32244 0.0
C1585 C 0.96084 0.90315 0.34354 0.0
C1586 C 0.03348 0.90829 0.34279 0.0
C1587 C 0.05729 0.88711 0.30662 0.0
N1588 N 0.98393 0.90596 0.34184 0.0
N1589 N 0.03412 0.89026 0.30546 0.0
H1590 H 0.56042 0.46682 0.83603 0.0
H1591 H 0.63776 0.58054 0.8312 0.0
H1592 H 0.63428 0.46631 0.83255 0.0
H1593 H 0.56422 0.58271 0.83905 0.0
H1594 H 0.63568 0.53901 0.82273 0.0
H1595 H 0.56049 0.50884 0.82838 0.0
C1596 C 0.57662 0.47536 0.83297 0.0
C1597 C 0.5974 0.46297 0.83521 0.0
C1598 C 0.61991 0.54859 0.82588 0.0
C1599 C 0.5976 0.51122 0.82679 0.0
C1600 C 0.62108 0.57243 0.83061 0.0
C1601 C 0.60117 0.58522 0.83614 0.0
C1602 C 0.5987 0.53722 0.82691 0.0
C1603 C 0.58006 0.57362 0.83498 0.0
C1604 C 0.57665 0.49944 0.8288 0.0
C1605 C 0.61784 0.47512 0.83124 0.0
N1606 N 0.57942 0.55023 0.83093 0.0
N1607 N 0.61743 0.49851 0.82755 0.0
H1608 H 0.95125 0.86831 0.66854 0.0
H1609 H 0.06295 0.94784 0.65926 0.0
H1610 H 0.94835 0.94262 0.65783 0.0
H1611 H 0.0646 0.87306 0.6662 0.0
H1612 H 0.02136 0.94733 0.66547 0.0
H1613 H 0.99257 0.87088 0.67459 0.0
C1614 C 0.95917 0.88528 0.66792 0.0
C1615 C 0.94612 0.90525 0.66246 0.0
C1616 C 0.03088 0.93107 0.66601 0.0
C1617 C 0.99392 0.90827 0.66902 0.0
C1618 C 0.05472 0.93136 0.66263 0.0
C1619 C 0.06745 0.91044 0.66202 0.0
C1620 C 0.01957 0.90972 0.66883 0.0
C1621 C 0.05563 0.88964 0.66635 0.0
C1622 C 0.98289 0.88671 0.67126 0.0
C1623 C 0.95758 0.92671 0.66194 0.0
N1624 N 0.03245 0.8898 0.66931 0.0
N1625 N 0.98079 0.9276 0.66483 0.0
H1626 H 0.55527 0.43933 0.16912 0.0
H1627 H 0.63514 0.55081 0.17932 0.0
H1628 H 0.62886 0.43661 0.17596 0.0
H1629 H 0.56176 0.5552 0.17097 0.0
H1630 H 0.63195 0.50906 0.1862 0.0
H1631 H 0.55611 0.48113 0.1778 0.0
C1632 C 0.57154 0.44732 0.17313 0.0
C1633 C 0.59206 0.43437 0.17154 0.0
C1634 C 0.61646 0.51915 0.18326 0.0
C1635 C 0.59318 0.48242 0.18109 0.0
C1636 C 0.61826 0.54311 0.17944 0.0
C1637 C 0.59872 0.55663 0.1743 0.0
C1638 C 0.59496 0.50839 0.1817 0.0
C1639 C 0.57732 0.54554 0.1748 0.0
C1640 C 0.57203 0.47128 0.17788 0.0
C1641 C 0.61262 0.44585 0.17675 0.0
N1642 N 0.57605 0.52204 0.17798 0.0
N1643 N 0.61267 0.46916 0.18094 0.0
H1644 H 0.94517 0.13321 0.67119 0.0
H1645 H 0.06263 0.061 0.65901 0.0
H1646 H 0.94795 0.05928 0.65811 0.0
H1647 H 0.05877 0.13534 0.66931 0.0
H1648 H 0.0211 0.05886 0.66486 0.0
H1649 H 0.98664 0.13303 0.67683 0.0
C1650 C 0.9544 0.11682 0.66991 0.0
C1651 C 0.94288 0.09625 0.66397 0.0
C1652 C 0.02939 0.0756 0.66619 0.0
C1653 C 0.99083 0.096 0.67009 0.0
C1654 C 0.0532 0.07683 0.66299 0.0
C1655 C 0.06438 0.09843 0.66348 0.0
C1656 C 0.01652 0.0961 0.6699 0.0
C1657 C 0.05103 0.1183 0.66862 0.0
C1658 C 0.9782 0.11675 0.67305 0.0
C1659 C 0.95596 0.07558 0.66263 0.0
N1660 N 0.0279 0.11668 0.67137 0.0
N1661 N 0.9792 0.07604 0.66535 0.0
H1662 H 0.44603 0.57439 0.17281 0.0
H1663 H 0.36684 0.46208 0.18006 0.0
H1664 H 0.3721 0.5762 0.17372 0.0
H1665 H 0.44058 0.45851 0.17525 0.0
H1666 H 0.3692 0.50399 0.18636 0.0
H1667 H 0.44502 0.53277 0.18219 0.0
C1668 C 0.42959 0.56626 0.17566 0.0
C1669 C 0.4091 0.57889 0.17221 0.0
C1670 C 0.38493 0.49404 0.18433 0.0
C1671 C 0.40784 0.53102 0.18259 0.0
C1672 C 0.3836 0.47 0.18085 0.0
C1673 C 0.40352 0.45665 0.17685 0.0
C1674 C 0.40634 0.50506 0.1836 0.0
C1675 C 0.42474 0.46802 0.17818 0.0
C1676 C 0.42903 0.54239 0.18082 0.0
C1677 C 0.38834 0.56722 0.17597 0.0
N1678 N 0.42557 0.49159 0.18103 0.0
N1679 N 0.38825 0.544 0.18062 0.0
H1680 H 0.29795 0.07502 0.09825 0.0
H1681 H 0.36825 0.95941 0.06685 0.0
H1682 H 0.36563 0.0742 0.0679 0.0
H1683 H 0.30127 0.95907 0.09871 0.0
H1684 H 0.36417 1.0012 0.06019 0.0
H1685 H 0.29548 0.033 0.09158 0.0
C1686 C 0.31206 0.06619 0.08961 0.0
C1687 C 0.33215 0.07827 0.08389 0.0
C1688 C 0.35017 0.99198 0.06831 0.0
C1689 C 0.32956 0.02991 0.07655 0.0
C1690 C 0.35246 0.96801 0.07204 0.0
C1691 C 0.3352 0.95561 0.08361 0.0
C1692 C 0.33056 0.00388 0.07638 0.0
C1693 C 0.31509 0.96783 0.0898 0.0
C1694 C 0.3107 0.04209 0.08597 0.0
C1695 C 0.34986 0.0657 0.07282 0.0
N1696 N 0.31349 0.9913 0.08646 0.0
N1697 N 0.34828 0.04226 0.06984 0.0
H1698 H 0.44906 0.83382 0.64053 0.0
H1699 H 0.56478 0.83268 0.56551 0.0
H1700 H 0.45021 0.83662 0.56546 0.0
H1701 H 0.56268 0.8343 0.64059 0.0
H1702 H 0.52321 0.82709 0.56494 0.0
H1703 H 0.49041 0.82691 0.64051 0.0
C1704 C 0.45788 0.83252 0.62397 0.0
C1705 C 0.44596 0.83602 0.60296 0.0
C1706 C 0.53189 0.82828 0.58155 0.0
C1707 C 0.49379 0.82844 0.60286 0.0
C1708 C 0.55573 0.83131 0.58191 0.0
C1709 C 0.56743 0.83416 0.60314 0.0
C1710 C 0.51949 0.82807 0.60256 0.0
C1711 C 0.55454 0.83234 0.62378 0.0
C1712 C 0.48162 0.82868 0.624 0.0
C1713 C 0.45855 0.83408 0.58211 0.0
N1714 N 0.53136 0.82969 0.62295 0.0
N1715 N 0.48174 0.83074 0.58261 0.0
H1716 H 0.63716 0.05209 0.06664 0.0
H1717 H 0.7098 0.93833 0.09911 0.0
H1718 H 0.70389 0.05411 0.09888 0.0
H1719 H 0.64236 0.93738 0.06831 0.0
H1720 H 0.71141 0.98034 0.09209 0.0
H1721 H 0.64228 0.01039 0.06006 0.0
C1722 C 0.65312 0.0439 0.07191 0.0
C1723 C 0.66999 0.05673 0.08359 0.0
C1724 C 0.69644 0.97087 0.08645 0.0
C1725 C 0.67581 0.00856 0.07647 0.0
C1726 C 0.69557 0.94678 0.0903 0.0
C1727 C 0.67579 0.9342 0.08456 0.0
C1728 C 0.67739 0.98255 0.07682 0.0
C1729 C 0.65789 0.94628 0.07327 0.0
C1730 C 0.656 0.01997 0.06823 0.0
C1731 C 0.69035 0.04501 0.08989 0.0
N1732 N 0.65899 0.96973 0.0701 0.0
N1733 N 0.69252 0.02157 0.08662 0.0
H1734 H 0.56101 0.1713 0.64467 0.0
H1735 H 0.44556 0.17219 0.56963 0.0
H1736 H 0.56003 0.1686 0.5696 0.0
H1737 H 0.44757 0.17207 0.64474 0.0
H1738 H 0.4871 0.17795 0.56897 0.0
H1739 H 0.51975 0.17873 0.64459 0.0
C1740 C 0.55224 0.17274 0.6281 0.0
C1741 C 0.56416 0.16909 0.60711 0.0
C1742 C 0.4784 0.17706 0.5856 0.0
C1743 C 0.51645 0.17723 0.60693 0.0
C1744 C 0.45458 0.17393 0.58601 0.0
C1745 C 0.44289 0.17142 0.60729 0.0
C1746 C 0.49076 0.17769 0.60661 0.0
C1747 C 0.45572 0.17373 0.62789 0.0
C1748 C 0.52856 0.17688 0.62809 0.0
C1749 C 0.55168 0.17125 0.58624 0.0
N1750 N 0.47888 0.17644 0.62702 0.0
N1751 N 0.52852 0.17482 0.58669 0.0
H1752 H 0.30129 0.03799 0.91734 0.0
H1753 H 0.37159 0.92132 0.94498 0.0
H1754 H 0.37122 0.03591 0.94173 0.0
H1755 H 0.30332 0.92191 0.91612 0.0
H1756 H 0.36836 0.96314 0.95179 0.0
H1757 H 0.29859 0.99603 0.92442 0.0
C1758 C 0.31591 0.02888 0.92472 0.0
C1759 C 0.33662 0.04058 0.92868 0.0
C1760 C 0.35389 0.95411 0.94434 0.0
C1761 C 0.33369 0.99233 0.93657 0.0
C1762 C 0.35566 0.93012 0.94058 0.0
C1763 C 0.33779 0.91798 0.92971 0.0
C1764 C 0.33417 0.9663 0.93703 0.0
C1765 C 0.31758 0.93046 0.92448 0.0
C1766 C 0.31439 0.00484 0.92862 0.0
C1767 C 0.35497 0.0277 0.93817 0.0
N1768 N 0.31648 0.95396 0.9278 0.0
N1769 N 0.35316 0.00432 0.9415 0.0
H1770 H 0.56757 0.79334 0.38671 0.0
H1771 H 0.45215 0.86414 0.41425 0.0
H1772 H 0.56565 0.86286 0.41517 0.0
H1773 H 0.45344 0.79556 0.38359 0.0
H1774 H 0.49335 0.86098 0.42119 0.0
H1775 H 0.52603 0.79092 0.39199 0.0
C1776 C 0.55856 0.80791 0.39458 0.0
C1777 C 0.57026 0.82844 0.40027 0.0
C1778 C 0.4846 0.84645 0.41326 0.0
C1779 C 0.52241 0.82588 0.40603 0.0
C1780 C 0.46097 0.8482 0.40937 0.0
C1781 C 0.44918 0.83019 0.39807 0.0
C1782 C 0.49676 0.82661 0.40569 0.0
C1783 C 0.4617 0.80995 0.39225 0.0
C1784 C 0.53474 0.80656 0.39745 0.0
C1785 C 0.55748 0.84673 0.41035 0.0
N1786 N 0.4848 0.80886 0.39582 0.0
N1787 N 0.5343 0.84513 0.41261 0.0
H1788 H 0.70871 0.08228 0.91859 0.0
H1789 H 0.63559 0.96723 0.93856 0.0
H1790 H 0.63822 0.08193 0.94135 0.0
H1791 H 0.70552 0.96638 0.91408 0.0
H1792 H 0.63892 0.00873 0.94683 0.0
H1793 H 0.71052 0.04003 0.92418 0.0
C1794 C 0.6938 0.07349 0.9254 0.0
C1795 C 0.67319 0.0858 0.92924 0.0
C1796 C 0.65369 0.99945 0.93999 0.0
C1797 C 0.67505 0.03718 0.93527 0.0
C1798 C 0.65183 0.97564 0.93533 0.0
C1799 C 0.67023 0.9632 0.92535 0.0
C1800 C 0.67404 0.01116 0.93446 0.0
C1801 C 0.69084 0.97518 0.92168 0.0
C1802 C 0.69479 0.04926 0.92839 0.0
C1803 C 0.65443 0.07326 0.93793 0.0
N1804 N 0.69207 0.99852 0.92588 0.0
N1805 N 0.65572 0.04971 0.94031 0.0
H1806 H 0.43774 0.13413 0.41766 0.0
H1807 H 0.55273 0.2027 0.38832 0.0
H1808 H 0.43853 0.20382 0.38965 0.0
H1809 H 0.55115 0.13251 0.41502 0.0
H1810 H 0.51141 0.20611 0.39516 0.0
H1811 H 0.47915 0.13605 0.42341 0.0
C1812 C 0.44649 0.15007 0.41318 0.0
C1813 C 0.43449 0.16876 0.40292 0.0
C1814 C 0.52016 0.19009 0.39989 0.0
C1815 C 0.48231 0.17089 0.40909 0.0
C1816 C 0.54385 0.18816 0.3961 0.0
C1817 C 0.55556 0.16718 0.40085 0.0
C1818 C 0.50796 0.1709 0.40845 0.0
C1819 C 0.54295 0.14898 0.41089 0.0
C1820 C 0.47025 0.15109 0.41636 0.0
C1821 C 0.44695 0.18893 0.39753 0.0
N1822 N 0.51989 0.15116 0.41405 0.0
N1823 N 0.47016 0.18931 0.40034 0.0
H1824 H 0.05004 0.34474 0.92816 0.0
H1825 H 0.12435 0.33222 0.04374 0.0
H1826 H 0.12341 0.33471 0.92941 0.0
H1827 H 0.05094 0.34179 0.04404 0.0
H1828 H 0.12299 0.325 1.00191 0.0
H1829 H 0.04872 0.33572 0.96984 0.0
C1830 C 0.0658 0.33999 0.93698 0.0
C1831 C 0.08692 0.34081 0.9252 0.0
C1832 C 0.10708 0.32825 0.01112 0.0
C1833 C 0.08555 0.33084 0.97314 0.0
C1834 C 0.10784 0.33227 0.03511 0.0
C1835 C 0.08776 0.33787 0.04749 0.0
C1836 C 0.08612 0.33015 0.99917 0.0
C1837 C 0.06687 0.33758 0.03527 0.0
C1838 C 0.06505 0.33501 0.96089 0.0
C1839 C 0.10675 0.33458 0.93772 0.0
N1840 N 0.06664 0.33427 0.01174 0.0
N1841 N 0.10561 0.33023 0.96098 0.0
H1842 H 0.14405 0.68049 0.9656 0.0
H1843 H 0.06817 0.67227 0.08082 0.0
H1844 H 0.0703 0.676 0.96464 0.0
H1845 H 0.142 0.67541 0.07992 0.0
H1846 H 0.06773 0.68169 0.03915 0.0
H1847 H 0.1427 0.68681 0.00759 0.0
C1848 C 0.12749 0.68136 0.97413 0.0
C1849 C 0.10728 0.67747 0.96147 0.0
C1850 C 0.084 0.6808 0.04819 0.0
C1851 C 0.10562 0.68418 0.01 0.0
C1852 C 0.08426 0.67564 0.07209 0.0
C1853 C 0.10518 0.67278 0.08396 0.0
C1854 C 0.10481 0.68317 0.03604 0.0
C1855 C 0.12546 0.67716 0.07153 0.0
C1856 C 0.12674 0.68486 0.99821 0.0
C1857 C 0.08635 0.67888 0.9736 0.0
N1858 N 0.12477 0.68179 0.0483 0.0
N1859 N 0.08609 0.68169 0.99721 0.0
H1860 H 0.87933 0.55755 0.43551 0.0
H1861 H 0.81202 0.58606 0.55348 0.0
H1862 H 0.81112 0.58718 0.43739 0.0
H1863 H 0.88233 0.56231 0.55018 0.0
H1864 H 0.80835 0.57885 0.5116 0.0
H1865 H 0.8774 0.55126 0.47748 0.0
C1866 C 0.86371 0.56227 0.44463 0.0
C1867 C 0.84546 0.57319 0.43279 0.0
C1868 C 0.82446 0.57483 0.52012 0.0
C1869 C 0.84332 0.56638 0.48126 0.0
C1870 C 0.82654 0.5788 0.54412 0.0
C1871 C 0.84761 0.57504 0.55546 0.0
C1872 C 0.84356 0.56699 0.50729 0.0
C1873 C 0.8658 0.56569 0.54225 0.0
C1874 C 0.86268 0.55878 0.46871 0.0
C1875 C 0.82566 0.57879 0.44569 0.0
N1876 N 0.86343 0.56227 0.51892 0.0
N1877 N 0.82527 0.57569 0.46924 0.0
H1878 H 0.93432 0.32446 0.9689 0.0
H1879 H 0.85997 0.32644 0.08553 0.0
H1880 H 0.86042 0.32642 0.97115 0.0
H1881 H 0.93386 0.32832 0.08499 0.0
H1882 H 0.86037 0.31755 0.044 0.0
H1883 H 0.93491 0.31725 0.011 0.0
C1884 C 0.9182 0.32271 0.97807 0.0
C1885 C 0.89728 0.32631 0.9664 0.0
C1886 C 0.87655 0.31945 0.05298 0.0
C1887 C 0.89786 0.3184 0.01477 0.0
C1888 C 0.87634 0.32439 0.07683 0.0
C1889 C 0.89691 0.32838 0.08886 0.0
C1890 C 0.89747 0.31872 0.04083 0.0
C1891 C 0.91757 0.32543 0.07651 0.0
C1892 C 0.91856 0.31878 1.0022 0.0
C1893 C 0.87697 0.324 0.97936 0.0
N1894 N 0.91731 0.32122 0.05312 0.0
N1895 N 0.87779 0.32051 0.00278 0.0
H1896 H 0.124 0.44139 0.54376 0.0
H1897 H 0.1965 0.41715 0.42841 0.0
H1898 H 0.19419 0.41709 0.54444 0.0
H1899 H 0.12664 0.44249 0.42897 0.0
H1900 H 0.1985 0.42366 0.47051 0.0
H1901 H 0.12717 0.4485 0.502 0.0
C1902 C 0.14026 0.43796 0.53524 0.0
C1903 C 0.15878 0.42837 0.54772 0.0
C1904 C 0.18288 0.42821 0.46135 0.0
C1905 C 0.1624 0.4361 0.49949 0.0
C1906 C 0.18176 0.42465 0.43722 0.0
C1907 C 0.16127 0.429 0.42503 0.0
C1908 C 0.16335 0.43613 0.47347 0.0
C1909 C 0.14275 0.43863 0.43755 0.0
C1910 C 0.14203 0.44196 0.51129 0.0
C1911 C 0.17942 0.42442 0.53561 0.0
N1912 N 0.14413 0.44154 0.46103 0.0
N1913 N 0.18055 0.42792 0.51215 0.0
H1914 H 0.95938 0.65795 0.93619 0.0
H1915 H 0.88379 0.67085 0.05102 0.0
H1916 H 0.88606 0.66846 0.93667 0.0
H1917 H 0.95703 0.65995 0.05205 0.0
H1918 H 0.88575 0.67822 0.00924 0.0
H1919 H 0.96027 0.66675 0.97793 0.0
C1920 C 0.94354 0.66276 0.94486 0.0
C1921 C 0.92256 0.66215 0.93283 0.0
C1922 C 0.9015 0.67464 0.01861 0.0
C1923 C 0.92343 0.67186 0.98085 0.0
C1924 C 0.9004 0.67054 0.04257 0.0
C1925 C 0.92024 0.6645 0.05514 0.0
C1926 C 0.92256 0.67242 0.00687 0.0
C1927 C 0.94127 0.66447 0.04314 0.0
C1928 C 0.94405 0.66761 0.9688 0.0
C1929 C 0.90262 0.66844 0.94517 0.0
N1930 N 0.94182 0.6679 0.01964 0.0
N1931 N 0.90351 0.67266 0.96847 0.0
H1932 H 0.78892 0.41057 0.46819 0.0
H1933 H 0.85837 0.43519 0.58561 0.0
H1934 H 0.86016 0.42991 0.4708 0.0
H1935 H 0.78838 0.41161 0.5847 0.0
H1936 H 0.85668 0.44065 0.54351 0.0
H1937 H 0.786 0.41777 0.5102 0.0
C1938 C 0.80383 0.4168 0.47744 0.0
C1939 C 0.82489 0.4194 0.46584 0.0
C1940 C 0.84153 0.43465 0.55251 0.0
C1941 C 0.82169 0.42748 0.51414 0.0
C1942 C 0.84243 0.43166 0.57667 0.0
C1943 C 0.82356 0.4227 0.58886 0.0
C1944 C 0.82167 0.42848 0.5402 0.0
C1945 C 0.80339 0.41852 0.57615 0.0
C1946 C 0.80217 0.42079 0.50151 0.0
C1947 C 0.84361 0.42744 0.47891 0.0
N1948 N 0.8031 0.42107 0.55252 0.0
N1949 N 0.84162 0.43094 0.50228 0.0
H1950 H 0.21852 0.59771 0.57972 0.0
H1951 H 0.14986 0.5654 0.46386 0.0
H1952 H 0.14962 0.57107 0.57868 0.0
H1953 H 0.21723 0.59575 0.46347 0.0
H1954 H 0.15278 0.56032 0.50595 0.0
H1955 H 0.22153 0.59006 0.53783 0.0
C1956 C 0.20423 0.58968 0.57088 0.0
C1957 C 0.18369 0.58524 0.58286 0.0
C1958 C 0.1671 0.56777 0.49666 0.0
C1959 C 0.18693 0.57677 0.53464 0.0
C1960 C 0.1655 0.57059 0.47252 0.0
C1961 C 0.18323 0.58126 0.45997 0.0
C1962 C 0.18652 0.57581 0.50859 0.0
C1963 C 0.20308 0.58751 0.47232 0.0
C1964 C 0.20591 0.58549 0.54686 0.0
C1965 C 0.16575 0.57496 0.57027 0.0
N1966 N 0.20404 0.58503 0.49593 0.0
N1967 N 0.16769 0.57138 0.54691 0.0
H1968 H 0.29949 0.18327 0.34875 0.0
H1969 H 0.18769 0.10827 0.37583 0.0
H1970 H 0.30112 0.12358 0.39434 0.0
H1971 H 0.19466 0.15111 0.31458 0.0
H1972 H 0.22794 0.11565 0.38538 0.0
H1973 H 0.25937 0.17498 0.33969 0.0
C1974 C 0.29133 0.1687 0.35725 0.0
C1975 C 0.30383 0.15416 0.37242 0.0
C1976 C 0.22072 0.12322 0.36971 0.0
C1977 C 0.25777 0.14436 0.36178 0.0
C1978 C 0.19776 0.11888 0.36414 0.0
C1979 C 0.18767 0.12892 0.34424 0.0
C1980 C 0.2337 0.13811 0.35558 0.0
C1981 C 0.20164 0.14276 0.32994 0.0
C1982 C 0.26846 0.1638 0.35182 0.0
C1983 C 0.29225 0.13533 0.38259 0.0
N1984 N 0.22377 0.14715 0.33603 0.0
N1985 N 0.26995 0.13098 0.37711 0.0
H1986 H 0.43074 0.68383 0.86669 0.0
H1987 H 0.33122 0.77662 0.89688 0.0
H1988 H 0.3603 0.66449 0.87798 0.0
H1989 H 0.40337 0.7924 0.89912 0.0
H1990 H 0.34101 0.73594 0.88817 0.0
H1991 H 0.42038 0.72437 0.87518 0.0
C1992 C 0.41302 0.68811 0.87054 0.0
C1993 C 0.39641 0.67057 0.87155 0.0
C1994 C 0.3547 0.74828 0.89075 0.0
C1995 C 0.38444 0.71713 0.88171 0.0
C1996 C 0.34911 0.77153 0.8959 0.0
C1997 C 0.36645 0.78813 0.89884 0.0
C1998 C 0.3778 0.7415 0.88824 0.0
C1999 C 0.38935 0.78035 0.89712 0.0
C2000 C 0.40715 0.71128 0.87565 0.0
C2001 C 0.37374 0.67732 0.87694 0.0
N2002 N 0.39431 0.75776 0.89177 0.0
N2003 N 0.36847 0.69996 0.88185 0.0
H2004 H 0.70382 0.87436 0.39696 0.0
H2005 H 0.81133 0.84754 0.31412 0.0
H2006 H 0.70583 0.81767 0.34768 0.0
H2007 H 0.81684 0.88904 0.37648 0.0
H2008 H 0.77115 0.84016 0.32354 0.0
H2009 H 0.74411 0.88238 0.38824 0.0
C2010 C 0.7128 0.86333 0.3846 0.0
C2011 C 0.7013 0.8452 0.37315 0.0
C2012 C 0.7811 0.85103 0.33508 0.0
C2013 C 0.7474 0.85483 0.36253 0.0
C2014 C 0.80403 0.85552 0.32955 0.0
C2015 C 0.81765 0.869 0.34448 0.0
C2016 C 0.77149 0.86023 0.3556 0.0
C2017 C 0.8071 0.87858 0.3644 0.0
C2018 C 0.7358 0.86804 0.37952 0.0
C2019 C 0.71392 0.83168 0.35713 0.0
N2020 N 0.78473 0.87399 0.36937 0.0
N2021 N 0.73612 0.83693 0.35213 0.0
H2022 H 0.61298 0.21253 0.90184 0.0
H2023 H 0.65619 0.34125 0.87312 0.0
H2024 H 0.68447 0.22819 0.89137 0.0
H2025 H 0.58577 0.31984 0.86689 0.0
H2026 H 0.66721 0.30093 0.88188 0.0
H2027 H 0.60315 0.25283 0.89274 0.0
C2028 C 0.62672 0.22448 0.89797 0.0
C2029 C 0.64967 0.21674 0.8974 0.0
C2030 C 0.64938 0.30501 0.87838 0.0
C2031 C 0.63831 0.26329 0.88659 0.0
C2032 C 0.64306 0.32804 0.87324 0.0
C2033 C 0.61996 0.33408 0.86915 0.0
C2034 C 0.6325 0.2878 0.8798 0.0
C2035 C 0.60377 0.31611 0.86973 0.0
C2036 C 0.62101 0.24754 0.89254 0.0
C2037 C 0.66657 0.23326 0.89213 0.0
N2038 N 0.6103 0.29393 0.87518 0.0
N2039 N 0.66055 0.25569 0.88689 0.0
H2040 H 0.30782 0.88439 0.57817 0.0
H2041 H 0.19753 0.86557 0.65647 0.0
H2042 H 0.31406 0.85006 0.64466 0.0
H2043 H 0.20782 0.92905 0.618 0.0
H2044 H 0.23768 0.85445 0.64883 0.0
H2045 H 0.26796 0.89466 0.58772 0.0
C2046 C 0.30066 0.87845 0.59451 0.0
C2047 C 0.31434 0.86616 0.61055 0.0
C2048 C 0.23118 0.87094 0.64234 0.0
C2049 C 0.26869 0.87807 0.62164 0.0
C2050 C 0.20835 0.87739 0.64682 0.0
C2051 C 0.19934 0.89847 0.63818 0.0
C2052 C 0.24493 0.88525 0.62838 0.0
C2053 C 0.21409 0.91287 0.62539 0.0
C2054 C 0.27801 0.88464 0.60008 0.0
C2055 C 0.30415 0.85943 0.63171 0.0
N2056 N 0.23598 0.90583 0.62055 0.0
N2057 N 0.28195 0.86535 0.63659 0.0
H2058 H 0.58907 0.70009 0.14434 0.0
H2059 H 0.68913 0.79352 0.12772 0.0
H2060 H 0.66058 0.68021 0.144 0.0
H2061 H 0.61859 0.80562 0.10817 0.0
H2062 H 0.6796 0.75292 0.13689 0.0
H2063 H 0.60001 0.74021 0.13595 0.0
C2064 C 0.6071 0.70418 0.14294 0.0
C2065 C 0.62388 0.68658 0.14492 0.0
C2066 C 0.6663 0.76447 0.13041 0.0
C2067 C 0.63658 0.73273 0.13491 0.0
C2068 C 0.67176 0.78763 0.125 0.0
C2069 C 0.6547 0.80319 0.11707 0.0
C2070 C 0.64354 0.75683 0.12823 0.0
C2071 C 0.63241 0.79444 0.11415 0.0
C2072 C 0.61334 0.72711 0.13787 0.0
C2073 C 0.647 0.69311 0.14265 0.0
N2074 N 0.62749 0.77206 0.11991 0.0
N2075 N 0.65265 0.71558 0.13773 0.0
H2076 H 0.81037 0.13727 0.66718 0.0
H2077 H 0.70303 0.12421 0.58381 0.0
H2078 H 0.80309 0.07856 0.62105 0.0
H2079 H 0.6935 0.15027 0.65362 0.0
H2080 H 0.74286 0.11418 0.59354 0.0
H2081 H 0.77 0.14781 0.65996 0.0
C2082 C 0.80018 0.1263 0.65594 0.0
C2083 C 0.81014 0.10677 0.64498 0.0
C2084 C 0.73209 0.12233 0.60663 0.0
C2085 C 0.76429 0.11948 0.63576 0.0
C2086 C 0.70943 0.12838 0.601 0.0
C2087 C 0.69483 0.13827 0.61786 0.0
C2088 C 0.7405 0.12663 0.62913 0.0
C2089 C 0.70412 0.1428 0.64002 0.0
C2090 C 0.77721 0.13245 0.65171 0.0
C2091 C 0.79613 0.0935 0.63022 0.0
N2092 N 0.72635 0.13706 0.64499 0.0
N2093 N 0.77412 0.10031 0.62575 0.0
H2094 H 0.39123 0.20683 0.10766 0.0
H2095 H 0.34447 0.33195 0.14754 0.0
H2096 H 0.32093 0.21808 0.12861 0.0
H2097 H 0.41619 0.31302 0.14603 0.0
H2098 H 0.33475 0.29151 0.13845 0.0
H2099 H 0.39964 0.24707 0.11778 0.0
C2100 C 0.37741 0.21781 0.11405 0.0
C2101 C 0.35527 0.20884 0.11724 0.0
C2102 C 0.3526 0.29617 0.14036 0.0
C2103 C 0.36503 0.25529 0.12922 0.0
C2104 C 0.35819 0.31926 0.1457 0.0
C2105 C 0.38124 0.32603 0.14767 0.0
C2106 C 0.37015 0.27969 0.13655 0.0
C2107 C 0.3982 0.30871 0.14487 0.0
C2108 C 0.38234 0.24082 0.12007 0.0
C2109 C 0.33822 0.22413 0.12576 0.0
N2110 N 0.39233 0.2865 0.13923 0.0
N2111 N 0.34346 0.24654 0.13147 0.0
H2112 H 0.14742 0.36952 0.17022 0.0
H2113 H 0.10414 0.4108 0.29591 0.0
H2114 H 0.07624 0.37186 0.1906 0.0
H2115 H 0.17413 0.38922 0.28334 0.0
H2116 H 0.09468 0.40094 0.25579 0.0
H2117 H 0.15828 0.37921 0.21027 0.0
C2118 C 0.13406 0.37168 0.18317 0.0
C2119 C 0.11082 0.36974 0.17692 0.0
C2120 C 0.11216 0.39849 0.26172 0.0
C2121 C 0.12323 0.38156 0.22279 0.0
C2122 C 0.11769 0.40437 0.28465 0.0
C2123 C 0.14003 0.40083 0.29324 0.0
C2124 C 0.12906 0.38912 0.24696 0.0
C2125 C 0.1567 0.39233 0.27759 0.0
C2126 C 0.14031 0.37736 0.20602 0.0
C2127 C 0.09435 0.37295 0.19452 0.0
N2128 N 0.15087 0.3867 0.25528 0.0
N2129 N 0.10085 0.37892 0.2165 0.0
H2130 H 0.19258 0.62082 0.72417 0.0
H2131 H 0.09393 0.65026 0.81762 0.0
H2132 H 0.12022 0.61626 0.70949 0.0
H2133 H 0.16502 0.64109 0.83652 0.0
H2134 H 0.10386 0.6413 0.77716 0.0
H2135 H 0.18337 0.63015 0.76482 0.0
C2136 C 0.17477 0.62143 0.7295 0.0
C2137 C 0.15719 0.61763 0.71321 0.0
C2138 C 0.11733 0.6414 0.79012 0.0
C2139 C 0.14649 0.62894 0.7598 0.0
C2140 C 0.1117 0.64677 0.81326 0.0
C2141 C 0.12863 0.64651 0.83068 0.0
C2142 C 0.14011 0.6358 0.78415 0.0
C2143 C 0.15134 0.64157 0.8238 0.0
C2144 C 0.16952 0.62693 0.75273 0.0
C2145 C 0.13442 0.61891 0.72129 0.0
N2146 N 0.15638 0.63638 0.80118 0.0
N2147 N 0.12977 0.62461 0.74385 0.0
H2148 H 0.93143 0.63134 0.19787 0.0
H2149 H 0.83097 0.61345 0.29138 0.0
H2150 H 0.86 0.63151 0.17838 0.0
H2151 H 0.90167 0.59403 0.30319 0.0
H2152 H 0.84065 0.62286 0.25081 0.0
H2153 H 0.92038 0.62219 0.2379 0.0
C2154 C 0.91339 0.62989 0.20204 0.0
C2155 C 0.89667 0.63225 0.18458 0.0
C2156 C 0.85396 0.61633 0.26228 0.0
C2157 C 0.88385 0.62135 0.23058 0.0
C2158 C 0.84841 0.61076 0.28542 0.0
C2159 C 0.86547 0.60287 0.3009 0.0
C2160 C 0.8768 0.61432 0.25459 0.0
C2161 C 0.88784 0.60001 0.29206 0.0
C2162 C 0.9071 0.62438 0.2249 0.0
C2163 C 0.87354 0.62988 0.19118 0.0
N2164 N 0.89285 0.60593 0.26971 0.0
N2165 N 0.86783 0.62454 0.21358 0.0
H2166 H 0.90935 0.35498 0.82264 0.0
H2167 H 0.80957 0.38796 0.73187 0.0
H2168 H 0.83937 0.36718 0.84408 0.0
H2169 H 0.8818 0.3931 0.71665 0.0
H2170 H 0.81921 0.37794 0.77233 0.0
H2171 H 0.89852 0.3648 0.78265 0.0
C2172 C 0.89161 0.35931 0.81893 0.0
C2173 C 0.87529 0.36019 0.83692 0.0
C2174 C 0.83291 0.38146 0.76014 0.0
C2175 C 0.86277 0.37187 0.79093 0.0
C2176 C 0.82741 0.38737 0.73705 0.0
C2177 C 0.84484 0.39148 0.72065 0.0
C2178 C 0.85602 0.37932 0.76689 0.0
C2179 C 0.86768 0.39017 0.7285 0.0
C2180 C 0.88548 0.36518 0.79607 0.0
C2181 C 0.85259 0.36621 0.83088 0.0
N2182 N 0.87256 0.38403 0.75087 0.0
N2183 N 0.84703 0.37184 0.80849 0.0
H2184 H 0.70625 0.87598 0.57849 0.0
H2185 H 0.81661 0.85739 0.65672 0.0
H2186 H 0.6989 0.84715 0.6474 0.0
H2187 H 0.80656 0.91962 0.61588 0.0
H2188 H 0.7762 0.84725 0.65004 0.0
H2189 H 0.74637 0.88485 0.5873 0.0
C2190 C 0.71319 0.87095 0.59526 0.0
C2191 C 0.69911 0.86065 0.61217 0.0
C2192 C 0.78284 0.86324 0.64279 0.0
C2193 C 0.74514 0.87091 0.62236 0.0
C2194 C 0.80584 0.86911 0.64669 0.0
C2195 C 0.81498 0.88957 0.63711 0.0
C2196 C 0.76909 0.87745 0.6285 0.0
C2197 C 0.80023 0.9039 0.62393 0.0
C2198 C 0.73602 0.87633 0.60037 0.0
C2199 C 0.70909 0.855 0.6338 0.0
N2200 N 0.7782 0.89739 0.61971 0.0
N2201 N 0.7315 0.86008 0.63824 0.0
H2202 H 0.67715 0.19836 0.11757 0.0
H2203 H 0.57667 0.29341 0.13342 0.0
H2204 H 0.60602 0.18504 0.10238 0.0
H2205 H 0.64826 0.31157 0.1318 0.0
H2206 H 0.58734 0.25284 0.12553 0.0
H2207 H 0.66727 0.23934 0.12483 0.0
C2208 C 0.65954 0.20405 0.11539 0.0
C2209 C 0.64245 0.18805 0.10927 0.0
C2210 C 0.60074 0.26568 0.12701 0.0
C2211 C 0.63091 0.23499 0.11821 0.0
C2212 C 0.59466 0.28887 0.13176 0.0
C2213 C 0.61155 0.30608 0.13334 0.0
C2214 C 0.62393 0.25946 0.12397 0.0
C2215 C 0.63459 0.29899 0.13076 0.0
C2216 C 0.65388 0.22746 0.11971 0.0
C2217 C 0.61986 0.1966 0.10695 0.0
N2218 N 0.64008 0.27632 0.12621 0.0
N2219 N 0.61476 0.21931 0.11162 0.0
H2220 H 0.19526 0.1445 0.66443 0.0
H2221 H 0.3044 0.1287 0.58329 0.0
H2222 H 0.20427 0.08479 0.61972 0.0
H2223 H 0.312 0.15724 0.6523 0.0
H2224 H 0.26448 0.11929 0.59244 0.0
H2225 H 0.23553 0.15493 0.65748 0.0
C2226 C 0.2058 0.13333 0.65353 0.0
C2227 C 0.19636 0.11355 0.64288 0.0
C2228 C 0.27484 0.12785 0.60547 0.0
C2229 C 0.24209 0.12606 0.634 0.0
C2230 C 0.29755 0.13355 0.60016 0.0
C2231 C 0.31164 0.14392 0.617 0.0
C2232 C 0.26588 0.13298 0.62761 0.0
C2233 C 0.30179 0.14934 0.63875 0.0
C2234 C 0.22871 0.1394 0.64946 0.0
C2235 C 0.21081 0.09997 0.6286 0.0
N2236 N 0.27952 0.14391 0.64341 0.0
N2237 N 0.23276 0.10667 0.62429 0.0
H2238 H 0.3943 0.82649 0.09416 0.0
H2239 H 0.35518 0.69918 0.13301 0.0
H2240 H 0.32612 0.81281 0.11962 0.0
H2241 H 0.42592 0.72002 0.1291 0.0
H2242 H 0.34334 0.73936 0.12467 0.0
H2243 H 0.4049 0.78605 0.10186 0.0
C2244 C 0.38137 0.81495 0.10102 0.0
C2245 C 0.35923 0.82332 0.10632 0.0
C2246 C 0.36144 0.73519 0.12582 0.0
C2247 C 0.37151 0.77663 0.11541 0.0
C2248 C 0.36825 0.71224 0.13067 0.0
C2249 C 0.39164 0.70612 0.13189 0.0
C2250 C 0.37809 0.7522 0.12169 0.0
C2251 C 0.40773 0.72387 0.12856 0.0
C2252 C 0.38757 0.79182 0.10562 0.0
C2253 C 0.34336 0.80727 0.11519 0.0
N2254 N 0.40067 0.74598 0.12341 0.0
N2255 N 0.34982 0.78477 0.11951 0.0
H2256 H 0.69108 0.1766 0.35114 0.0
H2257 H 0.80443 0.10371 0.38003 0.0
H2258 H 0.68897 0.11649 0.39613 0.0
H2259 H 0.79479 0.14147 0.31579 0.0
H2260 H 0.76386 0.11059 0.38954 0.0
H2261 H 0.73127 0.16779 0.34253 0.0
C2262 C 0.69914 0.16181 0.35962 0.0
C2263 C 0.68646 0.14731 0.37446 0.0
C2264 C 0.7706 0.11709 0.37324 0.0
C2265 C 0.7327 0.13697 0.36436 0.0
C2266 C 0.79372 0.11304 0.3677 0.0
C2267 C 0.80313 0.12186 0.34696 0.0
C2268 C 0.75685 0.13057 0.35825 0.0
C2269 C 0.78837 0.13409 0.33184 0.0
C2270 C 0.72206 0.15662 0.35443 0.0
C2271 C 0.69798 0.12821 0.38464 0.0
N2272 N 0.76615 0.13835 0.33793 0.0
N2273 N 0.72041 0.12361 0.37943 0.0
H2274 H 0.35115 0.29604 0.87654 0.0
H2275 H 0.39472 0.16807 0.91214 0.0
H2276 H 0.42252 0.27647 0.88208 0.0
H2277 H 0.32388 0.18436 0.89716 0.0
H2278 H 0.40462 0.20846 0.90421 0.0
H2279 H 0.34055 0.25592 0.88547 0.0
C2280 C 0.36464 0.28327 0.87933 0.0
C2281 C 0.38783 0.28979 0.87845 0.0
C2282 C 0.38687 0.2033 0.90283 0.0
C2283 C 0.37568 0.24365 0.88924 0.0
C2284 C 0.38111 0.18019 0.90759 0.0
C2285 C 0.35835 0.1726 0.90534 0.0
C2286 C 0.3698 0.21919 0.89577 0.0
C2287 C 0.34161 0.1893 0.89924 0.0
C2288 C 0.35853 0.26034 0.88458 0.0
C2289 C 0.40445 0.27235 0.88238 0.0
N2290 N 0.34769 0.21171 0.89455 0.0
N2291 N 0.39806 0.25021 0.88774 0.0
H2292 H 0.20069 0.89234 0.37886 0.0
H2293 H 0.31343 0.8173 0.35001 0.0
H2294 H 0.20723 0.84782 0.31865 0.0
H2295 H 0.3152 0.87773 0.3946 0.0
H2296 H 0.27289 0.82516 0.34231 0.0
H2297 H 0.24136 0.88542 0.38758 0.0
C2298 C 0.21071 0.88143 0.36723 0.0
C2299 C 0.20038 0.87076 0.34789 0.0
C2300 C 0.2821 0.83662 0.35392 0.0
C2301 C 0.24691 0.86216 0.35828 0.0
C2302 C 0.30524 0.83197 0.35858 0.0
C2303 C 0.31793 0.84685 0.37301 0.0
C2304 C 0.27128 0.85617 0.36391 0.0
C2305 C 0.30622 0.86575 0.38336 0.0
C2306 C 0.23392 0.87737 0.37234 0.0
C2307 C 0.21434 0.85661 0.33364 0.0
N2308 N 0.28363 0.86988 0.3786 0.0
N2309 N 0.23671 0.85254 0.33926 0.0
H2310 H 0.65859 0.70784 0.87165 0.0
H2311 H 0.61291 0.83525 0.9064 0.0
H2312 H 0.58693 0.72663 0.87583 0.0
H2313 H 0.68399 0.82034 0.89117 0.0
H2314 H 0.60373 0.7947 0.8984 0.0
H2315 H 0.66858 0.74821 0.8803 0.0
C2316 C 0.64491 0.72048 0.87407 0.0
C2317 C 0.62183 0.71369 0.87292 0.0
C2318 C 0.62138 0.8002 0.89695 0.0
C2319 C 0.63326 0.76007 0.88338 0.0
C2320 C 0.62672 0.8234 0.90174 0.0
C2321 C 0.64933 0.83142 0.89947 0.0
C2322 C 0.63871 0.78464 0.88985 0.0
C2323 C 0.66635 0.81505 0.89327 0.0
C2324 C 0.65067 0.74355 0.87915 0.0
C2325 C 0.60494 0.73096 0.87637 0.0
N2326 N 0.66069 0.79253 0.88857 0.0
N2327 N 0.61099 0.75323 0.8816 0.0
H2328 H 0.9377 0.62184 0.79218 0.0
H2329 H 0.83686 0.60456 0.69859 0.0
H2330 H 0.86583 0.62441 0.8099 0.0
H2331 H 0.90866 0.59462 0.68297 0.0
H2332 H 0.84693 0.6119 0.73934 0.0
H2333 H 0.9273 0.61349 0.75173 0.0
C2334 C 0.91974 0.62099 0.78756 0.0
C2335 C 0.90266 0.62389 0.80461 0.0
C2336 C 0.86046 0.60791 0.72703 0.0
C2337 C 0.89057 0.61391 0.7582 0.0
C2338 C 0.8547 0.60351 0.70374 0.0
C2339 C 0.87189 0.59893 0.68716 0.0
C2340 C 0.88362 0.60792 0.73387 0.0
C2341 C 0.89475 0.59804 0.695 0.0
C2342 C 0.91379 0.61599 0.76445 0.0
C2343 C 0.87964 0.62234 0.79746 0.0
N2344 N 0.89992 0.60267 0.71765 0.0
N2345 N 0.87431 0.61741 0.77491 0.0
H2346 H 0.81156 0.39783 0.32061 0.0
H2347 H 0.9122 0.3688 0.22939 0.0
H2348 H 0.88359 0.40278 0.33679 0.0
H2349 H 0.8415 0.37747 0.20885 0.0
H2350 H 0.90148 0.37884 0.26941 0.0
H2351 H 0.82164 0.38968 0.2799 0.0
C2352 C 0.82946 0.39768 0.31559 0.0
C2353 C 0.8467 0.40101 0.33236 0.0
C2354 C 0.88828 0.37846 0.25617 0.0
C2355 C 0.85841 0.39098 0.28573 0.0
C2356 C 0.89437 0.37249 0.2333 0.0
C2357 C 0.87777 0.3722 0.21558 0.0
C2358 C 0.86535 0.38408 0.26157 0.0
C2359 C 0.85494 0.37742 0.22184 0.0
C2360 C 0.83522 0.3928 0.29234 0.0
C2361 C 0.86963 0.40032 0.32466 0.0
N2362 N 0.84944 0.38312 0.24422 0.0
N2363 N 0.87477 0.39516 0.30209 0.0
H2364 H 0.0722 0.38273 0.78493 0.0
H2365 H 0.17303 0.40051 0.69134 0.0
H2366 H 0.14409 0.37887 0.80232 0.0
H2367 H 0.10123 0.41074 0.67594 0.0
H2368 H 0.16299 0.39293 0.73206 0.0
H2369 H 0.0826 0.3917 0.74462 0.0
C2370 C 0.09017 0.38342 0.78026 0.0
C2371 C 0.10725 0.37997 0.79718 0.0
C2372 C 0.14945 0.39706 0.7198 0.0
C2373 C 0.11933 0.39068 0.75093 0.0
C2374 C 0.15521 0.40163 0.69654 0.0
C2375 C 0.138 0.4063 0.68002 0.0
C2376 C 0.12629 0.397 0.72668 0.0
C2377 C 0.11515 0.40723 0.68793 0.0
C2378 C 0.09611 0.38878 0.75723 0.0
C2379 C 0.13027 0.38136 0.78997 0.0
N2380 N 0.10999 0.40244 0.71054 0.0
N2381 N 0.1356 0.38664 0.7675 0.0
H2382 H 0.19668 0.61445 0.31618 0.0
H2383 H 0.09435 0.62939 0.22453 0.0
H2384 H 0.12788 0.59033 0.3285 0.0
H2385 H 0.16519 0.62943 0.20297 0.0
H2386 H 0.10661 0.61965 0.26414 0.0
H2387 H 0.18609 0.62282 0.27558 0.0
C2388 C 0.17951 0.61048 0.31033 0.0
C2389 C 0.16319 0.60168 0.32601 0.0
C2390 C 0.1195 0.6219 0.25077 0.0
C2391 C 0.15076 0.61201 0.27966 0.0
C2392 C 0.11251 0.62773 0.22815 0.0
C2393 C 0.12872 0.6303 0.21026 0.0
C2394 C 0.14294 0.61886 0.25578 0.0
C2395 C 0.15204 0.62763 0.21613 0.0
C2396 C 0.17343 0.61546 0.28716 0.0
C2397 C 0.14111 0.59716 0.31727 0.0
N2398 N 0.15844 0.62211 0.23833 0.0
N2399 N 0.13552 0.60264 0.29491 0.0
loop_
_geom_bond_atom_site_label_1
_geom_bond_atom_site_label_2
_geom_bond_distance
_geom_bond_site_symmetry_2
_ccdc_geom_bond_type
Zn0 O3 2.031 . S
Zn0 O5 2.049 . S
Zn0 O10 2.067 . S
Zn1 O2 1.962 . S
Zn1 O4 1.986 . S
Zn1 O6 1.996 . S
Zn1 O9 1.943 . S
O2 Zn1 1.962 . S
O2 C7 1.254 . S
O3 Zn0 2.031 . S
O3 C7 1.269 . S
O4 Zn1 1.986 . S
O4 C11 1.262 . S
O5 Zn0 2.049 . S
O5 C13 1.260 . S
O6 Zn1 1.996 . S
O6 C13 1.257 . S
C7 O2 1.254 . S
C7 O3 1.269 . S
C8 O9 1.249 . S
C8 O10 1.270 . S
O9 Zn1 1.943 . S
O9 C8 1.249 . S
O10 Zn0 2.067 . S
O10 C8 1.270 . S
C11 O4 1.262 . S
C11 O12 1.232 . S
O12 C11 1.232 . S
C13 O5 1.260 . S
C13 O6 1.257 . S
Zn14 O17 2.031 . S
Zn14 O19 2.049 . S
Zn14 O24 2.067 . S
Zn15 O16 1.962 . S
Zn15 O18 1.986 . S
Zn15 O20 1.996 . S
Zn15 O23 1.943 . S
O16 Zn15 1.962 . S
O16 C21 1.254 . S
O17 Zn14 2.031 . S
O17 C21 1.269 . S
O18 Zn15 1.986 . S
O18 C25 1.262 . S
O19 Zn14 2.049 . S
O19 C27 1.260 . S
O20 Zn15 1.996 . S
O20 C27 1.257 . S
C21 O16 1.254 . S
C21 O17 1.269 . S
C22 O23 1.249 . S
C22 O24 1.270 . S
O23 Zn15 1.943 . S
O23 C22 1.249 . S
O24 Zn14 2.067 . S
O24 C22 1.270 . S
C25 O18 1.262 . S
C25 O26 1.232 . S
O26 C25 1.232 . S
C27 O19 1.260 . S
C27 O20 1.257 . S
Zn28 O31 2.031 . S
Zn28 O33 2.049 . S
Zn28 O38 2.067 . S
Zn29 O30 1.962 . S
Zn29 O32 1.986 . S
Zn29 O34 1.996 . S
Zn29 O37 1.943 . S
O30 Zn29 1.962 . S
O30 C35 1.254 . S
O31 Zn28 2.031 . S
O31 C35 1.269 . S
O32 Zn29 1.986 . S
O32 C39 1.262 . S
O33 Zn28 2.049 . S
O33 C41 1.260 . S
O34 Zn29 1.996 . S
O34 C41 1.257 . S
C35 O30 1.254 . S
C35 O31 1.269 . S
C36 O37 1.249 . S
C36 O38 1.270 . S
O37 Zn29 1.943 . S
O37 C36 1.249 . S
O38 Zn28 2.067 . S
O38 C36 1.270 . S
C39 O32 1.262 . S
C39 O40 1.232 . S
O40 C39 1.232 . S
C41 O33 1.260 . S
C41 O34 1.257 . S
Zn42 O45 2.031 . S
Zn42 O47 2.049 . S
Zn42 O52 2.067 . S
Zn43 O44 1.962 . S
Zn43 O46 1.986 . S
Zn43 O48 1.996 . S
Zn43 O51 1.943 . S
O44 Zn43 1.962 . S
O44 C49 1.254 . S
O45 Zn42 2.031 . S
O45 C49 1.269 . S
O46 Zn43 1.986 . S
O46 C53 1.262 . S
O47 Zn42 2.049 . S
O47 C55 1.260 . S
O48 Zn43 1.996 . S
O48 C55 1.257 . S
C49 O44 1.254 . S
C49 O45 1.269 . S
C50 O51 1.249 . S
C50 O52 1.270 . S
O51 Zn43 1.943 . S
O51 C50 1.249 . S
O52 Zn42 2.067 . S
O52 C50 1.270 . S
C53 O46 1.262 . S
C53 O54 1.232 . S
O54 C53 1.232 . S
C55 O47 1.260 . S
C55 O48 1.257 . S
Zn56 O59 2.031 . S
Zn56 O61 2.049 . S
Zn56 O66 2.067 . S
Zn57 O58 1.962 . S
Zn57 O60 1.986 . S
Zn57 O62 1.996 . S
Zn57 O65 1.943 . S
O58 Zn57 1.962 . S
O58 C63 1.254 . S
O59 Zn56 2.031 . S
O59 C63 1.269 . S
O60 Zn57 1.986 . S
O60 C67 1.262 . S
O61 Zn56 2.049 . S
O61 C69 1.260 . S
O62 Zn57 1.996 . S
O62 C69 1.257 . S
C63 O58 1.254 . S
C63 O59 1.269 . S
C64 O65 1.249 . S
C64 O66 1.270 . S
O65 Zn57 1.943 . S
O65 C64 1.249 . S
O66 Zn56 2.067 . S
O66 C64 1.270 . S
C67 O60 1.262 . S
C67 O68 1.232 . S
O68 C67 1.232 . S
C69 O61 1.260 . S
C69 O62 1.257 . S
Zn70 O73 2.031 . S
Zn70 O75 2.049 . S
Zn70 O80 2.067 . S
Zn71 O72 1.962 . S
Zn71 O74 1.986 . S
Zn71 O76 1.996 . S
Zn71 O79 1.943 . S
O72 Zn71 1.962 . S
O72 C77 1.254 . S
O73 Zn70 2.031 . S
O73 C77 1.269 . S
O74 Zn71 1.986 . S
O74 C81 1.262 . S
O75 Zn70 2.049 . S
O75 C83 1.260 . S
O76 Zn71 1.996 . S
O76 C83 1.257 . S
C77 O72 1.254 . S
C77 O73 1.269 . S
C78 O79 1.249 . S
C78 O80 1.270 . S
O79 Zn71 1.943 . S
O79 C78 1.249 . S
O80 Zn70 2.067 . S
O80 C78 1.270 . S
C81 O74 1.262 . S
C81 O82 1.232 . S
O82 C81 1.232 . S
C83 O75 1.260 . S
C83 O76 1.257 . S
Zn84 O87 2.031 . S
Zn84 O89 2.049 . S
Zn84 O94 2.067 . S
Zn85 O86 1.962 . S
Zn85 O88 1.986 . S
Zn85 O90 1.996 . S
Zn85 O93 1.943 . S
O86 Zn85 1.962 . S
O86 C91 1.254 . S
O87 Zn84 2.031 . S
O87 C91 1.269 . S
O88 Zn85 1.986 . S
O88 C95 1.262 . S
O89 Zn84 2.049 . S
O89 C97 1.260 . S
O90 Zn85 1.996 . S
O90 C97 1.257 . S
C91 O86 1.254 . S
C91 O87 1.269 . S
C92 O93 1.249 . S
C92 O94 1.270 . S
O93 Zn85 1.943 . S
O93 C92 1.249 . S
O94 Zn84 2.067 . S
O94 C92 1.270 . S
C95 O88 1.262 . S
C95 O96 1.232 . S
O96 C95 1.232 . S
C97 O89 1.260 . S
C97 O90 1.257 . S
Zn98 O101 2.031 . S
Zn98 O103 2.049 . S
Zn98 O108 2.067 . S
Zn99 O100 1.962 . S
Zn99 O102 1.986 . S
Zn99 O104 1.996 . S
Zn99 O107 1.943 . S
O100 Zn99 1.962 . S
O100 C105 1.254 . S
O101 Zn98 2.031 . S
O101 C105 1.269 . S
O102 Zn99 1.986 . S
O102 C109 1.262 . S
O103 Zn98 2.049 . S
O103 C111 1.260 . S
O104 Zn99 1.996 . S
O104 C111 1.257 . S
C105 O100 1.254 . S
C105 O101 1.269 . S
C106 O107 1.249 . S
C106 O108 1.270 . S
O107 Zn99 1.943 . S
O107 C106 1.249 . S
O108 Zn98 2.067 . S
O108 C106 1.270 . S
C109 O102 1.262 . S
C109 O110 1.232 . S
O110 C109 1.232 . S
C111 O103 1.260 . S
C111 O104 1.257 . S
Zn112 O115 2.031 . S
Zn112 O117 2.049 . S
Zn112 O122 2.067 . S
Zn113 O114 1.962 . S
Zn113 O116 1.986 . S
Zn113 O118 1.996 . S
Zn113 O121 1.943 . S
O114 Zn113 1.962 . S
O114 C119 1.254 . S
O115 Zn112 2.031 . S
O115 C119 1.269 . S
O116 Zn113 1.986 . S
O116 C123 1.262 . S
O117 Zn112 2.049 . S
O117 C125 1.260 . S
O118 Zn113 1.996 . S
O118 C125 1.257 . S
C119 O114 1.254 . S
C119 O115 1.269 . S
C120 O121 1.249 . S
C120 O122 1.270 . S
O121 Zn113 1.943 . S
O121 C120 1.249 . S
O122 Zn112 2.067 . S
O122 C120 1.270 . S
C123 O116 1.262 . S
C123 O124 1.232 . S
O124 C123 1.232 . S
C125 O117 1.260 . S
C125 O118 1.257 . S
Zn126 O129 2.031 . S
Zn126 O131 2.049 . S
Zn126 O136 2.067 . S
Zn127 O128 1.962 . S
Zn127 O130 1.986 . S
Zn127 O132 1.996 . S
Zn127 O135 1.943 . S
O128 Zn127 1.962 . S
O128 C133 1.254 . S
O129 Zn126 2.031 . S
O129 C133 1.269 . S
O130 Zn127 1.986 . S
O130 C137 1.262 . S
O131 Zn126 2.049 . S
O131 C139 1.260 . S
O132 Zn127 1.996 . S
O132 C139 1.257 . S
C133 O128 1.254 . S
C133 O129 1.269 . S
C134 O135 1.249 . S
C134 O136 1.270 . S
O135 Zn127 1.943 . S
O135 C134 1.249 . S
O136 Zn126 2.067 . S
O136 C134 1.270 . S
C137 O130 1.262 . S
C137 O138 1.232 . S
O138 C137 1.232 . S
C139 O131 1.260 . S
C139 O132 1.257 . S
Zn140 O143 2.031 . S
Zn140 O145 2.049 . S
Zn140 O150 2.067 . S
Zn141 O142 1.962 . S
Zn141 O144 1.986 . S
Zn141 O146 1.996 . S
Zn141 O149 1.943 . S
O142 Zn141 1.962 . S
O142 C147 1.254 . S
O143 Zn140 2.031 . S
O143 C147 1.269 . S
O144 Zn141 1.986 . S
O144 C151 1.262 . S
O145 Zn140 2.049 . S
O145 C153 1.260 . S
O146 Zn141 1.996 . S
O146 C153 1.257 . S
C147 O142 1.254 . S
C147 O143 1.269 . S
C148 O149 1.249 . S
C148 O150 1.270 . S
O149 Zn141 1.943 . S
O149 C148 1.249 . S
O150 Zn140 2.067 . S
O150 C148 1.270 . S
C151 O144 1.262 . S
C151 O152 1.232 . S
O152 C151 1.232 . S
C153 O145 1.260 . S
C153 O146 1.257 . S
Zn154 O157 2.031 . S
Zn154 O159 2.049 . S
Zn154 O164 2.067 . S
Zn155 O156 1.962 . S
Zn155 O158 1.986 . S
Zn155 O160 1.996 . S
Zn155 O163 1.943 . S
O156 Zn155 1.962 . S
O156 C161 1.254 . S
O157 Zn154 2.031 . S
O157 C161 1.269 . S
O158 Zn155 1.986 . S
O158 C165 1.262 . S
O159 Zn154 2.049 . S
O159 C167 1.260 . S
O160 Zn155 1.996 . S
O160 C167 1.257 . S
C161 O156 1.254 . S
C161 O157 1.269 . S
C162 O163 1.249 . S
C162 O164 1.270 . S
O163 Zn155 1.943 . S
O163 C162 1.249 . S
O164 Zn154 2.067 . S
O164 C162 1.270 . S
C165 O158 1.262 . S
C165 O166 1.232 . S
O166 C165 1.232 . S
C167 O159 1.260 . S
C167 O160 1.257 . S
Zn168 O171 2.031 . S
Zn168 O173 2.049 . S
Zn168 O178 2.067 . S
Zn169 O170 1.962 . S
Zn169 O172 1.986 . S
Zn169 O174 1.996 . S
Zn169 O177 1.943 . S
O170 Zn169 1.962 . S
O170 C175 1.254 . S
O171 Zn168 2.031 . S
O171 C175 1.269 . S
O172 Zn169 1.986 . S
O172 C179 1.262 . S
O173 Zn168 2.049 . S
O173 C181 1.260 . S
O174 Zn169 1.996 . S
O174 C181 1.257 . S
C175 O170 1.254 . S
C175 O171 1.269 . S
C176 O177 1.249 . S
C176 O178 1.270 . S
O177 Zn169 1.943 . S
O177 C176 1.249 . S
O178 Zn168 2.067 . S
O178 C176 1.270 . S
C179 O172 1.262 . S
C179 O180 1.232 . S
O180 C179 1.232 . S
C181 O173 1.260 . S
C181 O174 1.257 . S
Zn182 O185 2.031 . S
Zn182 O187 2.049 . S
Zn182 O192 2.067 . S
Zn183 O184 1.962 . S
Zn183 O186 1.986 . S
Zn183 O188 1.996 . S
Zn183 O191 1.943 . S
O184 Zn183 1.962 . S
O184 C189 1.254 . S
O185 Zn182 2.031 . S
O185 C189 1.269 . S
O186 Zn183 1.986 . S
O186 C193 1.262 . S
O187 Zn182 2.049 . S
O187 C195 1.260 . S
O188 Zn183 1.996 . S
O188 C195 1.257 . S
C189 O184 1.254 . S
C189 O185 1.269 . S
C190 O191 1.249 . S
C190 O192 1.270 . S
O191 Zn183 1.943 . S
O191 C190 1.249 . S
O192 Zn182 2.067 . S
O192 C190 1.270 . S
C193 O186 1.262 . S
C193 O194 1.232 . S
O194 C193 1.232 . S
C195 O187 1.260 . S
C195 O188 1.257 . S
Zn196 O199 2.031 . S
Zn196 O201 2.049 . S
Zn196 O206 2.067 . S
Zn197 O198 1.962 . S
Zn197 O200 1.986 . S
Zn197 O202 1.996 . S
Zn197 O205 1.943 . S
O198 Zn197 1.962 . S
O198 C203 1.254 . S
O199 Zn196 2.031 . S
O199 C203 1.269 . S
O200 Zn197 1.986 . S
O200 C207 1.262 . S
O201 Zn196 2.049 . S
O201 C209 1.260 . S
O202 Zn197 1.996 . S
O202 C209 1.257 . S
C203 O198 1.254 . S
C203 O199 1.269 . S
C204 O205 1.249 . S
C204 O206 1.270 . S
O205 Zn197 1.943 . S
O205 C204 1.249 . S
O206 Zn196 2.067 . S
O206 C204 1.270 . S
C207 O200 1.262 . S
C207 O208 1.232 . S
O208 C207 1.232 . S
C209 O201 1.260 . S
C209 O202 1.257 . S
Zn210 O213 2.031 . S
Zn210 O215 2.049 . S
Zn210 O220 2.067 . S
Zn211 O212 1.962 . S
Zn211 O214 1.986 . S
Zn211 O216 1.996 . S
Zn211 O219 1.943 . S
O212 Zn211 1.962 . S
O212 C217 1.254 . S
O213 Zn210 2.031 . S
O213 C217 1.269 . S
O214 Zn211 1.986 . S
O214 C221 1.262 . S
O215 Zn210 2.049 . S
O215 C223 1.260 . S
O216 Zn211 1.996 . S
O216 C223 1.257 . S
C217 O212 1.254 . S
C217 O213 1.269 . S
C218 O219 1.249 . S
C218 O220 1.270 . S
O219 Zn211 1.943 . S
O219 C218 1.249 . S
O220 Zn210 2.067 . S
O220 C218 1.270 . S
C221 O214 1.262 . S
C221 O222 1.232 . S
O222 C221 1.232 . S
C223 O215 1.260 . S
C223 O216 1.257 . S
Zn224 O227 2.031 . S
Zn224 O229 2.049 . S
Zn224 O234 2.067 . S
Zn225 O226 1.962 . S
Zn225 O228 1.986 . S
Zn225 O230 1.996 . S
Zn225 O233 1.943 . S
O226 Zn225 1.962 . S
O226 C231 1.254 . S
O227 Zn224 2.031 . S
O227 C231 1.269 . S
O228 Zn225 1.986 . S
O228 C235 1.262 . S
O229 Zn224 2.049 . S
O229 C237 1.260 . S
O230 Zn225 1.996 . S
O230 C237 1.257 . S
C231 O226 1.254 . S
C231 O227 1.269 . S
C232 O233 1.249 . S
C232 O234 1.270 . S
O233 Zn225 1.943 . S
O233 C232 1.249 . S
O234 Zn224 2.067 . S
O234 C232 1.270 . S
C235 O228 1.262 . S
C235 O236 1.232 . S
O236 C235 1.232 . S
C237 O229 1.260 . S
C237 O230 1.257 . S
Zn238 O241 2.031 . S
Zn238 O243 2.049 . S
Zn238 O248 2.067 . S
Zn239 O240 1.962 . S
Zn239 O242 1.986 . S
Zn239 O244 1.996 . S
Zn239 O247 1.943 . S
O240 Zn239 1.962 . S
O240 C245 1.254 . S
O241 Zn238 2.031 . S
O241 C245 1.269 . S
O242 Zn239 1.986 . S
O242 C249 1.262 . S
O243 Zn238 2.049 . S
O243 C251 1.260 . S
O244 Zn239 1.996 . S
O244 C251 1.257 . S
C245 O240 1.254 . S
C245 O241 1.269 . S
C246 O247 1.249 . S
C246 O248 1.270 . S
O247 Zn239 1.943 . S
O247 C246 1.249 . S
O248 Zn238 2.067 . S
O248 C246 1.270 . S
C249 O242 1.262 . S
C249 O250 1.232 . S
O250 C249 1.232 . S
C251 O243 1.260 . S
C251 O244 1.257 . S
Zn252 O255 2.031 . S
Zn252 O257 2.049 . S
Zn252 O262 2.067 . S
Zn253 O254 1.962 . S
Zn253 O256 1.986 . S
Zn253 O258 1.996 . S
Zn253 O261 1.943 . S
O254 Zn253 1.962 . S
O254 C259 1.254 . S
O255 Zn252 2.031 . S
O255 C259 1.269 . S
O256 Zn253 1.986 . S
O256 C263 1.262 . S
O257 Zn252 2.049 . S
O257 C265 1.260 . S
O258 Zn253 1.996 . S
O258 C265 1.257 . S
C259 O254 1.254 . S
C259 O255 1.269 . S
C260 O261 1.249 . S
C260 O262 1.270 . S
O261 Zn253 1.943 . S
O261 C260 1.249 . S
O262 Zn252 2.067 . S
O262 C260 1.270 . S
C263 O256 1.262 . S
C263 O264 1.232 . S
O264 C263 1.232 . S
C265 O257 1.260 . S
C265 O258 1.257 . S
Zn266 O269 2.031 . S
Zn266 O271 2.049 . S
Zn266 O276 2.067 . S
Zn267 O268 1.962 . S
Zn267 O270 1.986 . S
Zn267 O272 1.996 . S
Zn267 O275 1.943 . S
O268 Zn267 1.962 . S
O268 C273 1.254 . S
O269 Zn266 2.031 . S
O269 C273 1.269 . S
O270 Zn267 1.986 . S
O270 C277 1.262 . S
O271 Zn266 2.049 . S
O271 C279 1.260 . S
O272 Zn267 1.996 . S
O272 C279 1.257 . S
C273 O268 1.254 . S
C273 O269 1.269 . S
C274 O275 1.249 . S
C274 O276 1.270 . S
O275 Zn267 1.943 . S
O275 C274 1.249 . S
O276 Zn266 2.067 . S
O276 C274 1.270 . S
C277 O270 1.262 . S
C277 O278 1.232 . S
O278 C277 1.232 . S
C279 O271 1.260 . S
C279 O272 1.257 . S
Zn280 O283 2.031 . S
Zn280 O285 2.049 . S
Zn280 O290 2.067 . S
Zn281 O282 1.962 . S
Zn281 O284 1.986 . S
Zn281 O286 1.996 . S
Zn281 O289 1.943 . S
O282 Zn281 1.962 . S
O282 C287 1.254 . S
O283 Zn280 2.031 . S
O283 C287 1.269 . S
O284 Zn281 1.986 . S
O284 C291 1.262 . S
O285 Zn280 2.049 . S
O285 C293 1.260 . S
O286 Zn281 1.996 . S
O286 C293 1.257 . S
C287 O282 1.254 . S
C287 O283 1.269 . S
C288 O289 1.249 . S
C288 O290 1.270 . S
O289 Zn281 1.943 . S
O289 C288 1.249 . S
O290 Zn280 2.067 . S
O290 C288 1.270 . S
C291 O284 1.262 . S
C291 O292 1.232 . S
O292 C291 1.232 . S
C293 O285 1.260 . S
C293 O286 1.257 . S
Zn294 O297 2.031 . S
Zn294 O299 2.049 . S
Zn294 O304 2.067 . S
Zn295 O296 1.962 . S
Zn295 O298 1.986 . S
Zn295 O300 1.996 . S
Zn295 O303 1.943 . S
O296 Zn295 1.962 . S
O296 C301 1.254 . S
O297 Zn294 2.031 . S
O297 C301 1.269 . S
O298 Zn295 1.986 . S
O298 C305 1.262 . S
O299 Zn294 2.049 . S
O299 C307 1.260 . S
O300 Zn295 1.996 . S
O300 C307 1.257 . S
C301 O296 1.254 . S
C301 O297 1.269 . S
C302 O303 1.249 . S
C302 O304 1.270 . S
O303 Zn295 1.943 . S
O303 C302 1.249 . S
O304 Zn294 2.067 . S
O304 C302 1.270 . S
C305 O298 1.262 . S
C305 O306 1.232 . S
O306 C305 1.232 . S
C307 O299 1.260 . S
C307 O300 1.257 . S
Zn308 O311 2.031 . S
Zn308 O313 2.049 . S
Zn308 O318 2.067 . S
Zn309 O310 1.962 . S
Zn309 O312 1.986 . S
Zn309 O314 1.996 . S
Zn309 O317 1.943 . S
O310 Zn309 1.962 . S
O310 C315 1.254 . S
O311 Zn308 2.031 . S
O311 C315 1.269 . S
O312 Zn309 1.986 . S
O312 C319 1.262 . S
O313 Zn308 2.049 . S
O313 C321 1.260 . S
O314 Zn309 1.996 . S
O314 C321 1.257 . S
C315 O310 1.254 . S
C315 O311 1.269 . S
C316 O317 1.249 . S
C316 O318 1.270 . S
O317 Zn309 1.943 . S
O317 C316 1.249 . S
O318 Zn308 2.067 . S
O318 C316 1.270 . S
C319 O312 1.262 . S
C319 O320 1.232 . S
O320 C319 1.232 . S
C321 O313 1.260 . S
C321 O314 1.257 . S
Zn322 O325 2.031 . S
Zn322 O327 2.049 . S
Zn322 O332 2.067 . S
Zn323 O324 1.962 . S
Zn323 O326 1.986 . S
Zn323 O328 1.996 . S
Zn323 O331 1.943 . S
O324 Zn323 1.962 . S
O324 C329 1.254 . S
O325 Zn322 2.031 . S
O325 C329 1.269 . S
O326 Zn323 1.986 . S
O326 C333 1.262 . S
O327 Zn322 2.049 . S
O327 C335 1.260 . S
O328 Zn323 1.996 . S
O328 C335 1.257 . S
C329 O324 1.254 . S
C329 O325 1.269 . S
C330 O331 1.249 . S
C330 O332 1.270 . S
O331 Zn323 1.943 . S
O331 C330 1.249 . S
O332 Zn322 2.067 . S
O332 C330 1.270 . S
C333 O326 1.262 . S
C333 O334 1.232 . S
O334 C333 1.232 . S
C335 O327 1.260 . S
C335 O328 1.257 . S
Zn336 O339 2.031 . S
Zn336 O341 2.049 . S
Zn336 O346 2.067 . S
Zn337 O338 1.962 . S
Zn337 O340 1.986 . S
Zn337 O342 1.996 . S
Zn337 O345 1.943 . S
O338 Zn337 1.962 . S
O338 C343 1.254 . S
O339 Zn336 2.031 . S
O339 C343 1.269 . S
O340 Zn337 1.986 . S
O340 C347 1.262 . S
O341 Zn336 2.049 . S
O341 C349 1.260 . S
O342 Zn337 1.996 . S
O342 C349 1.257 . S
C343 O338 1.254 . S
C343 O339 1.269 . S
C344 O345 1.249 . S
C344 O346 1.270 . S
O345 Zn337 1.943 . S
O345 C344 1.249 . S
O346 Zn336 2.067 . S
O346 C344 1.270 . S
C347 O340 1.262 . S
C347 O348 1.232 . S
O348 C347 1.232 . S
C349 O341 1.260 . S
C349 O342 1.257 . S
Zn350 O353 2.031 . S
Zn350 O355 2.049 . S
Zn350 O360 2.067 . S
Zn351 O352 1.962 . S
Zn351 O354 1.986 . S
Zn351 O356 1.996 . S
Zn351 O359 1.943 . S
O352 Zn351 1.962 . S
O352 C357 1.254 . S
O353 Zn350 2.031 . S
O353 C357 1.269 . S
O354 Zn351 1.986 . S
O354 C361 1.262 . S
O355 Zn350 2.049 . S
O355 C363 1.260 . S
O356 Zn351 1.996 . S
O356 C363 1.257 . S
C357 O352 1.254 . S
C357 O353 1.269 . S
C358 O359 1.249 . S
C358 O360 1.270 . S
O359 Zn351 1.943 . S
O359 C358 1.249 . S
O360 Zn350 2.067 . S
O360 C358 1.270 . S
C361 O354 1.262 . S
C361 O362 1.232 . S
O362 C361 1.232 . S
C363 O355 1.260 . S
C363 O356 1.257 . S
Zn364 O367 2.031 . S
Zn364 O369 2.049 . S
Zn364 O374 2.067 . S
Zn365 O366 1.962 . S
Zn365 O368 1.986 . S
Zn365 O370 1.996 . S
Zn365 O373 1.943 . S
O366 Zn365 1.962 . S
O366 C371 1.254 . S
O367 Zn364 2.031 . S
O367 C371 1.269 . S
O368 Zn365 1.986 . S
O368 C375 1.262 . S
O369 Zn364 2.049 . S
O369 C377 1.260 . S
O370 Zn365 1.996 . S
O370 C377 1.257 . S
C371 O366 1.254 . S
C371 O367 1.269 . S
C372 O373 1.249 . S
C372 O374 1.270 . S
O373 Zn365 1.943 . S
O373 C372 1.249 . S
O374 Zn364 2.067 . S
O374 C372 1.270 . S
C375 O368 1.262 . S
C375 O376 1.232 . S
O376 C375 1.232 . S
C377 O369 1.260 . S
C377 O370 1.257 . S
Zn378 O381 2.031 . S
Zn378 O383 2.049 . S
Zn378 O388 2.067 . S
Zn379 O380 1.962 . S
Zn379 O382 1.986 . S
Zn379 O384 1.996 . S
Zn379 O387 1.943 . S
O380 Zn379 1.962 . S
O380 C385 1.254 . S
O381 Zn378 2.031 . S
O381 C385 1.269 . S
O382 Zn379 1.986 . S
O382 C389 1.262 . S
O383 Zn378 2.049 . S
O383 C391 1.260 . S
O384 Zn379 1.996 . S
O384 C391 1.257 . S
C385 O380 1.254 . S
C385 O381 1.269 . S
C386 O387 1.249 . S
C386 O388 1.270 . S
O387 Zn379 1.943 . S
O387 C386 1.249 . S
O388 Zn378 2.067 . S
O388 C386 1.270 . S
C389 O382 1.262 . S
C389 O390 1.232 . S
O390 C389 1.232 . S
C391 O383 1.260 . S
C391 O384 1.257 . S
Zn392 O395 2.031 . S
Zn392 O397 2.049 . S
Zn392 O402 2.067 . S
Zn393 O394 1.962 . S
Zn393 O396 1.986 . S
Zn393 O398 1.996 . S
Zn393 O401 1.943 . S
O394 Zn393 1.962 . S
O394 C399 1.254 . S
O395 Zn392 2.031 . S
O395 C399 1.269 . S
O396 Zn393 1.986 . S
O396 C403 1.262 . S
O397 Zn392 2.049 . S
O397 C405 1.260 . S
O398 Zn393 1.996 . S
O398 C405 1.257 . S
C399 O394 1.254 . S
C399 O395 1.269 . S
C400 O401 1.249 . S
C400 O402 1.270 . S
O401 Zn393 1.943 . S
O401 C400 1.249 . S
O402 Zn392 2.067 . S
O402 C400 1.270 . S
C403 O396 1.262 . S
C403 O404 1.232 . S
O404 C403 1.232 . S
C405 O397 1.260 . S
C405 O398 1.257 . S
Zn406 O409 2.031 . S
Zn406 O411 2.049 . S
Zn406 O416 2.067 . S
Zn407 O408 1.962 . S
Zn407 O410 1.986 . S
Zn407 O412 1.996 . S
Zn407 O415 1.943 . S
O408 Zn407 1.962 . S
O408 C413 1.254 . S
O409 Zn406 2.031 . S
O409 C413 1.269 . S
O410 Zn407 1.986 . S
O410 C417 1.262 . S
O411 Zn406 2.049 . S
O411 C419 1.260 . S
O412 Zn407 1.996 . S
O412 C419 1.257 . S
C413 O408 1.254 . S
C413 O409 1.269 . S
C414 O415 1.249 . S
C414 O416 1.270 . S
O415 Zn407 1.943 . S
O415 C414 1.249 . S
O416 Zn406 2.067 . S
O416 C414 1.270 . S
C417 O410 1.262 . S
C417 O418 1.232 . S
O418 C417 1.232 . S
C419 O411 1.260 . S
C419 O412 1.257 . S
Zn420 O423 2.031 . S
Zn420 O425 2.049 . S
Zn420 O430 2.067 . S
Zn421 O422 1.962 . S
Zn421 O424 1.986 . S
Zn421 O426 1.996 . S
Zn421 O429 1.943 . S
O422 Zn421 1.962 . S
O422 C427 1.254 . S
O423 Zn420 2.031 . S
O423 C427 1.269 . S
O424 Zn421 1.986 . S
O424 C431 1.262 . S
O425 Zn420 2.049 . S
O425 C433 1.260 . S
O426 Zn421 1.996 . S
O426 C433 1.257 . S
C427 O422 1.254 . S
C427 O423 1.269 . S
C428 O429 1.249 . S
C428 O430 1.270 . S
O429 Zn421 1.943 . S
O429 C428 1.249 . S
O430 Zn420 2.067 . S
O430 C428 1.270 . S
C431 O424 1.262 . S
C431 O432 1.232 . S
O432 C431 1.232 . S
C433 O425 1.260 . S
C433 O426 1.257 . S
Zn434 O437 2.031 . S
Zn434 O439 2.049 . S
Zn434 O444 2.067 . S
Zn435 O436 1.962 . S
Zn435 O438 1.986 . S
Zn435 O440 1.996 . S
Zn435 O443 1.943 . S
O436 Zn435 1.962 . S
O436 C441 1.254 . S
O437 Zn434 2.031 . S
O437 C441 1.269 . S
O438 Zn435 1.986 . S
O438 C445 1.262 . S
O439 Zn434 2.049 . S
O439 C447 1.260 . S
O440 Zn435 1.996 . S
O440 C447 1.257 . S
C441 O436 1.254 . S
C441 O437 1.269 . S
C442 O443 1.249 . S
C442 O444 1.270 . S
O443 Zn435 1.943 . S
O443 C442 1.249 . S
O444 Zn434 2.067 . S
O444 C442 1.270 . S
C445 O438 1.262 . S
C445 O446 1.232 . S
O446 C445 1.232 . S
C447 O439 1.260 . S
C447 O440 1.257 . S
Zn448 O451 2.031 . S
Zn448 O453 2.049 . S
Zn448 O458 2.067 . S
Zn449 O450 1.962 . S
Zn449 O452 1.986 . S
Zn449 O454 1.996 . S
Zn449 O457 1.943 . S
O450 Zn449 1.962 . S
O450 C455 1.254 . S
O451 Zn448 2.031 . S
O451 C455 1.269 . S
O452 Zn449 1.986 . S
O452 C459 1.262 . S
O453 Zn448 2.049 . S
O453 C461 1.260 . S
O454 Zn449 1.996 . S
O454 C461 1.257 . S
C455 O450 1.254 . S
C455 O451 1.269 . S
C456 O457 1.249 . S
C456 O458 1.270 . S
O457 Zn449 1.943 . S
O457 C456 1.249 . S
O458 Zn448 2.067 . S
O458 C456 1.270 . S
C459 O452 1.262 . S
C459 O460 1.232 . S
O460 C459 1.232 . S
C461 O453 1.260 . S
C461 O454 1.257 . S
Zn462 O465 2.031 . S
Zn462 O467 2.049 . S
Zn462 O472 2.067 . S
Zn463 O464 1.962 . S
Zn463 O466 1.986 . S
Zn463 O468 1.996 . S
Zn463 O471 1.943 . S
O464 Zn463 1.962 . S
O464 C469 1.254 . S
O465 Zn462 2.031 . S
O465 C469 1.269 . S
O466 Zn463 1.986 . S
O466 C473 1.262 . S
O467 Zn462 2.049 . S
O467 C475 1.260 . S
O468 Zn463 1.996 . S
O468 C475 1.257 . S
C469 O464 1.254 . S
C469 O465 1.269 . S
C470 O471 1.249 . S
C470 O472 1.270 . S
O471 Zn463 1.943 . S
O471 C470 1.249 . S
O472 Zn462 2.067 . S
O472 C470 1.270 . S
C473 O466 1.262 . S
C473 O474 1.232 . S
O474 C473 1.232 . S
C475 O467 1.260 . S
C475 O468 1.257 . S
Zn476 O479 2.031 . S
Zn476 O481 2.049 . S
Zn476 O486 2.067 . S
Zn477 O478 1.962 . S
Zn477 O480 1.986 . S
Zn477 O482 1.996 . S
Zn477 O485 1.943 . S
O478 Zn477 1.962 . S
O478 C483 1.254 . S
O479 Zn476 2.031 . S
O479 C483 1.269 . S
O480 Zn477 1.986 . S
O480 C487 1.262 . S
O481 Zn476 2.049 . S
O481 C489 1.260 . S
O482 Zn477 1.996 . S
O482 C489 1.257 . S
C483 O478 1.254 . S
C483 O479 1.269 . S
C484 O485 1.249 . S
C484 O486 1.270 . S
O485 Zn477 1.943 . S
O485 C484 1.249 . S
O486 Zn476 2.067 . S
O486 C484 1.270 . S
C487 O480 1.262 . S
C487 O488 1.232 . S
O488 C487 1.232 . S
C489 O481 1.260 . S
C489 O482 1.257 . S
Zn490 O493 2.031 . S
Zn490 O495 2.049 . S
Zn490 O500 2.067 . S
Zn491 O492 1.962 . S
Zn491 O494 1.986 . S
Zn491 O496 1.996 . S
Zn491 O499 1.943 . S
O492 Zn491 1.962 . S
O492 C497 1.254 . S
O493 Zn490 2.031 . S
O493 C497 1.269 . S
O494 Zn491 1.986 . S
O494 C501 1.262 . S
O495 Zn490 2.049 . S
O495 C503 1.260 . S
O496 Zn491 1.996 . S
O496 C503 1.257 . S
C497 O492 1.254 . S
C497 O493 1.269 . S
C498 O499 1.249 . S
C498 O500 1.270 . S
O499 Zn491 1.943 . S
O499 C498 1.249 . S
O500 Zn490 2.067 . S
O500 C498 1.270 . S
C501 O494 1.262 . S
C501 O502 1.232 . S
O502 C501 1.232 . S
C503 O495 1.260 . S
C503 O496 1.257 . S
Zn504 O507 2.031 . S
Zn504 O509 2.049 . S
Zn504 O514 2.067 . S
Zn505 O506 1.962 . S
Zn505 O508 1.986 . S
Zn505 O510 1.996 . S
Zn505 O513 1.943 . S
O506 Zn505 1.962 . S
O506 C511 1.254 . S
O507 Zn504 2.031 . S
O507 C511 1.269 . S
O508 Zn505 1.986 . S
O508 C515 1.262 . S
O509 Zn504 2.049 . S
O509 C517 1.260 . S
O510 Zn505 1.996 . S
O510 C517 1.257 . S
C511 O506 1.254 . S
C511 O507 1.269 . S
C512 O513 1.249 . S
C512 O514 1.270 . S
O513 Zn505 1.943 . S
O513 C512 1.249 . S
O514 Zn504 2.067 . S
O514 C512 1.270 . S
C515 O508 1.262 . S
C515 O516 1.232 . S
O516 C515 1.232 . S
C517 O509 1.260 . S
C517 O510 1.257 . S
Zn518 O521 2.031 . S
Zn518 O523 2.049 . S
Zn518 O528 2.067 . S
Zn519 O520 1.962 . S
Zn519 O522 1.986 . S
Zn519 O524 1.996 . S
Zn519 O527 1.943 . S
O520 Zn519 1.962 . S
O520 C525 1.254 . S
O521 Zn518 2.031 . S
O521 C525 1.269 . S
O522 Zn519 1.986 . S
O522 C529 1.262 . S
O523 Zn518 2.049 . S
O523 C531 1.260 . S
O524 Zn519 1.996 . S
O524 C531 1.257 . S
C525 O520 1.254 . S
C525 O521 1.269 . S
C526 O527 1.249 . S
C526 O528 1.270 . S
O527 Zn519 1.943 . S
O527 C526 1.249 . S
O528 Zn518 2.067 . S
O528 C526 1.270 . S
C529 O522 1.262 . S
C529 O530 1.232 . S
O530 C529 1.232 . S
C531 O523 1.260 . S
C531 O524 1.257 . S
Zn532 O535 2.031 . S
Zn532 O537 2.049 . S
Zn532 O542 2.067 . S
Zn533 O534 1.962 . S
Zn533 O536 1.986 . S
Zn533 O538 1.996 . S
Zn533 O541 1.943 . S
O534 Zn533 1.962 . S
O534 C539 1.254 . S
O535 Zn532 2.031 . S
O535 C539 1.269 . S
O536 Zn533 1.986 . S
O536 C543 1.262 . S
O537 Zn532 2.049 . S
O537 C545 1.260 . S
O538 Zn533 1.996 . S
O538 C545 1.257 . S
C539 O534 1.254 . S
C539 O535 1.269 . S
C540 O541 1.249 . S
C540 O542 1.270 . S
O541 Zn533 1.943 . S
O541 C540 1.249 . S
O542 Zn532 2.067 . S
O542 C540 1.270 . S
C543 O536 1.262 . S
C543 O544 1.232 . S
O544 C543 1.232 . S
C545 O537 1.260 . S
C545 O538 1.257 . S
Zn546 O549 2.031 . S
Zn546 O551 2.049 . S
Zn546 O556 2.067 . S
Zn547 O548 1.962 . S
Zn547 O550 1.986 . S
Zn547 O552 1.996 . S
Zn547 O555 1.943 . S
O548 Zn547 1.962 . S
O548 C553 1.254 . S
O549 Zn546 2.031 . S
O549 C553 1.269 . S
O550 Zn547 1.986 . S
O550 C557 1.262 . S
O551 Zn546 2.049 . S
O551 C559 1.260 . S
O552 Zn547 1.996 . S
O552 C559 1.257 . S
C553 O548 1.254 . S
C553 O549 1.269 . S
C554 O555 1.249 . S
C554 O556 1.270 . S
O555 Zn547 1.943 . S
O555 C554 1.249 . S
O556 Zn546 2.067 . S
O556 C554 1.270 . S
C557 O550 1.262 . S
C557 O558 1.232 . S
O558 C557 1.232 . S
C559 O551 1.260 . S
C559 O552 1.257 . S
Zn560 O563 2.031 . S
Zn560 O565 2.049 . S
Zn560 O570 2.067 . S
Zn561 O562 1.962 . S
Zn561 O564 1.986 . S
Zn561 O566 1.996 . S
Zn561 O569 1.943 . S
O562 Zn561 1.962 . S
O562 C567 1.254 . S
O563 Zn560 2.031 . S
O563 C567 1.269 . S
O564 Zn561 1.986 . S
O564 C571 1.262 . S
O565 Zn560 2.049 . S
O565 C573 1.260 . S
O566 Zn561 1.996 . S
O566 C573 1.257 . S
C567 O562 1.254 . S
C567 O563 1.269 . S
C568 O569 1.249 . S
C568 O570 1.270 . S
O569 Zn561 1.943 . S
O569 C568 1.249 . S
O570 Zn560 2.067 . S
O570 C568 1.270 . S
C571 O564 1.262 . S
C571 O572 1.232 . S
O572 C571 1.232 . S
C573 O565 1.260 . S
C573 O566 1.257 . S
Zn574 O577 2.031 . S
Zn574 O579 2.049 . S
Zn574 O584 2.067 . S
Zn575 O576 1.962 . S
Zn575 O578 1.986 . S
Zn575 O580 1.996 . S
Zn575 O583 1.943 . S
O576 Zn575 1.962 . S
O576 C581 1.254 . S
O577 Zn574 2.031 . S
O577 C581 1.269 . S
O578 Zn575 1.986 . S
O578 C585 1.262 . S
O579 Zn574 2.049 . S
O579 C587 1.260 . S
O580 Zn575 1.996 . S
O580 C587 1.257 . S
C581 O576 1.254 . S
C581 O577 1.269 . S
C582 O583 1.249 . S
C582 O584 1.270 . S
O583 Zn575 1.943 . S
O583 C582 1.249 . S
O584 Zn574 2.067 . S
O584 C582 1.270 . S
C585 O578 1.262 . S
C585 O586 1.232 . S
O586 C585 1.232 . S
C587 O579 1.260 . S
C587 O580 1.257 . S
Zn588 O591 2.031 . S
Zn588 O593 2.049 . S
Zn588 O598 2.067 . S
Zn589 O590 1.962 . S
Zn589 O592 1.986 . S
Zn589 O594 1.996 . S
Zn589 O597 1.943 . S
O590 Zn589 1.962 . S
O590 C595 1.254 . S
O591 Zn588 2.031 . S
O591 C595 1.269 . S
O592 Zn589 1.986 . S
O592 C599 1.262 . S
O593 Zn588 2.049 . S
O593 C601 1.260 . S
O594 Zn589 1.996 . S
O594 C601 1.257 . S
C595 O590 1.254 . S
C595 O591 1.269 . S
C596 O597 1.249 . S
C596 O598 1.270 . S
O597 Zn589 1.943 . S
O597 C596 1.249 . S
O598 Zn588 2.067 . S
O598 C596 1.270 . S
C599 O592 1.262 . S
C599 O600 1.232 . S
O600 C599 1.232 . S
C601 O593 1.260 . S
C601 O594 1.257 . S
Zn602 O605 2.031 . S
Zn602 O607 2.049 . S
Zn602 O612 2.067 . S
Zn603 O604 1.962 . S
Zn603 O606 1.986 . S
Zn603 O608 1.996 . S
Zn603 O611 1.943 . S
O604 Zn603 1.962 . S
O604 C609 1.254 . S
O605 Zn602 2.031 . S
O605 C609 1.269 . S
O606 Zn603 1.986 . S
O606 C613 1.262 . S
O607 Zn602 2.049 . S
O607 C615 1.260 . S
O608 Zn603 1.996 . S
O608 C615 1.257 . S
C609 O604 1.254 . S
C609 O605 1.269 . S
C610 O611 1.249 . S
C610 O612 1.270 . S
O611 Zn603 1.943 . S
O611 C610 1.249 . S
O612 Zn602 2.067 . S
O612 C610 1.270 . S
C613 O606 1.262 . S
C613 O614 1.232 . S
O614 C613 1.232 . S
C615 O607 1.260 . S
C615 O608 1.257 . S
Zn616 O619 2.031 . S
Zn616 O621 2.049 . S
Zn616 O626 2.067 . S
Zn617 O618 1.962 . S
Zn617 O620 1.986 . S
Zn617 O622 1.996 . S
Zn617 O625 1.943 . S
O618 Zn617 1.962 . S
O618 C623 1.254 . S
O619 Zn616 2.031 . S
O619 C623 1.269 . S
O620 Zn617 1.986 . S
O620 C627 1.262 . S
O621 Zn616 2.049 . S
O621 C629 1.260 . S
O622 Zn617 1.996 . S
O622 C629 1.257 . S
C623 O618 1.254 . S
C623 O619 1.269 . S
C624 O625 1.249 . S
C624 O626 1.270 . S
O625 Zn617 1.943 . S
O625 C624 1.249 . S
O626 Zn616 2.067 . S
O626 C624 1.270 . S
C627 O620 1.262 . S
C627 O628 1.232 . S
O628 C627 1.232 . S
C629 O621 1.260 . S
C629 O622 1.257 . S
Zn630 O633 2.031 . S
Zn630 O635 2.049 . S
Zn630 O640 2.067 . S
Zn631 O632 1.962 . S
Zn631 O634 1.986 . S
Zn631 O636 1.996 . S
Zn631 O639 1.943 . S
O632 Zn631 1.962 . S
O632 C637 1.254 . S
O633 Zn630 2.031 . S
O633 C637 1.269 . S
O634 Zn631 1.986 . S
O634 C641 1.262 . S
O635 Zn630 2.049 . S
O635 C643 1.260 . S
O636 Zn631 1.996 . S
O636 C643 1.257 . S
C637 O632 1.254 . S
C637 O633 1.269 . S
C638 O639 1.249 . S
C638 O640 1.270 . S
O639 Zn631 1.943 . S
O639 C638 1.249 . S
O640 Zn630 2.067 . S
O640 C638 1.270 . S
C641 O634 1.262 . S
C641 O642 1.232 . S
O642 C641 1.232 . S
C643 O635 1.260 . S
C643 O636 1.257 . S
Zn644 O647 2.031 . S
Zn644 O649 2.049 . S
Zn644 O654 2.067 . S
Zn645 O646 1.962 . S
Zn645 O648 1.986 . S
Zn645 O650 1.996 . S
Zn645 O653 1.943 . S
O646 Zn645 1.962 . S
O646 C651 1.254 . S
O647 Zn644 2.031 . S
O647 C651 1.269 . S
O648 Zn645 1.986 . S
O648 C655 1.262 . S
O649 Zn644 2.049 . S
O649 C657 1.260 . S
O650 Zn645 1.996 . S
O650 C657 1.257 . S
C651 O646 1.254 . S
C651 O647 1.269 . S
C652 O653 1.249 . S
C652 O654 1.270 . S
O653 Zn645 1.943 . S
O653 C652 1.249 . S
O654 Zn644 2.067 . S
O654 C652 1.270 . S
C655 O648 1.262 . S
C655 O656 1.232 . S
O656 C655 1.232 . S
C657 O649 1.260 . S
C657 O650 1.257 . S
Zn658 O661 2.031 . S
Zn658 O663 2.049 . S
Zn658 O668 2.067 . S
Zn659 O660 1.962 . S
Zn659 O662 1.986 . S
Zn659 O664 1.996 . S
Zn659 O667 1.943 . S
O660 Zn659 1.962 . S
O660 C665 1.254 . S
O661 Zn658 2.031 . S
O661 C665 1.269 . S
O662 Zn659 1.986 . S
O662 C669 1.262 . S
O663 Zn658 2.049 . S
O663 C671 1.260 . S
O664 Zn659 1.996 . S
O664 C671 1.257 . S
C665 O660 1.254 . S
C665 O661 1.269 . S
C666 O667 1.249 . S
C666 O668 1.270 . S
O667 Zn659 1.943 . S
O667 C666 1.249 . S
O668 Zn658 2.067 . S
O668 C666 1.270 . S
C669 O662 1.262 . S
C669 O670 1.232 . S
O670 C669 1.232 . S
C671 O663 1.260 . S
C671 O664 1.257 . S
H672 C678 0.930 . S
H673 C682 0.930 . S
H674 C687 0.929 . S
H675 C685 0.929 . S
H676 C680 0.929 . S
H677 C686 0.929 . S
C678 H672 0.930 . S
C678 C679 1.367 . S
C678 C686 1.378 . S
C679 C678 1.367 . S
C679 C687 1.433 . S
C680 H676 0.929 . S
C680 C682 1.378 . S
C680 C684 1.350 . S
C681 C684 1.463 . S
C681 C686 1.350 . S
C681 N689 1.427 . S
C682 H673 0.930 . S
C682 C680 1.378 . S
C682 C683 1.367 . S
C683 C682 1.367 . S
C683 C685 1.433 . S
C684 C680 1.350 . S
C684 C681 1.463 . S
C684 N688 1.427 . S
C685 H675 0.929 . S
C685 C683 1.433 . S
C685 N688 1.384 . S
C686 H677 0.929 . S
C686 C678 1.378 . S
C686 C681 1.350 . S
C687 H674 0.929 . S
C687 C679 1.433 . S
C687 N689 1.384 . S
N688 C684 1.427 . S
N688 C685 1.384 . S
N689 C681 1.427 . S
N689 C687 1.384 . S
H690 C696 0.930 . S
H691 C700 0.930 . S
H692 C705 0.929 . S
H693 C703 0.929 . S
H694 C698 0.929 . S
H695 C704 0.929 . S
C696 H690 0.930 . S
C696 C697 1.367 . S
C696 C704 1.378 . S
C697 C696 1.367 . S
C697 C705 1.433 . S
C698 H694 0.929 . S
C698 C700 1.378 . S
C698 C702 1.350 . S
C699 C702 1.463 . S
C699 C704 1.350 . S
C699 N707 1.427 . S
C700 H691 0.930 . S
C700 C698 1.378 . S
C700 C701 1.367 . S
C701 C700 1.367 . S
C701 C703 1.433 . S
C702 C698 1.350 . S
C702 C699 1.463 . S
C702 N706 1.427 . S
C703 H693 0.929 . S
C703 C701 1.433 . S
C703 N706 1.384 . S
C704 H695 0.929 . S
C704 C696 1.378 . S
C704 C699 1.350 . S
C705 H692 0.929 . S
C705 C697 1.433 . S
C705 N707 1.384 . S
N706 C702 1.427 . S
N706 C703 1.384 . S
N707 C699 1.427 . S
N707 C705 1.384 . S
H708 C714 0.930 . S
H709 C718 0.930 . S
H710 C723 0.929 . S
H711 C721 0.929 . S
H712 C716 0.929 . S
H713 C722 0.929 . S
C714 H708 0.930 . S
C714 C715 1.367 . S
C714 C722 1.378 . S
C715 C714 1.367 . S
C715 C723 1.433 . S
C716 H712 0.929 . S
C716 C718 1.378 . S
C716 C720 1.350 . S
C717 C720 1.463 . S
C717 C722 1.350 . S
C717 N725 1.427 . S
C718 H709 0.930 . S
C718 C716 1.378 . S
C718 C719 1.367 . S
C719 C718 1.367 . S
C719 C721 1.433 . S
C720 C716 1.350 . S
C720 C717 1.463 . S
C720 N724 1.427 . S
C721 H711 0.929 . S
C721 C719 1.433 . S
C721 N724 1.384 . S
C722 H713 0.929 . S
C722 C714 1.378 . S
C722 C717 1.350 . S
C723 H710 0.929 . S
C723 C715 1.433 . S
C723 N725 1.384 . S
N724 C720 1.427 . S
N724 C721 1.384 . S
N725 C717 1.427 . S
N725 C723 1.384 . S
H726 C732 0.930 . S
H727 C736 0.930 . S
H728 C741 0.929 . S
H729 C739 0.929 . S
H730 C734 0.929 . S
H731 C740 0.929 . S
C732 H726 0.930 . S
C732 C733 1.367 . S
C732 C740 1.378 . S
C733 C732 1.367 . S
C733 C741 1.433 . S
C734 H730 0.929 . S
C734 C736 1.378 . S
C734 C738 1.350 . S
C735 C738 1.463 . S
C735 C740 1.350 . S
C735 N743 1.427 . S
C736 H727 0.930 . S
C736 C734 1.378 . S
C736 C737 1.367 . S
C737 C736 1.367 . S
C737 C739 1.433 . S
C738 C734 1.350 . S
C738 C735 1.463 . S
C738 N742 1.427 . S
C739 H729 0.929 . S
C739 C737 1.433 . S
C739 N742 1.384 . S
C740 H731 0.929 . S
C740 C732 1.378 . S
C740 C735 1.350 . S
C741 H728 0.929 . S
C741 C733 1.433 . S
C741 N743 1.384 . S
N742 C738 1.427 . S
N742 C739 1.384 . S
N743 C735 1.427 . S
N743 C741 1.384 . S
H744 C750 0.930 . S
H745 C754 0.930 . S
H746 C759 0.929 . S
H747 C757 0.929 . S
H748 C752 0.929 . S
H749 C758 0.929 . S
C750 H744 0.930 . S
C750 C751 1.367 . S
C750 C758 1.378 . S
C751 C750 1.367 . S
C751 C759 1.433 . S
C752 H748 0.929 . S
C752 C754 1.378 . S
C752 C756 1.350 . S
C753 C756 1.463 . S
C753 C758 1.350 . S
C753 N761 1.427 . S
C754 H745 0.930 . S
C754 C752 1.378 . S
C754 C755 1.367 . S
C755 C754 1.367 . S
C755 C757 1.433 . S
C756 C752 1.350 . S
C756 C753 1.463 . S
C756 N760 1.427 . S
C757 H747 0.929 . S
C757 C755 1.433 . S
C757 N760 1.384 . S
C758 H749 0.929 . S
C758 C750 1.378 . S
C758 C753 1.350 . S
C759 H746 0.929 . S
C759 C751 1.433 . S
C759 N761 1.384 . S
N760 C756 1.427 . S
N760 C757 1.384 . S
N761 C753 1.427 . S
N761 C759 1.384 . S
H762 C768 0.930 . S
H763 C772 0.930 . S
H764 C777 0.929 . S
H765 C775 0.929 . S
H766 C770 0.929 . S
H767 C776 0.929 . S
C768 H762 0.930 . S
C768 C769 1.367 . S
C768 C776 1.378 . S
C769 C768 1.367 . S
C769 C777 1.433 . S
C770 H766 0.929 . S
C770 C772 1.378 . S
C770 C774 1.350 . S
C771 C774 1.463 . S
C771 C776 1.350 . S
C771 N779 1.427 . S
C772 H763 0.930 . S
C772 C770 1.378 . S
C772 C773 1.367 . S
C773 C772 1.367 . S
C773 C775 1.433 . S
C774 C770 1.350 . S
C774 C771 1.463 . S
C774 N778 1.427 . S
C775 H765 0.929 . S
C775 C773 1.433 . S
C775 N778 1.384 . S
C776 H767 0.929 . S
C776 C768 1.378 . S
C776 C771 1.350 . S
C777 H764 0.929 . S
C777 C769 1.433 . S
C777 N779 1.384 . S
N778 C774 1.427 . S
N778 C775 1.384 . S
N779 C771 1.427 . S
N779 C777 1.384 . S
H780 C786 0.930 . S
H781 C790 0.930 . S
H782 C795 0.929 . S
H783 C793 0.929 . S
H784 C788 0.929 . S
H785 C794 0.929 . S
C786 H780 0.930 . S
C786 C787 1.367 . S
C786 C794 1.378 . S
C787 C786 1.367 . S
C787 C795 1.433 . S
C788 H784 0.929 . S
C788 C790 1.378 . S
C788 C792 1.350 . S
C789 C792 1.463 . S
C789 C794 1.350 . S
C789 N797 1.427 . S
C790 H781 0.930 . S
C790 C788 1.378 . S
C790 C791 1.367 . S
C791 C790 1.367 . S
C791 C793 1.433 . S
C792 C788 1.350 . S
C792 C789 1.463 . S
C792 N796 1.427 . S
C793 H783 0.929 . S
C793 C791 1.433 . S
C793 N796 1.384 . S
C794 H785 0.929 . S
C794 C786 1.378 . S
C794 C789 1.350 . S
C795 H782 0.929 . S
C795 C787 1.433 . S
C795 N797 1.384 . S
N796 C792 1.427 . S
N796 C793 1.384 . S
N797 C789 1.427 . S
N797 C795 1.384 . S
H798 C804 0.930 . S
H799 C808 0.930 . S
H800 C813 0.929 . S
H801 C811 0.929 . S
H802 C806 0.929 . S
H803 C812 0.929 . S
C804 H798 0.930 . S
C804 C805 1.367 . S
C804 C812 1.378 . S
C805 C804 1.367 . S
C805 C813 1.433 . S
C806 H802 0.929 . S
C806 C808 1.378 . S
C806 C810 1.350 . S
C807 C810 1.463 . S
C807 C812 1.350 . S
C807 N815 1.427 . S
C808 H799 0.930 . S
C808 C806 1.378 . S
C808 C809 1.367 . S
C809 C808 1.367 . S
C809 C811 1.433 . S
C810 C806 1.350 . S
C810 C807 1.463 . S
C810 N814 1.427 . S
C811 H801 0.929 . S
C811 C809 1.433 . S
C811 N814 1.384 . S
C812 H803 0.929 . S
C812 C804 1.378 . S
C812 C807 1.350 . S
C813 H800 0.929 . S
C813 C805 1.433 . S
C813 N815 1.384 . S
N814 C810 1.427 . S
N814 C811 1.384 . S
N815 C807 1.427 . S
N815 C813 1.384 . S
H816 C822 0.930 . S
H817 C826 0.930 . S
H818 C831 0.929 . S
H819 C829 0.929 . S
H820 C824 0.929 . S
H821 C830 0.929 . S
C822 H816 0.930 . S
C822 C823 1.367 . S
C822 C830 1.378 . S
C823 C822 1.367 . S
C823 C831 1.433 . S
C824 H820 0.929 . S
C824 C826 1.378 . S
C824 C828 1.350 . S
C825 C828 1.463 . S
C825 C830 1.350 . S
C825 N833 1.427 . S
C826 H817 0.930 . S
C826 C824 1.378 . S
C826 C827 1.367 . S
C827 C826 1.367 . S
C827 C829 1.433 . S
C828 C824 1.350 . S
C828 C825 1.463 . S
C828 N832 1.427 . S
C829 H819 0.929 . S
C829 C827 1.433 . S
C829 N832 1.384 . S
C830 H821 0.929 . S
C830 C822 1.378 . S
C830 C825 1.350 . S
C831 H818 0.929 . S
C831 C823 1.433 . S
C831 N833 1.384 . S
N832 C828 1.427 . S
N832 C829 1.384 . S
N833 C825 1.427 . S
N833 C831 1.384 . S
H834 C840 0.930 . S
H835 C844 0.930 . S
H836 C849 0.929 . S
H837 C847 0.929 . S
H838 C842 0.929 . S
H839 C848 0.929 . S
C840 H834 0.930 . S
C840 C841 1.367 . S
C840 C848 1.378 . S
C841 C840 1.367 . S
C841 C849 1.433 . S
C842 H838 0.929 . S
C842 C844 1.378 . S
C842 C846 1.350 . S
C843 C846 1.463 . S
C843 C848 1.350 . S
C843 N851 1.427 . S
C844 H835 0.930 . S
C844 C842 1.378 . S
C844 C845 1.367 . S
C845 C844 1.367 . S
C845 C847 1.433 . S
C846 C842 1.350 . S
C846 C843 1.463 . S
C846 N850 1.427 . S
C847 H837 0.929 . S
C847 C845 1.433 . S
C847 N850 1.384 . S
C848 H839 0.929 . S
C848 C840 1.378 . S
C848 C843 1.350 . S
C849 H836 0.929 . S
C849 C841 1.433 . S
C849 N851 1.384 . S
N850 C846 1.427 . S
N850 C847 1.384 . S
N851 C843 1.427 . S
N851 C849 1.384 . S
H852 C858 0.930 . S
H853 C862 0.930 . S
H854 C867 0.929 . S
H855 C865 0.929 . S
H856 C860 0.929 . S
H857 C866 0.929 . S
C858 H852 0.930 . S
C858 C859 1.367 . S
C858 C866 1.378 . S
C859 C858 1.367 . S
C859 C867 1.433 . S
C860 H856 0.929 . S
C860 C862 1.378 . S
C860 C864 1.350 . S
C861 C864 1.463 . S
C861 C866 1.350 . S
C861 N869 1.427 . S
C862 H853 0.930 . S
C862 C860 1.378 . S
C862 C863 1.367 . S
C863 C862 1.367 . S
C863 C865 1.433 . S
C864 C860 1.350 . S
C864 C861 1.463 . S
C864 N868 1.427 . S
C865 H855 0.929 . S
C865 C863 1.433 . S
C865 N868 1.384 . S
C866 H857 0.929 . S
C866 C858 1.378 . S
C866 C861 1.350 . S
C867 H854 0.929 . S
C867 C859 1.433 . S
C867 N869 1.384 . S
N868 C864 1.427 . S
N868 C865 1.384 . S
N869 C861 1.427 . S
N869 C867 1.384 . S
H870 C876 0.930 . S
H871 C880 0.930 . S
H872 C885 0.929 . S
H873 C883 0.929 . S
H874 C878 0.929 . S
H875 C884 0.929 . S
C876 H870 0.930 . S
C876 C877 1.367 . S
C876 C884 1.378 . S
C877 C876 1.367 . S
C877 C885 1.433 . S
C878 H874 0.929 . S
C878 C880 1.378 . S
C878 C882 1.350 . S
C879 C882 1.463 . S
C879 C884 1.350 . S
C879 N887 1.427 . S
C880 H871 0.930 . S
C880 C878 1.378 . S
C880 C881 1.367 . S
C881 C880 1.367 . S
C881 C883 1.433 . S
C882 C878 1.350 . S
C882 C879 1.463 . S
C882 N886 1.427 . S
C883 H873 0.929 . S
C883 C881 1.433 . S
C883 N886 1.384 . S
C884 H875 0.929 . S
C884 C876 1.378 . S
C884 C879 1.350 . S
C885 H872 0.929 . S
C885 C877 1.433 . S
C885 N887 1.384 . S
N886 C882 1.427 . S
N886 C883 1.384 . S
N887 C879 1.427 . S
N887 C885 1.384 . S
H888 C894 0.930 . S
H889 C898 0.930 . S
H890 C903 0.929 . S
H891 C901 0.929 . S
H892 C896 0.929 . S
H893 C902 0.929 . S
C894 H888 0.930 . S
C894 C895 1.367 . S
C894 C902 1.378 . S
C895 C894 1.367 . S
C895 C903 1.433 . S
C896 H892 0.929 . S
C896 C898 1.378 . S
C896 C900 1.350 . S
C897 C900 1.463 . S
C897 C902 1.350 . S
C897 N905 1.427 . S
C898 H889 0.930 . S
C898 C896 1.378 . S
C898 C899 1.367 . S
C899 C898 1.367 . S
C899 C901 1.433 . S
C900 C896 1.350 . S
C900 C897 1.463 . S
C900 N904 1.427 . S
C901 H891 0.929 . S
C901 C899 1.433 . S
C901 N904 1.384 . S
C902 H893 0.929 . S
C902 C894 1.378 . S
C902 C897 1.350 . S
C903 H890 0.929 . S
C903 C895 1.433 . S
C903 N905 1.384 . S
N904 C900 1.427 . S
N904 C901 1.384 . S
N905 C897 1.427 . S
N905 C903 1.384 . S
H906 C912 0.930 . S
H907 C916 0.930 . S
H908 C921 0.929 . S
H909 C919 0.929 . S
H910 C914 0.929 . S
H911 C920 0.929 . S
C912 H906 0.930 . S
C912 C913 1.367 . S
C912 C920 1.378 . S
C913 C912 1.367 . S
C913 C921 1.433 . S
C914 H910 0.929 . S
C914 C916 1.378 . S
C914 C918 1.350 . S
C915 C918 1.463 . S
C915 C920 1.350 . S
C915 N923 1.427 . S
C916 H907 0.930 . S
C916 C914 1.378 . S
C916 C917 1.367 . S
C917 C916 1.367 . S
C917 C919 1.433 . S
C918 C914 1.350 . S
C918 C915 1.463 . S
C918 N922 1.427 . S
C919 H909 0.929 . S
C919 C917 1.433 . S
C919 N922 1.384 . S
C920 H911 0.929 . S
C920 C912 1.378 . S
C920 C915 1.350 . S
C921 H908 0.929 . S
C921 C913 1.433 . S
C921 N923 1.384 . S
N922 C918 1.427 . S
N922 C919 1.384 . S
N923 C915 1.427 . S
N923 C921 1.384 . S
H924 C930 0.930 . S
H925 C934 0.930 . S
H926 C939 0.929 . S
H927 C937 0.929 . S
H928 C932 0.929 . S
H929 C938 0.929 . S
C930 H924 0.930 . S
C930 C931 1.367 . S
C930 C938 1.378 . S
C931 C930 1.367 . S
C931 C939 1.433 . S
C932 H928 0.929 . S
C932 C934 1.378 . S
C932 C936 1.350 . S
C933 C936 1.463 . S
C933 C938 1.350 . S
C933 N941 1.427 . S
C934 H925 0.930 . S
C934 C932 1.378 . S
C934 C935 1.367 . S
C935 C934 1.367 . S
C935 C937 1.433 . S
C936 C932 1.350 . S
C936 C933 1.463 . S
C936 N940 1.427 . S
C937 H927 0.929 . S
C937 C935 1.433 . S
C937 N940 1.384 . S
C938 H929 0.929 . S
C938 C930 1.378 . S
C938 C933 1.350 . S
C939 H926 0.929 . S
C939 C931 1.433 . S
C939 N941 1.384 . S
N940 C936 1.427 . S
N940 C937 1.384 . S
N941 C933 1.427 . S
N941 C939 1.384 . S
H942 C948 0.930 . S
H943 C952 0.930 . S
H944 C957 0.929 . S
H945 C955 0.929 . S
H946 C950 0.929 . S
H947 C956 0.929 . S
C948 H942 0.930 . S
C948 C949 1.367 . S
C948 C956 1.378 . S
C949 C948 1.367 . S
C949 C957 1.433 . S
C950 H946 0.929 . S
C950 C952 1.378 . S
C950 C954 1.350 . S
C951 C954 1.463 . S
C951 C956 1.350 . S
C951 N959 1.427 . S
C952 H943 0.930 . S
C952 C950 1.378 . S
C952 C953 1.367 . S
C953 C952 1.367 . S
C953 C955 1.433 . S
C954 C950 1.350 . S
C954 C951 1.463 . S
C954 N958 1.427 . S
C955 H945 0.929 . S
C955 C953 1.433 . S
C955 N958 1.384 . S
C956 H947 0.929 . S
C956 C948 1.378 . S
C956 C951 1.350 . S
C957 H944 0.929 . S
C957 C949 1.433 . S
C957 N959 1.384 . S
N958 C954 1.427 . S
N958 C955 1.384 . S
N959 C951 1.427 . S
N959 C957 1.384 . S
H960 C966 0.930 . S
H961 C970 0.930 . S
H962 C975 0.929 . S
H963 C973 0.929 . S
H964 C968 0.929 . S
H965 C974 0.929 . S
C966 H960 0.930 . S
C966 C967 1.367 . S
C966 C974 1.378 . S
C967 C966 1.367 . S
C967 C975 1.433 . S
C968 H964 0.929 . S
C968 C970 1.378 . S
C968 C972 1.350 . S
C969 C972 1.463 . S
C969 C974 1.350 . S
C969 N977 1.427 . S
C970 H961 0.930 . S
C970 C968 1.378 . S
C970 C971 1.367 . S
C971 C970 1.367 . S
C971 C973 1.433 . S
C972 C968 1.350 . S
C972 C969 1.463 . S
C972 N976 1.427 . S
C973 H963 0.929 . S
C973 C971 1.433 . S
C973 N976 1.384 . S
C974 H965 0.929 . S
C974 C966 1.378 . S
C974 C969 1.350 . S
C975 H962 0.929 . S
C975 C967 1.433 . S
C975 N977 1.384 . S
N976 C972 1.427 . S
N976 C973 1.384 . S
N977 C969 1.427 . S
N977 C975 1.384 . S
H978 C984 0.930 . S
H979 C988 0.930 . S
H980 C993 0.929 . S
H981 C991 0.929 . S
H982 C986 0.929 . S
H983 C992 0.929 . S
C984 H978 0.930 . S
C984 C985 1.367 . S
C984 C992 1.378 . S
C985 C984 1.367 . S
C985 C993 1.433 . S
C986 H982 0.929 . S
C986 C988 1.378 . S
C986 C990 1.350 . S
C987 C990 1.463 . S
C987 C992 1.350 . S
C987 N995 1.427 . S
C988 H979 0.930 . S
C988 C986 1.378 . S
C988 C989 1.367 . S
C989 C988 1.367 . S
C989 C991 1.433 . S
C990 C986 1.350 . S
C990 C987 1.463 . S
C990 N994 1.427 . S
C991 H981 0.929 . S
C991 C989 1.433 . S
C991 N994 1.384 . S
C992 H983 0.929 . S
C992 C984 1.378 . S
C992 C987 1.350 . S
C993 H980 0.929 . S
C993 C985 1.433 . S
C993 N995 1.384 . S
N994 C990 1.427 . S
N994 C991 1.384 . S
N995 C987 1.427 . S
N995 C993 1.384 . S
H996 C1002 0.930 . S
H997 C1006 0.930 . S
H998 C1011 0.929 . S
H999 C1009 0.929 . S
H1000 C1004 0.929 . S
H1001 C1010 0.929 . S
C1002 H996 0.930 . S
C1002 C1003 1.367 . S
C1002 C1010 1.378 . S
C1003 C1002 1.367 . S
C1003 C1011 1.433 . S
C1004 H1000 0.929 . S
C1004 C1006 1.378 . S
C1004 C1008 1.350 . S
C1005 C1008 1.463 . S
C1005 C1010 1.350 . S
C1005 N1013 1.427 . S
C1006 H997 0.930 . S
C1006 C1004 1.378 . S
C1006 C1007 1.367 . S
C1007 C1006 1.367 . S
C1007 C1009 1.433 . S
C1008 C1004 1.350 . S
C1008 C1005 1.463 . S
C1008 N1012 1.427 . S
C1009 H999 0.929 . S
C1009 C1007 1.433 . S
C1009 N1012 1.384 . S
C1010 H1001 0.929 . S
C1010 C1002 1.378 . S
C1010 C1005 1.350 . S
C1011 H998 0.929 . S
C1011 C1003 1.433 . S
C1011 N1013 1.384 . S
N1012 C1008 1.427 . S
N1012 C1009 1.384 . S
N1013 C1005 1.427 . S
N1013 C1011 1.384 . S
H1014 C1020 0.930 . S
H1015 C1024 0.930 . S
H1016 C1029 0.929 . S
H1017 C1027 0.929 . S
H1018 C1022 0.929 . S
H1019 C1028 0.929 . S
C1020 H1014 0.930 . S
C1020 C1021 1.367 . S
C1020 C1028 1.378 . S
C1021 C1020 1.367 . S
C1021 C1029 1.433 . S
C1022 H1018 0.929 . S
C1022 C1024 1.378 . S
C1022 C1026 1.350 . S
C1023 C1026 1.463 . S
C1023 C1028 1.350 . S
C1023 N1031 1.427 . S
C1024 H1015 0.930 . S
C1024 C1022 1.378 . S
C1024 C1025 1.367 . S
C1025 C1024 1.367 . S
C1025 C1027 1.433 . S
C1026 C1022 1.350 . S
C1026 C1023 1.463 . S
C1026 N1030 1.427 . S
C1027 H1017 0.929 . S
C1027 C1025 1.433 . S
C1027 N1030 1.384 . S
C1028 H1019 0.929 . S
C1028 C1020 1.378 . S
C1028 C1023 1.350 . S
C1029 H1016 0.929 . S
C1029 C1021 1.433 . S
C1029 N1031 1.384 . S
N1030 C1026 1.427 . S
N1030 C1027 1.384 . S
N1031 C1023 1.427 . S
N1031 C1029 1.384 . S
H1032 C1038 0.930 . S
H1033 C1042 0.930 . S
H1034 C1047 0.929 . S
H1035 C1045 0.929 . S
H1036 C1040 0.929 . S
H1037 C1046 0.929 . S
C1038 H1032 0.930 . S
C1038 C1039 1.367 . S
C1038 C1046 1.378 . S
C1039 C1038 1.367 . S
C1039 C1047 1.433 . S
C1040 H1036 0.929 . S
C1040 C1042 1.378 . S
C1040 C1044 1.350 . S
C1041 C1044 1.463 . S
C1041 C1046 1.350 . S
C1041 N1049 1.427 . S
C1042 H1033 0.930 . S
C1042 C1040 1.378 . S
C1042 C1043 1.367 . S
C1043 C1042 1.367 . S
C1043 C1045 1.433 . S
C1044 C1040 1.350 . S
C1044 C1041 1.463 . S
C1044 N1048 1.427 . S
C1045 H1035 0.929 . S
C1045 C1043 1.433 . S
C1045 N1048 1.384 . S
C1046 H1037 0.929 . S
C1046 C1038 1.378 . S
C1046 C1041 1.350 . S
C1047 H1034 0.929 . S
C1047 C1039 1.433 . S
C1047 N1049 1.384 . S
N1048 C1044 1.427 . S
N1048 C1045 1.384 . S
N1049 C1041 1.427 . S
N1049 C1047 1.384 . S
H1050 C1056 0.930 . S
H1051 C1060 0.930 . S
H1052 C1065 0.929 . S
H1053 C1063 0.929 . S
H1054 C1058 0.929 . S
H1055 C1064 0.929 . S
C1056 H1050 0.930 . S
C1056 C1057 1.367 . S
C1056 C1064 1.378 . S
C1057 C1056 1.367 . S
C1057 C1065 1.433 . S
C1058 H1054 0.929 . S
C1058 C1060 1.378 . S
C1058 C1062 1.350 . S
C1059 C1062 1.463 . S
C1059 C1064 1.350 . S
C1059 N1067 1.427 . S
C1060 H1051 0.930 . S
C1060 C1058 1.378 . S
C1060 C1061 1.367 . S
C1061 C1060 1.367 . S
C1061 C1063 1.433 . S
C1062 C1058 1.350 . S
C1062 C1059 1.463 . S
C1062 N1066 1.427 . S
C1063 H1053 0.929 . S
C1063 C1061 1.433 . S
C1063 N1066 1.384 . S
C1064 H1055 0.929 . S
C1064 C1056 1.378 . S
C1064 C1059 1.350 . S
C1065 H1052 0.929 . S
C1065 C1057 1.433 . S
C1065 N1067 1.384 . S
N1066 C1062 1.427 . S
N1066 C1063 1.384 . S
N1067 C1059 1.427 . S
N1067 C1065 1.384 . S
H1068 C1074 0.930 . S
H1069 C1078 0.930 . S
H1070 C1083 0.929 . S
H1071 C1081 0.929 . S
H1072 C1076 0.929 . S
H1073 C1082 0.929 . S
C1074 H1068 0.930 . S
C1074 C1075 1.367 . S
C1074 C1082 1.378 . S
C1075 C1074 1.367 . S
C1075 C1083 1.433 . S
C1076 H1072 0.929 . S
C1076 C1078 1.378 . S
C1076 C1080 1.350 . S
C1077 C1080 1.463 . S
C1077 C1082 1.350 . S
C1077 N1085 1.427 . S
C1078 H1069 0.930 . S
C1078 C1076 1.378 . S
C1078 C1079 1.367 . S
C1079 C1078 1.367 . S
C1079 C1081 1.433 . S
C1080 C1076 1.350 . S
C1080 C1077 1.463 . S
C1080 N1084 1.427 . S
C1081 H1071 0.929 . S
C1081 C1079 1.433 . S
C1081 N1084 1.384 . S
C1082 H1073 0.929 . S
C1082 C1074 1.378 . S
C1082 C1077 1.350 . S
C1083 H1070 0.929 . S
C1083 C1075 1.433 . S
C1083 N1085 1.384 . S
N1084 C1080 1.427 . S
N1084 C1081 1.384 . S
N1085 C1077 1.427 . S
N1085 C1083 1.384 . S
H1086 C1092 0.930 . S
H1087 C1096 0.930 . S
H1088 C1101 0.929 . S
H1089 C1099 0.929 . S
H1090 C1094 0.929 . S
H1091 C1100 0.929 . S
C1092 H1086 0.930 . S
C1092 C1093 1.367 . S
C1092 C1100 1.378 . S
C1093 C1092 1.367 . S
C1093 C1101 1.433 . S
C1094 H1090 0.929 . S
C1094 C1096 1.378 . S
C1094 C1098 1.350 . S
C1095 C1098 1.463 . S
C1095 C1100 1.350 . S
C1095 N1103 1.427 . S
C1096 H1087 0.930 . S
C1096 C1094 1.378 . S
C1096 C1097 1.367 . S
C1097 C1096 1.367 . S
C1097 C1099 1.433 . S
C1098 C1094 1.350 . S
C1098 C1095 1.463 . S
C1098 N1102 1.427 . S
C1099 H1089 0.929 . S
C1099 C1097 1.433 . S
C1099 N1102 1.384 . S
C1100 H1091 0.929 . S
C1100 C1092 1.378 . S
C1100 C1095 1.350 . S
C1101 H1088 0.929 . S
C1101 C1093 1.433 . S
C1101 N1103 1.384 . S
N1102 C1098 1.427 . S
N1102 C1099 1.384 . S
N1103 C1095 1.427 . S
N1103 C1101 1.384 . S
H1104 C1110 0.930 . S
H1105 C1114 0.930 . S
H1106 C1119 0.929 . S
H1107 C1117 0.929 . S
H1108 C1112 0.929 . S
H1109 C1118 0.929 . S
C1110 H1104 0.930 . S
C1110 C1111 1.367 . S
C1110 C1118 1.378 . S
C1111 C1110 1.367 . S
C1111 C1119 1.433 . S
C1112 H1108 0.929 . S
C1112 C1114 1.378 . S
C1112 C1116 1.350 . S
C1113 C1116 1.463 . S
C1113 C1118 1.350 . S
C1113 N1121 1.427 . S
C1114 H1105 0.930 . S
C1114 C1112 1.378 . S
C1114 C1115 1.367 . S
C1115 C1114 1.367 . S
C1115 C1117 1.433 . S
C1116 C1112 1.350 . S
C1116 C1113 1.463 . S
C1116 N1120 1.427 . S
C1117 H1107 0.929 . S
C1117 C1115 1.433 . S
C1117 N1120 1.384 . S
C1118 H1109 0.929 . S
C1118 C1110 1.378 . S
C1118 C1113 1.350 . S
C1119 H1106 0.929 . S
C1119 C1111 1.433 . S
C1119 N1121 1.384 . S
N1120 C1116 1.427 . S
N1120 C1117 1.384 . S
N1121 C1113 1.427 . S
N1121 C1119 1.384 . S
H1122 C1128 0.930 . S
H1123 C1132 0.930 . S
H1124 C1137 0.929 . S
H1125 C1135 0.929 . S
H1126 C1130 0.929 . S
H1127 C1136 0.929 . S
C1128 H1122 0.930 . S
C1128 C1129 1.367 . S
C1128 C1136 1.378 . S
C1129 C1128 1.367 . S
C1129 C1137 1.433 . S
C1130 H1126 0.929 . S
C1130 C1132 1.378 . S
C1130 C1134 1.350 . S
C1131 C1134 1.463 1_556 S
C1131 C1136 1.350 . S
C1131 N1139 1.427 . S
C1132 H1123 0.930 . S
C1132 C1130 1.378 . S
C1132 C1133 1.367 . S
C1133 C1132 1.367 . S
C1133 C1135 1.433 . S
C1134 C1130 1.350 . S
C1134 C1131 1.463 1_554 S
C1134 N1138 1.427 . S
C1135 H1125 0.929 . S
C1135 C1133 1.433 . S
C1135 N1138 1.384 . S
C1136 H1127 0.929 . S
C1136 C1128 1.378 . S
C1136 C1131 1.350 . S
C1137 H1124 0.929 . S
C1137 C1129 1.433 . S
C1137 N1139 1.384 . S
N1138 C1134 1.427 . S
N1138 C1135 1.384 . S
N1139 C1131 1.427 . S
N1139 C1137 1.384 . S
H1140 C1146 0.930 . S
H1141 C1150 0.930 . S
H1142 C1155 0.929 . S
H1143 C1153 0.929 . S
H1144 C1148 0.929 . S
H1145 C1154 0.929 . S
C1146 H1140 0.930 . S
C1146 C1147 1.367 . S
C1146 C1154 1.378 . S
C1147 C1146 1.367 . S
C1147 C1155 1.433 . S
C1148 H1144 0.929 . S
C1148 C1150 1.378 . S
C1148 C1152 1.350 . S
C1149 C1152 1.463 . S
C1149 C1154 1.350 . S
C1149 N1157 1.427 . S
C1150 H1141 0.930 . S
C1150 C1148 1.378 . S
C1150 C1151 1.367 . S
C1151 C1150 1.367 . S
C1151 C1153 1.433 . S
C1152 C1148 1.350 . S
C1152 C1149 1.463 . S
C1152 N1156 1.427 . S
C1153 H1143 0.929 . S
C1153 C1151 1.433 . S
C1153 N1156 1.384 . S
C1154 H1145 0.929 . S
C1154 C1146 1.378 . S
C1154 C1149 1.350 . S
C1155 H1142 0.929 . S
C1155 C1147 1.433 . S
C1155 N1157 1.384 . S
N1156 C1152 1.427 . S
N1156 C1153 1.384 . S
N1157 C1149 1.427 . S
N1157 C1155 1.384 . S
H1158 C1164 0.930 . S
H1159 C1168 0.930 . S
H1160 C1173 0.929 . S
H1161 C1171 0.929 . S
H1162 C1166 0.929 . S
H1163 C1172 0.929 . S
C1164 H1158 0.930 . S
C1164 C1165 1.367 . S
C1164 C1172 1.378 . S
C1165 C1164 1.367 . S
C1165 C1173 1.433 . S
C1166 H1162 0.929 . S
C1166 C1168 1.378 . S
C1166 C1170 1.350 . S
C1167 C1170 1.463 1_556 S
C1167 C1172 1.350 . S
C1167 N1175 1.427 . S
C1168 H1159 0.930 . S
C1168 C1166 1.378 . S
C1168 C1169 1.367 . S
C1169 C1168 1.367 . S
C1169 C1171 1.433 . S
C1170 C1166 1.350 . S
C1170 C1167 1.463 1_554 S
C1170 N1174 1.427 . S
C1171 H1161 0.929 . S
C1171 C1169 1.433 . S
C1171 N1174 1.384 . S
C1172 H1163 0.929 . S
C1172 C1164 1.378 . S
C1172 C1167 1.350 . S
C1173 H1160 0.929 . S
C1173 C1165 1.433 . S
C1173 N1175 1.384 . S
N1174 C1170 1.427 . S
N1174 C1171 1.384 . S
N1175 C1167 1.427 . S
N1175 C1173 1.384 . S
H1176 C1182 0.930 . S
H1177 C1186 0.930 . S
H1178 C1191 0.929 . S
H1179 C1189 0.929 . S
H1180 C1184 0.929 . S
H1181 C1190 0.929 . S
C1182 H1176 0.930 . S
C1182 C1183 1.367 . S
C1182 C1190 1.378 . S
C1183 C1182 1.367 . S
C1183 C1191 1.433 . S
C1184 H1180 0.929 . S
C1184 C1186 1.378 . S
C1184 C1188 1.350 . S
C1185 C1188 1.463 . S
C1185 C1190 1.350 . S
C1185 N1193 1.427 . S
C1186 H1177 0.930 . S
C1186 C1184 1.378 . S
C1186 C1187 1.367 . S
C1187 C1186 1.367 . S
C1187 C1189 1.433 . S
C1188 C1184 1.350 . S
C1188 C1185 1.463 . S
C1188 N1192 1.427 . S
C1189 H1179 0.929 . S
C1189 C1187 1.433 . S
C1189 N1192 1.384 . S
C1190 H1181 0.929 . S
C1190 C1182 1.378 . S
C1190 C1185 1.350 . S
C1191 H1178 0.929 . S
C1191 C1183 1.433 . S
C1191 N1193 1.384 . S
N1192 C1188 1.427 . S
N1192 C1189 1.384 . S
N1193 C1185 1.427 . S
N1193 C1191 1.384 . S
H1194 C1200 0.930 . S
H1195 C1204 0.930 . S
H1196 C1209 0.929 . S
H1197 C1207 0.929 . S
H1198 C1202 0.929 . S
H1199 C1208 0.929 . S
C1200 H1194 0.930 . S
C1200 C1201 1.367 . S
C1200 C1208 1.378 . S
C1201 C1200 1.367 . S
C1201 C1209 1.433 . S
C1202 H1198 0.929 . S
C1202 C1204 1.378 . S
C1202 C1206 1.350 . S
C1203 C1206 1.463 1_556 S
C1203 C1208 1.350 . S
C1203 N1211 1.427 . S
C1204 H1195 0.930 . S
C1204 C1202 1.378 . S
C1204 C1205 1.367 . S
C1205 C1204 1.367 . S
C1205 C1207 1.433 . S
C1206 C1202 1.350 . S
C1206 C1203 1.463 1_554 S
C1206 N1210 1.427 . S
C1207 H1197 0.929 . S
C1207 C1205 1.433 . S
C1207 N1210 1.384 . S
C1208 H1199 0.929 . S
C1208 C1200 1.378 . S
C1208 C1203 1.350 . S
C1209 H1196 0.929 . S
C1209 C1201 1.433 . S
C1209 N1211 1.384 . S
N1210 C1206 1.427 . S
N1210 C1207 1.384 . S
N1211 C1203 1.427 . S
N1211 C1209 1.384 . S
H1212 C1218 0.930 . S
H1213 C1222 0.930 . S
H1214 C1227 0.929 . S
H1215 C1225 0.929 . S
H1216 C1220 0.929 . S
H1217 C1226 0.929 . S
C1218 H1212 0.930 . S
C1218 C1219 1.367 . S
C1218 C1226 1.378 . S
C1219 C1218 1.367 . S
C1219 C1227 1.433 . S
C1220 H1216 0.929 . S
C1220 C1222 1.378 . S
C1220 C1224 1.350 . S
C1221 C1224 1.463 . S
C1221 C1226 1.350 . S
C1221 N1229 1.427 . S
C1222 H1213 0.930 . S
C1222 C1220 1.378 . S
C1222 C1223 1.367 . S
C1223 C1222 1.367 . S
C1223 C1225 1.433 . S
C1224 C1220 1.350 . S
C1224 C1221 1.463 . S
C1224 N1228 1.427 . S
C1225 H1215 0.929 . S
C1225 C1223 1.433 . S
C1225 N1228 1.384 . S
C1226 H1217 0.929 . S
C1226 C1218 1.378 . S
C1226 C1221 1.350 . S
C1227 H1214 0.929 . S
C1227 C1219 1.433 . S
C1227 N1229 1.384 . S
N1228 C1224 1.427 . S
N1228 C1225 1.384 . S
N1229 C1221 1.427 . S
N1229 C1227 1.384 . S
H1230 C1236 0.930 . S
H1231 C1240 0.930 . S
H1232 C1245 0.929 . S
H1233 C1243 0.929 . S
H1234 C1238 0.929 . S
H1235 C1244 0.929 . S
C1236 H1230 0.930 . S
C1236 C1237 1.367 . S
C1236 C1244 1.378 . S
C1237 C1236 1.367 . S
C1237 C1245 1.433 . S
C1238 H1234 0.929 . S
C1238 C1240 1.378 . S
C1238 C1242 1.350 . S
C1239 C1242 1.463 1_556 S
C1239 C1244 1.350 . S
C1239 N1247 1.427 . S
C1240 H1231 0.930 . S
C1240 C1238 1.378 . S
C1240 C1241 1.367 . S
C1241 C1240 1.367 . S
C1241 C1243 1.433 . S
C1242 C1238 1.350 . S
C1242 C1239 1.463 1_554 S
C1242 N1246 1.427 . S
C1243 H1233 0.929 . S
C1243 C1241 1.433 . S
C1243 N1246 1.384 . S
C1244 H1235 0.929 . S
C1244 C1236 1.378 . S
C1244 C1239 1.350 . S
C1245 H1232 0.929 . S
C1245 C1237 1.433 . S
C1245 N1247 1.384 . S
N1246 C1242 1.427 . S
N1246 C1243 1.384 . S
N1247 C1239 1.427 . S
N1247 C1245 1.384 . S
H1248 C1254 0.930 . S
H1249 C1258 0.930 . S
H1250 C1263 0.929 . S
H1251 C1261 0.929 . S
H1252 C1256 0.929 . S
H1253 C1262 0.929 . S
C1254 H1248 0.930 . S
C1254 C1255 1.367 . S
C1254 C1262 1.378 . S
C1255 C1254 1.367 . S
C1255 C1263 1.433 . S
C1256 H1252 0.929 . S
C1256 C1258 1.378 . S
C1256 C1260 1.350 . S
C1257 C1260 1.463 . S
C1257 C1262 1.350 . S
C1257 N1265 1.427 . S
C1258 H1249 0.930 . S
C1258 C1256 1.378 . S
C1258 C1259 1.367 . S
C1259 C1258 1.367 . S
C1259 C1261 1.433 . S
C1260 C1256 1.350 . S
C1260 C1257 1.463 . S
C1260 N1264 1.427 . S
C1261 H1251 0.929 . S
C1261 C1259 1.433 . S
C1261 N1264 1.384 . S
C1262 H1253 0.929 . S
C1262 C1254 1.378 . S
C1262 C1257 1.350 . S
C1263 H1250 0.929 . S
C1263 C1255 1.433 . S
C1263 N1265 1.384 . S
N1264 C1260 1.427 . S
N1264 C1261 1.384 . S
N1265 C1257 1.427 . S
N1265 C1263 1.384 . S
H1266 C1272 0.930 . S
H1267 C1276 0.930 . S
H1268 C1281 0.929 . S
H1269 C1279 0.929 . S
H1270 C1274 0.929 . S
H1271 C1280 0.929 . S
C1272 H1266 0.930 . S
C1272 C1273 1.367 . S
C1272 C1280 1.378 . S
C1273 C1272 1.367 . S
C1273 C1281 1.433 . S
C1274 H1270 0.929 . S
C1274 C1276 1.378 . S
C1274 C1278 1.350 . S
C1275 C1278 1.463 1_565 S
C1275 C1280 1.350 . S
C1275 N1283 1.427 . S
C1276 H1267 0.930 . S
C1276 C1274 1.378 . S
C1276 C1277 1.367 . S
C1277 C1276 1.367 . S
C1277 C1279 1.433 . S
C1278 C1274 1.350 . S
C1278 C1275 1.463 1_545 S
C1278 N1282 1.427 . S
C1279 H1269 0.929 . S
C1279 C1277 1.433 . S
C1279 N1282 1.384 . S
C1280 H1271 0.929 . S
C1280 C1272 1.378 . S
C1280 C1275 1.350 . S
C1281 H1268 0.929 . S
C1281 C1273 1.433 . S
C1281 N1283 1.384 . S
N1282 C1278 1.427 . S
N1282 C1279 1.384 . S
N1283 C1275 1.427 . S
N1283 C1281 1.384 . S
H1284 C1290 0.930 . S
H1285 C1294 0.930 . S
H1286 C1299 0.929 . S
H1287 C1297 0.929 . S
H1288 C1292 0.929 . S
H1289 C1298 0.929 . S
C1290 H1284 0.930 . S
C1290 C1291 1.367 . S
C1290 C1298 1.378 . S
C1291 C1290 1.367 . S
C1291 C1299 1.433 . S
C1292 H1288 0.929 . S
C1292 C1294 1.378 . S
C1292 C1296 1.350 . S
C1293 C1296 1.463 . S
C1293 C1298 1.350 . S
C1293 N1301 1.427 . S
C1294 H1285 0.930 . S
C1294 C1292 1.378 . S
C1294 C1295 1.367 . S
C1295 C1294 1.367 . S
C1295 C1297 1.433 . S
C1296 C1292 1.350 . S
C1296 C1293 1.463 . S
C1296 N1300 1.427 . S
C1297 H1287 0.929 . S
C1297 C1295 1.433 . S
C1297 N1300 1.384 . S
C1298 H1289 0.929 . S
C1298 C1290 1.378 . S
C1298 C1293 1.350 . S
C1299 H1286 0.929 . S
C1299 C1291 1.433 . S
C1299 N1301 1.384 . S
N1300 C1296 1.427 . S
N1300 C1297 1.384 . S
N1301 C1293 1.427 . S
N1301 C1299 1.384 . S
H1302 C1308 0.930 . S
H1303 C1312 0.930 . S
H1304 C1317 0.929 . S
H1305 C1315 0.929 . S
H1306 C1310 0.929 . S
H1307 C1316 0.929 . S
C1308 H1302 0.930 . S
C1308 C1309 1.367 . S
C1308 C1316 1.378 . S
C1309 C1308 1.367 . S
C1309 C1317 1.433 . S
C1310 H1306 0.929 . S
C1310 C1312 1.378 . S
C1310 C1314 1.350 . S
C1311 C1314 1.463 1_545 S
C1311 C1316 1.350 . S
C1311 N1319 1.427 . S
C1312 H1303 0.930 . S
C1312 C1310 1.378 . S
C1312 C1313 1.367 . S
C1313 C1312 1.367 . S
C1313 C1315 1.433 . S
C1314 C1310 1.350 . S
C1314 C1311 1.463 1_565 S
C1314 N1318 1.427 . S
C1315 H1305 0.929 . S
C1315 C1313 1.433 . S
C1315 N1318 1.384 . S
C1316 H1307 0.929 . S
C1316 C1308 1.378 . S
C1316 C1311 1.350 . S
C1317 H1304 0.929 . S
C1317 C1309 1.433 . S
C1317 N1319 1.384 . S
N1318 C1314 1.427 . S
N1318 C1315 1.384 . S
N1319 C1311 1.427 . S
N1319 C1317 1.384 . S
H1320 C1326 0.930 . S
H1321 C1330 0.930 . S
H1322 C1335 0.929 . S
H1323 C1333 0.929 . S
H1324 C1328 0.929 . S
H1325 C1334 0.929 . S
C1326 H1320 0.930 . S
C1326 C1327 1.367 . S
C1326 C1334 1.378 . S
C1327 C1326 1.367 . S
C1327 C1335 1.433 . S
C1328 H1324 0.929 . S
C1328 C1330 1.378 . S
C1328 C1332 1.350 . S
C1329 C1332 1.463 . S
C1329 C1334 1.350 . S
C1329 N1337 1.427 . S
C1330 H1321 0.930 . S
C1330 C1328 1.378 . S
C1330 C1331 1.367 . S
C1331 C1330 1.367 . S
C1331 C1333 1.433 . S
C1332 C1328 1.350 . S
C1332 C1329 1.463 . S
C1332 N1336 1.427 . S
C1333 H1323 0.929 . S
C1333 C1331 1.433 . S
C1333 N1336 1.384 . S
C1334 H1325 0.929 . S
C1334 C1326 1.378 . S
C1334 C1329 1.350 . S
C1335 H1322 0.929 . S
C1335 C1327 1.433 . S
C1335 N1337 1.384 . S
N1336 C1332 1.427 . S
N1336 C1333 1.384 . S
N1337 C1329 1.427 . S
N1337 C1335 1.384 . S
H1338 C1344 0.930 . S
H1339 C1348 0.930 . S
H1340 C1353 0.929 . S
H1341 C1351 0.929 . S
H1342 C1346 0.929 . S
H1343 C1352 0.929 . S
C1344 H1338 0.930 . S
C1344 C1345 1.367 . S
C1344 C1352 1.378 . S
C1345 C1344 1.367 . S
C1345 C1353 1.433 . S
C1346 H1342 0.929 . S
C1346 C1348 1.378 . S
C1346 C1350 1.350 . S
C1347 C1350 1.463 1_565 S
C1347 C1352 1.350 . S
C1347 N1355 1.427 . S
C1348 H1339 0.930 . S
C1348 C1346 1.378 . S
C1348 C1349 1.367 . S
C1349 C1348 1.367 . S
C1349 C1351 1.433 . S
C1350 C1346 1.350 . S
C1350 C1347 1.463 1_545 S
C1350 N1354 1.427 . S
C1351 H1341 0.929 . S
C1351 C1349 1.433 . S
C1351 N1354 1.384 . S
C1352 H1343 0.929 . S
C1352 C1344 1.378 . S
C1352 C1347 1.350 . S
C1353 H1340 0.929 . S
C1353 C1345 1.433 . S
C1353 N1355 1.384 . S
N1354 C1350 1.427 . S
N1354 C1351 1.384 . S
N1355 C1347 1.427 . S
N1355 C1353 1.384 . S
H1356 C1362 0.930 . S
H1357 C1366 0.930 . S
H1358 C1371 0.929 . S
H1359 C1369 0.929 . S
H1360 C1364 0.929 . S
H1361 C1370 0.929 . S
C1362 H1356 0.930 . S
C1362 C1363 1.367 . S
C1362 C1370 1.378 . S
C1363 C1362 1.367 . S
C1363 C1371 1.433 . S
C1364 H1360 0.929 . S
C1364 C1366 1.378 . S
C1364 C1368 1.350 . S
C1365 C1368 1.463 . S
C1365 C1370 1.350 . S
C1365 N1373 1.427 . S
C1366 H1357 0.930 . S
C1366 C1364 1.378 . S
C1366 C1367 1.367 . S
C1367 C1366 1.367 . S
C1367 C1369 1.433 . S
C1368 C1364 1.350 . S
C1368 C1365 1.463 . S
C1368 N1372 1.427 . S
C1369 H1359 0.929 . S
C1369 C1367 1.433 . S
C1369 N1372 1.384 . S
C1370 H1361 0.929 . S
C1370 C1362 1.378 . S
C1370 C1365 1.350 . S
C1371 H1358 0.929 . S
C1371 C1363 1.433 . S
C1371 N1373 1.384 . S
N1372 C1368 1.427 . S
N1372 C1369 1.384 . S
N1373 C1365 1.427 . S
N1373 C1371 1.384 . S
H1374 C1380 0.930 . S
H1375 C1384 0.930 . S
H1376 C1389 0.929 . S
H1377 C1387 0.929 . S
H1378 C1382 0.929 . S
H1379 C1388 0.929 . S
C1380 H1374 0.930 . S
C1380 C1381 1.367 . S
C1380 C1388 1.378 . S
C1381 C1380 1.367 . S
C1381 C1389 1.433 . S
C1382 H1378 0.929 . S
C1382 C1384 1.378 . S
C1382 C1386 1.350 . S
C1383 C1386 1.463 1_565 S
C1383 C1388 1.350 . S
C1383 N1391 1.427 . S
C1384 H1375 0.930 . S
C1384 C1382 1.378 . S
C1384 C1385 1.367 . S
C1385 C1384 1.367 . S
C1385 C1387 1.433 . S
C1386 C1382 1.350 . S
C1386 C1383 1.463 1_545 S
C1386 N1390 1.427 . S
C1387 H1377 0.929 . S
C1387 C1385 1.433 . S
C1387 N1390 1.384 . S
C1388 H1379 0.929 . S
C1388 C1380 1.378 . S
C1388 C1383 1.350 . S
C1389 H1376 0.929 . S
C1389 C1381 1.433 . S
C1389 N1391 1.384 . S
N1390 C1386 1.427 . S
N1390 C1387 1.384 . S
N1391 C1383 1.427 . S
N1391 C1389 1.384 . S
H1392 C1398 0.930 . S
H1393 C1402 0.930 . S
H1394 C1407 0.929 . S
H1395 C1405 0.929 . S
H1396 C1400 0.929 . S
H1397 C1406 0.929 . S
C1398 H1392 0.930 . S
C1398 C1399 1.367 . S
C1398 C1406 1.378 . S
C1399 C1398 1.367 . S
C1399 C1407 1.433 . S
C1400 H1396 0.929 . S
C1400 C1402 1.378 . S
C1400 C1404 1.350 . S
C1401 C1404 1.463 . S
C1401 C1406 1.350 . S
C1401 N1409 1.427 . S
C1402 H1393 0.930 . S
C1402 C1400 1.378 . S
C1402 C1403 1.367 . S
C1403 C1402 1.367 . S
C1403 C1405 1.433 . S
C1404 C1400 1.350 . S
C1404 C1401 1.463 . S
C1404 N1408 1.427 . S
C1405 H1395 0.929 . S
C1405 C1403 1.433 . S
C1405 N1408 1.384 . S
C1406 H1397 0.929 . S
C1406 C1398 1.378 . S
C1406 C1401 1.350 . S
C1407 H1394 0.929 . S
C1407 C1399 1.433 . S
C1407 N1409 1.384 . S
N1408 C1404 1.427 . S
N1408 C1405 1.384 . S
N1409 C1401 1.427 . S
N1409 C1407 1.384 . S
H1410 C1416 0.930 . S
H1411 C1420 0.930 . S
H1412 C1425 0.929 . S
H1413 C1423 0.929 . S
H1414 C1418 0.929 . S
H1415 C1424 0.929 . S
C1416 H1410 0.930 . S
C1416 C1417 1.367 . S
C1416 C1424 1.378 . S
C1417 C1416 1.367 . S
C1417 C1425 1.433 . S
C1418 H1414 0.929 . S
C1418 C1420 1.378 . S
C1418 C1422 1.350 . S
C1419 C1422 1.463 . S
C1419 C1424 1.350 . S
C1419 N1427 1.427 . S
C1420 H1411 0.930 . S
C1420 C1418 1.378 . S
C1420 C1421 1.367 . S
C1421 C1420 1.367 . S
C1421 C1423 1.433 . S
C1422 C1418 1.350 . S
C1422 C1419 1.463 . S
C1422 N1426 1.427 . S
C1423 H1413 0.929 . S
C1423 C1421 1.433 . S
C1423 N1426 1.384 . S
C1424 H1415 0.929 . S
C1424 C1416 1.378 . S
C1424 C1419 1.350 . S
C1425 H1412 0.929 . S
C1425 C1417 1.433 . S
C1425 N1427 1.384 . S
N1426 C1422 1.427 . S
N1426 C1423 1.384 . S
N1427 C1419 1.427 . S
N1427 C1425 1.384 . S
H1428 C1434 0.930 . S
H1429 C1438 0.930 . S
H1430 C1443 0.929 . S
H1431 C1441 0.929 . S
H1432 C1436 0.929 1_455 S
H1433 C1442 0.929 . S
C1434 H1428 0.930 . S
C1434 C1435 1.367 . S
C1434 C1442 1.378 . S
C1435 C1434 1.367 . S
C1435 C1443 1.433 . S
C1436 H1432 0.929 1_655 S
C1436 C1438 1.378 . S
C1436 C1440 1.350 1_655 S
C1437 C1440 1.463 . S
C1437 C1442 1.350 . S
C1437 N1445 1.427 . S
C1438 H1429 0.930 . S
C1438 C1436 1.378 . S
C1438 C1439 1.367 . S
C1439 C1438 1.367 . S
C1439 C1441 1.433 . S
C1440 C1436 1.350 1_455 S
C1440 C1437 1.463 . S
C1440 N1444 1.427 1_455 S
C1441 H1431 0.929 . S
C1441 C1439 1.433 . S
C1441 N1444 1.384 . S
C1442 H1433 0.929 . S
C1442 C1434 1.378 . S
C1442 C1437 1.350 . S
C1443 H1430 0.929 . S
C1443 C1435 1.433 . S
C1443 N1445 1.384 . S
N1444 C1440 1.427 1_655 S
N1444 C1441 1.384 . S
N1445 C1437 1.427 . S
N1445 C1443 1.384 . S
H1446 C1452 0.930 . S
H1447 C1456 0.930 . S
H1448 C1461 0.929 . S
H1449 C1459 0.929 . S
H1450 C1454 0.929 . S
H1451 C1460 0.929 . S
C1452 H1446 0.930 . S
C1452 C1453 1.367 . S
C1452 C1460 1.378 . S
C1453 C1452 1.367 . S
C1453 C1461 1.433 . S
C1454 H1450 0.929 . S
C1454 C1456 1.378 . S
C1454 C1458 1.350 . S
C1455 C1458 1.463 . S
C1455 C1460 1.350 . S
C1455 N1463 1.427 . S
C1456 H1447 0.930 . S
C1456 C1454 1.378 . S
C1456 C1457 1.367 . S
C1457 C1456 1.367 . S
C1457 C1459 1.433 . S
C1458 C1454 1.350 . S
C1458 C1455 1.463 . S
C1458 N1462 1.427 . S
C1459 H1449 0.929 . S
C1459 C1457 1.433 . S
C1459 N1462 1.384 . S
C1460 H1451 0.929 . S
C1460 C1452 1.378 . S
C1460 C1455 1.350 . S
C1461 H1448 0.929 . S
C1461 C1453 1.433 . S
C1461 N1463 1.384 . S
N1462 C1458 1.427 . S
N1462 C1459 1.384 . S
N1463 C1455 1.427 . S
N1463 C1461 1.384 . S
H1464 C1470 0.930 . S
H1465 C1474 0.930 . S
H1466 C1479 0.929 . S
H1467 C1477 0.929 . S
H1468 C1472 0.929 . S
H1469 C1478 0.929 1_655 S
C1470 H1464 0.930 . S
C1470 C1471 1.367 . S
C1470 C1478 1.378 . S
C1471 C1470 1.367 . S
C1471 C1479 1.433 . S
C1472 H1468 0.929 . S
C1472 C1474 1.378 . S
C1472 C1476 1.350 . S
C1473 C1476 1.463 . S
C1473 C1478 1.350 1_655 S
C1473 N1481 1.427 1_655 S
C1474 H1465 0.930 . S
C1474 C1472 1.378 . S
C1474 C1475 1.367 . S
C1475 C1474 1.367 . S
C1475 C1477 1.433 . S
C1476 C1472 1.350 . S
C1476 C1473 1.463 . S
C1476 N1480 1.427 . S
C1477 H1467 0.929 . S
C1477 C1475 1.433 . S
C1477 N1480 1.384 . S
C1478 H1469 0.929 1_455 S
C1478 C1470 1.378 . S
C1478 C1473 1.350 1_455 S
C1479 H1466 0.929 . S
C1479 C1471 1.433 . S
C1479 N1481 1.384 . S
N1480 C1476 1.427 . S
N1480 C1477 1.384 . S
N1481 C1473 1.427 1_455 S
N1481 C1479 1.384 . S
H1482 C1488 0.930 . S
H1483 C1492 0.930 . S
H1484 C1497 0.929 . S
H1485 C1495 0.929 . S
H1486 C1490 0.929 . S
H1487 C1496 0.929 . S
C1488 H1482 0.930 . S
C1488 C1489 1.367 . S
C1488 C1496 1.378 . S
C1489 C1488 1.367 . S
C1489 C1497 1.433 . S
C1490 H1486 0.929 . S
C1490 C1492 1.378 . S
C1490 C1494 1.350 . S
C1491 C1494 1.463 . S
C1491 C1496 1.350 . S
C1491 N1499 1.427 . S
C1492 H1483 0.930 . S
C1492 C1490 1.378 . S
C1492 C1493 1.367 . S
C1493 C1492 1.367 . S
C1493 C1495 1.433 . S
C1494 C1490 1.350 . S
C1494 C1491 1.463 . S
C1494 N1498 1.427 . S
C1495 H1485 0.929 . S
C1495 C1493 1.433 . S
C1495 N1498 1.384 . S
C1496 H1487 0.929 . S
C1496 C1488 1.378 . S
C1496 C1491 1.350 . S
C1497 H1484 0.929 . S
C1497 C1489 1.433 . S
C1497 N1499 1.384 . S
N1498 C1494 1.427 . S
N1498 C1495 1.384 . S
N1499 C1491 1.427 . S
N1499 C1497 1.384 . S
H1500 C1506 0.930 . S
H1501 C1510 0.930 . S
H1502 C1515 0.929 . S
H1503 C1513 0.929 . S
H1504 C1508 0.929 . S
H1505 C1514 0.929 . S
C1506 H1500 0.930 . S
C1506 C1507 1.367 . S
C1506 C1514 1.378 . S
C1507 C1506 1.367 . S
C1507 C1515 1.433 . S
C1508 H1504 0.929 . S
C1508 C1510 1.378 . S
C1508 C1512 1.350 . S
C1509 C1512 1.463 1_655 S
C1509 C1514 1.350 . S
C1509 N1517 1.427 . S
C1510 H1501 0.930 . S
C1510 C1508 1.378 . S
C1510 C1511 1.367 . S
C1511 C1510 1.367 . S
C1511 C1513 1.433 . S
C1512 C1508 1.350 . S
C1512 C1509 1.463 1_455 S
C1512 N1516 1.427 . S
C1513 H1503 0.929 . S
C1513 C1511 1.433 . S
C1513 N1516 1.384 . S
C1514 H1505 0.929 . S
C1514 C1506 1.378 . S
C1514 C1509 1.350 . S
C1515 H1502 0.929 . S
C1515 C1507 1.433 . S
C1515 N1517 1.384 . S
N1516 C1512 1.427 . S
N1516 C1513 1.384 . S
N1517 C1509 1.427 . S
N1517 C1515 1.384 . S
H1518 C1524 0.930 . S
H1519 C1528 0.930 . S
H1520 C1533 0.929 . S
H1521 C1531 0.929 . S
H1522 C1526 0.929 . S
H1523 C1532 0.929 . S
C1524 H1518 0.930 . S
C1524 C1525 1.367 . S
C1524 C1532 1.378 . S
C1525 C1524 1.367 . S
C1525 C1533 1.433 . S
C1526 H1522 0.929 . S
C1526 C1528 1.378 . S
C1526 C1530 1.350 . S
C1527 C1530 1.463 1_455 S
C1527 C1532 1.350 . S
C1527 N1535 1.427 . S
C1528 H1519 0.930 . S
C1528 C1526 1.378 . S
C1528 C1529 1.367 . S
C1529 C1528 1.367 . S
C1529 C1531 1.433 . S
C1530 C1526 1.350 . S
C1530 C1527 1.463 1_655 S
C1530 N1534 1.427 . S
C1531 H1521 0.929 . S
C1531 C1529 1.433 . S
C1531 N1534 1.384 . S
C1532 H1523 0.929 . S
C1532 C1524 1.378 . S
C1532 C1527 1.350 . S
C1533 H1520 0.929 . S
C1533 C1525 1.433 . S
C1533 N1535 1.384 . S
N1534 C1530 1.427 . S
N1534 C1531 1.384 . S
N1535 C1527 1.427 . S
N1535 C1533 1.384 . S
H1536 C1542 0.930 . S
H1537 C1546 0.930 . S
H1538 C1551 0.929 . S
H1539 C1549 0.929 . S
H1540 C1544 0.929 . S
H1541 C1550 0.929 . S
C1542 H1536 0.930 . S
C1542 C1543 1.367 . S
C1542 C1550 1.378 . S
C1543 C1542 1.367 . S
C1543 C1551 1.433 . S
C1544 H1540 0.929 . S
C1544 C1546 1.378 . S
C1544 C1548 1.350 . S
C1545 C1548 1.463 1_655 S
C1545 C1550 1.350 . S
C1545 N1553 1.427 . S
C1546 H1537 0.930 . S
C1546 C1544 1.378 . S
C1546 C1547 1.367 . S
C1547 C1546 1.367 . S
C1547 C1549 1.433 . S
C1548 C1544 1.350 . S
C1548 C1545 1.463 1_455 S
C1548 N1552 1.427 . S
C1549 H1539 0.929 . S
C1549 C1547 1.433 . S
C1549 N1552 1.384 . S
C1550 H1541 0.929 . S
C1550 C1542 1.378 . S
C1550 C1545 1.350 . S
C1551 H1538 0.929 . S
C1551 C1543 1.433 . S
C1551 N1553 1.384 . S
N1552 C1548 1.427 . S
N1552 C1549 1.384 . S
N1553 C1545 1.427 . S
N1553 C1551 1.384 . S
H1554 C1560 0.930 . S
H1555 C1564 0.930 . S
H1556 C1569 0.929 . S
H1557 C1567 0.929 . S
H1558 C1562 0.929 . S
H1559 C1568 0.929 . S
C1560 H1554 0.930 . S
C1560 C1561 1.367 . S
C1560 C1568 1.378 . S
C1561 C1560 1.367 . S
C1561 C1569 1.433 . S
C1562 H1558 0.929 . S
C1562 C1564 1.378 . S
C1562 C1566 1.350 . S
C1563 C1566 1.463 . S
C1563 C1568 1.350 . S
C1563 N1571 1.427 . S
C1564 H1555 0.930 . S
C1564 C1562 1.378 . S
C1564 C1565 1.367 . S
C1565 C1564 1.367 . S
C1565 C1567 1.433 . S
C1566 C1562 1.350 . S
C1566 C1563 1.463 . S
C1566 N1570 1.427 . S
C1567 H1557 0.929 . S
C1567 C1565 1.433 . S
C1567 N1570 1.384 . S
C1568 H1559 0.929 . S
C1568 C1560 1.378 . S
C1568 C1563 1.350 . S
C1569 H1556 0.929 . S
C1569 C1561 1.433 . S
C1569 N1571 1.384 . S
N1570 C1566 1.427 . S
N1570 C1567 1.384 . S
N1571 C1563 1.427 . S
N1571 C1569 1.384 . S
H1572 C1578 0.930 . S
H1573 C1582 0.930 . S
H1574 C1587 0.929 . S
H1575 C1585 0.929 . S
H1576 C1580 0.929 . S
H1577 C1586 0.929 . S
C1578 H1572 0.930 . S
C1578 C1579 1.367 . S
C1578 C1586 1.378 . S
C1579 C1578 1.367 . S
C1579 C1587 1.433 . S
C1580 H1576 0.929 . S
C1580 C1582 1.378 . S
C1580 C1584 1.350 . S
C1581 C1584 1.463 1_455 S
C1581 C1586 1.350 . S
C1581 N1589 1.427 . S
C1582 H1573 0.930 . S
C1582 C1580 1.378 . S
C1582 C1583 1.367 . S
C1583 C1582 1.367 . S
C1583 C1585 1.433 . S
C1584 C1580 1.350 . S
C1584 C1581 1.463 1_655 S
C1584 N1588 1.427 . S
C1585 H1575 0.929 . S
C1585 C1583 1.433 . S
C1585 N1588 1.384 . S
C1586 H1577 0.929 . S
C1586 C1578 1.378 . S
C1586 C1581 1.350 . S
C1587 H1574 0.929 . S
C1587 C1579 1.433 . S
C1587 N1589 1.384 . S
N1588 C1584 1.427 . S
N1588 C1585 1.384 . S
N1589 C1581 1.427 . S
N1589 C1587 1.384 . S
H1590 C1596 0.930 . S
H1591 C1600 0.930 . S
H1592 C1605 0.929 . S
H1593 C1603 0.929 . S
H1594 C1598 0.929 . S
H1595 C1604 0.929 . S
C1596 H1590 0.930 . S
C1596 C1597 1.367 . S
C1596 C1604 1.378 . S
C1597 C1596 1.367 . S
C1597 C1605 1.433 . S
C1598 H1594 0.929 . S
C1598 C1600 1.378 . S
C1598 C1602 1.350 . S
C1599 C1602 1.463 . S
C1599 C1604 1.350 . S
C1599 N1607 1.427 . S
C1600 H1591 0.930 . S
C1600 C1598 1.378 . S
C1600 C1601 1.367 . S
C1601 C1600 1.367 . S
C1601 C1603 1.433 . S
C1602 C1598 1.350 . S
C1602 C1599 1.463 . S
C1602 N1606 1.427 . S
C1603 H1593 0.929 . S
C1603 C1601 1.433 . S
C1603 N1606 1.384 . S
C1604 H1595 0.929 . S
C1604 C1596 1.378 . S
C1604 C1599 1.350 . S
C1605 H1592 0.929 . S
C1605 C1597 1.433 . S
C1605 N1607 1.384 . S
N1606 C1602 1.427 . S
N1606 C1603 1.384 . S
N1607 C1599 1.427 . S
N1607 C1605 1.384 . S
H1608 C1614 0.930 . S
H1609 C1618 0.930 . S
H1610 C1623 0.929 . S
H1611 C1621 0.929 . S
H1612 C1616 0.929 . S
H1613 C1622 0.929 . S
C1614 H1608 0.930 . S
C1614 C1615 1.367 . S
C1614 C1622 1.378 . S
C1615 C1614 1.367 . S
C1615 C1623 1.433 . S
C1616 H1612 0.929 . S
C1616 C1618 1.378 . S
C1616 C1620 1.350 . S
C1617 C1620 1.463 1_655 S
C1617 C1622 1.350 . S
C1617 N1625 1.427 . S
C1618 H1609 0.930 . S
C1618 C1616 1.378 . S
C1618 C1619 1.367 . S
C1619 C1618 1.367 . S
C1619 C1621 1.433 . S
C1620 C1616 1.350 . S
C1620 C1617 1.463 1_455 S
C1620 N1624 1.427 . S
C1621 H1611 0.929 . S
C1621 C1619 1.433 . S
C1621 N1624 1.384 . S
C1622 H1613 0.929 . S
C1622 C1614 1.378 . S
C1622 C1617 1.350 . S
C1623 H1610 0.929 . S
C1623 C1615 1.433 . S
C1623 N1625 1.384 . S
N1624 C1620 1.427 . S
N1624 C1621 1.384 . S
N1625 C1617 1.427 . S
N1625 C1623 1.384 . S
H1626 C1632 0.930 . S
H1627 C1636 0.930 . S
H1628 C1641 0.929 . S
H1629 C1639 0.929 . S
H1630 C1634 0.929 . S
H1631 C1640 0.929 . S
C1632 H1626 0.930 . S
C1632 C1633 1.367 . S
C1632 C1640 1.378 . S
C1633 C1632 1.367 . S
C1633 C1641 1.433 . S
C1634 H1630 0.929 . S
C1634 C1636 1.378 . S
C1634 C1638 1.350 . S
C1635 C1638 1.463 . S
C1635 C1640 1.350 . S
C1635 N1643 1.427 . S
C1636 H1627 0.930 . S
C1636 C1634 1.378 . S
C1636 C1637 1.367 . S
C1637 C1636 1.367 . S
C1637 C1639 1.433 . S
C1638 C1634 1.350 . S
C1638 C1635 1.463 . S
C1638 N1642 1.427 . S
C1639 H1629 0.929 . S
C1639 C1637 1.433 . S
C1639 N1642 1.384 . S
C1640 H1631 0.929 . S
C1640 C1632 1.378 . S
C1640 C1635 1.350 . S
C1641 H1628 0.929 . S
C1641 C1633 1.433 . S
C1641 N1643 1.384 . S
N1642 C1638 1.427 . S
N1642 C1639 1.384 . S
N1643 C1635 1.427 . S
N1643 C1641 1.384 . S
H1644 C1650 0.930 . S
H1645 C1654 0.930 . S
H1646 C1659 0.929 . S
H1647 C1657 0.929 . S
H1648 C1652 0.929 . S
H1649 C1658 0.929 . S
C1650 H1644 0.930 . S
C1650 C1651 1.367 . S
C1650 C1658 1.378 . S
C1651 C1650 1.367 . S
C1651 C1659 1.433 . S
C1652 H1648 0.929 . S
C1652 C1654 1.378 . S
C1652 C1656 1.350 . S
C1653 C1656 1.463 1_655 S
C1653 C1658 1.350 . S
C1653 N1661 1.427 . S
C1654 H1645 0.930 . S
C1654 C1652 1.378 . S
C1654 C1655 1.367 . S
C1655 C1654 1.367 . S
C1655 C1657 1.433 . S
C1656 C1652 1.350 . S
C1656 C1653 1.463 1_455 S
C1656 N1660 1.427 . S
C1657 H1647 0.929 . S
C1657 C1655 1.433 . S
C1657 N1660 1.384 . S
C1658 H1649 0.929 . S
C1658 C1650 1.378 . S
C1658 C1653 1.350 . S
C1659 H1646 0.929 . S
C1659 C1651 1.433 . S
C1659 N1661 1.384 . S
N1660 C1656 1.427 . S
N1660 C1657 1.384 . S
N1661 C1653 1.427 . S
N1661 C1659 1.384 . S
H1662 C1668 0.930 . S
H1663 C1672 0.930 . S
H1664 C1677 0.929 . S
H1665 C1675 0.929 . S
H1666 C1670 0.929 . S
H1667 C1676 0.929 . S
C1668 H1662 0.930 . S
C1668 C1669 1.367 . S
C1668 C1676 1.378 . S
C1669 C1668 1.367 . S
C1669 C1677 1.433 . S
C1670 H1666 0.929 . S
C1670 C1672 1.378 . S
C1670 C1674 1.350 . S
C1671 C1674 1.463 . S
C1671 C1676 1.350 . S
C1671 N1679 1.427 . S
C1672 H1663 0.930 . S
C1672 C1670 1.378 . S
C1672 C1673 1.367 . S
C1673 C1672 1.367 . S
C1673 C1675 1.433 . S
C1674 C1670 1.350 . S
C1674 C1671 1.463 . S
C1674 N1678 1.427 . S
C1675 H1665 0.929 . S
C1675 C1673 1.433 . S
C1675 N1678 1.384 . S
C1676 H1667 0.929 . S
C1676 C1668 1.378 . S
C1676 C1671 1.350 . S
C1677 H1664 0.929 . S
C1677 C1669 1.433 . S
C1677 N1679 1.384 . S
N1678 C1674 1.427 . S
N1678 C1675 1.384 . S
N1679 C1671 1.427 . S
N1679 C1677 1.384 . S
H1680 C1686 0.930 . S
H1681 C1690 0.930 . S
H1682 C1695 0.929 . S
H1683 C1693 0.929 . S
H1684 C1688 0.929 . S
H1685 C1694 0.929 . S
C1686 H1680 0.930 . S
C1686 C1687 1.367 . S
C1686 C1694 1.378 . S
C1687 C1686 1.367 . S
C1687 C1695 1.433 . S
C1688 H1684 0.929 . S
C1688 C1690 1.378 . S
C1688 C1692 1.350 . S
C1689 C1692 1.463 1_545 S
C1689 C1694 1.350 . S
C1689 N1697 1.427 . S
C1690 H1681 0.930 . S
C1690 C1688 1.378 . S
C1690 C1691 1.367 . S
C1691 C1690 1.367 . S
C1691 C1693 1.433 . S
C1692 C1688 1.350 . S
C1692 C1689 1.463 1_565 S
C1692 N1696 1.427 . S
C1693 H1683 0.929 . S
C1693 C1691 1.433 . S
C1693 N1696 1.384 . S
C1694 H1685 0.929 . S
C1694 C1686 1.378 . S
C1694 C1689 1.350 . S
C1695 H1682 0.929 . S
C1695 C1687 1.433 . S
C1695 N1697 1.384 . S
N1696 C1692 1.427 . S
N1696 C1693 1.384 . S
N1697 C1689 1.427 . S
N1697 C1695 1.384 . S
H1698 C1704 0.930 . S
H1699 C1708 0.930 . S
H1700 C1713 0.929 . S
H1701 C1711 0.929 . S
H1702 C1706 0.929 . S
H1703 C1712 0.929 . S
C1704 H1698 0.930 . S
C1704 C1705 1.367 . S
C1704 C1712 1.378 . S
C1705 C1704 1.367 . S
C1705 C1713 1.433 . S
C1706 H1702 0.929 . S
C1706 C1708 1.378 . S
C1706 C1710 1.350 . S
C1707 C1710 1.463 . S
C1707 C1712 1.350 . S
C1707 N1715 1.427 . S
C1708 H1699 0.930 . S
C1708 C1706 1.378 . S
C1708 C1709 1.367 . S
C1709 C1708 1.367 . S
C1709 C1711 1.433 . S
C1710 C1706 1.350 . S
C1710 C1707 1.463 . S
C1710 N1714 1.427 . S
C1711 H1701 0.929 . S
C1711 C1709 1.433 . S
C1711 N1714 1.384 . S
C1712 H1703 0.929 . S
C1712 C1704 1.378 . S
C1712 C1707 1.350 . S
C1713 H1700 0.929 . S
C1713 C1705 1.433 . S
C1713 N1715 1.384 . S
N1714 C1710 1.427 . S
N1714 C1711 1.384 . S
N1715 C1707 1.427 . S
N1715 C1713 1.384 . S
H1716 C1722 0.930 . S
H1717 C1726 0.930 . S
H1718 C1731 0.929 . S
H1719 C1729 0.929 . S
H1720 C1724 0.929 . S
H1721 C1730 0.929 . S
C1722 H1716 0.930 . S
C1722 C1723 1.367 . S
C1722 C1730 1.378 . S
C1723 C1722 1.367 . S
C1723 C1731 1.433 . S
C1724 H1720 0.929 . S
C1724 C1726 1.378 . S
C1724 C1728 1.350 . S
C1725 C1728 1.463 1_545 S
C1725 C1730 1.350 . S
C1725 N1733 1.427 . S
C1726 H1717 0.930 . S
C1726 C1724 1.378 . S
C1726 C1727 1.367 . S
C1727 C1726 1.367 . S
C1727 C1729 1.433 . S
C1728 C1724 1.350 . S
C1728 C1725 1.463 1_565 S
C1728 N1732 1.427 . S
C1729 H1719 0.929 . S
C1729 C1727 1.433 . S
C1729 N1732 1.384 . S
C1730 H1721 0.929 . S
C1730 C1722 1.378 . S
C1730 C1725 1.350 . S
C1731 H1718 0.929 . S
C1731 C1723 1.433 . S
C1731 N1733 1.384 . S
N1732 C1728 1.427 . S
N1732 C1729 1.384 . S
N1733 C1725 1.427 . S
N1733 C1731 1.384 . S
H1734 C1740 0.930 . S
H1735 C1744 0.930 . S
H1736 C1749 0.929 . S
H1737 C1747 0.929 . S
H1738 C1742 0.929 . S
H1739 C1748 0.929 . S
C1740 H1734 0.930 . S
C1740 C1741 1.367 . S
C1740 C1748 1.378 . S
C1741 C1740 1.367 . S
C1741 C1749 1.433 . S
C1742 H1738 0.929 . S
C1742 C1744 1.378 . S
C1742 C1746 1.350 . S
C1743 C1746 1.463 . S
C1743 C1748 1.350 . S
C1743 N1751 1.427 . S
C1744 H1735 0.930 . S
C1744 C1742 1.378 . S
C1744 C1745 1.367 . S
C1745 C1744 1.367 . S
C1745 C1747 1.433 . S
C1746 C1742 1.350 . S
C1746 C1743 1.463 . S
C1746 N1750 1.427 . S
C1747 H1737 0.929 . S
C1747 C1745 1.433 . S
C1747 N1750 1.384 . S
C1748 H1739 0.929 . S
C1748 C1740 1.378 . S
C1748 C1743 1.350 . S
C1749 H1736 0.929 . S
C1749 C1741 1.433 . S
C1749 N1751 1.384 . S
N1750 C1746 1.427 . S
N1750 C1747 1.384 . S
N1751 C1743 1.427 . S
N1751 C1749 1.384 . S
H1752 C1758 0.930 . S
H1753 C1762 0.930 . S
H1754 C1767 0.929 . S
H1755 C1765 0.929 . S
H1756 C1760 0.929 . S
H1757 C1766 0.929 . S
C1758 H1752 0.930 . S
C1758 C1759 1.367 . S
C1758 C1766 1.378 . S
C1759 C1758 1.367 . S
C1759 C1767 1.433 . S
C1760 H1756 0.929 . S
C1760 C1762 1.378 . S
C1760 C1764 1.350 . S
C1761 C1764 1.463 1_545 S
C1761 C1766 1.350 . S
C1761 N1769 1.427 . S
C1762 H1753 0.930 . S
C1762 C1760 1.378 . S
C1762 C1763 1.367 . S
C1763 C1762 1.367 . S
C1763 C1765 1.433 . S
C1764 C1760 1.350 . S
C1764 C1761 1.463 1_565 S
C1764 N1768 1.427 . S
C1765 H1755 0.929 . S
C1765 C1763 1.433 . S
C1765 N1768 1.384 . S
C1766 H1757 0.929 . S
C1766 C1758 1.378 . S
C1766 C1761 1.350 . S
C1767 H1754 0.929 . S
C1767 C1759 1.433 . S
C1767 N1769 1.384 . S
N1768 C1764 1.427 . S
N1768 C1765 1.384 . S
N1769 C1761 1.427 . S
N1769 C1767 1.384 . S
H1770 C1776 0.930 . S
H1771 C1780 0.930 . S
H1772 C1785 0.929 . S
H1773 C1783 0.929 . S
H1774 C1778 0.929 . S
H1775 C1784 0.929 . S
C1776 H1770 0.930 . S
C1776 C1777 1.367 . S
C1776 C1784 1.378 . S
C1777 C1776 1.367 . S
C1777 C1785 1.433 . S
C1778 H1774 0.929 . S
C1778 C1780 1.378 . S
C1778 C1782 1.350 . S
C1779 C1782 1.463 . S
C1779 C1784 1.350 . S
C1779 N1787 1.427 . S
C1780 H1771 0.930 . S
C1780 C1778 1.378 . S
C1780 C1781 1.367 . S
C1781 C1780 1.367 . S
C1781 C1783 1.433 . S
C1782 C1778 1.350 . S
C1782 C1779 1.463 . S
C1782 N1786 1.427 . S
C1783 H1773 0.929 . S
C1783 C1781 1.433 . S
C1783 N1786 1.384 . S
C1784 H1775 0.929 . S
C1784 C1776 1.378 . S
C1784 C1779 1.350 . S
C1785 H1772 0.929 . S
C1785 C1777 1.433 . S
C1785 N1787 1.384 . S
N1786 C1782 1.427 . S
N1786 C1783 1.384 . S
N1787 C1779 1.427 . S
N1787 C1785 1.384 . S
H1788 C1794 0.930 . S
H1789 C1798 0.930 . S
H1790 C1803 0.929 . S
H1791 C1801 0.929 . S
H1792 C1796 0.929 . S
H1793 C1802 0.929 . S
C1794 H1788 0.930 . S
C1794 C1795 1.367 . S
C1794 C1802 1.378 . S
C1795 C1794 1.367 . S
C1795 C1803 1.433 . S
C1796 H1792 0.929 . S
C1796 C1798 1.378 . S
C1796 C1800 1.350 . S
C1797 C1800 1.463 1_545 S
C1797 C1802 1.350 . S
C1797 N1805 1.427 . S
C1798 H1789 0.930 . S
C1798 C1796 1.378 . S
C1798 C1799 1.367 . S
C1799 C1798 1.367 . S
C1799 C1801 1.433 . S
C1800 C1796 1.350 . S
C1800 C1797 1.463 1_565 S
C1800 N1804 1.427 . S
C1801 H1791 0.929 . S
C1801 C1799 1.433 . S
C1801 N1804 1.384 . S
C1802 H1793 0.929 . S
C1802 C1794 1.378 . S
C1802 C1797 1.350 . S
C1803 H1790 0.929 . S
C1803 C1795 1.433 . S
C1803 N1805 1.384 . S
N1804 C1800 1.427 . S
N1804 C1801 1.384 . S
N1805 C1797 1.427 . S
N1805 C1803 1.384 . S
H1806 C1812 0.930 . S
H1807 C1816 0.930 . S
H1808 C1821 0.929 . S
H1809 C1819 0.929 . S
H1810 C1814 0.929 . S
H1811 C1820 0.929 . S
C1812 H1806 0.930 . S
C1812 C1813 1.367 . S
C1812 C1820 1.378 . S
C1813 C1812 1.367 . S
C1813 C1821 1.433 . S
C1814 H1810 0.929 . S
C1814 C1816 1.378 . S
C1814 C1818 1.350 . S
C1815 C1818 1.463 . S
C1815 C1820 1.350 . S
C1815 N1823 1.427 . S
C1816 H1807 0.930 . S
C1816 C1814 1.378 . S
C1816 C1817 1.367 . S
C1817 C1816 1.367 . S
C1817 C1819 1.433 . S
C1818 C1814 1.350 . S
C1818 C1815 1.463 . S
C1818 N1822 1.427 . S
C1819 H1809 0.929 . S
C1819 C1817 1.433 . S
C1819 N1822 1.384 . S
C1820 H1811 0.929 . S
C1820 C1812 1.378 . S
C1820 C1815 1.350 . S
C1821 H1808 0.929 . S
C1821 C1813 1.433 . S
C1821 N1823 1.384 . S
N1822 C1818 1.427 . S
N1822 C1819 1.384 . S
N1823 C1815 1.427 . S
N1823 C1821 1.384 . S
H1824 C1830 0.930 . S
H1825 C1834 0.930 . S
H1826 C1839 0.929 . S
H1827 C1837 0.929 . S
H1828 C1832 0.929 . S
H1829 C1838 0.929 . S
C1830 H1824 0.930 . S
C1830 C1831 1.367 . S
C1830 C1838 1.378 . S
C1831 C1830 1.367 . S
C1831 C1839 1.433 . S
C1832 H1828 0.929 . S
C1832 C1834 1.378 . S
C1832 C1836 1.350 . S
C1833 C1836 1.463 1_556 S
C1833 C1838 1.350 . S
C1833 N1841 1.427 . S
C1834 H1825 0.930 . S
C1834 C1832 1.378 . S
C1834 C1835 1.367 . S
C1835 C1834 1.367 . S
C1835 C1837 1.433 . S
C1836 C1832 1.350 . S
C1836 C1833 1.463 1_554 S
C1836 N1840 1.427 . S
C1837 H1827 0.929 . S
C1837 C1835 1.433 . S
C1837 N1840 1.384 . S
C1838 H1829 0.929 . S
C1838 C1830 1.378 . S
C1838 C1833 1.350 . S
C1839 H1826 0.929 . S
C1839 C1831 1.433 . S
C1839 N1841 1.384 . S
N1840 C1836 1.427 . S
N1840 C1837 1.384 . S
N1841 C1833 1.427 . S
N1841 C1839 1.384 . S
H1842 C1848 0.930 . S
H1843 C1852 0.930 . S
H1844 C1857 0.929 . S
H1845 C1855 0.929 . S
H1846 C1850 0.929 . S
H1847 C1856 0.929 . S
C1848 H1842 0.930 . S
C1848 C1849 1.367 . S
C1848 C1856 1.378 . S
C1849 C1848 1.367 . S
C1849 C1857 1.433 . S
C1850 H1846 0.929 . S
C1850 C1852 1.378 . S
C1850 C1854 1.350 . S
C1851 C1854 1.463 1_556 S
C1851 C1856 1.350 . S
C1851 N1859 1.427 . S
C1852 H1843 0.930 . S
C1852 C1850 1.378 . S
C1852 C1853 1.367 . S
C1853 C1852 1.367 . S
C1853 C1855 1.433 . S
C1854 C1850 1.350 . S
C1854 C1851 1.463 1_554 S
C1854 N1858 1.427 . S
C1855 H1845 0.929 . S
C1855 C1853 1.433 . S
C1855 N1858 1.384 . S
C1856 H1847 0.929 . S
C1856 C1848 1.378 . S
C1856 C1851 1.350 . S
C1857 H1844 0.929 . S
C1857 C1849 1.433 . S
C1857 N1859 1.384 . S
N1858 C1854 1.427 . S
N1858 C1855 1.384 . S
N1859 C1851 1.427 . S
N1859 C1857 1.384 . S
H1860 C1866 0.930 . S
H1861 C1870 0.930 . S
H1862 C1875 0.929 . S
H1863 C1873 0.929 . S
H1864 C1868 0.929 . S
H1865 C1874 0.929 . S
C1866 H1860 0.930 . S
C1866 C1867 1.367 . S
C1866 C1874 1.378 . S
C1867 C1866 1.367 . S
C1867 C1875 1.433 . S
C1868 H1864 0.929 . S
C1868 C1870 1.378 . S
C1868 C1872 1.350 . S
C1869 C1872 1.463 . S
C1869 C1874 1.350 . S
C1869 N1877 1.427 . S
C1870 H1861 0.930 . S
C1870 C1868 1.378 . S
C1870 C1871 1.367 . S
C1871 C1870 1.367 . S
C1871 C1873 1.433 . S
C1872 C1868 1.350 . S
C1872 C1869 1.463 . S
C1872 N1876 1.427 . S
C1873 H1863 0.929 . S
C1873 C1871 1.433 . S
C1873 N1876 1.384 . S
C1874 H1865 0.929 . S
C1874 C1866 1.378 . S
C1874 C1869 1.350 . S
C1875 H1862 0.929 . S
C1875 C1867 1.433 . S
C1875 N1877 1.384 . S
N1876 C1872 1.427 . S
N1876 C1873 1.384 . S
N1877 C1869 1.427 . S
N1877 C1875 1.384 . S
H1878 C1884 0.930 . S
H1879 C1888 0.930 . S
H1880 C1893 0.929 . S
H1881 C1891 0.929 . S
H1882 C1886 0.929 . S
H1883 C1892 0.929 . S
C1884 H1878 0.930 . S
C1884 C1885 1.367 . S
C1884 C1892 1.378 . S
C1885 C1884 1.367 . S
C1885 C1893 1.433 . S
C1886 H1882 0.929 . S
C1886 C1888 1.378 . S
C1886 C1890 1.350 . S
C1887 C1890 1.463 1_556 S
C1887 C1892 1.350 . S
C1887 N1895 1.427 . S
C1888 H1879 0.930 . S
C1888 C1886 1.378 . S
C1888 C1889 1.367 . S
C1889 C1888 1.367 . S
C1889 C1891 1.433 . S
C1890 C1886 1.350 . S
C1890 C1887 1.463 1_554 S
C1890 N1894 1.427 . S
C1891 H1881 0.929 . S
C1891 C1889 1.433 . S
C1891 N1894 1.384 . S
C1892 H1883 0.929 . S
C1892 C1884 1.378 . S
C1892 C1887 1.350 . S
C1893 H1880 0.929 . S
C1893 C1885 1.433 . S
C1893 N1895 1.384 . S
N1894 C1890 1.427 . S
N1894 C1891 1.384 . S
N1895 C1887 1.427 . S
N1895 C1893 1.384 . S
H1896 C1902 0.930 . S
H1897 C1906 0.930 . S
H1898 C1911 0.929 . S
H1899 C1909 0.929 . S
H1900 C1904 0.929 . S
H1901 C1910 0.929 . S
C1902 H1896 0.930 . S
C1902 C1903 1.367 . S
C1902 C1910 1.378 . S
C1903 C1902 1.367 . S
C1903 C1911 1.433 . S
C1904 H1900 0.929 . S
C1904 C1906 1.378 . S
C1904 C1908 1.350 . S
C1905 C1908 1.463 . S
C1905 C1910 1.350 . S
C1905 N1913 1.427 . S
C1906 H1897 0.930 . S
C1906 C1904 1.378 . S
C1906 C1907 1.367 . S
C1907 C1906 1.367 . S
C1907 C1909 1.433 . S
C1908 C1904 1.350 . S
C1908 C1905 1.463 . S
C1908 N1912 1.427 . S
C1909 H1899 0.929 . S
C1909 C1907 1.433 . S
C1909 N1912 1.384 . S
C1910 H1901 0.929 . S
C1910 C1902 1.378 . S
C1910 C1905 1.350 . S
C1911 H1898 0.929 . S
C1911 C1903 1.433 . S
C1911 N1913 1.384 . S
N1912 C1908 1.427 . S
N1912 C1909 1.384 . S
N1913 C1905 1.427 . S
N1913 C1911 1.384 . S
H1914 C1920 0.930 . S
H1915 C1924 0.930 . S
H1916 C1929 0.929 . S
H1917 C1927 0.929 . S
H1918 C1922 0.929 . S
H1919 C1928 0.929 . S
C1920 H1914 0.930 . S
C1920 C1921 1.367 . S
C1920 C1928 1.378 . S
C1921 C1920 1.367 . S
C1921 C1929 1.433 . S
C1922 H1918 0.929 . S
C1922 C1924 1.378 . S
C1922 C1926 1.350 . S
C1923 C1926 1.463 1_556 S
C1923 C1928 1.350 . S
C1923 N1931 1.427 . S
C1924 H1915 0.930 . S
C1924 C1922 1.378 . S
C1924 C1925 1.367 . S
C1925 C1924 1.367 . S
C1925 C1927 1.433 . S
C1926 C1922 1.350 . S
C1926 C1923 1.463 1_554 S
C1926 N1930 1.427 . S
C1927 H1917 0.929 . S
C1927 C1925 1.433 . S
C1927 N1930 1.384 . S
C1928 H1919 0.929 . S
C1928 C1920 1.378 . S
C1928 C1923 1.350 . S
C1929 H1916 0.929 . S
C1929 C1921 1.433 . S
C1929 N1931 1.384 . S
N1930 C1926 1.427 . S
N1930 C1927 1.384 . S
N1931 C1923 1.427 . S
N1931 C1929 1.384 . S
H1932 C1938 0.930 . S
H1933 C1942 0.930 . S
H1934 C1947 0.929 . S
H1935 C1945 0.929 . S
H1936 C1940 0.929 . S
H1937 C1946 0.929 . S
C1938 H1932 0.930 . S
C1938 C1939 1.367 . S
C1938 C1946 1.378 . S
C1939 C1938 1.367 . S
C1939 C1947 1.433 . S
C1940 H1936 0.929 . S
C1940 C1942 1.378 . S
C1940 C1944 1.350 . S
C1941 C1944 1.463 . S
C1941 C1946 1.350 . S
C1941 N1949 1.427 . S
C1942 H1933 0.930 . S
C1942 C1940 1.378 . S
C1942 C1943 1.367 . S
C1943 C1942 1.367 . S
C1943 C1945 1.433 . S
C1944 C1940 1.350 . S
C1944 C1941 1.463 . S
C1944 N1948 1.427 . S
C1945 H1935 0.929 . S
C1945 C1943 1.433 . S
C1945 N1948 1.384 . S
C1946 H1937 0.929 . S
C1946 C1938 1.378 . S
C1946 C1941 1.350 . S
C1947 H1934 0.929 . S
C1947 C1939 1.433 . S
C1947 N1949 1.384 . S
N1948 C1944 1.427 . S
N1948 C1945 1.384 . S
N1949 C1941 1.427 . S
N1949 C1947 1.384 . S
H1950 C1956 0.930 . S
H1951 C1960 0.930 . S
H1952 C1965 0.929 . S
H1953 C1963 0.929 . S
H1954 C1958 0.929 . S
H1955 C1964 0.929 . S
C1956 H1950 0.930 . S
C1956 C1957 1.367 . S
C1956 C1964 1.378 . S
C1957 C1956 1.367 . S
C1957 C1965 1.433 . S
C1958 H1954 0.929 . S
C1958 C1960 1.378 . S
C1958 C1962 1.350 . S
C1959 C1962 1.463 . S
C1959 C1964 1.350 . S
C1959 N1967 1.427 . S
C1960 H1951 0.930 . S
C1960 C1958 1.378 . S
C1960 C1961 1.367 . S
C1961 C1960 1.367 . S
C1961 C1963 1.433 . S
C1962 C1958 1.350 . S
C1962 C1959 1.463 . S
C1962 N1966 1.427 . S
C1963 H1953 0.929 . S
C1963 C1961 1.433 . S
C1963 N1966 1.384 . S
C1964 H1955 0.929 . S
C1964 C1956 1.378 . S
C1964 C1959 1.350 . S
C1965 H1952 0.929 . S
C1965 C1957 1.433 . S
C1965 N1967 1.384 . S
N1966 C1962 1.427 . S
N1966 C1963 1.384 . S
N1967 C1959 1.427 . S
N1967 C1965 1.384 . S
H1968 C1974 0.930 . S
H1969 C1978 0.930 . S
H1970 C1983 0.929 . S
H1971 C1981 0.929 . S
H1972 C1976 0.929 . S
H1973 C1982 0.929 . S
C1974 H1968 0.930 . S
C1974 C1975 1.367 . S
C1974 C1982 1.378 . S
C1975 C1974 1.367 . S
C1975 C1983 1.433 . S
C1976 H1972 0.929 . S
C1976 C1978 1.378 . S
C1976 C1980 1.350 . S
C1977 C1980 1.463 . S
C1977 C1982 1.350 . S
C1977 N1985 1.427 . S
C1978 H1969 0.930 . S
C1978 C1976 1.378 . S
C1978 C1979 1.367 . S
C1979 C1978 1.367 . S
C1979 C1981 1.433 . S
C1980 C1976 1.350 . S
C1980 C1977 1.463 . S
C1980 N1984 1.427 . S
C1981 H1971 0.929 . S
C1981 C1979 1.433 . S
C1981 N1984 1.384 . S
C1982 H1973 0.929 . S
C1982 C1974 1.378 . S
C1982 C1977 1.350 . S
C1983 H1970 0.929 . S
C1983 C1975 1.433 . S
C1983 N1985 1.384 . S
N1984 C1980 1.427 . S
N1984 C1981 1.384 . S
N1985 C1977 1.427 . S
N1985 C1983 1.384 . S
H1986 C1992 0.930 . S
H1987 C1996 0.930 . S
H1988 C2001 0.929 . S
H1989 C1999 0.929 . S
H1990 C1994 0.929 . S
H1991 C2000 0.929 . S
C1992 H1986 0.930 . S
C1992 C1993 1.367 . S
C1992 C2000 1.378 . S
C1993 C1992 1.367 . S
C1993 C2001 1.433 . S
C1994 H1990 0.929 . S
C1994 C1996 1.378 . S
C1994 C1998 1.350 . S
C1995 C1998 1.463 . S
C1995 C2000 1.350 . S
C1995 N2003 1.427 . S
C1996 H1987 0.930 . S
C1996 C1994 1.378 . S
C1996 C1997 1.367 . S
C1997 C1996 1.367 . S
C1997 C1999 1.433 . S
C1998 C1994 1.350 . S
C1998 C1995 1.463 . S
C1998 N2002 1.427 . S
C1999 H1989 0.929 . S
C1999 C1997 1.433 . S
C1999 N2002 1.384 . S
C2000 H1991 0.929 . S
C2000 C1992 1.378 . S
C2000 C1995 1.350 . S
C2001 H1988 0.929 . S
C2001 C1993 1.433 . S
C2001 N2003 1.384 . S
N2002 C1998 1.427 . S
N2002 C1999 1.384 . S
N2003 C1995 1.427 . S
N2003 C2001 1.384 . S
H2004 C2010 0.930 . S
H2005 C2014 0.930 . S
H2006 C2019 0.929 . S
H2007 C2017 0.929 . S
H2008 C2012 0.929 . S
H2009 C2018 0.929 . S
C2010 H2004 0.930 . S
C2010 C2011 1.367 . S
C2010 C2018 1.378 . S
C2011 C2010 1.367 . S
C2011 C2019 1.433 . S
C2012 H2008 0.929 . S
C2012 C2014 1.378 . S
C2012 C2016 1.350 . S
C2013 C2016 1.463 . S
C2013 C2018 1.350 . S
C2013 N2021 1.427 . S
C2014 H2005 0.930 . S
C2014 C2012 1.378 . S
C2014 C2015 1.367 . S
C2015 C2014 1.367 . S
C2015 C2017 1.433 . S
C2016 C2012 1.350 . S
C2016 C2013 1.463 . S
C2016 N2020 1.427 . S
C2017 H2007 0.929 . S
C2017 C2015 1.433 . S
C2017 N2020 1.384 . S
C2018 H2009 0.929 . S
C2018 C2010 1.378 . S
C2018 C2013 1.350 . S
C2019 H2006 0.929 . S
C2019 C2011 1.433 . S
C2019 N2021 1.384 . S
N2020 C2016 1.427 . S
N2020 C2017 1.384 . S
N2021 C2013 1.427 . S
N2021 C2019 1.384 . S
H2022 C2028 0.930 . S
H2023 C2032 0.930 . S
H2024 C2037 0.929 . S
H2025 C2035 0.929 . S
H2026 C2030 0.929 . S
H2027 C2036 0.929 . S
C2028 H2022 0.930 . S
C2028 C2029 1.367 . S
C2028 C2036 1.378 . S
C2029 C2028 1.367 . S
C2029 C2037 1.433 . S
C2030 H2026 0.929 . S
C2030 C2032 1.378 . S
C2030 C2034 1.350 . S
C2031 C2034 1.463 . S
C2031 C2036 1.350 . S
C2031 N2039 1.427 . S
C2032 H2023 0.930 . S
C2032 C2030 1.378 . S
C2032 C2033 1.367 . S
C2033 C2032 1.367 . S
C2033 C2035 1.433 . S
C2034 C2030 1.350 . S
C2034 C2031 1.463 . S
C2034 N2038 1.427 . S
C2035 H2025 0.929 . S
C2035 C2033 1.433 . S
C2035 N2038 1.384 . S
C2036 H2027 0.929 . S
C2036 C2028 1.378 . S
C2036 C2031 1.350 . S
C2037 H2024 0.929 . S
C2037 C2029 1.433 . S
C2037 N2039 1.384 . S
N2038 C2034 1.427 . S
N2038 C2035 1.384 . S
N2039 C2031 1.427 . S
N2039 C2037 1.384 . S
H2040 C2046 0.930 . S
H2041 C2050 0.930 . S
H2042 C2055 0.929 . S
H2043 C2053 0.929 . S
H2044 C2048 0.929 . S
H2045 C2054 0.929 . S
C2046 H2040 0.930 . S
C2046 C2047 1.367 . S
C2046 C2054 1.378 . S
C2047 C2046 1.367 . S
C2047 C2055 1.433 . S
C2048 H2044 0.929 . S
C2048 C2050 1.378 . S
C2048 C2052 1.350 . S
C2049 C2052 1.463 . S
C2049 C2054 1.350 . S
C2049 N2057 1.427 . S
C2050 H2041 0.930 . S
C2050 C2048 1.378 . S
C2050 C2051 1.367 . S
C2051 C2050 1.367 . S
C2051 C2053 1.433 . S
C2052 C2048 1.350 . S
C2052 C2049 1.463 . S
C2052 N2056 1.427 . S
C2053 H2043 0.929 . S
C2053 C2051 1.433 . S
C2053 N2056 1.384 . S
C2054 H2045 0.929 . S
C2054 C2046 1.378 . S
C2054 C2049 1.350 . S
C2055 H2042 0.929 . S
C2055 C2047 1.433 . S
C2055 N2057 1.384 . S
N2056 C2052 1.427 . S
N2056 C2053 1.384 . S
N2057 C2049 1.427 . S
N2057 C2055 1.384 . S
H2058 C2064 0.930 . S
H2059 C2068 0.930 . S
H2060 C2073 0.929 . S
H2061 C2071 0.929 . S
H2062 C2066 0.929 . S
H2063 C2072 0.929 . S
C2064 H2058 0.930 . S
C2064 C2065 1.367 . S
C2064 C2072 1.378 . S
C2065 C2064 1.367 . S
C2065 C2073 1.433 . S
C2066 H2062 0.929 . S
C2066 C2068 1.378 . S
C2066 C2070 1.350 . S
C2067 C2070 1.463 . S
C2067 C2072 1.350 . S
C2067 N2075 1.427 . S
C2068 H2059 0.930 . S
C2068 C2066 1.378 . S
C2068 C2069 1.367 . S
C2069 C2068 1.367 . S
C2069 C2071 1.433 . S
C2070 C2066 1.350 . S
C2070 C2067 1.463 . S
C2070 N2074 1.427 . S
C2071 H2061 0.929 . S
C2071 C2069 1.433 . S
C2071 N2074 1.384 . S
C2072 H2063 0.929 . S
C2072 C2064 1.378 . S
C2072 C2067 1.350 . S
C2073 H2060 0.929 . S
C2073 C2065 1.433 . S
C2073 N2075 1.384 . S
N2074 C2070 1.427 . S
N2074 C2071 1.384 . S
N2075 C2067 1.427 . S
N2075 C2073 1.384 . S
H2076 C2082 0.930 . S
H2077 C2086 0.930 . S
H2078 C2091 0.929 . S
H2079 C2089 0.929 . S
H2080 C2084 0.929 . S
H2081 C2090 0.929 . S
C2082 H2076 0.930 . S
C2082 C2083 1.367 . S
C2082 C2090 1.378 . S
C2083 C2082 1.367 . S
C2083 C2091 1.433 . S
C2084 H2080 0.929 . S
C2084 C2086 1.378 . S
C2084 C2088 1.350 . S
C2085 C2088 1.463 . S
C2085 C2090 1.350 . S
C2085 N2093 1.427 . S
C2086 H2077 0.930 . S
C2086 C2084 1.378 . S
C2086 C2087 1.367 . S
C2087 C2086 1.367 . S
C2087 C2089 1.433 . S
C2088 C2084 1.350 . S
C2088 C2085 1.463 . S
C2088 N2092 1.427 . S
C2089 H2079 0.929 . S
C2089 C2087 1.433 . S
C2089 N2092 1.384 . S
C2090 H2081 0.929 . S
C2090 C2082 1.378 . S
C2090 C2085 1.350 . S
C2091 H2078 0.929 . S
C2091 C2083 1.433 . S
C2091 N2093 1.384 . S
N2092 C2088 1.427 . S
N2092 C2089 1.384 . S
N2093 C2085 1.427 . S
N2093 C2091 1.384 . S
H2094 C2100 0.930 . S
H2095 C2104 0.930 . S
H2096 C2109 0.929 . S
H2097 C2107 0.929 . S
H2098 C2102 0.929 . S
H2099 C2108 0.929 . S
C2100 H2094 0.930 . S
C2100 C2101 1.367 . S
C2100 C2108 1.378 . S
C2101 C2100 1.367 . S
C2101 C2109 1.433 . S
C2102 H2098 0.929 . S
C2102 C2104 1.378 . S
C2102 C2106 1.350 . S
C2103 C2106 1.463 . S
C2103 C2108 1.350 . S
C2103 N2111 1.427 . S
C2104 H2095 0.930 . S
C2104 C2102 1.378 . S
C2104 C2105 1.367 . S
C2105 C2104 1.367 . S
C2105 C2107 1.433 . S
C2106 C2102 1.350 . S
C2106 C2103 1.463 . S
C2106 N2110 1.427 . S
C2107 H2097 0.929 . S
C2107 C2105 1.433 . S
C2107 N2110 1.384 . S
C2108 H2099 0.929 . S
C2108 C2100 1.378 . S
C2108 C2103 1.350 . S
C2109 H2096 0.929 . S
C2109 C2101 1.433 . S
C2109 N2111 1.384 . S
N2110 C2106 1.427 . S
N2110 C2107 1.384 . S
N2111 C2103 1.427 . S
N2111 C2109 1.384 . S
H2112 C2118 0.930 . S
H2113 C2122 0.930 . S
H2114 C2127 0.929 . S
H2115 C2125 0.929 . S
H2116 C2120 0.929 . S
H2117 C2126 0.929 . S
C2118 H2112 0.930 . S
C2118 C2119 1.367 . S
C2118 C2126 1.378 . S
C2119 C2118 1.367 . S
C2119 C2127 1.433 . S
C2120 H2116 0.929 . S
C2120 C2122 1.378 . S
C2120 C2124 1.350 . S
C2121 C2124 1.463 . S
C2121 C2126 1.350 . S
C2121 N2129 1.427 . S
C2122 H2113 0.930 . S
C2122 C2120 1.378 . S
C2122 C2123 1.367 . S
C2123 C2122 1.367 . S
C2123 C2125 1.433 . S
C2124 C2120 1.350 . S
C2124 C2121 1.463 . S
C2124 N2128 1.427 . S
C2125 H2115 0.929 . S
C2125 C2123 1.433 . S
C2125 N2128 1.384 . S
C2126 H2117 0.929 . S
C2126 C2118 1.378 . S
C2126 C2121 1.350 . S
C2127 H2114 0.929 . S
C2127 C2119 1.433 . S
C2127 N2129 1.384 . S
N2128 C2124 1.427 . S
N2128 C2125 1.384 . S
N2129 C2121 1.427 . S
N2129 C2127 1.384 . S
H2130 C2136 0.930 . S
H2131 C2140 0.930 . S
H2132 C2145 0.929 . S
H2133 C2143 0.929 . S
H2134 C2138 0.929 . S
H2135 C2144 0.929 . S
C2136 H2130 0.930 . S
C2136 C2137 1.367 . S
C2136 C2144 1.378 . S
C2137 C2136 1.367 . S
C2137 C2145 1.433 . S
C2138 H2134 0.929 . S
C2138 C2140 1.378 . S
C2138 C2142 1.350 . S
C2139 C2142 1.463 . S
C2139 C2144 1.350 . S
C2139 N2147 1.427 . S
C2140 H2131 0.930 . S
C2140 C2138 1.378 . S
C2140 C2141 1.367 . S
C2141 C2140 1.367 . S
C2141 C2143 1.433 . S
C2142 C2138 1.350 . S
C2142 C2139 1.463 . S
C2142 N2146 1.427 . S
C2143 H2133 0.929 . S
C2143 C2141 1.433 . S
C2143 N2146 1.384 . S
C2144 H2135 0.929 . S
C2144 C2136 1.378 . S
C2144 C2139 1.350 . S
C2145 H2132 0.929 . S
C2145 C2137 1.433 . S
C2145 N2147 1.384 . S
N2146 C2142 1.427 . S
N2146 C2143 1.384 . S
N2147 C2139 1.427 . S
N2147 C2145 1.384 . S
H2148 C2154 0.930 . S
H2149 C2158 0.930 . S
H2150 C2163 0.929 . S
H2151 C2161 0.929 . S
H2152 C2156 0.929 . S
H2153 C2162 0.929 . S
C2154 H2148 0.930 . S
C2154 C2155 1.367 . S
C2154 C2162 1.378 . S
C2155 C2154 1.367 . S
C2155 C2163 1.433 . S
C2156 H2152 0.929 . S
C2156 C2158 1.378 . S
C2156 C2160 1.350 . S
C2157 C2160 1.463 . S
C2157 C2162 1.350 . S
C2157 N2165 1.427 . S
C2158 H2149 0.930 . S
C2158 C2156 1.378 . S
C2158 C2159 1.367 . S
C2159 C2158 1.367 . S
C2159 C2161 1.433 . S
C2160 C2156 1.350 . S
C2160 C2157 1.463 . S
C2160 N2164 1.427 . S
C2161 H2151 0.929 . S
C2161 C2159 1.433 . S
C2161 N2164 1.384 . S
C2162 H2153 0.929 . S
C2162 C2154 1.378 . S
C2162 C2157 1.350 . S
C2163 H2150 0.929 . S
C2163 C2155 1.433 . S
C2163 N2165 1.384 . S
N2164 C2160 1.427 . S
N2164 C2161 1.384 . S
N2165 C2157 1.427 . S
N2165 C2163 1.384 . S
H2166 C2172 0.930 . S
H2167 C2176 0.930 . S
H2168 C2181 0.929 . S
H2169 C2179 0.929 . S
H2170 C2174 0.929 . S
H2171 C2180 0.929 . S
C2172 H2166 0.930 . S
C2172 C2173 1.367 . S
C2172 C2180 1.378 . S
C2173 C2172 1.367 . S
C2173 C2181 1.433 . S
C2174 H2170 0.929 . S
C2174 C2176 1.378 . S
C2174 C2178 1.350 . S
C2175 C2178 1.463 . S
C2175 C2180 1.350 . S
C2175 N2183 1.427 . S
C2176 H2167 0.930 . S
C2176 C2174 1.378 . S
C2176 C2177 1.367 . S
C2177 C2176 1.367 . S
C2177 C2179 1.433 . S
C2178 C2174 1.350 . S
C2178 C2175 1.463 . S
C2178 N2182 1.427 . S
C2179 H2169 0.929 . S
C2179 C2177 1.433 . S
C2179 N2182 1.384 . S
C2180 H2171 0.929 . S
C2180 C2172 1.378 . S
C2180 C2175 1.350 . S
C2181 H2168 0.929 . S
C2181 C2173 1.433 . S
C2181 N2183 1.384 . S
N2182 C2178 1.427 . S
N2182 C2179 1.384 . S
N2183 C2175 1.427 . S
N2183 C2181 1.384 . S
H2184 C2190 0.930 . S
H2185 C2194 0.930 . S
H2186 C2199 0.929 . S
H2187 C2197 0.929 . S
H2188 C2192 0.929 . S
H2189 C2198 0.929 . S
C2190 H2184 0.930 . S
C2190 C2191 1.367 . S
C2190 C2198 1.378 . S
C2191 C2190 1.367 . S
C2191 C2199 1.433 . S
C2192 H2188 0.929 . S
C2192 C2194 1.378 . S
C2192 C2196 1.350 . S
C2193 C2196 1.463 . S
C2193 C2198 1.350 . S
C2193 N2201 1.427 . S
C2194 H2185 0.930 . S
C2194 C2192 1.378 . S
C2194 C2195 1.367 . S
C2195 C2194 1.367 . S
C2195 C2197 1.433 . S
C2196 C2192 1.350 . S
C2196 C2193 1.463 . S
C2196 N2200 1.427 . S
C2197 H2187 0.929 . S
C2197 C2195 1.433 . S
C2197 N2200 1.384 . S
C2198 H2189 0.929 . S
C2198 C2190 1.378 . S
C2198 C2193 1.350 . S
C2199 H2186 0.929 . S
C2199 C2191 1.433 . S
C2199 N2201 1.384 . S
N2200 C2196 1.427 . S
N2200 C2197 1.384 . S
N2201 C2193 1.427 . S
N2201 C2199 1.384 . S
H2202 C2208 0.930 . S
H2203 C2212 0.930 . S
H2204 C2217 0.929 . S
H2205 C2215 0.929 . S
H2206 C2210 0.929 . S
H2207 C2216 0.929 . S
C2208 H2202 0.930 . S
C2208 C2209 1.367 . S
C2208 C2216 1.378 . S
C2209 C2208 1.367 . S
C2209 C2217 1.433 . S
C2210 H2206 0.929 . S
C2210 C2212 1.378 . S
C2210 C2214 1.350 . S
C2211 C2214 1.463 . S
C2211 C2216 1.350 . S
C2211 N2219 1.427 . S
C2212 H2203 0.930 . S
C2212 C2210 1.378 . S
C2212 C2213 1.367 . S
C2213 C2212 1.367 . S
C2213 C2215 1.433 . S
C2214 C2210 1.350 . S
C2214 C2211 1.463 . S
C2214 N2218 1.427 . S
C2215 H2205 0.929 . S
C2215 C2213 1.433 . S
C2215 N2218 1.384 . S
C2216 H2207 0.929 . S
C2216 C2208 1.378 . S
C2216 C2211 1.350 . S
C2217 H2204 0.929 . S
C2217 C2209 1.433 . S
C2217 N2219 1.384 . S
N2218 C2214 1.427 . S
N2218 C2215 1.384 . S
N2219 C2211 1.427 . S
N2219 C2217 1.384 . S
H2220 C2226 0.930 . S
H2221 C2230 0.930 . S
H2222 C2235 0.929 . S
H2223 C2233 0.929 . S
H2224 C2228 0.929 . S
H2225 C2234 0.929 . S
C2226 H2220 0.930 . S
C2226 C2227 1.367 . S
C2226 C2234 1.378 . S
C2227 C2226 1.367 . S
C2227 C2235 1.433 . S
C2228 H2224 0.929 . S
C2228 C2230 1.378 . S
C2228 C2232 1.350 . S
C2229 C2232 1.463 . S
C2229 C2234 1.350 . S
C2229 N2237 1.427 . S
C2230 H2221 0.930 . S
C2230 C2228 1.378 . S
C2230 C2231 1.367 . S
C2231 C2230 1.367 . S
C2231 C2233 1.433 . S
C2232 C2228 1.350 . S
C2232 C2229 1.463 . S
C2232 N2236 1.427 . S
C2233 H2223 0.929 . S
C2233 C2231 1.433 . S
C2233 N2236 1.384 . S
C2234 H2225 0.929 . S
C2234 C2226 1.378 . S
C2234 C2229 1.350 . S
C2235 H2222 0.929 . S
C2235 C2227 1.433 . S
C2235 N2237 1.384 . S
N2236 C2232 1.427 . S
N2236 C2233 1.384 . S
N2237 C2229 1.427 . S
N2237 C2235 1.384 . S
H2238 C2244 0.930 . S
H2239 C2248 0.930 . S
H2240 C2253 0.929 . S
H2241 C2251 0.929 . S
H2242 C2246 0.929 . S
H2243 C2252 0.929 . S
C2244 H2238 0.930 . S
C2244 C2245 1.367 . S
C2244 C2252 1.378 . S
C2245 C2244 1.367 . S
C2245 C2253 1.433 . S
C2246 H2242 0.929 . S
C2246 C2248 1.378 . S
C2246 C2250 1.350 . S
C2247 C2250 1.463 . S
C2247 C2252 1.350 . S
C2247 N2255 1.427 . S
C2248 H2239 0.930 . S
C2248 C2246 1.378 . S
C2248 C2249 1.367 . S
C2249 C2248 1.367 . S
C2249 C2251 1.433 . S
C2250 C2246 1.350 . S
C2250 C2247 1.463 . S
C2250 N2254 1.427 . S
C2251 H2241 0.929 . S
C2251 C2249 1.433 . S
C2251 N2254 1.384 . S
C2252 H2243 0.929 . S
C2252 C2244 1.378 . S
C2252 C2247 1.350 . S
C2253 H2240 0.929 . S
C2253 C2245 1.433 . S
C2253 N2255 1.384 . S
N2254 C2250 1.427 . S
N2254 C2251 1.384 . S
N2255 C2247 1.427 . S
N2255 C2253 1.384 . S
H2256 C2262 0.930 . S
H2257 C2266 0.930 . S
H2258 C2271 0.929 . S
H2259 C2269 0.929 . S
H2260 C2264 0.929 . S
H2261 C2270 0.929 . S
C2262 H2256 0.930 . S
C2262 C2263 1.367 . S
C2262 C2270 1.378 . S
C2263 C2262 1.367 . S
C2263 C2271 1.433 . S
C2264 H2260 0.929 . S
C2264 C2266 1.378 . S
C2264 C2268 1.350 . S
C2265 C2268 1.463 . S
C2265 C2270 1.350 . S
C2265 N2273 1.427 . S
C2266 H2257 0.930 . S
C2266 C2264 1.378 . S
C2266 C2267 1.367 . S
C2267 C2266 1.367 . S
C2267 C2269 1.433 . S
C2268 C2264 1.350 . S
C2268 C2265 1.463 . S
C2268 N2272 1.427 . S
C2269 H2259 0.929 . S
C2269 C2267 1.433 . S
C2269 N2272 1.384 . S
C2270 H2261 0.929 . S
C2270 C2262 1.378 . S
C2270 C2265 1.350 . S
C2271 H2258 0.929 . S
C2271 C2263 1.433 . S
C2271 N2273 1.384 . S
N2272 C2268 1.427 . S
N2272 C2269 1.384 . S
N2273 C2265 1.427 . S
N2273 C2271 1.384 . S
H2274 C2280 0.930 . S
H2275 C2284 0.930 . S
H2276 C2289 0.929 . S
H2277 C2287 0.929 . S
H2278 C2282 0.929 . S
H2279 C2288 0.929 . S
C2280 H2274 0.930 . S
C2280 C2281 1.367 . S
C2280 C2288 1.378 . S
C2281 C2280 1.367 . S
C2281 C2289 1.433 . S
C2282 H2278 0.929 . S
C2282 C2284 1.378 . S
C2282 C2286 1.350 . S
C2283 C2286 1.463 . S
C2283 C2288 1.350 . S
C2283 N2291 1.427 . S
C2284 H2275 0.930 . S
C2284 C2282 1.378 . S
C2284 C2285 1.367 . S
C2285 C2284 1.367 . S
C2285 C2287 1.433 . S
C2286 C2282 1.350 . S
C2286 C2283 1.463 . S
C2286 N2290 1.427 . S
C2287 H2277 0.929 . S
C2287 C2285 1.433 . S
C2287 N2290 1.384 . S
C2288 H2279 0.929 . S
C2288 C2280 1.378 . S
C2288 C2283 1.350 . S
C2289 H2276 0.929 . S
C2289 C2281 1.433 . S
C2289 N2291 1.384 . S
N2290 C2286 1.427 . S
N2290 C2287 1.384 . S
N2291 C2283 1.427 . S
N2291 C2289 1.384 . S
H2292 C2298 0.930 . S
H2293 C2302 0.930 . S
H2294 C2307 0.929 . S
H2295 C2305 0.929 . S
H2296 C2300 0.929 . S
H2297 C2306 0.929 . S
C2298 H2292 0.930 . S
C2298 C2299 1.367 . S
C2298 C2306 1.378 . S
C2299 C2298 1.367 . S
C2299 C2307 1.433 . S
C2300 H2296 0.929 . S
C2300 C2302 1.378 . S
C2300 C2304 1.350 . S
C2301 C2304 1.463 . S
C2301 C2306 1.350 . S
C2301 N2309 1.427 . S
C2302 H2293 0.930 . S
C2302 C2300 1.378 . S
C2302 C2303 1.367 . S
C2303 C2302 1.367 . S
C2303 C2305 1.433 . S
C2304 C2300 1.350 . S
C2304 C2301 1.463 . S
C2304 N2308 1.427 . S
C2305 H2295 0.929 . S
C2305 C2303 1.433 . S
C2305 N2308 1.384 . S
C2306 H2297 0.929 . S
C2306 C2298 1.378 . S
C2306 C2301 1.350 . S
C2307 H2294 0.929 . S
C2307 C2299 1.433 . S
C2307 N2309 1.384 . S
N2308 C2304 1.427 . S
N2308 C2305 1.384 . S
N2309 C2301 1.427 . S
N2309 C2307 1.384 . S
H2310 C2316 0.930 . S
H2311 C2320 0.930 . S
H2312 C2325 0.929 . S
H2313 C2323 0.929 . S
H2314 C2318 0.929 . S
H2315 C2324 0.929 . S
C2316 H2310 0.930 . S
C2316 C2317 1.367 . S
C2316 C2324 1.378 . S
C2317 C2316 1.367 . S
C2317 C2325 1.433 . S
C2318 H2314 0.929 . S
C2318 C2320 1.378 . S
C2318 C2322 1.350 . S
C2319 C2322 1.463 . S
C2319 C2324 1.350 . S
C2319 N2327 1.427 . S
C2320 H2311 0.930 . S
C2320 C2318 1.378 . S
C2320 C2321 1.367 . S
C2321 C2320 1.367 . S
C2321 C2323 1.433 . S
C2322 C2318 1.350 . S
C2322 C2319 1.463 . S
C2322 N2326 1.427 . S
C2323 H2313 0.929 . S
C2323 C2321 1.433 . S
C2323 N2326 1.384 . S
C2324 H2315 0.929 . S
C2324 C2316 1.378 . S
C2324 C2319 1.350 . S
C2325 H2312 0.929 . S
C2325 C2317 1.433 . S
C2325 N2327 1.384 . S
N2326 C2322 1.427 . S
N2326 C2323 1.384 . S
N2327 C2319 1.427 . S
N2327 C2325 1.384 . S
H2328 C2334 0.930 . S
H2329 C2338 0.930 . S
H2330 C2343 0.929 . S
H2331 C2341 0.929 . S
H2332 C2336 0.929 . S
H2333 C2342 0.929 . S
C2334 H2328 0.930 . S
C2334 C2335 1.367 . S
C2334 C2342 1.378 . S
C2335 C2334 1.367 . S
C2335 C2343 1.433 . S
C2336 H2332 0.929 . S
C2336 C2338 1.378 . S
C2336 C2340 1.350 . S
C2337 C2340 1.463 . S
C2337 C2342 1.350 . S
C2337 N2345 1.427 . S
C2338 H2329 0.930 . S
C2338 C2336 1.378 . S
C2338 C2339 1.367 . S
C2339 C2338 1.367 . S
C2339 C2341 1.433 . S
C2340 C2336 1.350 . S
C2340 C2337 1.463 . S
C2340 N2344 1.427 . S
C2341 H2331 0.929 . S
C2341 C2339 1.433 . S
C2341 N2344 1.384 . S
C2342 H2333 0.929 . S
C2342 C2334 1.378 . S
C2342 C2337 1.350 . S
C2343 H2330 0.929 . S
C2343 C2335 1.433 . S
C2343 N2345 1.384 . S
N2344 C2340 1.427 . S
N2344 C2341 1.384 . S
N2345 C2337 1.427 . S
N2345 C2343 1.384 . S
H2346 C2352 0.930 . S
H2347 C2356 0.930 . S
H2348 C2361 0.929 . S
H2349 C2359 0.929 . S
H2350 C2354 0.929 . S
H2351 C2360 0.929 . S
C2352 H2346 0.930 . S
C2352 C2353 1.367 . S
C2352 C2360 1.378 . S
C2353 C2352 1.367 . S
C2353 C2361 1.433 . S
C2354 H2350 0.929 . S
C2354 C2356 1.378 . S
C2354 C2358 1.350 . S
C2355 C2358 1.463 . S
C2355 C2360 1.350 . S
C2355 N2363 1.427 . S
C2356 H2347 0.930 . S
C2356 C2354 1.378 . S
C2356 C2357 1.367 . S
C2357 C2356 1.367 . S
C2357 C2359 1.433 . S
C2358 C2354 1.350 . S
C2358 C2355 1.463 . S
C2358 N2362 1.427 . S
C2359 H2349 0.929 . S
C2359 C2357 1.433 . S
C2359 N2362 1.384 . S
C2360 H2351 0.929 . S
C2360 C2352 1.378 . S
C2360 C2355 1.350 . S
C2361 H2348 0.929 . S
C2361 C2353 1.433 . S
C2361 N2363 1.384 . S
N2362 C2358 1.427 . S
N2362 C2359 1.384 . S
N2363 C2355 1.427 . S
N2363 C2361 1.384 . S
H2364 C2370 0.930 . S
H2365 C2374 0.930 . S
H2366 C2379 0.929 . S
H2367 C2377 0.929 . S
H2368 C2372 0.929 . S
H2369 C2378 0.929 . S
C2370 H2364 0.930 . S
C2370 C2371 1.367 . S
C2370 C2378 1.378 . S
C2371 C2370 1.367 . S
C2371 C2379 1.433 . S
C2372 H2368 0.929 . S
C2372 C2374 1.378 . S
C2372 C2376 1.350 . S
C2373 C2376 1.463 . S
C2373 C2378 1.350 . S
C2373 N2381 1.427 . S
C2374 H2365 0.930 . S
C2374 C2372 1.378 . S
C2374 C2375 1.367 . S
C2375 C2374 1.367 . S
C2375 C2377 1.433 . S
C2376 C2372 1.350 . S
C2376 C2373 1.463 . S
C2376 N2380 1.427 . S
C2377 H2367 0.929 . S
C2377 C2375 1.433 . S
C2377 N2380 1.384 . S
C2378 H2369 0.929 . S
C2378 C2370 1.378 . S
C2378 C2373 1.350 . S
C2379 H2366 0.929 . S
C2379 C2371 1.433 . S
C2379 N2381 1.384 . S
N2380 C2376 1.427 . S
N2380 C2377 1.384 . S
N2381 C2373 1.427 . S
N2381 C2379 1.384 . S
H2382 C2388 0.930 . S
H2383 C2392 0.930 . S
H2384 C2397 0.929 . S
H2385 C2395 0.929 . S
H2386 C2390 0.929 . S
H2387 C2396 0.929 . S
C2388 H2382 0.930 . S
C2388 C2389 1.367 . S
C2388 C2396 1.378 . S
C2389 C2388 1.367 . S
C2389 C2397 1.433 . S
C2390 H2386 0.929 . S
C2390 C2392 1.378 . S
C2390 C2394 1.350 . S
C2391 C2394 1.463 . S
C2391 C2396 1.350 . S
C2391 N2399 1.427 . S
C2392 H2383 0.930 . S
C2392 C2390 1.378 . S
C2392 C2393 1.367 . S
C2393 C2392 1.367 . S
C2393 C2395 1.433 . S
C2394 C2390 1.350 . S
C2394 C2391 1.463 . S
C2394 N2398 1.427 . S
C2395 H2385 0.929 . S
C2395 C2393 1.433 . S
C2395 N2398 1.384 . S
C2396 H2387 0.929 . S
C2396 C2388 1.378 . S
C2396 C2391 1.350 . S
C2397 H2384 0.929 . S
C2397 C2389 1.433 . S
C2397 N2399 1.384 . S
N2398 C2394 1.427 . S
N2398 C2395 1.384 . S
N2399 C2391 1.427 . S
N2399 C2397 1.384 . S
C679 C288 1.354 . S
C683 C8 1.364 . S
C697 C25 0.988 . S
C701 C249 0.989 . S
C715 C36 1.364 . S
C719 C260 1.352 . S
C733 C277 0.981 . S
C737 C53 0.982 . S
C751 C330 1.194 . S
C755 C67 1.209 . S
C769 C81 1.053 . S
C773 C305 1.053 . S
C787 C95 1.206 . S
C791 C316 1.198 . S
C805 C109 1.060 . S
C809 C235 1.060 . S
C823 C120 1.256 . S
C827 C218 1.271 . S
C841 C137 1.304 . S
C845 C176 1.298 . S
C859 C148 1.256 . S
C863 C190 1.271 . S
C877 C204 1.297 . S
C881 C165 1.303 . S
C895 C347 1.179 . S
C899 C624 1.177 . S
C913 C585 0.888 . S
C917 C361 0.896 . S
C931 C375 1.179 . S
C935 C596 1.175 . S
C949 C613 0.891 . S
C953 C389 0.890 . S
C967 C400 1.183 . S
C971 C666 1.182 . S
C985 C641 0.978 . S
C989 C417 0.971 . S
C1003 C428 1.178 . S
C1007 C652 1.181 . S
C1021 C571 0.977 . S
C1025 C445 0.975 . S
C1039 C456 1.183 . S
C1043 C557 1.182 . S
C1057 C512 1.192 . S
C1061 C470 1.186 . S
C1075 C529 1.184 . S
C1079 C484 1.179 . S
C1093 C540 1.186 . S
C1097 C498 1.181 . S
C1111 C372 0.923 . S
C1115 C11 0.925 . S
C1129 C22 0.899 . S
C1133 C386 0.897 . S
C1147 C39 0.930 . S
C1151 C344 0.929 . S
C1165 C50 0.899 . S
C1169 C358 0.896 . S
C1183 C64 0.926 . S
C1187 C431 0.937 . S
C1201 C442 0.895 . S
C1205 C78 0.895 . S
C1219 C403 0.933 . S
C1223 C92 0.923 . S
C1237 C414 0.880 . S
C1241 C106 0.883 . S
C1255 C515 0.739 . S
C1259 C123 0.736 . S
C1273 C134 0.967 . S
C1277 C526 0.971 . S
C1291 C543 0.737 . S
C1295 C151 0.739 . S
C1309 C162 0.958 . S
C1313 C554 0.960 . S
C1327 C179 0.739 . S
C1331 C459 0.732 . S
C1345 C193 0.903 . S
C1349 C473 0.902 . S
C1363 C487 0.741 . S
C1367 C207 0.744 . S
C1381 C501 0.903 . S
C1385 C221 0.901 . S
C1399 C232 0.892 . S
C1403 C610 0.895 . S
C1417 C246 0.881 . S
C1421 C638 0.880 . S
C1435 C655 0.733 . S
C1439 C263 0.734 . S
C1453 C568 0.893 . S
C1457 C274 0.887 . S
C1471 C291 0.744 . S
C1475 C669 0.745 . S
C1489 C582 0.897 . S
C1493 C302 0.903 . S
C1507 C319 0.739 . S
C1511 C599 0.741 . S
C1525 C333 0.747 . S
C1529 C627 0.740 . S
C1543 C405 1.779 . S
C1547 C7 1.819 . S
C1561 C413 1.722 . S
C1565 C27 1.734 . S
C1579 C433 1.780 . S
C1583 C35 1.819 . S
C1597 C55 1.729 . S
C1601 C441 1.719 . S
C1615 C343 1.802 . S
C1619 C69 1.785 . S
C1633 C357 1.686 . S
C1637 C83 1.688 . S
C1651 C97 1.793 . S
C1655 C371 1.799 . S
C1669 C385 1.679 . S
C1673 C111 1.693 . S
C1687 C119 1.815 . S
C1691 C545 1.793 . S
C1705 C139 1.783 . S
C1709 C553 1.796 . S
C1723 C517 1.788 . S
C1727 C147 1.817 . S
C1741 C167 1.777 . S
C1745 C525 1.799 . S
C1759 C489 1.710 . S
C1763 C175 1.728 . S
C1777 C189 1.814 . S
C1781 C503 1.795 . S
C1795 C203 1.732 . S
C1799 C461 1.713 . S
C1813 C217 1.819 . S
C1817 C475 1.785 . S
C1831 C637 1.661 . S
C1835 C237 1.674 . S
C1849 C251 1.750 . S
C1853 C609 1.736 . S
C1867 C259 1.748 . S
C1871 C629 1.714 . S
C1885 C279 1.747 . S
C1889 C581 1.731 . S
C1903 C601 1.719 . S
C1907 C287 1.751 . S
C1921 C567 1.661 . S
C1925 C307 1.674 . S
C1939 C671 1.790 . S
C1943 C315 1.802 . S
C1957 C329 1.804 . S
C1961 C657 1.792 . S
C1975 C223 1.693 . S
C1979 C13 1.719 . S
C1993 C21 1.750 . S
C1997 C181 1.797 . S
C2011 C195 1.703 . S
C2015 C41 1.708 . S
C2029 C209 1.809 . S
C2033 C49 1.761 . S
C2047 C133 1.742 . S
C2051 C63 1.742 . S
C2065 C77 1.642 . S
C2069 C153 1.661 . S
C2083 C91 1.748 . S
C2087 C161 1.748 . S
C2101 C125 1.675 . S
C2105 C105 1.653 . S
C2119 C231 1.685 . S
C2123 C293 1.721 . S
C2137 C335 1.764 . S
C2141 C245 1.729 . S
C2155 C301 1.682 . S
C2159 C265 1.710 . S
C2173 C273 1.720 . S
C2177 C321 1.752 . S
C2191 C559 1.613 . S
C2195 C349 1.605 . S
C2209 C511 1.746 . S
C2213 C363 1.803 . S
C2227 C377 1.609 . S
C2231 C531 1.615 . S
C2245 C539 1.745 . S
C2249 C391 1.806 . S
C2263 C469 1.659 . S
C2267 C399 1.656 . S
C2281 C419 1.753 . S
C2285 C483 1.696 . S
C2299 C427 1.660 . S
C2303 C497 1.663 . S
C2317 C447 1.753 . S
C2321 C455 1.696 . S
C2335 C573 1.728 . S
C2339 C623 1.692 . S
C2353 C665 1.755 . S
C2357 C587 1.821 . S
C2371 C643 1.724 . S
C2375 C595 1.681 . S
C2389 C651 1.750 . S
C2393 C615 1.820 . S
