# Generated by pormake.
# Topology wib, (6)-cn, num edge types: 1
# Building blocks:
#     Node 0, Type 0, BuildingBlock: IZENUY_clean_sbu_0, # of connection points: 6
#     Node 1, Type 0, BuildingBlock: IZENUY_clean_sbu_0, # of connection points: 6
#     Node 2, Type 0, BuildingBlock: IZENUY_clean_sbu_0, # of connection points: 6
#     Node 3, Type 0, BuildingBlock: IZENUY_clean_sbu_0, # of connection points: 6
#     Node 4, Type 0, BuildingBlock: IZENUY_clean_sbu_0, # of connection points: 6
#     Node 5, Type 0, BuildingBlock: IZENUY_clean_sbu_0, # of connection points: 6
#     Node 6, Type 0, BuildingBlock: IZENUY_clean_sbu_0, # of connection points: 6
#     Node 7, Type 0, BuildingBlock: IZENUY_clean_sbu_0, # of connection points: 6
#     Node 8, Type 0, BuildingBlock: IZENUY_clean_sbu_0, # of connection points: 6
#     Node 9, Type 0, BuildingBlock: IZENUY_clean_sbu_0, # of connection points: 6
#     Node 10, Type 0, BuildingBlock: IZENUY_clean_sbu_0, # of connection points: 6
#     Node 11, Type 0, BuildingBlock: IZENUY_clean_sbu_0, # of connection points: 6
#     Node 12, Type 0, BuildingBlock: IZENUY_clean_sbu_0, # of connection points: 6
#     Node 13, Type 0, BuildingBlock: IZENUY_clean_sbu_0, # of connection points: 6
#     Node 14, Type 0, BuildingBlock: IZENUY_clean_sbu_0, # of connection points: 6
#     Node 15, Type 0, BuildingBlock: IZENUY_clean_sbu_0, # of connection points: 6
#     Edge 16, Type (0, 0), BuildingBlock: OJICUG_clean_linker_0, # of connection points: 2
#     Edge 17, Type (0, 0), BuildingBlock: OJICUG_clean_linker_0, # of connection points: 2
#     Edge 18, Type (0, 0), BuildingBlock: OJICUG_clean_linker_0, # of connection points: 2
#     Edge 19, Type (0, 0), BuildingBlock: OJICUG_clean_linker_0, # of connection points: 2
#     Edge 20, Type (0, 0), BuildingBlock: OJICUG_clean_linker_0, # of connection points: 2
#     Edge 21, Type (0, 0), BuildingBlock: OJICUG_clean_linker_0, # of connection points: 2
#     Edge 22, Type (0, 0), BuildingBlock: OJICUG_clean_linker_0, # of connection points: 2
#     Edge 23, Type (0, 0), BuildingBlock: OJICUG_clean_linker_0, # of connection points: 2
#     Edge 24, Type (0, 0), BuildingBlock: OJICUG_clean_linker_0, # of connection points: 2
#     Edge 25, Type (0, 0), BuildingBlock: OJICUG_clean_linker_0, # of connection points: 2
#     Edge 26, Type (0, 0), BuildingBlock: OJICUG_clean_linker_0, # of connection points: 2
#     Edge 27, Type (0, 0), BuildingBlock: OJICUG_clean_linker_0, # of connection points: 2
#     Edge 28, Type (0, 0), BuildingBlock: OJICUG_clean_linker_0, # of connection points: 2
#     Edge 29, Type (0, 0), BuildingBlock: OJICUG_clean_linker_0, # of connection points: 2
#     Edge 30, Type (0, 0), BuildingBlock: OJICUG_clean_linker_0, # of connection points: 2
#     Edge 31, Type (0, 0), BuildingBlock: OJICUG_clean_linker_0, # of connection points: 2
#     Edge 32, Type (0, 0), BuildingBlock: OJICUG_clean_linker_0, # of connection points: 2
#     Edge 33, Type (0, 0), BuildingBlock: OJICUG_clean_linker_0, # of connection points: 2
#     Edge 34, Type (0, 0), BuildingBlock: OJICUG_clean_linker_0, # of connection points: 2
#     Edge 35, Type (0, 0), BuildingBlock: OJICUG_clean_linker_0, # of connection points: 2
#     Edge 36, Type (0, 0), BuildingBlock: OJICUG_clean_linker_0, # of connection points: 2
#     Edge 37, Type (0, 0), BuildingBlock: OJICUG_clean_linker_0, # of connection points: 2
#     Edge 38, Type (0, 0), BuildingBlock: OJICUG_clean_linker_0, # of connection points: 2
#     Edge 39, Type (0, 0), BuildingBlock: OJICUG_clean_linker_0, # of connection points: 2
#     Edge 40, Type (0, 0), BuildingBlock: OJICUG_clean_linker_0, # of connection points: 2
#     Edge 41, Type (0, 0), BuildingBlock: OJICUG_clean_linker_0, # of connection points: 2
#     Edge 42, Type (0, 0), BuildingBlock: OJICUG_clean_linker_0, # of connection points: 2
#     Edge 43, Type (0, 0), BuildingBlock: OJICUG_clean_linker_0, # of connection points: 2
#     Edge 44, Type (0, 0), BuildingBlock: OJICUG_clean_linker_0, # of connection points: 2
#     Edge 45, Type (0, 0), BuildingBlock: OJICUG_clean_linker_0, # of connection points: 2
#     Edge 46, Type (0, 0), BuildingBlock: OJICUG_clean_linker_0, # of connection points: 2
#     Edge 47, Type (0, 0), BuildingBlock: OJICUG_clean_linker_0, # of connection points: 2
#     Edge 48, Type (0, 0), BuildingBlock: OJICUG_clean_linker_0, # of connection points: 2
#     Edge 49, Type (0, 0), BuildingBlock: OJICUG_clean_linker_0, # of connection points: 2
#     Edge 50, Type (0, 0), BuildingBlock: OJICUG_clean_linker_0, # of connection points: 2
#     Edge 51, Type (0, 0), BuildingBlock: OJICUG_clean_linker_0, # of connection points: 2
#     Edge 52, Type (0, 0), BuildingBlock: OJICUG_clean_linker_0, # of connection points: 2
#     Edge 53, Type (0, 0), BuildingBlock: OJICUG_clean_linker_0, # of connection points: 2
#     Edge 54, Type (0, 0), BuildingBlock: OJICUG_clean_linker_0, # of connection points: 2
#     Edge 55, Type (0, 0), BuildingBlock: OJICUG_clean_linker_0, # of connection points: 2
#     Edge 56, Type (0, 0), BuildingBlock: OJICUG_clean_linker_0, # of connection points: 2
#     Edge 57, Type (0, 0), BuildingBlock: OJICUG_clean_linker_0, # of connection points: 2
#     Edge 58, Type (0, 0), BuildingBlock: OJICUG_clean_linker_0, # of connection points: 2
#     Edge 59, Type (0, 0), BuildingBlock: OJICUG_clean_linker_0, # of connection points: 2
#     Edge 60, Type (0, 0), BuildingBlock: OJICUG_clean_linker_0, # of connection points: 2
#     Edge 61, Type (0, 0), BuildingBlock: OJICUG_clean_linker_0, # of connection points: 2
#     Edge 62, Type (0, 0), BuildingBlock: OJICUG_clean_linker_0, # of connection points: 2
#     Edge 63, Type (0, 0), BuildingBlock: OJICUG_clean_linker_0, # of connection points: 2
# Relax obj value: 0.443
# Max RMSD: 0.268
# Mean RMSD: 0.268
data_MOF--net-wib--node1-IZENUY_clean_sbu_0--edge1-OJICUG_clean_linker_0
_symmetry_space_group_name_H-M    P1
_symmetry_Int_Tables_number       1
_symmetry_cell_setting            triclinic
loop_
_symmetry_equiv_pos_as_xyz
'x, y, z'
_cell_length_a     22.093793
_cell_length_b     22.095003
_cell_length_c     40.781512
_cell_angle_alpha  89.898474
_cell_angle_beta   89.996812
_cell_angle_gamma 90.003437
loop_
_atom_site_label
_atom_site_type_symbol
_atom_site_fract_x
_atom_site_fract_y
_atom_site_fract_z
_atom_type_partial_charge
Fe0 Fe 0.08259 0.59976 0.29412 0.0
Fe1 Fe 0.13155 0.47082 0.30145 0.0
O2 O 0.12715 0.54658 0.31506 0.0
Fe3 Fe 0.16426 0.56867 0.3514 0.0
O4 O 0.21025 0.621 0.32961 0.0
O5 O 0.13408 0.66322 0.30346 0.0
O6 O 0.12521 0.59153 0.25747 0.0
C7 C 0.13204 0.54274 0.2424 0.0
C8 C 0.05642 0.64053 0.35341 0.0
O9 O 0.12491 0.4916 0.25677 0.0
C10 C 0.13299 0.46074 0.3722 0.0
O11 O 0.02565 0.54542 0.28036 0.0
O12 O 0.04885 0.46095 0.30611 0.0
O13 O 0.11018 0.63021 0.36281 0.0
O14 O 0.03642 0.61002 0.33005 0.0
C15 C 0.24926 0.49165 0.31968 0.0
O16 O 0.14218 0.43812 0.34378 0.0
O17 O 0.11892 0.51569 0.37408 0.0
C18 C 1.00993 0.49524 0.29261 0.0
O19 O 0.21396 0.47715 0.29641 0.0
O20 O 0.22787 0.51498 0.34572 0.0
C21 C 0.18928 0.66266 0.31211 0.0
Fe22 Fe 0.30885 0.38132 0.55164 0.0
Fe23 Fe 0.21086 0.41384 0.60162 0.0
O24 O 0.23305 0.37684 0.56528 0.0
Fe25 Fe 0.17995 0.33231 0.54436 0.0
O26 O 0.18825 0.37498 0.5077 0.0
O27 O 0.28818 0.37472 0.50697 0.0
O28 O 0.30249 0.46374 0.54659 0.0
C29 C 0.28791 0.49896 0.56986 0.0
C30 C 0.28451 0.2597 0.54284 0.0
O31 O 0.26452 0.4775 0.59592 0.0
C32 C 0.13901 0.30597 0.60365 0.0
O33 O 0.34145 0.39188 0.59395 0.0
O34 O 0.26384 0.36851 0.6243 0.0
O35 O 0.23434 0.27541 0.53062 0.0
O36 O 0.31875 0.29861 0.55632 0.0
C37 C 0.11695 0.43893 0.56234 0.0
O38 O 0.14929 0.3597 0.61306 0.0
O39 O 0.16966 0.28606 0.58032 0.0
C40 C 0.31879 0.38266 0.62239 0.0
O41 O 0.15853 0.45987 0.57986 0.0
O42 O 0.11645 0.38376 0.5537 0.0
C43 C 0.23708 0.38181 0.49261 0.0
Fe44 Fe 0.39871 0.55908 0.80134 0.0
Fe45 Fe 0.36597 0.46105 0.85139 0.0
O46 O 0.4031 0.48328 0.81503 0.0
Fe47 Fe 0.44765 0.43017 0.79413 0.0
O48 O 0.405 0.43853 0.75749 0.0
O49 O 0.40536 0.53845 0.75668 0.0
O50 O 0.31631 0.55278 0.79631 0.0
C51 C 0.28101 0.5382 0.81959 0.0
C52 C 0.52033 0.53467 0.79253 0.0
O53 O 0.30236 0.51476 0.84566 0.0
C54 C 0.47385 0.38921 0.85345 0.0
O55 O 0.38809 0.59165 0.84363 0.0
O56 O 0.41124 0.51398 0.87405 0.0
O57 O 0.50459 0.48456 0.78031 0.0
O58 O 0.48141 0.56892 0.806 0.0
C59 C 0.34097 0.36717 0.81218 0.0
O60 O 0.42009 0.39948 0.86284 0.0
O61 O 0.49384 0.41979 0.83006 0.0
C62 C 0.39724 0.56895 0.87208 0.0
O63 O 0.31998 0.40877 0.82965 0.0
O64 O 0.39616 0.36668 0.80353 0.0
C65 C 0.39816 0.48736 0.74238 0.0
Fe66 Fe 0.22151 0.64866 1.05135 0.0
Fe67 Fe 0.31947 0.61578 0.10134 0.0
O68 O 0.29731 0.65301 0.06499 0.0
Fe69 Fe 0.35047 0.69757 1.04403 0.0
O70 O 0.34211 0.65503 1.00741 0.0
O71 O 0.24218 0.65542 1.00668 0.0
O72 O 0.22779 0.56626 1.04634 0.0
C73 C 0.24235 0.5309 0.06961 0.0
C74 C 0.24598 0.77029 1.04248 0.0
O75 O 0.26574 0.5522 0.09566 0.0
C76 C 0.39137 0.72362 0.10334 0.0
O77 O 0.18889 0.63794 0.09367 0.0
O78 O 0.26654 0.66103 0.12402 0.0
O79 O 0.29612 0.75457 1.03025 0.0
O80 O 0.2117 0.73135 0.05599 0.0
C81 C 0.41337 0.59083 0.06208 0.0
O82 O 0.38105 0.66984 0.11275 0.0
O83 O 0.36087 0.74368 0.07994 0.0
C84 C 0.21156 0.64702 0.1221 0.0
O85 O 0.37175 0.56983 0.07958 0.0
O86 O 0.41391 0.64604 0.0534 0.0
C87 C 0.29328 0.64827 0.99233 0.0
Fe88 Fe 0.86596 0.46109 0.75151 0.0
Fe89 Fe 0.94776 0.43014 0.80875 0.0
O90 O 0.90314 0.48326 0.78782 0.0
Fe91 Fe 0.89874 0.55905 0.80139 0.0
O92 O 0.81633 0.5527 0.80647 0.0
O93 O 0.80237 0.51479 0.75718 0.0
O94 O 0.82 0.40881 0.77335 0.0
C95 C 0.841 0.36723 0.7909 0.0
C96 C 0.89715 0.56898 0.73063 0.0
O97 O 0.89623 0.36667 0.79951 0.0
C98 C 0.02039 0.53471 0.81017 0.0
O99 O 0.91999 0.39949 0.74011 0.0
O100 O 0.99381 0.41985 0.77277 0.0
O101 O 0.88802 0.59165 0.75905 0.0
O102 O 0.91125 0.51403 0.72877 0.0
C103 C 0.89854 0.48727 0.86049 0.0
O104 O 1.00475 0.48451 0.82241 0.0
O105 O 0.98142 0.56896 0.79668 0.0
C106 C 0.97376 0.3892 0.74949 0.0
O107 O 0.90529 0.43844 0.84544 0.0
O108 O 0.90551 0.53837 0.84607 0.0
C109 C 0.78101 0.53815 0.78322 0.0
Fe110 Fe 0.84956 0.69747 0.55866 0.0
Fe111 Fe 0.72067 0.64844 0.55139 0.0
O112 O 0.79647 0.6529 0.53777 0.0
Fe113 Fe 0.8187 0.61584 0.50144 0.0
O114 O 0.87098 0.56984 0.52325 0.0
O115 O 0.91308 0.64601 0.54936 0.0
O116 O 0.84126 0.65485 0.59534 0.0
C117 C 0.79243 0.64798 0.61042 0.0
C118 C 0.89054 0.72369 0.49939 0.0
O119 O 0.74132 0.65506 0.59606 0.0
C120 C 0.7108 0.64704 0.48063 0.0
O121 O 0.79516 0.75438 0.57239 0.0
O122 O 0.71076 0.73115 0.54669 0.0
O123 O 0.88029 0.66995 0.49 0.0
O124 O 0.85982 0.74364 0.52268 0.0
C125 C 0.74159 0.53078 0.53321 0.0
O126 O 0.6881 0.63785 0.50907 0.0
O127 O 0.76575 0.66117 0.47874 0.0
C128 C 0.74499 0.77007 0.56017 0.0
O129 O 0.72701 0.56603 0.55646 0.0
O130 O 0.76501 0.55221 0.50715 0.0
C131 C 0.91256 0.59081 0.54076 0.0
Fe132 Fe 0.63157 0.47089 0.3015 0.0
Fe133 Fe 0.66425 0.569 0.25149 0.0
O134 O 0.62714 0.54671 0.28784 0.0
Fe135 Fe 0.58253 0.59975 0.30875 0.0
O136 O 0.62513 0.5914 0.3454 0.0
O137 O 0.62487 0.49147 0.34617 0.0
O138 O 0.71398 0.47724 0.30654 0.0
C139 C 0.74927 0.49188 0.28327 0.0
C140 C 0.50993 0.49519 0.31032 0.0
O141 O 0.72791 0.51535 0.25721 0.0
C142 C 0.55635 0.64081 0.24947 0.0
O143 O 0.64226 0.43838 0.2592 0.0
O144 O 0.61901 0.51606 0.22882 0.0
O145 O 0.52562 0.54532 0.32253 0.0
O146 O 0.54888 0.46099 0.29683 0.0
C147 C 0.6892 0.66283 0.29074 0.0
O148 O 0.61011 0.63057 0.24005 0.0
O149 O 0.53638 0.61007 0.2728 0.0
C150 C 0.63314 0.46111 0.23075 0.0
O151 O 0.7102 0.62129 0.27324 0.0
O152 O 0.63399 0.6633 0.29938 0.0
C153 C 0.63196 0.54255 0.3605 0.0
Fe154 Fe 0.68104 0.33254 0.05902 0.0
Fe155 Fe 0.80995 0.38158 0.05175 0.0
O156 O 0.73417 0.3772 1.03811 0.0
Fe157 Fe 0.71199 0.41444 1.00177 0.0
O158 O 0.65969 0.46033 1.02355 0.0
O159 O 0.61754 0.38403 1.04966 0.0
O160 O 0.6893 0.37503 0.09567 0.0
C161 C 0.7381 0.3819 0.11076 0.0
C162 C 0.64018 0.30657 0.99973 0.0
O163 O 0.78924 0.3748 0.09643 0.0
C164 C 0.8199 0.38327 0.981 0.0
O165 O 0.73542 0.27558 0.07281 0.0
O166 O 0.81983 0.2989 1.04709 0.0
O167 O 0.65043 0.36037 0.99034 0.0
O168 O 0.67078 0.28651 1.02307 0.0
C169 C 0.78908 0.49934 1.03353 0.0
O170 O 0.84258 0.39236 1.00944 0.0
O171 O 0.76494 0.36923 0.97909 0.0
C172 C 0.78557 0.25992 0.06058 0.0
O173 O 0.80363 0.46397 0.05679 0.0
O174 O 0.76569 0.47805 1.00747 0.0
C175 C 0.61807 0.43927 1.04103 0.0
Fe176 Fe 0.63154 0.97095 0.80174 0.0
Fe177 Fe 0.66424 0.06877 0.85171 0.0
O178 O 0.6271 0.04669 0.81538 0.0
Fe179 Fe 0.58244 0.09985 0.7945 0.0
O180 O 0.62491 0.0917 0.7578 0.0
O181 O 0.62478 0.99177 0.75708 0.0
O182 O 0.71395 0.97734 0.79668 0.0
C183 C 0.74925 0.99183 0.81994 0.0
C184 C 0.50987 0.99525 0.79295 0.0
O185 O 0.72787 0.01513 0.846 0.0
C186 C 0.5564 0.1406 0.85379 0.0
O187 O 0.64225 0.93822 0.84406 0.0
O188 O 0.61895 0.01573 0.87439 0.0
O189 O 0.52549 0.0455 0.78077 0.0
O190 O 0.54885 0.96098 0.80643 0.0
C191 C 0.68916 0.16279 0.81243 0.0
O192 O 0.61017 0.13031 0.86317 0.0
O193 O 0.53639 0.10996 0.83049 0.0
C194 C 0.63311 0.96081 0.87249 0.0
O195 O 0.71018 0.12115 0.82993 0.0
O196 O 0.63394 0.16333 0.80381 0.0
C197 C 0.63172 0.04293 0.7427 0.0
Fe198 Fe 0.6809 0.83248 1.04448 0.0
Fe199 Fe 0.80977 0.88157 0.05171 0.0
O200 O 0.73398 0.87709 0.06535 0.0
Fe201 Fe 0.71178 0.91412 0.10168 0.0
O202 O 0.65945 0.9601 0.0799 0.0
O203 O 0.61736 0.88391 0.0538 0.0
O204 O 0.68913 0.8751 1.00779 0.0
C205 C 0.73794 0.88197 0.99269 0.0
C206 C 0.63998 0.80624 0.10376 0.0
O207 O 0.78907 0.87494 1.00704 0.0
C208 C 0.81971 0.88298 0.12245 0.0
O209 O 0.7353 0.7756 1.03073 0.0
O210 O 0.81972 0.79888 0.05641 0.0
O211 O 0.65022 0.85998 0.11315 0.0
O212 O 0.67072 0.78632 0.08047 0.0
C213 C 0.78883 0.99923 0.06989 0.0
O214 O 0.84238 0.89219 0.09401 0.0
O215 O 0.76477 0.86881 0.12436 0.0
C216 C 0.78549 0.75994 1.04294 0.0
O217 O 0.80339 0.96399 1.04663 0.0
O218 O 0.76543 0.97779 0.09595 0.0
C219 C 0.61785 0.93911 0.06241 0.0
Fe220 Fe 0.89871 0.05912 0.30161 0.0
Fe221 Fe 0.86595 0.96098 0.35159 0.0
O222 O 0.90311 0.9833 0.31525 0.0
Fe223 Fe 0.94771 0.93025 0.29434 0.0
O224 O 0.90514 0.93866 0.25768 0.0
O225 O 0.90544 0.03859 0.25694 0.0
O226 O 0.81631 0.0528 0.29656 0.0
C227 C 0.78099 0.03817 0.31982 0.0
C228 C 0.02035 0.03479 0.29281 0.0
O229 O 0.80233 1.01468 0.34588 0.0
C230 C 0.97382 0.88913 0.35362 0.0
O231 O 0.88803 0.0916 0.34392 0.0
O232 O 0.91119 1.01387 0.37429 0.0
O233 O 1.00466 0.98467 0.28059 0.0
O234 O 0.98141 0.069 0.30629 0.0
C235 C 0.84099 0.86721 0.31229 0.0
O236 O 0.92005 0.89937 0.36302 0.0
O237 O 0.99382 0.91986 0.3303 0.0
C238 C 0.89713 0.06884 0.37236 0.0
O239 O 0.81999 0.90875 0.3298 0.0
O240 O 0.8962 0.86673 0.30367 0.0
C241 C 0.89836 0.98753 0.24259 0.0
Fe242 Fe 0.72062 0.14844 0.55143 0.0
Fe243 Fe 0.81855 0.11551 0.60142 0.0
O244 O 0.79639 0.1528 0.56508 0.0
Fe245 Fe 0.84955 0.19745 0.54418 0.0
O246 O 0.84128 0.155 0.50753 0.0
O247 O 0.74135 0.15523 0.50676 0.0
O248 O 0.72691 0.06606 0.54638 0.0
C249 C 0.74145 0.03067 0.56964 0.0
C250 C 0.74502 0.2701 0.54261 0.0
O251 O 0.76482 0.05193 0.59571 0.0
C252 C 0.8904 0.22335 0.6035 0.0
O253 O 0.68798 0.13768 0.59374 0.0
O254 O 0.76562 0.16071 0.62412 0.0
O255 O 0.7952 0.25444 0.53041 0.0
O256 O 0.71075 0.23112 0.55609 0.0
C257 C 0.91246 0.09068 0.56215 0.0
O258 O 0.88013 0.16954 0.61287 0.0
O259 O 0.85982 0.24345 0.58015 0.0
C260 C 0.71064 0.14676 0.62218 0.0
O261 O 0.87083 0.06961 0.57962 0.0
O262 O 0.91302 0.14592 0.55354 0.0
C263 C 0.79248 0.14815 0.49243 0.0
Fe264 Fe 0.36599 0.9613 0.25171 0.0
Fe265 Fe 0.44766 0.93026 0.30899 0.0
O266 O 0.40311 0.98342 0.28803 0.0
Fe267 Fe 0.39872 0.0592 0.30161 0.0
O268 O 0.31631 0.05288 0.30667 0.0
O269 O 0.30238 0.01499 0.25737 0.0
O270 O 0.31999 0.90899 0.2735 0.0
C271 C 0.34096 0.86736 0.29103 0.0
C272 C 0.39721 0.06918 0.23086 0.0
O273 O 0.39616 0.8668 0.29968 0.0
C274 C 0.52034 0.03478 0.31044 0.0
O275 O 0.42005 0.89974 0.24031 0.0
O276 O 0.49383 0.91993 0.27305 0.0
O277 O 0.38805 0.09186 0.25927 0.0
O278 O 0.41134 1.01425 0.22901 0.0
C279 C 0.39826 0.98736 0.36069 0.0
O280 O 0.50463 0.98462 0.32271 0.0
O281 O 0.48141 0.06906 0.29693 0.0
C282 C 0.4738 0.88942 0.2497 0.0
O283 O 0.40506 0.93856 0.34563 0.0
O284 O 0.4054 0.03848 0.3463 0.0
C285 C 0.28101 0.03835 0.28342 0.0
Fe286 Fe 0.35036 0.19756 0.05887 0.0
Fe287 Fe 0.22146 0.14866 1.05138 0.0
O288 O 0.29733 0.15311 1.03785 0.0
Fe289 Fe 0.31966 0.11616 1.00152 0.0
O290 O 0.37188 0.07007 1.02332 0.0
O291 O 0.41388 0.1461 1.04959 0.0
O292 O 0.34184 0.15479 0.09548 0.0
C293 C 0.29293 0.148 0.11051 0.0
C294 C 0.39156 0.22399 0.99964 0.0
O295 O 0.24191 0.15521 0.09608 0.0
C296 C 0.21185 0.14735 0.98062 0.0
O297 O 0.29592 0.25446 0.07257 0.0
O298 O 0.21164 0.23138 1.0467 0.0
O299 O 0.38128 0.1703 0.99019 0.0
O300 O 0.3609 0.24389 1.02297 0.0
C301 C 0.24246 0.03102 1.03316 0.0
O302 O 0.18903 0.13813 1.00903 0.0
O303 O 0.26678 0.16159 0.97882 0.0
C304 C 0.24584 0.27024 0.06026 0.0
O305 O 0.22776 0.06623 0.05642 0.0
O306 O 0.26595 0.05251 1.00714 0.0
C307 C 0.41339 0.09095 1.04091 0.0
Fe308 Fe 0.13156 0.97061 0.80174 0.0
Fe309 Fe 0.16423 0.06876 0.75176 0.0
O310 O 0.12717 0.04645 0.78812 0.0
Fe311 Fe 0.08269 0.09951 0.8091 0.0
O312 O 0.12547 0.09106 0.84568 0.0
O313 O 0.12503 0.99113 0.84642 0.0
O314 O 0.21397 0.97687 0.80673 0.0
C315 C 0.24925 0.99154 0.78347 0.0
C316 C 1.00998 0.99505 0.81066 0.0
O317 O 0.22787 0.01505 0.75742 0.0
C318 C 0.05633 0.1406 0.74982 0.0
O319 O 0.14212 0.93814 0.75942 0.0
O320 O 0.11892 0.01589 0.72909 0.0
O321 O 0.02579 0.04509 0.82293 0.0
O322 O 0.04884 0.96082 0.79712 0.0
C323 C 0.18931 0.16256 0.79102 0.0
O324 O 0.11008 0.13034 0.74038 0.0
O325 O 0.03639 0.11 0.77322 0.0
C326 C 0.13296 0.96092 0.73099 0.0
O327 O 0.21026 0.121 0.77351 0.0
O328 O 0.13413 0.16304 0.7997 0.0
C329 C 0.13239 0.04218 0.86074 0.0
Fe330 Fe 0.18001 0.83236 0.55903 0.0
Fe331 Fe 0.30894 0.88133 0.55174 0.0
O332 O 0.23316 0.87695 0.53809 0.0
Fe333 Fe 0.21101 0.91415 0.50173 0.0
O334 O 0.15869 0.96009 0.52348 0.0
O335 O 0.11654 0.88386 0.54965 0.0
O336 O 0.18831 0.87491 0.59566 0.0
C337 C 0.23713 0.88172 0.61075 0.0
C338 C 0.13916 0.80628 0.49973 0.0
O339 O 0.28824 0.87457 0.59641 0.0
C340 C 0.31894 0.88298 0.48099 0.0
O341 O 0.23439 0.77539 0.57283 0.0
O342 O 0.31879 0.79864 0.54709 0.0
O343 O 0.14946 0.86006 0.49031 0.0
O344 O 0.16968 0.78624 0.52312 0.0
C345 C 0.28807 0.99908 0.53348 0.0
O346 O 0.34159 0.89207 0.50943 0.0
O347 O 0.26398 0.86893 0.47907 0.0
C348 C 0.28452 0.75969 0.56059 0.0
O349 O 0.30263 0.96372 0.55675 0.0
O350 O 0.2647 0.97777 0.50742 0.0
C351 C 0.11707 0.93907 0.54098 0.0
C352 C 0.35237 0.4917 0.34548 0.0
C353 C 0.31615 0.48084 0.31769 0.0
H354 H 0.44162 0.50315 0.36488 0.0
C355 C 0.34537 0.46477 0.28818 0.0
H356 H 0.33203 0.5036 0.36876 0.0
C357 C 0.40922 0.46353 0.28617 0.0
C358 C 0.44489 0.47854 0.31359 0.0
H359 H 0.31909 0.45616 0.26627 0.0
H360 H 0.4305 0.45507 0.26269 0.0
C361 C 0.41552 0.49092 0.34338 0.0
C362 C 0.31619 0.65907 0.5364 0.0
C363 C 0.30108 0.69462 0.56383 0.0
H364 H 0.3236 0.56902 0.51646 0.0
C365 C 0.28858 0.66512 0.59361 0.0
H366 H 0.32475 0.68045 0.51293 0.0
C367 C 0.28777 0.60197 0.59568 0.0
C368 C 0.29873 0.56586 0.56789 0.0
H369 H 0.27627 0.69113 0.61511 0.0
H370 H 0.27578 0.58153 0.61896 0.0
C371 C 0.31492 0.59521 0.53839 0.0
C372 C 0.17788 0.53821 0.84537 0.0
C373 C 0.21413 0.54906 0.81758 0.0
H374 H 0.08861 0.52677 0.86477 0.0
C375 C 0.18494 0.56515 0.78803 0.0
H376 H 0.1982 0.52629 0.86868 0.0
C377 C 0.1211 0.5664 0.78599 0.0
C378 C 0.08541 0.55139 0.81343 0.0
H379 H 0.21126 0.57375 0.7661 0.0
H380 H 0.09986 0.57486 0.76249 0.0
C381 C 0.11473 0.53901 0.84326 0.0
C382 C 0.2417 0.36456 0.0933 0.0
C383 C 0.22924 0.33528 0.06351 0.0
H384 H 0.25445 0.44796 0.11869 0.0
C385 C 0.21417 0.37104 1.03609 0.0
H386 H 0.25398 0.33839 0.11481 0.0
C387 C 0.21541 0.43489 1.0381 0.0
C388 C 0.23155 0.46401 0.06762 0.0
H389 H 0.20565 0.34985 1.01261 0.0
H390 H 0.20675 0.46124 1.01618 0.0
C391 C 0.24248 0.4277 0.0954 0.0
C392 C 0.62103 0.56631 0.8167 0.0
C393 C 0.58538 0.55127 0.78927 0.0
H394 H 0.71115 0.57368 0.83662 0.0
C395 C 0.61476 0.53887 0.75949 0.0
H396 H 0.59973 0.57479 0.84017 0.0
C397 C 0.67791 0.5381 0.75741 0.0
C398 C 0.71412 0.54897 0.7852 0.0
H399 H 0.58868 0.52662 0.73799 0.0
H400 H 0.69827 0.52618 0.73413 0.0
C401 C 0.68488 0.56507 0.8147 0.0
C402 C 0.71335 0.37074 0.56676 0.0
C403 C 0.7284 0.33515 0.53934 0.0
H404 H 0.70597 0.46082 0.58665 0.0
C405 C 0.74084 0.36459 0.50954 0.0
H406 H 0.70484 0.34941 0.59025 0.0
C407 C 0.74164 0.42774 0.50743 0.0
C408 C 0.73075 0.46389 0.53522 0.0
H409 H 0.75311 0.33854 0.48804 0.0
H410 H 0.7536 0.44814 0.48414 0.0
C411 C 0.71461 0.43459 0.56474 0.0
C412 C 0.85238 0.492 0.25746 0.0
C413 C 0.81616 0.48103 0.28525 0.0
H414 H 0.94163 0.5035 0.23804 0.0
C415 C 0.84537 0.46479 0.31477 0.0
H416 H 0.83204 0.50402 0.23417 0.0
C417 C 0.90922 0.46351 0.31678 0.0
C418 C 0.94489 0.47864 0.28935 0.0
H419 H 0.81908 0.45609 0.33669 0.0
H420 H 0.93049 0.45493 0.34026 0.0
C421 C 0.91553 0.49117 0.25955 0.0
C422 C 0.78903 0.60255 1.00774 0.0
C423 C 0.7999 0.56622 1.03553 0.0
H424 H 0.77756 0.69188 0.98835 0.0
C425 C 0.81599 0.59532 0.06506 0.0
H426 H 0.77712 0.5823 0.98444 0.0
C427 C 0.81722 0.65916 0.06709 0.0
C428 C 0.8022 0.69494 1.03966 0.0
H429 H 0.8246 0.56895 0.08697 0.0
H430 H 0.82568 0.68034 0.09058 0.0
C431 C 0.78982 0.66569 1.00985 0.0
C432 C 0.85235 0.99185 0.84576 0.0
C433 C 0.81614 0.98099 0.81797 0.0
H434 H 0.94159 1.00322 0.86519 0.0
C435 C 0.84538 0.96484 0.78847 0.0
H436 H 0.832 1.0038 0.86903 0.0
C437 C 0.90923 0.96353 0.78648 0.0
C438 C 0.94489 0.97854 0.8139 0.0
H439 H 0.81911 0.95623 0.76655 0.0
H440 H 0.93052 0.95501 0.76301 0.0
C441 C 0.9155 0.99099 0.84369 0.0
C442 C 0.81583 0.09543 1.03838 0.0
C443 C 0.79971 0.06611 0.0679 0.0
H444 H 0.82563 0.18064 1.0129 0.0
C445 C 0.78889 0.10225 0.0957 0.0
H446 H 0.82441 0.06922 1.01646 0.0
C447 C 0.78975 0.1654 0.09362 0.0
C448 C 0.80218 0.19487 0.06382 0.0
H449 H 0.77696 0.08183 0.119 0.0
H450 H 0.77754 0.19143 0.11513 0.0
C451 C 0.81715 0.15929 1.03638 0.0
C452 C 0.61472 0.0389 0.34351 0.0
C453 C 0.58538 0.0514 0.3137 0.0
H454 H 0.69819 0.0261 0.3689 0.0
C455 C 0.62106 0.06648 0.28627 0.0
H456 H 0.5886 0.02661 0.36501 0.0
C457 C 0.68491 0.06521 0.28829 0.0
C458 C 0.71411 0.04902 0.31782 0.0
H459 H 0.5998 0.07502 0.26278 0.0
H460 H 0.71121 0.07387 0.26636 0.0
C461 C 0.67787 0.03809 0.34561 0.0
C462 C 0.74069 0.8643 0.59327 0.0
C463 C 0.7283 0.83507 0.56345 0.0
H464 H 0.7534 0.94766 0.6187 0.0
C465 C 0.71329 0.87088 0.53604 0.0
H466 H 0.75293 0.83809 0.61477 0.0
C467 C 0.71454 0.93471 0.53808 0.0
C468 C 0.73062 0.96379 0.56762 0.0
H469 H 0.70484 0.84972 0.51254 0.0
H470 H 0.70593 0.96111 0.51617 0.0
C471 C 0.74148 0.92743 0.5954 0.0
C472 C 0.12106 0.06646 0.31695 0.0
C473 C 0.08538 0.05145 0.28953 0.0
H474 H 0.2112 0.07382 0.33684 0.0
C475 C 0.11474 0.03909 0.25973 0.0
H476 H 0.09979 0.0749 0.34043 0.0
C477 C 0.17789 0.03832 0.25763 0.0
C478 C 0.21412 0.04916 0.28541 0.0
H479 H 0.08863 0.02687 0.23824 0.0
H480 H 0.19822 0.02643 0.23434 0.0
C481 C 0.18491 0.06523 0.31493 0.0
C482 C 0.21532 0.93477 0.0646 0.0
C483 C 0.23169 0.96412 1.03513 0.0
H484 H 0.20538 0.84956 0.09006 0.0
C485 C 0.24287 0.928 1.00736 0.0
H486 H 0.20646 0.96098 0.0865 0.0
C487 C 0.24211 0.86485 1.00945 0.0
C488 C 0.22941 0.83536 1.03921 0.0
H489 H 0.25501 0.94843 0.98411 0.0
H490 H 0.25458 0.83884 0.98797 0.0
C491 C 0.21409 0.87092 0.0666 0.0
C492 C 0.41555 0.9911 0.75984 0.0
C493 C 0.44487 0.97852 0.78965 0.0
H494 H 0.3321 1.00392 0.73442 0.0
C495 C 0.40916 0.96328 0.81704 0.0
H496 H 0.44169 1.00352 0.73836 0.0
C497 C 0.34532 0.96447 0.81499 0.0
C498 C 0.31614 0.98075 0.78547 0.0
H499 H 0.4304 0.95467 0.84053 0.0
H500 H 0.319 0.95569 0.83689 0.0
C501 C 0.35241 0.99184 0.75771 0.0
C502 C 0.31625 0.15893 0.56699 0.0
C503 C 0.30116 0.19468 0.53957 0.0
H504 H 0.32368 0.06873 0.5869 0.0
C505 C 0.28871 0.16541 0.50977 0.0
H506 H 0.32476 0.18012 0.59047 0.0
C507 C 0.28794 0.10227 0.50768 0.0
C508 C 0.29887 0.06596 0.53546 0.0
H509 H 0.27641 0.19159 0.48828 0.0
H510 H 0.27597 0.08201 0.48439 0.0
C511 C 0.31502 0.09509 0.56498 0.0
C512 C 0.29041 0.71045 0.31204 0.0
C513 C 0.22788 0.71483 0.30607 0.0
H514 H 0.37558 0.75594 0.31212 0.0
C515 C 0.20279 0.76959 0.29551 0.0
H516 H 0.31086 0.66837 0.32006 0.0
C517 C 0.23981 0.81958 0.29112 0.0
C518 C 0.30235 0.8152 0.29709 0.0
H519 H 0.15465 0.77409 0.29104 0.0
H520 H 0.21937 0.86166 0.2831 0.0
C521 C 0.32744 0.76044 0.30766 0.0
C522 C 0.06919 0.54009 0.56219 0.0
C523 C 0.06485 0.47758 0.55621 0.0
H524 H 0.02376 0.62529 0.56215 0.0
C525 C 1.01021 0.45257 0.54548 0.0
H526 H 0.11118 0.56049 0.57034 0.0
C527 C 0.96031 0.48965 0.54094 0.0
C528 C 0.96465 0.55216 0.54692 0.0
H529 H 1.00574 0.40445 0.54099 0.0
H530 H 0.91832 0.46925 0.5328 0.0
C531 C 0.01929 0.57717 0.55766 0.0
C532 C 0.23987 0.31924 0.81226 0.0
C533 C 0.30237 0.31502 0.80615 0.0
H534 H 0.15474 0.27367 0.81241 0.0
C535 C 0.32743 0.26043 0.7954 0.0
H536 H 0.21943 0.36118 0.82042 0.0
C537 C 0.29041 0.21047 0.79097 0.0
C538 C 0.22791 0.21469 0.79707 0.0
H539 H 0.37554 0.25604 0.79081 0.0
H540 H 0.31085 0.16853 0.7828 0.0
C541 C 0.20286 0.26928 0.80782 0.0
C542 C 0.51121 0.45272 0.0577 0.0
C543 C 0.56591 0.47783 1.04708 0.0
H544 H 0.41919 0.46924 0.07015 0.0
C545 C 0.57022 0.54037 1.04106 0.0
H546 H 0.50676 0.40457 0.06222 0.0
C547 C 0.52024 0.57737 1.04544 0.0
C548 C 0.46553 0.55225 0.05606 0.0
H549 H 0.61225 0.56085 1.033 0.0
H550 H 0.52469 0.62551 1.04092 0.0
C551 C 0.46122 0.48971 0.06209 0.0
C552 C 0.7398 0.31955 0.79116 0.0
C553 C 0.80235 0.31514 0.79708 0.0
H554 H 0.65457 0.27416 0.79123 0.0
C555 C 0.8274 0.26043 0.80773 0.0
H556 H 0.71937 0.36161 0.78308 0.0
C557 C 0.79033 0.21051 0.81224 0.0
C558 C 0.72778 0.21491 0.80631 0.0
H559 H 0.87555 0.2559 0.81217 0.0
H560 H 0.81076 0.16846 0.82032 0.0
C561 C 0.70272 0.26964 0.79567 0.0
C562 C 0.8274 0.76055 0.29537 0.0
C563 C 0.80236 0.81513 0.30615 0.0
H564 H 0.81077 0.66872 0.28266 0.0
C565 C 0.73983 0.81941 0.31217 0.0
H566 H 0.87552 0.75613 0.29084 0.0
C567 C 0.70277 0.76951 0.30764 0.0
C568 C 0.72782 0.71493 0.29686 0.0
H569 H 0.71941 0.86135 0.32035 0.0
H570 H 0.65465 0.77393 0.31216 0.0
C571 C 0.79034 0.71066 0.29084 0.0
C572 C 0.51108 0.95272 1.04556 0.0
C573 C 0.56572 0.97773 0.05629 0.0
H574 H 0.41918 0.96939 1.03289 0.0
C575 C 0.57003 0.04024 0.06231 0.0
H576 H 0.50663 0.9046 1.04104 0.0
C577 C 0.52011 0.0773 0.0578 0.0
C578 C 0.46548 0.05229 1.04706 0.0
H579 H 0.61201 0.06064 0.07046 0.0
H580 H 0.52457 0.12541 0.06232 0.0
C581 C 0.46116 0.98979 1.04104 0.0
C582 C 1.01022 0.95254 0.55765 0.0
C583 C 0.06492 0.97765 0.54702 0.0
H584 H 0.91824 0.96908 0.57014 0.0
C585 C 0.06925 0.04019 0.54101 0.0
H586 H 1.00576 0.90439 0.56215 0.0
C587 C 0.01929 0.0772 0.54543 0.0
C588 C 0.9646 0.05209 0.55608 0.0
H589 H 0.11128 0.06066 0.53294 0.0
H590 H 0.02376 0.12535 0.54093 0.0
C591 C 0.96026 0.98955 0.56207 0.0
C592 C 0.16985 0.37468 0.40844 0.0
C593 C 0.16804 0.43649 0.40064 0.0
H594 H 0.19568 0.30799 0.44427 0.0
C595 C 0.20183 0.47703 0.42024 0.0
H596 H 0.14521 0.34228 0.39367 0.0
C597 C 0.23285 0.45716 0.44813 0.0
C598 C 0.23046 0.39634 0.45749 0.0
H599 H 0.20298 0.52494 0.41458 0.0
H600 H 0.2541 0.49032 0.46395 0.0
C601 C 0.19994 0.35496 0.43695 0.0
C602 C 0.42468 0.45067 0.68661 0.0
C603 C 0.38325 0.48073 0.70733 0.0
H604 H 0.43737 0.3961 0.64331 0.0
C605 C 0.32227 0.48235 0.69829 0.0
H606 H 0.47181 0.44697 0.69369 0.0
C607 C 0.30235 0.45107 0.67055 0.0
C608 C 0.34299 0.41775 0.65076 0.0
H609 H 0.2891 0.50322 0.71427 0.0
H610 H 0.25435 0.45168 0.66514 0.0
C611 C 0.4049 0.42032 0.65824 0.0
C612 C 0.36052 0.65511 0.90813 0.0
C613 C 0.36229 0.59328 0.90049 0.0
H614 H 0.33473 0.72192 0.94378 0.0
C615 C 0.32849 0.55281 0.92021 0.0
H616 H 0.38515 0.68745 0.89326 0.0
C617 C 0.29749 0.57278 0.94806 0.0
C618 C 0.2999 0.63363 0.95725 0.0
H619 H 0.32731 0.50489 0.91468 0.0
H620 H 0.27622 0.53968 0.96397 0.0
C621 C 0.33044 0.67493 0.93659 0.0
C622 C 0.22767 0.57822 0.17026 0.0
C623 C 0.18721 0.61201 0.15054 0.0
H624 H 0.24076 0.52588 0.21403 0.0
C625 C 0.12536 0.61013 0.15819 0.0
H626 H 0.27561 0.57711 0.16471 0.0
C627 C 0.10551 0.57998 0.18667 0.0
C628 C 0.1468 0.54944 0.20732 0.0
H629 H 0.09302 0.63475 0.14332 0.0
H630 H 0.05849 0.58418 0.19387 0.0
C631 C 0.20767 0.54714 0.19811 0.0
C632 C 0.79717 0.57239 0.65474 0.0
C633 C 0.79907 0.6333 0.64551 0.0
H634 H 0.8276 0.50457 0.68811 0.0
C635 C 0.82936 0.67474 0.66612 0.0
H636 H 0.77611 0.53921 0.63886 0.0
C637 C 0.85968 0.65502 0.69456 0.0
C638 C 0.86197 0.59316 0.70222 0.0
H639 H 0.83326 0.7218 0.6589 0.0
H640 H 0.8841 0.68749 0.70939 0.0
C641 C 0.82841 0.55253 0.68256 0.0
C642 C 0.60514 0.5794 0.4162 0.0
C643 C 0.64662 0.54914 0.39558 0.0
H644 H 0.59232 0.63406 0.45945 0.0
C645 C 0.7075 0.5472 0.40479 0.0
H646 H 0.5581 0.58332 0.40899 0.0
C647 C 0.72732 0.57839 0.43259 0.0
C648 C 0.68666 0.61192 0.45225 0.0
H649 H 0.74072 0.52617 0.3889 0.0
H650 H 0.77527 0.57757 0.43812 0.0
C651 C 0.62481 0.60966 0.44462 0.0
C652 C 0.70125 0.3553 0.16655 0.0
C653 C 0.7314 0.39674 0.1458 0.0
H654 H 0.64656 0.34256 0.20986 0.0
C655 C 0.73304 0.45771 0.15482 0.0
H656 H 0.69753 0.30819 0.15948 0.0
C657 C 0.7017 0.47759 0.18257 0.0
C658 C 0.66831 0.43694 0.20238 0.0
H659 H 0.75397 0.49089 0.13883 0.0
H660 H 0.70234 0.52558 0.18796 0.0
C661 C 0.67084 0.37505 0.19492 0.0
C662 C 0.92557 0.4498 0.91611 0.0
C663 C 0.8842 0.48064 0.89563 0.0
H664 H 0.93827 0.39486 0.95938 0.0
C665 C 0.82349 0.48343 0.9051 0.0
H666 H 0.97245 0.44526 0.90871 0.0
C667 C 0.80367 0.45248 0.93304 0.0
C668 C 0.84416 0.41835 0.95257 0.0
H669 H 0.79034 0.50495 0.88933 0.0
H670 H 0.75582 0.45391 0.93878 0.0
C671 C 0.90591 0.41977 0.94467 0.0
C672 C 0.70207 0.97725 0.92046 0.0
C673 C 0.66835 0.93663 0.90087 0.0
H674 H 0.7545 0.99062 0.96411 0.0
C675 C 0.6705 0.8748 0.9086 0.0
H676 H 0.70299 0.02518 0.91485 0.0
C677 C 0.70082 0.85512 0.93705 0.0
C678 C 0.73126 0.89657 0.95759 0.0
H679 H 0.64594 0.84234 0.89384 0.0
H680 H 0.69681 0.8081 0.94433 0.0
C681 C 0.73333 0.95742 0.94828 0.0
C682 C 0.90567 0.92042 0.15848 0.0
C683 C 0.84383 0.91816 0.15082 0.0
H684 H 0.97234 0.94676 0.19413 0.0
C685 C 0.80315 0.95171 0.17046 0.0
H686 H 0.93817 0.896 0.14367 0.0
C687 C 0.82293 0.98292 0.19826 0.0
C688 C 0.88381 0.98097 0.20749 0.0
H689 H 0.75521 0.95254 0.16491 0.0
H690 H 0.78969 1.00396 0.21413 0.0
C691 C 0.9253 0.9507 0.1869 0.0
C692 C 0.79732 0.07242 0.44832 0.0
C693 C 0.79918 0.13336 0.45738 0.0
H694 H 0.82775 1.00451 0.41512 0.0
C695 C 0.82945 0.17474 0.43665 0.0
H696 H 0.77628 0.03928 0.4643 0.0
C697 C 0.85975 0.15495 0.40825 0.0
C698 C 0.86206 0.09307 0.40076 0.0
H699 H 0.83334 0.22183 0.44374 0.0
H700 H 0.88414 0.18739 0.39332 0.0
C701 C 0.82855 0.05249 0.42055 0.0
C702 C 0.72665 0.07743 0.67011 0.0
C703 C 0.68628 0.11177 0.65062 0.0
H704 H 0.73982 0.02486 0.7138 0.0
C705 C 0.62454 0.11067 0.65856 0.0
H706 H 0.77448 0.07577 0.66434 0.0
C707 C 0.60481 0.08073 0.68713 0.0
C708 C 0.64606 0.04965 0.70757 0.0
H709 H 0.59228 0.13575 0.64388 0.0
H710 H 0.55796 0.08549 0.69456 0.0
C711 C 0.70674 0.04656 0.69806 0.0
C712 C 0.29757 0.07244 0.15484 0.0
C713 C 0.2994 0.13335 0.14561 0.0
H714 H 0.32796 1.00468 0.18825 0.0
C715 C 0.32948 0.17485 0.16627 0.0
H716 H 0.27667 0.03921 0.13892 0.0
C717 C 0.35969 0.15519 0.19476 0.0
C718 C 0.36208 0.09333 0.20242 0.0
H719 H 0.33332 0.22191 0.15906 0.0
H720 H 0.38397 0.1877 0.20963 0.0
C721 C 0.32869 0.05264 0.18271 0.0
C722 C 0.2288 0.08004 0.93204 0.0
C723 C 0.18786 0.11223 0.95218 0.0
H724 H 0.24228 0.02858 0.88812 0.0
C725 C 0.12585 0.10827 0.9451 0.0
H726 H 0.27693 0.08045 0.93713 0.0
C727 C 0.10613 0.07768 0.91678 0.0
C728 C 0.14777 0.04873 0.89573 0.0
H729 H 0.09315 0.13155 0.96031 0.0
H730 H 0.05877 0.08034 0.91001 0.0
C731 C 0.20898 0.04852 0.90436 0.0
C732 C 0.17006 0.87483 0.69499 0.0
C733 C 0.16791 0.93669 0.70255 0.0
H734 H 0.19621 0.80801 0.65942 0.0
C735 C 0.2014 0.97727 0.68275 0.0
H736 H 0.14567 0.8424 0.70992 0.0
C737 C 0.23248 0.95737 0.65492 0.0
C738 C 0.23048 0.89646 0.64582 0.0
H739 H 0.20231 0.02523 0.68821 0.0
H740 H 0.25351 0.99053 0.63895 0.0
C741 C 0.20021 0.85507 0.66654 0.0
C742 C 0.42489 0.95019 0.41642 0.0
C743 C 0.38356 0.98069 0.39578 0.0
H744 H 0.43747 0.8954 0.45975 0.0
C745 C 0.32269 0.98294 0.405 0.0
H746 H 0.47191 0.94604 0.40921 0.0
C747 C 0.30274 0.95183 0.43286 0.0
C748 C 0.34324 0.91806 0.45256 0.0
H749 H 0.28957 1.00418 0.3891 0.0
H750 H 0.2548 0.95289 0.43841 0.0
C751 C 0.40509 0.92 0.4449 0.0
C752 C 0.02325 0.73468 0.32574 0.0
C753 C 0.03372 0.70353 0.35525 0.0
H754 H 1.0009 0.81752 0.30234 0.0
C755 C 0.02538 0.73431 0.38492 0.0
H756 H 0.02907 0.71263 0.30226 0.0
C757 C 1.00513 0.79505 0.38497 0.0
C758 C 0.99648 0.82608 0.35535 0.0
H759 H 0.03375 0.71064 0.40766 0.0
H760 H 0.99702 0.81853 0.40775 0.0
C761 C 1.0068 0.79523 0.32579 0.0
C762 C 0.045 0.27471 0.63503 0.0
C763 C 0.07598 0.28329 0.6054 0.0
H764 H 0.96063 0.24615 0.65774 0.0
C765 C 0.04505 0.27297 0.57585 0.0
H766 H 0.06852 0.28288 0.6578 0.0
C767 C 0.98449 0.25653 0.57581 0.0
C768 C 0.95342 0.24605 0.60532 0.0
H769 H 0.06727 0.27889 0.5524 0.0
H770 H 0.96237 0.25073 0.55233 0.0
C771 C 0.98426 0.25445 0.63499 0.0
C772 C 0.50652 0.29502 0.82583 0.0
C773 C 0.49654 0.3262 0.85531 0.0
H774 H 0.5285 0.21215 0.80249 0.0
C775 C 0.50554 0.29551 0.88501 0.0
H776 H 0.5004 0.31706 0.80232 0.0
C777 C 0.52578 0.23477 0.88509 0.0
C778 C 0.53375 0.20364 0.8555 0.0
H779 H 0.49773 0.31927 0.90773 0.0
H780 H 0.53443 0.21138 0.90789 0.0
C781 C 0.52294 0.23445 0.82593 0.0
C782 C 0.54627 0.77275 0.07586 0.0
C783 C 0.57694 0.78357 0.10544 0.0
H784 H 0.4638 0.75017 0.05223 0.0
C785 C 0.54565 0.7756 0.13502 0.0
H786 H 0.5687 0.77833 0.05244 0.0
C787 C 0.48491 0.75534 0.13493 0.0
C788 C 0.45438 0.74632 0.10522 0.0
H789 H 0.56894 0.78426 0.15781 0.0
H790 H 0.46105 0.74752 0.15765 0.0
C791 C 0.48571 0.7563 0.07574 0.0
C792 C 0.02355 0.23474 0.77745 0.0
C793 C 0.03361 0.2036 0.74796 0.0
H794 H 1.00148 0.31758 0.80079 0.0
C795 C 0.02473 0.23433 0.71826 0.0
H796 H 0.02965 0.21268 0.80095 0.0
C797 C 1.00449 0.29508 0.71818 0.0
C798 C 0.9964 0.32616 0.74778 0.0
H799 H 0.03265 0.21063 0.69554 0.0
H800 H 0.99594 0.31851 0.69539 0.0
C801 C 1.00711 0.2953 0.77735 0.0
C802 C 0.98432 0.75705 0.52725 0.0
C803 C 0.95359 0.74635 0.49768 0.0
H804 H 0.06685 0.77954 0.55085 0.0
C805 C 0.9848 0.75443 0.46809 0.0
H806 H 0.96194 0.7514 0.55069 0.0
C807 C 0.04555 0.77469 0.46817 0.0
C808 C 0.07615 0.78358 0.49786 0.0
H809 H 0.96145 0.74587 0.44531 0.0
H810 H 0.06935 0.7826 0.44543 0.0
C811 C 0.04489 0.77349 0.52735 0.0
C812 C 0.52515 0.73493 0.21813 0.0
C813 C 0.53368 0.70385 0.24774 0.0
H814 H 0.49663 0.81938 0.19545 0.0
C815 C 0.52329 0.73466 0.2773 0.0
H816 H 0.53334 0.71149 0.19535 0.0
C817 C 0.50687 0.79523 0.27736 0.0
C818 C 0.49649 0.82641 0.24786 0.0
H819 H 0.52913 0.71234 0.30076 0.0
H820 H 0.501 0.81725 0.30085 0.0
C821 C 0.50492 0.79568 0.21819 0.0
C822 C 0.48551 0.25532 0.96825 0.0
C823 C 0.4546 0.24667 0.99788 0.0
H824 H 0.56984 0.28392 0.94551 0.0
C825 C 0.48558 0.25687 1.02742 0.0
H826 H 0.46194 0.24722 0.94548 0.0
C827 C 0.54615 0.27331 1.02744 0.0
C828 C 0.57716 0.28387 0.99792 0.0
H829 H 0.4634 0.25087 1.05089 0.0
H830 H 0.56831 0.27904 1.05092 0.0
C831 C 0.54626 0.27556 0.96826 0.0
loop_
_geom_bond_atom_site_label_1
_geom_bond_atom_site_label_2
_geom_bond_distance
_geom_bond_site_symmetry_2
_ccdc_geom_bond_type
Fe0 O2 1.918 . S
Fe0 O5 1.997 . S
Fe0 O6 2.002 . S
Fe0 O11 1.976 . S
Fe0 O14 1.996 . S
Fe1 O2 1.918 . S
Fe1 O9 1.997 . S
Fe1 O12 1.996 . S
Fe1 O16 1.976 . S
Fe1 O19 2.002 . S
O2 Fe0 1.918 . S
O2 Fe1 1.918 . S
O2 Fe3 1.918 . S
Fe3 O2 1.918 . S
Fe3 O4 2.002 . S
Fe3 O13 1.976 . S
Fe3 O17 1.996 . S
Fe3 O20 1.997 . S
O4 Fe3 2.002 . S
O4 C21 1.295 . S
O5 Fe0 1.997 . S
O5 C21 1.235 . S
O6 Fe0 2.002 . S
O6 C7 1.295 . S
C7 O6 1.295 . S
C7 O9 1.235 . S
C8 O13 1.287 . S
C8 O14 1.255 . S
O9 Fe1 1.997 . S
O9 C7 1.235 . S
C10 O16 1.287 . S
C10 O17 1.255 . S
O11 Fe0 1.976 . S
O11 C18 1.287 . S
O12 Fe1 1.996 . S
O12 C18 1.255 . S
O13 Fe3 1.976 . S
O13 C8 1.287 . S
O14 Fe0 1.996 . S
O14 C8 1.255 . S
C15 O19 1.295 . S
C15 O20 1.235 . S
O16 Fe1 1.976 . S
O16 C10 1.287 . S
O17 Fe3 1.996 . S
O17 C10 1.255 . S
C18 O11 1.287 . S
C18 O12 1.255 . S
O19 Fe1 2.002 . S
O19 C15 1.295 . S
O20 Fe3 1.997 . S
O20 C15 1.235 . S
C21 O4 1.295 . S
C21 O5 1.235 . S
Fe22 O24 1.918 . S
Fe22 O27 1.997 . S
Fe22 O28 2.002 . S
Fe22 O33 1.976 . S
Fe22 O36 1.996 . S
Fe23 O24 1.918 . S
Fe23 O31 1.997 . S
Fe23 O34 1.996 . S
Fe23 O38 1.976 . S
Fe23 O41 2.002 . S
O24 Fe22 1.918 . S
O24 Fe23 1.918 . S
O24 Fe25 1.918 . S
Fe25 O24 1.918 . S
Fe25 O26 2.002 . S
Fe25 O35 1.976 . S
Fe25 O39 1.996 . S
Fe25 O42 1.997 . S
O26 Fe25 2.002 . S
O26 C43 1.295 . S
O27 Fe22 1.997 . S
O27 C43 1.235 . S
O28 Fe22 2.002 . S
O28 C29 1.295 . S
C29 O28 1.295 . S
C29 O31 1.235 . S
C30 O35 1.287 . S
C30 O36 1.255 . S
O31 Fe23 1.997 . S
O31 C29 1.235 . S
C32 O38 1.287 . S
C32 O39 1.255 . S
O33 Fe22 1.976 . S
O33 C40 1.287 . S
O34 Fe23 1.996 . S
O34 C40 1.255 . S
O35 Fe25 1.976 . S
O35 C30 1.287 . S
O36 Fe22 1.996 . S
O36 C30 1.255 . S
C37 O41 1.295 . S
C37 O42 1.235 . S
O38 Fe23 1.976 . S
O38 C32 1.287 . S
O39 Fe25 1.996 . S
O39 C32 1.255 . S
C40 O33 1.287 . S
C40 O34 1.255 . S
O41 Fe23 2.002 . S
O41 C37 1.295 . S
O42 Fe25 1.997 . S
O42 C37 1.235 . S
C43 O26 1.295 . S
C43 O27 1.235 . S
Fe44 O46 1.918 . S
Fe44 O49 1.997 . S
Fe44 O50 2.002 . S
Fe44 O55 1.976 . S
Fe44 O58 1.996 . S
Fe45 O46 1.918 . S
Fe45 O53 1.997 . S
Fe45 O56 1.996 . S
Fe45 O60 1.976 . S
Fe45 O63 2.002 . S
O46 Fe44 1.918 . S
O46 Fe45 1.918 . S
O46 Fe47 1.918 . S
Fe47 O46 1.918 . S
Fe47 O48 2.002 . S
Fe47 O57 1.976 . S
Fe47 O61 1.996 . S
Fe47 O64 1.997 . S
O48 Fe47 2.002 . S
O48 C65 1.295 . S
O49 Fe44 1.997 . S
O49 C65 1.235 . S
O50 Fe44 2.002 . S
O50 C51 1.295 . S
C51 O50 1.295 . S
C51 O53 1.235 . S
C52 O57 1.287 . S
C52 O58 1.255 . S
O53 Fe45 1.997 . S
O53 C51 1.235 . S
C54 O60 1.287 . S
C54 O61 1.255 . S
O55 Fe44 1.976 . S
O55 C62 1.287 . S
O56 Fe45 1.996 . S
O56 C62 1.255 . S
O57 Fe47 1.976 . S
O57 C52 1.287 . S
O58 Fe44 1.996 . S
O58 C52 1.255 . S
C59 O63 1.295 . S
C59 O64 1.235 . S
O60 Fe45 1.976 . S
O60 C54 1.287 . S
O61 Fe47 1.996 . S
O61 C54 1.255 . S
C62 O55 1.287 . S
C62 O56 1.255 . S
O63 Fe45 2.002 . S
O63 C59 1.295 . S
O64 Fe47 1.997 . S
O64 C59 1.235 . S
C65 O48 1.295 . S
C65 O49 1.235 . S
Fe66 O68 1.918 . S
Fe66 O71 1.997 1_554 S
Fe66 O72 2.002 . S
Fe66 O77 1.976 . S
Fe66 O80 1.995 . S
Fe67 O68 1.918 . S
Fe67 O75 1.997 . S
Fe67 O78 1.996 . S
Fe67 O82 1.976 . S
Fe67 O85 2.002 . S
O68 Fe66 1.918 . S
O68 Fe67 1.918 . S
O68 Fe69 1.918 1_554 S
Fe69 O68 1.918 1_556 S
Fe69 O70 2.002 . S
Fe69 O79 1.976 . S
Fe69 O83 1.996 1_556 S
Fe69 O86 1.997 . S
O70 Fe69 2.002 . S
O70 C87 1.295 . S
O71 Fe66 1.997 1_556 S
O71 C87 1.235 . S
O72 Fe66 2.002 . S
O72 C73 1.295 . S
C73 O72 1.295 . S
C73 O75 1.235 . S
C74 O79 1.287 . S
C74 O80 1.255 1_556 S
O75 Fe67 1.997 . S
O75 C73 1.235 . S
C76 O82 1.287 . S
C76 O83 1.255 . S
O77 Fe66 1.976 . S
O77 C84 1.287 . S
O78 Fe67 1.996 . S
O78 C84 1.255 . S
O79 Fe69 1.976 . S
O79 C74 1.287 . S
O80 Fe66 1.995 . S
O80 C74 1.255 1_554 S
C81 O85 1.295 1_556 S
C81 O86 1.235 . S
O82 Fe67 1.976 . S
O82 C76 1.287 . S
O83 Fe69 1.996 1_554 S
O83 C76 1.255 . S
C84 O77 1.287 . S
C84 O78 1.255 . S
O85 Fe67 2.002 . S
O85 C81 1.295 1_554 S
O86 Fe69 1.997 . S
O86 C81 1.235 . S
C87 O70 1.295 . S
C87 O71 1.235 . S
Fe88 O90 1.918 . S
Fe88 O93 1.997 . S
Fe88 O94 2.002 . S
Fe88 O99 1.976 . S
Fe88 O102 1.996 . S
Fe89 O90 1.918 . S
Fe89 O97 1.997 . S
Fe89 O100 1.996 . S
Fe89 O104 1.976 . S
Fe89 O107 2.002 . S
O90 Fe88 1.918 . S
O90 Fe89 1.918 . S
O90 Fe91 1.918 . S
Fe91 O90 1.918 . S
Fe91 O92 2.002 . S
Fe91 O101 1.976 . S
Fe91 O105 1.996 . S
Fe91 O108 1.997 . S
O92 Fe91 2.002 . S
O92 C109 1.295 . S
O93 Fe88 1.997 . S
O93 C109 1.235 . S
O94 Fe88 2.002 . S
O94 C95 1.295 . S
C95 O94 1.295 . S
C95 O97 1.235 . S
C96 O101 1.287 . S
C96 O102 1.255 . S
O97 Fe89 1.997 . S
O97 C95 1.235 . S
C98 O104 1.287 . S
C98 O105 1.255 . S
O99 Fe88 1.976 . S
O99 C106 1.287 . S
O100 Fe89 1.996 . S
O100 C106 1.255 . S
O101 Fe91 1.976 . S
O101 C96 1.287 . S
O102 Fe88 1.996 . S
O102 C96 1.255 . S
C103 O107 1.295 . S
C103 O108 1.235 . S
O104 Fe89 1.976 . S
O104 C98 1.287 . S
O105 Fe91 1.996 . S
O105 C98 1.255 . S
C106 O99 1.287 . S
C106 O100 1.255 . S
O107 Fe89 2.002 . S
O107 C103 1.295 . S
O108 Fe91 1.997 . S
O108 C103 1.235 . S
C109 O92 1.295 . S
C109 O93 1.235 . S
Fe110 O112 1.918 . S
Fe110 O115 1.997 . S
Fe110 O116 2.002 . S
Fe110 O121 1.976 . S
Fe110 O124 1.996 . S
Fe111 O112 1.918 . S
Fe111 O119 1.997 . S
Fe111 O122 1.996 . S
Fe111 O126 1.976 . S
Fe111 O129 2.002 . S
O112 Fe110 1.918 . S
O112 Fe111 1.918 . S
O112 Fe113 1.918 . S
Fe113 O112 1.918 . S
Fe113 O114 2.002 . S
Fe113 O123 1.976 . S
Fe113 O127 1.996 . S
Fe113 O130 1.997 . S
O114 Fe113 2.002 . S
O114 C131 1.295 . S
O115 Fe110 1.997 . S
O115 C131 1.235 . S
O116 Fe110 2.002 . S
O116 C117 1.295 . S
C117 O116 1.295 . S
C117 O119 1.235 . S
C118 O123 1.287 . S
C118 O124 1.255 . S
O119 Fe111 1.997 . S
O119 C117 1.235 . S
C120 O126 1.287 . S
C120 O127 1.255 . S
O121 Fe110 1.976 . S
O121 C128 1.287 . S
O122 Fe111 1.996 . S
O122 C128 1.255 . S
O123 Fe113 1.976 . S
O123 C118 1.287 . S
O124 Fe110 1.996 . S
O124 C118 1.255 . S
C125 O129 1.295 . S
C125 O130 1.235 . S
O126 Fe111 1.976 . S
O126 C120 1.287 . S
O127 Fe113 1.996 . S
O127 C120 1.255 . S
C128 O121 1.287 . S
C128 O122 1.255 . S
O129 Fe111 2.002 . S
O129 C125 1.295 . S
O130 Fe113 1.997 . S
O130 C125 1.235 . S
C131 O114 1.295 . S
C131 O115 1.235 . S
Fe132 O134 1.918 . S
Fe132 O137 1.997 . S
Fe132 O138 2.002 . S
Fe132 O143 1.976 . S
Fe132 O146 1.996 . S
Fe133 O134 1.918 . S
Fe133 O141 1.997 . S
Fe133 O144 1.996 . S
Fe133 O148 1.976 . S
Fe133 O151 2.002 . S
O134 Fe132 1.918 . S
O134 Fe133 1.918 . S
O134 Fe135 1.918 . S
Fe135 O134 1.918 . S
Fe135 O136 2.002 . S
Fe135 O145 1.976 . S
Fe135 O149 1.996 . S
Fe135 O152 1.997 . S
O136 Fe135 2.002 . S
O136 C153 1.295 . S
O137 Fe132 1.997 . S
O137 C153 1.235 . S
O138 Fe132 2.002 . S
O138 C139 1.295 . S
C139 O138 1.295 . S
C139 O141 1.235 . S
C140 O145 1.287 . S
C140 O146 1.255 . S
O141 Fe133 1.997 . S
O141 C139 1.235 . S
C142 O148 1.287 . S
C142 O149 1.255 . S
O143 Fe132 1.976 . S
O143 C150 1.287 . S
O144 Fe133 1.996 . S
O144 C150 1.255 . S
O145 Fe135 1.976 . S
O145 C140 1.287 . S
O146 Fe132 1.996 . S
O146 C140 1.255 . S
C147 O151 1.295 . S
C147 O152 1.235 . S
O148 Fe133 1.976 . S
O148 C142 1.287 . S
O149 Fe135 1.996 . S
O149 C142 1.255 . S
C150 O143 1.287 . S
C150 O144 1.255 . S
O151 Fe133 2.002 . S
O151 C147 1.295 . S
O152 Fe135 1.997 . S
O152 C147 1.235 . S
C153 O136 1.295 . S
C153 O137 1.235 . S
Fe154 O156 1.918 1_554 S
Fe154 O159 1.997 . S
Fe154 O160 2.002 . S
Fe154 O165 1.976 . S
Fe154 O168 1.996 1_554 S
Fe155 O156 1.918 . S
Fe155 O163 1.997 1_556 S
Fe155 O166 1.995 . S
Fe155 O170 1.976 . S
Fe155 O173 2.002 . S
O156 Fe154 1.918 1_556 S
O156 Fe155 1.918 . S
O156 Fe157 1.918 . S
Fe157 O156 1.918 . S
Fe157 O158 2.002 . S
Fe157 O167 1.976 . S
Fe157 O171 1.996 . S
Fe157 O174 1.997 . S
O158 Fe157 2.002 . S
O158 C175 1.295 1_556 S
O159 Fe154 1.997 . S
O159 C175 1.235 . S
O160 Fe154 2.002 . S
O160 C161 1.295 . S
C161 O160 1.295 . S
C161 O163 1.235 . S
C162 O167 1.287 . S
C162 O168 1.255 . S
O163 Fe155 1.997 1_554 S
O163 C161 1.235 . S
C164 O170 1.287 . S
C164 O171 1.255 . S
O165 Fe154 1.976 . S
O165 C172 1.287 . S
O166 Fe155 1.995 . S
O166 C172 1.255 1_556 S
O167 Fe157 1.976 . S
O167 C162 1.287 . S
O168 Fe154 1.996 1_556 S
O168 C162 1.255 . S
C169 O173 1.295 . S
C169 O174 1.235 . S
O170 Fe155 1.976 . S
O170 C164 1.287 . S
O171 Fe157 1.996 . S
O171 C164 1.255 . S
C172 O165 1.287 . S
C172 O166 1.255 1_554 S
O173 Fe155 2.002 . S
O173 C169 1.295 . S
O174 Fe157 1.997 . S
O174 C169 1.235 . S
C175 O158 1.295 1_554 S
C175 O159 1.235 . S
Fe176 O178 1.918 1_565 S
Fe176 O181 1.997 . S
Fe176 O182 2.002 . S
Fe176 O187 1.976 . S
Fe176 O190 1.996 . S
Fe177 O178 1.918 . S
Fe177 O185 1.997 . S
Fe177 O188 1.996 . S
Fe177 O192 1.976 . S
Fe177 O195 2.002 . S
O178 Fe176 1.918 1_545 S
O178 Fe177 1.918 . S
O178 Fe179 1.918 . S
Fe179 O178 1.918 . S
Fe179 O180 2.002 . S
Fe179 O189 1.976 . S
Fe179 O193 1.996 . S
Fe179 O196 1.997 . S
O180 Fe179 2.002 . S
O180 C197 1.295 . S
O181 Fe176 1.997 . S
O181 C197 1.235 1_565 S
O182 Fe176 2.002 . S
O182 C183 1.295 . S
C183 O182 1.295 . S
C183 O185 1.235 1_565 S
C184 O189 1.287 1_565 S
C184 O190 1.255 . S
O185 Fe177 1.997 . S
O185 C183 1.235 1_545 S
C186 O192 1.287 . S
C186 O193 1.255 . S
O187 Fe176 1.976 . S
O187 C194 1.287 . S
O188 Fe177 1.996 . S
O188 C194 1.255 1_545 S
O189 Fe179 1.976 . S
O189 C184 1.287 1_545 S
O190 Fe176 1.996 . S
O190 C184 1.255 . S
C191 O195 1.295 . S
C191 O196 1.235 . S
O192 Fe177 1.976 . S
O192 C186 1.287 . S
O193 Fe179 1.996 . S
O193 C186 1.255 . S
C194 O187 1.287 . S
C194 O188 1.255 1_565 S
O195 Fe177 2.002 . S
O195 C191 1.295 . S
O196 Fe179 1.997 . S
O196 C191 1.235 . S
C197 O180 1.295 . S
C197 O181 1.235 1_545 S
Fe198 O200 1.918 1_556 S
Fe198 O203 1.997 . S
Fe198 O204 2.002 . S
Fe198 O209 1.976 . S
Fe198 O212 1.996 1_556 S
Fe199 O200 1.918 . S
Fe199 O207 1.997 1_554 S
Fe199 O210 1.995 . S
Fe199 O214 1.976 . S
Fe199 O217 2.002 1_565 S
O200 Fe198 1.918 1_554 S
O200 Fe199 1.918 . S
O200 Fe201 1.918 . S
Fe201 O200 1.918 . S
Fe201 O202 2.002 . S
Fe201 O211 1.976 . S
Fe201 O215 1.996 . S
Fe201 O218 1.997 1_565 S
O202 Fe201 2.002 . S
O202 C219 1.295 1_554 S
O203 Fe198 1.997 . S
O203 C219 1.235 . S
O204 Fe198 2.002 . S
O204 C205 1.295 . S
C205 O204 1.295 . S
C205 O207 1.235 . S
C206 O211 1.287 . S
C206 O212 1.255 . S
O207 Fe199 1.997 1_556 S
O207 C205 1.235 . S
C208 O214 1.287 . S
C208 O215 1.255 . S
O209 Fe198 1.976 . S
O209 C216 1.287 . S
O210 Fe199 1.995 . S
O210 C216 1.255 1_554 S
O211 Fe201 1.976 . S
O211 C206 1.287 . S
O212 Fe198 1.996 1_554 S
O212 C206 1.255 . S
C213 O217 1.295 . S
C213 O218 1.235 . S
O214 Fe199 1.976 . S
O214 C208 1.287 . S
O215 Fe201 1.996 . S
O215 C208 1.255 . S
C216 O209 1.287 . S
C216 O210 1.255 1_556 S
O217 Fe199 2.002 1_545 S
O217 C213 1.295 . S
O218 Fe201 1.997 1_545 S
O218 C213 1.235 . S
C219 O202 1.295 1_556 S
C219 O203 1.235 . S
Fe220 O222 1.918 1_545 S
Fe220 O225 1.997 . S
Fe220 O226 2.002 . S
Fe220 O231 1.976 . S
Fe220 O234 1.996 . S
Fe221 O222 1.918 . S
Fe221 O229 1.997 . S
Fe221 O232 1.996 . S
Fe221 O236 1.976 . S
Fe221 O239 2.002 . S
O222 Fe220 1.918 1_565 S
O222 Fe221 1.918 . S
O222 Fe223 1.918 . S
Fe223 O222 1.918 . S
Fe223 O224 2.002 . S
Fe223 O233 1.976 . S
Fe223 O237 1.996 . S
Fe223 O240 1.997 . S
O224 Fe223 2.002 . S
O224 C241 1.295 . S
O225 Fe220 1.997 . S
O225 C241 1.235 1_545 S
O226 Fe220 2.002 . S
O226 C227 1.295 . S
C227 O226 1.295 . S
C227 O229 1.235 1_545 S
C228 O233 1.287 1_545 S
C228 O234 1.255 . S
O229 Fe221 1.997 . S
O229 C227 1.235 1_565 S
C230 O236 1.287 . S
C230 O237 1.255 . S
O231 Fe220 1.976 . S
O231 C238 1.287 . S
O232 Fe221 1.996 . S
O232 C238 1.255 1_565 S
O233 Fe223 1.976 . S
O233 C228 1.287 1_565 S
O234 Fe220 1.996 . S
O234 C228 1.255 . S
C235 O239 1.295 . S
C235 O240 1.235 . S
O236 Fe221 1.976 . S
O236 C230 1.287 . S
O237 Fe223 1.996 . S
O237 C230 1.255 . S
C238 O231 1.287 . S
C238 O232 1.255 1_545 S
O239 Fe221 2.002 . S
O239 C235 1.295 . S
O240 Fe223 1.997 . S
O240 C235 1.235 . S
C241 O224 1.295 . S
C241 O225 1.235 1_565 S
Fe242 O244 1.918 . S
Fe242 O247 1.997 . S
Fe242 O248 2.002 1_545 S
Fe242 O253 1.976 . S
Fe242 O256 1.996 . S
Fe243 O244 1.918 . S
Fe243 O251 1.997 1_545 S
Fe243 O254 1.996 . S
Fe243 O258 1.976 . S
Fe243 O261 2.002 . S
O244 Fe242 1.918 . S
O244 Fe243 1.918 . S
O244 Fe245 1.918 . S
Fe245 O244 1.918 . S
Fe245 O246 2.002 . S
Fe245 O255 1.976 . S
Fe245 O259 1.996 . S
Fe245 O262 1.997 . S
O246 Fe245 2.002 . S
O246 C263 1.295 . S
O247 Fe242 1.997 . S
O247 C263 1.235 . S
O248 Fe242 2.002 1_565 S
O248 C249 1.295 . S
C249 O248 1.295 . S
C249 O251 1.235 . S
C250 O255 1.287 . S
C250 O256 1.255 . S
O251 Fe243 1.997 1_565 S
O251 C249 1.235 . S
C252 O258 1.287 . S
C252 O259 1.255 . S
O253 Fe242 1.976 . S
O253 C260 1.287 . S
O254 Fe243 1.996 . S
O254 C260 1.255 . S
O255 Fe245 1.976 . S
O255 C250 1.287 . S
O256 Fe242 1.996 . S
O256 C250 1.255 . S
C257 O261 1.295 . S
C257 O262 1.235 . S
O258 Fe243 1.976 . S
O258 C252 1.287 . S
O259 Fe245 1.996 . S
O259 C252 1.255 . S
C260 O253 1.287 . S
C260 O254 1.255 . S
O261 Fe243 2.002 . S
O261 C257 1.295 . S
O262 Fe245 1.997 . S
O262 C257 1.235 . S
C263 O246 1.295 . S
C263 O247 1.235 . S
Fe264 O266 1.918 . S
Fe264 O269 1.997 . S
Fe264 O270 2.002 . S
Fe264 O275 1.976 . S
Fe264 O278 1.996 . S
Fe265 O266 1.918 . S
Fe265 O273 1.997 . S
Fe265 O276 1.996 . S
Fe265 O280 1.976 . S
Fe265 O283 2.002 . S
O266 Fe264 1.918 . S
O266 Fe265 1.918 . S
O266 Fe267 1.918 1_565 S
Fe267 O266 1.918 1_545 S
Fe267 O268 2.002 . S
Fe267 O277 1.976 . S
Fe267 O281 1.996 . S
Fe267 O284 1.997 . S
O268 Fe267 2.002 . S
O268 C285 1.295 . S
O269 Fe264 1.997 . S
O269 C285 1.235 1_565 S
O270 Fe264 2.002 . S
O270 C271 1.295 . S
C271 O270 1.295 . S
C271 O273 1.235 . S
C272 O277 1.287 . S
C272 O278 1.255 1_545 S
O273 Fe265 1.997 . S
O273 C271 1.235 . S
C274 O280 1.287 1_545 S
C274 O281 1.255 . S
O275 Fe264 1.976 . S
O275 C282 1.287 . S
O276 Fe265 1.996 . S
O276 C282 1.255 . S
O277 Fe267 1.976 . S
O277 C272 1.287 . S
O278 Fe264 1.996 . S
O278 C272 1.255 1_565 S
C279 O283 1.295 . S
C279 O284 1.235 1_565 S
O280 Fe265 1.976 . S
O280 C274 1.287 1_565 S
O281 Fe267 1.996 . S
O281 C274 1.255 . S
C282 O275 1.287 . S
C282 O276 1.255 . S
O283 Fe265 2.002 . S
O283 C279 1.295 . S
O284 Fe267 1.997 . S
O284 C279 1.235 1_545 S
C285 O268 1.295 . S
C285 O269 1.235 1_545 S
Fe286 O288 1.918 1_554 S
Fe286 O291 1.997 . S
Fe286 O292 2.002 . S
Fe286 O297 1.976 . S
Fe286 O300 1.996 1_554 S
Fe287 O288 1.918 . S
Fe287 O295 1.997 1_556 S
Fe287 O298 1.995 . S
Fe287 O302 1.976 . S
Fe287 O305 2.002 1_545 S
O288 Fe286 1.918 1_556 S
O288 Fe287 1.918 . S
O288 Fe289 1.918 . S
Fe289 O288 1.918 . S
Fe289 O290 2.002 . S
Fe289 O299 1.976 . S
Fe289 O303 1.996 . S
Fe289 O306 1.997 1_545 S
O290 Fe289 2.002 . S
O290 C307 1.295 1_556 S
O291 Fe286 1.997 . S
O291 C307 1.235 . S
O292 Fe286 2.002 . S
O292 C293 1.295 . S
C293 O292 1.295 . S
C293 O295 1.235 . S
C294 O299 1.287 . S
C294 O300 1.255 . S
O295 Fe287 1.997 1_554 S
O295 C293 1.235 . S
C296 O302 1.287 . S
C296 O303 1.255 . S
O297 Fe286 1.976 . S
O297 C304 1.287 . S
O298 Fe287 1.995 . S
O298 C304 1.255 1_556 S
O299 Fe289 1.976 . S
O299 C294 1.287 . S
O300 Fe286 1.996 1_556 S
O300 C294 1.255 . S
C301 O305 1.295 . S
C301 O306 1.235 . S
O302 Fe287 1.976 . S
O302 C296 1.287 . S
O303 Fe289 1.996 . S
O303 C296 1.255 . S
C304 O297 1.287 . S
C304 O298 1.255 1_554 S
O305 Fe287 2.002 1_565 S
O305 C301 1.295 . S
O306 Fe289 1.997 1_565 S
O306 C301 1.235 . S
C307 O290 1.295 1_554 S
C307 O291 1.235 . S
Fe308 O310 1.918 1_565 S
Fe308 O313 1.997 . S
Fe308 O314 2.002 . S
Fe308 O319 1.976 . S
Fe308 O322 1.996 . S
Fe309 O310 1.918 . S
Fe309 O317 1.997 . S
Fe309 O320 1.996 . S
Fe309 O324 1.976 . S
Fe309 O327 2.002 . S
O310 Fe308 1.918 1_545 S
O310 Fe309 1.918 . S
O310 Fe311 1.918 . S
Fe311 O310 1.918 . S
Fe311 O312 2.002 . S
Fe311 O321 1.976 . S
Fe311 O325 1.996 . S
Fe311 O328 1.997 . S
O312 Fe311 2.002 . S
O312 C329 1.295 . S
O313 Fe308 1.997 . S
O313 C329 1.235 1_565 S
O314 Fe308 2.002 . S
O314 C315 1.295 . S
C315 O314 1.295 . S
C315 O317 1.235 1_565 S
C316 O321 1.287 1_565 S
C316 O322 1.255 . S
O317 Fe309 1.997 . S
O317 C315 1.235 1_545 S
C318 O324 1.287 . S
C318 O325 1.255 . S
O319 Fe308 1.976 . S
O319 C326 1.287 . S
O320 Fe309 1.996 . S
O320 C326 1.255 1_545 S
O321 Fe311 1.976 . S
O321 C316 1.287 1_545 S
O322 Fe308 1.996 . S
O322 C316 1.255 . S
C323 O327 1.295 . S
C323 O328 1.235 . S
O324 Fe309 1.976 . S
O324 C318 1.287 . S
O325 Fe311 1.996 . S
O325 C318 1.255 . S
C326 O319 1.287 . S
C326 O320 1.255 1_565 S
O327 Fe309 2.002 . S
O327 C323 1.295 . S
O328 Fe311 1.997 . S
O328 C323 1.235 . S
C329 O312 1.295 . S
C329 O313 1.235 1_545 S
Fe330 O332 1.918 . S
Fe330 O335 1.997 . S
Fe330 O336 2.002 . S
Fe330 O341 1.976 . S
Fe330 O344 1.996 . S
Fe331 O332 1.918 . S
Fe331 O339 1.997 . S
Fe331 O342 1.996 . S
Fe331 O346 1.976 . S
Fe331 O349 2.002 1_565 S
O332 Fe330 1.918 . S
O332 Fe331 1.918 . S
O332 Fe333 1.918 . S
Fe333 O332 1.918 . S
Fe333 O334 2.002 . S
Fe333 O343 1.976 . S
Fe333 O347 1.996 . S
Fe333 O350 1.997 1_565 S
O334 Fe333 2.002 . S
O334 C351 1.295 . S
O335 Fe330 1.997 . S
O335 C351 1.235 . S
O336 Fe330 2.002 . S
O336 C337 1.295 . S
C337 O336 1.295 . S
C337 O339 1.235 . S
C338 O343 1.287 . S
C338 O344 1.255 . S
O339 Fe331 1.997 . S
O339 C337 1.235 . S
C340 O346 1.287 . S
C340 O347 1.255 . S
O341 Fe330 1.976 . S
O341 C348 1.287 . S
O342 Fe331 1.996 . S
O342 C348 1.255 . S
O343 Fe333 1.976 . S
O343 C338 1.287 . S
O344 Fe330 1.996 . S
O344 C338 1.255 . S
C345 O349 1.295 . S
C345 O350 1.235 . S
O346 Fe331 1.976 . S
O346 C340 1.287 . S
O347 Fe333 1.996 . S
O347 C340 1.255 . S
C348 O341 1.287 . S
C348 O342 1.255 . S
O349 Fe331 2.002 1_545 S
O349 C345 1.295 . S
O350 Fe333 1.997 1_545 S
O350 C345 1.235 . S
C351 O334 1.295 . S
C351 O335 1.235 . S
C352 C353 1.387 . S
C352 H356 0.950 . S
C352 C361 1.390 . S
C353 C352 1.387 . S
C353 C355 1.387 . S
H354 C361 0.950 . S
C355 C353 1.387 . S
C355 C357 1.390 . S
C355 H359 0.950 . S
H356 C352 0.950 . S
C357 C355 1.390 . S
C357 C358 1.387 . S
C357 H360 0.950 . S
C358 C357 1.387 . S
C358 C361 1.387 . S
H359 C355 0.950 . S
H360 C357 0.950 . S
C361 C352 1.390 . S
C361 H354 0.950 . S
C361 C358 1.387 . S
C362 C363 1.387 . S
C362 H366 0.950 . S
C362 C371 1.390 . S
C363 C362 1.387 . S
C363 C365 1.387 . S
H364 C371 0.950 . S
C365 C363 1.387 . S
C365 C367 1.390 . S
C365 H369 0.950 . S
H366 C362 0.950 . S
C367 C365 1.390 . S
C367 C368 1.387 . S
C367 H370 0.950 . S
C368 C367 1.387 . S
C368 C371 1.387 . S
H369 C365 0.950 . S
H370 C367 0.950 . S
C371 C362 1.390 . S
C371 H364 0.950 . S
C371 C368 1.387 . S
C372 C373 1.387 . S
C372 H376 0.950 . S
C372 C381 1.390 . S
C373 C372 1.387 . S
C373 C375 1.387 . S
H374 C381 0.950 . S
C375 C373 1.387 . S
C375 C377 1.390 . S
C375 H379 0.950 . S
H376 C372 0.950 . S
C377 C375 1.390 . S
C377 C378 1.387 . S
C377 H380 0.950 . S
C378 C377 1.387 . S
C378 C381 1.387 . S
H379 C375 0.950 . S
H380 C377 0.950 . S
C381 C372 1.390 . S
C381 H374 0.950 . S
C381 C378 1.387 . S
C382 C383 1.387 . S
C382 H386 0.950 . S
C382 C391 1.390 . S
C383 C382 1.387 . S
C383 C385 1.387 1_554 S
H384 C391 0.950 . S
C385 C383 1.387 1_556 S
C385 C387 1.390 1_556 S
C385 H389 0.950 . S
H386 C382 0.950 . S
C387 C385 1.390 1_554 S
C387 C388 1.387 . S
C387 H390 0.950 1_554 S
C388 C387 1.387 . S
C388 C391 1.387 . S
H389 C385 0.950 . S
H390 C387 0.950 1_556 S
C391 C382 1.390 . S
C391 H384 0.950 . S
C391 C388 1.387 . S
C392 C393 1.387 . S
C392 H396 0.950 . S
C392 C401 1.390 . S
C393 C392 1.387 . S
C393 C395 1.387 . S
H394 C401 0.950 . S
C395 C393 1.387 . S
C395 C397 1.390 . S
C395 H399 0.950 . S
H396 C392 0.950 . S
C397 C395 1.390 . S
C397 C398 1.387 . S
C397 H400 0.950 . S
C398 C397 1.387 . S
C398 C401 1.387 . S
H399 C395 0.950 . S
H400 C397 0.950 . S
C401 C392 1.390 . S
C401 H394 0.950 . S
C401 C398 1.387 . S
C402 C403 1.387 . S
C402 H406 0.950 . S
C402 C411 1.390 . S
C403 C402 1.387 . S
C403 C405 1.387 . S
H404 C411 0.950 . S
C405 C403 1.387 . S
C405 C407 1.390 . S
C405 H409 0.950 . S
H406 C402 0.950 . S
C407 C405 1.390 . S
C407 C408 1.387 . S
C407 H410 0.950 . S
C408 C407 1.387 . S
C408 C411 1.387 . S
H409 C405 0.950 . S
H410 C407 0.950 . S
C411 C402 1.390 . S
C411 H404 0.950 . S
C411 C408 1.387 . S
C412 C413 1.387 . S
C412 H416 0.950 . S
C412 C421 1.390 . S
C413 C412 1.387 . S
C413 C415 1.387 . S
H414 C421 0.950 . S
C415 C413 1.387 . S
C415 C417 1.390 . S
C415 H419 0.950 . S
H416 C412 0.950 . S
C417 C415 1.390 . S
C417 C418 1.387 . S
C417 H420 0.950 . S
C418 C417 1.387 . S
C418 C421 1.387 . S
H419 C415 0.950 . S
H420 C417 0.950 . S
C421 C412 1.390 . S
C421 H414 0.950 . S
C421 C418 1.387 . S
C422 C423 1.387 . S
C422 H426 0.950 . S
C422 C431 1.390 . S
C423 C422 1.387 . S
C423 C425 1.387 1_556 S
H424 C431 0.950 . S
C425 C423 1.387 1_554 S
C425 C427 1.390 . S
C425 H429 0.950 . S
H426 C422 0.950 . S
C427 C425 1.390 . S
C427 C428 1.387 1_554 S
C427 H430 0.950 . S
C428 C427 1.387 1_556 S
C428 C431 1.387 . S
H429 C425 0.950 . S
H430 C427 0.950 . S
C431 C422 1.390 . S
C431 H424 0.950 . S
C431 C428 1.387 . S
C432 C433 1.387 . S
C432 H436 0.950 . S
C432 C441 1.390 . S
C433 C432 1.387 . S
C433 C435 1.387 1_565 S
H434 C441 0.950 . S
C435 C433 1.387 1_545 S
C435 C437 1.390 . S
C435 H439 0.950 . S
H436 C432 0.950 . S
C437 C435 1.390 . S
C437 C438 1.387 1_545 S
C437 H440 0.950 . S
C438 C437 1.387 1_565 S
C438 C441 1.387 . S
H439 C435 0.950 . S
H440 C437 0.950 . S
C441 C432 1.390 . S
C441 H434 0.950 . S
C441 C438 1.387 . S
C442 C443 1.387 1_556 S
C442 H446 0.950 . S
C442 C451 1.390 . S
C443 C442 1.387 1_554 S
C443 C445 1.387 . S
H444 C451 0.950 . S
C445 C443 1.387 . S
C445 C447 1.390 . S
C445 H449 0.950 . S
H446 C442 0.950 . S
C447 C445 1.390 . S
C447 C448 1.387 . S
C447 H450 0.950 . S
C448 C447 1.387 . S
C448 C451 1.387 1_554 S
H449 C445 0.950 . S
H450 C447 0.950 . S
C451 C442 1.390 . S
C451 H444 0.950 . S
C451 C448 1.387 1_556 S
C452 C453 1.387 . S
C452 H456 0.950 . S
C452 C461 1.390 . S
C453 C452 1.387 . S
C453 C455 1.387 . S
H454 C461 0.950 . S
C455 C453 1.387 . S
C455 C457 1.390 1_545 S
C455 H459 0.950 1_545 S
H456 C452 0.950 . S
C457 C455 1.390 1_565 S
C457 C458 1.387 1_565 S
C457 H460 0.950 . S
C458 C457 1.387 1_545 S
C458 C461 1.387 . S
H459 C455 0.950 1_565 S
H460 C457 0.950 . S
C461 C452 1.390 . S
C461 H454 0.950 . S
C461 C458 1.387 . S
C462 C463 1.387 . S
C462 H466 0.950 . S
C462 C471 1.390 . S
C463 C462 1.387 . S
C463 C465 1.387 . S
H464 C471 0.950 . S
C465 C463 1.387 . S
C465 C467 1.390 . S
C465 H469 0.950 . S
H466 C462 0.950 . S
C467 C465 1.390 . S
C467 C468 1.387 . S
C467 H470 0.950 . S
C468 C467 1.387 . S
C468 C471 1.387 . S
H469 C465 0.950 . S
H470 C467 0.950 . S
C471 C462 1.390 . S
C471 H464 0.950 . S
C471 C468 1.387 . S
C472 C473 1.387 1_565 S
C472 H476 0.950 . S
C472 C481 1.390 . S
C473 C472 1.387 1_545 S
C473 C475 1.387 . S
H474 C481 0.950 . S
C475 C473 1.387 . S
C475 C477 1.390 . S
C475 H479 0.950 . S
H476 C472 0.950 . S
C477 C475 1.390 . S
C477 C478 1.387 . S
C477 H480 0.950 . S
C478 C477 1.387 . S
C478 C481 1.387 1_545 S
H479 C475 0.950 . S
H480 C477 0.950 . S
C481 C472 1.390 . S
C481 H474 0.950 . S
C481 C478 1.387 1_565 S
C482 C483 1.387 . S
C482 H486 0.950 . S
C482 C491 1.390 . S
C483 C482 1.387 . S
C483 C485 1.387 . S
H484 C491 0.950 . S
C485 C483 1.387 . S
C485 C487 1.390 . S
C485 H489 0.950 . S
H486 C482 0.950 . S
C487 C485 1.390 . S
C487 C488 1.387 . S
C487 H490 0.942 1_556 S
C488 C487 1.387 . S
C488 C491 1.387 . S
H489 C485 0.950 . S
H490 C487 0.942 1_554 S
C491 C482 1.390 . S
C491 H484 0.950 . S
C491 C488 1.387 . S
C492 C493 1.387 . S
C492 H496 0.950 . S
C492 C501 1.390 . S
C493 C492 1.387 . S
C493 C495 1.387 . S
H494 C501 0.950 . S
C495 C493 1.387 . S
C495 C497 1.390 . S
C495 H499 0.950 . S
H496 C492 0.950 . S
C497 C495 1.390 . S
C497 C498 1.387 . S
C497 H500 0.950 1_565 S
C498 C497 1.387 . S
C498 C501 1.387 . S
H499 C495 0.950 . S
H500 C497 0.950 1_545 S
C501 C492 1.390 . S
C501 H494 0.950 . S
C501 C498 1.387 . S
C502 C503 1.387 . S
C502 H506 0.950 . S
C502 C511 1.390 . S
C503 C502 1.387 . S
C503 C505 1.387 . S
H504 C511 0.950 . S
C505 C503 1.387 . S
C505 C507 1.390 . S
C505 H509 0.950 . S
H506 C502 0.950 . S
C507 C505 1.390 . S
C507 C508 1.387 . S
C507 H510 0.950 . S
C508 C507 1.387 . S
C508 C511 1.387 . S
H509 C505 0.950 . S
H510 C507 0.950 . S
C511 C502 1.390 . S
C511 H504 0.950 . S
C511 C508 1.387 . S
C512 C513 1.387 . S
C512 H516 0.950 . S
C512 C521 1.390 . S
C513 C512 1.387 . S
C513 C515 1.387 . S
H514 C521 0.950 . S
C515 C513 1.387 . S
C515 C517 1.390 . S
C515 H519 0.950 . S
H516 C512 0.950 . S
C517 C515 1.390 . S
C517 C518 1.387 . S
C517 H520 0.950 . S
C518 C517 1.387 . S
C518 C521 1.387 . S
H519 C515 0.950 . S
H520 C517 0.950 . S
C521 C512 1.390 . S
C521 H514 0.950 . S
C521 C518 1.387 . S
C522 C523 1.387 . S
C522 H526 0.950 . S
C522 C531 1.390 1_455 S
C523 C522 1.387 . S
C523 C525 1.387 . S
H524 C531 0.950 . S
C525 C523 1.387 . S
C525 C527 1.390 1_455 S
C525 H529 0.950 . S
H526 C522 0.950 . S
C527 C525 1.390 1_655 S
C527 C528 1.387 . S
C527 H530 0.950 . S
C528 C527 1.387 . S
C528 C531 1.387 . S
H529 C525 0.950 . S
H530 C527 0.950 . S
C531 C522 1.390 1_655 S
C531 H524 0.950 . S
C531 C528 1.387 . S
C532 C533 1.387 . S
C532 H536 0.950 . S
C532 C541 1.390 . S
C533 C532 1.387 . S
C533 C535 1.387 . S
H534 C541 0.950 . S
C535 C533 1.387 . S
C535 C537 1.390 . S
C535 H539 0.950 . S
H536 C532 0.950 . S
C537 C535 1.390 . S
C537 C538 1.387 . S
C537 H540 0.950 . S
C538 C537 1.387 . S
C538 C541 1.387 . S
H539 C535 0.950 . S
H540 C537 0.950 . S
C541 C532 1.390 . S
C541 H534 0.950 . S
C541 C538 1.387 . S
C542 C543 1.387 1_556 S
C542 H546 0.950 . S
C542 C551 1.390 . S
C543 C542 1.387 1_554 S
C543 C545 1.387 . S
H544 C551 0.950 . S
C545 C543 1.387 . S
C545 C547 1.390 . S
C545 H549 0.950 . S
H546 C542 0.950 . S
C547 C545 1.390 . S
C547 C548 1.387 1_554 S
C547 H550 0.950 . S
C548 C547 1.387 1_556 S
C548 C551 1.387 . S
H549 C545 0.950 . S
H550 C547 0.950 . S
C551 C542 1.390 . S
C551 H544 0.950 . S
C551 C548 1.387 . S
C552 C553 1.387 . S
C552 H556 0.950 . S
C552 C561 1.390 . S
C553 C552 1.387 . S
C553 C555 1.387 . S
H554 C561 0.950 . S
C555 C553 1.387 . S
C555 C557 1.390 . S
C555 H559 0.950 . S
H556 C552 0.950 . S
C557 C555 1.390 . S
C557 C558 1.387 . S
C557 H560 0.950 . S
C558 C557 1.387 . S
C558 C561 1.387 . S
H559 C555 0.950 . S
H560 C557 0.950 . S
C561 C552 1.390 . S
C561 H554 0.950 . S
C561 C558 1.387 . S
C562 C563 1.387 . S
C562 H566 0.950 . S
C562 C571 1.390 . S
C563 C562 1.387 . S
C563 C565 1.387 . S
H564 C571 0.950 . S
C565 C563 1.387 . S
C565 C567 1.390 . S
C565 H569 0.950 . S
H566 C562 0.950 . S
C567 C565 1.390 . S
C567 C568 1.387 . S
C567 H570 0.950 . S
C568 C567 1.387 . S
C568 C571 1.387 . S
H569 C565 0.950 . S
H570 C567 0.950 . S
C571 C562 1.390 . S
C571 H564 0.950 . S
C571 C568 1.387 . S
C572 C573 1.387 1_554 S
C572 H576 0.950 . S
C572 C581 1.390 . S
C573 C572 1.387 1_556 S
C573 C575 1.387 1_565 S
H574 C581 0.950 . S
C575 C573 1.387 1_545 S
C575 C577 1.390 . S
C575 H579 0.950 . S
H576 C572 0.950 . S
C577 C575 1.390 . S
C577 C578 1.387 1_556 S
C577 H580 0.950 . S
C578 C577 1.387 1_554 S
C578 C581 1.387 1_545 S
H579 C575 0.950 . S
H580 C577 0.950 . S
C581 C572 1.390 . S
C581 H574 0.950 . S
C581 C578 1.387 1_565 S
C582 C583 1.387 . S
C582 H586 0.950 . S
C582 C591 1.390 1_455 S
C583 C582 1.387 . S
C583 C585 1.387 1_565 S
H584 C591 0.950 . S
C585 C583 1.387 1_545 S
C585 C587 1.390 1_455 S
C585 H589 0.950 . S
H586 C582 0.950 . S
C587 C585 1.390 1_655 S
C587 C588 1.387 . S
C587 H590 0.950 . S
C588 C587 1.387 . S
C588 C591 1.387 1_545 S
H589 C585 0.950 . S
H590 C587 0.950 . S
C591 C582 1.390 1_655 S
C591 H584 0.950 . S
C591 C588 1.387 1_565 S
C592 C593 1.387 . S
C592 H596 0.950 . S
C592 C601 1.390 . S
C593 C592 1.387 . S
C593 C595 1.387 . S
H594 C601 0.950 . S
C595 C593 1.387 . S
C595 C597 1.390 . S
C595 H599 0.950 . S
H596 C592 0.950 . S
C597 C595 1.390 . S
C597 C598 1.387 . S
C597 H600 0.950 . S
C598 C597 1.387 . S
C598 C601 1.387 . S
H599 C595 0.950 . S
H600 C597 0.950 . S
C601 C592 1.390 . S
C601 H594 0.950 . S
C601 C598 1.387 . S
C602 C603 1.387 . S
C602 H606 0.950 . S
C602 C611 1.390 . S
C603 C602 1.387 . S
C603 C605 1.387 . S
H604 C611 0.950 . S
C605 C603 1.387 . S
C605 C607 1.390 . S
C605 H609 0.950 . S
H606 C602 0.950 . S
C607 C605 1.390 . S
C607 C608 1.387 . S
C607 H610 0.950 . S
C608 C607 1.387 . S
C608 C611 1.387 . S
H609 C605 0.950 . S
H610 C607 0.950 . S
C611 C602 1.390 . S
C611 H604 0.950 . S
C611 C608 1.387 . S
C612 C613 1.387 . S
C612 H616 0.950 . S
C612 C621 1.390 . S
C613 C612 1.387 . S
C613 C615 1.387 . S
H614 C621 0.950 . S
C615 C613 1.387 . S
C615 C617 1.390 . S
C615 H619 0.950 . S
H616 C612 0.950 . S
C617 C615 1.390 . S
C617 C618 1.387 . S
C617 H620 0.950 . S
C618 C617 1.387 . S
C618 C621 1.387 . S
H619 C615 0.950 . S
H620 C617 0.950 . S
C621 C612 1.390 . S
C621 H614 0.950 . S
C621 C618 1.387 . S
C622 C623 1.387 . S
C622 H626 0.950 . S
C622 C631 1.390 . S
C623 C622 1.387 . S
C623 C625 1.387 . S
H624 C631 0.950 . S
C625 C623 1.387 . S
C625 C627 1.390 . S
C625 H629 0.950 . S
H626 C622 0.950 . S
C627 C625 1.390 . S
C627 C628 1.387 . S
C627 H630 0.950 . S
C628 C627 1.387 . S
C628 C631 1.387 . S
H629 C625 0.950 . S
H630 C627 0.950 . S
C631 C622 1.390 . S
C631 H624 0.950 . S
C631 C628 1.387 . S
C632 C633 1.387 . S
C632 H636 0.950 . S
C632 C641 1.390 . S
C633 C632 1.387 . S
C633 C635 1.387 . S
H634 C641 0.950 . S
C635 C633 1.387 . S
C635 C637 1.390 . S
C635 H639 0.950 . S
H636 C632 0.950 . S
C637 C635 1.390 . S
C637 C638 1.387 . S
C637 H640 0.950 . S
C638 C637 1.387 . S
C638 C641 1.387 . S
H639 C635 0.950 . S
H640 C637 0.950 . S
C641 C632 1.390 . S
C641 H634 0.950 . S
C641 C638 1.387 . S
C642 C643 1.387 . S
C642 H646 0.950 . S
C642 C651 1.390 . S
C643 C642 1.387 . S
C643 C645 1.387 . S
H644 C651 0.950 . S
C645 C643 1.387 . S
C645 C647 1.390 . S
C645 H649 0.950 . S
H646 C642 0.950 . S
C647 C645 1.390 . S
C647 C648 1.387 . S
C647 H650 0.950 . S
C648 C647 1.387 . S
C648 C651 1.387 . S
H649 C645 0.950 . S
H650 C647 0.950 . S
C651 C642 1.390 . S
C651 H644 0.950 . S
C651 C648 1.387 . S
C652 C653 1.387 . S
C652 H656 0.950 . S
C652 C661 1.390 . S
C653 C652 1.387 . S
C653 C655 1.387 . S
H654 C661 0.950 . S
C655 C653 1.387 . S
C655 C657 1.390 . S
C655 H659 0.950 . S
H656 C652 0.950 . S
C657 C655 1.390 . S
C657 C658 1.387 . S
C657 H660 0.950 . S
C658 C657 1.387 . S
C658 C661 1.387 . S
H659 C655 0.950 . S
H660 C657 0.950 . S
C661 C652 1.390 . S
C661 H654 0.950 . S
C661 C658 1.387 . S
C662 C663 1.387 . S
C662 H666 0.950 . S
C662 C671 1.390 . S
C663 C662 1.387 . S
C663 C665 1.387 . S
H664 C671 0.950 . S
C665 C663 1.387 . S
C665 C667 1.390 . S
C665 H669 0.950 . S
H666 C662 0.950 . S
C667 C665 1.390 . S
C667 C668 1.387 . S
C667 H670 0.950 . S
C668 C667 1.387 . S
C668 C671 1.387 . S
H669 C665 0.950 . S
H670 C667 0.950 . S
C671 C662 1.390 . S
C671 H664 0.950 . S
C671 C668 1.387 . S
C672 C673 1.387 1_545 S
C672 H676 0.950 . S
C672 C681 1.390 1_545 S
C673 C672 1.387 1_565 S
C673 C675 1.387 . S
H674 C681 0.950 1_545 S
C675 C673 1.387 . S
C675 C677 1.390 . S
C675 H679 0.950 . S
H676 C672 0.950 . S
C677 C675 1.390 . S
C677 C678 1.387 . S
C677 H680 0.950 . S
C678 C677 1.387 . S
C678 C681 1.387 . S
H679 C675 0.950 . S
H680 C677 0.950 . S
C681 C672 1.390 1_565 S
C681 H674 0.950 1_565 S
C681 C678 1.387 . S
C682 C683 1.387 . S
C682 H686 0.950 . S
C682 C691 1.390 . S
C683 C682 1.387 . S
C683 C685 1.387 . S
H684 C691 0.950 . S
C685 C683 1.387 . S
C685 C687 1.390 . S
C685 H689 0.950 . S
H686 C682 0.950 . S
C687 C685 1.390 . S
C687 C688 1.387 . S
C687 H690 0.950 . S
C688 C687 1.387 . S
C688 C691 1.387 . S
H689 C685 0.950 . S
H690 C687 0.950 . S
C691 C682 1.390 . S
C691 H684 0.950 . S
C691 C688 1.387 . S
C692 C693 1.387 . S
C692 H696 0.950 1_545 S
C692 C701 1.389 1_545 S
C693 C692 1.387 . S
C693 C695 1.387 . S
H694 C701 0.962 . S
C695 C693 1.387 . S
C695 C697 1.390 . S
C695 H699 0.950 . S
H696 C692 0.950 1_565 S
C697 C695 1.390 . S
C697 C698 1.387 . S
C697 H700 0.950 . S
C698 C697 1.387 . S
C698 C701 1.377 1_545 S
H699 C695 0.950 . S
H700 C697 0.950 . S
C701 C692 1.389 1_565 S
C701 H694 0.962 . S
C701 C698 1.377 1_565 S
C702 C703 1.387 . S
C702 H706 0.950 . S
C702 C711 1.390 . S
C703 C702 1.387 . S
C703 C705 1.387 . S
H704 C711 0.950 . S
C705 C703 1.387 . S
C705 C707 1.390 . S
C705 H709 0.950 . S
H706 C702 0.950 . S
C707 C705 1.390 . S
C707 C708 1.387 . S
C707 H710 0.950 . S
C708 C707 1.387 . S
C708 C711 1.387 . S
H709 C705 0.950 . S
H710 C707 0.950 . S
C711 C702 1.390 . S
C711 H704 0.950 . S
C711 C708 1.387 . S
C712 C713 1.387 . S
C712 H716 0.950 1_545 S
C712 C721 1.390 1_545 S
C713 C712 1.387 . S
C713 C715 1.387 . S
H714 C721 0.950 . S
C715 C713 1.387 . S
C715 C717 1.390 . S
C715 H719 0.950 . S
H716 C712 0.950 1_565 S
C717 C715 1.390 . S
C717 C718 1.387 . S
C717 H720 0.950 . S
C718 C717 1.387 . S
C718 C721 1.387 1_545 S
H719 C715 0.950 . S
H720 C717 0.950 . S
C721 C712 1.390 1_565 S
C721 H714 0.950 . S
C721 C718 1.387 1_565 S
C722 C723 1.387 . S
C722 H726 0.950 . S
C722 C731 1.390 . S
C723 C722 1.387 . S
C723 C725 1.387 . S
H724 C731 0.950 . S
C725 C723 1.387 . S
C725 C727 1.390 1_545 S
C725 H729 0.950 1_545 S
H726 C722 0.950 . S
C727 C725 1.390 1_565 S
C727 C728 1.387 1_565 S
C727 H730 0.950 . S
C728 C727 1.387 1_545 S
C728 C731 1.387 . S
H729 C725 0.950 1_565 S
H730 C727 0.950 . S
C731 C722 1.390 . S
C731 H724 0.950 . S
C731 C728 1.387 . S
C732 C733 1.387 . S
C732 H736 0.950 . S
C732 C741 1.390 . S
C733 C732 1.387 . S
C733 C735 1.387 1_565 S
H734 C741 0.950 . S
C735 C733 1.387 1_545 S
C735 C737 1.390 1_545 S
C735 H739 0.950 . S
H736 C732 0.950 . S
C737 C735 1.390 1_565 S
C737 C738 1.387 . S
C737 H740 0.950 1_565 S
C738 C737 1.387 . S
C738 C741 1.387 . S
H739 C735 0.950 . S
H740 C737 0.950 1_545 S
C741 C732 1.390 . S
C741 H734 0.950 . S
C741 C738 1.387 . S
C742 C743 1.387 . S
C742 H746 0.950 . S
C742 C751 1.390 . S
C743 C742 1.387 . S
C743 C745 1.387 . S
H744 C751 0.950 . S
C745 C743 1.387 . S
C745 C747 1.390 . S
C745 H749 0.950 . S
H746 C742 0.950 . S
C747 C745 1.390 . S
C747 C748 1.387 . S
C747 H750 0.950 . S
C748 C747 1.387 . S
C748 C751 1.387 . S
H749 C745 0.950 . S
H750 C747 0.950 . S
C751 C742 1.390 . S
C751 H744 0.950 . S
C751 C748 1.387 . S
C752 C753 1.387 . S
C752 H756 0.950 . S
C752 C761 1.390 1_455 S
C753 C752 1.387 . S
C753 C755 1.387 . S
H754 C761 0.950 . S
C755 C753 1.387 . S
C755 C757 1.390 1_455 S
C755 H759 0.950 . S
H756 C752 0.950 . S
C757 C755 1.390 1_655 S
C757 C758 1.387 . S
C757 H760 0.950 . S
C758 C757 1.387 . S
C758 C761 1.387 . S
H759 C755 0.950 . S
H760 C757 0.950 . S
C761 C752 1.390 1_655 S
C761 H754 0.950 . S
C761 C758 1.387 . S
C762 C763 1.387 . S
C762 H766 0.950 . S
C762 C771 1.390 1_455 S
C763 C762 1.387 . S
C763 C765 1.387 . S
H764 C771 0.950 . S
C765 C763 1.387 . S
C765 C767 1.390 1_455 S
C765 H769 0.950 . S
H766 C762 0.950 . S
C767 C765 1.390 1_655 S
C767 C768 1.387 . S
C767 H770 0.950 . S
C768 C767 1.387 . S
C768 C771 1.387 . S
H769 C765 0.950 . S
H770 C767 0.950 . S
C771 C762 1.390 1_655 S
C771 H764 0.950 . S
C771 C768 1.387 . S
C772 C773 1.387 . S
C772 H776 0.950 . S
C772 C781 1.390 . S
C773 C772 1.387 . S
C773 C775 1.387 . S
H774 C781 0.950 . S
C775 C773 1.387 . S
C775 C777 1.390 . S
C775 H779 0.950 . S
H776 C772 0.950 . S
C777 C775 1.390 . S
C777 C778 1.387 . S
C777 H780 0.950 . S
C778 C777 1.387 . S
C778 C781 1.387 . S
H779 C775 0.950 . S
H780 C777 0.950 . S
C781 C772 1.390 . S
C781 H774 0.950 . S
C781 C778 1.387 . S
C782 C783 1.387 . S
C782 H786 0.950 . S
C782 C791 1.390 . S
C783 C782 1.387 . S
C783 C785 1.387 . S
H784 C791 0.950 . S
C785 C783 1.387 . S
C785 C787 1.390 . S
C785 H789 0.950 . S
H786 C782 0.950 . S
C787 C785 1.390 . S
C787 C788 1.387 . S
C787 H790 0.950 . S
C788 C787 1.387 . S
C788 C791 1.387 . S
H789 C785 0.950 . S
H790 C787 0.950 . S
C791 C782 1.390 . S
C791 H784 0.950 . S
C791 C788 1.387 . S
C792 C793 1.387 . S
C792 H796 0.950 . S
C792 C801 1.390 1_455 S
C793 C792 1.387 . S
C793 C795 1.387 . S
H794 C801 0.950 . S
C795 C793 1.387 . S
C795 C797 1.390 1_455 S
C795 H799 0.950 . S
H796 C792 0.950 . S
C797 C795 1.390 1_655 S
C797 C798 1.387 . S
C797 H800 0.950 . S
C798 C797 1.387 . S
C798 C801 1.387 . S
H799 C795 0.950 . S
H800 C797 0.950 . S
C801 C792 1.390 1_655 S
C801 H794 0.950 . S
C801 C798 1.387 . S
C802 C803 1.387 . S
C802 H806 0.950 . S
C802 C811 1.390 1_655 S
C803 C802 1.387 . S
C803 C805 1.387 . S
H804 C811 0.950 . S
C805 C803 1.387 . S
C805 C807 1.390 1_655 S
C805 H809 0.950 . S
H806 C802 0.950 . S
C807 C805 1.390 1_455 S
C807 C808 1.387 . S
C807 H810 0.950 . S
C808 C807 1.387 . S
C808 C811 1.387 . S
H809 C805 0.950 . S
H810 C807 0.950 . S
C811 C802 1.390 1_455 S
C811 H804 0.950 . S
C811 C808 1.387 . S
C812 C813 1.387 . S
C812 H816 0.950 . S
C812 C821 1.390 . S
C813 C812 1.387 . S
C813 C815 1.387 . S
H814 C821 0.950 . S
C815 C813 1.387 . S
C815 C817 1.390 . S
C815 H819 0.950 . S
H816 C812 0.950 . S
C817 C815 1.390 . S
C817 C818 1.387 . S
C817 H820 0.950 . S
C818 C817 1.387 . S
C818 C821 1.387 . S
H819 C815 0.950 . S
H820 C817 0.950 . S
C821 C812 1.390 . S
C821 H814 0.950 . S
C821 C818 1.387 . S
C822 C823 1.387 . S
C822 H826 0.950 . S
C822 C831 1.390 . S
C823 C822 1.387 . S
C823 C825 1.387 . S
H824 C831 0.950 . S
C825 C823 1.387 . S
C825 C827 1.390 . S
C825 H829 0.950 . S
H826 C822 0.950 . S
C827 C825 1.390 . S
C827 C828 1.387 . S
C827 H830 0.950 . S
C828 C827 1.387 . S
C828 C831 1.387 . S
H829 C825 0.950 . S
H830 C827 0.950 . S
C831 C822 1.390 . S
C831 H824 0.950 . S
C831 C828 1.387 . S
C353 C15 1.581 . S
C358 C140 1.519 . S
C363 C348 1.517 . S
C368 C29 1.581 . S
C373 C51 1.581 . S
C378 C98 1.520 1_455 S
C383 C304 1.520 . S
C388 C73 1.581 . S
C393 C52 1.520 . S
C398 C109 1.581 . S
C403 C250 1.520 . S
C408 C125 1.581 . S
C413 C139 1.581 . S
C418 C18 1.518 1_655 S
C423 C169 1.581 . S
C428 C216 1.517 . S
C433 C183 1.581 . S
C438 C316 1.520 1_655 S
C443 C213 1.581 . S
C448 C172 1.517 . S
C453 C274 1.520 . S
C458 C227 1.581 . S
C463 C128 1.520 . S
C468 C249 1.581 . S
C473 C228 1.520 1_455 S
C478 C285 1.581 . S
C483 C301 1.581 . S
C488 C74 1.518 . S
C493 C184 1.517 . S
C498 C315 1.581 . S
C503 C30 1.520 . S
C508 C345 1.581 . S
C513 C21 0.758 . S
C518 C271 0.758 . S
C523 C37 0.757 . S
C528 C131 0.757 . S
C533 C59 0.755 . S
C538 C323 0.755 . S
C543 C175 0.754 . S
C548 C81 0.754 . S
C553 C95 0.761 . S
C558 C191 0.761 . S
C563 C235 0.761 . S
C568 C147 0.761 . S
C573 C219 0.759 . S
C578 C307 0.759 . S
C583 C351 0.753 . S
C588 C257 0.753 . S
C593 C10 1.567 . S
C598 C43 1.572 . S
C603 C65 1.572 . S
C608 C40 1.568 . S
C613 C62 1.567 . S
C618 C87 1.572 . S
C623 C84 1.566 . S
C628 C7 1.570 . S
C633 C117 1.572 . S
C638 C96 1.567 . S
C643 C153 1.570 . S
C648 C120 1.565 . S
C653 C161 1.569 . S
C658 C150 1.564 . S
C663 C103 1.569 . S
C668 C164 1.564 . S
C673 C194 1.564 . S
C678 C205 1.569 . S
C683 C208 1.568 . S
C688 C241 1.572 . S
C693 C263 1.569 . S
C698 C238 1.564 . S
C703 C260 1.564 . S
C708 C197 1.569 . S
C713 C293 1.572 . S
C718 C272 1.567 . S
C723 C296 1.567 . S
C728 C329 1.571 . S
C733 C326 1.564 . S
C738 C337 1.569 . S
C743 C279 1.569 . S
C748 C340 1.564 . S
C753 C8 1.591 . S
C758 C230 1.591 . S
C763 C32 1.592 . S
C768 C252 1.592 . S
C773 C54 1.591 . S
C778 C186 1.591 . S
C783 C206 1.591 . S
C788 C76 1.591 . S
C793 C318 1.592 . S
C798 C106 1.592 . S
C803 C118 1.592 . S
C808 C338 1.592 . S
C813 C142 1.591 . S
C818 C282 1.591 . S
C823 C294 1.591 . S
C828 C162 1.591 . S
