# Generated by pormake.
# Topology uot, (4)-cn, num edge types: 1
# Building blocks:
#     Node 0, Type 0, BuildingBlock: QUQFOY_clean_sbu_1, # of connection points: 4
#     Node 1, Type 0, BuildingBlock: QUQFOY_clean_sbu_1, # of connection points: 4
#     Node 2, Type 0, BuildingBlock: QUQFOY_clean_sbu_1, # of connection points: 4
#     Node 3, Type 0, BuildingBlock: QUQFOY_clean_sbu_1, # of connection points: 4
#     Node 4, Type 0, BuildingBlock: QUQFOY_clean_sbu_1, # of connection points: 4
#     Node 5, Type 0, BuildingBlock: QUQFOY_clean_sbu_1, # of connection points: 4
#     Node 6, Type 0, BuildingBlock: QUQFOY_clean_sbu_1, # of connection points: 4
#     Node 7, Type 0, BuildingBlock: QUQFOY_clean_sbu_1, # of connection points: 4
#     Node 8, Type 0, BuildingBlock: QUQFOY_clean_sbu_1, # of connection points: 4
#     Node 9, Type 0, BuildingBlock: QUQFOY_clean_sbu_1, # of connection points: 4
#     Node 10, Type 0, BuildingBlock: QUQFOY_clean_sbu_1, # of connection points: 4
#     Node 11, Type 0, BuildingBlock: QUQFOY_clean_sbu_1, # of connection points: 4
#     Node 12, Type 0, BuildingBlock: QUQFOY_clean_sbu_1, # of connection points: 4
#     Node 13, Type 0, BuildingBlock: QUQFOY_clean_sbu_1, # of connection points: 4
#     Node 14, Type 0, BuildingBlock: QUQFOY_clean_sbu_1, # of connection points: 4
#     Node 15, Type 0, BuildingBlock: QUQFOY_clean_sbu_1, # of connection points: 4
#     Edge 16, Type (0, 0), BuildingBlock: XIVTED_clean_linker_0, # of connection points: 2
#     Edge 17, Type (0, 0), BuildingBlock: XIVTED_clean_linker_0, # of connection points: 2
#     Edge 18, Type (0, 0), BuildingBlock: XIVTED_clean_linker_0, # of connection points: 2
#     Edge 19, Type (0, 0), BuildingBlock: XIVTED_clean_linker_0, # of connection points: 2
#     Edge 20, Type (0, 0), BuildingBlock: XIVTED_clean_linker_0, # of connection points: 2
#     Edge 21, Type (0, 0), BuildingBlock: XIVTED_clean_linker_0, # of connection points: 2
#     Edge 22, Type (0, 0), BuildingBlock: XIVTED_clean_linker_0, # of connection points: 2
#     Edge 23, Type (0, 0), BuildingBlock: XIVTED_clean_linker_0, # of connection points: 2
#     Edge 24, Type (0, 0), BuildingBlock: XIVTED_clean_linker_0, # of connection points: 2
#     Edge 25, Type (0, 0), BuildingBlock: XIVTED_clean_linker_0, # of connection points: 2
#     Edge 26, Type (0, 0), BuildingBlock: XIVTED_clean_linker_0, # of connection points: 2
#     Edge 27, Type (0, 0), BuildingBlock: XIVTED_clean_linker_0, # of connection points: 2
#     Edge 28, Type (0, 0), BuildingBlock: XIVTED_clean_linker_0, # of connection points: 2
#     Edge 29, Type (0, 0), BuildingBlock: XIVTED_clean_linker_0, # of connection points: 2
#     Edge 30, Type (0, 0), BuildingBlock: XIVTED_clean_linker_0, # of connection points: 2
#     Edge 31, Type (0, 0), BuildingBlock: XIVTED_clean_linker_0, # of connection points: 2
#     Edge 32, Type (0, 0), BuildingBlock: XIVTED_clean_linker_0, # of connection points: 2
#     Edge 33, Type (0, 0), BuildingBlock: XIVTED_clean_linker_0, # of connection points: 2
#     Edge 34, Type (0, 0), BuildingBlock: XIVTED_clean_linker_0, # of connection points: 2
#     Edge 35, Type (0, 0), BuildingBlock: XIVTED_clean_linker_0, # of connection points: 2
#     Edge 36, Type (0, 0), BuildingBlock: XIVTED_clean_linker_0, # of connection points: 2
#     Edge 37, Type (0, 0), BuildingBlock: XIVTED_clean_linker_0, # of connection points: 2
#     Edge 38, Type (0, 0), BuildingBlock: XIVTED_clean_linker_0, # of connection points: 2
#     Edge 39, Type (0, 0), BuildingBlock: XIVTED_clean_linker_0, # of connection points: 2
#     Edge 40, Type (0, 0), BuildingBlock: XIVTED_clean_linker_0, # of connection points: 2
#     Edge 41, Type (0, 0), BuildingBlock: XIVTED_clean_linker_0, # of connection points: 2
#     Edge 42, Type (0, 0), BuildingBlock: XIVTED_clean_linker_0, # of connection points: 2
#     Edge 43, Type (0, 0), BuildingBlock: XIVTED_clean_linker_0, # of connection points: 2
#     Edge 44, Type (0, 0), BuildingBlock: XIVTED_clean_linker_0, # of connection points: 2
#     Edge 45, Type (0, 0), BuildingBlock: XIVTED_clean_linker_0, # of connection points: 2
#     Edge 46, Type (0, 0), BuildingBlock: XIVTED_clean_linker_0, # of connection points: 2
#     Edge 47, Type (0, 0), BuildingBlock: XIVTED_clean_linker_0, # of connection points: 2
# Relax obj value: 0.057
# Max RMSD: 0.082
# Mean RMSD: 0.082
data_MOF--net-uot--node1-QUQFOY_clean_sbu_1--edge1-XIVTED_clean_linker_0
_symmetry_space_group_name_H-M    P1
_symmetry_Int_Tables_number       1
_symmetry_cell_setting            triclinic
loop_
_symmetry_equiv_pos_as_xyz
'x, y, z'
_cell_length_a     46.605487
_cell_length_b     46.613384
_cell_length_c     44.807536
_cell_angle_alpha  90.032076
_cell_angle_beta   89.972534
_cell_angle_gamma 89.889785
loop_
_atom_site_label
_atom_site_type_symbol
_atom_site_fract_x
_atom_site_fract_y
_atom_site_fract_z
_atom_type_partial_charge
O0 O 0.18157 0.40183 0.2963 0.0
Cd1 Cd 0.21249 0.43124 0.30909 0.0
Cd2 Cd 0.17195 0.44328 0.34868 0.0
O3 O 0.15445 0.40438 0.33647 0.0
O4 O 0.24838 0.41727 0.28971 0.0
O5 O 0.24259 0.41839 0.33867 0.0
C6 C 0.25826 0.41159 0.31593 0.0
C7 C 0.1752 0.45762 0.39866 0.0
C8 C 0.16041 0.39277 0.31154 0.0
C9 C 0.18252 0.48581 0.29936 0.0
O10 O 0.16507 0.476 0.31859 0.0
O11 O 0.20614 0.47298 0.29438 0.0
O12 O 0.15087 0.45587 0.38513 0.0
O13 O 0.19793 0.4501 0.38408 0.0
O14 O 0.4068 0.82494 0.7134 0.0
Cd15 Cd 0.43292 0.7907 0.70302 0.0
Cd16 Cd 0.45149 0.82772 0.65919 0.0
O17 O 0.41738 0.85234 0.67483 0.0
O18 O 0.41513 0.75715 0.72326 0.0
O19 O 0.41842 0.76078 0.67416 0.0
C20 C 0.40972 0.74663 0.69725 0.0
C21 C 0.46178 0.82686 0.60795 0.0
C22 C 0.40297 0.84781 0.69849 0.0
C23 C 0.49348 0.80997 0.7079 0.0
O24 O 0.48791 0.82555 0.68535 0.0
O25 O 0.47465 0.79304 0.71835 0.0
O26 O 0.46534 0.8496 0.62382 0.0
O27 O 0.45116 0.80454 0.62092 0.0
O28 O 0.82994 0.60461 0.29521 0.0
Cd29 Cd 0.7966 0.5767 0.30265 0.0
Cd30 Cd 0.83299 0.55808 0.34767 0.0
O31 O 0.8567 0.59348 0.33413 0.0
O32 O 0.76374 0.59385 0.2805 0.0
O33 O 0.76431 0.58963 0.32964 0.0
C34 C 0.75147 0.59857 0.30582 0.0
C35 C 0.83075 0.54653 0.3986 0.0
C36 C 0.85217 0.60872 0.31104 0.0
C37 C 0.81925 0.51717 0.29658 0.0
O38 O 0.83341 0.52249 0.32018 0.0
O39 O 0.80194 0.53563 0.28596 0.0
O40 O 0.85413 0.54406 0.3835 0.0
O41 O 0.80847 0.55662 0.38503 0.0
O42 O 0.60241 0.17442 0.70793 0.0
Cd43 Cd 0.57684 0.21022 0.70324 0.0
Cd44 Cd 0.55168 0.17703 0.658 0.0
O45 O 0.583 0.14837 0.67206 0.0
O46 O 0.59722 0.24081 0.7258 0.0
O47 O 0.59041 0.24277 0.67703 0.0
C48 C 0.60112 0.25405 0.70089 0.0
C49 C 0.53943 0.17802 0.60709 0.0
C50 C 0.60116 0.15126 0.69304 0.0
C51 C 0.51485 0.19482 0.71091 0.0
O52 O 0.51692 0.18219 0.68587 0.0
O53 O 0.53628 0.20777 0.72211 0.0
O54 O 0.53397 0.15623 0.62374 0.0
O55 O 0.55282 0.19934 0.61907 0.0
O56 O 0.18119 0.59781 0.71018 0.0
Cd57 Cd 0.21536 0.57162 0.69978 0.0
Cd58 Cd 0.17711 0.55285 0.65633 0.0
O59 O 0.1529 0.58713 0.67231 0.0
O60 O 0.24843 0.58903 0.72122 0.0
O61 O 0.24607 0.58661 0.67202 0.0
C62 C 0.25962 0.5949 0.69564 0.0
C63 C 0.17697 0.54195 0.60517 0.0
C64 C 0.15802 0.60164 0.69578 0.0
C65 C 0.19561 0.51116 0.70513 0.0
O66 O 0.17969 0.51668 0.68282 0.0
O67 O 0.21284 0.52993 0.71516 0.0
O68 O 0.15455 0.53856 0.62157 0.0
O69 O 0.1995 0.55284 0.61751 0.0
O70 O 0.60591 0.8318 0.2998 0.0
Cd71 Cd 0.57954 0.79653 0.30314 0.0
Cd72 Cd 0.55443 0.82873 0.34892 0.0
O73 O 0.58664 0.85698 0.33648 0.0
O74 O 0.59985 0.76527 0.28134 0.0
O75 O 0.59141 0.76372 0.32989 0.0
C76 C 0.60262 0.75204 0.30644 0.0
C77 C 0.54106 0.82669 0.39948 0.0
C78 C 0.60498 0.85443 0.31559 0.0
C79 C 0.51812 0.81364 0.29477 0.0
O80 O 0.5201 0.8254 0.32026 0.0
O81 O 0.53943 0.80045 0.28346 0.0
O82 O 0.53646 0.84906 0.38338 0.0
O83 O 0.55423 0.80536 0.38717 0.0
O84 O 0.83166 0.40483 0.70791 0.0
Cd85 Cd 0.79564 0.43014 0.7036 0.0
Cd86 Cd 0.82823 0.45594 0.6584 0.0
O87 O 0.85721 0.42469 0.67193 0.0
O88 O 0.76506 0.40915 0.72555 0.0
O89 O 0.76338 0.41684 0.67689 0.0
C90 C 0.75202 0.4056 0.70045 0.0
C91 C 0.82712 0.46872 0.60763 0.0
C92 C 0.85467 0.40636 0.69281 0.0
C93 C 0.81048 0.49211 0.71185 0.0
O94 O 0.82291 0.49037 0.68668 0.0
O95 O 0.79782 0.47047 0.72298 0.0
O96 O 0.84886 0.4742 0.62433 0.0
O97 O 0.80591 0.45505 0.61947 0.0
O98 O 0.40428 0.18567 0.29588 0.0
Cd99 Cd 0.43226 0.21788 0.30891 0.0
Cd100 Cd 0.44601 0.17759 0.3485 0.0
O101 O 0.4079 0.15868 0.33601 0.0
O102 O 0.41716 0.25305 0.28907 0.0
O103 O 0.41791 0.24774 0.33808 0.0
C104 C 0.4109 0.26299 0.31513 0.0
C105 C 0.45974 0.18005 0.39872 0.0
C106 C 0.39613 0.16412 0.31107 0.0
C107 C 0.48823 0.19041 0.29944 0.0
O108 O 0.4791 0.17237 0.31843 0.0
O109 O 0.47437 0.21344 0.29455 0.0
O110 O 0.45906 0.15606 0.38444 0.0
O111 O 0.45167 0.2029 0.3847 0.0
O112 O 0.68143 0.89968 0.79681 0.0
Cd113 Cd 0.71301 0.92872 0.80872 0.0
Cd114 Cd 0.67362 0.94073 0.85008 0.0
O115 O 0.65564 0.90205 0.83793 0.0
O116 O 0.74796 0.9148 0.78753 0.0
O117 O 0.7443 0.9154 0.83671 0.0
C118 C 0.75895 0.90882 0.81318 0.0
C119 C 0.67653 0.95469 0.90027 0.0
C120 C 0.66069 0.89066 0.81268 0.0
C121 C 0.68301 0.9835 0.80054 0.0
O122 O 0.66623 0.97371 0.82041 0.0
O123 O 0.70635 0.97057 0.79456 0.0
O124 O 0.65233 0.95301 0.88651 0.0
O125 O 0.69938 0.94739 0.88578 0.0
O126 O 0.9091 0.32443 0.21104 0.0
Cd127 Cd 0.93478 0.2899 0.20056 0.0
Cd128 Cd 0.95432 0.3277 0.15754 0.0
O129 O 0.92035 0.35252 0.17321 0.0
O130 O 0.9163 0.2568 0.22098 0.0
O131 O 0.91972 0.26003 0.17188 0.0
C132 C 0.91064 0.24624 0.19505 0.0
C133 C 0.96538 0.32725 0.10642 0.0
C134 C 0.90569 0.34766 0.19663 0.0
C135 C 0.9954 0.30871 0.20667 0.0
O136 O 0.99026 0.32472 0.18434 0.0
O137 O 0.97636 0.29165 0.21645 0.0
O138 O 0.96916 0.34972 0.12265 0.0
O139 O 0.95404 0.30503 0.11892 0.0
O140 O 0.32548 0.10386 0.79569 0.0
Cd141 Cd 0.29265 0.07572 0.80472 0.0
Cd142 Cd 0.32988 0.05837 0.84906 0.0
O143 O 0.35295 0.09378 0.83439 0.0
O144 O 0.25822 0.09239 0.78487 0.0
O145 O 0.26201 0.08815 0.83387 0.0
C146 C 0.24751 0.09687 0.81101 0.0
C147 C 0.32913 0.04702 0.90005 0.0
C148 C 0.34792 0.10849 0.81104 0.0
C149 C 0.31553 0.0164 0.79907 0.0
O150 O 0.33009 0.02237 0.82222 0.0
O151 O 0.29784 0.03447 0.78839 0.0
O152 O 0.35214 0.04485 0.88433 0.0
O153 O 0.30641 0.05691 0.88712 0.0
O154 O 0.10494 0.67802 0.2073 0.0
Cd155 Cd 0.07916 0.71369 0.20285 0.0
Cd156 Cd 0.05414 0.68102 0.15728 0.0
O157 O 0.08554 0.65234 0.17113 0.0
O158 O 0.09934 0.74477 0.22486 0.0
O159 O 0.09201 0.74611 0.17612 0.0
C160 C 0.10275 0.75783 0.19976 0.0
C161 C 0.04155 0.68197 0.10646 0.0
C162 C 0.1037 0.655 0.19217 0.0
C163 C 0.0173 0.6981 0.21045 0.0
O164 O 0.01938 0.68591 0.18518 0.0
O165 O 0.03873 0.71083 0.22193 0.0
O166 O 0.03634 0.66014 0.12312 0.0
O167 O 0.05494 0.70333 0.11835 0.0
O168 O 0.67549 0.10734 0.20424 0.0
Cd169 Cd 0.70933 0.07919 0.19697 0.0
Cd170 Cd 0.67221 0.05961 0.15453 0.0
O171 O 0.6498 0.09648 0.16447 0.0
O172 O 0.74209 0.09667 0.21891 0.0
O173 O 0.74176 0.09154 0.16988 0.0
C174 C 0.7546 0.10066 0.1936 0.0
C175 C 0.67455 0.04326 0.10494 0.0
C176 C 0.65371 0.11163 0.18771 0.0
C177 C 0.68389 0.02204 0.20813 0.0
O178 O 0.66788 0.02785 0.18602 0.0
O179 O 0.70468 0.03838 0.21499 0.0
O180 O 0.65094 0.04332 0.11983 0.0
O181 O 0.69712 0.05335 0.11791 0.0
O182 O 0.10515 0.32489 0.79704 0.0
Cd183 Cd 0.0763 0.29331 0.80941 0.0
Cd184 Cd 0.06376 0.33362 0.84972 0.0
O185 O 0.10251 0.35147 0.8376 0.0
O186 O 0.09046 0.25833 0.78844 0.0
O187 O 0.08998 0.26229 0.83758 0.0
C188 C 0.09663 0.24755 0.81413 0.0
C189 C 0.04934 0.33104 0.89977 0.0
C190 C 0.11403 0.34596 0.81251 0.0
C191 C 0.02138 0.32288 0.80022 0.0
O192 O 0.03104 0.34029 0.81956 0.0
O193 O 0.0344 0.2994 0.79507 0.0
O194 O 0.05104 0.35515 0.88585 0.0
O195 O 0.0569 0.30812 0.88553 0.0
O196 O 0.32906 0.90822 0.21108 0.0
Cd197 Cd 0.29497 0.93507 0.20235 0.0
Cd198 Cd 0.33216 0.95433 0.15852 0.0
O199 O 0.3566 0.91963 0.17285 0.0
O200 O 0.26219 0.91712 0.22379 0.0
O201 O 0.26384 0.92096 0.17465 0.0
C202 C 0.25069 0.91189 0.19822 0.0
C203 C 0.33017 0.96573 0.10762 0.0
C204 C 0.35183 0.90448 0.19594 0.0
C205 C 0.31516 0.99538 0.20842 0.0
O206 O 0.33057 0.99011 0.18565 0.0
O207 O 0.29805 0.97653 0.21854 0.0
O208 O 0.35327 0.96895 0.12299 0.0
O209 O 0.30815 0.95477 0.12087 0.0
O210 O 0.90257 0.68084 0.79559 0.0
Cd211 Cd 0.93111 0.71351 0.80373 0.0
Cd212 Cd 0.94927 0.6765 0.84767 0.0
O213 O 0.91351 0.65338 0.83402 0.0
O214 O 0.91425 0.74778 0.78376 0.0
O215 O 0.91936 0.74457 0.83272 0.0
C216 C 0.91028 0.75881 0.80984 0.0
C217 C 0.96112 0.67857 0.8985 0.0
C218 C 0.89824 0.65844 0.81107 0.0
C219 C 0.99018 0.69016 0.79666 0.0
O220 O 0.98474 0.67576 0.82006 0.0
O221 O 0.97194 0.70793 0.78643 0.0
O222 O 0.96317 0.65515 0.8834 0.0
O223 O 0.9512 0.70097 0.88502 0.0
H224 H 0.28023 0.38558 0.36615 0.0
H225 H 0.40047 0.30288 0.27201 0.0
H226 H 0.29823 0.40047 0.27297 0.0
H227 H 0.38277 0.28423 0.36451 0.0
H228 H 0.36762 0.34348 0.27455 0.0
H229 H 0.32184 0.3533 0.36853 0.0
C230 C 0.29318 0.38246 0.34634 0.0
C231 C 0.28556 0.39554 0.31924 0.0
C232 C 0.37106 0.33074 0.29444 0.0
C233 C 0.33301 0.35855 0.32175 0.0
C234 C 0.38989 0.30752 0.293 0.0
C235 C 0.39419 0.28993 0.318 0.0
C236 C 0.35605 0.3364 0.32101 0.0
C237 C 0.38003 0.29718 0.34466 0.0
C238 C 0.31687 0.36394 0.34768 0.0
C239 C 0.30309 0.39066 0.29427 0.0
N240 N 0.3613 0.31966 0.34538 0.0
N241 N 0.32578 0.37243 0.29609 0.0
H242 H 0.3854 0.72337 0.64671 0.0
H243 H 0.29613 0.60827 0.74099 0.0
H244 H 0.39423 0.70969 0.74152 0.0
H245 H 0.28335 0.62148 0.64661 0.0
H246 H 0.33636 0.64143 0.7397 0.0
H247 H 0.35225 0.68254 0.64437 0.0
C248 C 0.38069 0.71157 0.66694 0.0
C249 C 0.39243 0.72012 0.6944 0.0
C250 C 0.32498 0.63698 0.71915 0.0
C251 C 0.35451 0.67356 0.69191 0.0
C252 C 0.30196 0.61797 0.71988 0.0
C253 C 0.28616 0.61226 0.69392 0.0
C254 C 0.33225 0.65073 0.69231 0.0
C255 C 0.2949 0.62533 0.66717 0.0
C256 C 0.36171 0.68833 0.6656 0.0
C257 C 0.38554 0.70407 0.7199 0.0
N258 N 0.31719 0.64422 0.66711 0.0
N259 N 0.36695 0.68176 0.71804 0.0
H260 H 0.62238 0.72382 0.35639 0.0
H261 H 0.71716 0.61465 0.25949 0.0
H262 H 0.62196 0.71926 0.2602 0.0
H263 H 0.7251 0.6222 0.35512 0.0
H264 H 0.67708 0.64819 0.2607 0.0
H265 H 0.65496 0.68235 0.35763 0.0
C266 C 0.62882 0.71389 0.33557 0.0
C267 C 0.61961 0.72518 0.30813 0.0
C268 C 0.68737 0.64239 0.28151 0.0
C269 C 0.65684 0.67787 0.30939 0.0
C270 C 0.71027 0.62314 0.28084 0.0
C271 C 0.72472 0.61577 0.30721 0.0
C272 C 0.67882 0.65467 0.30874 0.0
C273 C 0.71464 0.62734 0.33423 0.0
C274 C 0.64748 0.69029 0.3363 0.0
C275 C 0.62868 0.71148 0.28186 0.0
N276 N 0.69248 0.64648 0.33428 0.0
N277 N 0.64685 0.68872 0.28316 0.0
H278 H 0.62004 0.28573 0.74801 0.0
H279 H 0.72385 0.38537 0.65066 0.0
H280 H 0.62284 0.28226 0.6518 0.0
H281 H 0.72065 0.38472 0.74692 0.0
H282 H 0.68349 0.35158 0.64966 0.0
H283 H 0.6532 0.32595 0.74707 0.0
C284 C 0.62747 0.29358 0.72661 0.0
C285 C 0.6188 0.28042 0.69995 0.0
C286 C 0.69149 0.35908 0.67096 0.0
C287 C 0.65722 0.32656 0.6987 0.0
C288 C 0.71446 0.37842 0.67155 0.0
C289 C 0.7258 0.38772 0.69893 0.0
C290 C 0.67979 0.34907 0.69795 0.0
C291 C 0.71282 0.37798 0.72529 0.0
C292 C 0.64648 0.3166 0.72609 0.0
C293 C 0.62902 0.29172 0.6729 0.0
N294 N 0.69069 0.35913 0.72412 0.0
N295 N 0.64793 0.31399 0.67296 0.0
H296 H 0.79709 0.89837 0.7683 0.0
H297 H 0.88721 0.78239 0.86086 0.0
H298 H 0.78299 0.88205 0.86195 0.0
H299 H 0.89512 0.79651 0.76605 0.0
H300 H 0.85431 0.82349 0.86386 0.0
H301 H 0.83832 0.86622 0.76937 0.0
C302 C 0.80287 0.88826 0.78923 0.0
C303 C 0.78635 0.89271 0.81501 0.0
C304 C 0.86354 0.81777 0.84249 0.0
C305 C 0.83355 0.85539 0.81632 0.0
C306 C 0.88241 0.79439 0.84077 0.0
C307 C 0.89374 0.78582 0.8131 0.0
C308 C 0.85606 0.8327 0.81635 0.0
C309 C 0.88672 0.80213 0.78781 0.0
C310 C 0.82644 0.86982 0.78981 0.0
C311 C 0.79506 0.87917 0.84152 0.0
N312 N 0.86823 0.82457 0.79002 0.0
N313 N 0.81787 0.86083 0.84142 0.0
H314 H 0.79009 0.11439 0.2397 0.0
H315 H 0.88611 0.22308 0.14456 0.0
H316 H 0.78103 0.12432 0.14443 0.0
H317 H 0.89348 0.21043 0.23966 0.0
H318 H 0.85143 0.18354 0.14247 0.0
H319 H 0.83172 0.14579 0.23854 0.0
C320 C 0.79702 0.12299 0.21844 0.0
C321 C 0.78187 0.11689 0.19215 0.0
C322 C 0.86091 0.18925 0.16371 0.0
C323 C 0.82959 0.15334 0.19068 0.0
C324 C 0.88076 0.21176 0.16491 0.0
C325 C 0.89254 0.22026 0.19237 0.0
C326 C 0.85283 0.17519 0.19017 0.0
C327 C 0.88479 0.20484 0.21802 0.0
C328 C 0.82085 0.14098 0.21778 0.0
C329 C 0.79204 0.12851 0.16523 0.0
N330 N 0.86534 0.18327 0.21631 0.0
N331 N 0.8151 0.14646 0.16522 0.0
H332 H 0.10715 0.20918 0.7695 0.0
H333 H 0.22439 0.12058 0.86196 0.0
H334 H 0.12394 0.22413 0.86291 0.0
H335 H 0.20945 0.11158 0.76738 0.0
H336 H 0.18322 0.1534 0.86496 0.0
H337 H 0.13966 0.16825 0.77067 0.0
C338 C 0.11744 0.20365 0.79039 0.0
C339 C 0.113 0.22032 0.81607 0.0
C340 C 0.18879 0.14395 0.84364 0.0
C341 C 0.15075 0.17345 0.81751 0.0
C342 C 0.21221 0.12513 0.84193 0.0
C343 C 0.22055 0.1135 0.81432 0.0
C344 C 0.17358 0.15108 0.81757 0.0
C345 C 0.20401 0.12021 0.7891 0.0
C346 C 0.13609 0.18025 0.79104 0.0
C347 C 0.1268 0.21193 0.84256 0.0
N348 N 0.18152 0.13865 0.79131 0.0
N349 N 0.14534 0.18928 0.84251 0.0
H350 H 0.22533 0.88844 0.14832 0.0
H351 H 0.12007 0.79123 0.24624 0.0
H352 H 0.21643 0.89435 0.244 0.0
H353 H 0.1246 0.78519 0.15025 0.0
H354 H 0.15216 0.83231 0.24467 0.0
H355 H 0.18547 0.8541 0.1473 0.0
C356 C 0.21476 0.88286 0.16904 0.0
C357 C 0.22441 0.89412 0.19632 0.0
C358 C 0.14603 0.82223 0.22386 0.0
C359 C 0.179 0.85476 0.19534 0.0
C360 C 0.12766 0.7987 0.22475 0.0
C361 C 0.1198 0.78458 0.19835 0.0
C362 C 0.15699 0.8317 0.19637 0.0
C363 C 0.13017 0.7954 0.17115 0.0
C364 C 0.19207 0.86319 0.16845 0.0
C365 C 0.20993 0.88607 0.22247 0.0
N366 N 0.1485 0.81816 0.17087 0.0
N367 N 0.18818 0.86679 0.22134 0.0
H368 H 0.12867 0.49843 0.28113 0.0
H369 H 0.15325 0.65421 0.22538 0.0
H370 H 0.21586 0.52885 0.27528 0.0
H371 H 0.09235 0.59846 0.18191 0.0
H372 H 0.17589 0.61192 0.24826 0.0
H373 H 0.11308 0.53866 0.25024 0.0
C374 C 0.14453 0.51371 0.27344 0.0
C375 C 0.17358 0.51045 0.28086 0.0
C376 C 0.15791 0.60905 0.23325 0.0
C377 C 0.15578 0.55663 0.24573 0.0
C378 C 0.14496 0.63309 0.22024 0.0
C379 C 0.12076 0.62985 0.20184 0.0
C380 C 0.14604 0.58182 0.22844 0.0
C381 C 0.11093 0.60199 0.19592 0.0
C382 C 0.13564 0.53647 0.25561 0.0
C383 C 0.19327 0.53069 0.27 0.0
N384 N 0.12322 0.57911 0.20969 0.0
N385 N 0.18394 0.5533 0.25328 0.0
H386 H 0.54374 0.82873 0.68381 0.0
H387 H 0.6132 0.86654 0.83913 0.0
H388 H 0.50652 0.79997 0.76671 0.0
H389 H 0.66072 0.86789 0.75639 0.0
H390 H 0.575 0.83976 0.8141 0.0
H391 H 0.58769 0.84112 0.71038 0.0
C392 C 0.54498 0.82469 0.70759 0.0
C393 C 0.52139 0.81351 0.72313 0.0
C394 C 0.59403 0.84549 0.8016 0.0
C395 C 0.57152 0.82811 0.75385 0.0
C396 C 0.61587 0.86079 0.81587 0.0
C397 C 0.64007 0.86989 0.79976 0.0
C398 C 0.59625 0.83961 0.77093 0.0
C399 C 0.64237 0.86164 0.76969 0.0
C400 C 0.57011 0.83169 0.72276 0.0
C401 C 0.52423 0.80855 0.7539 0.0
N402 N 0.62054 0.84742 0.75616 0.0
N403 N 0.54868 0.81637 0.76838 0.0
H404 H 0.87793 0.34747 0.25038 0.0
H405 H 0.81456 0.50643 0.23654 0.0
H406 H 0.88971 0.39924 0.17142 0.0
H407 H 0.83755 0.4664 0.31998 0.0
H408 H 0.83072 0.4631 0.21002 0.0
H409 H 0.85139 0.38681 0.27337 0.0
C410 C 0.87464 0.36695 0.23766 0.0
C411 C 0.88643 0.37012 0.20898 0.0
C412 C 0.83185 0.46377 0.23415 0.0
C413 C 0.85589 0.4153 0.23536 0.0
C414 C 0.82247 0.48834 0.24929 0.0
C415 C 0.8249 0.49003 0.28049 0.0
C416 C 0.84316 0.44062 0.25042 0.0
C417 C 0.83552 0.46608 0.29591 0.0
C418 C 0.85955 0.38945 0.2509 0.0
C419 C 0.88126 0.39593 0.19366 0.0
N420 N 0.84428 0.44241 0.28074 0.0
N421 N 0.86649 0.41762 0.20711 0.0
H422 H 0.50772 0.19543 0.77172 0.0
H423 H 0.3455 0.14075 0.76012 0.0
H424 H 0.46104 0.1857 0.68922 0.0
H425 H 0.3998 0.12335 0.83609 0.0
H426 H 0.38394 0.16912 0.73809 0.0
H427 H 0.46457 0.18079 0.79926 0.0
C428 C 0.48822 0.19089 0.75946 0.0
C429 C 0.48799 0.19151 0.72813 0.0
C430 C 0.38733 0.15936 0.75974 0.0
C431 C 0.4388 0.17481 0.75938 0.0
C432 C 0.36536 0.14318 0.77241 0.0
C433 C 0.36954 0.1292 0.79984 0.0
C434 C 0.41374 0.16175 0.77455 0.0
C435 C 0.39571 0.13345 0.81476 0.0
C436 C 0.46372 0.18235 0.77516 0.0
C437 C 0.46223 0.18521 0.71335 0.0
N438 N 0.41695 0.14912 0.80178 0.0
N439 N 0.43875 0.17698 0.72908 0.0
H440 H 0.17637 0.46074 0.68182 0.0
H441 H 0.13811 0.39391 0.83814 0.0
H442 H 0.2059 0.49878 0.76403 0.0
H443 H 0.13698 0.34492 0.75633 0.0
H444 H 0.16513 0.43156 0.8125 0.0
H445 H 0.16371 0.41727 0.70909 0.0
C446 C 0.18053 0.45978 0.70559 0.0
C447 C 0.19201 0.48346 0.72073 0.0
C448 C 0.1594 0.41232 0.80034 0.0
C449 C 0.17708 0.4339 0.75225 0.0
C450 C 0.14396 0.3908 0.81496 0.0
C451 C 0.13486 0.36634 0.79928 0.0
C452 C 0.16541 0.40954 0.76975 0.0
C453 C 0.14323 0.36348 0.7693 0.0
C454 C 0.17337 0.43492 0.72116 0.0
C455 C 0.1971 0.48098 0.75151 0.0
N456 N 0.15757 0.38501 0.75541 0.0
N457 N 0.18911 0.45682 0.76639 0.0
H458 H 0.34947 0.87098 0.24595 0.0
H459 H 0.51183 0.81599 0.23388 0.0
H460 H 0.40443 0.8912 0.17126 0.0
H461 H 0.46417 0.82262 0.31617 0.0
H462 H 0.46916 0.83248 0.20655 0.0
H463 H 0.38791 0.84211 0.26737 0.0
C464 C 0.3695 0.86912 0.23382 0.0
C465 C 0.37381 0.88396 0.20692 0.0
C466 C 0.468 0.82986 0.23053 0.0
C467 C 0.41803 0.85079 0.23151 0.0
C468 C 0.49222 0.82026 0.2461 0.0
C469 C 0.49156 0.81817 0.27735 0.0
C470 C 0.44293 0.83698 0.24635 0.0
C471 C 0.46568 0.82419 0.29211 0.0
C472 C 0.39147 0.85263 0.24615 0.0
C473 C 0.40022 0.8804 0.19219 0.0
N474 N 0.44249 0.83344 0.27651 0.0
N475 N 0.42145 0.86437 0.20482 0.0
H476 H 0.81114 0.49859 0.77273 0.0
H477 H 0.86427 0.66128 0.76139 0.0
H478 H 0.8183 0.54625 0.69057 0.0
H479 H 0.88429 0.60629 0.83611 0.0
H480 H 0.83538 0.62296 0.73991 0.0
H481 H 0.82602 0.54159 0.80039 0.0
C482 C 0.81515 0.51827 0.7606 0.0
C483 C 0.81376 0.51883 0.7293 0.0
C484 C 0.84582 0.61939 0.76118 0.0
C485 C 0.83073 0.56784 0.76068 0.0
C486 C 0.86231 0.6413 0.77354 0.0
C487 C 0.87719 0.63689 0.80041 0.0
C488 C 0.84404 0.59282 0.77575 0.0
C489 C 0.8735 0.61056 0.81519 0.0
C490 C 0.82383 0.54269 0.77636 0.0
C491 C 0.81939 0.54481 0.71466 0.0
N492 N 0.85752 0.58939 0.80251 0.0
N493 N 0.82779 0.5682 0.73044 0.0
H494 H 0.65672 0.15529 0.22899 0.0
H495 H 0.4994 0.13822 0.27618 0.0
H496 H 0.59736 0.11066 0.1715 0.0
H497 H 0.53272 0.22442 0.27957 0.0
H498 H 0.5396 0.12421 0.24428 0.0
H499 H 0.6158 0.17926 0.25332 0.0
C500 C 0.6352 0.151 0.22106 0.0
C501 C 0.63044 0.13077 0.19832 0.0
C502 C 0.53805 0.14621 0.25194 0.0
C503 C 0.58396 0.1574 0.22646 0.0
C504 C 0.51533 0.15416 0.2703 0.0
C505 C 0.5129 0.18247 0.28054 0.0
C506 C 0.55901 0.16646 0.24444 0.0
C507 C 0.53394 0.20239 0.27203 0.0
C508 C 0.61197 0.16469 0.23491 0.0
C509 C 0.6021 0.12603 0.18893 0.0
N510 N 0.55655 0.19388 0.25477 0.0
N511 N 0.5799 0.13868 0.20354 0.0
H512 H 0.62849 0.99654 0.78494 0.0
H513 H 0.65145 0.15107 0.72498 0.0
H514 H 0.71559 0.02606 0.77445 0.0
H515 H 0.58937 0.09456 0.68451 0.0
H516 H 0.67466 0.10921 0.74813 0.0
H517 H 0.6119 0.03643 0.75413 0.0
C518 C 0.64412 0.01157 0.77628 0.0
C519 C 0.67344 0.00813 0.78235 0.0
C520 C 0.65628 0.10608 0.73372 0.0
C521 C 0.65451 0.05391 0.74729 0.0
C522 C 0.64301 0.12986 0.72057 0.0
C523 C 0.61836 0.12629 0.7029 0.0
C524 C 0.64426 0.07878 0.72983 0.0
C525 C 0.60832 0.09833 0.6979 0.0
C526 C 0.63465 0.03412 0.75849 0.0
C527 C 0.6928 0.02804 0.77025 0.0
N528 N 0.62094 0.07571 0.71182 0.0
N529 N 0.68294 0.05045 0.75357 0.0
H530 H 0.16295 0.36882 0.25584 0.0
H531 H 0.00706 0.29795 0.26565 0.0
H532 H 0.11219 0.36857 0.33649 0.0
H533 H 0.0462 0.32798 0.1842 0.0
H534 H 0.0507 0.31143 0.29297 0.0
H535 H 0.12564 0.34103 0.23097 0.0
C536 C 0.14421 0.36252 0.26853 0.0
C537 C 0.14053 0.3715 0.29822 0.0
C538 C 0.04982 0.31462 0.26904 0.0
C539 C 0.09767 0.33968 0.2697 0.0
C540 C 0.02504 0.3068 0.25343 0.0
C541 C 0.02294 0.31214 0.22267 0.0
C542 C 0.07273 0.32741 0.25366 0.0
C543 C 0.0468 0.32379 0.20796 0.0
C544 C 0.12287 0.34673 0.25423 0.0
C545 C 0.11581 0.36243 0.3135 0.0
N546 N 0.07063 0.33115 0.2236 0.0
N547 N 0.09516 0.34726 0.29897 0.0
H548 H 0.33334 0.96615 0.82379 0.0
H549 H 0.38613 0.89845 0.67198 0.0
H550 H 0.31142 0.00447 0.73921 0.0
H551 H 0.37579 0.84876 0.75256 0.0
H552 H 0.35894 0.93764 0.69523 0.0
H553 H 0.34916 0.92295 0.79768 0.0
C554 C 0.33153 0.9653 0.7997 0.0
C555 C 0.32114 0.98892 0.78362 0.0
C556 C 0.3623 0.91797 0.70759 0.0
C557 C 0.33979 0.93973 0.75348 0.0
C558 C 0.37788 0.89561 0.69438 0.0
C559 C 0.38354 0.87033 0.71042 0.0
C560 C 0.35275 0.91518 0.73719 0.0
C561 C 0.37216 0.86786 0.73935 0.0
C562 C 0.34052 0.94061 0.7848 0.0
C563 C 0.3192 0.98665 0.75243 0.0
N564 N 0.3577 0.89012 0.75191 0.0
N565 N 0.32892 0.96265 0.73829 0.0
H566 H 0.90399 0.62237 0.33699 0.0
H567 H 0.96335 0.69125 0.18845 0.0
H568 H 0.85047 0.64238 0.26113 0.0
H569 H 0.0104 0.69545 0.27119 0.0
H570 H 0.92082 0.67617 0.21596 0.0
H571 H 0.94232 0.6515 0.31513 0.0
C572 C 0.90011 0.63319 0.31599 0.0
C573 C 0.87406 0.62953 0.30069 0.0
C574 C 0.94026 0.68084 0.22826 0.0
C575 C 0.91791 0.66267 0.27547 0.0
C576 C 0.96455 0.68946 0.21252 0.0
C577 C 0.99045 0.69443 0.22755 0.0
C578 C 0.94199 0.67647 0.25922 0.0
C579 C 0.99081 0.69187 0.25877 0.0
C580 C 0.92201 0.64986 0.30354 0.0
C581 C 0.87025 0.64424 0.27361 0.0
N582 N 0.96706 0.68252 0.27356 0.0
N583 N 0.89204 0.65978 0.26171 0.0
H584 H 0.63049 0.00977 0.22705 0.0
H585 H 0.65474 0.85498 0.28265 0.0
H586 H 0.71808 0.98058 0.23413 0.0
H587 H 0.59475 0.91092 0.3276 0.0
H588 H 0.67801 0.89733 0.26074 0.0
H589 H 0.61532 0.97013 0.25898 0.0
C590 C 0.64652 0.99491 0.23535 0.0
C591 C 0.67552 0.99825 0.22792 0.0
C592 C 0.66014 0.90021 0.27592 0.0
C593 C 0.65826 0.95273 0.26408 0.0
C594 C 0.64681 0.87614 0.28835 0.0
C595 C 0.62262 0.87942 0.3068 0.0
C596 C 0.64863 0.92753 0.28134 0.0
C597 C 0.61328 0.90734 0.31349 0.0
C598 C 0.63789 0.9725 0.25373 0.0
C599 C 0.69551 0.97862 0.23946 0.0
N600 N 0.62589 0.93028 0.30022 0.0
N601 N 0.68643 0.95623 0.25663 0.0
H602 H 0.9112 0.41778 0.68234 0.0
H603 H 0.9784 0.28946 0.7762 0.0
H604 H 0.8556 0.35648 0.72543 0.0
H605 H 0.00891 0.37663 0.78164 0.0
H606 H 0.93768 0.30639 0.74552 0.0
H607 H 0.95259 0.39436 0.70551 0.0
C608 C 0.90772 0.39901 0.69611 0.0
C609 C 0.87987 0.38924 0.70222 0.0
C610 C 0.95347 0.32162 0.75343 0.0
C611 C 0.92714 0.36236 0.72853 0.0
C612 C 0.97658 0.31205 0.77082 0.0
C613 C 0.99676 0.33177 0.78167 0.0
C614 C 0.95133 0.35085 0.74613 0.0
C615 C 0.99358 0.36079 0.77405 0.0
C616 C 0.93132 0.38581 0.70944 0.0
C617 C 0.8767 0.36486 0.72039 0.0
N618 N 0.97144 0.36941 0.75658 0.0
N619 N 0.90009 0.35225 0.73305 0.0
H620 H 0.3732 0.16468 0.25485 0.0
H621 H 0.30483 0.00779 0.2674 0.0
H622 H 0.37296 0.11575 0.33666 0.0
H623 H 0.33468 0.04577 0.18528 0.0
H624 H 0.31796 0.05199 0.29395 0.0
H625 H 0.34676 0.12611 0.23044 0.0
C626 C 0.36718 0.14607 0.26788 0.0
C627 C 0.37574 0.14331 0.29779 0.0
C628 C 0.32124 0.0507 0.27006 0.0
C629 C 0.34548 0.099 0.26981 0.0
C630 C 0.31363 0.0256 0.25488 0.0
C631 C 0.31895 0.02303 0.22414 0.0
C632 C 0.33379 0.07348 0.25425 0.0
C633 C 0.33052 0.04671 0.20904 0.0
C634 C 0.35218 0.12399 0.25384 0.0
C635 C 0.36711 0.11868 0.31349 0.0
N636 N 0.33764 0.07087 0.22425 0.0
N637 N 0.35268 0.09733 0.29923 0.0
H638 H 0.15889 0.62959 0.74941 0.0
H639 H 1.00057 0.69482 0.73654 0.0
H640 H 0.1065 0.61825 0.67081 0.0
H641 H 0.0409 0.6714 0.81969 0.0
H642 H 0.04357 0.67818 0.70971 0.0
H643 H 0.12003 0.65671 0.77255 0.0
C644 C 0.13938 0.63309 0.7368 0.0
C645 C 0.13589 0.62125 0.70819 0.0
C646 C 0.04304 0.67707 0.73385 0.0
C647 C 0.09126 0.65246 0.73474 0.0
C648 C 0.01867 0.68672 0.74916 0.0
C649 C 0.01716 0.68431 0.78036 0.0
C650 C 0.06617 0.66551 0.74995 0.0
C651 C 0.04109 0.67343 0.79562 0.0
C652 C 0.11716 0.64852 0.75013 0.0
C653 C 0.11006 0.62672 0.693 0.0
N654 N 0.06457 0.66441 0.78028 0.0
N655 N 0.08863 0.64181 0.70653 0.0
H656 H 0.13097 0.52491 0.57218 0.0
H657 H 0.22313 0.4712 0.43174 0.0
H658 H 0.22281 0.53541 0.56685 0.0
H659 H 0.13059 0.47105 0.43555 0.0
H660 H 0.22424 0.49316 0.48157 0.0
H661 H 0.1311 0.50437 0.52224 0.0
C662 C 0.1512 0.52308 0.5604 0.0
C663 C 0.17693 0.53191 0.57377 0.0
C664 C 0.20373 0.48826 0.47146 0.0
C665 C 0.17729 0.50798 0.51637 0.0
C666 C 0.20308 0.47559 0.4431 0.0
C667 C 0.17672 0.46924 0.42943 0.0
C668 C 0.17785 0.49448 0.48626 0.0
C669 C 0.15142 0.47556 0.44514 0.0
C670 C 0.15127 0.51127 0.53183 0.0
C671 C 0.20246 0.52898 0.55735 0.0
N672 N 0.15263 0.48778 0.47262 0.0
N673 N 0.20203 0.5171 0.52954 0.0
H674 H 0.53686 0.77996 0.4369 0.0
H675 H 0.4748 0.87262 0.5728 0.0
H676 H 0.52043 0.87102 0.4328 0.0
H677 H 0.47101 0.78014 0.57149 0.0
H678 H 0.49431 0.87201 0.52238 0.0
H679 H 0.51623 0.77912 0.48741 0.0
C680 C 0.52912 0.79977 0.44667 0.0
C681 C 0.53039 0.8256 0.43061 0.0
C682 C 0.48909 0.85181 0.53297 0.0
C683 C 0.50675 0.82478 0.48814 0.0
C684 C 0.4779 0.85214 0.56181 0.0
C685 C 0.47122 0.82639 0.5764 0.0
C686 C 0.49401 0.8255 0.51855 0.0
C687 C 0.47572 0.80051 0.56099 0.0
C688 C 0.51719 0.79924 0.47538 0.0
C689 C 0.51987 0.8506 0.44428 0.0
N690 N 0.48704 0.80069 0.53294 0.0
N691 N 0.50859 0.84956 0.47219 0.0
H692 H 0.87587 0.53399 0.43489 0.0
H693 H 0.78129 0.47128 0.56882 0.0
H694 H 0.78331 0.53611 0.43367 0.0
H695 H 0.87175 0.48989 0.57527 0.0
H696 H 0.78125 0.49118 0.518 0.0
H697 H 0.87442 0.51459 0.4853 0.0
C698 C 0.85519 0.53051 0.4453 0.0
C699 C 0.82967 0.53674 0.43002 0.0
C700 C 0.80106 0.49085 0.53061 0.0
C701 C 0.82783 0.51411 0.4879 0.0
C702 C 0.80114 0.47934 0.5595 0.0
C703 C 0.82656 0.47891 0.57632 0.0
C704 C 0.82665 0.50169 0.51843 0.0
C705 C 0.85163 0.48981 0.56321 0.0
C706 C 0.85438 0.5194 0.47415 0.0
C707 C 0.8035 0.53176 0.44471 0.0
N708 N 0.85103 0.50066 0.53511 0.0
N709 N 0.80324 0.52055 0.47281 0.0
H710 H 0.47296 0.22741 0.43286 0.0
H711 H 0.51872 0.13331 0.57455 0.0
H712 H 0.47167 0.13486 0.43525 0.0
H713 H 0.53665 0.22391 0.56837 0.0
H714 H 0.4991 0.13444 0.52425 0.0
H715 H 0.49345 0.22763 0.48338 0.0
C716 C 0.4768 0.20718 0.44405 0.0
C717 C 0.47057 0.18107 0.42979 0.0
C718 C 0.50742 0.1541 0.53374 0.0
C719 C 0.49404 0.18118 0.48741 0.0
C720 C 0.51866 0.15347 0.56253 0.0
C721 C 0.52938 0.17856 0.57573 0.0
C722 C 0.50657 0.18007 0.5179 0.0
C723 C 0.52873 0.20404 0.559 0.0
C724 C 0.48863 0.20732 0.47279 0.0
C725 C 0.47614 0.1555 0.44529 0.0
N726 N 0.51734 0.20419 0.53098 0.0
N727 N 0.48748 0.15623 0.47317 0.0
H728 H 0.62944 0.02459 0.07163 0.0
H729 H 0.72409 0.96839 0.93395 0.0
H730 H 0.72157 0.03349 0.06881 0.0
H731 H 0.63153 0.96733 0.93686 0.0
H732 H 0.72453 0.99028 0.98386 0.0
H733 H 0.63066 1.00224 0.02262 0.0
C734 C 0.64999 0.02194 0.06065 0.0
C735 C 0.67545 0.03098 0.07441 0.0
C736 C 0.70417 0.98515 0.97355 0.0
C737 C 0.67703 0.00505 0.01796 0.0
C738 C 0.7039 0.97255 0.94514 0.0
C739 C 0.67773 0.96603 0.93117 0.0
C740 C 0.67808 0.99117 0.98806 0.0
C741 C 0.65223 0.97201 0.94666 0.0
C742 C 0.65067 0.00909 0.03258 0.0
C743 C 0.70141 0.02692 0.05899 0.0
N744 N 0.65307 0.98422 0.97415 0.0
N745 N 0.70156 0.01417 0.03159 0.0
H746 H 0.03694 0.37617 0.93629 0.0
H747 H 0.97016 0.28116 0.06816 0.0
H748 H 0.03484 0.28366 0.93329 0.0
H749 H 0.98409 0.37254 0.07331 0.0
H750 H 0.9908 0.28128 0.01769 0.0
H751 H 0.01532 0.37484 0.98572 0.0
C752 C 0.03205 0.35551 0.94609 0.0
C753 C 0.03779 0.32998 0.93058 0.0
C754 C 0.98922 0.30129 0.02988 0.0
C755 C 0.01265 0.32829 0.98741 0.0
C756 C 0.97729 0.30126 0.0586 0.0
C757 C 0.97541 0.32688 0.07502 0.0
C758 C 0.99917 0.32713 0.0175 0.0
C759 C 0.98515 0.35226 0.06158 0.0
C760 C 0.01963 0.35477 0.97438 0.0
C761 C 0.03091 0.30386 0.94449 0.0
N762 N 0.99659 0.35171 0.03372 0.0
N763 N 0.0186 0.30368 0.9721 0.0
H764 H 0.37512 0.03295 0.93454 0.0
H765 H 0.28282 0.97232 0.07144 0.0
H766 H 0.28263 0.03718 0.93664 0.0
H767 H 0.37478 0.98301 0.07273 0.0
H768 H 0.28175 0.99303 0.02103 0.0
H769 H 0.37485 0.01244 0.98446 0.0
C770 C 0.3547 0.02973 0.94559 0.0
C771 C 0.32885 0.03684 0.93136 0.0
C772 C 0.30213 0.99075 0.03238 0.0
C773 C 0.32836 0.01293 0.9887 0.0
C774 C 0.30278 0.97876 0.06105 0.0
C775 C 0.32894 0.97592 0.07633 0.0
C776 C 0.32783 0.99974 0.01891 0.0
C777 C 0.35411 0.98481 0.06187 0.0
C778 C 0.35456 0.01794 0.97416 0.0
C779 C 0.30307 0.03214 0.94685 0.0
N780 N 0.35292 0.99628 0.03407 0.0
N781 N 0.30345 0.02031 0.97467 0.0
H782 H 0.97401 0.63337 0.93458 0.0
H783 H 0.03823 0.7279 0.06787 0.0
H784 H 0.97213 0.72593 0.93348 0.0
H785 H 0.02077 0.6372 0.07403 0.0
H786 H 0.01775 0.72796 0.0173 0.0
H787 H 0.99419 0.63473 0.98466 0.0
C788 C 0.97769 0.65404 0.94495 0.0
C789 C 0.97131 0.67958 0.9298 0.0
C790 C 0.01848 0.70808 0.02978 0.0
C791 C 0.99485 0.68131 0.98729 0.0
C792 C 0.03032 0.708 0.05852 0.0
C793 C 0.03122 0.68251 0.0752 0.0
C794 C 0.00775 0.68245 0.01761 0.0
C795 C 0.02049 0.65738 0.06207 0.0
C796 C 0.98926 0.6548 0.97361 0.0
C797 C 0.97659 0.70572 0.94443 0.0
N798 N 0.00928 0.658 0.03413 0.0
N799 N 0.98823 0.70593 0.97233 0.0
loop_
_geom_bond_atom_site_label_1
_geom_bond_atom_site_label_2
_geom_bond_distance
_geom_bond_site_symmetry_2
_ccdc_geom_bond_type
O0 Cd1 2.223 . S
O0 C8 1.315 . S
Cd1 O0 2.223 . S
Cd1 O4 2.297 . S
Cd1 O5 2.439 . S
Cd1 O11 2.240 . S
Cd2 O3 2.240 . S
Cd2 O10 2.223 . S
Cd2 O12 2.297 . S
Cd2 O13 2.439 . S
O3 Cd2 2.240 . S
O3 C8 1.279 . S
O4 Cd1 2.297 . S
O4 C6 1.247 . S
O5 Cd1 2.439 . S
O5 C6 1.208 . S
C6 O4 1.247 . S
C6 O5 1.208 . S
C7 O12 1.247 . S
C7 O13 1.208 . S
C8 O0 1.315 . S
C8 O3 1.279 . S
C9 O10 1.315 . S
C9 O11 1.279 . S
O10 Cd2 2.223 . S
O10 C9 1.315 . S
O11 Cd1 2.240 . S
O11 C9 1.279 . S
O12 Cd2 2.297 . S
O12 C7 1.247 . S
O13 Cd2 2.439 . S
O13 C7 1.208 . S
O14 Cd15 2.223 . S
O14 C22 1.315 . S
Cd15 O14 2.223 . S
Cd15 O18 2.297 . S
Cd15 O19 2.439 . S
Cd15 O25 2.240 . S
Cd16 O17 2.240 . S
Cd16 O24 2.223 . S
Cd16 O26 2.297 . S
Cd16 O27 2.439 . S
O17 Cd16 2.240 . S
O17 C22 1.279 . S
O18 Cd15 2.297 . S
O18 C20 1.247 . S
O19 Cd15 2.439 . S
O19 C20 1.208 . S
C20 O18 1.247 . S
C20 O19 1.208 . S
C21 O26 1.247 . S
C21 O27 1.208 . S
C22 O14 1.315 . S
C22 O17 1.279 . S
C23 O24 1.315 . S
C23 O25 1.279 . S
O24 Cd16 2.223 . S
O24 C23 1.315 . S
O25 Cd15 2.240 . S
O25 C23 1.279 . S
O26 Cd16 2.297 . S
O26 C21 1.247 . S
O27 Cd16 2.439 . S
O27 C21 1.208 . S
O28 Cd29 2.223 . S
O28 C36 1.315 . S
Cd29 O28 2.223 . S
Cd29 O32 2.297 . S
Cd29 O33 2.439 . S
Cd29 O39 2.240 . S
Cd30 O31 2.240 . S
Cd30 O38 2.223 . S
Cd30 O40 2.297 . S
Cd30 O41 2.439 . S
O31 Cd30 2.240 . S
O31 C36 1.279 . S
O32 Cd29 2.297 . S
O32 C34 1.247 . S
O33 Cd29 2.439 . S
O33 C34 1.208 . S
C34 O32 1.247 . S
C34 O33 1.208 . S
C35 O40 1.247 . S
C35 O41 1.208 . S
C36 O28 1.315 . S
C36 O31 1.279 . S
C37 O38 1.315 . S
C37 O39 1.279 . S
O38 Cd30 2.223 . S
O38 C37 1.315 . S
O39 Cd29 2.240 . S
O39 C37 1.279 . S
O40 Cd30 2.297 . S
O40 C35 1.247 . S
O41 Cd30 2.439 . S
O41 C35 1.208 . S
O42 Cd43 2.223 . S
O42 C50 1.315 . S
Cd43 O42 2.223 . S
Cd43 O46 2.297 . S
Cd43 O47 2.439 . S
Cd43 O53 2.240 . S
Cd44 O45 2.240 . S
Cd44 O52 2.223 . S
Cd44 O54 2.297 . S
Cd44 O55 2.439 . S
O45 Cd44 2.240 . S
O45 C50 1.279 . S
O46 Cd43 2.297 . S
O46 C48 1.247 . S
O47 Cd43 2.439 . S
O47 C48 1.208 . S
C48 O46 1.247 . S
C48 O47 1.208 . S
C49 O54 1.247 . S
C49 O55 1.208 . S
C50 O42 1.315 . S
C50 O45 1.279 . S
C51 O52 1.315 . S
C51 O53 1.279 . S
O52 Cd44 2.223 . S
O52 C51 1.315 . S
O53 Cd43 2.240 . S
O53 C51 1.279 . S
O54 Cd44 2.297 . S
O54 C49 1.247 . S
O55 Cd44 2.439 . S
O55 C49 1.208 . S
O56 Cd57 2.223 . S
O56 C64 1.315 . S
Cd57 O56 2.223 . S
Cd57 O60 2.297 . S
Cd57 O61 2.439 . S
Cd57 O67 2.240 . S
Cd58 O59 2.240 . S
Cd58 O66 2.223 . S
Cd58 O68 2.297 . S
Cd58 O69 2.439 . S
O59 Cd58 2.240 . S
O59 C64 1.279 . S
O60 Cd57 2.297 . S
O60 C62 1.247 . S
O61 Cd57 2.439 . S
O61 C62 1.208 . S
C62 O60 1.247 . S
C62 O61 1.208 . S
C63 O68 1.247 . S
C63 O69 1.208 . S
C64 O56 1.315 . S
C64 O59 1.279 . S
C65 O66 1.315 . S
C65 O67 1.279 . S
O66 Cd58 2.223 . S
O66 C65 1.315 . S
O67 Cd57 2.240 . S
O67 C65 1.279 . S
O68 Cd58 2.297 . S
O68 C63 1.247 . S
O69 Cd58 2.439 . S
O69 C63 1.208 . S
O70 Cd71 2.223 . S
O70 C78 1.315 . S
Cd71 O70 2.223 . S
Cd71 O74 2.297 . S
Cd71 O75 2.439 . S
Cd71 O81 2.240 . S
Cd72 O73 2.240 . S
Cd72 O80 2.223 . S
Cd72 O82 2.297 . S
Cd72 O83 2.439 . S
O73 Cd72 2.240 . S
O73 C78 1.279 . S
O74 Cd71 2.297 . S
O74 C76 1.247 . S
O75 Cd71 2.439 . S
O75 C76 1.208 . S
C76 O74 1.247 . S
C76 O75 1.208 . S
C77 O82 1.247 . S
C77 O83 1.208 . S
C78 O70 1.315 . S
C78 O73 1.279 . S
C79 O80 1.315 . S
C79 O81 1.279 . S
O80 Cd72 2.223 . S
O80 C79 1.315 . S
O81 Cd71 2.240 . S
O81 C79 1.279 . S
O82 Cd72 2.297 . S
O82 C77 1.247 . S
O83 Cd72 2.439 . S
O83 C77 1.208 . S
O84 Cd85 2.223 . S
O84 C92 1.315 . S
Cd85 O84 2.223 . S
Cd85 O88 2.297 . S
Cd85 O89 2.439 . S
Cd85 O95 2.240 . S
Cd86 O87 2.240 . S
Cd86 O94 2.223 . S
Cd86 O96 2.297 . S
Cd86 O97 2.439 . S
O87 Cd86 2.240 . S
O87 C92 1.279 . S
O88 Cd85 2.297 . S
O88 C90 1.247 . S
O89 Cd85 2.439 . S
O89 C90 1.208 . S
C90 O88 1.247 . S
C90 O89 1.208 . S
C91 O96 1.247 . S
C91 O97 1.208 . S
C92 O84 1.315 . S
C92 O87 1.279 . S
C93 O94 1.315 . S
C93 O95 1.279 . S
O94 Cd86 2.223 . S
O94 C93 1.315 . S
O95 Cd85 2.240 . S
O95 C93 1.279 . S
O96 Cd86 2.297 . S
O96 C91 1.247 . S
O97 Cd86 2.439 . S
O97 C91 1.208 . S
O98 Cd99 2.223 . S
O98 C106 1.315 . S
Cd99 O98 2.223 . S
Cd99 O102 2.297 . S
Cd99 O103 2.439 . S
Cd99 O109 2.240 . S
Cd100 O101 2.240 . S
Cd100 O108 2.223 . S
Cd100 O110 2.297 . S
Cd100 O111 2.439 . S
O101 Cd100 2.240 . S
O101 C106 1.279 . S
O102 Cd99 2.297 . S
O102 C104 1.247 . S
O103 Cd99 2.439 . S
O103 C104 1.208 . S
C104 O102 1.247 . S
C104 O103 1.208 . S
C105 O110 1.247 . S
C105 O111 1.208 . S
C106 O98 1.315 . S
C106 O101 1.279 . S
C107 O108 1.315 . S
C107 O109 1.279 . S
O108 Cd100 2.223 . S
O108 C107 1.315 . S
O109 Cd99 2.240 . S
O109 C107 1.279 . S
O110 Cd100 2.297 . S
O110 C105 1.247 . S
O111 Cd100 2.439 . S
O111 C105 1.208 . S
O112 Cd113 2.223 . S
O112 C120 1.315 . S
Cd113 O112 2.223 . S
Cd113 O116 2.297 . S
Cd113 O117 2.439 . S
Cd113 O123 2.240 . S
Cd114 O115 2.240 . S
Cd114 O122 2.223 . S
Cd114 O124 2.297 . S
Cd114 O125 2.439 . S
O115 Cd114 2.240 . S
O115 C120 1.279 . S
O116 Cd113 2.297 . S
O116 C118 1.247 . S
O117 Cd113 2.439 . S
O117 C118 1.208 . S
C118 O116 1.247 . S
C118 O117 1.208 . S
C119 O124 1.247 . S
C119 O125 1.208 . S
C120 O112 1.315 . S
C120 O115 1.279 . S
C121 O122 1.315 . S
C121 O123 1.279 . S
O122 Cd114 2.223 . S
O122 C121 1.315 . S
O123 Cd113 2.240 . S
O123 C121 1.279 . S
O124 Cd114 2.297 . S
O124 C119 1.247 . S
O125 Cd114 2.439 . S
O125 C119 1.208 . S
O126 Cd127 2.223 . S
O126 C134 1.315 . S
Cd127 O126 2.223 . S
Cd127 O130 2.297 . S
Cd127 O131 2.439 . S
Cd127 O137 2.240 . S
Cd128 O129 2.240 . S
Cd128 O136 2.223 . S
Cd128 O138 2.297 . S
Cd128 O139 2.439 . S
O129 Cd128 2.240 . S
O129 C134 1.279 . S
O130 Cd127 2.297 . S
O130 C132 1.247 . S
O131 Cd127 2.439 . S
O131 C132 1.208 . S
C132 O130 1.247 . S
C132 O131 1.208 . S
C133 O138 1.247 . S
C133 O139 1.208 . S
C134 O126 1.315 . S
C134 O129 1.279 . S
C135 O136 1.315 . S
C135 O137 1.279 . S
O136 Cd128 2.223 . S
O136 C135 1.315 . S
O137 Cd127 2.240 . S
O137 C135 1.279 . S
O138 Cd128 2.297 . S
O138 C133 1.247 . S
O139 Cd128 2.439 . S
O139 C133 1.208 . S
O140 Cd141 2.223 . S
O140 C148 1.315 . S
Cd141 O140 2.223 . S
Cd141 O144 2.297 . S
Cd141 O145 2.439 . S
Cd141 O151 2.240 . S
Cd142 O143 2.240 . S
Cd142 O150 2.223 . S
Cd142 O152 2.297 . S
Cd142 O153 2.439 . S
O143 Cd142 2.240 . S
O143 C148 1.279 . S
O144 Cd141 2.297 . S
O144 C146 1.247 . S
O145 Cd141 2.439 . S
O145 C146 1.208 . S
C146 O144 1.247 . S
C146 O145 1.208 . S
C147 O152 1.247 . S
C147 O153 1.208 . S
C148 O140 1.315 . S
C148 O143 1.279 . S
C149 O150 1.315 . S
C149 O151 1.279 . S
O150 Cd142 2.223 . S
O150 C149 1.315 . S
O151 Cd141 2.240 . S
O151 C149 1.279 . S
O152 Cd142 2.297 . S
O152 C147 1.247 . S
O153 Cd142 2.439 . S
O153 C147 1.208 . S
O154 Cd155 2.223 . S
O154 C162 1.315 . S
Cd155 O154 2.223 . S
Cd155 O158 2.297 . S
Cd155 O159 2.439 . S
Cd155 O165 2.240 . S
Cd156 O157 2.240 . S
Cd156 O164 2.223 . S
Cd156 O166 2.297 . S
Cd156 O167 2.439 . S
O157 Cd156 2.240 . S
O157 C162 1.279 . S
O158 Cd155 2.297 . S
O158 C160 1.247 . S
O159 Cd155 2.439 . S
O159 C160 1.208 . S
C160 O158 1.247 . S
C160 O159 1.208 . S
C161 O166 1.247 . S
C161 O167 1.208 . S
C162 O154 1.315 . S
C162 O157 1.279 . S
C163 O164 1.315 . S
C163 O165 1.279 . S
O164 Cd156 2.223 . S
O164 C163 1.315 . S
O165 Cd155 2.240 . S
O165 C163 1.279 . S
O166 Cd156 2.297 . S
O166 C161 1.247 . S
O167 Cd156 2.439 . S
O167 C161 1.208 . S
O168 Cd169 2.223 . S
O168 C176 1.315 . S
Cd169 O168 2.223 . S
Cd169 O172 2.297 . S
Cd169 O173 2.439 . S
Cd169 O179 2.240 . S
Cd170 O171 2.240 . S
Cd170 O178 2.223 . S
Cd170 O180 2.297 . S
Cd170 O181 2.439 . S
O171 Cd170 2.240 . S
O171 C176 1.279 . S
O172 Cd169 2.297 . S
O172 C174 1.247 . S
O173 Cd169 2.439 . S
O173 C174 1.208 . S
C174 O172 1.247 . S
C174 O173 1.208 . S
C175 O180 1.247 . S
C175 O181 1.208 . S
C176 O168 1.315 . S
C176 O171 1.279 . S
C177 O178 1.315 . S
C177 O179 1.279 . S
O178 Cd170 2.223 . S
O178 C177 1.315 . S
O179 Cd169 2.240 . S
O179 C177 1.279 . S
O180 Cd170 2.297 . S
O180 C175 1.247 . S
O181 Cd170 2.439 . S
O181 C175 1.208 . S
O182 Cd183 2.223 . S
O182 C190 1.315 . S
Cd183 O182 2.223 . S
Cd183 O186 2.297 . S
Cd183 O187 2.439 . S
Cd183 O193 2.240 . S
Cd184 O185 2.240 . S
Cd184 O192 2.223 . S
Cd184 O194 2.297 . S
Cd184 O195 2.439 . S
O185 Cd184 2.240 . S
O185 C190 1.279 . S
O186 Cd183 2.297 . S
O186 C188 1.247 . S
O187 Cd183 2.439 . S
O187 C188 1.208 . S
C188 O186 1.247 . S
C188 O187 1.208 . S
C189 O194 1.247 . S
C189 O195 1.208 . S
C190 O182 1.315 . S
C190 O185 1.279 . S
C191 O192 1.315 . S
C191 O193 1.279 . S
O192 Cd184 2.223 . S
O192 C191 1.315 . S
O193 Cd183 2.240 . S
O193 C191 1.279 . S
O194 Cd184 2.297 . S
O194 C189 1.247 . S
O195 Cd184 2.439 . S
O195 C189 1.208 . S
O196 Cd197 2.223 . S
O196 C204 1.315 . S
Cd197 O196 2.223 . S
Cd197 O200 2.297 . S
Cd197 O201 2.439 . S
Cd197 O207 2.240 . S
Cd198 O199 2.240 . S
Cd198 O206 2.223 . S
Cd198 O208 2.297 . S
Cd198 O209 2.439 . S
O199 Cd198 2.240 . S
O199 C204 1.279 . S
O200 Cd197 2.297 . S
O200 C202 1.247 . S
O201 Cd197 2.439 . S
O201 C202 1.208 . S
C202 O200 1.247 . S
C202 O201 1.208 . S
C203 O208 1.247 . S
C203 O209 1.208 . S
C204 O196 1.315 . S
C204 O199 1.279 . S
C205 O206 1.315 . S
C205 O207 1.279 . S
O206 Cd198 2.223 . S
O206 C205 1.315 . S
O207 Cd197 2.240 . S
O207 C205 1.279 . S
O208 Cd198 2.297 . S
O208 C203 1.247 . S
O209 Cd198 2.439 . S
O209 C203 1.208 . S
O210 Cd211 2.223 . S
O210 C218 1.315 . S
Cd211 O210 2.223 . S
Cd211 O214 2.297 . S
Cd211 O215 2.439 . S
Cd211 O221 2.240 . S
Cd212 O213 2.240 . S
Cd212 O220 2.223 . S
Cd212 O222 2.297 . S
Cd212 O223 2.439 . S
O213 Cd212 2.240 . S
O213 C218 1.279 . S
O214 Cd211 2.297 . S
O214 C216 1.247 . S
O215 Cd211 2.439 . S
O215 C216 1.208 . S
C216 O214 1.247 . S
C216 O215 1.208 . S
C217 O222 1.247 . S
C217 O223 1.208 . S
C218 O210 1.315 . S
C218 O213 1.279 . S
C219 O220 1.315 . S
C219 O221 1.279 . S
O220 Cd212 2.223 . S
O220 C219 1.315 . S
O221 Cd211 2.240 . S
O221 C219 1.279 . S
O222 Cd212 2.297 . S
O222 C217 1.247 . S
O223 Cd212 2.439 . S
O223 C217 1.208 . S
H224 C230 0.930 . S
H225 C234 0.930 . S
H226 C239 0.929 . S
H227 C237 0.929 . S
H228 C232 0.929 . S
H229 C238 0.929 . S
C230 H224 0.930 . S
C230 C231 1.367 . S
C230 C238 1.378 . S
C231 C230 1.367 . S
C231 C239 1.433 . S
C232 H228 0.929 . S
C232 C234 1.378 . S
C232 C236 1.350 . S
C233 C236 1.463 . S
C233 C238 1.350 . S
C233 N241 1.427 . S
C234 H225 0.930 . S
C234 C232 1.378 . S
C234 C235 1.367 . S
C235 C234 1.367 . S
C235 C237 1.433 . S
C236 C232 1.350 . S
C236 C233 1.463 . S
C236 N240 1.427 . S
C237 H227 0.929 . S
C237 C235 1.433 . S
C237 N240 1.384 . S
C238 H229 0.929 . S
C238 C230 1.378 . S
C238 C233 1.350 . S
C239 H226 0.929 . S
C239 C231 1.433 . S
C239 N241 1.384 . S
N240 C236 1.427 . S
N240 C237 1.384 . S
N241 C233 1.427 . S
N241 C239 1.384 . S
H242 C248 0.930 . S
H243 C252 0.930 . S
H244 C257 0.929 . S
H245 C255 0.929 . S
H246 C250 0.929 . S
H247 C256 0.929 . S
C248 H242 0.930 . S
C248 C249 1.367 . S
C248 C256 1.378 . S
C249 C248 1.367 . S
C249 C257 1.433 . S
C250 H246 0.929 . S
C250 C252 1.378 . S
C250 C254 1.350 . S
C251 C254 1.463 . S
C251 C256 1.350 . S
C251 N259 1.427 . S
C252 H243 0.930 . S
C252 C250 1.378 . S
C252 C253 1.367 . S
C253 C252 1.367 . S
C253 C255 1.433 . S
C254 C250 1.350 . S
C254 C251 1.463 . S
C254 N258 1.427 . S
C255 H245 0.929 . S
C255 C253 1.433 . S
C255 N258 1.384 . S
C256 H247 0.929 . S
C256 C248 1.378 . S
C256 C251 1.350 . S
C257 H244 0.929 . S
C257 C249 1.433 . S
C257 N259 1.384 . S
N258 C254 1.427 . S
N258 C255 1.384 . S
N259 C251 1.427 . S
N259 C257 1.384 . S
H260 C266 0.930 . S
H261 C270 0.930 . S
H262 C275 0.929 . S
H263 C273 0.929 . S
H264 C268 0.929 . S
H265 C274 0.929 . S
C266 H260 0.930 . S
C266 C267 1.367 . S
C266 C274 1.378 . S
C267 C266 1.367 . S
C267 C275 1.433 . S
C268 H264 0.929 . S
C268 C270 1.378 . S
C268 C272 1.350 . S
C269 C272 1.463 . S
C269 C274 1.350 . S
C269 N277 1.427 . S
C270 H261 0.930 . S
C270 C268 1.378 . S
C270 C271 1.367 . S
C271 C270 1.367 . S
C271 C273 1.433 . S
C272 C268 1.350 . S
C272 C269 1.463 . S
C272 N276 1.427 . S
C273 H263 0.929 . S
C273 C271 1.433 . S
C273 N276 1.384 . S
C274 H265 0.929 . S
C274 C266 1.378 . S
C274 C269 1.350 . S
C275 H262 0.929 . S
C275 C267 1.433 . S
C275 N277 1.384 . S
N276 C272 1.427 . S
N276 C273 1.384 . S
N277 C269 1.427 . S
N277 C275 1.384 . S
H278 C284 0.930 . S
H279 C288 0.930 . S
H280 C293 0.929 . S
H281 C291 0.929 . S
H282 C286 0.929 . S
H283 C292 0.929 . S
C284 H278 0.930 . S
C284 C285 1.367 . S
C284 C292 1.378 . S
C285 C284 1.367 . S
C285 C293 1.433 . S
C286 H282 0.929 . S
C286 C288 1.378 . S
C286 C290 1.350 . S
C287 C290 1.463 . S
C287 C292 1.350 . S
C287 N295 1.427 . S
C288 H279 0.930 . S
C288 C286 1.378 . S
C288 C289 1.367 . S
C289 C288 1.367 . S
C289 C291 1.433 . S
C290 C286 1.350 . S
C290 C287 1.463 . S
C290 N294 1.427 . S
C291 H281 0.929 . S
C291 C289 1.433 . S
C291 N294 1.384 . S
C292 H283 0.929 . S
C292 C284 1.378 . S
C292 C287 1.350 . S
C293 H280 0.929 . S
C293 C285 1.433 . S
C293 N295 1.384 . S
N294 C290 1.427 . S
N294 C291 1.384 . S
N295 C287 1.427 . S
N295 C293 1.384 . S
H296 C302 0.930 . S
H297 C306 0.930 . S
H298 C311 0.929 . S
H299 C309 0.929 . S
H300 C304 0.929 . S
H301 C310 0.929 . S
C302 H296 0.930 . S
C302 C303 1.367 . S
C302 C310 1.378 . S
C303 C302 1.367 . S
C303 C311 1.433 . S
C304 H300 0.929 . S
C304 C306 1.378 . S
C304 C308 1.350 . S
C305 C308 1.463 . S
C305 C310 1.350 . S
C305 N313 1.427 . S
C306 H297 0.930 . S
C306 C304 1.378 . S
C306 C307 1.367 . S
C307 C306 1.367 . S
C307 C309 1.433 . S
C308 C304 1.350 . S
C308 C305 1.463 . S
C308 N312 1.427 . S
C309 H299 0.929 . S
C309 C307 1.433 . S
C309 N312 1.384 . S
C310 H301 0.929 . S
C310 C302 1.378 . S
C310 C305 1.350 . S
C311 H298 0.929 . S
C311 C303 1.433 . S
C311 N313 1.384 . S
N312 C308 1.427 . S
N312 C309 1.384 . S
N313 C305 1.427 . S
N313 C311 1.384 . S
H314 C320 0.930 . S
H315 C324 0.930 . S
H316 C329 0.929 . S
H317 C327 0.929 . S
H318 C322 0.929 . S
H319 C328 0.929 . S
C320 H314 0.930 . S
C320 C321 1.367 . S
C320 C328 1.378 . S
C321 C320 1.367 . S
C321 C329 1.433 . S
C322 H318 0.929 . S
C322 C324 1.378 . S
C322 C326 1.350 . S
C323 C326 1.463 . S
C323 C328 1.350 . S
C323 N331 1.427 . S
C324 H315 0.930 . S
C324 C322 1.378 . S
C324 C325 1.367 . S
C325 C324 1.367 . S
C325 C327 1.433 . S
C326 C322 1.350 . S
C326 C323 1.463 . S
C326 N330 1.427 . S
C327 H317 0.929 . S
C327 C325 1.433 . S
C327 N330 1.384 . S
C328 H319 0.929 . S
C328 C320 1.378 . S
C328 C323 1.350 . S
C329 H316 0.929 . S
C329 C321 1.433 . S
C329 N331 1.384 . S
N330 C326 1.427 . S
N330 C327 1.384 . S
N331 C323 1.427 . S
N331 C329 1.384 . S
H332 C338 0.930 . S
H333 C342 0.930 . S
H334 C347 0.929 . S
H335 C345 0.929 . S
H336 C340 0.929 . S
H337 C346 0.929 . S
C338 H332 0.930 . S
C338 C339 1.367 . S
C338 C346 1.378 . S
C339 C338 1.367 . S
C339 C347 1.433 . S
C340 H336 0.929 . S
C340 C342 1.378 . S
C340 C344 1.350 . S
C341 C344 1.463 . S
C341 C346 1.350 . S
C341 N349 1.427 . S
C342 H333 0.930 . S
C342 C340 1.378 . S
C342 C343 1.367 . S
C343 C342 1.367 . S
C343 C345 1.433 . S
C344 C340 1.350 . S
C344 C341 1.463 . S
C344 N348 1.427 . S
C345 H335 0.929 . S
C345 C343 1.433 . S
C345 N348 1.384 . S
C346 H337 0.929 . S
C346 C338 1.378 . S
C346 C341 1.350 . S
C347 H334 0.929 . S
C347 C339 1.433 . S
C347 N349 1.384 . S
N348 C344 1.427 . S
N348 C345 1.384 . S
N349 C341 1.427 . S
N349 C347 1.384 . S
H350 C356 0.930 . S
H351 C360 0.930 . S
H352 C365 0.929 . S
H353 C363 0.929 . S
H354 C358 0.929 . S
H355 C364 0.929 . S
C356 H350 0.930 . S
C356 C357 1.367 . S
C356 C364 1.378 . S
C357 C356 1.367 . S
C357 C365 1.433 . S
C358 H354 0.929 . S
C358 C360 1.378 . S
C358 C362 1.350 . S
C359 C362 1.463 . S
C359 C364 1.350 . S
C359 N367 1.427 . S
C360 H351 0.930 . S
C360 C358 1.378 . S
C360 C361 1.367 . S
C361 C360 1.367 . S
C361 C363 1.433 . S
C362 C358 1.350 . S
C362 C359 1.463 . S
C362 N366 1.427 . S
C363 H353 0.929 . S
C363 C361 1.433 . S
C363 N366 1.384 . S
C364 H355 0.929 . S
C364 C356 1.378 . S
C364 C359 1.350 . S
C365 H352 0.929 . S
C365 C357 1.433 . S
C365 N367 1.384 . S
N366 C362 1.427 . S
N366 C363 1.384 . S
N367 C359 1.427 . S
N367 C365 1.384 . S
H368 C374 0.930 . S
H369 C378 0.930 . S
H370 C383 0.929 . S
H371 C381 0.929 . S
H372 C376 0.929 . S
H373 C382 0.929 . S
C374 H368 0.930 . S
C374 C375 1.367 . S
C374 C382 1.378 . S
C375 C374 1.367 . S
C375 C383 1.433 . S
C376 H372 0.929 . S
C376 C378 1.378 . S
C376 C380 1.350 . S
C377 C380 1.463 . S
C377 C382 1.350 . S
C377 N385 1.427 . S
C378 H369 0.930 . S
C378 C376 1.378 . S
C378 C379 1.367 . S
C379 C378 1.367 . S
C379 C381 1.433 . S
C380 C376 1.350 . S
C380 C377 1.463 . S
C380 N384 1.427 . S
C381 H371 0.929 . S
C381 C379 1.433 . S
C381 N384 1.384 . S
C382 H373 0.929 . S
C382 C374 1.378 . S
C382 C377 1.350 . S
C383 H370 0.929 . S
C383 C375 1.433 . S
C383 N385 1.384 . S
N384 C380 1.427 . S
N384 C381 1.384 . S
N385 C377 1.427 . S
N385 C383 1.384 . S
H386 C392 0.930 . S
H387 C396 0.930 . S
H388 C401 0.929 . S
H389 C399 0.929 . S
H390 C394 0.929 . S
H391 C400 0.929 . S
C392 H386 0.930 . S
C392 C393 1.367 . S
C392 C400 1.378 . S
C393 C392 1.367 . S
C393 C401 1.433 . S
C394 H390 0.929 . S
C394 C396 1.378 . S
C394 C398 1.350 . S
C395 C398 1.463 . S
C395 C400 1.350 . S
C395 N403 1.427 . S
C396 H387 0.930 . S
C396 C394 1.378 . S
C396 C397 1.367 . S
C397 C396 1.367 . S
C397 C399 1.433 . S
C398 C394 1.350 . S
C398 C395 1.463 . S
C398 N402 1.427 . S
C399 H389 0.929 . S
C399 C397 1.433 . S
C399 N402 1.384 . S
C400 H391 0.929 . S
C400 C392 1.378 . S
C400 C395 1.350 . S
C401 H388 0.929 . S
C401 C393 1.433 . S
C401 N403 1.384 . S
N402 C398 1.427 . S
N402 C399 1.384 . S
N403 C395 1.427 . S
N403 C401 1.384 . S
H404 C410 0.930 . S
H405 C414 0.930 . S
H406 C419 0.929 . S
H407 C417 0.929 . S
H408 C412 0.929 . S
H409 C418 0.929 . S
C410 H404 0.930 . S
C410 C411 1.367 . S
C410 C418 1.378 . S
C411 C410 1.367 . S
C411 C419 1.433 . S
C412 H408 0.929 . S
C412 C414 1.378 . S
C412 C416 1.350 . S
C413 C416 1.463 . S
C413 C418 1.350 . S
C413 N421 1.427 . S
C414 H405 0.930 . S
C414 C412 1.378 . S
C414 C415 1.367 . S
C415 C414 1.367 . S
C415 C417 1.433 . S
C416 C412 1.350 . S
C416 C413 1.463 . S
C416 N420 1.427 . S
C417 H407 0.929 . S
C417 C415 1.433 . S
C417 N420 1.384 . S
C418 H409 0.929 . S
C418 C410 1.378 . S
C418 C413 1.350 . S
C419 H406 0.929 . S
C419 C411 1.433 . S
C419 N421 1.384 . S
N420 C416 1.427 . S
N420 C417 1.384 . S
N421 C413 1.427 . S
N421 C419 1.384 . S
H422 C428 0.930 . S
H423 C432 0.930 . S
H424 C437 0.929 . S
H425 C435 0.929 . S
H426 C430 0.929 . S
H427 C436 0.929 . S
C428 H422 0.930 . S
C428 C429 1.367 . S
C428 C436 1.378 . S
C429 C428 1.367 . S
C429 C437 1.433 . S
C430 H426 0.929 . S
C430 C432 1.378 . S
C430 C434 1.350 . S
C431 C434 1.463 . S
C431 C436 1.350 . S
C431 N439 1.427 . S
C432 H423 0.930 . S
C432 C430 1.378 . S
C432 C433 1.367 . S
C433 C432 1.367 . S
C433 C435 1.433 . S
C434 C430 1.350 . S
C434 C431 1.463 . S
C434 N438 1.427 . S
C435 H425 0.929 . S
C435 C433 1.433 . S
C435 N438 1.384 . S
C436 H427 0.929 . S
C436 C428 1.378 . S
C436 C431 1.350 . S
C437 H424 0.929 . S
C437 C429 1.433 . S
C437 N439 1.384 . S
N438 C434 1.427 . S
N438 C435 1.384 . S
N439 C431 1.427 . S
N439 C437 1.384 . S
H440 C446 0.930 . S
H441 C450 0.930 . S
H442 C455 0.929 . S
H443 C453 0.929 . S
H444 C448 0.929 . S
H445 C454 0.929 . S
C446 H440 0.930 . S
C446 C447 1.367 . S
C446 C454 1.378 . S
C447 C446 1.367 . S
C447 C455 1.433 . S
C448 H444 0.929 . S
C448 C450 1.378 . S
C448 C452 1.350 . S
C449 C452 1.463 . S
C449 C454 1.350 . S
C449 N457 1.427 . S
C450 H441 0.930 . S
C450 C448 1.378 . S
C450 C451 1.367 . S
C451 C450 1.367 . S
C451 C453 1.433 . S
C452 C448 1.350 . S
C452 C449 1.463 . S
C452 N456 1.427 . S
C453 H443 0.929 . S
C453 C451 1.433 . S
C453 N456 1.384 . S
C454 H445 0.929 . S
C454 C446 1.378 . S
C454 C449 1.350 . S
C455 H442 0.929 . S
C455 C447 1.433 . S
C455 N457 1.384 . S
N456 C452 1.427 . S
N456 C453 1.384 . S
N457 C449 1.427 . S
N457 C455 1.384 . S
H458 C464 0.930 . S
H459 C468 0.930 . S
H460 C473 0.929 . S
H461 C471 0.929 . S
H462 C466 0.929 . S
H463 C472 0.929 . S
C464 H458 0.930 . S
C464 C465 1.367 . S
C464 C472 1.378 . S
C465 C464 1.367 . S
C465 C473 1.433 . S
C466 H462 0.929 . S
C466 C468 1.378 . S
C466 C470 1.350 . S
C467 C470 1.463 . S
C467 C472 1.350 . S
C467 N475 1.427 . S
C468 H459 0.930 . S
C468 C466 1.378 . S
C468 C469 1.367 . S
C469 C468 1.367 . S
C469 C471 1.433 . S
C470 C466 1.350 . S
C470 C467 1.463 . S
C470 N474 1.427 . S
C471 H461 0.929 . S
C471 C469 1.433 . S
C471 N474 1.384 . S
C472 H463 0.929 . S
C472 C464 1.378 . S
C472 C467 1.350 . S
C473 H460 0.929 . S
C473 C465 1.433 . S
C473 N475 1.384 . S
N474 C470 1.427 . S
N474 C471 1.384 . S
N475 C467 1.427 . S
N475 C473 1.384 . S
H476 C482 0.930 . S
H477 C486 0.930 . S
H478 C491 0.929 . S
H479 C489 0.929 . S
H480 C484 0.929 . S
H481 C490 0.929 . S
C482 H476 0.930 . S
C482 C483 1.367 . S
C482 C490 1.378 . S
C483 C482 1.367 . S
C483 C491 1.433 . S
C484 H480 0.929 . S
C484 C486 1.378 . S
C484 C488 1.350 . S
C485 C488 1.463 . S
C485 C490 1.350 . S
C485 N493 1.427 . S
C486 H477 0.930 . S
C486 C484 1.378 . S
C486 C487 1.367 . S
C487 C486 1.367 . S
C487 C489 1.433 . S
C488 C484 1.350 . S
C488 C485 1.463 . S
C488 N492 1.427 . S
C489 H479 0.929 . S
C489 C487 1.433 . S
C489 N492 1.384 . S
C490 H481 0.929 . S
C490 C482 1.378 . S
C490 C485 1.350 . S
C491 H478 0.929 . S
C491 C483 1.433 . S
C491 N493 1.384 . S
N492 C488 1.427 . S
N492 C489 1.384 . S
N493 C485 1.427 . S
N493 C491 1.384 . S
H494 C500 0.930 . S
H495 C504 0.930 . S
H496 C509 0.929 . S
H497 C507 0.929 . S
H498 C502 0.929 . S
H499 C508 0.929 . S
C500 H494 0.930 . S
C500 C501 1.367 . S
C500 C508 1.378 . S
C501 C500 1.367 . S
C501 C509 1.433 . S
C502 H498 0.929 . S
C502 C504 1.378 . S
C502 C506 1.350 . S
C503 C506 1.463 . S
C503 C508 1.350 . S
C503 N511 1.427 . S
C504 H495 0.930 . S
C504 C502 1.378 . S
C504 C505 1.367 . S
C505 C504 1.367 . S
C505 C507 1.433 . S
C506 C502 1.350 . S
C506 C503 1.463 . S
C506 N510 1.427 . S
C507 H497 0.929 . S
C507 C505 1.433 . S
C507 N510 1.384 . S
C508 H499 0.929 . S
C508 C500 1.378 . S
C508 C503 1.350 . S
C509 H496 0.929 . S
C509 C501 1.433 . S
C509 N511 1.384 . S
N510 C506 1.427 . S
N510 C507 1.384 . S
N511 C503 1.427 . S
N511 C509 1.384 . S
H512 C518 0.913 1_565 S
H513 C522 0.930 . S
H514 C527 0.929 . S
H515 C525 0.929 . S
H516 C520 0.929 . S
H517 C526 0.929 . S
C518 H512 0.913 1_545 S
C518 C519 1.368 . S
C518 C526 1.394 . S
C519 C518 1.368 . S
C519 C527 1.433 . S
C520 H516 0.929 . S
C520 C522 1.378 . S
C520 C524 1.350 . S
C521 C524 1.463 . S
C521 C526 1.350 . S
C521 N529 1.427 . S
C522 H513 0.930 . S
C522 C520 1.378 . S
C522 C523 1.367 . S
C523 C522 1.367 . S
C523 C525 1.433 . S
C524 C520 1.350 . S
C524 C521 1.463 . S
C524 N528 1.427 . S
C525 H515 0.929 . S
C525 C523 1.433 . S
C525 N528 1.384 . S
C526 H517 0.929 . S
C526 C518 1.394 . S
C526 C521 1.350 . S
C527 H514 0.929 . S
C527 C519 1.433 . S
C527 N529 1.384 . S
N528 C524 1.427 . S
N528 C525 1.384 . S
N529 C521 1.427 . S
N529 C527 1.384 . S
H530 C536 0.930 . S
H531 C540 0.930 1_655 S
H532 C545 0.929 . S
H533 C543 0.929 . S
H534 C538 0.929 . S
H535 C544 0.929 . S
C536 H530 0.930 . S
C536 C537 1.367 . S
C536 C544 1.378 . S
C537 C536 1.367 . S
C537 C545 1.433 . S
C538 H534 0.929 . S
C538 C540 1.378 . S
C538 C542 1.350 . S
C539 C542 1.463 . S
C539 C544 1.350 . S
C539 N547 1.427 . S
C540 H531 0.930 1_455 S
C540 C538 1.378 . S
C540 C541 1.367 . S
C541 C540 1.367 . S
C541 C543 1.433 . S
C542 C538 1.350 . S
C542 C539 1.463 . S
C542 N546 1.427 . S
C543 H533 0.929 . S
C543 C541 1.433 . S
C543 N546 1.384 . S
C544 H535 0.929 . S
C544 C536 1.378 . S
C544 C539 1.350 . S
C545 H532 0.929 . S
C545 C537 1.433 . S
C545 N547 1.384 . S
N546 C542 1.427 . S
N546 C543 1.384 . S
N547 C539 1.427 . S
N547 C545 1.384 . S
H548 C554 0.930 . S
H549 C558 0.930 . S
H550 C563 0.917 1_545 S
H551 C561 0.929 . S
H552 C556 0.929 . S
H553 C562 0.929 . S
C554 H548 0.930 . S
C554 C555 1.367 . S
C554 C562 1.378 . S
C555 C554 1.367 . S
C555 C563 1.434 . S
C556 H552 0.929 . S
C556 C558 1.378 . S
C556 C560 1.350 . S
C557 C560 1.463 . S
C557 C562 1.350 . S
C557 N565 1.427 . S
C558 H549 0.930 . S
C558 C556 1.378 . S
C558 C559 1.367 . S
C559 C558 1.367 . S
C559 C561 1.433 . S
C560 C556 1.350 . S
C560 C557 1.463 . S
C560 N564 1.427 . S
C561 H551 0.929 . S
C561 C559 1.433 . S
C561 N564 1.384 . S
C562 H553 0.929 . S
C562 C554 1.378 . S
C562 C557 1.350 . S
C563 H550 0.917 1_565 S
C563 C555 1.434 . S
C563 N565 1.395 . S
N564 C560 1.427 . S
N564 C561 1.384 . S
N565 C557 1.427 . S
N565 C563 1.395 . S
H566 C572 0.930 . S
H567 C576 0.930 . S
H568 C581 0.929 . S
H569 C579 0.929 . S
H570 C574 0.929 . S
H571 C580 0.929 . S
C572 H566 0.930 . S
C572 C573 1.367 . S
C572 C580 1.378 . S
C573 C572 1.367 . S
C573 C581 1.433 . S
C574 H570 0.929 . S
C574 C576 1.378 . S
C574 C578 1.350 . S
C575 C578 1.463 . S
C575 C580 1.350 . S
C575 N583 1.427 . S
C576 H567 0.930 . S
C576 C574 1.378 . S
C576 C577 1.367 . S
C577 C576 1.367 . S
C577 C579 1.433 . S
C578 C574 1.350 . S
C578 C575 1.463 . S
C578 N582 1.427 . S
C579 H569 0.929 . S
C579 C577 1.433 . S
C579 N582 1.384 . S
C580 H571 0.929 . S
C580 C572 1.378 . S
C580 C575 1.350 . S
C581 H568 0.929 . S
C581 C573 1.433 . S
C581 N583 1.384 . S
N582 C578 1.427 . S
N582 C579 1.384 . S
N583 C575 1.427 . S
N583 C581 1.384 . S
H584 C590 0.930 1_545 S
H585 C594 0.930 . S
H586 C599 0.929 . S
H587 C597 0.929 . S
H588 C592 0.929 . S
H589 C598 0.929 . S
C590 H584 0.930 1_565 S
C590 C591 1.367 . S
C590 C598 1.378 . S
C591 C590 1.367 . S
C591 C599 1.433 . S
C592 H588 0.929 . S
C592 C594 1.378 . S
C592 C596 1.350 . S
C593 C596 1.463 . S
C593 C598 1.350 . S
C593 N601 1.427 . S
C594 H585 0.930 . S
C594 C592 1.378 . S
C594 C595 1.367 . S
C595 C594 1.367 . S
C595 C597 1.433 . S
C596 C592 1.350 . S
C596 C593 1.463 . S
C596 N600 1.427 . S
C597 H587 0.929 . S
C597 C595 1.433 . S
C597 N600 1.384 . S
C598 H589 0.929 . S
C598 C590 1.378 . S
C598 C593 1.350 . S
C599 H586 0.929 . S
C599 C591 1.433 . S
C599 N601 1.384 . S
N600 C596 1.427 . S
N600 C597 1.384 . S
N601 C593 1.427 . S
N601 C599 1.384 . S
H602 C608 0.930 . S
H603 C612 0.930 . S
H604 C617 0.929 . S
H605 C615 0.929 1_455 S
H606 C610 0.929 . S
H607 C616 0.929 . S
C608 H602 0.930 . S
C608 C609 1.367 . S
C608 C616 1.378 . S
C609 C608 1.367 . S
C609 C617 1.433 . S
C610 H606 0.929 . S
C610 C612 1.378 . S
C610 C614 1.350 . S
C611 C614 1.463 . S
C611 C616 1.350 . S
C611 N619 1.427 . S
C612 H603 0.930 . S
C612 C610 1.378 . S
C612 C613 1.367 . S
C613 C612 1.367 . S
C613 C615 1.433 . S
C614 C610 1.350 . S
C614 C611 1.463 . S
C614 N618 1.427 . S
C615 H605 0.929 1_655 S
C615 C613 1.433 . S
C615 N618 1.384 . S
C616 H607 0.929 . S
C616 C608 1.378 . S
C616 C611 1.350 . S
C617 H604 0.929 . S
C617 C609 1.433 . S
C617 N619 1.384 . S
N618 C614 1.427 . S
N618 C615 1.384 . S
N619 C611 1.427 . S
N619 C617 1.384 . S
H620 C626 0.930 . S
H621 C630 0.930 1_565 S
H622 C635 0.929 . S
H623 C633 0.929 . S
H624 C628 0.929 . S
H625 C634 0.929 . S
C626 H620 0.930 . S
C626 C627 1.367 . S
C626 C634 1.378 . S
C627 C626 1.367 . S
C627 C635 1.433 . S
C628 H624 0.929 . S
C628 C630 1.378 . S
C628 C632 1.350 . S
C629 C632 1.463 . S
C629 C634 1.350 . S
C629 N637 1.427 . S
C630 H621 0.930 1_545 S
C630 C628 1.378 . S
C630 C631 1.367 . S
C631 C630 1.367 . S
C631 C633 1.433 . S
C632 C628 1.350 . S
C632 C629 1.463 . S
C632 N636 1.427 . S
C633 H623 0.929 . S
C633 C631 1.433 . S
C633 N636 1.384 . S
C634 H625 0.929 . S
C634 C626 1.378 . S
C634 C629 1.350 . S
C635 H622 0.929 . S
C635 C627 1.433 . S
C635 N637 1.384 . S
N636 C632 1.427 . S
N636 C633 1.384 . S
N637 C629 1.427 . S
N637 C635 1.384 . S
H638 C644 0.930 . S
H639 C648 0.929 . S
H640 C653 0.929 . S
H641 C651 0.929 . S
H642 C646 0.929 . S
H643 C652 0.929 . S
C644 H638 0.930 . S
C644 C645 1.367 . S
C644 C652 1.378 . S
C645 C644 1.367 . S
C645 C653 1.433 . S
C646 H642 0.929 . S
C646 C648 1.378 . S
C646 C650 1.350 . S
C647 C650 1.463 . S
C647 C652 1.350 . S
C647 N655 1.427 . S
C648 H639 0.929 . S
C648 C646 1.378 . S
C648 C649 1.367 . S
C649 C648 1.367 . S
C649 C651 1.433 . S
C650 C646 1.350 . S
C650 C647 1.463 . S
C650 N654 1.427 . S
C651 H641 0.929 . S
C651 C649 1.433 . S
C651 N654 1.384 . S
C652 H643 0.929 . S
C652 C644 1.378 . S
C652 C647 1.350 . S
C653 H640 0.929 . S
C653 C645 1.433 . S
C653 N655 1.384 . S
N654 C650 1.427 . S
N654 C651 1.384 . S
N655 C647 1.427 . S
N655 C653 1.384 . S
H656 C662 0.930 . S
H657 C666 0.930 . S
H658 C671 0.929 . S
H659 C669 0.929 . S
H660 C664 0.929 . S
H661 C670 0.929 . S
C662 H656 0.930 . S
C662 C663 1.367 . S
C662 C670 1.378 . S
C663 C662 1.367 . S
C663 C671 1.433 . S
C664 H660 0.929 . S
C664 C666 1.378 . S
C664 C668 1.350 . S
C665 C668 1.463 . S
C665 C670 1.350 . S
C665 N673 1.427 . S
C666 H657 0.930 . S
C666 C664 1.378 . S
C666 C667 1.367 . S
C667 C666 1.367 . S
C667 C669 1.433 . S
C668 C664 1.350 . S
C668 C665 1.463 . S
C668 N672 1.427 . S
C669 H659 0.929 . S
C669 C667 1.433 . S
C669 N672 1.384 . S
C670 H661 0.929 . S
C670 C662 1.378 . S
C670 C665 1.350 . S
C671 H658 0.929 . S
C671 C663 1.433 . S
C671 N673 1.384 . S
N672 C668 1.427 . S
N672 C669 1.384 . S
N673 C665 1.427 . S
N673 C671 1.384 . S
H674 C680 0.930 . S
H675 C684 0.930 . S
H676 C689 0.929 . S
H677 C687 0.929 . S
H678 C682 0.929 . S
H679 C688 0.929 . S
C680 H674 0.930 . S
C680 C681 1.367 . S
C680 C688 1.378 . S
C681 C680 1.367 . S
C681 C689 1.433 . S
C682 H678 0.929 . S
C682 C684 1.378 . S
C682 C686 1.350 . S
C683 C686 1.463 . S
C683 C688 1.350 . S
C683 N691 1.427 . S
C684 H675 0.930 . S
C684 C682 1.378 . S
C684 C685 1.367 . S
C685 C684 1.367 . S
C685 C687 1.433 . S
C686 C682 1.350 . S
C686 C683 1.463 . S
C686 N690 1.427 . S
C687 H677 0.929 . S
C687 C685 1.433 . S
C687 N690 1.384 . S
C688 H679 0.929 . S
C688 C680 1.378 . S
C688 C683 1.350 . S
C689 H676 0.929 . S
C689 C681 1.433 . S
C689 N691 1.384 . S
N690 C686 1.427 . S
N690 C687 1.384 . S
N691 C683 1.427 . S
N691 C689 1.384 . S
H692 C698 0.930 . S
H693 C702 0.930 . S
H694 C707 0.929 . S
H695 C705 0.929 . S
H696 C700 0.929 . S
H697 C706 0.929 . S
C698 H692 0.930 . S
C698 C699 1.367 . S
C698 C706 1.378 . S
C699 C698 1.367 . S
C699 C707 1.433 . S
C700 H696 0.929 . S
C700 C702 1.378 . S
C700 C704 1.350 . S
C701 C704 1.463 . S
C701 C706 1.350 . S
C701 N709 1.427 . S
C702 H693 0.930 . S
C702 C700 1.378 . S
C702 C703 1.367 . S
C703 C702 1.367 . S
C703 C705 1.433 . S
C704 C700 1.350 . S
C704 C701 1.463 . S
C704 N708 1.427 . S
C705 H695 0.929 . S
C705 C703 1.433 . S
C705 N708 1.384 . S
C706 H697 0.929 . S
C706 C698 1.378 . S
C706 C701 1.350 . S
C707 H694 0.929 . S
C707 C699 1.433 . S
C707 N709 1.384 . S
N708 C704 1.427 . S
N708 C705 1.384 . S
N709 C701 1.427 . S
N709 C707 1.384 . S
H710 C716 0.930 . S
H711 C720 0.930 . S
H712 C725 0.929 . S
H713 C723 0.929 . S
H714 C718 0.929 . S
H715 C724 0.929 . S
C716 H710 0.930 . S
C716 C717 1.367 . S
C716 C724 1.378 . S
C717 C716 1.367 . S
C717 C725 1.433 . S
C718 H714 0.929 . S
C718 C720 1.378 . S
C718 C722 1.350 . S
C719 C722 1.463 . S
C719 C724 1.350 . S
C719 N727 1.427 . S
C720 H711 0.930 . S
C720 C718 1.378 . S
C720 C721 1.367 . S
C721 C720 1.367 . S
C721 C723 1.433 . S
C722 C718 1.350 . S
C722 C719 1.463 . S
C722 N726 1.427 . S
C723 H713 0.929 . S
C723 C721 1.433 . S
C723 N726 1.384 . S
C724 H715 0.929 . S
C724 C716 1.378 . S
C724 C719 1.350 . S
C725 H712 0.929 . S
C725 C717 1.433 . S
C725 N727 1.384 . S
N726 C722 1.427 . S
N726 C723 1.384 . S
N727 C719 1.427 . S
N727 C725 1.384 . S
H728 C734 0.930 . S
H729 C738 0.930 . S
H730 C743 0.929 . S
H731 C741 0.929 . S
H732 C736 0.929 . S
H733 C742 0.929 . S
C734 H728 0.930 . S
C734 C735 1.367 1_565 S
C734 C742 1.378 . S
C735 C734 1.367 1_545 S
C735 C743 1.433 . S
C736 H732 0.929 . S
C736 C738 1.378 . S
C736 C740 1.350 1_545 S
C737 C740 1.463 1_544 S
C737 C742 1.350 1_545 S
C737 N745 1.427 . S
C738 H729 0.930 . S
C738 C736 1.378 . S
C738 C739 1.367 1_545 S
C739 C738 1.367 1_565 S
C739 C741 1.433 . S
C740 C736 1.350 1_565 S
C740 C737 1.463 1_566 S
C740 N744 1.427 . S
C741 H731 0.929 . S
C741 C739 1.433 . S
C741 N744 1.384 . S
C742 H733 0.929 . S
C742 C734 1.378 . S
C742 C737 1.350 1_565 S
C743 H730 0.929 . S
C743 C735 1.433 . S
C743 N745 1.384 . S
N744 C740 1.427 . S
N744 C741 1.384 . S
N745 C737 1.427 . S
N745 C743 1.384 . S
H746 C752 0.930 1_655 S
H747 C756 0.930 1_455 S
H748 C761 0.929 . S
H749 C759 0.929 . S
H750 C754 0.929 . S
H751 C760 0.929 . S
C752 H746 0.930 1_455 S
C752 C753 1.367 . S
C752 C760 1.378 1_455 S
C753 C752 1.367 . S
C753 C761 1.433 . S
C754 H750 0.929 . S
C754 C756 1.378 1_455 S
C754 C758 1.350 1_455 S
C755 C758 1.463 1_456 S
C755 C760 1.350 1_455 S
C755 N763 1.427 . S
C756 H747 0.930 1_655 S
C756 C754 1.378 1_655 S
C756 C757 1.367 . S
C757 C756 1.367 . S
C757 C759 1.433 . S
C758 C754 1.350 1_655 S
C758 C755 1.463 1_654 S
C758 N762 1.427 . S
C759 H749 0.929 . S
C759 C757 1.433 . S
C759 N762 1.384 . S
C760 H751 0.929 . S
C760 C752 1.378 1_655 S
C760 C755 1.350 1_655 S
C761 H748 0.929 . S
C761 C753 1.433 . S
C761 N763 1.384 . S
N762 C758 1.427 . S
N762 C759 1.384 . S
N763 C755 1.427 . S
N763 C761 1.384 . S
H764 C770 0.930 1_565 S
H765 C774 0.930 1_545 S
H766 C779 0.929 . S
H767 C777 0.929 . S
H768 C772 0.929 . S
H769 C778 0.929 . S
C770 H764 0.930 1_545 S
C770 C771 1.367 . S
C770 C778 1.378 1_545 S
C771 C770 1.367 . S
C771 C779 1.433 . S
C772 H768 0.929 . S
C772 C774 1.378 1_545 S
C772 C776 1.350 1_545 S
C773 C776 1.463 1_546 S
C773 C778 1.350 1_545 S
C773 N781 1.427 . S
C774 H765 0.930 1_565 S
C774 C772 1.378 1_565 S
C774 C775 1.367 . S
C775 C774 1.367 . S
C775 C777 1.433 . S
C776 C772 1.350 1_565 S
C776 C773 1.463 1_564 S
C776 N780 1.427 . S
C777 H767 0.929 . S
C777 C775 1.433 . S
C777 N780 1.384 . S
C778 H769 0.929 . S
C778 C770 1.378 1_565 S
C778 C773 1.350 1_565 S
C779 H766 0.929 . S
C779 C771 1.433 . S
C779 N781 1.384 . S
N780 C776 1.427 . S
N780 C777 1.384 . S
N781 C773 1.427 . S
N781 C779 1.384 . S
H782 C788 0.930 . S
H783 C792 0.930 . S
H784 C797 0.929 . S
H785 C795 0.929 . S
H786 C790 0.929 . S
H787 C796 0.929 . S
C788 H782 0.930 . S
C788 C789 1.367 . S
C788 C796 1.378 . S
C789 C788 1.367 . S
C789 C797 1.433 . S
C790 H786 0.929 . S
C790 C792 1.378 . S
C790 C794 1.350 . S
C791 C794 1.463 1_656 S
C791 C796 1.350 . S
C791 N799 1.427 . S
C792 H783 0.930 . S
C792 C790 1.378 . S
C792 C793 1.367 . S
C793 C792 1.367 . S
C793 C795 1.433 . S
C794 C790 1.350 . S
C794 C791 1.463 1_454 S
C794 N798 1.427 . S
C795 H785 0.929 . S
C795 C793 1.433 . S
C795 N798 1.384 . S
C796 H787 0.929 . S
C796 C788 1.378 . S
C796 C791 1.350 . S
C797 H784 0.929 . S
C797 C789 1.433 . S
C797 N799 1.384 . S
N798 C794 1.427 . S
N798 C795 1.384 . S
N799 C791 1.427 . S
N799 C797 1.384 . S
C231 C6 1.361 . S
C235 C104 1.359 . S
C249 C20 1.362 . S
C253 C62 1.358 . S
C267 C76 1.362 . S
C271 C34 1.358 . S
C285 C48 1.358 . S
C289 C90 1.362 . S
C303 C118 1.356 . S
C307 C216 1.364 . S
C321 C174 1.356 . S
C325 C132 1.364 . S
C339 C188 1.360 . S
C343 C146 1.360 . S
C357 C202 1.364 . S
C361 C160 1.356 . S
C375 C9 1.458 . S
C379 C162 1.494 . S
C393 C23 1.455 . S
C397 C120 1.498 . S
C411 C134 1.493 . S
C415 C37 1.466 . S
C429 C51 1.466 . S
C433 C148 1.493 . S
C447 C65 1.459 . S
C451 C190 1.497 . S
C465 C204 1.493 . S
C469 C79 1.465 . S
C483 C93 1.464 . S
C487 C218 1.492 . S
C501 C176 1.494 . S
C505 C107 1.457 . S
C519 C121 1.458 1_545 S
C523 C50 1.493 . S
C537 C8 1.493 . S
C541 C135 1.465 1_455 S
C555 C149 1.457 1_565 S
C559 C22 1.497 . S
C573 C36 1.496 . S
C577 C163 1.453 1_655 S
C591 C177 1.457 1_565 S
C595 C78 1.494 . S
C609 C92 1.494 . S
C613 C191 1.465 1_655 S
C627 C106 1.492 . S
C631 C205 1.463 1_545 S
C645 C64 1.493 . S
C649 C219 1.466 1_455 S
C663 C63 1.564 . S
C667 C7 1.575 . S
C681 C77 1.573 . S
C685 C21 1.564 . S
C699 C35 1.568 . S
C703 C91 1.574 . S
C717 C105 1.575 . S
C721 C49 1.565 . S
C735 C175 1.568 . S
C739 C119 1.574 . S
C753 C189 1.566 . S
C757 C133 1.575 . S
C771 C147 1.566 . S
C775 C203 1.575 . S
C789 C217 1.564 . S
C793 C161 1.575 . S
