# Generated by pormake.
# Topology wir, (6)-cn, num edge types: 1
# Building blocks:
#     Node 0, Type 0, BuildingBlock: KUMBOL_clean_sbu_1, # of connection points: 6
#     Node 1, Type 0, BuildingBlock: KUMBOL_clean_sbu_1, # of connection points: 6
#     Node 2, Type 0, BuildingBlock: KUMBOL_clean_sbu_1, # of connection points: 6
#     Node 3, Type 0, BuildingBlock: KUMBOL_clean_sbu_1, # of connection points: 6
#     Node 4, Type 0, BuildingBlock: KUMBOL_clean_sbu_1, # of connection points: 6
#     Node 5, Type 0, BuildingBlock: KUMBOL_clean_sbu_1, # of connection points: 6
#     Node 6, Type 0, BuildingBlock: KUMBOL_clean_sbu_1, # of connection points: 6
#     Node 7, Type 0, BuildingBlock: KUMBOL_clean_sbu_1, # of connection points: 6
#     Node 8, Type 0, BuildingBlock: KUMBOL_clean_sbu_1, # of connection points: 6
#     Node 9, Type 0, BuildingBlock: KUMBOL_clean_sbu_1, # of connection points: 6
#     Node 10, Type 0, BuildingBlock: KUMBOL_clean_sbu_1, # of connection points: 6
#     Node 11, Type 0, BuildingBlock: KUMBOL_clean_sbu_1, # of connection points: 6
#     Node 12, Type 0, BuildingBlock: KUMBOL_clean_sbu_1, # of connection points: 6
#     Node 13, Type 0, BuildingBlock: KUMBOL_clean_sbu_1, # of connection points: 6
#     Node 14, Type 0, BuildingBlock: KUMBOL_clean_sbu_1, # of connection points: 6
#     Node 15, Type 0, BuildingBlock: KUMBOL_clean_sbu_1, # of connection points: 6
#     Node 16, Type 0, BuildingBlock: KUMBOL_clean_sbu_1, # of connection points: 6
#     Node 17, Type 0, BuildingBlock: KUMBOL_clean_sbu_1, # of connection points: 6
#     Node 18, Type 0, BuildingBlock: KUMBOL_clean_sbu_1, # of connection points: 6
#     Node 19, Type 0, BuildingBlock: KUMBOL_clean_sbu_1, # of connection points: 6
#     Node 20, Type 0, BuildingBlock: KUMBOL_clean_sbu_1, # of connection points: 6
#     Node 21, Type 0, BuildingBlock: KUMBOL_clean_sbu_1, # of connection points: 6
#     Node 22, Type 0, BuildingBlock: KUMBOL_clean_sbu_1, # of connection points: 6
#     Node 23, Type 0, BuildingBlock: KUMBOL_clean_sbu_1, # of connection points: 6
#     Node 24, Type 0, BuildingBlock: KUMBOL_clean_sbu_1, # of connection points: 6
#     Node 25, Type 0, BuildingBlock: KUMBOL_clean_sbu_1, # of connection points: 6
#     Node 26, Type 0, BuildingBlock: KUMBOL_clean_sbu_1, # of connection points: 6
#     Node 27, Type 0, BuildingBlock: KUMBOL_clean_sbu_1, # of connection points: 6
#     Node 28, Type 0, BuildingBlock: KUMBOL_clean_sbu_1, # of connection points: 6
#     Node 29, Type 0, BuildingBlock: KUMBOL_clean_sbu_1, # of connection points: 6
#     Node 30, Type 0, BuildingBlock: KUMBOL_clean_sbu_1, # of connection points: 6
#     Node 31, Type 0, BuildingBlock: KUMBOL_clean_sbu_1, # of connection points: 6
#     Edge 32, Type (0, 0), BuildingBlock: AJUNOK_clean_linker_0, # of connection points: 2
#     Edge 33, Type (0, 0), BuildingBlock: AJUNOK_clean_linker_0, # of connection points: 2
#     Edge 34, Type (0, 0), BuildingBlock: AJUNOK_clean_linker_0, # of connection points: 2
#     Edge 35, Type (0, 0), BuildingBlock: AJUNOK_clean_linker_0, # of connection points: 2
#     Edge 36, Type (0, 0), BuildingBlock: AJUNOK_clean_linker_0, # of connection points: 2
#     Edge 37, Type (0, 0), BuildingBlock: AJUNOK_clean_linker_0, # of connection points: 2
#     Edge 38, Type (0, 0), BuildingBlock: AJUNOK_clean_linker_0, # of connection points: 2
#     Edge 39, Type (0, 0), BuildingBlock: AJUNOK_clean_linker_0, # of connection points: 2
#     Edge 40, Type (0, 0), BuildingBlock: AJUNOK_clean_linker_0, # of connection points: 2
#     Edge 41, Type (0, 0), BuildingBlock: AJUNOK_clean_linker_0, # of connection points: 2
#     Edge 42, Type (0, 0), BuildingBlock: AJUNOK_clean_linker_0, # of connection points: 2
#     Edge 43, Type (0, 0), BuildingBlock: AJUNOK_clean_linker_0, # of connection points: 2
#     Edge 44, Type (0, 0), BuildingBlock: AJUNOK_clean_linker_0, # of connection points: 2
#     Edge 45, Type (0, 0), BuildingBlock: AJUNOK_clean_linker_0, # of connection points: 2
#     Edge 46, Type (0, 0), BuildingBlock: AJUNOK_clean_linker_0, # of connection points: 2
#     Edge 47, Type (0, 0), BuildingBlock: AJUNOK_clean_linker_0, # of connection points: 2
#     Edge 48, Type (0, 0), BuildingBlock: AJUNOK_clean_linker_0, # of connection points: 2
#     Edge 49, Type (0, 0), BuildingBlock: AJUNOK_clean_linker_0, # of connection points: 2
#     Edge 50, Type (0, 0), BuildingBlock: AJUNOK_clean_linker_0, # of connection points: 2
#     Edge 51, Type (0, 0), BuildingBlock: AJUNOK_clean_linker_0, # of connection points: 2
#     Edge 52, Type (0, 0), BuildingBlock: AJUNOK_clean_linker_0, # of connection points: 2
#     Edge 53, Type (0, 0), BuildingBlock: AJUNOK_clean_linker_0, # of connection points: 2
#     Edge 54, Type (0, 0), BuildingBlock: AJUNOK_clean_linker_0, # of connection points: 2
#     Edge 55, Type (0, 0), BuildingBlock: AJUNOK_clean_linker_0, # of connection points: 2
#     Edge 56, Type (0, 0), BuildingBlock: AJUNOK_clean_linker_0, # of connection points: 2
#     Edge 57, Type (0, 0), BuildingBlock: AJUNOK_clean_linker_0, # of connection points: 2
#     Edge 58, Type (0, 0), BuildingBlock: AJUNOK_clean_linker_0, # of connection points: 2
#     Edge 59, Type (0, 0), BuildingBlock: AJUNOK_clean_linker_0, # of connection points: 2
#     Edge 60, Type (0, 0), BuildingBlock: AJUNOK_clean_linker_0, # of connection points: 2
#     Edge 61, Type (0, 0), BuildingBlock: AJUNOK_clean_linker_0, # of connection points: 2
#     Edge 62, Type (0, 0), BuildingBlock: AJUNOK_clean_linker_0, # of connection points: 2
#     Edge 63, Type (0, 0), BuildingBlock: AJUNOK_clean_linker_0, # of connection points: 2
#     Edge 64, Type (0, 0), BuildingBlock: AJUNOK_clean_linker_0, # of connection points: 2
#     Edge 65, Type (0, 0), BuildingBlock: AJUNOK_clean_linker_0, # of connection points: 2
#     Edge 66, Type (0, 0), BuildingBlock: AJUNOK_clean_linker_0, # of connection points: 2
#     Edge 67, Type (0, 0), BuildingBlock: AJUNOK_clean_linker_0, # of connection points: 2
#     Edge 68, Type (0, 0), BuildingBlock: AJUNOK_clean_linker_0, # of connection points: 2
#     Edge 69, Type (0, 0), BuildingBlock: AJUNOK_clean_linker_0, # of connection points: 2
#     Edge 70, Type (0, 0), BuildingBlock: AJUNOK_clean_linker_0, # of connection points: 2
#     Edge 71, Type (0, 0), BuildingBlock: AJUNOK_clean_linker_0, # of connection points: 2
#     Edge 72, Type (0, 0), BuildingBlock: AJUNOK_clean_linker_0, # of connection points: 2
#     Edge 73, Type (0, 0), BuildingBlock: AJUNOK_clean_linker_0, # of connection points: 2
#     Edge 74, Type (0, 0), BuildingBlock: AJUNOK_clean_linker_0, # of connection points: 2
#     Edge 75, Type (0, 0), BuildingBlock: AJUNOK_clean_linker_0, # of connection points: 2
#     Edge 76, Type (0, 0), BuildingBlock: AJUNOK_clean_linker_0, # of connection points: 2
#     Edge 77, Type (0, 0), BuildingBlock: AJUNOK_clean_linker_0, # of connection points: 2
#     Edge 78, Type (0, 0), BuildingBlock: AJUNOK_clean_linker_0, # of connection points: 2
#     Edge 79, Type (0, 0), BuildingBlock: AJUNOK_clean_linker_0, # of connection points: 2
#     Edge 80, Type (0, 0), BuildingBlock: AJUNOK_clean_linker_0, # of connection points: 2
#     Edge 81, Type (0, 0), BuildingBlock: AJUNOK_clean_linker_0, # of connection points: 2
#     Edge 82, Type (0, 0), BuildingBlock: AJUNOK_clean_linker_0, # of connection points: 2
#     Edge 83, Type (0, 0), BuildingBlock: AJUNOK_clean_linker_0, # of connection points: 2
#     Edge 84, Type (0, 0), BuildingBlock: AJUNOK_clean_linker_0, # of connection points: 2
#     Edge 85, Type (0, 0), BuildingBlock: AJUNOK_clean_linker_0, # of connection points: 2
#     Edge 86, Type (0, 0), BuildingBlock: AJUNOK_clean_linker_0, # of connection points: 2
#     Edge 87, Type (0, 0), BuildingBlock: AJUNOK_clean_linker_0, # of connection points: 2
#     Edge 88, Type (0, 0), BuildingBlock: AJUNOK_clean_linker_0, # of connection points: 2
#     Edge 89, Type (0, 0), BuildingBlock: AJUNOK_clean_linker_0, # of connection points: 2
#     Edge 90, Type (0, 0), BuildingBlock: AJUNOK_clean_linker_0, # of connection points: 2
#     Edge 91, Type (0, 0), BuildingBlock: AJUNOK_clean_linker_0, # of connection points: 2
#     Edge 92, Type (0, 0), BuildingBlock: AJUNOK_clean_linker_0, # of connection points: 2
#     Edge 93, Type (0, 0), BuildingBlock: AJUNOK_clean_linker_0, # of connection points: 2
#     Edge 94, Type (0, 0), BuildingBlock: AJUNOK_clean_linker_0, # of connection points: 2
#     Edge 95, Type (0, 0), BuildingBlock: AJUNOK_clean_linker_0, # of connection points: 2
#     Edge 96, Type (0, 0), BuildingBlock: AJUNOK_clean_linker_0, # of connection points: 2
#     Edge 97, Type (0, 0), BuildingBlock: AJUNOK_clean_linker_0, # of connection points: 2
#     Edge 98, Type (0, 0), BuildingBlock: AJUNOK_clean_linker_0, # of connection points: 2
#     Edge 99, Type (0, 0), BuildingBlock: AJUNOK_clean_linker_0, # of connection points: 2
#     Edge 100, Type (0, 0), BuildingBlock: AJUNOK_clean_linker_0, # of connection points: 2
#     Edge 101, Type (0, 0), BuildingBlock: AJUNOK_clean_linker_0, # of connection points: 2
#     Edge 102, Type (0, 0), BuildingBlock: AJUNOK_clean_linker_0, # of connection points: 2
#     Edge 103, Type (0, 0), BuildingBlock: AJUNOK_clean_linker_0, # of connection points: 2
#     Edge 104, Type (0, 0), BuildingBlock: AJUNOK_clean_linker_0, # of connection points: 2
#     Edge 105, Type (0, 0), BuildingBlock: AJUNOK_clean_linker_0, # of connection points: 2
#     Edge 106, Type (0, 0), BuildingBlock: AJUNOK_clean_linker_0, # of connection points: 2
#     Edge 107, Type (0, 0), BuildingBlock: AJUNOK_clean_linker_0, # of connection points: 2
#     Edge 108, Type (0, 0), BuildingBlock: AJUNOK_clean_linker_0, # of connection points: 2
#     Edge 109, Type (0, 0), BuildingBlock: AJUNOK_clean_linker_0, # of connection points: 2
#     Edge 110, Type (0, 0), BuildingBlock: AJUNOK_clean_linker_0, # of connection points: 2
#     Edge 111, Type (0, 0), BuildingBlock: AJUNOK_clean_linker_0, # of connection points: 2
#     Edge 112, Type (0, 0), BuildingBlock: AJUNOK_clean_linker_0, # of connection points: 2
#     Edge 113, Type (0, 0), BuildingBlock: AJUNOK_clean_linker_0, # of connection points: 2
#     Edge 114, Type (0, 0), BuildingBlock: AJUNOK_clean_linker_0, # of connection points: 2
#     Edge 115, Type (0, 0), BuildingBlock: AJUNOK_clean_linker_0, # of connection points: 2
#     Edge 116, Type (0, 0), BuildingBlock: AJUNOK_clean_linker_0, # of connection points: 2
#     Edge 117, Type (0, 0), BuildingBlock: AJUNOK_clean_linker_0, # of connection points: 2
#     Edge 118, Type (0, 0), BuildingBlock: AJUNOK_clean_linker_0, # of connection points: 2
#     Edge 119, Type (0, 0), BuildingBlock: AJUNOK_clean_linker_0, # of connection points: 2
#     Edge 120, Type (0, 0), BuildingBlock: AJUNOK_clean_linker_0, # of connection points: 2
#     Edge 121, Type (0, 0), BuildingBlock: AJUNOK_clean_linker_0, # of connection points: 2
#     Edge 122, Type (0, 0), BuildingBlock: AJUNOK_clean_linker_0, # of connection points: 2
#     Edge 123, Type (0, 0), BuildingBlock: AJUNOK_clean_linker_0, # of connection points: 2
#     Edge 124, Type (0, 0), BuildingBlock: AJUNOK_clean_linker_0, # of connection points: 2
#     Edge 125, Type (0, 0), BuildingBlock: AJUNOK_clean_linker_0, # of connection points: 2
#     Edge 126, Type (0, 0), BuildingBlock: AJUNOK_clean_linker_0, # of connection points: 2
#     Edge 127, Type (0, 0), BuildingBlock: AJUNOK_clean_linker_0, # of connection points: 2
# Relax obj value: 0.450
# Max RMSD: 0.191
# Mean RMSD: 0.191
data_MOF--net-wir--node1-KUMBOL_clean_sbu_1--edge1-AJUNOK_clean_linker_0
_symmetry_space_group_name_H-M    P1
_symmetry_Int_Tables_number       1
_symmetry_cell_setting            triclinic
loop_
_symmetry_equiv_pos_as_xyz
'x, y, z'
_cell_length_a     32.887938
_cell_length_b     32.93253
_cell_length_c     75.290831
_cell_angle_alpha  89.958875
_cell_angle_beta   90.342768
_cell_angle_gamma 90.062199
loop_
_atom_site_label
_atom_site_type_symbol
_atom_site_fract_x
_atom_site_fract_y
_atom_site_fract_z
_atom_type_partial_charge
C0 C 0.32754 0.31176 0.40676 0.0
C1 C 0.29751 0.37348 0.39501 0.0
C2 C 0.29345 0.33347 0.40127 0.0
C3 C 0.33618 0.39172 0.39474 0.0
C4 C 0.36662 0.32883 0.4054 0.0
C5 C 0.37069 0.36936 0.39981 0.0
N6 N 0.32223 0.27277 0.41232 0.0
C7 C 0.35494 0.24785 0.41488 0.0
C8 C 0.40032 0.30403 0.4089 0.0
C9 C 0.39443 0.2631 0.41314 0.0
Gd10 Gd 0.21175 0.17728 0.40331 0.0
Gd11 Gd 0.25523 0.25844 0.4212 0.0
N12 N 0.25629 0.31516 0.40211 0.0
C13 C 0.26229 0.39417 0.38975 0.0
C14 C 0.22294 0.33326 0.39468 0.0
C15 C 0.22538 0.37328 0.38855 0.0
H16 H 0.19405 0.318 0.39406 0.0
H17 H 0.19846 0.38853 0.3836 0.0
H18 H 0.26479 0.08766 0.40905 0.0
H19 H 0.35103 0.21637 0.41834 0.0
H20 H 0.24953 1.01862 0.4196 0.0
H21 H 0.26324 0.42617 0.3865 0.0
H22 H 0.33985 0.42273 0.3902 0.0
H23 H 0.14157 0.19866 0.37247 0.0
H24 H 0.43097 0.31578 0.40774 0.0
H25 H 0.4203 0.24339 0.41532 0.0
H26 H 0.10406 1.00907 0.41406 0.0
H27 H 0.40046 0.38328 0.39888 0.0
H28 H 0.04308 0.11427 0.37849 0.0
H29 H 0.07199 0.1759 0.36442 0.0
N30 N 0.15128 0.15071 0.39089 0.0
C31 C 0.13692 0.11573 0.39774 0.0
C32 C 0.12937 0.17123 0.3783 0.0
C33 C 0.07355 0.12408 0.38196 0.0
C34 C 0.08989 0.15869 0.37389 0.0
C35 C 0.09772 0.10132 0.39365 0.0
H36 H 0.05473 0.05236 0.39802 0.0
N37 N 0.20246 0.10601 0.40784 0.0
C38 C 0.16397 0.09208 0.40676 0.0
C39 C 0.18457 1.02639 0.41771 0.0
C40 C 0.15353 0.05234 0.41192 0.0
C41 C 0.23338 0.07888 0.41079 0.0
C42 C 0.22493 0.03927 0.41645 0.0
O43 O 0.28135 0.25242 0.39198 0.0
O44 O 0.22431 0.22943 0.38012 0.0
O45 O 0.27452 0.16645 0.39522 0.0
O46 O 0.2248 0.17597 0.37577 0.0
O47 O 0.17741 0.27469 0.41744 0.0
O48 O 0.14879 0.21716 0.40651 0.0
O49 O 0.18691 0.20279 0.42859 0.0
O50 O 0.2416 0.21841 0.44333 0.0
O51 O 0.23369 0.30567 0.43854 0.0
O52 O 0.29669 0.28752 0.43996 0.0
O53 O 0.25845 0.14551 0.4268 0.0
O54 O 0.29433 0.2001 0.43579 0.0
C55 C 0.25971 0.24992 0.37717 0.0
C56 C 0.14106 0.25575 0.4119 0.0
C57 C 0.27082 0.12647 0.36872 0.0
C58 C 0.3119 0.09227 0.34694 0.0
C59 C 0.24265 0.06939 0.35251 0.0
C60 C 0.23889 0.09886 0.36547 0.0
C61 C 0.27852 0.06661 0.34302 0.0
C62 C 0.3078 0.12247 0.35984 0.0
C63 C 0.26204 0.16328 0.37857 0.0
C64 C 0.11316 1.0391 0.40974 0.0
C65 C 0.08514 0.06369 0.40057 0.0
H66 H 0.17801 0.99557 0.42185 0.0
C67 C 0.20657 0.20175 0.44348 0.0
C68 C 0.29097 0.15826 0.4371 0.0
C69 C 0.28344 0.3574 0.44049 0.0
C70 C 0.2545 0.4231 0.4383 0.0
C71 C 0.32322 0.41573 0.44949 0.0
C72 C 0.31889 0.37344 0.44819 0.0
C73 C 0.28993 0.44071 0.44537 0.0
C74 C 0.25655 0.38379 0.43195 0.0
C75 C 0.27045 0.31532 0.44367 0.0
H76 H 0.21756 0.04908 0.34964 0.0
H77 H 0.20995 0.10168 0.37211 0.0
H78 H 0.28044 0.04329 0.33298 0.0
H79 H 0.33273 0.14314 0.36262 0.0
H80 H 0.35005 0.42858 0.45569 0.0
H81 H 0.34168 0.35367 0.45398 0.0
H82 H 0.28983 0.47192 0.4499 0.0
H83 H 0.22898 0.37168 0.42604 0.0
C84 C 1.01962 0.07482 0.65499 0.0
C85 C 0.95258 0.05092 0.64632 0.0
C86 C 0.99237 0.04296 0.65239 0.0
C87 C 0.94059 0.09108 0.64286 0.0
C88 C 1.00841 0.11488 0.65061 0.0
C89 C 0.96853 0.12293 0.64484 0.0
N90 N 0.05832 0.06572 0.66035 0.0
C91 C 0.0876 0.09526 0.66068 0.0
C92 C 1.03792 0.14541 0.65165 0.0
C93 C 0.07779 0.13542 0.65639 0.0
Gd94 Gd 0.14997 0.95717 0.65394 0.0
Gd95 Gd 0.06638 0.99921 0.67191 0.0
N96 N 1.00509 1.00421 0.65562 0.0
C97 C 0.92589 1.01829 0.64404 0.0
C98 C 0.97985 0.97213 0.65222 0.0
C99 C 0.93995 0.9787 0.64641 0.0
H100 H 0.98918 0.94143 0.65475 0.0
H101 H 0.91967 0.95323 0.64428 0.0
H102 H 0.24071 1.0074 0.66396 0.0
H103 H 0.11871 0.08817 0.66391 0.0
H104 H 0.30809 0.98929 0.67524 0.0
H105 H 0.89442 1.02336 0.64038 0.0
H106 H 0.91002 0.09772 0.63827 0.0
H107 H 0.1282 0.88977 0.62264 0.0
H108 H 1.03052 0.17658 0.64836 0.0
H109 H 0.10104 0.1587 0.65677 0.0
H110 H 0.317 0.84618 0.6646 0.0
H111 H 0.95918 0.1536 0.64159 0.0
H112 H 0.21229 0.79083 0.62703 0.0
H113 H 0.15059 0.82121 0.61345 0.0
N114 N 0.17641 0.89757 0.64124 0.0
C115 C 0.21122 0.88236 0.64804 0.0
C116 C 0.15564 0.87696 0.62831 0.0
C117 C 0.20264 0.8209 0.631 0.0
C118 C 0.16798 0.83804 0.62323 0.0
C119 C 0.22549 0.84366 0.64318 0.0
H120 H 0.27404 0.79989 0.64683 0.0
N121 N 0.22053 0.94583 0.66076 0.0
C122 C 0.23446 0.90767 0.65828 0.0
C123 C 0.29969 0.92525 0.67099 0.0
C124 C 0.27397 0.89596 0.66358 0.0
C125 C 0.24796 0.97559 0.66532 0.0
C126 C 0.28719 0.96565 0.67113 0.0
O127 O 0.07127 1.02233 0.64231 0.0
O128 O 0.0979 0.96682 0.63073 0.0
O129 O 0.15707 1.02012 0.64559 0.0
O130 O 0.15589 0.97002 0.62624 0.0
O131 O 0.05112 0.92145 0.66682 0.0
O132 O 0.11033 0.89384 0.65715 0.0
O133 O 0.12002 0.93377 0.67819 0.0
O134 O 0.1071 0.98547 0.69444 0.0
O135 O 1.01773 0.97887 0.68888 0.0
O136 O 1.03995 0.04062 0.69086 0.0
O137 O 0.17895 1.00621 0.67714 0.0
O138 O 0.12333 0.03955 0.68676 0.0
C139 C 0.07555 1.0008 0.62776 0.0
C140 C 0.07118 0.88552 0.66172 0.0
C141 C 0.20354 1.01981 0.62157 0.0
C142 C 0.24254 0.06126 0.60161 0.0
C143 C 0.27352 1.00189 0.61514 0.0
C144 C 0.23672 0.99303 0.62309 0.0
C145 C 0.27669 1.03619 0.60458 0.0
C146 C 0.2062 0.05378 0.61053 0.0
C147 C 0.16478 1.00813 0.62923 0.0
C148 C 0.28724 0.85619 0.66019 0.0
C149 C 0.26286 0.82992 0.65003 0.0
H150 H 0.33024 0.91762 0.67529 0.0
C151 C 0.12391 0.95072 0.69345 0.0
C152 C 0.16533 1.03794 0.68759 0.0
C153 C 0.96944 1.03122 0.6927 0.0
C154 C 0.89829 1.01668 0.6961 0.0
C155 C 0.92011 0.08613 0.69209 0.0
C156 C 0.96058 0.07299 0.69168 0.0
C157 C 0.88895 0.05809 0.69519 0.0
C158 C 0.93778 1.00351 0.6929 0.0
C159 C 1.01096 1.01558 0.69471 0.0
H160 H 0.29889 0.98114 0.61643 0.0
H161 H 0.23374 0.96417 0.62963 0.0
H162 H 0.30492 0.0415 0.59759 0.0
H163 H 0.17968 0.07249 0.60799 0.0
H164 H 0.91329 0.11823 0.69145 0.0
H165 H 0.98468 0.09532 0.69089 0.0
H166 H 0.85857 0.06871 0.69812 0.0
H167 H 0.94464 0.97131 0.69408 0.0
C168 C 0.25779 0.76448 0.90501 0.0
C169 C 0.28908 0.70097 0.8962 0.0
C170 C 0.29268 0.74128 0.90223 0.0
C171 C 0.25033 0.68426 0.89316 0.0
C172 C 0.21906 0.74858 0.90107 0.0
C173 C 0.21545 0.70809 0.89545 0.0
N174 N 0.2623 0.80355 0.91075 0.0
C175 C 0.2294 0.82869 0.91216 0.0
C176 C 0.18516 0.77397 0.90277 0.0
C177 C 0.19046 0.81434 0.90804 0.0
Gd178 Gd 0.37002 0.89899 0.90547 0.0
Gd179 Gd 0.32708 0.81785 0.92266 0.0
N180 N 0.32999 0.75821 0.90543 0.0
C181 C 0.32457 0.6785 0.8936 0.0
C182 C 0.36464 0.73721 0.90152 0.0
C183 C 0.36243 0.69694 0.89579 0.0
H184 H 0.39429 0.75017 0.90317 0.0
H185 H 0.38996 0.67996 0.89327 0.0
H186 H 0.34176 0.99185 0.92318 0.0
H187 H 0.23302 0.85972 0.91642 0.0
H188 H 0.37603 0.05046 0.93594 0.0
H189 H 0.32325 0.64719 0.88961 0.0
H190 H 0.24704 0.65311 0.88875 0.0
H191 H 0.42757 0.86914 0.87045 0.0
H192 H 0.15484 0.76288 0.89983 0.0
H193 H 0.16445 0.83426 0.90918 0.0
H194 H 0.51367 1.03674 0.91717 0.0
H195 H 0.18584 0.69502 0.89268 0.0
H196 H 0.53594 0.94075 0.87054 0.0
H197 H 0.49362 0.88646 0.85726 0.0
N198 N 0.43041 0.91551 0.89014 0.0
C199 C 0.45292 0.94603 0.89731 0.0
C200 C 0.44436 0.89466 0.87567 0.0
C201 C 0.50634 0.93408 0.87607 0.0
C202 C 0.4824 0.90365 0.86845 0.0
C203 C 0.49172 0.95575 0.89067 0.0
H204 H 0.54451 0.99459 0.89389 0.0
N205 N 0.39639 0.96248 0.91475 0.0
C206 C 0.43566 0.96968 0.9104 0.0
C207 C 0.43552 1.03144 0.92772 0.0
C208 C 0.45663 1.00384 0.91712 0.0
C209 C 0.3744 0.9925 0.9228 0.0
C210 C 0.3937 1.02685 0.9297 0.0
O211 O 0.30157 0.8249 0.89332 0.0
O212 O 0.35895 0.84699 0.88232 0.0
O213 O 0.31024 0.90407 0.8936 0.0
O214 O 0.35903 0.94798 0.88732 0.0
O215 O 0.40578 0.8051 0.92068 0.0
O216 O 0.43286 0.85977 0.90698 0.0
O217 O 0.39618 0.88193 0.93171 0.0
O218 O 0.34214 0.85614 0.94521 0.0
O219 O 0.34398 0.76896 0.9401 0.0
O220 O 0.28239 0.79206 0.94059 0.0
O221 O 0.32229 0.9279 0.92906 0.0
O222 O 0.28639 0.87344 0.93755 0.0
C223 C 0.3236 0.82729 0.87886 0.0
C224 C 0.44151 0.82313 0.91408 0.0
C225 C 0.31594 0.92847 0.8643 0.0
C226 C 0.27827 0.94629 0.83783 0.0
C227 C 0.33523 0.89981 0.836 0.0
C228 C 0.3433 0.90637 0.85385 0.0
C229 C 0.3018 0.9185 0.82823 0.0
C230 C 0.28374 0.9488 0.85626 0.0
C231 C 0.32289 0.93378 0.88324 0.0
C232 C 0.49678 1.01121 0.91183 0.0
C233 C 0.51422 0.98736 0.89851 0.0
H234 H 0.45038 0.05823 0.93302 0.0
C235 C 0.37736 0.87236 0.94621 0.0
C236 C 0.2898 0.91494 0.93919 0.0
C237 C 0.29031 0.72145 0.94348 0.0
C238 C 0.31625 0.65516 0.94814 0.0
C239 C 0.2474 0.67033 0.95693 0.0
C240 C 0.25355 0.71067 0.95161 0.0
C241 C 0.27992 0.64294 0.95618 0.0
C242 C 0.31688 0.69078 0.93837 0.0
C243 C 0.30651 0.76287 0.94513 0.0
H244 H 0.35541 0.88126 0.82811 0.0
H245 H 0.37078 0.89422 0.85931 0.0
H246 H 0.29707 0.91466 0.81438 0.0
H247 H 0.26581 0.96964 0.86413 0.0
H248 H 0.21974 0.66192 0.96371 0.0
H249 H 0.23147 0.73363 0.95512 0.0
H250 H 0.27847 0.61479 0.9636 0.0
H251 H 0.34549 0.69886 0.93226 0.0
C252 C 0.56179 1.00255 0.15368 0.0
C253 C 0.62327 1.0324 0.1417 0.0
C254 C 0.58462 1.03684 0.14943 0.0
C255 C 0.63936 0.99338 0.13907 0.0
C256 C 0.57682 0.9634 0.15005 0.0
C257 C 0.61614 0.95898 0.14318 0.0
N258 N 0.52327 1.00795 0.15989 0.0
C259 C 0.49777 0.97548 0.16197 0.0
C260 C 0.55134 0.92997 0.15285 0.0
C261 C 0.51147 0.93612 0.15853 0.0
Gd262 Gd 0.42904 0.11794 0.15247 0.0
Gd263 Gd 0.50965 0.07405 0.17033 0.0
N264 N 0.56791 0.07435 0.15192 0.0
C265 C 0.64423 0.06728 0.13647 0.0
C266 C 0.58676 0.10806 0.14523 0.0
C267 C 0.62529 0.10504 0.13759 0.0
H268 H 0.57303 0.13754 0.14573 0.0
H269 H 0.64061 0.13195 0.13278 0.0
H270 H 0.34052 0.06306 0.15734 0.0
H271 H 0.46691 0.97954 0.16629 0.0
H272 H 0.27129 0.07638 0.16813 0.0
H273 H 0.67454 0.06524 0.13108 0.0
H274 H 0.66922 0.98947 0.13331 0.0
H275 H 0.44858 0.18963 0.12212 0.0
H276 H 0.56176 0.89939 0.1502 0.0
H277 H 0.49129 0.91049 0.16035 0.0
H278 H 0.25932 0.22181 0.16452 0.0
H279 H 0.62842 0.9291 0.1405 0.0
H280 H 0.36234 0.28592 0.12909 0.0
H281 H 0.42403 0.25868 0.11456 0.0
N282 N 0.40138 0.17844 0.14066 0.0
C283 C 0.36622 0.19179 0.14764 0.0
C284 C 0.42108 0.20106 0.12814 0.0
C285 C 0.37285 0.25562 0.1323 0.0
C286 C 0.40749 0.24022 0.12397 0.0
C287 C 0.35097 0.23075 0.14393 0.0
H288 H 0.30142 0.27257 0.14889 0.0
N289 N 0.35768 0.12569 0.15689 0.0
C290 C 0.34311 0.16388 0.15631 0.0
C291 C 0.27795 0.14149 0.16708 0.0
C292 C 0.30328 0.17328 0.16164 0.0
C293 C 0.33112 0.09414 0.15941 0.0
C294 C 0.29146 0.1015 0.16525 0.0
O295 O 0.50185 0.0487 0.14133 0.0
O296 O 0.48311 0.10758 0.13044 0.0
O297 O 0.41833 0.0561 0.1431 0.0
O298 O 0.42781 0.10731 0.12463 0.0
O299 O 0.52628 0.15191 0.16711 0.0
O300 O 0.46915 0.18047 0.15561 0.0
O301 O 0.45457 0.14353 0.17759 0.0
O302 O 0.46984 0.08935 0.1925 0.0
O303 O 0.55735 0.09198 0.1878 0.0
O304 O 0.5358 1.02988 0.18861 0.0
O305 O 0.39782 0.07052 0.17585 0.0
O306 O 0.45237 1.03489 0.18496 0.0
C307 C 0.50215 0.07186 0.12714 0.0
C308 C 0.50767 0.18811 0.16125 0.0
C309 C 0.37659 0.06249 0.11721 0.0
C310 C 0.33092 1.01655 0.10226 0.0
C311 C 0.31793 0.08916 0.10133 0.0
C312 C 0.35217 0.09554 0.11177 0.0
C313 C 0.30731 0.04989 0.09654 0.0
C314 C 0.3656 1.02287 0.11265 0.0
C315 C 0.4144 0.0702 0.12675 0.0
C316 C 0.28939 0.21347 0.16001 0.0
C317 C 0.31331 0.24232 0.15109 0.0
H318 H 0.24712 0.14724 0.17138 0.0
C319 C 0.45319 0.12435 0.19248 0.0
C320 C 0.41068 1.03815 0.1862 0.0
C321 C 0.60593 0.03993 0.19117 0.0
C322 C 0.66956 0.07187 0.19516 0.0
C323 C 0.65811 1.00503 0.20772 0.0
C324 C 0.61843 1.00609 0.20106 0.0
C325 C 0.68225 0.03975 0.20609 0.0
C326 C 0.63509 0.06695 0.18483 0.0
C327 C 0.5644 0.05482 0.19302 0.0
H328 H 0.29955 0.11463 0.09703 0.0
H329 H 0.35974 0.12651 0.11534 0.0
H330 H 0.28 0.04541 1.08866 0.0
H331 H 0.38382 0.99732 0.11708 0.0
H332 H 0.66741 0.9807 0.21651 0.0
H333 H 0.59667 0.98351 0.20539 0.0
H334 H 0.70643 0.04419 0.21549 0.0
H335 H 0.62574 0.09266 0.17682 0.0
C336 C 0.32513 0.76549 0.27477 0.0
C337 C 0.29464 0.70669 0.28886 0.0
C338 C 0.29059 0.74397 0.2799 0.0
C339 C 0.3335 0.69017 0.29173 0.0
C340 C 0.3642 0.75025 0.27864 0.0
C341 C 0.3682 0.71191 0.28663 0.0
N342 N 0.32008 0.80301 0.26736 0.0
C343 C 0.35294 0.82751 0.26441 0.0
C344 C 0.398 0.77457 0.27489 0.0
C345 C 0.39227 0.81361 0.26808 0.0
Gd346 Gd 0.21175 0.90069 0.27556 0.0
Gd347 Gd 0.2532 0.81691 0.25747 0.0
N348 N 0.25318 0.76082 0.27699 0.0
C349 C 0.25949 0.68762 0.29503 0.0
C350 C 0.21907 0.7428 0.28365 0.0
C351 C 0.22174 0.70593 0.29267 0.0
H352 H 0.18957 0.75626 0.28226 0.0
H353 H 0.1946 0.69156 0.29779 0.0
H354 H 0.26618 0.98914 0.2699 0.0
H355 H 0.34938 0.85775 0.25926 0.0
H356 H 0.25185 0.05847 0.25931 0.0
H357 H 0.26105 0.65944 0.3021 0.0
H358 H 0.33709 0.66112 0.29831 0.0
H359 H 0.13975 0.8789 0.30544 0.0
H360 H 0.42855 0.76396 0.27768 0.0
H361 H 0.4182 0.83301 0.26557 0.0
H362 H 0.10658 0.07005 0.26437 0.0
H363 H 0.39799 0.69933 0.28941 0.0
H364 H 0.04308 0.96503 0.29888 0.0
H365 H 0.07047 0.90255 0.3129 0.0
N366 N 0.15078 0.92707 0.28725 0.0
C367 C 0.13744 0.96265 0.28058 0.0
C368 C 0.12819 0.90664 0.29958 0.0
C369 C 0.07344 0.95481 0.29565 0.0
C370 C 0.08889 0.91971 0.30369 0.0
C371 C 0.09836 0.97752 0.28435 0.0
H372 H 0.05629 1.02717 0.27982 0.0
N373 N 0.2036 0.97185 0.27103 0.0
C374 C 0.16525 0.98626 0.272 0.0
C375 C 0.18681 0.05167 0.26116 0.0
C376 C 0.1554 1.02616 0.26682 0.0
C377 C 0.23491 0.99844 0.26812 0.0
C378 C 0.22699 1.03818 0.26245 0.0
O379 O 0.27891 0.82464 0.28673 0.0
O380 O 0.22148 0.84656 0.29795 0.0
O381 O 0.27448 0.90598 0.28623 0.0
O382 O 0.21905 0.90901 0.3029 0.0
O383 O 0.17558 0.80338 0.26085 0.0
O384 O 0.14863 0.86143 0.27192 0.0
O385 O 0.18626 0.87568 0.25014 0.0
O386 O 0.23953 0.8569 0.23516 0.0
O387 O 0.22991 0.76728 0.24164 0.0
O388 O 0.29262 0.78585 0.23891 0.0
O389 O 0.25993 0.9307 0.25252 0.0
O390 O 0.29211 0.87466 0.24236 0.0
C391 C 0.25654 0.82596 0.3012 0.0
C392 C 0.14016 0.82306 0.26649 0.0
C393 C 0.27821 0.93026 0.31728 0.0
C394 C 0.33117 0.97176 0.33067 0.0
C395 C 0.27382 0.94805 0.34836 0.0
C396 C 0.25834 0.92802 0.33374 0.0
C397 C 0.30976 0.96967 0.34696 0.0
C398 C 0.31513 0.95121 0.31581 0.0
C399 C 0.25876 0.90993 0.30228 0.0
C400 C 0.11518 0.03987 0.2687 0.0
C401 C 0.08659 1.01549 0.27752 0.0
H402 H 0.18068 0.08256 0.25697 0.0
C403 C 0.20559 0.87583 0.23523 0.0
C404 C 0.29058 0.91678 0.2416 0.0
C405 C 0.28001 0.71591 0.24123 0.0
C406 C 0.26096 0.64593 0.24441 0.0
C407 C 0.33225 0.66406 0.24277 0.0
C408 C 0.32118 0.70465 0.2403 0.0
C409 C 0.30197 0.63438 0.24394 0.0
C410 C 0.25144 0.68693 0.24646 0.0
C411 C 0.2663 0.75706 0.23652 0.0
H412 H 0.25712 0.94806 0.36065 0.0
H413 H 0.23012 0.91137 0.33528 0.0
H414 H 0.31882 0.98705 0.3585 0.0
H415 H 0.3301 0.95321 0.30306 0.0
H416 H 0.36381 0.65519 0.24176 0.0
H417 H 0.34449 0.72686 0.23734 0.0
H418 H 0.31001 0.60314 0.24151 0.0
H419 H 0.21958 0.69545 0.24716 0.0
C420 C 0.55656 0.07431 0.52275 0.0
C421 C 0.62367 0.052 0.53234 0.0
C422 C 0.58401 0.04315 0.52634 0.0
C423 C 0.63642 0.09265 0.53339 0.0
C424 C 0.56841 0.11508 0.52508 0.0
C425 C 0.60895 0.12412 0.52963 0.0
N426 N 0.51734 0.06425 0.51861 0.0
C427 C 0.48794 0.09357 0.51827 0.0
C428 C 0.5387 0.14531 0.52378 0.0
C429 C 0.49818 0.13438 0.52086 0.0
Gd430 Gd 0.42609 0.95899 0.52756 0.0
Gd431 Gd 0.50973 0.99631 0.50882 0.0
N432 N 0.57082 1.00406 0.52483 0.0
C433 C 0.64909 1.01973 0.53722 0.0
C434 C 0.59509 0.97249 0.5299 0.0
C435 C 0.63449 0.97988 0.53628 0.0
H436 H 0.58477 0.94157 0.52854 0.0
H437 H 0.65394 0.95478 0.54004 0.0
H438 H 0.33877 1.01554 0.51971 0.0
H439 H 0.45646 0.08625 0.51599 0.0
H440 H 0.27037 1.00096 0.50795 0.0
H441 H 0.67983 1.02524 0.54188 0.0
H442 H 0.66709 0.1001 0.53759 0.0
H443 H 0.4466 0.88965 0.55908 0.0
H444 H 0.54644 0.17698 0.52574 0.0
H445 H 0.47478 0.15745 0.52045 0.0
H446 H 0.25481 0.85718 0.51736 0.0
H447 H 0.61879 0.15532 0.53119 0.0
H448 H 0.35852 0.79421 0.55336 0.0
H449 H 0.42192 0.82089 0.56703 0.0
N450 N 0.39752 0.90144 0.54135 0.0
C451 C 0.36172 0.8882 0.53465 0.0
C452 C 0.41821 0.87866 0.55356 0.0
C453 C 0.36896 0.82448 0.55006 0.0
C454 C 0.4046 0.83957 0.55789 0.0
C455 C 0.34636 0.84941 0.53863 0.0
H456 H 0.29642 0.80754 0.53404 0.0
N457 N 0.35444 0.95306 0.52323 0.0
C458 C 0.33897 0.9154 0.52519 0.0
C459 C 0.275 0.93646 0.51239 0.0
C460 C 0.29928 0.90557 0.51955 0.0
C461 C 0.32886 0.9843 0.5188 0.0
C462 C 0.28959 0.97629 0.51244 0.0
O463 O 0.51439 1.01375 0.53949 0.0
O464 O 0.47659 0.96477 0.55189 0.0
O465 O 0.4385 1.0226 0.53262 0.0
O466 O 0.40714 0.98319 0.55258 0.0
O467 O 0.52355 0.91984 0.51284 0.0
O468 O 0.46606 0.89524 0.52535 0.0
O469 O 0.44611 0.92745 0.50284 0.0
O470 O 0.46757 0.97939 0.4875 0.0
O471 O 0.55807 0.97379 0.49217 0.0
O472 O 0.53553 1.03497 0.48859 0.0
O473 O 0.39662 1.00431 0.50315 0.0
O474 O 0.45296 1.03674 0.49365 0.0
C475 C 0.50488 0.99462 0.55442 0.0
C476 C 0.50373 0.88542 0.51921 0.0
C477 C 0.41069 0.05383 0.55925 0.0
C478 C 0.35689 0.10015 0.56809 0.0
C479 C 0.41216 0.08336 0.58856 0.0
C480 C 0.42807 0.05701 0.57617 0.0
C481 C 0.37633 0.10394 0.58487 0.0
C482 C 0.37662 0.07723 0.55483 0.0
C483 C 0.42269 1.01892 0.54866 0.0
C484 C 0.2848 0.86583 0.52203 0.0
C485 C 0.30845 0.83764 0.53156 0.0
H486 H 0.24435 0.93034 0.50776 0.0
C487 C 0.44764 0.94596 0.48774 0.0
C488 C 0.41089 1.03524 0.49245 0.0
C489 C 0.60596 1.02659 0.48799 0.0
C490 C 0.6772 1.01204 0.48814 0.0
C491 C 0.65449 0.08174 0.48571 0.0
C492 C 0.61426 0.06807 0.48538 0.0
C493 C 0.68614 0.05349 0.48641 0.0
C494 C 0.63776 1.00056 0.49251 0.0
C495 C 0.56494 1.00986 0.48562 0.0
H496 H 0.42612 0.08558 0.60147 0.0
H497 H 0.45235 1.03731 0.5803 0.0
H498 H 0.36265 0.12012 0.59581 0.0
H499 H 0.36383 0.07439 0.54164 0.0
H500 H 0.66112 0.11363 0.48382 0.0
H501 H 0.59 0.08959 0.48293 0.0
H502 H 0.7167 0.06363 0.48391 0.0
H503 H 0.6315 0.96842 0.49434 0.0
C504 C 0.25411 0.31263 0.77458 0.0
C505 C 0.28559 0.37387 0.78621 0.0
C506 C 0.28901 0.33505 0.77855 0.0
C507 C 0.24687 0.39073 0.78889 0.0
C508 C 0.21537 0.32819 0.77851 0.0
C509 C 0.21186 0.36789 0.78512 0.0
N510 N 0.25881 0.2735 0.76893 0.0
C511 C 0.22609 0.24798 0.76781 0.0
C512 C 0.18156 0.30267 0.77657 0.0
C513 C 0.18707 0.26223 0.77155 0.0
Gd514 Gd 0.36649 0.17868 0.77547 0.0
Gd515 Gd 0.32458 0.25787 0.75862 0.0
N516 N 0.32612 0.3171 0.77638 0.0
C517 C 0.32113 0.39396 0.79152 0.0
C518 C 0.3604 0.33508 0.78308 0.0
C519 C 0.35845 0.37396 0.79051 0.0
H520 H 0.3895 0.3204 0.7825 0.0
H521 H 0.38585 0.38868 0.79529 0.0
H522 H 0.3396 0.08393 0.75817 0.0
H523 H 0.22967 0.21661 0.76413 0.0
H524 H 0.37615 1.02499 0.7472 0.0
H525 H 0.31993 0.4243 0.79702 0.0
H526 H 0.24367 0.42075 0.79459 0.0
H527 H 0.41574 0.20948 0.81345 0.0
H528 H 0.15124 0.31344 0.77954 0.0
H529 H 0.16122 0.24197 0.77054 0.0
H530 H 0.50884 1.03788 0.77327 0.0
H531 H 0.18227 0.38062 0.788 0.0
H532 H 0.5259 0.1421 0.81705 0.0
H533 H 0.48098 0.19672 0.82794 0.0
N534 N 0.42149 0.16148 0.79452 0.0
C535 C 0.44523 0.13046 0.78887 0.0
C536 C 0.43362 0.1845 0.80875 0.0
C537 C 0.49662 0.14706 0.81074 0.0
C538 C 0.47126 0.17773 0.81698 0.0
C539 C 0.48348 0.12251 0.7967 0.0
H540 H 0.53674 0.08379 0.79609 0.0
N541 N 0.39202 0.11252 0.76973 0.0
C542 C 0.43002 0.10521 0.77589 0.0
C543 C 0.43296 0.04247 0.75933 0.0
C544 C 0.45192 0.07047 0.77062 0.0
C545 C 0.37177 0.08263 0.7606 0.0
C546 C 0.39217 0.04788 0.75484 0.0
O547 O 0.30138 0.25689 0.78806 0.0
O548 O 0.35632 0.22831 0.79947 0.0
O549 O 0.3017 0.18538 0.7797 0.0
O550 O 0.33768 0.13695 0.79296 0.0
O551 O 0.40295 0.27235 0.76077 0.0
O552 O 0.43033 0.21726 0.77401 0.0
O553 O 0.39379 0.19368 0.74914 0.0
O554 O 0.33859 0.21916 0.73638 0.0
O555 O 0.34399 0.30219 0.74002 0.0
O556 O 0.2806 0.28468 0.74036 0.0
O557 O 0.32222 0.14757 0.75103 0.0
O558 O 0.28286 0.20119 0.7446 0.0
C559 C 0.32297 0.25139 0.80248 0.0
C560 C 0.439 0.25423 0.7671 0.0
C561 C 0.2771 0.15661 0.80693 0.0
C562 C 0.23747 0.10767 0.82283 0.0
C563 C 0.27705 0.1575 0.83911 0.0
C564 C 0.29327 0.17081 0.82309 0.0
C565 C 0.24989 0.12486 0.83909 0.0
C566 C 0.24442 0.12951 0.8072 0.0
C567 C 0.30212 0.15488 0.79099 0.0
C568 C 0.49115 0.06387 0.77745 0.0
C569 C 0.50695 0.08991 0.79049 0.0
H570 H 0.44868 1.01541 0.75495 0.0
C571 C 0.3738 0.20344 0.73484 0.0
C572 C 0.28753 0.16003 0.7421 0.0
C573 C 0.29508 0.35318 0.73626 0.0
C574 C 0.33065 0.4154 0.73441 0.0
C575 C 0.26521 0.40782 0.71962 0.0
C576 C 0.26337 0.36785 0.72562 0.0
C577 C 0.30101 0.42983 0.72256 0.0
C578 C 0.32291 0.3803 0.74368 0.0
C579 C 0.307 0.31086 0.73497 0.0
H580 H 0.29011 0.16825 0.85144 0.0
H581 H 0.32099 0.18817 0.82356 0.0
H582 H 0.24406 0.1094 0.85153 0.0
H583 H 0.23411 0.1164 0.79471 0.0
H584 H 0.24243 0.41891 0.71041 0.0
H585 H 0.24026 0.34759 0.72039 0.0
H586 H 0.3084 0.45381 0.71358 0.0
H587 H 0.34701 0.36932 0.75219 0.0
C588 C 1.02109 1.00167 1.03174 0.0
C589 C 0.95474 1.03207 1.03643 0.0
C590 C 0.99621 1.03611 1.03227 0.0
C591 C 0.93879 0.99356 1.04039 0.0
C592 C 1.00549 0.96328 1.0363 0.0
C593 C 0.96417 0.9594 1.04056 0.0
N594 N 0.06108 1.00629 1.02729 0.0
C595 C 0.08684 0.97363 1.02707 0.0
C596 C 1.0318 0.92985 1.03628 0.0
C597 C 0.07265 0.93512 1.03178 0.0
Gd598 Gd 0.15449 0.1151 1.02756 0.0
Gd599 Gd 0.07446 0.06853 1.01317 0.0
N600 N 1.01243 0.07332 1.02845 0.0
C601 C 0.93043 0.0669 1.0364 0.0
C602 C 0.98983 0.10775 1.03074 0.0
C603 C 0.94844 0.10498 1.03452 0.0
H604 H 1.00234 0.13753 1.02909 0.0
H605 H 0.93026 0.13224 1.03564 0.0
H606 H 0.2468 0.09168 1.0084 0.0
H607 H 0.11807 0.97723 1.02301 0.0
H608 H 0.30436 0.12961 0.99666 0.0
H609 H 0.89806 0.06491 1.03885 0.0
H610 H 0.90695 0.98996 1.04363 0.0
H611 H 0.12442 0.16504 1.06543 0.0
H612 H 1.02085 0.8998 1.03964 0.0
H613 H 0.09301 0.90933 1.03156 0.0
H614 H 0.29049 0.26194 1.02246 0.0
H615 H 0.95147 0.93005 1.04395 0.0
H616 H 0.1888 0.27715 1.06727 0.0
H617 H 0.13631 0.23094 1.07919 0.0
N618 N 0.17051 0.17189 1.0457 0.0
C619 C 0.20064 0.19624 1.03958 0.0
C620 C 0.14835 0.1836 1.06018 0.0
C621 C 0.18418 0.24763 1.06123 0.0
C622 C 0.15469 0.22156 1.06804 0.0
C623 C 0.20811 0.23484 1.04702 0.0
H624 H 0.24541 0.28906 1.0456 0.0
N625 N 0.2188 0.14312 1.02064 0.0
C626 C 0.22552 0.18138 1.02647 0.0
C627 C 0.2868 0.18581 1.00903 0.0
C628 C 0.25924 0.20412 1.02061 0.0
C629 C 0.24812 0.12372 1.01099 0.0
C630 C 0.2819 0.14495 1.00469 0.0
O631 O 0.08105 0.04729 1.04258 0.0
O632 O 0.10515 0.10556 1.05195 0.0
O633 O 0.15325 0.05125 1.03405 0.0
O634 O 0.20189 0.09151 1.04425 0.0
O635 O 0.05999 0.14732 1.01347 0.0
O636 O 0.11481 0.17737 1.02595 0.0
O637 O 0.14189 0.13866 1.00016 0.0
O638 O 0.10381 0.08791 0.98883 0.0
O639 O 1.01931 0.06957 0.99804 0.0
O640 O 0.0595 1.01768 0.99618 0.0
O641 O 0.18249 0.0714 1.00265 0.0
O642 O 0.13077 1.02784 0.99923 0.0
C643 C 0.08506 0.07098 1.05628 0.0
C644 C 0.0774 0.18435 1.01922 0.0
C645 C 0.17992 1.03894 1.06276 0.0
C646 C 0.20317 0.98752 1.08362 0.0
C647 C 0.17127 0.05017 0.09416 0.0
C648 C 0.1686 0.06419 1.07686 0.0
C649 C 0.18958 1.0129 0.09755 0.0
C650 C 0.19391 0.99961 1.06611 0.0
C651 C 0.18436 0.05559 1.04494 0.0
C652 C 0.26528 0.24363 1.02709 0.0
C653 C 0.23971 0.259 1.04029 0.0
H654 H 0.31306 0.20221 1.00418 0.0
C655 C 0.12436 0.12057 0.98675 0.0
C656 C 0.17051 1.03531 0.99492 0.0
C657 C 1.02409 1.037 0.97073 0.0
C658 C 0.99298 0.07715 0.94794 0.0
C659 C 0.05435 0.03962 0.94153 0.0
C660 C 0.05461 1.02462 0.95897 0.0
C661 C 1.02491 0.06799 0.93635 0.0
C662 C 0.99217 0.05968 0.96463 0.0
C663 C 1.02747 1.03541 0.98992 0.0
H664 H 0.16276 0.06984 0.10503 0.0
H665 H 0.15938 0.09529 1.07463 0.0
H666 H 0.19699 1.00675 0.1111 0.0
H667 H 0.20251 0.98086 1.05495 0.0
H668 H 0.07836 1.03149 0.93246 0.0
H669 H 0.07957 1.00574 0.96347 0.0
H670 H 1.02782 0.08346 0.92378 0.0
H671 H 0.96972 0.06917 0.97429 0.0
C672 C 0.93207 0.96761 0.79025 0.0
C673 C 0.91488 1.03172 0.77674 0.0
C674 C 0.90524 0.99118 0.78099 0.0
C675 C 0.95424 0.04635 0.7803 0.0
C676 C 0.97054 0.98277 0.79516 0.0
C677 C 0.98222 1.02174 0.78946 0.0
N678 N 0.91903 0.93065 0.79552 0.0
C679 C 0.94213 0.90795 0.80692 0.0
C680 C 0.99548 0.95862 0.80594 0.0
C681 C 0.98084 0.92137 0.81215 0.0
Gd682 Gd 0.82786 0.82018 0.75997 0.0
Gd683 Gd 0.86406 0.90266 0.77938 0.0
N684 N 0.86816 0.97521 0.77765 0.0
C685 C 0.8842 0.05656 0.76981 0.0
C686 C 0.83707 1.00066 0.77276 0.0
C687 C 0.84473 0.04127 0.7684 0.0
H688 H 0.80628 0.98989 0.77163 0.0
H689 H 0.82019 0.06065 0.76387 0.0
H690 H 0.88492 0.74971 0.78229 0.0
H691 H 0.93192 0.87824 0.81105 0.0
H692 H 0.87392 0.68074 0.79414 0.0
H693 H 0.89017 0.08795 0.76638 0.0
H694 H 0.96278 0.07702 0.77666 0.0
H695 H 0.73446 0.86925 0.76464 0.0
H696 H 1.02554 0.96883 0.80987 0.0
H697 H 0.99968 0.90259 0.82065 0.0
H698 H 0.72979 0.6599 0.78863 0.0
H699 H 1.01208 1.03366 0.79265 0.0
H700 H 0.64802 0.77625 0.77548 0.0
H701 H 0.66426 0.84807 0.76913 0.0
N702 N 0.75971 0.81018 0.76908 0.0
C703 C 0.75135 0.7708 0.77351 0.0
C704 C 0.72883 0.83786 0.76772 0.0
C705 C 0.67941 0.78533 0.7737 0.0
C706 C 0.68847 0.82594 0.7702 0.0
C707 C 0.711 0.75722 0.77553 0.0
H708 H 0.67272 0.70539 0.78146 0.0
N709 N 0.82229 0.75965 0.7764 0.0
C710 C 0.78365 0.74471 0.77733 0.0
C711 C 0.80923 0.68176 0.78941 0.0
C712 C 0.77622 0.70511 0.78356 0.0
C713 C 0.85446 0.7377 0.78277 0.0
C714 C 0.84835 0.69845 0.78941 0.0
O715 O 0.89833 0.88496 0.75514 0.0
O716 O 0.8469 0.86293 0.73929 0.0
O717 O 0.84891 0.77545 0.74165 0.0
O718 O 0.7858 0.79368 0.74074 0.0
O719 O 0.82165 0.93399 0.75442 0.0
O720 O 0.78847 0.87778 0.74481 0.0
O721 O 0.81437 0.81218 0.79111 0.0
O722 O 0.85947 0.85424 0.80428 0.0
O723 O 0.80108 0.88283 0.77895 0.0
O724 O 0.82824 0.91135 0.80277 0.0
O725 O 0.90458 0.80568 0.76341 0.0
O726 O 0.92836 0.86255 0.77681 0.0
C727 C 0.88054 0.88267 0.73987 0.0
C728 C 0.79074 0.91974 0.74351 0.0
C729 C 0.79926 0.72434 0.73732 0.0
C730 C 0.82988 0.65952 0.73586 0.0
C731 C 0.76174 0.66861 0.72423 0.0
C732 C 0.76462 0.71005 0.72833 0.0
C733 C 0.79567 0.64358 0.72704 0.0
C734 C 0.82659 0.69636 0.74438 0.0
C735 C 0.81222 0.76686 0.73603 0.0
C736 C 0.73609 0.6906 0.78425 0.0
C737 C 0.70357 0.71652 0.78013 0.0
H738 H 0.80468 0.65122 0.79434 0.0
C739 C 0.83212 0.82335 0.8063 0.0
C740 C 0.93889 0.82528 0.77023 0.0
C741 C 0.75655 0.90859 0.80209 0.0
C742 C 0.72863 0.96956 0.81505 0.0
C743 C 0.71542 0.90407 0.82867 0.0
C744 C 0.73821 0.88538 0.81543 0.0
C745 C 0.71225 0.94628 0.82899 0.0
C746 C 0.74721 0.94956 0.80077 0.0
C747 C 0.79585 0.89473 0.79545 0.0
H748 H 0.73568 0.65725 0.71693 0.0
H749 H 0.74164 0.73092 0.72352 0.0
H750 H 0.79695 0.61418 0.72064 0.0
H751 H 0.8534 0.70694 0.75135 0.0
H752 H 0.70356 0.88622 0.83956 0.0
H753 H 0.74475 0.85356 0.81664 0.0
H754 H 0.69957 0.96039 0.84068 0.0
H755 H 0.7604 0.96684 0.7901 0.0
C756 C 0.88434 0.19453 0.53684 0.0
C757 C 0.82716 0.20252 0.51679 0.0
C758 C 0.86078 0.17998 0.52307 0.0
C759 C 0.82038 0.24178 0.52335 0.0
C760 C 0.87533 0.23232 0.54466 0.0
C761 C 0.84436 0.25662 0.53736 0.0
N762 N 0.91405 0.17018 0.54345 0.0
C763 C 0.93462 0.18113 0.55856 0.0
C764 C 0.89694 0.24402 0.55986 0.0
C765 C 0.92637 0.21808 0.56696 0.0
Gd766 Gd 1.01347 0.07466 0.5081 0.0
Gd767 Gd 0.93201 0.11421 0.52544 0.0
N768 N 0.86774 0.14163 0.51743 0.0
C769 C 0.79964 0.18374 0.5052 0.0
C770 C 0.838 0.12167 0.50806 0.0
C771 C 0.80397 0.14249 0.50164 0.0
H772 H 0.83864 0.0894 0.50608 0.0
H773 H 0.78049 0.12636 0.49442 0.0
H774 H 0.07799 0.13751 0.53086 0.0
H775 H 0.95863 0.16255 0.5639 0.0
H776 H 0.14816 0.13258 0.54198 0.0
H777 H 0.77321 0.19979 0.5002 0.0
H778 H 0.7953 0.25993 0.51839 0.0
H779 H 0.97018 0.97991 0.51366 0.0
H780 H 0.89083 0.27275 0.56632 0.0
H781 H 0.94326 0.22686 0.57872 0.0
H782 H 0.17913 0.9899 0.53823 0.0
H783 H 0.83766 0.2862 0.5429 0.0
H784 H 0.06973 0.89949 0.52362 0.0
H785 H 0.99659 0.91058 0.5174 0.0
N786 N 1.02792 1.00817 0.51758 0.0
C787 C 0.06757 1.00278 0.52235 0.0
C788 C 1.00213 0.97575 0.51631 0.0
C789 C 0.05836 0.93013 0.52199 0.0
C790 C 1.01699 0.93627 0.51852 0.0
C791 C 0.08409 0.96366 0.52428 0.0
H792 H 0.13856 0.92963 0.53073 0.0
N793 N 0.07256 0.07421 0.5256 0.0
C794 C 0.09041 1.03697 0.52684 0.0
C795 C 0.15165 0.06788 0.53811 0.0
C796 C 0.13054 1.03278 0.53302 0.0
C797 C 0.09223 0.10817 0.53144 0.0
C798 C 0.13212 0.10549 0.53778 0.0
O799 O 0.94813 0.14124 0.49916 0.0
O800 O 0.97455 0.08761 0.48561 0.0
O801 O 0.06264 0.09769 0.49208 0.0
O802 O 0.04148 1.03608 0.48837 0.0
O803 O 0.90247 0.06873 0.50113 0.0
O804 O 0.95743 1.03282 0.49333 0.0
O805 O 1.01224 0.05022 0.53789 0.0
O806 O 0.981 0.10294 0.54984 0.0
O807 O 0.93502 0.05093 0.53317 0.0
O808 O 0.88481 0.09088 0.54201 0.0
O809 O 1.02554 0.15272 0.51048 0.0
O810 O 0.97155 0.17773 0.52525 0.0
C811 C 0.95837 0.12268 0.48462 0.0
C812 C 0.91573 1.03581 0.4914 0.0
C813 C 0.11205 0.04649 0.48771 0.0
C814 C 0.18269 0.06382 0.48643 0.0
C815 C 0.16255 0.99343 0.48418 0.0
C816 C 0.12176 1.0054 0.48493 0.0
C817 C 0.1931 1.02298 0.48404 0.0
C818 C 0.14324 0.07386 0.49142 0.0
C819 C 0.07041 0.0619 0.4855 0.0
C820 C 0.14811 0.99391 0.5338 0.0
C821 C 0.125 0.95945 0.5294 0.0
H822 H 0.18289 0.06655 0.54234 0.0
C823 C 1.0047 0.06996 0.55279 0.0
C824 C 1.00759 0.18756 0.51767 0.0
C825 C 0.907 0.04092 0.5619 0.0
C826 C 0.88271 0.99209 0.58377 0.0
C827 C 0.91739 0.0545 0.59308 0.0
C828 C 0.91898 0.06726 0.57556 0.0
C829 C 0.89938 1.01743 0.59718 0.0
C830 C 0.89165 1.0025 0.56603 0.0
C831 C 0.90329 0.0556 0.54363 0.0
H832 H 0.17014 0.96192 0.48188 0.0
H833 H 0.09811 0.98294 0.48291 0.0
H834 H 0.2236 1.01471 0.48009 0.0
H835 H 0.13596 0.10571 0.49343 0.0
H836 H 0.92739 0.07463 0.6036 0.0
H837 H 0.92858 0.09796 0.57282 0.0
H838 H 0.89539 1.01102 0.611 0.0
H839 H 0.88338 0.98304 0.55511 0.0
C840 C 0.6412 0.13031 0.2902 0.0
C841 C 0.63312 0.0718 0.27114 0.0
C842 C 0.65562 0.10591 0.27686 0.0
C843 C 0.59401 0.06513 0.27793 0.0
C844 C 0.60327 0.12209 0.29806 0.0
C845 C 0.57908 0.09029 0.2914 0.0
N846 N 0.66573 0.16042 0.29627 0.0
C847 C 0.6551 0.18183 0.31112 0.0
C848 C 0.59132 0.14542 0.31262 0.0
C849 C 0.61772 0.17487 0.31939 0.0
Gd850 Gd 0.7573 0.25995 0.25855 0.0
Gd851 Gd 0.71933 0.1793 0.27704 0.0
N852 N 0.69364 0.11317 0.2709 0.0
C853 C 0.65151 0.0443 0.25956 0.0
C854 C 0.71339 0.08354 0.26153 0.0
C855 C 0.69241 0.04936 0.25535 0.0
H856 H 0.74552 0.08471 0.2591 0.0
H857 H 0.70805 1.02662 0.24759 0.0
H858 H 0.69205 0.32569 0.27951 0.0
H859 H 0.67422 0.20551 0.31635 0.0
H860 H 0.69572 0.39482 0.2914 0.0
H861 H 0.63534 1.01773 0.2548 0.0
H862 H 0.57587 0.03962 0.27342 0.0
H863 H 0.85303 0.22058 0.26429 0.0
H864 H 0.56231 0.14026 0.31899 0.0
H865 H 0.60905 0.19269 0.33083 0.0
H866 H 0.83786 0.42769 0.29036 0.0
H867 H 0.54948 0.08398 0.29702 0.0
H868 H 0.93097 0.32106 0.27589 0.0
H869 H 0.92161 0.24828 0.2689 0.0
N870 N 0.82326 0.27734 0.26819 0.0
C871 C 0.82766 0.31708 0.27296 0.0
C872 C 0.85635 0.25244 0.26714 0.0
C873 C 0.9006 0.30922 0.27372 0.0
C874 C 0.89544 0.26804 0.26984 0.0
C875 C 0.86645 0.33409 0.27577 0.0
H876 H 0.89936 0.38828 0.28361 0.0
N877 N 0.75578 0.32105 0.27485 0.0
C878 C 0.79277 0.33941 0.27674 0.0
C879 C 0.76063 0.39952 0.2884 0.0
C880 C 0.79612 0.37916 0.28346 0.0
C881 C 0.72127 0.34016 0.28039 0.0
C882 C 0.7232 0.37962 0.28721 0.0
O883 O 0.69021 0.19169 0.25063 0.0
O884 O 0.7431 0.21951 0.23695 0.0
O885 O 0.73544 0.30825 0.24166 0.0
O886 O 0.79581 0.28348 0.23789 0.0
O887 O 0.76333 0.14861 0.25261 0.0
O888 O 0.79974 0.20332 0.24476 0.0
O889 O 0.78175 0.26121 0.28813 0.0
O890 O 0.72868 0.23082 0.30026 0.0
O891 O 0.78385 0.18731 0.28171 0.0
O892 O 0.74913 0.13836 0.29499 0.0
O893 O 0.67931 0.2708 0.26071 0.0
O894 O 0.65565 0.21839 0.27699 0.0
C895 C 0.70814 0.20296 0.23608 0.0
C896 C 0.79654 0.16165 0.24294 0.0
C897 C 0.78887 0.35375 0.23545 0.0
C898 C 0.77686 0.42474 0.231 0.0
C899 C 0.84598 0.40001 0.23309 0.0
C900 C 0.83107 0.36047 0.2347 0.0
C901 C 0.81885 0.43201 0.23031 0.0
C902 C 0.76267 0.38661 0.2359 0.0
C903 C 0.77117 0.31313 0.23449 0.0
C904 C 0.83472 0.39697 0.28539 0.0
C905 C 0.86978 0.37456 0.28148 0.0
H906 H 0.76191 0.4302 0.29355 0.0
C907 C 0.76139 0.25515 0.30288 0.0
C908 C 0.64515 0.25338 0.26867 0.0
C909 C 0.8077 0.16255 0.30979 0.0
C910 C 0.84997 0.12292 0.32915 0.0
C911 C 0.81033 0.17754 0.34138 0.0
C912 C 0.79113 0.18131 0.32489 0.0
C913 C 0.84038 0.14803 0.34357 0.0
C914 C 0.84122 0.13697 0.312 0.0
C915 C 0.78412 0.15747 0.29336 0.0
H916 H 0.87841 0.40531 0.23245 0.0
H917 H 0.85234 0.3354 0.23501 0.0
H918 H 0.83074 0.46113 0.22645 0.0
H919 H 0.73002 0.38128 0.23618 0.0
H920 H 0.7978 0.19278 0.35282 0.0
H921 H 0.76133 0.19463 0.32458 0.0
H922 H 0.84905 0.13904 0.35689 0.0
H923 H 0.85057 0.11849 0.3008 0.0
C924 C 0.70081 0.88702 1.03892 0.0
C925 C 0.75986 0.88018 1.02017 0.0
C926 C 0.72565 0.9023 1.02588 0.0
C927 C 0.76638 0.84077 1.02668 0.0
C928 C 0.70878 0.84861 1.04645 0.0
C929 C 0.74085 0.82498 1.03983 0.0
N930 N 0.6702 0.91086 1.04491 0.0
C931 C 0.64791 0.89883 1.0593 0.0
C932 C 0.68481 0.83545 1.06059 0.0
C933 C 0.65476 0.86102 1.06726 0.0
Gd934 Gd 0.57208 1.00626 1.00931 0.0
Gd935 Gd 0.65235 0.96576 1.02605 0.0
N936 N 0.71847 0.9405 1.02006 0.0
C937 C 0.78745 0.89907 1.00876 0.0
C938 C 0.74817 0.96067 1.01088 0.0
C939 C 0.78233 0.94001 1.00465 0.0
H940 H 0.74699 0.99286 1.00858 0.0
H941 H 0.80493 0.95587 0.99687 0.0
H942 H 0.50756 0.94348 1.03259 0.0
H943 H 0.62354 0.91701 1.0644 0.0
H944 H 0.43907 0.94917 1.04522 0.0
H945 H 0.81403 0.88313 1.00399 0.0
H946 H 0.79197 0.82293 1.02217 0.0
H947 H 0.61474 0.10081 1.01443 0.0
H948 H 0.68979 0.80605 1.06669 0.0
H949 H 0.63632 0.85133 1.07834 0.0
H950 H 0.4073 0.0913 1.04055 0.0
H951 H 0.74695 0.79505 1.04519 0.0
H952 H 0.51562 0.18134 1.02439 0.0
H953 H 0.58843 0.17017 1.01792 0.0
N954 N 0.55729 0.07258 1.01877 0.0
C955 C 0.51766 0.07803 1.02345 0.0
C956 C 0.58296 0.105 1.01727 0.0
C957 C 0.52692 0.15067 1.02285 0.0
C958 C 0.56812 0.14449 1.01928 0.0
C959 C 0.50128 0.11719 1.02537 0.0
H960 H 0.44733 0.15144 1.03211 0.0
N961 N 0.51249 1.00655 1.02659 0.0
C962 C 0.49487 0.04391 1.02801 0.0
C963 C 0.43502 1.01374 1.0409 0.0
C964 C 0.45544 0.0484 1.03489 0.0
C965 C 0.49345 0.97289 1.03313 0.0
C966 C 0.45444 0.97601 1.04035 0.0
O967 O 0.6376 0.93831 0.99957 0.0
O968 O 0.60937 0.99214 0.98679 0.0
O969 O 0.52411 0.9863 0.99211 0.0
O970 O 0.54655 0.04816 0.99003 0.0
O971 O 0.68293 1.00987 1.00167 0.0
O972 O 0.62838 0.04717 0.99449 0.0
O973 O 0.57235 1.02946 1.03891 0.0
O974 O 0.60217 0.97491 1.05003 0.0
O975 O 0.64501 1.03002 1.03123 0.0
O976 O 0.69506 0.99418 1.04343 0.0
O977 O 0.55875 0.9281 1.01188 0.0
O978 O 0.61526 0.90142 1.02438 0.0
C979 C 0.6242 0.95662 0.9854 0.0
C980 C 0.66984 0.04341 0.99222 0.0
C981 C 0.47644 1.03893 0.9877 0.0
C982 C 0.41112 1.0104 0.98437 0.0
C983 C 0.42459 0.07763 0.97268 0.0
C984 C 0.46493 0.07382 0.97828 0.0
C985 C 0.39865 0.04428 0.97457 0.0
C986 C 0.44648 1.01303 0.9942 0.0
C987 C 0.51764 1.02307 0.98616 0.0
C988 C 0.43797 0.08728 1.03569 0.0
C989 C 0.46071 0.12156 1.03079 0.0
H990 H 0.4046 1.01588 1.04626 0.0
C991 C 0.57862 1.00788 1.05334 0.0
C992 C 0.57794 0.89245 1.01787 0.0
C993 C 0.67299 0.05133 1.05919 0.0
C994 C 0.71735 0.09176 1.07737 0.0
C995 C 0.66815 0.04758 0.09128 0.0
C996 C 0.65817 1.03234 1.07458 0.0
C997 C 0.69869 0.07683 0.09278 0.0
C998 C 0.69866 0.08488 1.06091 0.0
C999 C 0.67594 1.02926 1.04242 0.0
H1000 H 0.41553 0.10314 0.96451 0.0
H1001 H 0.48741 0.0955 0.97379 0.0
H1002 H 0.37275 0.04215 0.96613 0.0
H1003 H 0.45516 0.98629 1.00168 0.0
H1004 H 0.65666 1.0325 0.10296 0.0
H1005 H 0.6427 1.00357 1.07404 0.0
H1006 H 0.71214 0.08247 0.1057 0.0
H1007 H 0.71314 0.0969 1.04909 0.0
C1008 C 0.94738 0.13776 0.88848 0.0
C1009 C 0.95027 0.07152 0.90237 0.0
C1010 C 0.93075 0.10922 0.89972 0.0
C1011 C 0.98795 0.06413 0.89438 0.0
C1012 C 0.98467 0.12993 0.87995 0.0
C1013 C 1.00544 0.09354 0.8834 0.0
N1014 N 0.92591 0.17208 0.88505 0.0
C1015 C 0.93897 0.1984 0.87211 0.0
C1016 C 0.99926 0.15812 0.86765 0.0
C1017 C 0.97597 0.19218 0.86352 0.0
Gd1018 Gd 0.83417 0.26467 0.92326 0.0
Gd1019 Gd 0.86554 0.18181 0.90177 0.0
N1020 N 0.89387 0.11694 0.9069 0.0
C1021 C 0.93065 0.0417 0.91238 0.0
C1022 C 0.8737 0.08697 0.91588 0.0
C1023 C 0.8917 0.0491 0.91873 0.0
H1024 H 0.84338 0.09128 0.92069 0.0
H1025 H 0.87558 1.02579 0.926 0.0
H1026 H 0.89194 0.34357 0.90765 0.0
H1027 H 0.92232 0.22565 0.86903 0.0
H1028 H 0.88045 0.41259 0.8966 0.0
H1029 H 0.94473 1.01248 0.9148 0.0
H1030 H 1.00364 1.0356 0.89649 0.0
H1031 H 0.74481 0.2155 0.91497 0.0
H1032 H 1.02785 0.15328 0.86091 0.0
H1033 H 0.98659 0.21382 0.85376 0.0
H1034 H 0.73524 0.42663 0.89533 0.0
H1035 H 1.03434 0.08725 0.87716 0.0
H1036 H 0.65524 0.30723 0.90538 0.0
H1037 H 0.67322 0.23513 0.91019 0.0
N1038 N 0.76712 0.27599 0.91327 0.0
C1039 C 0.75796 0.3158 0.91005 0.0
C1040 C 0.73737 0.24707 0.91309 0.0
C1041 C 0.68669 0.29894 0.90772 0.0
C1042 C 0.69676 0.25812 0.91032 0.0
C1043 C 0.71754 0.32826 0.90712 0.0
H1044 H 0.67868 0.37907 0.90024 0.0
N1045 N 0.82893 0.32905 0.9096 0.0
C1046 C 0.79005 0.34288 0.90751 0.0
C1047 C 0.81521 0.40808 0.89781 0.0
C1048 C 0.78222 0.38279 0.90169 0.0
C1049 C 0.86116 0.35363 0.90574 0.0
C1050 C 0.85477 0.39326 0.89964 0.0
O1051 O 0.86309 0.17895 0.93063 0.0
O1052 O 0.88929 0.23854 0.93573 0.0
O1053 O 0.85295 0.31036 0.94164 0.0
O1054 O 0.79627 0.27938 0.94617 0.0
O1055 O 0.8145 0.15382 0.92442 0.0
O1056 O 0.7944 0.20928 0.93952 0.0
O1057 O 0.80864 0.26952 0.89347 0.0
O1058 O 0.85598 0.23481 0.87975 0.0
O1059 O 0.80658 0.18522 0.88904 0.0
O1060 O 0.84742 0.13361 0.88423 0.0
O1061 O 0.90961 0.27806 0.91673 0.0
O1062 O 0.93212 0.21808 0.90595 0.0
C1063 C 0.88578 0.20147 0.94044 0.0
C1064 C 0.78927 0.16777 0.93784 0.0
C1065 C 0.79829 0.35109 0.94927 0.0
C1066 C 0.80835 0.42393 0.94824 0.0
C1067 C 0.74008 0.39622 0.9473 0.0
C1068 C 0.75597 0.35677 0.94862 0.0
C1069 C 0.76617 0.42995 0.94763 0.0
C1070 C 0.82366 0.38461 0.94814 0.0
C1071 C 0.81816 0.31123 0.94967 0.0
C1072 C 0.74184 0.39589 0.89959 0.0
C1073 C 0.70958 0.36883 0.90248 0.0
H1074 H 0.81048 0.43892 0.89323 0.0
C1075 C 0.82515 0.26102 0.878 0.0
C1076 C 0.94341 0.25653 0.91089 0.0
C1077 C 0.80864 0.15671 0.86053 0.0
C1078 C 0.77756 0.1306 0.83385 0.0
C1079 C 0.83386 0.17797 0.83187 0.0
C1080 C 0.8373 0.17756 0.8502 0.0
C1081 C 0.80449 0.15402 0.8238 0.0
C1082 C 0.77828 0.13388 0.85235 0.0
C1083 C 0.81418 0.15272 0.87956 0.0
H1084 H 0.70751 0.40069 0.94679 0.0
H1085 H 0.73545 0.33105 0.94885 0.0
H1086 H 0.75363 0.46026 0.94854 0.0
H1087 H 0.85632 0.38023 0.94933 0.0
H1088 H 0.85624 0.19374 0.82394 0.0
H1089 H 0.86379 0.19134 0.85597 0.0
H1090 H 0.80642 0.14909 0.80987 0.0
H1091 H 0.75901 0.11458 0.86041 0.0
C1092 C 0.71412 0.18905 0.64527 0.0
C1093 C 0.7805 0.16825 0.65532 0.0
C1094 C 0.73868 0.16046 0.65287 0.0
C1095 C 0.79554 0.20759 0.65231 0.0
C1096 C 0.72968 0.22729 0.6404 0.0
C1097 C 0.76995 0.23731 0.64495 0.0
N1098 N 0.67643 0.17715 0.64042 0.0
C1099 C 0.65426 0.20016 0.62873 0.0
C1100 C 0.70521 0.25298 0.6301 0.0
C1101 C 0.66776 0.23881 0.62378 0.0
Gd1102 Gd 0.57054 0.07401 0.67164 0.0
Gd1103 Gd 0.65058 0.11659 0.65294 0.0
N1104 N 0.72267 0.1231 0.65535 0.0
C1105 C 0.80599 0.13595 0.66003 0.0
C1106 C 0.7483 0.09075 0.65782 0.0
C1107 C 0.78991 0.09677 0.66082 0.0
H1108 H 0.73705 0.05993 0.65747 0.0
H1109 H 0.80961 0.07113 0.66349 0.0
H1110 H 0.51316 0.13723 0.64405 0.0
H1111 H 0.62502 0.18945 0.62399 0.0
H1112 H 0.44503 0.13368 0.63081 0.0
H1113 H 0.83825 0.14061 0.66223 0.0
H1114 H 0.82722 0.21473 0.65481 0.0
H1115 H 0.60828 0.97694 0.67113 0.0
H1116 H 0.71585 0.28277 0.62615 0.0
H1117 H 0.64927 0.25762 0.61515 0.0
H1118 H 0.40883 0.99296 0.63423 0.0
H1119 H 0.78225 0.26697 0.64183 0.0
H1120 H 0.51082 0.89974 0.65453 0.0
H1121 H 0.58097 0.90856 0.6659 0.0
N1122 N 0.55431 1.00728 0.66259 0.0
C1123 C 0.51632 1.00303 0.65542 0.0
C1124 C 0.5778 0.9739 0.66602 0.0
C1125 C 0.52273 0.93005 0.65665 0.0
C1126 C 0.56239 0.9349 0.66305 0.0
C1127 C 0.49933 0.96431 0.65255 0.0
H1128 H 0.44615 0.93155 0.64326 0.0
N1129 N 0.5143 0.07481 0.65176 0.0
C1130 C 0.49583 1.03782 0.6498 0.0
C1131 C 0.43794 0.06968 0.63583 0.0
C1132 C 0.45712 1.0344 0.64183 0.0
C1133 C 0.49767 0.10851 0.644 0.0
C1134 C 0.45895 0.10657 0.63623 0.0
O1135 O 0.63187 0.14549 0.6784 0.0
O1136 O 0.61045 0.09159 0.69351 0.0
O1137 O 0.5253 0.09643 0.68964 0.0
O1138 O 0.53937 1.0325 0.68963 0.0
O1139 O 0.68212 0.07018 0.67665 0.0
O1140 O 0.62769 1.03592 0.68677 0.0
O1141 O 0.57954 0.04429 0.64331 0.0
O1142 O 0.59525 0.10264 0.63156 0.0
O1143 O 0.66539 0.0571 0.64165 0.0
O1144 O 0.6469 0.10932 0.62509 0.0
O1145 O 0.55488 0.15213 0.66797 0.0
O1146 O 0.61258 0.18031 0.65735 0.0
C1147 C 0.62132 0.12885 0.69335 0.0
C1148 C 0.6694 1.03887 0.68759 0.0
C1149 C 0.47061 0.05059 0.68878 0.0
C1150 C 0.40749 0.08337 0.68395 0.0
C1151 C 0.40848 1.0126 0.69268 0.0
C1152 C 0.45093 1.01505 0.69435 0.0
C1153 C 0.3865 0.04755 0.68791 0.0
C1154 C 0.44805 0.08011 0.67976 0.0
C1155 C 0.51287 0.05991 0.69353 0.0
C1156 C 0.43887 0.99602 0.64007 0.0
C1157 C 0.46006 0.96104 0.64527 0.0
H1158 H 0.40742 0.06852 0.63036 0.0
C1159 C 0.57812 0.06575 0.62859 0.0
C1160 C 0.57411 0.18853 0.66272 0.0
C1161 C 0.69657 0.0678 0.61307 0.0
C1162 C 0.74447 1.02452 0.59802 0.0
C1163 C 0.73704 0.0949 0.58889 0.0
C1164 C 0.70796 0.10034 0.60191 0.0
C1165 C 0.75526 0.05724 0.58691 0.0
C1166 C 0.71523 1.02992 0.6112 0.0
C1167 C 0.66316 0.0731 0.62556 0.0
H1168 H 0.39261 0.98532 0.69669 0.0
H1169 H 0.46788 0.99033 0.70031 0.0
H1170 H 0.35395 0.04804 0.6889 0.0
H1171 H 0.46274 0.10779 0.6754 0.0
H1172 H 0.7456 0.11997 0.58038 0.0
H1173 H 0.69419 0.13009 0.60299 0.0
H1174 H 0.7787 0.05398 0.57697 0.0
H1175 H 0.70695 1.00484 0.61979 0.0
C1176 C 0.6334 0.94622 0.3924 0.0
C1177 C 0.63119 1.00633 0.41087 0.0
C1178 C 0.65176 0.97166 0.4046 0.0
C1179 C 0.59036 1.01253 0.40608 0.0
C1180 C 0.59346 0.95407 0.38644 0.0
C1181 C 0.5715 0.98641 0.39387 0.0
N1182 N 0.65545 0.91503 0.38569 0.0
C1183 C 0.64016 0.89216 0.37199 0.0
C1184 C 0.57708 0.92967 0.37299 0.0
C1185 C 0.60081 0.89906 0.36552 0.0
Gd1186 Gd 0.75419 0.81789 0.42077 0.0
Gd1187 Gd 0.71511 0.89861 0.40187 0.0
N1188 N 0.69101 0.96441 0.40909 0.0
C1189 C 0.65281 1.03465 0.42105 0.0
C1190 C 0.71332 0.99427 0.41728 0.0
C1191 C 0.69445 1.02931 0.42369 0.0
H1192 H 0.74582 0.99233 0.41862 0.0
H1193 H 0.71207 0.05213 0.43065 0.0
H1194 H 0.69381 0.74461 0.40166 0.0
H1195 H 0.65687 0.86649 0.36698 0.0
H1196 H 0.7027 0.67258 0.39393 0.0
H1197 H 0.63815 0.06164 0.42615 0.0
H1198 H 0.57366 1.03831 0.41118 0.0
H1199 H 0.84383 0.86585 0.40997 0.0
H1200 H 0.54645 0.93462 0.36809 0.0
H1201 H 0.58842 0.88005 0.35509 0.0
H1202 H 0.84714 0.65066 0.39929 0.0
H1203 H 0.5404 0.99229 0.3898 0.0
H1204 H 0.93049 0.77053 0.40229 0.0
H1205 H 0.91451 0.84374 0.40497 0.0
N1206 N 0.81999 0.80571 0.40992 0.0
C1207 C 0.82797 0.76543 0.40755 0.0
C1208 C 0.85031 0.83388 0.4087 0.0
C1209 C 0.89935 0.77999 0.40438 0.0
C1210 C 0.89042 0.82142 0.40584 0.0
C1211 C 0.86783 0.75139 0.40505 0.0
H1212 H 0.90516 0.69791 0.40126 0.0
N1213 N 0.75685 0.75463 0.40664 0.0
C1214 C 0.79512 0.73895 0.4059 0.0
C1215 C 0.76752 0.67339 0.39837 0.0
C1216 C 0.80149 0.69759 0.40225 0.0
C1217 C 0.72396 0.73196 0.40169 0.0
C1218 C 0.72888 0.69095 0.39739 0.0
O1219 O 0.68557 0.88163 0.42737 0.0
O1220 O 0.73877 0.86031 0.44214 0.0
O1221 O 0.73521 0.77245 0.43948 0.0
O1222 O 0.7966 0.79663 0.44076 0.0
O1223 O 0.76293 0.92776 0.42563 0.0
O1224 O 0.79765 0.87284 0.43457 0.0
O1225 O 0.77456 0.81182 0.39053 0.0
O1226 O 0.72587 0.84857 0.37777 0.0
O1227 O 0.77491 0.89456 0.39009 0.0
O1228 O 0.73424 0.94722 0.38515 0.0
O1229 O 0.67681 0.80422 0.41765 0.0
O1230 O 0.65145 0.85976 0.4038 0.0
C1231 C 0.70492 0.87933 0.44224 0.0
C1232 C 0.79526 0.91434 0.43589 0.0
C1233 C 0.7894 0.7272 0.44533 0.0
C1234 C 0.76715 0.66002 0.4504 0.0
C1235 C 0.83588 0.67938 0.45859 0.0
C1236 C 0.82742 0.71891 0.453 0.0
C1237 C 0.80444 0.65081 0.45855 0.0
C1238 C 0.76412 0.69515 0.44054 0.0
C1239 C 0.77222 0.76799 0.44563 0.0
C1240 C 0.84149 0.68256 0.40173 0.0
C1241 C 0.87459 0.70953 0.40283 0.0
H1242 H 0.7707 0.64143 0.39576 0.0
C1243 C 0.75611 0.82095 0.3754 0.0
C1244 C 0.64199 0.82307 0.41082 0.0
C1245 C 0.77229 0.92477 0.36137 0.0
C1246 C 0.80249 0.95633 0.33582 0.0
C1247 C 0.74032 0.91797 0.33237 0.0
C1248 C 0.73953 0.9123 0.35064 0.0
C1249 C 0.77189 0.9399 0.32493 0.0
C1250 C 0.80493 0.94499 0.3537 0.0
C1251 C 0.76729 0.92745 0.38056 0.0
H1252 H 0.86434 0.67266 0.46524 0.0
H1253 H 0.8488 0.74307 0.4559 0.0
H1254 H 0.80775 0.62485 0.46686 0.0
H1255 H 0.73494 0.70142 0.43437 0.0
H1256 H 0.71454 0.90886 0.32429 0.0
H1257 H 0.71225 0.90027 0.3563 0.0
H1258 H 0.76782 0.95123 0.3116 0.0
H1259 H 0.82757 0.95903 0.36228 0.0
C1260 C 0.89044 0.87836 0.1444 0.0
C1261 C 0.83337 0.86963 0.1642 0.0
C1262 C 0.86658 0.89275 0.15803 0.0
C1263 C 0.82707 0.83028 0.15759 0.0
C1264 C 0.88242 0.84009 0.13678 0.0
C1265 C 0.85156 0.81553 0.14387 0.0
N1266 N 0.91988 0.90297 0.13786 0.0
C1267 C 0.94075 0.89222 0.12293 0.0
C1268 C 0.905 0.8281 0.12199 0.0
C1269 C 0.9338 0.85459 0.11486 0.0
Gd1270 Gd 1.01795 1.00097 0.17366 0.0
Gd1271 Gd 0.93639 0.95991 0.15539 0.0
N1272 N 0.87333 0.93104 0.16393 0.0
C1273 C 0.80621 0.88758 0.17605 0.0
C1274 C 0.84398 0.95013 0.17367 0.0
C1275 C 0.81067 0.92855 0.18023 0.0
H1276 H 0.84469 0.98209 0.17615 0.0
H1277 H 0.78841 0.94362 0.18845 0.0
H1278 H 0.08126 0.9379 0.15004 0.0
H1279 H 0.96423 0.91152 0.11768 0.0
H1280 H 0.15112 0.94268 0.13933 0.0
H1281 H 0.78042 0.87087 0.18118 0.0
H1282 H 0.80227 0.81174 0.16245 0.0
H1283 H 0.97556 0.09646 0.16935 0.0
H1284 H 0.89985 0.79887 0.11578 0.0
H1285 H 0.95112 0.84578 0.10332 0.0
H1286 H 0.18106 0.08521 0.14042 0.0
H1287 H 0.84544 0.78569 0.13842 0.0
H1288 H 0.07347 0.17617 0.15633 0.0
H1289 H 1.00169 0.16546 0.16477 0.0
N1290 N 1.03219 0.0676 0.16388 0.0
C1291 C 0.07109 0.07286 0.15815 0.0
C1292 C 1.007 0.10028 0.16583 0.0
C1293 C 0.06225 0.1456 0.15838 0.0
C1294 C 1.02166 0.13966 0.16311 0.0
C1295 C 0.08733 0.11195 0.1555 0.0
H1296 H 0.14056 0.14591 0.14738 0.0
N1297 N 0.0759 1.00123 0.15545 0.0
C1298 C 0.09342 1.03856 0.1536 0.0
C1299 C 0.15465 1.00756 0.14279 0.0
C1300 C 0.13316 0.04269 0.14708 0.0
C1301 C 0.09534 0.96729 0.14952 0.0
C1302 C 0.13514 0.96991 0.14325 0.0
O1303 O 0.9547 0.93242 0.1813 0.0
O1304 O 0.9771 0.98654 0.19545 0.0
O1305 O 0.06793 0.97899 0.18974 0.0
O1306 O 0.04588 0.04021 0.19333 0.0
O1307 O 0.90702 1.00862 0.17848 0.0
O1308 O 0.96228 0.04201 0.18843 0.0
O1309 O 1.01174 1.02752 0.1446 0.0
O1310 O 0.98935 0.97057 0.13303 0.0
O1311 O 0.93313 1.02171 0.14598 0.0
O1312 O 0.88918 0.97513 0.13675 0.0
O1313 O 1.03065 0.92314 0.17029 0.0
O1314 O 0.97546 0.89677 0.15631 0.0
C1315 C 0.95861 0.95239 0.19598 0.0
C1316 C 0.92043 0.04035 0.18907 0.0
C1317 C 0.1166 1.03151 0.19313 0.0
C1318 C 0.18756 1.0154 0.19316 0.0
C1319 C 0.16655 0.08532 0.19641 0.0
C1320 C 0.12591 0.07264 0.19613 0.0
C1321 C 0.19756 0.05631 0.19583 0.0
C1322 C 0.14781 1.00508 0.18847 0.0
C1323 C 0.07556 1.01514 0.196 0.0
C1324 C 0.15036 0.08154 0.14532 0.0
C1325 C 0.12739 0.11611 0.14939 0.0
H1326 H 0.18636 1.00931 0.1393 0.0
C1327 C 1.00929 1.00575 0.12999 0.0
C1328 C 1.0124 0.88799 0.16331 0.0
C1329 C 0.90763 1.0262 0.11674 0.0
C1330 C 0.88435 0.07018 0.0932 0.0
C1331 C 0.93841 1.02232 1.08769 0.0
C1332 C 0.93261 1.00606 0.10454 0.0
C1333 C 0.91555 0.05569 1.08237 0.0
C1334 C 0.88306 0.058 0.11097 0.0
C1335 C 0.9033 1.01223 0.13495 0.0
H1336 H 0.17388 0.11683 0.19894 0.0
H1337 H 0.10211 0.09451 0.19873 0.0
H1338 H 0.22828 0.06492 0.19949 0.0
H1339 H 0.1408 0.97325 0.18615 0.0
H1340 H 0.95876 1.00778 1.07844 0.0
H1341 H 0.94725 0.97784 0.10778 0.0
H1342 H 0.91809 0.06664 1.06908 0.0
H1343 H 0.85975 0.06969 0.11972 0.0
C1344 C 0.82808 0.81176 0.90556 0.0
C1345 C 0.79662 0.86926 0.89073 0.0
C1346 C 0.79312 0.83221 0.90001 0.0
C1347 C 0.83517 0.88671 0.88824 0.0
C1348 C 0.86688 0.82791 0.90202 0.0
C1349 C 0.87019 0.8661 0.89388 0.0
N1350 N 0.8239 0.77413 0.91292 0.0
C1351 C 0.85726 0.75042 0.91618 0.0
C1352 C 0.90117 0.8044 0.90603 0.0
C1353 C 0.89627 0.76524 0.91281 0.0
Gd1354 Gd 0.71221 0.67747 0.9056 0.0
Gd1355 Gd 0.75767 0.75841 0.92251 0.0
N1356 N 0.75612 0.81415 0.90244 0.0
C1357 C 0.76148 0.88694 0.88364 0.0
C1358 C 0.72224 0.82996 0.89438 0.0
C1359 C 0.72437 0.86671 0.88509 0.0
H1360 H 0.69341 0.81474 0.89475 0.0
H1361 H 0.6973 0.87941 0.87903 0.0
H1362 H 0.76182 0.58629 0.91215 0.0
H1363 H 0.85418 0.72026 0.9215 0.0
H1364 H 0.74406 0.51877 0.92378 0.0
H1365 H 0.76291 0.91538 0.87642 0.0
H1366 H 0.83833 0.91546 0.88139 0.0
H1367 H 0.64224 0.69969 0.87457 0.0
H1368 H 0.93151 0.81569 0.90343 0.0
H1369 H 0.92259 0.7465 0.91556 0.0
H1370 H 0.59828 0.51456 0.91876 0.0
H1371 H 0.89976 0.87926 0.89126 0.0
H1372 H 0.54084 0.61939 0.88189 0.0
H1373 H 0.57186 0.67882 0.86689 0.0
N1374 N 0.65036 0.65279 0.89368 0.0
C1375 C 0.63492 0.61871 0.90093 0.0
C1376 C 0.62914 0.6731 0.88078 0.0
C1377 C 0.5717 0.62831 0.88516 0.0
C1378 C 0.5892 0.66167 0.87658 0.0
C1379 C 0.59517 0.60548 0.8971 0.0
H1380 H 0.55042 0.55854 0.90223 0.0
N1381 N 0.70027 0.60708 0.91103 0.0
C1382 C 0.66124 0.59464 0.9102 0.0
C1383 C 0.67942 0.52903 0.92203 0.0
C1384 C 0.64935 0.55569 0.91589 0.0
C1385 C 0.73013 0.57893 0.91416 0.0
C1386 C 0.72024 0.54015 0.92043 0.0
O1387 O 0.78514 0.74775 0.89418 0.0
O1388 O 0.72611 0.72989 0.8829 0.0
O1389 O 0.77324 0.66287 0.89645 0.0
O1390 O 0.7228 0.67508 0.87774 0.0
O1391 O 0.67902 0.77497 0.91877 0.0
O1392 O 0.64933 0.71647 0.90929 0.0
O1393 O 0.69139 0.7072 0.93062 0.0
O1394 O 0.74598 0.72048 0.94565 0.0
O1395 O 0.73745 0.80457 0.93996 0.0
O1396 O 0.80121 0.78952 0.93988 0.0
O1397 O 0.75844 0.64565 0.92907 0.0
O1398 O 0.79603 0.6998 0.93716 0.0
C1399 C 0.76276 0.74757 0.87969 0.0
C1400 C 0.6421 0.75553 0.91399 0.0
C1401 C 0.76438 0.62104 0.87097 0.0
C1402 C 0.80651 0.57464 0.85474 0.0
C1403 C 0.73397 0.56187 0.85697 0.0
C1404 C 0.73011 0.59662 0.86721 0.0
C1405 C 0.77198 0.55091 0.85067 0.0
C1406 C 0.80274 0.60974 0.86491 0.0
C1407 C 0.75904 0.65953 0.88009 0.0
C1408 C 0.60848 0.54385 0.91397 0.0
C1409 C 0.58129 0.56884 0.90453 0.0
H1410 H 0.67171 0.49886 0.92667 0.0
C1411 C 0.71015 0.70581 0.94568 0.0
C1412 C 0.79168 0.65817 0.93891 0.0
C1413 C 0.78429 0.85861 0.9412 0.0
C1414 C 0.74785 0.92047 0.94097 0.0
C1415 C 0.81622 0.91885 0.95312 0.0
C1416 C 0.81714 0.87692 0.95003 0.0
C1417 C 0.78033 0.94039 0.94953 0.0
C1418 C 0.75488 0.88318 0.93321 0.0
C1419 C 0.77418 0.81589 0.94433 0.0
H1420 H 0.70749 0.54359 0.85386 0.0
H1421 H 0.70011 0.60478 0.87183 0.0
H1422 H 0.77462 0.52366 0.84269 0.0
H1423 H 0.82918 0.62835 0.86781 0.0
H1424 H 0.84081 0.93326 0.96036 0.0
H1425 H 0.84143 0.85871 0.95564 0.0
H1426 H 0.77623 0.97022 0.95528 0.0
H1427 H 0.72961 0.86942 0.92615 0.0
C1428 C 0.52364 0.57442 0.15428 0.0
C1429 C 0.45767 0.54932 0.1446 0.0
C1430 C 0.49689 0.5421 0.15153 0.0
C1431 C 0.44502 0.58938 0.14133 0.0
C1432 C 0.51185 0.61434 0.14997 0.0
C1433 C 0.47201 0.62179 0.14403 0.0
N1434 N 0.56271 0.56579 0.15926 0.0
C1435 C 0.59161 0.59571 0.15953 0.0
C1436 C 0.54096 0.64529 0.151 0.0
C1437 C 0.58112 0.63579 0.15546 0.0
Gd1438 Gd 0.65483 0.4592 0.15078 0.0
Gd1439 Gd 0.57188 0.49954 0.17073 0.0
N1440 N 0.5102 0.5035 0.15474 0.0
C1441 C 0.43261 0.51604 0.14083 0.0
C1442 C 0.48611 0.47095 0.15072 0.0
C1443 C 0.44711 0.47673 0.14367 0.0
H1444 H 0.49604 0.44043 0.15329 0.0
H1445 H 0.428 0.45082 0.14068 0.0
H1446 H 0.73996 0.51902 0.15516 0.0
H1447 H 0.62291 0.58893 0.16255 0.0
H1448 H 0.81132 0.50962 0.16443 0.0
H1449 H 0.40226 0.52033 0.13548 0.0
H1450 H 0.41476 0.59553 0.13624 0.0
H1451 H 0.63407 0.38364 0.12245 0.0
H1452 H 0.53309 0.67638 0.14776 0.0
H1453 H 0.60407 0.65937 0.15574 0.0
H1454 H 0.83176 0.36524 0.15988 0.0
H1455 H 0.46219 0.65237 0.14089 0.0
H1456 H 0.72643 0.29273 0.12854 0.0
H1457 H 0.66059 0.31509 0.11564 0.0
N1458 N 0.68392 0.39927 0.13922 0.0
C1459 C 0.72108 0.38859 0.14522 0.0
C1460 C 0.66315 0.37428 0.12786 0.0
C1461 C 0.71495 0.3228 0.13147 0.0
C1462 C 0.67792 0.33539 0.12409 0.0
C1463 C 0.7377 0.35008 0.14176 0.0
H1464 H 0.79017 0.31132 0.14594 0.0
N1465 N 0.72698 0.45549 0.15407 0.0
C1466 C 0.74388 0.41826 0.15298 0.0
C1467 C 0.80878 0.44434 0.16271 0.0
C1468 C 0.7848 0.41119 0.1576 0.0
C1469 C 0.75164 0.48853 0.15664 0.0
C1470 C 0.79246 0.48343 0.16159 0.0
O1471 O 0.57565 0.52313 0.14119 0.0
O1472 O 0.59863 0.46664 0.12949 0.0
O1473 O 0.65984 0.52108 0.13976 0.0
O1474 O 0.65502 0.46633 0.12301 0.0
O1475 O 0.55764 0.42229 0.16684 0.0
O1476 O 0.61525 0.39585 0.15499 0.0
O1477 O 0.6335 0.43061 0.17583 0.0
O1478 O 0.61505 0.48222 0.19188 0.0
O1479 O 0.52151 0.48311 0.18757 0.0
O1480 O 0.55114 0.54159 0.19065 0.0
O1481 O 0.68374 0.50931 0.17384 0.0
O1482 O 0.62801 0.53962 0.18534 0.0
C1483 C 0.57654 0.50077 0.12677 0.0
C1484 C 0.57708 0.38704 0.16085 0.0
C1485 C 0.68736 0.52128 0.10958 0.0
C1486 C 0.72958 0.57426 0.09663 0.0
C1487 C 0.71674 0.51121 1.08044 0.0
C1488 C 0.69314 0.49731 0.0943 0.0
C1489 C 0.73472 0.5492 1.08149 0.0
C1490 C 0.70479 0.56014 0.11052 0.0
C1491 C 0.6606 0.50564 0.12355 0.0
C1492 C 0.80071 0.37176 0.15594 0.0
C1493 C 0.77707 0.3411 0.14799 0.0
H1494 H 0.84039 0.44038 0.16644 0.0
C1495 C 0.63535 0.44915 0.19087 0.0
C1496 C 0.66979 0.5393 0.18526 0.0
C1497 C 0.48028 0.54107 0.19296 0.0
C1498 C 0.41318 0.52704 0.20224 0.0
C1499 C 0.43943 0.59521 0.20529 0.0
C1500 C 0.47664 0.5816 0.19859 0.0
C1501 C 0.40841 0.56694 0.20835 0.0
C1502 C 0.44532 0.51778 0.19107 0.0
C1503 C 0.5194 0.51984 0.19405 0.0
H1504 H 0.72193 0.49205 1.06901 0.0
H1505 H 0.67931 0.46759 0.09292 0.0
H1506 H 0.75454 0.5576 1.07067 0.0
H1507 H 0.69984 0.57877 0.12215 0.0
H1508 H 0.43668 0.62589 0.21025 0.0
H1509 H 0.50293 0.60138 0.19922 0.0
H1510 H 0.38332 0.57485 0.21693 0.0
H1511 H 0.44799 0.48667 0.18641 0.0
C1512 C 0.75577 0.27139 0.40453 0.0
C1513 C 0.78331 0.20758 0.39387 0.0
C1514 C 0.7891 0.24636 0.40133 0.0
C1515 C 0.74368 0.19319 0.39079 0.0
C1516 C 0.71619 0.2581 0.40027 0.0
C1517 C 0.7102 0.21839 0.39399 0.0
N1518 N 0.76299 0.31046 0.40982 0.0
C1519 C 0.73194 0.338 0.41027 0.0
C1520 C 0.68408 0.28572 0.40165 0.0
C1521 C 0.69213 0.32598 0.40632 0.0
Gd1522 Gd 0.86778 0.4044 0.4027 0.0
Gd1523 Gd 0.82912 0.32162 0.42136 0.0
N1524 N 0.82725 0.26178 0.40399 0.0
C1525 C 0.81754 0.18501 0.38914 0.0
C1526 C 0.86053 0.24113 0.39804 0.0
C1527 C 0.85616 0.20237 0.39066 0.0
H1528 H 0.89064 0.25349 0.39928 0.0
H1529 H 0.88266 0.18564 0.38638 0.0
H1530 H 0.81276 0.49192 0.41089 0.0
H1531 H 0.73733 0.36931 0.41361 0.0
H1532 H 0.82827 0.5603 0.4221 0.0
H1533 H 0.81429 0.15475 0.3837 0.0
H1534 H 0.73866 0.16321 0.38527 0.0
H1535 H 0.93659 0.38277 0.37147 0.0
H1536 H 0.65318 0.27668 0.39851 0.0
H1537 H 0.66761 0.34783 0.40689 0.0
H1538 H 0.97174 0.57498 0.41161 0.0
H1539 H 0.67991 0.20744 0.39088 0.0
H1540 H 1.03294 0.47009 0.37623 0.0
H1541 H 1.00535 0.40663 0.36315 0.0
N1542 N 0.92571 0.4322 0.38893 0.0
C1543 C 0.93944 0.46797 0.39532 0.0
C1544 C 0.948 0.4111 0.37679 0.0
C1545 C 1.00268 0.45995 0.37972 0.0
C1546 C 0.98708 0.42428 0.37222 0.0
C1547 C 0.97823 0.48296 0.39106 0.0
H1548 H 1.02057 0.53273 0.39504 0.0
N1549 N 0.87504 0.47573 0.40709 0.0
C1550 C 0.91272 0.49101 0.40475 0.0
C1551 C 0.89256 0.55527 0.41722 0.0
C1552 C 0.92301 0.53073 0.41004 0.0
C1553 C 0.84415 0.50145 0.41167 0.0
C1554 C 0.85265 0.54084 0.41762 0.0
O1555 O 0.80969 0.32143 0.39112 0.0
O1556 O 0.86308 0.35272 0.37936 0.0
O1557 O 0.80351 0.39609 0.3971 0.0
O1558 O 0.84594 0.42192 0.37688 0.0
O1559 O 0.90635 0.30671 0.41843 0.0
O1560 O 0.93127 0.36321 0.40513 0.0
O1561 O 0.8993 0.38299 0.42712 0.0
O1562 O 0.84695 0.36455 0.44259 0.0
O1563 O 0.84679 0.27506 0.43953 0.0
O1564 O 0.78479 0.29715 0.43977 0.0
O1565 O 0.82055 0.43281 0.42676 0.0
O1566 O 0.78724 0.37662 0.43577 0.0
C1567 C 0.83124 0.32719 0.37666 0.0
C1568 C 0.9411 0.32567 0.41167 0.0
C1569 C 0.77535 0.42126 0.36927 0.0
C1570 C 0.72855 0.47437 0.36024 0.0
C1571 C 0.74924 0.42199 0.33919 0.0
C1572 C 0.77463 0.40548 0.35201 0.0
C1573 C 0.72695 0.45663 0.34307 0.0
C1574 C 0.75035 0.45392 0.37369 0.0
C1575 C 0.80907 0.40928 0.38071 0.0
C1576 C 0.96275 0.54494 0.40722 0.0
C1577 C 0.99049 0.52094 0.39776 0.0
H1578 H 0.89904 0.58598 0.42154 0.0
C1579 C 0.88104 0.38348 0.44215 0.0
C1580 C 0.7887 0.41826 0.43701 0.0
C1581 C 0.79386 0.22746 0.44326 0.0
C1582 C 0.82316 0.16238 0.44607 0.0
C1583 C 0.75686 0.1753 0.45874 0.0
C1584 C 0.75987 0.21561 0.45312 0.0
C1585 C 0.79019 0.1496 0.45632 0.0
C1586 C 0.81964 0.19784 0.43648 0.0
C1587 C 0.80944 0.26882 0.44471 0.0
H1588 H 0.7494 0.4099 0.32585 0.0
H1589 H 0.79559 0.38213 0.34804 0.0
H1590 H 0.71153 0.4712 0.33205 0.0
H1591 H 0.75153 0.46573 0.38709 0.0
H1592 H 0.73206 0.16604 0.46722 0.0
H1593 H 0.73835 0.23786 0.45792 0.0
H1594 H 0.79302 0.12339 0.46457 0.0
H1595 H 0.84589 0.20677 0.42884 0.0
C1596 C 0.06457 0.50191 0.65378 0.0
C1597 C 0.12819 0.53361 0.64529 0.0
C1598 C 0.08757 0.53683 0.65079 0.0
C1599 C 0.14542 0.49501 0.64284 0.0
C1600 C 0.08088 0.46332 0.65031 0.0
C1601 C 0.12169 0.45998 0.64511 0.0
N1602 N 1.02508 0.50638 0.65895 0.0
C1603 C 0.99989 0.47351 0.6601 0.0
C1604 C 0.05547 0.42938 0.65189 0.0
C1605 C 1.01469 0.43459 0.65652 0.0
Gd1606 Gd 0.9294 0.61258 0.65246 0.0
Gd1607 Gd 1.00914 0.57171 0.66953 0.0
N1608 N 0.06967 0.57391 0.65296 0.0
C1609 C 0.15018 0.56937 0.6425 0.0
C1610 C 0.08956 0.60851 0.64802 0.0
C1611 C 0.13033 0.60679 0.64298 0.0
H1612 H 0.07526 0.63774 0.64859 0.0
H1613 H 0.14673 0.63441 0.63992 0.0
H1614 H 0.83391 0.58314 0.6677 0.0
H1615 H 0.96853 0.47698 0.66386 0.0
H1616 H 0.77384 0.61852 0.67857 0.0
H1617 H 0.18215 0.56856 0.63944 0.0
H1618 H 0.17673 0.49188 0.63873 0.0
H1619 H 0.9599 0.66233 0.61458 0.0
H1620 H 0.06683 0.39912 0.64928 0.0
H1621 H 0.99473 0.40855 0.65754 0.0
H1622 H 0.78692 0.7529 0.65464 0.0
H1623 H 0.13505 0.43049 0.64262 0.0
H1624 H 0.8923 0.77241 0.61173 0.0
H1625 H 0.94708 0.72796 0.60061 0.0
N1626 N 0.91207 0.66768 0.63357 0.0
C1627 C 0.88075 0.69099 0.6392 0.0
C1628 C 0.93498 0.68012 0.61942 0.0
C1629 C 0.89735 0.74303 0.61784 0.0
C1630 C 0.92812 0.71793 0.61147 0.0
C1631 C 0.87266 0.72935 0.63166 0.0
H1632 H 0.83342 0.78219 0.63251 0.0
N1633 N 0.86242 0.63669 0.65738 0.0
C1634 C 0.85511 0.67497 0.65173 0.0
C1635 C 0.79151 0.67626 0.66759 0.0
C1636 C 0.81991 0.69619 0.65691 0.0
C1637 C 0.83213 0.61546 0.66568 0.0
C1638 C 0.79695 0.63518 0.67142 0.0
O1639 O 1.00937 0.54901 0.63989 0.0
O1640 O 0.98049 0.60399 0.62886 0.0
O1641 O 0.93765 0.54812 0.64809 0.0
O1642 O 0.8888 0.5824 0.63448 0.0
O1643 O 1.02202 0.64989 0.66761 0.0
O1644 O 0.96698 0.67651 0.65395 0.0
O1645 O 0.94417 0.63859 0.67934 0.0
O1646 O 0.97219 0.58439 0.69215 0.0
O1647 O 0.05441 0.59218 0.68798 0.0
O1648 O 1.03672 0.52865 0.68782 0.0
O1649 O 0.89784 0.5712 0.67736 0.0
O1650 O 0.95124 0.53118 0.68358 0.0
C1651 C 1.00409 0.57105 0.62562 0.0
C1652 C 1.00364 0.68542 0.66112 0.0
C1653 C 0.91312 0.52394 0.61998 0.0
C1654 C 0.87365 0.48029 0.60114 0.0
C1655 C 0.92638 0.52148 0.58827 0.0
C1656 C 0.93041 0.54101 0.60462 0.0
C1657 C 0.89778 0.4904 0.5865 0.0
C1658 C 0.88825 0.48975 0.61814 0.0
C1659 C 0.90798 0.54758 0.63631 0.0
C1660 C 0.81327 0.73569 0.6505 0.0
C1661 C 0.83965 0.75228 0.63786 0.0
H1662 H 0.76414 0.69148 0.67194 0.0
C1663 C 0.95693 0.61972 0.69356 0.0
C1664 C 0.91004 0.53677 0.68637 0.0
C1665 C 0.1059 0.54311 0.691 0.0
C1666 C 0.17012 0.57377 0.6953 0.0
C1667 C 0.16082 0.5029 0.7029 0.0
C1668 C 0.11991 0.50627 0.69804 0.0
C1669 C 0.18506 0.53779 0.7027 0.0
C1670 C 0.13389 0.57273 0.68607 0.0
C1671 C 0.06349 0.55514 0.69278 0.0
H1672 H 0.94067 0.53426 0.57663 0.0
H1673 H 0.9429 0.5712 0.60463 0.0
H1674 H 0.88844 0.48109 0.57332 0.0
H1675 H 0.87051 0.48005 0.62951 0.0
H1676 H 0.17188 0.47542 0.70914 0.0
H1677 H 0.099 0.4819 0.70115 0.0
H1678 H 0.21212 0.53837 0.71049 0.0
H1679 H 0.12338 0.60118 0.68045 0.0
C1680 C 0.82714 0.27113 0.77749 0.0
C1681 C 0.79968 0.20349 0.78212 0.0
C1682 C 0.79375 0.24507 0.77899 0.0
C1683 C 0.83961 0.18835 0.78345 0.0
C1684 C 0.86677 0.25674 0.78055 0.0
C1685 C 0.8729 0.21504 0.78332 0.0
N1686 N 0.82021 0.31102 0.7735 0.0
C1687 C 0.85159 0.33829 0.77301 0.0
C1688 C 0.89901 0.28457 0.78027 0.0
C1689 C 0.8913 0.32556 0.77673 0.0
Gd1690 Gd 0.71048 0.40142 0.77478 0.0
Gd1691 Gd 0.75579 0.32091 0.76053 0.0
N1692 N 0.75553 0.26041 0.77679 0.0
C1693 C 0.76523 0.17851 0.7836 0.0
C1694 C 0.72207 0.23727 0.78032 0.0
C1695 C 0.72648 0.19583 0.78372 0.0
H1696 H 0.69189 0.24968 0.77954 0.0
H1697 H 0.69992 0.17697 0.78573 0.0
H1698 H 0.73453 0.49433 0.75579 0.0
H1699 H 0.84621 0.36964 0.76956 0.0
H1700 H 0.69666 0.55201 0.74407 0.0
H1701 H 0.76812 0.14595 0.78517 0.0
H1702 H 0.84514 0.15615 0.78508 0.0
H1703 H 0.66047 0.37059 0.81246 0.0
H1704 H 0.92998 0.27468 0.78265 0.0
H1705 H 0.91612 0.34714 0.77635 0.0
H1706 H 0.56419 0.53774 0.76959 0.0
H1707 H 0.90328 0.20303 0.78518 0.0
H1708 H 0.54862 0.4353 0.81425 0.0
H1709 H 0.59464 0.38249 0.82618 0.0
N1710 N 0.65385 0.41723 0.79285 0.0
C1711 C 0.62965 0.44755 0.78673 0.0
C1712 C 0.64206 0.39479 0.80728 0.0
C1713 C 0.57815 0.43075 0.80827 0.0
C1714 C 0.60411 0.40108 0.81508 0.0
C1715 C 0.59105 0.45493 0.79411 0.0
H1716 H 0.53689 0.49227 0.7926 0.0
N1717 N 0.68291 0.46601 0.76789 0.0
C1718 C 0.64463 0.47266 0.77367 0.0
C1719 C 0.64036 0.53424 0.7563 0.0
C1720 C 0.62196 0.5065 0.76781 0.0
C1721 C 0.70243 0.49554 0.75834 0.0
C1722 C 0.68125 0.52942 0.75204 0.0
O1723 O 0.7781 0.32643 0.78988 0.0
O1724 O 0.72114 0.35308 0.79962 0.0
O1725 O 0.77448 0.39916 0.78135 0.0
O1726 O 0.73513 0.4483 0.79143 0.0
O1727 O 0.67699 0.30616 0.76193 0.0
O1728 O 0.6476 0.36249 0.77309 0.0
O1729 O 0.68643 0.3863 0.7475 0.0
O1730 O 0.73799 0.35019 0.73624 0.0
O1731 O 0.75077 0.26434 0.74661 0.0
O1732 O 0.8031 0.30312 0.74214 0.0
O1733 O 0.75291 0.42998 0.7497 0.0
O1734 O 0.79556 0.37777 0.74592 0.0
C1735 C 0.75535 0.33195 0.80376 0.0
C1736 C 0.64015 0.32457 0.76715 0.0
C1737 C 0.78835 0.42633 0.80994 0.0
C1738 C 0.84073 0.45043 0.83019 0.0
C1739 C 0.7796 0.41733 0.84156 0.0
C1740 C 0.76394 0.41549 0.82441 0.0
C1741 C 0.81746 0.43515 0.84455 0.0
C1742 C 0.82794 0.44029 0.81289 0.0
C1743 C 0.77086 0.43038 0.79212 0.0
C1744 C 0.58243 0.51245 0.77422 0.0
C1745 C 0.56697 0.48665 0.78736 0.0
H1746 H 0.62401 0.56059 0.75144 0.0
C1747 C 0.70439 0.36879 0.7341 0.0
C1748 C 0.78846 0.41786 0.74174 0.0
C1749 C 0.78363 0.25981 0.71909 0.0
C1750 C 0.74013 0.21557 0.70317 0.0
C1751 C 0.8131 0.20931 0.69987 0.0
C1752 C 0.81812 0.24112 0.71194 0.0
C1753 C 0.77394 0.19458 0.69656 0.0
C1754 C 0.74568 0.2525 0.71163 0.0
C1755 C 0.7844 0.27003 0.73779 0.0
H1756 H 0.76097 0.4082 0.85269 0.0
H1757 H 0.73256 0.40656 0.82254 0.0
H1758 H 0.82589 0.44056 0.85824 0.0
H1759 H 0.84639 0.44804 0.80154 0.0
H1760 H 0.83931 0.19284 0.69511 0.0
H1761 H 0.84812 0.24745 0.71729 0.0
H1762 H 0.7701 0.1651 0.69052 0.0
H1763 H 0.71947 0.26816 0.71704 0.0
C1764 C 0.06123 0.56992 1.02438 0.0
C1765 C 0.12505 0.54109 1.03456 0.0
C1766 C 0.08499 0.53603 1.02832 0.0
C1767 C 0.14127 0.58036 1.03638 0.0
C1768 C 0.07637 0.60933 1.02737 0.0
C1769 C 0.11685 0.61441 1.03299 0.0
N1770 N 1.02195 0.56377 1.01905 0.0
C1771 C 0.99576 0.5958 1.0174 0.0
C1772 C 0.05006 0.64232 1.02506 0.0
C1773 C 1.00944 0.63545 1.02039 0.0
Gd1774 Gd 0.92933 0.4576 1.0298 0.0
Gd1775 Gd 1.00866 0.49716 1.00892 0.0
N1776 N 0.06837 0.49821 1.02642 0.0
C1777 C 0.14768 0.50644 1.03862 0.0
C1778 C 0.0888 0.46477 1.03241 0.0
C1779 C 0.12894 0.46836 1.03843 0.0
H1780 H 0.07539 0.43504 1.03199 0.0
H1781 H 0.14582 0.44155 1.04226 0.0
H1782 H 0.8457 0.51896 1.02747 0.0
H1783 H 0.96435 0.59115 1.01385 0.0
H1784 H 0.77246 0.51139 1.02163 0.0
H1785 H 0.17962 0.50886 1.04178 0.0
H1786 H 0.17228 0.58475 1.04094 0.0
H1787 H 0.95351 0.3827 1.05804 0.0
H1788 H 0.06051 0.67313 1.02727 0.0
H1789 H 0.98869 0.66074 1.01894 0.0
H1790 H 0.74849 0.3682 1.02906 0.0
H1791 H 0.12932 0.6445 1.03509 0.0
H1792 H 0.85805 0.29393 1.05645 0.0
H1793 H 0.92676 0.31517 1.06653 0.0
N1794 N 0.90131 0.39843 1.04273 0.0
C1795 C 0.86275 0.38852 1.03836 0.0
C1796 C 0.92341 0.37367 1.0537 0.0
C1797 C 0.86974 0.32344 1.05269 0.0
C1798 C 0.90842 0.33541 1.05848 0.0
C1799 C 0.84575 0.35082 1.04302 0.0
H1800 H 0.79131 0.31368 1.04172 0.0
N1801 N 0.85686 0.45515 1.0292 0.0
C1802 C 0.83922 0.4185 1.03131 0.0
C1803 C 0.77326 0.4462 1.02419 0.0
C1804 C 0.79724 0.41256 1.0286 0.0
C1805 C 0.83284 0.48878 1.02705 0.0
C1806 C 0.79099 0.48475 1.02399 0.0
O1807 O 1.00483 0.52394 1.03817 0.0
O1808 O 0.98668 0.46661 1.0503 0.0
O1809 O 0.92104 0.51954 1.03973 0.0
O1810 O 0.93305 0.46753 1.05758 0.0
O1811 O 1.02362 0.41981 1.01203 0.0
O1812 O 0.96805 0.39369 1.02545 0.0
O1813 O 0.94146 0.42603 1.00407 0.0
O1814 O 0.9642 0.47821 0.98856 0.0
O1815 O 0.05529 0.47849 0.99086 0.0
O1816 O 1.03313 0.54024 0.98981 0.0
O1817 O 0.89781 0.50673 1.00669 0.0
O1818 O 0.95235 0.53639 0.99413 0.0
C1819 C 1.00651 0.50213 1.05282 0.0
C1820 C 1.00522 0.38448 1.01862 0.0
C1821 C 0.88627 0.51419 1.06766 0.0
C1822 C 0.85174 0.56006 1.08763 0.0
C1823 C 0.83461 0.48795 1.08743 0.0
C1824 C 0.8622 0.48182 1.07392 0.0
C1825 C 0.82978 0.5265 0.09445 0.0
C1826 C 0.88035 0.55353 1.07421 0.0
C1827 C 0.92059 0.50518 1.05614 0.0
C1828 C 0.78051 0.37384 1.03148 0.0
C1829 C 0.80486 0.34284 1.03869 0.0
H1830 H 0.74082 0.44311 1.02198 0.0
C1831 C 0.94325 0.44521 0.98907 0.0
C1832 C 0.91064 0.53604 0.99462 0.0
C1833 C 0.10366 0.53116 0.98765 0.0
C1834 C 0.17013 0.50412 0.98564 0.0
C1835 C 0.15734 0.57246 0.97526 0.0
C1836 C 0.1161 0.56715 0.9793 0.0
C1837 C 0.18414 0.53972 0.97746 0.0
C1838 C 0.1332 0.50476 0.99426 0.0
C1839 C 0.06201 0.51567 0.98558 0.0
H1840 H 0.81685 0.46277 0.09245 0.0
H1841 H 0.86574 0.45124 1.06889 0.0
H1842 H 0.80718 0.53006 0.1047 0.0
H1843 H 0.89791 0.57871 1.06902 0.0
H1844 H 0.16722 0.59951 0.96836 0.0
H1845 H 0.094 0.58926 0.97479 0.0
H1846 H 0.21341 0.54031 0.97095 0.0
H1847 H 0.12392 0.4768 1.00065 0.0
C1848 C 0.75327 0.80785 0.27322 0.0
C1849 C 0.78014 0.87206 0.28392 0.0
C1850 C 0.78632 0.83272 0.27719 0.0
C1851 C 0.74022 0.88676 0.28561 0.0
C1852 C 0.71347 0.82084 0.27682 0.0
C1853 C 0.70699 0.86092 0.28248 0.0
N1854 N 0.76091 0.76931 0.26752 0.0
C1855 C 0.73022 0.74136 0.26656 0.0
C1856 C 0.68165 0.79285 0.27505 0.0
C1857 C 0.69021 0.75274 0.27032 0.0
Gd1858 Gd 0.87067 0.67603 0.27389 0.0
Gd1859 Gd 0.82761 0.75983 0.25675 0.0
N1860 N 0.82449 0.81713 0.27547 0.0
C1861 C 0.81432 0.89475 0.28902 0.0
C1862 C 0.85731 0.83751 0.28222 0.0
C1863 C 0.8527 0.87672 0.289 0.0
H1864 H 0.88733 0.82477 0.2819 0.0
H1865 H 0.879 0.89359 0.29359 0.0
H1866 H 0.81775 0.58651 0.26553 0.0
H1867 H 0.7362 0.7102 0.26315 0.0
H1868 H 0.833 0.51921 0.25332 0.0
H1869 H 0.8118 0.92597 0.29313 0.0
H1870 H 0.73448 0.91749 0.28991 0.0
H1871 H 0.94196 0.69274 0.30469 0.0
H1872 H 0.65057 0.80155 0.27783 0.0
H1873 H 0.66595 0.73059 0.26944 0.0
H1874 H 0.97834 0.51011 0.25747 0.0
H1875 H 0.67648 0.87197 0.28484 0.0
H1876 H 1.03983 0.6092 0.29596 0.0
H1877 H 1.0115 0.66858 0.31185 0.0
N1878 N 0.93155 0.64764 0.28502 0.0
C1879 C 0.94564 0.61382 0.27707 0.0
C1880 C 0.95386 0.6662 0.29805 0.0
C1881 C 1.00931 0.61953 0.29291 0.0
C1882 C 0.99331 0.65286 0.302 0.0
C1883 C 0.98489 0.59874 0.28064 0.0
H1884 H 1.02786 0.55082 0.27464 0.0
N1885 N 0.87998 0.60575 0.26655 0.0
C1886 C 0.91853 0.5918 0.26723 0.0
C1887 C 0.8979 0.52746 0.25478 0.0
C1888 C 0.92895 0.55284 0.261 0.0
C1889 C 0.84915 0.57863 0.26314 0.0
C1890 C 0.85759 0.53979 0.25662 0.0
O1891 O 0.80481 0.75423 0.28627 0.0
O1892 O 0.85993 0.72587 0.29791 0.0
O1893 O 0.80806 0.66915 0.2826 0.0
O1894 O 0.85953 0.66929 0.30158 0.0
O1895 O 0.90545 0.77584 0.26143 0.0
O1896 O 0.93332 0.71654 0.27122 0.0
O1897 O 0.89134 0.70926 0.24994 0.0
O1898 O 0.8393 0.72123 0.23356 0.0
O1899 O 0.84934 0.80771 0.23973 0.0
O1900 O 0.78582 0.79067 0.23887 0.0
O1901 O 0.82275 0.64727 0.25035 0.0
O1902 O 0.78746 0.70273 0.24184 0.0
C1903 C 0.82633 0.74898 0.30086 0.0
C1904 C 0.94138 0.75566 0.26658 0.0
C1905 C 0.80875 0.62327 0.30694 0.0
C1906 C 0.76799 0.58743 0.32818 0.0
C1907 C 0.82568 0.55374 0.31461 0.0
C1908 C 0.83453 0.58932 0.30561 0.0
C1909 C 0.79233 0.55257 0.32577 0.0
C1910 C 0.7756 0.62252 0.31841 0.0
C1911 C 0.821 0.66126 0.29888 0.0
C1912 C 0.9693 0.53935 0.2627 0.0
C1913 C 0.9974 0.56243 0.27254 0.0
H1914 H 0.90443 0.4972 0.24995 0.0
C1915 C 0.8748 0.70612 0.23451 0.0
C1916 C 0.79016 0.6609 0.24038 0.0
C1917 C 0.80036 0.86003 0.23951 0.0
C1918 C 0.82568 0.92735 0.2426 0.0
C1919 C 0.75402 0.91669 0.23682 0.0
C1920 C 0.76147 0.87497 0.23539 0.0
C1921 C 0.78664 0.94319 0.23996 0.0
C1922 C 0.8292 0.88648 0.24676 0.0
C1923 C 0.81242 0.81835 0.23527 0.0
H1924 H 0.84567 0.52775 0.31355 0.0
H1925 H 0.86267 0.59086 0.29838 0.0
H1926 H 0.78693 0.5252 0.3334 0.0
H1927 H 0.75761 0.64964 0.32056 0.0
H1928 H 0.7241 0.92868 0.23392 0.0
H1929 H 0.73757 0.85483 0.23081 0.0
H1930 H 0.78223 0.97543 0.23876 0.0
H1931 H 0.85948 0.87531 0.24983 0.0
C1932 C 0.51745 0.49764 0.52167 0.0
C1933 C 0.45175 0.52207 0.53158 0.0
C1934 C 0.49142 0.52971 0.52553 0.0
C1935 C 0.43763 0.48184 0.53246 0.0
C1936 C 0.50443 0.45727 0.52385 0.0
C1937 C 0.46382 0.44951 0.52849 0.0
N1938 N 0.55684 0.50651 0.51764 0.0
C1939 C 0.58555 0.47657 0.51744 0.0
C1940 C 0.53324 0.42618 0.52243 0.0
C1941 C 0.57413 0.43599 0.51975 0.0
Gd1942 Gd 0.6479 0.61462 0.5261 0.0
Gd1943 Gd 0.56655 0.57388 0.50798 0.0
N1944 N 0.50603 0.56833 0.52424 0.0
C1945 C 0.42777 0.55504 0.53675 0.0
C1946 C 0.48324 0.60052 0.52972 0.0
C1947 C 0.44386 0.59433 0.53612 0.0
H1948 H 0.49464 0.63108 0.5288 0.0
H1949 H 0.42561 0.61995 0.54023 0.0
H1950 H 0.74206 0.58499 0.50944 0.0
H1951 H 0.61727 0.48359 0.51563 0.0
H1952 H 0.80075 0.61887 0.49667 0.0
H1953 H 0.39705 0.55047 0.54147 0.0
H1954 H 0.40691 0.47535 0.53675 0.0
H1955 H 0.62256 0.66939 0.56259 0.0
H1956 H 0.52459 0.3947 0.52423 0.0
H1957 H 0.59686 0.41227 0.5194 0.0
H1958 H 0.78544 0.75775 0.5141 0.0
H1959 H 0.453 0.41862 0.52996 0.0
H1960 H 0.68965 0.78055 0.56075 0.0
H1961 H 0.63817 0.73673 0.57506 0.0
N1962 N 0.66664 0.67354 0.54206 0.0
C1963 C 0.69611 0.69658 0.53454 0.0
C1964 C 0.64668 0.68707 0.5568 0.0
C1965 C 0.68365 0.75052 0.55548 0.0
C1966 C 0.6548 0.72573 0.56368 0.0
C1967 C 0.70513 0.73585 0.54086 0.0
H1968 H 0.74267 0.78929 0.53702 0.0
N1969 N 0.71244 0.63987 0.51739 0.0
C1970 C 0.71959 0.67923 0.52152 0.0
C1971 C 0.78147 0.67868 0.50442 0.0
C1972 C 0.75361 0.70013 0.51475 0.0
C1973 C 0.74271 0.61763 0.50966 0.0
C1974 C 0.77709 0.63675 0.50274 0.0
O1975 O 0.56708 0.55085 0.5379 0.0
O1976 O 0.59625 0.60536 0.54939 0.0
O1977 O 0.64589 0.55345 0.53668 0.0
O1978 O 0.69458 0.59674 0.54434 0.0
O1979 O 0.55231 0.65128 0.51212 0.0
O1980 O 0.6086 0.67767 0.52522 0.0
O1981 O 0.62551 0.6421 0.50088 0.0
O1982 O 0.60711 0.58818 0.48593 0.0
O1983 O 0.51842 0.59708 0.49124 0.0
O1984 O 0.53902 0.53511 0.48806 0.0
O1985 O 0.67762 0.56794 0.50237 0.0
O1986 O 0.62276 0.53313 0.49314 0.0
C1987 C 0.57315 0.57199 0.55258 0.0
C1988 C 0.57112 0.68646 0.51875 0.0
C1989 C 0.67243 0.55211 0.56616 0.0
C1990 C 0.7056 0.5205 0.59115 0.0
C1991 C 0.65846 0.57564 0.59605 0.0
C1992 C 0.65429 0.57997 0.57783 0.0
C1993 C 0.68516 0.54678 0.60265 0.0
C1994 C 0.69623 0.52081 0.57304 0.0
C1995 C 0.67678 0.56166 0.54735 0.0
C1996 C 0.76028 0.74073 0.51962 0.0
C1997 C 0.73606 0.75859 0.53272 0.0
H1998 H 0.80813 0.69346 0.49902 0.0
C1999 C 0.62251 0.62373 0.48582 0.0
C2000 C 0.66459 0.5357 0.49204 0.0
C2001 C 0.46877 0.54604 0.48655 0.0
C2002 C 0.39885 0.56508 0.48438 0.0
C2003 C 0.41757 0.49458 0.48085 0.0
C2004 C 0.45849 0.50551 0.48276 0.0
C2005 C 0.38775 0.52487 0.48068 0.0
C2006 C 0.43796 0.57344 0.49051 0.0
C2007 C 0.51052 0.56114 0.48476 0.0
H2008 H 0.64542 0.59809 0.60482 0.0
H2009 H 0.64019 0.60727 0.57318 0.0
H2010 H 0.69594 0.55023 0.61605 0.0
H2011 H 0.71374 0.5021 0.56401 0.0
H2012 H 0.40951 0.4636 0.47762 0.0
H2013 H 0.48184 0.4829 0.48064 0.0
H2014 H 0.3575 0.51784 0.47582 0.0
H2015 H 0.44574 0.60484 0.49342 0.0
C2016 C 0.44181 0.46455 0.28328 0.0
C2017 C 0.42153 0.52562 0.26796 0.0
C2018 C 0.41353 0.48568 0.27371 0.0
C2019 C 0.46077 0.54177 0.2702 0.0
C2020 C 0.48001 0.48175 0.28714 0.0
C2021 C 0.49013 0.51975 0.27981 0.0
N2022 N 0.42972 0.42918 0.29067 0.0
C2023 C 0.4532 0.41068 0.30328 0.0
C2024 C 0.5058 0.46115 0.29892 0.0
C2025 C 0.49185 0.42602 0.3074 0.0
Gd2026 Gd 0.33424 0.31681 0.2573 0.0
Gd2027 Gd 0.37116 0.39841 0.27856 0.0
N2028 N 0.376 0.46937 0.27271 0.0
C2029 C 0.38909 0.54886 0.26147 0.0
C2030 C 0.34358 0.49457 0.26974 0.0
C2031 C 0.34965 0.53363 0.26303 0.0
H2032 H 0.31276 0.48434 0.272 0.0
H2033 H 0.32373 0.55205 0.25957 0.0
H2034 H 0.3901 0.24101 0.27566 0.0
H2035 H 0.44277 0.38303 0.30956 0.0
H2036 H 0.37739 0.17281 0.28795 0.0
H2037 H 0.39374 0.57954 0.25669 0.0
H2038 H 0.468 0.57194 0.26541 0.0
H2039 H 0.24646 0.37072 0.26515 0.0
H2040 H 0.53567 0.47302 0.30214 0.0
H2041 H 0.51094 0.41064 0.31702 0.0
H2042 H 0.2318 0.16275 0.29022 0.0
H2043 H 0.51975 0.53314 0.2822 0.0
H2044 H 0.15533 0.28397 0.27906 0.0
H2045 H 0.17524 0.35443 0.27177 0.0
N2046 N 0.26713 0.30975 0.26801 0.0
C2047 C 0.25692 0.27092 0.27268 0.0
C2048 C 0.23845 0.33971 0.268 0.0
C2049 C 0.18674 0.29074 0.27596 0.0
C2050 C 0.19791 0.33062 0.2719 0.0
C2051 C 0.21654 0.26048 0.2768 0.0
H2052 H 0.1766 0.21202 0.28543 0.0
N2053 N 0.32738 0.25565 0.27312 0.0
C2054 C 0.28823 0.24309 0.27557 0.0
C2055 C 0.31219 0.17856 0.28662 0.0
C2056 C 0.27965 0.20423 0.28238 0.0
C2057 C 0.35922 0.23121 0.27769 0.0
C2058 C 0.35209 0.19234 0.28452 0.0
O2059 O 0.40612 0.37983 0.25506 0.0
O2060 O 0.35524 0.36241 0.23794 0.0
O2061 O 0.35405 0.26813 0.24018 0.0
O2062 O 0.29379 0.29343 0.23695 0.0
O2063 O 0.323 0.42724 0.25455 0.0
O2064 O 0.295 0.37246 0.24144 0.0
O2065 O 0.3135 0.31468 0.28781 0.0
O2066 O 0.36415 0.34697 0.30147 0.0
O2067 O 0.30853 0.39299 0.28623 0.0
O2068 O 0.35542 0.42184 0.30431 0.0
O2069 O 0.4111 0.30255 0.26076 0.0
O2070 O 0.43349 0.35486 0.27788 0.0
C2071 C 0.38998 0.37997 0.23953 0.0
C2072 C 0.29437 0.41429 0.24218 0.0
C2073 C 0.29925 0.22261 0.23525 0.0
C2074 C 0.31248 0.1513 0.23308 0.0
C2075 C 0.24365 0.17584 0.2295 0.0
C2076 C 0.2579 0.21568 0.23147 0.0
C2077 C 0.27138 0.14365 0.22941 0.0
C2078 C 0.32425 0.18961 0.23905 0.0
C2079 C 0.31759 0.26316 0.2336 0.0
C2080 C 0.23906 0.19276 0.28525 0.0
C2081 C 0.20759 0.22082 0.28247 0.0
H2082 H 0.30684 0.14838 0.29184 0.0
C2083 C 0.33237 0.32134 0.30316 0.0
C2084 C 0.44455 0.3196 0.2695 0.0
C2085 C 0.28634 0.41789 0.31474 0.0
C2086 C 0.23489 0.46589 0.32446 0.0
C2087 C 0.27391 0.42586 0.34589 0.0
C2088 C 0.29521 0.40779 0.3323 0.0
C2089 C 0.24399 0.45455 0.34221 0.0
C2090 C 0.25473 0.44494 0.31072 0.0
C2091 C 0.31732 0.41077 0.30153 0.0
H2092 H 0.21206 0.1704 0.2262 0.0
H2093 H 0.23717 0.24077 0.22936 0.0
H2094 H 0.26178 0.11416 0.2246 0.0
H2095 H 0.3563 0.19479 0.24185 0.0
H2096 H 0.28386 0.42043 0.35922 0.0
H2097 H 0.32096 0.38872 0.33558 0.0
H2098 H 0.23128 0.47053 0.35344 0.0
H2099 H 0.24936 0.45318 0.29698 0.0
C2100 C 0.37243 0.69356 1.03081 0.0
C2101 C 0.31103 0.67787 1.01466 0.0
C2102 C 0.35006 0.66709 1.02086 0.0
C2103 C 0.29766 0.7181 1.01668 0.0
C2104 C 0.35708 0.73217 1.03503 0.0
C2105 C 0.32072 0.74534 1.02698 0.0
N2106 N 0.40616 0.67864 1.0387 0.0
C2107 C 0.42439 0.69932 1.05231 0.0
C2108 C 0.37712 0.75483 1.04815 0.0
C2109 C 0.41029 0.73781 1.05718 0.0
Gd2110 Gd 0.51558 0.57743 1.00879 0.0
Gd2111 Gd 0.43415 0.61871 1.0268 0.0
N2112 N 0.36346 0.62845 1.02043 0.0
C2113 C 0.28537 0.64711 1.00837 0.0
C2114 C 0.33595 0.5979 1.01729 0.0
C2115 C 0.29726 0.60668 1.01045 0.0
H2116 H 0.34372 0.56649 1.01975 0.0
H2117 H 0.27647 0.58231 1.0071 0.0
H2118 H 0.57593 0.64005 1.03464 0.0
H2119 H 0.45095 0.68678 1.05884 0.0
H2120 H 0.64294 0.6348 1.04892 0.0
H2121 H 0.25514 0.65395 1.00342 0.0
H2122 H 0.26827 0.72746 1.01157 0.0
H2123 H 0.47486 0.48149 1.01063 0.0
H2124 H 0.36627 0.78464 1.0519 0.0
H2125 H 0.42545 0.75461 1.06765 0.0
H2126 H 0.67768 0.49367 1.04377 0.0
H2127 H 0.30887 0.77541 1.02958 0.0
H2128 H 0.57398 0.40254 1.02321 0.0
H2129 H 0.5023 0.41252 1.01408 0.0
N2130 N 0.53036 0.51076 1.01791 0.0
C2131 C 0.56915 0.50584 1.02399 0.0
C2132 C 0.50602 0.47783 1.01478 0.0
C2133 C 0.56209 0.43304 1.0218 0.0
C2134 C 0.52153 0.43855 1.01671 0.0
C2135 C 0.58625 0.46688 1.02583 0.0
H2136 H 0.64002 0.43331 1.03373 0.0
N2137 N 0.57257 0.57725 1.02794 0.0
C2138 C 0.5905 0.5401 1.02961 0.0
C2139 C 0.64848 0.57056 1.0442 0.0
C2140 C 0.62926 0.53591 1.03744 0.0
C2141 C 0.59047 0.61087 1.03516 0.0
C2142 C 0.62861 0.60799 1.0434 0.0
O2143 O 0.45842 0.64518 1.00168 0.0
O2144 O 0.47597 0.59154 0.98648 0.0
O2145 O 0.56673 0.59697 0.99318 0.0
O2146 O 0.54167 0.53668 0.98938 0.0
O2147 O 0.40353 0.57107 1.00351 0.0
O2148 O 0.45861 0.53888 0.9931 0.0
O2149 O 0.50736 0.54973 1.03768 0.0
O2150 O 0.4867 0.60701 1.04952 0.0
O2151 O 0.42206 0.55668 1.03549 0.0
O2152 O 0.42915 0.60698 1.05459 0.0
O2153 O 0.53026 0.65575 1.01185 0.0
O2154 O 0.47371 0.68224 1.0245 0.0
C2155 C 0.46029 0.62684 0.98653 0.0
C2156 C 0.41665 0.54043 0.99244 0.0
C2157 C 0.61274 0.54207 0.98951 0.0
C2158 C 0.68087 0.56285 0.98541 0.0
C2159 C 0.6618 0.49388 0.97827 0.0
C2160 C 0.62156 0.50348 0.98258 0.0
C2161 C 0.69124 0.52462 0.97864 0.0
C2162 C 0.64481 0.56713 0.9947 0.0
C2163 C 0.57242 0.56041 0.98695 0.0
C2164 C 0.64742 0.49735 1.03831 0.0
C2165 C 0.62606 0.46296 1.03244 0.0
H2166 H 0.6783 0.56865 1.05033 0.0
C2167 C 0.50561 0.57113 1.0525 0.0
C2168 C 0.51132 0.6913 1.01815 0.0
C2169 C 0.37583 0.56294 1.05954 0.0
C2170 C 0.32732 0.51872 1.07355 0.0
C2171 C 0.31227 0.59058 1.07049 0.0
C2172 C 0.34932 0.59606 1.06216 0.0
C2173 C 0.30127 0.55212 1.07623 0.0
C2174 C 0.36463 0.52406 1.06513 0.0
C2175 C 0.41565 0.57014 1.05175 0.0
H2176 H 0.66884 0.46471 0.97245 0.0
H2177 H 0.59743 0.48236 0.97928 0.0
H2178 H 0.7197 0.52027 0.97173 0.0
H2179 H 0.63818 0.59677 1.00031 0.0
H2180 H 0.29222 0.61617 1.07258 0.0
H2181 H 0.35736 0.62646 1.058 0.0
H2182 H 0.27224 0.54829 1.08276 0.0
H2183 H 0.3848 0.49846 1.06314 0.0
C2184 C 0.13515 0.61904 0.78097 0.0
C2185 C 0.14986 0.55777 0.76491 0.0
C2186 C 0.16121 0.59666 0.77096 0.0
C2187 C 0.10941 0.54484 0.76691 0.0
C2188 C 0.09593 0.60461 0.78485 0.0
C2189 C 0.0823 0.56842 0.77689 0.0
N2190 N 0.15072 0.65215 0.78905 0.0
C2191 C 0.12979 0.6709 0.80234 0.0
C2192 C 0.07287 0.62562 0.79741 0.0
C2193 C 0.09028 0.6584 0.80651 0.0
Gd2194 Gd 0.25358 0.76123 0.76133 0.0
Gd2195 Gd 0.21061 0.68021 0.77714 0.0
N2196 N 0.20001 0.6099 0.7703 0.0
C2197 C 0.18028 0.53174 0.75881 0.0
C2198 C 0.23026 0.58234 0.76694 0.0
C2199 C 0.22088 0.5434 0.76068 0.0
H2200 H 0.26186 0.58993 0.76919 0.0
H2201 H 0.24495 0.5222 0.75762 0.0
H2202 H 0.19603 0.8395 0.77717 0.0
H2203 H 0.14271 0.69713 0.80893 0.0
H2204 H 0.20884 0.91111 0.78389 0.0
H2205 H 0.17306 0.50142 0.75417 0.0
H2206 H 0.09968 0.51552 0.76194 0.0
H2207 H 0.34098 0.70814 0.77103 0.0
H2208 H 0.04241 0.61577 0.80072 0.0
H2209 H 0.07317 0.6743 0.81657 0.0
H2210 H 0.35425 0.92074 0.78823 0.0
H2211 H 0.0519 0.55713 0.77933 0.0
H2212 H 0.43115 0.79722 0.78392 0.0
H2213 H 0.41213 0.72586 0.77777 0.0
N2214 N 0.31948 0.76892 0.77344 0.0
C2215 C 0.32918 0.80812 0.77755 0.0
C2216 C 0.34863 0.73937 0.77374 0.0
C2217 C 0.3997 0.78964 0.78112 0.0
C2218 C 0.38907 0.74929 0.77765 0.0
C2219 C 0.36954 0.81962 0.78124 0.0
H2220 H 0.4093 0.87012 0.78765 0.0
N2221 N 0.2588 0.82352 0.77624 0.0
C2222 C 0.29778 0.83626 0.7789 0.0
C2223 C 0.27395 0.90466 0.78333 0.0
C2224 C 0.30643 0.8772 0.78258 0.0
C2225 C 0.22694 0.84931 0.77892 0.0
C2226 C 0.23408 0.8903 0.78251 0.0
O2227 O 0.18494 0.70732 0.75229 0.0
O2228 O 0.24073 0.72305 0.73859 0.0
O2229 O 0.23492 0.80991 0.74394 0.0
O2230 O 0.29609 0.78522 0.74238 0.0
O2231 O 0.25821 0.65067 0.75356 0.0
O2232 O 0.295 0.70559 0.74634 0.0
O2233 O 0.27476 0.75847 0.79117 0.0
O2234 O 0.21818 0.7309 0.80123 0.0
O2235 O 0.27401 0.67213 0.78502 0.0
O2236 O 0.22474 0.67406 0.80469 0.0
O2237 O 0.17575 0.77735 0.7653 0.0
O2238 O 0.14709 0.71868 0.7744 0.0
C2239 C 0.20449 0.71003 0.73754 0.0
C2240 C 0.2917 0.66407 0.74413 0.0
C2241 C 0.28976 0.85528 0.73918 0.0
C2242 C 0.27238 0.92185 0.73007 0.0
C2243 C 0.34252 0.89989 0.72854 0.0
C2244 C 0.33073 0.86194 0.73494 0.0
C2245 C 0.31254 0.92849 0.72452 0.0
C2246 C 0.26363 0.88814 0.74037 0.0
C2247 C 0.272 0.81474 0.73814 0.0
C2248 C 0.34697 0.88934 0.78535 0.0
C2249 C 0.37835 0.86051 0.78498 0.0
H2250 H 0.27925 0.93676 0.78532 0.0
C2251 C 0.25153 0.75385 0.80511 0.0
C2252 C 0.13928 0.75778 0.77001 0.0
C2253 C 0.27258 0.62432 0.80881 0.0
C2254 C 0.31446 0.58297 0.82786 0.0
C2255 C 0.24894 0.55752 0.81784 0.0
C2256 C 0.24237 0.59388 0.80906 0.0
C2257 C 0.28481 0.55198 0.82723 0.0
C2258 C 0.3091 0.61854 0.81804 0.0
C2259 C 0.26236 0.66387 0.80137 0.0
H2260 H 0.37351 0.90477 0.72428 0.0
H2261 H 0.35247 0.83727 0.73502 0.0
H2262 H 0.32005 0.95226 0.71535 0.0
H2263 H 0.23215 0.88305 0.74409 0.0
H2264 H 0.22555 0.53437 0.81796 0.0
H2265 H 0.21281 0.59875 0.80316 0.0
H2266 H 0.28881 0.52403 0.83463 0.0
H2267 H 0.33206 0.64212 0.81835 0.0
C2268 C 0.19835 0.3791 0.53704 0.0
C2269 C 0.25624 0.37097 0.51766 0.0
C2270 C 0.22285 0.39391 0.52369 0.0
C2271 C 0.26224 0.33148 0.52418 0.0
C2272 C 0.20587 0.34058 0.54451 0.0
C2273 C 0.23707 0.31628 0.53759 0.0
N2274 N 0.16865 0.40349 0.54342 0.0
C2275 C 0.14715 0.39238 0.55815 0.0
C2276 C 0.18245 0.32807 0.55897 0.0
C2277 C 0.15348 0.35441 0.56602 0.0
Gd2278 Gd 0.07198 0.50138 0.50813 0.0
Gd2279 Gd 0.15236 0.46016 0.52571 0.0
N2280 N 0.21635 0.43233 0.51789 0.0
C2281 C 0.28372 0.38913 0.50598 0.0
C2282 C 0.24594 0.45158 0.50826 0.0
C2283 C 0.27927 0.43008 0.50176 0.0
H2284 H 0.24568 0.48369 0.50586 0.0
H2285 H 0.30187 0.44535 0.49376 0.0
H2286 H 1.00788 0.43703 0.53083 0.0
H2287 H 0.12374 0.41166 0.56341 0.0
H2288 H 0.93978 0.44135 0.54361 0.0
H2289 H 0.30975 0.37259 0.50103 0.0
H2290 H 0.28723 0.31309 0.51944 0.0
H2291 H 0.11243 0.59714 0.51205 0.0
H2292 H 0.18712 0.29858 0.56503 0.0
H2293 H 0.13559 0.34525 0.57736 0.0
H2294 H 0.90889 0.58351 0.54313 0.0
H2295 H 0.24285 0.28626 0.54292 0.0
H2296 H 1.01438 0.67559 0.52592 0.0
H2297 H 0.08587 0.66579 0.51691 0.0
N2298 N 0.05625 0.56761 0.51777 0.0
C2299 C 1.0173 0.57232 0.52353 0.0
C2300 C 0.08108 0.60059 0.51575 0.0
C2301 C 1.02572 0.64518 0.52365 0.0
C2302 C 0.06616 0.63976 0.51862 0.0
C2303 C 1.00099 0.61123 0.52656 0.0
H2304 H 0.94822 0.64459 0.53552 0.0
N2305 N 1.01274 0.50055 0.52569 0.0
C2306 C 0.99514 0.53769 0.5279 0.0
C2307 C 0.9356 0.50619 0.54042 0.0
C2308 C 0.95609 0.54143 0.53528 0.0
C2309 C 0.9938 0.46633 0.53173 0.0
C2310 C 0.95497 0.46864 0.53912 0.0
O2311 O 0.1377 0.43289 0.4993 0.0
O2312 O 0.11098 0.487 0.48616 0.0
O2313 O 1.02125 0.48103 0.49215 0.0
O2314 O 0.04769 0.54047 0.4877 0.0
O2315 O 0.18282 0.50688 0.50197 0.0
O2316 O 0.12827 0.54258 0.49342 0.0
O2317 O 0.07711 0.52772 0.53717 0.0
O2318 O 0.09925 0.47028 0.54829 0.0
O2319 O 0.15466 0.52283 0.53397 0.0
O2320 O 0.19758 0.47741 0.54501 0.0
O2321 O 0.05894 0.42331 0.51064 0.0
O2322 O 0.11393 0.39645 0.52432 0.0
C2323 C 0.12738 0.45211 0.48491 0.0
C2324 C 0.16999 0.53958 0.49183 0.0
C2325 C 0.97695 0.53604 0.48672 0.0
C2326 C 0.90571 0.52511 0.48258 0.0
C2327 C 0.93258 0.59368 0.48203 0.0
C2328 C 0.97162 0.57808 0.48447 0.0
C2329 C 0.89993 0.56697 0.4799 0.0
C2330 C 0.94315 0.51124 0.48869 0.0
C2331 C 1.01677 0.51691 0.48503 0.0
C2332 C 0.93899 0.58013 0.53755 0.0
C2333 C 0.96135 0.61493 0.53318 0.0
H2334 H 0.90517 0.50783 0.54575 0.0
C2335 C 0.07923 0.50537 0.55161 0.0
C2336 C 0.07707 0.38773 0.51724 0.0
C2337 C 0.17759 0.53123 0.56351 0.0
C2338 C 0.19681 0.58089 0.58559 0.0
C2339 C 0.14534 0.53125 0.59231 0.0
C2340 C 0.15381 0.51159 0.57635 0.0
C2341 C 0.16458 0.56784 0.59625 0.0
C2342 C 0.19943 0.56584 0.56825 0.0
C2343 C 0.18339 0.51466 0.54574 0.0
H2344 H 0.92835 0.62589 0.47987 0.0
H2345 H 0.99743 0.59848 0.48388 0.0
H2346 H 0.87188 0.57884 0.47467 0.0
H2347 H 0.94747 0.47874 0.49046 0.0
H2348 H 0.12583 0.51719 0.60206 0.0
H2349 H 0.14154 0.48165 0.5741 0.0
H2350 H 0.15993 0.58164 0.60899 0.0
H2351 H 0.22254 0.57712 0.55929 0.0
C2352 C 0.44754 0.62156 0.39757 0.0
C2353 C 0.43659 0.55977 0.41394 0.0
C2354 C 0.4231 0.59798 0.40791 0.0
C2355 C 0.47727 0.54847 0.41123 0.0
C2356 C 0.48702 0.60884 0.39315 0.0
C2357 C 0.5026 0.57313 0.40082 0.0
N2358 N 0.43053 0.65468 0.39009 0.0
C2359 C 0.45006 0.67496 0.37678 0.0
C2360 C 0.5086 0.63131 0.38053 0.0
C2361 C 0.48963 0.66401 0.372 0.0
Gd2362 Gd 0.32858 0.76259 0.42023 0.0
Gd2363 Gd 0.37069 0.68009 0.40305 0.0
N2364 N 0.38408 0.61003 0.40966 0.0
C2365 C 0.40809 0.53311 0.42126 0.0
C2366 C 0.35538 0.58169 0.41428 0.0
C2367 C 0.36699 0.54357 0.42078 0.0
H2368 H 0.32327 0.58773 0.41278 0.0
H2369 H 0.34416 0.52205 0.42509 0.0
H2370 H 0.3892 0.82745 0.39594 0.0
H2371 H 0.436 0.70122 0.37068 0.0
H2372 H 0.38168 0.89531 0.38297 0.0
H2373 H 0.41705 0.50343 0.42608 0.0
H2374 H 0.48868 0.51976 0.4162 0.0
H2375 H 0.23421 0.71779 0.41618 0.0
H2376 H 0.5392 0.62281 0.37682 0.0
H2377 H 0.50563 0.68111 0.36194 0.0
H2378 H 0.2388 0.92388 0.38777 0.0
H2379 H 0.53328 0.56322 0.398 0.0
H2380 H 0.15138 0.81395 0.40423 0.0
H2381 H 0.16425 0.74223 0.41224 0.0
N2382 N 0.26139 0.77526 0.41072 0.0
C2383 C 0.25494 0.81413 0.40516 0.0
C2384 C 0.22942 0.74917 0.41279 0.0
C2385 C 0.18235 0.80344 0.40596 0.0
C2386 C 0.18951 0.76289 0.41044 0.0
C2387 C 0.21528 0.82945 0.40294 0.0
H2388 H 0.17964 0.88227 0.39567 0.0
N2389 N 0.32624 0.82079 0.40195 0.0
C2390 C 0.28846 0.83739 0.40034 0.0
C2391 C 0.3171 0.89789 0.38734 0.0
C2392 C 0.28295 0.87663 0.3933 0.0
C2393 C 0.35939 0.84068 0.39539 0.0
C2394 C 0.35526 0.8794 0.38795 0.0
O2395 O 0.39573 0.70723 0.42805 0.0
O2396 O 0.34194 0.72335 0.44281 0.0
O2397 O 0.35018 0.81336 0.43586 0.0
O2398 O 0.28949 0.78983 0.43988 0.0
O2399 O 0.32342 0.64965 0.42644 0.0
O2400 O 0.28898 0.70492 0.43534 0.0
O2401 O 0.30294 0.75634 0.39081 0.0
O2402 O 0.35965 0.73183 0.37956 0.0
O2403 O 0.30748 0.67041 0.39526 0.0
O2404 O 0.35648 0.6743 0.37549 0.0
O2405 O 0.40645 0.7774 0.41637 0.0
O2406 O 0.43389 0.71905 0.40593 0.0
C2407 C 0.37675 0.70639 0.44298 0.0
C2408 C 0.29146 0.66293 0.43676 0.0
C2409 C 0.29705 0.86067 0.44056 0.0
C2410 C 0.31041 0.93176 0.44439 0.0
C2411 C 0.24088 0.9081 0.44323 0.0
C2412 C 0.25503 0.86818 0.44179 0.0
C2413 C 0.2687 0.93984 0.44551 0.0
C2414 C 0.3236 0.89331 0.43924 0.0
C2415 C 0.31427 0.81975 0.44259 0.0
C2416 C 0.24362 0.89316 0.39238 0.0
C2417 C 0.20986 0.8696 0.39711 0.0
H2418 H 0.31432 0.92829 0.38202 0.0
C2419 C 0.32472 0.75276 0.3762 0.0
C2420 C 0.44222 0.75765 0.411 0.0
C2421 C 0.30924 0.6242 0.37105 0.0
C2422 C 0.26894 0.58332 0.35122 0.0
C2423 C 0.33261 0.55689 0.36285 0.0
C2424 C 0.33881 0.59328 0.37161 0.0
C2425 C 0.29777 0.55179 0.35272 0.0
C2426 C 0.27415 0.61931 0.36073 0.0
C2427 C 0.31902 0.6634 0.37878 0.0
H2428 H 0.20862 0.91387 0.44436 0.0
H2429 H 0.23338 0.84341 0.44218 0.0
H2430 H 0.25806 0.96936 0.44977 0.0
H2431 H 0.3561 0.88747 0.43865 0.0
H2432 H 0.3556 0.5334 0.36329 0.0
H2433 H 0.36784 0.59795 0.37797 0.0
H2434 H 0.29431 0.52393 0.34524 0.0
H2435 H 0.25251 0.64394 0.35931 0.0
C2436 C 0.20433 0.69351 0.14015 0.0
C2437 C 0.26548 0.69807 0.15805 0.0
C2438 C 0.23033 0.67695 0.15256 0.0
C2439 C 0.27168 0.73805 0.15217 0.0
C2440 C 0.21205 0.73234 0.13307 0.0
C2441 C 0.24495 0.7552 0.13967 0.0
N2442 N 0.17283 0.67046 0.13429 0.0
C2443 C 0.14933 0.68355 0.12035 0.0
C2444 C 0.18697 0.74662 0.11938 0.0
C2445 C 0.15599 0.72176 0.11276 0.0
Gd2446 Gd 0.07551 0.57733 0.17191 0.0
Gd2447 Gd 0.15604 0.61506 0.15286 0.0
N2448 N 0.2231 0.63849 0.15793 0.0
C2449 C 0.29414 0.67766 0.16856 0.0
C2450 C 0.25334 0.61689 0.16621 0.0
C2451 C 0.28879 0.63637 0.17204 0.0
H2452 H 0.25093 0.5847 0.16841 0.0
H2453 H 0.31187 0.61952 0.17922 0.0
H2454 H 1.00372 0.63444 0.15079 0.0
H2455 H 0.12402 0.66595 0.11553 0.0
H2456 H 0.93424 0.62324 0.13913 0.0
H2457 H 0.32151 0.69278 0.17315 0.0
H2458 H 0.29789 0.75528 0.15663 0.0
H2459 H 0.12533 0.48607 0.16566 0.0
H2460 H 0.19172 0.7764 0.11362 0.0
H2461 H 0.13662 0.73238 0.10206 0.0
H2462 H 0.91473 0.47896 0.14352 0.0
H2463 H 0.25077 0.78556 0.13475 0.0
H2464 H 1.03192 0.39788 0.15679 0.0
H2465 H 0.10429 0.41492 0.16201 0.0
N2466 N 0.06533 0.50966 0.16265 0.0
C2467 C 1.02574 0.50096 0.15865 0.0
C2468 C 0.09364 0.4794 0.16343 0.0
C2469 C 1.04087 0.42933 0.15844 0.0
C2470 C 0.08182 0.43885 0.1613 0.0
C2471 C 1.01232 0.4606 0.15675 0.0
H2472 H 0.96046 0.42214 0.15081 0.0
N2473 N 1.01462 0.57176 0.15565 0.0
C2474 C 0.99981 0.53311 0.15455 0.0
C2475 C 0.93628 0.55839 0.14302 0.0
C2476 C 0.96007 0.52549 0.14845 0.0
C2477 C 0.99199 0.60393 0.14992 0.0
C2478 C 0.95248 0.59769 0.14343 0.0
O2479 O 0.14496 0.64696 0.1785 0.0
O2480 O 0.11697 0.59592 0.19321 0.0
O2481 O 1.02557 0.59717 0.18817 0.0
O2482 O 0.05276 0.53794 0.19254 0.0
O2483 O 0.18662 0.56958 0.177 0.0
O2484 O 0.13127 0.53776 0.18755 0.0
O2485 O 0.07334 0.55388 0.14187 0.0
O2486 O 0.10556 0.60516 0.12917 0.0
O2487 O 0.14937 0.55124 0.14662 0.0
O2488 O 0.1997 0.58841 0.1356 0.0
O2489 O 0.06198 0.65425 0.16896 0.0
O2490 O 0.11687 0.67882 0.15451 0.0
C2491 C 0.1378 0.62889 0.1934 0.0
C2492 C 0.17311 0.53915 0.18819 0.0
C2493 C 0.98198 0.54137 0.19389 0.0
C2494 C 0.91366 0.55944 0.19934 0.0
C2495 C 0.93704 0.49183 0.20692 0.0
C2496 C 0.97578 0.50255 0.20109 0.0
C2497 C 0.90696 0.52167 0.2075 0.0
C2498 C 0.94841 0.56492 0.18931 0.0
C2499 C 1.02174 0.56115 0.19524 0.0
C2500 C 0.94558 0.48536 0.14782 0.0
C2501 C 0.97156 0.45298 0.15209 0.0
H2502 H 0.90562 0.55343 0.13831 0.0
C2503 C 0.08072 0.57289 0.12675 0.0
C2504 C 0.08064 0.68874 0.16196 0.0
C2505 C 0.17441 0.53644 0.11771 0.0
C2506 C 0.20112 0.48734 0.09678 0.0
C2507 C 0.16654 0.54852 1.08622 0.0
C2508 C 0.16255 0.56166 0.10357 0.0
C2509 C 0.18683 0.51242 1.08283 0.0
C2510 C 0.19077 0.49808 0.11425 0.0
C2511 C 0.18004 0.5535 0.13542 0.0
H2512 H 0.93226 0.46294 0.21344 0.0
H2513 H 1.0011 0.48239 0.2037 0.0
H2514 H 0.882 0.51709 0.21641 0.0
H2515 H 0.95312 0.59453 0.18331 0.0
H2516 H 0.158 0.56841 1.07537 0.0
H2517 H 0.15291 0.59257 0.10572 0.0
H2518 H 0.19588 0.50743 1.06939 0.0
H2519 H 0.20114 0.47968 0.12532 0.0
C2520 C 0.14155 0.46014 0.89638 0.0
C2521 C 0.1521 0.52182 0.91308 0.0
C2522 C 0.16553 0.48358 0.9072 0.0
C2523 C 0.11144 0.53303 0.91011 0.0
C2524 C 0.10204 0.47281 0.8918 0.0
C2525 C 0.08624 0.50831 0.89954 0.0
N2526 N 0.15899 0.42732 0.88875 0.0
C2527 C 0.13957 0.4073 0.87526 0.0
C2528 C 0.08062 0.45051 0.87899 0.0
C2529 C 0.09982 0.41817 0.87039 0.0
Gd2530 Gd 0.25697 0.3207 0.92042 0.0
Gd2531 Gd 0.21743 0.40215 0.90343 0.0
N2532 N 0.20437 0.47165 0.9094 0.0
C2533 C 0.18076 0.54867 0.92034 0.0
C2534 C 0.23334 0.4999 0.91382 0.0
C2535 C 0.22193 0.53829 0.91996 0.0
H2536 H 0.26538 0.49288 0.9129 0.0
H2537 H 0.24487 0.55987 0.9242 0.0
H2538 H 0.19657 0.2604 0.89341 0.0
H2539 H 0.15357 0.38116 0.86915 0.0
H2540 H 0.20226 0.19214 0.8804 0.0
H2541 H 0.1719 0.57852 0.92494 0.0
H2542 H 0.09999 0.56173 0.915 0.0
H2543 H 0.35283 0.36304 0.91662 0.0
H2544 H 0.04992 0.45888 0.8752 0.0
H2545 H 0.08378 0.4012 0.86023 0.0
H2546 H 0.34327 0.1577 0.88766 0.0
H2547 H 0.05552 0.51814 0.89658 0.0
H2548 H 0.43326 0.26454 0.90594 0.0
H2549 H 0.42202 0.3369 0.91321 0.0
N2550 N 0.32426 0.30579 0.91191 0.0
C2551 C 0.32979 0.26675 0.90635 0.0
C2552 C 0.35677 0.33134 0.91368 0.0
C2553 C 0.40254 0.27574 0.90751 0.0
C2554 C 0.39632 0.31665 0.91159 0.0
C2555 C 0.36902 0.25041 0.90443 0.0
H2556 H 0.40338 0.19694 0.89711 0.0
N2557 N 0.25863 0.26294 0.90172 0.0
C2558 C 0.29579 0.2446 0.90099 0.0
C2559 C 0.26592 0.1861 0.88674 0.0
C2560 C 0.30036 0.20562 0.89363 0.0
C2561 C 0.22562 0.24542 0.89367 0.0
C2562 C 0.22874 0.20659 0.88622 0.0
O2563 O 0.18887 0.38084 0.92855 0.0
O2564 O 0.24355 0.35957 0.94276 0.0
O2565 O 0.2308 0.27939 0.93927 0.0
O2566 O 0.29609 0.28648 0.93849 0.0
O2567 O 0.25824 0.43233 0.92899 0.0
O2568 O 0.29818 0.37863 0.93463 0.0
O2569 O 0.27735 0.32031 0.89034 0.0
O2570 O 0.22532 0.35462 0.87843 0.0
O2571 O 0.28206 0.39284 0.89871 0.0
O2572 O 0.24575 0.43884 0.88385 0.0
O2573 O 0.17958 0.30558 0.91669 0.0
O2574 O 0.15345 0.36264 0.90456 0.0
C2575 C 0.20711 0.3727 0.94343 0.0
C2576 C 0.29319 0.41992 0.93759 0.0
C2577 C 0.27033 0.22043 0.9393 0.0
C2578 C 0.23186 0.16048 0.93402 0.0
C2579 C 0.30267 0.15536 0.9432 0.0
C2580 C 0.3041 0.19769 0.94479 0.0
C2581 C 0.26586 0.13659 0.93839 0.0
C2582 C 0.23841 0.20093 0.93052 0.0
C2583 C 0.26608 0.26359 0.9432 0.0
C2584 C 0.3392 0.18795 0.893 0.0
C2585 C 0.37345 0.21026 0.89844 0.0
H2586 H 0.26795 0.15571 0.88133 0.0
C2587 C 0.25711 0.329 0.87562 0.0
C2588 C 0.14418 0.3248 0.91057 0.0
C2589 C 0.30703 0.41893 0.87074 0.0
C2590 C 0.3558 0.46114 0.85543 0.0
C2591 C 0.30937 0.4179 0.83863 0.0
C2592 C 0.29046 0.40691 0.85435 0.0
C2593 C 0.34129 0.44577 0.83903 0.0
C2594 C 0.34243 0.4425 0.87109 0.0
C2595 C 0.28138 0.42153 0.88645 0.0
H2596 H 0.32851 0.13721 0.94727 0.0
H2597 H 0.3306 0.21233 0.95052 0.0
H2598 H 0.26284 0.10425 0.93965 0.0
H2599 H 0.21261 0.21815 0.92566 0.0
H2600 H 0.29589 0.40882 0.82613 0.0
H2601 H 0.26107 0.39247 0.85348 0.0
H2602 H 0.35072 0.45882 0.82651 0.0
H2603 H 0.35402 0.45313 0.88378 0.0
C2604 C 0.38511 0.38043 0.64351 0.0
C2605 C 0.32747 0.37049 0.66281 0.0
C2606 C 0.36059 0.39417 0.65697 0.0
C2607 C 0.32227 0.33097 0.65621 0.0
C2608 C 0.37806 0.34204 0.63577 0.0
C2609 C 0.34755 0.31675 0.64266 0.0
N2610 N 0.41413 0.40588 0.63722 0.0
C2611 C 0.43537 0.39555 0.62228 0.0
C2612 C 0.40112 0.33067 0.62107 0.0
C2613 C 0.42933 0.35789 0.61409 0.0
Gd2614 Gd 0.51066 0.50492 0.67153 0.0
Gd2615 Gd 0.42999 0.46206 0.65579 0.0
N2616 N 0.36641 0.43257 0.66289 0.0
C2617 C 0.29901 0.3883 0.67408 0.0
C2618 C 0.33622 0.45136 0.67222 0.0
C2619 C 0.30229 0.42956 0.67793 0.0
H2620 H 0.33659 0.48341 0.67479 0.0
H2621 H 0.27833 0.44491 0.68502 0.0
H2622 H 0.56834 0.4419 0.64515 0.0
H2623 H 0.45828 0.41505 0.61683 0.0
H2624 H 0.63848 0.44517 0.63405 0.0
H2625 H 0.27287 0.3714 0.67872 0.0
H2626 H 0.29759 0.31197 0.66084 0.0
H2627 H 0.46713 0.59949 0.66621 0.0
H2628 H 0.3967 0.30143 0.61476 0.0
H2629 H 0.44693 0.34966 0.60254 0.0
H2630 H 0.67358 0.58755 0.63871 0.0
H2631 H 0.34222 0.28683 0.63714 0.0
H2632 H 0.56359 0.679 0.6509 0.0
H2633 H 0.492 0.66827 0.65977 0.0
N2634 N 0.52404 0.57102 0.66099 0.0
C2635 C 0.56273 0.57611 0.65493 0.0
C2636 C 0.49837 0.60343 0.66237 0.0
C2637 C 0.55281 0.64853 0.65359 0.0
C2638 C 0.51234 0.64261 0.65861 0.0
C2639 C 0.57846 0.61495 0.65153 0.0
H2640 H 0.63219 0.64842 0.64374 0.0
N2641 N 0.56659 0.50452 0.65224 0.0
C2642 C 0.58493 0.54153 0.65064 0.0
C2643 C 0.64482 0.50923 0.63923 0.0
C2644 C 0.62461 0.54501 0.64409 0.0
C2645 C 0.58379 0.47071 0.64501 0.0
C2646 C 0.62355 0.47249 0.63859 0.0
O2647 O 0.44795 0.43781 0.68265 0.0
O2648 O 0.47372 0.49406 0.69452 0.0
O2649 O 0.55604 0.48231 0.68965 0.0
O2650 O 0.5446 0.54669 0.68862 0.0
O2651 O 0.3997 0.50759 0.67989 0.0
O2652 O 0.45411 0.54628 0.68618 0.0
O2653 O 0.50613 0.52867 0.64193 0.0
O2654 O 0.47864 0.47277 0.63134 0.0
O2655 O 0.43284 0.52577 0.64887 0.0
O2656 O 0.38335 0.4859 0.63887 0.0
O2657 O 0.5245 0.42631 0.66897 0.0
O2658 O 0.46817 0.39843 0.65685 0.0
C2659 C 0.45983 0.45822 0.69657 0.0
C2660 C 0.41265 0.54212 0.68881 0.0
C2661 C 0.61275 0.52592 0.69045 0.0
C2662 C 0.67391 0.48833 0.68706 0.0
C2663 C 0.67644 0.55599 0.69975 0.0
C2664 C 0.63388 0.55785 0.69863 0.0
C2665 C 0.69644 0.52008 0.69483 0.0
C2666 C 0.63469 0.49628 0.68151 0.0
C2667 C 0.5694 0.51851 0.69364 0.0
C2668 C 0.64234 0.58383 0.64277 0.0
C2669 C 0.61891 0.61873 0.64591 0.0
H2670 H 0.67668 0.5091 0.63598 0.0
C2671 C 0.5001 0.50686 0.62759 0.0
C2672 C 0.50577 0.39006 0.66315 0.0
C2673 C 0.40417 0.53907 0.62027 0.0
C2674 C 0.36379 0.58096 0.60098 0.0
C2675 C 0.4051 0.52737 0.58845 0.0
C2676 C 0.41561 0.51527 0.60563 0.0
C2677 C 0.37804 0.55958 0.58609 0.0
C2678 C 0.38277 0.575 0.61744 0.0
C2679 C 0.40151 0.52152 0.63807 0.0
H2680 H 0.69315 0.58005 0.70632 0.0
H2681 H 0.61767 0.58252 0.7049 0.0
H2682 H 0.72764 0.51545 0.69901 0.0
H2683 H 0.61867 0.47137 0.67532 0.0
H2684 H 0.41368 0.50878 0.57722 0.0
H2685 H 0.42949 0.4859 0.60743 0.0
H2686 H 0.36409 0.56384 0.57316 0.0
H2687 H 0.37149 0.59155 0.62887 0.0
C2688 C 0.20225 0.3996 0.45908 0.0
C2689 C 0.21611 0.43037 0.44745 0.0
C2690 C 0.16738 0.4041 0.4687 0.0
C2691 C 0.14745 0.44124 0.4686 0.0
H2692 H 0.21929 0.37208 0.46147 0.0
H2693 H 0.15938 0.3803 0.47803 0.0
S2694 S 0.16557 0.52801 0.43807 0.0
N2695 N 0.20268 0.49571 0.43381 0.0
N2696 N 0.13764 0.50652 0.45365 0.0
C2697 C 0.15788 0.47091 0.45586 0.0
C2698 C 0.19291 0.46534 0.44522 0.0
C2699 C 0.89136 0.99013 0.72536 0.0
C2700 C 0.87649 0.98941 0.70782 0.0
C2701 C 0.89726 0.95427 0.73467 0.0
C2702 C 0.88362 0.91713 0.72777 0.0
H2703 H 0.90435 1.01772 0.73086 0.0
H2704 H 0.91187 0.95595 0.74755 0.0
S2705 S 0.83432 0.90068 0.68396 0.0
N2706 N 0.84501 0.94971 0.68439 0.0
N2707 N 0.84991 0.88225 0.70325 0.0
C2708 C 0.86472 0.91654 0.71097 0.0
C2709 C 0.86146 0.95289 0.70091 0.0
C2710 C 0.37809 0.61331 0.95323 0.0
C2711 C 0.35477 0.64748 0.95725 0.0
C2712 C 0.41647 0.60865 0.96099 0.0
C2713 C 0.43188 0.6384 0.97269 0.0
H2714 H 0.36631 0.58996 0.94447 0.0
H2715 H 0.43267 0.58049 0.95883 0.0
S2716 S 0.38675 0.7376 0.98392 0.0
N2717 N 0.35172 0.71336 0.97229 0.0
N2718 N 0.42606 0.70672 0.9844 0.0
C2719 C 0.41129 0.67494 0.97472 0.0
C2720 C 0.37163 0.67859 0.96797 0.0
C2721 C 0.72546 0.16571 0.20906 0.0
C2722 C 0.69562 0.18426 0.21966 0.0
C2723 C 0.71642 0.13008 0.19987 0.0
C2724 C 0.67747 0.11341 0.20102 0.0
H2725 H 0.75685 0.17558 0.20965 0.0
H2726 H 0.74047 0.11398 0.19308 0.0
S2727 S 0.58757 0.1579 0.22391 0.0
N2728 N 0.62478 0.19045 0.22737 0.0
N2729 N 0.60796 0.12145 0.21193 0.0
C2730 C 0.64646 0.13529 0.20976 0.0
C2731 C 0.65544 0.17205 0.21834 0.0
C2732 C 0.23895 0.64094 0.21426 0.0
C2733 C 0.2332 0.62708 0.23173 0.0
C2734 C 0.20617 0.647 0.20308 0.0
C2735 C 0.16746 0.63323 0.20767 0.0
H2736 H 0.26808 0.65312 0.21015 0.0
H2737 H 0.21159 0.66207 0.19059 0.0
S2738 S 0.13707 0.58894 0.25085 0.0
N2739 N 0.18599 0.59946 0.25329 0.0
N2740 N 0.12496 0.60212 0.2303 0.0
C2741 C 0.1615 0.616 0.22454 0.0
C2742 C 0.19445 0.61398 0.23684 0.0
C2743 C 0.67159 0.94245 0.45062 0.0
C2744 C 0.69891 0.91164 0.45518 0.0
C2745 C 0.6714 0.97858 0.45982 0.0
C2746 C 0.69446 0.98347 0.47546 0.0
H2747 H 0.65068 0.93933 0.43955 0.0
H2748 H 0.64915 1.00119 0.4559 0.0
S2749 S 0.76973 0.91132 0.49375 0.0
N2750 N 0.75155 0.88858 0.47582 0.0
N2751 N 0.74534 0.95504 0.49527 0.0
C2752 C 0.72122 0.95267 0.48062 0.0
C2753 C 0.72417 0.91673 0.47021 0.0
C2754 C 0.42367 0.47524 0.72372 0.0
C2755 C 0.44475 0.44607 0.71372 0.0
C2756 C 0.38765 0.46455 0.7322 0.0
C2757 C 0.37354 0.42457 0.73115 0.0
H2758 H 0.43124 0.50716 0.72271 0.0
H2759 H 0.36899 0.48806 0.73803 0.0
S2760 S 0.42743 0.33602 0.71127 0.0
N2761 N 0.45729 0.37527 0.70763 0.0
N2762 N 0.38851 0.35462 0.72228 0.0
C2763 C 0.39906 0.39428 0.72389 0.0
C2764 C 0.43593 0.40521 0.71584 0.0
C2765 C 0.98043 0.14958 0.94176 0.0
C2766 C 0.96476 0.11082 0.94549 0.0
C2767 C 0.95644 0.18396 0.94426 0.0
C2768 C 0.9164 0.17989 0.95027 0.0
H2769 H 1.01139 0.1534 0.9372 0.0
H2770 H 0.96791 0.21312 0.93998 0.0
S2771 S 0.86378 0.08683 0.96493 0.0
N2772 N 0.90739 0.07125 0.95668 0.0
N2773 N 0.86535 0.13679 0.96367 0.0
C2774 C 0.90293 0.14241 0.95657 0.0
C2775 C 0.92534 0.10737 0.95261 0.0
C2776 C 0.88655 0.61152 0.73019 0.0
C2777 C 0.87071 0.65078 0.72923 0.0
C2778 C 0.92195 0.60219 0.72099 0.0
C2779 C 0.94089 0.63195 0.71044 0.0
H2780 H 0.87009 0.58759 0.73693 0.0
H2781 H 0.93112 0.57067 0.72026 0.0
S2782 S 0.91766 0.74061 0.70667 0.0
N2783 N 0.88074 0.72071 0.71854 0.0
N2784 N 0.94916 0.70275 0.70311 0.0
C2785 C 0.92997 0.67228 0.71203 0.0
C2786 C 0.89342 0.68174 0.72057 0.0
C2787 C 0.17777 0.09846 0.45834 0.0
C2788 C 0.19937 0.094 0.47442 0.0
C2789 C 0.17681 0.13529 0.44957 0.0
C2790 C 0.20079 0.16769 0.45549 0.0
H2791 H 0.15781 0.07453 0.45357 0.0
H2792 H 0.1578 0.13794 0.43785 0.0
S2793 S 0.2672 0.16945 0.49552 0.0
N2794 N 0.24596 0.12394 0.49575 0.0
N2795 N 0.24917 0.19259 0.47766 0.0
C2796 C 0.22453 0.16306 0.471 0.0
C2797 C 0.22325 0.12604 0.48066 0.0
C2798 C 0.70547 0.42492 0.19459 0.0
C2799 C 0.67225 0.44572 0.20169 0.0
C2800 C 0.74343 0.42689 0.20264 0.0
C2801 C 0.74839 0.4456 0.2193 0.0
H2802 H 0.70211 0.40665 0.18277 0.0
H2803 H 0.76762 0.40852 0.19712 0.0
S2804 S 0.67129 0.50483 0.24359 0.0
N2805 N 0.64727 0.48868 0.22559 0.0
N2806 N 0.71805 0.48678 0.24232 0.0
C2807 C 0.71572 0.46694 0.22655 0.0
C2808 C 0.67752 0.46753 0.2176 0.0
C2809 C 0.35942 0.91193 0.97253 0.0
C2810 C 0.38974 0.89348 0.96216 0.0
C2811 C 0.36626 0.95004 0.98013 0.0
C2812 C 0.40328 0.9698 0.97729 0.0
H2813 H 0.32905 0.89926 0.9731 0.0
H2814 H 0.34208 0.96491 0.98734 0.0
S2815 S 0.49378 0.92918 0.95348 0.0
N2816 N 0.46022 0.89207 0.95313 0.0
N2817 N 0.47101 0.96656 0.96401 0.0
C2818 C 0.4347 0.9494 0.96816 0.0
C2819 C 0.42879 0.90965 0.962 0.0
C2820 C 0.83439 0.44915 0.97517 0.0
C2821 C 0.83616 0.45275 0.95664 0.0
C2822 C 0.86946 0.44095 0.98484 0.0
C2823 C 0.90798 0.44409 0.9772 0.0
H2824 H 0.80548 0.44427 0.98172 0.0
H2825 H 0.86638 0.43239 0.99848 0.0
S2826 S 0.9299 0.46423 0.92994 0.0
N2827 N 0.87968 0.46354 0.93104 0.0
N2828 N 0.94662 0.45749 0.95047 0.0
C2829 C 0.9107 0.4544 0.95919 0.0
C2830 C 0.87458 0.45855 0.94879 0.0
C2831 C 0.42895 0.13336 0.70669 0.0
C2832 C 0.3989 0.12011 0.69439 0.0
C2833 C 0.42242 0.1654 0.71788 0.0
C2834 C 0.38447 0.18369 0.71837 0.0
H2835 H 0.45757 0.11783 0.70852 0.0
H2836 H 0.44596 0.17285 0.72752 0.0
S2837 S 0.29754 0.16563 0.68758 0.0
N2838 N 0.33195 0.13169 0.68179 0.0
N2839 N 0.31805 0.19193 0.70404 0.0
C2840 C 0.35497 0.17368 0.70537 0.0
C2841 C 0.36227 0.14122 0.69337 0.0
C2842 C 0.70783 0.61384 0.45442 0.0
C2843 C 0.72869 0.64948 0.45888 0.0
C2844 C 0.66894 0.60689 0.46121 0.0
C2845 C 0.65021 0.63626 0.472 0.0
H2846 H 0.72192 0.59111 0.44609 0.0
H2847 H 0.65488 0.57756 0.45905 0.0
S2848 S 0.68677 0.73955 0.48256 0.0
N2849 N 0.72505 0.71676 0.47267 0.0
N2850 N 0.64971 0.70591 0.48244 0.0
C2851 C 0.66799 0.67438 0.47392 0.0
C2852 C 0.70829 0.68014 0.46852 0.0
C2853 C 0.18062 0.94441 0.22969 0.0
C2854 C 0.20161 0.91055 0.2234 0.0
C2855 C 0.18436 0.98158 0.22136 0.0
C2856 C 0.2048 0.98506 0.20505 0.0
H2857 H 0.16175 0.94251 0.24137 0.0
H2858 H 0.16647 1.00663 0.22643 0.0
S2859 S 0.26485 0.90541 0.18283 0.0
N2860 N 0.24637 0.88299 0.20069 0.0
N2861 N 0.2473 0.95242 0.18311 0.0
C2862 C 0.22566 0.95149 0.1984 0.0
C2863 C 0.22468 0.91405 0.20777 0.0
C2864 C 0.65305 0.97233 0.95633 0.0
C2865 C 0.63833 0.9431 0.9683 0.0
C2866 C 0.68739 0.96405 0.94615 0.0
C2867 C 0.70638 0.92631 0.94764 0.0
H2868 H 0.64136 1.00301 0.95658 0.0
H2869 H 0.70097 0.98788 0.93823 0.0
S2870 S 0.66914 0.83672 0.97354 0.0
N2871 N 0.63576 0.87284 0.97723 0.0
N2872 N 0.7027 0.85757 0.96019 0.0
C2873 C 0.68713 0.89519 0.95763 0.0
C2874 C 0.65147 0.90336 0.96713 0.0
C2875 C 0.37057 0.42742 0.21563 0.0
C2876 C 0.39944 0.41418 0.2281 0.0
C2877 C 0.37206 0.4666 0.20866 0.0
C2878 C 0.40321 0.49304 0.21379 0.0
H2879 H 0.34645 0.40733 0.21158 0.0
H2880 H 0.35 0.47564 0.19868 0.0
S2881 S 0.49433 0.46695 0.24099 0.0
N2882 N 0.46537 0.42613 0.24176 0.0
N2883 N 0.46816 0.5006 0.22938 0.0
C2884 C 0.43407 0.47891 0.2254 0.0
C2885 C 0.43275 0.43889 0.23205 0.0
C2886 C 0.91875 0.10589 0.45804 0.0
C2887 C 0.93892 0.13545 0.46834 0.0
C2888 C 0.88146 0.11489 0.45001 0.0
C2889 C 0.86449 0.15343 0.45219 0.0
H2890 H 0.92905 0.07468 0.45799 0.0
H2891 H 0.86475 0.0912 0.44316 0.0
S2892 S 0.91162 0.24241 0.47518 0.0
N2893 N 0.94571 0.20599 0.47661 0.0
N2894 N 0.87308 0.22195 0.46433 0.0
C2895 C 0.88731 0.18409 0.4609 0.0
C2896 C 0.92606 0.17551 0.46781 0.0
C2897 C 0.21512 0.63247 0.70225 0.0
C2898 C 0.17807 0.61231 0.70424 0.0
C2899 C 0.2222 0.66858 0.71143 0.0
C2900 C 0.19234 0.68455 0.72282 0.0
H2901 H 0.23895 0.6196 0.69413 0.0
H2902 H 0.25217 0.68211 0.71069 0.0
S2903 S 0.08819 0.64657 0.73028 0.0
N2904 N 0.11015 0.6126 0.71747 0.0
N2905 N 0.12257 0.6824 0.73303 0.0
C2906 C 0.15377 0.66724 0.72323 0.0
C2907 C 0.14705 0.63004 0.71462 0.0
C2908 C 0.62838 0.19286 0.70709 0.0
C2909 C 0.63052 0.15066 0.70961 0.0
C2910 C 0.66455 0.21393 0.70407 0.0
C2911 C 0.70209 0.19438 0.70686 0.0
H2912 H 0.60016 0.20659 0.70264 0.0
H2913 H 0.66318 0.2445 0.69879 0.0
S2914 S 0.71632 0.09613 0.73013 0.0
N2915 N 0.66715 0.09824 0.72557 0.0
N2916 N 0.7362 0.13858 0.72231 0.0
C2917 C 0.70225 0.15673 0.71572 0.0
C2918 C 0.66524 0.13548 0.71787 0.0
C2919 C 0.22045 0.40665 0.97195 0.0
C2920 C 0.19223 0.39231 0.95928 0.0
C2921 C 0.21282 0.44261 0.98117 0.0
C2922 C 0.178 0.4651 0.97714 0.0
H2923 H 0.25005 0.39259 0.97341 0.0
H2924 H 0.23508 0.45404 0.99058 0.0
S2925 S 0.09103 0.43337 0.94819 0.0
N2926 N 0.12363 0.39555 0.94736 0.0
N2927 N 0.11282 0.46737 0.96117 0.0
C2928 C 0.14796 0.44826 0.96577 0.0
C2929 C 0.15393 0.41003 0.95807 0.0
C2930 C 0.90076 0.91435 0.20671 0.0
C2931 C 0.92899 0.94514 0.20985 0.0
C2932 C 0.86499 0.91333 0.21594 0.0
C2933 C 0.85802 0.93952 0.23042 0.0
H2934 H 0.90479 0.89215 0.19623 0.0
H2935 H 0.84347 0.88982 0.21233 0.0
S2936 S 0.92396 1.02392 0.24508 0.0
N2937 N 0.94824 1.00343 0.22815 0.0
N2938 N 0.88217 0.99671 0.24774 0.0
C2939 C 0.88667 0.96943 0.2344 0.0
C2940 C 0.92236 0.97271 0.2239 0.0
C2941 C 0.40789 0.60386 0.45754 0.0
C2942 C 0.38421 0.59726 0.47279 0.0
C2943 C 0.40887 0.64135 0.44939 0.0
C2944 C 0.38299 0.67236 0.45497 0.0
H2945 H 0.42904 0.58092 0.453 0.0
H2946 H 0.42925 0.64553 0.4383 0.0
S2947 S 0.31378 0.66988 0.4937 0.0
N2948 N 0.33561 0.62469 0.49363 0.0
N2949 N 0.33274 0.69473 0.47656 0.0
C2950 C 0.35828 0.66615 0.46994 0.0
C2951 C 0.35939 0.62838 0.47904 0.0
C2952 C 0.34983 0.15606 0.20583 0.0
C2953 C 0.34315 0.13393 0.22153 0.0
C2954 C 0.38746 0.15617 0.19783 0.0
C2955 C 0.41849 0.13075 0.20402 0.0
H2956 H 0.32709 0.17712 0.20086 0.0
H2957 H 0.39177 0.17574 0.18643 0.0
S2958 S 0.41494 0.06371 0.2436 0.0
N2959 N 0.37002 0.08619 0.24311 0.0
N2960 N 0.44009 0.0813 0.22628 0.0
C2961 C 0.41183 0.10682 0.21923 0.0
C2962 C 0.37401 0.10901 0.2282 0.0
C2963 C 0.72314 0.62365 0.97941 0.0
C2964 C 0.69025 0.5988 0.97488 0.0
C2965 C 0.72791 0.66121 0.97107 0.0
C2966 C 0.69925 0.67468 0.9584 0.0
H2967 H 0.74517 0.61393 0.98928 0.0
H2968 H 0.755 0.67881 0.97394 0.0
S2969 S 0.6023 0.62538 0.94568 0.0
N2970 N 0.62645 0.59206 0.95822 0.0
N2971 N 0.63263 0.66511 0.94492 0.0
C2972 C 0.66403 0.65212 0.95534 0.0
C2973 C 0.66056 0.61314 0.96274 0.0
C2974 C 0.21235 0.96511 0.72456 0.0
C2975 C 0.2379 0.93368 0.719 0.0
C2976 C 0.1737 0.9695 0.71704 0.0
C2977 C 0.15941 0.94154 0.70432 0.0
H2978 H 0.22214 0.98595 0.73486 0.0
H2979 H 0.15532 0.99521 0.72096 0.0
S2980 S 0.20811 0.84483 0.69145 0.0
N2981 N 0.2429 0.86939 0.70311 0.0
N2982 N 0.16863 0.87554 0.69059 0.0
C2983 C 0.18277 0.90744 0.70033 0.0
C2984 C 0.22267 0.90425 0.70707 0.0
C2985 C 0.9062 0.49008 0.45465 0.0
C2986 C 0.88645 0.49527 0.47098 0.0
C2987 C 0.90782 0.45231 0.44662 0.0
C2988 C 0.8858 0.41939 0.45339 0.0
H2989 H 0.92515 0.51406 0.4493 0.0
H2990 H 0.92643 0.44908 0.43492 0.0
S2991 S 0.82537 0.41844 0.49478 0.0
N2992 N 0.84434 0.46487 0.49374 0.0
N2993 N 0.84168 0.39458 0.47689 0.0
C2994 C 0.86373 0.42461 0.46916 0.0
C2995 C 0.86475 0.46258 0.47816 0.0
C2996 C 0.37719 0.92515 0.48203 0.0
C2997 C 0.41275 0.94335 0.47571 0.0
C2998 C 0.34036 0.93091 0.47338 0.0
C2999 C 0.33868 0.95062 0.45681 0.0
H3000 H 0.37761 0.90669 0.4939 0.0
H3001 H 0.31414 0.91449 0.47831 0.0
S3002 S 0.42283 1.00426 0.43449 0.0
N3003 N 0.44367 0.98505 0.45266 0.0
N3004 N 0.37457 0.99028 0.43479 0.0
C3005 C 0.3737 0.96946 0.45035 0.0
C3006 C 0.41096 0.96611 0.45989 0.0
C3007 C 0.86024 0.65698 0.21029 0.0
C3008 C 0.88736 0.67362 0.22284 0.0
C3009 C 0.86796 0.61895 0.20283 0.0
C3010 C 0.90176 0.59651 0.20847 0.0
H3011 H 0.83236 0.67257 0.20674 0.0
H3012 H 0.84727 0.60681 0.19292 0.0
S3013 S 0.98804 0.63367 0.23623 0.0
N3014 N 0.95451 0.67076 0.2364 0.0
N3015 N 0.96646 0.59707 0.2246 0.0
C3016 C 0.93046 0.61464 0.22001 0.0
C3017 C 0.92403 0.65405 0.22648 0.0
C3018 C 0.17334 0.18183 0.95263 0.0
C3019 C 0.19184 0.15143 0.94196 0.0
C3020 C 0.14637 0.17183 0.96588 0.0
C3021 C 0.13706 0.13138 0.96901 0.0
H3022 H 0.18302 0.21322 0.95253 0.0
H3023 H 0.13653 0.19537 0.97497 0.0
S3024 S 0.1654 0.04263 0.94133 0.0
N3025 N 0.18989 0.08125 0.93242 0.0
N3026 N 0.13954 0.06172 0.9581 0.0
C3027 C 0.14947 0.10157 0.95678 0.0
C3028 C 0.17696 0.11187 0.94305 0.0
C3029 C 0.64748 0.42785 0.70279 0.0
C3030 C 0.6798 0.44639 0.69331 0.0
C3031 C 0.65423 0.39524 0.71384 0.0
C3032 C 0.69363 0.38137 0.7163 0.0
H3033 H 0.6175 0.44113 0.70353 0.0
H3034 H 0.62989 0.38538 0.72252 0.0
S3035 S 0.78404 0.40653 0.68912 0.0
N3036 N 0.74909 0.43973 0.68292 0.0
N3037 N 0.76227 0.37722 0.70416 0.0
C3038 C 0.72429 0.3934 0.70437 0.0
C3039 C 0.71739 0.427 0.69297 0.0
C3040 C 0.05208 0.25083 0.41225 0.0
C3041 C 0.09032 0.27476 0.41227 0.0
C3042 C 1.00794 0.26554 0.41245 0.0
C3043 C 0.99227 0.30762 0.4121 0.0
H3044 H 0.05603 0.2182 0.41222 0.0
H3045 H 0.985 0.24198 0.41258 0.0
S3046 S 0.07439 0.3885 0.41134 0.0
N3047 N 0.10309 0.34737 0.41183 0.0
N3048 N 1.02657 0.37305 0.41136 0.0
C3049 C 1.03017 0.33205 0.41178 0.0
C3050 C 0.07527 0.31698 0.41207 0.0
C3051 C 0.99843 0.77374 0.6576 0.0
C3052 C 1.02174 0.73636 0.66176 0.0
C3053 C 1.01238 0.81806 0.65794 0.0
C3054 C 0.05312 0.83457 0.66209 0.0
H3055 H 0.96698 0.76892 0.65384 0.0
H3056 H 0.98958 0.84033 0.65437 0.0
S3057 S 0.13168 0.7551 0.67437 0.0
N3058 N 0.09189 0.72547 0.67079 0.0
N3059 N 0.11671 0.80222 0.67061 0.0
C3060 C 0.07703 0.79753 0.66606 0.0
C3061 C 0.06249 0.75235 0.66615 0.0
C3062 C 0.50915 0.76392 0.91716 0.0
C3063 C 0.49272 0.80528 0.91458 0.0
C3064 C 0.5535 0.74982 0.91689 0.0
C3065 C 0.59123 0.77397 0.91455 0.0
H3066 H 0.48669 0.7404 0.91927 0.0
H3067 H 0.55809 0.71757 0.91881 0.0
S3068 S 0.57316 0.88574 0.90646 0.0
N3069 N 0.52575 0.87004 0.90879 0.0
N3070 N 0.60262 0.84554 0.90891 0.0
C3071 C 0.57542 0.8154 0.91195 0.0
C3072 C 0.53012 0.82971 0.91181 0.0
C3073 C 0.56834 0.25439 0.16297 0.0
C3074 C 0.52633 0.23875 0.16164 0.0
C3075 C 0.58297 0.29847 0.16262 0.0
C3076 C 0.5588 0.33634 0.16142 0.0
H3077 H 0.59185 0.23155 0.16411 0.0
H3078 H 0.61556 0.30269 0.16352 0.0
S3079 S 0.44546 0.32003 0.15704 0.0
N3080 N 0.46097 0.27243 0.15839 0.0
N3081 N 0.48646 0.3489 0.15841 0.0
C3082 C 0.51674 0.32125 0.16013 0.0
C3083 C 0.50185 0.2763 0.16007 0.0
C3084 C 1.00786 0.81544 0.26599 0.0
C3085 C 0.99209 0.77354 0.26624 0.0
C3086 C 0.05202 0.82958 0.26617 0.0
C3087 C 0.0896 0.80495 0.26611 0.0
H3088 H 0.98512 0.83916 0.26591 0.0
H3089 H 0.05655 0.86213 0.26623 0.0
S3090 S 0.07276 0.69151 0.2671 0.0
N3091 N 1.02517 0.70754 0.26699 0.0
N3092 N 0.10195 0.73234 0.26663 0.0
C3093 C 0.07442 0.76295 0.26631 0.0
C3094 C 1.02937 0.74849 0.26655 0.0
C3095 C 0.49699 0.79703 0.51787 0.0
C3096 C 0.52152 0.83468 0.51881 0.0
C3097 C 0.51128 0.75294 0.51747 0.0
C3098 C 0.55319 0.73717 0.51852 0.0
H3099 H 0.46442 0.80144 0.5172 0.0
H3100 H 0.48759 0.7302 0.51655 0.0
S3101 S 0.63499 0.81787 0.52206 0.0
N3102 N 0.59415 0.84696 0.52102 0.0
N3103 N 0.61903 0.77033 0.52109 0.0
C3104 C 0.57811 0.77447 0.51981 0.0
C3105 C 0.56356 0.81946 0.51974 0.0
C3106 C 0.57289 0.26381 0.7681 0.0
C3107 C 0.58899 0.30568 0.7665 0.0
C3108 C 0.52851 0.24926 0.76837 0.0
C3109 C 0.4902 0.27295 0.76657 0.0
H3110 H 0.59565 0.24034 0.7696 0.0
H3111 H 0.52443 0.21687 0.77002 0.0
S3112 S 0.50708 0.38616 0.76182 0.0
N3113 N 0.55477 0.37076 0.76339 0.0
N3114 N 0.47816 0.34521 0.763 0.0
C3115 C 0.50575 0.3149 0.7648 0.0
C3116 C 0.55101 0.32992 0.76502 0.0
C3117 C 0.08105 0.27365 1.01996 0.0
C3118 C 0.05771 0.2351 1.01842 0.0
C3119 C 0.06601 0.31775 1.01959 0.0
C3120 C 1.02388 0.33334 1.01817 0.0
H3121 H 0.11359 0.27002 1.02151 0.0
H3122 H 0.08935 0.34077 1.02088 0.0
S3123 S 0.94399 0.25061 1.01424 0.0
N3124 N 0.98531 0.22221 1.01532 0.0
N3125 N 0.95896 0.29843 1.01553 0.0
C3126 C 0.99993 0.29516 1.01696 0.0
C3127 C 1.01545 0.25011 1.01683 0.0
C3128 C 0.07234 0.81794 0.77077 0.0
C3129 C 0.08838 0.77611 0.76965 0.0
C3130 C 1.028 0.83208 0.77109 0.0
C3131 C 0.99011 0.80772 0.76985 0.0
H3132 H 0.09505 0.84165 0.77174 0.0
H3133 H 1.02361 0.86453 0.77226 0.0
S3134 S 1.00743 0.69443 0.76649 0.0
N3135 N 0.05501 0.71042 0.76755 0.0
N3136 N 0.97824 0.73517 0.76732 0.0
C3137 C 1.00568 0.76582 0.76854 0.0
C3138 C 0.05086 0.75129 0.76867 0.0
C3139 C 0.06419 0.2557 0.51032 0.0
C3140 C 1.02576 0.23873 0.51728 0.0
C3141 C 0.07898 0.29986 0.51031 0.0
C3142 C 0.05818 0.33696 0.51674 0.0
H3143 H 0.08476 0.23381 0.50456 0.0
H3144 H 0.10876 0.30482 0.50467 0.0
S3145 S 0.95655 0.31701 0.53826 0.0
N3146 N 0.96862 0.27035 0.53221 0.0
N3147 N 0.99395 0.34689 0.53175 0.0
C3148 C 1.01988 0.32054 0.52391 0.0
C3149 C 1.00509 0.27539 0.52422 0.0
C3150 C 0.56151 0.26419 0.25528 0.0
C3151 C 0.59424 0.27164 0.26848 0.0
C3152 C 0.51703 0.27779 0.25562 0.0
C3153 C 0.49569 0.30206 0.2692 0.0
H3154 H 0.57025 0.24648 0.24383 0.0
H3155 H 0.4987 0.26876 0.24431 0.0
S3156 S 0.56081 0.33071 0.3089 0.0
N3157 N 0.5947 0.30587 0.29701 0.0
N3158 N 0.51785 0.33036 0.29742 0.0
C3159 C 0.52791 0.30942 0.2826 0.0
C3160 C 0.57312 0.29504 0.28236 0.0
C3161 C 0.58331 0.80398 1.0132 0.0
C3162 C 0.55996 0.84134 1.01732 0.0
C3163 C 0.56926 0.75958 1.0131 0.0
C3164 C 0.52896 0.74263 1.01766 0.0
H3165 H 0.61473 0.80892 1.00961 0.0
H3166 H 0.59197 0.7375 1.00935 0.0
S3167 S 0.45155 0.8218 1.03132 0.0
N3168 N 0.49065 0.85166 1.02707 0.0
N3169 N 0.4664 0.77479 1.02734 0.0
C3170 C 0.50547 0.77963 1.02216 0.0
C3171 C 0.51962 0.82498 1.02191 0.0
C3172 C 0.07704 0.26442 0.91116 0.0
C3173 C 0.09303 0.30649 0.91083 0.0
C3174 C 1.03274 0.24985 0.91094 0.0
C3175 C 0.99473 0.27406 0.91088 0.0
H3176 H 0.09983 0.24075 0.91136 0.0
H3177 H 1.0285 0.21725 0.911 0.0
S3178 S 1.01147 0.38771 0.90987 0.0
N3179 N 0.05916 0.37202 0.90996 0.0
N3180 N 0.98253 0.3467 0.91036 0.0
C3181 C 1.01015 0.31617 0.91066 0.0
C3182 C 0.0553 0.33104 0.91041 0.0
C3183 C 0.50032 0.30088 0.66097 0.0
C3184 C 0.52426 0.33882 0.66351 0.0
C3185 C 0.51437 0.25643 0.66112 0.0
C3186 C 0.55594 0.23984 0.66338 0.0
H3187 H 0.46808 0.30535 0.65875 0.0
H3188 H 0.49076 0.23402 0.65897 0.0
S3189 S 0.63696 0.32052 0.67029 0.0
N3190 N 0.59643 0.34989 0.66856 0.0
N3191 N 0.62115 0.27317 0.66797 0.0
C3192 C 0.58049 0.27743 0.6656 0.0
C3193 C 0.56594 0.32278 0.66592 0.0
C3194 C 0.55373 0.83051 0.40992 0.0
C3195 C 0.59109 0.80565 0.41131 0.0
C3196 C 0.50937 0.81688 0.41023 0.0
C3197 C 0.49309 0.77524 0.41145 0.0
H3198 H 0.55861 0.86288 0.40862 0.0
H3199 H 0.48691 0.84074 0.40911 0.0
S3200 S 0.57279 0.69262 0.41473 0.0
N3201 N 0.60246 0.73308 0.41391 0.0
N3202 N 0.5254 0.70907 0.41364 0.0
C3203 C 0.5301 0.7499 0.41249 0.0
C3204 C 0.57533 0.76393 0.41266 0.0
C3205 C 1.00706 0.79958 0.16567 0.0
C3206 C 1.03094 0.83738 0.16346 0.0
C3207 C 1.02157 0.75551 0.1656 0.0
C3208 C 0.06297 0.73969 0.16259 0.0
H3209 H 0.97484 0.80385 0.16781 0.0
H3210 H 0.99836 0.73276 0.16778 0.0
S3211 S 0.14252 0.82063 0.15415 0.0
N3212 N 0.10226 0.84965 0.15729 0.0
N3213 N 0.12727 0.77307 0.15631 0.0
C3214 C 0.08709 0.77711 0.15983 0.0
C3215 C 0.07246 0.82215 0.16044 0.0
C3216 C 0.25786 0.26664 0.34076 0.0
C3217 C 0.27784 0.26758 0.35792 0.0
C3218 C 0.27492 0.28294 0.32399 0.0
C3219 C 0.31404 0.30289 0.32204 0.0
H3220 H 0.22803 0.2528 0.34009 0.0
H3221 H 0.25632 0.27988 0.31218 0.0
S3222 S 0.38283 0.31261 0.36134 0.0
N3223 N 0.34304 0.28934 0.36994 0.0
N3224 N 0.37202 0.32025 0.34021 0.0
C3225 C 0.33433 0.30373 0.33891 0.0
C3226 C 0.31744 0.28652 0.35588 0.0
C3227 C 1.01919 0.07206 0.58929 0.0
C3228 C 1.02266 0.05267 0.57218 0.0
C3229 C 1.03547 0.05578 0.60625 0.0
C3230 C 0.05776 1.01807 0.60852 0.0
H3231 H 1.00334 0.10081 0.58979 0.0
H3232 H 1.0304 0.07392 0.61796 0.0
S3233 S 0.07736 0.95256 0.5692 0.0
N3234 N 0.05137 0.99042 0.56029 0.0
N3235 N 0.08189 0.96285 0.59053 0.0
C3236 C 0.06179 0.99866 0.59164 0.0
C3237 C 0.04474 1.01479 0.57441 0.0
C3238 C 0.27717 0.8285 0.8481 0.0
C3239 C 0.30647 0.80871 0.85962 0.0
C3240 C 0.26004 0.81169 0.83141 0.0
C3241 C 0.26698 0.77119 0.8247 0.0
H3242 H 0.267 0.85837 0.85196 0.0
H3243 H 0.24043 0.83131 0.82363 0.0
S3244 S 0.33624 0.70121 0.84971 0.0
N3245 N 0.33886 0.74285 0.86189 0.0
N3246 N 0.3051 0.71139 0.83304 0.0
C3247 C 0.29457 0.75032 0.83649 0.0
C3248 C 0.31363 0.76822 0.85299 0.0
C3249 C 0.54142 1.01688 0.10583 0.0
C3250 C 0.52155 0.05577 0.10825 0.0
C3251 C 0.55926 1.00178 1.08911 0.0
C3252 C 0.55943 1.02359 1.07251 0.0
H3253 H 0.54323 0.99692 0.11718 0.0
H3254 H 0.5732 0.97203 1.08934 0.0
S3255 S 0.51325 0.128 1.07034 0.0
N3256 N 0.50451 0.11519 0.09113 0.0
N3257 N 0.53761 0.08941 1.06132 0.0
C3258 C 0.53995 0.0627 1.07494 0.0
C3259 C 0.52158 0.07776 0.09191 0.0
C3260 C 0.32898 0.77161 0.34005 0.0
C3261 C 0.30756 0.77094 0.35676 0.0
C3262 C 0.31306 0.78865 0.32312 0.0
C3263 C 0.27354 0.80745 0.32043 0.0
H3264 H 0.35921 0.75866 0.33987 0.0
H3265 H 0.33294 0.78706 0.31177 0.0
S3266 S 0.20141 0.8135 0.35835 0.0
N3267 N 0.24096 0.79073 0.3676 0.0
N3268 N 0.21374 0.82244 0.33753 0.0
C3269 C 0.25184 0.80685 0.33687 0.0
C3270 C 0.26773 0.78914 0.35405 0.0
C3271 C 0.53938 1.00852 0.60756 0.0
C3272 C 0.55942 0.04754 0.60968 0.0
C3273 C 0.52245 0.99187 0.59076 0.0
C3274 C 0.52378 1.01179 0.57367 0.0
H3275 H 0.53651 0.98974 0.61924 0.0
H3276 H 0.50798 0.96239 0.59135 0.0
S3277 S 0.5702 0.1161 0.57064 0.0
N3278 N 0.57739 0.10532 0.59178 0.0
N3279 N 0.54679 0.0765 0.5618 0.0
C3280 C 0.54342 0.05105 0.57582 0.0
C3281 C 0.56047 0.06785 0.5929 0.0
C3282 C 0.26805 0.29127 0.8233 0.0
C3283 C 0.30695 0.27117 0.82129 0.0
C3284 C 0.25233 0.30938 0.83982 0.0
C3285 C 0.27358 0.3098 0.8566 0.0
H3286 H 0.24853 0.29296 0.81173 0.0
H3287 H 0.22256 0.3233 0.8393 0.0
S3288 S 0.37862 0.26504 0.85965 0.0
N3289 N 0.36632 0.25536 0.83883 0.0
N3290 N 0.33943 0.28904 0.86836 0.0
C3291 C 0.31292 0.29048 0.85456 0.0
C3292 C 0.32858 0.27174 0.83777 0.0
C3293 C 0.05241 1.01456 1.07856 0.0
C3294 C 0.06691 0.05554 1.07552 0.0
C3295 C 1.03499 0.99893 0.09523 0.0
C3296 C 1.029 1.02245 0.1111 0.0
H3297 H 0.05471 0.99328 1.06769 0.0
H3298 H 1.02558 0.96743 0.09549 0.0
S3299 S 0.05949 0.13255 0.11162 0.0
N3300 N 0.073 0.11883 0.09143 0.0
N3301 N 1.03958 0.09191 0.12109 0.0
C3302 C 0.04313 0.06365 0.10815 0.0
C3303 C 0.06169 0.07924 0.09125 0.0
C3304 C 0.81826 0.78851 0.85904 0.0
C3305 C 0.78003 0.76692 0.86089 0.0
C3306 C 0.83426 0.80664 0.8425 0.0
C3307 C 0.81487 0.80422 0.82532 0.0
H3308 H 0.83706 0.79155 0.87072 0.0
H3309 H 0.86309 0.82241 0.84332 0.0
S3310 S 0.71322 0.75209 0.82138 0.0
N3311 N 0.72338 0.74633 0.84266 0.0
N3312 N 0.75228 0.77661 0.81279 0.0
C3313 C 0.77683 0.78204 0.82706 0.0
C3314 C 0.76012 0.76481 0.84403 0.0
C3315 C 0.7743 0.29106 0.35535 0.0
C3316 C 0.81435 0.30869 0.3577 0.0
C3317 C 0.75752 0.27484 0.33858 0.0
C3318 C 0.77881 0.2738 0.32192 0.0
H3319 H 0.75469 0.29003 0.36681 0.0
H3320 H 0.72696 0.26263 0.33883 0.0
S3321 S 0.88625 0.31245 0.31971 0.0
N3322 N 0.87458 0.32193 0.34056 0.0
N3323 N 0.84571 0.29108 0.31062 0.0
C3324 C 0.81921 0.2906 0.32429 0.0
C3325 C 0.83595 0.30765 0.34131 0.0
C3326 C 0.81102 0.2956 0.82549 0.0
C3327 C 0.77153 0.31431 0.82308 0.0
C3328 C 0.82749 0.27919 0.84227 0.0
C3329 C 0.80668 0.27918 0.85903 0.0
H3330 H 0.8305 0.29363 0.81402 0.0
H3331 H 0.85777 0.2664 0.84198 0.0
S3332 S 0.70086 0.32184 0.86147 0.0
N3333 N 0.71206 0.32972 0.84043 0.0
N3334 N 0.74096 0.29968 0.87057 0.0
C3335 C 0.76688 0.29743 0.85673 0.0
C3336 C 0.75019 0.31429 0.83959 0.0
C3337 C 0.76381 0.81602 0.33859 0.0
C3338 C 0.77282 0.80126 0.35617 0.0
C3339 C 0.78101 0.80036 0.32185 0.0
C3340 C 0.80929 0.76693 0.32004 0.0
H3341 H 0.74143 0.8395 0.33739 0.0
H3342 H 0.77045 0.81483 0.30996 0.0
S3343 S 0.83365 0.70462 0.35979 0.0
N3344 N 0.80724 0.74224 0.36852 0.0
N3345 N 0.83714 0.71427 0.33844 0.0
C3346 C 0.8161 0.74952 0.33716 0.0
C3347 C 0.79889 0.76573 0.35431 0.0
C3348 C 0.54056 0.5579 0.10527 0.0
C3349 C 0.55873 0.5182 0.10767 0.0
C3350 C 0.52417 0.57438 1.08842 0.0
C3351 C 0.52346 0.55318 1.07167 0.0
H3352 H 0.53901 0.57743 0.11676 0.0
H3353 H 0.51167 0.60475 1.08868 0.0
S3354 S 0.56469 0.4468 1.0694 0.0
N3355 N 0.57368 0.45863 0.09033 0.0
N3356 N 0.54225 0.48669 1.06035 0.0
C3357 C 0.54098 0.51313 1.07407 0.0
C3358 C 0.55835 0.49678 0.09116 0.0
C3359 C 1.03638 0.51388 0.60332 0.0
C3360 C 1.02289 0.55513 0.60648 0.0
C3361 C 0.05298 0.49804 0.58647 0.0
C3362 C 0.05947 0.52171 0.57061 0.0
H3363 H 1.03382 0.49259 0.61421 0.0
H3364 H 0.06159 0.46635 0.58611 0.0
S3365 S 1.03153 0.63241 0.57044 0.0
N3366 N 1.01805 0.61868 0.59064 0.0
N3367 N 0.05029 0.59149 0.56082 0.0
C3368 C 0.04633 0.56312 0.57372 0.0
C3369 C 1.02841 0.57885 0.59072 0.0
C3370 C 0.06372 0.57498 0.09047 0.0
C3371 C 0.06204 0.55522 0.10759 0.0
C3372 C 0.04663 0.55851 1.0737 0.0
C3373 C 1.02559 0.52003 1.07168 0.0
H3374 H 0.07867 0.60423 0.08985 0.0
H3375 H 0.05012 0.57701 1.06195 0.0
S3376 S 1.01163 0.45292 0.11103 0.0
N3377 N 1.03659 0.49174 0.11973 0.0
N3378 N 1.00522 0.46338 0.08981 0.0
C3379 C 1.0237 0.50008 1.08854 0.0
C3380 C 1.04123 0.51659 0.10558 0.0
C3381 C 0.5393 0.5611 0.60572 0.0
C3382 C 0.51855 0.52262 0.60827 0.0
C3383 C 0.55596 0.57664 0.58878 0.0
C3384 C 0.55468 0.55559 0.57196 0.0
H3385 H 0.54275 0.58049 0.61721 0.0
H3386 H 0.57024 0.60624 0.58904 0.0
S3387 S 0.50584 0.45225 0.56985 0.0
N3388 N 0.49939 0.46413 0.59089 0.0
N3389 N 0.53008 0.49084 0.5607 0.0
C3390 C 0.53438 0.51681 0.57449 0.0
C3391 C 0.51705 0.5013 0.59171 0.0
C3392 C 0.31216 0.08658 0.45921 0.0
C3393 C 0.32168 0.1267 0.45123 0.0
C3394 C 0.33821 0.05993 0.47156 0.0
C3395 C 0.38026 0.06665 0.47823 0.0
H3396 H 0.28233 0.07467 0.45602 0.0
H3397 H 0.32407 1.03199 0.47591 0.0
S3398 S 0.42702 0.16568 0.46278 0.0
N3399 N 0.38202 0.16913 0.45303 0.0
N3400 N 0.4278 0.12213 0.47368 0.0
C3401 C 0.39049 0.10641 0.47017 0.0
C3402 C 0.36345 0.13417 0.45798 0.0
C3403 C 0.21433 0.13698 0.72118 0.0
C3404 C 0.2559 0.1293 0.72818 0.0
C3405 C 0.18742 0.10984 0.70937 0.0
C3406 C 0.19658 0.06961 0.70146 0.0
H3407 H 0.20099 0.16559 0.72511 0.0
H3408 H 0.15767 0.12192 0.7062 0.0
S3409 S 0.3003 1.02966 0.7141 0.0
N3410 N 0.3016 0.07295 0.72489 0.0
N3411 N 0.25655 1.02714 0.70336 0.0
C3412 C 0.23834 0.06218 0.70812 0.0
C3413 C 0.26512 0.08923 0.72067 0.0
C3414 C 0.19368 0.96202 0.97446 0.0
C3415 C 0.20074 1.00409 0.98081 0.0
C3416 C 0.22018 0.9357 0.96231 0.0
C3417 C 0.25914 0.94583 0.95346 0.0
H3418 H 0.16603 0.94788 0.97914 0.0
H3419 H 0.20865 0.9055 0.95966 0.0
S3420 S 0.29559 0.05248 0.96324 0.0
N3421 N 0.25395 0.05233 0.97515 0.0
N3422 N 0.29953 1.00759 0.95366 0.0
C3423 C 0.26601 0.9881 0.95953 0.0
C3424 C 0.23932 1.01456 0.97221 0.0
C3425 C 0.31322 0.9893 0.22041 0.0
C3426 C 0.32127 0.94789 0.22741 0.0
C3427 C 0.33915 1.01567 0.20801 0.0
C3428 C 0.3797 1.00719 0.20032 0.0
H3429 H 0.28471 1.0026 0.22451 0.0
H3430 H 0.3263 0.04488 0.20456 0.0
S3431 S 0.42235 0.90423 0.21298 0.0
N3432 N 0.37855 0.90232 0.22357 0.0
N3433 N 0.42434 0.94874 0.20288 0.0
C3434 C 0.38855 0.96614 0.20744 0.0
C3435 C 0.36152 0.93874 0.21965 0.0
C3436 C 0.76981 0.98877 0.72002 0.0
C3437 C 0.7599 0.95006 0.72906 0.0
C3438 C 0.74366 1.01433 0.70733 0.0
C3439 C 0.70083 1.00818 0.70168 0.0
H3440 H 0.79992 1.00049 0.72266 0.0
H3441 H 0.75825 0.04111 0.70198 0.0
S3442 S 0.65271 0.9127 0.7203 0.0
N3443 N 0.69848 0.90909 0.72931 0.0
N3444 N 0.65214 0.95484 0.70838 0.0
C3445 C 0.69019 0.96979 0.71083 0.0
C3446 C 0.7175 0.9428 0.72318 0.0
C3447 C 0.89373 0.96358 0.46984 0.0
C3448 C 0.88492 1.00445 0.4772 0.0
C3449 C 0.86723 0.93651 0.45782 0.0
C3450 C 0.82653 0.94486 0.45003 0.0
H3451 H 0.92283 0.9509 0.47367 0.0
H3452 H 0.8802 0.90739 0.4544 0.0
S3453 S 0.78203 0.04495 0.46324 0.0
N3454 N 0.82571 0.04793 0.47409 0.0
N3455 N 0.78122 1.00156 0.45256 0.0
C3456 C 0.81748 0.9853 0.45713 0.0
C3457 C 0.84386 1.01251 0.46978 0.0
C3458 C 0.89787 0.11179 0.21112 0.0
C3459 C 0.88921 0.07177 0.20281 0.0
C3460 C 0.87033 0.13844 0.22274 0.0
C3461 C 0.82835 0.13062 0.22912 0.0
H3462 H 0.92773 0.1241 0.20845 0.0
H3463 H 0.88354 0.16689 0.22707 0.0
S3464 S 0.78497 1.03116 0.21238 0.0
N3465 N 0.83006 1.02897 0.20324 0.0
N3466 N 0.78265 0.0738 0.22388 0.0
C3467 C 0.81962 0.09049 0.22099 0.0
C3468 C 0.84745 0.06392 0.2088 0.0
C3469 C 0.7066 0.07409 0.95884 0.0
C3470 C 0.70058 0.07533 0.97836 0.0
C3471 C 0.73321 0.10091 0.94699 0.0
C3472 C 0.75868 0.13634 0.95185 0.0
H3473 H 0.68971 0.05107 0.95187 0.0
H3474 H 0.73277 0.0934 0.933 0.0
S3475 S 0.7584 0.16054 1.00102 0.0
N3476 N 0.72773 0.12077 1.0009 0.0
N3477 N 0.77216 0.16868 0.98026 0.0
C3478 C 0.75242 0.13885 0.97129 0.0
C3479 C 0.72617 0.11056 0.98347 0.0
C3480 C 0.81243 0.58642 0.96086 0.0
C3481 C 0.8219 0.62682 0.9532 0.0
C3482 C 0.83803 0.56 0.97344 0.0
C3483 C 0.87957 0.56721 0.98056 0.0
H3484 H 0.783 0.57413 0.95723 0.0
H3485 H 0.8239 0.532 0.97761 0.0
S3486 S 0.92538 0.66772 0.96643 0.0
N3487 N 0.88106 0.67054 0.95607 0.0
N3488 N 0.92634 0.62374 0.97699 0.0
C3489 C 0.88966 0.60735 0.97285 0.0
C3490 C 0.86297 0.63496 0.9605 0.0
C3491 C 0.69083 0.61088 0.20725 0.0
C3492 C 0.70032 0.57093 0.19918 0.0
C3493 C 0.71758 0.63785 0.21917 0.0
C3494 C 0.75896 0.62997 0.2263 0.0
H3495 H 0.66107 0.62291 0.20405 0.0
H3496 H 0.7042 0.66641 0.22314 0.0
S3497 S 0.80358 0.53079 0.21086 0.0
N3498 N 0.7598 0.52879 0.20032 0.0
N3499 N 0.80447 0.57287 0.22269 0.0
C3500 C 0.76816 0.58972 0.21865 0.0
C3501 C 0.74168 0.56332 0.20576 0.0
C3502 C 0.71513 0.43866 0.45792 0.0
C3503 C 0.75632 0.44773 0.45097 0.0
C3504 C 0.68768 0.46477 0.4698 0.0
C3505 C 0.69598 0.50502 0.47799 0.0
H3506 H 0.70248 0.40977 0.45383 0.0
H3507 H 0.65829 0.4518 0.47285 0.0
S3508 S 0.79895 0.54688 0.46653 0.0
N3509 N 0.80052 0.50498 0.4548 0.0
N3510 N 0.75514 0.54841 0.47693 0.0
C3511 C 0.7374 0.51357 0.47151 0.0
C3512 C 0.76447 0.48779 0.45873 0.0
C3513 C 0.81169 0.48925 0.72017 0.0
C3514 C 0.81972 0.44836 0.72765 0.0
C3515 C 0.83824 0.5152 0.70791 0.0
C3516 C 0.87905 0.50636 0.7006 0.0
H3517 H 0.78284 0.50249 0.72382 0.0
H3518 H 0.82555 0.54427 0.70412 0.0
S3519 S 0.92126 0.40393 0.71429 0.0
N3520 N 0.87723 0.40264 0.72473 0.0
N3521 N 0.92358 0.44796 0.70381 0.0
C3522 C 0.88773 0.46564 0.70807 0.0
C3523 C 0.8604 0.43891 0.7204 0.0
C3524 C 0.23555 0.47972 0.23342 0.0
C3525 C 0.2634 0.44634 0.22827 0.0
C3526 C 0.20832 0.50659 0.22166 0.0
C3527 C 0.20435 0.50768 0.20202 0.0
H3528 H 0.23351 0.48527 0.24755 0.0
H3529 H 0.18945 0.52797 0.22868 0.0
S3530 S 0.26658 0.42799 0.17848 0.0
N3531 N 0.27855 0.41736 0.19929 0.0
N3532 N 0.23526 0.46707 0.17898 0.0
C3533 C 0.23204 0.47476 0.19661 0.0
C3534 C 0.25814 0.44583 0.20863 0.0
C3535 C 0.34033 0.50439 0.97844 0.0
C3536 C 0.38509 0.50988 0.97827 0.0
C3537 C 0.31329 0.47833 0.9663 0.0
C3538 C 0.32482 0.45091 0.95155 0.0
H3539 H 0.3245 0.52133 0.98858 0.0
H3540 H 0.28113 0.4802 0.96884 0.0
S3541 S 0.43714 0.4539 0.94078 0.0
N3542 N 0.43673 0.48418 0.95827 0.0
N3543 N 0.38995 0.43814 0.93761 0.0
C3544 C 0.36944 0.45687 0.95085 0.0
C3545 C 0.39705 0.48408 0.96304 0.0
C3546 C 0.38948 0.61602 0.70941 0.0
C3547 C 0.38215 0.57394 0.70292 0.0
C3548 C 0.36284 0.64299 0.72137 0.0
C3549 C 0.32326 0.63365 0.72996 0.0
H3550 H 0.41751 0.62977 0.70494 0.0
H3551 H 0.37481 0.67298 0.72407 0.0
S3552 S 0.28593 0.52802 0.72088 0.0
N3553 N 0.32728 0.52722 0.70866 0.0
N3554 N 0.28248 0.57313 0.73 0.0
C3555 C 0.31622 0.59172 0.72392 0.0
C3556 C 0.3428 0.56461 0.71138 0.0
C3557 C 0.24256 0.56372 0.47061 0.0
C3558 C 0.20121 0.5712 0.47782 0.0
C3559 C 0.2688 0.59044 0.45838 0.0
C3560 C 0.2604 0.63145 0.4509 0.0
H3561 H 0.25594 0.53494 0.47436 0.0
H3562 H 0.29794 0.5777 0.45481 0.0
S3563 S 0.15702 0.67268 0.46371 0.0
N3564 N 0.15552 0.62858 0.47417 0.0
N3565 N 0.20147 0.67534 0.45367 0.0
C3566 C 0.21927 0.63961 0.45811 0.0
C3567 C 0.19204 0.61189 0.47025 0.0
C3568 C 0.35103 0.07351 0.32097 0.0
C3569 C 0.3518 0.08228 0.33926 0.0
C3570 C 0.35587 1.03302 0.31559 0.0
C3571 C 0.36356 1.00306 0.3286 0.0
H3572 H 0.33582 0.09417 0.31192 0.0
H3573 H 0.34413 1.02473 0.30262 0.0
S3574 S 0.4025 1.02072 0.37384 0.0
N3575 N 0.38449 0.06514 0.36727 0.0
N3576 N 0.3985 0.99025 0.35649 0.0
C3577 C 0.38302 1.01636 0.34421 0.0
C3578 C 0.37571 0.05681 0.34999 0.0
C3579 C 0.26371 0.12672 0.58972 0.0
C3580 C 0.24448 0.08944 0.58663 0.0
C3581 C 0.29677 0.13819 0.57918 0.0
C3582 C 0.31262 0.11046 0.56669 0.0
H3583 H 0.25853 0.1428 0.60205 0.0
H3584 H 0.31501 0.1637 0.58361 0.0
S3585 S 0.2571 1.02176 0.54832 0.0
N3586 N 0.23024 1.03614 0.56559 0.0
N3587 N 0.29405 0.05529 0.54651 0.0
C3588 C 0.28544 0.08065 0.56018 0.0
C3589 C 0.25043 0.0706 0.57024 0.0
C3590 C 0.21375 0.03927 0.83292 0.0
C3591 C 0.23784 0.0628 0.82155 0.0
C3592 C 0.2233 0.99848 0.83618 0.0
C3593 C 0.25812 0.98058 0.8287 0.0
H3594 H 0.18948 0.05331 0.84038 0.0
H3595 H 0.20586 0.98215 0.84605 0.0
S3596 S 0.32911 1.02837 0.79661 0.0
N3597 N 0.29517 0.06353 0.80107 0.0
N3598 N 0.3146 0.98864 0.80819 0.0
C3599 C 0.28013 1.00272 0.816 0.0
C3600 C 0.26975 0.04358 0.81228 0.0
C3601 C 0.26948 0.95804 1.0746 0.0
C3602 C 0.23719 0.95788 1.08698 0.0
C3603 C 0.30894 0.96726 1.08037 0.0
C3604 C 0.31581 0.97566 0.09839 0.0
H3605 H 0.26396 0.95986 1.06047 0.0
H3606 H 0.33099 0.97681 1.07056 0.0
S3607 S 0.25015 0.94332 0.13536 0.0
N3608 N 0.22145 0.93814 0.11739 0.0
N3609 N 0.2949 0.95946 0.12839 0.0
C3610 C 0.28812 0.95977 0.11058 0.0
C3611 C 0.24841 0.94909 0.10466 0.0
C3612 C 0.77447 1.02899 0.81249 0.0
C3613 C 0.73607 1.0136 0.81727 0.0
C3614 C 0.78568 0.06845 0.81642 0.0
C3615 C 0.75958 0.09411 0.82586 0.0
H3616 H 0.79762 1.00978 0.80678 0.0
H3617 H 0.81655 0.07754 0.81337 0.0
S3618 S 0.65534 0.07012 0.84094 0.0
N3619 N 0.6708 1.0283 0.83095 0.0
N3620 N 0.69326 0.10282 0.83933 0.0
C3621 C 0.72065 0.08009 0.83028 0.0
C3622 C 0.70866 0.03973 0.82585 0.0
C3623 C 0.79555 0.9775 0.61031 0.0
C3624 C 0.76787 0.98678 0.59666 0.0
C3625 C 0.83442 0.9632 0.60601 0.0
C3626 C 0.84731 0.96439 0.5881 0.0
H3627 H 0.7896 0.98679 0.62386 0.0
H3628 H 0.85625 0.96003 0.61673 0.0
S3629 S 0.77574 0.95558 0.5498 0.0
N3630 N 0.74774 0.97231 0.56637 0.0
N3631 N 0.82168 0.94833 0.55822 0.0
C3632 C 0.81578 0.95938 0.57537 0.0
C3633 C 0.77563 0.97145 0.57975 0.0
C3634 C 0.85738 1.00844 0.33268 0.0
C3635 C 0.81608 0.99751 0.33184 0.0
C3636 C 0.86897 0.04946 0.33213 0.0
C3637 C 0.83931 0.07998 0.33142 0.0
H3638 H 0.88052 0.98525 0.33402 0.0
H3639 H 0.90093 0.05737 0.3324 0.0
S3640 S 0.7268 0.06644 0.33038 0.0
N3641 N 0.74559 1.02014 0.33082 0.0
N3642 N 0.7669 0.09642 0.33066 0.0
C3643 C 0.79785 0.06904 0.331 0.0
C3644 C 0.78633 1.02793 0.33098 0.0
C3645 C 0.82392 0.11585 0.09284 0.0
C3646 C 0.84614 0.08414 1.08503 0.0
C3647 C 0.78236 0.12066 1.08925 0.0
C3648 C 0.76211 0.09414 1.07761 0.0
H3649 H 0.83807 0.13497 0.10282 0.0
H3650 H 0.76543 0.14348 0.09644 0.0
S3651 S 0.80661 1.00521 1.05416 0.0
N3652 N 0.84479 1.02563 1.06524 0.0
N3653 N 0.76748 1.03476 1.05835 0.0
C3654 C 0.78464 0.06347 1.06903 0.0
C3655 C 0.82657 0.05854 1.07272 0.0
C3656 C 0.86603 0.53168 0.85867 0.0
C3657 C 0.84595 0.56087 0.84826 0.0
C3658 C 0.87906 0.49536 0.85085 0.0
C3659 C 0.86761 0.48681 0.83313 0.0
H3660 H 0.86485 0.53346 0.87303 0.0
H3661 H 0.88848 0.47097 0.85961 0.0
S3662 S 0.84292 0.56581 0.79939 0.0
N3663 N 0.83721 0.58854 0.81875 0.0
N3664 N 0.85927 0.5196 0.80405 0.0
C3665 C 0.86146 0.52113 0.82206 0.0
C3666 C 0.85009 0.55862 0.82988 0.0
C3667 C 0.81458 0.62098 1.07975 0.0
C3668 C 0.83892 0.60163 0.09266 0.0
C3669 C 0.77308 0.62694 1.08329 0.0
C3670 C 0.75693 0.61013 0.09901 0.0
H3671 H 0.82437 0.62209 1.06604 0.0
H3672 H 0.75308 0.63303 1.07211 0.0
S3673 S 0.8166 0.5943 0.1403 0.0
N3674 N 0.85064 0.59713 0.12431 0.0
N3675 N 0.77203 0.60208 0.13063 0.0
C3676 C 0.78386 0.60878 0.11362 0.0
C3677 C 0.82631 0.60619 0.11027 0.0
C3678 C 0.69026 0.53474 0.34966 0.0
C3679 C 0.71802 0.5183 0.3621 0.0
C3680 C 0.70171 0.56851 0.33953 0.0
C3681 C 0.73915 0.58734 0.34291 0.0
H3682 H 0.665 0.51655 0.34489 0.0
H3683 H 0.68586 0.5742 0.32712 0.0
S3684 S 0.8067 0.57305 0.38129 0.0
N3685 N 0.77372 0.53542 0.38246 0.0
N3686 N 0.7914 0.60154 0.36457 0.0
C3687 C 0.75731 0.58114 0.35948 0.0
C3688 C 0.74782 0.5451 0.36901 0.0
C3689 C 0.75998 0.46793 0.59448 0.0
C3690 C 0.74689 0.5084 0.59596 0.0
C3691 C 0.80139 0.45824 0.59618 0.0
C3692 C 0.83018 0.48906 0.59888 0.0
H3693 H 0.73825 0.44402 0.59168 0.0
H3694 H 0.81098 0.42689 0.59514 0.0
S3695 S 0.81083 0.60031 0.60198 0.0
N3696 N 0.76562 0.57945 0.59956 0.0
N3697 N 0.84281 0.56188 0.60185 0.0
C3698 C 0.8171 0.52977 0.59997 0.0
C3699 C 0.7755 0.5393 0.59876 0.0
C3700 C 0.2019 0.55702 0.34373 0.0
C3701 C 0.23639 0.57833 0.33808 0.0
C3702 C 0.19023 0.52151 0.33474 0.0
C3703 C 0.21537 0.5063 0.32113 0.0
H3704 H 0.18961 0.56258 0.35682 0.0
H3705 H 0.1691 0.50136 0.34134 0.0
S3706 S 0.289 0.56733 0.29536 0.0
N3707 N 0.28039 0.59382 0.31348 0.0
N3708 N 0.25844 0.52763 0.29648 0.0
C3709 C 0.23869 0.53538 0.3119 0.0
C3710 C 0.24984 0.57179 0.32077 0.0
C3711 C 0.30913 0.4751 0.09805 0.0
C3712 C 0.31346 0.47886 1.07961 0.0
C3713 C 0.27091 0.46605 0.10507 0.0
C3714 C 0.2372 0.46066 0.09353 0.0
H3715 H 0.33195 0.48799 0.10684 0.0
H3716 H 0.26693 0.47195 0.11908 0.0
S3717 S 0.24337 0.4384 1.04552 0.0
N3718 N 0.28869 0.45644 1.0509 0.0
N3719 N 0.21759 0.43569 1.06428 0.0
C3720 C 0.24618 0.44905 1.07599 0.0
C3721 C 0.28464 0.45963 1.06878 0.0
C3722 C 0.38152 0.55527 0.83326 0.0
C3723 C 0.34885 0.57747 0.84007 0.0
C3724 C 0.39264 0.51852 0.8413 0.0
C3725 C 0.3706 0.50398 0.856 0.0
H3726 H 0.39208 0.5613 0.8199 0.0
H3727 H 0.41209 0.49811 0.83395 0.0
S3728 S 0.29927 0.56469 0.88342 0.0
N3729 N 0.30884 0.59324 0.86592 0.0
N3730 N 0.32802 0.52408 0.8811 0.0
C3731 C 0.34774 0.53277 0.86573 0.0
C3732 C 0.33768 0.57055 0.8577 0.0
C3733 C 0.262 0.61963 0.58529 0.0
C3734 C 0.23551 0.59289 0.59414 0.0
C3735 C 0.30399 0.61855 0.58854 0.0
C3736 C 0.32034 0.59182 0.6012 0.0
H3737 H 0.25072 0.63836 0.57451 0.0
H3738 H 0.32399 0.63646 0.58025 0.0
S3739 S 0.26397 0.51728 0.62888 0.0
N3740 N 0.22914 0.53956 0.61649 0.0
N3741 N 0.30674 0.54007 0.62359 0.0
C3742 C 0.2937 0.56785 0.6114 0.0
C3743 C 0.25148 0.56793 0.60771 0.0
loop_
_geom_bond_atom_site_label_1
_geom_bond_atom_site_label_2
_geom_bond_distance
_geom_bond_site_symmetry_2
_ccdc_geom_bond_type
C0 C2 1.422 . S
C0 C4 1.415 . S
C0 N6 1.369 . S
C1 C2 1.421 . S
C1 C3 1.417 . S
C1 C13 1.422 . S
C2 C0 1.422 . S
C2 C1 1.421 . S
C2 N12 1.359 . S
C3 C1 1.417 . S
C3 C5 1.329 . S
C3 H22 0.930 . S
C4 C0 1.415 . S
C4 C5 1.437 . S
C4 C8 1.413 . S
C5 C3 1.329 . S
C5 C4 1.437 . S
C5 H27 0.929 . S
N6 C0 1.369 . S
N6 C7 1.338 . S
N6 Gd11 2.622 . S
C7 N6 1.338 . S
C7 C9 1.378 . S
C7 H19 0.929 . S
C8 C4 1.413 . S
C8 C9 1.348 . S
C8 H24 0.931 . S
C9 C7 1.378 . S
C9 C8 1.348 . S
C9 H25 0.930 . S
Gd10 N30 2.622 . S
Gd10 N37 2.570 . S
Gd10 O44 2.353 . S
Gd10 O45 2.468 . S
Gd10 O46 2.427 . S
Gd10 O48 2.388 . S
Gd10 O49 2.386 . S
Gd10 O53 2.307 . S
Gd10 C63 2.805 . S
Gd11 N6 2.622 . S
Gd11 N12 2.570 . S
Gd11 O43 2.386 . S
Gd11 O47 2.307 . S
Gd11 O50 2.353 . S
Gd11 O51 2.468 . S
Gd11 O52 2.427 . S
Gd11 O54 2.388 . S
Gd11 C75 2.805 . S
N12 C2 1.359 . S
N12 Gd11 2.570 . S
N12 C14 1.343 . S
C13 C1 1.422 . S
C13 C15 1.321 . S
C13 H21 0.931 . S
C14 N12 1.343 . S
C14 C15 1.390 . S
C14 H16 0.931 . S
C15 C13 1.321 . S
C15 C14 1.390 . S
C15 H17 0.930 . S
H16 C14 0.931 . S
H17 C15 0.930 . S
H18 C41 0.931 . S
H19 C7 0.929 . S
H20 C42 0.930 . S
H21 C13 0.931 . S
H22 C3 0.930 . S
H23 C32 0.929 . S
H24 C8 0.931 . S
H25 C9 0.930 . S
H26 C64 0.930 . S
H27 C5 0.929 . S
H28 C33 0.931 . S
H29 C34 0.930 . S
N30 Gd10 2.622 . S
N30 C31 1.369 . S
N30 C32 1.338 . S
C31 N30 1.369 . S
C31 C35 1.415 . S
C31 C38 1.422 . S
C32 H23 0.929 . S
C32 N30 1.338 . S
C32 C34 1.378 . S
C33 H28 0.931 . S
C33 C34 1.348 . S
C33 C35 1.413 . S
C34 H29 0.930 . S
C34 C32 1.378 . S
C34 C33 1.348 . S
C35 C31 1.415 . S
C35 C33 1.413 . S
C35 C65 1.437 . S
H36 C65 0.929 . S
N37 Gd10 2.570 . S
N37 C38 1.359 . S
N37 C41 1.343 . S
C38 C31 1.422 . S
C38 N37 1.359 . S
C38 C40 1.421 . S
C39 C40 1.422 . S
C39 C42 1.321 . S
C39 H66 0.931 . S
C40 C38 1.421 . S
C40 C39 1.422 . S
C40 C64 1.417 . S
C41 H18 0.931 . S
C41 N37 1.343 . S
C41 C42 1.390 . S
C42 H20 0.930 . S
C42 C39 1.321 . S
C42 C41 1.390 . S
O43 Gd11 2.386 . S
O43 C55 1.265 . S
O44 Gd10 2.353 . S
O44 C55 1.242 . S
O45 Gd10 2.468 . S
O45 C63 1.263 . S
O46 Gd10 2.427 . S
O46 C63 1.252 . S
O47 Gd11 2.307 . S
O47 C56 1.261 . S
O48 Gd10 2.388 . S
O48 C56 1.252 . S
O49 Gd10 2.386 . S
O49 C67 1.265 . S
O50 Gd11 2.353 . S
O50 C67 1.242 . S
O51 Gd11 2.468 . S
O51 C75 1.263 . S
O52 Gd11 2.427 . S
O52 C75 1.252 . S
O53 Gd10 2.307 . S
O53 C68 1.261 . S
O54 Gd11 2.388 . S
O54 C68 1.252 . S
C55 O43 1.265 . S
C55 O44 1.242 . S
C56 O47 1.261 . S
C56 O48 1.252 . S
C57 C60 1.394 . S
C57 C62 1.370 . S
C57 C63 1.500 . S
C58 C61 1.383 . S
C58 C62 1.395 . S
C59 C60 1.396 . S
C59 C61 1.365 . S
C59 H76 0.929 . S
C60 C57 1.394 . S
C60 C59 1.396 . S
C60 H77 0.930 . S
C61 C58 1.383 . S
C61 C59 1.365 . S
C61 H78 0.931 . S
C62 C57 1.370 . S
C62 C58 1.395 . S
C62 H79 0.930 . S
C63 Gd10 2.805 . S
C63 O45 1.263 . S
C63 O46 1.252 . S
C63 C57 1.500 . S
C64 H26 0.930 . S
C64 C40 1.417 . S
C64 C65 1.329 . S
C65 C35 1.437 . S
C65 H36 0.929 . S
C65 C64 1.329 . S
H66 C39 0.931 . S
C67 O49 1.265 . S
C67 O50 1.242 . S
C68 O53 1.261 . S
C68 O54 1.252 . S
C69 C72 1.394 . S
C69 C74 1.370 . S
C69 C75 1.500 . S
C70 C73 1.383 . S
C70 C74 1.395 . S
C71 C72 1.396 . S
C71 C73 1.365 . S
C71 H80 0.929 . S
C72 C69 1.394 . S
C72 C71 1.396 . S
C72 H81 0.930 . S
C73 C70 1.383 . S
C73 C71 1.365 . S
C73 H82 0.931 . S
C74 C69 1.370 . S
C74 C70 1.395 . S
C74 H83 0.930 . S
C75 Gd11 2.805 . S
C75 O51 1.263 . S
C75 O52 1.252 . S
C75 C69 1.500 . S
H76 C59 0.929 . S
H77 C60 0.930 . S
H78 C61 0.931 . S
H79 C62 0.930 . S
H80 C71 0.929 . S
H81 C72 0.930 . S
H82 C73 0.931 . S
H83 C74 0.930 . S
C84 C86 1.422 . S
C84 C88 1.415 . S
C84 N90 1.369 . S
C85 C86 1.421 . S
C85 C87 1.417 . S
C85 C97 1.422 1_545 S
C86 C84 1.422 . S
C86 C85 1.421 . S
C86 N96 1.359 1_545 S
C87 C85 1.417 . S
C87 C89 1.329 . S
C87 H106 0.930 . S
C88 C84 1.415 . S
C88 C89 1.437 . S
C88 C92 1.413 . S
C89 C87 1.329 . S
C89 C88 1.437 . S
C89 H111 0.929 . S
N90 C84 1.369 . S
N90 C91 1.338 . S
N90 Gd95 2.622 1_545 S
C91 N90 1.338 . S
C91 C93 1.378 . S
C91 H103 0.929 1_655 S
C92 C88 1.413 . S
C92 C93 1.348 . S
C92 H108 0.931 . S
C93 C91 1.378 . S
C93 C92 1.348 . S
C93 H109 0.930 . S
Gd94 N114 2.622 . S
Gd94 N121 2.570 . S
Gd94 O128 2.353 . S
Gd94 O129 2.468 . S
Gd94 O130 2.427 . S
Gd94 O132 2.388 . S
Gd94 O133 2.386 . S
Gd94 O137 2.307 . S
Gd94 C147 2.805 . S
Gd95 N90 2.622 1_565 S
Gd95 N96 2.570 . S
Gd95 O127 2.386 1_655 S
Gd95 O131 2.307 . S
Gd95 O134 2.353 1_655 S
Gd95 O135 2.468 . S
Gd95 O136 2.427 . S
Gd95 O138 2.388 1_665 S
Gd95 C159 2.805 . S
N96 C86 1.359 1_565 S
N96 Gd95 2.570 . S
N96 C98 1.343 . S
C97 C85 1.422 1_565 S
C97 C99 1.321 . S
C97 H105 0.931 . S
C98 N96 1.343 . S
C98 C99 1.390 . S
C98 H100 0.931 . S
C99 C97 1.321 . S
C99 C98 1.390 . S
C99 H101 0.930 . S
H100 C98 0.931 . S
H101 C99 0.930 . S
H102 C125 0.931 . S
H103 C91 0.929 1_455 S
H104 C126 0.930 . S
H105 C97 0.931 . S
H106 C87 0.930 . S
H107 C116 0.929 . S
H108 C92 0.931 . S
H109 C93 0.930 . S
H110 C148 0.930 . S
H111 C89 0.929 . S
H112 C117 0.931 . S
H113 C118 0.930 . S
N114 Gd94 2.622 . S
N114 C115 1.369 . S
N114 C116 1.338 . S
C115 N114 1.369 . S
C115 C119 1.415 . S
C115 C122 1.422 . S
C116 H107 0.929 . S
C116 N114 1.338 . S
C116 C118 1.378 . S
C117 H112 0.931 . S
C117 C118 1.348 . S
C117 C119 1.413 . S
C118 H113 0.930 . S
C118 C116 1.378 . S
C118 C117 1.348 . S
C119 C115 1.415 . S
C119 C117 1.413 . S
C119 C149 1.437 . S
H120 C149 0.929 . S
N121 Gd94 2.570 . S
N121 C122 1.359 . S
N121 C125 1.343 . S
C122 C115 1.422 . S
C122 N121 1.359 . S
C122 C124 1.421 . S
C123 C124 1.422 . S
C123 C126 1.321 . S
C123 H150 0.931 . S
C124 C122 1.421 . S
C124 C123 1.422 . S
C124 C148 1.417 . S
C125 H102 0.931 . S
C125 N121 1.343 . S
C125 C126 1.390 . S
C126 H104 0.930 . S
C126 C123 1.321 . S
C126 C125 1.390 . S
O127 Gd95 2.386 1_455 S
O127 C139 1.265 . S
O128 Gd94 2.353 . S
O128 C139 1.242 . S
O129 Gd94 2.468 . S
O129 C147 1.263 . S
O130 Gd94 2.427 . S
O130 C147 1.252 . S
O131 Gd95 2.307 . S
O131 C140 1.261 1_655 S
O132 Gd94 2.388 . S
O132 C140 1.252 . S
O133 Gd94 2.386 . S
O133 C151 1.265 . S
O134 Gd95 2.353 1_455 S
O134 C151 1.242 . S
O135 Gd95 2.468 . S
O135 C159 1.263 . S
O136 Gd95 2.427 . S
O136 C159 1.252 . S
O137 Gd94 2.307 . S
O137 C152 1.261 1_565 S
O138 Gd95 2.388 1_445 S
O138 C152 1.252 . S
C139 O127 1.265 . S
C139 O128 1.242 . S
C140 O131 1.261 1_455 S
C140 O132 1.252 . S
C141 C144 1.394 . S
C141 C146 1.370 . S
C141 C147 1.500 . S
C142 C145 1.383 . S
C142 C146 1.395 . S
C143 C144 1.396 . S
C143 C145 1.365 . S
C143 H160 0.929 . S
C144 C141 1.394 . S
C144 C143 1.396 . S
C144 H161 0.930 . S
C145 C142 1.383 . S
C145 C143 1.365 . S
C145 H162 0.931 . S
C146 C141 1.370 . S
C146 C142 1.395 . S
C146 H163 0.915 1_565 S
C147 Gd94 2.805 . S
C147 O129 1.263 . S
C147 O130 1.252 . S
C147 C141 1.500 . S
C148 H110 0.930 . S
C148 C124 1.417 . S
C148 C149 1.329 . S
C149 C119 1.437 . S
C149 H120 0.929 . S
C149 C148 1.329 . S
H150 C123 0.931 . S
C151 O133 1.265 . S
C151 O134 1.242 . S
C152 O137 1.261 1_545 S
C152 O138 1.252 . S
C153 C156 1.394 . S
C153 C158 1.370 . S
C153 C159 1.500 . S
C154 C157 1.383 . S
C154 C158 1.395 . S
C155 C156 1.396 . S
C155 C157 1.365 . S
C155 H164 0.929 . S
C156 C153 1.394 . S
C156 C155 1.396 . S
C156 H165 0.930 . S
C157 C154 1.383 . S
C157 C155 1.365 . S
C157 H166 0.931 . S
C158 C153 1.370 . S
C158 C154 1.395 . S
C158 H167 0.930 . S
C159 Gd95 2.805 . S
C159 O135 1.263 . S
C159 O136 1.252 . S
C159 C153 1.500 . S
H160 C143 0.929 . S
H161 C144 0.930 . S
H162 C145 0.931 . S
H163 C146 0.915 1_545 S
H164 C155 0.929 . S
H165 C156 0.930 . S
H166 C157 0.931 . S
H167 C158 0.930 . S
C168 C170 1.422 . S
C168 C172 1.415 . S
C168 N174 1.369 . S
C169 C170 1.421 . S
C169 C171 1.417 . S
C169 C181 1.422 . S
C170 C168 1.422 . S
C170 C169 1.421 . S
C170 N180 1.359 . S
C171 C169 1.417 . S
C171 C173 1.329 . S
C171 H190 0.930 . S
C172 C168 1.415 . S
C172 C173 1.437 . S
C172 C176 1.413 . S
C173 C171 1.329 . S
C173 C172 1.437 . S
C173 H195 0.929 . S
N174 C168 1.369 . S
N174 C175 1.338 . S
N174 Gd179 2.622 . S
C175 N174 1.338 . S
C175 C177 1.378 . S
C175 H187 0.929 . S
C176 C172 1.413 . S
C176 C177 1.348 . S
C176 H192 0.931 . S
C177 C175 1.378 . S
C177 C176 1.348 . S
C177 H193 0.930 . S
Gd178 N198 2.622 . S
Gd178 N205 2.570 . S
Gd178 O212 2.353 . S
Gd178 O213 2.468 . S
Gd178 O214 2.427 . S
Gd178 O216 2.388 . S
Gd178 O217 2.386 . S
Gd178 O221 2.307 . S
Gd178 C231 2.805 . S
Gd179 N174 2.622 . S
Gd179 N180 2.570 . S
Gd179 O211 2.386 . S
Gd179 O215 2.307 . S
Gd179 O218 2.353 . S
Gd179 O219 2.468 . S
Gd179 O220 2.427 . S
Gd179 O222 2.388 . S
Gd179 C243 2.805 . S
N180 C170 1.359 . S
N180 Gd179 2.570 . S
N180 C182 1.343 . S
C181 C169 1.422 . S
C181 C183 1.321 . S
C181 H189 0.931 . S
C182 N180 1.343 . S
C182 C183 1.390 . S
C182 H184 0.931 . S
C183 C181 1.321 . S
C183 C182 1.390 . S
C183 H185 0.930 . S
H184 C182 0.931 . S
H185 C183 0.930 . S
H186 C209 0.931 . S
H187 C175 0.929 . S
H188 C210 0.930 . S
H189 C181 0.931 . S
H190 C171 0.930 . S
H191 C200 0.929 . S
H192 C176 0.931 . S
H193 C177 0.930 . S
H194 C232 0.930 . S
H195 C173 0.929 . S
H196 C201 0.931 . S
H197 C202 0.930 . S
N198 Gd178 2.622 . S
N198 C199 1.369 . S
N198 C200 1.338 . S
C199 N198 1.369 . S
C199 C203 1.415 . S
C199 C206 1.422 . S
C200 H191 0.929 . S
C200 N198 1.338 . S
C200 C202 1.378 . S
C201 H196 0.931 . S
C201 C202 1.348 . S
C201 C203 1.413 . S
C202 H197 0.930 . S
C202 C200 1.378 . S
C202 C201 1.348 . S
C203 C199 1.415 . S
C203 C201 1.413 . S
C203 C233 1.437 . S
H204 C233 0.929 . S
N205 Gd178 2.570 . S
N205 C206 1.359 . S
N205 C209 1.343 . S
C206 C199 1.422 . S
C206 N205 1.359 . S
C206 C208 1.421 . S
C207 C208 1.422 . S
C207 C210 1.321 . S
C207 H234 0.931 . S
C208 C206 1.421 . S
C208 C207 1.422 . S
C208 C232 1.417 . S
C209 H186 0.931 . S
C209 N205 1.343 . S
C209 C210 1.390 . S
C210 H188 0.930 . S
C210 C207 1.321 . S
C210 C209 1.390 . S
O211 Gd179 2.386 . S
O211 C223 1.265 . S
O212 Gd178 2.353 . S
O212 C223 1.242 . S
O213 Gd178 2.468 . S
O213 C231 1.263 . S
O214 Gd178 2.427 . S
O214 C231 1.252 . S
O215 Gd179 2.307 . S
O215 C224 1.261 . S
O216 Gd178 2.388 . S
O216 C224 1.252 . S
O217 Gd178 2.386 . S
O217 C235 1.265 . S
O218 Gd179 2.353 . S
O218 C235 1.242 . S
O219 Gd179 2.468 . S
O219 C243 1.263 . S
O220 Gd179 2.427 . S
O220 C243 1.252 . S
O221 Gd178 2.307 . S
O221 C236 1.261 . S
O222 Gd179 2.388 . S
O222 C236 1.252 . S
C223 O211 1.265 . S
C223 O212 1.242 . S
C224 O215 1.261 . S
C224 O216 1.252 . S
C225 C228 1.394 . S
C225 C230 1.370 . S
C225 C231 1.500 . S
C226 C229 1.383 . S
C226 C230 1.395 . S
C227 C228 1.396 . S
C227 C229 1.365 . S
C227 H244 0.929 . S
C228 C225 1.394 . S
C228 C227 1.396 . S
C228 H245 0.930 . S
C229 C226 1.383 . S
C229 C227 1.365 . S
C229 H246 0.931 . S
C230 C225 1.370 . S
C230 C226 1.395 . S
C230 H247 0.930 . S
C231 Gd178 2.805 . S
C231 O213 1.263 . S
C231 O214 1.252 . S
C231 C225 1.500 . S
C232 H194 0.930 . S
C232 C208 1.417 . S
C232 C233 1.329 . S
C233 C203 1.437 . S
C233 H204 0.929 . S
C233 C232 1.329 . S
H234 C207 0.931 . S
C235 O217 1.265 . S
C235 O218 1.242 . S
C236 O221 1.261 . S
C236 O222 1.252 . S
C237 C240 1.394 . S
C237 C242 1.370 . S
C237 C243 1.500 . S
C238 C241 1.383 . S
C238 C242 1.395 . S
C239 C240 1.396 . S
C239 C241 1.365 . S
C239 H248 0.929 . S
C240 C237 1.394 . S
C240 C239 1.396 . S
C240 H249 0.930 . S
C241 C238 1.383 . S
C241 C239 1.365 . S
C241 H250 0.931 . S
C242 C237 1.370 . S
C242 C238 1.395 . S
C242 H251 0.930 . S
C243 Gd179 2.805 . S
C243 O219 1.263 . S
C243 O220 1.252 . S
C243 C237 1.500 . S
H244 C227 0.929 . S
H245 C228 0.930 . S
H246 C229 0.931 . S
H247 C230 0.930 . S
H248 C239 0.929 . S
H249 C240 0.930 . S
H250 C241 0.931 . S
H251 C242 0.930 . S
C252 C254 1.422 . S
C252 C256 1.415 . S
C252 N258 1.369 . S
C253 C254 1.421 . S
C253 C255 1.417 . S
C253 C265 1.422 1_565 S
C254 C252 1.422 . S
C254 C253 1.421 . S
C254 N264 1.359 1_565 S
C255 C253 1.417 . S
C255 C257 1.329 . S
C255 H274 0.930 . S
C256 C252 1.415 . S
C256 C257 1.437 . S
C256 C260 1.413 . S
C257 C255 1.329 . S
C257 C256 1.437 . S
C257 H279 0.929 . S
N258 C252 1.369 . S
N258 C259 1.338 . S
N258 Gd263 2.622 1_565 S
C259 N258 1.338 . S
C259 C261 1.378 . S
C259 H271 0.929 . S
C260 C256 1.413 . S
C260 C261 1.348 . S
C260 H276 0.931 . S
C261 C259 1.378 . S
C261 C260 1.348 . S
C261 H277 0.930 . S
Gd262 N282 2.622 . S
Gd262 N289 2.570 . S
Gd262 O296 2.353 . S
Gd262 O297 2.468 . S
Gd262 O298 2.427 . S
Gd262 O300 2.388 . S
Gd262 O301 2.386 . S
Gd262 O305 2.307 . S
Gd262 C315 2.805 . S
Gd263 N258 2.622 1_545 S
Gd263 N264 2.570 . S
Gd263 O295 2.386 . S
Gd263 O299 2.307 . S
Gd263 O302 2.353 . S
Gd263 O303 2.468 . S
Gd263 O304 2.427 . S
Gd263 O306 2.388 1_545 S
Gd263 C327 2.805 . S
N264 C254 1.359 1_545 S
N264 Gd263 2.570 . S
N264 C266 1.343 . S
C265 C253 1.422 1_545 S
C265 C267 1.321 . S
C265 H273 0.931 . S
C266 N264 1.343 . S
C266 C267 1.390 . S
C266 H268 0.931 . S
C267 C265 1.321 . S
C267 C266 1.390 . S
C267 H269 0.930 . S
H268 C266 0.931 . S
H269 C267 0.930 . S
H270 C293 0.931 . S
H271 C259 0.929 . S
H272 C294 0.930 . S
H273 C265 0.931 . S
H274 C255 0.930 . S
H275 C284 0.929 . S
H276 C260 0.931 . S
H277 C261 0.930 . S
H278 C316 0.930 . S
H279 C257 0.929 . S
H280 C285 0.931 . S
H281 C286 0.930 . S
N282 Gd262 2.622 . S
N282 C283 1.369 . S
N282 C284 1.338 . S
C283 N282 1.369 . S
C283 C287 1.415 . S
C283 C290 1.422 . S
C284 H275 0.929 . S
C284 N282 1.338 . S
C284 C286 1.378 . S
C285 H280 0.931 . S
C285 C286 1.348 . S
C285 C287 1.413 . S
C286 H281 0.930 . S
C286 C284 1.378 . S
C286 C285 1.348 . S
C287 C283 1.415 . S
C287 C285 1.413 . S
C287 C317 1.437 . S
H288 C317 0.929 . S
N289 Gd262 2.570 . S
N289 C290 1.359 . S
N289 C293 1.343 . S
C290 C283 1.422 . S
C290 N289 1.359 . S
C290 C292 1.421 . S
C291 C292 1.422 . S
C291 C294 1.321 . S
C291 H318 0.931 . S
C292 C290 1.421 . S
C292 C291 1.422 . S
C292 C316 1.417 . S
C293 H270 0.931 . S
C293 N289 1.343 . S
C293 C294 1.390 . S
C294 H272 0.930 . S
C294 C291 1.321 . S
C294 C293 1.390 . S
O295 Gd263 2.386 . S
O295 C307 1.265 . S
O296 Gd262 2.353 . S
O296 C307 1.242 . S
O297 Gd262 2.468 . S
O297 C315 1.263 . S
O298 Gd262 2.427 . S
O298 C315 1.252 . S
O299 Gd263 2.307 . S
O299 C308 1.261 . S
O300 Gd262 2.388 . S
O300 C308 1.252 . S
O301 Gd262 2.386 . S
O301 C319 1.265 . S
O302 Gd263 2.353 . S
O302 C319 1.242 . S
O303 Gd263 2.468 . S
O303 C327 1.263 . S
O304 Gd263 2.427 . S
O304 C327 1.252 . S
O305 Gd262 2.307 . S
O305 C320 1.261 1_545 S
O306 Gd263 2.388 1_565 S
O306 C320 1.252 . S
C307 O295 1.265 . S
C307 O296 1.242 . S
C308 O299 1.261 . S
C308 O300 1.252 . S
C309 C312 1.394 . S
C309 C314 1.370 . S
C309 C315 1.500 . S
C310 C313 1.387 . S
C310 C314 1.395 . S
C311 C312 1.419 . S
C311 C313 1.365 . S
C311 H328 0.907 1_554 S
C312 C309 1.394 . S
C312 C311 1.419 . S
C312 H329 0.930 . S
C313 C310 1.387 . S
C313 C311 1.365 . S
C313 H330 0.928 1_554 S
C314 C309 1.370 . S
C314 C310 1.395 . S
C314 H331 0.915 1_545 S
C315 Gd262 2.805 . S
C315 O297 1.263 . S
C315 O298 1.252 . S
C315 C309 1.500 . S
C316 H278 0.930 . S
C316 C292 1.417 . S
C316 C317 1.329 . S
C317 C287 1.437 . S
C317 H288 0.929 . S
C317 C316 1.329 . S
H318 C291 0.931 . S
C319 O301 1.265 . S
C319 O302 1.242 . S
C320 O305 1.261 1_565 S
C320 O306 1.252 . S
C321 C324 1.394 . S
C321 C326 1.370 . S
C321 C327 1.500 . S
C322 C325 1.383 . S
C322 C326 1.395 . S
C323 C324 1.396 . S
C323 C325 1.365 . S
C323 H332 0.929 . S
C324 C321 1.394 . S
C324 C323 1.396 . S
C324 H333 0.930 . S
C325 C322 1.383 . S
C325 C323 1.365 . S
C325 H334 0.931 . S
C326 C321 1.370 . S
C326 C322 1.395 . S
C326 H335 0.930 . S
C327 Gd263 2.805 . S
C327 O303 1.263 . S
C327 O304 1.252 . S
C327 C321 1.500 . S
H328 C311 0.907 1_556 S
H329 C312 0.930 . S
H330 C313 0.928 1_556 S
H331 C314 0.915 1_565 S
H332 C323 0.929 . S
H333 C324 0.930 . S
H334 C325 0.931 . S
H335 C326 0.930 . S
C336 C338 1.422 . S
C336 C340 1.415 . S
C336 N342 1.369 . S
C337 C338 1.421 . S
C337 C339 1.417 . S
C337 C349 1.422 . S
C338 C336 1.422 . S
C338 C337 1.421 . S
C338 N348 1.359 . S
C339 C337 1.417 . S
C339 C341 1.329 . S
C339 H358 0.930 . S
C340 C336 1.415 . S
C340 C341 1.437 . S
C340 C344 1.413 . S
C341 C339 1.329 . S
C341 C340 1.437 . S
C341 H363 0.929 . S
N342 C336 1.369 . S
N342 C343 1.338 . S
N342 Gd347 2.622 . S
C343 N342 1.338 . S
C343 C345 1.378 . S
C343 H355 0.929 . S
C344 C340 1.413 . S
C344 C345 1.348 . S
C344 H360 0.931 . S
C345 C343 1.378 . S
C345 C344 1.348 . S
C345 H361 0.930 . S
Gd346 N366 2.622 . S
Gd346 N373 2.570 . S
Gd346 O380 2.353 . S
Gd346 O381 2.468 . S
Gd346 O382 2.427 . S
Gd346 O384 2.388 . S
Gd346 O385 2.386 . S
Gd346 O389 2.307 . S
Gd346 C399 2.805 . S
Gd347 N342 2.622 . S
Gd347 N348 2.570 . S
Gd347 O379 2.386 . S
Gd347 O383 2.307 . S
Gd347 O386 2.353 . S
Gd347 O387 2.468 . S
Gd347 O388 2.427 . S
Gd347 O390 2.388 . S
Gd347 C411 2.805 . S
N348 C338 1.359 . S
N348 Gd347 2.570 . S
N348 C350 1.343 . S
C349 C337 1.422 . S
C349 C351 1.321 . S
C349 H357 0.931 . S
C350 N348 1.343 . S
C350 C351 1.390 . S
C350 H352 0.931 . S
C351 C349 1.321 . S
C351 C350 1.390 . S
C351 H353 0.930 . S
H352 C350 0.931 . S
H353 C351 0.930 . S
H354 C377 0.931 . S
H355 C343 0.929 . S
H356 C378 0.930 . S
H357 C349 0.931 . S
H358 C339 0.930 . S
H359 C368 0.929 . S
H360 C344 0.931 . S
H361 C345 0.930 . S
H362 C400 0.930 . S
H363 C341 0.929 . S
H364 C369 0.931 . S
H365 C370 0.930 . S
N366 Gd346 2.622 . S
N366 C367 1.369 . S
N366 C368 1.338 . S
C367 N366 1.369 . S
C367 C371 1.415 . S
C367 C374 1.422 . S
C368 H359 0.929 . S
C368 N366 1.338 . S
C368 C370 1.378 . S
C369 H364 0.931 . S
C369 C370 1.348 . S
C369 C371 1.413 . S
C370 H365 0.930 . S
C370 C368 1.378 . S
C370 C369 1.348 . S
C371 C367 1.415 . S
C371 C369 1.413 . S
C371 C401 1.437 . S
H372 C401 0.929 . S
N373 Gd346 2.570 . S
N373 C374 1.359 . S
N373 C377 1.343 . S
C374 C367 1.422 . S
C374 N373 1.359 . S
C374 C376 1.421 . S
C375 C376 1.422 . S
C375 C378 1.321 . S
C375 H402 0.931 . S
C376 C374 1.421 . S
C376 C375 1.422 . S
C376 C400 1.417 . S
C377 H354 0.931 . S
C377 N373 1.343 . S
C377 C378 1.390 . S
C378 H356 0.930 . S
C378 C375 1.321 . S
C378 C377 1.390 . S
O379 Gd347 2.386 . S
O379 C391 1.265 . S
O380 Gd346 2.353 . S
O380 C391 1.242 . S
O381 Gd346 2.468 . S
O381 C399 1.263 . S
O382 Gd346 2.427 . S
O382 C399 1.252 . S
O383 Gd347 2.307 . S
O383 C392 1.261 . S
O384 Gd346 2.388 . S
O384 C392 1.252 . S
O385 Gd346 2.386 . S
O385 C403 1.265 . S
O386 Gd347 2.353 . S
O386 C403 1.242 . S
O387 Gd347 2.468 . S
O387 C411 1.263 . S
O388 Gd347 2.427 . S
O388 C411 1.252 . S
O389 Gd346 2.307 . S
O389 C404 1.261 . S
O390 Gd347 2.388 . S
O390 C404 1.252 . S
C391 O379 1.265 . S
C391 O380 1.242 . S
C392 O383 1.261 . S
C392 O384 1.252 . S
C393 C396 1.394 . S
C393 C398 1.370 . S
C393 C399 1.500 . S
C394 C397 1.383 . S
C394 C398 1.395 . S
C395 C396 1.396 . S
C395 C397 1.365 . S
C395 H412 0.929 . S
C396 C393 1.394 . S
C396 C395 1.396 . S
C396 H413 0.930 . S
C397 C394 1.383 . S
C397 C395 1.365 . S
C397 H414 0.931 . S
C398 C393 1.370 . S
C398 C394 1.395 . S
C398 H415 0.930 . S
C399 Gd346 2.805 . S
C399 O381 1.263 . S
C399 O382 1.252 . S
C399 C393 1.500 . S
C400 H362 0.930 . S
C400 C376 1.417 . S
C400 C401 1.329 . S
C401 C371 1.437 . S
C401 H372 0.929 . S
C401 C400 1.329 . S
H402 C375 0.931 . S
C403 O385 1.265 . S
C403 O386 1.242 . S
C404 O389 1.261 . S
C404 O390 1.252 . S
C405 C408 1.394 . S
C405 C410 1.370 . S
C405 C411 1.500 . S
C406 C409 1.383 . S
C406 C410 1.395 . S
C407 C408 1.396 . S
C407 C409 1.365 . S
C407 H416 0.929 . S
C408 C405 1.394 . S
C408 C407 1.396 . S
C408 H417 0.930 . S
C409 C406 1.383 . S
C409 C407 1.365 . S
C409 H418 0.931 . S
C410 C405 1.370 . S
C410 C406 1.395 . S
C410 H419 0.930 . S
C411 Gd347 2.805 . S
C411 O387 1.263 . S
C411 O388 1.252 . S
C411 C405 1.500 . S
H412 C395 0.929 . S
H413 C396 0.930 . S
H414 C397 0.931 . S
H415 C398 0.930 . S
H416 C407 0.929 . S
H417 C408 0.930 . S
H418 C409 0.931 . S
H419 C410 0.930 . S
C420 C422 1.422 . S
C420 C424 1.415 . S
C420 N426 1.369 . S
C421 C422 1.421 . S
C421 C423 1.417 . S
C421 C433 1.422 1_545 S
C422 C420 1.422 . S
C422 C421 1.421 . S
C422 N432 1.359 1_545 S
C423 C421 1.417 . S
C423 C425 1.329 . S
C423 H442 0.930 . S
C424 C420 1.415 . S
C424 C425 1.437 . S
C424 C428 1.413 . S
C425 C423 1.329 . S
C425 C424 1.437 . S
C425 H447 0.929 . S
N426 C420 1.369 . S
N426 C427 1.338 . S
N426 Gd431 2.622 1_545 S
C427 N426 1.338 . S
C427 C429 1.378 . S
C427 H439 0.929 . S
C428 C424 1.413 . S
C428 C429 1.348 . S
C428 H444 0.931 . S
C429 C427 1.378 . S
C429 C428 1.348 . S
C429 H445 0.930 . S
Gd430 N450 2.622 . S
Gd430 N457 2.570 . S
Gd430 O464 2.353 . S
Gd430 O465 2.468 . S
Gd430 O466 2.427 . S
Gd430 O468 2.388 . S
Gd430 O469 2.386 . S
Gd430 O473 2.307 . S
Gd430 C483 2.805 . S
Gd431 N426 2.622 1_565 S
Gd431 N432 2.570 . S
Gd431 O463 2.386 . S
Gd431 O467 2.307 . S
Gd431 O470 2.353 . S
Gd431 O471 2.468 . S
Gd431 O472 2.427 . S
Gd431 O474 2.388 1_565 S
Gd431 C495 2.805 . S
N432 C422 1.359 1_565 S
N432 Gd431 2.570 . S
N432 C434 1.343 . S
C433 C421 1.422 1_565 S
C433 C435 1.321 . S
C433 H441 0.931 . S
C434 N432 1.343 . S
C434 C435 1.390 . S
C434 H436 0.931 . S
C435 C433 1.321 . S
C435 C434 1.390 . S
C435 H437 0.930 . S
H436 C434 0.931 . S
H437 C435 0.930 . S
H438 C461 0.931 . S
H439 C427 0.929 . S
H440 C462 0.930 . S
H441 C433 0.931 . S
H442 C423 0.930 . S
H443 C452 0.929 . S
H444 C428 0.931 . S
H445 C429 0.930 . S
H446 C484 0.930 . S
H447 C425 0.929 . S
H448 C453 0.931 . S
H449 C454 0.930 . S
N450 Gd430 2.622 . S
N450 C451 1.369 . S
N450 C452 1.338 . S
C451 N450 1.369 . S
C451 C455 1.415 . S
C451 C458 1.422 . S
C452 H443 0.929 . S
C452 N450 1.338 . S
C452 C454 1.378 . S
C453 H448 0.931 . S
C453 C454 1.348 . S
C453 C455 1.413 . S
C454 H449 0.930 . S
C454 C452 1.378 . S
C454 C453 1.348 . S
C455 C451 1.415 . S
C455 C453 1.413 . S
C455 C485 1.437 . S
H456 C485 0.929 . S
N457 Gd430 2.570 . S
N457 C458 1.359 . S
N457 C461 1.343 . S
C458 C451 1.422 . S
C458 N457 1.359 . S
C458 C460 1.421 . S
C459 C460 1.422 . S
C459 C462 1.321 . S
C459 H486 0.931 . S
C460 C458 1.421 . S
C460 C459 1.422 . S
C460 C484 1.417 . S
C461 H438 0.931 . S
C461 N457 1.343 . S
C461 C462 1.390 . S
C462 H440 0.930 . S
C462 C459 1.321 . S
C462 C461 1.390 . S
O463 Gd431 2.386 . S
O463 C475 1.265 . S
O464 Gd430 2.353 . S
O464 C475 1.242 . S
O465 Gd430 2.468 . S
O465 C483 1.263 . S
O466 Gd430 2.427 . S
O466 C483 1.252 . S
O467 Gd431 2.307 . S
O467 C476 1.261 . S
O468 Gd430 2.388 . S
O468 C476 1.252 . S
O469 Gd430 2.386 . S
O469 C487 1.265 . S
O470 Gd431 2.353 . S
O470 C487 1.242 . S
O471 Gd431 2.468 . S
O471 C495 1.263 . S
O472 Gd431 2.427 . S
O472 C495 1.252 . S
O473 Gd430 2.307 . S
O473 C488 1.261 1_565 S
O474 Gd431 2.388 1_545 S
O474 C488 1.252 . S
C475 O463 1.265 . S
C475 O464 1.242 . S
C476 O467 1.261 . S
C476 O468 1.252 . S
C477 C480 1.394 . S
C477 C482 1.370 . S
C477 C483 1.500 . S
C478 C481 1.383 . S
C478 C482 1.395 . S
C479 C480 1.396 . S
C479 C481 1.365 . S
C479 H496 0.929 . S
C480 C477 1.394 . S
C480 C479 1.396 . S
C480 H497 0.930 . S
C481 C478 1.383 . S
C481 C479 1.365 . S
C481 H498 0.931 . S
C482 C477 1.370 . S
C482 C478 1.395 . S
C482 H499 0.915 1_565 S
C483 Gd430 2.805 . S
C483 O465 1.263 . S
C483 O466 1.252 . S
C483 C477 1.500 . S
C484 H446 0.930 . S
C484 C460 1.417 . S
C484 C485 1.329 . S
C485 C455 1.437 . S
C485 H456 0.929 . S
C485 C484 1.329 . S
H486 C459 0.931 . S
C487 O469 1.265 . S
C487 O470 1.242 . S
C488 O473 1.261 1_545 S
C488 O474 1.252 . S
C489 C492 1.394 . S
C489 C494 1.370 . S
C489 C495 1.500 . S
C490 C493 1.383 . S
C490 C494 1.395 . S
C491 C492 1.396 . S
C491 C493 1.365 . S
C491 H500 0.929 . S
C492 C489 1.394 . S
C492 C491 1.396 . S
C492 H501 0.930 . S
C493 C490 1.383 . S
C493 C491 1.365 . S
C493 H502 0.931 . S
C494 C489 1.370 . S
C494 C490 1.395 . S
C494 H503 0.930 . S
C495 Gd431 2.805 . S
C495 O471 1.263 . S
C495 O472 1.252 . S
C495 C489 1.500 . S
H496 C479 0.929 . S
H497 C480 0.930 . S
H498 C481 0.931 . S
H499 C482 0.915 1_545 S
H500 C491 0.929 . S
H501 C492 0.930 . S
H502 C493 0.931 . S
H503 C494 0.930 . S
C504 C506 1.422 . S
C504 C508 1.415 . S
C504 N510 1.369 . S
C505 C506 1.421 . S
C505 C507 1.417 . S
C505 C517 1.422 . S
C506 C504 1.422 . S
C506 C505 1.421 . S
C506 N516 1.359 . S
C507 C505 1.417 . S
C507 C509 1.329 . S
C507 H526 0.930 . S
C508 C504 1.415 . S
C508 C509 1.437 . S
C508 C512 1.413 . S
C509 C507 1.329 . S
C509 C508 1.437 . S
C509 H531 0.929 . S
N510 C504 1.369 . S
N510 C511 1.338 . S
N510 Gd515 2.622 . S
C511 N510 1.338 . S
C511 C513 1.378 . S
C511 H523 0.929 . S
C512 C508 1.413 . S
C512 C513 1.348 . S
C512 H528 0.931 . S
C513 C511 1.378 . S
C513 C512 1.348 . S
C513 H529 0.930 . S
Gd514 N534 2.622 . S
Gd514 N541 2.570 . S
Gd514 O548 2.353 . S
Gd514 O549 2.468 . S
Gd514 O550 2.427 . S
Gd514 O552 2.388 . S
Gd514 O553 2.386 . S
Gd514 O557 2.307 . S
Gd514 C567 2.805 . S
Gd515 N510 2.622 . S
Gd515 N516 2.570 . S
Gd515 O547 2.386 . S
Gd515 O551 2.307 . S
Gd515 O554 2.353 . S
Gd515 O555 2.468 . S
Gd515 O556 2.427 . S
Gd515 O558 2.388 . S
Gd515 C579 2.805 . S
N516 C506 1.359 . S
N516 Gd515 2.570 . S
N516 C518 1.343 . S
C517 C505 1.422 . S
C517 C519 1.321 . S
C517 H525 0.931 . S
C518 N516 1.343 . S
C518 C519 1.390 . S
C518 H520 0.931 . S
C519 C517 1.321 . S
C519 C518 1.390 . S
C519 H521 0.930 . S
H520 C518 0.931 . S
H521 C519 0.930 . S
H522 C545 0.931 . S
H523 C511 0.929 . S
H524 C546 0.930 . S
H525 C517 0.931 . S
H526 C507 0.930 . S
H527 C536 0.929 . S
H528 C512 0.931 . S
H529 C513 0.930 . S
H530 C568 0.930 . S
H531 C509 0.929 . S
H532 C537 0.931 . S
H533 C538 0.930 . S
N534 Gd514 2.622 . S
N534 C535 1.369 . S
N534 C536 1.338 . S
C535 N534 1.369 . S
C535 C539 1.415 . S
C535 C542 1.422 . S
C536 H527 0.929 . S
C536 N534 1.338 . S
C536 C538 1.378 . S
C537 H532 0.931 . S
C537 C538 1.348 . S
C537 C539 1.413 . S
C538 H533 0.930 . S
C538 C536 1.378 . S
C538 C537 1.348 . S
C539 C535 1.415 . S
C539 C537 1.413 . S
C539 C569 1.437 . S
H540 C569 0.929 . S
N541 Gd514 2.570 . S
N541 C542 1.359 . S
N541 C545 1.343 . S
C542 C535 1.422 . S
C542 N541 1.359 . S
C542 C544 1.421 . S
C543 C544 1.422 . S
C543 C546 1.321 . S
C543 H570 0.931 . S
C544 C542 1.421 . S
C544 C543 1.422 . S
C544 C568 1.417 . S
C545 H522 0.931 . S
C545 N541 1.343 . S
C545 C546 1.390 . S
C546 H524 0.930 . S
C546 C543 1.321 . S
C546 C545 1.390 . S
O547 Gd515 2.386 . S
O547 C559 1.265 . S
O548 Gd514 2.353 . S
O548 C559 1.242 . S
O549 Gd514 2.468 . S
O549 C567 1.263 . S
O550 Gd514 2.427 . S
O550 C567 1.252 . S
O551 Gd515 2.307 . S
O551 C560 1.261 . S
O552 Gd514 2.388 . S
O552 C560 1.252 . S
O553 Gd514 2.386 . S
O553 C571 1.265 . S
O554 Gd515 2.353 . S
O554 C571 1.242 . S
O555 Gd515 2.468 . S
O555 C579 1.263 . S
O556 Gd515 2.427 . S
O556 C579 1.252 . S
O557 Gd514 2.307 . S
O557 C572 1.261 . S
O558 Gd515 2.388 . S
O558 C572 1.252 . S
C559 O547 1.265 . S
C559 O548 1.242 . S
C560 O551 1.261 . S
C560 O552 1.252 . S
C561 C564 1.394 . S
C561 C566 1.370 . S
C561 C567 1.500 . S
C562 C565 1.383 . S
C562 C566 1.395 . S
C563 C564 1.396 . S
C563 C565 1.365 . S
C563 H580 0.929 . S
C564 C561 1.394 . S
C564 C563 1.396 . S
C564 H581 0.930 . S
C565 C562 1.383 . S
C565 C563 1.365 . S
C565 H582 0.931 . S
C566 C561 1.370 . S
C566 C562 1.395 . S
C566 H583 0.930 . S
C567 Gd514 2.805 . S
C567 O549 1.263 . S
C567 O550 1.252 . S
C567 C561 1.500 . S
C568 H530 0.930 . S
C568 C544 1.417 . S
C568 C569 1.329 . S
C569 C539 1.437 . S
C569 H540 0.929 . S
C569 C568 1.329 . S
H570 C543 0.931 . S
C571 O553 1.265 . S
C571 O554 1.242 . S
C572 O557 1.261 . S
C572 O558 1.252 . S
C573 C576 1.394 . S
C573 C578 1.370 . S
C573 C579 1.500 . S
C574 C577 1.383 . S
C574 C578 1.395 . S
C575 C576 1.396 . S
C575 C577 1.365 . S
C575 H584 0.929 . S
C576 C573 1.394 . S
C576 C575 1.396 . S
C576 H585 0.930 . S
C577 C574 1.383 . S
C577 C575 1.365 . S
C577 H586 0.931 . S
C578 C573 1.370 . S
C578 C574 1.395 . S
C578 H587 0.930 . S
C579 Gd515 2.805 . S
C579 O555 1.263 . S
C579 O556 1.252 . S
C579 C573 1.500 . S
H580 C563 0.929 . S
H581 C564 0.930 . S
H582 C565 0.931 . S
H583 C566 0.930 . S
H584 C575 0.929 . S
H585 C576 0.930 . S
H586 C577 0.931 . S
H587 C578 0.930 . S
C588 C590 1.422 . S
C588 C592 1.415 . S
C588 N594 1.369 . S
C589 C590 1.421 . S
C589 C591 1.417 . S
C589 C601 1.422 1_565 S
C590 C588 1.422 . S
C590 C589 1.421 . S
C590 N600 1.359 1_565 S
C591 C589 1.417 . S
C591 C593 1.329 . S
C591 H610 0.930 . S
C592 C588 1.415 . S
C592 C593 1.437 . S
C592 C596 1.413 . S
C593 C591 1.329 . S
C593 C592 1.437 . S
C593 H615 0.929 . S
N594 C588 1.369 . S
N594 C595 1.338 . S
N594 Gd599 2.622 1_565 S
C595 N594 1.338 . S
C595 C597 1.378 . S
C595 H607 0.929 1_655 S
C596 C592 1.413 . S
C596 C597 1.348 . S
C596 H612 0.931 . S
C597 C595 1.378 . S
C597 C596 1.348 . S
C597 H613 0.930 . S
Gd598 N618 2.622 . S
Gd598 N625 2.570 . S
Gd598 O632 2.353 . S
Gd598 O633 2.468 . S
Gd598 O634 2.427 . S
Gd598 O636 2.388 . S
Gd598 O637 2.386 . S
Gd598 O641 2.307 . S
Gd598 C651 2.805 . S
Gd599 N594 2.622 1_545 S
Gd599 N600 2.570 . S
Gd599 O631 2.386 1_655 S
Gd599 O635 2.307 . S
Gd599 O638 2.353 1_655 S
Gd599 O639 2.468 . S
Gd599 O640 2.427 . S
Gd599 O642 2.388 1_645 S
Gd599 C663 2.805 . S
N600 C590 1.359 1_545 S
N600 Gd599 2.570 . S
N600 C602 1.343 . S
C601 C589 1.422 1_545 S
C601 C603 1.321 . S
C601 H609 0.931 . S
C602 N600 1.343 . S
C602 C603 1.390 . S
C602 H604 0.931 . S
C603 C601 1.321 . S
C603 C602 1.390 . S
C603 H605 0.930 . S
H604 C602 0.931 . S
H605 C603 0.930 . S
H606 C629 0.931 . S
H607 C595 0.929 1_455 S
H608 C630 0.930 . S
H609 C601 0.931 . S
H610 C591 0.930 . S
H611 C620 0.929 . S
H612 C596 0.931 . S
H613 C597 0.930 . S
H614 C652 0.930 . S
H615 C593 0.929 . S
H616 C621 0.931 . S
H617 C622 0.930 . S
N618 Gd598 2.622 . S
N618 C619 1.369 . S
N618 C620 1.338 . S
C619 N618 1.369 . S
C619 C623 1.415 . S
C619 C626 1.422 . S
C620 H611 0.929 . S
C620 N618 1.338 . S
C620 C622 1.378 . S
C621 H616 0.931 . S
C621 C622 1.348 . S
C621 C623 1.413 . S
C622 H617 0.930 . S
C622 C620 1.378 . S
C622 C621 1.348 . S
C623 C619 1.415 . S
C623 C621 1.413 . S
C623 C653 1.437 . S
H624 C653 0.929 . S
N625 Gd598 2.570 . S
N625 C626 1.359 . S
N625 C629 1.343 . S
C626 C619 1.422 . S
C626 N625 1.359 . S
C626 C628 1.421 . S
C627 C628 1.422 . S
C627 C630 1.321 . S
C627 H654 0.931 . S
C628 C626 1.421 . S
C628 C627 1.422 . S
C628 C652 1.417 . S
C629 H606 0.931 . S
C629 N625 1.343 . S
C629 C630 1.390 . S
C630 H608 0.930 . S
C630 C627 1.321 . S
C630 C629 1.390 . S
O631 Gd599 2.386 1_455 S
O631 C643 1.265 . S
O632 Gd598 2.353 . S
O632 C643 1.242 . S
O633 Gd598 2.468 . S
O633 C651 1.263 . S
O634 Gd598 2.427 . S
O634 C651 1.252 . S
O635 Gd599 2.307 . S
O635 C644 1.261 1_655 S
O636 Gd598 2.388 . S
O636 C644 1.252 . S
O637 Gd598 2.386 . S
O637 C655 1.265 . S
O638 Gd599 2.353 1_455 S
O638 C655 1.242 . S
O639 Gd599 2.468 . S
O639 C663 1.263 . S
O640 Gd599 2.427 . S
O640 C663 1.252 . S
O641 Gd598 2.307 . S
O641 C656 1.261 1_545 S
O642 Gd599 2.388 1_465 S
O642 C656 1.252 . S
C643 O631 1.265 . S
C643 O632 1.242 . S
C644 O635 1.261 1_455 S
C644 O636 1.252 . S
C645 C648 1.394 . S
C645 C650 1.370 . S
C645 C651 1.500 . S
C646 C649 1.387 . S
C646 C650 1.395 . S
C647 C648 1.419 . S
C647 C649 1.365 . S
C647 H664 0.907 1_556 S
C648 C645 1.394 . S
C648 C647 1.419 . S
C648 H665 0.930 . S
C649 C646 1.387 . S
C649 C647 1.365 . S
C649 H666 0.928 1_556 S
C650 C645 1.370 . S
C650 C646 1.395 . S
C650 H667 0.915 1_545 S
C651 Gd598 2.805 . S
C651 O633 1.263 . S
C651 O634 1.252 . S
C651 C645 1.500 . S
C652 H614 0.930 . S
C652 C628 1.417 . S
C652 C653 1.329 . S
C653 C623 1.437 . S
C653 H624 0.929 . S
C653 C652 1.329 . S
H654 C627 0.931 . S
C655 O637 1.265 . S
C655 O638 1.242 . S
C656 O641 1.261 1_565 S
C656 O642 1.252 . S
C657 C660 1.394 . S
C657 C662 1.370 . S
C657 C663 1.500 . S
C658 C661 1.383 . S
C658 C662 1.395 . S
C659 C660 1.396 . S
C659 C661 1.365 . S
C659 H668 0.929 . S
C660 C657 1.394 . S
C660 C659 1.396 . S
C660 H669 0.930 . S
C661 C658 1.383 . S
C661 C659 1.365 . S
C661 H670 0.931 . S
C662 C657 1.370 . S
C662 C658 1.395 . S
C662 H671 0.930 . S
C663 Gd599 2.805 . S
C663 O639 1.263 . S
C663 O640 1.252 . S
C663 C657 1.500 . S
H664 C647 0.907 1_554 S
H665 C648 0.930 . S
H666 C649 0.928 1_554 S
H667 C650 0.915 1_565 S
H668 C659 0.929 . S
H669 C660 0.930 . S
H670 C661 0.931 . S
H671 C662 0.930 . S
C672 C674 1.422 . S
C672 C676 1.415 . S
C672 N678 1.369 . S
C673 C674 1.421 . S
C673 C675 1.417 . S
C673 C685 1.422 . S
C674 C672 1.422 . S
C674 C673 1.421 . S
C674 N684 1.359 . S
C675 C673 1.417 . S
C675 C677 1.329 . S
C675 H694 0.930 . S
C676 C672 1.415 . S
C676 C677 1.437 . S
C676 C680 1.413 . S
C677 C675 1.329 . S
C677 C676 1.437 . S
C677 H699 0.929 . S
N678 C672 1.369 . S
N678 C679 1.338 . S
N678 Gd683 2.622 . S
C679 N678 1.338 . S
C679 C681 1.378 . S
C679 H691 0.929 . S
C680 C676 1.413 . S
C680 C681 1.348 . S
C680 H696 0.931 . S
C681 C679 1.378 . S
C681 C680 1.348 . S
C681 H697 0.930 . S
Gd682 N702 2.622 . S
Gd682 N709 2.570 . S
Gd682 O716 2.353 . S
Gd682 O717 2.468 . S
Gd682 O718 2.427 . S
Gd682 O720 2.388 . S
Gd682 O721 2.386 . S
Gd682 O725 2.307 . S
Gd682 C735 2.805 . S
Gd683 N678 2.622 . S
Gd683 N684 2.570 . S
Gd683 O715 2.386 . S
Gd683 O719 2.307 . S
Gd683 O722 2.353 . S
Gd683 O723 2.468 . S
Gd683 O724 2.427 . S
Gd683 O726 2.388 . S
Gd683 C747 2.805 . S
N684 C674 1.359 . S
N684 Gd683 2.570 . S
N684 C686 1.343 . S
C685 C673 1.422 . S
C685 C687 1.321 . S
C685 H693 0.931 . S
C686 N684 1.343 . S
C686 C687 1.390 . S
C686 H688 0.931 . S
C687 C685 1.321 . S
C687 C686 1.390 . S
C687 H689 0.930 . S
H688 C686 0.931 . S
H689 C687 0.930 . S
H690 C713 0.931 . S
H691 C679 0.929 . S
H692 C714 0.930 . S
H693 C685 0.931 . S
H694 C675 0.930 . S
H695 C704 0.929 . S
H696 C680 0.931 . S
H697 C681 0.930 . S
H698 C736 0.930 . S
H699 C677 0.929 . S
H700 C705 0.931 . S
H701 C706 0.930 . S
N702 Gd682 2.622 . S
N702 C703 1.369 . S
N702 C704 1.338 . S
C703 N702 1.369 . S
C703 C707 1.415 . S
C703 C710 1.422 . S
C704 H695 0.929 . S
C704 N702 1.338 . S
C704 C706 1.378 . S
C705 H700 0.931 . S
C705 C706 1.348 . S
C705 C707 1.413 . S
C706 H701 0.930 . S
C706 C704 1.378 . S
C706 C705 1.348 . S
C707 C703 1.415 . S
C707 C705 1.413 . S
C707 C737 1.437 . S
H708 C737 0.929 . S
N709 Gd682 2.570 . S
N709 C710 1.359 . S
N709 C713 1.343 . S
C710 C703 1.422 . S
C710 N709 1.359 . S
C710 C712 1.421 . S
C711 C712 1.422 . S
C711 C714 1.321 . S
C711 H738 0.931 . S
C712 C710 1.421 . S
C712 C711 1.422 . S
C712 C736 1.417 . S
C713 H690 0.931 . S
C713 N709 1.343 . S
C713 C714 1.390 . S
C714 H692 0.930 . S
C714 C711 1.321 . S
C714 C713 1.390 . S
O715 Gd683 2.386 . S
O715 C727 1.265 . S
O716 Gd682 2.353 . S
O716 C727 1.242 . S
O717 Gd682 2.468 . S
O717 C735 1.263 . S
O718 Gd682 2.427 . S
O718 C735 1.252 . S
O719 Gd683 2.307 . S
O719 C728 1.261 . S
O720 Gd682 2.388 . S
O720 C728 1.252 . S
O721 Gd682 2.386 . S
O721 C739 1.265 . S
O722 Gd683 2.353 . S
O722 C739 1.242 . S
O723 Gd683 2.468 . S
O723 C747 1.263 . S
O724 Gd683 2.427 . S
O724 C747 1.252 . S
O725 Gd682 2.307 . S
O725 C740 1.261 . S
O726 Gd683 2.388 . S
O726 C740 1.252 . S
C727 O715 1.265 . S
C727 O716 1.242 . S
C728 O719 1.261 . S
C728 O720 1.252 . S
C729 C732 1.394 . S
C729 C734 1.370 . S
C729 C735 1.500 . S
C730 C733 1.383 . S
C730 C734 1.395 . S
C731 C732 1.396 . S
C731 C733 1.365 . S
C731 H748 0.929 . S
C732 C729 1.394 . S
C732 C731 1.396 . S
C732 H749 0.930 . S
C733 C730 1.383 . S
C733 C731 1.365 . S
C733 H750 0.931 . S
C734 C729 1.370 . S
C734 C730 1.395 . S
C734 H751 0.930 . S
C735 Gd682 2.805 . S
C735 O717 1.263 . S
C735 O718 1.252 . S
C735 C729 1.500 . S
C736 H698 0.930 . S
C736 C712 1.417 . S
C736 C737 1.329 . S
C737 C707 1.437 . S
C737 H708 0.929 . S
C737 C736 1.329 . S
H738 C711 0.931 . S
C739 O721 1.265 . S
C739 O722 1.242 . S
C740 O725 1.261 . S
C740 O726 1.252 . S
C741 C744 1.394 . S
C741 C746 1.370 . S
C741 C747 1.500 . S
C742 C745 1.383 . S
C742 C746 1.395 . S
C743 C744 1.396 . S
C743 C745 1.365 . S
C743 H752 0.929 . S
C744 C741 1.394 . S
C744 C743 1.396 . S
C744 H753 0.930 . S
C745 C742 1.383 . S
C745 C743 1.365 . S
C745 H754 0.931 . S
C746 C741 1.370 . S
C746 C742 1.395 . S
C746 H755 0.930 . S
C747 Gd683 2.805 . S
C747 O723 1.263 . S
C747 O724 1.252 . S
C747 C741 1.500 . S
H748 C731 0.929 . S
H749 C732 0.930 . S
H750 C733 0.931 . S
H751 C734 0.930 . S
H752 C743 0.929 . S
H753 C744 0.930 . S
H754 C745 0.931 . S
H755 C746 0.930 . S
C756 C758 1.422 . S
C756 C760 1.415 . S
C756 N762 1.369 . S
C757 C758 1.421 . S
C757 C759 1.417 . S
C757 C769 1.422 . S
C758 C756 1.422 . S
C758 C757 1.421 . S
C758 N768 1.359 . S
C759 C757 1.417 . S
C759 C761 1.329 . S
C759 H778 0.930 . S
C760 C756 1.415 . S
C760 C761 1.437 . S
C760 C764 1.413 . S
C761 C759 1.329 . S
C761 C760 1.437 . S
C761 H783 0.929 . S
N762 C756 1.369 . S
N762 C763 1.338 . S
N762 Gd767 2.622 . S
C763 N762 1.338 . S
C763 C765 1.378 . S
C763 H775 0.929 . S
C764 C760 1.413 . S
C764 C765 1.348 . S
C764 H780 0.931 . S
C765 C763 1.378 . S
C765 C764 1.348 . S
C765 H781 0.930 . S
Gd766 N786 2.622 1_545 S
Gd766 N793 2.570 . S
Gd766 O800 2.353 1_455 S
Gd766 O801 2.468 . S
Gd766 O802 2.427 . S
Gd766 O804 2.388 1_445 S
Gd766 O805 2.386 1_455 S
Gd766 O809 2.307 . S
Gd766 C819 2.805 . S
Gd767 N762 2.622 . S
Gd767 N768 2.570 . S
Gd767 O799 2.386 . S
Gd767 O803 2.307 . S
Gd767 O806 2.353 . S
Gd767 O807 2.468 . S
Gd767 O808 2.427 . S
Gd767 O810 2.388 . S
Gd767 C831 2.805 . S
N768 C758 1.359 . S
N768 Gd767 2.570 . S
N768 C770 1.343 . S
C769 C757 1.422 . S
C769 C771 1.321 . S
C769 H777 0.931 . S
C770 N768 1.343 . S
C770 C771 1.390 . S
C770 H772 0.931 . S
C771 C769 1.321 . S
C771 C770 1.390 . S
C771 H773 0.930 . S
H772 C770 0.931 . S
H773 C771 0.930 . S
H774 C797 0.931 . S
H775 C763 0.929 . S
H776 C798 0.930 . S
H777 C769 0.931 . S
H778 C759 0.930 . S
H779 C788 0.929 1_655 S
H780 C764 0.931 . S
H781 C765 0.930 . S
H782 C820 0.930 . S
H783 C761 0.929 . S
H784 C789 0.931 . S
H785 C790 0.930 . S
N786 Gd766 2.622 1_565 S
N786 C787 1.369 . S
N786 C788 1.338 . S
C787 N786 1.369 . S
C787 C791 1.415 . S
C787 C794 1.422 . S
C788 H779 0.929 1_455 S
C788 N786 1.338 . S
C788 C790 1.378 . S
C789 H784 0.931 . S
C789 C790 1.348 . S
C789 C791 1.413 . S
C790 H785 0.930 . S
C790 C788 1.378 . S
C790 C789 1.348 . S
C791 C787 1.415 . S
C791 C789 1.413 . S
C791 C821 1.437 . S
H792 C821 0.929 . S
N793 Gd766 2.570 . S
N793 C794 1.359 1_545 S
N793 C797 1.343 . S
C794 C787 1.422 . S
C794 N793 1.359 1_565 S
C794 C796 1.421 . S
C795 C796 1.422 1_545 S
C795 C798 1.321 . S
C795 H822 0.931 . S
C796 C794 1.421 . S
C796 C795 1.422 1_565 S
C796 C820 1.417 . S
C797 H774 0.931 . S
C797 N793 1.343 . S
C797 C798 1.390 . S
C798 H776 0.930 . S
C798 C795 1.321 . S
C798 C797 1.390 . S
O799 Gd767 2.386 . S
O799 C811 1.265 . S
O800 Gd766 2.353 1_655 S
O800 C811 1.242 . S
O801 Gd766 2.468 . S
O801 C819 1.263 . S
O802 Gd766 2.427 . S
O802 C819 1.252 . S
O803 Gd767 2.307 . S
O803 C812 1.261 1_545 S
O804 Gd766 2.388 1_665 S
O804 C812 1.252 . S
O805 Gd766 2.386 1_655 S
O805 C823 1.265 . S
O806 Gd767 2.353 . S
O806 C823 1.242 . S
O807 Gd767 2.468 . S
O807 C831 1.263 . S
O808 Gd767 2.427 . S
O808 C831 1.252 . S
O809 Gd766 2.307 . S
O809 C824 1.261 1_455 S
O810 Gd767 2.388 . S
O810 C824 1.252 . S
C811 O799 1.265 . S
C811 O800 1.242 . S
C812 O803 1.261 1_565 S
C812 O804 1.252 . S
C813 C816 1.394 . S
C813 C818 1.370 . S
C813 C819 1.500 . S
C814 C817 1.383 . S
C814 C818 1.395 . S
C815 C816 1.396 . S
C815 C817 1.365 . S
C815 H832 0.929 . S
C816 C813 1.394 . S
C816 C815 1.396 . S
C816 H833 0.930 . S
C817 C814 1.383 . S
C817 C815 1.365 . S
C817 H834 0.931 . S
C818 C813 1.370 . S
C818 C814 1.395 . S
C818 H835 0.930 . S
C819 Gd766 2.805 . S
C819 O801 1.263 . S
C819 O802 1.252 . S
C819 C813 1.500 . S
C820 H782 0.930 . S
C820 C796 1.417 . S
C820 C821 1.329 . S
C821 C791 1.437 . S
C821 H792 0.929 . S
C821 C820 1.329 . S
H822 C795 0.931 . S
C823 O805 1.265 . S
C823 O806 1.242 . S
C824 O809 1.261 1_655 S
C824 O810 1.252 . S
C825 C828 1.394 . S
C825 C830 1.370 . S
C825 C831 1.500 . S
C826 C829 1.383 . S
C826 C830 1.395 . S
C827 C828 1.396 . S
C827 C829 1.365 . S
C827 H836 0.929 . S
C828 C825 1.394 . S
C828 C827 1.396 . S
C828 H837 0.930 . S
C829 C826 1.383 . S
C829 C827 1.365 . S
C829 H838 0.931 . S
C830 C825 1.370 . S
C830 C826 1.395 . S
C830 H839 0.915 1_545 S
C831 Gd767 2.805 . S
C831 O807 1.263 . S
C831 O808 1.252 . S
C831 C825 1.500 . S
H832 C815 0.929 . S
H833 C816 0.930 . S
H834 C817 0.931 . S
H835 C818 0.930 . S
H836 C827 0.929 . S
H837 C828 0.930 . S
H838 C829 0.931 . S
H839 C830 0.915 1_565 S
C840 C842 1.422 . S
C840 C844 1.415 . S
C840 N846 1.369 . S
C841 C842 1.421 . S
C841 C843 1.417 . S
C841 C853 1.422 . S
C842 C840 1.422 . S
C842 C841 1.421 . S
C842 N852 1.359 . S
C843 C841 1.417 . S
C843 C845 1.329 . S
C843 H862 0.930 . S
C844 C840 1.415 . S
C844 C845 1.437 . S
C844 C848 1.413 . S
C845 C843 1.329 . S
C845 C844 1.437 . S
C845 H867 0.929 . S
N846 C840 1.369 . S
N846 C847 1.338 . S
N846 Gd851 2.622 . S
C847 N846 1.338 . S
C847 C849 1.378 . S
C847 H859 0.929 . S
C848 C844 1.413 . S
C848 C849 1.348 . S
C848 H864 0.931 . S
C849 C847 1.378 . S
C849 C848 1.348 . S
C849 H865 0.930 . S
Gd850 N870 2.622 . S
Gd850 N877 2.570 . S
Gd850 O884 2.353 . S
Gd850 O885 2.468 . S
Gd850 O886 2.427 . S
Gd850 O888 2.388 . S
Gd850 O889 2.386 . S
Gd850 O893 2.307 . S
Gd850 C903 2.805 . S
Gd851 N846 2.622 . S
Gd851 N852 2.570 . S
Gd851 O883 2.386 . S
Gd851 O887 2.307 . S
Gd851 O890 2.353 . S
Gd851 O891 2.468 . S
Gd851 O892 2.427 . S
Gd851 O894 2.388 . S
Gd851 C915 2.805 . S
N852 C842 1.359 . S
N852 Gd851 2.570 . S
N852 C854 1.343 . S
C853 C841 1.422 . S
C853 C855 1.321 . S
C853 H861 0.931 . S
C854 N852 1.343 . S
C854 C855 1.390 . S
C854 H856 0.931 . S
C855 C853 1.321 . S
C855 C854 1.390 . S
C855 H857 0.930 . S
H856 C854 0.931 . S
H857 C855 0.930 . S
H858 C881 0.931 . S
H859 C847 0.929 . S
H860 C882 0.930 . S
H861 C853 0.931 . S
H862 C843 0.930 . S
H863 C872 0.929 . S
H864 C848 0.931 . S
H865 C849 0.930 . S
H866 C904 0.930 . S
H867 C845 0.929 . S
H868 C873 0.931 . S
H869 C874 0.930 . S
N870 Gd850 2.622 . S
N870 C871 1.369 . S
N870 C872 1.338 . S
C871 N870 1.369 . S
C871 C875 1.415 . S
C871 C878 1.422 . S
C872 H863 0.929 . S
C872 N870 1.338 . S
C872 C874 1.378 . S
C873 H868 0.931 . S
C873 C874 1.348 . S
C873 C875 1.413 . S
C874 H869 0.930 . S
C874 C872 1.378 . S
C874 C873 1.348 . S
C875 C871 1.415 . S
C875 C873 1.413 . S
C875 C905 1.437 . S
H876 C905 0.929 . S
N877 Gd850 2.570 . S
N877 C878 1.359 . S
N877 C881 1.343 . S
C878 C871 1.422 . S
C878 N877 1.359 . S
C878 C880 1.421 . S
C879 C880 1.422 . S
C879 C882 1.321 . S
C879 H906 0.931 . S
C880 C878 1.421 . S
C880 C879 1.422 . S
C880 C904 1.417 . S
C881 H858 0.931 . S
C881 N877 1.343 . S
C881 C882 1.390 . S
C882 H860 0.930 . S
C882 C879 1.321 . S
C882 C881 1.390 . S
O883 Gd851 2.386 . S
O883 C895 1.265 . S
O884 Gd850 2.353 . S
O884 C895 1.242 . S
O885 Gd850 2.468 . S
O885 C903 1.263 . S
O886 Gd850 2.427 . S
O886 C903 1.252 . S
O887 Gd851 2.307 . S
O887 C896 1.261 . S
O888 Gd850 2.388 . S
O888 C896 1.252 . S
O889 Gd850 2.386 . S
O889 C907 1.265 . S
O890 Gd851 2.353 . S
O890 C907 1.242 . S
O891 Gd851 2.468 . S
O891 C915 1.263 . S
O892 Gd851 2.427 . S
O892 C915 1.252 . S
O893 Gd850 2.307 . S
O893 C908 1.261 . S
O894 Gd851 2.388 . S
O894 C908 1.252 . S
C895 O883 1.265 . S
C895 O884 1.242 . S
C896 O887 1.261 . S
C896 O888 1.252 . S
C897 C900 1.394 . S
C897 C902 1.370 . S
C897 C903 1.500 . S
C898 C901 1.383 . S
C898 C902 1.395 . S
C899 C900 1.396 . S
C899 C901 1.365 . S
C899 H916 0.929 . S
C900 C897 1.394 . S
C900 C899 1.396 . S
C900 H917 0.930 . S
C901 C898 1.383 . S
C901 C899 1.365 . S
C901 H918 0.931 . S
C902 C897 1.370 . S
C902 C898 1.395 . S
C902 H919 0.930 . S
C903 Gd850 2.805 . S
C903 O885 1.263 . S
C903 O886 1.252 . S
C903 C897 1.500 . S
C904 H866 0.930 . S
C904 C880 1.417 . S
C904 C905 1.329 . S
C905 C875 1.437 . S
C905 H876 0.929 . S
C905 C904 1.329 . S
H906 C879 0.931 . S
C907 O889 1.265 . S
C907 O890 1.242 . S
C908 O893 1.261 . S
C908 O894 1.252 . S
C909 C912 1.394 . S
C909 C914 1.370 . S
C909 C915 1.500 . S
C910 C913 1.383 . S
C910 C914 1.395 . S
C911 C912 1.396 . S
C911 C913 1.365 . S
C911 H920 0.929 . S
C912 C909 1.394 . S
C912 C911 1.396 . S
C912 H921 0.930 . S
C913 C910 1.383 . S
C913 C911 1.365 . S
C913 H922 0.931 . S
C914 C909 1.370 . S
C914 C910 1.395 . S
C914 H923 0.930 . S
C915 Gd851 2.805 . S
C915 O891 1.263 . S
C915 O892 1.252 . S
C915 C909 1.500 . S
H916 C899 0.929 . S
H917 C900 0.930 . S
H918 C901 0.931 . S
H919 C902 0.930 . S
H920 C911 0.929 . S
H921 C912 0.930 . S
H922 C913 0.931 . S
H923 C914 0.930 . S
C924 C926 1.422 . S
C924 C928 1.415 . S
C924 N930 1.369 . S
C925 C926 1.421 . S
C925 C927 1.417 . S
C925 C937 1.422 . S
C926 C924 1.422 . S
C926 C925 1.421 . S
C926 N936 1.359 . S
C927 C925 1.417 . S
C927 C929 1.329 . S
C927 H946 0.930 . S
C928 C924 1.415 . S
C928 C929 1.437 . S
C928 C932 1.413 . S
C929 C927 1.329 . S
C929 C928 1.437 . S
C929 H951 0.929 . S
N930 C924 1.369 . S
N930 C931 1.338 . S
N930 Gd935 2.622 . S
C931 N930 1.338 . S
C931 C933 1.378 . S
C931 H943 0.929 . S
C932 C928 1.413 . S
C932 C933 1.348 . S
C932 H948 0.931 . S
C933 C931 1.378 . S
C933 C932 1.348 . S
C933 H949 0.930 . S
Gd934 N954 2.622 1_565 S
Gd934 N961 2.570 . S
Gd934 O968 2.353 . S
Gd934 O969 2.468 . S
Gd934 O970 2.427 . S
Gd934 O972 2.388 1_565 S
Gd934 O973 2.386 . S
Gd934 O977 2.307 . S
Gd934 C987 2.805 . S
Gd935 N930 2.622 . S
Gd935 N936 2.570 . S
Gd935 O967 2.386 . S
Gd935 O971 2.307 . S
Gd935 O974 2.353 . S
Gd935 O975 2.468 . S
Gd935 O976 2.427 . S
Gd935 O978 2.388 . S
Gd935 C999 2.805 . S
N936 C926 1.359 . S
N936 Gd935 2.570 . S
N936 C938 1.343 . S
C937 C925 1.422 . S
C937 C939 1.321 . S
C937 H945 0.931 . S
C938 N936 1.343 . S
C938 C939 1.390 . S
C938 H940 0.931 . S
C939 C937 1.321 . S
C939 C938 1.390 . S
C939 H941 0.930 . S
H940 C938 0.931 . S
H941 C939 0.930 . S
H942 C965 0.931 . S
H943 C931 0.929 . S
H944 C966 0.930 . S
H945 C937 0.931 . S
H946 C927 0.930 . S
H947 C956 0.929 . S
H948 C932 0.931 . S
H949 C933 0.930 . S
H950 C988 0.930 . S
H951 C929 0.929 . S
H952 C957 0.931 . S
H953 C958 0.930 . S
N954 Gd934 2.622 1_545 S
N954 C955 1.369 . S
N954 C956 1.338 . S
C955 N954 1.369 . S
C955 C959 1.415 . S
C955 C962 1.422 . S
C956 H947 0.929 . S
C956 N954 1.338 . S
C956 C958 1.378 . S
C957 H952 0.931 . S
C957 C958 1.348 . S
C957 C959 1.413 . S
C958 H953 0.930 . S
C958 C956 1.378 . S
C958 C957 1.348 . S
C959 C955 1.415 . S
C959 C957 1.413 . S
C959 C989 1.437 . S
H960 C989 0.929 . S
N961 Gd934 2.570 . S
N961 C962 1.359 1_565 S
N961 C965 1.343 . S
C962 C955 1.422 . S
C962 N961 1.359 1_545 S
C962 C964 1.421 . S
C963 C964 1.422 1_565 S
C963 C966 1.321 . S
C963 H990 0.931 . S
C964 C962 1.421 . S
C964 C963 1.422 1_545 S
C964 C988 1.417 . S
C965 H942 0.931 . S
C965 N961 1.343 . S
C965 C966 1.390 . S
C966 H944 0.930 . S
C966 C963 1.321 . S
C966 C965 1.390 . S
O967 Gd935 2.386 . S
O967 C979 1.265 . S
O968 Gd934 2.353 . S
O968 C979 1.242 . S
O969 Gd934 2.468 . S
O969 C987 1.263 . S
O970 Gd934 2.427 . S
O970 C987 1.252 . S
O971 Gd935 2.307 . S
O971 C980 1.261 1_565 S
O972 Gd934 2.388 1_545 S
O972 C980 1.252 . S
O973 Gd934 2.386 . S
O973 C991 1.265 . S
O974 Gd935 2.353 . S
O974 C991 1.242 . S
O975 Gd935 2.468 . S
O975 C999 1.263 . S
O976 Gd935 2.427 . S
O976 C999 1.252 . S
O977 Gd934 2.307 . S
O977 C992 1.261 . S
O978 Gd935 2.388 . S
O978 C992 1.252 . S
C979 O967 1.265 . S
C979 O968 1.242 . S
C980 O971 1.261 1_545 S
C980 O972 1.252 . S
C981 C984 1.394 . S
C981 C986 1.370 . S
C981 C987 1.500 . S
C982 C985 1.383 . S
C982 C986 1.395 . S
C983 C984 1.396 . S
C983 C985 1.365 . S
C983 H1000 0.929 . S
C984 C981 1.394 . S
C984 C983 1.396 . S
C984 H1001 0.930 . S
C985 C982 1.383 . S
C985 C983 1.365 . S
C985 H1002 0.931 . S
C986 C981 1.370 . S
C986 C982 1.395 . S
C986 H1003 0.930 . S
C987 Gd934 2.805 . S
C987 O969 1.263 . S
C987 O970 1.252 . S
C987 C981 1.500 . S
C988 H950 0.930 . S
C988 C964 1.417 . S
C988 C989 1.329 . S
C989 C959 1.437 . S
C989 H960 0.929 . S
C989 C988 1.329 . S
H990 C963 0.931 . S
C991 O973 1.265 . S
C991 O974 1.242 . S
C992 O977 1.261 . S
C992 O978 1.252 . S
C993 C996 1.394 . S
C993 C998 1.370 . S
C993 C999 1.500 . S
C994 C997 1.387 . S
C994 C998 1.395 . S
C995 C996 1.419 . S
C995 C997 1.365 . S
C995 H1004 0.907 1_556 S
C996 C993 1.394 . S
C996 C995 1.419 . S
C996 H1005 0.930 . S
C997 C994 1.387 . S
C997 C995 1.365 . S
C997 H1006 0.928 1_556 S
C998 C993 1.370 . S
C998 C994 1.395 . S
C998 H1007 0.915 1_565 S
C999 Gd935 2.805 . S
C999 O975 1.263 . S
C999 O976 1.252 . S
C999 C993 1.500 . S
H1000 C983 0.929 . S
H1001 C984 0.930 . S
H1002 C985 0.931 . S
H1003 C986 0.930 . S
H1004 C995 0.907 1_554 S
H1005 C996 0.930 . S
H1006 C997 0.928 1_554 S
H1007 C998 0.915 1_545 S
C1008 C1010 1.422 . S
C1008 C1012 1.415 . S
C1008 N1014 1.369 . S
C1009 C1010 1.421 . S
C1009 C1011 1.417 . S
C1009 C1021 1.422 . S
C1010 C1008 1.422 . S
C1010 C1009 1.421 . S
C1010 N1020 1.359 . S
C1011 C1009 1.417 . S
C1011 C1013 1.329 . S
C1011 H1030 0.930 . S
C1012 C1008 1.415 . S
C1012 C1013 1.437 . S
C1012 C1016 1.413 . S
C1013 C1011 1.329 . S
C1013 C1012 1.437 . S
C1013 H1035 0.929 . S
N1014 C1008 1.369 . S
N1014 C1015 1.338 . S
N1014 Gd1019 2.622 . S
C1015 N1014 1.338 . S
C1015 C1017 1.378 . S
C1015 H1027 0.929 . S
C1016 C1012 1.413 . S
C1016 C1017 1.348 . S
C1016 H1032 0.931 . S
C1017 C1015 1.378 . S
C1017 C1016 1.348 . S
C1017 H1033 0.930 . S
Gd1018 N1038 2.622 . S
Gd1018 N1045 2.570 . S
Gd1018 O1052 2.353 . S
Gd1018 O1053 2.468 . S
Gd1018 O1054 2.427 . S
Gd1018 O1056 2.388 . S
Gd1018 O1057 2.386 . S
Gd1018 O1061 2.307 . S
Gd1018 C1071 2.805 . S
Gd1019 N1014 2.622 . S
Gd1019 N1020 2.570 . S
Gd1019 O1051 2.386 . S
Gd1019 O1055 2.307 . S
Gd1019 O1058 2.353 . S
Gd1019 O1059 2.468 . S
Gd1019 O1060 2.427 . S
Gd1019 O1062 2.388 . S
Gd1019 C1083 2.805 . S
N1020 C1010 1.359 . S
N1020 Gd1019 2.570 . S
N1020 C1022 1.343 . S
C1021 C1009 1.422 . S
C1021 C1023 1.321 . S
C1021 H1029 0.931 . S
C1022 N1020 1.343 . S
C1022 C1023 1.390 . S
C1022 H1024 0.931 . S
C1023 C1021 1.321 . S
C1023 C1022 1.390 . S
C1023 H1025 0.930 . S
H1024 C1022 0.931 . S
H1025 C1023 0.930 . S
H1026 C1049 0.931 . S
H1027 C1015 0.929 . S
H1028 C1050 0.930 . S
H1029 C1021 0.931 . S
H1030 C1011 0.930 . S
H1031 C1040 0.929 . S
H1032 C1016 0.931 . S
H1033 C1017 0.930 . S
H1034 C1072 0.930 . S
H1035 C1013 0.929 . S
H1036 C1041 0.931 . S
H1037 C1042 0.930 . S
N1038 Gd1018 2.622 . S
N1038 C1039 1.369 . S
N1038 C1040 1.338 . S
C1039 N1038 1.369 . S
C1039 C1043 1.415 . S
C1039 C1046 1.422 . S
C1040 H1031 0.929 . S
C1040 N1038 1.338 . S
C1040 C1042 1.378 . S
C1041 H1036 0.931 . S
C1041 C1042 1.348 . S
C1041 C1043 1.413 . S
C1042 H1037 0.930 . S
C1042 C1040 1.378 . S
C1042 C1041 1.348 . S
C1043 C1039 1.415 . S
C1043 C1041 1.413 . S
C1043 C1073 1.437 . S
H1044 C1073 0.929 . S
N1045 Gd1018 2.570 . S
N1045 C1046 1.359 . S
N1045 C1049 1.343 . S
C1046 C1039 1.422 . S
C1046 N1045 1.359 . S
C1046 C1048 1.421 . S
C1047 C1048 1.422 . S
C1047 C1050 1.321 . S
C1047 H1074 0.931 . S
C1048 C1046 1.421 . S
C1048 C1047 1.422 . S
C1048 C1072 1.417 . S
C1049 H1026 0.931 . S
C1049 N1045 1.343 . S
C1049 C1050 1.390 . S
C1050 H1028 0.930 . S
C1050 C1047 1.321 . S
C1050 C1049 1.390 . S
O1051 Gd1019 2.386 . S
O1051 C1063 1.265 . S
O1052 Gd1018 2.353 . S
O1052 C1063 1.242 . S
O1053 Gd1018 2.468 . S
O1053 C1071 1.263 . S
O1054 Gd1018 2.427 . S
O1054 C1071 1.252 . S
O1055 Gd1019 2.307 . S
O1055 C1064 1.261 . S
O1056 Gd1018 2.388 . S
O1056 C1064 1.252 . S
O1057 Gd1018 2.386 . S
O1057 C1075 1.265 . S
O1058 Gd1019 2.353 . S
O1058 C1075 1.242 . S
O1059 Gd1019 2.468 . S
O1059 C1083 1.263 . S
O1060 Gd1019 2.427 . S
O1060 C1083 1.252 . S
O1061 Gd1018 2.307 . S
O1061 C1076 1.261 . S
O1062 Gd1019 2.388 . S
O1062 C1076 1.252 . S
C1063 O1051 1.265 . S
C1063 O1052 1.242 . S
C1064 O1055 1.261 . S
C1064 O1056 1.252 . S
C1065 C1068 1.394 . S
C1065 C1070 1.370 . S
C1065 C1071 1.500 . S
C1066 C1069 1.383 . S
C1066 C1070 1.395 . S
C1067 C1068 1.396 . S
C1067 C1069 1.365 . S
C1067 H1084 0.929 . S
C1068 C1065 1.394 . S
C1068 C1067 1.396 . S
C1068 H1085 0.930 . S
C1069 C1066 1.383 . S
C1069 C1067 1.365 . S
C1069 H1086 0.931 . S
C1070 C1065 1.370 . S
C1070 C1066 1.395 . S
C1070 H1087 0.930 . S
C1071 Gd1018 2.805 . S
C1071 O1053 1.263 . S
C1071 O1054 1.252 . S
C1071 C1065 1.500 . S
C1072 H1034 0.930 . S
C1072 C1048 1.417 . S
C1072 C1073 1.329 . S
C1073 C1043 1.437 . S
C1073 H1044 0.929 . S
C1073 C1072 1.329 . S
H1074 C1047 0.931 . S
C1075 O1057 1.265 . S
C1075 O1058 1.242 . S
C1076 O1061 1.261 . S
C1076 O1062 1.252 . S
C1077 C1080 1.394 . S
C1077 C1082 1.370 . S
C1077 C1083 1.500 . S
C1078 C1081 1.383 . S
C1078 C1082 1.395 . S
C1079 C1080 1.396 . S
C1079 C1081 1.365 . S
C1079 H1088 0.929 . S
C1080 C1077 1.394 . S
C1080 C1079 1.396 . S
C1080 H1089 0.930 . S
C1081 C1078 1.383 . S
C1081 C1079 1.365 . S
C1081 H1090 0.931 . S
C1082 C1077 1.370 . S
C1082 C1078 1.395 . S
C1082 H1091 0.930 . S
C1083 Gd1019 2.805 . S
C1083 O1059 1.263 . S
C1083 O1060 1.252 . S
C1083 C1077 1.500 . S
H1084 C1067 0.929 . S
H1085 C1068 0.930 . S
H1086 C1069 0.931 . S
H1087 C1070 0.930 . S
H1088 C1079 0.929 . S
H1089 C1080 0.930 . S
H1090 C1081 0.931 . S
H1091 C1082 0.930 . S
C1092 C1094 1.422 . S
C1092 C1096 1.415 . S
C1092 N1098 1.369 . S
C1093 C1094 1.421 . S
C1093 C1095 1.417 . S
C1093 C1105 1.422 . S
C1094 C1092 1.422 . S
C1094 C1093 1.421 . S
C1094 N1104 1.359 . S
C1095 C1093 1.417 . S
C1095 C1097 1.329 . S
C1095 H1114 0.930 . S
C1096 C1092 1.415 . S
C1096 C1097 1.437 . S
C1096 C1100 1.413 . S
C1097 C1095 1.329 . S
C1097 C1096 1.437 . S
C1097 H1119 0.929 . S
N1098 C1092 1.369 . S
N1098 C1099 1.338 . S
N1098 Gd1103 2.622 . S
C1099 N1098 1.338 . S
C1099 C1101 1.378 . S
C1099 H1111 0.929 . S
C1100 C1096 1.413 . S
C1100 C1101 1.348 . S
C1100 H1116 0.931 . S
C1101 C1099 1.378 . S
C1101 C1100 1.348 . S
C1101 H1117 0.930 . S
Gd1102 N1122 2.622 1_545 S
Gd1102 N1129 2.570 . S
Gd1102 O1136 2.353 . S
Gd1102 O1137 2.468 . S
Gd1102 O1138 2.427 . S
Gd1102 O1140 2.388 1_545 S
Gd1102 O1141 2.386 . S
Gd1102 O1145 2.307 . S
Gd1102 C1155 2.805 . S
Gd1103 N1098 2.622 . S
Gd1103 N1104 2.570 . S
Gd1103 O1135 2.386 . S
Gd1103 O1139 2.307 . S
Gd1103 O1142 2.353 . S
Gd1103 O1143 2.468 . S
Gd1103 O1144 2.427 . S
Gd1103 O1146 2.388 . S
Gd1103 C1167 2.805 . S
N1104 C1094 1.359 . S
N1104 Gd1103 2.570 . S
N1104 C1106 1.343 . S
C1105 C1093 1.422 . S
C1105 C1107 1.321 . S
C1105 H1113 0.931 . S
C1106 N1104 1.343 . S
C1106 C1107 1.390 . S
C1106 H1108 0.931 . S
C1107 C1105 1.321 . S
C1107 C1106 1.390 . S
C1107 H1109 0.930 . S
H1108 C1106 0.931 . S
H1109 C1107 0.930 . S
H1110 C1133 0.931 . S
H1111 C1099 0.929 . S
H1112 C1134 0.930 . S
H1113 C1105 0.931 . S
H1114 C1095 0.930 . S
H1115 C1124 0.929 . S
H1116 C1100 0.931 . S
H1117 C1101 0.930 . S
H1118 C1156 0.930 . S
H1119 C1097 0.929 . S
H1120 C1125 0.931 . S
H1121 C1126 0.930 . S
N1122 Gd1102 2.622 1_565 S
N1122 C1123 1.369 . S
N1122 C1124 1.338 . S
C1123 N1122 1.369 . S
C1123 C1127 1.415 . S
C1123 C1130 1.422 . S
C1124 H1115 0.929 . S
C1124 N1122 1.338 . S
C1124 C1126 1.378 . S
C1125 H1120 0.931 . S
C1125 C1126 1.348 . S
C1125 C1127 1.413 . S
C1126 H1121 0.930 . S
C1126 C1124 1.378 . S
C1126 C1125 1.348 . S
C1127 C1123 1.415 . S
C1127 C1125 1.413 . S
C1127 C1157 1.437 . S
H1128 C1157 0.929 . S
N1129 Gd1102 2.570 . S
N1129 C1130 1.359 1_545 S
N1129 C1133 1.343 . S
C1130 C1123 1.422 . S
C1130 N1129 1.359 1_565 S
C1130 C1132 1.421 . S
C1131 C1132 1.422 1_545 S
C1131 C1134 1.321 . S
C1131 H1158 0.931 . S
C1132 C1130 1.421 . S
C1132 C1131 1.422 1_565 S
C1132 C1156 1.417 . S
C1133 H1110 0.931 . S
C1133 N1129 1.343 . S
C1133 C1134 1.390 . S
C1134 H1112 0.930 . S
C1134 C1131 1.321 . S
C1134 C1133 1.390 . S
O1135 Gd1103 2.386 . S
O1135 C1147 1.265 . S
O1136 Gd1102 2.353 . S
O1136 C1147 1.242 . S
O1137 Gd1102 2.468 . S
O1137 C1155 1.263 . S
O1138 Gd1102 2.427 . S
O1138 C1155 1.252 . S
O1139 Gd1103 2.307 . S
O1139 C1148 1.261 1_545 S
O1140 Gd1102 2.388 1_565 S
O1140 C1148 1.252 . S
O1141 Gd1102 2.386 . S
O1141 C1159 1.265 . S
O1142 Gd1103 2.353 . S
O1142 C1159 1.242 . S
O1143 Gd1103 2.468 . S
O1143 C1167 1.263 . S
O1144 Gd1103 2.427 . S
O1144 C1167 1.252 . S
O1145 Gd1102 2.307 . S
O1145 C1160 1.261 . S
O1146 Gd1103 2.388 . S
O1146 C1160 1.252 . S
C1147 O1135 1.265 . S
C1147 O1136 1.242 . S
C1148 O1139 1.261 1_565 S
C1148 O1140 1.252 . S
C1149 C1152 1.394 . S
C1149 C1154 1.370 . S
C1149 C1155 1.500 . S
C1150 C1153 1.383 . S
C1150 C1154 1.395 . S
C1151 C1152 1.396 . S
C1151 C1153 1.365 . S
C1151 H1168 0.929 . S
C1152 C1149 1.394 . S
C1152 C1151 1.396 . S
C1152 H1169 0.930 . S
C1153 C1150 1.383 . S
C1153 C1151 1.365 . S
C1153 H1170 0.931 . S
C1154 C1149 1.370 . S
C1154 C1150 1.395 . S
C1154 H1171 0.930 . S
C1155 Gd1102 2.805 . S
C1155 O1137 1.263 . S
C1155 O1138 1.252 . S
C1155 C1149 1.500 . S
C1156 H1118 0.930 . S
C1156 C1132 1.417 . S
C1156 C1157 1.329 . S
C1157 C1127 1.437 . S
C1157 H1128 0.929 . S
C1157 C1156 1.329 . S
H1158 C1131 0.931 . S
C1159 O1141 1.265 . S
C1159 O1142 1.242 . S
C1160 O1145 1.261 . S
C1160 O1146 1.252 . S
C1161 C1164 1.394 . S
C1161 C1166 1.370 . S
C1161 C1167 1.500 . S
C1162 C1165 1.383 . S
C1162 C1166 1.395 . S
C1163 C1164 1.396 . S
C1163 C1165 1.365 . S
C1163 H1172 0.929 . S
C1164 C1161 1.394 . S
C1164 C1163 1.396 . S
C1164 H1173 0.930 . S
C1165 C1162 1.383 . S
C1165 C1163 1.365 . S
C1165 H1174 0.931 . S
C1166 C1161 1.370 . S
C1166 C1162 1.395 . S
C1166 H1175 0.915 1_545 S
C1167 Gd1103 2.805 . S
C1167 O1143 1.263 . S
C1167 O1144 1.252 . S
C1167 C1161 1.500 . S
H1168 C1151 0.929 . S
H1169 C1152 0.930 . S
H1170 C1153 0.931 . S
H1171 C1154 0.930 . S
H1172 C1163 0.929 . S
H1173 C1164 0.930 . S
H1174 C1165 0.931 . S
H1175 C1166 0.915 1_565 S
C1176 C1178 1.422 . S
C1176 C1180 1.415 . S
C1176 N1182 1.369 . S
C1177 C1178 1.421 . S
C1177 C1179 1.417 . S
C1177 C1189 1.422 . S
C1178 C1176 1.422 . S
C1178 C1177 1.421 . S
C1178 N1188 1.359 . S
C1179 C1177 1.417 . S
C1179 C1181 1.329 . S
C1179 H1198 0.930 . S
C1180 C1176 1.415 . S
C1180 C1181 1.437 . S
C1180 C1184 1.413 . S
C1181 C1179 1.329 . S
C1181 C1180 1.437 . S
C1181 H1203 0.929 . S
N1182 C1176 1.369 . S
N1182 C1183 1.338 . S
N1182 Gd1187 2.622 . S
C1183 N1182 1.338 . S
C1183 C1185 1.378 . S
C1183 H1195 0.929 . S
C1184 C1180 1.413 . S
C1184 C1185 1.348 . S
C1184 H1200 0.931 . S
C1185 C1183 1.378 . S
C1185 C1184 1.348 . S
C1185 H1201 0.930 . S
Gd1186 N1206 2.622 . S
Gd1186 N1213 2.570 . S
Gd1186 O1220 2.353 . S
Gd1186 O1221 2.468 . S
Gd1186 O1222 2.427 . S
Gd1186 O1224 2.388 . S
Gd1186 O1225 2.386 . S
Gd1186 O1229 2.307 . S
Gd1186 C1239 2.805 . S
Gd1187 N1182 2.622 . S
Gd1187 N1188 2.570 . S
Gd1187 O1219 2.386 . S
Gd1187 O1223 2.307 . S
Gd1187 O1226 2.353 . S
Gd1187 O1227 2.468 . S
Gd1187 O1228 2.427 . S
Gd1187 O1230 2.388 . S
Gd1187 C1251 2.805 . S
N1188 C1178 1.359 . S
N1188 Gd1187 2.570 . S
N1188 C1190 1.343 . S
C1189 C1177 1.422 . S
C1189 C1191 1.321 . S
C1189 H1197 0.931 . S
C1190 N1188 1.343 . S
C1190 C1191 1.390 . S
C1190 H1192 0.931 . S
C1191 C1189 1.321 . S
C1191 C1190 1.390 . S
C1191 H1193 0.930 . S
H1192 C1190 0.931 . S
H1193 C1191 0.930 . S
H1194 C1217 0.931 . S
H1195 C1183 0.929 . S
H1196 C1218 0.930 . S
H1197 C1189 0.931 . S
H1198 C1179 0.930 . S
H1199 C1208 0.929 . S
H1200 C1184 0.931 . S
H1201 C1185 0.930 . S
H1202 C1240 0.930 . S
H1203 C1181 0.929 . S
H1204 C1209 0.931 . S
H1205 C1210 0.930 . S
N1206 Gd1186 2.622 . S
N1206 C1207 1.369 . S
N1206 C1208 1.338 . S
C1207 N1206 1.369 . S
C1207 C1211 1.415 . S
C1207 C1214 1.422 . S
C1208 H1199 0.929 . S
C1208 N1206 1.338 . S
C1208 C1210 1.378 . S
C1209 H1204 0.931 . S
C1209 C1210 1.348 . S
C1209 C1211 1.413 . S
C1210 H1205 0.930 . S
C1210 C1208 1.378 . S
C1210 C1209 1.348 . S
C1211 C1207 1.415 . S
C1211 C1209 1.413 . S
C1211 C1241 1.437 . S
H1212 C1241 0.929 . S
N1213 Gd1186 2.570 . S
N1213 C1214 1.359 . S
N1213 C1217 1.343 . S
C1214 C1207 1.422 . S
C1214 N1213 1.359 . S
C1214 C1216 1.421 . S
C1215 C1216 1.422 . S
C1215 C1218 1.321 . S
C1215 H1242 0.931 . S
C1216 C1214 1.421 . S
C1216 C1215 1.422 . S
C1216 C1240 1.417 . S
C1217 H1194 0.931 . S
C1217 N1213 1.343 . S
C1217 C1218 1.390 . S
C1218 H1196 0.930 . S
C1218 C1215 1.321 . S
C1218 C1217 1.390 . S
O1219 Gd1187 2.386 . S
O1219 C1231 1.265 . S
O1220 Gd1186 2.353 . S
O1220 C1231 1.242 . S
O1221 Gd1186 2.468 . S
O1221 C1239 1.263 . S
O1222 Gd1186 2.427 . S
O1222 C1239 1.252 . S
O1223 Gd1187 2.307 . S
O1223 C1232 1.261 . S
O1224 Gd1186 2.388 . S
O1224 C1232 1.252 . S
O1225 Gd1186 2.386 . S
O1225 C1243 1.265 . S
O1226 Gd1187 2.353 . S
O1226 C1243 1.242 . S
O1227 Gd1187 2.468 . S
O1227 C1251 1.263 . S
O1228 Gd1187 2.427 . S
O1228 C1251 1.252 . S
O1229 Gd1186 2.307 . S
O1229 C1244 1.261 . S
O1230 Gd1187 2.388 . S
O1230 C1244 1.252 . S
C1231 O1219 1.265 . S
C1231 O1220 1.242 . S
C1232 O1223 1.261 . S
C1232 O1224 1.252 . S
C1233 C1236 1.394 . S
C1233 C1238 1.370 . S
C1233 C1239 1.500 . S
C1234 C1237 1.383 . S
C1234 C1238 1.395 . S
C1235 C1236 1.396 . S
C1235 C1237 1.365 . S
C1235 H1252 0.929 . S
C1236 C1233 1.394 . S
C1236 C1235 1.396 . S
C1236 H1253 0.930 . S
C1237 C1234 1.383 . S
C1237 C1235 1.365 . S
C1237 H1254 0.931 . S
C1238 C1233 1.370 . S
C1238 C1234 1.395 . S
C1238 H1255 0.930 . S
C1239 Gd1186 2.805 . S
C1239 O1221 1.263 . S
C1239 O1222 1.252 . S
C1239 C1233 1.500 . S
C1240 H1202 0.930 . S
C1240 C1216 1.417 . S
C1240 C1241 1.329 . S
C1241 C1211 1.437 . S
C1241 H1212 0.929 . S
C1241 C1240 1.329 . S
H1242 C1215 0.931 . S
C1243 O1225 1.265 . S
C1243 O1226 1.242 . S
C1244 O1229 1.261 . S
C1244 O1230 1.252 . S
C1245 C1248 1.394 . S
C1245 C1250 1.370 . S
C1245 C1251 1.500 . S
C1246 C1249 1.383 . S
C1246 C1250 1.395 . S
C1247 C1248 1.396 . S
C1247 C1249 1.365 . S
C1247 H1256 0.929 . S
C1248 C1245 1.394 . S
C1248 C1247 1.396 . S
C1248 H1257 0.930 . S
C1249 C1246 1.383 . S
C1249 C1247 1.365 . S
C1249 H1258 0.931 . S
C1250 C1245 1.370 . S
C1250 C1246 1.395 . S
C1250 H1259 0.930 . S
C1251 Gd1187 2.805 . S
C1251 O1227 1.263 . S
C1251 O1228 1.252 . S
C1251 C1245 1.500 . S
H1252 C1235 0.929 . S
H1253 C1236 0.930 . S
H1254 C1237 0.931 . S
H1255 C1238 0.930 . S
H1256 C1247 0.929 . S
H1257 C1248 0.930 . S
H1258 C1249 0.931 . S
H1259 C1250 0.930 . S
C1260 C1262 1.422 . S
C1260 C1264 1.415 . S
C1260 N1266 1.369 . S
C1261 C1262 1.421 . S
C1261 C1263 1.417 . S
C1261 C1273 1.422 . S
C1262 C1260 1.422 . S
C1262 C1261 1.421 . S
C1262 N1272 1.359 . S
C1263 C1261 1.417 . S
C1263 C1265 1.329 . S
C1263 H1282 0.930 . S
C1264 C1260 1.415 . S
C1264 C1265 1.437 . S
C1264 C1268 1.413 . S
C1265 C1263 1.329 . S
C1265 C1264 1.437 . S
C1265 H1287 0.929 . S
N1266 C1260 1.369 . S
N1266 C1267 1.338 . S
N1266 Gd1271 2.622 . S
C1267 N1266 1.338 . S
C1267 C1269 1.378 . S
C1267 H1279 0.929 . S
C1268 C1264 1.413 . S
C1268 C1269 1.348 . S
C1268 H1284 0.931 . S
C1269 C1267 1.378 . S
C1269 C1268 1.348 . S
C1269 H1285 0.930 . S
Gd1270 N1290 2.622 1_565 S
Gd1270 N1297 2.570 . S
Gd1270 O1304 2.353 1_455 S
Gd1270 O1305 2.468 . S
Gd1270 O1306 2.427 . S
Gd1270 O1308 2.388 1_465 S
Gd1270 O1309 2.386 1_455 S
Gd1270 O1313 2.307 . S
Gd1270 C1323 2.805 . S
Gd1271 N1266 2.622 . S
Gd1271 N1272 2.570 . S
Gd1271 O1303 2.386 . S
Gd1271 O1307 2.307 . S
Gd1271 O1310 2.353 . S
Gd1271 O1311 2.468 . S
Gd1271 O1312 2.427 . S
Gd1271 O1314 2.388 . S
Gd1271 C1335 2.805 . S
N1272 C1262 1.359 . S
N1272 Gd1271 2.570 . S
N1272 C1274 1.343 . S
C1273 C1261 1.422 . S
C1273 C1275 1.321 . S
C1273 H1281 0.931 . S
C1274 N1272 1.343 . S
C1274 C1275 1.390 . S
C1274 H1276 0.931 . S
C1275 C1273 1.321 . S
C1275 C1274 1.390 . S
C1275 H1277 0.930 . S
H1276 C1274 0.931 . S
H1277 C1275 0.930 . S
H1278 C1301 0.931 . S
H1279 C1267 0.929 . S
H1280 C1302 0.930 . S
H1281 C1273 0.931 . S
H1282 C1263 0.930 . S
H1283 C1292 0.929 1_655 S
H1284 C1268 0.931 . S
H1285 C1269 0.930 . S
H1286 C1324 0.930 . S
H1287 C1265 0.929 . S
H1288 C1293 0.931 . S
H1289 C1294 0.930 . S
N1290 Gd1270 2.622 1_545 S
N1290 C1291 1.369 . S
N1290 C1292 1.338 . S
C1291 N1290 1.369 . S
C1291 C1295 1.415 . S
C1291 C1298 1.422 . S
C1292 H1283 0.929 1_455 S
C1292 N1290 1.338 . S
C1292 C1294 1.378 . S
C1293 H1288 0.931 . S
C1293 C1294 1.348 . S
C1293 C1295 1.413 . S
C1294 H1289 0.930 . S
C1294 C1292 1.378 . S
C1294 C1293 1.348 . S
C1295 C1291 1.415 . S
C1295 C1293 1.413 . S
C1295 C1325 1.437 . S
H1296 C1325 0.929 . S
N1297 Gd1270 2.570 . S
N1297 C1298 1.359 1_565 S
N1297 C1301 1.343 . S
C1298 C1291 1.422 . S
C1298 N1297 1.359 1_545 S
C1298 C1300 1.421 . S
C1299 C1300 1.422 1_565 S
C1299 C1302 1.321 . S
C1299 H1326 0.931 . S
C1300 C1298 1.421 . S
C1300 C1299 1.422 1_545 S
C1300 C1324 1.417 . S
C1301 H1278 0.931 . S
C1301 N1297 1.343 . S
C1301 C1302 1.390 . S
C1302 H1280 0.930 . S
C1302 C1299 1.321 . S
C1302 C1301 1.390 . S
O1303 Gd1271 2.386 . S
O1303 C1315 1.265 . S
O1304 Gd1270 2.353 1_655 S
O1304 C1315 1.242 . S
O1305 Gd1270 2.468 . S
O1305 C1323 1.263 . S
O1306 Gd1270 2.427 . S
O1306 C1323 1.252 . S
O1307 Gd1271 2.307 . S
O1307 C1316 1.261 1_565 S
O1308 Gd1270 2.388 1_645 S
O1308 C1316 1.252 . S
O1309 Gd1270 2.386 1_655 S
O1309 C1327 1.265 . S
O1310 Gd1271 2.353 . S
O1310 C1327 1.242 . S
O1311 Gd1271 2.468 . S
O1311 C1335 1.263 . S
O1312 Gd1271 2.427 . S
O1312 C1335 1.252 . S
O1313 Gd1270 2.307 . S
O1313 C1328 1.261 1_455 S
O1314 Gd1271 2.388 . S
O1314 C1328 1.252 . S
C1315 O1303 1.265 . S
C1315 O1304 1.242 . S
C1316 O1307 1.261 1_545 S
C1316 O1308 1.252 . S
C1317 C1320 1.394 . S
C1317 C1322 1.370 . S
C1317 C1323 1.500 . S
C1318 C1321 1.383 . S
C1318 C1322 1.395 . S
C1319 C1320 1.396 . S
C1319 C1321 1.365 . S
C1319 H1336 0.929 . S
C1320 C1317 1.394 . S
C1320 C1319 1.396 . S
C1320 H1337 0.930 . S
C1321 C1318 1.383 . S
C1321 C1319 1.365 . S
C1321 H1338 0.931 . S
C1322 C1317 1.370 . S
C1322 C1318 1.395 . S
C1322 H1339 0.930 . S
C1323 Gd1270 2.805 . S
C1323 O1305 1.263 . S
C1323 O1306 1.252 . S
C1323 C1317 1.500 . S
C1324 H1286 0.930 . S
C1324 C1300 1.417 . S
C1324 C1325 1.329 . S
C1325 C1295 1.437 . S
C1325 H1296 0.929 . S
C1325 C1324 1.329 . S
H1326 C1299 0.931 . S
C1327 O1309 1.265 . S
C1327 O1310 1.242 . S
C1328 O1313 1.261 1_655 S
C1328 O1314 1.252 . S
C1329 C1332 1.394 . S
C1329 C1334 1.370 . S
C1329 C1335 1.500 . S
C1330 C1333 1.387 . S
C1330 C1334 1.395 . S
C1331 C1332 1.419 . S
C1331 C1333 1.365 . S
C1331 H1340 0.907 1_554 S
C1332 C1329 1.394 . S
C1332 C1331 1.419 . S
C1332 H1341 0.930 . S
C1333 C1330 1.387 . S
C1333 C1331 1.365 . S
C1333 H1342 0.928 1_554 S
C1334 C1329 1.370 . S
C1334 C1330 1.395 . S
C1334 H1343 0.915 1_565 S
C1335 Gd1271 2.805 . S
C1335 O1311 1.263 . S
C1335 O1312 1.252 . S
C1335 C1329 1.500 . S
H1336 C1319 0.929 . S
H1337 C1320 0.930 . S
H1338 C1321 0.931 . S
H1339 C1322 0.930 . S
H1340 C1331 0.907 1_556 S
H1341 C1332 0.930 . S
H1342 C1333 0.928 1_556 S
H1343 C1334 0.915 1_545 S
C1344 C1346 1.422 . S
C1344 C1348 1.415 . S
C1344 N1350 1.369 . S
C1345 C1346 1.421 . S
C1345 C1347 1.417 . S
C1345 C1357 1.422 . S
C1346 C1344 1.422 . S
C1346 C1345 1.421 . S
C1346 N1356 1.359 . S
C1347 C1345 1.417 . S
C1347 C1349 1.329 . S
C1347 H1366 0.930 . S
C1348 C1344 1.415 . S
C1348 C1349 1.437 . S
C1348 C1352 1.413 . S
C1349 C1347 1.329 . S
C1349 C1348 1.437 . S
C1349 H1371 0.929 . S
N1350 C1344 1.369 . S
N1350 C1351 1.338 . S
N1350 Gd1355 2.622 . S
C1351 N1350 1.338 . S
C1351 C1353 1.378 . S
C1351 H1363 0.929 . S
C1352 C1348 1.413 . S
C1352 C1353 1.348 . S
C1352 H1368 0.931 . S
C1353 C1351 1.378 . S
C1353 C1352 1.348 . S
C1353 H1369 0.930 . S
Gd1354 N1374 2.622 . S
Gd1354 N1381 2.570 . S
Gd1354 O1388 2.353 . S
Gd1354 O1389 2.468 . S
Gd1354 O1390 2.427 . S
Gd1354 O1392 2.388 . S
Gd1354 O1393 2.386 . S
Gd1354 O1397 2.307 . S
Gd1354 C1407 2.805 . S
Gd1355 N1350 2.622 . S
Gd1355 N1356 2.570 . S
Gd1355 O1387 2.386 . S
Gd1355 O1391 2.307 . S
Gd1355 O1394 2.353 . S
Gd1355 O1395 2.468 . S
Gd1355 O1396 2.427 . S
Gd1355 O1398 2.388 . S
Gd1355 C1419 2.805 . S
N1356 C1346 1.359 . S
N1356 Gd1355 2.570 . S
N1356 C1358 1.343 . S
C1357 C1345 1.422 . S
C1357 C1359 1.321 . S
C1357 H1365 0.931 . S
C1358 N1356 1.343 . S
C1358 C1359 1.390 . S
C1358 H1360 0.931 . S
C1359 C1357 1.321 . S
C1359 C1358 1.390 . S
C1359 H1361 0.930 . S
H1360 C1358 0.931 . S
H1361 C1359 0.930 . S
H1362 C1385 0.931 . S
H1363 C1351 0.929 . S
H1364 C1386 0.930 . S
H1365 C1357 0.931 . S
H1366 C1347 0.930 . S
H1367 C1376 0.929 . S
H1368 C1352 0.931 . S
H1369 C1353 0.930 . S
H1370 C1408 0.930 . S
H1371 C1349 0.929 . S
H1372 C1377 0.931 . S
H1373 C1378 0.930 . S
N1374 Gd1354 2.622 . S
N1374 C1375 1.369 . S
N1374 C1376 1.338 . S
C1375 N1374 1.369 . S
C1375 C1379 1.415 . S
C1375 C1382 1.422 . S
C1376 H1367 0.929 . S
C1376 N1374 1.338 . S
C1376 C1378 1.378 . S
C1377 H1372 0.931 . S
C1377 C1378 1.348 . S
C1377 C1379 1.413 . S
C1378 H1373 0.930 . S
C1378 C1376 1.378 . S
C1378 C1377 1.348 . S
C1379 C1375 1.415 . S
C1379 C1377 1.413 . S
C1379 C1409 1.437 . S
H1380 C1409 0.929 . S
N1381 Gd1354 2.570 . S
N1381 C1382 1.359 . S
N1381 C1385 1.343 . S
C1382 C1375 1.422 . S
C1382 N1381 1.359 . S
C1382 C1384 1.421 . S
C1383 C1384 1.422 . S
C1383 C1386 1.321 . S
C1383 H1410 0.931 . S
C1384 C1382 1.421 . S
C1384 C1383 1.422 . S
C1384 C1408 1.417 . S
C1385 H1362 0.931 . S
C1385 N1381 1.343 . S
C1385 C1386 1.390 . S
C1386 H1364 0.930 . S
C1386 C1383 1.321 . S
C1386 C1385 1.390 . S
O1387 Gd1355 2.386 . S
O1387 C1399 1.265 . S
O1388 Gd1354 2.353 . S
O1388 C1399 1.242 . S
O1389 Gd1354 2.468 . S
O1389 C1407 1.263 . S
O1390 Gd1354 2.427 . S
O1390 C1407 1.252 . S
O1391 Gd1355 2.307 . S
O1391 C1400 1.261 . S
O1392 Gd1354 2.388 . S
O1392 C1400 1.252 . S
O1393 Gd1354 2.386 . S
O1393 C1411 1.265 . S
O1394 Gd1355 2.353 . S
O1394 C1411 1.242 . S
O1395 Gd1355 2.468 . S
O1395 C1419 1.263 . S
O1396 Gd1355 2.427 . S
O1396 C1419 1.252 . S
O1397 Gd1354 2.307 . S
O1397 C1412 1.261 . S
O1398 Gd1355 2.388 . S
O1398 C1412 1.252 . S
C1399 O1387 1.265 . S
C1399 O1388 1.242 . S
C1400 O1391 1.261 . S
C1400 O1392 1.252 . S
C1401 C1404 1.394 . S
C1401 C1406 1.370 . S
C1401 C1407 1.500 . S
C1402 C1405 1.383 . S
C1402 C1406 1.395 . S
C1403 C1404 1.396 . S
C1403 C1405 1.365 . S
C1403 H1420 0.929 . S
C1404 C1401 1.394 . S
C1404 C1403 1.396 . S
C1404 H1421 0.930 . S
C1405 C1402 1.383 . S
C1405 C1403 1.365 . S
C1405 H1422 0.931 . S
C1406 C1401 1.370 . S
C1406 C1402 1.395 . S
C1406 H1423 0.930 . S
C1407 Gd1354 2.805 . S
C1407 O1389 1.263 . S
C1407 O1390 1.252 . S
C1407 C1401 1.500 . S
C1408 H1370 0.930 . S
C1408 C1384 1.417 . S
C1408 C1409 1.329 . S
C1409 C1379 1.437 . S
C1409 H1380 0.929 . S
C1409 C1408 1.329 . S
H1410 C1383 0.931 . S
C1411 O1393 1.265 . S
C1411 O1394 1.242 . S
C1412 O1397 1.261 . S
C1412 O1398 1.252 . S
C1413 C1416 1.394 . S
C1413 C1418 1.370 . S
C1413 C1419 1.500 . S
C1414 C1417 1.383 . S
C1414 C1418 1.395 . S
C1415 C1416 1.396 . S
C1415 C1417 1.365 . S
C1415 H1424 0.929 . S
C1416 C1413 1.394 . S
C1416 C1415 1.396 . S
C1416 H1425 0.930 . S
C1417 C1414 1.383 . S
C1417 C1415 1.365 . S
C1417 H1426 0.931 . S
C1418 C1413 1.370 . S
C1418 C1414 1.395 . S
C1418 H1427 0.930 . S
C1419 Gd1355 2.805 . S
C1419 O1395 1.263 . S
C1419 O1396 1.252 . S
C1419 C1413 1.500 . S
H1420 C1403 0.929 . S
H1421 C1404 0.930 . S
H1422 C1405 0.931 . S
H1423 C1406 0.930 . S
H1424 C1415 0.929 . S
H1425 C1416 0.930 . S
H1426 C1417 0.931 . S
H1427 C1418 0.930 . S
C1428 C1430 1.422 . S
C1428 C1432 1.415 . S
C1428 N1434 1.369 . S
C1429 C1430 1.421 . S
C1429 C1431 1.417 . S
C1429 C1441 1.422 . S
C1430 C1428 1.422 . S
C1430 C1429 1.421 . S
C1430 N1440 1.359 . S
C1431 C1429 1.417 . S
C1431 C1433 1.329 . S
C1431 H1450 0.930 . S
C1432 C1428 1.415 . S
C1432 C1433 1.437 . S
C1432 C1436 1.413 . S
C1433 C1431 1.329 . S
C1433 C1432 1.437 . S
C1433 H1455 0.929 . S
N1434 C1428 1.369 . S
N1434 C1435 1.338 . S
N1434 Gd1439 2.622 . S
C1435 N1434 1.338 . S
C1435 C1437 1.378 . S
C1435 H1447 0.929 . S
C1436 C1432 1.413 . S
C1436 C1437 1.348 . S
C1436 H1452 0.931 . S
C1437 C1435 1.378 . S
C1437 C1436 1.348 . S
C1437 H1453 0.930 . S
Gd1438 N1458 2.622 . S
Gd1438 N1465 2.570 . S
Gd1438 O1472 2.353 . S
Gd1438 O1473 2.468 . S
Gd1438 O1474 2.427 . S
Gd1438 O1476 2.388 . S
Gd1438 O1477 2.386 . S
Gd1438 O1481 2.307 . S
Gd1438 C1491 2.805 . S
Gd1439 N1434 2.622 . S
Gd1439 N1440 2.570 . S
Gd1439 O1471 2.386 . S
Gd1439 O1475 2.307 . S
Gd1439 O1478 2.353 . S
Gd1439 O1479 2.468 . S
Gd1439 O1480 2.427 . S
Gd1439 O1482 2.388 . S
Gd1439 C1503 2.805 . S
N1440 C1430 1.359 . S
N1440 Gd1439 2.570 . S
N1440 C1442 1.343 . S
C1441 C1429 1.422 . S
C1441 C1443 1.321 . S
C1441 H1449 0.931 . S
C1442 N1440 1.343 . S
C1442 C1443 1.390 . S
C1442 H1444 0.931 . S
C1443 C1441 1.321 . S
C1443 C1442 1.390 . S
C1443 H1445 0.930 . S
H1444 C1442 0.931 . S
H1445 C1443 0.930 . S
H1446 C1469 0.931 . S
H1447 C1435 0.929 . S
H1448 C1470 0.930 . S
H1449 C1441 0.931 . S
H1450 C1431 0.930 . S
H1451 C1460 0.929 . S
H1452 C1436 0.931 . S
H1453 C1437 0.930 . S
H1454 C1492 0.930 . S
H1455 C1433 0.929 . S
H1456 C1461 0.931 . S
H1457 C1462 0.930 . S
N1458 Gd1438 2.622 . S
N1458 C1459 1.369 . S
N1458 C1460 1.338 . S
C1459 N1458 1.369 . S
C1459 C1463 1.415 . S
C1459 C1466 1.422 . S
C1460 H1451 0.929 . S
C1460 N1458 1.338 . S
C1460 C1462 1.378 . S
C1461 H1456 0.931 . S
C1461 C1462 1.348 . S
C1461 C1463 1.413 . S
C1462 H1457 0.930 . S
C1462 C1460 1.378 . S
C1462 C1461 1.348 . S
C1463 C1459 1.415 . S
C1463 C1461 1.413 . S
C1463 C1493 1.437 . S
H1464 C1493 0.929 . S
N1465 Gd1438 2.570 . S
N1465 C1466 1.359 . S
N1465 C1469 1.343 . S
C1466 C1459 1.422 . S
C1466 N1465 1.359 . S
C1466 C1468 1.421 . S
C1467 C1468 1.422 . S
C1467 C1470 1.321 . S
C1467 H1494 0.931 . S
C1468 C1466 1.421 . S
C1468 C1467 1.422 . S
C1468 C1492 1.417 . S
C1469 H1446 0.931 . S
C1469 N1465 1.343 . S
C1469 C1470 1.390 . S
C1470 H1448 0.930 . S
C1470 C1467 1.321 . S
C1470 C1469 1.390 . S
O1471 Gd1439 2.386 . S
O1471 C1483 1.265 . S
O1472 Gd1438 2.353 . S
O1472 C1483 1.242 . S
O1473 Gd1438 2.468 . S
O1473 C1491 1.263 . S
O1474 Gd1438 2.427 . S
O1474 C1491 1.252 . S
O1475 Gd1439 2.307 . S
O1475 C1484 1.261 . S
O1476 Gd1438 2.388 . S
O1476 C1484 1.252 . S
O1477 Gd1438 2.386 . S
O1477 C1495 1.265 . S
O1478 Gd1439 2.353 . S
O1478 C1495 1.242 . S
O1479 Gd1439 2.468 . S
O1479 C1503 1.263 . S
O1480 Gd1439 2.427 . S
O1480 C1503 1.252 . S
O1481 Gd1438 2.307 . S
O1481 C1496 1.261 . S
O1482 Gd1439 2.388 . S
O1482 C1496 1.252 . S
C1483 O1471 1.265 . S
C1483 O1472 1.242 . S
C1484 O1475 1.261 . S
C1484 O1476 1.252 . S
C1485 C1488 1.394 . S
C1485 C1490 1.370 . S
C1485 C1491 1.500 . S
C1486 C1489 1.387 . S
C1486 C1490 1.395 . S
C1487 C1488 1.419 . S
C1487 C1489 1.365 . S
C1487 H1504 0.907 1_554 S
C1488 C1485 1.394 . S
C1488 C1487 1.419 . S
C1488 H1505 0.930 . S
C1489 C1486 1.387 . S
C1489 C1487 1.365 . S
C1489 H1506 0.927 1_554 S
C1490 C1485 1.370 . S
C1490 C1486 1.395 . S
C1490 H1507 0.930 . S
C1491 Gd1438 2.805 . S
C1491 O1473 1.263 . S
C1491 O1474 1.252 . S
C1491 C1485 1.500 . S
C1492 H1454 0.930 . S
C1492 C1468 1.417 . S
C1492 C1493 1.329 . S
C1493 C1463 1.437 . S
C1493 H1464 0.929 . S
C1493 C1492 1.329 . S
H1494 C1467 0.931 . S
C1495 O1477 1.265 . S
C1495 O1478 1.242 . S
C1496 O1481 1.261 . S
C1496 O1482 1.252 . S
C1497 C1500 1.394 . S
C1497 C1502 1.370 . S
C1497 C1503 1.500 . S
C1498 C1501 1.383 . S
C1498 C1502 1.395 . S
C1499 C1500 1.396 . S
C1499 C1501 1.365 . S
C1499 H1508 0.929 . S
C1500 C1497 1.394 . S
C1500 C1499 1.396 . S
C1500 H1509 0.930 . S
C1501 C1498 1.383 . S
C1501 C1499 1.365 . S
C1501 H1510 0.931 . S
C1502 C1497 1.370 . S
C1502 C1498 1.395 . S
C1502 H1511 0.930 . S
C1503 Gd1439 2.805 . S
C1503 O1479 1.263 . S
C1503 O1480 1.252 . S
C1503 C1497 1.500 . S
H1504 C1487 0.907 1_556 S
H1505 C1488 0.930 . S
H1506 C1489 0.927 1_556 S
H1507 C1490 0.930 . S
H1508 C1499 0.929 . S
H1509 C1500 0.930 . S
H1510 C1501 0.931 . S
H1511 C1502 0.930 . S
C1512 C1514 1.422 . S
C1512 C1516 1.415 . S
C1512 N1518 1.369 . S
C1513 C1514 1.421 . S
C1513 C1515 1.417 . S
C1513 C1525 1.422 . S
C1514 C1512 1.422 . S
C1514 C1513 1.421 . S
C1514 N1524 1.359 . S
C1515 C1513 1.417 . S
C1515 C1517 1.329 . S
C1515 H1534 0.930 . S
C1516 C1512 1.415 . S
C1516 C1517 1.437 . S
C1516 C1520 1.413 . S
C1517 C1515 1.329 . S
C1517 C1516 1.437 . S
C1517 H1539 0.929 . S
N1518 C1512 1.369 . S
N1518 C1519 1.338 . S
N1518 Gd1523 2.622 . S
C1519 N1518 1.338 . S
C1519 C1521 1.378 . S
C1519 H1531 0.929 . S
C1520 C1516 1.413 . S
C1520 C1521 1.348 . S
C1520 H1536 0.931 . S
C1521 C1519 1.378 . S
C1521 C1520 1.348 . S
C1521 H1537 0.930 . S
Gd1522 N1542 2.622 . S
Gd1522 N1549 2.570 . S
Gd1522 O1556 2.353 . S
Gd1522 O1557 2.468 . S
Gd1522 O1558 2.427 . S
Gd1522 O1560 2.388 . S
Gd1522 O1561 2.386 . S
Gd1522 O1565 2.307 . S
Gd1522 C1575 2.805 . S
Gd1523 N1518 2.622 . S
Gd1523 N1524 2.570 . S
Gd1523 O1555 2.386 . S
Gd1523 O1559 2.307 . S
Gd1523 O1562 2.353 . S
Gd1523 O1563 2.468 . S
Gd1523 O1564 2.427 . S
Gd1523 O1566 2.388 . S
Gd1523 C1587 2.805 . S
N1524 C1514 1.359 . S
N1524 Gd1523 2.570 . S
N1524 C1526 1.343 . S
C1525 C1513 1.422 . S
C1525 C1527 1.321 . S
C1525 H1533 0.931 . S
C1526 N1524 1.343 . S
C1526 C1527 1.390 . S
C1526 H1528 0.931 . S
C1527 C1525 1.321 . S
C1527 C1526 1.390 . S
C1527 H1529 0.930 . S
H1528 C1526 0.931 . S
H1529 C1527 0.930 . S
H1530 C1553 0.931 . S
H1531 C1519 0.929 . S
H1532 C1554 0.930 . S
H1533 C1525 0.931 . S
H1534 C1515 0.930 . S
H1535 C1544 0.929 . S
H1536 C1520 0.931 . S
H1537 C1521 0.930 . S
H1538 C1576 0.930 . S
H1539 C1517 0.929 . S
H1540 C1545 0.931 . S
H1541 C1546 0.930 . S
N1542 Gd1522 2.622 . S
N1542 C1543 1.369 . S
N1542 C1544 1.338 . S
C1543 N1542 1.369 . S
C1543 C1547 1.415 . S
C1543 C1550 1.422 . S
C1544 H1535 0.929 . S
C1544 N1542 1.338 . S
C1544 C1546 1.378 . S
C1545 H1540 0.931 . S
C1545 C1546 1.348 . S
C1545 C1547 1.413 . S
C1546 H1541 0.930 . S
C1546 C1544 1.378 . S
C1546 C1545 1.348 . S
C1547 C1543 1.415 . S
C1547 C1545 1.413 . S
C1547 C1577 1.437 . S
H1548 C1577 0.929 . S
N1549 Gd1522 2.570 . S
N1549 C1550 1.359 . S
N1549 C1553 1.343 . S
C1550 C1543 1.422 . S
C1550 N1549 1.359 . S
C1550 C1552 1.421 . S
C1551 C1552 1.422 . S
C1551 C1554 1.321 . S
C1551 H1578 0.931 . S
C1552 C1550 1.421 . S
C1552 C1551 1.422 . S
C1552 C1576 1.417 . S
C1553 H1530 0.931 . S
C1553 N1549 1.343 . S
C1553 C1554 1.390 . S
C1554 H1532 0.930 . S
C1554 C1551 1.321 . S
C1554 C1553 1.390 . S
O1555 Gd1523 2.386 . S
O1555 C1567 1.265 . S
O1556 Gd1522 2.353 . S
O1556 C1567 1.242 . S
O1557 Gd1522 2.468 . S
O1557 C1575 1.263 . S
O1558 Gd1522 2.427 . S
O1558 C1575 1.252 . S
O1559 Gd1523 2.307 . S
O1559 C1568 1.261 . S
O1560 Gd1522 2.388 . S
O1560 C1568 1.252 . S
O1561 Gd1522 2.386 . S
O1561 C1579 1.265 . S
O1562 Gd1523 2.353 . S
O1562 C1579 1.242 . S
O1563 Gd1523 2.468 . S
O1563 C1587 1.263 . S
O1564 Gd1523 2.427 . S
O1564 C1587 1.252 . S
O1565 Gd1522 2.307 . S
O1565 C1580 1.261 . S
O1566 Gd1523 2.388 . S
O1566 C1580 1.252 . S
C1567 O1555 1.265 . S
C1567 O1556 1.242 . S
C1568 O1559 1.261 . S
C1568 O1560 1.252 . S
C1569 C1572 1.394 . S
C1569 C1574 1.370 . S
C1569 C1575 1.500 . S
C1570 C1573 1.383 . S
C1570 C1574 1.395 . S
C1571 C1572 1.396 . S
C1571 C1573 1.365 . S
C1571 H1588 0.929 . S
C1572 C1569 1.394 . S
C1572 C1571 1.396 . S
C1572 H1589 0.930 . S
C1573 C1570 1.383 . S
C1573 C1571 1.365 . S
C1573 H1590 0.931 . S
C1574 C1569 1.370 . S
C1574 C1570 1.395 . S
C1574 H1591 0.930 . S
C1575 Gd1522 2.805 . S
C1575 O1557 1.263 . S
C1575 O1558 1.252 . S
C1575 C1569 1.500 . S
C1576 H1538 0.930 . S
C1576 C1552 1.417 . S
C1576 C1577 1.329 . S
C1577 C1547 1.437 . S
C1577 H1548 0.929 . S
C1577 C1576 1.329 . S
H1578 C1551 0.931 . S
C1579 O1561 1.265 . S
C1579 O1562 1.242 . S
C1580 O1565 1.261 . S
C1580 O1566 1.252 . S
C1581 C1584 1.394 . S
C1581 C1586 1.370 . S
C1581 C1587 1.500 . S
C1582 C1585 1.383 . S
C1582 C1586 1.395 . S
C1583 C1584 1.396 . S
C1583 C1585 1.365 . S
C1583 H1592 0.929 . S
C1584 C1581 1.394 . S
C1584 C1583 1.396 . S
C1584 H1593 0.930 . S
C1585 C1582 1.383 . S
C1585 C1583 1.365 . S
C1585 H1594 0.931 . S
C1586 C1581 1.370 . S
C1586 C1582 1.395 . S
C1586 H1595 0.930 . S
C1587 Gd1523 2.805 . S
C1587 O1563 1.263 . S
C1587 O1564 1.252 . S
C1587 C1581 1.500 . S
H1588 C1571 0.929 . S
H1589 C1572 0.930 . S
H1590 C1573 0.931 . S
H1591 C1574 0.930 . S
H1592 C1583 0.929 . S
H1593 C1584 0.930 . S
H1594 C1585 0.931 . S
H1595 C1586 0.930 . S
C1596 C1598 1.422 . S
C1596 C1600 1.415 . S
C1596 N1602 1.369 . S
C1597 C1598 1.421 . S
C1597 C1599 1.417 . S
C1597 C1609 1.422 . S
C1598 C1596 1.422 . S
C1598 C1597 1.421 . S
C1598 N1608 1.359 . S
C1599 C1597 1.417 . S
C1599 C1601 1.329 . S
C1599 H1618 0.930 . S
C1600 C1596 1.415 . S
C1600 C1601 1.437 . S
C1600 C1604 1.413 . S
C1601 C1599 1.329 . S
C1601 C1600 1.437 . S
C1601 H1623 0.929 . S
N1602 C1596 1.369 . S
N1602 C1603 1.338 . S
N1602 Gd1607 2.622 . S
C1603 N1602 1.338 . S
C1603 C1605 1.378 . S
C1603 H1615 0.929 1_455 S
C1604 C1600 1.413 . S
C1604 C1605 1.348 . S
C1604 H1620 0.931 . S
C1605 C1603 1.378 . S
C1605 C1604 1.348 . S
C1605 H1621 0.930 . S
Gd1606 N1626 2.622 . S
Gd1606 N1633 2.570 . S
Gd1606 O1640 2.353 . S
Gd1606 O1641 2.468 . S
Gd1606 O1642 2.427 . S
Gd1606 O1644 2.388 . S
Gd1606 O1645 2.386 . S
Gd1606 O1649 2.307 . S
Gd1606 C1659 2.805 . S
Gd1607 N1602 2.622 . S
Gd1607 N1608 2.570 . S
Gd1607 O1639 2.386 1_455 S
Gd1607 O1643 2.307 . S
Gd1607 O1646 2.353 1_455 S
Gd1607 O1647 2.468 . S
Gd1607 O1648 2.427 . S
Gd1607 O1650 2.388 1_455 S
Gd1607 C1671 2.805 . S
N1608 C1598 1.359 . S
N1608 Gd1607 2.570 . S
N1608 C1610 1.343 . S
C1609 C1597 1.422 . S
C1609 C1611 1.321 . S
C1609 H1617 0.931 . S
C1610 N1608 1.343 . S
C1610 C1611 1.390 . S
C1610 H1612 0.931 . S
C1611 C1609 1.321 . S
C1611 C1610 1.390 . S
C1611 H1613 0.930 . S
H1612 C1610 0.931 . S
H1613 C1611 0.930 . S
H1614 C1637 0.931 . S
H1615 C1603 0.929 1_655 S
H1616 C1638 0.930 . S
H1617 C1609 0.931 . S
H1618 C1599 0.930 . S
H1619 C1628 0.929 . S
H1620 C1604 0.931 . S
H1621 C1605 0.930 . S
H1622 C1660 0.930 . S
H1623 C1601 0.929 . S
H1624 C1629 0.931 . S
H1625 C1630 0.930 . S
N1626 Gd1606 2.622 . S
N1626 C1627 1.369 . S
N1626 C1628 1.338 . S
C1627 N1626 1.369 . S
C1627 C1631 1.415 . S
C1627 C1634 1.422 . S
C1628 H1619 0.929 . S
C1628 N1626 1.338 . S
C1628 C1630 1.378 . S
C1629 H1624 0.931 . S
C1629 C1630 1.348 . S
C1629 C1631 1.413 . S
C1630 H1625 0.930 . S
C1630 C1628 1.378 . S
C1630 C1629 1.348 . S
C1631 C1627 1.415 . S
C1631 C1629 1.413 . S
C1631 C1661 1.437 . S
H1632 C1661 0.929 . S
N1633 Gd1606 2.570 . S
N1633 C1634 1.359 . S
N1633 C1637 1.343 . S
C1634 C1627 1.422 . S
C1634 N1633 1.359 . S
C1634 C1636 1.421 . S
C1635 C1636 1.422 . S
C1635 C1638 1.321 . S
C1635 H1662 0.931 . S
C1636 C1634 1.421 . S
C1636 C1635 1.422 . S
C1636 C1660 1.417 . S
C1637 H1614 0.931 . S
C1637 N1633 1.343 . S
C1637 C1638 1.390 . S
C1638 H1616 0.930 . S
C1638 C1635 1.321 . S
C1638 C1637 1.390 . S
O1639 Gd1607 2.386 1_655 S
O1639 C1651 1.265 . S
O1640 Gd1606 2.353 . S
O1640 C1651 1.242 . S
O1641 Gd1606 2.468 . S
O1641 C1659 1.263 . S
O1642 Gd1606 2.427 . S
O1642 C1659 1.252 . S
O1643 Gd1607 2.307 . S
O1643 C1652 1.261 1_455 S
O1644 Gd1606 2.388 . S
O1644 C1652 1.252 . S
O1645 Gd1606 2.386 . S
O1645 C1663 1.265 . S
O1646 Gd1607 2.353 1_655 S
O1646 C1663 1.242 . S
O1647 Gd1607 2.468 . S
O1647 C1671 1.263 . S
O1648 Gd1607 2.427 . S
O1648 C1671 1.252 . S
O1649 Gd1606 2.307 . S
O1649 C1664 1.261 . S
O1650 Gd1607 2.388 1_655 S
O1650 C1664 1.252 . S
C1651 O1639 1.265 . S
C1651 O1640 1.242 . S
C1652 O1643 1.261 1_655 S
C1652 O1644 1.252 . S
C1653 C1656 1.394 . S
C1653 C1658 1.370 . S
C1653 C1659 1.500 . S
C1654 C1657 1.383 . S
C1654 C1658 1.395 . S
C1655 C1656 1.396 . S
C1655 C1657 1.365 . S
C1655 H1672 0.929 . S
C1656 C1653 1.394 . S
C1656 C1655 1.396 . S
C1656 H1673 0.930 . S
C1657 C1654 1.383 . S
C1657 C1655 1.365 . S
C1657 H1674 0.931 . S
C1658 C1653 1.370 . S
C1658 C1654 1.395 . S
C1658 H1675 0.930 . S
C1659 Gd1606 2.805 . S
C1659 O1641 1.263 . S
C1659 O1642 1.252 . S
C1659 C1653 1.500 . S
C1660 H1622 0.930 . S
C1660 C1636 1.417 . S
C1660 C1661 1.329 . S
C1661 C1631 1.437 . S
C1661 H1632 0.929 . S
C1661 C1660 1.329 . S
H1662 C1635 0.931 . S
C1663 O1645 1.265 . S
C1663 O1646 1.242 . S
C1664 O1649 1.261 . S
C1664 O1650 1.252 . S
C1665 C1668 1.394 . S
C1665 C1670 1.370 . S
C1665 C1671 1.500 . S
C1666 C1669 1.383 . S
C1666 C1670 1.395 . S
C1667 C1668 1.396 . S
C1667 C1669 1.365 . S
C1667 H1676 0.929 . S
C1668 C1665 1.394 . S
C1668 C1667 1.396 . S
C1668 H1677 0.930 . S
C1669 C1666 1.383 . S
C1669 C1667 1.365 . S
C1669 H1678 0.931 . S
C1670 C1665 1.370 . S
C1670 C1666 1.395 . S
C1670 H1679 0.930 . S
C1671 Gd1607 2.805 . S
C1671 O1647 1.263 . S
C1671 O1648 1.252 . S
C1671 C1665 1.500 . S
H1672 C1655 0.929 . S
H1673 C1656 0.930 . S
H1674 C1657 0.931 . S
H1675 C1658 0.930 . S
H1676 C1667 0.929 . S
H1677 C1668 0.930 . S
H1678 C1669 0.931 . S
H1679 C1670 0.930 . S
C1680 C1682 1.422 . S
C1680 C1684 1.415 . S
C1680 N1686 1.369 . S
C1681 C1682 1.421 . S
C1681 C1683 1.417 . S
C1681 C1693 1.422 . S
C1682 C1680 1.422 . S
C1682 C1681 1.421 . S
C1682 N1692 1.359 . S
C1683 C1681 1.417 . S
C1683 C1685 1.329 . S
C1683 H1702 0.930 . S
C1684 C1680 1.415 . S
C1684 C1685 1.437 . S
C1684 C1688 1.413 . S
C1685 C1683 1.329 . S
C1685 C1684 1.437 . S
C1685 H1707 0.929 . S
N1686 C1680 1.369 . S
N1686 C1687 1.338 . S
N1686 Gd1691 2.622 . S
C1687 N1686 1.338 . S
C1687 C1689 1.378 . S
C1687 H1699 0.929 . S
C1688 C1684 1.413 . S
C1688 C1689 1.348 . S
C1688 H1704 0.931 . S
C1689 C1687 1.378 . S
C1689 C1688 1.348 . S
C1689 H1705 0.930 . S
Gd1690 N1710 2.622 . S
Gd1690 N1717 2.570 . S
Gd1690 O1724 2.353 . S
Gd1690 O1725 2.468 . S
Gd1690 O1726 2.427 . S
Gd1690 O1728 2.388 . S
Gd1690 O1729 2.386 . S
Gd1690 O1733 2.307 . S
Gd1690 C1743 2.805 . S
Gd1691 N1686 2.622 . S
Gd1691 N1692 2.570 . S
Gd1691 O1723 2.386 . S
Gd1691 O1727 2.307 . S
Gd1691 O1730 2.353 . S
Gd1691 O1731 2.468 . S
Gd1691 O1732 2.427 . S
Gd1691 O1734 2.388 . S
Gd1691 C1755 2.805 . S
N1692 C1682 1.359 . S
N1692 Gd1691 2.570 . S
N1692 C1694 1.343 . S
C1693 C1681 1.422 . S
C1693 C1695 1.321 . S
C1693 H1701 0.931 . S
C1694 N1692 1.343 . S
C1694 C1695 1.390 . S
C1694 H1696 0.931 . S
C1695 C1693 1.321 . S
C1695 C1694 1.390 . S
C1695 H1697 0.930 . S
H1696 C1694 0.931 . S
H1697 C1695 0.930 . S
H1698 C1721 0.931 . S
H1699 C1687 0.929 . S
H1700 C1722 0.930 . S
H1701 C1693 0.931 . S
H1702 C1683 0.930 . S
H1703 C1712 0.929 . S
H1704 C1688 0.931 . S
H1705 C1689 0.930 . S
H1706 C1744 0.930 . S
H1707 C1685 0.929 . S
H1708 C1713 0.931 . S
H1709 C1714 0.930 . S
N1710 Gd1690 2.622 . S
N1710 C1711 1.369 . S
N1710 C1712 1.338 . S
C1711 N1710 1.369 . S
C1711 C1715 1.415 . S
C1711 C1718 1.422 . S
C1712 H1703 0.929 . S
C1712 N1710 1.338 . S
C1712 C1714 1.378 . S
C1713 H1708 0.931 . S
C1713 C1714 1.348 . S
C1713 C1715 1.413 . S
C1714 H1709 0.930 . S
C1714 C1712 1.378 . S
C1714 C1713 1.348 . S
C1715 C1711 1.415 . S
C1715 C1713 1.413 . S
C1715 C1745 1.437 . S
H1716 C1745 0.929 . S
N1717 Gd1690 2.570 . S
N1717 C1718 1.359 . S
N1717 C1721 1.343 . S
C1718 C1711 1.422 . S
C1718 N1717 1.359 . S
C1718 C1720 1.421 . S
C1719 C1720 1.422 . S
C1719 C1722 1.321 . S
C1719 H1746 0.931 . S
C1720 C1718 1.421 . S
C1720 C1719 1.422 . S
C1720 C1744 1.417 . S
C1721 H1698 0.931 . S
C1721 N1717 1.343 . S
C1721 C1722 1.390 . S
C1722 H1700 0.930 . S
C1722 C1719 1.321 . S
C1722 C1721 1.390 . S
O1723 Gd1691 2.386 . S
O1723 C1735 1.265 . S
O1724 Gd1690 2.353 . S
O1724 C1735 1.242 . S
O1725 Gd1690 2.468 . S
O1725 C1743 1.263 . S
O1726 Gd1690 2.427 . S
O1726 C1743 1.252 . S
O1727 Gd1691 2.307 . S
O1727 C1736 1.261 . S
O1728 Gd1690 2.388 . S
O1728 C1736 1.252 . S
O1729 Gd1690 2.386 . S
O1729 C1747 1.265 . S
O1730 Gd1691 2.353 . S
O1730 C1747 1.242 . S
O1731 Gd1691 2.468 . S
O1731 C1755 1.263 . S
O1732 Gd1691 2.427 . S
O1732 C1755 1.252 . S
O1733 Gd1690 2.307 . S
O1733 C1748 1.261 . S
O1734 Gd1691 2.388 . S
O1734 C1748 1.252 . S
C1735 O1723 1.265 . S
C1735 O1724 1.242 . S
C1736 O1727 1.261 . S
C1736 O1728 1.252 . S
C1737 C1740 1.394 . S
C1737 C1742 1.370 . S
C1737 C1743 1.500 . S
C1738 C1741 1.383 . S
C1738 C1742 1.395 . S
C1739 C1740 1.396 . S
C1739 C1741 1.365 . S
C1739 H1756 0.929 . S
C1740 C1737 1.394 . S
C1740 C1739 1.396 . S
C1740 H1757 0.930 . S
C1741 C1738 1.383 . S
C1741 C1739 1.365 . S
C1741 H1758 0.931 . S
C1742 C1737 1.370 . S
C1742 C1738 1.395 . S
C1742 H1759 0.930 . S
C1743 Gd1690 2.805 . S
C1743 O1725 1.263 . S
C1743 O1726 1.252 . S
C1743 C1737 1.500 . S
C1744 H1706 0.930 . S
C1744 C1720 1.417 . S
C1744 C1745 1.329 . S
C1745 C1715 1.437 . S
C1745 H1716 0.929 . S
C1745 C1744 1.329 . S
H1746 C1719 0.931 . S
C1747 O1729 1.265 . S
C1747 O1730 1.242 . S
C1748 O1733 1.261 . S
C1748 O1734 1.252 . S
C1749 C1752 1.394 . S
C1749 C1754 1.370 . S
C1749 C1755 1.500 . S
C1750 C1753 1.383 . S
C1750 C1754 1.395 . S
C1751 C1752 1.396 . S
C1751 C1753 1.365 . S
C1751 H1760 0.929 . S
C1752 C1749 1.394 . S
C1752 C1751 1.396 . S
C1752 H1761 0.930 . S
C1753 C1750 1.383 . S
C1753 C1751 1.365 . S
C1753 H1762 0.931 . S
C1754 C1749 1.370 . S
C1754 C1750 1.395 . S
C1754 H1763 0.930 . S
C1755 Gd1691 2.805 . S
C1755 O1731 1.263 . S
C1755 O1732 1.252 . S
C1755 C1749 1.500 . S
H1756 C1739 0.929 . S
H1757 C1740 0.930 . S
H1758 C1741 0.931 . S
H1759 C1742 0.930 . S
H1760 C1751 0.929 . S
H1761 C1752 0.930 . S
H1762 C1753 0.931 . S
H1763 C1754 0.930 . S
C1764 C1766 1.422 . S
C1764 C1768 1.415 . S
C1764 N1770 1.369 . S
C1765 C1766 1.421 . S
C1765 C1767 1.417 . S
C1765 C1777 1.422 . S
C1766 C1764 1.422 . S
C1766 C1765 1.421 . S
C1766 N1776 1.359 . S
C1767 C1765 1.417 . S
C1767 C1769 1.329 . S
C1767 H1786 0.930 . S
C1768 C1764 1.415 . S
C1768 C1769 1.437 . S
C1768 C1772 1.413 . S
C1769 C1767 1.329 . S
C1769 C1768 1.437 . S
C1769 H1791 0.929 . S
N1770 C1764 1.369 . S
N1770 C1771 1.338 . S
N1770 Gd1775 2.622 . S
C1771 N1770 1.338 . S
C1771 C1773 1.378 . S
C1771 H1783 0.929 1_455 S
C1772 C1768 1.413 . S
C1772 C1773 1.348 . S
C1772 H1788 0.931 . S
C1773 C1771 1.378 . S
C1773 C1772 1.348 . S
C1773 H1789 0.930 . S
Gd1774 N1794 2.622 . S
Gd1774 N1801 2.570 . S
Gd1774 O1808 2.353 . S
Gd1774 O1809 2.468 . S
Gd1774 O1810 2.427 . S
Gd1774 O1812 2.388 . S
Gd1774 O1813 2.386 . S
Gd1774 O1817 2.307 . S
Gd1774 C1827 2.805 . S
Gd1775 N1770 2.622 . S
Gd1775 N1776 2.570 . S
Gd1775 O1807 2.386 1_455 S
Gd1775 O1811 2.307 . S
Gd1775 O1814 2.353 1_455 S
Gd1775 O1815 2.468 . S
Gd1775 O1816 2.427 . S
Gd1775 O1818 2.388 1_455 S
Gd1775 C1839 2.805 . S
N1776 C1766 1.359 . S
N1776 Gd1775 2.570 . S
N1776 C1778 1.343 . S
C1777 C1765 1.422 . S
C1777 C1779 1.321 . S
C1777 H1785 0.931 . S
C1778 N1776 1.343 . S
C1778 C1779 1.390 . S
C1778 H1780 0.931 . S
C1779 C1777 1.321 . S
C1779 C1778 1.390 . S
C1779 H1781 0.930 . S
H1780 C1778 0.931 . S
H1781 C1779 0.930 . S
H1782 C1805 0.931 . S
H1783 C1771 0.929 1_655 S
H1784 C1806 0.930 . S
H1785 C1777 0.931 . S
H1786 C1767 0.930 . S
H1787 C1796 0.929 . S
H1788 C1772 0.931 . S
H1789 C1773 0.930 . S
H1790 C1828 0.930 . S
H1791 C1769 0.929 . S
H1792 C1797 0.931 . S
H1793 C1798 0.930 . S
N1794 Gd1774 2.622 . S
N1794 C1795 1.369 . S
N1794 C1796 1.338 . S
C1795 N1794 1.369 . S
C1795 C1799 1.415 . S
C1795 C1802 1.422 . S
C1796 H1787 0.929 . S
C1796 N1794 1.338 . S
C1796 C1798 1.378 . S
C1797 H1792 0.931 . S
C1797 C1798 1.348 . S
C1797 C1799 1.413 . S
C1798 H1793 0.930 . S
C1798 C1796 1.378 . S
C1798 C1797 1.348 . S
C1799 C1795 1.415 . S
C1799 C1797 1.413 . S
C1799 C1829 1.437 . S
H1800 C1829 0.929 . S
N1801 Gd1774 2.570 . S
N1801 C1802 1.359 . S
N1801 C1805 1.343 . S
C1802 C1795 1.422 . S
C1802 N1801 1.359 . S
C1802 C1804 1.421 . S
C1803 C1804 1.422 . S
C1803 C1806 1.321 . S
C1803 H1830 0.931 . S
C1804 C1802 1.421 . S
C1804 C1803 1.422 . S
C1804 C1828 1.417 . S
C1805 H1782 0.931 . S
C1805 N1801 1.343 . S
C1805 C1806 1.390 . S
C1806 H1784 0.930 . S
C1806 C1803 1.321 . S
C1806 C1805 1.390 . S
O1807 Gd1775 2.386 1_655 S
O1807 C1819 1.265 . S
O1808 Gd1774 2.353 . S
O1808 C1819 1.242 . S
O1809 Gd1774 2.468 . S
O1809 C1827 1.263 . S
O1810 Gd1774 2.427 . S
O1810 C1827 1.252 . S
O1811 Gd1775 2.307 . S
O1811 C1820 1.261 1_455 S
O1812 Gd1774 2.388 . S
O1812 C1820 1.252 . S
O1813 Gd1774 2.386 . S
O1813 C1831 1.265 . S
O1814 Gd1775 2.353 1_655 S
O1814 C1831 1.242 . S
O1815 Gd1775 2.468 . S
O1815 C1839 1.263 . S
O1816 Gd1775 2.427 . S
O1816 C1839 1.252 . S
O1817 Gd1774 2.307 . S
O1817 C1832 1.261 . S
O1818 Gd1775 2.388 1_655 S
O1818 C1832 1.252 . S
C1819 O1807 1.265 . S
C1819 O1808 1.242 . S
C1820 O1811 1.261 1_655 S
C1820 O1812 1.252 . S
C1821 C1824 1.394 . S
C1821 C1826 1.370 . S
C1821 C1827 1.500 . S
C1822 C1825 1.387 . S
C1822 C1826 1.395 . S
C1823 C1824 1.419 . S
C1823 C1825 1.365 . S
C1823 H1840 0.907 1_556 S
C1824 C1821 1.394 . S
C1824 C1823 1.419 . S
C1824 H1841 0.930 . S
C1825 C1822 1.387 . S
C1825 C1823 1.365 . S
C1825 H1842 0.927 1_556 S
C1826 C1821 1.370 . S
C1826 C1822 1.395 . S
C1826 H1843 0.930 . S
C1827 Gd1774 2.805 . S
C1827 O1809 1.263 . S
C1827 O1810 1.252 . S
C1827 C1821 1.500 . S
C1828 H1790 0.930 . S
C1828 C1804 1.417 . S
C1828 C1829 1.329 . S
C1829 C1799 1.437 . S
C1829 H1800 0.929 . S
C1829 C1828 1.329 . S
H1830 C1803 0.931 . S
C1831 O1813 1.265 . S
C1831 O1814 1.242 . S
C1832 O1817 1.261 . S
C1832 O1818 1.252 . S
C1833 C1836 1.394 . S
C1833 C1838 1.370 . S
C1833 C1839 1.500 . S
C1834 C1837 1.383 . S
C1834 C1838 1.395 . S
C1835 C1836 1.396 . S
C1835 C1837 1.365 . S
C1835 H1844 0.929 . S
C1836 C1833 1.394 . S
C1836 C1835 1.396 . S
C1836 H1845 0.930 . S
C1837 C1834 1.383 . S
C1837 C1835 1.365 . S
C1837 H1846 0.931 . S
C1838 C1833 1.370 . S
C1838 C1834 1.395 . S
C1838 H1847 0.930 . S
C1839 Gd1775 2.805 . S
C1839 O1815 1.263 . S
C1839 O1816 1.252 . S
C1839 C1833 1.500 . S
H1840 C1823 0.907 1_554 S
H1841 C1824 0.930 . S
H1842 C1825 0.927 1_554 S
H1843 C1826 0.930 . S
H1844 C1835 0.929 . S
H1845 C1836 0.930 . S
H1846 C1837 0.931 . S
H1847 C1838 0.930 . S
C1848 C1850 1.422 . S
C1848 C1852 1.415 . S
C1848 N1854 1.369 . S
C1849 C1850 1.421 . S
C1849 C1851 1.417 . S
C1849 C1861 1.422 . S
C1850 C1848 1.422 . S
C1850 C1849 1.421 . S
C1850 N1860 1.359 . S
C1851 C1849 1.417 . S
C1851 C1853 1.329 . S
C1851 H1870 0.930 . S
C1852 C1848 1.415 . S
C1852 C1853 1.437 . S
C1852 C1856 1.413 . S
C1853 C1851 1.329 . S
C1853 C1852 1.437 . S
C1853 H1875 0.929 . S
N1854 C1848 1.369 . S
N1854 C1855 1.338 . S
N1854 Gd1859 2.622 . S
C1855 N1854 1.338 . S
C1855 C1857 1.378 . S
C1855 H1867 0.929 . S
C1856 C1852 1.413 . S
C1856 C1857 1.348 . S
C1856 H1872 0.931 . S
C1857 C1855 1.378 . S
C1857 C1856 1.348 . S
C1857 H1873 0.930 . S
Gd1858 N1878 2.622 . S
Gd1858 N1885 2.570 . S
Gd1858 O1892 2.353 . S
Gd1858 O1893 2.468 . S
Gd1858 O1894 2.427 . S
Gd1858 O1896 2.388 . S
Gd1858 O1897 2.386 . S
Gd1858 O1901 2.307 . S
Gd1858 C1911 2.805 . S
Gd1859 N1854 2.622 . S
Gd1859 N1860 2.570 . S
Gd1859 O1891 2.386 . S
Gd1859 O1895 2.307 . S
Gd1859 O1898 2.353 . S
Gd1859 O1899 2.468 . S
Gd1859 O1900 2.427 . S
Gd1859 O1902 2.388 . S
Gd1859 C1923 2.805 . S
N1860 C1850 1.359 . S
N1860 Gd1859 2.570 . S
N1860 C1862 1.343 . S
C1861 C1849 1.422 . S
C1861 C1863 1.321 . S
C1861 H1869 0.931 . S
C1862 N1860 1.343 . S
C1862 C1863 1.390 . S
C1862 H1864 0.931 . S
C1863 C1861 1.321 . S
C1863 C1862 1.390 . S
C1863 H1865 0.930 . S
H1864 C1862 0.931 . S
H1865 C1863 0.930 . S
H1866 C1889 0.931 . S
H1867 C1855 0.929 . S
H1868 C1890 0.930 . S
H1869 C1861 0.931 . S
H1870 C1851 0.930 . S
H1871 C1880 0.929 . S
H1872 C1856 0.931 . S
H1873 C1857 0.930 . S
H1874 C1912 0.930 . S
H1875 C1853 0.929 . S
H1876 C1881 0.931 . S
H1877 C1882 0.930 . S
N1878 Gd1858 2.622 . S
N1878 C1879 1.369 . S
N1878 C1880 1.338 . S
C1879 N1878 1.369 . S
C1879 C1883 1.415 . S
C1879 C1886 1.422 . S
C1880 H1871 0.929 . S
C1880 N1878 1.338 . S
C1880 C1882 1.378 . S
C1881 H1876 0.931 . S
C1881 C1882 1.348 . S
C1881 C1883 1.413 . S
C1882 H1877 0.930 . S
C1882 C1880 1.378 . S
C1882 C1881 1.348 . S
C1883 C1879 1.415 . S
C1883 C1881 1.413 . S
C1883 C1913 1.437 . S
H1884 C1913 0.929 . S
N1885 Gd1858 2.570 . S
N1885 C1886 1.359 . S
N1885 C1889 1.343 . S
C1886 C1879 1.422 . S
C1886 N1885 1.359 . S
C1886 C1888 1.421 . S
C1887 C1888 1.422 . S
C1887 C1890 1.321 . S
C1887 H1914 0.931 . S
C1888 C1886 1.421 . S
C1888 C1887 1.422 . S
C1888 C1912 1.417 . S
C1889 H1866 0.931 . S
C1889 N1885 1.343 . S
C1889 C1890 1.390 . S
C1890 H1868 0.930 . S
C1890 C1887 1.321 . S
C1890 C1889 1.390 . S
O1891 Gd1859 2.386 . S
O1891 C1903 1.265 . S
O1892 Gd1858 2.353 . S
O1892 C1903 1.242 . S
O1893 Gd1858 2.468 . S
O1893 C1911 1.263 . S
O1894 Gd1858 2.427 . S
O1894 C1911 1.252 . S
O1895 Gd1859 2.307 . S
O1895 C1904 1.261 . S
O1896 Gd1858 2.388 . S
O1896 C1904 1.252 . S
O1897 Gd1858 2.386 . S
O1897 C1915 1.265 . S
O1898 Gd1859 2.353 . S
O1898 C1915 1.242 . S
O1899 Gd1859 2.468 . S
O1899 C1923 1.263 . S
O1900 Gd1859 2.427 . S
O1900 C1923 1.252 . S
O1901 Gd1858 2.307 . S
O1901 C1916 1.261 . S
O1902 Gd1859 2.388 . S
O1902 C1916 1.252 . S
C1903 O1891 1.265 . S
C1903 O1892 1.242 . S
C1904 O1895 1.261 . S
C1904 O1896 1.252 . S
C1905 C1908 1.394 . S
C1905 C1910 1.370 . S
C1905 C1911 1.500 . S
C1906 C1909 1.383 . S
C1906 C1910 1.395 . S
C1907 C1908 1.396 . S
C1907 C1909 1.365 . S
C1907 H1924 0.929 . S
C1908 C1905 1.394 . S
C1908 C1907 1.396 . S
C1908 H1925 0.930 . S
C1909 C1906 1.383 . S
C1909 C1907 1.365 . S
C1909 H1926 0.931 . S
C1910 C1905 1.370 . S
C1910 C1906 1.395 . S
C1910 H1927 0.930 . S
C1911 Gd1858 2.805 . S
C1911 O1893 1.263 . S
C1911 O1894 1.252 . S
C1911 C1905 1.500 . S
C1912 H1874 0.930 . S
C1912 C1888 1.417 . S
C1912 C1913 1.329 . S
C1913 C1883 1.437 . S
C1913 H1884 0.929 . S
C1913 C1912 1.329 . S
H1914 C1887 0.931 . S
C1915 O1897 1.265 . S
C1915 O1898 1.242 . S
C1916 O1901 1.261 . S
C1916 O1902 1.252 . S
C1917 C1920 1.394 . S
C1917 C1922 1.370 . S
C1917 C1923 1.500 . S
C1918 C1921 1.383 . S
C1918 C1922 1.395 . S
C1919 C1920 1.396 . S
C1919 C1921 1.365 . S
C1919 H1928 0.929 . S
C1920 C1917 1.394 . S
C1920 C1919 1.396 . S
C1920 H1929 0.930 . S
C1921 C1918 1.383 . S
C1921 C1919 1.365 . S
C1921 H1930 0.931 . S
C1922 C1917 1.370 . S
C1922 C1918 1.395 . S
C1922 H1931 0.930 . S
C1923 Gd1859 2.805 . S
C1923 O1899 1.263 . S
C1923 O1900 1.252 . S
C1923 C1917 1.500 . S
H1924 C1907 0.929 . S
H1925 C1908 0.930 . S
H1926 C1909 0.931 . S
H1927 C1910 0.930 . S
H1928 C1919 0.929 . S
H1929 C1920 0.930 . S
H1930 C1921 0.931 . S
H1931 C1922 0.930 . S
C1932 C1934 1.422 . S
C1932 C1936 1.415 . S
C1932 N1938 1.369 . S
C1933 C1934 1.421 . S
C1933 C1935 1.417 . S
C1933 C1945 1.422 . S
C1934 C1932 1.422 . S
C1934 C1933 1.421 . S
C1934 N1944 1.359 . S
C1935 C1933 1.417 . S
C1935 C1937 1.329 . S
C1935 H1954 0.930 . S
C1936 C1932 1.415 . S
C1936 C1937 1.437 . S
C1936 C1940 1.413 . S
C1937 C1935 1.329 . S
C1937 C1936 1.437 . S
C1937 H1959 0.929 . S
N1938 C1932 1.369 . S
N1938 C1939 1.338 . S
N1938 Gd1943 2.622 . S
C1939 N1938 1.338 . S
C1939 C1941 1.378 . S
C1939 H1951 0.929 . S
C1940 C1936 1.413 . S
C1940 C1941 1.348 . S
C1940 H1956 0.931 . S
C1941 C1939 1.378 . S
C1941 C1940 1.348 . S
C1941 H1957 0.930 . S
Gd1942 N1962 2.622 . S
Gd1942 N1969 2.570 . S
Gd1942 O1976 2.353 . S
Gd1942 O1977 2.468 . S
Gd1942 O1978 2.427 . S
Gd1942 O1980 2.388 . S
Gd1942 O1981 2.386 . S
Gd1942 O1985 2.307 . S
Gd1942 C1995 2.805 . S
Gd1943 N1938 2.622 . S
Gd1943 N1944 2.570 . S
Gd1943 O1975 2.386 . S
Gd1943 O1979 2.307 . S
Gd1943 O1982 2.353 . S
Gd1943 O1983 2.468 . S
Gd1943 O1984 2.427 . S
Gd1943 O1986 2.388 . S
Gd1943 C2007 2.805 . S
N1944 C1934 1.359 . S
N1944 Gd1943 2.570 . S
N1944 C1946 1.343 . S
C1945 C1933 1.422 . S
C1945 C1947 1.321 . S
C1945 H1953 0.931 . S
C1946 N1944 1.343 . S
C1946 C1947 1.390 . S
C1946 H1948 0.931 . S
C1947 C1945 1.321 . S
C1947 C1946 1.390 . S
C1947 H1949 0.930 . S
H1948 C1946 0.931 . S
H1949 C1947 0.930 . S
H1950 C1973 0.931 . S
H1951 C1939 0.929 . S
H1952 C1974 0.930 . S
H1953 C1945 0.931 . S
H1954 C1935 0.930 . S
H1955 C1964 0.929 . S
H1956 C1940 0.931 . S
H1957 C1941 0.930 . S
H1958 C1996 0.930 . S
H1959 C1937 0.929 . S
H1960 C1965 0.931 . S
H1961 C1966 0.930 . S
N1962 Gd1942 2.622 . S
N1962 C1963 1.369 . S
N1962 C1964 1.338 . S
C1963 N1962 1.369 . S
C1963 C1967 1.415 . S
C1963 C1970 1.422 . S
C1964 H1955 0.929 . S
C1964 N1962 1.338 . S
C1964 C1966 1.378 . S
C1965 H1960 0.931 . S
C1965 C1966 1.348 . S
C1965 C1967 1.413 . S
C1966 H1961 0.930 . S
C1966 C1964 1.378 . S
C1966 C1965 1.348 . S
C1967 C1963 1.415 . S
C1967 C1965 1.413 . S
C1967 C1997 1.437 . S
H1968 C1997 0.929 . S
N1969 Gd1942 2.570 . S
N1969 C1970 1.359 . S
N1969 C1973 1.343 . S
C1970 C1963 1.422 . S
C1970 N1969 1.359 . S
C1970 C1972 1.421 . S
C1971 C1972 1.422 . S
C1971 C1974 1.321 . S
C1971 H1998 0.931 . S
C1972 C1970 1.421 . S
C1972 C1971 1.422 . S
C1972 C1996 1.417 . S
C1973 H1950 0.931 . S
C1973 N1969 1.343 . S
C1973 C1974 1.390 . S
C1974 H1952 0.930 . S
C1974 C1971 1.321 . S
C1974 C1973 1.390 . S
O1975 Gd1943 2.386 . S
O1975 C1987 1.265 . S
O1976 Gd1942 2.353 . S
O1976 C1987 1.242 . S
O1977 Gd1942 2.468 . S
O1977 C1995 1.263 . S
O1978 Gd1942 2.427 . S
O1978 C1995 1.252 . S
O1979 Gd1943 2.307 . S
O1979 C1988 1.261 . S
O1980 Gd1942 2.388 . S
O1980 C1988 1.252 . S
O1981 Gd1942 2.386 . S
O1981 C1999 1.265 . S
O1982 Gd1943 2.353 . S
O1982 C1999 1.242 . S
O1983 Gd1943 2.468 . S
O1983 C2007 1.263 . S
O1984 Gd1943 2.427 . S
O1984 C2007 1.252 . S
O1985 Gd1942 2.307 . S
O1985 C2000 1.261 . S
O1986 Gd1943 2.388 . S
O1986 C2000 1.252 . S
C1987 O1975 1.265 . S
C1987 O1976 1.242 . S
C1988 O1979 1.261 . S
C1988 O1980 1.252 . S
C1989 C1992 1.394 . S
C1989 C1994 1.370 . S
C1989 C1995 1.500 . S
C1990 C1993 1.383 . S
C1990 C1994 1.395 . S
C1991 C1992 1.396 . S
C1991 C1993 1.365 . S
C1991 H2008 0.929 . S
C1992 C1989 1.394 . S
C1992 C1991 1.396 . S
C1992 H2009 0.930 . S
C1993 C1990 1.383 . S
C1993 C1991 1.365 . S
C1993 H2010 0.931 . S
C1994 C1989 1.370 . S
C1994 C1990 1.395 . S
C1994 H2011 0.930 . S
C1995 Gd1942 2.805 . S
C1995 O1977 1.263 . S
C1995 O1978 1.252 . S
C1995 C1989 1.500 . S
C1996 H1958 0.930 . S
C1996 C1972 1.417 . S
C1996 C1997 1.329 . S
C1997 C1967 1.437 . S
C1997 H1968 0.929 . S
C1997 C1996 1.329 . S
H1998 C1971 0.931 . S
C1999 O1981 1.265 . S
C1999 O1982 1.242 . S
C2000 O1985 1.261 . S
C2000 O1986 1.252 . S
C2001 C2004 1.394 . S
C2001 C2006 1.370 . S
C2001 C2007 1.500 . S
C2002 C2005 1.383 . S
C2002 C2006 1.395 . S
C2003 C2004 1.396 . S
C2003 C2005 1.365 . S
C2003 H2012 0.929 . S
C2004 C2001 1.394 . S
C2004 C2003 1.396 . S
C2004 H2013 0.930 . S
C2005 C2002 1.383 . S
C2005 C2003 1.365 . S
C2005 H2014 0.931 . S
C2006 C2001 1.370 . S
C2006 C2002 1.395 . S
C2006 H2015 0.930 . S
C2007 Gd1943 2.805 . S
C2007 O1983 1.263 . S
C2007 O1984 1.252 . S
C2007 C2001 1.500 . S
H2008 C1991 0.929 . S
H2009 C1992 0.930 . S
H2010 C1993 0.931 . S
H2011 C1994 0.930 . S
H2012 C2003 0.929 . S
H2013 C2004 0.930 . S
H2014 C2005 0.931 . S
H2015 C2006 0.930 . S
C2016 C2018 1.422 . S
C2016 C2020 1.415 . S
C2016 N2022 1.369 . S
C2017 C2018 1.421 . S
C2017 C2019 1.417 . S
C2017 C2029 1.422 . S
C2018 C2016 1.422 . S
C2018 C2017 1.421 . S
C2018 N2028 1.359 . S
C2019 C2017 1.417 . S
C2019 C2021 1.329 . S
C2019 H2038 0.930 . S
C2020 C2016 1.415 . S
C2020 C2021 1.437 . S
C2020 C2024 1.413 . S
C2021 C2019 1.329 . S
C2021 C2020 1.437 . S
C2021 H2043 0.929 . S
N2022 C2016 1.369 . S
N2022 C2023 1.338 . S
N2022 Gd2027 2.622 . S
C2023 N2022 1.338 . S
C2023 C2025 1.378 . S
C2023 H2035 0.929 . S
C2024 C2020 1.413 . S
C2024 C2025 1.348 . S
C2024 H2040 0.931 . S
C2025 C2023 1.378 . S
C2025 C2024 1.348 . S
C2025 H2041 0.930 . S
Gd2026 N2046 2.622 . S
Gd2026 N2053 2.570 . S
Gd2026 O2060 2.353 . S
Gd2026 O2061 2.468 . S
Gd2026 O2062 2.427 . S
Gd2026 O2064 2.388 . S
Gd2026 O2065 2.386 . S
Gd2026 O2069 2.307 . S
Gd2026 C2079 2.805 . S
Gd2027 N2022 2.622 . S
Gd2027 N2028 2.570 . S
Gd2027 O2059 2.386 . S
Gd2027 O2063 2.307 . S
Gd2027 O2066 2.353 . S
Gd2027 O2067 2.468 . S
Gd2027 O2068 2.427 . S
Gd2027 O2070 2.388 . S
Gd2027 C2091 2.805 . S
N2028 C2018 1.359 . S
N2028 Gd2027 2.570 . S
N2028 C2030 1.343 . S
C2029 C2017 1.422 . S
C2029 C2031 1.321 . S
C2029 H2037 0.931 . S
C2030 N2028 1.343 . S
C2030 C2031 1.390 . S
C2030 H2032 0.931 . S
C2031 C2029 1.321 . S
C2031 C2030 1.390 . S
C2031 H2033 0.930 . S
H2032 C2030 0.931 . S
H2033 C2031 0.930 . S
H2034 C2057 0.931 . S
H2035 C2023 0.929 . S
H2036 C2058 0.930 . S
H2037 C2029 0.931 . S
H2038 C2019 0.930 . S
H2039 C2048 0.929 . S
H2040 C2024 0.931 . S
H2041 C2025 0.930 . S
H2042 C2080 0.930 . S
H2043 C2021 0.929 . S
H2044 C2049 0.931 . S
H2045 C2050 0.930 . S
N2046 Gd2026 2.622 . S
N2046 C2047 1.369 . S
N2046 C2048 1.338 . S
C2047 N2046 1.369 . S
C2047 C2051 1.415 . S
C2047 C2054 1.422 . S
C2048 H2039 0.929 . S
C2048 N2046 1.338 . S
C2048 C2050 1.378 . S
C2049 H2044 0.931 . S
C2049 C2050 1.348 . S
C2049 C2051 1.413 . S
C2050 H2045 0.930 . S
C2050 C2048 1.378 . S
C2050 C2049 1.348 . S
C2051 C2047 1.415 . S
C2051 C2049 1.413 . S
C2051 C2081 1.437 . S
H2052 C2081 0.929 . S
N2053 Gd2026 2.570 . S
N2053 C2054 1.359 . S
N2053 C2057 1.343 . S
C2054 C2047 1.422 . S
C2054 N2053 1.359 . S
C2054 C2056 1.421 . S
C2055 C2056 1.422 . S
C2055 C2058 1.321 . S
C2055 H2082 0.931 . S
C2056 C2054 1.421 . S
C2056 C2055 1.422 . S
C2056 C2080 1.417 . S
C2057 H2034 0.931 . S
C2057 N2053 1.343 . S
C2057 C2058 1.390 . S
C2058 H2036 0.930 . S
C2058 C2055 1.321 . S
C2058 C2057 1.390 . S
O2059 Gd2027 2.386 . S
O2059 C2071 1.265 . S
O2060 Gd2026 2.353 . S
O2060 C2071 1.242 . S
O2061 Gd2026 2.468 . S
O2061 C2079 1.263 . S
O2062 Gd2026 2.427 . S
O2062 C2079 1.252 . S
O2063 Gd2027 2.307 . S
O2063 C2072 1.261 . S
O2064 Gd2026 2.388 . S
O2064 C2072 1.252 . S
O2065 Gd2026 2.386 . S
O2065 C2083 1.265 . S
O2066 Gd2027 2.353 . S
O2066 C2083 1.242 . S
O2067 Gd2027 2.468 . S
O2067 C2091 1.263 . S
O2068 Gd2027 2.427 . S
O2068 C2091 1.252 . S
O2069 Gd2026 2.307 . S
O2069 C2084 1.261 . S
O2070 Gd2027 2.388 . S
O2070 C2084 1.252 . S
C2071 O2059 1.265 . S
C2071 O2060 1.242 . S
C2072 O2063 1.261 . S
C2072 O2064 1.252 . S
C2073 C2076 1.394 . S
C2073 C2078 1.370 . S
C2073 C2079 1.500 . S
C2074 C2077 1.383 . S
C2074 C2078 1.395 . S
C2075 C2076 1.396 . S
C2075 C2077 1.365 . S
C2075 H2092 0.929 . S
C2076 C2073 1.394 . S
C2076 C2075 1.396 . S
C2076 H2093 0.930 . S
C2077 C2074 1.383 . S
C2077 C2075 1.365 . S
C2077 H2094 0.931 . S
C2078 C2073 1.370 . S
C2078 C2074 1.395 . S
C2078 H2095 0.930 . S
C2079 Gd2026 2.805 . S
C2079 O2061 1.263 . S
C2079 O2062 1.252 . S
C2079 C2073 1.500 . S
C2080 H2042 0.930 . S
C2080 C2056 1.417 . S
C2080 C2081 1.329 . S
C2081 C2051 1.437 . S
C2081 H2052 0.929 . S
C2081 C2080 1.329 . S
H2082 C2055 0.931 . S
C2083 O2065 1.265 . S
C2083 O2066 1.242 . S
C2084 O2069 1.261 . S
C2084 O2070 1.252 . S
C2085 C2088 1.394 . S
C2085 C2090 1.370 . S
C2085 C2091 1.500 . S
C2086 C2089 1.383 . S
C2086 C2090 1.395 . S
C2087 C2088 1.396 . S
C2087 C2089 1.365 . S
C2087 H2096 0.929 . S
C2088 C2085 1.394 . S
C2088 C2087 1.396 . S
C2088 H2097 0.930 . S
C2089 C2086 1.383 . S
C2089 C2087 1.365 . S
C2089 H2098 0.931 . S
C2090 C2085 1.370 . S
C2090 C2086 1.395 . S
C2090 H2099 0.930 . S
C2091 Gd2027 2.805 . S
C2091 O2067 1.263 . S
C2091 O2068 1.252 . S
C2091 C2085 1.500 . S
H2092 C2075 0.929 . S
H2093 C2076 0.930 . S
H2094 C2077 0.931 . S
H2095 C2078 0.930 . S
H2096 C2087 0.929 . S
H2097 C2088 0.930 . S
H2098 C2089 0.931 . S
H2099 C2090 0.930 . S
C2100 C2102 1.422 . S
C2100 C2104 1.415 . S
C2100 N2106 1.369 . S
C2101 C2102 1.421 . S
C2101 C2103 1.417 . S
C2101 C2113 1.422 . S
C2102 C2100 1.422 . S
C2102 C2101 1.421 . S
C2102 N2112 1.359 . S
C2103 C2101 1.417 . S
C2103 C2105 1.329 . S
C2103 H2122 0.930 . S
C2104 C2100 1.415 . S
C2104 C2105 1.437 . S
C2104 C2108 1.413 . S
C2105 C2103 1.329 . S
C2105 C2104 1.437 . S
C2105 H2127 0.929 . S
N2106 C2100 1.369 . S
N2106 C2107 1.338 . S
N2106 Gd2111 2.622 . S
C2107 N2106 1.338 . S
C2107 C2109 1.378 . S
C2107 H2119 0.929 . S
C2108 C2104 1.413 . S
C2108 C2109 1.348 . S
C2108 H2124 0.931 . S
C2109 C2107 1.378 . S
C2109 C2108 1.348 . S
C2109 H2125 0.930 . S
Gd2110 N2130 2.622 . S
Gd2110 N2137 2.570 . S
Gd2110 O2144 2.353 . S
Gd2110 O2145 2.468 . S
Gd2110 O2146 2.427 . S
Gd2110 O2148 2.388 . S
Gd2110 O2149 2.386 . S
Gd2110 O2153 2.307 . S
Gd2110 C2163 2.805 . S
Gd2111 N2106 2.622 . S
Gd2111 N2112 2.570 . S
Gd2111 O2143 2.386 . S
Gd2111 O2147 2.307 . S
Gd2111 O2150 2.353 . S
Gd2111 O2151 2.468 . S
Gd2111 O2152 2.427 . S
Gd2111 O2154 2.388 . S
Gd2111 C2175 2.805 . S
N2112 C2102 1.359 . S
N2112 Gd2111 2.570 . S
N2112 C2114 1.343 . S
C2113 C2101 1.422 . S
C2113 C2115 1.321 . S
C2113 H2121 0.931 . S
C2114 N2112 1.343 . S
C2114 C2115 1.390 . S
C2114 H2116 0.931 . S
C2115 C2113 1.321 . S
C2115 C2114 1.390 . S
C2115 H2117 0.930 . S
H2116 C2114 0.931 . S
H2117 C2115 0.930 . S
H2118 C2141 0.931 . S
H2119 C2107 0.929 . S
H2120 C2142 0.930 . S
H2121 C2113 0.931 . S
H2122 C2103 0.930 . S
H2123 C2132 0.929 . S
H2124 C2108 0.931 . S
H2125 C2109 0.930 . S
H2126 C2164 0.930 . S
H2127 C2105 0.929 . S
H2128 C2133 0.931 . S
H2129 C2134 0.930 . S
N2130 Gd2110 2.622 . S
N2130 C2131 1.369 . S
N2130 C2132 1.338 . S
C2131 N2130 1.369 . S
C2131 C2135 1.415 . S
C2131 C2138 1.422 . S
C2132 H2123 0.929 . S
C2132 N2130 1.338 . S
C2132 C2134 1.378 . S
C2133 H2128 0.931 . S
C2133 C2134 1.348 . S
C2133 C2135 1.413 . S
C2134 H2129 0.930 . S
C2134 C2132 1.378 . S
C2134 C2133 1.348 . S
C2135 C2131 1.415 . S
C2135 C2133 1.413 . S
C2135 C2165 1.437 . S
H2136 C2165 0.929 . S
N2137 Gd2110 2.570 . S
N2137 C2138 1.359 . S
N2137 C2141 1.343 . S
C2138 C2131 1.422 . S
C2138 N2137 1.359 . S
C2138 C2140 1.421 . S
C2139 C2140 1.422 . S
C2139 C2142 1.321 . S
C2139 H2166 0.931 . S
C2140 C2138 1.421 . S
C2140 C2139 1.422 . S
C2140 C2164 1.417 . S
C2141 H2118 0.931 . S
C2141 N2137 1.343 . S
C2141 C2142 1.390 . S
C2142 H2120 0.930 . S
C2142 C2139 1.321 . S
C2142 C2141 1.390 . S
O2143 Gd2111 2.386 . S
O2143 C2155 1.265 . S
O2144 Gd2110 2.353 . S
O2144 C2155 1.242 . S
O2145 Gd2110 2.468 . S
O2145 C2163 1.263 . S
O2146 Gd2110 2.427 . S
O2146 C2163 1.252 . S
O2147 Gd2111 2.307 . S
O2147 C2156 1.261 . S
O2148 Gd2110 2.388 . S
O2148 C2156 1.252 . S
O2149 Gd2110 2.386 . S
O2149 C2167 1.265 . S
O2150 Gd2111 2.353 . S
O2150 C2167 1.242 . S
O2151 Gd2111 2.468 . S
O2151 C2175 1.263 . S
O2152 Gd2111 2.427 . S
O2152 C2175 1.252 . S
O2153 Gd2110 2.307 . S
O2153 C2168 1.261 . S
O2154 Gd2111 2.388 . S
O2154 C2168 1.252 . S
C2155 O2143 1.265 . S
C2155 O2144 1.242 . S
C2156 O2147 1.261 . S
C2156 O2148 1.252 . S
C2157 C2160 1.394 . S
C2157 C2162 1.370 . S
C2157 C2163 1.500 . S
C2158 C2161 1.383 . S
C2158 C2162 1.395 . S
C2159 C2160 1.396 . S
C2159 C2161 1.365 . S
C2159 H2176 0.929 . S
C2160 C2157 1.394 . S
C2160 C2159 1.396 . S
C2160 H2177 0.930 . S
C2161 C2158 1.383 . S
C2161 C2159 1.365 . S
C2161 H2178 0.931 . S
C2162 C2157 1.370 . S
C2162 C2158 1.395 . S
C2162 H2179 0.930 . S
C2163 Gd2110 2.805 . S
C2163 O2145 1.263 . S
C2163 O2146 1.252 . S
C2163 C2157 1.500 . S
C2164 H2126 0.930 . S
C2164 C2140 1.417 . S
C2164 C2165 1.329 . S
C2165 C2135 1.437 . S
C2165 H2136 0.929 . S
C2165 C2164 1.329 . S
H2166 C2139 0.931 . S
C2167 O2149 1.265 . S
C2167 O2150 1.242 . S
C2168 O2153 1.261 . S
C2168 O2154 1.252 . S
C2169 C2172 1.394 . S
C2169 C2174 1.370 . S
C2169 C2175 1.500 . S
C2170 C2173 1.387 . S
C2170 C2174 1.395 . S
C2171 C2172 1.419 . S
C2171 C2173 1.365 . S
C2171 H2180 0.907 1_556 S
C2172 C2169 1.394 . S
C2172 C2171 1.419 . S
C2172 H2181 0.930 . S
C2173 C2170 1.387 . S
C2173 C2171 1.365 . S
C2173 H2182 0.927 1_556 S
C2174 C2169 1.370 . S
C2174 C2170 1.395 . S
C2174 H2183 0.930 . S
C2175 Gd2111 2.805 . S
C2175 O2151 1.263 . S
C2175 O2152 1.252 . S
C2175 C2169 1.500 . S
H2176 C2159 0.929 . S
H2177 C2160 0.930 . S
H2178 C2161 0.931 . S
H2179 C2162 0.930 . S
H2180 C2171 0.907 1_554 S
H2181 C2172 0.930 . S
H2182 C2173 0.927 1_554 S
H2183 C2174 0.930 . S
C2184 C2186 1.422 . S
C2184 C2188 1.415 . S
C2184 N2190 1.369 . S
C2185 C2186 1.421 . S
C2185 C2187 1.417 . S
C2185 C2197 1.422 . S
C2186 C2184 1.422 . S
C2186 C2185 1.421 . S
C2186 N2196 1.359 . S
C2187 C2185 1.417 . S
C2187 C2189 1.329 . S
C2187 H2206 0.930 . S
C2188 C2184 1.415 . S
C2188 C2189 1.437 . S
C2188 C2192 1.413 . S
C2189 C2187 1.329 . S
C2189 C2188 1.437 . S
C2189 H2211 0.929 . S
N2190 C2184 1.369 . S
N2190 C2191 1.338 . S
N2190 Gd2195 2.622 . S
C2191 N2190 1.338 . S
C2191 C2193 1.378 . S
C2191 H2203 0.929 . S
C2192 C2188 1.413 . S
C2192 C2193 1.348 . S
C2192 H2208 0.931 . S
C2193 C2191 1.378 . S
C2193 C2192 1.348 . S
C2193 H2209 0.930 . S
Gd2194 N2214 2.622 . S
Gd2194 N2221 2.570 . S
Gd2194 O2228 2.353 . S
Gd2194 O2229 2.468 . S
Gd2194 O2230 2.427 . S
Gd2194 O2232 2.388 . S
Gd2194 O2233 2.386 . S
Gd2194 O2237 2.307 . S
Gd2194 C2247 2.805 . S
Gd2195 N2190 2.622 . S
Gd2195 N2196 2.570 . S
Gd2195 O2227 2.386 . S
Gd2195 O2231 2.307 . S
Gd2195 O2234 2.353 . S
Gd2195 O2235 2.468 . S
Gd2195 O2236 2.427 . S
Gd2195 O2238 2.388 . S
Gd2195 C2259 2.805 . S
N2196 C2186 1.359 . S
N2196 Gd2195 2.570 . S
N2196 C2198 1.343 . S
C2197 C2185 1.422 . S
C2197 C2199 1.321 . S
C2197 H2205 0.931 . S
C2198 N2196 1.343 . S
C2198 C2199 1.390 . S
C2198 H2200 0.931 . S
C2199 C2197 1.321 . S
C2199 C2198 1.390 . S
C2199 H2201 0.930 . S
H2200 C2198 0.931 . S
H2201 C2199 0.930 . S
H2202 C2225 0.931 . S
H2203 C2191 0.929 . S
H2204 C2226 0.930 . S
H2205 C2197 0.931 . S
H2206 C2187 0.930 . S
H2207 C2216 0.929 . S
H2208 C2192 0.931 . S
H2209 C2193 0.930 . S
H2210 C2248 0.930 . S
H2211 C2189 0.929 . S
H2212 C2217 0.931 . S
H2213 C2218 0.930 . S
N2214 Gd2194 2.622 . S
N2214 C2215 1.369 . S
N2214 C2216 1.338 . S
C2215 N2214 1.369 . S
C2215 C2219 1.415 . S
C2215 C2222 1.422 . S
C2216 H2207 0.929 . S
C2216 N2214 1.338 . S
C2216 C2218 1.378 . S
C2217 H2212 0.931 . S
C2217 C2218 1.348 . S
C2217 C2219 1.413 . S
C2218 H2213 0.930 . S
C2218 C2216 1.378 . S
C2218 C2217 1.348 . S
C2219 C2215 1.415 . S
C2219 C2217 1.413 . S
C2219 C2249 1.437 . S
H2220 C2249 0.929 . S
N2221 Gd2194 2.570 . S
N2221 C2222 1.359 . S
N2221 C2225 1.343 . S
C2222 C2215 1.422 . S
C2222 N2221 1.359 . S
C2222 C2224 1.421 . S
C2223 C2224 1.422 . S
C2223 C2226 1.321 . S
C2223 H2250 0.931 . S
C2224 C2222 1.421 . S
C2224 C2223 1.422 . S
C2224 C2248 1.417 . S
C2225 H2202 0.931 . S
C2225 N2221 1.343 . S
C2225 C2226 1.390 . S
C2226 H2204 0.930 . S
C2226 C2223 1.321 . S
C2226 C2225 1.390 . S
O2227 Gd2195 2.386 . S
O2227 C2239 1.265 . S
O2228 Gd2194 2.353 . S
O2228 C2239 1.242 . S
O2229 Gd2194 2.468 . S
O2229 C2247 1.263 . S
O2230 Gd2194 2.427 . S
O2230 C2247 1.252 . S
O2231 Gd2195 2.307 . S
O2231 C2240 1.261 . S
O2232 Gd2194 2.388 . S
O2232 C2240 1.252 . S
O2233 Gd2194 2.386 . S
O2233 C2251 1.265 . S
O2234 Gd2195 2.353 . S
O2234 C2251 1.242 . S
O2235 Gd2195 2.468 . S
O2235 C2259 1.263 . S
O2236 Gd2195 2.427 . S
O2236 C2259 1.252 . S
O2237 Gd2194 2.307 . S
O2237 C2252 1.261 . S
O2238 Gd2195 2.388 . S
O2238 C2252 1.252 . S
C2239 O2227 1.265 . S
C2239 O2228 1.242 . S
C2240 O2231 1.261 . S
C2240 O2232 1.252 . S
C2241 C2244 1.394 . S
C2241 C2246 1.370 . S
C2241 C2247 1.500 . S
C2242 C2245 1.383 . S
C2242 C2246 1.395 . S
C2243 C2244 1.396 . S
C2243 C2245 1.365 . S
C2243 H2260 0.929 . S
C2244 C2241 1.394 . S
C2244 C2243 1.396 . S
C2244 H2261 0.930 . S
C2245 C2242 1.383 . S
C2245 C2243 1.365 . S
C2245 H2262 0.931 . S
C2246 C2241 1.370 . S
C2246 C2242 1.395 . S
C2246 H2263 0.930 . S
C2247 Gd2194 2.805 . S
C2247 O2229 1.263 . S
C2247 O2230 1.252 . S
C2247 C2241 1.500 . S
C2248 H2210 0.930 . S
C2248 C2224 1.417 . S
C2248 C2249 1.329 . S
C2249 C2219 1.437 . S
C2249 H2220 0.929 . S
C2249 C2248 1.329 . S
H2250 C2223 0.931 . S
C2251 O2233 1.265 . S
C2251 O2234 1.242 . S
C2252 O2237 1.261 . S
C2252 O2238 1.252 . S
C2253 C2256 1.394 . S
C2253 C2258 1.370 . S
C2253 C2259 1.500 . S
C2254 C2257 1.383 . S
C2254 C2258 1.395 . S
C2255 C2256 1.396 . S
C2255 C2257 1.365 . S
C2255 H2264 0.929 . S
C2256 C2253 1.394 . S
C2256 C2255 1.396 . S
C2256 H2265 0.930 . S
C2257 C2254 1.383 . S
C2257 C2255 1.365 . S
C2257 H2266 0.931 . S
C2258 C2253 1.370 . S
C2258 C2254 1.395 . S
C2258 H2267 0.930 . S
C2259 Gd2195 2.805 . S
C2259 O2235 1.263 . S
C2259 O2236 1.252 . S
C2259 C2253 1.500 . S
H2260 C2243 0.929 . S
H2261 C2244 0.930 . S
H2262 C2245 0.931 . S
H2263 C2246 0.930 . S
H2264 C2255 0.929 . S
H2265 C2256 0.930 . S
H2266 C2257 0.931 . S
H2267 C2258 0.930 . S
C2268 C2270 1.422 . S
C2268 C2272 1.415 . S
C2268 N2274 1.369 . S
C2269 C2270 1.421 . S
C2269 C2271 1.417 . S
C2269 C2281 1.422 . S
C2270 C2268 1.422 . S
C2270 C2269 1.421 . S
C2270 N2280 1.359 . S
C2271 C2269 1.417 . S
C2271 C2273 1.329 . S
C2271 H2290 0.930 . S
C2272 C2268 1.415 . S
C2272 C2273 1.437 . S
C2272 C2276 1.413 . S
C2273 C2271 1.329 . S
C2273 C2272 1.437 . S
C2273 H2295 0.929 . S
N2274 C2268 1.369 . S
N2274 C2275 1.338 . S
N2274 Gd2279 2.622 . S
C2275 N2274 1.338 . S
C2275 C2277 1.378 . S
C2275 H2287 0.929 . S
C2276 C2272 1.413 . S
C2276 C2277 1.348 . S
C2276 H2292 0.931 . S
C2277 C2275 1.378 . S
C2277 C2276 1.348 . S
C2277 H2293 0.930 . S
Gd2278 N2298 2.622 . S
Gd2278 N2305 2.570 . S
Gd2278 O2312 2.353 1_655 S
Gd2278 O2313 2.468 . S
Gd2278 O2314 2.427 . S
Gd2278 O2316 2.388 1_655 S
Gd2278 O2317 2.386 1_655 S
Gd2278 O2321 2.307 . S
Gd2278 C2331 2.805 . S
Gd2279 N2274 2.622 . S
Gd2279 N2280 2.570 . S
Gd2279 O2311 2.386 . S
Gd2279 O2315 2.307 . S
Gd2279 O2318 2.353 . S
Gd2279 O2319 2.468 . S
Gd2279 O2320 2.427 . S
Gd2279 O2322 2.388 . S
Gd2279 C2343 2.805 . S
N2280 C2270 1.359 . S
N2280 Gd2279 2.570 . S
N2280 C2282 1.343 . S
C2281 C2269 1.422 . S
C2281 C2283 1.321 . S
C2281 H2289 0.931 . S
C2282 N2280 1.343 . S
C2282 C2283 1.390 . S
C2282 H2284 0.931 . S
C2283 C2281 1.321 . S
C2283 C2282 1.390 . S
C2283 H2285 0.930 . S
H2284 C2282 0.931 . S
H2285 C2283 0.930 . S
H2286 C2309 0.931 . S
H2287 C2275 0.929 . S
H2288 C2310 0.930 . S
H2289 C2281 0.931 . S
H2290 C2271 0.930 . S
H2291 C2300 0.929 1_455 S
H2292 C2276 0.931 . S
H2293 C2277 0.930 . S
H2294 C2332 0.930 . S
H2295 C2273 0.929 . S
H2296 C2301 0.931 . S
H2297 C2302 0.930 . S
N2298 Gd2278 2.622 . S
N2298 C2299 1.369 . S
N2298 C2300 1.338 . S
C2299 N2298 1.369 . S
C2299 C2303 1.415 . S
C2299 C2306 1.422 . S
C2300 H2291 0.929 1_655 S
C2300 N2298 1.338 . S
C2300 C2302 1.378 . S
C2301 H2296 0.931 . S
C2301 C2302 1.348 . S
C2301 C2303 1.413 . S
C2302 H2297 0.930 . S
C2302 C2300 1.378 . S
C2302 C2301 1.348 . S
C2303 C2299 1.415 . S
C2303 C2301 1.413 . S
C2303 C2333 1.437 . S
H2304 C2333 0.929 . S
N2305 Gd2278 2.570 . S
N2305 C2306 1.359 . S
N2305 C2309 1.343 . S
C2306 C2299 1.422 . S
C2306 N2305 1.359 . S
C2306 C2308 1.421 . S
C2307 C2308 1.422 . S
C2307 C2310 1.321 . S
C2307 H2334 0.931 . S
C2308 C2306 1.421 . S
C2308 C2307 1.422 . S
C2308 C2332 1.417 . S
C2309 H2286 0.931 . S
C2309 N2305 1.343 . S
C2309 C2310 1.390 . S
C2310 H2288 0.930 . S
C2310 C2307 1.321 . S
C2310 C2309 1.390 . S
O2311 Gd2279 2.386 . S
O2311 C2323 1.265 . S
O2312 Gd2278 2.353 1_455 S
O2312 C2323 1.242 . S
O2313 Gd2278 2.468 . S
O2313 C2331 1.263 . S
O2314 Gd2278 2.427 . S
O2314 C2331 1.252 . S
O2315 Gd2279 2.307 . S
O2315 C2324 1.261 . S
O2316 Gd2278 2.388 1_455 S
O2316 C2324 1.252 . S
O2317 Gd2278 2.386 1_455 S
O2317 C2335 1.265 . S
O2318 Gd2279 2.353 . S
O2318 C2335 1.242 . S
O2319 Gd2279 2.468 . S
O2319 C2343 1.263 . S
O2320 Gd2279 2.427 . S
O2320 C2343 1.252 . S
O2321 Gd2278 2.307 . S
O2321 C2336 1.261 1_655 S
O2322 Gd2279 2.388 . S
O2322 C2336 1.252 . S
C2323 O2311 1.265 . S
C2323 O2312 1.242 . S
C2324 O2315 1.261 . S
C2324 O2316 1.252 . S
C2325 C2328 1.394 . S
C2325 C2330 1.370 . S
C2325 C2331 1.500 . S
C2326 C2329 1.383 . S
C2326 C2330 1.395 . S
C2327 C2328 1.396 . S
C2327 C2329 1.365 . S
C2327 H2344 0.929 . S
C2328 C2325 1.394 . S
C2328 C2327 1.396 . S
C2328 H2345 0.930 . S
C2329 C2326 1.383 . S
C2329 C2327 1.365 . S
C2329 H2346 0.931 . S
C2330 C2325 1.370 . S
C2330 C2326 1.395 . S
C2330 H2347 0.930 . S
C2331 Gd2278 2.805 . S
C2331 O2313 1.263 . S
C2331 O2314 1.252 . S
C2331 C2325 1.500 . S
C2332 H2294 0.930 . S
C2332 C2308 1.417 . S
C2332 C2333 1.329 . S
C2333 C2303 1.437 . S
C2333 H2304 0.929 . S
C2333 C2332 1.329 . S
H2334 C2307 0.931 . S
C2335 O2317 1.265 . S
C2335 O2318 1.242 . S
C2336 O2321 1.261 1_455 S
C2336 O2322 1.252 . S
C2337 C2340 1.394 . S
C2337 C2342 1.370 . S
C2337 C2343 1.500 . S
C2338 C2341 1.383 . S
C2338 C2342 1.395 . S
C2339 C2340 1.396 . S
C2339 C2341 1.365 . S
C2339 H2348 0.929 . S
C2340 C2337 1.394 . S
C2340 C2339 1.396 . S
C2340 H2349 0.930 . S
C2341 C2338 1.383 . S
C2341 C2339 1.365 . S
C2341 H2350 0.931 . S
C2342 C2337 1.370 . S
C2342 C2338 1.395 . S
C2342 H2351 0.930 . S
C2343 Gd2279 2.805 . S
C2343 O2319 1.263 . S
C2343 O2320 1.252 . S
C2343 C2337 1.500 . S
H2344 C2327 0.929 . S
H2345 C2328 0.930 . S
H2346 C2329 0.931 . S
H2347 C2330 0.930 . S
H2348 C2339 0.929 . S
H2349 C2340 0.930 . S
H2350 C2341 0.931 . S
H2351 C2342 0.930 . S
C2352 C2354 1.422 . S
C2352 C2356 1.415 . S
C2352 N2358 1.369 . S
C2353 C2354 1.421 . S
C2353 C2355 1.417 . S
C2353 C2365 1.422 . S
C2354 C2352 1.422 . S
C2354 C2353 1.421 . S
C2354 N2364 1.359 . S
C2355 C2353 1.417 . S
C2355 C2357 1.329 . S
C2355 H2374 0.930 . S
C2356 C2352 1.415 . S
C2356 C2357 1.437 . S
C2356 C2360 1.413 . S
C2357 C2355 1.329 . S
C2357 C2356 1.437 . S
C2357 H2379 0.929 . S
N2358 C2352 1.369 . S
N2358 C2359 1.338 . S
N2358 Gd2363 2.622 . S
C2359 N2358 1.338 . S
C2359 C2361 1.378 . S
C2359 H2371 0.929 . S
C2360 C2356 1.413 . S
C2360 C2361 1.348 . S
C2360 H2376 0.931 . S
C2361 C2359 1.378 . S
C2361 C2360 1.348 . S
C2361 H2377 0.930 . S
Gd2362 N2382 2.622 . S
Gd2362 N2389 2.570 . S
Gd2362 O2396 2.353 . S
Gd2362 O2397 2.468 . S
Gd2362 O2398 2.427 . S
Gd2362 O2400 2.388 . S
Gd2362 O2401 2.386 . S
Gd2362 O2405 2.307 . S
Gd2362 C2415 2.805 . S
Gd2363 N2358 2.622 . S
Gd2363 N2364 2.570 . S
Gd2363 O2395 2.386 . S
Gd2363 O2399 2.307 . S
Gd2363 O2402 2.353 . S
Gd2363 O2403 2.468 . S
Gd2363 O2404 2.427 . S
Gd2363 O2406 2.388 . S
Gd2363 C2427 2.805 . S
N2364 C2354 1.359 . S
N2364 Gd2363 2.570 . S
N2364 C2366 1.343 . S
C2365 C2353 1.422 . S
C2365 C2367 1.321 . S
C2365 H2373 0.931 . S
C2366 N2364 1.343 . S
C2366 C2367 1.390 . S
C2366 H2368 0.931 . S
C2367 C2365 1.321 . S
C2367 C2366 1.390 . S
C2367 H2369 0.930 . S
H2368 C2366 0.931 . S
H2369 C2367 0.930 . S
H2370 C2393 0.931 . S
H2371 C2359 0.929 . S
H2372 C2394 0.930 . S
H2373 C2365 0.931 . S
H2374 C2355 0.930 . S
H2375 C2384 0.929 . S
H2376 C2360 0.931 . S
H2377 C2361 0.930 . S
H2378 C2416 0.930 . S
H2379 C2357 0.929 . S
H2380 C2385 0.931 . S
H2381 C2386 0.930 . S
N2382 Gd2362 2.622 . S
N2382 C2383 1.369 . S
N2382 C2384 1.338 . S
C2383 N2382 1.369 . S
C2383 C2387 1.415 . S
C2383 C2390 1.422 . S
C2384 H2375 0.929 . S
C2384 N2382 1.338 . S
C2384 C2386 1.378 . S
C2385 H2380 0.931 . S
C2385 C2386 1.348 . S
C2385 C2387 1.413 . S
C2386 H2381 0.930 . S
C2386 C2384 1.378 . S
C2386 C2385 1.348 . S
C2387 C2383 1.415 . S
C2387 C2385 1.413 . S
C2387 C2417 1.437 . S
H2388 C2417 0.929 . S
N2389 Gd2362 2.570 . S
N2389 C2390 1.359 . S
N2389 C2393 1.343 . S
C2390 C2383 1.422 . S
C2390 N2389 1.359 . S
C2390 C2392 1.421 . S
C2391 C2392 1.422 . S
C2391 C2394 1.321 . S
C2391 H2418 0.931 . S
C2392 C2390 1.421 . S
C2392 C2391 1.422 . S
C2392 C2416 1.417 . S
C2393 H2370 0.931 . S
C2393 N2389 1.343 . S
C2393 C2394 1.390 . S
C2394 H2372 0.930 . S
C2394 C2391 1.321 . S
C2394 C2393 1.390 . S
O2395 Gd2363 2.386 . S
O2395 C2407 1.265 . S
O2396 Gd2362 2.353 . S
O2396 C2407 1.242 . S
O2397 Gd2362 2.468 . S
O2397 C2415 1.263 . S
O2398 Gd2362 2.427 . S
O2398 C2415 1.252 . S
O2399 Gd2363 2.307 . S
O2399 C2408 1.261 . S
O2400 Gd2362 2.388 . S
O2400 C2408 1.252 . S
O2401 Gd2362 2.386 . S
O2401 C2419 1.265 . S
O2402 Gd2363 2.353 . S
O2402 C2419 1.242 . S
O2403 Gd2363 2.468 . S
O2403 C2427 1.263 . S
O2404 Gd2363 2.427 . S
O2404 C2427 1.252 . S
O2405 Gd2362 2.307 . S
O2405 C2420 1.261 . S
O2406 Gd2363 2.388 . S
O2406 C2420 1.252 . S
C2407 O2395 1.265 . S
C2407 O2396 1.242 . S
C2408 O2399 1.261 . S
C2408 O2400 1.252 . S
C2409 C2412 1.394 . S
C2409 C2414 1.370 . S
C2409 C2415 1.500 . S
C2410 C2413 1.383 . S
C2410 C2414 1.395 . S
C2411 C2412 1.396 . S
C2411 C2413 1.365 . S
C2411 H2428 0.929 . S
C2412 C2409 1.394 . S
C2412 C2411 1.396 . S
C2412 H2429 0.930 . S
C2413 C2410 1.383 . S
C2413 C2411 1.365 . S
C2413 H2430 0.931 . S
C2414 C2409 1.370 . S
C2414 C2410 1.395 . S
C2414 H2431 0.930 . S
C2415 Gd2362 2.805 . S
C2415 O2397 1.263 . S
C2415 O2398 1.252 . S
C2415 C2409 1.500 . S
C2416 H2378 0.930 . S
C2416 C2392 1.417 . S
C2416 C2417 1.329 . S
C2417 C2387 1.437 . S
C2417 H2388 0.929 . S
C2417 C2416 1.329 . S
H2418 C2391 0.931 . S
C2419 O2401 1.265 . S
C2419 O2402 1.242 . S
C2420 O2405 1.261 . S
C2420 O2406 1.252 . S
C2421 C2424 1.394 . S
C2421 C2426 1.370 . S
C2421 C2427 1.500 . S
C2422 C2425 1.383 . S
C2422 C2426 1.395 . S
C2423 C2424 1.396 . S
C2423 C2425 1.365 . S
C2423 H2432 0.929 . S
C2424 C2421 1.394 . S
C2424 C2423 1.396 . S
C2424 H2433 0.930 . S
C2425 C2422 1.383 . S
C2425 C2423 1.365 . S
C2425 H2434 0.931 . S
C2426 C2421 1.370 . S
C2426 C2422 1.395 . S
C2426 H2435 0.930 . S
C2427 Gd2363 2.805 . S
C2427 O2403 1.263 . S
C2427 O2404 1.252 . S
C2427 C2421 1.500 . S
H2428 C2411 0.929 . S
H2429 C2412 0.930 . S
H2430 C2413 0.931 . S
H2431 C2414 0.930 . S
H2432 C2423 0.929 . S
H2433 C2424 0.930 . S
H2434 C2425 0.931 . S
H2435 C2426 0.930 . S
C2436 C2438 1.422 . S
C2436 C2440 1.415 . S
C2436 N2442 1.369 . S
C2437 C2438 1.421 . S
C2437 C2439 1.417 . S
C2437 C2449 1.422 . S
C2438 C2436 1.422 . S
C2438 C2437 1.421 . S
C2438 N2448 1.359 . S
C2439 C2437 1.417 . S
C2439 C2441 1.329 . S
C2439 H2458 0.930 . S
C2440 C2436 1.415 . S
C2440 C2441 1.437 . S
C2440 C2444 1.413 . S
C2441 C2439 1.329 . S
C2441 C2440 1.437 . S
C2441 H2463 0.929 . S
N2442 C2436 1.369 . S
N2442 C2443 1.338 . S
N2442 Gd2447 2.622 . S
C2443 N2442 1.338 . S
C2443 C2445 1.378 . S
C2443 H2455 0.929 . S
C2444 C2440 1.413 . S
C2444 C2445 1.348 . S
C2444 H2460 0.931 . S
C2445 C2443 1.378 . S
C2445 C2444 1.348 . S
C2445 H2461 0.930 . S
Gd2446 N2466 2.622 . S
Gd2446 N2473 2.570 . S
Gd2446 O2480 2.353 1_655 S
Gd2446 O2481 2.468 . S
Gd2446 O2482 2.427 . S
Gd2446 O2484 2.388 1_655 S
Gd2446 O2485 2.386 1_655 S
Gd2446 O2489 2.307 . S
Gd2446 C2499 2.805 . S
Gd2447 N2442 2.622 . S
Gd2447 N2448 2.570 . S
Gd2447 O2479 2.386 . S
Gd2447 O2483 2.307 . S
Gd2447 O2486 2.353 . S
Gd2447 O2487 2.468 . S
Gd2447 O2488 2.427 . S
Gd2447 O2490 2.388 . S
Gd2447 C2511 2.805 . S
N2448 C2438 1.359 . S
N2448 Gd2447 2.570 . S
N2448 C2450 1.343 . S
C2449 C2437 1.422 . S
C2449 C2451 1.321 . S
C2449 H2457 0.931 . S
C2450 N2448 1.343 . S
C2450 C2451 1.390 . S
C2450 H2452 0.931 . S
C2451 C2449 1.321 . S
C2451 C2450 1.390 . S
C2451 H2453 0.930 . S
H2452 C2450 0.931 . S
H2453 C2451 0.930 . S
H2454 C2477 0.931 . S
H2455 C2443 0.929 . S
H2456 C2478 0.930 . S
H2457 C2449 0.931 . S
H2458 C2439 0.930 . S
H2459 C2468 0.929 1_455 S
H2460 C2444 0.931 . S
H2461 C2445 0.930 . S
H2462 C2500 0.930 . S
H2463 C2441 0.929 . S
H2464 C2469 0.931 . S
H2465 C2470 0.930 . S
N2466 Gd2446 2.622 . S
N2466 C2467 1.369 . S
N2466 C2468 1.338 . S
C2467 N2466 1.369 . S
C2467 C2471 1.415 . S
C2467 C2474 1.422 . S
C2468 H2459 0.929 1_655 S
C2468 N2466 1.338 . S
C2468 C2470 1.378 . S
C2469 H2464 0.931 . S
C2469 C2470 1.348 . S
C2469 C2471 1.413 . S
C2470 H2465 0.930 . S
C2470 C2468 1.378 . S
C2470 C2469 1.348 . S
C2471 C2467 1.415 . S
C2471 C2469 1.413 . S
C2471 C2501 1.437 . S
H2472 C2501 0.929 . S
N2473 Gd2446 2.570 . S
N2473 C2474 1.359 . S
N2473 C2477 1.343 . S
C2474 C2467 1.422 . S
C2474 N2473 1.359 . S
C2474 C2476 1.421 . S
C2475 C2476 1.422 . S
C2475 C2478 1.321 . S
C2475 H2502 0.931 . S
C2476 C2474 1.421 . S
C2476 C2475 1.422 . S
C2476 C2500 1.417 . S
C2477 H2454 0.931 . S
C2477 N2473 1.343 . S
C2477 C2478 1.390 . S
C2478 H2456 0.930 . S
C2478 C2475 1.321 . S
C2478 C2477 1.390 . S
O2479 Gd2447 2.386 . S
O2479 C2491 1.265 . S
O2480 Gd2446 2.353 1_455 S
O2480 C2491 1.242 . S
O2481 Gd2446 2.468 . S
O2481 C2499 1.263 . S
O2482 Gd2446 2.427 . S
O2482 C2499 1.252 . S
O2483 Gd2447 2.307 . S
O2483 C2492 1.261 . S
O2484 Gd2446 2.388 1_455 S
O2484 C2492 1.252 . S
O2485 Gd2446 2.386 1_455 S
O2485 C2503 1.265 . S
O2486 Gd2447 2.353 . S
O2486 C2503 1.242 . S
O2487 Gd2447 2.468 . S
O2487 C2511 1.263 . S
O2488 Gd2447 2.427 . S
O2488 C2511 1.252 . S
O2489 Gd2446 2.307 . S
O2489 C2504 1.261 1_655 S
O2490 Gd2447 2.388 . S
O2490 C2504 1.252 . S
C2491 O2479 1.265 . S
C2491 O2480 1.242 . S
C2492 O2483 1.261 . S
C2492 O2484 1.252 . S
C2493 C2496 1.394 . S
C2493 C2498 1.370 . S
C2493 C2499 1.500 . S
C2494 C2497 1.383 . S
C2494 C2498 1.395 . S
C2495 C2496 1.396 . S
C2495 C2497 1.365 . S
C2495 H2512 0.929 . S
C2496 C2493 1.394 . S
C2496 C2495 1.396 . S
C2496 H2513 0.930 . S
C2497 C2494 1.383 . S
C2497 C2495 1.365 . S
C2497 H2514 0.931 . S
C2498 C2493 1.370 . S
C2498 C2494 1.395 . S
C2498 H2515 0.930 . S
C2499 Gd2446 2.805 . S
C2499 O2481 1.263 . S
C2499 O2482 1.252 . S
C2499 C2493 1.500 . S
C2500 H2462 0.930 . S
C2500 C2476 1.417 . S
C2500 C2501 1.329 . S
C2501 C2471 1.437 . S
C2501 H2472 0.929 . S
C2501 C2500 1.329 . S
H2502 C2475 0.931 . S
C2503 O2485 1.265 . S
C2503 O2486 1.242 . S
C2504 O2489 1.261 1_455 S
C2504 O2490 1.252 . S
C2505 C2508 1.394 . S
C2505 C2510 1.370 . S
C2505 C2511 1.500 . S
C2506 C2509 1.387 . S
C2506 C2510 1.395 . S
C2507 C2508 1.419 . S
C2507 C2509 1.365 . S
C2507 H2516 0.907 1_554 S
C2508 C2505 1.394 . S
C2508 C2507 1.419 . S
C2508 H2517 0.930 . S
C2509 C2506 1.387 . S
C2509 C2507 1.365 . S
C2509 H2518 0.927 1_554 S
C2510 C2505 1.370 . S
C2510 C2506 1.395 . S
C2510 H2519 0.930 . S
C2511 Gd2447 2.805 . S
C2511 O2487 1.263 . S
C2511 O2488 1.252 . S
C2511 C2505 1.500 . S
H2512 C2495 0.929 . S
H2513 C2496 0.930 . S
H2514 C2497 0.931 . S
H2515 C2498 0.930 . S
H2516 C2507 0.907 1_556 S
H2517 C2508 0.930 . S
H2518 C2509 0.927 1_556 S
H2519 C2510 0.930 . S
C2520 C2522 1.422 . S
C2520 C2524 1.415 . S
C2520 N2526 1.369 . S
C2521 C2522 1.421 . S
C2521 C2523 1.417 . S
C2521 C2533 1.422 . S
C2522 C2520 1.422 . S
C2522 C2521 1.421 . S
C2522 N2532 1.359 . S
C2523 C2521 1.417 . S
C2523 C2525 1.329 . S
C2523 H2542 0.930 . S
C2524 C2520 1.415 . S
C2524 C2525 1.437 . S
C2524 C2528 1.413 . S
C2525 C2523 1.329 . S
C2525 C2524 1.437 . S
C2525 H2547 0.929 . S
N2526 C2520 1.369 . S
N2526 C2527 1.338 . S
N2526 Gd2531 2.622 . S
C2527 N2526 1.338 . S
C2527 C2529 1.378 . S
C2527 H2539 0.929 . S
C2528 C2524 1.413 . S
C2528 C2529 1.348 . S
C2528 H2544 0.931 . S
C2529 C2527 1.378 . S
C2529 C2528 1.348 . S
C2529 H2545 0.930 . S
Gd2530 N2550 2.622 . S
Gd2530 N2557 2.570 . S
Gd2530 O2564 2.353 . S
Gd2530 O2565 2.468 . S
Gd2530 O2566 2.427 . S
Gd2530 O2568 2.388 . S
Gd2530 O2569 2.386 . S
Gd2530 O2573 2.307 . S
Gd2530 C2583 2.805 . S
Gd2531 N2526 2.622 . S
Gd2531 N2532 2.570 . S
Gd2531 O2563 2.386 . S
Gd2531 O2567 2.307 . S
Gd2531 O2570 2.353 . S
Gd2531 O2571 2.468 . S
Gd2531 O2572 2.427 . S
Gd2531 O2574 2.388 . S
Gd2531 C2595 2.805 . S
N2532 C2522 1.359 . S
N2532 Gd2531 2.570 . S
N2532 C2534 1.343 . S
C2533 C2521 1.422 . S
C2533 C2535 1.321 . S
C2533 H2541 0.931 . S
C2534 N2532 1.343 . S
C2534 C2535 1.390 . S
C2534 H2536 0.931 . S
C2535 C2533 1.321 . S
C2535 C2534 1.390 . S
C2535 H2537 0.930 . S
H2536 C2534 0.931 . S
H2537 C2535 0.930 . S
H2538 C2561 0.931 . S
H2539 C2527 0.929 . S
H2540 C2562 0.930 . S
H2541 C2533 0.931 . S
H2542 C2523 0.930 . S
H2543 C2552 0.929 . S
H2544 C2528 0.931 . S
H2545 C2529 0.930 . S
H2546 C2584 0.930 . S
H2547 C2525 0.929 . S
H2548 C2553 0.931 . S
H2549 C2554 0.930 . S
N2550 Gd2530 2.622 . S
N2550 C2551 1.369 . S
N2550 C2552 1.338 . S
C2551 N2550 1.369 . S
C2551 C2555 1.415 . S
C2551 C2558 1.422 . S
C2552 H2543 0.929 . S
C2552 N2550 1.338 . S
C2552 C2554 1.378 . S
C2553 H2548 0.931 . S
C2553 C2554 1.348 . S
C2553 C2555 1.413 . S
C2554 H2549 0.930 . S
C2554 C2552 1.378 . S
C2554 C2553 1.348 . S
C2555 C2551 1.415 . S
C2555 C2553 1.413 . S
C2555 C2585 1.437 . S
H2556 C2585 0.929 . S
N2557 Gd2530 2.570 . S
N2557 C2558 1.359 . S
N2557 C2561 1.343 . S
C2558 C2551 1.422 . S
C2558 N2557 1.359 . S
C2558 C2560 1.421 . S
C2559 C2560 1.422 . S
C2559 C2562 1.321 . S
C2559 H2586 0.931 . S
C2560 C2558 1.421 . S
C2560 C2559 1.422 . S
C2560 C2584 1.417 . S
C2561 H2538 0.931 . S
C2561 N2557 1.343 . S
C2561 C2562 1.390 . S
C2562 H2540 0.930 . S
C2562 C2559 1.321 . S
C2562 C2561 1.390 . S
O2563 Gd2531 2.386 . S
O2563 C2575 1.265 . S
O2564 Gd2530 2.353 . S
O2564 C2575 1.242 . S
O2565 Gd2530 2.468 . S
O2565 C2583 1.263 . S
O2566 Gd2530 2.427 . S
O2566 C2583 1.252 . S
O2567 Gd2531 2.307 . S
O2567 C2576 1.261 . S
O2568 Gd2530 2.388 . S
O2568 C2576 1.252 . S
O2569 Gd2530 2.386 . S
O2569 C2587 1.265 . S
O2570 Gd2531 2.353 . S
O2570 C2587 1.242 . S
O2571 Gd2531 2.468 . S
O2571 C2595 1.263 . S
O2572 Gd2531 2.427 . S
O2572 C2595 1.252 . S
O2573 Gd2530 2.307 . S
O2573 C2588 1.261 . S
O2574 Gd2531 2.388 . S
O2574 C2588 1.252 . S
C2575 O2563 1.265 . S
C2575 O2564 1.242 . S
C2576 O2567 1.261 . S
C2576 O2568 1.252 . S
C2577 C2580 1.394 . S
C2577 C2582 1.370 . S
C2577 C2583 1.500 . S
C2578 C2581 1.383 . S
C2578 C2582 1.395 . S
C2579 C2580 1.396 . S
C2579 C2581 1.365 . S
C2579 H2596 0.929 . S
C2580 C2577 1.394 . S
C2580 C2579 1.396 . S
C2580 H2597 0.930 . S
C2581 C2578 1.383 . S
C2581 C2579 1.365 . S
C2581 H2598 0.931 . S
C2582 C2577 1.370 . S
C2582 C2578 1.395 . S
C2582 H2599 0.930 . S
C2583 Gd2530 2.805 . S
C2583 O2565 1.263 . S
C2583 O2566 1.252 . S
C2583 C2577 1.500 . S
C2584 H2546 0.930 . S
C2584 C2560 1.417 . S
C2584 C2585 1.329 . S
C2585 C2555 1.437 . S
C2585 H2556 0.929 . S
C2585 C2584 1.329 . S
H2586 C2559 0.931 . S
C2587 O2569 1.265 . S
C2587 O2570 1.242 . S
C2588 O2573 1.261 . S
C2588 O2574 1.252 . S
C2589 C2592 1.394 . S
C2589 C2594 1.370 . S
C2589 C2595 1.500 . S
C2590 C2593 1.383 . S
C2590 C2594 1.395 . S
C2591 C2592 1.396 . S
C2591 C2593 1.365 . S
C2591 H2600 0.929 . S
C2592 C2589 1.394 . S
C2592 C2591 1.396 . S
C2592 H2601 0.930 . S
C2593 C2590 1.383 . S
C2593 C2591 1.365 . S
C2593 H2602 0.931 . S
C2594 C2589 1.370 . S
C2594 C2590 1.395 . S
C2594 H2603 0.930 . S
C2595 Gd2531 2.805 . S
C2595 O2571 1.263 . S
C2595 O2572 1.252 . S
C2595 C2589 1.500 . S
H2596 C2579 0.929 . S
H2597 C2580 0.930 . S
H2598 C2581 0.931 . S
H2599 C2582 0.930 . S
H2600 C2591 0.929 . S
H2601 C2592 0.930 . S
H2602 C2593 0.931 . S
H2603 C2594 0.930 . S
C2604 C2606 1.422 . S
C2604 C2608 1.415 . S
C2604 N2610 1.369 . S
C2605 C2606 1.421 . S
C2605 C2607 1.417 . S
C2605 C2617 1.422 . S
C2606 C2604 1.422 . S
C2606 C2605 1.421 . S
C2606 N2616 1.359 . S
C2607 C2605 1.417 . S
C2607 C2609 1.329 . S
C2607 H2626 0.930 . S
C2608 C2604 1.415 . S
C2608 C2609 1.437 . S
C2608 C2612 1.413 . S
C2609 C2607 1.329 . S
C2609 C2608 1.437 . S
C2609 H2631 0.929 . S
N2610 C2604 1.369 . S
N2610 C2611 1.338 . S
N2610 Gd2615 2.622 . S
C2611 N2610 1.338 . S
C2611 C2613 1.378 . S
C2611 H2623 0.929 . S
C2612 C2608 1.413 . S
C2612 C2613 1.348 . S
C2612 H2628 0.931 . S
C2613 C2611 1.378 . S
C2613 C2612 1.348 . S
C2613 H2629 0.930 . S
Gd2614 N2634 2.622 . S
Gd2614 N2641 2.570 . S
Gd2614 O2648 2.353 . S
Gd2614 O2649 2.468 . S
Gd2614 O2650 2.427 . S
Gd2614 O2652 2.388 . S
Gd2614 O2653 2.386 . S
Gd2614 O2657 2.307 . S
Gd2614 C2667 2.805 . S
Gd2615 N2610 2.622 . S
Gd2615 N2616 2.570 . S
Gd2615 O2647 2.386 . S
Gd2615 O2651 2.307 . S
Gd2615 O2654 2.353 . S
Gd2615 O2655 2.468 . S
Gd2615 O2656 2.427 . S
Gd2615 O2658 2.388 . S
Gd2615 C2679 2.805 . S
N2616 C2606 1.359 . S
N2616 Gd2615 2.570 . S
N2616 C2618 1.343 . S
C2617 C2605 1.422 . S
C2617 C2619 1.321 . S
C2617 H2625 0.931 . S
C2618 N2616 1.343 . S
C2618 C2619 1.390 . S
C2618 H2620 0.931 . S
C2619 C2617 1.321 . S
C2619 C2618 1.390 . S
C2619 H2621 0.930 . S
H2620 C2618 0.931 . S
H2621 C2619 0.930 . S
H2622 C2645 0.931 . S
H2623 C2611 0.929 . S
H2624 C2646 0.930 . S
H2625 C2617 0.931 . S
H2626 C2607 0.930 . S
H2627 C2636 0.929 . S
H2628 C2612 0.931 . S
H2629 C2613 0.930 . S
H2630 C2668 0.930 . S
H2631 C2609 0.929 . S
H2632 C2637 0.931 . S
H2633 C2638 0.930 . S
N2634 Gd2614 2.622 . S
N2634 C2635 1.369 . S
N2634 C2636 1.338 . S
C2635 N2634 1.369 . S
C2635 C2639 1.415 . S
C2635 C2642 1.422 . S
C2636 H2627 0.929 . S
C2636 N2634 1.338 . S
C2636 C2638 1.378 . S
C2637 H2632 0.931 . S
C2637 C2638 1.348 . S
C2637 C2639 1.413 . S
C2638 H2633 0.930 . S
C2638 C2636 1.378 . S
C2638 C2637 1.348 . S
C2639 C2635 1.415 . S
C2639 C2637 1.413 . S
C2639 C2669 1.437 . S
H2640 C2669 0.929 . S
N2641 Gd2614 2.570 . S
N2641 C2642 1.359 . S
N2641 C2645 1.343 . S
C2642 C2635 1.422 . S
C2642 N2641 1.359 . S
C2642 C2644 1.421 . S
C2643 C2644 1.422 . S
C2643 C2646 1.321 . S
C2643 H2670 0.931 . S
C2644 C2642 1.421 . S
C2644 C2643 1.422 . S
C2644 C2668 1.417 . S
C2645 H2622 0.931 . S
C2645 N2641 1.343 . S
C2645 C2646 1.390 . S
C2646 H2624 0.930 . S
C2646 C2643 1.321 . S
C2646 C2645 1.390 . S
O2647 Gd2615 2.386 . S
O2647 C2659 1.265 . S
O2648 Gd2614 2.353 . S
O2648 C2659 1.242 . S
O2649 Gd2614 2.468 . S
O2649 C2667 1.263 . S
O2650 Gd2614 2.427 . S
O2650 C2667 1.252 . S
O2651 Gd2615 2.307 . S
O2651 C2660 1.261 . S
O2652 Gd2614 2.388 . S
O2652 C2660 1.252 . S
O2653 Gd2614 2.386 . S
O2653 C2671 1.265 . S
O2654 Gd2615 2.353 . S
O2654 C2671 1.242 . S
O2655 Gd2615 2.468 . S
O2655 C2679 1.263 . S
O2656 Gd2615 2.427 . S
O2656 C2679 1.252 . S
O2657 Gd2614 2.307 . S
O2657 C2672 1.261 . S
O2658 Gd2615 2.388 . S
O2658 C2672 1.252 . S
C2659 O2647 1.265 . S
C2659 O2648 1.242 . S
C2660 O2651 1.261 . S
C2660 O2652 1.252 . S
C2661 C2664 1.394 . S
C2661 C2666 1.370 . S
C2661 C2667 1.500 . S
C2662 C2665 1.383 . S
C2662 C2666 1.395 . S
C2663 C2664 1.396 . S
C2663 C2665 1.365 . S
C2663 H2680 0.929 . S
C2664 C2661 1.394 . S
C2664 C2663 1.396 . S
C2664 H2681 0.930 . S
C2665 C2662 1.383 . S
C2665 C2663 1.365 . S
C2665 H2682 0.931 . S
C2666 C2661 1.370 . S
C2666 C2662 1.395 . S
C2666 H2683 0.930 . S
C2667 Gd2614 2.805 . S
C2667 O2649 1.263 . S
C2667 O2650 1.252 . S
C2667 C2661 1.500 . S
C2668 H2630 0.930 . S
C2668 C2644 1.417 . S
C2668 C2669 1.329 . S
C2669 C2639 1.437 . S
C2669 H2640 0.929 . S
C2669 C2668 1.329 . S
H2670 C2643 0.931 . S
C2671 O2653 1.265 . S
C2671 O2654 1.242 . S
C2672 O2657 1.261 . S
C2672 O2658 1.252 . S
C2673 C2676 1.394 . S
C2673 C2678 1.370 . S
C2673 C2679 1.500 . S
C2674 C2677 1.383 . S
C2674 C2678 1.395 . S
C2675 C2676 1.396 . S
C2675 C2677 1.365 . S
C2675 H2684 0.929 . S
C2676 C2673 1.394 . S
C2676 C2675 1.396 . S
C2676 H2685 0.930 . S
C2677 C2674 1.383 . S
C2677 C2675 1.365 . S
C2677 H2686 0.931 . S
C2678 C2673 1.370 . S
C2678 C2674 1.395 . S
C2678 H2687 0.930 . S
C2679 Gd2615 2.805 . S
C2679 O2655 1.263 . S
C2679 O2656 1.252 . S
C2679 C2673 1.500 . S
H2680 C2663 0.929 . S
H2681 C2664 0.930 . S
H2682 C2665 0.931 . S
H2683 C2666 0.930 . S
H2684 C2675 0.929 . S
H2685 C2676 0.930 . S
H2686 C2677 0.931 . S
H2687 C2678 0.930 . S
C2688 C2689 1.369 . S
C2688 C2690 1.419 . S
C2688 H2692 0.930 . S
C2689 C2688 1.369 . S
C2689 C2698 1.429 . S
C2690 C2688 1.419 . S
C2690 C2691 1.363 . S
C2690 H2693 0.929 . S
C2691 C2690 1.363 . S
C2691 C2697 1.428 . S
H2692 C2688 0.930 . S
H2693 C2690 0.929 . S
S2694 N2695 1.613 . S
S2694 N2696 1.610 . S
N2695 S2694 1.613 . S
N2695 C2698 1.350 . S
N2696 S2694 1.610 . S
N2696 C2697 1.351 . S
C2697 C2691 1.428 . S
C2697 N2696 1.351 . S
C2697 C2698 1.434 . S
C2698 C2689 1.429 . S
C2698 N2695 1.350 . S
C2698 C2697 1.434 . S
C2699 C2700 1.369 . S
C2699 C2701 1.419 . S
C2699 H2703 0.930 . S
C2700 C2699 1.369 . S
C2700 C2709 1.429 . S
C2701 C2699 1.419 . S
C2701 C2702 1.363 . S
C2701 H2704 0.929 . S
C2702 C2701 1.363 . S
C2702 C2708 1.428 . S
H2703 C2699 0.930 . S
H2704 C2701 0.929 . S
S2705 N2706 1.613 . S
S2705 N2707 1.610 . S
N2706 S2705 1.613 . S
N2706 C2709 1.350 . S
N2707 S2705 1.610 . S
N2707 C2708 1.351 . S
C2708 C2702 1.428 . S
C2708 N2707 1.351 . S
C2708 C2709 1.434 . S
C2709 C2700 1.429 . S
C2709 N2706 1.350 . S
C2709 C2708 1.434 . S
C2710 C2711 1.369 . S
C2710 C2712 1.419 . S
C2710 H2714 0.930 . S
C2711 C2710 1.369 . S
C2711 C2720 1.429 . S
C2712 C2710 1.419 . S
C2712 C2713 1.363 . S
C2712 H2715 0.929 . S
C2713 C2712 1.363 . S
C2713 C2719 1.428 . S
H2714 C2710 0.930 . S
H2715 C2712 0.929 . S
S2716 N2717 1.613 . S
S2716 N2718 1.610 . S
N2717 S2716 1.613 . S
N2717 C2720 1.350 . S
N2718 S2716 1.610 . S
N2718 C2719 1.351 . S
C2719 C2713 1.428 . S
C2719 N2718 1.351 . S
C2719 C2720 1.434 . S
C2720 C2711 1.429 . S
C2720 N2717 1.350 . S
C2720 C2719 1.434 . S
C2721 C2722 1.369 . S
C2721 C2723 1.419 . S
C2721 H2725 0.930 . S
C2722 C2721 1.369 . S
C2722 C2731 1.429 . S
C2723 C2721 1.419 . S
C2723 C2724 1.363 . S
C2723 H2726 0.929 . S
C2724 C2723 1.363 . S
C2724 C2730 1.428 . S
H2725 C2721 0.930 . S
H2726 C2723 0.929 . S
S2727 N2728 1.613 . S
S2727 N2729 1.610 . S
N2728 S2727 1.613 . S
N2728 C2731 1.350 . S
N2729 S2727 1.610 . S
N2729 C2730 1.351 . S
C2730 C2724 1.428 . S
C2730 N2729 1.351 . S
C2730 C2731 1.434 . S
C2731 C2722 1.429 . S
C2731 N2728 1.350 . S
C2731 C2730 1.434 . S
C2732 C2733 1.369 . S
C2732 C2734 1.419 . S
C2732 H2736 0.930 . S
C2733 C2732 1.369 . S
C2733 C2742 1.429 . S
C2734 C2732 1.419 . S
C2734 C2735 1.363 . S
C2734 H2737 0.929 . S
C2735 C2734 1.363 . S
C2735 C2741 1.428 . S
H2736 C2732 0.930 . S
H2737 C2734 0.929 . S
S2738 N2739 1.613 . S
S2738 N2740 1.610 . S
N2739 S2738 1.613 . S
N2739 C2742 1.350 . S
N2740 S2738 1.610 . S
N2740 C2741 1.351 . S
C2741 C2735 1.428 . S
C2741 N2740 1.351 . S
C2741 C2742 1.434 . S
C2742 C2733 1.429 . S
C2742 N2739 1.350 . S
C2742 C2741 1.434 . S
C2743 C2744 1.369 . S
C2743 C2745 1.419 . S
C2743 H2747 0.930 . S
C2744 C2743 1.369 . S
C2744 C2753 1.429 . S
C2745 C2743 1.419 . S
C2745 C2746 1.363 . S
C2745 H2748 0.929 . S
C2746 C2745 1.363 . S
C2746 C2752 1.428 . S
H2747 C2743 0.930 . S
H2748 C2745 0.929 . S
S2749 N2750 1.613 . S
S2749 N2751 1.610 . S
N2750 S2749 1.613 . S
N2750 C2753 1.350 . S
N2751 S2749 1.610 . S
N2751 C2752 1.351 . S
C2752 C2746 1.428 . S
C2752 N2751 1.351 . S
C2752 C2753 1.434 . S
C2753 C2744 1.429 . S
C2753 N2750 1.350 . S
C2753 C2752 1.434 . S
C2754 C2755 1.369 . S
C2754 C2756 1.419 . S
C2754 H2758 0.930 . S
C2755 C2754 1.369 . S
C2755 C2764 1.429 . S
C2756 C2754 1.419 . S
C2756 C2757 1.363 . S
C2756 H2759 0.929 . S
C2757 C2756 1.363 . S
C2757 C2763 1.428 . S
H2758 C2754 0.930 . S
H2759 C2756 0.929 . S
S2760 N2761 1.613 . S
S2760 N2762 1.610 . S
N2761 S2760 1.613 . S
N2761 C2764 1.350 . S
N2762 S2760 1.610 . S
N2762 C2763 1.351 . S
C2763 C2757 1.428 . S
C2763 N2762 1.351 . S
C2763 C2764 1.434 . S
C2764 C2755 1.429 . S
C2764 N2761 1.350 . S
C2764 C2763 1.434 . S
C2765 C2766 1.369 . S
C2765 C2767 1.419 . S
C2765 H2769 0.930 . S
C2766 C2765 1.369 . S
C2766 C2775 1.429 . S
C2767 C2765 1.419 . S
C2767 C2768 1.363 . S
C2767 H2770 0.929 . S
C2768 C2767 1.363 . S
C2768 C2774 1.428 . S
H2769 C2765 0.930 . S
H2770 C2767 0.929 . S
S2771 N2772 1.613 . S
S2771 N2773 1.610 . S
N2772 S2771 1.613 . S
N2772 C2775 1.350 . S
N2773 S2771 1.610 . S
N2773 C2774 1.351 . S
C2774 C2768 1.428 . S
C2774 N2773 1.351 . S
C2774 C2775 1.434 . S
C2775 C2766 1.429 . S
C2775 N2772 1.350 . S
C2775 C2774 1.434 . S
C2776 C2777 1.369 . S
C2776 C2778 1.419 . S
C2776 H2780 0.930 . S
C2777 C2776 1.369 . S
C2777 C2786 1.429 . S
C2778 C2776 1.419 . S
C2778 C2779 1.363 . S
C2778 H2781 0.929 . S
C2779 C2778 1.363 . S
C2779 C2785 1.428 . S
H2780 C2776 0.930 . S
H2781 C2778 0.929 . S
S2782 N2783 1.613 . S
S2782 N2784 1.610 . S
N2783 S2782 1.613 . S
N2783 C2786 1.350 . S
N2784 S2782 1.610 . S
N2784 C2785 1.351 . S
C2785 C2779 1.428 . S
C2785 N2784 1.351 . S
C2785 C2786 1.434 . S
C2786 C2777 1.429 . S
C2786 N2783 1.350 . S
C2786 C2785 1.434 . S
C2787 C2788 1.369 . S
C2787 C2789 1.419 . S
C2787 H2791 0.930 . S
C2788 C2787 1.369 . S
C2788 C2797 1.429 . S
C2789 C2787 1.419 . S
C2789 C2790 1.363 . S
C2789 H2792 0.929 . S
C2790 C2789 1.363 . S
C2790 C2796 1.428 . S
H2791 C2787 0.930 . S
H2792 C2789 0.929 . S
S2793 N2794 1.613 . S
S2793 N2795 1.610 . S
N2794 S2793 1.613 . S
N2794 C2797 1.350 . S
N2795 S2793 1.610 . S
N2795 C2796 1.351 . S
C2796 C2790 1.428 . S
C2796 N2795 1.351 . S
C2796 C2797 1.434 . S
C2797 C2788 1.429 . S
C2797 N2794 1.350 . S
C2797 C2796 1.434 . S
C2798 C2799 1.369 . S
C2798 C2800 1.419 . S
C2798 H2802 0.930 . S
C2799 C2798 1.369 . S
C2799 C2808 1.429 . S
C2800 C2798 1.419 . S
C2800 C2801 1.363 . S
C2800 H2803 0.929 . S
C2801 C2800 1.363 . S
C2801 C2807 1.428 . S
H2802 C2798 0.930 . S
H2803 C2800 0.929 . S
S2804 N2805 1.613 . S
S2804 N2806 1.610 . S
N2805 S2804 1.613 . S
N2805 C2808 1.350 . S
N2806 S2804 1.610 . S
N2806 C2807 1.351 . S
C2807 C2801 1.428 . S
C2807 N2806 1.351 . S
C2807 C2808 1.434 . S
C2808 C2799 1.429 . S
C2808 N2805 1.350 . S
C2808 C2807 1.434 . S
C2809 C2810 1.369 . S
C2809 C2811 1.419 . S
C2809 H2813 0.930 . S
C2810 C2809 1.369 . S
C2810 C2819 1.429 . S
C2811 C2809 1.419 . S
C2811 C2812 1.363 . S
C2811 H2814 0.929 . S
C2812 C2811 1.363 . S
C2812 C2818 1.428 . S
H2813 C2809 0.930 . S
H2814 C2811 0.929 . S
S2815 N2816 1.613 . S
S2815 N2817 1.610 . S
N2816 S2815 1.613 . S
N2816 C2819 1.350 . S
N2817 S2815 1.610 . S
N2817 C2818 1.351 . S
C2818 C2812 1.428 . S
C2818 N2817 1.351 . S
C2818 C2819 1.434 . S
C2819 C2810 1.429 . S
C2819 N2816 1.350 . S
C2819 C2818 1.434 . S
C2820 C2821 1.369 . S
C2820 C2822 1.419 . S
C2820 H2824 0.930 . S
C2821 C2820 1.369 . S
C2821 C2830 1.429 . S
C2822 C2820 1.419 . S
C2822 C2823 1.363 . S
C2822 H2825 0.929 . S
C2823 C2822 1.363 . S
C2823 C2829 1.428 . S
H2824 C2820 0.930 . S
H2825 C2822 0.929 . S
S2826 N2827 1.613 . S
S2826 N2828 1.610 . S
N2827 S2826 1.613 . S
N2827 C2830 1.350 . S
N2828 S2826 1.610 . S
N2828 C2829 1.351 . S
C2829 C2823 1.428 . S
C2829 N2828 1.351 . S
C2829 C2830 1.434 . S
C2830 C2821 1.429 . S
C2830 N2827 1.350 . S
C2830 C2829 1.434 . S
C2831 C2832 1.369 . S
C2831 C2833 1.419 . S
C2831 H2835 0.930 . S
C2832 C2831 1.369 . S
C2832 C2841 1.429 . S
C2833 C2831 1.419 . S
C2833 C2834 1.363 . S
C2833 H2836 0.929 . S
C2834 C2833 1.363 . S
C2834 C2840 1.428 . S
H2835 C2831 0.930 . S
H2836 C2833 0.929 . S
S2837 N2838 1.613 . S
S2837 N2839 1.610 . S
N2838 S2837 1.613 . S
N2838 C2841 1.350 . S
N2839 S2837 1.610 . S
N2839 C2840 1.351 . S
C2840 C2834 1.428 . S
C2840 N2839 1.351 . S
C2840 C2841 1.434 . S
C2841 C2832 1.429 . S
C2841 N2838 1.350 . S
C2841 C2840 1.434 . S
C2842 C2843 1.369 . S
C2842 C2844 1.419 . S
C2842 H2846 0.930 . S
C2843 C2842 1.369 . S
C2843 C2852 1.429 . S
C2844 C2842 1.419 . S
C2844 C2845 1.363 . S
C2844 H2847 0.929 . S
C2845 C2844 1.363 . S
C2845 C2851 1.428 . S
H2846 C2842 0.930 . S
H2847 C2844 0.929 . S
S2848 N2849 1.613 . S
S2848 N2850 1.610 . S
N2849 S2848 1.613 . S
N2849 C2852 1.350 . S
N2850 S2848 1.610 . S
N2850 C2851 1.351 . S
C2851 C2845 1.428 . S
C2851 N2850 1.351 . S
C2851 C2852 1.434 . S
C2852 C2843 1.429 . S
C2852 N2849 1.350 . S
C2852 C2851 1.434 . S
C2853 C2854 1.369 . S
C2853 C2855 1.419 . S
C2853 H2857 0.930 . S
C2854 C2853 1.369 . S
C2854 C2863 1.429 . S
C2855 C2853 1.419 . S
C2855 C2856 1.363 . S
C2855 H2858 0.929 . S
C2856 C2855 1.363 . S
C2856 C2862 1.428 . S
H2857 C2853 0.930 . S
H2858 C2855 0.929 . S
S2859 N2860 1.613 . S
S2859 N2861 1.610 . S
N2860 S2859 1.613 . S
N2860 C2863 1.350 . S
N2861 S2859 1.610 . S
N2861 C2862 1.351 . S
C2862 C2856 1.428 . S
C2862 N2861 1.351 . S
C2862 C2863 1.434 . S
C2863 C2854 1.429 . S
C2863 N2860 1.350 . S
C2863 C2862 1.434 . S
C2864 C2865 1.369 . S
C2864 C2866 1.419 . S
C2864 H2868 0.930 . S
C2865 C2864 1.369 . S
C2865 C2874 1.429 . S
C2866 C2864 1.419 . S
C2866 C2867 1.363 . S
C2866 H2869 0.929 . S
C2867 C2866 1.363 . S
C2867 C2873 1.428 . S
H2868 C2864 0.930 . S
H2869 C2866 0.929 . S
S2870 N2871 1.613 . S
S2870 N2872 1.610 . S
N2871 S2870 1.613 . S
N2871 C2874 1.350 . S
N2872 S2870 1.610 . S
N2872 C2873 1.351 . S
C2873 C2867 1.428 . S
C2873 N2872 1.351 . S
C2873 C2874 1.434 . S
C2874 C2865 1.429 . S
C2874 N2871 1.350 . S
C2874 C2873 1.434 . S
C2875 C2876 1.369 . S
C2875 C2877 1.419 . S
C2875 H2879 0.930 . S
C2876 C2875 1.369 . S
C2876 C2885 1.429 . S
C2877 C2875 1.419 . S
C2877 C2878 1.363 . S
C2877 H2880 0.929 . S
C2878 C2877 1.363 . S
C2878 C2884 1.428 . S
H2879 C2875 0.930 . S
H2880 C2877 0.929 . S
S2881 N2882 1.613 . S
S2881 N2883 1.610 . S
N2882 S2881 1.613 . S
N2882 C2885 1.350 . S
N2883 S2881 1.610 . S
N2883 C2884 1.351 . S
C2884 C2878 1.428 . S
C2884 N2883 1.351 . S
C2884 C2885 1.434 . S
C2885 C2876 1.429 . S
C2885 N2882 1.350 . S
C2885 C2884 1.434 . S
C2886 C2887 1.369 . S
C2886 C2888 1.419 . S
C2886 H2890 0.930 . S
C2887 C2886 1.369 . S
C2887 C2896 1.429 . S
C2888 C2886 1.419 . S
C2888 C2889 1.363 . S
C2888 H2891 0.929 . S
C2889 C2888 1.363 . S
C2889 C2895 1.428 . S
H2890 C2886 0.930 . S
H2891 C2888 0.929 . S
S2892 N2893 1.613 . S
S2892 N2894 1.610 . S
N2893 S2892 1.613 . S
N2893 C2896 1.350 . S
N2894 S2892 1.610 . S
N2894 C2895 1.351 . S
C2895 C2889 1.428 . S
C2895 N2894 1.351 . S
C2895 C2896 1.434 . S
C2896 C2887 1.429 . S
C2896 N2893 1.350 . S
C2896 C2895 1.434 . S
C2897 C2898 1.369 . S
C2897 C2899 1.419 . S
C2897 H2901 0.930 . S
C2898 C2897 1.369 . S
C2898 C2907 1.429 . S
C2899 C2897 1.419 . S
C2899 C2900 1.363 . S
C2899 H2902 0.929 . S
C2900 C2899 1.363 . S
C2900 C2906 1.428 . S
H2901 C2897 0.930 . S
H2902 C2899 0.929 . S
S2903 N2904 1.613 . S
S2903 N2905 1.610 . S
N2904 S2903 1.613 . S
N2904 C2907 1.350 . S
N2905 S2903 1.610 . S
N2905 C2906 1.351 . S
C2906 C2900 1.428 . S
C2906 N2905 1.351 . S
C2906 C2907 1.434 . S
C2907 C2898 1.429 . S
C2907 N2904 1.350 . S
C2907 C2906 1.434 . S
C2908 C2909 1.369 . S
C2908 C2910 1.419 . S
C2908 H2912 0.930 . S
C2909 C2908 1.369 . S
C2909 C2918 1.429 . S
C2910 C2908 1.419 . S
C2910 C2911 1.363 . S
C2910 H2913 0.929 . S
C2911 C2910 1.363 . S
C2911 C2917 1.428 . S
H2912 C2908 0.930 . S
H2913 C2910 0.929 . S
S2914 N2915 1.613 . S
S2914 N2916 1.610 . S
N2915 S2914 1.613 . S
N2915 C2918 1.350 . S
N2916 S2914 1.610 . S
N2916 C2917 1.351 . S
C2917 C2911 1.428 . S
C2917 N2916 1.351 . S
C2917 C2918 1.434 . S
C2918 C2909 1.429 . S
C2918 N2915 1.350 . S
C2918 C2917 1.434 . S
C2919 C2920 1.369 . S
C2919 C2921 1.419 . S
C2919 H2923 0.930 . S
C2920 C2919 1.369 . S
C2920 C2929 1.429 . S
C2921 C2919 1.419 . S
C2921 C2922 1.363 . S
C2921 H2924 0.929 . S
C2922 C2921 1.363 . S
C2922 C2928 1.428 . S
H2923 C2919 0.930 . S
H2924 C2921 0.929 . S
S2925 N2926 1.613 . S
S2925 N2927 1.610 . S
N2926 S2925 1.613 . S
N2926 C2929 1.350 . S
N2927 S2925 1.610 . S
N2927 C2928 1.351 . S
C2928 C2922 1.428 . S
C2928 N2927 1.351 . S
C2928 C2929 1.434 . S
C2929 C2920 1.429 . S
C2929 N2926 1.350 . S
C2929 C2928 1.434 . S
C2930 C2931 1.369 . S
C2930 C2932 1.419 . S
C2930 H2934 0.930 . S
C2931 C2930 1.369 . S
C2931 C2940 1.429 . S
C2932 C2930 1.419 . S
C2932 C2933 1.363 . S
C2932 H2935 0.929 . S
C2933 C2932 1.363 . S
C2933 C2939 1.428 . S
H2934 C2930 0.930 . S
H2935 C2932 0.929 . S
S2936 N2937 1.613 . S
S2936 N2938 1.610 . S
N2937 S2936 1.613 . S
N2937 C2940 1.350 . S
N2938 S2936 1.610 . S
N2938 C2939 1.351 . S
C2939 C2933 1.428 . S
C2939 N2938 1.351 . S
C2939 C2940 1.434 . S
C2940 C2931 1.429 . S
C2940 N2937 1.350 . S
C2940 C2939 1.434 . S
C2941 C2942 1.369 . S
C2941 C2943 1.419 . S
C2941 H2945 0.930 . S
C2942 C2941 1.369 . S
C2942 C2951 1.429 . S
C2943 C2941 1.419 . S
C2943 C2944 1.363 . S
C2943 H2946 0.929 . S
C2944 C2943 1.363 . S
C2944 C2950 1.428 . S
H2945 C2941 0.930 . S
H2946 C2943 0.929 . S
S2947 N2948 1.613 . S
S2947 N2949 1.610 . S
N2948 S2947 1.613 . S
N2948 C2951 1.350 . S
N2949 S2947 1.610 . S
N2949 C2950 1.351 . S
C2950 C2944 1.428 . S
C2950 N2949 1.351 . S
C2950 C2951 1.434 . S
C2951 C2942 1.429 . S
C2951 N2948 1.350 . S
C2951 C2950 1.434 . S
C2952 C2953 1.369 . S
C2952 C2954 1.419 . S
C2952 H2956 0.930 . S
C2953 C2952 1.369 . S
C2953 C2962 1.429 . S
C2954 C2952 1.419 . S
C2954 C2955 1.363 . S
C2954 H2957 0.929 . S
C2955 C2954 1.363 . S
C2955 C2961 1.428 . S
H2956 C2952 0.930 . S
H2957 C2954 0.929 . S
S2958 N2959 1.613 . S
S2958 N2960 1.610 . S
N2959 S2958 1.613 . S
N2959 C2962 1.350 . S
N2960 S2958 1.610 . S
N2960 C2961 1.351 . S
C2961 C2955 1.428 . S
C2961 N2960 1.351 . S
C2961 C2962 1.434 . S
C2962 C2953 1.429 . S
C2962 N2959 1.350 . S
C2962 C2961 1.434 . S
C2963 C2964 1.369 . S
C2963 C2965 1.419 . S
C2963 H2967 0.930 . S
C2964 C2963 1.369 . S
C2964 C2973 1.429 . S
C2965 C2963 1.419 . S
C2965 C2966 1.363 . S
C2965 H2968 0.929 . S
C2966 C2965 1.363 . S
C2966 C2972 1.428 . S
H2967 C2963 0.930 . S
H2968 C2965 0.929 . S
S2969 N2970 1.613 . S
S2969 N2971 1.610 . S
N2970 S2969 1.613 . S
N2970 C2973 1.350 . S
N2971 S2969 1.610 . S
N2971 C2972 1.351 . S
C2972 C2966 1.428 . S
C2972 N2971 1.351 . S
C2972 C2973 1.434 . S
C2973 C2964 1.429 . S
C2973 N2970 1.350 . S
C2973 C2972 1.434 . S
C2974 C2975 1.369 . S
C2974 C2976 1.419 . S
C2974 H2978 0.930 . S
C2975 C2974 1.369 . S
C2975 C2984 1.429 . S
C2976 C2974 1.419 . S
C2976 C2977 1.363 . S
C2976 H2979 0.929 . S
C2977 C2976 1.363 . S
C2977 C2983 1.428 . S
H2978 C2974 0.930 . S
H2979 C2976 0.929 . S
S2980 N2981 1.613 . S
S2980 N2982 1.610 . S
N2981 S2980 1.613 . S
N2981 C2984 1.350 . S
N2982 S2980 1.610 . S
N2982 C2983 1.351 . S
C2983 C2977 1.428 . S
C2983 N2982 1.351 . S
C2983 C2984 1.434 . S
C2984 C2975 1.429 . S
C2984 N2981 1.350 . S
C2984 C2983 1.434 . S
C2985 C2986 1.369 . S
C2985 C2987 1.419 . S
C2985 H2989 0.930 . S
C2986 C2985 1.369 . S
C2986 C2995 1.429 . S
C2987 C2985 1.419 . S
C2987 C2988 1.363 . S
C2987 H2990 0.929 . S
C2988 C2987 1.363 . S
C2988 C2994 1.428 . S
H2989 C2985 0.930 . S
H2990 C2987 0.929 . S
S2991 N2992 1.613 . S
S2991 N2993 1.610 . S
N2992 S2991 1.613 . S
N2992 C2995 1.350 . S
N2993 S2991 1.610 . S
N2993 C2994 1.351 . S
C2994 C2988 1.428 . S
C2994 N2993 1.351 . S
C2994 C2995 1.434 . S
C2995 C2986 1.429 . S
C2995 N2992 1.350 . S
C2995 C2994 1.434 . S
C2996 C2997 1.369 . S
C2996 C2998 1.419 . S
C2996 H3000 0.930 . S
C2997 C2996 1.369 . S
C2997 C3006 1.429 . S
C2998 C2996 1.419 . S
C2998 C2999 1.363 . S
C2998 H3001 0.929 . S
C2999 C2998 1.363 . S
C2999 C3005 1.428 . S
H3000 C2996 0.930 . S
H3001 C2998 0.929 . S
S3002 N3003 1.613 . S
S3002 N3004 1.610 . S
N3003 S3002 1.613 . S
N3003 C3006 1.350 . S
N3004 S3002 1.610 . S
N3004 C3005 1.351 . S
C3005 C2999 1.428 . S
C3005 N3004 1.351 . S
C3005 C3006 1.434 . S
C3006 C2997 1.429 . S
C3006 N3003 1.350 . S
C3006 C3005 1.434 . S
C3007 C3008 1.369 . S
C3007 C3009 1.419 . S
C3007 H3011 0.930 . S
C3008 C3007 1.369 . S
C3008 C3017 1.429 . S
C3009 C3007 1.419 . S
C3009 C3010 1.363 . S
C3009 H3012 0.929 . S
C3010 C3009 1.363 . S
C3010 C3016 1.428 . S
H3011 C3007 0.930 . S
H3012 C3009 0.929 . S
S3013 N3014 1.613 . S
S3013 N3015 1.610 . S
N3014 S3013 1.613 . S
N3014 C3017 1.350 . S
N3015 S3013 1.610 . S
N3015 C3016 1.351 . S
C3016 C3010 1.428 . S
C3016 N3015 1.351 . S
C3016 C3017 1.434 . S
C3017 C3008 1.429 . S
C3017 N3014 1.350 . S
C3017 C3016 1.434 . S
C3018 C3019 1.369 . S
C3018 C3020 1.419 . S
C3018 H3022 0.930 . S
C3019 C3018 1.369 . S
C3019 C3028 1.429 . S
C3020 C3018 1.419 . S
C3020 C3021 1.363 . S
C3020 H3023 0.929 . S
C3021 C3020 1.363 . S
C3021 C3027 1.428 . S
H3022 C3018 0.930 . S
H3023 C3020 0.929 . S
S3024 N3025 1.613 . S
S3024 N3026 1.610 . S
N3025 S3024 1.613 . S
N3025 C3028 1.350 . S
N3026 S3024 1.610 . S
N3026 C3027 1.351 . S
C3027 C3021 1.428 . S
C3027 N3026 1.351 . S
C3027 C3028 1.434 . S
C3028 C3019 1.429 . S
C3028 N3025 1.350 . S
C3028 C3027 1.434 . S
C3029 C3030 1.369 . S
C3029 C3031 1.419 . S
C3029 H3033 0.930 . S
C3030 C3029 1.369 . S
C3030 C3039 1.429 . S
C3031 C3029 1.419 . S
C3031 C3032 1.363 . S
C3031 H3034 0.929 . S
C3032 C3031 1.363 . S
C3032 C3038 1.428 . S
H3033 C3029 0.930 . S
H3034 C3031 0.929 . S
S3035 N3036 1.613 . S
S3035 N3037 1.610 . S
N3036 S3035 1.613 . S
N3036 C3039 1.350 . S
N3037 S3035 1.610 . S
N3037 C3038 1.351 . S
C3038 C3032 1.428 . S
C3038 N3037 1.351 . S
C3038 C3039 1.434 . S
C3039 C3030 1.429 . S
C3039 N3036 1.350 . S
C3039 C3038 1.434 . S
C3040 C3041 1.369 . S
C3040 C3042 1.419 1_455 S
C3040 H3044 0.930 . S
C3041 C3040 1.369 . S
C3041 C3050 1.429 . S
C3042 C3040 1.419 1_655 S
C3042 C3043 1.363 . S
C3042 H3045 0.929 . S
C3043 C3042 1.363 . S
C3043 C3049 1.428 . S
H3044 C3040 0.930 . S
H3045 C3042 0.929 . S
S3046 N3047 1.613 1_655 S
S3046 N3048 1.610 . S
N3047 S3046 1.613 1_455 S
N3047 C3050 1.350 . S
N3048 S3046 1.610 . S
N3048 C3049 1.351 . S
C3049 C3043 1.428 . S
C3049 N3048 1.351 . S
C3049 C3050 1.434 1_655 S
C3050 C3041 1.429 . S
C3050 N3047 1.350 . S
C3050 C3049 1.434 1_455 S
C3051 C3052 1.369 1_655 S
C3051 C3053 1.419 . S
C3051 H3055 0.930 . S
C3052 C3051 1.369 1_455 S
C3052 C3061 1.429 . S
C3053 C3051 1.419 . S
C3053 C3054 1.363 . S
C3053 H3056 0.929 . S
C3054 C3053 1.363 . S
C3054 C3060 1.428 1_655 S
H3055 C3051 0.930 . S
H3056 C3053 0.929 . S
S3057 N3058 1.613 . S
S3057 N3059 1.610 . S
N3058 S3057 1.613 . S
N3058 C3061 1.350 . S
N3059 S3057 1.610 . S
N3059 C3060 1.351 . S
C3060 C3054 1.428 1_455 S
C3060 N3059 1.351 . S
C3060 C3061 1.434 . S
C3061 C3052 1.429 . S
C3061 N3058 1.350 . S
C3061 C3060 1.434 . S
C3062 C3063 1.369 . S
C3062 C3064 1.419 . S
C3062 H3066 0.930 . S
C3063 C3062 1.369 . S
C3063 C3072 1.429 . S
C3064 C3062 1.419 . S
C3064 C3065 1.363 . S
C3064 H3067 0.929 . S
C3065 C3064 1.363 . S
C3065 C3071 1.428 . S
H3066 C3062 0.930 . S
H3067 C3064 0.929 . S
S3068 N3069 1.613 . S
S3068 N3070 1.610 . S
N3069 S3068 1.613 . S
N3069 C3072 1.350 . S
N3070 S3068 1.610 . S
N3070 C3071 1.351 . S
C3071 C3065 1.428 . S
C3071 N3070 1.351 . S
C3071 C3072 1.434 . S
C3072 C3063 1.429 . S
C3072 N3069 1.350 . S
C3072 C3071 1.434 . S
C3073 C3074 1.369 . S
C3073 C3075 1.419 . S
C3073 H3077 0.930 . S
C3074 C3073 1.369 . S
C3074 C3083 1.429 . S
C3075 C3073 1.419 . S
C3075 C3076 1.363 . S
C3075 H3078 0.929 . S
C3076 C3075 1.363 . S
C3076 C3082 1.428 . S
H3077 C3073 0.930 . S
H3078 C3075 0.929 . S
S3079 N3080 1.613 . S
S3079 N3081 1.610 . S
N3080 S3079 1.613 . S
N3080 C3083 1.350 . S
N3081 S3079 1.610 . S
N3081 C3082 1.351 . S
C3082 C3076 1.428 . S
C3082 N3081 1.351 . S
C3082 C3083 1.434 . S
C3083 C3074 1.429 . S
C3083 N3080 1.350 . S
C3083 C3082 1.434 . S
C3084 C3085 1.369 . S
C3084 C3086 1.419 1_655 S
C3084 H3088 0.930 . S
C3085 C3084 1.369 . S
C3085 C3094 1.429 . S
C3086 C3084 1.419 1_455 S
C3086 C3087 1.363 . S
C3086 H3089 0.929 . S
C3087 C3086 1.363 . S
C3087 C3093 1.428 . S
H3088 C3084 0.930 . S
H3089 C3086 0.929 . S
S3090 N3091 1.613 . S
S3090 N3092 1.610 1_655 S
N3091 S3090 1.613 . S
N3091 C3094 1.350 . S
N3092 S3090 1.610 1_455 S
N3092 C3093 1.351 . S
C3093 C3087 1.428 . S
C3093 N3092 1.351 . S
C3093 C3094 1.434 1_455 S
C3094 C3085 1.429 . S
C3094 N3091 1.350 . S
C3094 C3093 1.434 1_655 S
C3095 C3096 1.369 . S
C3095 C3097 1.419 . S
C3095 H3099 0.930 . S
C3096 C3095 1.369 . S
C3096 C3105 1.429 . S
C3097 C3095 1.419 . S
C3097 C3098 1.363 . S
C3097 H3100 0.929 . S
C3098 C3097 1.363 . S
C3098 C3104 1.428 . S
H3099 C3095 0.930 . S
H3100 C3097 0.929 . S
S3101 N3102 1.613 . S
S3101 N3103 1.610 . S
N3102 S3101 1.613 . S
N3102 C3105 1.350 . S
N3103 S3101 1.610 . S
N3103 C3104 1.351 . S
C3104 C3098 1.428 . S
C3104 N3103 1.351 . S
C3104 C3105 1.434 . S
C3105 C3096 1.429 . S
C3105 N3102 1.350 . S
C3105 C3104 1.434 . S
C3106 C3107 1.369 . S
C3106 C3108 1.419 . S
C3106 H3110 0.930 . S
C3107 C3106 1.369 . S
C3107 C3116 1.429 . S
C3108 C3106 1.419 . S
C3108 C3109 1.363 . S
C3108 H3111 0.929 . S
C3109 C3108 1.363 . S
C3109 C3115 1.428 . S
H3110 C3106 0.930 . S
H3111 C3108 0.929 . S
S3112 N3113 1.613 . S
S3112 N3114 1.610 . S
N3113 S3112 1.613 . S
N3113 C3116 1.350 . S
N3114 S3112 1.610 . S
N3114 C3115 1.351 . S
C3115 C3109 1.428 . S
C3115 N3114 1.351 . S
C3115 C3116 1.434 . S
C3116 C3107 1.429 . S
C3116 N3113 1.350 . S
C3116 C3115 1.434 . S
C3117 C3118 1.369 1_455 S
C3117 C3119 1.419 . S
C3117 H3121 0.930 . S
C3118 C3117 1.369 1_655 S
C3118 C3127 1.429 . S
C3119 C3117 1.419 . S
C3119 C3120 1.363 . S
C3119 H3122 0.929 . S
C3120 C3119 1.363 . S
C3120 C3126 1.428 1_455 S
H3121 C3117 0.930 . S
H3122 C3119 0.929 . S
S3123 N3124 1.613 . S
S3123 N3125 1.610 . S
N3124 S3123 1.613 . S
N3124 C3127 1.350 . S
N3125 S3123 1.610 . S
N3125 C3126 1.351 . S
C3126 C3120 1.428 1_655 S
C3126 N3125 1.351 . S
C3126 C3127 1.434 . S
C3127 C3118 1.429 . S
C3127 N3124 1.350 . S
C3127 C3126 1.434 . S
C3128 C3129 1.369 . S
C3128 C3130 1.419 1_455 S
C3128 H3132 0.930 . S
C3129 C3128 1.369 . S
C3129 C3138 1.429 . S
C3130 C3128 1.419 1_655 S
C3130 C3131 1.363 . S
C3130 H3133 0.929 . S
C3131 C3130 1.363 . S
C3131 C3137 1.428 . S
H3132 C3128 0.930 . S
H3133 C3130 0.929 . S
S3134 N3135 1.613 . S
S3134 N3136 1.610 1_455 S
N3135 S3134 1.613 . S
N3135 C3138 1.350 . S
N3136 S3134 1.610 1_655 S
N3136 C3137 1.351 . S
C3137 C3131 1.428 . S
C3137 N3136 1.351 . S
C3137 C3138 1.434 1_655 S
C3138 C3129 1.429 . S
C3138 N3135 1.350 . S
C3138 C3137 1.434 1_455 S
C3139 C3140 1.369 . S
C3139 C3141 1.419 . S
C3139 H3143 0.930 . S
C3140 C3139 1.369 . S
C3140 C3149 1.429 1_455 S
C3141 C3139 1.419 . S
C3141 C3142 1.363 1_455 S
C3141 H3144 0.929 . S
C3142 C3141 1.363 1_655 S
C3142 C3148 1.428 . S
H3143 C3139 0.930 . S
H3144 C3141 0.929 . S
S3145 N3146 1.613 . S
S3145 N3147 1.610 . S
N3146 S3145 1.613 . S
N3146 C3149 1.350 . S
N3147 S3145 1.610 . S
N3147 C3148 1.351 . S
C3148 C3142 1.428 . S
C3148 N3147 1.351 . S
C3148 C3149 1.434 . S
C3149 C3140 1.429 1_655 S
C3149 N3146 1.350 . S
C3149 C3148 1.434 . S
C3150 C3151 1.369 . S
C3150 C3152 1.419 . S
C3150 H3154 0.930 . S
C3151 C3150 1.369 . S
C3151 C3160 1.429 . S
C3152 C3150 1.419 . S
C3152 C3153 1.363 . S
C3152 H3155 0.929 . S
C3153 C3152 1.363 . S
C3153 C3159 1.428 . S
H3154 C3150 0.930 . S
H3155 C3152 0.929 . S
S3156 N3157 1.613 . S
S3156 N3158 1.610 . S
N3157 S3156 1.613 . S
N3157 C3160 1.350 . S
N3158 S3156 1.610 . S
N3158 C3159 1.351 . S
C3159 C3153 1.428 . S
C3159 N3158 1.351 . S
C3159 C3160 1.434 . S
C3160 C3151 1.429 . S
C3160 N3157 1.350 . S
C3160 C3159 1.434 . S
C3161 C3162 1.369 . S
C3161 C3163 1.419 . S
C3161 H3165 0.930 . S
C3162 C3161 1.369 . S
C3162 C3171 1.429 . S
C3163 C3161 1.419 . S
C3163 C3164 1.363 . S
C3163 H3166 0.929 . S
C3164 C3163 1.363 . S
C3164 C3170 1.428 . S
H3165 C3161 0.930 . S
H3166 C3163 0.929 . S
S3167 N3168 1.613 . S
S3167 N3169 1.610 . S
N3168 S3167 1.613 . S
N3168 C3171 1.350 . S
N3169 S3167 1.610 . S
N3169 C3170 1.351 . S
C3170 C3164 1.428 . S
C3170 N3169 1.351 . S
C3170 C3171 1.434 . S
C3171 C3162 1.429 . S
C3171 N3168 1.350 . S
C3171 C3170 1.434 . S
C3172 C3173 1.369 . S
C3172 C3174 1.419 1_455 S
C3172 H3176 0.930 . S
C3173 C3172 1.369 . S
C3173 C3182 1.429 . S
C3174 C3172 1.419 1_655 S
C3174 C3175 1.363 . S
C3174 H3177 0.929 . S
C3175 C3174 1.363 . S
C3175 C3181 1.428 . S
H3176 C3172 0.930 . S
H3177 C3174 0.929 . S
S3178 N3179 1.613 . S
S3178 N3180 1.610 1_455 S
N3179 S3178 1.613 . S
N3179 C3182 1.350 . S
N3180 S3178 1.610 1_655 S
N3180 C3181 1.351 . S
C3181 C3175 1.428 . S
C3181 N3180 1.351 . S
C3181 C3182 1.434 1_655 S
C3182 C3173 1.429 . S
C3182 N3179 1.350 . S
C3182 C3181 1.434 1_455 S
C3183 C3184 1.369 . S
C3183 C3185 1.419 . S
C3183 H3187 0.930 . S
C3184 C3183 1.369 . S
C3184 C3193 1.429 . S
C3185 C3183 1.419 . S
C3185 C3186 1.363 . S
C3185 H3188 0.929 . S
C3186 C3185 1.363 . S
C3186 C3192 1.428 . S
H3187 C3183 0.930 . S
H3188 C3185 0.929 . S
S3189 N3190 1.613 . S
S3189 N3191 1.610 . S
N3190 S3189 1.613 . S
N3190 C3193 1.350 . S
N3191 S3189 1.610 . S
N3191 C3192 1.351 . S
C3192 C3186 1.428 . S
C3192 N3191 1.351 . S
C3192 C3193 1.434 . S
C3193 C3184 1.429 . S
C3193 N3190 1.350 . S
C3193 C3192 1.434 . S
C3194 C3195 1.369 . S
C3194 C3196 1.419 . S
C3194 H3198 0.930 . S
C3195 C3194 1.369 . S
C3195 C3204 1.429 . S
C3196 C3194 1.419 . S
C3196 C3197 1.363 . S
C3196 H3199 0.929 . S
C3197 C3196 1.363 . S
C3197 C3203 1.428 . S
H3198 C3194 0.930 . S
H3199 C3196 0.929 . S
S3200 N3201 1.613 . S
S3200 N3202 1.610 . S
N3201 S3200 1.613 . S
N3201 C3204 1.350 . S
N3202 S3200 1.610 . S
N3202 C3203 1.351 . S
C3203 C3197 1.428 . S
C3203 N3202 1.351 . S
C3203 C3204 1.434 . S
C3204 C3195 1.429 . S
C3204 N3201 1.350 . S
C3204 C3203 1.434 . S
C3205 C3206 1.369 1_655 S
C3205 C3207 1.419 . S
C3205 H3209 0.930 . S
C3206 C3205 1.369 1_455 S
C3206 C3215 1.429 . S
C3207 C3205 1.419 . S
C3207 C3208 1.363 . S
C3207 H3210 0.929 . S
C3208 C3207 1.363 . S
C3208 C3214 1.428 1_655 S
H3209 C3205 0.930 . S
H3210 C3207 0.929 . S
S3211 N3212 1.613 . S
S3211 N3213 1.610 . S
N3212 S3211 1.613 . S
N3212 C3215 1.350 . S
N3213 S3211 1.610 . S
N3213 C3214 1.351 . S
C3214 C3208 1.428 1_455 S
C3214 N3213 1.351 . S
C3214 C3215 1.434 . S
C3215 C3206 1.429 . S
C3215 N3212 1.350 . S
C3215 C3214 1.434 . S
C3216 C3217 1.369 . S
C3216 C3218 1.419 . S
C3216 H3220 0.930 . S
C3217 C3216 1.369 . S
C3217 C3226 1.429 . S
C3218 C3216 1.419 . S
C3218 C3219 1.363 . S
C3218 H3221 0.929 . S
C3219 C3218 1.363 . S
C3219 C3225 1.428 . S
H3220 C3216 0.930 . S
H3221 C3218 0.929 . S
S3222 N3223 1.613 . S
S3222 N3224 1.610 . S
N3223 S3222 1.613 . S
N3223 C3226 1.350 . S
N3224 S3222 1.610 . S
N3224 C3225 1.351 . S
C3225 C3219 1.428 . S
C3225 N3224 1.351 . S
C3225 C3226 1.434 . S
C3226 C3217 1.429 . S
C3226 N3223 1.350 . S
C3226 C3225 1.434 . S
C3227 C3228 1.369 . S
C3227 C3229 1.416 1_545 S
C3227 H3231 0.930 . S
C3228 C3227 1.369 . S
C3228 C3237 1.427 1_645 S
C3229 C3227 1.416 1_565 S
C3229 C3230 1.365 1_655 S
C3229 H3232 0.930 . S
C3230 C3229 1.365 1_455 S
C3230 C3236 1.428 . S
H3231 C3227 0.930 . S
H3232 C3229 0.930 . S
S3233 N3234 1.613 . S
S3233 N3235 1.610 . S
N3234 S3233 1.613 . S
N3234 C3237 1.351 . S
N3235 S3233 1.610 . S
N3235 C3236 1.351 . S
C3236 C3230 1.428 . S
C3236 N3235 1.351 . S
C3236 C3237 1.435 . S
C3237 C3228 1.427 1_465 S
C3237 N3234 1.351 . S
C3237 C3236 1.435 . S
C3238 C3239 1.369 . S
C3238 C3240 1.419 . S
C3238 H3242 0.930 . S
C3239 C3238 1.369 . S
C3239 C3248 1.429 . S
C3240 C3238 1.419 . S
C3240 C3241 1.363 . S
C3240 H3243 0.929 . S
C3241 C3240 1.363 . S
C3241 C3247 1.428 . S
H3242 C3238 0.930 . S
H3243 C3240 0.929 . S
S3244 N3245 1.613 . S
S3244 N3246 1.610 . S
N3245 S3244 1.613 . S
N3245 C3248 1.350 . S
N3246 S3244 1.610 . S
N3246 C3247 1.351 . S
C3247 C3241 1.428 . S
C3247 N3246 1.351 . S
C3247 C3248 1.434 . S
C3248 C3239 1.429 . S
C3248 N3245 1.350 . S
C3248 C3247 1.434 . S
C3249 C3250 1.369 1_565 S
C3249 C3251 1.419 1_554 S
C3249 H3253 0.930 . S
C3250 C3249 1.369 1_545 S
C3250 C3259 1.429 . S
C3251 C3249 1.419 1_556 S
C3251 C3252 1.363 . S
C3251 H3254 0.929 . S
C3252 C3251 1.363 . S
C3252 C3258 1.428 1_565 S
H3253 C3249 0.930 . S
H3254 C3251 0.929 . S
S3255 N3256 1.613 1_556 S
S3255 N3257 1.610 . S
N3256 S3255 1.613 1_554 S
N3256 C3259 1.350 . S
N3257 S3255 1.610 . S
N3257 C3258 1.351 . S
C3258 C3252 1.428 1_545 S
C3258 N3257 1.351 . S
C3258 C3259 1.434 1_556 S
C3259 C3250 1.429 . S
C3259 N3256 1.350 . S
C3259 C3258 1.434 1_554 S
C3260 C3261 1.369 . S
C3260 C3262 1.419 . S
C3260 H3264 0.930 . S
C3261 C3260 1.369 . S
C3261 C3270 1.429 . S
C3262 C3260 1.419 . S
C3262 C3263 1.363 . S
C3262 H3265 0.929 . S
C3263 C3262 1.363 . S
C3263 C3269 1.428 . S
H3264 C3260 0.930 . S
H3265 C3262 0.929 . S
S3266 N3267 1.613 . S
S3266 N3268 1.610 . S
N3267 S3266 1.613 . S
N3267 C3270 1.350 . S
N3268 S3266 1.610 . S
N3268 C3269 1.351 . S
C3269 C3263 1.428 . S
C3269 N3268 1.351 . S
C3269 C3270 1.434 . S
C3270 C3261 1.429 . S
C3270 N3267 1.350 . S
C3270 C3269 1.434 . S
C3271 C3272 1.369 1_565 S
C3271 C3273 1.419 . S
C3271 H3275 0.930 . S
C3272 C3271 1.369 1_545 S
C3272 C3281 1.429 . S
C3273 C3271 1.419 . S
C3273 C3274 1.363 . S
C3273 H3276 0.929 . S
C3274 C3273 1.363 . S
C3274 C3280 1.428 1_565 S
H3275 C3271 0.930 . S
H3276 C3273 0.929 . S
S3277 N3278 1.613 . S
S3277 N3279 1.610 . S
N3278 S3277 1.613 . S
N3278 C3281 1.350 . S
N3279 S3277 1.610 . S
N3279 C3280 1.351 . S
C3280 C3274 1.428 1_545 S
C3280 N3279 1.351 . S
C3280 C3281 1.434 . S
C3281 C3272 1.429 . S
C3281 N3278 1.350 . S
C3281 C3280 1.434 . S
C3282 C3283 1.369 . S
C3282 C3284 1.419 . S
C3282 H3286 0.930 . S
C3283 C3282 1.369 . S
C3283 C3292 1.429 . S
C3284 C3282 1.419 . S
C3284 C3285 1.363 . S
C3284 H3287 0.929 . S
C3285 C3284 1.363 . S
C3285 C3291 1.428 . S
H3286 C3282 0.930 . S
H3287 C3284 0.929 . S
S3288 N3289 1.613 . S
S3288 N3290 1.610 . S
N3289 S3288 1.613 . S
N3289 C3292 1.350 . S
N3290 S3288 1.610 . S
N3290 C3291 1.351 . S
C3291 C3285 1.428 . S
C3291 N3290 1.351 . S
C3291 C3292 1.434 . S
C3292 C3283 1.429 . S
C3292 N3289 1.350 . S
C3292 C3291 1.434 . S
C3293 C3294 1.369 1_665 S
C3293 C3295 1.419 1_556 S
C3293 H3297 0.930 . S
C3294 C3293 1.369 1_445 S
C3294 C3303 1.429 . S
C3295 C3293 1.419 1_554 S
C3295 C3296 1.363 . S
C3295 H3298 0.929 . S
C3296 C3295 1.363 . S
C3296 C3302 1.428 1_665 S
H3297 C3293 0.930 . S
H3298 C3295 0.929 . S
S3299 N3300 1.613 1_554 S
S3299 N3301 1.610 . S
N3300 S3299 1.613 1_556 S
N3300 C3303 1.350 . S
N3301 S3299 1.610 . S
N3301 C3302 1.351 . S
C3302 C3296 1.428 1_445 S
C3302 N3301 1.351 . S
C3302 C3303 1.434 1_554 S
C3303 C3294 1.429 . S
C3303 N3300 1.350 . S
C3303 C3302 1.434 1_556 S
C3304 C3305 1.369 . S
C3304 C3306 1.419 . S
C3304 H3308 0.930 . S
C3305 C3304 1.369 . S
C3305 C3314 1.429 . S
C3306 C3304 1.419 . S
C3306 C3307 1.363 . S
C3306 H3309 0.929 . S
C3307 C3306 1.363 . S
C3307 C3313 1.428 . S
H3308 C3304 0.930 . S
H3309 C3306 0.929 . S
S3310 N3311 1.613 . S
S3310 N3312 1.610 . S
N3311 S3310 1.613 . S
N3311 C3314 1.350 . S
N3312 S3310 1.610 . S
N3312 C3313 1.351 . S
C3313 C3307 1.428 . S
C3313 N3312 1.351 . S
C3313 C3314 1.434 . S
C3314 C3305 1.429 . S
C3314 N3311 1.350 . S
C3314 C3313 1.434 . S
C3315 C3316 1.369 . S
C3315 C3317 1.419 . S
C3315 H3319 0.930 . S
C3316 C3315 1.369 . S
C3316 C3325 1.429 . S
C3317 C3315 1.419 . S
C3317 C3318 1.363 . S
C3317 H3320 0.929 . S
C3318 C3317 1.363 . S
C3318 C3324 1.428 . S
H3319 C3315 0.930 . S
H3320 C3317 0.929 . S
S3321 N3322 1.613 . S
S3321 N3323 1.610 . S
N3322 S3321 1.613 . S
N3322 C3325 1.350 . S
N3323 S3321 1.610 . S
N3323 C3324 1.351 . S
C3324 C3318 1.428 . S
C3324 N3323 1.351 . S
C3324 C3325 1.434 . S
C3325 C3316 1.429 . S
C3325 N3322 1.350 . S
C3325 C3324 1.434 . S
C3326 C3327 1.369 . S
C3326 C3328 1.419 . S
C3326 H3330 0.930 . S
C3327 C3326 1.369 . S
C3327 C3336 1.429 . S
C3328 C3326 1.419 . S
C3328 C3329 1.363 . S
C3328 H3331 0.929 . S
C3329 C3328 1.363 . S
C3329 C3335 1.428 . S
H3330 C3326 0.930 . S
H3331 C3328 0.929 . S
S3332 N3333 1.613 . S
S3332 N3334 1.610 . S
N3333 S3332 1.613 . S
N3333 C3336 1.350 . S
N3334 S3332 1.610 . S
N3334 C3335 1.351 . S
C3335 C3329 1.428 . S
C3335 N3334 1.351 . S
C3335 C3336 1.434 . S
C3336 C3327 1.429 . S
C3336 N3333 1.350 . S
C3336 C3335 1.434 . S
C3337 C3338 1.369 . S
C3337 C3339 1.419 . S
C3337 H3341 0.930 . S
C3338 C3337 1.369 . S
C3338 C3347 1.429 . S
C3339 C3337 1.419 . S
C3339 C3340 1.363 . S
C3339 H3342 0.929 . S
C3340 C3339 1.363 . S
C3340 C3346 1.428 . S
H3341 C3337 0.930 . S
H3342 C3339 0.929 . S
S3343 N3344 1.613 . S
S3343 N3345 1.610 . S
N3344 S3343 1.613 . S
N3344 C3347 1.350 . S
N3345 S3343 1.610 . S
N3345 C3346 1.351 . S
C3346 C3340 1.428 . S
C3346 N3345 1.351 . S
C3346 C3347 1.434 . S
C3347 C3338 1.429 . S
C3347 N3344 1.350 . S
C3347 C3346 1.434 . S
C3348 C3349 1.369 . S
C3348 C3350 1.419 1_554 S
C3348 H3352 0.930 . S
C3349 C3348 1.369 . S
C3349 C3358 1.429 . S
C3350 C3348 1.419 1_556 S
C3350 C3351 1.363 . S
C3350 H3353 0.929 . S
C3351 C3350 1.363 . S
C3351 C3357 1.428 . S
H3352 C3348 0.930 . S
H3353 C3350 0.929 . S
S3354 N3355 1.613 1_556 S
S3354 N3356 1.610 . S
N3355 S3354 1.613 1_554 S
N3355 C3358 1.350 . S
N3356 S3354 1.610 . S
N3356 C3357 1.351 . S
C3357 C3351 1.428 . S
C3357 N3356 1.351 . S
C3357 C3358 1.434 1_556 S
C3358 C3349 1.429 . S
C3358 N3355 1.350 . S
C3358 C3357 1.434 1_554 S
C3359 C3360 1.369 . S
C3359 C3361 1.417 1_655 S
C3359 H3363 0.930 . S
C3360 C3359 1.369 . S
C3360 C3369 1.429 . S
C3361 C3359 1.417 1_455 S
C3361 C3362 1.365 . S
C3361 H3364 0.929 . S
C3362 C3361 1.365 . S
C3362 C3368 1.428 . S
H3363 C3359 0.930 . S
H3364 C3361 0.929 . S
S3365 N3366 1.613 1_455 S
S3365 N3367 1.610 . S
N3366 S3365 1.613 1_655 S
N3366 C3369 1.350 . S
N3367 S3365 1.610 . S
N3367 C3368 1.351 . S
C3368 C3362 1.428 . S
C3368 N3367 1.351 . S
C3368 C3369 1.434 1_455 S
C3369 C3360 1.429 . S
C3369 N3366 1.350 . S
C3369 C3368 1.434 1_655 S
C3370 C3371 1.369 . S
C3370 C3372 1.419 1_554 S
C3370 H3374 0.930 . S
C3371 C3370 1.369 . S
C3371 C3380 1.429 1_455 S
C3372 C3370 1.419 1_556 S
C3372 C3373 1.363 1_455 S
C3372 H3375 0.929 . S
C3373 C3372 1.363 1_655 S
C3373 C3379 1.428 . S
H3374 C3370 0.930 . S
H3375 C3372 0.929 . S
S3376 N3377 1.613 . S
S3376 N3378 1.610 1_554 S
N3377 S3376 1.613 . S
N3377 C3380 1.350 . S
N3378 S3376 1.610 1_556 S
N3378 C3379 1.351 . S
C3379 C3373 1.428 . S
C3379 N3378 1.351 . S
C3379 C3380 1.434 1_556 S
C3380 C3371 1.429 1_655 S
C3380 N3377 1.350 . S
C3380 C3379 1.434 1_554 S
C3381 C3382 1.369 . S
C3381 C3383 1.419 . S
C3381 H3385 0.930 . S
C3382 C3381 1.369 . S
C3382 C3391 1.429 . S
C3383 C3381 1.419 . S
C3383 C3384 1.363 . S
C3383 H3386 0.929 . S
C3384 C3383 1.363 . S
C3384 C3390 1.428 . S
H3385 C3381 0.930 . S
H3386 C3383 0.929 . S
S3387 N3388 1.613 . S
S3387 N3389 1.610 . S
N3388 S3387 1.613 . S
N3388 C3391 1.350 . S
N3389 S3387 1.610 . S
N3389 C3390 1.351 . S
C3390 C3384 1.428 . S
C3390 N3389 1.351 . S
C3390 C3391 1.434 . S
C3391 C3382 1.429 . S
C3391 N3388 1.350 . S
C3391 C3390 1.434 . S
C3392 C3393 1.369 . S
C3392 C3394 1.419 . S
C3392 H3396 0.930 . S
C3393 C3392 1.369 . S
C3393 C3402 1.429 . S
C3394 C3392 1.419 . S
C3394 C3395 1.363 . S
C3394 H3397 0.929 . S
C3395 C3394 1.363 . S
C3395 C3401 1.428 . S
H3396 C3392 0.930 . S
H3397 C3394 0.929 . S
S3398 N3399 1.613 . S
S3398 N3400 1.610 . S
N3399 S3398 1.613 . S
N3399 C3402 1.350 . S
N3400 S3398 1.610 . S
N3400 C3401 1.351 . S
C3401 C3395 1.428 . S
C3401 N3400 1.351 . S
C3401 C3402 1.434 . S
C3402 C3393 1.429 . S
C3402 N3399 1.350 . S
C3402 C3401 1.434 . S
C3403 C3404 1.369 . S
C3403 C3405 1.419 . S
C3403 H3407 0.930 . S
C3404 C3403 1.369 . S
C3404 C3413 1.429 . S
C3405 C3403 1.419 . S
C3405 C3406 1.363 . S
C3405 H3408 0.929 . S
C3406 C3405 1.363 . S
C3406 C3412 1.428 . S
H3407 C3403 0.930 . S
H3408 C3405 0.929 . S
S3409 N3410 1.613 . S
S3409 N3411 1.610 . S
N3410 S3409 1.613 . S
N3410 C3413 1.350 . S
N3411 S3409 1.610 . S
N3411 C3412 1.351 . S
C3412 C3406 1.428 . S
C3412 N3411 1.351 . S
C3412 C3413 1.434 . S
C3413 C3404 1.429 . S
C3413 N3410 1.350 . S
C3413 C3412 1.434 . S
C3414 C3415 1.369 . S
C3414 C3416 1.419 . S
C3414 H3418 0.930 . S
C3415 C3414 1.369 . S
C3415 C3424 1.429 . S
C3416 C3414 1.419 . S
C3416 C3417 1.363 . S
C3416 H3419 0.929 . S
C3417 C3416 1.363 . S
C3417 C3423 1.428 . S
H3418 C3414 0.930 . S
H3419 C3416 0.929 . S
S3420 N3421 1.613 . S
S3420 N3422 1.610 . S
N3421 S3420 1.613 . S
N3421 C3424 1.350 . S
N3422 S3420 1.610 . S
N3422 C3423 1.351 . S
C3423 C3417 1.428 . S
C3423 N3422 1.351 . S
C3423 C3424 1.434 . S
C3424 C3415 1.429 . S
C3424 N3421 1.350 . S
C3424 C3423 1.434 . S
C3425 C3426 1.369 . S
C3425 C3427 1.419 . S
C3425 H3429 0.930 . S
C3426 C3425 1.369 . S
C3426 C3435 1.429 . S
C3427 C3425 1.419 . S
C3427 C3428 1.363 . S
C3427 H3430 0.929 . S
C3428 C3427 1.363 . S
C3428 C3434 1.428 . S
H3429 C3425 0.930 . S
H3430 C3427 0.929 . S
S3431 N3432 1.613 . S
S3431 N3433 1.610 . S
N3432 S3431 1.613 . S
N3432 C3435 1.350 . S
N3433 S3431 1.610 . S
N3433 C3434 1.351 . S
C3434 C3428 1.428 . S
C3434 N3433 1.351 . S
C3434 C3435 1.434 . S
C3435 C3426 1.429 . S
C3435 N3432 1.350 . S
C3435 C3434 1.434 . S
C3436 C3437 1.369 . S
C3436 C3438 1.419 . S
C3436 H3440 0.930 . S
C3437 C3436 1.369 . S
C3437 C3446 1.429 . S
C3438 C3436 1.419 . S
C3438 C3439 1.363 . S
C3438 H3441 0.929 . S
C3439 C3438 1.363 . S
C3439 C3445 1.428 . S
H3440 C3436 0.930 . S
H3441 C3438 0.929 . S
S3442 N3443 1.613 . S
S3442 N3444 1.610 . S
N3443 S3442 1.613 . S
N3443 C3446 1.350 . S
N3444 S3442 1.610 . S
N3444 C3445 1.351 . S
C3445 C3439 1.428 . S
C3445 N3444 1.351 . S
C3445 C3446 1.434 . S
C3446 C3437 1.429 . S
C3446 N3443 1.350 . S
C3446 C3445 1.434 . S
C3447 C3448 1.369 . S
C3447 C3449 1.419 . S
C3447 H3451 0.930 . S
C3448 C3447 1.369 . S
C3448 C3457 1.429 . S
C3449 C3447 1.419 . S
C3449 C3450 1.363 . S
C3449 H3452 0.929 . S
C3450 C3449 1.363 . S
C3450 C3456 1.428 . S
H3451 C3447 0.930 . S
H3452 C3449 0.929 . S
S3453 N3454 1.613 . S
S3453 N3455 1.610 . S
N3454 S3453 1.613 . S
N3454 C3457 1.350 . S
N3455 S3453 1.610 . S
N3455 C3456 1.351 . S
C3456 C3450 1.428 . S
C3456 N3455 1.351 . S
C3456 C3457 1.434 . S
C3457 C3448 1.429 . S
C3457 N3454 1.350 . S
C3457 C3456 1.434 . S
C3458 C3459 1.369 . S
C3458 C3460 1.419 . S
C3458 H3462 0.930 . S
C3459 C3458 1.369 . S
C3459 C3468 1.429 . S
C3460 C3458 1.419 . S
C3460 C3461 1.363 . S
C3460 H3463 0.929 . S
C3461 C3460 1.363 . S
C3461 C3467 1.428 . S
H3462 C3458 0.930 . S
H3463 C3460 0.929 . S
S3464 N3465 1.613 . S
S3464 N3466 1.610 . S
N3465 S3464 1.613 . S
N3465 C3468 1.350 . S
N3466 S3464 1.610 . S
N3466 C3467 1.351 . S
C3467 C3461 1.428 . S
C3467 N3466 1.351 . S
C3467 C3468 1.434 . S
C3468 C3459 1.429 . S
C3468 N3465 1.350 . S
C3468 C3467 1.434 . S
C3469 C3470 1.369 . S
C3469 C3471 1.419 . S
C3469 H3473 0.930 . S
C3470 C3469 1.369 . S
C3470 C3479 1.429 . S
C3471 C3469 1.419 . S
C3471 C3472 1.363 . S
C3471 H3474 0.929 . S
C3472 C3471 1.363 . S
C3472 C3478 1.428 . S
H3473 C3469 0.930 . S
H3474 C3471 0.929 . S
S3475 N3476 1.613 . S
S3475 N3477 1.610 . S
N3476 S3475 1.613 . S
N3476 C3479 1.350 . S
N3477 S3475 1.610 . S
N3477 C3478 1.351 . S
C3478 C3472 1.428 . S
C3478 N3477 1.351 . S
C3478 C3479 1.434 . S
C3479 C3470 1.429 . S
C3479 N3476 1.350 . S
C3479 C3478 1.434 . S
C3480 C3481 1.369 . S
C3480 C3482 1.419 . S
C3480 H3484 0.930 . S
C3481 C3480 1.369 . S
C3481 C3490 1.429 . S
C3482 C3480 1.419 . S
C3482 C3483 1.363 . S
C3482 H3485 0.929 . S
C3483 C3482 1.363 . S
C3483 C3489 1.428 . S
H3484 C3480 0.930 . S
H3485 C3482 0.929 . S
S3486 N3487 1.613 . S
S3486 N3488 1.610 . S
N3487 S3486 1.613 . S
N3487 C3490 1.350 . S
N3488 S3486 1.610 . S
N3488 C3489 1.351 . S
C3489 C3483 1.428 . S
C3489 N3488 1.351 . S
C3489 C3490 1.434 . S
C3490 C3481 1.429 . S
C3490 N3487 1.350 . S
C3490 C3489 1.434 . S
C3491 C3492 1.369 . S
C3491 C3493 1.419 . S
C3491 H3495 0.930 . S
C3492 C3491 1.369 . S
C3492 C3501 1.429 . S
C3493 C3491 1.419 . S
C3493 C3494 1.363 . S
C3493 H3496 0.929 . S
C3494 C3493 1.363 . S
C3494 C3500 1.428 . S
H3495 C3491 0.930 . S
H3496 C3493 0.929 . S
S3497 N3498 1.613 . S
S3497 N3499 1.610 . S
N3498 S3497 1.613 . S
N3498 C3501 1.350 . S
N3499 S3497 1.610 . S
N3499 C3500 1.351 . S
C3500 C3494 1.428 . S
C3500 N3499 1.351 . S
C3500 C3501 1.434 . S
C3501 C3492 1.429 . S
C3501 N3498 1.350 . S
C3501 C3500 1.434 . S
C3502 C3503 1.369 . S
C3502 C3504 1.419 . S
C3502 H3506 0.930 . S
C3503 C3502 1.369 . S
C3503 C3512 1.429 . S
C3504 C3502 1.419 . S
C3504 C3505 1.363 . S
C3504 H3507 0.929 . S
C3505 C3504 1.363 . S
C3505 C3511 1.428 . S
H3506 C3502 0.930 . S
H3507 C3504 0.929 . S
S3508 N3509 1.613 . S
S3508 N3510 1.610 . S
N3509 S3508 1.613 . S
N3509 C3512 1.350 . S
N3510 S3508 1.610 . S
N3510 C3511 1.351 . S
C3511 C3505 1.428 . S
C3511 N3510 1.351 . S
C3511 C3512 1.434 . S
C3512 C3503 1.429 . S
C3512 N3509 1.350 . S
C3512 C3511 1.434 . S
C3513 C3514 1.369 . S
C3513 C3515 1.419 . S
C3513 H3517 0.930 . S
C3514 C3513 1.369 . S
C3514 C3523 1.429 . S
C3515 C3513 1.419 . S
C3515 C3516 1.363 . S
C3515 H3518 0.929 . S
C3516 C3515 1.363 . S
C3516 C3522 1.428 . S
H3517 C3513 0.930 . S
H3518 C3515 0.929 . S
S3519 N3520 1.613 . S
S3519 N3521 1.610 . S
N3520 S3519 1.613 . S
N3520 C3523 1.350 . S
N3521 S3519 1.610 . S
N3521 C3522 1.351 . S
C3522 C3516 1.428 . S
C3522 N3521 1.351 . S
C3522 C3523 1.434 . S
C3523 C3514 1.429 . S
C3523 N3520 1.350 . S
C3523 C3522 1.434 . S
C3524 C3525 1.369 . S
C3524 C3526 1.419 . S
C3524 H3528 0.930 . S
C3525 C3524 1.369 . S
C3525 C3534 1.429 . S
C3526 C3524 1.419 . S
C3526 C3527 1.363 . S
C3526 H3529 0.929 . S
C3527 C3526 1.363 . S
C3527 C3533 1.428 . S
H3528 C3524 0.930 . S
H3529 C3526 0.929 . S
S3530 N3531 1.613 . S
S3530 N3532 1.610 . S
N3531 S3530 1.613 . S
N3531 C3534 1.350 . S
N3532 S3530 1.610 . S
N3532 C3533 1.351 . S
C3533 C3527 1.428 . S
C3533 N3532 1.351 . S
C3533 C3534 1.434 . S
C3534 C3525 1.429 . S
C3534 N3531 1.350 . S
C3534 C3533 1.434 . S
C3535 C3536 1.369 . S
C3535 C3537 1.419 . S
C3535 H3539 0.930 . S
C3536 C3535 1.369 . S
C3536 C3545 1.429 . S
C3537 C3535 1.419 . S
C3537 C3538 1.363 . S
C3537 H3540 0.929 . S
C3538 C3537 1.363 . S
C3538 C3544 1.428 . S
H3539 C3535 0.930 . S
H3540 C3537 0.929 . S
S3541 N3542 1.613 . S
S3541 N3543 1.610 . S
N3542 S3541 1.613 . S
N3542 C3545 1.350 . S
N3543 S3541 1.610 . S
N3543 C3544 1.351 . S
C3544 C3538 1.428 . S
C3544 N3543 1.351 . S
C3544 C3545 1.434 . S
C3545 C3536 1.429 . S
C3545 N3542 1.350 . S
C3545 C3544 1.434 . S
C3546 C3547 1.369 . S
C3546 C3548 1.419 . S
C3546 H3550 0.930 . S
C3547 C3546 1.369 . S
C3547 C3556 1.429 . S
C3548 C3546 1.419 . S
C3548 C3549 1.363 . S
C3548 H3551 0.929 . S
C3549 C3548 1.363 . S
C3549 C3555 1.428 . S
H3550 C3546 0.930 . S
H3551 C3548 0.929 . S
S3552 N3553 1.613 . S
S3552 N3554 1.610 . S
N3553 S3552 1.613 . S
N3553 C3556 1.350 . S
N3554 S3552 1.610 . S
N3554 C3555 1.351 . S
C3555 C3549 1.428 . S
C3555 N3554 1.351 . S
C3555 C3556 1.434 . S
C3556 C3547 1.429 . S
C3556 N3553 1.350 . S
C3556 C3555 1.434 . S
C3557 C3558 1.369 . S
C3557 C3559 1.419 . S
C3557 H3561 0.930 . S
C3558 C3557 1.369 . S
C3558 C3567 1.429 . S
C3559 C3557 1.419 . S
C3559 C3560 1.363 . S
C3559 H3562 0.929 . S
C3560 C3559 1.363 . S
C3560 C3566 1.428 . S
H3561 C3557 0.930 . S
H3562 C3559 0.929 . S
S3563 N3564 1.613 . S
S3563 N3565 1.610 . S
N3564 S3563 1.613 . S
N3564 C3567 1.350 . S
N3565 S3563 1.610 . S
N3565 C3566 1.351 . S
C3566 C3560 1.428 . S
C3566 N3565 1.351 . S
C3566 C3567 1.434 . S
C3567 C3558 1.429 . S
C3567 N3564 1.350 . S
C3567 C3566 1.434 . S
C3568 C3569 1.369 . S
C3568 C3570 1.419 . S
C3568 H3572 0.930 . S
C3569 C3568 1.369 . S
C3569 C3578 1.429 1_545 S
C3570 C3568 1.419 . S
C3570 C3571 1.363 1_545 S
C3570 H3573 0.929 . S
C3571 C3570 1.363 1_565 S
C3571 C3577 1.428 . S
H3572 C3568 0.930 . S
H3573 C3570 0.929 . S
S3574 N3575 1.613 . S
S3574 N3576 1.610 . S
N3575 S3574 1.613 . S
N3575 C3578 1.350 . S
N3576 S3574 1.610 . S
N3576 C3577 1.351 . S
C3577 C3571 1.428 . S
C3577 N3576 1.351 . S
C3577 C3578 1.434 . S
C3578 C3569 1.429 1_565 S
C3578 N3575 1.350 . S
C3578 C3577 1.434 . S
C3579 C3580 1.369 . S
C3579 C3581 1.419 . S
C3579 H3583 0.930 . S
C3580 C3579 1.369 . S
C3580 C3589 1.429 1_545 S
C3581 C3579 1.419 . S
C3581 C3582 1.363 . S
C3581 H3584 0.929 . S
C3582 C3581 1.363 . S
C3582 C3588 1.428 1_545 S
H3583 C3579 0.930 . S
H3584 C3581 0.929 . S
S3585 N3586 1.613 . S
S3585 N3587 1.610 . S
N3586 S3585 1.613 . S
N3586 C3589 1.350 . S
N3587 S3585 1.610 . S
N3587 C3588 1.351 . S
C3588 C3582 1.428 1_565 S
C3588 N3587 1.351 . S
C3588 C3589 1.434 . S
C3589 C3580 1.429 1_565 S
C3589 N3586 1.350 . S
C3589 C3588 1.434 . S
C3590 C3591 1.369 . S
C3590 C3592 1.419 1_545 S
C3590 H3594 0.930 . S
C3591 C3590 1.369 . S
C3591 C3600 1.429 . S
C3592 C3590 1.419 1_565 S
C3592 C3593 1.363 . S
C3592 H3595 0.929 . S
C3593 C3592 1.363 . S
C3593 C3599 1.428 . S
H3594 C3590 0.930 . S
H3595 C3592 0.929 . S
S3596 N3597 1.613 1_565 S
S3596 N3598 1.610 . S
N3597 S3596 1.613 1_545 S
N3597 C3600 1.350 . S
N3598 S3596 1.610 . S
N3598 C3599 1.351 . S
C3599 C3593 1.428 . S
C3599 N3598 1.351 . S
C3599 C3600 1.434 1_565 S
C3600 C3591 1.429 . S
C3600 N3597 1.350 . S
C3600 C3599 1.434 1_545 S
C3601 C3602 1.369 1_545 S
C3601 C3603 1.419 . S
C3601 H3605 0.930 . S
C3602 C3601 1.369 1_565 S
C3602 C3611 1.429 1_556 S
C3603 C3601 1.419 . S
C3603 C3604 1.363 1_546 S
C3603 H3606 0.929 . S
C3604 C3603 1.363 1_564 S
C3604 C3610 1.428 . S
H3605 C3601 0.930 . S
H3606 C3603 0.929 . S
S3607 N3608 1.613 . S
S3607 N3609 1.610 . S
N3608 S3607 1.613 . S
N3608 C3611 1.350 . S
N3609 S3607 1.610 . S
N3609 C3610 1.351 . S
C3610 C3604 1.428 . S
C3610 N3609 1.351 . S
C3610 C3611 1.434 . S
C3611 C3602 1.429 1_554 S
C3611 N3608 1.350 . S
C3611 C3610 1.434 . S
C3612 C3613 1.369 . S
C3612 C3614 1.419 1_565 S
C3612 H3616 0.930 . S
C3613 C3612 1.369 . S
C3613 C3622 1.429 . S
C3614 C3612 1.419 1_545 S
C3614 C3615 1.363 . S
C3614 H3617 0.929 . S
C3615 C3614 1.363 . S
C3615 C3621 1.428 . S
H3616 C3612 0.930 . S
H3617 C3614 0.929 . S
S3618 N3619 1.613 . S
S3618 N3620 1.610 1_565 S
N3619 S3618 1.613 . S
N3619 C3622 1.350 . S
N3620 S3618 1.610 1_545 S
N3620 C3621 1.351 . S
C3621 C3615 1.428 . S
C3621 N3620 1.351 . S
C3621 C3622 1.434 1_545 S
C3622 C3613 1.429 . S
C3622 N3619 1.350 . S
C3622 C3621 1.434 1_565 S
C3623 C3624 1.369 . S
C3623 C3625 1.419 . S
C3623 H3627 0.930 1_565 S
C3624 C3623 1.369 . S
C3624 C3633 1.429 . S
C3625 C3623 1.419 . S
C3625 C3626 1.363 . S
C3625 H3628 0.929 1_565 S
C3626 C3625 1.363 . S
C3626 C3632 1.428 . S
H3627 C3623 0.930 1_545 S
H3628 C3625 0.929 1_545 S
S3629 N3630 1.613 . S
S3629 N3631 1.610 . S
N3630 S3629 1.613 . S
N3630 C3633 1.350 . S
N3631 S3629 1.610 . S
N3631 C3632 1.351 . S
C3632 C3626 1.428 . S
C3632 N3631 1.351 . S
C3632 C3633 1.434 . S
C3633 C3624 1.429 . S
C3633 N3630 1.350 . S
C3633 C3632 1.434 . S
C3634 C3635 1.369 . S
C3634 C3636 1.419 1_565 S
C3634 H3638 0.930 . S
C3635 C3634 1.369 . S
C3635 C3644 1.429 . S
C3636 C3634 1.419 1_545 S
C3636 C3637 1.363 . S
C3636 H3639 0.929 . S
C3637 C3636 1.363 . S
C3637 C3643 1.428 . S
H3638 C3634 0.930 . S
H3639 C3636 0.929 . S
S3640 N3641 1.613 . S
S3640 N3642 1.610 1_565 S
N3641 S3640 1.613 . S
N3641 C3644 1.350 . S
N3642 S3640 1.610 1_545 S
N3642 C3643 1.351 . S
C3643 C3637 1.428 . S
C3643 N3642 1.351 . S
C3643 C3644 1.434 1_545 S
C3644 C3635 1.429 . S
C3644 N3641 1.350 . S
C3644 C3643 1.434 1_565 S
C3645 C3646 1.369 . S
C3645 C3647 1.389 1_554 S
C3645 H3649 0.930 . S
C3646 C3645 1.369 . S
C3646 C3655 1.429 1_544 S
C3647 C3645 1.389 1_556 S
C3647 C3648 1.394 . S
C3647 H3650 0.929 . S
C3648 C3647 1.394 . S
C3648 C3654 1.428 1_545 S
H3649 C3645 0.930 . S
H3650 C3647 0.929 . S
S3651 N3652 1.613 . S
S3651 N3653 1.610 . S
N3652 S3651 1.613 . S
N3652 C3655 1.350 . S
N3653 S3651 1.610 . S
N3653 C3654 1.351 . S
C3654 C3648 1.428 1_565 S
C3654 N3653 1.351 . S
C3654 C3655 1.433 . S
C3655 C3646 1.429 1_566 S
C3655 N3652 1.350 . S
C3655 C3654 1.433 . S
C3656 C3657 1.369 . S
C3656 C3658 1.419 . S
C3656 H3660 0.930 . S
C3657 C3656 1.369 . S
C3657 C3666 1.429 . S
C3658 C3656 1.419 . S
C3658 C3659 1.363 . S
C3658 H3661 0.929 . S
C3659 C3658 1.363 . S
C3659 C3665 1.428 . S
H3660 C3656 0.930 . S
H3661 C3658 0.929 . S
S3662 N3663 1.613 . S
S3662 N3664 1.610 . S
N3663 S3662 1.613 . S
N3663 C3666 1.350 . S
N3664 S3662 1.610 . S
N3664 C3665 1.351 . S
C3665 C3659 1.428 . S
C3665 N3664 1.351 . S
C3665 C3666 1.434 . S
C3666 C3657 1.429 . S
C3666 N3663 1.350 . S
C3666 C3665 1.434 . S
C3667 C3668 1.369 . S
C3667 C3669 1.419 . S
C3667 H3671 0.930 . S
C3668 C3667 1.369 . S
C3668 C3677 1.429 1_556 S
C3669 C3667 1.419 . S
C3669 C3670 1.363 1_556 S
C3669 H3672 0.929 . S
C3670 C3669 1.363 1_554 S
C3670 C3676 1.428 . S
H3671 C3667 0.930 . S
H3672 C3669 0.929 . S
S3673 N3674 1.613 . S
S3673 N3675 1.610 . S
N3674 S3673 1.613 . S
N3674 C3677 1.350 . S
N3675 S3673 1.610 . S
N3675 C3676 1.351 . S
C3676 C3670 1.428 . S
C3676 N3675 1.351 . S
C3676 C3677 1.434 . S
C3677 C3668 1.429 1_554 S
C3677 N3674 1.350 . S
C3677 C3676 1.434 . S
C3678 C3679 1.369 . S
C3678 C3680 1.419 . S
C3678 H3682 0.930 . S
C3679 C3678 1.369 . S
C3679 C3688 1.429 . S
C3680 C3678 1.419 . S
C3680 C3681 1.363 . S
C3680 H3683 0.929 . S
C3681 C3680 1.363 . S
C3681 C3687 1.428 . S
H3682 C3678 0.930 . S
H3683 C3680 0.929 . S
S3684 N3685 1.613 . S
S3684 N3686 1.610 . S
N3685 S3684 1.613 . S
N3685 C3688 1.350 . S
N3686 S3684 1.610 . S
N3686 C3687 1.351 . S
C3687 C3681 1.428 . S
C3687 N3686 1.351 . S
C3687 C3688 1.434 . S
C3688 C3679 1.429 . S
C3688 N3685 1.350 . S
C3688 C3687 1.434 . S
C3689 C3690 1.369 . S
C3689 C3691 1.419 . S
C3689 H3693 0.930 . S
C3690 C3689 1.369 . S
C3690 C3699 1.429 . S
C3691 C3689 1.419 . S
C3691 C3692 1.363 . S
C3691 H3694 0.929 . S
C3692 C3691 1.363 . S
C3692 C3698 1.428 . S
H3693 C3689 0.930 . S
H3694 C3691 0.929 . S
S3695 N3696 1.613 . S
S3695 N3697 1.610 . S
N3696 S3695 1.613 . S
N3696 C3699 1.350 . S
N3697 S3695 1.610 . S
N3697 C3698 1.351 . S
C3698 C3692 1.428 . S
C3698 N3697 1.351 . S
C3698 C3699 1.434 . S
C3699 C3690 1.429 . S
C3699 N3696 1.350 . S
C3699 C3698 1.434 . S
C3700 C3701 1.369 . S
C3700 C3702 1.419 . S
C3700 H3704 0.930 . S
C3701 C3700 1.369 . S
C3701 C3710 1.429 . S
C3702 C3700 1.419 . S
C3702 C3703 1.363 . S
C3702 H3705 0.929 . S
C3703 C3702 1.363 . S
C3703 C3709 1.428 . S
H3704 C3700 0.930 . S
H3705 C3702 0.929 . S
S3706 N3707 1.613 . S
S3706 N3708 1.610 . S
N3707 S3706 1.613 . S
N3707 C3710 1.350 . S
N3708 S3706 1.610 . S
N3708 C3709 1.351 . S
C3709 C3703 1.428 . S
C3709 N3708 1.351 . S
C3709 C3710 1.434 . S
C3710 C3701 1.429 . S
C3710 N3707 1.350 . S
C3710 C3709 1.434 . S
C3711 C3712 1.316 1_554 S
C3711 C3713 1.465 . S
C3711 H3715 0.941 . S
C3712 C3711 1.316 1_556 S
C3712 C3721 1.429 . S
C3713 C3711 1.465 . S
C3713 C3714 1.363 . S
C3713 H3716 0.929 . S
C3714 C3713 1.363 . S
C3714 C3720 1.428 1_554 S
H3715 C3711 0.941 . S
H3716 C3713 0.929 . S
S3717 N3718 1.613 . S
S3717 N3719 1.610 . S
N3718 S3717 1.613 . S
N3718 C3721 1.350 . S
N3719 S3717 1.610 . S
N3719 C3720 1.351 . S
C3720 C3714 1.428 1_556 S
C3720 N3719 1.351 . S
C3720 C3721 1.434 . S
C3721 C3712 1.429 . S
C3721 N3718 1.350 . S
C3721 C3720 1.434 . S
C3722 C3723 1.369 . S
C3722 C3724 1.419 . S
C3722 H3726 0.930 . S
C3723 C3722 1.369 . S
C3723 C3732 1.429 . S
C3724 C3722 1.419 . S
C3724 C3725 1.363 . S
C3724 H3727 0.929 . S
C3725 C3724 1.363 . S
C3725 C3731 1.428 . S
H3726 C3722 0.930 . S
H3727 C3724 0.929 . S
S3728 N3729 1.613 . S
S3728 N3730 1.610 . S
N3729 S3728 1.613 . S
N3729 C3732 1.350 . S
N3730 S3728 1.610 . S
N3730 C3731 1.351 . S
C3731 C3725 1.428 . S
C3731 N3730 1.351 . S
C3731 C3732 1.434 . S
C3732 C3723 1.429 . S
C3732 N3729 1.350 . S
C3732 C3731 1.434 . S
C3733 C3734 1.369 . S
C3733 C3735 1.419 . S
C3733 H3737 0.930 . S
C3734 C3733 1.369 . S
C3734 C3743 1.429 . S
C3735 C3733 1.419 . S
C3735 C3736 1.363 . S
C3735 H3738 0.929 . S
C3736 C3735 1.363 . S
C3736 C3742 1.428 . S
H3737 C3733 0.930 . S
H3738 C3735 0.929 . S
S3739 N3740 1.613 . S
S3739 N3741 1.610 . S
N3740 S3739 1.613 . S
N3740 C3743 1.350 . S
N3741 S3739 1.610 . S
N3741 C3742 1.351 . S
C3742 C3736 1.428 . S
C3742 N3741 1.351 . S
C3742 C3743 1.434 . S
C3743 C3734 1.429 . S
C3743 N3740 1.350 . S
C3743 C3742 1.434 . S
C2689 C70 0.551 . S
C2691 C2323 0.618 . S
C2700 C154 0.552 . S
C2702 C727 0.633 . S
C2711 C238 0.542 . S
C2713 C2155 0.628 . S
C2722 C895 0.632 . S
C2724 C322 0.544 . S
C2733 C406 0.553 . S
C2735 C2491 0.627 . S
C2744 C1231 0.618 . S
C2746 C490 0.550 . S
C2755 C2659 0.608 . S
C2757 C574 0.540 . S
C2766 C658 0.542 . S
C2768 C1063 0.609 . S
C2777 C730 0.540 . S
C2779 C1663 0.610 . S
C2788 C814 0.553 . S
C2790 C67 0.630 . S
C2799 C1495 0.635 . S
C2801 C898 0.550 . S
C2810 C235 0.618 . S
C2812 C982 0.540 . S
C2821 C1066 0.545 . S
C2823 C1831 0.632 . S
C2832 C1150 0.553 . S
C2834 C571 0.627 . S
C2843 C1234 0.538 . S
C2845 C1999 0.612 . S
C2854 C403 0.609 . S
C2856 C1318 0.547 . S
C2865 C979 0.623 . S
C2867 C1414 0.541 . S
C2876 C2071 0.606 . S
C2878 C1498 0.541 . S
C2887 C811 0.613 . S
C2889 C1582 0.540 . S
C2898 C1666 0.542 . S
C2900 C2239 0.628 . S
C2909 C1147 0.610 . S
C2911 C1750 0.547 . S
C2920 C2575 0.615 . S
C2922 C1834 0.540 . S
C2931 C1315 0.630 . S
C2933 C1918 0.552 . S
C2942 C2002 0.548 . S
C2944 C2407 0.613 . S
C2953 C2074 0.554 . S
C2955 C319 0.627 . S
C2964 C2158 0.538 . S
C2966 C1411 0.613 . S
C2975 C2242 0.543 . S
C2977 C151 0.610 . S
C2986 C2326 0.547 . S
C2988 C1579 0.633 . S
C2997 C487 0.633 . S
C2999 C2410 0.551 . S
C3008 C1915 0.616 . S
C3010 C2494 0.539 . S
C3019 C2578 0.554 . S
C3021 C655 0.627 . S
C3030 C2662 0.553 . S
C3032 C1747 0.630 . S
C3041 C56 3.389 . S
C3043 C1568 3.387 . S
C3052 C1652 3.388 1_455 S
C3054 C140 3.388 1_655 S
C3063 C224 3.387 . S
C3065 C1400 3.388 . S
C3074 C308 3.388 . S
C3076 C1484 3.387 . S
C3085 C1904 3.386 . S
C3087 C392 3.389 . S
C3096 C476 3.389 . S
C3098 C1988 3.386 . S
C3107 C1736 3.386 . S
C3109 C560 3.389 . S
C3118 C644 3.388 1_655 S
C3120 C1820 3.388 1_455 S
C3129 C2252 3.385 . S
C3131 C740 3.389 . S
C3140 C824 3.386 1_455 S
C3142 C2336 3.388 1_655 S
C3151 C908 3.387 . S
C3153 C2084 3.388 . S
C3162 C992 3.387 . S
C3164 C2168 3.387 . S
C3173 C2588 3.386 . S
C3175 C1076 3.389 . S
C3184 C2672 3.389 . S
C3186 C1160 3.387 . S
C3195 C1244 3.390 . S
C3197 C2420 3.386 . S
C3206 C1328 3.388 1_455 S
C3208 C2504 3.387 1_655 S
C3217 C55 2.984 . S
C3219 C2083 2.983 . S
C3228 C823 2.985 . S
C3230 C139 2.983 . S
C3239 C223 2.983 . S
C3241 C2251 2.984 . S
C3250 C307 2.983 . S
C3252 C991 2.985 . S
C3261 C2419 2.984 . S
C3263 C391 2.983 . S
C3272 C1159 2.983 . S
C3274 C475 2.985 . S
C3283 C559 2.983 . S
C3285 C2587 2.985 . S
C3294 C643 2.983 . S
C3296 C1327 2.985 . S
C3305 C1399 2.982 . S
C3307 C739 2.985 . S
C3316 C1567 2.982 . S
C3318 C907 2.985 . S
C3327 C1735 2.983 . S
C3329 C1075 2.984 . S
C3338 C1243 2.985 . S
C3340 C1903 2.983 . S
C3349 C1483 2.983 . S
C3351 C2167 2.984 . S
C3360 C1651 2.982 . S
C3362 C2335 2.985 . S
C3371 C2503 2.985 . S
C3373 C1819 2.983 . S
C3382 C2671 2.982 . S
C3384 C1987 2.985 . S
C3393 C68 4.118 . S
C3395 C488 4.114 . S
C3404 C572 4.116 . S
C3406 C152 4.114 . S
C3415 C656 4.113 . S
C3417 C236 4.116 . S
C3426 C404 4.115 . S
C3428 C320 4.117 . S
C3437 C728 4.117 . S
C3439 C1148 4.115 . S
C3448 C812 4.113 . S
C3450 C1232 4.117 . S
C3459 C1316 4.115 . S
C3461 C896 4.115 . S
C3470 C980 4.118 . S
C3472 C1064 4.114 . S
C3481 C1412 4.115 . S
C3483 C1832 4.116 . S
C3492 C1496 4.114 . S
C3494 C1916 4.116 . S
C3503 C1580 4.113 . S
C3505 C2000 4.117 . S
C3514 C1748 4.114 . S
C3516 C1664 4.117 . S
C3525 C2072 4.113 . S
C3527 C2492 4.117 . S
C3536 C2156 4.113 . S
C3538 C2576 4.117 . S
C3547 C2660 4.113 . S
C3549 C2240 4.117 . S
C3558 C2324 4.114 . S
C3560 C2408 4.117 . S
C3569 C58 0.795 . S
C3571 C394 0.787 . S
C3580 C142 0.766 1_545 S
C3582 C478 0.775 1_545 S
C3591 C562 0.776 . S
C3593 C226 0.770 . S
C3602 C646 0.780 1_565 S
C3604 C310 0.788 1_565 S
C3613 C742 0.795 . S
C3615 C1078 0.792 . S
C3624 C1162 0.784 1_565 S
C3626 C826 0.789 1_565 S
C3635 C1246 0.766 . S
C3637 C910 0.772 . S
C3646 C1330 0.768 1_545 S
C3648 C994 0.776 1_545 S
C3657 C1402 0.768 . S
C3659 C1738 0.778 . S
C3668 C1822 0.769 . S
C3670 C1486 0.780 . S
C3679 C1570 0.783 . S
C3681 C1906 0.773 . S
C3690 C1990 0.768 . S
C3692 C1654 0.769 . S
C3701 C2422 0.773 . S
C3703 C2086 0.782 . S
C3712 C2170 0.792 . S
C3714 C2506 0.783 . S
C3723 C2254 0.773 . S
C3725 C2590 0.782 . S
C3734 C2338 0.767 . S
C3736 C2674 0.776 . S
