# Generated by pormake.
# Topology sow, (4)-cn, num edge types: 1
# Building blocks:
#     Node 0, Type 0, BuildingBlock: CEKHIL_clean_sbu_0, # of connection points: 4
#     Node 1, Type 0, BuildingBlock: CEKHIL_clean_sbu_0, # of connection points: 4
#     Node 2, Type 0, BuildingBlock: CEKHIL_clean_sbu_0, # of connection points: 4
#     Node 3, Type 0, BuildingBlock: CEKHIL_clean_sbu_0, # of connection points: 4
#     Node 4, Type 0, BuildingBlock: CEKHIL_clean_sbu_0, # of connection points: 4
#     Node 5, Type 0, BuildingBlock: CEKHIL_clean_sbu_0, # of connection points: 4
#     Node 6, Type 0, BuildingBlock: CEKHIL_clean_sbu_0, # of connection points: 4
#     Node 7, Type 0, BuildingBlock: CEKHIL_clean_sbu_0, # of connection points: 4
#     Edge 8, Type (0, 0), BuildingBlock: UVAHIK_clean_linker_0, # of connection points: 2
#     Edge 9, Type (0, 0), BuildingBlock: UVAHIK_clean_linker_0, # of connection points: 2
#     Edge 10, Type (0, 0), BuildingBlock: UVAHIK_clean_linker_0, # of connection points: 2
#     Edge 11, Type (0, 0), BuildingBlock: UVAHIK_clean_linker_0, # of connection points: 2
#     Edge 12, Type (0, 0), BuildingBlock: UVAHIK_clean_linker_0, # of connection points: 2
#     Edge 13, Type (0, 0), BuildingBlock: UVAHIK_clean_linker_0, # of connection points: 2
#     Edge 14, Type (0, 0), BuildingBlock: UVAHIK_clean_linker_0, # of connection points: 2
#     Edge 15, Type (0, 0), BuildingBlock: UVAHIK_clean_linker_0, # of connection points: 2
#     Edge 16, Type (0, 0), BuildingBlock: UVAHIK_clean_linker_0, # of connection points: 2
#     Edge 17, Type (0, 0), BuildingBlock: UVAHIK_clean_linker_0, # of connection points: 2
#     Edge 18, Type (0, 0), BuildingBlock: UVAHIK_clean_linker_0, # of connection points: 2
#     Edge 19, Type (0, 0), BuildingBlock: UVAHIK_clean_linker_0, # of connection points: 2
#     Edge 20, Type (0, 0), BuildingBlock: UVAHIK_clean_linker_0, # of connection points: 2
#     Edge 21, Type (0, 0), BuildingBlock: UVAHIK_clean_linker_0, # of connection points: 2
#     Edge 22, Type (0, 0), BuildingBlock: UVAHIK_clean_linker_0, # of connection points: 2
#     Edge 23, Type (0, 0), BuildingBlock: UVAHIK_clean_linker_0, # of connection points: 2
# Relax obj value: 0.164
# Max RMSD: 0.205
# Mean RMSD: 0.205
data_MOF--net-sow--node1-CEKHIL_clean_sbu_0--edge1-UVAHIK_clean_linker_0
_symmetry_space_group_name_H-M    P1
_symmetry_Int_Tables_number       1
_symmetry_cell_setting            triclinic
loop_
_symmetry_equiv_pos_as_xyz
'x, y, z'
_cell_length_a     50.261142
_cell_length_b     28.815262
_cell_length_c     30.263019
_cell_angle_alpha  90.031664
_cell_angle_beta   90.061613
_cell_angle_gamma 90.004261
loop_
_atom_site_label
_atom_site_type_symbol
_atom_site_fract_x
_atom_site_fract_y
_atom_site_fract_z
_atom_type_partial_charge
Co0 Co 0.1267 0.22183 0.05859 0.0
O1 O 0.15161 0.19847 0.01603 0.0
O2 O 0.14307 0.27298 0.02765 0.0
C3 C 0.09388 0.17223 0.03997 0.0
O4 O 0.10188 0.25901 0.0982 0.0
Co5 Co 0.10383 0.15836 0.1328 0.0
O6 O 0.07761 0.20946 0.13912 0.0
C7 C 0.15907 0.19395 0.13835 0.0
C8 C 0.15562 0.24142 0.00506 0.0
C9 C 0.08259 0.25007 0.1247 0.0
O10 O 0.15506 0.22199 0.10586 0.0
O11 O 0.14216 0.16337 0.1508 0.0
O12 O 0.0974 0.21003 0.01733 0.0
O13 O 0.11109 0.16453 0.07066 0.0
Co14 Co 0.36071 0.28125 0.56006 0.0
O15 O 0.33512 0.30842 0.52055 0.0
O16 O 0.34121 0.23292 0.53006 0.0
C17 C 0.39429 0.32817 0.53905 0.0
O18 O 0.38558 0.23985 0.59583 0.0
Co19 Co 0.38995 0.33821 0.63288 0.0
O20 O 0.41487 0.28491 0.63204 0.0
C21 C 0.33385 0.30798 0.64577 0.0
C22 C 0.32909 0.26625 0.50921 0.0
C23 C 0.40706 0.24543 0.61828 0.0
O24 O 0.33432 0.28311 0.61032 0.0
O25 O 0.35315 0.33419 0.65782 0.0
O26 O 0.38871 0.29142 0.51589 0.0
O27 O 0.37884 0.33621 0.57205 0.0
Co28 Co 0.6224 0.27219 0.94029 0.0
O29 O 0.64764 0.29716 0.98129 0.0
O30 O 0.63777 0.22241 0.97496 0.0
C31 C 0.59033 0.32479 0.95482 0.0
O32 O 0.59688 0.23424 0.90237 0.0
Co33 Co 0.60363 0.33404 0.86154 0.0
O34 O 0.5814 0.27933 0.84708 0.0
C35 C 0.65774 0.29544 0.86305 0.0
C36 C 0.65119 0.25495 0.99484 0.0
C37 C 0.58245 0.24085 0.8678 0.0
O38 O 0.65119 0.26695 0.89396 0.0
O39 O 0.64272 0.32853 0.84989 0.0
O40 O 0.59307 0.28855 0.97995 0.0
O41 O 0.60811 0.32959 0.92458 0.0
Co42 Co 0.86023 0.22382 0.4412 0.0
O43 O 0.8343 0.19659 0.47977 0.0
O44 O 0.84344 0.27171 0.47615 0.0
C45 C 0.89238 0.1717 0.45651 0.0
O46 O 0.88632 0.26446 0.40701 0.0
Co47 Co 0.88305 0.1673 0.36187 0.0
O48 O 0.90712 0.22109 0.35554 0.0
C49 C 0.82996 0.2108 0.35506 0.0
C50 C 0.83012 0.23819 0.49459 0.0
C51 C 0.90368 0.25912 0.37622 0.0
O52 O 0.83265 0.23043 0.39301 0.0
O53 O 0.84694 0.18286 0.33827 0.0
O54 O 0.88854 0.20698 0.48247 0.0
O55 O 0.87567 0.16739 0.42441 0.0
Co56 Co 0.85776 0.78454 0.93502 0.0
O57 O 0.83297 0.80725 0.97801 0.0
O58 O 0.84165 0.73295 0.96574 0.0
C59 C 0.89048 0.83438 0.95333 0.0
O60 O 0.88295 0.74811 0.89537 0.0
Co61 Co 0.87956 0.84902 0.86067 0.0
O62 O 0.90695 0.79961 0.85615 0.0
C63 C 0.82443 0.81325 0.85659 0.0
C64 C 0.82915 0.7642 0.98882 0.0
C65 C 0.90265 0.75863 0.87025 0.0
O66 O 0.82914 0.78433 0.88813 0.0
O67 O 0.84102 0.84434 0.84412 0.0
O68 O 0.88716 0.79656 0.97603 0.0
O69 O 0.87302 0.84206 0.92302 0.0
Co70 Co 0.62682 0.72036 0.43317 0.0
O71 O 0.65076 0.69627 0.47694 0.0
O72 O 0.64311 0.77098 0.4651 0.0
C73 C 0.59323 0.67151 0.44926 0.0
O74 O 0.60264 0.75825 0.39298 0.0
Co75 Co 0.60543 0.65766 0.3569 0.0
O76 O 0.57905 0.70853 0.35092 0.0
C77 C 0.66105 0.69099 0.35625 0.0
C78 C 0.655 0.73908 0.48826 0.0
C79 C 0.58352 0.74901 0.36616 0.0
O80 O 0.65609 0.7201 0.38752 0.0
O81 O 0.64435 0.66048 0.34284 0.0
O82 O 0.59671 0.70879 0.47277 0.0
O83 O 0.61103 0.66362 0.41963 0.0
Co84 Co 0.35633 0.71512 0.05431 0.0
O85 O 0.33437 0.69287 0.00694 0.0
O86 O 0.3402 0.76699 0.02392 0.0
C87 C 0.39162 0.6697 0.03887 0.0
O88 O 0.37841 0.75108 0.09918 0.0
Co89 Co 0.37466 0.64685 0.12827 0.0
O90 O 0.39486 0.70143 0.14985 0.0
C91 C 0.31931 0.67963 0.1259 0.0
C92 C 0.32967 0.73609 -0.00217 0.0
C93 C 0.39253 0.74204 0.13358 0.0
O94 O 0.32547 0.71076 0.09708 0.0
O95 O 0.33532 0.64759 0.13821 0.0
O96 O 0.38801 0.70815 0.01727 0.0
O97 O 0.37278 0.65831 0.0656 0.0
Co98 Co 0.1301 0.78692 0.55433 0.0
O99 O 0.15151 0.80842 0.5061 0.0
O100 O 0.14566 0.73453 0.52379 0.0
C101 C 0.0948 0.83258 0.53969 0.0
O102 O 0.10847 0.75187 0.60036 0.0
Co103 Co 0.11332 0.85669 0.62811 0.0
O104 O 0.09317 0.8027 0.65102 0.0
C105 C 0.16832 0.8225 0.62432 0.0
C106 C 0.15599 0.76509 0.49718 0.0
C107 C 0.09497 0.76177 0.63522 0.0
O108 O 0.16152 0.79121 0.59602 0.0
O109 O 0.15278 0.85515 0.63677 0.0
O110 O 0.09797 0.79388 0.5183 0.0
O111 O 0.11406 0.84408 0.56559 0.0
C112 C 0.3115 0.32902 0.71648 0.0
C113 C 0.31056 0.30568 0.67568 0.0
C114 C 0.29059 0.32574 0.74631 0.0
C115 C 0.24026 0.33075 0.79844 0.0
H116 H 0.21043 0.20884 0.81955 0.0
C117 C 0.16875 0.29559 0.94429 0.0
C118 C 0.17187 0.25293 0.96606 0.0
C119 C 0.1821 0.30417 0.90459 0.0
C120 C 0.2187 0.24309 0.81428 0.0
H121 H 0.28634 0.26139 0.63388 0.0
H122 H 0.24929 0.25618 0.68621 0.0
H123 H 0.23982 0.22075 0.75676 0.0
H124 H 0.19192 0.18637 0.96431 0.0
H125 H 0.21613 0.20201 0.89651 0.0
H126 H 0.22074 0.35241 0.85755 0.0
C127 C 0.26659 0.27657 0.6951 0.0
C128 C 0.23519 0.2501 0.77775 0.0
C129 C 0.28775 0.27966 0.66508 0.0
C130 C 0.18906 0.21953 0.94812 0.0
C131 C 0.20267 0.2283 0.90888 0.0
C132 C 0.22408 0.32361 0.83524 0.0
C133 C 0.26791 0.29937 0.73623 0.0
C134 C 0.24684 0.29368 0.7702 0.0
C135 C 0.1991 0.27045 0.88622 0.0
C136 C 0.21371 0.27936 0.84435 0.0
H137 H 0.32873 0.34921 0.72613 0.0
H138 H 0.29269 0.34281 0.77802 0.0
H139 H 0.24841 0.36507 0.793 0.0
H140 H 0.15534 0.32175 0.95713 0.0
H141 H 0.17866 0.33685 0.8879 0.0
C142 C 0.1939 0.24308 0.17455 0.0
C143 C 0.18315 0.19906 0.16578 0.0
C144 C 0.21286 0.24868 0.20804 0.0
C145 C 0.23278 0.19057 0.31138 0.0
H146 H 0.28863 0.28327 0.31345 0.0
C147 C 0.30596 0.2114 0.4577 0.0
C148 C 0.31136 0.25706 0.47127 0.0
C149 C 0.29139 0.20306 0.41912 0.0
C150 C 0.27297 0.25744 0.31337 0.0
H151 H 0.18557 0.12587 0.18175 0.0
H152 H 0.2193 0.13529 0.23877 0.0
H153 H 0.26342 0.2703 0.24547 0.0
H154 H 0.30525 0.32979 0.45564 0.0
H155 H 0.27971 0.31517 0.38859 0.0
H156 H 0.24225 0.17781 0.37923 0.0
C157 C 0.21242 0.16579 0.22125 0.0
C158 C 0.25856 0.25 0.27446 0.0
C159 C 0.19326 0.16032 0.18835 0.0
C160 C 0.30141 0.29418 0.44608 0.0
C161 C 0.28701 0.28586 0.40743 0.0
C162 C 0.24727 0.19782 0.35011 0.0
C163 C 0.22158 0.21023 0.23287 0.0
C164 C 0.23818 0.21664 0.27309 0.0
C165 C 0.2821 0.24024 0.39328 0.0
C166 C 0.26735 0.23157 0.35165 0.0
H167 H 0.18633 0.27354 0.15774 0.0
H168 H 0.21944 0.28343 0.21618 0.0
H169 H 0.21681 0.16534 0.31191 0.0
H170 H 0.31347 0.18209 0.47632 0.0
H171 H 0.288 0.16752 0.40889 0.0
C172 C 0.81168 0.24662 0.28757 0.0
C173 C 0.80715 0.22295 0.32729 0.0
C174 C 0.7911 0.25251 0.25722 0.0
C175 C 0.73498 0.19402 0.21326 0.0
H176 H 0.71744 0.31223 0.1596 0.0
C177 C 0.66285 0.21078 0.06342 0.0
C178 C 0.66872 0.24587 0.03281 0.0
C179 C 0.6774 0.2074 0.10282 0.0
C180 C 0.72232 0.27882 0.1738 0.0
H181 H 0.77796 0.18728 0.36729 0.0
H182 H 0.7417 0.19648 0.31306 0.0
H183 H 0.74629 0.31008 0.22429 0.0
H184 H 0.69519 0.30293 0.0176 0.0
H185 H 0.72145 0.29553 0.08458 0.0
H186 H 0.71249 0.16232 0.1613 0.0
C187 C 0.76108 0.21112 0.306 0.0
C188 C 0.73856 0.27777 0.21116 0.0
C189 C 0.78163 0.20613 0.33694 0.0
C190 C 0.69011 0.27587 0.04098 0.0
C191 C 0.70492 0.27196 0.0797 0.0
C192 C 0.71908 0.19494 0.17529 0.0
C193 C 0.76583 0.23384 0.2657 0.0
C194 C 0.7454 0.23535 0.23069 0.0
C195 C 0.69829 0.23864 0.11181 0.0
C196 C 0.71309 0.23734 0.15445 0.0
H197 H 0.83138 0.25932 0.27947 0.0
H198 H 0.79526 0.26972 0.22616 0.0
H199 H 0.74028 0.16085 0.22763 0.0
H200 H 0.64625 0.18751 0.05794 0.0
H201 H 0.67164 0.18142 0.1268 0.0
C202 C 0.68925 0.24341 0.82297 0.0
C203 C 0.68237 0.28794 0.83785 0.0
C204 C 0.70857 0.23801 0.79008 0.0
C205 C 0.73665 0.30628 0.69829 0.0
H206 H 0.78302 0.20002 0.68336 0.0
C207 C 0.81079 0.28974 0.55306 0.0
C208 C 0.81261 0.24589 0.53303 0.0
C209 C 0.7961 0.29554 0.59191 0.0
C210 C 0.77003 0.22976 0.68702 0.0
H211 H 0.69179 0.36111 0.83368 0.0
H212 H 0.72633 0.35163 0.77804 0.0
H213 H 0.75738 0.20834 0.75143 0.0
H214 H 0.79985 0.17405 0.53716 0.0
H215 H 0.77404 0.18436 0.60446 0.0
H216 H 0.74914 0.32757 0.63387 0.0
C217 C 0.71618 0.32102 0.79015 0.0
C218 C 0.75537 0.23453 0.726 0.0
C219 C 0.69662 0.32645 0.82232 0.0
C220 C 0.79894 0.20827 0.55192 0.0
C221 C 0.78433 0.21404 0.59069 0.0
C222 C 0.75138 0.30163 0.65951 0.0
C223 C 0.72149 0.27705 0.77208 0.0
C224 C 0.73841 0.27278 0.73202 0.0
C225 C 0.78303 0.25757 0.61143 0.0
C226 C 0.76807 0.26318 0.65329 0.0
H227 H 0.67832 0.21325 0.83422 0.0
H228 H 0.71209 0.20363 0.77685 0.0
H229 H 0.7233 0.33561 0.70123 0.0
H230 H 0.82122 0.31932 0.53938 0.0
H231 H 0.79555 0.32948 0.60727 0.0
C232 C 0.80283 0.78782 0.05479 0.0
C233 C 0.81339 0.75223 0.02833 0.0
C234 C 0.79011 0.77746 0.09447 0.0
C235 C 0.75456 0.68588 0.15274 0.0
H236 H 0.76916 0.76145 0.25617 0.0
C237 C 0.69693 0.65452 0.31179 0.0
C238 C 0.68617 0.69446 0.33147 0.0
C239 C 0.71732 0.65814 0.28084 0.0
C240 C 0.7648 0.74016 0.22757 0.0
H241 H 0.81844 0.67776 0.02225 0.0
H242 H 0.79572 0.65956 0.09165 0.0
H243 H 0.7944 0.77412 0.1883 0.0
H244 H 0.6895 0.76917 0.33682 0.0
H245 H 0.7247 0.77585 0.28165 0.0
H246 H 0.72432 0.65311 0.19099 0.0
C247 C 0.79745 0.69549 0.08156 0.0
C248 C 0.77924 0.74739 0.18875 0.0
C249 C 0.81039 0.70589 0.04186 0.0
C250 C 0.69751 0.73784 0.32216 0.0
C251 C 0.71772 0.74158 0.29058 0.0
C252 C 0.74001 0.67886 0.19139 0.0
C253 C 0.78751 0.73128 0.1085 0.0
C254 C 0.77393 0.72084 0.15075 0.0
C255 C 0.72709 0.70187 0.26831 0.0
C256 C 0.74467 0.70637 0.22909 0.0
H257 H 0.8048 0.82389 0.04531 0.0
H258 H 0.78217 0.80568 0.11412 0.0
H259 H 0.74985 0.66525 0.12384 0.0
H260 H 0.68879 0.62053 0.31897 0.0
H261 H 0.72464 0.62676 0.26532 0.0
C262 C 0.68082 0.71429 0.55454 0.0
C263 C 0.67081 0.75029 0.52799 0.0
C264 C 0.69398 0.72419 0.59402 0.0
C265 C 0.7315 0.81481 0.65093 0.0
H266 H 0.71703 0.74084 0.75532 0.0
C267 C 0.78911 0.84857 0.80994 0.0
C268 C 0.79972 0.80908 0.83064 0.0
C269 C 0.76897 0.84428 0.77854 0.0
C270 C 0.72137 0.76164 0.72642 0.0
H271 H 0.66704 0.82496 0.52169 0.0
H272 H 0.69042 0.84232 0.59071 0.0
H273 H 0.6912 0.72799 0.68796 0.0
H274 H 0.7964 0.73446 0.83712 0.0
H275 H 0.76161 0.72661 0.78118 0.0
H276 H 0.7622 0.8474 0.68845 0.0
C277 C 0.688 0.80643 0.58084 0.0
C278 C 0.70659 0.75431 0.68789 0.0
C279 C 0.67465 0.7965 0.54136 0.0
C280 C 0.78852 0.76546 0.82168 0.0
C281 C 0.76855 0.76105 0.78967 0.0
C282 C 0.74635 0.82196 0.68929 0.0
C283 C 0.69756 0.7703 0.60775 0.0
C284 C 0.71178 0.7804 0.64959 0.0
C285 C 0.75928 0.8003 0.76658 0.0
C286 C 0.7417 0.79512 0.72737 0.0
H287 H 0.67818 0.67829 0.54519 0.0
H288 H 0.70156 0.69567 0.61366 0.0
H289 H 0.73616 0.83504 0.62179 0.0
H290 H 0.79712 0.88274 0.81682 0.0
H291 H 0.76173 0.87534 0.76238 0.0
C292 C 0.30536 0.71406 0.9291 0.0
C293 C 0.31484 0.74897 0.95749 0.0
C294 C 0.29328 0.72549 0.88906 0.0
C295 C 0.25837 0.81914 0.83141 0.0
H296 H 0.2747 0.74633 0.72697 0.0
C297 C 0.20486 0.85692 0.66933 0.0
C298 C 0.19365 0.81783 0.64869 0.0
C299 C 0.22465 0.85177 0.70128 0.0
C300 C 0.26989 0.76689 0.75584 0.0
H301 H 0.31869 0.82331 0.96652 0.0
H302 H 0.2973 0.84338 0.8964 0.0
H303 H 0.29844 0.73125 0.79595 0.0
H304 H 0.19592 0.74302 0.64256 0.0
H305 H 0.2302 0.73382 0.69896 0.0
H306 H 0.22928 0.85381 0.79203 0.0
C307 C 0.29926 0.80714 0.90529 0.0
C308 C 0.28344 0.75824 0.79534 0.0
C309 C 0.31148 0.79567 0.94541 0.0
C310 C 0.20425 0.77378 0.65782 0.0
C311 C 0.22391 0.76856 0.69021 0.0
C312 C 0.24477 0.82769 0.79201 0.0
C313 C 0.29032 0.7721 0.87648 0.0
C314 C 0.2775 0.78377 0.83372 0.0
C315 C 0.23346 0.80737 0.71365 0.0
C316 C 0.25009 0.80125 0.75389 0.0
H317 H 0.30759 0.67772 0.93746 0.0
H318 H 0.28611 0.69774 0.86802 0.0
H319 H 0.25313 0.83902 0.86051 0.0
H320 H 0.19732 0.89141 0.66248 0.0
H321 H 0.23213 0.88248 0.71781 0.0
C322 C 0.28362 0.64425 0.17196 0.0
C323 C 0.29409 0.68353 0.15066 0.0
C324 C 0.26372 0.64888 0.20372 0.0
C325 C 0.21648 0.732 0.25588 0.0
H326 H 0.23372 0.66273 0.36207 0.0
C327 C 0.1795 0.78648 0.42764 0.0
C328 C 0.17057 0.75182 0.45672 0.0
C329 C 0.19167 0.77471 0.38782 0.0
C330 C 0.22834 0.68176 0.33252 0.0
H331 H 0.29048 0.75805 0.14333 0.0
H332 H 0.25596 0.76639 0.19941 0.0
H333 H 0.25843 0.64817 0.29444 0.0
H334 H 0.16768 0.67756 0.46709 0.0
H335 H 0.18929 0.65687 0.39731 0.0
H336 H 0.18693 0.76664 0.2947 0.0
C337 C 0.26293 0.73187 0.19129 0.0
C338 C 0.24245 0.67336 0.29363 0.0
C339 C 0.28273 0.72715 0.15911 0.0
C340 C 0.17446 0.70502 0.44543 0.0
C341 C 0.18681 0.6932 0.40552 0.0
C342 C 0.20242 0.74052 0.29488 0.0
C343 C 0.25401 0.69297 0.21524 0.0
C344 C 0.23697 0.69884 0.25498 0.0
C345 C 0.19531 0.72799 0.37613 0.0
C346 C 0.20853 0.71604 0.3338 0.0
H347 H 0.29175 0.61005 0.16566 0.0
H348 H 0.25676 0.61808 0.22065 0.0
H349 H 0.21152 0.75176 0.22658 0.0
H350 H 0.17683 0.8229 0.43535 0.0
H351 H 0.19847 0.8023 0.36631 0.0
C352 C 0.07954 0.32342 0.16791 0.0
C353 C 0.06697 0.28855 0.14304 0.0
C354 C 0.06441 0.35331 0.19436 0.0
C355 C -0.0032 0.39352 0.22116 0.0
H356 H 0.00893 0.3415 0.33746 0.0
C357 C 0.91591 0.3115 0.31552 0.0
C358 C 0.91869 0.2993 0.36002 0.0
C359 C 0.93435 0.34062 0.29544 0.0
C360 C 0.00543 0.35827 0.30599 0.0
H361 H 0.02915 0.25971 0.1229 0.0
H362 H 0.00263 0.31305 0.1675 0.0
H363 H 0.04398 0.3386 0.28278 0.0
H364 H 0.94115 0.31101 0.41997 0.0
H365 H 0.97379 0.3626 0.38488 0.0
H366 H 0.95777 0.41113 0.24354 0.0
C367 C 0.02405 0.31726 0.16697 0.0
C368 C 0.02567 0.35646 0.27447 0.0
C369 C 0.03915 0.28656 0.1417 0.0
C370 C 0.93873 0.32012 0.38548 0.0
C371 C 0.95744 0.34936 0.36525 0.0
C372 C 0.97677 0.39646 0.25303 0.0
C373 C 0.03656 0.34948 0.19502 0.0
C374 C 0.02069 0.3705 0.23087 0.0
C375 C 0.95629 0.35786 0.31936 0.0
C376 C 0.97998 0.3747 0.2944 0.0
H377 H 0.10106 0.3251 0.16964 0.0
H378 H 0.07445 0.37748 0.21616 0.0
H379 H 0.99267 0.40515 0.18781 0.0
H380 H 0.90049 0.29579 0.2954 0.0
H381 H 0.93267 0.34561 0.26011 0.0
C382 C 0.44952 0.20374 0.63035 0.0
C383 C 0.42176 0.20458 0.63394 0.0
C384 C 0.46436 0.17177 0.6546 0.0
C385 C 0.46237 0.13303 0.76352 0.0
H386 H 0.53219 0.08685 0.73194 0.0
C387 C 0.5495 0.17567 0.87434 0.0
C388 C 0.56731 0.20194 0.84887 0.0
C389 C 0.53157 0.14531 0.85356 0.0
C390 C 0.51259 0.0987 0.74165 0.0
H391 H 0.38739 0.1711 0.6629 0.0
H392 H 0.41358 0.11628 0.70737 0.0
H393 H 0.49687 0.0883 0.67655 0.0
H394 H 0.58248 0.21402 0.78302 0.0
H395 H 0.55178 0.16164 0.74696 0.0
H396 H 0.47883 0.14931 0.82666 0.0
C397 C 0.42376 0.13941 0.68481 0.0
C398 C 0.49236 0.09926 0.70996 0.0
C399 C 0.40884 0.17069 0.65946 0.0
C400 C 0.56869 0.1944 0.80323 0.0
C401 C 0.55125 0.16376 0.78267 0.0
C402 C 0.48272 0.13313 0.79501 0.0
C403 C 0.4517 0.14099 0.68389 0.0
C404 C 0.4678 0.12005 0.71969 0.0
C405 C 0.53163 0.14039 0.8072 0.0
C406 C 0.50866 0.11993 0.78305 0.0
H407 H 0.45983 0.22972 0.61096 0.0
H408 H 0.48586 0.17432 0.65367 0.0
H409 H 0.44356 0.14904 0.77203 0.0
H410 H 0.5482 0.18098 0.90971 0.0
H411 H 0.51673 0.12773 0.87337 0.0
C412 C 0.06632 0.69039 0.63567 0.0
C413 C 0.08063 0.72464 0.65868 0.0
C414 C 0.04879 0.66104 0.65845 0.0
C415 C 0.02544 0.63005 0.77228 0.0
H416 H 0.95589 0.66008 0.72496 0.0
C417 C 0.94836 0.72796 0.86411 0.0
C418 C 0.92114 0.72214 0.85615 0.0
C419 C 0.96682 0.6988 0.84396 0.0
C420 C 0.97497 0.64968 0.73838 0.0
H421 H 0.0901 0.75213 0.72341 0.0
H422 H 0.06005 0.70133 0.76295 0.0
H423 H -0.00569 0.66081 0.6765 0.0
H424 H 0.8914 0.68022 0.8232 0.0
H425 H 0.92402 0.62994 0.78593 0.0
H426 H 0.00632 0.62426 0.83526 0.0
C427 C 0.06202 0.69667 0.72758 0.0
C428 C -0.0029 0.65008 0.71048 0.0
C429 C 0.07904 0.72633 0.70488 0.0
C430 C 0.91241 0.68498 0.82986 0.0
C431 C 0.93099 0.65632 0.80868 0.0
C432 C 0.00333 0.62998 0.80022 0.0
C433 C 0.04583 0.66503 0.70456 0.0
C434 C 0.0228 0.6442 0.72802 0.0
C435 C 0.95841 0.66396 0.81453 0.0
C436 C 0.9783 0.64357 0.7841 0.0
H437 H 0.06731 0.68843 0.59997 0.0
H438 H 0.03657 0.63699 0.63985 0.0
H439 H 0.04495 0.62414 0.78644 0.0
H440 H 0.95542 0.75655 0.88426 0.0
H441 H 0.98778 0.70615 0.84858 0.0
C442 C 0.42089 0.81369 0.13175 0.0
C443 C 0.40694 0.77991 0.15588 0.0
C444 C 0.43845 0.84393 0.15344 0.0
C445 C 0.46242 0.87903 0.26581 0.0
H446 H 0.53165 0.84604 0.21924 0.0
C447 C 0.53857 0.78295 0.36092 0.0
C448 C 0.56577 0.78642 0.35175 0.0
C449 C 0.52051 0.81242 0.34015 0.0
C450 C 0.51268 0.85731 0.23241 0.0
H451 H 0.39814 0.75408 0.2214 0.0
H452 H 0.42822 0.80657 0.25912 0.0
H453 H 0.49311 0.84421 0.171 0.0
H454 H 0.59597 0.82458 0.31612 0.0
H455 H 0.56405 0.87551 0.27803 0.0
H456 H 0.48173 0.887 0.32846 0.0
C457 C 0.42593 0.81013 0.22369 0.0
C458 C 0.49048 0.85627 0.20461 0.0
C459 C 0.40892 0.77953 0.20206 0.0
C460 C 0.57498 0.8217 0.32372 0.0
C461 C 0.55678 0.85072 0.30205 0.0
C462 C 0.4846 0.87987 0.29364 0.0
C463 C 0.44177 0.84136 0.19957 0.0
C464 C 0.46488 0.86312 0.22206 0.0
C465 C 0.52929 0.84521 0.30896 0.0
C466 C 0.5095 0.86511 0.27794 0.0
H467 H 0.4196 0.81461 0.09603 0.0
H468 H 0.45043 0.86759 0.13403 0.0
H469 H 0.44296 0.88566 0.27983 0.0
H470 H 0.53116 0.75576 0.38236 0.0
H471 H 0.49948 0.80665 0.34568 0.0
C472 C 0.05434 0.1459 0.99608 0.0
C473 C 0.07193 0.13949 0.03161 0.0
C474 C 0.03462 0.11291 0.98718 0.0
C475 C 0.01859 0.98969 0.00653 0.0
H476 H 0.9469 0.02655 0.97493 0.0
C477 C 0.9307 0.86022 0.99572 0.0
C478 C 0.91274 0.86672 0.96072 0.0
C479 C 0.95076 0.89285 0.00369 0.0
C480 C 0.96692 0.01572 0.98324 0.0
H481 H 0.08229 0.09435 0.0864 0.0
H482 H 0.04781 0.03742 0.07126 0.0
H483 H 0.98027 0.08589 0.99004 0.0
H484 H 0.90213 0.91149 0.90579 0.0
H485 H 0.93718 0.96777 0.91932 0.0
H486 H 0.00522 0.91951 -0.00021 0.0
C487 C 0.04949 0.06732 0.04975 0.0
C488 C 0.98601 0.04971 0.99186 0.0
C489 C 0.06912 0.10015 0.05859 0.0
C490 C 0.91556 0.90567 0.93324 0.0
C491 C 0.93554 0.93812 0.94114 0.0
C492 C -0.0005 0.95569 -0.0021 0.0
C493 C 0.03223 0.07302 0.01368 0.0
C494 C 0.01203 0.03705 0.00371 0.0
C495 C 0.95313 0.93245 0.97678 0.0
C496 C 0.97346 0.96836 0.98616 0.0
H497 H 0.05611 0.17589 0.97471 0.0
H498 H 0.02168 0.11808 0.95898 0.0
H499 H 0.03861 0.97888 0.01493 0.0
H500 H 0.92896 0.83048 0.0174 0.0
H501 H 0.96395 0.8877 0.03158 0.0
C502 C 0.56658 0.60322 0.42533 0.0
C503 C 0.57072 0.6395 0.45561 0.0
C504 C 0.54687 0.57014 0.43277 0.0
C505 C 0.51056 0.51565 0.52305 0.0
H506 H 0.46496 0.4678 0.43007 0.0
C507 C 0.42229 0.39602 0.55869 0.0
C508 C 0.41667 0.35956 0.5293 0.0
C509 C 0.44195 0.42839 0.54897 0.0
C510 C 0.47786 0.48032 0.45617 0.0
H511 H 0.55691 0.67072 0.51657 0.0
H512 H 0.52232 0.6125 0.52976 0.0
H513 H 0.4959 0.53099 0.41397 0.0
H514 H 0.42762 0.32772 0.46705 0.0
H515 H 0.46247 0.38461 0.44999 0.0
H516 H 0.49276 0.46498 0.56522 0.0
C517 C 0.53454 0.6096 0.50043 0.0
C518 C 0.49542 0.51665 0.44704 0.0
C519 C 0.55418 0.64301 0.49279 0.0
C520 C 0.43158 0.35548 0.49028 0.0
C521 C 0.45134 0.38817 0.48043 0.0
C522 C 0.49312 0.47927 0.53213 0.0
C523 C 0.53099 0.57246 0.47079 0.0
C524 C 0.51182 0.53484 0.48049 0.0
C525 C 0.45654 0.42516 0.50961 0.0
C526 C 0.47642 0.46144 0.4989 0.0
H527 H 0.57896 0.59968 0.39627 0.0
H528 H 0.54474 0.54176 0.40954 0.0
H529 H 0.52338 0.5283 0.54923 0.0
H530 H 0.41114 0.40025 0.58902 0.0
H531 H 0.44516 0.45679 0.57183 0.0
C532 C 0.43318 0.64826 -0.00184 0.0
C533 C 0.41515 0.63995 0.03268 0.0
C534 C 0.45412 0.61738 0.99032 0.0
C535 C 0.49295 0.52225 0.04112 0.0
H536 H 0.502 0.48031 0.92028 0.0
C537 C 0.55236 0.3574 -0.00171 0.0
C538 C 0.56961 0.36019 0.96196 0.0
C539 C 0.5342 0.39306 0.00665 0.0
C540 C 0.49995 0.49204 0.95411 0.0
H541 H 0.40546 0.59407 0.08715 0.0
H542 H 0.44186 0.54042 0.07352 0.0
H543 H 0.47065 0.54262 0.9364 0.0
H544 H 0.58104 0.40178 0.90532 0.0
H545 H 0.54948 0.46392 0.92 0.0
H546 H 0.52207 0.47141 0.0589 0.0
C547 C 0.43996 0.57071 0.05258 0.0
C548 C 0.48206 0.52782 0.96331 0.0
C549 C 0.41899 0.60131 0.0602 0.0
C550 C 0.56796 0.39864 0.93357 0.0
C551 C 0.54981 0.43419 0.94188 0.0
C552 C 0.51085 0.48651 0.03192 0.0
C553 C 0.45748 0.57795 0.01713 0.0
C554 C 0.47816 0.54292 0.00697 0.0
C555 C 0.53293 0.43205 0.97877 0.0
C556 C 0.51433 0.47067 0.98838 0.0
H557 H 0.4307 0.67788 0.97652 0.0
H558 H 0.46751 0.62406 0.96304 0.0
H559 H 0.49061 0.53362 0.07501 0.0
H560 H 0.55319 0.32812 0.02067 0.0
H561 H 0.52114 0.3901 0.03496 0.0
C562 C 0.06776 0.90126 0.56155 0.0
C563 C 0.07125 0.86243 0.5341 0.0
C564 C 0.0467 0.93184 0.5544 0.0
C565 C 0.00379 0.97422 0.46603 0.0
H566 H 0.96341 0.02914 0.56187 0.0
C567 C 0.91602 0.09889 0.43579 0.0
C568 C 0.91348 0.13715 0.46423 0.0
C569 C 0.93476 0.06437 0.44439 0.0
C570 C 0.97474 0.0145 0.53482 0.0
H571 H 0.05502 0.82416 0.47859 0.0
H572 H 0.01812 0.87796 0.46588 0.0
H573 H -0.00418 0.9683 0.5778 0.0
H574 H 0.9289 0.16994 0.52344 0.0
H575 H 0.96204 0.10988 0.53816 0.0
H576 H 0.98312 0.02084 0.42311 0.0
C577 C 0.03183 0.88479 0.49276 0.0
C578 C -0.00682 0.97954 0.54392 0.0
C579 C 0.05282 0.85393 0.50015 0.0
C580 C 0.9304 0.14075 0.501 0.0
C581 C 0.9492 0.10619 0.50961 0.0
C582 C 0.98544 0.00928 0.45694 0.0
C583 C 0.0288 0.92438 0.51946 0.0
C584 C 0.00799 0.95925 0.50964 0.0
C585 C 0.95141 0.06741 0.48158 0.0
C586 C 0.97081 0.02999 0.49126 0.0
H587 H 0.0816 0.90862 0.58809 0.0
H588 H 0.045 0.96225 0.57527 0.0
H589 H 0.01525 0.95974 0.43904 0.0
H590 H 0.90319 0.09512 0.40722 0.0
H591 H 0.93575 0.03474 0.42242 0.0
loop_
_geom_bond_atom_site_label_1
_geom_bond_atom_site_label_2
_geom_bond_distance
_geom_bond_site_symmetry_2
_ccdc_geom_bond_type
Co0 O1 2.216 . S
Co0 O2 2.091 . S
Co0 O4 2.004 . S
Co0 O10 2.021 . S
Co0 O12 2.137 . S
Co0 O13 2.244 . S
O1 Co0 2.216 . S
O1 C8 1.247 . S
O2 Co0 2.091 . S
O2 C8 1.261 . S
C3 O12 1.247 . S
C3 O13 1.272 . S
O4 Co0 2.004 . S
O4 C9 1.259 . S
Co5 O6 2.061 . S
Co5 O11 2.052 . S
Co5 O13 2.135 . S
O6 Co5 2.061 . S
O6 C9 1.235 . S
C7 O10 1.238 . S
C7 O11 1.241 . S
C8 O1 1.247 . S
C8 O2 1.261 . S
C9 O4 1.259 . S
C9 O6 1.235 . S
O10 Co0 2.021 . S
O10 C7 1.238 . S
O11 Co5 2.052 . S
O11 C7 1.241 . S
O12 Co0 2.137 . S
O12 C3 1.247 . S
O13 Co0 2.244 . S
O13 C3 1.272 . S
O13 Co5 2.135 . S
Co14 O15 2.216 . S
Co14 O16 2.091 . S
Co14 O18 2.004 . S
Co14 O24 2.021 . S
Co14 O26 2.137 . S
Co14 O27 2.244 . S
O15 Co14 2.216 . S
O15 C22 1.247 . S
O16 Co14 2.091 . S
O16 C22 1.261 . S
C17 O26 1.247 . S
C17 O27 1.272 . S
O18 Co14 2.004 . S
O18 C23 1.259 . S
Co19 O20 2.061 . S
Co19 O25 2.052 . S
Co19 O27 2.135 . S
O20 Co19 2.061 . S
O20 C23 1.235 . S
C21 O24 1.238 . S
C21 O25 1.241 . S
C22 O15 1.247 . S
C22 O16 1.261 . S
C23 O18 1.259 . S
C23 O20 1.235 . S
O24 Co14 2.021 . S
O24 C21 1.238 . S
O25 Co19 2.052 . S
O25 C21 1.241 . S
O26 Co14 2.137 . S
O26 C17 1.247 . S
O27 Co14 2.244 . S
O27 C17 1.272 . S
O27 Co19 2.135 . S
Co28 O29 2.216 . S
Co28 O30 2.091 . S
Co28 O32 2.004 . S
Co28 O38 2.021 . S
Co28 O40 2.137 . S
Co28 O41 2.244 . S
O29 Co28 2.216 . S
O29 C36 1.247 . S
O30 Co28 2.091 . S
O30 C36 1.261 . S
C31 O40 1.247 . S
C31 O41 1.272 . S
O32 Co28 2.004 . S
O32 C37 1.259 . S
Co33 O34 2.061 . S
Co33 O39 2.052 . S
Co33 O41 2.135 . S
O34 Co33 2.061 . S
O34 C37 1.235 . S
C35 O38 1.238 . S
C35 O39 1.241 . S
C36 O29 1.247 . S
C36 O30 1.261 . S
C37 O32 1.259 . S
C37 O34 1.235 . S
O38 Co28 2.021 . S
O38 C35 1.238 . S
O39 Co33 2.052 . S
O39 C35 1.241 . S
O40 Co28 2.137 . S
O40 C31 1.247 . S
O41 Co28 2.244 . S
O41 C31 1.272 . S
O41 Co33 2.135 . S
Co42 O43 2.216 . S
Co42 O44 2.091 . S
Co42 O46 2.004 . S
Co42 O52 2.021 . S
Co42 O54 2.137 . S
Co42 O55 2.244 . S
O43 Co42 2.216 . S
O43 C50 1.247 . S
O44 Co42 2.091 . S
O44 C50 1.261 . S
C45 O54 1.247 . S
C45 O55 1.272 . S
O46 Co42 2.004 . S
O46 C51 1.259 . S
Co47 O48 2.061 . S
Co47 O53 2.052 . S
Co47 O55 2.135 . S
O48 Co47 2.061 . S
O48 C51 1.235 . S
C49 O52 1.238 . S
C49 O53 1.241 . S
C50 O43 1.247 . S
C50 O44 1.261 . S
C51 O46 1.259 . S
C51 O48 1.235 . S
O52 Co42 2.021 . S
O52 C49 1.238 . S
O53 Co47 2.052 . S
O53 C49 1.241 . S
O54 Co42 2.137 . S
O54 C45 1.247 . S
O55 Co42 2.244 . S
O55 C45 1.272 . S
O55 Co47 2.135 . S
Co56 O57 2.216 . S
Co56 O58 2.091 . S
Co56 O60 2.004 . S
Co56 O66 2.021 . S
Co56 O68 2.137 . S
Co56 O69 2.244 . S
O57 Co56 2.216 . S
O57 C64 1.247 . S
O58 Co56 2.091 . S
O58 C64 1.261 . S
C59 O68 1.247 . S
C59 O69 1.272 . S
O60 Co56 2.004 . S
O60 C65 1.259 . S
Co61 O62 2.061 . S
Co61 O67 2.052 . S
Co61 O69 2.135 . S
O62 Co61 2.061 . S
O62 C65 1.235 . S
C63 O66 1.238 . S
C63 O67 1.241 . S
C64 O57 1.247 . S
C64 O58 1.261 . S
C65 O60 1.259 . S
C65 O62 1.235 . S
O66 Co56 2.021 . S
O66 C63 1.238 . S
O67 Co61 2.052 . S
O67 C63 1.241 . S
O68 Co56 2.137 . S
O68 C59 1.247 . S
O69 Co56 2.244 . S
O69 C59 1.272 . S
O69 Co61 2.135 . S
Co70 O71 2.216 . S
Co70 O72 2.091 . S
Co70 O74 2.004 . S
Co70 O80 2.021 . S
Co70 O82 2.137 . S
Co70 O83 2.244 . S
O71 Co70 2.216 . S
O71 C78 1.247 . S
O72 Co70 2.091 . S
O72 C78 1.261 . S
C73 O82 1.247 . S
C73 O83 1.272 . S
O74 Co70 2.004 . S
O74 C79 1.259 . S
Co75 O76 2.061 . S
Co75 O81 2.052 . S
Co75 O83 2.135 . S
O76 Co75 2.061 . S
O76 C79 1.235 . S
C77 O80 1.238 . S
C77 O81 1.241 . S
C78 O71 1.247 . S
C78 O72 1.261 . S
C79 O74 1.259 . S
C79 O76 1.235 . S
O80 Co70 2.021 . S
O80 C77 1.238 . S
O81 Co75 2.052 . S
O81 C77 1.241 . S
O82 Co70 2.137 . S
O82 C73 1.247 . S
O83 Co70 2.244 . S
O83 C73 1.272 . S
O83 Co75 2.135 . S
Co84 O85 2.216 . S
Co84 O86 2.091 . S
Co84 O88 2.004 . S
Co84 O94 2.021 . S
Co84 O96 2.137 . S
Co84 O97 2.244 . S
O85 Co84 2.216 . S
O85 C92 1.247 . S
O86 Co84 2.091 . S
O86 C92 1.261 . S
C87 O96 1.247 . S
C87 O97 1.272 . S
O88 Co84 2.004 . S
O88 C93 1.259 . S
Co89 O90 2.061 . S
Co89 O95 2.052 . S
Co89 O97 2.135 . S
O90 Co89 2.061 . S
O90 C93 1.235 . S
C91 O94 1.238 . S
C91 O95 1.241 . S
C92 O85 1.247 . S
C92 O86 1.261 . S
C93 O88 1.259 . S
C93 O90 1.235 . S
O94 Co84 2.021 . S
O94 C91 1.238 . S
O95 Co89 2.052 . S
O95 C91 1.241 . S
O96 Co84 2.137 . S
O96 C87 1.247 . S
O97 Co84 2.244 . S
O97 C87 1.272 . S
O97 Co89 2.135 . S
Co98 O99 2.216 . S
Co98 O100 2.091 . S
Co98 O102 2.004 . S
Co98 O108 2.021 . S
Co98 O110 2.137 . S
Co98 O111 2.244 . S
O99 Co98 2.216 . S
O99 C106 1.247 . S
O100 Co98 2.091 . S
O100 C106 1.261 . S
C101 O110 1.247 . S
C101 O111 1.272 . S
O102 Co98 2.004 . S
O102 C107 1.259 . S
Co103 O104 2.061 . S
Co103 O109 2.052 . S
Co103 O111 2.135 . S
O104 Co103 2.061 . S
O104 C107 1.235 . S
C105 O108 1.238 . S
C105 O109 1.241 . S
C106 O99 1.247 . S
C106 O100 1.261 . S
C107 O102 1.259 . S
C107 O104 1.235 . S
O108 Co98 2.021 . S
O108 C105 1.238 . S
O109 Co103 2.052 . S
O109 C105 1.241 . S
O110 Co98 2.137 . S
O110 C101 1.247 . S
O111 Co98 2.244 . S
O111 C101 1.272 . S
O111 Co103 2.135 . S
C112 C113 1.349 . S
C112 C114 1.327 . S
C112 H137 0.950 . S
C113 C112 1.349 . S
C113 C129 1.349 . S
C114 C112 1.327 . S
C114 C133 1.429 . S
C114 H138 0.950 . S
C115 C132 1.574 . S
C115 C134 1.368 . S
C115 H139 0.949 . S
H116 C120 0.949 . S
C117 C118 1.349 . S
C117 C119 1.327 . S
C117 H140 0.950 . S
C118 C117 1.349 . S
C118 C130 1.349 . S
C119 C117 1.327 . S
C119 C135 1.429 . S
C119 H141 0.950 . S
C120 H116 0.949 . S
C120 C128 1.574 . S
C120 C136 1.368 . S
H121 C129 0.950 . S
H122 C127 0.950 . S
H123 C128 0.949 . S
H124 C130 0.950 . S
H125 C131 0.950 . S
H126 C132 0.949 . S
C127 H122 0.950 . S
C127 C129 1.327 . S
C127 C133 1.429 . S
C128 C120 1.574 . S
C128 H123 0.949 . S
C128 C134 1.368 . S
C129 C113 1.349 . S
C129 H121 0.950 . S
C129 C127 1.327 . S
C130 C118 1.349 . S
C130 H124 0.950 . S
C130 C131 1.327 . S
C131 H125 0.950 . S
C131 C130 1.327 . S
C131 C135 1.429 . S
C132 C115 1.574 . S
C132 H126 0.949 . S
C132 C136 1.368 . S
C133 C114 1.429 . S
C133 C127 1.429 . S
C133 C134 1.523 . S
C134 C115 1.368 . S
C134 C128 1.368 . S
C134 C133 1.523 . S
C135 C119 1.429 . S
C135 C131 1.429 . S
C135 C136 1.523 . S
C136 C120 1.368 . S
C136 C132 1.368 . S
C136 C135 1.523 . S
H137 C112 0.950 . S
H138 C114 0.950 . S
H139 C115 0.949 . S
H140 C117 0.950 . S
H141 C119 0.950 . S
C142 C143 1.349 . S
C142 C144 1.327 . S
C142 H167 0.950 . S
C143 C142 1.349 . S
C143 C159 1.349 . S
C144 C142 1.327 . S
C144 C163 1.429 . S
C144 H168 0.950 . S
C145 C162 1.574 . S
C145 C164 1.368 . S
C145 H169 0.949 . S
H146 C150 0.949 . S
C147 C148 1.349 . S
C147 C149 1.327 . S
C147 H170 0.950 . S
C148 C147 1.349 . S
C148 C160 1.349 . S
C149 C147 1.327 . S
C149 C165 1.429 . S
C149 H171 0.950 . S
C150 H146 0.949 . S
C150 C158 1.574 . S
C150 C166 1.368 . S
H151 C159 0.950 . S
H152 C157 0.950 . S
H153 C158 0.949 . S
H154 C160 0.950 . S
H155 C161 0.950 . S
H156 C162 0.949 . S
C157 H152 0.950 . S
C157 C159 1.327 . S
C157 C163 1.429 . S
C158 C150 1.574 . S
C158 H153 0.949 . S
C158 C164 1.368 . S
C159 C143 1.349 . S
C159 H151 0.950 . S
C159 C157 1.327 . S
C160 C148 1.349 . S
C160 H154 0.950 . S
C160 C161 1.327 . S
C161 H155 0.950 . S
C161 C160 1.327 . S
C161 C165 1.429 . S
C162 C145 1.574 . S
C162 H156 0.949 . S
C162 C166 1.368 . S
C163 C144 1.429 . S
C163 C157 1.429 . S
C163 C164 1.523 . S
C164 C145 1.368 . S
C164 C158 1.368 . S
C164 C163 1.523 . S
C165 C149 1.429 . S
C165 C161 1.429 . S
C165 C166 1.523 . S
C166 C150 1.368 . S
C166 C162 1.368 . S
C166 C165 1.523 . S
H167 C142 0.950 . S
H168 C144 0.950 . S
H169 C145 0.949 . S
H170 C147 0.950 . S
H171 C149 0.950 . S
C172 C173 1.349 . S
C172 C174 1.327 . S
C172 H197 0.950 . S
C173 C172 1.349 . S
C173 C189 1.349 . S
C174 C172 1.327 . S
C174 C193 1.429 . S
C174 H198 0.950 . S
C175 C192 1.574 . S
C175 C194 1.368 . S
C175 H199 0.949 . S
H176 C180 0.949 . S
C177 C178 1.349 . S
C177 C179 1.327 . S
C177 H200 0.950 . S
C178 C177 1.349 . S
C178 C190 1.349 . S
C179 C177 1.327 . S
C179 C195 1.429 . S
C179 H201 0.950 . S
C180 H176 0.949 . S
C180 C188 1.574 . S
C180 C196 1.368 . S
H181 C189 0.950 . S
H182 C187 0.950 . S
H183 C188 0.949 . S
H184 C190 0.950 . S
H185 C191 0.950 . S
H186 C192 0.949 . S
C187 H182 0.950 . S
C187 C189 1.327 . S
C187 C193 1.429 . S
C188 C180 1.574 . S
C188 H183 0.949 . S
C188 C194 1.368 . S
C189 C173 1.349 . S
C189 H181 0.950 . S
C189 C187 1.327 . S
C190 C178 1.349 . S
C190 H184 0.950 . S
C190 C191 1.327 . S
C191 H185 0.950 . S
C191 C190 1.327 . S
C191 C195 1.429 . S
C192 C175 1.574 . S
C192 H186 0.949 . S
C192 C196 1.368 . S
C193 C174 1.429 . S
C193 C187 1.429 . S
C193 C194 1.523 . S
C194 C175 1.368 . S
C194 C188 1.368 . S
C194 C193 1.523 . S
C195 C179 1.429 . S
C195 C191 1.429 . S
C195 C196 1.523 . S
C196 C180 1.368 . S
C196 C192 1.368 . S
C196 C195 1.523 . S
H197 C172 0.950 . S
H198 C174 0.950 . S
H199 C175 0.949 . S
H200 C177 0.950 . S
H201 C179 0.950 . S
C202 C203 1.349 . S
C202 C204 1.327 . S
C202 H227 0.950 . S
C203 C202 1.349 . S
C203 C219 1.349 . S
C204 C202 1.327 . S
C204 C223 1.429 . S
C204 H228 0.950 . S
C205 C222 1.574 . S
C205 C224 1.368 . S
C205 H229 0.949 . S
H206 C210 0.949 . S
C207 C208 1.349 . S
C207 C209 1.327 . S
C207 H230 0.950 . S
C208 C207 1.349 . S
C208 C220 1.349 . S
C209 C207 1.327 . S
C209 C225 1.429 . S
C209 H231 0.950 . S
C210 H206 0.949 . S
C210 C218 1.574 . S
C210 C226 1.368 . S
H211 C219 0.950 . S
H212 C217 0.950 . S
H213 C218 0.949 . S
H214 C220 0.950 . S
H215 C221 0.950 . S
H216 C222 0.949 . S
C217 H212 0.950 . S
C217 C219 1.327 . S
C217 C223 1.429 . S
C218 C210 1.574 . S
C218 H213 0.949 . S
C218 C224 1.368 . S
C219 C203 1.349 . S
C219 H211 0.950 . S
C219 C217 1.327 . S
C220 C208 1.349 . S
C220 H214 0.950 . S
C220 C221 1.327 . S
C221 H215 0.950 . S
C221 C220 1.327 . S
C221 C225 1.429 . S
C222 C205 1.574 . S
C222 H216 0.949 . S
C222 C226 1.368 . S
C223 C204 1.429 . S
C223 C217 1.429 . S
C223 C224 1.523 . S
C224 C205 1.368 . S
C224 C218 1.368 . S
C224 C223 1.523 . S
C225 C209 1.429 . S
C225 C221 1.429 . S
C225 C226 1.523 . S
C226 C210 1.368 . S
C226 C222 1.368 . S
C226 C225 1.523 . S
H227 C202 0.950 . S
H228 C204 0.950 . S
H229 C205 0.949 . S
H230 C207 0.950 . S
H231 C209 0.950 . S
C232 C233 1.349 . S
C232 C234 1.327 . S
C232 H257 0.950 . S
C233 C232 1.349 . S
C233 C249 1.349 . S
C234 C232 1.327 . S
C234 C253 1.429 . S
C234 H258 0.950 . S
C235 C252 1.574 . S
C235 C254 1.368 . S
C235 H259 0.949 . S
H236 C240 0.949 . S
C237 C238 1.349 . S
C237 C239 1.327 . S
C237 H260 0.950 . S
C238 C237 1.349 . S
C238 C250 1.349 . S
C239 C237 1.327 . S
C239 C255 1.429 . S
C239 H261 0.950 . S
C240 H236 0.949 . S
C240 C248 1.574 . S
C240 C256 1.368 . S
H241 C249 0.950 . S
H242 C247 0.950 . S
H243 C248 0.949 . S
H244 C250 0.950 . S
H245 C251 0.950 . S
H246 C252 0.949 . S
C247 H242 0.950 . S
C247 C249 1.327 . S
C247 C253 1.429 . S
C248 C240 1.574 . S
C248 H243 0.949 . S
C248 C254 1.368 . S
C249 C233 1.349 . S
C249 H241 0.950 . S
C249 C247 1.327 . S
C250 C238 1.349 . S
C250 H244 0.950 . S
C250 C251 1.327 . S
C251 H245 0.950 . S
C251 C250 1.327 . S
C251 C255 1.429 . S
C252 C235 1.574 . S
C252 H246 0.949 . S
C252 C256 1.368 . S
C253 C234 1.429 . S
C253 C247 1.429 . S
C253 C254 1.523 . S
C254 C235 1.368 . S
C254 C248 1.368 . S
C254 C253 1.523 . S
C255 C239 1.429 . S
C255 C251 1.429 . S
C255 C256 1.523 . S
C256 C240 1.368 . S
C256 C252 1.368 . S
C256 C255 1.523 . S
H257 C232 0.950 . S
H258 C234 0.950 . S
H259 C235 0.949 . S
H260 C237 0.950 . S
H261 C239 0.950 . S
C262 C263 1.349 . S
C262 C264 1.327 . S
C262 H287 0.950 . S
C263 C262 1.349 . S
C263 C279 1.349 . S
C264 C262 1.327 . S
C264 C283 1.429 . S
C264 H288 0.950 . S
C265 C282 1.574 . S
C265 C284 1.368 . S
C265 H289 0.949 . S
H266 C270 0.949 . S
C267 C268 1.349 . S
C267 C269 1.327 . S
C267 H290 0.950 . S
C268 C267 1.349 . S
C268 C280 1.349 . S
C269 C267 1.327 . S
C269 C285 1.429 . S
C269 H291 0.950 . S
C270 H266 0.949 . S
C270 C278 1.574 . S
C270 C286 1.368 . S
H271 C279 0.950 . S
H272 C277 0.950 . S
H273 C278 0.949 . S
H274 C280 0.950 . S
H275 C281 0.950 . S
H276 C282 0.949 . S
C277 H272 0.950 . S
C277 C279 1.327 . S
C277 C283 1.429 . S
C278 C270 1.574 . S
C278 H273 0.949 . S
C278 C284 1.368 . S
C279 C263 1.349 . S
C279 H271 0.950 . S
C279 C277 1.327 . S
C280 C268 1.349 . S
C280 H274 0.950 . S
C280 C281 1.327 . S
C281 H275 0.950 . S
C281 C280 1.327 . S
C281 C285 1.429 . S
C282 C265 1.574 . S
C282 H276 0.949 . S
C282 C286 1.368 . S
C283 C264 1.429 . S
C283 C277 1.429 . S
C283 C284 1.523 . S
C284 C265 1.368 . S
C284 C278 1.368 . S
C284 C283 1.523 . S
C285 C269 1.429 . S
C285 C281 1.429 . S
C285 C286 1.523 . S
C286 C270 1.368 . S
C286 C282 1.368 . S
C286 C285 1.523 . S
H287 C262 0.950 . S
H288 C264 0.950 . S
H289 C265 0.949 . S
H290 C267 0.950 . S
H291 C269 0.950 . S
C292 C293 1.349 . S
C292 C294 1.327 . S
C292 H317 0.950 . S
C293 C292 1.349 . S
C293 C309 1.349 . S
C294 C292 1.327 . S
C294 C313 1.429 . S
C294 H318 0.950 . S
C295 C312 1.574 . S
C295 C314 1.368 . S
C295 H319 0.949 . S
H296 C300 0.949 . S
C297 C298 1.349 . S
C297 C299 1.327 . S
C297 H320 0.950 . S
C298 C297 1.349 . S
C298 C310 1.349 . S
C299 C297 1.327 . S
C299 C315 1.429 . S
C299 H321 0.950 . S
C300 H296 0.949 . S
C300 C308 1.574 . S
C300 C316 1.368 . S
H301 C309 0.950 . S
H302 C307 0.950 . S
H303 C308 0.949 . S
H304 C310 0.950 . S
H305 C311 0.950 . S
H306 C312 0.949 . S
C307 H302 0.950 . S
C307 C309 1.327 . S
C307 C313 1.429 . S
C308 C300 1.574 . S
C308 H303 0.949 . S
C308 C314 1.368 . S
C309 C293 1.349 . S
C309 H301 0.950 . S
C309 C307 1.327 . S
C310 C298 1.349 . S
C310 H304 0.950 . S
C310 C311 1.327 . S
C311 H305 0.950 . S
C311 C310 1.327 . S
C311 C315 1.429 . S
C312 C295 1.574 . S
C312 H306 0.949 . S
C312 C316 1.368 . S
C313 C294 1.429 . S
C313 C307 1.429 . S
C313 C314 1.523 . S
C314 C295 1.368 . S
C314 C308 1.368 . S
C314 C313 1.523 . S
C315 C299 1.429 . S
C315 C311 1.429 . S
C315 C316 1.523 . S
C316 C300 1.368 . S
C316 C312 1.368 . S
C316 C315 1.523 . S
H317 C292 0.950 . S
H318 C294 0.950 . S
H319 C295 0.949 . S
H320 C297 0.950 . S
H321 C299 0.950 . S
C322 C323 1.349 . S
C322 C324 1.327 . S
C322 H347 0.950 . S
C323 C322 1.349 . S
C323 C339 1.349 . S
C324 C322 1.327 . S
C324 C343 1.429 . S
C324 H348 0.950 . S
C325 C342 1.574 . S
C325 C344 1.368 . S
C325 H349 0.949 . S
H326 C330 0.949 . S
C327 C328 1.349 . S
C327 C329 1.327 . S
C327 H350 0.950 . S
C328 C327 1.349 . S
C328 C340 1.349 . S
C329 C327 1.327 . S
C329 C345 1.429 . S
C329 H351 0.950 . S
C330 H326 0.949 . S
C330 C338 1.574 . S
C330 C346 1.368 . S
H331 C339 0.950 . S
H332 C337 0.950 . S
H333 C338 0.949 . S
H334 C340 0.950 . S
H335 C341 0.950 . S
H336 C342 0.949 . S
C337 H332 0.950 . S
C337 C339 1.327 . S
C337 C343 1.429 . S
C338 C330 1.574 . S
C338 H333 0.949 . S
C338 C344 1.368 . S
C339 C323 1.349 . S
C339 H331 0.950 . S
C339 C337 1.327 . S
C340 C328 1.349 . S
C340 H334 0.950 . S
C340 C341 1.327 . S
C341 H335 0.950 . S
C341 C340 1.327 . S
C341 C345 1.429 . S
C342 C325 1.574 . S
C342 H336 0.949 . S
C342 C346 1.368 . S
C343 C324 1.429 . S
C343 C337 1.429 . S
C343 C344 1.523 . S
C344 C325 1.368 . S
C344 C338 1.368 . S
C344 C343 1.523 . S
C345 C329 1.429 . S
C345 C341 1.429 . S
C345 C346 1.523 . S
C346 C330 1.368 . S
C346 C342 1.368 . S
C346 C345 1.523 . S
H347 C322 0.950 . S
H348 C324 0.950 . S
H349 C325 0.949 . S
H350 C327 0.950 . S
H351 C329 0.950 . S
C352 C353 1.349 . S
C352 C354 1.327 . S
C352 H377 0.950 . S
C353 C352 1.349 . S
C353 C369 1.349 . S
C354 C352 1.327 . S
C354 C373 1.429 . S
C354 H378 0.950 . S
C355 C372 1.547 1_455 S
C355 C374 1.393 . S
C355 H379 0.952 . S
H356 C360 0.952 . S
C357 C358 1.349 . S
C357 C359 1.327 . S
C357 H380 0.950 . S
C358 C357 1.349 . S
C358 C370 1.349 . S
C359 C357 1.327 . S
C359 C375 1.429 . S
C359 H381 0.950 . S
C360 H356 0.952 . S
C360 C368 1.547 1_655 S
C360 C376 1.393 . S
H361 C369 0.950 . S
H362 C367 0.950 . S
H363 C368 0.949 . S
H364 C370 0.950 . S
H365 C371 0.950 . S
H366 C372 0.949 . S
C367 H362 0.950 . S
C367 C369 1.327 . S
C367 C373 1.429 . S
C368 C360 1.547 1_455 S
C368 H363 0.949 . S
C368 C374 1.368 . S
C369 C353 1.349 . S
C369 H361 0.950 . S
C369 C367 1.327 . S
C370 C358 1.349 . S
C370 H364 0.950 . S
C370 C371 1.327 . S
C371 H365 0.950 . S
C371 C370 1.327 . S
C371 C375 1.429 . S
C372 C355 1.547 1_655 S
C372 H366 0.949 . S
C372 C376 1.368 . S
C373 C354 1.429 . S
C373 C367 1.429 . S
C373 C374 1.523 . S
C374 C355 1.393 . S
C374 C368 1.368 . S
C374 C373 1.523 . S
C375 C359 1.429 . S
C375 C371 1.429 . S
C375 C376 1.523 . S
C376 C360 1.393 . S
C376 C372 1.368 . S
C376 C375 1.523 . S
H377 C352 0.950 . S
H378 C354 0.950 . S
H379 C355 0.952 . S
H380 C357 0.950 . S
H381 C359 0.950 . S
C382 C383 1.349 . S
C382 C384 1.327 . S
C382 H407 0.950 . S
C383 C382 1.349 . S
C383 C399 1.349 . S
C384 C382 1.327 . S
C384 C403 1.429 . S
C384 H408 0.950 . S
C385 C402 1.574 . S
C385 C404 1.368 . S
C385 H409 0.949 . S
H386 C390 0.949 . S
C387 C388 1.349 . S
C387 C389 1.327 . S
C387 H410 0.950 . S
C388 C387 1.349 . S
C388 C400 1.349 . S
C389 C387 1.327 . S
C389 C405 1.429 . S
C389 H411 0.950 . S
C390 H386 0.949 . S
C390 C398 1.574 . S
C390 C406 1.368 . S
H391 C399 0.950 . S
H392 C397 0.950 . S
H393 C398 0.949 . S
H394 C400 0.950 . S
H395 C401 0.950 . S
H396 C402 0.949 . S
C397 H392 0.950 . S
C397 C399 1.327 . S
C397 C403 1.429 . S
C398 C390 1.574 . S
C398 H393 0.949 . S
C398 C404 1.368 . S
C399 C383 1.349 . S
C399 H391 0.950 . S
C399 C397 1.327 . S
C400 C388 1.349 . S
C400 H394 0.950 . S
C400 C401 1.327 . S
C401 H395 0.950 . S
C401 C400 1.327 . S
C401 C405 1.429 . S
C402 C385 1.574 . S
C402 H396 0.949 . S
C402 C406 1.368 . S
C403 C384 1.429 . S
C403 C397 1.429 . S
C403 C404 1.523 . S
C404 C385 1.368 . S
C404 C398 1.368 . S
C404 C403 1.523 . S
C405 C389 1.429 . S
C405 C401 1.429 . S
C405 C406 1.523 . S
C406 C390 1.368 . S
C406 C402 1.368 . S
C406 C405 1.523 . S
H407 C382 0.950 . S
H408 C384 0.950 . S
H409 C385 0.949 . S
H410 C387 0.950 . S
H411 C389 0.950 . S
C412 C413 1.349 . S
C412 C414 1.327 . S
C412 H437 0.950 . S
C413 C412 1.349 . S
C413 C429 1.349 . S
C414 C412 1.327 . S
C414 C433 1.429 . S
C414 H438 0.950 . S
C415 C432 1.547 1_455 S
C415 C434 1.368 . S
C415 H439 0.949 . S
H416 C420 0.949 . S
C417 C418 1.349 . S
C417 C419 1.327 . S
C417 H440 0.950 . S
C418 C417 1.349 . S
C418 C430 1.349 . S
C419 C417 1.327 . S
C419 C435 1.429 . S
C419 H441 0.950 . S
C420 H416 0.949 . S
C420 C428 1.547 1_655 S
C420 C436 1.368 . S
H421 C429 0.950 . S
H422 C427 0.950 . S
H423 C428 0.952 . S
H424 C430 0.950 . S
H425 C431 0.950 . S
H426 C432 0.952 . S
C427 H422 0.950 . S
C427 C429 1.327 . S
C427 C433 1.429 . S
C428 C420 1.547 1_455 S
C428 H423 0.952 . S
C428 C434 1.393 . S
C429 C413 1.349 . S
C429 H421 0.950 . S
C429 C427 1.327 . S
C430 C418 1.349 . S
C430 H424 0.950 . S
C430 C431 1.327 . S
C431 H425 0.950 . S
C431 C430 1.327 . S
C431 C435 1.429 . S
C432 C415 1.547 1_655 S
C432 H426 0.952 . S
C432 C436 1.393 . S
C433 C414 1.429 . S
C433 C427 1.429 . S
C433 C434 1.523 . S
C434 C415 1.368 . S
C434 C428 1.393 . S
C434 C433 1.523 . S
C435 C419 1.429 . S
C435 C431 1.429 . S
C435 C436 1.523 . S
C436 C420 1.368 . S
C436 C432 1.393 . S
C436 C435 1.523 . S
H437 C412 0.950 . S
H438 C414 0.950 . S
H439 C415 0.949 . S
H440 C417 0.950 . S
H441 C419 0.950 . S
C442 C443 1.349 . S
C442 C444 1.327 . S
C442 H467 0.950 . S
C443 C442 1.349 . S
C443 C459 1.349 . S
C444 C442 1.327 . S
C444 C463 1.429 . S
C444 H468 0.950 . S
C445 C462 1.574 . S
C445 C464 1.368 . S
C445 H469 0.949 . S
H446 C450 0.949 . S
C447 C448 1.349 . S
C447 C449 1.327 . S
C447 H470 0.950 . S
C448 C447 1.349 . S
C448 C460 1.349 . S
C449 C447 1.327 . S
C449 C465 1.429 . S
C449 H471 0.950 . S
C450 H446 0.949 . S
C450 C458 1.574 . S
C450 C466 1.368 . S
H451 C459 0.950 . S
H452 C457 0.950 . S
H453 C458 0.949 . S
H454 C460 0.950 . S
H455 C461 0.950 . S
H456 C462 0.949 . S
C457 H452 0.950 . S
C457 C459 1.327 . S
C457 C463 1.429 . S
C458 C450 1.574 . S
C458 H453 0.949 . S
C458 C464 1.368 . S
C459 C443 1.349 . S
C459 H451 0.950 . S
C459 C457 1.327 . S
C460 C448 1.349 . S
C460 H454 0.950 . S
C460 C461 1.327 . S
C461 H455 0.950 . S
C461 C460 1.327 . S
C461 C465 1.429 . S
C462 C445 1.574 . S
C462 H456 0.949 . S
C462 C466 1.368 . S
C463 C444 1.429 . S
C463 C457 1.429 . S
C463 C464 1.523 . S
C464 C445 1.368 . S
C464 C458 1.368 . S
C464 C463 1.523 . S
C465 C449 1.429 . S
C465 C461 1.429 . S
C465 C466 1.523 . S
C466 C450 1.368 . S
C466 C462 1.368 . S
C466 C465 1.523 . S
H467 C442 0.950 . S
H468 C444 0.950 . S
H469 C445 0.949 . S
H470 C447 0.950 . S
H471 C449 0.950 . S
C472 C473 1.349 . S
C472 C474 1.327 . S
C472 H497 0.950 . S
C473 C472 1.349 . S
C473 C489 1.349 . S
C474 C472 1.327 . S
C474 C493 1.429 . S
C474 H498 0.950 . S
C475 C492 1.584 . S
C475 C494 1.359 1_566 S
C475 H499 0.949 . S
H476 C480 0.949 . S
C477 C478 1.349 . S
C477 C479 1.327 . S
C477 H500 0.950 . S
C478 C477 1.349 . S
C478 C490 1.349 . S
C479 C477 1.327 . S
C479 C495 1.429 . S
C479 H501 0.950 . S
C480 H476 0.949 . S
C480 C488 1.584 . S
C480 C496 1.359 1_544 S
H481 C489 0.950 1_556 S
H482 C487 0.950 . S
H483 C488 0.949 . S
H484 C490 0.950 1_554 S
H485 C491 0.950 . S
H486 C492 0.949 . S
C487 H482 0.950 . S
C487 C489 1.327 1_556 S
C487 C493 1.429 1_556 S
C488 C480 1.584 . S
C488 H483 0.949 . S
C488 C494 1.368 1_655 S
C489 C473 1.349 . S
C489 H481 0.950 1_554 S
C489 C487 1.327 1_554 S
C490 C478 1.349 . S
C490 H484 0.950 1_556 S
C490 C491 1.327 1_556 S
C491 H485 0.950 . S
C491 C490 1.327 1_554 S
C491 C495 1.429 1_554 S
C492 C475 1.584 . S
C492 H486 0.949 . S
C492 C496 1.368 1_455 S
C493 C474 1.429 . S
C493 C487 1.429 1_554 S
C493 C494 1.523 . S
C494 C475 1.359 1_544 S
C494 C488 1.368 1_455 S
C494 C493 1.523 . S
C495 C479 1.429 . S
C495 C491 1.429 1_556 S
C495 C496 1.523 . S
C496 C480 1.359 1_566 S
C496 C492 1.368 1_655 S
C496 C495 1.523 . S
H497 C472 0.950 . S
H498 C474 0.950 . S
H499 C475 0.949 . S
H500 C477 0.950 . S
H501 C479 0.950 . S
C502 C503 1.349 . S
C502 C504 1.327 . S
C502 H527 0.950 . S
C503 C502 1.349 . S
C503 C519 1.349 . S
C504 C502 1.327 . S
C504 C523 1.429 . S
C504 H528 0.950 . S
C505 C522 1.574 . S
C505 C524 1.368 . S
C505 H529 0.949 . S
H506 C510 0.949 . S
C507 C508 1.349 . S
C507 C509 1.327 . S
C507 H530 0.950 . S
C508 C507 1.349 . S
C508 C520 1.349 . S
C509 C507 1.327 . S
C509 C525 1.429 . S
C509 H531 0.950 . S
C510 H506 0.949 . S
C510 C518 1.574 . S
C510 C526 1.368 . S
H511 C519 0.950 . S
H512 C517 0.950 . S
H513 C518 0.949 . S
H514 C520 0.950 . S
H515 C521 0.950 . S
H516 C522 0.949 . S
C517 H512 0.950 . S
C517 C519 1.327 . S
C517 C523 1.429 . S
C518 C510 1.574 . S
C518 H513 0.949 . S
C518 C524 1.368 . S
C519 C503 1.349 . S
C519 H511 0.950 . S
C519 C517 1.327 . S
C520 C508 1.349 . S
C520 H514 0.950 . S
C520 C521 1.327 . S
C521 H515 0.950 . S
C521 C520 1.327 . S
C521 C525 1.429 . S
C522 C505 1.574 . S
C522 H516 0.949 . S
C522 C526 1.368 . S
C523 C504 1.429 . S
C523 C517 1.429 . S
C523 C524 1.523 . S
C524 C505 1.368 . S
C524 C518 1.368 . S
C524 C523 1.523 . S
C525 C509 1.429 . S
C525 C521 1.429 . S
C525 C526 1.523 . S
C526 C510 1.368 . S
C526 C522 1.368 . S
C526 C525 1.523 . S
H527 C502 0.950 . S
H528 C504 0.950 . S
H529 C505 0.949 . S
H530 C507 0.950 . S
H531 C509 0.950 . S
C532 C533 1.349 1_556 S
C532 C534 1.327 . S
C532 H557 0.950 . S
C533 C532 1.349 1_554 S
C533 C549 1.349 . S
C534 C532 1.327 . S
C534 C553 1.429 1_556 S
C534 H558 0.950 . S
C535 C552 1.574 . S
C535 C554 1.368 . S
C535 H559 0.949 . S
H536 C540 0.949 . S
C537 C538 1.349 1_554 S
C537 C539 1.327 . S
C537 H560 0.950 . S
C538 C537 1.349 1_556 S
C538 C550 1.349 . S
C539 C537 1.327 . S
C539 C555 1.429 1_554 S
C539 H561 0.950 . S
C540 H536 0.949 . S
C540 C548 1.574 . S
C540 C556 1.368 . S
H541 C549 0.950 . S
H542 C547 0.950 . S
H543 C548 0.949 . S
H544 C550 0.950 . S
H545 C551 0.950 . S
H546 C552 0.949 . S
C547 H542 0.950 . S
C547 C549 1.327 . S
C547 C553 1.429 . S
C548 C540 1.574 . S
C548 H543 0.949 . S
C548 C554 1.368 1_556 S
C549 C533 1.349 . S
C549 H541 0.950 . S
C549 C547 1.327 . S
C550 C538 1.349 . S
C550 H544 0.950 . S
C550 C551 1.327 . S
C551 H545 0.950 . S
C551 C550 1.327 . S
C551 C555 1.429 . S
C552 C535 1.574 . S
C552 H546 0.949 . S
C552 C556 1.368 1_554 S
C553 C534 1.429 1_554 S
C553 C547 1.429 . S
C553 C554 1.523 . S
C554 C535 1.368 . S
C554 C548 1.368 1_554 S
C554 C553 1.523 . S
C555 C539 1.429 1_556 S
C555 C551 1.429 . S
C555 C556 1.523 . S
C556 C540 1.368 . S
C556 C552 1.368 1_556 S
C556 C555 1.523 . S
H557 C532 0.950 . S
H558 C534 0.950 . S
H559 C535 0.949 . S
H560 C537 0.950 . S
H561 C539 0.950 . S
C562 C563 1.349 . S
C562 C564 1.327 . S
C562 H587 0.950 . S
C563 C562 1.349 . S
C563 C579 1.349 . S
C564 C562 1.327 . S
C564 C583 1.429 . S
C564 H588 0.950 . S
C565 C582 1.574 1_465 S
C565 C584 1.368 . S
C565 H589 0.949 . S
H566 C570 0.949 . S
C567 C568 1.349 . S
C567 C569 1.327 . S
C567 H590 0.950 . S
C568 C567 1.349 . S
C568 C580 1.349 . S
C569 C567 1.327 . S
C569 C585 1.429 . S
C569 H591 0.950 . S
C570 H566 0.949 . S
C570 C578 1.574 1_645 S
C570 C586 1.368 . S
H571 C579 0.950 . S
H572 C577 0.950 . S
H573 C578 0.949 . S
H574 C580 0.950 . S
H575 C581 0.950 . S
H576 C582 0.949 . S
C577 H572 0.950 . S
C577 C579 1.327 . S
C577 C583 1.429 . S
C578 C570 1.574 1_465 S
C578 H573 0.949 . S
C578 C584 1.368 . S
C579 C563 1.349 . S
C579 H571 0.950 . S
C579 C577 1.327 . S
C580 C568 1.349 . S
C580 H574 0.950 . S
C580 C581 1.327 . S
C581 H575 0.950 . S
C581 C580 1.327 . S
C581 C585 1.429 . S
C582 C565 1.574 1_645 S
C582 H576 0.949 . S
C582 C586 1.368 . S
C583 C564 1.429 . S
C583 C577 1.429 . S
C583 C584 1.523 . S
C584 C565 1.368 . S
C584 C578 1.368 . S
C584 C583 1.523 . S
C585 C569 1.429 . S
C585 C581 1.429 . S
C585 C586 1.523 . S
C586 C570 1.368 . S
C586 C582 1.368 . S
C586 C585 1.523 . S
H587 C562 0.950 . S
H588 C564 0.950 . S
H589 C565 0.949 . S
H590 C567 0.950 . S
H591 C569 0.950 . S
C113 C21 1.642 . S
C118 C8 1.674 1_556 S
C143 C7 1.642 . S
C148 C22 1.674 . S
C173 C49 1.642 . S
C178 C36 1.674 1_554 S
C203 C35 1.642 . S
C208 C50 1.674 . S
C233 C64 1.674 1_554 S
C238 C77 1.642 . S
C263 C78 1.674 . S
C268 C63 1.642 . S
C293 C92 1.674 1_556 S
C298 C105 1.642 . S
C323 C91 1.642 . S
C328 C106 1.674 . S
C353 C9 0.570 . S
C358 C51 0.570 . S
C383 C23 0.570 . S
C388 C37 0.570 . S
C413 C107 0.570 . S
C418 C65 0.570 . S
C443 C93 0.570 . S
C448 C79 0.570 . S
C473 C3 1.553 . S
C478 C59 1.553 . S
C503 C73 1.553 . S
C508 C17 1.553 . S
C533 C87 1.553 . S
C538 C31 1.553 . S
C563 C101 1.553 . S
C568 C45 1.553 . S
