# Generated by pormake.
# Topology vby, (6)-cn, num edge types: 1
# Building blocks:
#     Node 0, Type 0, BuildingBlock: INOVEN_clean_sbu_0, # of connection points: 6
#     Node 1, Type 0, BuildingBlock: INOVEN_clean_sbu_0, # of connection points: 6
#     Node 2, Type 0, BuildingBlock: INOVEN_clean_sbu_0, # of connection points: 6
#     Node 3, Type 0, BuildingBlock: INOVEN_clean_sbu_0, # of connection points: 6
#     Node 4, Type 0, BuildingBlock: INOVEN_clean_sbu_0, # of connection points: 6
#     Node 5, Type 0, BuildingBlock: INOVEN_clean_sbu_0, # of connection points: 6
#     Node 6, Type 0, BuildingBlock: INOVEN_clean_sbu_0, # of connection points: 6
#     Node 7, Type 0, BuildingBlock: INOVEN_clean_sbu_0, # of connection points: 6
#     Edge 8, Type (0, 0), BuildingBlock: KIFKEQ_clean_linker_1, # of connection points: 2
#     Edge 9, Type (0, 0), BuildingBlock: KIFKEQ_clean_linker_1, # of connection points: 2
#     Edge 10, Type (0, 0), BuildingBlock: KIFKEQ_clean_linker_1, # of connection points: 2
#     Edge 11, Type (0, 0), BuildingBlock: KIFKEQ_clean_linker_1, # of connection points: 2
#     Edge 12, Type (0, 0), BuildingBlock: KIFKEQ_clean_linker_1, # of connection points: 2
#     Edge 13, Type (0, 0), BuildingBlock: KIFKEQ_clean_linker_1, # of connection points: 2
#     Edge 14, Type (0, 0), BuildingBlock: KIFKEQ_clean_linker_1, # of connection points: 2
#     Edge 15, Type (0, 0), BuildingBlock: KIFKEQ_clean_linker_1, # of connection points: 2
#     Edge 16, Type (0, 0), BuildingBlock: KIFKEQ_clean_linker_1, # of connection points: 2
#     Edge 17, Type (0, 0), BuildingBlock: KIFKEQ_clean_linker_1, # of connection points: 2
#     Edge 18, Type (0, 0), BuildingBlock: KIFKEQ_clean_linker_1, # of connection points: 2
#     Edge 19, Type (0, 0), BuildingBlock: KIFKEQ_clean_linker_1, # of connection points: 2
#     Edge 20, Type (0, 0), BuildingBlock: KIFKEQ_clean_linker_1, # of connection points: 2
#     Edge 21, Type (0, 0), BuildingBlock: KIFKEQ_clean_linker_1, # of connection points: 2
#     Edge 22, Type (0, 0), BuildingBlock: KIFKEQ_clean_linker_1, # of connection points: 2
#     Edge 23, Type (0, 0), BuildingBlock: KIFKEQ_clean_linker_1, # of connection points: 2
#     Edge 24, Type (0, 0), BuildingBlock: KIFKEQ_clean_linker_1, # of connection points: 2
#     Edge 25, Type (0, 0), BuildingBlock: KIFKEQ_clean_linker_1, # of connection points: 2
#     Edge 26, Type (0, 0), BuildingBlock: KIFKEQ_clean_linker_1, # of connection points: 2
#     Edge 27, Type (0, 0), BuildingBlock: KIFKEQ_clean_linker_1, # of connection points: 2
#     Edge 28, Type (0, 0), BuildingBlock: KIFKEQ_clean_linker_1, # of connection points: 2
#     Edge 29, Type (0, 0), BuildingBlock: KIFKEQ_clean_linker_1, # of connection points: 2
#     Edge 30, Type (0, 0), BuildingBlock: KIFKEQ_clean_linker_1, # of connection points: 2
#     Edge 31, Type (0, 0), BuildingBlock: KIFKEQ_clean_linker_1, # of connection points: 2
# Relax obj value: 0.200
# Max RMSD: 0.220
# Mean RMSD: 0.220
data_MOF--net-vby--node1-INOVEN_clean_sbu_0--edge1-KIFKEQ_clean_linker_1
_symmetry_space_group_name_H-M    P1
_symmetry_Int_Tables_number       1
_symmetry_cell_setting            triclinic
loop_
_symmetry_equiv_pos_as_xyz
'x, y, z'
_cell_length_a     15.864874
_cell_length_b     104.89393
_cell_length_c     29.790861
_cell_angle_alpha  90.060604
_cell_angle_beta   84.561436
_cell_angle_gamma 89.979992
loop_
_atom_site_label
_atom_site_type_symbol
_atom_site_fract_x
_atom_site_fract_y
_atom_site_fract_z
_atom_type_partial_charge
Gd0 Gd 0.06107 0.4005 0.01866 0.0
Gd1 Gd 0.05256 0.37242 0.01631 0.0
C2 C 0.87729 0.38669 0.02262 0.0
C3 C 0.04996 0.42509 0.01421 0.0
C4 C 0.0421 0.43923 0.01297 0.0
C5 C 0.99771 0.44578 0.04904 0.0
C6 C 0.08249 0.44637 0.97726 0.0
C7 C 0.03665 0.46635 0.0146 0.0
C8 C 0.07986 0.45976 0.97807 0.0
C9 C 0.99485 0.45913 0.0498 0.0
C10 C 0.07498 0.38916 0.09979 0.0
C11 C 0.23772 0.38636 0.01019 0.0
C12 C 0.06038 0.3478 0.02669 0.0
C13 C 0.11231 0.33602 0.02851 0.0
C14 C 0.15996 0.33118 0.98997 0.0
C15 C 0.10426 0.32852 0.06774 0.0
C16 C 0.18486 0.31121 0.02904 0.0
C17 C 0.14016 0.31631 0.06808 0.0
C18 C 0.19595 0.31895 0.99029 0.0
C19 C 1.03232 0.38356 0.93566 0.0
O20 O 0.92246 0.39682 0.00882 0.0
O21 O 0.91486 0.37623 0.03509 0.0
O22 O 1.02103 0.4185 0.04951 0.0
O23 O 0.08321 0.41823 0.98029 0.0
O24 O 0.12169 0.39852 0.08379 0.0
O25 O 1.02328 0.3861 0.07191 0.0
O26 O 0.19331 0.3759 0.02047 0.0
O27 O 0.19995 0.39719 1.00204 0.0
O28 O 0.0572 0.35342 0.98778 0.0
O29 O 0.05702 0.35585 0.0604 0.0
O30 O 0.98913 0.37392 0.95223 0.0
O31 O 0.08671 0.38682 0.96201 0.0
H32 H 0.96567 0.44059 0.07708 0.0
H33 H 0.11774 0.44163 0.94912 0.0
H34 H 0.1136 0.46494 0.95053 0.0
H35 H 0.95951 0.46379 0.07808 0.0
H36 H 0.1668 0.33661 0.95896 0.0
H37 H 0.0673 0.33192 0.09784 0.0
H38 H 0.13146 0.31077 0.09881 0.0
H39 H 0.22927 0.31535 0.95945 0.0
Gd40 Gd 1.01222 0.6576 0.02403 0.0
Gd41 Gd 1.00317 0.62938 0.02244 0.0
C42 C 0.82709 0.64364 0.03123 0.0
C43 C 1.00457 0.6822 0.01324 0.0
C44 C 0.95352 0.69401 0.01019 0.0
C45 C 0.89971 0.69855 0.04703 0.0
C46 C 0.96836 0.70183 0.972 0.0
C47 C 0.88212 0.71887 0.00872 0.0
C48 C 0.93306 0.71407 0.9712 0.0
C49 C 0.86427 0.71081 0.04624 0.0
C50 C 1.03282 0.64656 0.1044 0.0
C51 C 0.18783 0.64323 0.017 0.0
C52 C 1.01324 0.60479 0.02741 0.0
C53 C 1.0189 0.59063 0.02774 0.0
C54 C 1.02222 0.5838 0.98695 0.0
C55 C 1.01889 0.58376 0.06825 0.0
C56 C 1.02407 0.56353 0.02701 0.0
C57 C 1.02186 0.57036 0.06788 0.0
C58 C 1.02459 0.57046 0.98659 0.0
C59 C 0.98886 0.64076 0.94153 0.0
O60 O 0.87165 0.654 0.01961 0.0
O61 O 0.86483 0.63289 0.04065 0.0
O62 O 1.00455 0.67661 0.05241 0.0
O63 O 1.01056 0.67414 0.97951 0.0
O64 O 0.07605 0.6562 0.08786 0.0
O65 O 0.97817 0.64324 0.07831 0.0
O66 O 0.14301 0.63297 0.02966 0.0
O67 O 0.15013 0.65382 0.00575 0.0
O68 O 1.02755 0.61118 0.9899 0.0
O69 O 0.99511 0.61186 0.06333 0.0
O70 O 0.94154 0.63148 0.95772 0.0
O71 O 0.04125 0.64372 0.96915 0.0
H72 H 0.8875 0.69284 0.07721 0.0
H73 H 1.01012 0.69866 0.94327 0.0
H74 H 0.94707 0.71987 0.94138 0.0
H75 H 0.82594 0.71417 0.07591 0.0
H76 H 1.0222 0.58877 0.95509 0.0
H77 H 1.01618 0.58873 0.10024 0.0
H78 H 1.02074 0.56535 0.09969 0.0
H79 H 1.02749 0.56557 0.95444 0.0
Gd80 Gd 0.0607 0.65628 0.52214 0.0
Gd81 Gd 0.06796 0.62805 0.52205 0.0
C82 C 0.24628 0.64204 0.51437 0.0
C83 C 0.07086 0.68051 0.53986 0.0
C84 C 0.12203 0.69238 0.53435 0.0
C85 C 0.1401 0.69824 0.49205 0.0
C86 C 0.14428 0.69879 0.57293 0.0
C87 C 0.19661 0.71703 0.52761 0.0
C88 C 0.18121 0.71092 0.56964 0.0
C89 C 0.17716 0.7104 0.48873 0.0
C90 C 0.04796 0.6459 0.4396 0.0
C91 C 0.88663 0.64202 0.5245 0.0
C92 C 0.05464 0.60355 0.51595 0.0
C93 C 0.04572 0.58948 0.51316 0.0
C94 C 0.98778 0.58298 0.54365 0.0
C95 C 0.09924 0.58231 0.48242 0.0
C96 C 0.03969 0.56241 0.51417 0.0
C97 C 0.09649 0.56893 0.48303 0.0
C98 C 0.98454 0.56963 0.54402 0.0
C99 C 0.07807 0.63903 0.60412 0.0
O100 O 0.2028 0.65278 0.52126 0.0
O101 O 0.20778 0.63106 0.50939 0.0
O102 O 0.03754 0.67594 0.50472 0.0
O103 O 0.09522 0.67158 0.56645 0.0
O104 O 1.00904 0.65612 0.45446 0.0
O105 O 0.09789 0.64213 0.46751 0.0
O106 O 0.93284 0.63238 0.50725 0.0
O107 O 0.92365 0.65189 0.54188 0.0
O108 O 1.01793 0.61014 0.54957 0.0
O109 O 0.09655 0.61039 0.48451 0.0
O110 O 0.12464 0.62961 0.58846 0.0
O111 O 1.0278 0.6422 0.57573 0.0
H112 H 0.12314 0.69364 0.46162 0.0
H113 H 0.13056 0.69457 0.60601 0.0
H114 H 0.19659 0.7156 0.60024 0.0
H115 H 0.18737 0.71481 0.45581 0.0
H116 H 0.94588 0.58821 0.56792 0.0
H117 H 0.14483 0.58702 0.45864 0.0
H118 H 0.13918 0.5637 0.45918 0.0
H119 H 0.94055 0.56495 0.56872 0.0
Gd120 Gd 1.00341 0.39984 0.52073 0.0
Gd121 Gd 1.00974 0.36997 0.51523 0.0
C122 C 0.18446 0.38508 0.51867 0.0
C123 C 1.01822 0.42418 0.52922 0.0
C124 C 1.02784 0.43827 0.53091 0.0
C125 C 0.05326 0.44504 0.49124 0.0
C126 C 1.00748 0.44515 0.57096 0.0
C127 C 0.03661 0.46535 0.53127 0.0
C128 C 1.01207 0.45854 0.57118 0.0
C129 C 0.05733 0.45836 0.49137 0.0
C130 C 0.98835 0.38924 0.43833 0.0
C131 C 0.82664 0.38496 0.52923 0.0
C132 C 1.00654 0.34675 0.48532 0.0
C133 C 0.96795 0.33396 0.49509 0.0
C134 C 1.01182 0.32464 0.51763 0.0
C135 C 0.89117 0.33051 0.47828 0.0
C136 C 0.90427 0.30866 0.50537 0.0
C137 C 0.85963 0.31805 0.48349 0.0
C138 C 0.98033 0.31219 0.52282 0.0
C139 C 1.00263 0.37739 0.60367 0.0
O140 O 0.13915 0.39516 0.53332 0.0
O141 O 0.14834 0.37486 0.50267 0.0
O142 O 0.05459 0.41768 0.49517 0.0
O143 O 0.97569 0.41731 0.56052 0.0
O144 O 0.94527 0.39896 0.4545 0.0
O145 O 0.03817 0.38563 0.46638 0.0
O146 O 0.86914 0.37448 0.51601 0.0
O147 O 0.8655 0.39566 0.53894 0.0
O148 O 0.06221 0.35087 0.51178 0.0
O149 O 0.95783 0.35587 0.47216 0.0
O150 O 1.0064 0.36562 0.59023 0.0
O151 O 1.00135 0.38433 0.56931 0.0
H152 H 0.06826 0.44005 0.45963 0.0
H153 H 0.9875 0.44021 0.60206 0.0
H154 H 0.99663 0.46352 0.60273 0.0
H155 H 0.07478 0.46318 0.45973 0.0
H156 H 0.0716 0.32689 0.53057 0.0
H157 H 0.85626 0.33735 0.46007 0.0
H158 H 0.80147 0.31568 0.46908 0.0
H159 H 1.01597 0.30531 0.54041 0.0
Gd160 Gd 0.56124 0.90073 0.01857 0.0
Gd161 Gd 0.55291 0.87267 0.01916 0.0
C162 C 0.37923 0.887 0.02266 0.0
C163 C 0.54841 0.92526 0.01281 0.0
C164 C 0.53954 0.93936 0.01037 0.0
C165 C 0.48216 0.94583 0.04128 0.0
C166 C 0.59261 0.94658 0.97965 0.0
C167 C 0.5338 0.96648 0.01231 0.0
C168 C 0.5899 0.95996 0.98064 0.0
C169 C 0.47909 0.95918 0.04213 0.0
C170 C 0.57246 0.89002 0.10107 0.0
C171 C 0.73915 0.88669 0.01044 0.0
C172 C 0.5621 0.84836 0.03593 0.0
C173 C 0.61197 0.83634 0.02968 0.0
C174 C 0.61855 0.82968 0.98844 0.0
C175 C 0.64375 0.83055 0.06712 0.0
C176 C 0.68278 0.81139 0.0231 0.0
C177 C 0.67888 0.81827 0.06388 0.0
C178 C 0.6537 0.81739 0.98517 0.0
C179 C 0.53755 0.88278 0.93654 0.0
O180 O 0.42552 0.89651 0.00461 0.0
O181 O 0.41648 0.87721 0.04035 0.0
O182 O 0.51137 0.91865 0.0462 0.0
O183 O 0.59023 0.91843 0.98128 0.0
O184 O 0.61946 0.89927 0.08462 0.0
O185 O 0.52158 0.88675 0.07307 0.0
O186 O 0.69535 0.876 0.01773 0.0
O187 O 0.70081 0.89767 0.00525 0.0
O188 O 0.5282 0.85309 1.00127 0.0
O189 O 0.5877 0.85718 0.0626 0.0
O190 O 0.49624 0.87296 0.95303 0.0
O191 O 0.58947 0.88659 0.9635 0.0
H192 H 0.4402 0.94057 0.06539 0.0
H193 H 0.6381 0.9419 0.95568 0.0
H194 H 0.63374 0.96518 0.95741 0.0
H195 H 0.43374 0.96378 0.06638 0.0
H196 H 0.59383 0.83376 0.95898 0.0
H197 H 0.63886 0.83534 0.0995 0.0
H198 H 0.70186 0.8141 0.09363 0.0
H199 H 0.65476 0.8124 0.9533 0.0
Gd200 Gd 0.51368 0.15748 0.01943 0.0
Gd201 Gd 0.50518 0.12939 0.02319 0.0
C202 C 0.32737 0.14346 0.03149 0.0
C203 C 0.50347 0.1816 0.99971 0.0
C204 C 0.45457 0.19369 0.00683 0.0
C205 C 0.45484 0.2007 0.04715 0.0
C206 C 0.41642 0.19917 0.97076 0.0
C207 C 0.38439 0.21868 0.0141 0.0
C208 C 0.38159 0.21146 0.97436 0.0
C209 C 0.42005 0.213 0.05076 0.0
C210 C 0.53245 0.1483 0.10276 0.0
C211 C 0.68756 0.1431 0.01654 0.0
C212 C 0.5181 0.10488 0.02975 0.0
C213 C 0.52652 0.09075 0.03059 0.0
C214 C 0.54944 0.08406 0.99032 0.0
C215 C 0.50733 0.08374 0.07045 0.0
C216 C 0.53104 0.06365 0.02926 0.0
C217 C 0.50998 0.07034 0.06984 0.0
C218 C 0.55153 0.07072 0.98965 0.0
C219 C 0.49198 0.13962 0.94018 0.0
O220 O 0.37114 0.15408 0.02262 0.0
O221 O 0.36577 0.13254 0.03777 0.0
O222 O 0.54283 0.1772 0.03302 0.0
O223 O 0.47321 0.17253 0.97565 0.0
O224 O 0.57095 0.15819 0.08492 0.0
O225 O 0.4799 0.14399 0.07699 0.0
O226 O 0.6415 0.13368 0.03543 0.0
O227 O 0.65007 0.15275 0.99806 0.0
O228 O 0.54805 0.11139 0.99446 0.0
O229 O 0.48337 0.11181 0.06317 0.0
O230 O 0.44416 0.13061 0.95784 0.0
O231 O 0.54416 0.14293 0.96735 0.0
H232 H 0.48457 0.19688 0.07551 0.0
H233 H 0.41591 0.19409 0.93908 0.0
H234 H 0.35346 0.21538 0.94564 0.0
H235 H 0.42433 0.21826 0.08176 0.0
H236 H 0.56439 0.08913 0.95892 0.0
H237 H 0.48906 0.0886 0.10198 0.0
H238 H 0.49332 0.06521 0.10095 0.0
H239 H 0.5693 0.06594 0.95792 0.0
Gd240 Gd 0.55846 0.15637 0.52257 0.0
Gd241 Gd 0.56506 0.12819 0.51882 0.0
C242 C 0.74377 0.1421 0.51258 0.0
C243 C 0.5689 0.1803 0.54444 0.0
C244 C 0.61825 0.19231 0.53863 0.0
C245 C 0.64355 0.19744 0.49584 0.0
C246 C 0.63241 0.19946 0.57704 0.0
C247 C 0.69114 0.21704 0.53028 0.0
C248 C 0.66842 0.21164 0.57298 0.0
C249 C 0.67983 0.20965 0.49174 0.0
C250 C 0.54684 0.14725 0.43806 0.0
C251 C 0.38438 0.14218 0.52217 0.0
C252 C 0.55143 0.10373 0.51138 0.0
C253 C 0.54201 0.08967 0.508 0.0
C254 C 0.4835 0.08315 0.53812 0.0
C255 C 0.5963 0.08252 0.47759 0.0
C256 C 0.53676 0.0626 0.50917 0.0
C257 C 0.59392 0.06914 0.47827 0.0
C258 C 0.48067 0.0698 0.53857 0.0
C259 C 0.57492 0.13839 0.60216 0.0
O260 O 0.70043 0.15279 0.52085 0.0
O261 O 0.70507 0.1312 0.50633 0.0
O262 O 0.5301 0.17619 0.51045 0.0
O263 O 0.59902 0.17106 0.56772 0.0
O264 O 0.51069 0.15752 0.45445 0.0
O265 O 0.59502 0.14276 0.46576 0.0
O266 O 0.4308 0.13276 0.50347 0.0
O267 O 0.42123 0.15177 0.54137 0.0
O268 O 0.51334 0.11024 0.54481 0.0
O269 O 0.59455 0.11064 0.4806 0.0
O270 O 0.62203 0.12917 0.58536 0.0
O271 O 0.52465 0.14181 0.57417 0.0
H272 H 0.6331 0.19218 0.46555 0.0
H273 H 0.61321 0.19577 0.6104 0.0
H274 H 0.67754 0.21691 0.60343 0.0
H275 H 0.69602 0.21349 0.4583 0.0
H276 H 0.44105 0.08836 0.56218 0.0
H277 H 0.6424 0.08725 0.45413 0.0
H278 H 0.63734 0.06392 0.45475 0.0
H279 H 0.43637 0.06511 0.5631 0.0
Gd280 Gd 0.50485 0.90008 0.5219 0.0
Gd281 Gd 0.51127 0.87021 0.5163 0.0
C282 C 0.68596 0.88531 0.51977 0.0
C283 C 0.5199 0.92443 0.52994 0.0
C284 C 0.52963 0.93852 0.53116 0.0
C285 C 0.55509 0.94518 0.49125 0.0
C286 C 0.50914 0.94552 0.57094 0.0
C287 C 0.53804 0.96561 0.53049 0.0
C288 C 0.51354 0.9589 0.57066 0.0
C289 C 0.559 0.9585 0.49087 0.0
C290 C 0.48906 0.88949 0.43959 0.0
C291 C 0.3281 0.8852 0.53084 0.0
C292 C 0.50726 0.84705 0.48598 0.0
C293 C 0.46763 0.83432 0.49524 0.0
C294 C 0.4968 0.82601 0.5275 0.0
C295 C 0.40518 0.82988 0.46859 0.0
C296 C 0.40376 0.80902 0.5052 0.0
C297 C 0.37348 0.81743 0.47359 0.0
C298 C 0.46513 0.81355 0.53248 0.0
C299 C 0.50473 0.8776 0.60473 0.0
O300 O 0.64061 0.89538 0.53447 0.0
O301 O 0.64989 0.87509 0.50372 0.0
O302 O 0.55626 0.91786 0.49607 0.0
O303 O 0.4773 0.91762 0.5614 0.0
O304 O 0.4459 0.89918 0.45594 0.0
O305 O 0.53928 0.88589 0.46746 0.0
O306 O 0.37056 0.87472 0.51759 0.0
O307 O 0.36701 0.89591 0.54042 0.0
O308 O 0.56274 0.85107 0.51275 0.0
O309 O 0.45912 0.85623 0.47279 0.0
O310 O 0.50869 0.86584 0.59125 0.0
O311 O 0.5031 0.88455 0.5704 0.0
H312 H 0.57019 0.94011 0.45982 0.0
H313 H 0.48911 0.94066 0.60221 0.0
H314 H 0.49791 0.96399 0.60199 0.0
H315 H 0.57644 0.96323 0.45906 0.0
H316 H 0.54565 0.82901 0.54826 0.0
H317 H 0.38189 0.83596 0.44311 0.0
H318 H 0.3254 0.81439 0.45241 0.0
H319 H 0.49089 0.80735 0.5568 0.0
H320 H 0.3351 0.36883 0.04978 0.0
H321 H 0.35325 0.40348 0.97155 0.0
H322 H 0.48737 0.36915 0.05421 0.0
H323 H 0.50629 0.40349 0.97369 0.0
H324 H 0.77082 0.40727 0.01928 0.0
H325 H 0.61762 0.40715 0.01676 0.0
H326 H 0.61965 0.36592 0.01747 0.0
H327 H 0.7715 0.36615 0.02254 0.0
C328 C 0.37184 0.37642 0.03285 0.0
C329 C 0.33167 0.38612 0.01029 0.0
C330 C 0.45974 0.37659 0.03518 0.0
C331 C 0.51055 0.38635 0.01432 0.0
C332 C 0.47004 0.39594 0.99108 0.0
C333 C 0.38194 0.39588 0.98944 0.0
C334 C 0.7383 0.39819 0.01915 0.0
C335 C 0.7836 0.38673 0.02141 0.0
C336 C 0.65017 0.3981 0.01729 0.0
C337 C 0.60489 0.38652 0.01682 0.0
C338 C 0.65092 0.37506 0.01876 0.0
C339 C 0.73864 0.37518 0.02141 0.0
H340 H 0.29374 0.66377 0.01722 0.0
H341 H 0.29448 0.62264 0.02008 0.0
H342 H 0.44545 0.66399 0.02265 0.0
H343 H 0.4476 0.62276 0.02311 0.0
H344 H 0.7111 0.62655 0.06991 0.0
H345 H 0.55816 0.62649 0.06707 0.0
H346 H 0.57805 0.66072 0.98594 0.0
H347 H 0.73011 0.66107 0.99095 0.0
C348 C 0.32656 0.65474 0.01831 0.0
C349 C 0.28161 0.64319 0.01808 0.0
C350 C 0.41421 0.65485 0.02119 0.0
C351 C 0.46021 0.6434 0.02322 0.0
C352 C 0.41502 0.63182 0.02249 0.0
C353 C 0.32694 0.63172 0.02033 0.0
C354 C 0.68265 0.63411 0.05175 0.0
C355 C 0.73315 0.64385 0.03088 0.0
C356 C 0.59463 0.63403 0.0497 0.0
C357 C 0.55445 0.64357 0.02609 0.0
C358 C 0.60545 0.65331 0.00524 0.0
C359 C 0.69324 0.6535 0.00791 0.0
H360 H 0.79091 0.62539 0.47953 0.0
H361 H 0.7696 0.65865 0.5653 0.0
H362 H 0.63842 0.62568 0.47497 0.0
H363 H 0.61668 0.65872 0.56211 0.0
H364 H 0.35257 0.66278 0.51511 0.0
H365 H 0.50618 0.66285 0.51626 0.0
H366 H 0.50687 0.62166 0.51552 0.0
H367 H 0.35429 0.62162 0.51276 0.0
C368 C 0.75363 0.63271 0.49781 0.0
C369 C 0.7929 0.64198 0.52285 0.0
C370 C 0.66573 0.63285 0.49538 0.0
C371 C 0.61421 0.64222 0.5182 0.0
C372 C 0.65377 0.65147 0.54339 0.0
C373 C 0.74176 0.65137 0.54555 0.0
C374 C 0.38556 0.65374 0.51491 0.0
C375 C 0.34057 0.6422 0.51369 0.0
C376 C 0.47391 0.65376 0.51594 0.0
C377 C 0.51989 0.64225 0.5161 0.0
C378 C 0.4746 0.63073 0.51466 0.0
C379 C 0.38651 0.63071 0.51331 0.0
H380 H 0.71996 0.36439 0.52545 0.0
H381 H 0.71803 0.40544 0.53548 0.0
H382 H 0.56658 0.36439 0.52462 0.0
H383 H 0.56528 0.40553 0.53265 0.0
H384 H 0.27982 0.40173 0.5642 0.0
H385 H 0.43215 0.40149 0.56929 0.0
H386 H 0.45538 0.36861 0.48141 0.0
H387 H 0.30272 0.36856 0.47807 0.0
C388 C 0.68693 0.37344 0.52737 0.0
C389 C 0.732 0.38491 0.53067 0.0
C390 C 0.5985 0.37346 0.52648 0.0
C391 C 0.55215 0.38497 0.52827 0.0
C392 C 0.59751 0.39643 0.53193 0.0
C393 C 0.68579 0.39639 0.53335 0.0
C394 C 0.31741 0.39445 0.54592 0.0
C395 C 0.27839 0.38516 0.52073 0.0
C396 C 0.40539 0.39434 0.54863 0.0
C397 C 0.45753 0.38503 0.52581 0.0
C398 C 0.41817 0.37581 0.50032 0.0
C399 C 0.33012 0.37583 0.49805 0.0
H400 H 0.8455 0.86596 0.01271 0.0
H401 H 0.84716 0.9071 0.00784 0.0
H402 H 0.99904 0.86594 0.01455 0.0
H403 H 0.99948 0.90712 0.01129 0.0
H404 H 0.28364 0.90337 0.97672 0.0
H405 H 0.13139 0.90297 0.97161 0.0
H406 H 0.1092 0.87035 0.06043 0.0
H407 H 0.26205 0.87052 0.06418 0.0
C408 C 0.87845 0.87501 0.01206 0.0
C409 C 0.83345 0.88652 0.00993 0.0
C410 C 0.96676 0.87501 0.01351 0.0
C411 C 1.01266 0.88654 0.01317 0.0
C412 C 0.96734 0.89803 0.01082 0.0
C413 C 0.87935 0.89802 0.00906 0.0
C414 C 0.24632 0.89613 0.99529 0.0
C415 C 0.28549 0.887 0.02096 0.0
C416 C 0.15853 0.89592 0.99253 0.0
C417 C 0.10693 0.88663 0.01564 0.0
C418 C 0.14635 0.87753 0.04149 0.0
C419 C 0.23428 0.87769 0.04398 0.0
H420 H 0.22146 0.16416 0.02697 0.0
H421 H 0.21881 0.12308 0.03595 0.0
H422 H 0.06816 0.16418 0.02421 0.0
H423 H 0.06671 0.12304 0.03154 0.0
H424 H 0.78239 0.12702 0.06393 0.0
H425 H 0.93428 0.12746 0.0697 0.0
H426 H 0.95843 0.15952 0.97843 0.0
H427 H 0.80561 0.15934 0.97405 0.0
C428 C 0.18832 0.15512 0.02837 0.0
C429 C 0.23301 0.14363 0.03193 0.0
C430 C 0.10014 0.15512 0.02636 0.0
C431 C 0.05398 0.14361 0.02751 0.0
C432 C 0.09898 0.13214 0.03134 0.0
C433 C 0.18686 0.13215 0.03368 0.0
C434 C 0.82002 0.13415 0.04492 0.0
C435 C 0.78133 0.14312 0.01839 0.0
C436 C 0.90768 0.13437 0.04807 0.0
C437 C 0.95979 0.14351 0.02448 0.0
C438 C 0.9209 0.15246 0.99775 0.0
C439 C 0.83299 0.15229 0.99488 0.0
H440 H 0.28892 0.12581 0.47599 0.0
H441 H 0.26692 0.15854 0.56431 0.0
H442 H 0.1364 0.12605 0.47166 0.0
H443 H 0.11393 0.15854 0.56132 0.0
H444 H 0.8497 0.16282 0.51485 0.0
H445 H 1.00325 0.16291 0.51592 0.0
H446 H 1.00489 0.12173 0.51186 0.0
H447 H 0.85218 0.12168 0.50918 0.0
C448 C 0.2515 0.13301 0.49484 0.0
C449 C 0.29062 0.14215 0.52053 0.0
C450 C 0.16356 0.13311 0.49255 0.0
C451 C 0.11181 0.14231 0.51615 0.0
C452 C 0.15119 0.15142 0.542 0.0
C453 C 0.23923 0.15137 0.54403 0.0
C454 C 0.88286 0.15378 0.51391 0.0
C455 C 0.83808 0.14225 0.51178 0.0
C456 C 0.9712 0.15382 0.5149 0.0
C457 C 1.01745 0.14232 0.51412 0.0
C458 C 0.9724 0.1308 0.51175 0.0
C459 C 0.88426 0.13077 0.51044 0.0
H460 H 0.78121 0.902 0.56519 0.0
H461 H 0.80434 0.86875 0.47951 0.0
H462 H 0.93349 0.90177 0.57046 0.0
H463 H 0.95697 0.8688 0.48303 0.0
H464 H 0.22138 0.86463 0.52736 0.0
H465 H 0.06802 0.86462 0.52642 0.0
H466 H 0.06676 0.90577 0.53392 0.0
H467 H 0.21949 0.90568 0.53686 0.0
C468 C 0.81884 0.8947 0.54705 0.0
C469 C 0.77989 0.88539 0.52193 0.0
C470 C 0.9068 0.8946 0.54986 0.0
C471 C 0.959 0.88526 0.52721 0.0
C472 C 0.91971 0.87601 0.5018 0.0
C473 C 0.83168 0.87604 0.49942 0.0
C474 C 0.18835 0.87368 0.52915 0.0
C475 C 0.23344 0.88515 0.53233 0.0
C476 C 0.09994 0.8737 0.52818 0.0
C477 C 0.0536 0.8852 0.52979 0.0
C478 C 0.09897 0.89667 0.53335 0.0
C479 C 0.18724 0.89663 0.53484 0.0
H480 H 0.11452 0.54718 0.07643 0.0
H481 H 0.93614 0.54746 0.97568 0.0
H482 H 0.11916 0.52393 0.07324 0.0
H483 H 0.93966 0.52426 0.97288 0.0
H484 H 1.02641 0.48339 0.94494 0.0
H485 H 1.02582 0.50659 0.94816 0.0
H486 H 0.04065 0.50505 0.09209 0.0
H487 H 0.04562 0.48188 0.0885 0.0
C488 C 0.07557 0.54228 0.05394 0.0
C489 C 1.02525 0.54925 0.0262 0.0
C490 C 0.07812 0.52891 0.0521 0.0
C491 C 1.03003 0.52211 0.02264 0.0
C492 C 0.97902 0.5291 0.9953 0.0
C493 C 0.9768 0.54245 0.99699 0.0
C494 C 1.0306 0.48797 0.97723 0.0
C495 C 0.03588 0.48065 0.01644 0.0
C496 C 1.02912 0.50134 0.9792 0.0
C497 C 1.03278 0.50781 0.02045 0.0
C498 C 0.03856 0.50048 0.0596 0.0
C499 C 0.04021 0.48713 0.05762 0.0
H500 H 0.92916 0.48229 0.57884 0.0
H501 H 0.14982 0.481 0.48211 0.0
H502 H 0.93154 0.5055 0.57606 0.0
H503 H 0.14902 0.50411 0.47724 0.0
H504 H 0.17623 0.54626 0.50935 0.0
H505 H 0.1767 0.52311 0.5153 0.0
H506 H 0.90307 0.52305 0.52984 0.0
H507 H 0.90299 0.54625 0.52482 0.0
C508 C 0.97844 0.48692 0.55707 0.0
C509 C 0.03918 0.47965 0.53065 0.0
C510 C 0.97903 0.50028 0.55494 0.0
C511 C 0.04017 0.5068 0.5262 0.0
C512 C 0.10139 0.49953 0.50017 0.0
C513 C 0.1011 0.48619 0.5025 0.0
C514 C 0.11613 0.5413 0.51343 0.0
C515 C 0.03958 0.54816 0.5165 0.0
C516 C 0.11632 0.52798 0.51683 0.0
C517 C 0.03991 0.52108 0.52307 0.0
C518 C 0.9633 0.52796 0.52591 0.0
C519 C 0.96317 0.54131 0.52283 0.0
H520 H 0.51108 0.98168 0.08791 0.0
H521 H 0.55621 0.98387 0.94284 0.0
H522 H 0.50795 1.00483 0.09236 0.0
H523 H 0.55785 1.00704 0.94749 0.0
H524 H 0.4691 0.04821 0.96577 0.0
H525 H 0.46941 0.02502 0.96202 0.0
H526 H 0.59283 0.02345 0.08511 0.0
H527 H 0.59096 0.0467 0.08917 0.0
C528 C 0.52018 0.98707 0.05685 0.0
C529 C 0.53337 0.98078 0.01495 0.0
C530 C 0.51966 1.00042 0.05949 0.0
C531 C 0.53268 1.00794 0.02033 0.0
C532 C 0.54638 1.00165 0.97843 0.0
C533 C 0.54659 0.98829 0.97578 0.0
C534 C 0.49681 0.04293 0.99193 0.0
C535 C 0.53033 0.04938 0.02769 0.0
C536 C 0.49721 0.02958 0.98972 0.0
C537 C 0.53156 0.02223 0.0231 0.0
C538 C 0.56466 0.0287 0.05906 0.0
C539 C 0.56376 0.04207 0.0614 0.0
H540 H 0.67415 0.04662 0.50532 0.0
H541 H 0.40089 0.04627 0.51979 0.0
H542 H 0.67577 0.02348 0.51225 0.0
H543 H 0.40217 0.02309 0.52587 0.0
H544 H 0.42976 0.98261 0.57716 0.0
H545 H 0.43116 1.0058 0.57326 0.0
H546 H 0.64936 1.00428 0.47494 0.0
H547 H 0.65105 0.98119 0.48088 0.0
C548 C 0.6143 0.04159 0.50937 0.0
C549 C 0.5374 0.04835 0.51188 0.0
C550 C 0.61516 0.02827 0.51335 0.0
C551 C 0.53909 0.0213 0.51967 0.0
C552 C 0.46214 0.02808 0.5219 0.0
C553 C 0.46133 0.04141 0.51822 0.0
C554 C 0.47899 0.98721 0.55526 0.0
C555 C 0.54017 0.9799 0.52929 0.0
C556 C 0.47902 1.00056 0.55249 0.0
C557 C 0.54005 1.00703 0.52354 0.0
C558 C 0.60177 0.99973 0.49799 0.0
C559 C 0.60202 0.9864 0.50095 0.0
H560 H 0.10562 0.29012 0.06796 0.0
H561 H 0.33397 0.30149 0.98756 0.0
H562 H 0.1531 0.26805 0.06477 0.0
H563 H 0.38169 0.27936 0.98443 0.0
H564 H 0.40073 0.23701 0.94792 0.0
H565 H 0.35273 0.25906 0.95194 0.0
H566 H 0.25439 0.25348 0.09071 0.0
H567 H 0.29921 0.23124 0.08609 0.0
C568 C 0.1666 0.28797 0.0501 0.0
C569 C 0.2159 0.29769 0.02814 0.0
C570 C 0.19389 0.27525 0.04823 0.0
C571 C 0.27138 0.27182 0.02431 0.0
C572 C 0.32101 0.28155 1.00257 0.0
C573 C 0.29365 0.29428 0.00442 0.0
C574 C 0.36781 0.2404 0.97916 0.0
C575 C 0.3537 0.23222 0.01661 0.0
C576 C 0.34129 0.25315 0.98167 0.0
C577 C 0.29978 0.25817 0.02171 0.0
C578 C 0.28535 0.24998 0.05913 0.0
C579 C 0.31195 0.23722 0.05663 0.0
H580 H 0.65475 0.79255 0.0868 0.0
H581 H 0.77954 0.79937 0.95379 0.0
H582 H 0.70282 0.7705 0.08296 0.0
H583 H 0.82469 0.77713 0.94918 0.0
H584 H 0.96747 0.74021 0.97604 0.0
H585 H 0.92007 0.76229 0.97907 0.0
H586 H 0.67997 0.75051 0.0467 0.0
H587 H 0.7276 0.72837 0.04375 0.0
C588 C 0.69281 0.78939 0.05675 0.0
C589 C 0.71343 0.79785 0.0207 0.0
C590 C 0.71943 0.77664 0.05429 0.0
C591 C 0.76755 0.77192 0.01569 0.0
C592 C 0.78848 0.78039 0.97967 0.0
C593 C 0.76175 0.79316 0.98212 0.0
C594 C 0.90407 0.74227 0.99104 0.0
C595 C 0.85142 0.73241 0.00952 0.0
C596 C 0.87683 0.75499 0.99282 0.0
C597 C 0.79603 0.75828 0.01316 0.0
C598 C 0.74312 0.74842 0.03142 0.0
C599 C 0.77043 0.73568 0.02967 0.0
H600 H 0.15369 0.73703 0.58477 0.0
H601 H 0.31266 0.72759 0.46355 0.0
H602 H 0.20369 0.75896 0.57958 0.0
H603 H 0.36306 0.74957 0.45841 0.0
H604 H 0.36824 0.79281 0.43686 0.0
H605 H 0.3186 0.77085 0.44246 0.0
H606 H 0.32442 0.77225 0.58703 0.0
H607 H 0.37056 0.79441 0.58161 0.0
C608 C 0.20022 0.73957 0.55728 0.0
C609 C 0.22921 0.73044 0.52468 0.0
C610 C 0.22897 0.7522 0.55429 0.0
C611 C 0.28765 0.75612 0.51858 0.0
C612 C 0.3169 0.74699 0.48602 0.0
C613 C 0.28803 0.73435 0.489 0.0
C614 C 0.35795 0.78852 0.46996 0.0
C615 C 0.37326 0.79549 0.50879 0.0
C616 C 0.33053 0.77581 0.47311 0.0
C617 C 0.31752 0.76968 0.5152 0.0
C618 C 0.33278 0.77665 0.55405 0.0
C619 C 0.36026 0.78936 0.55089 0.0
H620 H 0.99702 0.2865 0.4961 0.0
H621 H 0.74023 0.30016 0.52243 0.0
H622 H 0.94643 0.26458 0.50226 0.0
H623 H 0.68934 0.27821 0.52694 0.0
H624 H 0.63627 0.23786 0.58065 0.0
H625 H 0.68822 0.25969 0.57488 0.0
H626 H 0.86834 0.24876 0.46369 0.0
H627 H 0.81818 0.22676 0.4705 0.0
C628 C 0.92974 0.28486 0.50336 0.0
C629 C 0.8729 0.29518 0.50896 0.0
C630 C 0.90056 0.27224 0.50631 0.0
C631 C 0.81365 0.26955 0.51507 0.0
C632 C 0.75678 0.27987 0.52064 0.0
C633 C 0.78595 0.29249 0.51756 0.0
C634 C 0.68765 0.24005 0.55526 0.0
C635 C 0.72325 0.23046 0.52623 0.0
C636 C 0.71677 0.25265 0.55157 0.0
C637 C 0.78252 0.25607 0.51876 0.0
C638 C 0.81821 0.24649 0.48968 0.0
C639 C 0.78882 0.23387 0.49328 0.0
H640 H 0.1878 0.39343 0.16141 0.0
H641 H 0.93821 0.37832 0.14895 0.0
H642 H 0.16583 0.39103 0.24329 0.0
H643 H 0.91561 0.37605 0.2312 0.0
H644 H 0.12044 0.37718 0.38913 0.0
H645 H 0.14226 0.3749 0.30682 0.0
H646 H 0.89852 0.3922 0.29491 0.0
H647 H 0.87742 0.39461 0.37681 0.0
C648 C 0.12863 0.38942 0.17617 0.0
C649 C 0.06464 0.38611 0.14872 0.0
C650 C 0.11616 0.38799 0.22311 0.0
C651 C 0.03881 0.3834 0.24391 0.0
C652 C 0.9757 0.37971 0.21629 0.0
C653 C 0.98877 0.38094 0.16917 0.0
C654 C 0.07104 0.3803 0.36892 0.0
C655 C 0.99736 0.38613 0.38942 0.0
C656 C 0.08371 0.37906 0.32178 0.0
C657 C 1.02225 0.38341 0.2942 0.0
C658 C 0.94684 0.38866 0.31505 0.0
C659 C 0.93487 0.39009 0.36201 0.0
H660 H 0.17234 0.64287 0.1478 0.0
H661 H 0.90004 0.64187 0.16822 0.0
H662 H 0.18104 0.63971 0.22809 0.0
H663 H 0.90729 0.63974 0.24942 0.0
H664 H 0.9354 0.6323 0.39581 0.0
H665 H 0.93379 0.6295 0.31439 0.0
H666 H 0.16802 0.65079 0.29355 0.0
H667 H 0.1712 0.65268 0.37476 0.0
C668 C 0.11418 0.64188 0.16972 0.0
C669 C 1.0356 0.64259 0.1519 0.0
C670 C 0.11892 0.64026 0.21604 0.0
C671 C 0.04498 0.63976 0.24624 0.0
C672 C 0.96603 0.63993 0.2278 0.0
C673 C 0.96149 0.64119 0.1811 0.0
C674 C 0.98759 0.63601 0.37351 0.0
C675 C 0.05426 0.64248 0.39132 0.0
C676 C 0.98621 0.6346 0.32671 0.0
C677 C 0.05045 0.63996 0.29648 0.0
C678 C 0.11811 0.64622 0.31499 0.0
C679 C 0.12017 0.64738 0.36175 0.0
H680 H 0.12489 0.65173 0.89235 0.0
H681 H 0.87592 0.63631 0.88027 0.0
H682 H 0.14761 0.65375 0.81006 0.0
H683 H 0.89813 0.63842 0.79834 0.0
H684 H 0.94418 0.65106 0.65171 0.0
H685 H 0.92142 0.65399 0.73371 0.0
H686 H 0.16626 0.63731 0.74797 0.0
H687 H 0.18844 0.6343 0.6664 0.0
C688 C 0.07447 0.649 0.87218 0.0
C689 C 0.99883 0.64378 0.89269 0.0
C690 C 0.08762 0.65009 0.82507 0.0
C691 C 1.02482 0.64619 0.79758 0.0
C692 C 0.94753 0.64161 0.81844 0.0
C693 C 0.93494 0.64034 0.86539 0.0
C694 C 0.99354 0.64821 0.67237 0.0
C695 C 0.06786 0.64238 0.65271 0.0
C696 C 0.98038 0.64982 0.71931 0.0
C697 C 0.04193 0.64585 0.74743 0.0
C698 C 0.1179 0.64059 0.72735 0.0
C699 C 0.13044 0.6388 0.68062 0.0
H700 H 0.93797 0.39839 0.65158 0.0
H701 H 0.09523 0.36515 0.66154 0.0
H702 H 0.94924 0.40297 0.7322 0.0
H703 H 0.10928 0.36998 0.74062 0.0
H704 H 0.16912 0.38826 0.87411 0.0
H705 H 0.16813 0.38935 0.79161 0.0
H706 H 0.89537 0.38752 0.80591 0.0
H707 H 0.89659 0.38593 0.8879 0.0
C708 C 0.97624 0.39225 0.67068 0.0
C709 C 1.01536 0.38138 0.6504 0.0
C710 C 0.98265 0.39485 0.7167 0.0
C711 C 1.03074 0.38688 0.74261 0.0
C712 C 0.07268 0.37638 0.72151 0.0
C713 C 0.06415 0.37358 0.67626 0.0
C714 C 0.10903 0.38844 0.85963 0.0
C715 C 1.03291 0.38702 0.88734 0.0
C716 C 0.10842 0.38901 0.81247 0.0
C717 C 1.03158 0.38857 0.79232 0.0
C718 C 0.95539 0.38803 0.8204 0.0
C719 C 0.95615 0.38708 0.8673 0.0
H720 H 0.68484 0.89461 0.16261 0.0
H721 H 0.43694 0.87885 0.15025 0.0
H722 H 0.66373 0.89203 0.24444 0.0
H723 H 0.41518 0.87641 0.23247 0.0
H724 H 0.37665 0.89468 0.37871 0.0
H725 H 0.39696 0.89243 0.29673 0.0
H726 H 0.64263 0.87563 0.30736 0.0
H727 H 0.62161 0.87773 0.38975 0.0
C728 C 0.62621 0.89044 0.17739 0.0
C729 C 0.56244 0.88699 0.15 0.0
C730 C 0.61426 0.8889 0.22429 0.0
C731 C 0.53765 0.88405 0.2451 0.0
C732 C 0.47471 0.88025 0.21754 0.0
C733 C 0.48729 0.88159 0.17045 0.0
C734 C 0.43436 0.89029 0.3636 0.0
C735 C 0.49763 0.88642 0.39067 0.0
C736 C 0.44588 0.88896 0.31661 0.0
C737 C 0.5216 0.88391 0.29539 0.0
C738 C 0.58383 0.87964 0.32263 0.0
C739 C 0.57162 0.88077 0.36981 0.0
H740 H 0.41929 0.13534 0.16346 0.0
H741 H 0.66548 0.15315 0.14943 0.0
H742 H 0.42991 0.13296 0.24517 0.0
H743 H 0.67643 0.15068 0.22974 0.0
H744 H 0.59519 0.1645 0.37405 0.0
H745 H 0.59533 0.16239 0.29267 0.0
H746 H 0.51546 0.12317 0.30873 0.0
H747 H 0.51659 0.12534 0.39129 0.0
C748 C 0.47621 0.13847 0.1776 0.0
C749 C 0.5409 0.14463 0.15025 0.0
C750 C 0.48245 0.1371 0.22428 0.0
C751 C 0.55349 0.14184 0.24408 0.0
C752 C 0.62018 0.14717 0.21584 0.0
C753 C 0.61387 0.14856 0.16973 0.0
C754 C 0.57918 0.15536 0.36018 0.0
C755 C 0.5571 0.14504 0.3888 0.0
C756 C 0.57919 0.15413 0.31353 0.0
C757 C 0.55565 0.14259 0.29406 0.0
C758 C 0.53379 0.13218 0.3227 0.0
C759 C 0.53534 0.13337 0.36975 0.0
H760 H 0.37897 0.13442 0.87952 0.0
H761 H 0.62592 0.15076 0.89002 0.0
H762 H 0.39936 0.13648 0.79748 0.0
H763 H 0.64685 0.1527 0.80768 0.0
H764 H 0.68664 0.13343 0.66356 0.0
H765 H 0.66579 0.1361 0.74535 0.0
H766 H 0.41942 0.15252 0.73327 0.0
H767 H 0.4409 0.14997 0.65107 0.0
C768 C 0.43718 0.13861 0.86427 0.0
C769 C 0.50104 0.14236 0.89114 0.0
C770 C 0.4487 0.13985 0.81729 0.0
C771 C 0.52488 0.1447 0.79602 0.0
C772 C 0.58772 0.14884 0.82305 0.0
C773 C 0.57561 0.14779 0.87017 0.0
C774 C 0.62856 0.13779 0.67832 0.0
C775 C 0.56524 0.14143 0.65098 0.0
C776 C 0.61679 0.13938 0.72516 0.0
C777 C 0.54082 0.14448 0.74586 0.0
C778 C 0.4784 0.14848 0.71834 0.0
C779 C 0.49082 0.14708 0.67131 0.0
H780 H 0.43429 0.89789 0.65435 0.0
H781 H 0.60482 0.86605 0.66055 0.0
H782 H 0.44614 0.90223 0.73505 0.0
H783 H 0.61937 0.87067 0.73978 0.0
H784 H 0.67295 0.88847 0.87512 0.0
H785 H 0.67127 0.88989 0.79268 0.0
H786 H 0.39927 0.8863 0.80715 0.0
H787 H 0.40134 0.8844 0.88897 0.0
C788 C 0.47567 0.89203 0.67264 0.0
C789 C 0.51833 0.88161 0.65131 0.0
C790 C 0.4824 0.89449 0.7187 0.0
C791 C 0.53423 0.88683 0.74364 0.0
C792 C 0.57981 0.87682 0.72145 0.0
C793 C 0.57103 0.87414 0.67612 0.0
C794 C 0.61282 0.88832 0.86068 0.0
C795 C 0.53726 0.88633 0.88835 0.0
C796 C 0.61181 0.88908 0.81357 0.0
C797 C 0.53503 0.88825 0.79347 0.0
C798 C 0.4592 0.88711 0.82159 0.0
C799 C 0.46046 0.88599 0.86839 0.0
loop_
_geom_bond_atom_site_label_1
_geom_bond_atom_site_label_2
_geom_bond_distance
_geom_bond_site_symmetry_2
_ccdc_geom_bond_type
Gd0 C3 2.824 . S
Gd0 O20 2.377 1_455 S
Gd0 O22 2.448 . S
Gd0 O23 2.506 1_554 S
Gd0 O24 2.435 . S
Gd0 O25 2.717 . S
Gd0 O27 2.395 . S
Gd0 O31 2.327 1_554 S
Gd1 C12 2.818 . S
Gd1 O21 2.395 1_455 S
Gd1 O25 2.327 . S
Gd1 O26 2.377 1_554 S
Gd1 O28 2.448 1_554 S
Gd1 O29 2.506 . S
Gd1 O30 2.435 1_554 S
Gd1 O31 2.717 1_554 S
C2 O20 1.240 . S
C2 O21 1.240 . S
C3 Gd0 2.824 . S
C3 C4 1.505 1_455 S
C3 O22 1.254 . S
C3 O23 1.252 1_554 S
C4 C3 1.505 1_655 S
C4 C5 1.404 . S
C4 C6 1.352 1_554 S
C5 C4 1.404 . S
C5 C9 1.389 . S
C5 H32 0.930 . S
C6 C4 1.352 1_556 S
C6 C8 1.374 . S
C6 H33 0.931 . S
C7 C8 1.359 1_554 S
C7 C9 1.364 . S
C8 C6 1.374 . S
C8 C7 1.359 1_556 S
C8 H34 0.931 . S
C9 C5 1.389 . S
C9 C7 1.364 . S
C9 H35 0.931 . S
C10 O24 1.256 . S
C10 O25 1.257 . S
C11 O26 1.240 1_554 S
C11 O27 1.240 . S
C12 Gd1 2.818 . S
C12 C13 1.510 . S
C12 O28 1.249 1_554 S
C12 O29 1.252 . S
C13 C12 1.510 . S
C13 C14 1.404 1_554 S
C13 C15 1.352 . S
C14 C13 1.404 1_556 S
C14 C18 1.389 . S
C14 H36 0.930 . S
C15 C13 1.352 . S
C15 C17 1.374 . S
C15 H37 0.931 . S
C16 C17 1.359 . S
C16 C18 1.364 1_554 S
C17 C15 1.374 . S
C17 C16 1.359 . S
C17 H38 0.931 . S
C18 C14 1.389 . S
C18 C16 1.364 1_556 S
C18 H39 0.931 . S
C19 O30 1.256 . S
C19 O31 1.257 . S
O20 Gd0 2.377 1_655 S
O20 C2 1.240 . S
O21 Gd1 2.395 1_655 S
O21 C2 1.240 . S
O22 Gd0 2.448 . S
O22 C3 1.254 . S
O23 Gd0 2.506 1_556 S
O23 C3 1.252 1_556 S
O24 Gd0 2.435 . S
O24 C10 1.256 . S
O25 Gd0 2.717 . S
O25 Gd1 2.327 . S
O25 C10 1.257 . S
O26 Gd1 2.377 1_556 S
O26 C11 1.240 1_556 S
O27 Gd0 2.395 . S
O27 C11 1.240 . S
O28 Gd1 2.448 1_556 S
O28 C12 1.249 1_556 S
O29 Gd1 2.506 . S
O29 C12 1.252 . S
O30 Gd1 2.435 1_556 S
O30 C19 1.256 . S
O31 Gd0 2.327 1_556 S
O31 Gd1 2.717 1_556 S
O31 C19 1.257 . S
H32 C5 0.930 . S
H33 C6 0.931 . S
H34 C8 0.931 . S
H35 C9 0.931 . S
H36 C14 0.930 . S
H37 C15 0.931 . S
H38 C17 0.931 . S
H39 C18 0.931 . S
Gd40 C43 2.818 . S
Gd40 O60 2.377 . S
Gd40 O62 2.448 . S
Gd40 O63 2.506 1_554 S
Gd40 O64 2.435 . S
Gd40 O65 2.717 . S
Gd40 O67 2.395 1_655 S
Gd40 O71 2.327 1_554 S
Gd41 C52 2.823 . S
Gd41 O61 2.395 . S
Gd41 O65 2.327 . S
Gd41 O66 2.376 1_654 S
Gd41 O68 2.448 1_554 S
Gd41 O69 2.506 . S
Gd41 O70 2.435 1_554 S
Gd41 O71 2.717 1_554 S
C42 O60 1.240 . S
C42 O61 1.240 . S
C43 Gd40 2.818 . S
C43 C44 1.510 . S
C43 O62 1.249 . S
C43 O63 1.252 1_554 S
C44 C43 1.510 . S
C44 C45 1.404 . S
C44 C46 1.352 1_554 S
C45 C44 1.404 . S
C45 C49 1.389 . S
C45 H72 0.930 . S
C46 C44 1.352 1_556 S
C46 C48 1.374 . S
C46 H73 0.931 . S
C47 C48 1.359 1_554 S
C47 C49 1.364 . S
C48 C46 1.374 . S
C48 C47 1.359 1_556 S
C48 H74 0.931 . S
C49 C45 1.389 . S
C49 C47 1.364 . S
C49 H75 0.931 . S
C50 O64 1.256 . S
C50 O65 1.257 . S
C51 O66 1.234 1_554 S
C51 O67 1.240 . S
C52 Gd41 2.823 . S
C52 C53 1.506 1_655 S
C52 O68 1.253 1_554 S
C52 O69 1.252 . S
C53 C52 1.506 1_455 S
C53 C54 1.404 1_554 S
C53 C55 1.352 . S
C54 C53 1.404 1_556 S
C54 C58 1.389 . S
C54 H76 0.930 . S
C55 C53 1.352 . S
C55 C57 1.374 . S
C55 H77 0.931 . S
C56 C57 1.359 . S
C56 C58 1.364 1_554 S
C57 C55 1.374 . S
C57 C56 1.359 . S
C57 H78 0.931 . S
C58 C54 1.389 . S
C58 C56 1.364 1_556 S
C58 H79 0.931 . S
C59 O70 1.256 . S
C59 O71 1.257 . S
O60 Gd40 2.377 . S
O60 C42 1.240 . S
O61 Gd41 2.395 . S
O61 C42 1.240 . S
O62 Gd40 2.448 . S
O62 C43 1.249 . S
O63 Gd40 2.506 1_556 S
O63 C43 1.252 1_556 S
O64 Gd40 2.435 . S
O64 C50 1.256 . S
O65 Gd40 2.717 . S
O65 Gd41 2.327 . S
O65 C50 1.257 . S
O66 Gd41 2.376 1_456 S
O66 C51 1.234 1_556 S
O67 Gd40 2.395 1_455 S
O67 C51 1.240 . S
O68 Gd41 2.448 1_556 S
O68 C52 1.253 1_556 S
O69 Gd41 2.506 . S
O69 C52 1.252 . S
O70 Gd41 2.435 1_556 S
O70 C59 1.256 . S
O71 Gd40 2.327 1_556 S
O71 Gd41 2.717 1_556 S
O71 C59 1.257 . S
H72 C45 0.930 . S
H73 C46 0.931 . S
H74 C48 0.931 . S
H75 C49 0.931 . S
H76 C54 0.930 . S
H77 C55 0.931 . S
H78 C57 0.931 . S
H79 C58 0.931 . S
Gd80 C83 2.818 . S
Gd80 O100 2.377 . S
Gd80 O102 2.448 . S
Gd80 O103 2.506 . S
Gd80 O104 2.435 . S
Gd80 O105 2.717 . S
Gd80 O107 2.395 1_455 S
Gd80 O111 2.327 . S
Gd81 C92 2.818 . S
Gd81 O101 2.395 . S
Gd81 O105 2.327 . S
Gd81 O106 2.377 1_455 S
Gd81 O108 2.448 . S
Gd81 O109 2.506 . S
Gd81 O110 2.435 . S
Gd81 O111 2.717 . S
C82 O100 1.240 . S
C82 O101 1.240 . S
C83 Gd80 2.818 . S
C83 C84 1.510 . S
C83 O102 1.249 . S
C83 O103 1.252 . S
C84 C83 1.510 . S
C84 C85 1.404 . S
C84 C86 1.352 . S
C85 C84 1.404 . S
C85 C89 1.389 . S
C85 H112 0.930 . S
C86 C84 1.352 . S
C86 C88 1.374 . S
C86 H113 0.931 . S
C87 C88 1.359 . S
C87 C89 1.364 . S
C88 C86 1.374 . S
C88 C87 1.359 . S
C88 H114 0.931 . S
C89 C85 1.389 . S
C89 C87 1.364 . S
C89 H115 0.931 . S
C90 O104 1.256 . S
C90 O105 1.257 . S
C91 O106 1.240 . S
C91 O107 1.240 . S
C92 Gd81 2.818 . S
C92 C93 1.510 1_455 S
C92 O108 1.249 . S
C92 O109 1.252 . S
C93 C92 1.510 1_655 S
C93 C94 1.404 . S
C93 C95 1.352 . S
C94 C93 1.404 . S
C94 C98 1.389 . S
C94 H116 0.930 . S
C95 C93 1.352 . S
C95 C97 1.374 . S
C95 H117 0.931 . S
C96 C97 1.359 . S
C96 C98 1.364 . S
C97 C95 1.374 . S
C97 C96 1.359 . S
C97 H118 0.931 . S
C98 C94 1.389 . S
C98 C96 1.364 . S
C98 H119 0.931 . S
C99 O110 1.256 . S
C99 O111 1.257 . S
O100 Gd80 2.377 . S
O100 C82 1.240 . S
O101 Gd81 2.395 . S
O101 C82 1.240 . S
O102 Gd80 2.448 . S
O102 C83 1.249 . S
O103 Gd80 2.506 . S
O103 C83 1.252 . S
O104 Gd80 2.435 . S
O104 C90 1.256 . S
O105 Gd80 2.717 . S
O105 Gd81 2.327 . S
O105 C90 1.257 . S
O106 Gd81 2.377 1_655 S
O106 C91 1.240 . S
O107 Gd80 2.395 1_655 S
O107 C91 1.240 . S
O108 Gd81 2.448 . S
O108 C92 1.249 . S
O109 Gd81 2.506 . S
O109 C92 1.252 . S
O110 Gd81 2.435 . S
O110 C99 1.256 . S
O111 Gd80 2.327 . S
O111 Gd81 2.717 . S
O111 C99 1.257 . S
H112 C85 0.930 . S
H113 C86 0.931 . S
H114 C88 0.931 . S
H115 C89 0.931 . S
H116 C94 0.930 . S
H117 C95 0.931 . S
H118 C97 0.931 . S
H119 C98 0.931 . S
Gd120 C123 2.818 . S
Gd120 O140 2.377 1_655 S
Gd120 O142 2.448 . S
Gd120 O143 2.506 . S
Gd120 O144 2.435 . S
Gd120 O145 2.717 . S
Gd120 O147 2.395 . S
Gd120 O151 2.327 . S
Gd121 C132 2.818 . S
Gd121 O141 2.395 1_655 S
Gd121 O145 2.327 . S
Gd121 O146 2.377 . S
Gd121 O148 2.448 . S
Gd121 O149 2.506 . S
Gd121 O150 2.435 . S
Gd121 O151 2.717 . S
C122 O140 1.240 . S
C122 O141 1.240 . S
C123 Gd120 2.818 . S
C123 C124 1.510 1_655 S
C123 O142 1.249 . S
C123 O143 1.252 . S
C124 C123 1.510 1_455 S
C124 C125 1.404 . S
C124 C126 1.352 . S
C125 C124 1.404 . S
C125 C129 1.389 . S
C125 H152 0.930 . S
C126 C124 1.352 . S
C126 C128 1.374 . S
C126 H153 0.931 . S
C127 C128 1.359 . S
C127 C129 1.364 . S
C128 C126 1.374 . S
C128 C127 1.359 . S
C128 H154 0.931 . S
C129 C125 1.389 . S
C129 C127 1.364 . S
C129 H155 0.931 . S
C130 O144 1.256 . S
C130 O145 1.257 . S
C131 O146 1.240 . S
C131 O147 1.240 . S
C132 Gd121 2.818 . S
C132 C133 1.510 . S
C132 O148 1.249 . S
C132 O149 1.252 . S
C133 C132 1.510 . S
C133 C134 1.404 . S
C133 C135 1.352 . S
C134 C133 1.404 . S
C134 C138 1.389 . S
C134 H156 0.930 . S
C135 C133 1.352 . S
C135 C137 1.374 . S
C135 H157 0.931 . S
C136 C137 1.359 . S
C136 C138 1.364 . S
C137 C135 1.374 . S
C137 C136 1.359 . S
C137 H158 0.931 . S
C138 C134 1.389 . S
C138 C136 1.364 . S
C138 H159 0.931 . S
C139 O150 1.256 . S
C139 O151 1.257 . S
O140 Gd120 2.377 1_455 S
O140 C122 1.240 . S
O141 Gd121 2.395 1_455 S
O141 C122 1.240 . S
O142 Gd120 2.448 . S
O142 C123 1.249 . S
O143 Gd120 2.506 . S
O143 C123 1.252 . S
O144 Gd120 2.435 . S
O144 C130 1.256 . S
O145 Gd120 2.717 . S
O145 Gd121 2.327 . S
O145 C130 1.257 . S
O146 Gd121 2.377 . S
O146 C131 1.240 . S
O147 Gd120 2.395 . S
O147 C131 1.240 . S
O148 Gd121 2.448 . S
O148 C132 1.249 . S
O149 Gd121 2.506 . S
O149 C132 1.252 . S
O150 Gd121 2.435 . S
O150 C139 1.256 . S
O151 Gd120 2.327 . S
O151 Gd121 2.717 . S
O151 C139 1.257 . S
H152 C125 0.930 . S
H153 C126 0.931 . S
H154 C128 0.931 . S
H155 C129 0.931 . S
H156 C134 0.930 . S
H157 C135 0.931 . S
H158 C137 0.931 . S
H159 C138 0.931 . S
Gd160 C163 2.818 . S
Gd160 O180 2.377 . S
Gd160 O182 2.448 . S
Gd160 O183 2.506 1_554 S
Gd160 O184 2.435 . S
Gd160 O185 2.717 . S
Gd160 O187 2.395 . S
Gd160 O191 2.327 1_554 S
Gd161 C172 2.818 . S
Gd161 O181 2.395 . S
Gd161 O185 2.327 . S
Gd161 O186 2.377 1_554 S
Gd161 O188 2.448 1_554 S
Gd161 O189 2.506 . S
Gd161 O190 2.435 1_554 S
Gd161 O191 2.717 1_554 S
C162 O180 1.240 . S
C162 O181 1.240 . S
C163 Gd160 2.818 . S
C163 C164 1.510 . S
C163 O182 1.249 . S
C163 O183 1.252 1_554 S
C164 C163 1.510 . S
C164 C165 1.404 . S
C164 C166 1.352 1_554 S
C165 C164 1.404 . S
C165 C169 1.389 . S
C165 H192 0.930 . S
C166 C164 1.352 1_556 S
C166 C168 1.374 . S
C166 H193 0.931 . S
C167 C168 1.359 1_554 S
C167 C169 1.364 . S
C168 C166 1.374 . S
C168 C167 1.359 1_556 S
C168 H194 0.931 . S
C169 C165 1.389 . S
C169 C167 1.364 . S
C169 H195 0.931 . S
C170 O184 1.256 . S
C170 O185 1.257 . S
C171 O186 1.240 1_554 S
C171 O187 1.240 . S
C172 Gd161 2.818 . S
C172 C173 1.510 . S
C172 O188 1.249 1_554 S
C172 O189 1.252 . S
C173 C172 1.510 . S
C173 C174 1.404 1_554 S
C173 C175 1.352 . S
C174 C173 1.404 1_556 S
C174 C178 1.389 . S
C174 H196 0.930 . S
C175 C173 1.352 . S
C175 C177 1.374 . S
C175 H197 0.931 . S
C176 C177 1.359 . S
C176 C178 1.364 1_554 S
C177 C175 1.374 . S
C177 C176 1.359 . S
C177 H198 0.931 . S
C178 C174 1.389 . S
C178 C176 1.364 1_556 S
C178 H199 0.931 . S
C179 O190 1.256 . S
C179 O191 1.257 . S
O180 Gd160 2.377 . S
O180 C162 1.240 . S
O181 Gd161 2.395 . S
O181 C162 1.240 . S
O182 Gd160 2.448 . S
O182 C163 1.249 . S
O183 Gd160 2.506 1_556 S
O183 C163 1.252 1_556 S
O184 Gd160 2.435 . S
O184 C170 1.256 . S
O185 Gd160 2.717 . S
O185 Gd161 2.327 . S
O185 C170 1.257 . S
O186 Gd161 2.377 1_556 S
O186 C171 1.240 1_556 S
O187 Gd160 2.395 . S
O187 C171 1.240 . S
O188 Gd161 2.448 1_556 S
O188 C172 1.249 1_556 S
O189 Gd161 2.506 . S
O189 C172 1.252 . S
O190 Gd161 2.435 1_556 S
O190 C179 1.256 . S
O191 Gd160 2.327 1_556 S
O191 Gd161 2.717 1_556 S
O191 C179 1.257 . S
H192 C165 0.930 . S
H193 C166 0.931 . S
H194 C168 0.931 . S
H195 C169 0.931 . S
H196 C174 0.930 . S
H197 C175 0.931 . S
H198 C177 0.931 . S
H199 C178 0.931 . S
Gd200 C203 2.818 . S
Gd200 O220 2.377 . S
Gd200 O222 2.448 . S
Gd200 O223 2.506 1_554 S
Gd200 O224 2.435 . S
Gd200 O225 2.717 . S
Gd200 O227 2.395 . S
Gd200 O231 2.327 1_554 S
Gd201 C212 2.818 . S
Gd201 O221 2.395 . S
Gd201 O225 2.327 . S
Gd201 O226 2.376 1_554 S
Gd201 O228 2.448 1_554 S
Gd201 O229 2.506 . S
Gd201 O230 2.435 1_554 S
Gd201 O231 2.717 1_554 S
C202 O220 1.240 . S
C202 O221 1.240 . S
C203 Gd200 2.818 . S
C203 C204 1.510 . S
C203 O222 1.249 . S
C203 O223 1.252 1_554 S
C204 C203 1.510 . S
C204 C205 1.404 . S
C204 C206 1.352 1_554 S
C205 C204 1.404 . S
C205 C209 1.389 . S
C205 H232 0.930 . S
C206 C204 1.352 1_556 S
C206 C208 1.374 . S
C206 H233 0.931 . S
C207 C208 1.359 1_554 S
C207 C209 1.364 . S
C208 C206 1.374 . S
C208 C207 1.359 1_556 S
C208 H234 0.931 . S
C209 C205 1.389 . S
C209 C207 1.364 . S
C209 H235 0.931 . S
C210 O224 1.256 . S
C210 O225 1.257 . S
C211 O226 1.236 1_554 S
C211 O227 1.240 . S
C212 Gd201 2.818 . S
C212 C213 1.510 . S
C212 O228 1.249 1_554 S
C212 O229 1.252 . S
C213 C212 1.510 . S
C213 C214 1.404 1_554 S
C213 C215 1.352 . S
C214 C213 1.404 1_556 S
C214 C218 1.389 . S
C214 H236 0.930 . S
C215 C213 1.352 . S
C215 C217 1.374 . S
C215 H237 0.931 . S
C216 C217 1.359 . S
C216 C218 1.364 1_554 S
C217 C215 1.374 . S
C217 C216 1.359 . S
C217 H238 0.931 . S
C218 C214 1.389 . S
C218 C216 1.364 1_556 S
C218 H239 0.931 . S
C219 O230 1.256 . S
C219 O231 1.257 . S
O220 Gd200 2.377 . S
O220 C202 1.240 . S
O221 Gd201 2.395 . S
O221 C202 1.240 . S
O222 Gd200 2.448 . S
O222 C203 1.249 . S
O223 Gd200 2.506 1_556 S
O223 C203 1.252 1_556 S
O224 Gd200 2.435 . S
O224 C210 1.256 . S
O225 Gd200 2.717 . S
O225 Gd201 2.327 . S
O225 C210 1.257 . S
O226 Gd201 2.376 1_556 S
O226 C211 1.236 1_556 S
O227 Gd200 2.395 . S
O227 C211 1.240 . S
O228 Gd201 2.448 1_556 S
O228 C212 1.249 1_556 S
O229 Gd201 2.506 . S
O229 C212 1.252 . S
O230 Gd201 2.435 1_556 S
O230 C219 1.256 . S
O231 Gd200 2.327 1_556 S
O231 Gd201 2.717 1_556 S
O231 C219 1.257 . S
H232 C205 0.930 . S
H233 C206 0.931 . S
H234 C208 0.931 . S
H235 C209 0.931 . S
H236 C214 0.930 . S
H237 C215 0.931 . S
H238 C217 0.931 . S
H239 C218 0.931 . S
Gd240 C243 2.818 . S
Gd240 O260 2.377 . S
Gd240 O262 2.448 . S
Gd240 O263 2.506 . S
Gd240 O264 2.435 . S
Gd240 O265 2.717 . S
Gd240 O267 2.395 . S
Gd240 O271 2.327 . S
Gd241 C252 2.818 . S
Gd241 O261 2.395 . S
Gd241 O265 2.327 . S
Gd241 O266 2.377 . S
Gd241 O268 2.448 . S
Gd241 O269 2.506 . S
Gd241 O270 2.435 . S
Gd241 O271 2.717 . S
C242 O260 1.240 . S
C242 O261 1.240 . S
C243 Gd240 2.818 . S
C243 C244 1.510 . S
C243 O262 1.249 . S
C243 O263 1.252 . S
C244 C243 1.510 . S
C244 C245 1.404 . S
C244 C246 1.352 . S
C245 C244 1.404 . S
C245 C249 1.389 . S
C245 H272 0.930 . S
C246 C244 1.352 . S
C246 C248 1.374 . S
C246 H273 0.931 . S
C247 C248 1.359 . S
C247 C249 1.364 . S
C248 C246 1.374 . S
C248 C247 1.359 . S
C248 H274 0.931 . S
C249 C245 1.389 . S
C249 C247 1.364 . S
C249 H275 0.931 . S
C250 O264 1.256 . S
C250 O265 1.257 . S
C251 O266 1.240 . S
C251 O267 1.240 . S
C252 Gd241 2.818 . S
C252 C253 1.510 . S
C252 O268 1.249 . S
C252 O269 1.252 . S
C253 C252 1.510 . S
C253 C254 1.404 . S
C253 C255 1.352 . S
C254 C253 1.404 . S
C254 C258 1.389 . S
C254 H276 0.930 . S
C255 C253 1.352 . S
C255 C257 1.374 . S
C255 H277 0.931 . S
C256 C257 1.359 . S
C256 C258 1.364 . S
C257 C255 1.374 . S
C257 C256 1.359 . S
C257 H278 0.931 . S
C258 C254 1.389 . S
C258 C256 1.364 . S
C258 H279 0.931 . S
C259 O270 1.256 . S
C259 O271 1.257 . S
O260 Gd240 2.377 . S
O260 C242 1.240 . S
O261 Gd241 2.395 . S
O261 C242 1.240 . S
O262 Gd240 2.448 . S
O262 C243 1.249 . S
O263 Gd240 2.506 . S
O263 C243 1.252 . S
O264 Gd240 2.435 . S
O264 C250 1.256 . S
O265 Gd240 2.717 . S
O265 Gd241 2.327 . S
O265 C250 1.257 . S
O266 Gd241 2.377 . S
O266 C251 1.240 . S
O267 Gd240 2.395 . S
O267 C251 1.240 . S
O268 Gd241 2.448 . S
O268 C252 1.249 . S
O269 Gd241 2.506 . S
O269 C252 1.252 . S
O270 Gd241 2.435 . S
O270 C259 1.256 . S
O271 Gd240 2.327 . S
O271 Gd241 2.717 . S
O271 C259 1.257 . S
H272 C245 0.930 . S
H273 C246 0.931 . S
H274 C248 0.931 . S
H275 C249 0.931 . S
H276 C254 0.930 . S
H277 C255 0.931 . S
H278 C257 0.931 . S
H279 C258 0.931 . S
Gd280 C283 2.818 . S
Gd280 O300 2.377 . S
Gd280 O302 2.448 . S
Gd280 O303 2.506 . S
Gd280 O304 2.435 . S
Gd280 O305 2.717 . S
Gd280 O307 2.395 . S
Gd280 O311 2.327 . S
Gd281 C292 2.818 . S
Gd281 O301 2.395 . S
Gd281 O305 2.327 . S
Gd281 O306 2.377 . S
Gd281 O308 2.448 . S
Gd281 O309 2.506 . S
Gd281 O310 2.435 . S
Gd281 O311 2.717 . S
C282 O300 1.240 . S
C282 O301 1.240 . S
C283 Gd280 2.818 . S
C283 C284 1.510 . S
C283 O302 1.249 . S
C283 O303 1.252 . S
C284 C283 1.510 . S
C284 C285 1.404 . S
C284 C286 1.352 . S
C285 C284 1.404 . S
C285 C289 1.389 . S
C285 H312 0.930 . S
C286 C284 1.352 . S
C286 C288 1.374 . S
C286 H313 0.931 . S
C287 C288 1.359 . S
C287 C289 1.364 . S
C288 C286 1.374 . S
C288 C287 1.359 . S
C288 H314 0.931 . S
C289 C285 1.389 . S
C289 C287 1.364 . S
C289 H315 0.931 . S
C290 O304 1.256 . S
C290 O305 1.257 . S
C291 O306 1.240 . S
C291 O307 1.240 . S
C292 Gd281 2.818 . S
C292 C293 1.510 . S
C292 O308 1.249 . S
C292 O309 1.252 . S
C293 C292 1.510 . S
C293 C294 1.404 . S
C293 C295 1.352 . S
C294 C293 1.404 . S
C294 C298 1.389 . S
C294 H316 0.930 . S
C295 C293 1.352 . S
C295 C297 1.374 . S
C295 H317 0.931 . S
C296 C297 1.359 . S
C296 C298 1.364 . S
C297 C295 1.374 . S
C297 C296 1.359 . S
C297 H318 0.931 . S
C298 C294 1.389 . S
C298 C296 1.364 . S
C298 H319 0.931 . S
C299 O310 1.256 . S
C299 O311 1.257 . S
O300 Gd280 2.377 . S
O300 C282 1.240 . S
O301 Gd281 2.395 . S
O301 C282 1.240 . S
O302 Gd280 2.448 . S
O302 C283 1.249 . S
O303 Gd280 2.506 . S
O303 C283 1.252 . S
O304 Gd280 2.435 . S
O304 C290 1.256 . S
O305 Gd280 2.717 . S
O305 Gd281 2.327 . S
O305 C290 1.257 . S
O306 Gd281 2.377 . S
O306 C291 1.240 . S
O307 Gd280 2.395 . S
O307 C291 1.240 . S
O308 Gd281 2.448 . S
O308 C292 1.249 . S
O309 Gd281 2.506 . S
O309 C292 1.252 . S
O310 Gd281 2.435 . S
O310 C299 1.256 . S
O311 Gd280 2.327 . S
O311 Gd281 2.717 . S
O311 C299 1.257 . S
H312 C285 0.930 . S
H313 C286 0.931 . S
H314 C288 0.931 . S
H315 C289 0.931 . S
H316 C294 0.930 . S
H317 C295 0.931 . S
H318 C297 0.931 . S
H319 C298 0.931 . S
H320 C328 0.950 . S
H321 C333 0.950 . S
H322 C330 0.950 . S
H323 C332 0.950 . S
H324 C334 0.950 . S
H325 C336 0.950 . S
H326 C338 0.950 . S
H327 C339 0.950 . S
C328 H320 0.950 . S
C328 C329 1.386 1_556 S
C328 C330 1.391 . S
C329 C328 1.386 1_554 S
C329 C333 1.393 . S
C330 H322 0.950 . S
C330 C328 1.391 . S
C330 C331 1.400 1_556 S
C331 C330 1.400 1_554 S
C331 C332 1.398 . S
C331 C337 1.491 . S
C332 H323 0.950 . S
C332 C331 1.398 . S
C332 C333 1.391 . S
C333 H321 0.950 . S
C333 C329 1.393 . S
C333 C332 1.391 . S
C334 H324 0.950 . S
C334 C335 1.386 . S
C334 C336 1.391 . S
C335 C334 1.386 . S
C335 C339 1.393 1_554 S
C336 H325 0.950 . S
C336 C334 1.391 . S
C336 C337 1.400 . S
C337 C331 1.491 . S
C337 C336 1.400 . S
C337 C338 1.398 1_554 S
C338 H326 0.950 . S
C338 C337 1.398 1_556 S
C338 C339 1.391 . S
C339 H327 0.950 . S
C339 C335 1.393 1_556 S
C339 C338 1.391 . S
H340 C348 0.950 . S
H341 C353 0.950 . S
H342 C350 0.950 . S
H343 C352 0.950 . S
H344 C354 0.950 . S
H345 C356 0.950 . S
H346 C358 0.950 . S
H347 C359 0.950 . S
C348 H340 0.950 . S
C348 C349 1.386 . S
C348 C350 1.391 . S
C349 C348 1.386 . S
C349 C353 1.393 1_554 S
C350 H342 0.950 . S
C350 C348 1.391 . S
C350 C351 1.400 . S
C351 C350 1.400 . S
C351 C352 1.398 1_554 S
C351 C357 1.491 . S
C352 H343 0.950 . S
C352 C351 1.398 1_556 S
C352 C353 1.391 . S
C353 H341 0.950 . S
C353 C349 1.393 1_556 S
C353 C352 1.391 . S
C354 H344 0.950 . S
C354 C355 1.386 1_556 S
C354 C356 1.391 . S
C355 C354 1.386 1_554 S
C355 C359 1.393 . S
C356 H345 0.950 . S
C356 C354 1.391 . S
C356 C357 1.400 1_556 S
C357 C351 1.491 . S
C357 C356 1.400 1_554 S
C357 C358 1.398 . S
C358 H346 0.950 . S
C358 C357 1.398 . S
C358 C359 1.391 . S
C359 H347 0.950 . S
C359 C355 1.393 . S
C359 C358 1.391 . S
H360 C368 0.950 . S
H361 C373 0.950 . S
H362 C370 0.950 . S
H363 C372 0.950 . S
H364 C374 0.950 . S
H365 C376 0.950 . S
H366 C378 0.950 . S
H367 C379 0.950 . S
C368 H360 0.950 . S
C368 C369 1.386 . S
C368 C370 1.391 . S
C369 C368 1.386 . S
C369 C373 1.393 . S
C370 H362 0.950 . S
C370 C368 1.391 . S
C370 C371 1.400 . S
C371 C370 1.400 . S
C371 C372 1.398 . S
C371 C377 1.491 . S
C372 H363 0.950 . S
C372 C371 1.398 . S
C372 C373 1.391 . S
C373 H361 0.950 . S
C373 C369 1.393 . S
C373 C372 1.391 . S
C374 H364 0.950 . S
C374 C375 1.386 . S
C374 C376 1.391 . S
C375 C374 1.386 . S
C375 C379 1.393 . S
C376 H365 0.950 . S
C376 C374 1.391 . S
C376 C377 1.400 . S
C377 C371 1.491 . S
C377 C376 1.400 . S
C377 C378 1.398 . S
C378 H366 0.950 . S
C378 C377 1.398 . S
C378 C379 1.391 . S
C379 H367 0.950 . S
C379 C375 1.393 . S
C379 C378 1.391 . S
H380 C388 0.950 . S
H381 C393 0.950 . S
H382 C390 0.950 . S
H383 C392 0.950 . S
H384 C394 0.950 . S
H385 C396 0.950 . S
H386 C398 0.950 . S
H387 C399 0.950 . S
C388 H380 0.950 . S
C388 C389 1.386 . S
C388 C390 1.391 . S
C389 C388 1.386 . S
C389 C393 1.393 . S
C390 H382 0.950 . S
C390 C388 1.391 . S
C390 C391 1.400 . S
C391 C390 1.400 . S
C391 C392 1.398 . S
C391 C397 1.491 . S
C392 H383 0.950 . S
C392 C391 1.398 . S
C392 C393 1.391 . S
C393 H381 0.950 . S
C393 C389 1.393 . S
C393 C392 1.391 . S
C394 H384 0.950 . S
C394 C395 1.386 . S
C394 C396 1.391 . S
C395 C394 1.386 . S
C395 C399 1.393 . S
C396 H385 0.950 . S
C396 C394 1.391 . S
C396 C397 1.400 . S
C397 C391 1.491 . S
C397 C396 1.400 . S
C397 C398 1.398 . S
C398 H386 0.950 . S
C398 C397 1.398 . S
C398 C399 1.391 . S
C399 H387 0.950 . S
C399 C395 1.393 . S
C399 C398 1.391 . S
H400 C408 0.950 . S
H401 C413 0.950 . S
H402 C410 0.954 1_455 S
H403 C412 0.950 . S
H404 C414 0.950 . S
H405 C416 0.950 . S
H406 C418 0.950 1_556 S
H407 C419 0.950 1_556 S
C408 H400 0.950 . S
C408 C409 1.386 1_556 S
C408 C410 1.394 . S
C409 C408 1.386 1_554 S
C409 C413 1.393 . S
C410 H402 0.954 1_655 S
C410 C408 1.394 . S
C410 C411 1.394 1_656 S
C411 C410 1.394 1_454 S
C411 C412 1.398 1_455 S
C411 C417 1.491 . S
C412 H403 0.950 . S
C412 C411 1.398 1_655 S
C412 C413 1.391 . S
C413 H401 0.950 . S
C413 C409 1.393 . S
C413 C412 1.391 . S
C414 H404 0.950 . S
C414 C415 1.386 . S
C414 C416 1.391 . S
C415 C414 1.386 . S
C415 C419 1.393 . S
C416 H405 0.950 . S
C416 C414 1.391 . S
C416 C417 1.400 . S
C417 C411 1.491 . S
C417 C416 1.400 . S
C417 C418 1.398 . S
C418 H406 0.950 1_554 S
C418 C417 1.398 . S
C418 C419 1.391 . S
C419 H407 0.950 1_554 S
C419 C415 1.393 . S
C419 C418 1.391 . S
H420 C428 0.950 . S
H421 C433 0.950 . S
H422 C430 0.950 . S
H423 C432 0.950 1_655 S
H424 C434 0.950 . S
H425 C436 0.950 . S
H426 C438 0.950 . S
H427 C439 0.950 . S
C428 H420 0.950 . S
C428 C429 1.386 1_556 S
C428 C430 1.391 . S
C429 C428 1.386 1_554 S
C429 C433 1.393 . S
C430 H422 0.950 . S
C430 C428 1.391 . S
C430 C431 1.400 1_456 S
C431 C430 1.400 1_654 S
C431 C432 1.398 1_655 S
C431 C437 1.491 . S
C432 H423 0.950 1_455 S
C432 C431 1.398 1_455 S
C432 C433 1.391 . S
C433 H421 0.950 . S
C433 C429 1.393 . S
C433 C432 1.391 . S
C434 H424 0.950 . S
C434 C435 1.386 . S
C434 C436 1.391 . S
C435 C434 1.386 . S
C435 C439 1.393 1_554 S
C436 H425 0.950 . S
C436 C434 1.391 . S
C436 C437 1.400 . S
C437 C431 1.491 . S
C437 C436 1.400 . S
C437 C438 1.398 1_554 S
C438 H426 0.950 . S
C438 C437 1.398 1_556 S
C438 C439 1.391 . S
C439 H427 0.950 . S
C439 C435 1.393 1_556 S
C439 C438 1.391 . S
H440 C448 0.950 . S
H441 C453 0.950 . S
H442 C450 0.950 . S
H443 C452 0.950 . S
H444 C454 0.950 . S
H445 C456 0.950 . S
H446 C458 0.950 1_455 S
H447 C459 0.950 . S
C448 H440 0.950 . S
C448 C449 1.386 . S
C448 C450 1.391 . S
C449 C448 1.386 . S
C449 C453 1.393 . S
C450 H442 0.950 . S
C450 C448 1.391 . S
C450 C451 1.400 . S
C451 C450 1.400 . S
C451 C452 1.398 . S
C451 C457 1.491 . S
C452 H443 0.950 . S
C452 C451 1.398 . S
C452 C453 1.391 . S
C453 H441 0.950 . S
C453 C449 1.393 . S
C453 C452 1.391 . S
C454 H444 0.950 . S
C454 C455 1.386 . S
C454 C456 1.391 . S
C455 C454 1.386 . S
C455 C459 1.393 . S
C456 H445 0.950 . S
C456 C454 1.391 . S
C456 C457 1.400 1_655 S
C457 C451 1.491 . S
C457 C456 1.400 1_455 S
C457 C458 1.398 1_455 S
C458 H446 0.950 1_655 S
C458 C457 1.398 1_655 S
C458 C459 1.391 . S
C459 H447 0.950 . S
C459 C455 1.393 . S
C459 C458 1.391 . S
H460 C468 0.950 . S
H461 C473 0.950 . S
H462 C470 0.950 . S
H463 C472 0.950 . S
H464 C474 0.950 . S
H465 C476 0.950 1_655 S
H466 C478 0.950 . S
H467 C479 0.950 . S
C468 H460 0.950 . S
C468 C469 1.386 . S
C468 C470 1.391 . S
C469 C468 1.386 . S
C469 C473 1.393 . S
C470 H462 0.950 . S
C470 C468 1.391 . S
C470 C471 1.400 . S
C471 C470 1.400 . S
C471 C472 1.398 . S
C471 C477 1.491 . S
C472 H463 0.950 . S
C472 C471 1.398 . S
C472 C473 1.391 . S
C473 H461 0.950 . S
C473 C469 1.393 . S
C473 C472 1.391 . S
C474 H464 0.950 . S
C474 C475 1.386 . S
C474 C476 1.391 . S
C475 C474 1.386 . S
C475 C479 1.393 . S
C476 H465 0.950 1_455 S
C476 C474 1.391 . S
C476 C477 1.400 1_455 S
C477 C471 1.491 . S
C477 C476 1.400 1_655 S
C477 C478 1.398 1_655 S
C478 H466 0.950 . S
C478 C477 1.398 1_455 S
C478 C479 1.391 . S
C479 H467 0.950 . S
C479 C475 1.393 . S
C479 C478 1.391 . S
H480 C488 0.950 . S
H481 C493 0.950 1_655 S
H482 C490 0.950 . S
H483 C492 0.950 . S
H484 C494 0.950 . S
H485 C496 0.950 . S
H486 C498 0.950 . S
H487 C499 0.950 1_455 S
C488 H480 0.950 . S
C488 C489 1.386 . S
C488 C490 1.391 . S
C489 C488 1.386 . S
C489 C493 1.393 . S
C490 H482 0.950 . S
C490 C488 1.391 . S
C490 C491 1.400 . S
C491 C490 1.400 . S
C491 C492 1.398 1_455 S
C491 C497 1.491 1_455 S
C492 H483 0.950 . S
C492 C491 1.398 1_655 S
C492 C493 1.391 1_655 S
C493 H481 0.950 1_455 S
C493 C489 1.393 . S
C493 C492 1.391 1_455 S
C494 H484 0.950 . S
C494 C495 1.386 . S
C494 C496 1.391 . S
C495 C494 1.386 . S
C495 C499 1.393 . S
C496 H485 0.950 . S
C496 C494 1.391 . S
C496 C497 1.400 . S
C497 C491 1.491 1_655 S
C497 C496 1.400 . S
C497 C498 1.398 1_655 S
C498 H486 0.950 . S
C498 C497 1.398 1_455 S
C498 C499 1.391 1_455 S
C499 H487 0.950 1_655 S
C499 C495 1.393 . S
C499 C498 1.391 1_655 S
H500 C508 0.950 1_655 S
H501 C513 0.950 . S
H502 C510 0.950 . S
H503 C512 0.950 . S
H504 C514 0.950 1_455 S
H505 C516 0.950 . S
H506 C518 0.950 . S
H507 C519 0.950 . S
C508 H500 0.950 1_455 S
C508 C509 1.386 . S
C508 C510 1.391 1_455 S
C509 C508 1.386 . S
C509 C513 1.393 . S
C510 H502 0.950 . S
C510 C508 1.391 1_655 S
C510 C511 1.400 1_655 S
C511 C510 1.400 1_455 S
C511 C512 1.398 . S
C511 C517 1.491 1_455 S
C512 H503 0.950 . S
C512 C511 1.398 . S
C512 C513 1.391 . S
C513 H501 0.950 . S
C513 C509 1.393 . S
C513 C512 1.391 . S
C514 H504 0.950 1_655 S
C514 C515 1.386 . S
C514 C516 1.391 1_655 S
C515 C514 1.386 . S
C515 C519 1.393 . S
C516 H505 0.950 . S
C516 C514 1.391 1_455 S
C516 C517 1.400 1_455 S
C517 C511 1.491 1_655 S
C517 C516 1.400 1_655 S
C517 C518 1.398 . S
C518 H506 0.950 . S
C518 C517 1.398 . S
C518 C519 1.391 . S
C519 H507 0.950 . S
C519 C515 1.393 . S
C519 C518 1.391 . S
H520 C528 0.950 . S
H521 C533 0.950 . S
H522 C530 0.950 . S
H523 C532 0.950 . S
H524 C534 0.950 . S
H525 C536 0.950 . S
H526 C538 0.950 . S
H527 C539 0.950 . S
C528 H520 0.950 . S
C528 C529 1.386 . S
C528 C530 1.391 . S
C529 C528 1.386 . S
C529 C533 1.393 1_554 S
C530 H522 0.950 . S
C530 C528 1.391 . S
C530 C531 1.400 . S
C531 C530 1.400 . S
C531 C532 1.398 1_554 S
C531 C537 1.491 1_565 S
C532 H523 0.950 . S
C532 C531 1.398 1_556 S
C532 C533 1.391 . S
C533 H521 0.950 . S
C533 C529 1.393 1_556 S
C533 C532 1.391 . S
C534 H524 0.950 . S
C534 C535 1.386 1_556 S
C534 C536 1.391 . S
C535 C534 1.386 1_554 S
C535 C539 1.393 . S
C536 H525 0.950 . S
C536 C534 1.391 . S
C536 C537 1.400 1_556 S
C537 C531 1.491 1_545 S
C537 C536 1.400 1_554 S
C537 C538 1.398 . S
C538 H526 0.950 . S
C538 C537 1.398 . S
C538 C539 1.391 . S
C539 H527 0.950 . S
C539 C535 1.393 . S
C539 C538 1.391 . S
H540 C548 0.950 . S
H541 C553 0.950 . S
H542 C550 0.950 . S
H543 C552 0.950 . S
H544 C554 0.950 . S
H545 C556 0.950 . S
H546 C558 0.950 . S
H547 C559 0.950 . S
C548 H540 0.950 . S
C548 C549 1.386 . S
C548 C550 1.391 . S
C549 C548 1.386 . S
C549 C553 1.393 . S
C550 H542 0.950 . S
C550 C548 1.391 . S
C550 C551 1.400 . S
C551 C550 1.400 . S
C551 C552 1.398 . S
C551 C557 1.491 1_545 S
C552 H543 0.950 . S
C552 C551 1.398 . S
C552 C553 1.391 . S
C553 H541 0.950 . S
C553 C549 1.393 . S
C553 C552 1.391 . S
C554 H544 0.950 . S
C554 C555 1.386 . S
C554 C556 1.391 . S
C555 C554 1.386 . S
C555 C559 1.393 . S
C556 H545 0.950 . S
C556 C554 1.391 . S
C556 C557 1.400 . S
C557 C551 1.491 1_565 S
C557 C556 1.400 . S
C557 C558 1.398 . S
C558 H546 0.950 . S
C558 C557 1.398 . S
C558 C559 1.391 . S
C559 H547 0.950 . S
C559 C555 1.393 . S
C559 C558 1.391 . S
H560 C568 0.950 . S
H561 C573 0.950 . S
H562 C570 0.950 . S
H563 C572 0.950 . S
H564 C574 0.950 . S
H565 C576 0.950 . S
H566 C578 0.950 . S
H567 C579 0.950 . S
C568 H560 0.950 . S
C568 C569 1.386 . S
C568 C570 1.391 . S
C569 C568 1.386 . S
C569 C573 1.393 1_554 S
C570 H562 0.950 . S
C570 C568 1.391 . S
C570 C571 1.400 . S
C571 C570 1.400 . S
C571 C572 1.398 1_554 S
C571 C577 1.491 . S
C572 H563 0.950 . S
C572 C571 1.398 1_556 S
C572 C573 1.391 . S
C573 H561 0.950 . S
C573 C569 1.393 1_556 S
C573 C572 1.391 . S
C574 H564 0.950 . S
C574 C575 1.386 1_556 S
C574 C576 1.391 . S
C575 C574 1.386 1_554 S
C575 C579 1.393 . S
C576 H565 0.950 . S
C576 C574 1.391 . S
C576 C577 1.400 1_556 S
C577 C571 1.491 . S
C577 C576 1.400 1_554 S
C577 C578 1.398 . S
C578 H566 0.950 . S
C578 C577 1.398 . S
C578 C579 1.391 . S
C579 H567 0.950 . S
C579 C575 1.393 . S
C579 C578 1.391 . S
H580 C588 0.950 . S
H581 C593 0.950 1_556 S
H582 C590 0.950 . S
H583 C592 0.950 . S
H584 C594 0.950 . S
H585 C596 0.950 . S
H586 C598 0.950 . S
H587 C599 0.950 . S
C588 H580 0.950 . S
C588 C589 1.386 . S
C588 C590 1.391 . S
C589 C588 1.386 . S
C589 C593 1.393 . S
C590 H582 0.950 . S
C590 C588 1.391 . S
C590 C591 1.400 . S
C591 C590 1.400 . S
C591 C592 1.398 1_554 S
C591 C597 1.491 . S
C592 H583 0.950 . S
C592 C591 1.398 1_556 S
C592 C593 1.391 1_556 S
C593 H581 0.950 1_554 S
C593 C589 1.393 . S
C593 C592 1.391 1_554 S
C594 H584 0.950 . S
C594 C595 1.386 1_556 S
C594 C596 1.391 . S
C595 C594 1.386 1_554 S
C595 C599 1.393 . S
C596 H585 0.950 . S
C596 C594 1.391 . S
C596 C597 1.400 1_556 S
C597 C591 1.491 . S
C597 C596 1.400 1_554 S
C597 C598 1.398 . S
C598 H586 0.950 . S
C598 C597 1.398 . S
C598 C599 1.391 . S
C599 H587 0.950 . S
C599 C595 1.393 . S
C599 C598 1.391 . S
H600 C608 0.950 . S
H601 C613 0.950 . S
H602 C610 0.950 . S
H603 C612 0.950 . S
H604 C614 0.950 . S
H605 C616 0.950 . S
H606 C618 0.950 . S
H607 C619 0.950 . S
C608 H600 0.950 . S
C608 C609 1.386 . S
C608 C610 1.391 . S
C609 C608 1.386 . S
C609 C613 1.393 . S
C610 H602 0.950 . S
C610 C608 1.391 . S
C610 C611 1.400 . S
C611 C610 1.400 . S
C611 C612 1.398 . S
C611 C617 1.491 . S
C612 H603 0.950 . S
C612 C611 1.398 . S
C612 C613 1.391 . S
C613 H601 0.950 . S
C613 C609 1.393 . S
C613 C612 1.391 . S
C614 H604 0.950 . S
C614 C615 1.386 . S
C614 C616 1.391 . S
C615 C614 1.386 . S
C615 C619 1.393 . S
C616 H605 0.950 . S
C616 C614 1.391 . S
C616 C617 1.400 . S
C617 C611 1.491 . S
C617 C616 1.400 . S
C617 C618 1.398 . S
C618 H606 0.950 . S
C618 C617 1.398 . S
C618 C619 1.391 . S
C619 H607 0.950 . S
C619 C615 1.393 . S
C619 C618 1.391 . S
H620 C628 0.950 . S
H621 C633 0.950 . S
H622 C630 0.950 . S
H623 C632 0.950 . S
H624 C634 0.950 . S
H625 C636 0.950 . S
H626 C638 0.950 . S
H627 C639 0.950 . S
C628 H620 0.950 . S
C628 C629 1.386 . S
C628 C630 1.391 . S
C629 C628 1.386 . S
C629 C633 1.393 . S
C630 H622 0.950 . S
C630 C628 1.391 . S
C630 C631 1.400 . S
C631 C630 1.400 . S
C631 C632 1.398 . S
C631 C637 1.491 . S
C632 H623 0.950 . S
C632 C631 1.398 . S
C632 C633 1.391 . S
C633 H621 0.950 . S
C633 C629 1.393 . S
C633 C632 1.391 . S
C634 H624 0.950 . S
C634 C635 1.386 . S
C634 C636 1.391 . S
C635 C634 1.386 . S
C635 C639 1.393 . S
C636 H625 0.950 . S
C636 C634 1.391 . S
C636 C637 1.400 . S
C637 C631 1.491 . S
C637 C636 1.400 . S
C637 C638 1.398 . S
C638 H626 0.950 . S
C638 C637 1.398 . S
C638 C639 1.391 . S
C639 H627 0.950 . S
C639 C635 1.393 . S
C639 C638 1.391 . S
H640 C648 0.950 . S
H641 C653 0.950 1_655 S
H642 C650 0.950 . S
H643 C652 0.950 . S
H644 C654 0.950 . S
H645 C656 0.950 . S
H646 C658 0.950 . S
H647 C659 0.950 1_455 S
C648 H640 0.950 . S
C648 C649 1.386 . S
C648 C650 1.391 . S
C649 C648 1.386 . S
C649 C653 1.393 . S
C650 H642 0.950 . S
C650 C648 1.391 . S
C650 C651 1.400 . S
C651 C650 1.400 . S
C651 C652 1.398 1_455 S
C651 C657 1.491 1_455 S
C652 H643 0.950 . S
C652 C651 1.398 1_655 S
C652 C653 1.391 1_655 S
C653 H641 0.950 1_455 S
C653 C649 1.393 . S
C653 C652 1.391 1_455 S
C654 H644 0.950 . S
C654 C655 1.386 . S
C654 C656 1.391 . S
C655 C654 1.386 . S
C655 C659 1.393 . S
C656 H645 0.950 . S
C656 C654 1.391 . S
C656 C657 1.400 . S
C657 C651 1.491 1_655 S
C657 C656 1.400 . S
C657 C658 1.398 1_655 S
C658 H646 0.950 . S
C658 C657 1.398 1_455 S
C658 C659 1.391 1_455 S
C659 H647 0.950 1_655 S
C659 C655 1.393 . S
C659 C658 1.391 1_655 S
H660 C668 0.950 . S
H661 C673 0.950 . S
H662 C670 0.950 . S
H663 C672 0.950 . S
H664 C674 0.950 . S
H665 C676 0.950 . S
H666 C678 0.950 . S
H667 C679 0.950 . S
C668 H660 0.950 . S
C668 C669 1.386 1_455 S
C668 C670 1.391 . S
C669 C668 1.386 1_655 S
C669 C673 1.393 . S
C670 H662 0.950 . S
C670 C668 1.391 . S
C670 C671 1.400 1_455 S
C671 C670 1.400 1_655 S
C671 C672 1.398 . S
C671 C677 1.491 1_655 S
C672 H663 0.950 . S
C672 C671 1.398 . S
C672 C673 1.391 . S
C673 H661 0.950 . S
C673 C669 1.393 . S
C673 C672 1.391 . S
C674 H664 0.950 . S
C674 C675 1.386 1_655 S
C674 C676 1.391 . S
C675 C674 1.386 1_455 S
C675 C679 1.393 . S
C676 H665 0.950 . S
C676 C674 1.391 . S
C676 C677 1.400 1_655 S
C677 C671 1.491 1_455 S
C677 C676 1.400 1_455 S
C677 C678 1.398 . S
C678 H666 0.950 . S
C678 C677 1.398 . S
C678 C679 1.391 . S
C679 H667 0.950 . S
C679 C675 1.393 . S
C679 C678 1.391 . S
H680 C688 0.950 . S
H681 C693 0.950 . S
H682 C690 0.950 . S
H683 C692 0.950 . S
H684 C694 0.950 . S
H685 C696 0.950 . S
H686 C698 0.950 . S
H687 C699 0.950 . S
C688 H680 0.950 . S
C688 C689 1.386 1_455 S
C688 C690 1.391 . S
C689 C688 1.386 1_655 S
C689 C693 1.393 . S
C690 H682 0.950 . S
C690 C688 1.391 . S
C690 C691 1.400 1_455 S
C691 C690 1.400 1_655 S
C691 C692 1.398 . S
C691 C697 1.491 1_655 S
C692 H683 0.950 . S
C692 C691 1.398 . S
C692 C693 1.391 . S
C693 H681 0.950 . S
C693 C689 1.393 . S
C693 C692 1.391 . S
C694 H684 0.950 . S
C694 C695 1.386 1_655 S
C694 C696 1.391 . S
C695 C694 1.386 1_455 S
C695 C699 1.393 . S
C696 H685 0.950 . S
C696 C694 1.391 . S
C696 C697 1.400 1_655 S
C697 C691 1.491 1_455 S
C697 C696 1.400 1_455 S
C697 C698 1.398 . S
C698 H686 0.950 . S
C698 C697 1.398 . S
C698 C699 1.391 . S
C699 H687 0.950 . S
C699 C695 1.393 . S
C699 C698 1.391 . S
H700 C708 0.950 . S
H701 C713 0.950 . S
H702 C710 0.950 . S
H703 C712 0.950 1_455 S
H704 C714 0.950 . S
H705 C716 0.950 . S
H706 C718 0.950 1_655 S
H707 C719 0.950 . S
C708 H700 0.950 . S
C708 C709 1.386 . S
C708 C710 1.391 . S
C709 C708 1.386 . S
C709 C713 1.393 . S
C710 H702 0.950 . S
C710 C708 1.391 . S
C710 C711 1.400 . S
C711 C710 1.400 . S
C711 C712 1.398 . S
C711 C717 1.491 1_655 S
C712 H703 0.950 1_655 S
C712 C711 1.398 . S
C712 C713 1.391 . S
C713 H701 0.950 . S
C713 C709 1.393 . S
C713 C712 1.391 . S
C714 H704 0.950 . S
C714 C715 1.386 . S
C714 C716 1.391 . S
C715 C714 1.386 . S
C715 C719 1.393 . S
C716 H705 0.950 . S
C716 C714 1.391 . S
C716 C717 1.400 . S
C717 C711 1.491 1_455 S
C717 C716 1.400 . S
C717 C718 1.398 . S
C718 H706 0.950 1_455 S
C718 C717 1.398 . S
C718 C719 1.391 . S
C719 H707 0.950 . S
C719 C715 1.393 . S
C719 C718 1.391 . S
H720 C728 0.950 . S
H721 C733 0.950 . S
H722 C730 0.950 . S
H723 C732 0.950 . S
H724 C734 0.950 . S
H725 C736 0.950 . S
H726 C738 0.950 . S
H727 C739 0.950 . S
C728 H720 0.950 . S
C728 C729 1.386 . S
C728 C730 1.391 . S
C729 C728 1.386 . S
C729 C733 1.393 . S
C730 H722 0.950 . S
C730 C728 1.391 . S
C730 C731 1.400 . S
C731 C730 1.400 . S
C731 C732 1.398 . S
C731 C737 1.491 . S
C732 H723 0.950 . S
C732 C731 1.398 . S
C732 C733 1.391 . S
C733 H721 0.950 . S
C733 C729 1.393 . S
C733 C732 1.391 . S
C734 H724 0.950 . S
C734 C735 1.386 . S
C734 C736 1.391 . S
C735 C734 1.386 . S
C735 C739 1.393 . S
C736 H725 0.950 . S
C736 C734 1.391 . S
C736 C737 1.400 . S
C737 C731 1.491 . S
C737 C736 1.400 . S
C737 C738 1.398 . S
C738 H726 0.950 . S
C738 C737 1.398 . S
C738 C739 1.391 . S
C739 H727 0.950 . S
C739 C735 1.393 . S
C739 C738 1.391 . S
H740 C748 0.950 . S
H741 C753 0.950 . S
H742 C750 0.950 . S
H743 C752 0.950 . S
H744 C754 0.950 . S
H745 C756 0.950 . S
H746 C758 0.950 . S
H747 C759 0.950 . S
C748 H740 0.950 . S
C748 C749 1.386 . S
C748 C750 1.391 . S
C749 C748 1.386 . S
C749 C753 1.393 . S
C750 H742 0.950 . S
C750 C748 1.391 . S
C750 C751 1.400 . S
C751 C750 1.400 . S
C751 C752 1.398 . S
C751 C757 1.491 . S
C752 H743 0.950 . S
C752 C751 1.398 . S
C752 C753 1.391 . S
C753 H741 0.950 . S
C753 C749 1.393 . S
C753 C752 1.391 . S
C754 H744 0.950 . S
C754 C755 1.386 . S
C754 C756 1.391 . S
C755 C754 1.386 . S
C755 C759 1.393 . S
C756 H745 0.950 . S
C756 C754 1.391 . S
C756 C757 1.400 . S
C757 C751 1.491 . S
C757 C756 1.400 . S
C757 C758 1.398 . S
C758 H746 0.950 . S
C758 C757 1.398 . S
C758 C759 1.391 . S
C759 H747 0.950 . S
C759 C755 1.393 . S
C759 C758 1.391 . S
H760 C768 0.950 . S
H761 C773 0.950 . S
H762 C770 0.950 . S
H763 C772 0.950 . S
H764 C774 0.950 . S
H765 C776 0.950 . S
H766 C778 0.950 . S
H767 C779 0.950 . S
C768 H760 0.950 . S
C768 C769 1.386 . S
C768 C770 1.391 . S
C769 C768 1.386 . S
C769 C773 1.393 . S
C770 H762 0.950 . S
C770 C768 1.391 . S
C770 C771 1.400 . S
C771 C770 1.400 . S
C771 C772 1.398 . S
C771 C777 1.491 . S
C772 H763 0.950 . S
C772 C771 1.398 . S
C772 C773 1.391 . S
C773 H761 0.950 . S
C773 C769 1.393 . S
C773 C772 1.391 . S
C774 H764 0.950 . S
C774 C775 1.386 . S
C774 C776 1.391 . S
C775 C774 1.386 . S
C775 C779 1.393 . S
C776 H765 0.950 . S
C776 C774 1.391 . S
C776 C777 1.400 . S
C777 C771 1.491 . S
C777 C776 1.400 . S
C777 C778 1.398 . S
C778 H766 0.950 . S
C778 C777 1.398 . S
C778 C779 1.391 . S
C779 H767 0.950 . S
C779 C775 1.393 . S
C779 C778 1.391 . S
H780 C788 0.950 . S
H781 C793 0.950 . S
H782 C790 0.950 . S
H783 C792 0.950 . S
H784 C794 0.950 . S
H785 C796 0.950 . S
H786 C798 0.950 . S
H787 C799 0.950 . S
C788 H780 0.950 . S
C788 C789 1.386 . S
C788 C790 1.391 . S
C789 C788 1.386 . S
C789 C793 1.393 . S
C790 H782 0.950 . S
C790 C788 1.391 . S
C790 C791 1.400 . S
C791 C790 1.400 . S
C791 C792 1.398 . S
C791 C797 1.491 . S
C792 H783 0.950 . S
C792 C791 1.398 . S
C792 C793 1.391 . S
C793 H781 0.950 . S
C793 C789 1.393 . S
C793 C792 1.391 . S
C794 H784 0.950 . S
C794 C795 1.386 . S
C794 C796 1.391 . S
C795 C794 1.386 . S
C795 C799 1.393 . S
C796 H785 0.950 . S
C796 C794 1.391 . S
C796 C797 1.400 . S
C797 C791 1.491 . S
C797 C796 1.400 . S
C797 C798 1.398 . S
C798 H786 0.950 . S
C798 C797 1.398 . S
C798 C799 1.391 . S
C799 H787 0.950 . S
C799 C795 1.393 . S
C799 C798 1.391 . S
C329 C11 2.319 . S
C335 C2 2.319 . S
C349 C51 2.334 . S
C355 C42 2.334 . S
C369 C91 2.320 . S
C375 C82 2.320 . S
C389 C131 2.323 . S
C395 C122 2.323 . S
C409 C171 2.322 . S
C415 C162 2.322 . S
C429 C202 2.320 . S
C435 C211 2.320 . S
C449 C251 2.332 . S
C455 C242 2.332 . S
C469 C282 2.327 . S
C475 C291 2.327 . S
C489 C56 2.646 . S
C495 C7 2.646 . S
C509 C127 2.650 . S
C515 C96 2.650 . S
C529 C167 2.635 . S
C535 C216 2.635 . S
C549 C256 2.641 . S
C555 C287 2.641 . S
C569 C16 1.846 . S
C575 C207 1.846 . S
C589 C176 1.849 . S
C595 C47 1.849 . S
C609 C87 1.865 . S
C615 C296 1.865 . S
C629 C136 1.852 . S
C635 C247 1.852 . S
C649 C10 1.445 . S
C655 C130 1.454 . S
C669 C50 1.618 . S
C675 C90 1.636 . S
C689 C59 1.441 . S
C695 C99 1.465 . S
C709 C139 1.624 . S
C715 C19 1.633 . S
C729 C170 1.447 . S
C735 C290 1.450 . S
C749 C210 1.624 . S
C755 C250 1.613 . S
C769 C219 1.458 . S
C775 C259 1.440 . S
C789 C299 1.621 . S
C795 C179 1.635 . S
