# Generated by pormake.
# Topology acs-i, (5)-cn, num edge types: 1
# Building blocks:
#     Node 0, Type 0, BuildingBlock: XOMCOT_clean_sbu_0, # of connection points: 5
#     Node 1, Type 0, BuildingBlock: XOMCOT_clean_sbu_0, # of connection points: 5
#     Node 2, Type 0, BuildingBlock: XOMCOT_clean_sbu_0, # of connection points: 5
#     Node 3, Type 0, BuildingBlock: XOMCOT_clean_sbu_0, # of connection points: 5
#     Node 4, Type 0, BuildingBlock: XOMCOT_clean_sbu_0, # of connection points: 5
#     Node 5, Type 0, BuildingBlock: XOMCOT_clean_sbu_0, # of connection points: 5
#     Node 6, Type 0, BuildingBlock: XOMCOT_clean_sbu_0, # of connection points: 5
#     Node 7, Type 0, BuildingBlock: XOMCOT_clean_sbu_0, # of connection points: 5
#     Node 8, Type 0, BuildingBlock: XOMCOT_clean_sbu_0, # of connection points: 5
#     Node 9, Type 0, BuildingBlock: XOMCOT_clean_sbu_0, # of connection points: 5
#     Node 10, Type 0, BuildingBlock: XOMCOT_clean_sbu_0, # of connection points: 5
#     Node 11, Type 0, BuildingBlock: XOMCOT_clean_sbu_0, # of connection points: 5
#     Edge 12, Type (0, 0), BuildingBlock: MIFKUJ_clean_linker_0, # of connection points: 2
#     Edge 13, Type (0, 0), BuildingBlock: MIFKUJ_clean_linker_0, # of connection points: 2
#     Edge 14, Type (0, 0), BuildingBlock: MIFKUJ_clean_linker_0, # of connection points: 2
#     Edge 15, Type (0, 0), BuildingBlock: MIFKUJ_clean_linker_0, # of connection points: 2
#     Edge 16, Type (0, 0), BuildingBlock: MIFKUJ_clean_linker_0, # of connection points: 2
#     Edge 17, Type (0, 0), BuildingBlock: MIFKUJ_clean_linker_0, # of connection points: 2
#     Edge 18, Type (0, 0), BuildingBlock: MIFKUJ_clean_linker_0, # of connection points: 2
#     Edge 19, Type (0, 0), BuildingBlock: MIFKUJ_clean_linker_0, # of connection points: 2
#     Edge 20, Type (0, 0), BuildingBlock: MIFKUJ_clean_linker_0, # of connection points: 2
#     Edge 21, Type (0, 0), BuildingBlock: MIFKUJ_clean_linker_0, # of connection points: 2
#     Edge 22, Type (0, 0), BuildingBlock: MIFKUJ_clean_linker_0, # of connection points: 2
#     Edge 23, Type (0, 0), BuildingBlock: MIFKUJ_clean_linker_0, # of connection points: 2
#     Edge 24, Type (0, 0), BuildingBlock: MIFKUJ_clean_linker_0, # of connection points: 2
#     Edge 25, Type (0, 0), BuildingBlock: MIFKUJ_clean_linker_0, # of connection points: 2
#     Edge 26, Type (0, 0), BuildingBlock: MIFKUJ_clean_linker_0, # of connection points: 2
#     Edge 27, Type (0, 0), BuildingBlock: MIFKUJ_clean_linker_0, # of connection points: 2
#     Edge 28, Type (0, 0), BuildingBlock: MIFKUJ_clean_linker_0, # of connection points: 2
#     Edge 29, Type (0, 0), BuildingBlock: MIFKUJ_clean_linker_0, # of connection points: 2
#     Edge 30, Type (0, 0), BuildingBlock: MIFKUJ_clean_linker_0, # of connection points: 2
#     Edge 31, Type (0, 0), BuildingBlock: MIFKUJ_clean_linker_0, # of connection points: 2
#     Edge 32, Type (0, 0), BuildingBlock: MIFKUJ_clean_linker_0, # of connection points: 2
#     Edge 33, Type (0, 0), BuildingBlock: MIFKUJ_clean_linker_0, # of connection points: 2
#     Edge 34, Type (0, 0), BuildingBlock: MIFKUJ_clean_linker_0, # of connection points: 2
#     Edge 35, Type (0, 0), BuildingBlock: MIFKUJ_clean_linker_0, # of connection points: 2
#     Edge 36, Type (0, 0), BuildingBlock: MIFKUJ_clean_linker_0, # of connection points: 2
#     Edge 37, Type (0, 0), BuildingBlock: MIFKUJ_clean_linker_0, # of connection points: 2
#     Edge 38, Type (0, 0), BuildingBlock: MIFKUJ_clean_linker_0, # of connection points: 2
#     Edge 39, Type (0, 0), BuildingBlock: MIFKUJ_clean_linker_0, # of connection points: 2
#     Edge 40, Type (0, 0), BuildingBlock: MIFKUJ_clean_linker_0, # of connection points: 2
#     Edge 41, Type (0, 0), BuildingBlock: MIFKUJ_clean_linker_0, # of connection points: 2
# Relax obj value: 0.837
# Max RMSD: 0.229
# Mean RMSD: 0.229
data_MOF--net-acs-i--node1-XOMCOT_clean_sbu_0--edge1-MIFKUJ_clean_linker_0
_symmetry_space_group_name_H-M    P1
_symmetry_Int_Tables_number       1
_symmetry_cell_setting            triclinic
loop_
_symmetry_equiv_pos_as_xyz
'x, y, z'
_cell_length_a     65.396257
_cell_length_b     65.42137
_cell_length_c     44.903904
_cell_angle_alpha  89.996306
_cell_angle_beta   90.021704
_cell_angle_gamma 119.99584
loop_
_atom_site_label
_atom_site_type_symbol
_atom_site_fract_x
_atom_site_fract_y
_atom_site_fract_z
_atom_type_partial_charge
Co0 Co 0.29456 0.50151 0.05712 0.0
C1 C 0.33219 0.50946 0.10068 0.0
C2 C 0.33379 0.54167 0.08654 0.0
C3 C 0.3521 0.54726 0.10579 0.0
N4 N 0.32151 0.51806 0.08302 0.0
N5 N 0.35115 0.5271 0.11445 0.0
H6 H 0.32635 0.49089 0.10326 0.0
H7 H 0.32959 0.55401 0.07614 0.0
C8 C 0.31235 0.53178 0.00253 0.0
O9 O 0.30507 0.51263 0.98635 0.0
N10 N 0.26704 0.48601 0.03132 0.0
C11 C 0.24957 0.46323 0.02954 0.0
C12 C 0.23175 0.4619 0.01144 0.0
C13 C 0.25899 0.49803 0.01552 0.0
N14 N 0.2381 0.48391 0.00237 0.0
C15 C 0.30215 0.46473 0.03461 0.0
C16 C 0.34873 0.49431 0.01858 0.0
C17 C 0.33966 0.46988 0.01811 0.0
C18 C 0.31587 0.45499 0.02547 0.0
C19 C 0.33449 0.50328 0.02794 0.0
N20 N 0.31146 0.48859 0.03587 0.0
H21 H 0.28463 0.45304 0.04277 0.0
H22 H 0.34257 0.52215 0.03057 0.0
H23 H 0.24883 0.44874 0.04195 0.0
H24 H 0.26735 0.51705 0.01538 0.0
O25 O 0.27958 0.47724 0.08668 0.0
O26 O 0.27656 0.50954 0.08405 0.0
O27 O 0.3085 0.53021 0.03058 0.0
C28 C 0.27177 0.49025 0.09826 0.0
H29 H 0.36472 0.56475 0.11371 0.0
H30 H 0.21516 0.4462 0.00628 0.0
H31 H 0.36703 0.50646 0.0131 0.0
H32 H 0.30833 0.43601 0.02615 0.0
Co33 Co 0.80498 0.31448 0.56663 0.0
C34 C 0.82993 0.35274 0.61152 0.0
C35 C 0.83414 0.36645 0.56725 0.0
C36 C 0.84428 0.38511 0.58678 0.0
N37 N 0.82495 0.34604 0.5827 0.0
N38 N 0.84147 0.37645 0.61462 0.0
H39 H 0.82411 0.34068 0.63013 0.0
H40 H 0.83268 0.36793 0.5435 0.0
C41 C 0.79104 0.3234 0.50561 0.0
O42 O 0.79278 0.30618 0.49316 0.0
N43 N 0.7847 0.28323 0.55064 0.0
C44 C 0.78714 0.26391 0.55169 0.0
C45 C 0.76665 0.24476 0.5412 0.0
C46 C 0.76274 0.27547 0.54018 0.0
N47 N 0.75164 0.25233 0.53365 0.0
C48 C 0.84324 0.30574 0.55898 0.0
C49 C 0.86371 0.33423 0.51001 0.0
C50 C 0.87509 0.32318 0.52322 0.0
C51 C 0.86437 0.30856 0.54785 0.0
C52 C 0.84269 0.33117 0.52209 0.0
N53 N 0.83246 0.31685 0.54619 0.0
H54 H 0.83606 0.29513 0.57868 0.0
H55 H 0.83553 0.34128 0.5125 0.0
H56 H 0.80211 0.2633 0.56066 0.0
H57 H 0.7546 0.28634 0.53856 0.0
O58 O 0.80703 0.30034 0.60345 0.0
O59 O 0.77971 0.30985 0.59328 0.0
O60 O 0.79615 0.32885 0.53296 0.0
C61 C 0.78823 0.30075 0.61187 0.0
H62 H 0.85235 0.40359 0.58096 0.0
H63 H 0.76284 0.22667 0.53986 0.0
H64 H 0.87127 0.34573 0.49093 0.0
H65 H 0.87274 0.30016 0.55944 0.0
Co66 Co 0.50887 0.81535 0.04017 0.0
C67 C 0.49451 0.83121 0.09434 0.0
C68 C 0.51637 0.8604 0.06602 0.0
C69 C 0.50949 0.8687 0.09002 0.0
N70 N 0.50735 0.83686 0.06901 0.0
N71 N 0.49563 0.85021 0.10755 0.0
H72 H 0.48392 0.81354 0.1029 0.0
H73 H 0.52655 0.87081 0.04719 0.0
C74 C 0.48216 0.81883 0.98624 0.0
O75 O 0.48915 0.80769 0.96832 0.0
N76 N 0.50991 0.79374 0.01172 0.0
C77 C 0.52895 0.79332 0.00094 0.0
C78 C 0.52131 0.77308 0.9842 0.0
C79 C 0.49113 0.77359 0.00216 0.0
N80 N 0.49751 0.76089 0.98485 0.0
C81 C 0.5569 0.85101 0.0462 0.0
C82 C 0.56352 0.86833 0.98877 0.0
C83 C 0.5814 0.88046 0.00991 0.0
C84 C 0.57814 0.8711 0.03875 0.0
C85 C 0.54238 0.84852 0.99731 0.0
N86 N 0.53898 0.84065 0.026 0.0
H87 H 0.55424 0.84459 0.06884 0.0
H88 H 0.52883 0.83982 0.98087 0.0
H89 H 0.54711 0.80632 0.00571 0.0
H90 H 0.47311 0.76808 0.00835 0.0
O91 O 0.52028 0.80243 0.07028 0.0
O92 O 0.48256 0.78903 0.05969 0.0
O93 O 0.49005 0.82417 0.01283 0.0
C94 C 0.4982 0.78744 0.07595 0.0
H95 H 0.51339 0.88667 0.09357 0.0
H96 H 0.53238 0.76755 0.97295 0.0
H97 H 0.56551 0.87445 0.96598 0.0
H98 H 0.59125 0.87989 0.05599 0.0
Co99 Co 0.68689 0.50736 0.56307 0.0
C100 C 0.6531 0.49118 0.61329 0.0
C101 C 0.64738 0.51439 0.58555 0.0
C102 C 0.63136 0.50694 0.60858 0.0
N103 N 0.66137 0.50475 0.58861 0.0
N104 N 0.63505 0.49238 0.62608 0.0
H105 H 0.65965 0.48 0.62143 0.0
H106 H 0.64779 0.52539 0.56742 0.0
C107 C 0.64299 0.47392 0.52902 0.0
O108 O 0.63519 0.4889 0.5294 0.0
N109 N 0.7116 0.50911 0.53812 0.0
C110 C 0.7326 0.52814 0.53148 0.0
C111 C 0.74542 0.52078 0.51467 0.0
C112 C 0.71179 0.49063 0.52533 0.0
N113 N 0.73214 0.49723 0.51074 0.0
C114 C 0.69029 0.55145 0.54928 0.0
C115 C 0.67603 0.54135 0.49055 0.0
C116 C 0.67796 0.56171 0.50367 0.0
C117 C 0.68642 0.56731 0.53296 0.0
C118 C 0.68018 0.526 0.50775 0.0
N119 N 0.68507 0.5302 0.5374 0.0
H120 H 0.6955 0.55532 0.57235 0.0
H121 H 0.67844 0.51024 0.49758 0.0
H122 H 0.73836 0.54592 0.53896 0.0
H123 H 0.69778 0.47251 0.52789 0.0
O124 O 0.71003 0.52889 0.59125 0.0
O125 O 0.69401 0.48996 0.59178 0.0
O126 O 0.66314 0.47938 0.53975 0.0
C127 C 0.70822 0.5102 0.60406 0.0
H128 H 0.61801 0.51186 0.61203 0.0
H129 H 0.76323 0.53176 0.50648 0.0
H130 H 0.67049 0.53687 0.4676 0.0
H131 H 0.68838 0.5829 0.54402 0.0
Co132 Co 0.20441 0.68139 0.06853 0.0
C133 C 0.18002 0.64818 0.11787 0.0
C134 C 0.19656 0.63511 0.08806 0.0
C135 C 0.18678 0.61953 0.11129 0.0
N136 N 0.19227 0.65304 0.09217 0.0
N137 N 0.17645 0.62779 0.12995 0.0
H138 H 0.1745 0.65964 0.12804 0.0
H139 H 0.20696 0.63385 0.07023 0.0
C140 C 0.20605 0.66347 0.00726 0.0
O141 O 0.19659 0.67529 0.99576 0.0
N142 N 0.21744 0.71 0.04496 0.0
C143 C 0.21402 0.72863 0.04774 0.0
C144 C 0.23145 0.74748 0.03225 0.0
C145 C 0.23708 0.71799 0.02821 0.0
N146 N 0.24588 0.74067 0.02 0.0
C147 C 0.16117 0.68249 0.06373 0.0
C148 C 0.13596 0.63988 0.03438 0.0
C149 C 0.12435 0.65218 0.0424 0.0
C150 C 0.13731 0.67375 0.05742 0.0
C151 C 0.15964 0.649 0.04172 0.0
N152 N 0.17235 0.67061 0.05497 0.0
H153 H 0.17016 0.69809 0.07725 0.0
H154 H 0.16738 0.63807 0.03767 0.0
H155 H 0.20143 0.7296 0.06227 0.0
H156 H 0.24616 0.70817 0.02471 0.0
O157 O 0.20471 0.69867 0.10341 0.0
O158 O 0.23431 0.69364 0.08894 0.0
O159 O 0.21058 0.66478 0.03509 0.0
C160 C 0.22562 0.70175 0.10872 0.0
H161 H 0.18836 0.60406 0.11516 0.0
H162 H 0.23429 0.76526 0.03187 0.0
H163 H 0.12682 0.62304 0.02303 0.0
H164 H 0.12894 0.68338 0.06544 0.0
Co165 Co 0.47825 0.17664 0.57959 0.0
C166 C 0.49634 0.15569 0.62369 0.0
C167 C 0.474 0.12949 0.59215 0.0
C168 C 0.48285 0.11948 0.61147 0.0
N169 N 0.48236 0.15233 0.59979 0.0
N170 N 0.49681 0.136 0.63131 0.0
H171 H 0.50675 0.17239 0.63488 0.0
H172 H 0.46282 0.12054 0.57333 0.0
C173 C 0.50837 0.168 0.53607 0.0
O174 O 0.49236 0.14569 0.53283 0.0
N175 N 0.47484 0.20089 0.55987 0.0
C176 C 0.45547 0.20315 0.55912 0.0
C177 C 0.46122 0.22413 0.54517 0.0
C178 C 0.49199 0.22022 0.54627 0.0
N179 N 0.48411 0.23464 0.53702 0.0
C180 C 0.43341 0.13637 0.56842 0.0
C181 C 0.43625 0.1379 0.50696 0.0
C182 C 0.41693 0.11863 0.5207 0.0
C183 C 0.4153 0.1185 0.55189 0.0
C184 C 0.45413 0.15532 0.52447 0.0
N185 N 0.45321 0.15347 0.55476 0.0
H186 H 0.43227 0.13569 0.59245 0.0
H187 H 0.46901 0.17 0.51372 0.0
H188 H 0.43859 0.19078 0.56881 0.0
H189 H 0.51014 0.22426 0.5445 0.0
O190 O 0.45927 0.17706 0.61238 0.0
O191 O 0.49822 0.1995 0.60862 0.0
O192 O 0.50415 0.18194 0.55129 0.0
C193 C 0.47909 0.19325 0.62389 0.0
H194 H 0.47937 0.10147 0.61086 0.0
H195 H 0.44969 0.23136 0.54182 0.0
H196 H 0.43784 0.13924 0.48295 0.0
H197 H 0.40086 0.10409 0.56368 0.0
Co198 Co 0.48425 0.69226 0.41711 0.0
C199 C 0.46932 0.64943 0.38027 0.0
C200 C 0.44094 0.64754 0.40642 0.0
C201 C 0.43222 0.62758 0.38923 0.0
N202 N 0.46417 0.66117 0.40087 0.0
N203 N 0.45002 0.62872 0.37273 0.0
H204 H 0.48666 0.65623 0.37054 0.0
H205 H 0.43077 0.65217 0.42109 0.0
C206 C 0.46929 0.68306 0.4813 0.0
O207 O 0.49142 0.69261 0.48982 0.0
N208 N 0.50343 0.72383 0.43348 0.0
C209 C 0.52409 0.74181 0.42332 0.0
C210 C 0.52821 0.76253 0.43661 0.0
C211 C 0.49505 0.73421 0.45193 0.0
N212 N 0.50986 0.75763 0.45462 0.0
C213 C 0.52804 0.69311 0.42513 0.0
C214 C 0.5101 0.65137 0.45668 0.0
C215 C 0.53411 0.66357 0.44914 0.0
C216 C 0.54302 0.68472 0.43328 0.0
C217 C 0.49571 0.66056 0.44827 0.0
N218 N 0.50485 0.68151 0.43324 0.0
H219 H 0.53493 0.70825 0.41085 0.0
H220 H 0.47705 0.65044 0.45313 0.0
H221 H 0.53438 0.74078 0.40522 0.0
H222 H 0.47724 0.72535 0.46059 0.0
O223 O 0.49918 0.70292 0.37902 0.0
O224 O 0.46717 0.70372 0.39364 0.0
O225 O 0.46398 0.68221 0.4538 0.0
C226 C 0.48266 0.70777 0.37283 0.0
H227 H 0.41386 0.61393 0.38785 0.0
H228 H 0.54266 0.78002 0.43162 0.0
H229 H 0.50242 0.63474 0.46853 0.0
H230 H 0.56123 0.69417 0.42589 0.0
Co231 Co 0.79819 0.49944 0.945 0.0
C232 C 0.82376 0.48664 0.90049 0.0
C233 C 0.80039 0.45724 0.9279 0.0
C234 C 0.81095 0.44968 0.90784 0.0
N235 N 0.80855 0.48047 0.92359 0.0
N236 N 0.82554 0.46808 0.89057 0.0
H237 H 0.83288 0.50408 0.89071 0.0
H238 H 0.78704 0.4461 0.94378 0.0
C239 C 0.78747 0.47331 0.00397 0.0
O240 O 0.80156 0.49258 0.01889 0.0
N241 N 0.78656 0.51748 0.96645 0.0
C242 C 0.789 0.53874 0.95963 0.0
C243 C 0.77279 0.54188 0.97587 0.0
C244 C 0.76871 0.50808 0.98627 0.0
N245 N 0.76044 0.52263 0.99294 0.0
C246 C 0.8415 0.53961 0.96318 0.0
C247 C 0.86137 0.51482 0.98766 0.0
C248 C 0.87517 0.53947 0.98546 0.0
C249 C 0.86479 0.55187 0.97324 0.0
C250 C 0.83836 0.50324 0.97668 0.0
N251 N 0.8285 0.51564 0.96509 0.0
H252 H 0.83438 0.54939 0.95236 0.0
H253 H 0.82864 0.48419 0.97696 0.0
H254 H 0.80018 0.55032 0.94219 0.0
H255 H 0.75965 0.48982 0.99303 0.0
O256 O 0.80604 0.51997 0.91109 0.0
O257 O 0.77128 0.48778 0.91864 0.0
O258 O 0.78421 0.47393 0.97603 0.0
C259 C 0.78485 0.50554 0.90147 0.0
H260 H 0.80714 0.43167 0.90505 0.0
H261 H 0.76921 0.55627 0.97371 0.0
H262 H 0.86839 0.50437 0.99713 0.0
H263 H 0.87483 0.57079 0.97006 0.0
Co264 Co 0.31641 0.81295 0.43278 0.0
C265 C 0.34711 0.82639 0.37868 0.0
C266 C 0.35568 0.85588 0.40715 0.0
C267 C 0.37202 0.86328 0.38458 0.0
N268 N 0.33984 0.83276 0.4034 0.0
N269 N 0.36666 0.84469 0.36677 0.0
H270 H 0.33927 0.80856 0.37041 0.0
H271 H 0.35605 0.86649 0.42582 0.0
C272 C 0.3463 0.82102 0.48879 0.0
O273 O 0.32812 0.80971 0.50658 0.0
N274 N 0.29349 0.79328 0.46228 0.0
C275 C 0.27409 0.79378 0.47137 0.0
C276 C 0.26103 0.7746 0.48961 0.0
C277 C 0.29172 0.77367 0.4745 0.0
N278 N 0.27234 0.76217 0.49167 0.0
C279 C 0.3036 0.84726 0.41945 0.0
C280 C 0.31536 0.87044 0.47361 0.0
C281 C 0.30924 0.88013 0.4497 0.0
C282 C 0.30253 0.86785 0.42269 0.0
C283 C 0.31623 0.84972 0.46939 0.0
N284 N 0.31128 0.83897 0.4422 0.0
H285 H 0.2996 0.8387 0.39797 0.0
H286 H 0.32146 0.84282 0.48776 0.0
H287 H 0.26918 0.80655 0.46429 0.0
H288 H 0.304 0.7675 0.47007 0.0
O289 O 0.29237 0.79797 0.40275 0.0
O290 O 0.3167 0.78546 0.417 0.0
O291 O 0.34367 0.82404 0.46127 0.0
C292 C 0.29937 0.78266 0.3999 0.0
H293 H 0.38698 0.88088 0.38193 0.0
H294 H 0.24422 0.76979 0.49981 0.0
H295 H 0.32066 0.87944 0.49486 0.0
H296 H 0.29744 0.87462 0.4038 0.0
Co297 Co 0.51635 0.31629 0.95485 0.0
C298 C 0.52864 0.35344 0.90867 0.0
C299 C 0.55902 0.35701 0.93183 0.0
C300 C 0.56651 0.3747 0.91113 0.0
N301 N 0.5353 0.34382 0.93056 0.0
N302 N 0.54748 0.3725 0.89656 0.0
H303 H 0.51054 0.34652 0.90157 0.0
H304 H 0.57029 0.35371 0.94625 0.0
C305 C 0.54064 0.33341 0.01351 0.0
O306 O 0.52001 0.32603 0.02619 0.0
N307 N 0.49855 0.28815 0.9791 0.0
C308 C 0.47624 0.27016 0.97511 0.0
C309 C 0.47375 0.25026 0.98906 0.0
C310 C 0.50923 0.27857 0.9949 0.0
N311 N 0.49464 0.25561 0.00133 0.0
C312 C 0.47697 0.32191 0.97073 0.0
C313 C 0.50328 0.36817 0.98976 0.0
C314 C 0.47865 0.35758 0.98849 0.0
C315 C 0.46546 0.33407 0.97915 0.0
C316 C 0.51408 0.35532 0.98122 0.0
N317 N 0.50094 0.33232 0.97225 0.0
H318 H 0.46657 0.30464 0.96131 0.0
H319 H 0.53313 0.36421 0.98087 0.0
H320 H 0.46346 0.27016 0.9599 0.0
H321 H 0.52816 0.2872 0.9979 0.0
O322 O 0.4951 0.30146 0.9222 0.0
O323 O 0.52714 0.29885 0.93095 0.0
O324 O 0.542 0.32977 0.98584 0.0
C325 C 0.50874 0.29328 0.91426 0.0
H326 H 0.58471 0.38753 0.90619 0.0
H327 H 0.45849 0.23272 0.98767 0.0
H328 H 0.51416 0.38639 0.9966 0.0
H329 H 0.44645 0.3255 0.97678 0.0
Co330 Co 0.19283 0.48796 0.44678 0.0
C331 C 0.17328 0.51164 0.41173 0.0
C332 C 0.14977 0.47416 0.41124 0.0
C333 C 0.14073 0.48462 0.39288 0.0
N334 N 0.17016 0.49121 0.42294 0.0
N335 N 0.15563 0.50821 0.39311 0.0
H336 H 0.18871 0.52856 0.41637 0.0
H337 H 0.14255 0.45544 0.41471 0.0
C338 C 0.20501 0.52319 0.49675 0.0
O339 O 0.20823 0.50972 0.5156 0.0
N340 N 0.21636 0.48565 0.47038 0.0
C341 C 0.21459 0.46942 0.49036 0.0
C342 C 0.23594 0.47823 0.50508 0.0
C343 C 0.23867 0.50362 0.47278 0.0
N344 N 0.25088 0.49993 0.49422 0.0
C345 C 0.15866 0.44266 0.46867 0.0
C346 C 0.13169 0.45784 0.49832 0.0
C347 C 0.12178 0.43375 0.49199 0.0
C348 C 0.136 0.42608 0.47827 0.0
C349 C 0.15413 0.47384 0.4878 0.0
N350 N 0.16715 0.46628 0.47243 0.0
H351 H 0.16864 0.43656 0.45609 0.0
H352 H 0.15972 0.49229 0.48968 0.0
H353 H 0.19878 0.45303 0.49543 0.0
H354 H 0.24527 0.51981 0.46023 0.0
O355 O 0.19273 0.46576 0.41807 0.0
O356 O 0.21615 0.50455 0.41645 0.0
O357 O 0.1983 0.51653 0.47004 0.0
C358 C 0.20909 0.48412 0.40414 0.0
H359 H 0.12515 0.4754 0.37908 0.0
H360 H 0.23959 0.46998 0.52363 0.0
H361 H 0.12149 0.46455 0.50929 0.0
H362 H 0.12909 0.40767 0.47271 0.0
Co363 Co 0.6856 0.18198 0.94074 0.0
C364 C 0.65429 0.16033 0.88796 0.0
C365 C 0.64376 0.13685 0.9253 0.0
C366 C 0.62738 0.12616 0.90296 0.0
N367 N 0.66075 0.15825 0.91587 0.0
N368 N 0.63397 0.14103 0.87955 0.0
H369 H 0.66377 0.17581 0.87421 0.0
H370 H 0.64275 0.12987 0.94743 0.0
C371 C 0.65865 0.18435 0.99544 0.0
O372 O 0.67772 0.1963 0.01165 0.0
N373 N 0.71016 0.20565 0.96548 0.0
C374 C 0.73022 0.2066 0.9749 0.0
C375 C 0.74386 0.22779 0.98944 0.0
C376 C 0.71218 0.22641 0.97349 0.0
N377 N 0.73221 0.23991 0.98878 0.0
C378 C 0.69619 0.14501 0.94016 0.0
C379 C 0.68891 0.13353 0.99993 0.0
C380 C 0.69438 0.12 0.98082 0.0
C381 C 0.69847 0.12622 0.95068 0.0
C382 C 0.68689 0.15229 0.98847 0.0
N383 N 0.68994 0.15744 0.95879 0.0
H384 H 0.69857 0.14906 0.91666 0.0
H385 H 0.68277 0.1624 0.00356 0.0
H386 H 0.73486 0.19312 0.97095 0.0
H387 H 0.69921 0.23154 0.96819 0.0
O388 O 0.70844 0.19089 0.90911 0.0
O389 O 0.68592 0.20683 0.91687 0.0
O390 O 0.65964 0.17709 0.96933 0.0
C391 C 0.70235 0.20621 0.90113 0.0
H392 H 0.61126 0.1093 0.9045 0.0
H393 H 0.76093 0.23382 0.99967 0.0
H394 H 0.68585 0.12941 0.02344 0.0
H395 H 0.70232 0.116 0.93502 0.0
H396 H 0.49226 0.40226 0.96971 0.0
H397 H 0.47098 0.42388 0.97584 0.0
H398 H 0.41648 0.36537 0.02513 0.0
H399 H 0.43796 0.34387 0.0197 0.0
H400 H 0.42748 0.41174 0.95548 0.0
H401 H 0.39404 0.3871 0.07691 0.0
H402 H 0.40687 0.3782 0.12445 0.0
H403 H 0.47932 0.41904 0.09712 0.0
H404 H 0.46695 0.42845 0.04962 0.0
H405 H 0.33124 0.43099 0.98546 0.0
H406 H 0.35701 0.41395 0.98052 0.0
H407 H 0.40962 0.46986 0.03501 0.0
H408 H 0.38384 0.48656 0.0407 0.0
H409 H 0.40224 0.42764 0.05278 0.0
H410 H 0.41748 0.47023 0.96101 0.0
H411 H 0.40714 0.48186 0.91361 0.0
H412 H 0.3761 0.41058 0.88183 0.0
H413 H 0.38596 0.39845 0.92924 0.0
C414 C 0.47599 0.39421 0.98239 0.0
C415 C 0.46679 0.37141 0.99433 0.0
C416 C 0.46376 0.40647 0.9856 0.0
C417 C 0.44222 0.39623 0.00098 0.0
C418 C 0.43319 0.37366 0.0134 0.0
C419 C 0.44539 0.36136 0.01014 0.0
C420 C 0.42876 0.40881 0.00316 0.0
C421 C 0.42198 0.41527 0.97674 0.0
C422 C 0.42188 0.41362 0.03093 0.0
C423 C 0.42953 0.40827 0.05958 0.0
C424 C 0.41271 0.39425 0.0811 0.0
C425 C 0.41991 0.3891 0.10803 0.0
C426 C 0.44389 0.39798 0.11376 0.0
C427 C 0.46074 0.41209 0.09261 0.0
C428 C 0.45364 0.41731 0.06566 0.0
C429 C 0.34832 0.43964 0.99631 0.0
C430 C 0.35559 0.4602 0.01326 0.0
C431 C 0.36306 0.42999 0.99334 0.0
C432 C 0.38526 0.44076 0.00726 0.0
C433 C 0.39257 0.46132 0.02405 0.0
C434 C 0.37791 0.47097 0.027 0.0
C435 C 0.40069 0.43031 0.00509 0.0
C436 C 0.40776 0.42415 0.03151 0.0
C437 C 0.40817 0.42614 0.97735 0.0
C438 C 0.40226 0.43339 0.94879 0.0
C439 C 0.40828 0.45699 0.94401 0.0
C440 C 0.40253 0.46369 0.91712 0.0
C441 C 0.39092 0.44696 0.89475 0.0
C442 C 0.38507 0.42351 0.8992 0.0
C443 C 0.39075 0.41672 0.92606 0.0
H444 H 0.38649 0.45217 0.87395 0.0
H445 H 0.44942 0.39397 0.13462 0.0
H446 H 0.91132 0.3655 0.50384 0.0
H447 H 0.95165 0.37555 0.49272 0.0
H448 H 0.93429 0.30395 0.51102 0.0
H449 H 0.89334 0.29332 0.52112 0.0
H450 H 0.97392 0.33854 0.54262 0.0
H451 H 0.94709 0.32121 0.44259 0.0
H452 H 0.92609 0.32199 0.39738 0.0
H453 H 0.97063 0.39722 0.39191 0.0
H454 H 0.99168 0.39696 0.43734 0.0
H455 H 0.09815 0.38696 0.50923 0.0
H456 H 0.05525 0.36013 0.51 0.0
H457 H 0.04451 0.41738 0.48304 0.0
H458 H 0.08682 0.44372 0.48082 0.0
H459 H 0.01773 0.37926 0.45102 0.0
H460 H 0.03737 0.39745 0.55607 0.0
H461 H 0.05758 0.39819 0.6028 0.0
H462 H 0.02611 0.32278 0.59963 0.0
H463 H 0.00592 0.32165 0.55266 0.0
C464 C 0.91574 0.35162 0.50463 0.0
C465 C 0.89897 0.32856 0.51338 0.0
C466 C 0.9389 0.35746 0.49842 0.0
C467 C 0.94586 0.34045 0.50094 0.0
C468 C 0.92918 0.31729 0.50898 0.0
C469 C 0.90586 0.31133 0.51488 0.0
C470 C 0.97104 0.34769 0.49733 0.0
C471 C 0.98349 0.34689 0.52234 0.0
C472 C 0.98342 0.35878 0.47098 0.0
C473 C 0.97092 0.35905 0.44348 0.0
C474 C 0.95232 0.33794 0.43187 0.0
C475 C 0.94041 0.33829 0.40617 0.0
C476 C 0.94701 0.35964 0.3918 0.0
C477 C 0.96555 0.38069 0.40305 0.0
C478 C 0.9775 0.38045 0.42875 0.0
C479 C 0.08659 0.39377 0.50349 0.0
C480 C 0.09596 0.41759 0.49535 0.0
C481 C 0.06212 0.37846 0.50406 0.0
C482 C 0.0467 0.38679 0.49662 0.0
C483 C 0.05606 0.41054 0.48877 0.0
C484 C 0.08034 0.42572 0.48802 0.0
C485 C 0.02074 0.37117 0.49678 0.0
C486 C 0.00813 0.37032 0.47103 0.0
C487 C 0.00825 0.35878 0.52255 0.0
C488 C 0.02042 0.35949 0.55068 0.0
C489 C 0.03494 0.38105 0.56522 0.0
C490 C 0.04635 0.38154 0.59176 0.0
C491 C 0.0432 0.36055 0.60411 0.0
C492 C 0.02858 0.33903 0.58999 0.0
C493 C 0.01715 0.33845 0.56342 0.0
H494 H 0.05204 0.36096 0.62468 0.0
H495 H 0.93777 0.35988 0.37191 0.0
H496 H 0.72502 0.10401 0.96831 0.0
H497 H 0.71836 0.06417 0.97722 0.0
H498 H 0.65425 0.04648 0.02472 0.0
H499 H 0.66094 0.0861 0.01626 0.0
H500 H 0.67431 0.02341 0.04817 0.0
H501 H 0.65457 0.03892 0.94859 0.0
H502 H 0.66459 0.05981 0.90037 0.0
H503 H 0.71553 0.03801 0.88371 0.0
H504 H 0.706 0.01726 0.93207 0.0
H505 H 0.58189 0.91499 0.97535 0.0
H506 H 0.61324 0.95569 0.97077 0.0
H507 H 0.65866 0.94109 0.02548 0.0
H508 H 0.62737 0.89974 0.02955 0.0
H509 H 0.65916 0.98051 0.95221 0.0
H510 H 0.68497 0.98882 0.07478 0.0
H511 H 0.66964 0.96778 0.12244 0.0
H512 H 0.59853 0.94119 0.09186 0.0
H513 H 0.61346 0.96235 0.04427 0.0
C514 C 0.70981 0.09173 0.98123 0.0
C515 C 0.69332 0.09802 0.99126 0.0
C516 C 0.70607 0.06904 0.98637 0.0
C517 C 0.6856 0.05226 0.00118 0.0
C518 C 0.6702 0.05916 0.0133 0.0
C519 C 0.67403 0.08184 0.00842 0.0
C520 C 0.67813 0.02684 0.00048 0.0
C521 C 0.67153 0.01407 0.02725 0.0
C522 C 0.67428 0.0146 0.97316 0.0
C523 C 0.6798 0.02682 0.94402 0.0
C524 C 0.66799 0.03871 0.93468 0.0
C525 C 0.67358 0.05051 0.90735 0.0
C526 C 0.69074 0.05029 0.88903 0.0
C527 C 0.70229 0.03821 0.89796 0.0
C528 C 0.69682 0.02644 0.92533 0.0
C529 C 0.59876 0.92005 0.98556 0.0
C530 C 0.60197 0.90404 0.00305 0.0
C531 C 0.61671 0.94344 0.98296 0.0
C532 C 0.63816 0.95142 0.998 0.0
C533 C 0.64211 0.93526 0.0139 0.0
C534 C 0.62415 0.91171 0.01637 0.0
C535 C 0.65475 0.97712 0.99981 0.0
C536 C 0.66301 0.98992 0.97324 0.0
C537 C 0.65953 0.98934 0.02722 0.0
C538 C 0.65035 0.97687 0.05588 0.0
C539 C 0.66608 0.97851 0.0783 0.0
C540 C 0.65746 0.96658 0.10528 0.0
C541 C 0.63313 0.95307 0.11012 0.0
C542 C 0.61736 0.95158 0.08805 0.0
C543 C 0.6259 0.96352 0.06107 0.0
H544 H 0.62649 0.94382 0.131 0.0
H545 H 0.69504 0.05944 0.86787 0.0
H546 H 0.63731 0.54409 0.47151 0.0
H547 H 0.61668 0.56478 0.45677 0.0
H548 H 0.67487 0.63032 0.48876 0.0
H549 H 0.69587 0.60969 0.50337 0.0
H550 H 0.6339 0.6209 0.51401 0.0
H551 H 0.66105 0.62286 0.41511 0.0
H552 H 0.66879 0.60705 0.36933 0.0
H553 H 0.59442 0.55992 0.35776 0.0
H554 H 0.58623 0.57521 0.40373 0.0
H555 H 0.57918 0.68694 0.47051 0.0
H556 H 0.6063 0.67168 0.47619 0.0
H557 H 0.55143 0.60281 0.44795 0.0
H558 H 0.52432 0.61811 0.44162 0.0
H559 H 0.59338 0.6169 0.41896 0.0
H560 H 0.5667 0.61268 0.51971 0.0
H561 H 0.55879 0.62801 0.56582 0.0
H562 H 0.63251 0.67914 0.57388 0.0
H563 H 0.64082 0.66432 0.52756 0.0
C564 C 0.64617 0.56305 0.47442 0.0
C565 C 0.66819 0.57523 0.48881 0.0
C566 C 0.63428 0.57487 0.46604 0.0
C567 C 0.64422 0.59908 0.47172 0.0
C568 C 0.66686 0.61159 0.48432 0.0
C569 C 0.6788 0.59978 0.49268 0.0
C570 C 0.62977 0.61052 0.46785 0.0
C571 C 0.62546 0.62051 0.49304 0.0
C572 C 0.61822 0.60932 0.44073 0.0
C573 C 0.62304 0.60008 0.41302 0.0
C574 C 0.64635 0.60899 0.40295 0.0
C575 C 0.65081 0.60015 0.37693 0.0
C576 C 0.63211 0.58246 0.36068 0.0
C577 C 0.60889 0.57362 0.37038 0.0
C578 C 0.60433 0.58239 0.3964 0.0
C579 C 0.57288 0.66852 0.46565 0.0
C580 C 0.54965 0.6537 0.45565 0.0
C581 C 0.58834 0.65982 0.46901 0.0
C582 C 0.58083 0.63612 0.46253 0.0
C583 C 0.55754 0.62117 0.45301 0.0
C584 C 0.54202 0.62985 0.44973 0.0
C585 C 0.59744 0.62707 0.46516 0.0
C586 C 0.60207 0.61751 0.4398 0.0
C587 C 0.60929 0.62862 0.49213 0.0
C588 C 0.60434 0.63756 0.51999 0.0
C589 C 0.58119 0.62733 0.53117 0.0
C590 C 0.57664 0.6359 0.55737 0.0
C591 C 0.59512 0.65459 0.57272 0.0
C592 C 0.61821 0.6647 0.56194 0.0
C593 C 0.62285 0.65621 0.53573 0.0
H594 H 0.59157 0.66119 0.59301 0.0
H595 H 0.6356 0.57564 0.34054 0.0
H596 H 0.10034 0.67558 0.02891 0.0
H597 H 0.05789 0.65844 0.02062 0.0
H598 H 0.04782 0.58869 0.03294 0.0
H599 H 0.08976 0.60546 0.04323 0.0
H600 H 0.02749 0.60086 0.97651 0.0
H601 H 0.03155 0.60217 0.08555 0.0
H602 H 0.04656 0.62259 0.13354 0.0
H603 H 0.02088 0.66981 0.11251 0.0
H604 H 0.00604 0.64986 0.06414 0.0
H605 H 0.90657 0.5234 0.98027 0.0
H606 H 0.94844 0.54433 0.99146 0.0
H607 H 0.94441 0.60568 0.01761 0.0
H608 H 0.90186 0.58406 0.00908 0.0
H609 H 0.97307 0.60188 0.05276 0.0
H610 H 0.96588 0.60075 0.94744 0.0
H611 H 0.95181 0.58364 0.89759 0.0
H612 H 0.98452 0.54118 0.9076 0.0
H613 H -0.00149 0.55779 0.95771 0.0
C614 C 0.08911 0.65661 0.03033 0.0
C615 C 0.09864 0.64195 0.03663 0.0
C616 C 0.06491 0.6469 0.02536 0.0
C617 C 0.04994 0.62239 0.02614 0.0
C618 C 0.05927 0.60768 0.03209 0.0
C619 C 0.08332 0.61735 0.03767 0.0
C620 C 0.02446 0.61191 0.02057 0.0
C621 C 0.01547 0.60086 0.99316 0.0
C622 C 0.00917 0.61286 0.04199 0.0
C623 C 0.01798 0.62473 0.07109 0.0
C624 C 0.02934 0.61707 0.09102 0.0
C625 C 0.03776 0.62852 0.11832 0.0
C626 C 0.03476 0.64755 0.12603 0.0
C627 C 0.02325 0.65511 0.10648 0.0
C628 C 0.01482 0.64373 0.07913 0.0
C629 C 0.91431 0.54111 0.98913 0.0
C630 C 0.90064 0.55199 0.99364 0.0
C631 C 0.93847 0.55326 0.99498 0.0
C632 C 0.94974 0.57683 0.00454 0.0
C633 C 0.93615 0.58758 0.00991 0.0
C634 C 0.91182 0.57525 0.00469 0.0
C635 C 0.97572 0.59016 0.00873 0.0
C636 C 0.98494 0.60192 0.03585 0.0
C637 C 0.99133 0.59034 0.98668 0.0
C638 C 0.98309 0.5804 0.95645 0.0
C639 C 0.96995 0.58766 0.93909 0.0
C640 C 0.962 0.57806 0.91078 0.0
C641 C 0.96723 0.5613 0.89946 0.0
C642 C 0.98047 0.55415 0.91641 0.0
C643 C 0.98844 0.56367 0.94476 0.0
H644 H 0.96105 0.55388 0.87754 0.0
H645 H 0.04128 0.65638 0.14718 0.0
H646 H 0.33126 0.91547 0.40951 0.0
H647 H 0.34244 0.95683 0.41549 0.0
H648 H 0.30695 0.94102 0.50034 0.0
H649 H 0.29569 0.89929 0.49462 0.0
H650 H 0.30567 0.97914 0.45348 0.0
H651 H 0.35452 0.95737 0.51444 0.0
H652 H 0.37751 0.93712 0.52069 0.0
H653 H 0.42211 0.97648 0.44748 0.0
H654 H 0.39906 0.99665 0.44048 0.0
H655 H 0.36934 0.08924 0.53026 0.0
H656 H 0.34515 0.04952 0.51043 0.0
H657 H 0.40161 0.06069 0.45091 0.0
H658 H 0.42648 0.09966 0.47205 0.0
H659 H 0.39012 0.02407 0.48278 0.0
H660 H 0.34641 0.0506 0.42588 0.0
H661 H 0.32341 0.07037 0.41602 0.0
H662 H 0.26965 0.02329 0.47665 0.0
H663 H 0.29249 0.00343 0.48722 0.0
C664 C 0.32517 0.9206 0.42904 0.0
C665 C 0.31265 0.90421 0.45167 0.0
C666 C 0.33156 0.94421 0.43237 0.0
C667 C 0.32538 0.95179 0.45824 0.0
C668 C 0.31161 0.9353 0.48009 0.0
C669 C 0.30543 0.91163 0.47695 0.0
C670 C 0.33672 0.97726 0.46435 0.0
C671 C 0.32403 0.98909 0.46028 0.0
C672 C 0.36081 0.99006 0.4722 0.0
C673 C 0.37492 0.97829 0.47673 0.0
C674 C 0.36909 0.96153 0.49951 0.0
C675 C 0.38215 0.9501 0.50322 0.0
C676 C 0.40121 0.95545 0.48443 0.0
C677 C 0.40731 0.97231 0.46197 0.0
C678 C 0.39426 0.98375 0.45813 0.0
C679 C 0.37654 0.08336 0.5127 0.0
C680 C 0.40011 0.09749 0.50332 0.0
C681 C 0.36252 0.06073 0.50105 0.0
C682 C 0.37162 0.05203 0.47931 0.0
C683 C 0.39428 0.06698 0.46784 0.0
C684 C 0.40844 0.08943 0.4798 0.0
C685 C 0.35921 0.02652 0.47201 0.0
C686 C 0.37175 0.01447 0.4759 0.0
C687 C 0.33506 0.01372 0.46376 0.0
C688 C 0.32129 0.02566 0.45755 0.0
C689 C 0.32979 0.04459 0.43733 0.0
C690 C 0.31675 0.05578 0.43156 0.0
C691 C 0.29511 0.04813 0.44575 0.0
C692 C 0.28643 0.02922 0.46569 0.0
C693 C 0.2994 0.01797 0.47155 0.0
H694 H 0.28504 0.05681 0.44125 0.0
H695 H 0.4113 0.94659 0.48734 0.0
H696 H 0.19074 0.46731 0.00309 0.0
H697 H 0.17124 0.48845 0.98401 0.0
H698 H 0.23763 0.54167 0.94667 0.0
H699 H 0.25631 0.51995 0.96389 0.0
H700 H 0.17849 0.52624 0.00425 0.0
H701 H 0.23713 0.5776 0.89967 0.0
H702 H 0.24904 0.56757 0.85237 0.0
H703 H 0.191 0.49658 0.8585 0.0
H704 H 0.17844 0.50622 0.90562 0.0
H705 H 0.23255 0.64326 0.01891 0.0
H706 H 0.22575 0.60528 0.00082 0.0
H707 H 0.17239 0.60088 0.94052 0.0
H708 H 0.17894 0.63915 0.95888 0.0
H709 H 0.20473 0.58204 0.91912 0.0
H710 H 0.14858 0.57149 0.99073 0.0
H711 H 0.13248 0.57956 0.03595 0.0
H712 H 0.17642 0.56324 0.09038 0.0
H713 H 0.19344 0.55589 0.04546 0.0
C714 C 0.20075 0.48293 0.98959 0.0
C715 C 0.2251 0.49228 0.98538 0.0
C716 C 0.18968 0.49513 0.97884 0.0
C717 C 0.20284 0.51681 0.96381 0.0
C718 C 0.22671 0.52483 0.95745 0.0
C719 C 0.23757 0.51257 0.96778 0.0
C720 C 0.19369 0.53348 0.96017 0.0
C721 C 0.18369 0.53799 0.98523 0.0
C722 C 0.19939 0.54844 0.93492 0.0
C723 C 0.20679 0.54268 0.90629 0.0
C724 C 0.22671 0.55991 0.89083 0.0
C725 C 0.23365 0.55426 0.86406 0.0
C726 C 0.22079 0.53145 0.85244 0.0
C727 C 0.20097 0.51423 0.86755 0.0
C728 C 0.19395 0.51977 0.89433 0.0
C729 C 0.21977 0.63455 0.00126 0.0
C730 C 0.20609 0.64404 0.99056 0.0
C731 C 0.2159 0.61285 0.99097 0.0
C732 C 0.19832 0.60019 0.96974 0.0
C733 C 0.18599 0.61044 0.95699 0.0
C734 C 0.18984 0.63231 0.96741 0.0
C735 C 0.19164 0.57536 0.96398 0.0
C736 C 0.19866 0.56953 0.93738 0.0
C737 C 0.18233 0.55865 0.98729 0.0
C738 C 0.17235 0.56318 0.01461 0.0
C739 C 0.15503 0.56988 0.01231 0.0
C740 C 0.14572 0.57432 0.03791 0.0
C741 C 0.15336 0.57183 0.06601 0.0
C742 C 0.17047 0.5651 0.06858 0.0
C743 C 0.17999 0.56082 0.04304 0.0
H744 H 0.146 0.57512 0.0858 0.0
H745 H 0.2262 0.52712 0.83172 0.0
H746 H 0.52439 0.15112 0.49104 0.0
H747 H 0.56573 0.16377 0.47927 0.0
H748 H 0.58846 0.21502 0.55041 0.0
H749 H 0.54782 0.2037 0.56062 0.0
H750 H 0.61717 0.23384 0.51038 0.0
H751 H 0.58279 0.15681 0.5557 0.0
H752 H 0.55453 0.11416 0.5602 0.0
H753 H 0.5769 0.10201 0.47538 0.0
H754 H 0.60511 0.14467 0.47026 0.0
H755 H 0.71702 0.21279 0.55877 0.0
H756 H 0.67467 0.19498 0.54832 0.0
H757 H 0.69046 0.24327 0.4749 0.0
H758 H 0.73262 0.26184 0.48664 0.0
H759 H 0.64251 0.17393 0.50787 0.0
H760 H 0.65442 0.2654 0.47546 0.0
H761 H 0.68236 0.30766 0.48479 0.0
H762 H 0.70447 0.29015 0.56626 0.0
H763 H 0.67646 0.24792 0.55766 0.0
C764 C 0.53833 0.16535 0.50371 0.0
C765 C 0.53292 0.17647 0.52665 0.0
C766 C 0.56192 0.17245 0.49717 0.0
C767 C 0.58032 0.19015 0.51423 0.0
C768 C 0.57475 0.20149 0.53668 0.0
C769 C 0.55139 0.19494 0.54258 0.0
C770 C 0.6054 0.19659 0.50997 0.0
C771 C 0.6226 0.22066 0.50953 0.0
C772 C 0.61272 0.17953 0.50941 0.0
C773 C 0.59582 0.15392 0.51243 0.0
C774 C 0.58155 0.14505 0.53793 0.0
C775 C 0.56557 0.12088 0.5406 0.0
C776 C 0.56386 0.10539 0.51804 0.0
C777 C 0.5782 0.11404 0.4928 0.0
C778 C 0.59419 0.1382 0.49 0.0
C779 C 0.71132 0.21908 0.53999 0.0
C780 C 0.72775 0.2387 0.52363 0.0
C781 C 0.68721 0.20893 0.53395 0.0
C782 C 0.67936 0.21813 0.5112 0.0
C783 C 0.69607 0.23623 0.49298 0.0
C784 C 0.72006 0.24676 0.49954 0.0
C785 C 0.65403 0.21105 0.5092 0.0
C786 C 0.63692 0.187 0.50817 0.0
C787 C 0.6467 0.22807 0.5104 0.0
C788 C 0.66356 0.2535 0.51569 0.0
C789 C 0.66522 0.2706 0.49537 0.0
C790 C 0.68105 0.29454 0.50055 0.0
C791 C 0.69518 0.30156 0.52609 0.0
C792 C 0.69354 0.28469 0.54647 0.0
C793 C 0.67771 0.26076 0.54145 0.0
H794 H 0.70733 0.32009 0.53017 0.0
H795 H 0.55148 0.08669 0.52014 0.0
H796 H 0.50627 0.7249 0.97712 0.0
H797 H 0.47708 0.684 0.96492 0.0
H798 H 0.42389 0.70404 0.95389 0.0
H799 H 0.45308 0.74489 0.96526 0.0
H800 H 0.44111 0.6598 0.00066 0.0
H801 H 0.37893 0.6648 0.91117 0.0
H802 H 0.38247 0.68654 0.86482 0.0
H803 H 0.45262 0.69845 0.85157 0.0
H804 H 0.4494 0.6765 0.8976 0.0
H805 H 0.32576 0.5747 0.02704 0.0
H806 H 0.35877 0.61266 0.01169 0.0
H807 H 0.36981 0.57999 0.93467 0.0
H808 H 0.33654 0.54175 0.94978 0.0
H809 H 0.37823 0.62628 0.92374 0.0
H810 H 0.40035 0.58515 0.99349 0.0
H811 H 0.39832 0.56405 0.03992 0.0
H812 H 0.41108 0.62469 0.09125 0.0
H813 H 0.41253 0.64592 0.04525 0.0
C814 C 0.48855 0.72069 0.97111 0.0
C815 C 0.4818 0.73795 0.97262 0.0
C816 C 0.47189 0.69733 0.96422 0.0
C817 C 0.44831 0.69096 0.95847 0.0
C818 C 0.44201 0.70854 0.95786 0.0
C819 C 0.45862 0.73183 0.96478 0.0
C820 C 0.42957 0.66581 0.9583 0.0
C821 C 0.42756 0.65239 0.9836 0.0
C822 C 0.41198 0.65608 0.93592 0.0
C823 C 0.41395 0.66908 0.90798 0.0
C824 C 0.39506 0.67192 0.89829 0.0
C825 C 0.39702 0.68432 0.87208 0.0
C826 C 0.41777 0.69391 0.85529 0.0
C827 C 0.43658 0.69108 0.86465 0.0
C828 C 0.43471 0.67869 0.89082 0.0
C829 C 0.33488 0.57562 0.00651 0.0
C830 C 0.32881 0.55518 0.98987 0.0
C831 C 0.35374 0.59732 0.99779 0.0
C832 C 0.36698 0.59895 0.97243 0.0
C833 C 0.35984 0.579 0.95441 0.0
C834 C 0.34084 0.5572 0.96308 0.0
C835 C 0.38947 0.62094 0.96666 0.0
C836 C 0.39209 0.63364 0.9404 0.0
C837 C 0.40778 0.63009 0.98811 0.0
C838 C 0.40646 0.61711 0.01587 0.0
C839 C 0.40247 0.5939 0.01468 0.0
C840 C 0.40144 0.58192 0.04093 0.0
C841 C 0.40466 0.59309 0.06846 0.0
C842 C 0.40864 0.61611 0.06988 0.0
C843 C 0.40954 0.62811 0.04373 0.0
H844 H 0.40418 0.58398 0.08873 0.0
H845 H 0.41926 0.70351 0.83502 0.0
H846 H 0.70439 0.45793 0.47903 0.0
H847 H 0.71381 0.42742 0.46454 0.0
H848 H 0.78426 0.47004 0.4993 0.0
H849 H 0.77501 0.50072 0.51347 0.0
H850 H 0.7561 0.42776 0.43094 0.0
H851 H 0.78562 0.43083 0.55037 0.0
H852 H 0.78062 0.44424 0.59984 0.0
H853 H 0.71044 0.428 0.57614 0.0
H854 H 0.7149 0.41409 0.52681 0.0
H855 H 0.81727 0.36423 0.47556 0.0
H856 H 0.80446 0.39253 0.46221 0.0
H857 H 0.73325 0.34187 0.48787 0.0
H858 H 0.74596 0.31348 0.50097 0.0
H859 H 0.75892 0.38654 0.52235 0.0
H860 H 0.73684 0.35586 0.42308 0.0
H861 H 0.74324 0.34395 0.37345 0.0
H862 H 0.79868 0.41485 0.35636 0.0
H863 H 0.79285 0.42713 0.4061 0.0
C864 C 0.72206 0.46099 0.48284 0.0
C865 C 0.73895 0.48153 0.49754 0.0
C866 C 0.72746 0.4437 0.47434 0.0
C867 C 0.74969 0.44657 0.4809 0.0
C868 C 0.76706 0.46768 0.4939 0.0
C869 C 0.76178 0.48515 0.50197 0.0
C870 C 0.75344 0.42618 0.47877 0.0
C871 C 0.75674 0.41868 0.45082 0.0
C872 C 0.75399 0.41433 0.50479 0.0
C873 C 0.75071 0.42168 0.53482 0.0
C874 C 0.76908 0.43 0.55582 0.0
C875 C 0.76635 0.43769 0.58382 0.0
C876 C 0.74526 0.43706 0.59109 0.0
C877 C 0.7268 0.42856 0.57045 0.0
C878 C 0.72943 0.42078 0.54247 0.0
C879 C 0.7987 0.35882 0.47689 0.0
C880 C 0.78246 0.33673 0.48878 0.0
C881 C 0.79142 0.37496 0.46942 0.0
C882 C 0.76794 0.3692 0.47419 0.0
C883 C 0.7514 0.34648 0.48401 0.0
C884 C 0.75861 0.33029 0.49125 0.0
C885 C 0.76173 0.38801 0.47447 0.0
C886 C 0.75814 0.39541 0.50232 0.0
C887 C 0.761 0.39969 0.44836 0.0
C888 C 0.76456 0.39236 0.41846 0.0
C889 C 0.75057 0.36886 0.40888 0.0
C890 C 0.75405 0.36206 0.38069 0.0
C891 C 0.7714 0.37862 0.3618 0.0
C892 C 0.78526 0.40204 0.37103 0.0
C893 C 0.78186 0.40893 0.39921 0.0
H894 H 0.77406 0.37331 0.33998 0.0
H895 H 0.74322 0.44312 0.61273 0.0
H896 H 0.4674 0.84664 0.01287 0.0
H897 H 0.42802 0.84186 0.00944 0.0
H898 H 0.41029 0.79083 0.93909 0.0
H899 H 0.44982 0.79569 0.94209 0.0
H900 H 0.38602 0.81569 0.93367 0.0
H901 H 0.40057 0.77108 0.00561 0.0
H902 H 0.42107 0.76397 0.0469 0.0
H903 H 0.40614 0.80722 0.1046 0.0
H904 H 0.38597 0.81504 0.06338 0.0
H905 H 0.26631 0.72956 0.97568 0.0
H906 H 0.30797 0.75192 0.96078 0.0
H907 H 0.31947 0.80702 0.02276 0.0
H908 H 0.27783 0.7849 0.03736 0.0
H909 H 0.34719 0.78364 0.03105 0.0
H910 H 0.32628 0.82197 0.95535 0.0
H911 H 0.30358 0.82326 0.91227 0.0
H912 H 0.32757 0.78446 0.85985 0.0
H913 H 0.35016 0.78262 0.90276 0.0
C914 C 0.45541 0.83497 0.99598 0.0
C915 C 0.46151 0.82115 0.97819 0.0
C916 C 0.43292 0.8323 0.99403 0.0
C917 C 0.41613 0.81559 0.9745 0.0
C918 C 0.42301 0.80374 0.95438 0.0
C919 C 0.44561 0.80652 0.95618 0.0
C920 C 0.3908 0.80762 0.97874 0.0
C921 C 0.37747 0.80866 0.9549 0.0
C922 C 0.37969 0.79829 0.00645 0.0
C923 C 0.39203 0.79391 0.03129 0.0
C924 C 0.4019 0.77932 0.02699 0.0
C925 C 0.41343 0.77512 0.05039 0.0
C926 C 0.41491 0.78513 0.07833 0.0
C927 C 0.40499 0.79949 0.08291 0.0
C928 C 0.39353 0.80384 0.05952 0.0
C929 C 0.27766 0.74673 0.98548 0.0
C930 C 0.26895 0.75553 0.00763 0.0
C931 C 0.30133 0.75951 0.9769 0.0
C932 C 0.31668 0.78111 0.99064 0.0
C933 C 0.30779 0.79045 0.01176 0.0
C934 C 0.28403 0.77787 0.01998 0.0
C935 C 0.34242 0.79209 0.98617 0.0
C936 C 0.35581 0.79122 0.00999 0.0
C937 C 0.35328 0.80085 0.95824 0.0
C938 C 0.33976 0.80199 0.93237 0.0
C939 C 0.32655 0.81352 0.93472 0.0
C940 C 0.31374 0.81439 0.91031 0.0
C941 C 0.31409 0.80391 0.88336 0.0
C942 C 0.32731 0.79256 0.88074 0.0
C943 C 0.34014 0.79163 0.9051 0.0
H944 H 0.30416 0.8046 0.86448 0.0
H945 H 0.42363 0.78163 0.09646 0.0
H946 H 0.64009 0.43468 0.55245 0.0
H947 H 0.61322 0.39396 0.53874 0.0
H948 H 0.58511 0.41724 0.46765 0.0
H949 H 0.61101 0.45837 0.48321 0.0
H950 H 0.55119 0.38334 0.49021 0.0
H951 H 0.62134 0.39032 0.45553 0.0
H952 H 0.66349 0.40202 0.45459 0.0
H953 H 0.65285 0.35575 0.52806 0.0
H954 H 0.61073 0.34409 0.5299 0.0
H955 H 0.51663 0.24765 0.49348 0.0
H956 H 0.54263 0.28785 0.475 0.0
H957 H 0.51058 0.31406 0.53697 0.0
H958 H 0.48376 0.27388 0.55368 0.0
H959 H 0.57532 0.32272 0.49769 0.0
H960 H 0.5141 0.36352 0.52016 0.0
H961 H 0.47253 0.35238 0.51205 0.0
H962 H 0.46603 0.30297 0.4446 0.0
H963 H 0.50767 0.31404 0.45195 0.0
C964 C 0.62833 0.43112 0.5337 0.0
C965 C 0.62763 0.44957 0.51876 0.0
C966 C 0.61312 0.40779 0.5256 0.0
C967 C 0.59752 0.40235 0.5015 0.0
C968 C 0.59704 0.42089 0.4862 0.0
C969 C 0.61181 0.44435 0.49502 0.0
C970 C 0.58053 0.37721 0.49435 0.0
C971 C 0.55651 0.3701 0.49142 0.0
C972 C 0.58747 0.35985 0.49417 0.0
C973 C 0.61277 0.36633 0.49285 0.0
C974 C 0.62797 0.38268 0.47157 0.0
C975 C 0.65188 0.38933 0.4709 0.0
C976 C 0.66084 0.37963 0.49125 0.0
C977 C 0.64587 0.36322 0.51228 0.0
C978 C 0.62195 0.35654 0.5131 0.0
C979 C 0.51496 0.26209 0.50255 0.0
C980 C 0.49817 0.25783 0.52473 0.0
C981 C 0.5298 0.28501 0.4921 0.0
C982 C 0.52843 0.30413 0.50415 0.0
C983 C 0.51153 0.2997 0.52637 0.0
C984 C 0.49629 0.27675 0.53615 0.0
C985 C 0.54588 0.3289 0.4958 0.0
C986 C 0.57001 0.33592 0.49563 0.0
C987 C 0.53911 0.34614 0.49138 0.0
C988 C 0.51405 0.33958 0.4867 0.0
C989 C 0.50388 0.35041 0.50343 0.0
C990 C 0.48027 0.34407 0.49901 0.0
C991 C 0.46664 0.32696 0.47785 0.0
C992 C 0.4766 0.31618 0.46103 0.0
C993 C 0.5002 0.32246 0.46535 0.0
H994 H 0.44836 0.32206 0.47448 0.0
H995 H 0.67936 0.38482 0.49071 0.0
H996 H 0.38827 0.85577 0.46746 0.0
H997 H 0.42631 0.85754 0.47239 0.0
H998 H 0.39589 0.80042 0.53585 0.0
H999 H 0.35792 0.79901 0.53163 0.0
H1000 H 0.44386 0.82943 0.54513 0.0
H1001 H 0.39032 0.78816 0.46438 0.0
H1002 H 0.3655 0.78393 0.42084 0.0
H1003 H 0.42648 0.83602 0.37359 0.0
H1004 H 0.45157 0.84106 0.41721 0.0
H1005 H 0.48342 0.75044 0.50374 0.0
H1006 H 0.46564 0.7738 0.51942 0.0
H1007 H 0.50487 0.82526 0.45139 0.0
H1008 H 0.52221 0.80161 0.43514 0.0
H1009 H 0.45848 0.80701 0.44516 0.0
H1010 H 0.51296 0.84077 0.52543 0.0
H1011 H 0.53577 0.84093 0.56925 0.0
H1012 H 0.47145 0.79836 0.61748 0.0
H1013 H 0.44822 0.79764 0.57383 0.0
C1014 C 0.38995 0.84422 0.48335 0.0
C1015 C 0.3701 0.82692 0.49872 0.0
C1016 C 0.41168 0.84527 0.48616 0.0
C1017 C 0.41369 0.82868 0.50385 0.0
C1018 C 0.39465 0.8133 0.52196 0.0
C1019 C 0.37294 0.81248 0.51949 0.0
C1020 C 0.43351 0.82421 0.49901 0.0
C1021 C 0.44719 0.82459 0.52332 0.0
C1022 C 0.43789 0.81808 0.47041 0.0
C1023 C 0.42277 0.81525 0.44424 0.0
C1024 C 0.39839 0.79894 0.44486 0.0
C1025 C 0.38427 0.79639 0.42016 0.0
C1026 C 0.39439 0.80974 0.39451 0.0
C1027 C 0.41864 0.82576 0.39354 0.0
C1028 C 0.43281 0.82852 0.41826 0.0
C1029 C 0.48864 0.76701 0.4926 0.0
C1030 C 0.5039 0.77399 0.46794 0.0
C1031 C 0.47869 0.7805 0.50178 0.0
C1032 C 0.48395 0.80131 0.48659 0.0
C1033 C 0.50063 0.80928 0.46347 0.0
C1034 C 0.51061 0.79579 0.45428 0.0
C1035 C 0.46901 0.81216 0.49129 0.0
C1036 C 0.45588 0.81265 0.46687 0.0
C1037 C 0.46493 0.8186 0.51984 0.0
C1038 C 0.47883 0.81906 0.54625 0.0
C1039 C 0.50366 0.8313 0.5453 0.0
C1040 C 0.51667 0.83151 0.57013 0.0
C1041 C 0.50506 0.81964 0.59612 0.0
C1042 C 0.48042 0.80756 0.59734 0.0
C1043 C 0.46732 0.80728 0.57257 0.0
H1044 H 0.51517 0.81982 0.61531 0.0
H1045 H 0.38346 0.80753 0.37533 0.0
H1046 H 0.74916 0.50346 0.04727 0.0
H1047 H 0.70893 0.47564 0.06351 0.0
H1048 H 0.6815 0.49457 0.98756 0.0
H1049 H 0.72186 0.52239 0.97135 0.0
H1050 H 0.66303 0.46815 0.07375 0.0
H1051 H 0.6491 0.44289 0.94926 0.0
H1052 H 0.67234 0.44714 0.904 0.0
H1053 H 0.72976 0.45408 0.95779 0.0
H1054 H 0.70671 0.44936 0.00331 0.0
H1055 H 0.54627 0.37193 0.04332 0.0
H1056 H 0.58379 0.40813 0.05194 0.0
H1057 H 0.6213 0.3727 0.02395 0.0
H1058 H 0.58372 0.33703 0.01348 0.0
H1059 H 0.63515 0.40868 0.99268 0.0
H1060 H 0.62435 0.39602 0.09754 0.0
H1061 H 0.60351 0.38792 0.14563 0.0
H1062 H 0.59962 0.45125 0.13686 0.0
H1063 H 0.62016 0.45957 0.08851 0.0
C1064 C 0.73446 0.50259 0.03507 0.0
C1065 C 0.73845 0.51482 0.00803 0.0
C1066 C 0.7115 0.48671 0.04431 0.0
C1067 C 0.6923 0.48273 0.0264 0.0
C1068 C 0.69615 0.49734 0.00158 0.0
C1069 C 0.71917 0.51334 0.99242 0.0
C1070 C 0.66975 0.46022 0.02954 0.0
C1071 C 0.65669 0.45514 0.05602 0.0
C1072 C 0.66212 0.44293 0.00688 0.0
C1073 C 0.67629 0.44611 0.97967 0.0
C1074 C 0.66669 0.44534 0.95141 0.0
C1075 C 0.67981 0.44777 0.92573 0.0
C1076 C 0.7025 0.45089 0.92807 0.0
C1077 C 0.71219 0.45169 0.95606 0.0
C1078 C 0.69911 0.44915 0.9818 0.0
C1079 C 0.56256 0.37166 0.04016 0.0
C1080 C 0.56225 0.35179 0.02781 0.0
C1081 C 0.58404 0.3924 0.04508 0.0
C1082 C 0.60548 0.39329 0.03847 0.0
C1083 C 0.60503 0.37258 0.02892 0.0
C1084 C 0.5836 0.35213 0.0232 0.0
C1085 C 0.62794 0.41627 0.03698 0.0
C1086 C 0.64113 0.42154 0.01059 0.0
C1087 C 0.63595 0.43324 0.06018 0.0
C1088 C 0.62361 0.4283 0.08926 0.0
C1089 C 0.61888 0.40812 0.10575 0.0
C1090 C 0.60716 0.40351 0.13308 0.0
C1091 C 0.60019 0.41903 0.14425 0.0
C1092 C 0.605 0.43923 0.12816 0.0
C1093 C 0.61671 0.44392 0.1008 0.0
H1094 H 0.59112 0.41543 0.16542 0.0
H1095 H 0.7125 0.45246 0.90818 0.0
H1096 H 0.23953 0.55474 0.53384 0.0
H1097 H 0.25009 0.59591 0.54238 0.0
H1098 H 0.19057 0.58516 0.4889 0.0
H1099 H 0.18084 0.54461 0.47916 0.0
H1100 H 0.22673 0.62236 0.47101 0.0
H1101 H 0.19447 0.59255 0.56815 0.0
H1102 H 0.19047 0.57259 0.61615 0.0
H1103 H 0.26233 0.62314 0.63794 0.0
H1104 H 0.26693 0.64312 0.58977 0.0
H1105 H 0.22713 0.72678 0.49619 0.0
H1106 H 0.21421 0.68582 0.50945 0.0
H1107 H 0.28598 0.70513 0.5305 0.0
H1108 H 0.29901 0.74621 0.51731 0.0
H1109 H 0.24491 0.66493 0.56756 0.0
H1110 H 0.2776 0.6904 0.46691 0.0
H1111 H 0.28044 0.71309 0.42162 0.0
H1112 H 0.20542 0.67123 0.40933 0.0
H1113 H 0.20217 0.64838 0.45461 0.0
C1114 C 0.22851 0.56115 0.52444 0.0
C1115 C 0.20942 0.54664 0.50584 0.0
C1116 C 0.2345 0.58463 0.52936 0.0
C1117 C 0.22106 0.59368 0.51638 0.0
C1118 C 0.20132 0.5787 0.49897 0.0
C1119 C 0.19571 0.55552 0.49351 0.0
C1120 C 0.22839 0.61909 0.51876 0.0
C1121 C 0.23037 0.63141 0.49227 0.0
C1122 C 0.23379 0.63131 0.54633 0.0
C1123 C 0.2311 0.6192 0.57521 0.0
C1124 C 0.20949 0.59928 0.58304 0.0
C1125 C 0.20711 0.58797 0.6103 0.0
C1126 C 0.22614 0.59656 0.63006 0.0
C1127 C 0.24759 0.61651 0.62262 0.0
C1128 C 0.25011 0.62781 0.59533 0.0
C1129 C 0.24 0.72247 0.50469 0.0
C1130 C 0.2641 0.73951 0.50529 0.0
C1131 C 0.23261 0.69911 0.51231 0.0
C1132 C 0.2492 0.69257 0.52083 0.0
C1133 C 0.27295 0.70994 0.52415 0.0
C1134 C 0.28038 0.73327 0.51627 0.0
C1135 C 0.24261 0.66748 0.52008 0.0
C1136 C 0.24108 0.65551 0.54657 0.0
C1137 C 0.23751 0.65542 0.49263 0.0
C1138 C 0.23964 0.66775 0.4641 0.0
C1139 C 0.26174 0.68598 0.45442 0.0
C1140 C 0.26343 0.69889 0.4288 0.0
C1141 C 0.24313 0.69362 0.41261 0.0
C1142 C 0.22114 0.67526 0.42184 0.0
C1143 C 0.21937 0.66227 0.44741 0.0
H1144 H 0.24445 0.70377 0.39293 0.0
H1145 H 0.22426 0.58779 0.65115 0.0
H1146 H 0.61424 0.15249 0.97631 0.0
H1147 H 0.57792 0.15339 0.9861 0.0
H1148 H 0.61588 0.21216 0.04596 0.0
H1149 H 0.65199 0.21075 0.03718 0.0
H1150 H 0.57127 0.1854 0.06442 0.0
H1151 H 0.61058 0.22019 0.97052 0.0
H1152 H 0.62702 0.21869 0.92164 0.0
H1153 H 0.55894 0.16294 0.89384 0.0
H1154 H 0.54219 0.16391 0.94275 0.0
H1155 H 0.52871 0.26416 0.04131 0.0
H1156 H 0.54818 0.24096 0.04849 0.0
H1157 H 0.49795 0.18745 0.98926 0.0
H1158 H 0.47879 0.21094 0.98146 0.0
H1159 H 0.54177 0.2026 0.97136 0.0
H1160 H 0.50108 0.17487 0.06306 0.0
H1161 H 0.48569 0.17745 0.11217 0.0
H1162 H 0.55644 0.22101 0.14442 0.0
H1163 H 0.57227 0.21899 0.09537 0.0
C1164 C 0.61469 0.16522 0.99214 0.0
C1165 C 0.63602 0.1818 0.00565 0.0
C1166 C 0.59394 0.16573 0.99767 0.0
C1167 C 0.59432 0.18324 0.01616 0.0
C1168 C 0.61517 0.19855 0.03151 0.0
C1169 C 0.63584 0.19777 0.02641 0.0
C1170 C 0.57417 0.18768 0.01664 0.0
C1171 C 0.56477 0.18917 0.04413 0.0
C1172 C 0.56529 0.19204 0.99006 0.0
C1173 C 0.5752 0.19194 0.96037 0.0
C1174 C 0.59915 0.20757 0.954 0.0
C1175 C 0.60852 0.2068 0.92631 0.0
C1176 C 0.59405 0.19067 0.90468 0.0
C1177 C 0.57014 0.17538 0.91064 0.0
C1178 C 0.56069 0.17603 0.93833 0.0
C1179 C 0.5215 0.24718 0.03041 0.0
C1180 C 0.50237 0.23949 0.01067 0.0
C1181 C 0.53251 0.23382 0.03469 0.0
C1182 C 0.5245 0.2124 0.01946 0.0
C1183 C 0.50439 0.2039 0.00129 0.0
C1184 C 0.49334 0.21727 0.99702 0.0
C1185 C 0.53912 0.20087 0.01926 0.0
C1186 C 0.54767 0.19821 0.99171 0.0
C1187 C 0.54728 0.19564 0.0458 0.0
C1188 C 0.53786 0.19686 0.07543 0.0
C1189 C 0.51337 0.18514 0.08055 0.0
C1190 C 0.50456 0.18648 0.1084 0.0
C1191 C 0.52007 0.19941 0.13139 0.0
C1192 C 0.54444 0.21099 0.12659 0.0
C1193 C 0.55334 0.20972 0.09878 0.0
H1194 H 0.51322 0.20043 0.15293 0.0
H1195 H 0.60135 0.19005 0.88329 0.0
H1196 H 0.46903 0.65646 0.52837 0.0
H1197 H 0.4336 0.62492 0.55259 0.0
H1198 H 0.39051 0.64659 0.50442 0.0
H1199 H 0.42563 0.67782 0.48021 0.0
H1200 H 0.37181 0.62741 0.5609 0.0
H1201 H 0.40504 0.61011 0.4713 0.0
H1202 H 0.43776 0.60856 0.44601 0.0
H1203 H 0.43854 0.56343 0.51482 0.0
H1204 H 0.40602 0.56495 0.54075 0.0
H1205 H 0.27062 0.54745 0.49158 0.0
H1206 H 0.30944 0.57681 0.50816 0.0
H1207 H 0.32153 0.52216 0.54263 0.0
H1208 H 0.28261 0.49206 0.52395 0.0
H1209 H 0.35876 0.55344 0.51295 0.0
H1210 H 0.3141 0.56017 0.59098 0.0
H1211 H 0.27995 0.56122 0.61245 0.0
H1212 H 0.29958 0.62569 0.56576 0.0
H1213 H 0.33373 0.62494 0.54369 0.0
C1214 C 0.45209 0.65508 0.524 0.0
C1215 C 0.44991 0.66931 0.50224 0.0
C1216 C 0.43189 0.63704 0.53776 0.0
C1217 C 0.40945 0.63328 0.52999 0.0
C1218 C 0.40765 0.64921 0.51077 0.0
C1219 C 0.4277 0.66697 0.49683 0.0
C1220 C 0.38776 0.61066 0.53655 0.0
C1221 C 0.36895 0.61108 0.55094 0.0
C1222 C 0.38427 0.58925 0.52413 0.0
C1223 C 0.40332 0.58784 0.5081 0.0
C1224 C 0.41226 0.59992 0.48107 0.0
C1225 C 0.43076 0.59907 0.46663 0.0
C1226 C 0.44027 0.58599 0.47884 0.0
C1227 C 0.4312 0.57361 0.50544 0.0
C1228 C 0.41274 0.57446 0.52002 0.0
C1229 C 0.28148 0.54144 0.50229 0.0
C1230 C 0.27357 0.51726 0.50589 0.0
C1231 C 0.30362 0.5584 0.51245 0.0
C1232 C 0.31826 0.55179 0.52735 0.0
C1233 C 0.3104 0.52768 0.53149 0.0
C1234 C 0.28817 0.51053 0.52091 0.0
C1235 C 0.34237 0.57036 0.53618 0.0
C1236 C 0.36167 0.56926 0.52446 0.0
C1237 C 0.34625 0.5911 0.55115 0.0
C1238 C 0.32655 0.59249 0.5657 0.0
C1239 C 0.31119 0.57461 0.58534 0.0
C1240 C 0.29181 0.57513 0.59757 0.0
C1241 C 0.28761 0.5935 0.59045 0.0
C1242 C 0.30291 0.61151 0.5713 0.0
C1243 C 0.32235 0.6111 0.55901 0.0
H1244 H 0.27247 0.59372 0.59973 0.0
H1245 H 0.45462 0.5854 0.46766 0.0
H1246 H 0.7048 0.25266 0.01867 0.0
H1247 H 0.71531 0.2928 0.03365 0.0
H1248 H 0.78604 0.31877 0.00079 0.0
H1249 H 0.77562 0.27845 0.98635 0.0
H1250 H 0.7545 0.33182 0.069 0.0
H1251 H 0.79207 0.36339 0.95224 0.0
H1252 H 0.7891 0.34739 0.9016 0.0
H1253 H 0.71801 0.29261 0.91939 0.0
H1254 H 0.72041 0.30857 0.96984 0.0
H1255 H 0.80896 0.45895 0.0443 0.0
H1256 H 0.7984 0.41781 0.0535 0.0
H1257 H 0.7347 0.3939 0.00204 0.0
H1258 H 0.7453 0.43474 0.99259 0.0
H1259 H 0.76376 0.3796 0.97886 0.0
H1260 H 0.73133 0.38116 0.07442 0.0
H1261 H 0.73193 0.39635 0.12485 0.0
H1262 H 0.78825 0.38401 0.14975 0.0
H1263 H 0.78821 0.36905 0.0993 0.0
C1264 C 0.72271 0.26693 0.0153 0.0
C1265 C 0.7394 0.26271 0.00117 0.0
C1266 C 0.72875 0.28971 0.0241 0.0
C1267 C 0.75141 0.30862 0.01829 0.0
C1268 C 0.7685 0.30428 0.0056 0.0
C1269 C 0.76257 0.28138 0.99733 0.0
C1270 C 0.75589 0.33298 0.02108 0.0
C1271 C 0.75673 0.34244 0.04941 0.0
C1272 C 0.75832 0.34648 0.99541 0.0
C1273 C 0.75657 0.33698 0.96494 0.0
C1274 C 0.7758 0.34797 0.94529 0.0
C1275 C 0.7742 0.33892 0.91661 0.0
C1276 C 0.7534 0.31895 0.90733 0.0
C1277 C 0.73413 0.30803 0.92665 0.0
C1278 C 0.73562 0.31705 0.95529 0.0
C1279 C 0.79224 0.44486 0.03609 0.0
C1280 C 0.778 0.44987 0.01755 0.0
C1281 C 0.78628 0.4214 0.04122 0.0
C1282 C 0.76593 0.40288 0.0281 0.0
C1283 C 0.75058 0.40796 0.01212 0.0
C1284 C 0.75659 0.43127 0.00684 0.0
C1285 C 0.76234 0.3787 0.02689 0.0
C1286 C 0.76177 0.36923 0.99865 0.0
C1287 C 0.7599 0.36523 0.05265 0.0
C1288 C 0.75994 0.37422 0.08298 0.0
C1289 C 0.744 0.3819 0.09055 0.0
C1290 C 0.7442 0.39042 0.11917 0.0
C1291 C 0.76017 0.39121 0.14047 0.0
C1292 C 0.77592 0.38342 0.13321 0.0
C1293 C 0.7758 0.3749 0.10462 0.0
H1294 H 0.76029 0.39781 0.16261 0.0
H1295 H 0.75217 0.31198 0.88513 0.0
H1296 H 0.23473 0.52005 0.36586 0.0
H1297 H 0.24445 0.51734 0.3143 0.0
H1298 H 0.21254 0.44177 0.3229 0.0
H1299 H 0.20187 0.44431 0.37463 0.0
H1300 H 0.27038 0.50334 0.28729 0.0
H1301 H 0.18749 0.41744 0.24847 0.0
H1302 H 0.1463 0.39062 0.26363 0.0
H1303 H 0.14552 0.447 0.31159 0.0
H1304 H 0.18657 0.47407 0.29663 0.0
H1305 H 0.27711 0.46388 0.14075 0.0
H1306 H 0.26558 0.46017 0.1931 0.0
H1307 H 0.23206 0.5015 0.17678 0.0
H1308 H 0.24433 0.50607 0.12427 0.0
H1309 H 0.20653 0.45509 0.2155 0.0
H1310 H 0.27846 0.53015 0.20074 0.0
H1311 H 0.31976 0.55606 0.18539 0.0
H1312 H 0.34238 0.521 0.24675 0.0
H1313 H 0.30108 0.49397 0.26121 0.0
C1314 C 0.22999 0.50285 0.35696 0.0
C1315 C 0.21742 0.48237 0.37423 0.0
C1316 C 0.23559 0.50133 0.32743 0.0
C1317 C 0.22894 0.47932 0.31454 0.0
C1318 C 0.21747 0.45889 0.33221 0.0
C1319 C 0.21149 0.46037 0.36176 0.0
C1320 C 0.23334 0.47816 0.28232 0.0
C1321 C 0.2564 0.49265 0.27168 0.0
C1322 C 0.21506 0.46408 0.26189 0.0
C1323 C 0.19026 0.44791 0.27136 0.0
C1324 C 0.17852 0.42418 0.26212 0.0
C1325 C 0.15517 0.40887 0.27074 0.0
C1326 C 0.14328 0.41709 0.28855 0.0
C1327 C 0.15472 0.44063 0.29776 0.0
C1328 C 0.17804 0.45598 0.28916 0.0
C1329 C 0.2669 0.47183 0.14812 0.0
C1330 C 0.26156 0.48525 0.12846 0.0
C1331 C 0.26044 0.46975 0.17805 0.0
C1332 C 0.24811 0.48064 0.18867 0.0
C1333 C 0.24158 0.49298 0.16883 0.0
C1334 C 0.24859 0.49559 0.13895 0.0
C1335 C 0.2434 0.48034 0.22087 0.0
C1336 C 0.22041 0.46554 0.23135 0.0
C1337 C 0.26171 0.4939 0.24127 0.0
C1338 C 0.28652 0.50965 0.23162 0.0
C1339 C 0.29213 0.5275 0.21038 0.0
C1340 C 0.31558 0.54244 0.20186 0.0
C1341 C 0.33368 0.54006 0.21488 0.0
C1342 C 0.32834 0.52267 0.23638 0.0
C1343 C 0.30489 0.50745 0.24463 0.0
H1344 H 0.35185 0.55178 0.20846 0.0
H1345 H 0.12522 0.40521 0.29523 0.0
H1346 H 0.7382 0.20986 0.86667 0.0
H1347 H 0.7521 0.23045 0.81932 0.0
H1348 H 0.70213 0.25504 0.82582 0.0
H1349 H 0.68791 0.23418 0.87342 0.0
H1350 H 0.70124 0.23709 0.7709 0.0
H1351 H 0.75982 0.2939 0.83474 0.0
H1352 H 0.78986 0.30945 0.87453 0.0
H1353 H 0.83177 0.28697 0.82622 0.0
H1354 H 0.80186 0.27096 0.78633 0.0
H1355 H 0.75387 0.30614 0.63939 0.0
H1356 H 0.73867 0.29413 0.69003 0.0
H1357 H 0.78463 0.26516 0.70243 0.0
H1358 H 0.80023 0.27758 0.65224 0.0
H1359 H 0.78625 0.29049 0.74947 0.0
H1360 H 0.72316 0.22857 0.68962 0.0
H1361 H 0.69375 0.21528 0.64908 0.0
H1362 H 0.66112 0.25115 0.68998 0.0
H1363 H 0.69044 0.26473 0.73068 0.0
C1364 C 0.73031 0.21984 0.85824 0.0
C1365 C 0.712 0.22045 0.8738 0.0
C1366 C 0.73834 0.23169 0.83118 0.0
C1367 C 0.7283 0.24447 0.81914 0.0
C1368 C 0.71015 0.24533 0.83476 0.0
C1369 C 0.70215 0.23352 0.86199 0.0
C1370 C 0.73629 0.25596 0.78963 0.0
C1371 C 0.71977 0.24917 0.76637 0.0
C1372 C 0.76047 0.27157 0.78359 0.0
C1373 C 0.77847 0.28104 0.80764 0.0
C1374 C 0.77533 0.29207 0.83272 0.0
C1375 C 0.79236 0.30102 0.85526 0.0
C1376 C 0.81267 0.29915 0.85293 0.0
C1377 C 0.81602 0.28838 0.82801 0.0
C1378 C 0.79905 0.27939 0.8054 0.0
C1379 C 0.7606 0.29708 0.65288 0.0
C1380 C 0.77816 0.2927 0.64185 0.0
C1381 C 0.75186 0.29016 0.68178 0.0
C1382 C 0.76034 0.27852 0.69995 0.0
C1383 C 0.77785 0.27415 0.68885 0.0
C1384 C 0.78668 0.28118 0.66012 0.0
C1385 C 0.75135 0.27105 0.73068 0.0
C1386 C 0.76769 0.27864 0.75415 0.0
C1387 C 0.72703 0.25648 0.73695 0.0
C1388 C 0.70902 0.24775 0.71304 0.0
C1389 C 0.70973 0.23364 0.6899 0.0
C1390 C 0.69309 0.22607 0.6669 0.0
C1391 C 0.67563 0.23243 0.6669 0.0
C1392 C 0.67469 0.24629 0.68997 0.0
C1393 C 0.69126 0.25387 0.71305 0.0
H1394 H 0.66277 0.22656 0.64907 0.0
H1395 H 0.82582 0.3061 0.8704 0.0
H1396 H 0.52615 0.77731 0.11068 0.0
H1397 H 0.51647 0.75832 0.15952 0.0
H1398 H 0.44532 0.74565 0.1515 0.0
H1399 H 0.45482 0.76445 0.10239 0.0
H1400 H 0.46649 0.76793 0.20378 0.0
H1401 H 0.45224 0.69914 0.15248 0.0
H1402 H 0.45871 0.6739 0.11745 0.0
H1403 H 0.522 0.6888 0.16414 0.0
H1404 H 0.51609 0.71439 0.19924 0.0
H1405 H 0.44548 0.70999 0.34778 0.0
H1406 H 0.44218 0.72005 0.29594 0.0
H1407 H 0.51304 0.73431 0.27879 0.0
H1408 H 0.51627 0.72397 0.32996 0.0
H1409 H 0.48354 0.70589 0.23775 0.0
H1410 H 0.49853 0.77781 0.28671 0.0
H1411 H 0.49129 0.8031 0.32068 0.0
H1412 H 0.425 0.78185 0.27766 0.0
H1413 H 0.4316 0.75601 0.24378 0.0
C1414 C 0.50829 0.76999 0.119 0.0
C1415 C 0.49126 0.77237 0.10274 0.0
C1416 C 0.50276 0.75912 0.14689 0.0
C1417 C 0.48015 0.75055 0.1591 0.0
C1418 C 0.46284 0.75211 0.14244 0.0
C1419 C 0.46828 0.76273 0.11433 0.0
C1420 C 0.47551 0.74186 0.1902 0.0
C1421 C 0.46968 0.754 0.21125 0.0
C1422 C 0.47981 0.72379 0.19979 0.0
C1423 C 0.48382 0.70887 0.17835 0.0
C1424 C 0.46768 0.69725 0.15509 0.0
C1425 C 0.47121 0.68282 0.13527 0.0
C1426 C 0.49078 0.67979 0.13853 0.0
C1427 C 0.50686 0.69119 0.16163 0.0
C1428 C 0.50342 0.70564 0.18151 0.0
C1429 C 0.46042 0.71558 0.33298 0.0
C1430 C 0.4811 0.71613 0.34284 0.0
C1431 C 0.45852 0.72132 0.30342 0.0
C1432 C 0.47737 0.72792 0.28349 0.0
C1433 C 0.49822 0.72912 0.2937 0.0
C1434 C 0.50006 0.72327 0.323 0.0
C1435 C 0.47537 0.73253 0.25159 0.0
C1436 C 0.47992 0.71955 0.23035 0.0
C1437 C 0.46971 0.74971 0.24192 0.0
C1438 C 0.46536 0.76459 0.26305 0.0
C1439 C 0.48219 0.77814 0.28485 0.0
C1440 C 0.47823 0.79265 0.30404 0.0
C1441 C 0.45762 0.79394 0.30149 0.0
C1442 C 0.44088 0.78069 0.27977 0.0
C1443 C 0.44471 0.7661 0.26058 0.0
H1444 H 0.45469 0.80534 0.31619 0.0
H1445 H 0.49346 0.66859 0.12319 0.0
H1446 H 0.73344 0.54901 0.63913 0.0
H1447 H 0.74892 0.55013 0.68914 0.0
H1448 H 0.72379 0.47542 0.68421 0.0
H1449 H 0.70842 0.47417 0.63424 0.0
H1450 H 0.72342 0.52618 0.7385 0.0
H1451 H 0.76155 0.46409 0.72467 0.0
H1452 H 0.77918 0.45141 0.68537 0.0
H1453 H 0.80457 0.51774 0.64056 0.0
H1454 H 0.78739 0.53095 0.67978 0.0
H1455 H 0.74037 0.48324 0.87771 0.0
H1456 H 0.72911 0.48583 0.82636 0.0
H1457 H 0.80175 0.53595 0.80571 0.0
H1458 H 0.81306 0.53345 0.85686 0.0
H1459 H 0.78043 0.49975 0.76386 0.0
H1460 H 0.76471 0.55546 0.8148 0.0
H1461 H 0.74661 0.56788 0.85374 0.0
H1462 H 0.6775 0.51584 0.82377 0.0
H1463 H 0.6952 0.50288 0.78491 0.0
C1464 C 0.73152 0.5329 0.64854 0.0
C1465 C 0.71975 0.51151 0.63279 0.0
C1466 C 0.74024 0.53355 0.67714 0.0
C1467 C 0.73754 0.51288 0.6903 0.0
C1468 C 0.72627 0.49161 0.67433 0.0
C1469 C 0.71748 0.49093 0.6458 0.0
C1470 C 0.74565 0.51335 0.7212 0.0
C1471 C 0.73594 0.52048 0.74404 0.0
C1472 C 0.76196 0.50587 0.72835 0.0
C1473 C 0.77299 0.49841 0.70505 0.0
C1474 C 0.77102 0.47602 0.70652 0.0
C1475 C 0.7809 0.46873 0.68424 0.0
C1476 C 0.79292 0.48373 0.66043 0.0
C1477 C 0.79518 0.50611 0.65895 0.0
C1478 C 0.78535 0.51349 0.68119 0.0
C1479 C 0.75386 0.49487 0.86225 0.0
C1480 C 0.77753 0.50815 0.87129 0.0
C1481 C 0.74744 0.49637 0.83298 0.0
C1482 C 0.76463 0.5111 0.81231 0.0
C1483 C 0.78825 0.52446 0.82134 0.0
C1484 C 0.79463 0.52313 0.85062 0.0
C1485 C 0.75809 0.51247 0.78113 0.0
C1486 C 0.76798 0.50555 0.75827 0.0
C1487 C 0.74196 0.52014 0.77394 0.0
C1488 C 0.7313 0.52806 0.79713 0.0
C1489 C 0.74566 0.54655 0.81666 0.0
C1490 C 0.73547 0.5537 0.83869 0.0
C1491 C 0.71092 0.54262 0.84127 0.0
C1492 C 0.69651 0.52439 0.82177 0.0
C1493 C 0.70661 0.51715 0.79972 0.0
H1494 H 0.70306 0.54818 0.85835 0.0
H1495 H 0.80051 0.47803 0.64317 0.0
H1496 H 0.25797 0.76655 0.37031 0.0
H1497 H 0.24685 0.74527 0.32319 0.0
H1498 H 0.30955 0.73917 0.32585 0.0
H1499 H 0.32076 0.76053 0.37341 0.0
H1500 H 0.3071 0.75913 0.27492 0.0
H1501 H 0.25533 0.68746 0.324 0.0
H1502 H 0.22467 0.65928 0.35818 0.0
H1503 H 0.17429 0.6757 0.32036 0.0
H1504 H 0.20451 0.70364 0.28554 0.0
H1505 H 0.26555 0.70328 0.13035 0.0
H1506 H 0.28031 0.71183 0.18167 0.0
H1507 H 0.22568 0.72772 0.20453 0.0
H1508 H 0.21076 0.71903 0.15362 0.0
H1509 H 0.22758 0.69629 0.24313 0.0
H1510 H 0.28296 0.7703 0.19479 0.0
H1511 H 0.31327 0.79321 0.15705 0.0
H1512 H 0.35854 0.7697 0.19397 0.0
H1513 H 0.32822 0.7461 0.23146 0.0
C1514 C 0.26906 0.7601 0.3613 0.0
C1515 C 0.29031 0.76535 0.37536 0.0
C1516 C 0.26262 0.7478 0.33441 0.0
C1517 C 0.27735 0.74058 0.32095 0.0
C1518 C 0.2979 0.74454 0.33587 0.0
C1519 C 0.30422 0.75663 0.36308 0.0
C1520 C 0.2727 0.73204 0.2897 0.0
C1521 C 0.28989 0.74498 0.26802 0.0
C1522 C 0.25025 0.71373 0.28059 0.0
C1523 C 0.23224 0.69776 0.30231 0.0
C1524 C 0.23775 0.68519 0.32313 0.0
C1525 C 0.2204 0.66913 0.34247 0.0
C1526 C 0.19755 0.66574 0.34149 0.0
C1527 C 0.19197 0.67832 0.32107 0.0
C1528 C 0.20917 0.69415 0.30139 0.0
C1529 C 0.25698 0.70903 0.1462 0.0
C1530 C 0.23701 0.71052 0.13796 0.0
C1531 C 0.26538 0.71382 0.17551 0.0
C1532 C 0.25402 0.72031 0.19691 0.0
C1533 C 0.2346 0.72258 0.1884 0.0
C1534 C 0.22621 0.71778 0.15922 0.0
C1535 C 0.26159 0.72402 0.2285 0.0
C1536 C 0.24492 0.71014 0.25014 0.0
C1537 C 0.28462 0.74122 0.23748 0.0
C1538 C 0.30315 0.75611 0.21562 0.0
C1539 C 0.29928 0.76982 0.19469 0.0
C1540 C 0.31643 0.78288 0.17329 0.0
C1541 C 0.3377 0.7827 0.17292 0.0
C1542 C 0.34197 0.76965 0.19413 0.0
C1543 C 0.32479 0.75641 0.21544 0.0
H1544 H 0.35098 0.79287 0.15637 0.0
H1545 H 0.18416 0.65333 0.35652 0.0
H1546 H 0.51719 0.21369 0.66039 0.0
H1547 H 0.51899 0.22781 0.71124 0.0
H1548 H 0.4458 0.20901 0.70588 0.0
H1549 H 0.44363 0.19415 0.655 0.0
H1550 H 0.48055 0.25711 0.72967 0.0
H1551 H 0.45239 0.17518 0.74234 0.0
H1552 H 0.45265 0.13829 0.73242 0.0
H1553 H 0.52085 0.16721 0.7735 0.0
H1554 H 0.52142 0.20469 0.78267 0.0
H1555 H 0.4687 0.27475 0.8812 0.0
H1556 H 0.4612 0.25464 0.83338 0.0
H1557 H 0.52954 0.2598 0.83708 0.0
H1558 H 0.53711 0.27978 0.8855 0.0
H1559 H 0.49456 0.21668 0.81424 0.0
H1560 H 0.52315 0.29934 0.79875 0.0
H1561 H 0.52365 0.33687 0.80538 0.0
H1562 H 0.45361 0.30605 0.76922 0.0
H1563 H 0.45261 0.26811 0.76266 0.0
C1564 C 0.5015 0.21267 0.66995 0.0
C1565 C 0.48025 0.20284 0.65385 0.0
C1566 C 0.50256 0.22066 0.69898 0.0
C1567 C 0.48251 0.21931 0.71217 0.0
C1568 C 0.46141 0.21011 0.69592 0.0
C1569 C 0.46019 0.20162 0.66702 0.0
C1570 C 0.48376 0.2273 0.74316 0.0
C1571 C 0.48316 0.24808 0.74828 0.0
C1572 C 0.48766 0.21565 0.76714 0.0
C1573 C 0.48711 0.1929 0.76277 0.0
C1574 C 0.46758 0.1738 0.74897 0.0
C1575 C 0.46757 0.15279 0.74347 0.0
C1576 C 0.48683 0.1505 0.7521 0.0
C1577 C 0.50601 0.1691 0.76663 0.0
C1578 C 0.50622 0.19026 0.77193 0.0
C1579 C 0.48209 0.27142 0.87203 0.0
C1580 C 0.50364 0.27909 0.88689 0.0
C1581 C 0.47774 0.25992 0.8447 0.0
C1582 C 0.49496 0.25609 0.83151 0.0
C1583 C 0.51606 0.26267 0.84692 0.0
C1584 C 0.52039 0.27412 0.87447 0.0
C1585 C 0.49145 0.24664 0.80083 0.0
C1586 C 0.49172 0.22562 0.79572 0.0
C1587 C 0.48714 0.25802 0.7768 0.0
C1588 C 0.48772 0.28083 0.78053 0.0
C1589 C 0.50777 0.3005 0.79245 0.0
C1590 C 0.50813 0.32186 0.7962 0.0
C1591 C 0.48862 0.32387 0.78789 0.0
C1592 C 0.46871 0.30448 0.77571 0.0
C1593 C 0.46824 0.28303 0.77194 0.0
H1594 H 0.48892 0.34043 0.79081 0.0
H1595 H 0.48688 0.13434 0.74733 0.0
H1596 H 0.47815 0.63857 0.32393 0.0
H1597 H 0.46922 0.61417 0.27946 0.0
H1598 H 0.4067 0.55903 0.32183 0.0
H1599 H 0.41623 0.58274 0.36698 0.0
H1600 H 0.4235 0.53989 0.28384 0.0
H1601 H 0.40475 0.60204 0.28188 0.0
H1602 H 0.41245 0.64291 0.28548 0.0
H1603 H 0.46192 0.66352 0.21328 0.0
H1604 H 0.45487 0.62288 0.20968 0.0
H1605 H 0.33794 0.50239 0.16572 0.0
H1606 H 0.36341 0.51158 0.20965 0.0
H1607 H 0.4237 0.55941 0.15696 0.0
H1608 H 0.3983 0.54963 0.1131 0.0
H1609 H 0.41285 0.58186 0.19859 0.0
H1610 H 0.4238 0.51472 0.19635 0.0
H1611 H 0.41103 0.47238 0.19325 0.0
H1612 H 0.37029 0.45924 0.27317 0.0
H1613 H 0.38254 0.50147 0.27654 0.0
C1614 C 0.46294 0.62097 0.32425 0.0
C1615 C 0.44752 0.61291 0.3488 0.0
C1616 C 0.45777 0.60706 0.29868 0.0
C1617 C 0.43692 0.58505 0.29703 0.0
C1618 C 0.42275 0.57605 0.32246 0.0
C1619 C 0.42806 0.58981 0.34814 0.0
C1620 C 0.42811 0.57303 0.26797 0.0
C1621 C 0.42121 0.54903 0.26511 0.0
C1622 C 0.4251 0.58496 0.24354 0.0
C1623 C 0.42955 0.6095 0.24582 0.0
C1624 C 0.41746 0.61535 0.26699 0.0
C1625 C 0.42169 0.63847 0.26902 0.0
C1626 C 0.43773 0.65583 0.24971 0.0
C1627 C 0.44958 0.6501 0.22832 0.0
C1628 C 0.4455 0.62703 0.2263 0.0
C1629 C 0.35682 0.51388 0.16335 0.0
C1630 C 0.36628 0.52576 0.13644 0.0
C1631 C 0.37135 0.51926 0.18843 0.0
C1632 C 0.39534 0.53665 0.18672 0.0
C1633 C 0.4052 0.54616 0.15886 0.0
C1634 C 0.39074 0.54069 0.13389 0.0
C1635 C 0.4085 0.54873 0.2141 0.0
C1636 C 0.41583 0.5728 0.21686 0.0
C1637 C 0.41131 0.53666 0.23845 0.0
C1638 C 0.40401 0.51127 0.23661 0.0
C1639 C 0.41199 0.50279 0.21316 0.0
C1640 C 0.40487 0.4788 0.21137 0.0
C1641 C 0.38984 0.46312 0.23298 0.0
C1642 C 0.38194 0.47141 0.25646 0.0
C1643 C 0.38901 0.49538 0.25834 0.0
H1644 H 0.38434 0.44456 0.23156 0.0
H1645 H 0.44086 0.67367 0.25126 0.0
H1646 H 0.84596 0.44154 0.88359 0.0
H1647 H 0.85688 0.43108 0.83633 0.0
H1648 H 0.84135 0.47963 0.79032 0.0
H1649 H 0.83032 0.49009 0.83777 0.0
H1650 H 0.82287 0.40997 0.79359 0.0
H1651 H 0.87327 0.49465 0.72326 0.0
H1652 H 0.90215 0.53689 0.73032 0.0
H1653 H 0.92872 0.5206 0.80885 0.0
H1654 H 0.90025 0.47825 0.80203 0.0
H1655 H 0.84231 0.41788 0.62339 0.0
H1656 H 0.84618 0.43763 0.67087 0.0
H1657 H 0.85491 0.38422 0.71589 0.0
H1658 H 0.85097 0.36431 0.66837 0.0
H1659 H 0.87859 0.45736 0.71334 0.0
H1660 H 0.82518 0.37133 0.78317 0.0
H1661 H 0.79232 0.33048 0.77759 0.0
H1662 H 0.76809 0.35056 0.70007 0.0
H1663 H 0.80045 0.39166 0.70559 0.0
C1664 C 0.84544 0.45038 0.86346 0.0
C1665 C 0.83705 0.46638 0.86421 0.0
C1666 C 0.85169 0.44443 0.83654 0.0
C1667 C 0.84977 0.45446 0.80984 0.0
C1668 C 0.84316 0.47185 0.81073 0.0
C1669 C 0.83692 0.47785 0.83781 0.0
C1670 C 0.85137 0.44423 0.78113 0.0
C1671 C 0.83542 0.42021 0.77626 0.0
C1672 C 0.86702 0.45789 0.75815 0.0
C1673 C 0.88445 0.48328 0.76227 0.0
C1674 C 0.88534 0.50007 0.74197 0.0
C1675 C 0.90163 0.52404 0.74594 0.0
C1676 C 0.91721 0.53143 0.77007 0.0
C1677 C 0.91658 0.51486 0.79023 0.0
C1678 C 0.90034 0.49087 0.78635 0.0
C1679 C 0.84551 0.41056 0.64328 0.0
C1680 C 0.84616 0.3894 0.64212 0.0
C1681 C 0.84766 0.42186 0.67044 0.0
C1682 C 0.8505 0.41223 0.69697 0.0
C1683 C 0.85229 0.39173 0.69574 0.0
C1684 C 0.85 0.38035 0.6686 0.0
C1685 C 0.85033 0.42294 0.72602 0.0
C1686 C 0.86631 0.44704 0.73084 0.0
C1687 C 0.83441 0.40944 0.74894 0.0
C1688 C 0.81547 0.38454 0.74459 0.0
C1689 C 0.81289 0.36702 0.76488 0.0
C1690 C 0.79431 0.34383 0.76177 0.0
C1691 C 0.77815 0.33795 0.73847 0.0
C1692 C 0.78066 0.35517 0.71806 0.0
C1693 C 0.79914 0.37841 0.72116 0.0
H1694 H 0.76355 0.32013 0.7364 0.0
H1695 H 0.92979 0.54999 0.77311 0.0
H1696 H 0.51118 0.88242 0.15197 0.0
H1697 H 0.48952 0.88074 0.19763 0.0
H1698 H 0.42947 0.81606 0.16694 0.0
H1699 H 0.45119 0.81754 0.12188 0.0
H1700 H 0.41942 0.85183 0.18906 0.0
H1701 H 0.46216 0.8119 0.21343 0.0
H1702 H 0.49797 0.80876 0.2187 0.0
H1703 H 0.52503 0.86379 0.28435 0.0
H1704 H 0.48987 0.86807 0.27854 0.0
H1705 H 0.35021 0.81489 0.31957 0.0
H1706 H 0.37286 0.81448 0.27649 0.0
H1707 H 0.436 0.87264 0.3137 0.0
H1708 H 0.41363 0.87276 0.35716 0.0
H1709 H 0.44484 0.83976 0.28853 0.0
H1710 H 0.40614 0.88299 0.26231 0.0
H1711 H 0.37226 0.88941 0.25662 0.0
H1712 H 0.33976 0.83137 0.19539 0.0
H1713 H 0.37336 0.82437 0.20114 0.0
C1714 C 0.49332 0.86798 0.15505 0.0
C1715 C 0.48281 0.85003 0.13362 0.0
C1716 C 0.48105 0.86697 0.18105 0.0
C1717 C 0.458 0.84819 0.18561 0.0
C1718 C 0.44727 0.83063 0.16383 0.0
C1719 C 0.45968 0.83142 0.13823 0.0
C1720 C 0.44494 0.84666 0.21314 0.0
C1721 C 0.42482 0.84895 0.21079 0.0
C1722 C 0.45241 0.8434 0.24145 0.0
C1723 C 0.47349 0.84062 0.24513 0.0
C1724 C 0.47592 0.82368 0.22857 0.0
C1725 C 0.49611 0.82167 0.23167 0.0
C1726 C 0.51379 0.83612 0.25174 0.0
C1727 C 0.51135 0.85266 0.26872 0.0
C1728 C 0.49132 0.85495 0.26545 0.0
C1729 C 0.36895 0.82743 0.31875 0.0
C1730 C 0.38003 0.84409 0.34162 0.0
C1731 C 0.38185 0.82723 0.29407 0.0
C1732 C 0.40605 0.84372 0.29178 0.0
C1733 C 0.41733 0.85984 0.315 0.0
C1734 C 0.40443 0.86009 0.33962 0.0
C1735 C 0.41934 0.84503 0.26445 0.0
C1736 C 0.43947 0.84265 0.2668 0.0
C1737 C 0.41214 0.84859 0.23613 0.0
C1738 C 0.39206 0.85292 0.23246 0.0
C1739 C 0.39166 0.87144 0.24785 0.0
C1740 C 0.37254 0.8752 0.2446 0.0
C1741 C 0.35381 0.86071 0.22577 0.0
C1742 C 0.35422 0.84248 0.21007 0.0
C1743 C 0.37328 0.83861 0.21332 0.0
H1744 H 0.33902 0.86366 0.22326 0.0
H1745 H 0.52932 0.83439 0.25427 0.0
H1746 H 0.51853 0.35725 0.84843 0.0
H1747 H 0.52614 0.37794 0.80044 0.0
H1748 H 0.58603 0.43887 0.83874 0.0
H1749 H 0.57851 0.41844 0.88642 0.0
H1750 H 0.56249 0.4511 0.79741 0.0
H1751 H 0.59334 0.39784 0.80805 0.0
H1752 H 0.59146 0.35958 0.81531 0.0
H1753 H 0.54735 0.33178 0.73797 0.0
H1754 H 0.54841 0.3697 0.73075 0.0
H1755 H 0.65086 0.47619 0.67106 0.0
H1756 H 0.62942 0.45533 0.71562 0.0
H1757 H 0.56941 0.46101 0.68743 0.0
H1758 H 0.59056 0.48145 0.64214 0.0
H1759 H 0.5876 0.4134 0.72093 0.0
H1760 H 0.54486 0.46845 0.75361 0.0
H1761 H 0.55147 0.50879 0.74717 0.0
H1762 H 0.62611 0.5358 0.7396 0.0
H1763 H 0.61996 0.4957 0.74638 0.0
C1764 C 0.53291 0.37526 0.84674 0.0
C1765 C 0.54833 0.38603 0.87084 0.0
C1766 C 0.53726 0.387 0.81937 0.0
C1767 C 0.5569 0.4097 0.81596 0.0
C1768 C 0.57087 0.4213 0.84083 0.0
C1769 C 0.56667 0.40954 0.86799 0.0
C1770 C 0.56487 0.42035 0.7861 0.0
C1771 C 0.56761 0.4427 0.78046 0.0
C1772 C 0.57192 0.40954 0.7642 0.0
C1773 C 0.57064 0.38649 0.76914 0.0
C1774 C 0.58293 0.38346 0.79286 0.0
C1775 C 0.58208 0.36186 0.79692 0.0
C1776 C 0.5693 0.34327 0.77711 0.0
C1777 C 0.55728 0.34621 0.75326 0.0
C1778 C 0.5579 0.36771 0.74927 0.0
C1779 C 0.633 0.47277 0.67397 0.0
C1780 C 0.62243 0.48041 0.65276 0.0
C1781 C 0.6208 0.46091 0.69959 0.0
C1782 C 0.59785 0.45663 0.7048 0.0
C1783 C 0.58719 0.46429 0.68389 0.0
C1784 C 0.59937 0.47607 0.65807 0.0
C1785 C 0.58531 0.44416 0.73229 0.0
C1786 C 0.5818 0.42149 0.73749 0.0
C1787 C 0.57792 0.45483 0.75391 0.0
C1788 C 0.58189 0.47905 0.7501 0.0
C1789 C 0.56267 0.48302 0.75062 0.0
C1790 C 0.56634 0.50584 0.74692 0.0
C1791 C 0.58919 0.52483 0.74285 0.0
C1792 C 0.60842 0.52106 0.74261 0.0
C1793 C 0.60484 0.49829 0.74633 0.0
H1794 H 0.59199 0.54248 0.73997 0.0
H1795 H 0.5687 0.32657 0.78024 0.0
H1796 H 0.1497 0.58209 0.14422 0.0
H1797 H 0.14065 0.56553 0.19445 0.0
H1798 H 0.17427 0.6358 0.23149 0.0
H1799 H 0.18304 0.65241 0.18095 0.0
H1800 H 0.17738 0.57474 0.23027 0.0
H1801 H 0.15079 0.62843 0.30628 0.0
H1802 H 0.13005 0.65117 0.3031 0.0
H1803 H 0.0891 0.60852 0.22938 0.0
H1804 H 0.10935 0.58534 0.2324 0.0
H1805 H 0.19273 0.55022 0.3754 0.0
H1806 H 0.19243 0.57619 0.33698 0.0
H1807 H 0.11718 0.53159 0.32706 0.0
H1808 H 0.11709 0.50563 0.3664 0.0
H1809 H 0.13501 0.58246 0.31735 0.0
H1810 H 0.14723 0.51818 0.28416 0.0
H1811 H 0.16662 0.4943 0.28463 0.0
H1812 H 0.23392 0.55651 0.26969 0.0
H1813 H 0.21469 0.5808 0.26911 0.0
C1814 C 0.15459 0.59393 0.16309 0.0
C1815 C 0.16721 0.61843 0.15887 0.0
C1816 C 0.1494 0.58452 0.19171 0.0
C1817 C 0.15692 0.59945 0.21665 0.0
C1818 C 0.16811 0.62398 0.21252 0.0
C1819 C 0.17311 0.63343 0.18372 0.0
C1820 C 0.15623 0.58926 0.24628 0.0
C1821 C 0.16812 0.57654 0.24925 0.0
C1822 C 0.14442 0.59183 0.27116 0.0
C1823 C 0.13183 0.60537 0.26934 0.0
C1824 C 0.13733 0.62389 0.28943 0.0
C1825 C 0.12566 0.63685 0.28766 0.0
C1826 C 0.10835 0.63137 0.26596 0.0
C1827 C 0.1026 0.61283 0.24608 0.0
C1828 C 0.11421 0.59981 0.24778 0.0
C1829 C 0.17592 0.54619 0.36592 0.0
C1830 C 0.15494 0.52548 0.37375 0.0
C1831 C 0.17584 0.56115 0.34387 0.0
C1832 C 0.15484 0.55568 0.32907 0.0
C1833 C 0.13357 0.53611 0.33832 0.0
C1834 C 0.13362 0.52111 0.36049 0.0
C1835 C 0.15581 0.56774 0.30083 0.0
C1836 C 0.14431 0.58093 0.29826 0.0
C1837 C 0.16791 0.56565 0.27602 0.0
C1838 C 0.17959 0.55127 0.2769 0.0
C1839 C 0.16619 0.52677 0.28124 0.0
C1840 C 0.17717 0.51316 0.28147 0.0
C1841 C 0.20159 0.52387 0.27731 0.0
C1842 C 0.21503 0.54824 0.27294 0.0
C1843 C 0.20409 0.56193 0.2726 0.0
H1844 H 0.21011 0.51333 0.27726 0.0
H1845 H 0.09935 0.64143 0.26462 0.0
H1846 H 0.60213 0.09965 0.85375 0.0
H1847 H 0.57862 0.09457 0.80904 0.0
H1848 H 0.61231 0.17013 0.79932 0.0
H1849 H 0.63546 0.17541 0.84408 0.0
H1850 H 0.54698 0.11024 0.79892 0.0
H1851 H 0.61945 0.18381 0.72854 0.0
H1852 H 0.66266 0.20329 0.7231 0.0
H1853 H 0.66108 0.13914 0.74759 0.0
H1854 H 0.61781 0.11926 0.75353 0.0
H1855 H 0.5073 0.15836 0.68449 0.0
H1856 H 0.53067 0.15479 0.7247 0.0
H1857 H 0.5399 0.1047 0.6727 0.0
H1858 H 0.51675 0.10832 0.63209 0.0
H1859 H 0.58296 0.14551 0.70133 0.0
H1860 H 0.50468 0.08217 0.72059 0.0
H1861 H 0.46189 0.06292 0.72973 0.0
H1862 H 0.47443 0.10435 0.80889 0.0
H1863 H 0.51728 0.12453 0.79964 0.0
C1864 C 0.6045 0.11519 0.84216 0.0
C1865 C 0.6208 0.13794 0.85252 0.0
C1866 C 0.59112 0.11224 0.81657 0.0
C1867 C 0.59394 0.13196 0.80073 0.0
C1868 C 0.6102 0.15466 0.81092 0.0
C1869 C 0.62351 0.15764 0.83651 0.0
C1870 C 0.57932 0.12898 0.77413 0.0
C1871 C 0.55476 0.1178 0.7775 0.0
C1872 C 0.58959 0.13862 0.74621 0.0
C1873 C 0.61542 0.15008 0.74145 0.0
C1874 C 0.6283 0.1738 0.7325 0.0
C1875 C 0.65282 0.18494 0.72942 0.0
C1876 C 0.66464 0.17248 0.73482 0.0
C1877 C 0.65193 0.1488 0.7434 0.0
C1878 C 0.62741 0.1376 0.74674 0.0
C1879 C 0.51434 0.14662 0.68158 0.0
C1880 C 0.51014 0.13354 0.65518 0.0
C1881 C 0.52744 0.14444 0.70465 0.0
C1882 C 0.53659 0.12923 0.70177 0.0
C1883 C 0.53276 0.11638 0.67535 0.0
C1884 C 0.51943 0.11835 0.65233 0.0
C1885 C 0.55057 0.12724 0.7263 0.0
C1886 C 0.57507 0.13765 0.72259 0.0
C1887 C 0.54017 0.11687 0.75397 0.0
C1888 C 0.51428 0.10518 0.75911 0.0
C1889 C 0.49835 0.08755 0.73962 0.0
C1890 C 0.47405 0.0764 0.74489 0.0
C1891 C 0.46543 0.08245 0.76982 0.0
C1892 C 0.48111 0.09966 0.78958 0.0
C1893 C 0.50542 0.11103 0.78427 0.0
H1894 H 0.44662 0.07376 0.77388 0.0
H1895 H 0.68363 0.1812 0.73242 0.0
loop_
_geom_bond_atom_site_label_1
_geom_bond_atom_site_label_2
_geom_bond_distance
_geom_bond_site_symmetry_2
_ccdc_geom_bond_type
Co0 N4 2.148 . S
Co0 N10 2.128 . S
Co0 N20 2.194 . S
Co0 O25 2.351 . S
Co0 O26 2.155 . S
Co0 O27 2.096 . S
C1 N4 1.301 . S
C1 N5 1.328 . S
C1 H6 0.930 . S
C2 C3 1.333 . S
C2 N4 1.317 . S
C2 H7 0.930 . S
C3 C2 1.333 . S
C3 N5 1.350 . S
C3 H29 0.931 . S
N4 Co0 2.148 . S
N4 C1 1.301 . S
N4 C2 1.317 . S
N5 C1 1.328 . S
N5 C3 1.350 . S
H6 C1 0.930 . S
H7 C2 0.930 . S
C8 O9 1.224 . S
C8 O27 1.247 . S
O9 C8 1.224 . S
N10 Co0 2.128 . S
N10 C11 1.355 . S
N10 C13 1.311 . S
C11 N10 1.355 . S
C11 C12 1.363 . S
C11 H23 0.929 . S
C12 C11 1.363 . S
C12 N14 1.375 1_554 S
C12 H30 0.931 1_554 S
C13 N10 1.311 . S
C13 N14 1.347 1_554 S
C13 H24 0.929 . S
N14 C12 1.375 1_556 S
N14 C13 1.347 1_556 S
C15 C18 1.365 . S
C15 N20 1.328 . S
C15 H21 0.929 . S
C16 C17 1.362 . S
C16 C19 1.378 . S
C16 H31 0.929 1_554 S
C17 C16 1.362 . S
C17 C18 1.366 . S
C18 C15 1.365 . S
C18 C17 1.366 . S
C18 H32 0.930 . S
C19 C16 1.378 . S
C19 N20 1.315 . S
C19 H22 0.930 . S
N20 Co0 2.194 . S
N20 C15 1.328 . S
N20 C19 1.315 . S
H21 C15 0.929 . S
H22 C19 0.930 . S
H23 C11 0.929 . S
H24 C13 0.929 . S
O25 Co0 2.351 . S
O25 C28 1.244 . S
O26 Co0 2.155 . S
O26 C28 1.240 . S
O27 Co0 2.096 . S
O27 C8 1.247 . S
C28 O25 1.244 . S
C28 O26 1.240 . S
H29 C3 0.931 . S
H30 C12 0.931 1_556 S
H31 C16 0.929 1_556 S
H32 C18 0.930 . S
Co33 N37 2.148 . S
Co33 N43 2.128 . S
Co33 N53 2.194 . S
Co33 O58 2.351 . S
Co33 O59 2.155 . S
Co33 O60 2.096 . S
C34 N37 1.301 . S
C34 N38 1.328 . S
C34 H39 0.930 . S
C35 C36 1.333 . S
C35 N37 1.317 . S
C35 H40 0.930 . S
C36 C35 1.333 . S
C36 N38 1.350 . S
C36 H62 0.931 . S
N37 Co33 2.148 . S
N37 C34 1.301 . S
N37 C35 1.317 . S
N38 C34 1.328 . S
N38 C36 1.350 . S
H39 C34 0.930 . S
H40 C35 0.930 . S
C41 O42 1.224 . S
C41 O60 1.247 . S
O42 C41 1.224 . S
N43 Co33 2.128 . S
N43 C44 1.355 . S
N43 C46 1.311 . S
C44 N43 1.355 . S
C44 C45 1.363 . S
C44 H56 0.929 . S
C45 C44 1.363 . S
C45 N47 1.375 . S
C45 H63 0.931 . S
C46 N43 1.311 . S
C46 N47 1.347 . S
C46 H57 0.929 . S
N47 C45 1.375 . S
N47 C46 1.347 . S
C48 C51 1.365 . S
C48 N53 1.328 . S
C48 H54 0.929 . S
C49 C50 1.362 . S
C49 C52 1.378 . S
C49 H64 0.929 . S
C50 C49 1.362 . S
C50 C51 1.366 . S
C51 C48 1.365 . S
C51 C50 1.366 . S
C51 H65 0.930 . S
C52 C49 1.378 . S
C52 N53 1.315 . S
C52 H55 0.930 . S
N53 Co33 2.194 . S
N53 C48 1.328 . S
N53 C52 1.315 . S
H54 C48 0.929 . S
H55 C52 0.930 . S
H56 C44 0.929 . S
H57 C46 0.929 . S
O58 Co33 2.351 . S
O58 C61 1.244 . S
O59 Co33 2.155 . S
O59 C61 1.240 . S
O60 Co33 2.096 . S
O60 C41 1.247 . S
C61 O58 1.244 . S
C61 O59 1.240 . S
H62 C36 0.931 . S
H63 C45 0.931 . S
H64 C49 0.929 . S
H65 C51 0.930 . S
Co66 N70 2.148 . S
Co66 N76 2.128 . S
Co66 N86 2.194 . S
Co66 O91 2.351 . S
Co66 O92 2.155 . S
Co66 O93 2.096 . S
C67 N70 1.301 . S
C67 N71 1.328 . S
C67 H72 0.930 . S
C68 C69 1.333 . S
C68 N70 1.317 . S
C68 H73 0.930 . S
C69 C68 1.333 . S
C69 N71 1.350 . S
C69 H95 0.931 . S
N70 Co66 2.148 . S
N70 C67 1.301 . S
N70 C68 1.317 . S
N71 C67 1.328 . S
N71 C69 1.350 . S
H72 C67 0.930 . S
H73 C68 0.930 . S
C74 O75 1.224 . S
C74 O93 1.247 . S
O75 C74 1.224 . S
N76 Co66 2.128 . S
N76 C77 1.355 . S
N76 C79 1.311 . S
C77 N76 1.355 . S
C77 C78 1.363 . S
C77 H89 0.929 . S
C78 C77 1.363 . S
C78 N80 1.375 1_554 S
C78 H96 0.931 1_554 S
C79 N76 1.311 . S
C79 N80 1.347 1_554 S
C79 H90 0.929 . S
N80 C78 1.375 1_556 S
N80 C79 1.347 1_556 S
C81 C84 1.365 . S
C81 N86 1.328 . S
C81 H87 0.929 . S
C82 C83 1.362 . S
C82 C85 1.378 . S
C82 H97 0.929 1_554 S
C83 C82 1.362 . S
C83 C84 1.366 . S
C84 C81 1.365 . S
C84 C83 1.366 . S
C84 H98 0.930 . S
C85 C82 1.378 . S
C85 N86 1.315 . S
C85 H88 0.930 . S
N86 Co66 2.194 . S
N86 C81 1.328 . S
N86 C85 1.315 . S
H87 C81 0.929 . S
H88 C85 0.930 . S
H89 C77 0.929 . S
H90 C79 0.929 . S
O91 Co66 2.351 . S
O91 C94 1.244 . S
O92 Co66 2.155 . S
O92 C94 1.240 . S
O93 Co66 2.096 . S
O93 C74 1.247 . S
C94 O91 1.244 . S
C94 O92 1.240 . S
H95 C69 0.931 . S
H96 C78 0.931 1_556 S
H97 C82 0.929 1_556 S
H98 C84 0.930 . S
Co99 N103 2.148 . S
Co99 N109 2.128 . S
Co99 N119 2.194 . S
Co99 O124 2.351 . S
Co99 O125 2.155 . S
Co99 O126 2.096 . S
C100 N103 1.301 . S
C100 N104 1.328 . S
C100 H105 0.930 . S
C101 C102 1.333 . S
C101 N103 1.317 . S
C101 H106 0.930 . S
C102 C101 1.333 . S
C102 N104 1.350 . S
C102 H128 0.931 . S
N103 Co99 2.148 . S
N103 C100 1.301 . S
N103 C101 1.317 . S
N104 C100 1.328 . S
N104 C102 1.350 . S
H105 C100 0.930 . S
H106 C101 0.930 . S
C107 O108 1.224 . S
C107 O126 1.247 . S
O108 C107 1.224 . S
N109 Co99 2.128 . S
N109 C110 1.355 . S
N109 C112 1.311 . S
C110 N109 1.355 . S
C110 C111 1.363 . S
C110 H122 0.929 . S
C111 C110 1.363 . S
C111 N113 1.375 . S
C111 H129 0.931 . S
C112 N109 1.311 . S
C112 N113 1.347 . S
C112 H123 0.929 . S
N113 C111 1.375 . S
N113 C112 1.347 . S
C114 C117 1.365 . S
C114 N119 1.328 . S
C114 H120 0.929 . S
C115 C116 1.362 . S
C115 C118 1.378 . S
C115 H130 0.929 . S
C116 C115 1.362 . S
C116 C117 1.366 . S
C117 C114 1.365 . S
C117 C116 1.366 . S
C117 H131 0.930 . S
C118 C115 1.378 . S
C118 N119 1.315 . S
C118 H121 0.930 . S
N119 Co99 2.194 . S
N119 C114 1.328 . S
N119 C118 1.315 . S
H120 C114 0.929 . S
H121 C118 0.930 . S
H122 C110 0.929 . S
H123 C112 0.929 . S
O124 Co99 2.351 . S
O124 C127 1.244 . S
O125 Co99 2.155 . S
O125 C127 1.240 . S
O126 Co99 2.096 . S
O126 C107 1.247 . S
C127 O124 1.244 . S
C127 O125 1.240 . S
H128 C102 0.931 . S
H129 C111 0.931 . S
H130 C115 0.929 . S
H131 C117 0.930 . S
Co132 N136 2.148 . S
Co132 N142 2.128 . S
Co132 N152 2.194 . S
Co132 O157 2.351 . S
Co132 O158 2.155 . S
Co132 O159 2.096 . S
C133 N136 1.301 . S
C133 N137 1.328 . S
C133 H138 0.930 . S
C134 C135 1.333 . S
C134 N136 1.317 . S
C134 H139 0.930 . S
C135 C134 1.333 . S
C135 N137 1.350 . S
C135 H161 0.931 . S
N136 Co132 2.148 . S
N136 C133 1.301 . S
N136 C134 1.317 . S
N137 C133 1.328 . S
N137 C135 1.350 . S
H138 C133 0.930 . S
H139 C134 0.930 . S
C140 O141 1.224 . S
C140 O159 1.247 . S
O141 C140 1.224 . S
N142 Co132 2.128 . S
N142 C143 1.355 . S
N142 C145 1.311 . S
C143 N142 1.355 . S
C143 C144 1.363 . S
C143 H155 0.929 . S
C144 C143 1.363 . S
C144 N146 1.375 1_554 S
C144 H162 0.931 1_554 S
C145 N142 1.311 . S
C145 N146 1.347 1_554 S
C145 H156 0.929 . S
N146 C144 1.375 1_556 S
N146 C145 1.347 1_556 S
C147 C150 1.365 . S
C147 N152 1.328 . S
C147 H153 0.929 . S
C148 C149 1.362 . S
C148 C151 1.378 . S
C148 H163 0.929 1_554 S
C149 C148 1.362 . S
C149 C150 1.366 . S
C150 C147 1.365 . S
C150 C149 1.366 . S
C150 H164 0.930 . S
C151 C148 1.378 . S
C151 N152 1.315 . S
C151 H154 0.930 . S
N152 Co132 2.194 . S
N152 C147 1.328 . S
N152 C151 1.315 . S
H153 C147 0.929 . S
H154 C151 0.930 . S
H155 C143 0.929 . S
H156 C145 0.929 . S
O157 Co132 2.351 . S
O157 C160 1.244 . S
O158 Co132 2.155 . S
O158 C160 1.240 . S
O159 Co132 2.096 . S
O159 C140 1.247 . S
C160 O157 1.244 . S
C160 O158 1.240 . S
H161 C135 0.931 . S
H162 C144 0.931 1_556 S
H163 C148 0.929 1_556 S
H164 C150 0.930 . S
Co165 N169 2.148 . S
Co165 N175 2.128 . S
Co165 N185 2.194 . S
Co165 O190 2.351 . S
Co165 O191 2.155 . S
Co165 O192 2.096 . S
C166 N169 1.301 . S
C166 N170 1.328 . S
C166 H171 0.930 . S
C167 C168 1.333 . S
C167 N169 1.317 . S
C167 H172 0.930 . S
C168 C167 1.333 . S
C168 N170 1.350 . S
C168 H194 0.931 . S
N169 Co165 2.148 . S
N169 C166 1.301 . S
N169 C167 1.317 . S
N170 C166 1.328 . S
N170 C168 1.350 . S
H171 C166 0.930 . S
H172 C167 0.930 . S
C173 O174 1.224 . S
C173 O192 1.247 . S
O174 C173 1.224 . S
N175 Co165 2.128 . S
N175 C176 1.355 . S
N175 C178 1.311 . S
C176 N175 1.355 . S
C176 C177 1.363 . S
C176 H188 0.929 . S
C177 C176 1.363 . S
C177 N179 1.375 . S
C177 H195 0.931 . S
C178 N175 1.311 . S
C178 N179 1.347 . S
C178 H189 0.929 . S
N179 C177 1.375 . S
N179 C178 1.347 . S
C180 C183 1.365 . S
C180 N185 1.328 . S
C180 H186 0.929 . S
C181 C182 1.362 . S
C181 C184 1.378 . S
C181 H196 0.929 . S
C182 C181 1.362 . S
C182 C183 1.366 . S
C183 C180 1.365 . S
C183 C182 1.366 . S
C183 H197 0.930 . S
C184 C181 1.378 . S
C184 N185 1.315 . S
C184 H187 0.930 . S
N185 Co165 2.194 . S
N185 C180 1.328 . S
N185 C184 1.315 . S
H186 C180 0.929 . S
H187 C184 0.930 . S
H188 C176 0.929 . S
H189 C178 0.929 . S
O190 Co165 2.351 . S
O190 C193 1.244 . S
O191 Co165 2.155 . S
O191 C193 1.240 . S
O192 Co165 2.096 . S
O192 C173 1.247 . S
C193 O190 1.244 . S
C193 O191 1.240 . S
H194 C168 0.931 . S
H195 C177 0.931 . S
H196 C181 0.929 . S
H197 C183 0.930 . S
Co198 N202 2.148 . S
Co198 N208 2.128 . S
Co198 N218 2.194 . S
Co198 O223 2.351 . S
Co198 O224 2.155 . S
Co198 O225 2.096 . S
C199 N202 1.301 . S
C199 N203 1.328 . S
C199 H204 0.930 . S
C200 C201 1.333 . S
C200 N202 1.317 . S
C200 H205 0.930 . S
C201 C200 1.333 . S
C201 N203 1.350 . S
C201 H227 0.931 . S
N202 Co198 2.148 . S
N202 C199 1.301 . S
N202 C200 1.317 . S
N203 C199 1.328 . S
N203 C201 1.350 . S
H204 C199 0.930 . S
H205 C200 0.930 . S
C206 O207 1.224 . S
C206 O225 1.247 . S
O207 C206 1.224 . S
N208 Co198 2.128 . S
N208 C209 1.355 . S
N208 C211 1.311 . S
C209 N208 1.355 . S
C209 C210 1.363 . S
C209 H221 0.929 . S
C210 C209 1.363 . S
C210 N212 1.375 . S
C210 H228 0.931 . S
C211 N208 1.311 . S
C211 N212 1.347 . S
C211 H222 0.929 . S
N212 C210 1.375 . S
N212 C211 1.347 . S
C213 C216 1.365 . S
C213 N218 1.328 . S
C213 H219 0.929 . S
C214 C215 1.362 . S
C214 C217 1.378 . S
C214 H229 0.929 . S
C215 C214 1.362 . S
C215 C216 1.366 . S
C216 C213 1.365 . S
C216 C215 1.366 . S
C216 H230 0.930 . S
C217 C214 1.378 . S
C217 N218 1.315 . S
C217 H220 0.930 . S
N218 Co198 2.194 . S
N218 C213 1.328 . S
N218 C217 1.315 . S
H219 C213 0.929 . S
H220 C217 0.930 . S
H221 C209 0.929 . S
H222 C211 0.929 . S
O223 Co198 2.351 . S
O223 C226 1.244 . S
O224 Co198 2.155 . S
O224 C226 1.240 . S
O225 Co198 2.096 . S
O225 C206 1.247 . S
C226 O223 1.244 . S
C226 O224 1.240 . S
H227 C201 0.931 . S
H228 C210 0.931 . S
H229 C214 0.929 . S
H230 C216 0.930 . S
Co231 N235 2.148 . S
Co231 N241 2.128 . S
Co231 N251 2.194 . S
Co231 O256 2.351 . S
Co231 O257 2.155 . S
Co231 O258 2.096 . S
C232 N235 1.301 . S
C232 N236 1.328 . S
C232 H237 0.930 . S
C233 C234 1.333 . S
C233 N235 1.317 . S
C233 H238 0.930 . S
C234 C233 1.333 . S
C234 N236 1.350 . S
C234 H260 0.931 . S
N235 Co231 2.148 . S
N235 C232 1.301 . S
N235 C233 1.317 . S
N236 C232 1.328 . S
N236 C234 1.350 . S
H237 C232 0.930 . S
H238 C233 0.930 . S
C239 O240 1.224 . S
C239 O258 1.247 . S
O240 C239 1.224 . S
N241 Co231 2.128 . S
N241 C242 1.355 . S
N241 C244 1.311 . S
C242 N241 1.355 . S
C242 C243 1.363 . S
C242 H254 0.929 . S
C243 C242 1.363 . S
C243 N245 1.375 1_556 S
C243 H261 0.931 1_556 S
C244 N241 1.311 . S
C244 N245 1.347 1_556 S
C244 H255 0.929 . S
N245 C243 1.375 1_554 S
N245 C244 1.347 1_554 S
C246 C249 1.365 . S
C246 N251 1.328 . S
C246 H252 0.929 . S
C247 C248 1.362 . S
C247 C250 1.378 . S
C247 H262 0.929 1_556 S
C248 C247 1.362 . S
C248 C249 1.366 . S
C249 C246 1.365 . S
C249 C248 1.366 . S
C249 H263 0.930 . S
C250 C247 1.378 . S
C250 N251 1.315 . S
C250 H253 0.930 . S
N251 Co231 2.194 . S
N251 C246 1.328 . S
N251 C250 1.315 . S
H252 C246 0.929 . S
H253 C250 0.930 . S
H254 C242 0.929 . S
H255 C244 0.929 . S
O256 Co231 2.351 . S
O256 C259 1.244 . S
O257 Co231 2.155 . S
O257 C259 1.240 . S
O258 Co231 2.096 . S
O258 C239 1.247 . S
C259 O256 1.244 . S
C259 O257 1.240 . S
H260 C234 0.931 . S
H261 C243 0.931 1_554 S
H262 C247 0.929 1_554 S
H263 C249 0.930 . S
Co264 N268 2.148 . S
Co264 N274 2.128 . S
Co264 N284 2.194 . S
Co264 O289 2.351 . S
Co264 O290 2.155 . S
Co264 O291 2.096 . S
C265 N268 1.301 . S
C265 N269 1.328 . S
C265 H270 0.930 . S
C266 C267 1.333 . S
C266 N268 1.317 . S
C266 H271 0.930 . S
C267 C266 1.333 . S
C267 N269 1.350 . S
C267 H293 0.931 . S
N268 Co264 2.148 . S
N268 C265 1.301 . S
N268 C266 1.317 . S
N269 C265 1.328 . S
N269 C267 1.350 . S
H270 C265 0.930 . S
H271 C266 0.930 . S
C272 O273 1.224 . S
C272 O291 1.247 . S
O273 C272 1.224 . S
N274 Co264 2.128 . S
N274 C275 1.355 . S
N274 C277 1.311 . S
C275 N274 1.355 . S
C275 C276 1.363 . S
C275 H287 0.929 . S
C276 C275 1.363 . S
C276 N278 1.375 . S
C276 H294 0.931 . S
C277 N274 1.311 . S
C277 N278 1.347 . S
C277 H288 0.929 . S
N278 C276 1.375 . S
N278 C277 1.347 . S
C279 C282 1.365 . S
C279 N284 1.328 . S
C279 H285 0.929 . S
C280 C281 1.362 . S
C280 C283 1.378 . S
C280 H295 0.929 . S
C281 C280 1.362 . S
C281 C282 1.366 . S
C282 C279 1.365 . S
C282 C281 1.366 . S
C282 H296 0.930 . S
C283 C280 1.378 . S
C283 N284 1.315 . S
C283 H286 0.930 . S
N284 Co264 2.194 . S
N284 C279 1.328 . S
N284 C283 1.315 . S
H285 C279 0.929 . S
H286 C283 0.930 . S
H287 C275 0.929 . S
H288 C277 0.929 . S
O289 Co264 2.351 . S
O289 C292 1.244 . S
O290 Co264 2.155 . S
O290 C292 1.240 . S
O291 Co264 2.096 . S
O291 C272 1.247 . S
C292 O289 1.244 . S
C292 O290 1.240 . S
H293 C267 0.931 . S
H294 C276 0.931 . S
H295 C280 0.929 . S
H296 C282 0.930 . S
Co297 N301 2.148 . S
Co297 N307 2.128 . S
Co297 N317 2.194 . S
Co297 O322 2.351 . S
Co297 O323 2.155 . S
Co297 O324 2.096 . S
C298 N301 1.301 . S
C298 N302 1.328 . S
C298 H303 0.930 . S
C299 C300 1.333 . S
C299 N301 1.317 . S
C299 H304 0.930 . S
C300 C299 1.333 . S
C300 N302 1.350 . S
C300 H326 0.931 . S
N301 Co297 2.148 . S
N301 C298 1.301 . S
N301 C299 1.317 . S
N302 C298 1.328 . S
N302 C300 1.350 . S
H303 C298 0.930 . S
H304 C299 0.930 . S
C305 O306 1.224 . S
C305 O324 1.247 . S
O306 C305 1.224 . S
N307 Co297 2.128 . S
N307 C308 1.355 . S
N307 C310 1.311 . S
C308 N307 1.355 . S
C308 C309 1.363 . S
C308 H320 0.929 . S
C309 C308 1.363 . S
C309 N311 1.375 1_556 S
C309 H327 0.931 1_556 S
C310 N307 1.311 . S
C310 N311 1.347 1_556 S
C310 H321 0.929 . S
N311 C309 1.375 1_554 S
N311 C310 1.347 1_554 S
C312 C315 1.365 . S
C312 N317 1.328 . S
C312 H318 0.929 . S
C313 C314 1.362 . S
C313 C316 1.378 . S
C313 H328 0.929 1_556 S
C314 C313 1.362 . S
C314 C315 1.366 . S
C315 C312 1.365 . S
C315 C314 1.366 . S
C315 H329 0.930 . S
C316 C313 1.378 . S
C316 N317 1.315 . S
C316 H319 0.930 . S
N317 Co297 2.194 . S
N317 C312 1.328 . S
N317 C316 1.315 . S
H318 C312 0.929 . S
H319 C316 0.930 . S
H320 C308 0.929 . S
H321 C310 0.929 . S
O322 Co297 2.351 . S
O322 C325 1.244 . S
O323 Co297 2.155 . S
O323 C325 1.240 . S
O324 Co297 2.096 . S
O324 C305 1.247 . S
C325 O322 1.244 . S
C325 O323 1.240 . S
H326 C300 0.931 . S
H327 C309 0.931 1_554 S
H328 C313 0.929 1_554 S
H329 C315 0.930 . S
Co330 N334 2.148 . S
Co330 N340 2.128 . S
Co330 N350 2.194 . S
Co330 O355 2.351 . S
Co330 O356 2.155 . S
Co330 O357 2.096 . S
C331 N334 1.301 . S
C331 N335 1.328 . S
C331 H336 0.930 . S
C332 C333 1.333 . S
C332 N334 1.317 . S
C332 H337 0.930 . S
C333 C332 1.333 . S
C333 N335 1.350 . S
C333 H359 0.931 . S
N334 Co330 2.148 . S
N334 C331 1.301 . S
N334 C332 1.317 . S
N335 C331 1.328 . S
N335 C333 1.350 . S
H336 C331 0.930 . S
H337 C332 0.930 . S
C338 O339 1.224 . S
C338 O357 1.247 . S
O339 C338 1.224 . S
N340 Co330 2.128 . S
N340 C341 1.355 . S
N340 C343 1.311 . S
C341 N340 1.355 . S
C341 C342 1.363 . S
C341 H353 0.929 . S
C342 C341 1.363 . S
C342 N344 1.375 . S
C342 H360 0.931 . S
C343 N340 1.311 . S
C343 N344 1.347 . S
C343 H354 0.929 . S
N344 C342 1.375 . S
N344 C343 1.347 . S
C345 C348 1.365 . S
C345 N350 1.328 . S
C345 H351 0.929 . S
C346 C347 1.362 . S
C346 C349 1.378 . S
C346 H361 0.929 . S
C347 C346 1.362 . S
C347 C348 1.366 . S
C348 C345 1.365 . S
C348 C347 1.366 . S
C348 H362 0.930 . S
C349 C346 1.378 . S
C349 N350 1.315 . S
C349 H352 0.930 . S
N350 Co330 2.194 . S
N350 C345 1.328 . S
N350 C349 1.315 . S
H351 C345 0.929 . S
H352 C349 0.930 . S
H353 C341 0.929 . S
H354 C343 0.929 . S
O355 Co330 2.351 . S
O355 C358 1.244 . S
O356 Co330 2.155 . S
O356 C358 1.240 . S
O357 Co330 2.096 . S
O357 C338 1.247 . S
C358 O355 1.244 . S
C358 O356 1.240 . S
H359 C333 0.931 . S
H360 C342 0.931 . S
H361 C346 0.929 . S
H362 C348 0.930 . S
Co363 N367 2.148 . S
Co363 N373 2.128 . S
Co363 N383 2.194 . S
Co363 O388 2.351 . S
Co363 O389 2.155 . S
Co363 O390 2.096 . S
C364 N367 1.301 . S
C364 N368 1.328 . S
C364 H369 0.930 . S
C365 C366 1.333 . S
C365 N367 1.317 . S
C365 H370 0.930 . S
C366 C365 1.333 . S
C366 N368 1.350 . S
C366 H392 0.931 . S
N367 Co363 2.148 . S
N367 C364 1.301 . S
N367 C365 1.317 . S
N368 C364 1.328 . S
N368 C366 1.350 . S
H369 C364 0.930 . S
H370 C365 0.930 . S
C371 O372 1.224 . S
C371 O390 1.247 . S
O372 C371 1.224 . S
N373 Co363 2.128 . S
N373 C374 1.355 . S
N373 C376 1.311 . S
C374 N373 1.355 . S
C374 C375 1.363 . S
C374 H386 0.929 . S
C375 C374 1.363 . S
C375 N377 1.375 1_556 S
C375 H393 0.931 1_556 S
C376 N373 1.311 . S
C376 N377 1.347 1_556 S
C376 H387 0.929 . S
N377 C375 1.375 1_554 S
N377 C376 1.347 1_554 S
C378 C381 1.365 . S
C378 N383 1.328 . S
C378 H384 0.929 . S
C379 C380 1.362 . S
C379 C382 1.378 . S
C379 H394 0.929 1_556 S
C380 C379 1.362 . S
C380 C381 1.366 . S
C381 C378 1.365 . S
C381 C380 1.366 . S
C381 H395 0.930 . S
C382 C379 1.378 . S
C382 N383 1.315 . S
C382 H385 0.930 . S
N383 Co363 2.194 . S
N383 C378 1.328 . S
N383 C382 1.315 . S
H384 C378 0.929 . S
H385 C382 0.930 . S
H386 C374 0.929 . S
H387 C376 0.929 . S
O388 Co363 2.351 . S
O388 C391 1.244 . S
O389 Co363 2.155 . S
O389 C391 1.240 . S
O390 Co363 2.096 . S
O390 C371 1.247 . S
C391 O388 1.244 . S
C391 O389 1.240 . S
H392 C366 0.931 . S
H393 C375 0.931 1_554 S
H394 C379 0.929 1_554 S
H395 C381 0.930 . S
H396 C414 0.951 . S
H397 C416 0.951 . S
H398 C418 0.950 . S
H399 C419 0.950 . S
H400 C421 0.950 . S
H401 C424 0.950 . S
H402 C425 0.950 . S
H403 C427 0.950 . S
H404 C428 0.950 . S
H405 C429 0.951 . S
H406 C431 0.951 . S
H407 C433 0.950 . S
H408 C434 0.950 . S
H409 C436 0.950 . S
H410 C439 0.950 . S
H411 C440 0.950 . S
H412 C442 0.950 . S
H413 C443 0.950 . S
C414 H396 0.951 . S
C414 C415 1.366 1_554 S
C414 C416 1.388 . S
C415 C414 1.366 1_556 S
C415 C419 1.385 . S
C416 H397 0.951 . S
C416 C414 1.388 . S
C416 C417 1.366 1_554 S
C417 C416 1.366 1_556 S
C417 C418 1.414 . S
C417 C420 1.500 . S
C418 H398 0.950 . S
C418 C417 1.414 . S
C418 C419 1.374 . S
C419 H399 0.950 . S
C419 C415 1.385 . S
C419 C418 1.374 . S
C420 C417 1.500 . S
C420 C421 1.395 . S
C420 C422 1.367 1_556 S
C421 H400 0.950 . S
C421 C420 1.395 . S
C421 C437 1.377 . S
C422 C420 1.367 1_554 S
C422 C423 1.524 . S
C422 C436 1.377 . S
C423 C422 1.524 . S
C423 C424 1.397 . S
C423 C428 1.363 . S
C424 H401 0.950 . S
C424 C423 1.397 . S
C424 C425 1.334 . S
C425 H402 0.950 . S
C425 C424 1.334 . S
C425 C426 1.287 . S
C426 C425 1.287 . S
C426 C427 1.524 . S
C426 H445 0.913 . S
C427 H403 0.950 . S
C427 C426 1.524 . S
C427 C428 1.415 . S
C428 H404 0.950 . S
C428 C423 1.363 . S
C428 C427 1.415 . S
C429 H405 0.951 . S
C429 C430 1.366 1_556 S
C429 C431 1.388 . S
C430 C429 1.366 1_554 S
C430 C434 1.385 . S
C431 H406 0.951 . S
C431 C429 1.388 . S
C431 C432 1.366 1_556 S
C432 C431 1.366 1_554 S
C432 C433 1.414 . S
C432 C435 1.500 . S
C433 H407 0.950 . S
C433 C432 1.414 . S
C433 C434 1.374 . S
C434 H408 0.950 . S
C434 C430 1.385 . S
C434 C433 1.374 . S
C435 C432 1.500 . S
C435 C436 1.395 . S
C435 C437 1.367 1_554 S
C436 H409 0.950 . S
C436 C422 1.377 . S
C436 C435 1.395 . S
C437 C421 1.377 . S
C437 C435 1.367 1_556 S
C437 C438 1.524 . S
C438 C437 1.524 . S
C438 C439 1.397 . S
C438 C443 1.363 . S
C439 H410 0.950 . S
C439 C438 1.397 . S
C439 C440 1.334 . S
C440 H411 0.950 . S
C440 C439 1.334 . S
C440 C441 1.287 . S
C441 C440 1.287 . S
C441 C442 1.524 . S
C441 H444 0.999 . S
C442 H412 0.950 . S
C442 C441 1.524 . S
C442 C443 1.415 . S
C443 H413 0.950 . S
C443 C438 1.363 . S
C443 C442 1.415 . S
H444 C441 0.999 . S
H445 C426 0.913 . S
H446 C464 0.951 . S
H447 C466 0.951 . S
H448 C468 0.950 . S
H449 C469 0.950 . S
H450 C471 0.950 . S
H451 C474 0.950 . S
H452 C475 0.950 . S
H453 C477 0.950 . S
H454 C478 0.950 . S
H455 C479 0.951 . S
H456 C481 0.951 . S
H457 C483 0.950 . S
H458 C484 0.950 . S
H459 C486 0.950 . S
H460 C489 0.950 . S
H461 C490 0.950 . S
H462 C492 0.950 . S
H463 C493 0.950 . S
C464 H446 0.951 . S
C464 C465 1.366 . S
C464 C466 1.388 . S
C465 C464 1.366 . S
C465 C469 1.385 . S
C466 H447 0.951 . S
C466 C464 1.388 . S
C466 C467 1.366 . S
C467 C466 1.366 . S
C467 C468 1.414 . S
C467 C470 1.499 . S
C468 H448 0.950 . S
C468 C467 1.414 . S
C468 C469 1.374 . S
C469 H449 0.950 . S
C469 C465 1.385 . S
C469 C468 1.374 . S
C470 C467 1.499 . S
C470 C471 1.373 . S
C470 C472 1.389 . S
C471 H450 0.950 . S
C471 C470 1.373 . S
C471 C487 1.377 1_655 S
C472 C470 1.389 . S
C472 C473 1.524 . S
C472 C486 1.377 1_655 S
C473 C472 1.524 . S
C473 C474 1.397 . S
C473 C478 1.363 . S
C474 H451 0.950 . S
C474 C473 1.397 . S
C474 C475 1.334 . S
C475 H452 0.950 . S
C475 C474 1.334 . S
C475 C476 1.287 . S
C476 C475 1.287 . S
C476 C477 1.524 . S
C476 H495 0.913 . S
C477 H453 0.950 . S
C477 C476 1.524 . S
C477 C478 1.415 . S
C478 H454 0.950 . S
C478 C473 1.363 . S
C478 C477 1.415 . S
C479 H455 0.951 . S
C479 C480 1.366 . S
C479 C481 1.388 . S
C480 C479 1.366 . S
C480 C484 1.385 . S
C481 H456 0.951 . S
C481 C479 1.388 . S
C481 C482 1.366 . S
C482 C481 1.366 . S
C482 C483 1.414 . S
C482 C485 1.499 . S
C483 H457 0.950 . S
C483 C482 1.414 . S
C483 C484 1.374 . S
C484 H458 0.950 . S
C484 C480 1.385 . S
C484 C483 1.374 . S
C485 C482 1.499 . S
C485 C486 1.373 . S
C485 C487 1.389 . S
C486 H459 0.950 . S
C486 C472 1.377 1_455 S
C486 C485 1.373 . S
C487 C471 1.377 1_455 S
C487 C485 1.389 . S
C487 C488 1.524 . S
C488 C487 1.524 . S
C488 C489 1.397 . S
C488 C493 1.363 . S
C489 H460 0.950 . S
C489 C488 1.397 . S
C489 C490 1.334 . S
C490 H461 0.950 . S
C490 C489 1.334 . S
C490 C491 1.287 . S
C491 C490 1.287 . S
C491 C492 1.524 . S
C491 H494 0.999 . S
C492 H462 0.950 . S
C492 C491 1.524 . S
C492 C493 1.415 . S
C493 H463 0.950 . S
C493 C488 1.363 . S
C493 C492 1.415 . S
H494 C491 0.999 . S
H495 C476 0.913 . S
H496 C514 0.951 . S
H497 C516 0.953 . S
H498 C518 0.950 . S
H499 C519 0.950 . S
H500 C521 0.950 . S
H501 C524 0.950 . S
H502 C525 0.950 . S
H503 C527 0.950 . S
H504 C528 0.950 . S
H505 C529 0.951 . S
H506 C531 0.953 . S
H507 C533 0.950 . S
H508 C534 0.950 . S
H509 C536 0.950 . S
H510 C539 0.950 . S
H511 C540 0.950 . S
H512 C542 0.950 . S
H513 C543 0.950 . S
C514 H496 0.951 . S
C514 C515 1.366 . S
C514 C516 1.388 . S
C515 C514 1.366 . S
C515 C519 1.385 . S
C516 H497 0.953 . S
C516 C514 1.388 . S
C516 C517 1.366 . S
C517 C516 1.366 . S
C517 C518 1.414 . S
C517 C520 1.499 . S
C518 H498 0.950 . S
C518 C517 1.414 . S
C518 C519 1.374 . S
C519 H499 0.950 . S
C519 C515 1.385 . S
C519 C518 1.374 . S
C520 C517 1.499 . S
C520 C521 1.373 1_556 S
C520 C522 1.389 . S
C521 H500 0.950 . S
C521 C520 1.373 1_554 S
C521 C537 1.377 1_545 S
C522 C520 1.389 . S
C522 C523 1.524 . S
C522 C536 1.377 1_545 S
C523 C522 1.524 . S
C523 C524 1.397 . S
C523 C528 1.363 . S
C524 H501 0.950 . S
C524 C523 1.397 . S
C524 C525 1.334 . S
C525 H502 0.950 . S
C525 C524 1.334 . S
C525 C526 1.287 . S
C526 C525 1.287 . S
C526 C527 1.524 . S
C526 H545 0.913 . S
C527 H503 0.950 . S
C527 C526 1.524 . S
C527 C528 1.415 . S
C528 H504 0.950 . S
C528 C523 1.363 . S
C528 C527 1.415 . S
C529 H505 0.951 . S
C529 C530 1.366 . S
C529 C531 1.388 . S
C530 C529 1.366 . S
C530 C534 1.385 . S
C531 H506 0.953 . S
C531 C529 1.388 . S
C531 C532 1.366 . S
C532 C531 1.366 . S
C532 C533 1.414 . S
C532 C535 1.499 . S
C533 H507 0.950 . S
C533 C532 1.414 . S
C533 C534 1.374 . S
C534 H508 0.950 . S
C534 C530 1.385 . S
C534 C533 1.374 . S
C535 C532 1.499 . S
C535 C536 1.373 1_554 S
C535 C537 1.389 . S
C536 H509 0.950 . S
C536 C522 1.377 1_565 S
C536 C535 1.373 1_556 S
C537 C521 1.377 1_565 S
C537 C535 1.389 . S
C537 C538 1.524 . S
C538 C537 1.524 . S
C538 C539 1.397 . S
C538 C543 1.363 . S
C539 H510 0.950 . S
C539 C538 1.397 . S
C539 C540 1.334 . S
C540 H511 0.950 . S
C540 C539 1.334 . S
C540 C541 1.287 . S
C541 C540 1.287 . S
C541 C542 1.524 . S
C541 H544 0.999 . S
C542 H512 0.950 . S
C542 C541 1.524 . S
C542 C543 1.415 . S
C543 H513 0.950 . S
C543 C538 1.363 . S
C543 C542 1.415 . S
H544 C541 0.999 . S
H545 C526 0.913 . S
H546 C564 0.951 . S
H547 C566 0.951 . S
H548 C568 0.950 . S
H549 C569 0.950 . S
H550 C571 0.950 . S
H551 C574 0.950 . S
H552 C575 0.950 . S
H553 C577 0.950 . S
H554 C578 0.950 . S
H555 C579 0.951 . S
H556 C581 0.951 . S
H557 C583 0.950 . S
H558 C584 0.950 . S
H559 C586 0.950 . S
H560 C589 0.950 . S
H561 C590 0.950 . S
H562 C592 0.950 . S
H563 C593 0.950 . S
C564 H546 0.951 . S
C564 C565 1.366 . S
C564 C566 1.388 . S
C565 C564 1.366 . S
C565 C569 1.385 . S
C566 H547 0.951 . S
C566 C564 1.388 . S
C566 C567 1.366 . S
C567 C566 1.366 . S
C567 C568 1.414 . S
C567 C570 1.499 . S
C568 H548 0.950 . S
C568 C567 1.414 . S
C568 C569 1.374 . S
C569 H549 0.950 . S
C569 C565 1.385 . S
C569 C568 1.374 . S
C570 C567 1.499 . S
C570 C571 1.373 . S
C570 C572 1.389 . S
C571 H550 0.950 . S
C571 C570 1.373 . S
C571 C587 1.377 . S
C572 C570 1.389 . S
C572 C573 1.524 . S
C572 C586 1.377 . S
C573 C572 1.524 . S
C573 C574 1.397 . S
C573 C578 1.363 . S
C574 H551 0.950 . S
C574 C573 1.397 . S
C574 C575 1.334 . S
C575 H552 0.950 . S
C575 C574 1.334 . S
C575 C576 1.287 . S
C576 C575 1.287 . S
C576 C577 1.524 . S
C576 H595 0.913 . S
C577 H553 0.950 . S
C577 C576 1.524 . S
C577 C578 1.415 . S
C578 H554 0.950 . S
C578 C573 1.363 . S
C578 C577 1.415 . S
C579 H555 0.951 . S
C579 C580 1.366 . S
C579 C581 1.388 . S
C580 C579 1.366 . S
C580 C584 1.385 . S
C581 H556 0.951 . S
C581 C579 1.388 . S
C581 C582 1.366 . S
C582 C581 1.366 . S
C582 C583 1.414 . S
C582 C585 1.499 . S
C583 H557 0.950 . S
C583 C582 1.414 . S
C583 C584 1.374 . S
C584 H558 0.950 . S
C584 C580 1.385 . S
C584 C583 1.374 . S
C585 C582 1.499 . S
C585 C586 1.373 . S
C585 C587 1.389 . S
C586 H559 0.950 . S
C586 C572 1.377 . S
C586 C585 1.373 . S
C587 C571 1.377 . S
C587 C585 1.389 . S
C587 C588 1.524 . S
C588 C587 1.524 . S
C588 C589 1.397 . S
C588 C593 1.363 . S
C589 H560 0.950 . S
C589 C588 1.397 . S
C589 C590 1.334 . S
C590 H561 0.950 . S
C590 C589 1.334 . S
C590 C591 1.287 . S
C591 C590 1.287 . S
C591 C592 1.524 . S
C591 H594 0.999 . S
C592 H562 0.950 . S
C592 C591 1.524 . S
C592 C593 1.415 . S
C593 H563 0.950 . S
C593 C588 1.363 . S
C593 C592 1.415 . S
H594 C591 0.999 . S
H595 C576 0.913 . S
H596 C614 0.951 . S
H597 C616 0.951 . S
H598 C618 0.950 . S
H599 C619 0.950 . S
H600 C621 0.950 . S
H601 C624 0.950 . S
H602 C625 0.950 . S
H603 C627 0.950 . S
H604 C628 0.950 1_556 S
H605 C629 0.951 . S
H606 C631 0.951 . S
H607 C633 0.950 . S
H608 C634 0.950 . S
H609 C636 0.950 . S
H610 C639 0.950 . S
H611 C640 0.950 . S
H612 C642 0.950 . S
H613 C643 0.950 1_554 S
C614 H596 0.951 . S
C614 C615 1.366 1_556 S
C614 C616 1.388 . S
C615 C614 1.366 1_554 S
C615 C619 1.385 . S
C616 H597 0.951 . S
C616 C614 1.388 . S
C616 C617 1.366 1_556 S
C617 C616 1.366 1_554 S
C617 C618 1.414 . S
C617 C620 1.499 . S
C618 H598 0.950 . S
C618 C617 1.414 . S
C618 C619 1.374 . S
C619 H599 0.950 . S
C619 C615 1.385 . S
C619 C618 1.374 . S
C620 C617 1.499 . S
C620 C621 1.373 1_554 S
C620 C622 1.389 . S
C621 H600 0.950 . S
C621 C620 1.373 1_556 S
C621 C637 1.377 1_455 S
C622 C620 1.389 . S
C622 C623 1.524 . S
C622 C636 1.377 1_455 S
C623 C622 1.524 . S
C623 C624 1.397 . S
C623 C628 1.363 . S
C624 H601 0.950 . S
C624 C623 1.397 . S
C624 C625 1.334 . S
C625 H602 0.950 . S
C625 C624 1.334 . S
C625 C626 1.287 . S
C626 C625 1.287 . S
C626 C627 1.524 . S
C626 H645 0.913 . S
C627 H603 0.950 . S
C627 C626 1.524 . S
C627 C628 1.415 . S
C628 H604 0.950 1_554 S
C628 C623 1.363 . S
C628 C627 1.415 . S
C629 H605 0.951 . S
C629 C630 1.366 1_554 S
C629 C631 1.388 . S
C630 C629 1.366 1_556 S
C630 C634 1.385 . S
C631 H606 0.951 . S
C631 C629 1.388 . S
C631 C632 1.366 1_554 S
C632 C631 1.366 1_556 S
C632 C633 1.414 . S
C632 C635 1.499 . S
C633 H607 0.950 . S
C633 C632 1.414 . S
C633 C634 1.374 . S
C634 H608 0.950 . S
C634 C630 1.385 . S
C634 C633 1.374 . S
C635 C632 1.499 . S
C635 C636 1.373 1_556 S
C635 C637 1.389 . S
C636 H609 0.950 . S
C636 C622 1.377 1_655 S
C636 C635 1.373 1_554 S
C637 C621 1.377 1_655 S
C637 C635 1.389 . S
C637 C638 1.524 . S
C638 C637 1.524 . S
C638 C639 1.397 . S
C638 C643 1.363 . S
C639 H610 0.950 . S
C639 C638 1.397 . S
C639 C640 1.334 . S
C640 H611 0.950 . S
C640 C639 1.334 . S
C640 C641 1.287 . S
C641 C640 1.287 . S
C641 C642 1.524 . S
C641 H644 0.999 . S
C642 H612 0.950 . S
C642 C641 1.524 . S
C642 C643 1.415 . S
C643 H613 0.950 1_556 S
C643 C638 1.363 . S
C643 C642 1.415 . S
H644 C641 0.999 . S
H645 C626 0.913 . S
H646 C664 0.951 . S
H647 C666 0.951 . S
H648 C668 0.950 . S
H649 C669 0.950 . S
H650 C671 0.950 . S
H651 C674 0.950 . S
H652 C675 0.950 . S
H653 C677 0.950 . S
H654 C678 0.950 . S
H655 C679 0.951 . S
H656 C681 0.951 . S
H657 C683 0.950 . S
H658 C684 0.950 . S
H659 C686 0.950 . S
H660 C689 0.950 . S
H661 C690 0.950 . S
H662 C692 0.950 . S
H663 C693 0.950 . S
C664 H646 0.951 . S
C664 C665 1.366 . S
C664 C666 1.388 . S
C665 C664 1.366 . S
C665 C669 1.385 . S
C666 H647 0.951 . S
C666 C664 1.388 . S
C666 C667 1.366 . S
C667 C666 1.366 . S
C667 C668 1.414 . S
C667 C670 1.499 . S
C668 H648 0.950 . S
C668 C667 1.414 . S
C668 C669 1.374 . S
C669 H649 0.950 . S
C669 C665 1.385 . S
C669 C668 1.374 . S
C670 C667 1.499 . S
C670 C671 1.373 . S
C670 C672 1.389 . S
C671 H650 0.950 . S
C671 C670 1.373 . S
C671 C687 1.377 1_565 S
C672 C670 1.389 . S
C672 C673 1.524 . S
C672 C686 1.377 1_565 S
C673 C672 1.524 . S
C673 C674 1.397 . S
C673 C678 1.363 . S
C674 H651 0.950 . S
C674 C673 1.397 . S
C674 C675 1.334 . S
C675 H652 0.950 . S
C675 C674 1.334 . S
C675 C676 1.287 . S
C676 C675 1.287 . S
C676 C677 1.524 . S
C676 H695 0.913 . S
C677 H653 0.950 . S
C677 C676 1.524 . S
C677 C678 1.415 . S
C678 H654 0.950 . S
C678 C673 1.363 . S
C678 C677 1.415 . S
C679 H655 0.951 . S
C679 C680 1.366 . S
C679 C681 1.388 . S
C680 C679 1.366 . S
C680 C684 1.385 . S
C681 H656 0.951 . S
C681 C679 1.388 . S
C681 C682 1.366 . S
C682 C681 1.366 . S
C682 C683 1.414 . S
C682 C685 1.499 . S
C683 H657 0.950 . S
C683 C682 1.414 . S
C683 C684 1.374 . S
C684 H658 0.950 . S
C684 C680 1.385 . S
C684 C683 1.374 . S
C685 C682 1.499 . S
C685 C686 1.373 . S
C685 C687 1.389 . S
C686 H659 0.950 . S
C686 C672 1.377 1_545 S
C686 C685 1.373 . S
C687 C671 1.377 1_545 S
C687 C685 1.389 . S
C687 C688 1.524 . S
C688 C687 1.524 . S
C688 C689 1.397 . S
C688 C693 1.363 . S
C689 H660 0.950 . S
C689 C688 1.397 . S
C689 C690 1.334 . S
C690 H661 0.950 . S
C690 C689 1.334 . S
C690 C691 1.287 . S
C691 C690 1.287 . S
C691 C692 1.524 . S
C691 H694 0.999 . S
C692 H662 0.950 . S
C692 C691 1.524 . S
C692 C693 1.415 . S
C693 H663 0.950 . S
C693 C688 1.363 . S
C693 C692 1.415 . S
H694 C691 0.999 . S
H695 C676 0.913 . S
H696 C714 0.951 . S
H697 C716 0.951 . S
H698 C718 0.950 . S
H699 C719 0.950 . S
H700 C721 0.950 . S
H701 C724 0.950 . S
H702 C725 0.950 . S
H703 C727 0.950 . S
H704 C728 0.950 . S
H705 C729 0.951 . S
H706 C731 0.951 . S
H707 C733 0.950 1_556 S
H708 C734 0.950 . S
H709 C736 0.950 . S
H710 C739 0.950 . S
H711 C740 0.950 . S
H712 C742 0.950 . S
H713 C743 0.950 . S
C714 H696 0.951 . S
C714 C715 1.366 . S
C714 C716 1.388 . S
C715 C714 1.366 . S
C715 C719 1.385 1_556 S
C716 H697 0.951 . S
C716 C714 1.388 . S
C716 C717 1.366 . S
C717 C716 1.366 . S
C717 C718 1.414 1_556 S
C717 C720 1.499 1_556 S
C718 H698 0.950 . S
C718 C717 1.414 1_554 S
C718 C719 1.374 . S
C719 H699 0.950 . S
C719 C715 1.385 1_554 S
C719 C718 1.374 . S
C720 C717 1.499 1_554 S
C720 C721 1.373 . S
C720 C722 1.389 1_554 S
C721 H700 0.950 . S
C721 C720 1.373 . S
C721 C737 1.377 . S
C722 C720 1.389 1_556 S
C722 C723 1.524 . S
C722 C736 1.377 . S
C723 C722 1.524 . S
C723 C724 1.397 . S
C723 C728 1.363 . S
C724 H701 0.950 . S
C724 C723 1.397 . S
C724 C725 1.334 . S
C725 H702 0.950 . S
C725 C724 1.334 . S
C725 C726 1.287 . S
C726 C725 1.287 . S
C726 C727 1.524 . S
C726 H745 0.913 . S
C727 H703 0.950 . S
C727 C726 1.524 . S
C727 C728 1.415 . S
C728 H704 0.950 . S
C728 C723 1.363 . S
C728 C727 1.415 . S
C729 H705 0.951 . S
C729 C730 1.366 . S
C729 C731 1.388 . S
C730 C729 1.366 . S
C730 C734 1.385 . S
C731 H706 0.951 . S
C731 C729 1.388 . S
C731 C732 1.366 . S
C732 C731 1.366 . S
C732 C733 1.414 . S
C732 C735 1.499 . S
C733 H707 0.950 1_554 S
C733 C732 1.414 . S
C733 C734 1.374 . S
C734 H708 0.950 . S
C734 C730 1.385 . S
C734 C733 1.374 . S
C735 C732 1.499 . S
C735 C736 1.373 1_554 S
C735 C737 1.389 . S
C736 H709 0.950 . S
C736 C722 1.377 . S
C736 C735 1.373 1_556 S
C737 C721 1.377 . S
C737 C735 1.389 . S
C737 C738 1.524 . S
C738 C737 1.524 . S
C738 C739 1.397 . S
C738 C743 1.363 . S
C739 H710 0.950 . S
C739 C738 1.397 . S
C739 C740 1.334 . S
C740 H711 0.950 . S
C740 C739 1.334 . S
C740 C741 1.287 . S
C741 C740 1.287 . S
C741 C742 1.524 . S
C741 H744 0.999 . S
C742 H712 0.950 . S
C742 C741 1.524 . S
C742 C743 1.415 . S
C743 H713 0.950 . S
C743 C738 1.363 . S
C743 C742 1.415 . S
H744 C741 0.999 . S
H745 C726 0.913 . S
H746 C764 0.951 . S
H747 C766 0.951 . S
H748 C768 0.950 . S
H749 C769 0.950 . S
H750 C771 0.950 . S
H751 C774 0.950 . S
H752 C775 0.950 . S
H753 C777 0.950 . S
H754 C778 0.950 . S
H755 C779 0.951 . S
H756 C781 0.951 . S
H757 C783 0.950 . S
H758 C784 0.950 . S
H759 C786 0.950 . S
H760 C789 0.950 . S
H761 C790 0.950 . S
H762 C792 0.950 . S
H763 C793 0.950 . S
C764 H746 0.951 . S
C764 C765 1.366 . S
C764 C766 1.388 . S
C765 C764 1.366 . S
C765 C769 1.385 . S
C766 H747 0.951 . S
C766 C764 1.388 . S
C766 C767 1.366 . S
C767 C766 1.366 . S
C767 C768 1.414 . S
C767 C770 1.499 . S
C768 H748 0.950 . S
C768 C767 1.414 . S
C768 C769 1.374 . S
C769 H749 0.950 . S
C769 C765 1.385 . S
C769 C768 1.374 . S
C770 C767 1.499 . S
C770 C771 1.373 . S
C770 C772 1.389 . S
C771 H750 0.950 . S
C771 C770 1.373 . S
C771 C787 1.377 . S
C772 C770 1.389 . S
C772 C773 1.524 . S
C772 C786 1.377 . S
C773 C772 1.524 . S
C773 C774 1.397 . S
C773 C778 1.363 . S
C774 H751 0.950 . S
C774 C773 1.397 . S
C774 C775 1.334 . S
C775 H752 0.950 . S
C775 C774 1.334 . S
C775 C776 1.287 . S
C776 C775 1.287 . S
C776 C777 1.524 . S
C776 H795 0.913 . S
C777 H753 0.950 . S
C777 C776 1.524 . S
C777 C778 1.415 . S
C778 H754 0.950 . S
C778 C773 1.363 . S
C778 C777 1.415 . S
C779 H755 0.951 . S
C779 C780 1.366 . S
C779 C781 1.388 . S
C780 C779 1.366 . S
C780 C784 1.385 . S
C781 H756 0.951 . S
C781 C779 1.388 . S
C781 C782 1.366 . S
C782 C781 1.366 . S
C782 C783 1.414 . S
C782 C785 1.499 . S
C783 H757 0.950 . S
C783 C782 1.414 . S
C783 C784 1.374 . S
C784 H758 0.950 . S
C784 C780 1.385 . S
C784 C783 1.374 . S
C785 C782 1.499 . S
C785 C786 1.373 . S
C785 C787 1.389 . S
C786 H759 0.950 . S
C786 C772 1.377 . S
C786 C785 1.373 . S
C787 C771 1.377 . S
C787 C785 1.389 . S
C787 C788 1.524 . S
C788 C787 1.524 . S
C788 C789 1.397 . S
C788 C793 1.363 . S
C789 H760 0.950 . S
C789 C788 1.397 . S
C789 C790 1.334 . S
C790 H761 0.950 . S
C790 C789 1.334 . S
C790 C791 1.287 . S
C791 C790 1.287 . S
C791 C792 1.524 . S
C791 H794 0.999 . S
C792 H762 0.950 . S
C792 C791 1.524 . S
C792 C793 1.415 . S
C793 H763 0.950 . S
C793 C788 1.363 . S
C793 C792 1.415 . S
H794 C791 0.999 . S
H795 C776 0.913 . S
H796 C814 0.951 . S
H797 C816 0.951 . S
H798 C818 0.950 . S
H799 C819 0.950 1_554 S
H800 C821 0.950 . S
H801 C824 0.950 . S
H802 C825 0.950 . S
H803 C827 0.950 . S
H804 C828 0.950 . S
H805 C829 0.951 . S
H806 C831 0.951 . S
H807 C833 0.950 . S
H808 C834 0.950 . S
H809 C836 0.950 . S
H810 C839 0.950 . S
H811 C840 0.950 . S
H812 C842 0.950 . S
H813 C843 0.950 . S
C814 H796 0.951 . S
C814 C815 1.366 . S
C814 C816 1.388 . S
C815 C814 1.366 . S
C815 C819 1.385 . S
C816 H797 0.951 . S
C816 C814 1.388 . S
C816 C817 1.366 . S
C817 C816 1.366 . S
C817 C818 1.414 1_556 S
C817 C820 1.499 1_556 S
C818 H798 0.950 . S
C818 C817 1.414 1_554 S
C818 C819 1.374 1_554 S
C819 H799 0.950 1_556 S
C819 C815 1.385 . S
C819 C818 1.374 1_556 S
C820 C817 1.499 1_554 S
C820 C821 1.373 . S
C820 C822 1.389 1_554 S
C821 H800 0.950 . S
C821 C820 1.373 . S
C821 C837 1.377 . S
C822 C820 1.389 1_556 S
C822 C823 1.524 . S
C822 C836 1.377 . S
C823 C822 1.524 . S
C823 C824 1.397 . S
C823 C828 1.363 . S
C824 H801 0.950 . S
C824 C823 1.397 . S
C824 C825 1.334 . S
C825 H802 0.950 . S
C825 C824 1.334 . S
C825 C826 1.287 . S
C826 C825 1.287 . S
C826 C827 1.524 . S
C826 H845 0.913 . S
C827 H803 0.950 . S
C827 C826 1.524 . S
C827 C828 1.415 . S
C828 H804 0.950 . S
C828 C823 1.363 . S
C828 C827 1.415 . S
C829 H805 0.951 . S
C829 C830 1.366 . S
C829 C831 1.388 . S
C830 C829 1.366 . S
C830 C834 1.385 . S
C831 H806 0.951 . S
C831 C829 1.388 . S
C831 C832 1.366 . S
C832 C831 1.366 . S
C832 C833 1.414 . S
C832 C835 1.499 . S
C833 H807 0.950 . S
C833 C832 1.414 . S
C833 C834 1.374 . S
C834 H808 0.950 . S
C834 C830 1.385 . S
C834 C833 1.374 . S
C835 C832 1.499 . S
C835 C836 1.373 1_554 S
C835 C837 1.389 . S
C836 H809 0.950 . S
C836 C822 1.377 . S
C836 C835 1.373 1_556 S
C837 C821 1.377 . S
C837 C835 1.389 . S
C837 C838 1.524 . S
C838 C837 1.524 . S
C838 C839 1.397 . S
C838 C843 1.363 . S
C839 H810 0.950 . S
C839 C838 1.397 . S
C839 C840 1.334 . S
C840 H811 0.950 . S
C840 C839 1.334 . S
C840 C841 1.287 . S
C841 C840 1.287 . S
C841 C842 1.524 . S
C841 H844 0.999 . S
C842 H812 0.950 . S
C842 C841 1.524 . S
C842 C843 1.415 . S
C843 H813 0.950 . S
C843 C838 1.363 . S
C843 C842 1.415 . S
H844 C841 0.999 . S
H845 C826 0.913 . S
H846 C864 0.951 . S
H847 C866 0.951 . S
H848 C868 0.950 . S
H849 C869 0.950 . S
H850 C871 0.950 . S
H851 C874 0.950 . S
H852 C875 0.950 . S
H853 C877 0.950 . S
H854 C878 0.950 . S
H855 C879 0.951 . S
H856 C881 0.951 . S
H857 C883 0.950 . S
H858 C884 0.950 . S
H859 C886 0.950 . S
H860 C889 0.950 . S
H861 C890 0.950 . S
H862 C892 0.950 . S
H863 C893 0.950 . S
C864 H846 0.951 . S
C864 C865 1.366 . S
C864 C866 1.388 . S
C865 C864 1.366 . S
C865 C869 1.385 . S
C866 H847 0.951 . S
C866 C864 1.388 . S
C866 C867 1.366 . S
C867 C866 1.366 . S
C867 C868 1.414 . S
C867 C870 1.499 . S
C868 H848 0.950 . S
C868 C867 1.414 . S
C868 C869 1.374 . S
C869 H849 0.950 . S
C869 C865 1.385 . S
C869 C868 1.374 . S
C870 C867 1.499 . S
C870 C871 1.373 . S
C870 C872 1.389 . S
C871 H850 0.950 . S
C871 C870 1.373 . S
C871 C887 1.377 . S
C872 C870 1.389 . S
C872 C873 1.524 . S
C872 C886 1.377 . S
C873 C872 1.524 . S
C873 C874 1.397 . S
C873 C878 1.363 . S
C874 H851 0.950 . S
C874 C873 1.397 . S
C874 C875 1.334 . S
C875 H852 0.950 . S
C875 C874 1.334 . S
C875 C876 1.287 . S
C876 C875 1.287 . S
C876 C877 1.524 . S
C876 H895 0.913 . S
C877 H853 0.950 . S
C877 C876 1.524 . S
C877 C878 1.415 . S
C878 H854 0.950 . S
C878 C873 1.363 . S
C878 C877 1.415 . S
C879 H855 0.951 . S
C879 C880 1.366 . S
C879 C881 1.388 . S
C880 C879 1.366 . S
C880 C884 1.385 . S
C881 H856 0.951 . S
C881 C879 1.388 . S
C881 C882 1.366 . S
C882 C881 1.366 . S
C882 C883 1.414 . S
C882 C885 1.499 . S
C883 H857 0.950 . S
C883 C882 1.414 . S
C883 C884 1.374 . S
C884 H858 0.950 . S
C884 C880 1.385 . S
C884 C883 1.374 . S
C885 C882 1.499 . S
C885 C886 1.373 . S
C885 C887 1.389 . S
C886 H859 0.950 . S
C886 C872 1.377 . S
C886 C885 1.373 . S
C887 C871 1.377 . S
C887 C885 1.389 . S
C887 C888 1.524 . S
C888 C887 1.524 . S
C888 C889 1.397 . S
C888 C893 1.363 . S
C889 H860 0.950 . S
C889 C888 1.397 . S
C889 C890 1.334 . S
C890 H861 0.950 . S
C890 C889 1.334 . S
C890 C891 1.287 . S
C891 C890 1.287 . S
C891 C892 1.524 . S
C891 H894 0.999 . S
C892 H862 0.950 . S
C892 C891 1.524 . S
C892 C893 1.415 . S
C893 H863 0.950 . S
C893 C888 1.363 . S
C893 C892 1.415 . S
H894 C891 0.999 . S
H895 C876 0.913 . S
H896 C914 0.951 . S
H897 C916 0.951 . S
H898 C918 0.919 1_556 S
H899 C919 0.950 1_556 S
H900 C921 0.950 . S
H901 C924 0.950 . S
H902 C925 0.950 . S
H903 C927 0.950 . S
H904 C928 0.950 . S
H905 C929 0.951 . S
H906 C931 0.951 . S
H907 C933 0.950 . S
H908 C934 0.950 . S
H909 C936 0.950 . S
H910 C939 0.950 . S
H911 C940 0.950 . S
H912 C942 0.950 . S
H913 C943 0.950 . S
C914 H896 0.951 . S
C914 C915 1.366 . S
C914 C916 1.388 . S
C915 C914 1.366 . S
C915 C919 1.385 . S
C916 H897 0.951 . S
C916 C914 1.388 . S
C916 C917 1.366 . S
C917 C916 1.366 . S
C917 C918 1.438 . S
C917 C920 1.499 . S
C918 H898 0.919 1_554 S
C918 C917 1.438 . S
C918 C919 1.381 . S
C919 H899 0.950 1_554 S
C919 C915 1.385 . S
C919 C918 1.381 . S
C920 C917 1.499 . S
C920 C921 1.373 1_554 S
C920 C922 1.389 . S
C921 H900 0.950 . S
C921 C920 1.373 1_556 S
C921 C937 1.377 . S
C922 C920 1.389 . S
C922 C923 1.524 . S
C922 C936 1.377 . S
C923 C922 1.524 . S
C923 C924 1.397 . S
C923 C928 1.363 . S
C924 H901 0.950 . S
C924 C923 1.397 . S
C924 C925 1.334 . S
C925 H902 0.950 . S
C925 C924 1.334 . S
C925 C926 1.287 . S
C926 C925 1.287 . S
C926 C927 1.524 . S
C926 H945 0.913 . S
C927 H903 0.950 . S
C927 C926 1.524 . S
C927 C928 1.415 . S
C928 H904 0.950 . S
C928 C923 1.363 . S
C928 C927 1.415 . S
C929 H905 0.951 . S
C929 C930 1.366 . S
C929 C931 1.388 . S
C930 C929 1.366 . S
C930 C934 1.385 1_556 S
C931 H906 0.951 . S
C931 C929 1.388 . S
C931 C932 1.366 . S
C932 C931 1.366 . S
C932 C933 1.414 1_556 S
C932 C935 1.499 1_556 S
C933 H907 0.950 . S
C933 C932 1.414 1_554 S
C933 C934 1.374 . S
C934 H908 0.950 . S
C934 C930 1.385 1_554 S
C934 C933 1.374 . S
C935 C932 1.499 1_554 S
C935 C936 1.373 . S
C935 C937 1.389 1_554 S
C936 H909 0.950 . S
C936 C922 1.377 . S
C936 C935 1.373 . S
C937 C921 1.377 . S
C937 C935 1.389 1_556 S
C937 C938 1.524 . S
C938 C937 1.524 . S
C938 C939 1.397 . S
C938 C943 1.363 . S
C939 H910 0.950 . S
C939 C938 1.397 . S
C939 C940 1.334 . S
C940 H911 0.950 . S
C940 C939 1.334 . S
C940 C941 1.287 . S
C941 C940 1.287 . S
C941 C942 1.524 . S
C941 H944 0.999 . S
C942 H912 0.950 . S
C942 C941 1.524 . S
C942 C943 1.415 . S
C943 H913 0.950 . S
C943 C938 1.363 . S
C943 C942 1.415 . S
H944 C941 0.999 . S
H945 C926 0.913 . S
H946 C964 0.951 . S
H947 C966 0.951 . S
H948 C968 0.950 . S
H949 C969 0.950 . S
H950 C971 0.950 . S
H951 C974 0.950 . S
H952 C975 0.950 . S
H953 C977 0.950 . S
H954 C978 0.950 . S
H955 C979 0.951 . S
H956 C981 0.951 . S
H957 C983 0.950 . S
H958 C984 0.950 . S
H959 C986 0.950 . S
H960 C989 0.950 . S
H961 C990 0.950 . S
H962 C992 0.950 . S
H963 C993 0.950 . S
C964 H946 0.951 . S
C964 C965 1.366 . S
C964 C966 1.388 . S
C965 C964 1.366 . S
C965 C969 1.385 . S
C966 H947 0.951 . S
C966 C964 1.388 . S
C966 C967 1.366 . S
C967 C966 1.366 . S
C967 C968 1.414 . S
C967 C970 1.499 . S
C968 H948 0.950 . S
C968 C967 1.414 . S
C968 C969 1.374 . S
C969 H949 0.950 . S
C969 C965 1.385 . S
C969 C968 1.374 . S
C970 C967 1.499 . S
C970 C971 1.373 . S
C970 C972 1.389 . S
C971 H950 0.950 . S
C971 C970 1.373 . S
C971 C987 1.377 . S
C972 C970 1.389 . S
C972 C973 1.524 . S
C972 C986 1.377 . S
C973 C972 1.524 . S
C973 C974 1.397 . S
C973 C978 1.363 . S
C974 H951 0.950 . S
C974 C973 1.397 . S
C974 C975 1.334 . S
C975 H952 0.950 . S
C975 C974 1.334 . S
C975 C976 1.287 . S
C976 C975 1.287 . S
C976 C977 1.524 . S
C976 H995 0.913 . S
C977 H953 0.950 . S
C977 C976 1.524 . S
C977 C978 1.415 . S
C978 H954 0.950 . S
C978 C973 1.363 . S
C978 C977 1.415 . S
C979 H955 0.951 . S
C979 C980 1.366 . S
C979 C981 1.388 . S
C980 C979 1.366 . S
C980 C984 1.385 . S
C981 H956 0.951 . S
C981 C979 1.388 . S
C981 C982 1.366 . S
C982 C981 1.366 . S
C982 C983 1.414 . S
C982 C985 1.499 . S
C983 H957 0.950 . S
C983 C982 1.414 . S
C983 C984 1.374 . S
C984 H958 0.950 . S
C984 C980 1.385 . S
C984 C983 1.374 . S
C985 C982 1.499 . S
C985 C986 1.373 . S
C985 C987 1.389 . S
C986 H959 0.950 . S
C986 C972 1.377 . S
C986 C985 1.373 . S
C987 C971 1.377 . S
C987 C985 1.389 . S
C987 C988 1.524 . S
C988 C987 1.524 . S
C988 C989 1.397 . S
C988 C993 1.363 . S
C989 H960 0.950 . S
C989 C988 1.397 . S
C989 C990 1.334 . S
C990 H961 0.950 . S
C990 C989 1.334 . S
C990 C991 1.287 . S
C991 C990 1.287 . S
C991 C992 1.524 . S
C991 H994 0.999 . S
C992 H962 0.950 . S
C992 C991 1.524 . S
C992 C993 1.415 . S
C993 H963 0.950 . S
C993 C988 1.363 . S
C993 C992 1.415 . S
H994 C991 0.999 . S
H995 C976 0.913 . S
H996 C1014 0.951 . S
H997 C1016 0.951 . S
H998 C1018 0.950 . S
H999 C1019 0.950 . S
H1000 C1021 0.950 . S
H1001 C1024 0.950 . S
H1002 C1025 0.950 . S
H1003 C1027 0.950 . S
H1004 C1028 0.950 . S
H1005 C1029 0.951 . S
H1006 C1031 0.951 . S
H1007 C1033 0.950 . S
H1008 C1034 0.950 . S
H1009 C1036 0.950 . S
H1010 C1039 0.950 . S
H1011 C1040 0.950 . S
H1012 C1042 0.950 . S
H1013 C1043 0.950 . S
C1014 H996 0.951 . S
C1014 C1015 1.366 . S
C1014 C1016 1.388 . S
C1015 C1014 1.366 . S
C1015 C1019 1.385 . S
C1016 H997 0.951 . S
C1016 C1014 1.388 . S
C1016 C1017 1.366 . S
C1017 C1016 1.366 . S
C1017 C1018 1.414 . S
C1017 C1020 1.499 . S
C1018 H998 0.950 . S
C1018 C1017 1.414 . S
C1018 C1019 1.374 . S
C1019 H999 0.950 . S
C1019 C1015 1.385 . S
C1019 C1018 1.374 . S
C1020 C1017 1.499 . S
C1020 C1021 1.373 . S
C1020 C1022 1.389 . S
C1021 H1000 0.950 . S
C1021 C1020 1.373 . S
C1021 C1037 1.377 . S
C1022 C1020 1.389 . S
C1022 C1023 1.524 . S
C1022 C1036 1.377 . S
C1023 C1022 1.524 . S
C1023 C1024 1.397 . S
C1023 C1028 1.363 . S
C1024 H1001 0.950 . S
C1024 C1023 1.397 . S
C1024 C1025 1.334 . S
C1025 H1002 0.950 . S
C1025 C1024 1.334 . S
C1025 C1026 1.287 . S
C1026 C1025 1.287 . S
C1026 C1027 1.524 . S
C1026 H1045 0.913 . S
C1027 H1003 0.950 . S
C1027 C1026 1.524 . S
C1027 C1028 1.415 . S
C1028 H1004 0.950 . S
C1028 C1023 1.363 . S
C1028 C1027 1.415 . S
C1029 H1005 0.951 . S
C1029 C1030 1.366 . S
C1029 C1031 1.388 . S
C1030 C1029 1.366 . S
C1030 C1034 1.385 . S
C1031 H1006 0.951 . S
C1031 C1029 1.388 . S
C1031 C1032 1.366 . S
C1032 C1031 1.366 . S
C1032 C1033 1.414 . S
C1032 C1035 1.499 . S
C1033 H1007 0.950 . S
C1033 C1032 1.414 . S
C1033 C1034 1.374 . S
C1034 H1008 0.950 . S
C1034 C1030 1.385 . S
C1034 C1033 1.374 . S
C1035 C1032 1.499 . S
C1035 C1036 1.373 . S
C1035 C1037 1.389 . S
C1036 H1009 0.950 . S
C1036 C1022 1.377 . S
C1036 C1035 1.373 . S
C1037 C1021 1.377 . S
C1037 C1035 1.389 . S
C1037 C1038 1.524 . S
C1038 C1037 1.524 . S
C1038 C1039 1.397 . S
C1038 C1043 1.363 . S
C1039 H1010 0.950 . S
C1039 C1038 1.397 . S
C1039 C1040 1.334 . S
C1040 H1011 0.950 . S
C1040 C1039 1.334 . S
C1040 C1041 1.287 . S
C1041 C1040 1.287 . S
C1041 C1042 1.524 . S
C1041 H1044 0.999 . S
C1042 H1012 0.950 . S
C1042 C1041 1.524 . S
C1042 C1043 1.415 . S
C1043 H1013 0.950 . S
C1043 C1038 1.363 . S
C1043 C1042 1.415 . S
H1044 C1041 0.999 . S
H1045 C1026 0.913 . S
H1046 C1064 0.946 1_556 S
H1047 C1066 0.951 . S
H1048 C1068 0.950 . S
H1049 C1069 0.950 . S
H1050 C1071 0.950 . S
H1051 C1074 0.950 . S
H1052 C1075 0.950 . S
H1053 C1077 0.950 . S
H1054 C1078 0.950 . S
H1055 C1079 0.951 . S
H1056 C1081 0.951 . S
H1057 C1083 0.950 . S
H1058 C1084 0.950 . S
H1059 C1086 0.950 . S
H1060 C1089 0.950 . S
H1061 C1090 0.950 . S
H1062 C1092 0.950 . S
H1063 C1093 0.950 . S
C1064 H1046 0.946 1_554 S
C1064 C1065 1.375 . S
C1064 C1066 1.384 1_554 S
C1065 C1064 1.375 . S
C1065 C1069 1.385 . S
C1066 H1047 0.951 . S
C1066 C1064 1.384 1_556 S
C1066 C1067 1.366 1_556 S
C1067 C1066 1.366 1_554 S
C1067 C1068 1.414 . S
C1067 C1070 1.499 1_554 S
C1068 H1048 0.950 . S
C1068 C1067 1.414 . S
C1068 C1069 1.374 . S
C1069 H1049 0.950 . S
C1069 C1065 1.385 . S
C1069 C1068 1.374 . S
C1070 C1067 1.499 1_556 S
C1070 C1071 1.373 1_556 S
C1070 C1072 1.389 . S
C1071 H1050 0.950 . S
C1071 C1070 1.373 1_554 S
C1071 C1087 1.377 . S
C1072 C1070 1.389 . S
C1072 C1073 1.524 . S
C1072 C1086 1.377 . S
C1073 C1072 1.524 . S
C1073 C1074 1.397 . S
C1073 C1078 1.363 . S
C1074 H1051 0.950 . S
C1074 C1073 1.397 . S
C1074 C1075 1.334 . S
C1075 H1052 0.950 . S
C1075 C1074 1.334 . S
C1075 C1076 1.287 . S
C1076 C1075 1.287 . S
C1076 C1077 1.524 . S
C1076 H1095 0.913 . S
C1077 H1053 0.950 . S
C1077 C1076 1.524 . S
C1077 C1078 1.415 . S
C1078 H1054 0.950 . S
C1078 C1073 1.363 . S
C1078 C1077 1.415 . S
C1079 H1055 0.951 . S
C1079 C1080 1.366 . S
C1079 C1081 1.388 . S
C1080 C1079 1.366 . S
C1080 C1084 1.385 . S
C1081 H1056 0.951 . S
C1081 C1079 1.388 . S
C1081 C1082 1.366 . S
C1082 C1081 1.366 . S
C1082 C1083 1.414 . S
C1082 C1085 1.499 . S
C1083 H1057 0.950 . S
C1083 C1082 1.414 . S
C1083 C1084 1.374 . S
C1084 H1058 0.950 . S
C1084 C1080 1.385 . S
C1084 C1083 1.374 . S
C1085 C1082 1.499 . S
C1085 C1086 1.373 . S
C1085 C1087 1.389 1_556 S
C1086 H1059 0.950 . S
C1086 C1072 1.377 . S
C1086 C1085 1.373 . S
C1087 C1071 1.377 . S
C1087 C1085 1.389 1_554 S
C1087 C1088 1.524 . S
C1088 C1087 1.524 . S
C1088 C1089 1.397 . S
C1088 C1093 1.363 . S
C1089 H1060 0.950 . S
C1089 C1088 1.397 . S
C1089 C1090 1.334 . S
C1090 H1061 0.950 . S
C1090 C1089 1.334 . S
C1090 C1091 1.287 . S
C1091 C1090 1.287 . S
C1091 C1092 1.524 . S
C1091 H1094 0.999 . S
C1092 H1062 0.950 . S
C1092 C1091 1.524 . S
C1092 C1093 1.415 . S
C1093 H1063 0.950 . S
C1093 C1088 1.363 . S
C1093 C1092 1.415 . S
H1094 C1091 0.999 . S
H1095 C1076 0.913 . S
H1096 C1114 0.951 . S
H1097 C1116 0.951 . S
H1098 C1118 0.950 . S
H1099 C1119 0.950 . S
H1100 C1121 0.950 . S
H1101 C1124 0.950 . S
H1102 C1125 0.950 . S
H1103 C1127 0.950 . S
H1104 C1128 0.950 . S
H1105 C1129 0.951 . S
H1106 C1131 0.951 . S
H1107 C1133 0.950 . S
H1108 C1134 0.950 . S
H1109 C1136 0.950 . S
H1110 C1139 0.950 . S
H1111 C1140 0.950 . S
H1112 C1142 0.950 . S
H1113 C1143 0.950 . S
C1114 H1096 0.951 . S
C1114 C1115 1.366 . S
C1114 C1116 1.388 . S
C1115 C1114 1.366 . S
C1115 C1119 1.385 . S
C1116 H1097 0.951 . S
C1116 C1114 1.388 . S
C1116 C1117 1.366 . S
C1117 C1116 1.366 . S
C1117 C1118 1.414 . S
C1117 C1120 1.499 . S
C1118 H1098 0.950 . S
C1118 C1117 1.414 . S
C1118 C1119 1.374 . S
C1119 H1099 0.950 . S
C1119 C1115 1.385 . S
C1119 C1118 1.374 . S
C1120 C1117 1.499 . S
C1120 C1121 1.373 . S
C1120 C1122 1.389 . S
C1121 H1100 0.950 . S
C1121 C1120 1.373 . S
C1121 C1137 1.377 . S
C1122 C1120 1.389 . S
C1122 C1123 1.524 . S
C1122 C1136 1.377 . S
C1123 C1122 1.524 . S
C1123 C1124 1.397 . S
C1123 C1128 1.363 . S
C1124 H1101 0.950 . S
C1124 C1123 1.397 . S
C1124 C1125 1.334 . S
C1125 H1102 0.950 . S
C1125 C1124 1.334 . S
C1125 C1126 1.287 . S
C1126 C1125 1.287 . S
C1126 C1127 1.524 . S
C1126 H1145 0.913 . S
C1127 H1103 0.950 . S
C1127 C1126 1.524 . S
C1127 C1128 1.415 . S
C1128 H1104 0.950 . S
C1128 C1123 1.363 . S
C1128 C1127 1.415 . S
C1129 H1105 0.951 . S
C1129 C1130 1.366 . S
C1129 C1131 1.388 . S
C1130 C1129 1.366 . S
C1130 C1134 1.385 . S
C1131 H1106 0.951 . S
C1131 C1129 1.388 . S
C1131 C1132 1.366 . S
C1132 C1131 1.366 . S
C1132 C1133 1.414 . S
C1132 C1135 1.499 . S
C1133 H1107 0.950 . S
C1133 C1132 1.414 . S
C1133 C1134 1.374 . S
C1134 H1108 0.950 . S
C1134 C1130 1.385 . S
C1134 C1133 1.374 . S
C1135 C1132 1.499 . S
C1135 C1136 1.373 . S
C1135 C1137 1.389 . S
C1136 H1109 0.950 . S
C1136 C1122 1.377 . S
C1136 C1135 1.373 . S
C1137 C1121 1.377 . S
C1137 C1135 1.389 . S
C1137 C1138 1.524 . S
C1138 C1137 1.524 . S
C1138 C1139 1.397 . S
C1138 C1143 1.363 . S
C1139 H1110 0.950 . S
C1139 C1138 1.397 . S
C1139 C1140 1.334 . S
C1140 H1111 0.950 . S
C1140 C1139 1.334 . S
C1140 C1141 1.287 . S
C1141 C1140 1.287 . S
C1141 C1142 1.524 . S
C1141 H1144 0.999 . S
C1142 H1112 0.950 . S
C1142 C1141 1.524 . S
C1142 C1143 1.415 . S
C1143 H1113 0.950 . S
C1143 C1138 1.363 . S
C1143 C1142 1.415 . S
H1144 C1141 0.999 . S
H1145 C1126 0.913 . S
H1146 C1164 0.951 . S
H1147 C1166 0.951 . S
H1148 C1168 0.950 1_554 S
H1149 C1169 0.961 . S
H1150 C1171 0.950 . S
H1151 C1174 0.950 . S
H1152 C1175 0.950 . S
H1153 C1177 0.950 . S
H1154 C1178 0.950 . S
H1155 C1179 0.951 . S
H1156 C1181 0.951 . S
H1157 C1183 0.950 . S
H1158 C1184 0.950 . S
H1159 C1186 0.950 . S
H1160 C1189 0.950 . S
H1161 C1190 0.950 . S
H1162 C1192 0.950 . S
H1163 C1193 0.950 . S
C1164 H1146 0.951 . S
C1164 C1165 1.366 . S
C1164 C1166 1.388 . S
C1165 C1164 1.366 . S
C1165 C1169 1.385 . S
C1166 H1147 0.951 . S
C1166 C1164 1.388 . S
C1166 C1167 1.366 . S
C1167 C1166 1.366 . S
C1167 C1168 1.414 . S
C1167 C1170 1.499 . S
C1168 H1148 0.950 1_556 S
C1168 C1167 1.414 . S
C1168 C1169 1.374 . S
C1169 H1149 0.961 . S
C1169 C1165 1.385 . S
C1169 C1168 1.374 . S
C1170 C1167 1.499 . S
C1170 C1171 1.373 1_556 S
C1170 C1172 1.389 . S
C1171 H1150 0.950 . S
C1171 C1170 1.373 1_554 S
C1171 C1187 1.377 . S
C1172 C1170 1.389 . S
C1172 C1173 1.524 . S
C1172 C1186 1.377 . S
C1173 C1172 1.524 . S
C1173 C1174 1.397 . S
C1173 C1178 1.363 . S
C1174 H1151 0.950 . S
C1174 C1173 1.397 . S
C1174 C1175 1.334 . S
C1175 H1152 0.950 . S
C1175 C1174 1.334 . S
C1175 C1176 1.287 . S
C1176 C1175 1.287 . S
C1176 C1177 1.524 . S
C1176 H1195 0.913 . S
C1177 H1153 0.950 . S
C1177 C1176 1.524 . S
C1177 C1178 1.415 . S
C1178 H1154 0.950 . S
C1178 C1173 1.363 . S
C1178 C1177 1.415 . S
C1179 H1155 0.951 . S
C1179 C1180 1.366 . S
C1179 C1181 1.388 . S
C1180 C1179 1.366 . S
C1180 C1184 1.385 1_554 S
C1181 H1156 0.951 . S
C1181 C1179 1.388 . S
C1181 C1182 1.366 . S
C1182 C1181 1.366 . S
C1182 C1183 1.414 1_554 S
C1182 C1185 1.499 1_554 S
C1183 H1157 0.950 . S
C1183 C1182 1.414 1_556 S
C1183 C1184 1.374 . S
C1184 H1158 0.950 . S
C1184 C1180 1.385 1_556 S
C1184 C1183 1.374 . S
C1185 C1182 1.499 1_556 S
C1185 C1186 1.373 . S
C1185 C1187 1.389 1_556 S
C1186 H1159 0.950 . S
C1186 C1172 1.377 . S
C1186 C1185 1.373 . S
C1187 C1171 1.377 . S
C1187 C1185 1.389 1_554 S
C1187 C1188 1.524 . S
C1188 C1187 1.524 . S
C1188 C1189 1.397 . S
C1188 C1193 1.363 . S
C1189 H1160 0.950 . S
C1189 C1188 1.397 . S
C1189 C1190 1.334 . S
C1190 H1161 0.950 . S
C1190 C1189 1.334 . S
C1190 C1191 1.287 . S
C1191 C1190 1.287 . S
C1191 C1192 1.524 . S
C1191 H1194 0.999 . S
C1192 H1162 0.950 . S
C1192 C1191 1.524 . S
C1192 C1193 1.415 . S
C1193 H1163 0.950 . S
C1193 C1188 1.363 . S
C1193 C1192 1.415 . S
H1194 C1191 0.999 . S
H1195 C1176 0.913 . S
H1196 C1214 0.951 . S
H1197 C1216 0.951 . S
H1198 C1218 0.950 . S
H1199 C1219 0.950 . S
H1200 C1221 0.950 . S
H1201 C1224 0.950 . S
H1202 C1225 0.950 . S
H1203 C1227 0.950 . S
H1204 C1228 0.950 . S
H1205 C1229 0.951 . S
H1206 C1231 0.951 . S
H1207 C1233 0.950 . S
H1208 C1234 0.950 . S
H1209 C1236 0.950 . S
H1210 C1239 0.950 . S
H1211 C1240 0.950 . S
H1212 C1242 0.950 . S
H1213 C1243 0.950 . S
C1214 H1196 0.951 . S
C1214 C1215 1.366 . S
C1214 C1216 1.388 . S
C1215 C1214 1.366 . S
C1215 C1219 1.385 . S
C1216 H1197 0.951 . S
C1216 C1214 1.388 . S
C1216 C1217 1.366 . S
C1217 C1216 1.366 . S
C1217 C1218 1.414 . S
C1217 C1220 1.499 . S
C1218 H1198 0.950 . S
C1218 C1217 1.414 . S
C1218 C1219 1.374 . S
C1219 H1199 0.950 . S
C1219 C1215 1.385 . S
C1219 C1218 1.374 . S
C1220 C1217 1.499 . S
C1220 C1221 1.373 . S
C1220 C1222 1.389 . S
C1221 H1200 0.950 . S
C1221 C1220 1.373 . S
C1221 C1237 1.377 . S
C1222 C1220 1.389 . S
C1222 C1223 1.524 . S
C1222 C1236 1.377 . S
C1223 C1222 1.524 . S
C1223 C1224 1.397 . S
C1223 C1228 1.363 . S
C1224 H1201 0.950 . S
C1224 C1223 1.397 . S
C1224 C1225 1.334 . S
C1225 H1202 0.950 . S
C1225 C1224 1.334 . S
C1225 C1226 1.287 . S
C1226 C1225 1.287 . S
C1226 C1227 1.524 . S
C1226 H1245 0.913 . S
C1227 H1203 0.950 . S
C1227 C1226 1.524 . S
C1227 C1228 1.415 . S
C1228 H1204 0.950 . S
C1228 C1223 1.363 . S
C1228 C1227 1.415 . S
C1229 H1205 0.951 . S
C1229 C1230 1.366 . S
C1229 C1231 1.388 . S
C1230 C1229 1.366 . S
C1230 C1234 1.385 . S
C1231 H1206 0.951 . S
C1231 C1229 1.388 . S
C1231 C1232 1.366 . S
C1232 C1231 1.366 . S
C1232 C1233 1.414 . S
C1232 C1235 1.499 . S
C1233 H1207 0.950 . S
C1233 C1232 1.414 . S
C1233 C1234 1.374 . S
C1234 H1208 0.950 . S
C1234 C1230 1.385 . S
C1234 C1233 1.374 . S
C1235 C1232 1.499 . S
C1235 C1236 1.373 . S
C1235 C1237 1.389 . S
C1236 H1209 0.950 . S
C1236 C1222 1.377 . S
C1236 C1235 1.373 . S
C1237 C1221 1.377 . S
C1237 C1235 1.389 . S
C1237 C1238 1.524 . S
C1238 C1237 1.524 . S
C1238 C1239 1.397 . S
C1238 C1243 1.363 . S
C1239 H1210 0.950 . S
C1239 C1238 1.397 . S
C1239 C1240 1.334 . S
C1240 H1211 0.950 . S
C1240 C1239 1.334 . S
C1240 C1241 1.287 . S
C1241 C1240 1.287 . S
C1241 C1242 1.524 . S
C1241 H1244 0.999 . S
C1242 H1212 0.950 . S
C1242 C1241 1.524 . S
C1242 C1243 1.415 . S
C1243 H1213 0.950 . S
C1243 C1238 1.363 . S
C1243 C1242 1.415 . S
H1244 C1241 0.999 . S
H1245 C1226 0.913 . S
H1246 C1264 0.951 . S
H1247 C1266 0.951 . S
H1248 C1268 0.950 . S
H1249 C1269 0.950 . S
H1250 C1271 0.950 . S
H1251 C1274 0.950 . S
H1252 C1275 0.950 . S
H1253 C1277 0.950 . S
H1254 C1278 0.950 . S
H1255 C1279 0.951 . S
H1256 C1281 0.951 1_554 S
H1257 C1283 0.950 . S
H1258 C1284 0.950 . S
H1259 C1286 0.950 . S
H1260 C1289 0.950 . S
H1261 C1290 0.950 . S
H1262 C1292 0.950 . S
H1263 C1293 0.950 . S
C1264 H1246 0.951 . S
C1264 C1265 1.366 1_556 S
C1264 C1266 1.388 . S
C1265 C1264 1.366 1_554 S
C1265 C1269 1.385 . S
C1266 H1247 0.951 . S
C1266 C1264 1.388 . S
C1266 C1267 1.366 1_556 S
C1267 C1266 1.366 1_554 S
C1267 C1268 1.414 . S
C1267 C1270 1.499 1_554 S
C1268 H1248 0.950 . S
C1268 C1267 1.414 . S
C1268 C1269 1.374 . S
C1269 H1249 0.950 . S
C1269 C1265 1.385 . S
C1269 C1268 1.374 . S
C1270 C1267 1.499 1_556 S
C1270 C1271 1.373 1_556 S
C1270 C1272 1.389 . S
C1271 H1250 0.950 . S
C1271 C1270 1.373 1_554 S
C1271 C1287 1.377 . S
C1272 C1270 1.389 . S
C1272 C1273 1.524 . S
C1272 C1286 1.377 . S
C1273 C1272 1.524 . S
C1273 C1274 1.397 . S
C1273 C1278 1.363 . S
C1274 H1251 0.950 . S
C1274 C1273 1.397 . S
C1274 C1275 1.334 . S
C1275 H1252 0.950 . S
C1275 C1274 1.334 . S
C1275 C1276 1.287 . S
C1276 C1275 1.287 . S
C1276 C1277 1.524 . S
C1276 H1295 0.913 . S
C1277 H1253 0.950 . S
C1277 C1276 1.524 . S
C1277 C1278 1.415 . S
C1278 H1254 0.950 . S
C1278 C1273 1.363 . S
C1278 C1277 1.415 . S
C1279 H1255 0.951 . S
C1279 C1280 1.366 . S
C1279 C1281 1.388 . S
C1280 C1279 1.366 . S
C1280 C1284 1.385 . S
C1281 H1256 0.951 1_556 S
C1281 C1279 1.388 . S
C1281 C1282 1.366 . S
C1282 C1281 1.366 . S
C1282 C1283 1.414 . S
C1282 C1285 1.499 . S
C1283 H1257 0.950 . S
C1283 C1282 1.414 . S
C1283 C1284 1.374 . S
C1284 H1258 0.950 . S
C1284 C1280 1.385 . S
C1284 C1283 1.374 . S
C1285 C1282 1.499 . S
C1285 C1286 1.373 . S
C1285 C1287 1.389 1_556 S
C1286 H1259 0.950 . S
C1286 C1272 1.377 . S
C1286 C1285 1.373 . S
C1287 C1271 1.377 . S
C1287 C1285 1.389 1_554 S
C1287 C1288 1.524 . S
C1288 C1287 1.524 . S
C1288 C1289 1.397 . S
C1288 C1293 1.363 . S
C1289 H1260 0.950 . S
C1289 C1288 1.397 . S
C1289 C1290 1.334 . S
C1290 H1261 0.950 . S
C1290 C1289 1.334 . S
C1290 C1291 1.287 . S
C1291 C1290 1.287 . S
C1291 C1292 1.524 . S
C1291 H1294 0.999 . S
C1292 H1262 0.950 . S
C1292 C1291 1.524 . S
C1292 C1293 1.415 . S
C1293 H1263 0.950 . S
C1293 C1288 1.363 . S
C1293 C1292 1.415 . S
H1294 C1291 0.999 . S
H1295 C1276 0.913 . S
H1296 C1314 0.951 . S
H1297 C1316 0.951 . S
H1298 C1318 0.950 . S
H1299 C1319 0.950 . S
H1300 C1321 0.950 . S
H1301 C1324 0.950 . S
H1302 C1325 0.950 . S
H1303 C1327 0.950 . S
H1304 C1328 0.950 . S
H1305 C1329 0.951 . S
H1306 C1331 0.951 . S
H1307 C1333 0.950 . S
H1308 C1334 0.950 . S
H1309 C1336 0.950 . S
H1310 C1339 0.950 . S
H1311 C1340 0.950 . S
H1312 C1342 0.950 . S
H1313 C1343 0.950 . S
C1314 H1296 0.951 . S
C1314 C1315 1.366 . S
C1314 C1316 1.388 . S
C1315 C1314 1.366 . S
C1315 C1319 1.385 . S
C1316 H1297 0.951 . S
C1316 C1314 1.388 . S
C1316 C1317 1.366 . S
C1317 C1316 1.366 . S
C1317 C1318 1.414 . S
C1317 C1320 1.499 . S
C1318 H1298 0.950 . S
C1318 C1317 1.414 . S
C1318 C1319 1.374 . S
C1319 H1299 0.950 . S
C1319 C1315 1.385 . S
C1319 C1318 1.374 . S
C1320 C1317 1.499 . S
C1320 C1321 1.373 . S
C1320 C1322 1.389 . S
C1321 H1300 0.950 . S
C1321 C1320 1.373 . S
C1321 C1337 1.377 . S
C1322 C1320 1.389 . S
C1322 C1323 1.524 . S
C1322 C1336 1.377 . S
C1323 C1322 1.524 . S
C1323 C1324 1.397 . S
C1323 C1328 1.363 . S
C1324 H1301 0.950 . S
C1324 C1323 1.397 . S
C1324 C1325 1.334 . S
C1325 H1302 0.950 . S
C1325 C1324 1.334 . S
C1325 C1326 1.287 . S
C1326 C1325 1.287 . S
C1326 C1327 1.524 . S
C1326 H1345 0.913 . S
C1327 H1303 0.950 . S
C1327 C1326 1.524 . S
C1327 C1328 1.415 . S
C1328 H1304 0.950 . S
C1328 C1323 1.363 . S
C1328 C1327 1.415 . S
C1329 H1305 0.951 . S
C1329 C1330 1.366 . S
C1329 C1331 1.388 . S
C1330 C1329 1.366 . S
C1330 C1334 1.385 . S
C1331 H1306 0.951 . S
C1331 C1329 1.388 . S
C1331 C1332 1.366 . S
C1332 C1331 1.366 . S
C1332 C1333 1.414 . S
C1332 C1335 1.499 . S
C1333 H1307 0.950 . S
C1333 C1332 1.414 . S
C1333 C1334 1.374 . S
C1334 H1308 0.950 . S
C1334 C1330 1.385 . S
C1334 C1333 1.374 . S
C1335 C1332 1.499 . S
C1335 C1336 1.373 . S
C1335 C1337 1.389 . S
C1336 H1309 0.950 . S
C1336 C1322 1.377 . S
C1336 C1335 1.373 . S
C1337 C1321 1.377 . S
C1337 C1335 1.389 . S
C1337 C1338 1.524 . S
C1338 C1337 1.524 . S
C1338 C1339 1.397 . S
C1338 C1343 1.363 . S
C1339 H1310 0.950 . S
C1339 C1338 1.397 . S
C1339 C1340 1.334 . S
C1340 H1311 0.950 . S
C1340 C1339 1.334 . S
C1340 C1341 1.287 . S
C1341 C1340 1.287 . S
C1341 C1342 1.524 . S
C1341 H1344 0.999 . S
C1342 H1312 0.950 . S
C1342 C1341 1.524 . S
C1342 C1343 1.415 . S
C1343 H1313 0.950 . S
C1343 C1338 1.363 . S
C1343 C1342 1.415 . S
H1344 C1341 0.999 . S
H1345 C1326 0.913 . S
H1346 C1364 0.951 . S
H1347 C1366 0.951 . S
H1348 C1368 0.950 . S
H1349 C1369 0.950 . S
H1350 C1371 0.950 . S
H1351 C1374 0.950 . S
H1352 C1375 0.950 . S
H1353 C1377 0.950 . S
H1354 C1378 0.950 . S
H1355 C1379 0.951 . S
H1356 C1381 0.951 . S
H1357 C1383 0.950 . S
H1358 C1384 0.950 . S
H1359 C1386 0.950 . S
H1360 C1389 0.950 . S
H1361 C1390 0.950 . S
H1362 C1392 0.950 . S
H1363 C1393 0.950 . S
C1364 H1346 0.951 . S
C1364 C1365 1.366 . S
C1364 C1366 1.388 . S
C1365 C1364 1.366 . S
C1365 C1369 1.385 . S
C1366 H1347 0.951 . S
C1366 C1364 1.388 . S
C1366 C1367 1.366 . S
C1367 C1366 1.366 . S
C1367 C1368 1.414 . S
C1367 C1370 1.499 . S
C1368 H1348 0.950 . S
C1368 C1367 1.414 . S
C1368 C1369 1.374 . S
C1369 H1349 0.950 . S
C1369 C1365 1.385 . S
C1369 C1368 1.374 . S
C1370 C1367 1.499 . S
C1370 C1371 1.373 . S
C1370 C1372 1.389 . S
C1371 H1350 0.950 . S
C1371 C1370 1.373 . S
C1371 C1387 1.377 . S
C1372 C1370 1.389 . S
C1372 C1373 1.524 . S
C1372 C1386 1.377 . S
C1373 C1372 1.524 . S
C1373 C1374 1.397 . S
C1373 C1378 1.363 . S
C1374 H1351 0.950 . S
C1374 C1373 1.397 . S
C1374 C1375 1.334 . S
C1375 H1352 0.950 . S
C1375 C1374 1.334 . S
C1375 C1376 1.287 . S
C1376 C1375 1.287 . S
C1376 C1377 1.524 . S
C1376 H1395 0.913 . S
C1377 H1353 0.950 . S
C1377 C1376 1.524 . S
C1377 C1378 1.415 . S
C1378 H1354 0.950 . S
C1378 C1373 1.363 . S
C1378 C1377 1.415 . S
C1379 H1355 0.951 . S
C1379 C1380 1.366 . S
C1379 C1381 1.388 . S
C1380 C1379 1.366 . S
C1380 C1384 1.385 . S
C1381 H1356 0.951 . S
C1381 C1379 1.388 . S
C1381 C1382 1.366 . S
C1382 C1381 1.366 . S
C1382 C1383 1.414 . S
C1382 C1385 1.499 . S
C1383 H1357 0.950 . S
C1383 C1382 1.414 . S
C1383 C1384 1.374 . S
C1384 H1358 0.950 . S
C1384 C1380 1.385 . S
C1384 C1383 1.374 . S
C1385 C1382 1.499 . S
C1385 C1386 1.373 . S
C1385 C1387 1.389 . S
C1386 H1359 0.950 . S
C1386 C1372 1.377 . S
C1386 C1385 1.373 . S
C1387 C1371 1.377 . S
C1387 C1385 1.389 . S
C1387 C1388 1.524 . S
C1388 C1387 1.524 . S
C1388 C1389 1.397 . S
C1388 C1393 1.363 . S
C1389 H1360 0.950 . S
C1389 C1388 1.397 . S
C1389 C1390 1.334 . S
C1390 H1361 0.950 . S
C1390 C1389 1.334 . S
C1390 C1391 1.287 . S
C1391 C1390 1.287 . S
C1391 C1392 1.524 . S
C1391 H1394 0.999 . S
C1392 H1362 0.950 . S
C1392 C1391 1.524 . S
C1392 C1393 1.415 . S
C1393 H1363 0.950 . S
C1393 C1388 1.363 . S
C1393 C1392 1.415 . S
H1394 C1391 0.999 . S
H1395 C1376 0.913 . S
H1396 C1414 0.951 . S
H1397 C1416 0.951 . S
H1398 C1418 0.950 . S
H1399 C1419 0.950 . S
H1400 C1421 0.950 . S
H1401 C1424 0.950 . S
H1402 C1425 0.950 . S
H1403 C1427 0.950 . S
H1404 C1428 0.950 . S
H1405 C1429 0.951 . S
H1406 C1431 0.951 . S
H1407 C1433 0.950 . S
H1408 C1434 0.950 . S
H1409 C1436 0.950 . S
H1410 C1439 0.950 . S
H1411 C1440 0.950 . S
H1412 C1442 0.950 . S
H1413 C1443 0.950 . S
C1414 H1396 0.951 . S
C1414 C1415 1.366 . S
C1414 C1416 1.388 . S
C1415 C1414 1.366 . S
C1415 C1419 1.385 . S
C1416 H1397 0.951 . S
C1416 C1414 1.388 . S
C1416 C1417 1.366 . S
C1417 C1416 1.366 . S
C1417 C1418 1.414 . S
C1417 C1420 1.499 . S
C1418 H1398 0.950 . S
C1418 C1417 1.414 . S
C1418 C1419 1.374 . S
C1419 H1399 0.950 . S
C1419 C1415 1.385 . S
C1419 C1418 1.374 . S
C1420 C1417 1.499 . S
C1420 C1421 1.373 . S
C1420 C1422 1.389 . S
C1421 H1400 0.950 . S
C1421 C1420 1.373 . S
C1421 C1437 1.377 . S
C1422 C1420 1.389 . S
C1422 C1423 1.524 . S
C1422 C1436 1.377 . S
C1423 C1422 1.524 . S
C1423 C1424 1.397 . S
C1423 C1428 1.363 . S
C1424 H1401 0.950 . S
C1424 C1423 1.397 . S
C1424 C1425 1.334 . S
C1425 H1402 0.950 . S
C1425 C1424 1.334 . S
C1425 C1426 1.287 . S
C1426 C1425 1.287 . S
C1426 C1427 1.524 . S
C1426 H1445 0.913 . S
C1427 H1403 0.950 . S
C1427 C1426 1.524 . S
C1427 C1428 1.415 . S
C1428 H1404 0.950 . S
C1428 C1423 1.363 . S
C1428 C1427 1.415 . S
C1429 H1405 0.951 . S
C1429 C1430 1.366 . S
C1429 C1431 1.388 . S
C1430 C1429 1.366 . S
C1430 C1434 1.385 . S
C1431 H1406 0.951 . S
C1431 C1429 1.388 . S
C1431 C1432 1.366 . S
C1432 C1431 1.366 . S
C1432 C1433 1.414 . S
C1432 C1435 1.499 . S
C1433 H1407 0.950 . S
C1433 C1432 1.414 . S
C1433 C1434 1.374 . S
C1434 H1408 0.950 . S
C1434 C1430 1.385 . S
C1434 C1433 1.374 . S
C1435 C1432 1.499 . S
C1435 C1436 1.373 . S
C1435 C1437 1.389 . S
C1436 H1409 0.950 . S
C1436 C1422 1.377 . S
C1436 C1435 1.373 . S
C1437 C1421 1.377 . S
C1437 C1435 1.389 . S
C1437 C1438 1.524 . S
C1438 C1437 1.524 . S
C1438 C1439 1.397 . S
C1438 C1443 1.363 . S
C1439 H1410 0.950 . S
C1439 C1438 1.397 . S
C1439 C1440 1.334 . S
C1440 H1411 0.950 . S
C1440 C1439 1.334 . S
C1440 C1441 1.287 . S
C1441 C1440 1.287 . S
C1441 C1442 1.524 . S
C1441 H1444 0.999 . S
C1442 H1412 0.950 . S
C1442 C1441 1.524 . S
C1442 C1443 1.415 . S
C1443 H1413 0.950 . S
C1443 C1438 1.363 . S
C1443 C1442 1.415 . S
H1444 C1441 0.999 . S
H1445 C1426 0.913 . S
H1446 C1464 0.951 . S
H1447 C1466 0.951 . S
H1448 C1468 0.950 . S
H1449 C1469 0.950 . S
H1450 C1471 0.950 . S
H1451 C1474 0.950 . S
H1452 C1475 0.950 . S
H1453 C1477 0.950 . S
H1454 C1478 0.950 . S
H1455 C1479 0.951 . S
H1456 C1481 0.951 . S
H1457 C1483 0.950 . S
H1458 C1484 0.950 . S
H1459 C1486 0.950 . S
H1460 C1489 0.950 . S
H1461 C1490 0.950 . S
H1462 C1492 0.950 . S
H1463 C1493 0.950 . S
C1464 H1446 0.951 . S
C1464 C1465 1.366 . S
C1464 C1466 1.388 . S
C1465 C1464 1.366 . S
C1465 C1469 1.385 . S
C1466 H1447 0.951 . S
C1466 C1464 1.388 . S
C1466 C1467 1.366 . S
C1467 C1466 1.366 . S
C1467 C1468 1.414 . S
C1467 C1470 1.499 . S
C1468 H1448 0.950 . S
C1468 C1467 1.414 . S
C1468 C1469 1.374 . S
C1469 H1449 0.950 . S
C1469 C1465 1.385 . S
C1469 C1468 1.374 . S
C1470 C1467 1.499 . S
C1470 C1471 1.373 . S
C1470 C1472 1.389 . S
C1471 H1450 0.950 . S
C1471 C1470 1.373 . S
C1471 C1487 1.377 . S
C1472 C1470 1.389 . S
C1472 C1473 1.524 . S
C1472 C1486 1.377 . S
C1473 C1472 1.524 . S
C1473 C1474 1.397 . S
C1473 C1478 1.363 . S
C1474 H1451 0.950 . S
C1474 C1473 1.397 . S
C1474 C1475 1.334 . S
C1475 H1452 0.950 . S
C1475 C1474 1.334 . S
C1475 C1476 1.287 . S
C1476 C1475 1.287 . S
C1476 C1477 1.524 . S
C1476 H1495 0.913 . S
C1477 H1453 0.950 . S
C1477 C1476 1.524 . S
C1477 C1478 1.415 . S
C1478 H1454 0.950 . S
C1478 C1473 1.363 . S
C1478 C1477 1.415 . S
C1479 H1455 0.951 . S
C1479 C1480 1.366 . S
C1479 C1481 1.388 . S
C1480 C1479 1.366 . S
C1480 C1484 1.385 . S
C1481 H1456 0.951 . S
C1481 C1479 1.388 . S
C1481 C1482 1.366 . S
C1482 C1481 1.366 . S
C1482 C1483 1.414 . S
C1482 C1485 1.499 . S
C1483 H1457 0.950 . S
C1483 C1482 1.414 . S
C1483 C1484 1.374 . S
C1484 H1458 0.950 . S
C1484 C1480 1.385 . S
C1484 C1483 1.374 . S
C1485 C1482 1.499 . S
C1485 C1486 1.373 . S
C1485 C1487 1.389 . S
C1486 H1459 0.950 . S
C1486 C1472 1.377 . S
C1486 C1485 1.373 . S
C1487 C1471 1.377 . S
C1487 C1485 1.389 . S
C1487 C1488 1.524 . S
C1488 C1487 1.524 . S
C1488 C1489 1.397 . S
C1488 C1493 1.363 . S
C1489 H1460 0.950 . S
C1489 C1488 1.397 . S
C1489 C1490 1.334 . S
C1490 H1461 0.950 . S
C1490 C1489 1.334 . S
C1490 C1491 1.287 . S
C1491 C1490 1.287 . S
C1491 C1492 1.524 . S
C1491 H1494 0.999 . S
C1492 H1462 0.950 . S
C1492 C1491 1.524 . S
C1492 C1493 1.415 . S
C1493 H1463 0.950 . S
C1493 C1488 1.363 . S
C1493 C1492 1.415 . S
H1494 C1491 0.999 . S
H1495 C1476 0.913 . S
H1496 C1514 0.951 . S
H1497 C1516 0.951 . S
H1498 C1518 0.950 . S
H1499 C1519 0.950 . S
H1500 C1521 0.950 . S
H1501 C1524 0.950 . S
H1502 C1525 0.950 . S
H1503 C1527 0.950 . S
H1504 C1528 0.950 . S
H1505 C1529 0.951 . S
H1506 C1531 0.951 . S
H1507 C1533 0.950 . S
H1508 C1534 0.950 . S
H1509 C1536 0.950 . S
H1510 C1539 0.950 . S
H1511 C1540 0.950 . S
H1512 C1542 0.950 . S
H1513 C1543 0.950 . S
C1514 H1496 0.951 . S
C1514 C1515 1.366 . S
C1514 C1516 1.388 . S
C1515 C1514 1.366 . S
C1515 C1519 1.385 . S
C1516 H1497 0.951 . S
C1516 C1514 1.388 . S
C1516 C1517 1.366 . S
C1517 C1516 1.366 . S
C1517 C1518 1.414 . S
C1517 C1520 1.499 . S
C1518 H1498 0.950 . S
C1518 C1517 1.414 . S
C1518 C1519 1.374 . S
C1519 H1499 0.950 . S
C1519 C1515 1.385 . S
C1519 C1518 1.374 . S
C1520 C1517 1.499 . S
C1520 C1521 1.373 . S
C1520 C1522 1.389 . S
C1521 H1500 0.950 . S
C1521 C1520 1.373 . S
C1521 C1537 1.377 . S
C1522 C1520 1.389 . S
C1522 C1523 1.524 . S
C1522 C1536 1.377 . S
C1523 C1522 1.524 . S
C1523 C1524 1.397 . S
C1523 C1528 1.363 . S
C1524 H1501 0.950 . S
C1524 C1523 1.397 . S
C1524 C1525 1.334 . S
C1525 H1502 0.950 . S
C1525 C1524 1.334 . S
C1525 C1526 1.287 . S
C1526 C1525 1.287 . S
C1526 C1527 1.524 . S
C1526 H1545 0.913 . S
C1527 H1503 0.950 . S
C1527 C1526 1.524 . S
C1527 C1528 1.415 . S
C1528 H1504 0.950 . S
C1528 C1523 1.363 . S
C1528 C1527 1.415 . S
C1529 H1505 0.951 . S
C1529 C1530 1.366 . S
C1529 C1531 1.388 . S
C1530 C1529 1.366 . S
C1530 C1534 1.385 . S
C1531 H1506 0.951 . S
C1531 C1529 1.388 . S
C1531 C1532 1.366 . S
C1532 C1531 1.366 . S
C1532 C1533 1.414 . S
C1532 C1535 1.499 . S
C1533 H1507 0.950 . S
C1533 C1532 1.414 . S
C1533 C1534 1.374 . S
C1534 H1508 0.950 . S
C1534 C1530 1.385 . S
C1534 C1533 1.374 . S
C1535 C1532 1.499 . S
C1535 C1536 1.373 . S
C1535 C1537 1.389 . S
C1536 H1509 0.950 . S
C1536 C1522 1.377 . S
C1536 C1535 1.373 . S
C1537 C1521 1.377 . S
C1537 C1535 1.389 . S
C1537 C1538 1.524 . S
C1538 C1537 1.524 . S
C1538 C1539 1.397 . S
C1538 C1543 1.363 . S
C1539 H1510 0.950 . S
C1539 C1538 1.397 . S
C1539 C1540 1.334 . S
C1540 H1511 0.950 . S
C1540 C1539 1.334 . S
C1540 C1541 1.287 . S
C1541 C1540 1.287 . S
C1541 C1542 1.524 . S
C1541 H1544 0.999 . S
C1542 H1512 0.950 . S
C1542 C1541 1.524 . S
C1542 C1543 1.415 . S
C1543 H1513 0.950 . S
C1543 C1538 1.363 . S
C1543 C1542 1.415 . S
H1544 C1541 0.999 . S
H1545 C1526 0.913 . S
H1546 C1564 0.951 . S
H1547 C1566 0.951 . S
H1548 C1568 0.950 . S
H1549 C1569 0.950 . S
H1550 C1571 0.950 . S
H1551 C1574 0.950 . S
H1552 C1575 0.950 . S
H1553 C1577 0.950 . S
H1554 C1578 0.950 . S
H1555 C1579 0.951 . S
H1556 C1581 0.951 . S
H1557 C1583 0.950 . S
H1558 C1584 0.950 . S
H1559 C1586 0.950 . S
H1560 C1589 0.950 . S
H1561 C1590 0.950 . S
H1562 C1592 0.950 . S
H1563 C1593 0.950 . S
C1564 H1546 0.951 . S
C1564 C1565 1.366 . S
C1564 C1566 1.388 . S
C1565 C1564 1.366 . S
C1565 C1569 1.385 . S
C1566 H1547 0.951 . S
C1566 C1564 1.388 . S
C1566 C1567 1.366 . S
C1567 C1566 1.366 . S
C1567 C1568 1.414 . S
C1567 C1570 1.499 . S
C1568 H1548 0.950 . S
C1568 C1567 1.414 . S
C1568 C1569 1.374 . S
C1569 H1549 0.950 . S
C1569 C1565 1.385 . S
C1569 C1568 1.374 . S
C1570 C1567 1.499 . S
C1570 C1571 1.373 . S
C1570 C1572 1.389 . S
C1571 H1550 0.950 . S
C1571 C1570 1.373 . S
C1571 C1587 1.377 . S
C1572 C1570 1.389 . S
C1572 C1573 1.524 . S
C1572 C1586 1.377 . S
C1573 C1572 1.524 . S
C1573 C1574 1.397 . S
C1573 C1578 1.363 . S
C1574 H1551 0.950 . S
C1574 C1573 1.397 . S
C1574 C1575 1.334 . S
C1575 H1552 0.950 . S
C1575 C1574 1.334 . S
C1575 C1576 1.287 . S
C1576 C1575 1.287 . S
C1576 C1577 1.524 . S
C1576 H1595 0.913 . S
C1577 H1553 0.950 . S
C1577 C1576 1.524 . S
C1577 C1578 1.415 . S
C1578 H1554 0.950 . S
C1578 C1573 1.363 . S
C1578 C1577 1.415 . S
C1579 H1555 0.951 . S
C1579 C1580 1.366 . S
C1579 C1581 1.388 . S
C1580 C1579 1.366 . S
C1580 C1584 1.385 . S
C1581 H1556 0.951 . S
C1581 C1579 1.388 . S
C1581 C1582 1.366 . S
C1582 C1581 1.366 . S
C1582 C1583 1.414 . S
C1582 C1585 1.499 . S
C1583 H1557 0.950 . S
C1583 C1582 1.414 . S
C1583 C1584 1.374 . S
C1584 H1558 0.950 . S
C1584 C1580 1.385 . S
C1584 C1583 1.374 . S
C1585 C1582 1.499 . S
C1585 C1586 1.373 . S
C1585 C1587 1.389 . S
C1586 H1559 0.950 . S
C1586 C1572 1.377 . S
C1586 C1585 1.373 . S
C1587 C1571 1.377 . S
C1587 C1585 1.389 . S
C1587 C1588 1.524 . S
C1588 C1587 1.524 . S
C1588 C1589 1.397 . S
C1588 C1593 1.363 . S
C1589 H1560 0.950 . S
C1589 C1588 1.397 . S
C1589 C1590 1.334 . S
C1590 H1561 0.950 . S
C1590 C1589 1.334 . S
C1590 C1591 1.287 . S
C1591 C1590 1.287 . S
C1591 C1592 1.524 . S
C1591 H1594 0.999 . S
C1592 H1562 0.950 . S
C1592 C1591 1.524 . S
C1592 C1593 1.415 . S
C1593 H1563 0.950 . S
C1593 C1588 1.363 . S
C1593 C1592 1.415 . S
H1594 C1591 0.999 . S
H1595 C1576 0.913 . S
H1596 C1614 0.951 . S
H1597 C1616 0.951 . S
H1598 C1618 0.950 . S
H1599 C1619 0.950 . S
H1600 C1621 0.950 . S
H1601 C1624 0.950 . S
H1602 C1625 0.950 . S
H1603 C1627 0.950 . S
H1604 C1628 0.950 . S
H1605 C1629 0.951 . S
H1606 C1631 0.951 . S
H1607 C1633 0.950 . S
H1608 C1634 0.950 . S
H1609 C1636 0.950 . S
H1610 C1639 0.950 . S
H1611 C1640 0.950 . S
H1612 C1642 0.950 . S
H1613 C1643 0.950 . S
C1614 H1596 0.951 . S
C1614 C1615 1.366 . S
C1614 C1616 1.388 . S
C1615 C1614 1.366 . S
C1615 C1619 1.385 . S
C1616 H1597 0.951 . S
C1616 C1614 1.388 . S
C1616 C1617 1.366 . S
C1617 C1616 1.366 . S
C1617 C1618 1.414 . S
C1617 C1620 1.499 . S
C1618 H1598 0.950 . S
C1618 C1617 1.414 . S
C1618 C1619 1.374 . S
C1619 H1599 0.950 . S
C1619 C1615 1.385 . S
C1619 C1618 1.374 . S
C1620 C1617 1.499 . S
C1620 C1621 1.373 . S
C1620 C1622 1.389 . S
C1621 H1600 0.950 . S
C1621 C1620 1.373 . S
C1621 C1637 1.377 . S
C1622 C1620 1.389 . S
C1622 C1623 1.524 . S
C1622 C1636 1.377 . S
C1623 C1622 1.524 . S
C1623 C1624 1.397 . S
C1623 C1628 1.363 . S
C1624 H1601 0.950 . S
C1624 C1623 1.397 . S
C1624 C1625 1.334 . S
C1625 H1602 0.950 . S
C1625 C1624 1.334 . S
C1625 C1626 1.287 . S
C1626 C1625 1.287 . S
C1626 C1627 1.524 . S
C1626 H1645 0.913 . S
C1627 H1603 0.950 . S
C1627 C1626 1.524 . S
C1627 C1628 1.415 . S
C1628 H1604 0.950 . S
C1628 C1623 1.363 . S
C1628 C1627 1.415 . S
C1629 H1605 0.951 . S
C1629 C1630 1.366 . S
C1629 C1631 1.388 . S
C1630 C1629 1.366 . S
C1630 C1634 1.385 . S
C1631 H1606 0.951 . S
C1631 C1629 1.388 . S
C1631 C1632 1.366 . S
C1632 C1631 1.366 . S
C1632 C1633 1.414 . S
C1632 C1635 1.499 . S
C1633 H1607 0.950 . S
C1633 C1632 1.414 . S
C1633 C1634 1.374 . S
C1634 H1608 0.950 . S
C1634 C1630 1.385 . S
C1634 C1633 1.374 . S
C1635 C1632 1.499 . S
C1635 C1636 1.373 . S
C1635 C1637 1.389 . S
C1636 H1609 0.950 . S
C1636 C1622 1.377 . S
C1636 C1635 1.373 . S
C1637 C1621 1.377 . S
C1637 C1635 1.389 . S
C1637 C1638 1.524 . S
C1638 C1637 1.524 . S
C1638 C1639 1.397 . S
C1638 C1643 1.363 . S
C1639 H1610 0.950 . S
C1639 C1638 1.397 . S
C1639 C1640 1.334 . S
C1640 H1611 0.950 . S
C1640 C1639 1.334 . S
C1640 C1641 1.287 . S
C1641 C1640 1.287 . S
C1641 C1642 1.524 . S
C1641 H1644 0.999 . S
C1642 H1612 0.950 . S
C1642 C1641 1.524 . S
C1642 C1643 1.415 . S
C1643 H1613 0.950 . S
C1643 C1638 1.363 . S
C1643 C1642 1.415 . S
H1644 C1641 0.999 . S
H1645 C1626 0.913 . S
H1646 C1664 0.951 . S
H1647 C1666 0.951 . S
H1648 C1668 0.950 . S
H1649 C1669 0.950 . S
H1650 C1671 0.950 . S
H1651 C1674 0.950 . S
H1652 C1675 0.950 . S
H1653 C1677 0.950 . S
H1654 C1678 0.950 . S
H1655 C1679 0.951 . S
H1656 C1681 0.951 . S
H1657 C1683 0.950 . S
H1658 C1684 0.950 . S
H1659 C1686 0.950 . S
H1660 C1689 0.950 . S
H1661 C1690 0.950 . S
H1662 C1692 0.950 . S
H1663 C1693 0.950 . S
C1664 H1646 0.951 . S
C1664 C1665 1.366 . S
C1664 C1666 1.388 . S
C1665 C1664 1.366 . S
C1665 C1669 1.385 . S
C1666 H1647 0.951 . S
C1666 C1664 1.388 . S
C1666 C1667 1.366 . S
C1667 C1666 1.366 . S
C1667 C1668 1.414 . S
C1667 C1670 1.499 . S
C1668 H1648 0.950 . S
C1668 C1667 1.414 . S
C1668 C1669 1.374 . S
C1669 H1649 0.950 . S
C1669 C1665 1.385 . S
C1669 C1668 1.374 . S
C1670 C1667 1.499 . S
C1670 C1671 1.373 . S
C1670 C1672 1.389 . S
C1671 H1650 0.950 . S
C1671 C1670 1.373 . S
C1671 C1687 1.377 . S
C1672 C1670 1.389 . S
C1672 C1673 1.524 . S
C1672 C1686 1.377 . S
C1673 C1672 1.524 . S
C1673 C1674 1.397 . S
C1673 C1678 1.363 . S
C1674 H1651 0.950 . S
C1674 C1673 1.397 . S
C1674 C1675 1.334 . S
C1675 H1652 0.950 . S
C1675 C1674 1.334 . S
C1675 C1676 1.287 . S
C1676 C1675 1.287 . S
C1676 C1677 1.524 . S
C1676 H1695 0.913 . S
C1677 H1653 0.950 . S
C1677 C1676 1.524 . S
C1677 C1678 1.415 . S
C1678 H1654 0.950 . S
C1678 C1673 1.363 . S
C1678 C1677 1.415 . S
C1679 H1655 0.951 . S
C1679 C1680 1.366 . S
C1679 C1681 1.388 . S
C1680 C1679 1.366 . S
C1680 C1684 1.385 . S
C1681 H1656 0.951 . S
C1681 C1679 1.388 . S
C1681 C1682 1.366 . S
C1682 C1681 1.366 . S
C1682 C1683 1.414 . S
C1682 C1685 1.499 . S
C1683 H1657 0.950 . S
C1683 C1682 1.414 . S
C1683 C1684 1.374 . S
C1684 H1658 0.950 . S
C1684 C1680 1.385 . S
C1684 C1683 1.374 . S
C1685 C1682 1.499 . S
C1685 C1686 1.373 . S
C1685 C1687 1.389 . S
C1686 H1659 0.950 . S
C1686 C1672 1.377 . S
C1686 C1685 1.373 . S
C1687 C1671 1.377 . S
C1687 C1685 1.389 . S
C1687 C1688 1.524 . S
C1688 C1687 1.524 . S
C1688 C1689 1.397 . S
C1688 C1693 1.363 . S
C1689 H1660 0.950 . S
C1689 C1688 1.397 . S
C1689 C1690 1.334 . S
C1690 H1661 0.950 . S
C1690 C1689 1.334 . S
C1690 C1691 1.287 . S
C1691 C1690 1.287 . S
C1691 C1692 1.524 . S
C1691 H1694 0.999 . S
C1692 H1662 0.950 . S
C1692 C1691 1.524 . S
C1692 C1693 1.415 . S
C1693 H1663 0.950 . S
C1693 C1688 1.363 . S
C1693 C1692 1.415 . S
H1694 C1691 0.999 . S
H1695 C1676 0.913 . S
H1696 C1714 0.951 . S
H1697 C1716 0.951 . S
H1698 C1718 0.950 . S
H1699 C1719 0.950 . S
H1700 C1721 0.950 . S
H1701 C1724 0.950 . S
H1702 C1725 0.950 . S
H1703 C1727 0.950 . S
H1704 C1728 0.950 . S
H1705 C1729 0.951 . S
H1706 C1731 0.951 . S
H1707 C1733 0.950 . S
H1708 C1734 0.950 . S
H1709 C1736 0.950 . S
H1710 C1739 0.950 . S
H1711 C1740 0.950 . S
H1712 C1742 0.950 . S
H1713 C1743 0.950 . S
C1714 H1696 0.951 . S
C1714 C1715 1.366 . S
C1714 C1716 1.388 . S
C1715 C1714 1.366 . S
C1715 C1719 1.385 . S
C1716 H1697 0.951 . S
C1716 C1714 1.388 . S
C1716 C1717 1.366 . S
C1717 C1716 1.366 . S
C1717 C1718 1.414 . S
C1717 C1720 1.499 . S
C1718 H1698 0.950 . S
C1718 C1717 1.414 . S
C1718 C1719 1.374 . S
C1719 H1699 0.950 . S
C1719 C1715 1.385 . S
C1719 C1718 1.374 . S
C1720 C1717 1.499 . S
C1720 C1721 1.373 . S
C1720 C1722 1.389 . S
C1721 H1700 0.950 . S
C1721 C1720 1.373 . S
C1721 C1737 1.377 . S
C1722 C1720 1.389 . S
C1722 C1723 1.524 . S
C1722 C1736 1.377 . S
C1723 C1722 1.524 . S
C1723 C1724 1.397 . S
C1723 C1728 1.363 . S
C1724 H1701 0.950 . S
C1724 C1723 1.397 . S
C1724 C1725 1.334 . S
C1725 H1702 0.950 . S
C1725 C1724 1.334 . S
C1725 C1726 1.287 . S
C1726 C1725 1.287 . S
C1726 C1727 1.524 . S
C1726 H1745 0.913 . S
C1727 H1703 0.950 . S
C1727 C1726 1.524 . S
C1727 C1728 1.415 . S
C1728 H1704 0.950 . S
C1728 C1723 1.363 . S
C1728 C1727 1.415 . S
C1729 H1705 0.951 . S
C1729 C1730 1.366 . S
C1729 C1731 1.388 . S
C1730 C1729 1.366 . S
C1730 C1734 1.385 . S
C1731 H1706 0.951 . S
C1731 C1729 1.388 . S
C1731 C1732 1.366 . S
C1732 C1731 1.366 . S
C1732 C1733 1.414 . S
C1732 C1735 1.499 . S
C1733 H1707 0.950 . S
C1733 C1732 1.414 . S
C1733 C1734 1.374 . S
C1734 H1708 0.950 . S
C1734 C1730 1.385 . S
C1734 C1733 1.374 . S
C1735 C1732 1.499 . S
C1735 C1736 1.373 . S
C1735 C1737 1.389 . S
C1736 H1709 0.950 . S
C1736 C1722 1.377 . S
C1736 C1735 1.373 . S
C1737 C1721 1.377 . S
C1737 C1735 1.389 . S
C1737 C1738 1.524 . S
C1738 C1737 1.524 . S
C1738 C1739 1.397 . S
C1738 C1743 1.363 . S
C1739 H1710 0.950 . S
C1739 C1738 1.397 . S
C1739 C1740 1.334 . S
C1740 H1711 0.950 . S
C1740 C1739 1.334 . S
C1740 C1741 1.287 . S
C1741 C1740 1.287 . S
C1741 C1742 1.524 . S
C1741 H1744 0.999 . S
C1742 H1712 0.950 . S
C1742 C1741 1.524 . S
C1742 C1743 1.415 . S
C1743 H1713 0.950 . S
C1743 C1738 1.363 . S
C1743 C1742 1.415 . S
H1744 C1741 0.999 . S
H1745 C1726 0.913 . S
H1746 C1764 0.951 . S
H1747 C1766 0.951 . S
H1748 C1768 0.950 . S
H1749 C1769 0.950 . S
H1750 C1771 0.950 . S
H1751 C1774 0.950 . S
H1752 C1775 0.950 . S
H1753 C1777 0.950 . S
H1754 C1778 0.950 . S
H1755 C1779 0.951 . S
H1756 C1781 0.951 . S
H1757 C1783 0.950 . S
H1758 C1784 0.950 . S
H1759 C1786 0.950 . S
H1760 C1789 0.950 . S
H1761 C1790 0.950 . S
H1762 C1792 0.950 . S
H1763 C1793 0.950 . S
C1764 H1746 0.951 . S
C1764 C1765 1.366 . S
C1764 C1766 1.388 . S
C1765 C1764 1.366 . S
C1765 C1769 1.385 . S
C1766 H1747 0.951 . S
C1766 C1764 1.388 . S
C1766 C1767 1.366 . S
C1767 C1766 1.366 . S
C1767 C1768 1.414 . S
C1767 C1770 1.499 . S
C1768 H1748 0.950 . S
C1768 C1767 1.414 . S
C1768 C1769 1.374 . S
C1769 H1749 0.950 . S
C1769 C1765 1.385 . S
C1769 C1768 1.374 . S
C1770 C1767 1.499 . S
C1770 C1771 1.373 . S
C1770 C1772 1.389 . S
C1771 H1750 0.950 . S
C1771 C1770 1.373 . S
C1771 C1787 1.377 . S
C1772 C1770 1.389 . S
C1772 C1773 1.524 . S
C1772 C1786 1.377 . S
C1773 C1772 1.524 . S
C1773 C1774 1.397 . S
C1773 C1778 1.363 . S
C1774 H1751 0.950 . S
C1774 C1773 1.397 . S
C1774 C1775 1.334 . S
C1775 H1752 0.950 . S
C1775 C1774 1.334 . S
C1775 C1776 1.287 . S
C1776 C1775 1.287 . S
C1776 C1777 1.524 . S
C1776 H1795 0.913 . S
C1777 H1753 0.950 . S
C1777 C1776 1.524 . S
C1777 C1778 1.415 . S
C1778 H1754 0.950 . S
C1778 C1773 1.363 . S
C1778 C1777 1.415 . S
C1779 H1755 0.951 . S
C1779 C1780 1.366 . S
C1779 C1781 1.388 . S
C1780 C1779 1.366 . S
C1780 C1784 1.385 . S
C1781 H1756 0.951 . S
C1781 C1779 1.388 . S
C1781 C1782 1.366 . S
C1782 C1781 1.366 . S
C1782 C1783 1.414 . S
C1782 C1785 1.499 . S
C1783 H1757 0.950 . S
C1783 C1782 1.414 . S
C1783 C1784 1.374 . S
C1784 H1758 0.950 . S
C1784 C1780 1.385 . S
C1784 C1783 1.374 . S
C1785 C1782 1.499 . S
C1785 C1786 1.373 . S
C1785 C1787 1.389 . S
C1786 H1759 0.950 . S
C1786 C1772 1.377 . S
C1786 C1785 1.373 . S
C1787 C1771 1.377 . S
C1787 C1785 1.389 . S
C1787 C1788 1.524 . S
C1788 C1787 1.524 . S
C1788 C1789 1.397 . S
C1788 C1793 1.363 . S
C1789 H1760 0.950 . S
C1789 C1788 1.397 . S
C1789 C1790 1.334 . S
C1790 H1761 0.950 . S
C1790 C1789 1.334 . S
C1790 C1791 1.287 . S
C1791 C1790 1.287 . S
C1791 C1792 1.524 . S
C1791 H1794 0.999 . S
C1792 H1762 0.950 . S
C1792 C1791 1.524 . S
C1792 C1793 1.415 . S
C1793 H1763 0.950 . S
C1793 C1788 1.363 . S
C1793 C1792 1.415 . S
H1794 C1791 0.999 . S
H1795 C1776 0.913 . S
H1796 C1814 0.951 . S
H1797 C1816 0.951 . S
H1798 C1818 0.950 . S
H1799 C1819 0.950 . S
H1800 C1821 0.950 . S
H1801 C1824 0.950 . S
H1802 C1825 0.950 . S
H1803 C1827 0.950 . S
H1804 C1828 0.950 . S
H1805 C1829 0.951 . S
H1806 C1831 0.951 . S
H1807 C1833 0.950 . S
H1808 C1834 0.950 . S
H1809 C1836 0.950 . S
H1810 C1839 0.950 . S
H1811 C1840 0.950 . S
H1812 C1842 0.950 . S
H1813 C1843 0.950 . S
C1814 H1796 0.951 . S
C1814 C1815 1.366 . S
C1814 C1816 1.388 . S
C1815 C1814 1.366 . S
C1815 C1819 1.385 . S
C1816 H1797 0.951 . S
C1816 C1814 1.388 . S
C1816 C1817 1.366 . S
C1817 C1816 1.366 . S
C1817 C1818 1.414 . S
C1817 C1820 1.499 . S
C1818 H1798 0.950 . S
C1818 C1817 1.414 . S
C1818 C1819 1.374 . S
C1819 H1799 0.950 . S
C1819 C1815 1.385 . S
C1819 C1818 1.374 . S
C1820 C1817 1.499 . S
C1820 C1821 1.373 . S
C1820 C1822 1.389 . S
C1821 H1800 0.950 . S
C1821 C1820 1.373 . S
C1821 C1837 1.377 . S
C1822 C1820 1.389 . S
C1822 C1823 1.524 . S
C1822 C1836 1.377 . S
C1823 C1822 1.524 . S
C1823 C1824 1.397 . S
C1823 C1828 1.363 . S
C1824 H1801 0.950 . S
C1824 C1823 1.397 . S
C1824 C1825 1.334 . S
C1825 H1802 0.950 . S
C1825 C1824 1.334 . S
C1825 C1826 1.287 . S
C1826 C1825 1.287 . S
C1826 C1827 1.524 . S
C1826 H1845 0.913 . S
C1827 H1803 0.950 . S
C1827 C1826 1.524 . S
C1827 C1828 1.415 . S
C1828 H1804 0.950 . S
C1828 C1823 1.363 . S
C1828 C1827 1.415 . S
C1829 H1805 0.951 . S
C1829 C1830 1.366 . S
C1829 C1831 1.388 . S
C1830 C1829 1.366 . S
C1830 C1834 1.385 . S
C1831 H1806 0.951 . S
C1831 C1829 1.388 . S
C1831 C1832 1.366 . S
C1832 C1831 1.366 . S
C1832 C1833 1.414 . S
C1832 C1835 1.499 . S
C1833 H1807 0.950 . S
C1833 C1832 1.414 . S
C1833 C1834 1.374 . S
C1834 H1808 0.950 . S
C1834 C1830 1.385 . S
C1834 C1833 1.374 . S
C1835 C1832 1.499 . S
C1835 C1836 1.373 . S
C1835 C1837 1.389 . S
C1836 H1809 0.950 . S
C1836 C1822 1.377 . S
C1836 C1835 1.373 . S
C1837 C1821 1.377 . S
C1837 C1835 1.389 . S
C1837 C1838 1.524 . S
C1838 C1837 1.524 . S
C1838 C1839 1.397 . S
C1838 C1843 1.363 . S
C1839 H1810 0.950 . S
C1839 C1838 1.397 . S
C1839 C1840 1.334 . S
C1840 H1811 0.950 . S
C1840 C1839 1.334 . S
C1840 C1841 1.287 . S
C1841 C1840 1.287 . S
C1841 C1842 1.524 . S
C1841 H1844 0.999 . S
C1842 H1812 0.950 . S
C1842 C1841 1.524 . S
C1842 C1843 1.415 . S
C1843 H1813 0.950 . S
C1843 C1838 1.363 . S
C1843 C1842 1.415 . S
H1844 C1841 0.999 . S
H1845 C1826 0.913 . S
H1846 C1864 0.951 . S
H1847 C1866 0.951 . S
H1848 C1868 0.950 . S
H1849 C1869 0.950 . S
H1850 C1871 0.950 . S
H1851 C1874 0.950 . S
H1852 C1875 0.950 . S
H1853 C1877 0.950 . S
H1854 C1878 0.950 . S
H1855 C1879 0.951 . S
H1856 C1881 0.951 . S
H1857 C1883 0.950 . S
H1858 C1884 0.950 . S
H1859 C1886 0.950 . S
H1860 C1889 0.950 . S
H1861 C1890 0.950 . S
H1862 C1892 0.950 . S
H1863 C1893 0.950 . S
C1864 H1846 0.951 . S
C1864 C1865 1.366 . S
C1864 C1866 1.388 . S
C1865 C1864 1.366 . S
C1865 C1869 1.385 . S
C1866 H1847 0.951 . S
C1866 C1864 1.388 . S
C1866 C1867 1.366 . S
C1867 C1866 1.366 . S
C1867 C1868 1.414 . S
C1867 C1870 1.499 . S
C1868 H1848 0.950 . S
C1868 C1867 1.414 . S
C1868 C1869 1.374 . S
C1869 H1849 0.950 . S
C1869 C1865 1.385 . S
C1869 C1868 1.374 . S
C1870 C1867 1.499 . S
C1870 C1871 1.373 . S
C1870 C1872 1.389 . S
C1871 H1850 0.950 . S
C1871 C1870 1.373 . S
C1871 C1887 1.377 . S
C1872 C1870 1.389 . S
C1872 C1873 1.524 . S
C1872 C1886 1.377 . S
C1873 C1872 1.524 . S
C1873 C1874 1.397 . S
C1873 C1878 1.363 . S
C1874 H1851 0.950 . S
C1874 C1873 1.397 . S
C1874 C1875 1.334 . S
C1875 H1852 0.950 . S
C1875 C1874 1.334 . S
C1875 C1876 1.287 . S
C1876 C1875 1.287 . S
C1876 C1877 1.524 . S
C1876 H1895 0.913 . S
C1877 H1853 0.950 . S
C1877 C1876 1.524 . S
C1877 C1878 1.415 . S
C1878 H1854 0.950 . S
C1878 C1873 1.363 . S
C1878 C1877 1.415 . S
C1879 H1855 0.951 . S
C1879 C1880 1.366 . S
C1879 C1881 1.388 . S
C1880 C1879 1.366 . S
C1880 C1884 1.385 . S
C1881 H1856 0.951 . S
C1881 C1879 1.388 . S
C1881 C1882 1.366 . S
C1882 C1881 1.366 . S
C1882 C1883 1.414 . S
C1882 C1885 1.499 . S
C1883 H1857 0.950 . S
C1883 C1882 1.414 . S
C1883 C1884 1.374 . S
C1884 H1858 0.950 . S
C1884 C1880 1.385 . S
C1884 C1883 1.374 . S
C1885 C1882 1.499 . S
C1885 C1886 1.373 . S
C1885 C1887 1.389 . S
C1886 H1859 0.950 . S
C1886 C1872 1.377 . S
C1886 C1885 1.373 . S
C1887 C1871 1.377 . S
C1887 C1885 1.389 . S
C1887 C1888 1.524 . S
C1888 C1887 1.524 . S
C1888 C1889 1.397 . S
C1888 C1893 1.363 . S
C1889 H1860 0.950 . S
C1889 C1888 1.397 . S
C1889 C1890 1.334 . S
C1890 H1861 0.950 . S
C1890 C1889 1.334 . S
C1890 C1891 1.287 . S
C1891 C1890 1.287 . S
C1891 C1892 1.524 . S
C1891 H1894 0.999 . S
C1892 H1862 0.950 . S
C1892 C1891 1.524 . S
C1892 C1893 1.415 . S
C1893 H1863 0.950 . S
C1893 C1888 1.363 . S
C1893 C1892 1.415 . S
H1894 C1891 0.999 . S
H1895 C1876 0.913 . S
C415 C314 0.643 . S
C430 C17 0.644 . S
C465 C50 0.643 . S
C480 C347 0.643 . S
C515 C380 0.646 . S
C530 C83 0.646 . S
C565 C116 0.643 . S
C580 C215 0.644 . S
C615 C149 0.645 . S
C630 C248 0.646 . S
C665 C281 0.645 . S
C680 C182 0.643 . S
C715 N14 0.715 . S
C730 C140 0.683 . S
C765 C173 0.683 . S
C780 N47 0.717 . S
C815 N80 0.715 . S
C830 C8 0.683 . S
C865 N113 0.719 . S
C880 C41 0.682 . S
C915 C74 0.682 . S
C930 N146 0.715 . S
C965 C107 0.682 . S
C980 N179 0.717 . S
C1015 C272 0.682 . S
C1030 N212 0.715 . S
C1065 N245 0.719 . S
C1080 C305 0.683 . S
C1115 C338 0.682 . S
C1130 N278 0.719 . S
C1165 C371 0.682 . S
C1180 N311 0.715 . S
C1215 C206 0.683 . S
C1230 N344 0.716 . S
C1265 N377 0.719 . S
C1280 C239 0.682 . S
C1315 C358 1.560 . S
C1330 C28 1.561 . S
C1365 C391 1.560 . S
C1380 C61 1.560 . S
C1415 C94 1.561 . S
C1430 C226 1.560 . S
C1465 C127 1.561 . S
C1480 C259 1.560 . S
C1515 C292 1.560 . S
C1530 C160 1.560 . S
C1565 C193 1.560 . S
C1580 C325 1.561 . S
C1615 N203 0.578 . S
C1630 N5 0.574 . S
C1665 N236 0.574 . S
C1680 N38 0.576 . S
C1715 N71 0.576 . S
C1730 N269 0.574 . S
C1765 N302 0.578 . S
C1780 N104 0.575 . S
C1815 N137 0.574 . S
C1830 N335 0.577 . S
C1865 N368 0.575 . S
C1880 N170 0.575 . S
