# Generated by pormake.
# Topology smc, (6)-cn, num edge types: 1
# Building blocks:
#     Node 0, Type 0, BuildingBlock: IZENUY_clean_sbu_0, # of connection points: 6
#     Node 1, Type 0, BuildingBlock: IZENUY_clean_sbu_0, # of connection points: 6
#     Node 2, Type 0, BuildingBlock: IZENUY_clean_sbu_0, # of connection points: 6
#     Node 3, Type 0, BuildingBlock: IZENUY_clean_sbu_0, # of connection points: 6
#     Node 4, Type 0, BuildingBlock: IZENUY_clean_sbu_0, # of connection points: 6
#     Node 5, Type 0, BuildingBlock: IZENUY_clean_sbu_0, # of connection points: 6
#     Node 6, Type 0, BuildingBlock: IZENUY_clean_sbu_0, # of connection points: 6
#     Node 7, Type 0, BuildingBlock: IZENUY_clean_sbu_0, # of connection points: 6
#     Node 8, Type 0, BuildingBlock: IZENUY_clean_sbu_0, # of connection points: 6
#     Edge 9, Type (0, 0), BuildingBlock: OJICUG_clean_linker_0, # of connection points: 2
#     Edge 10, Type (0, 0), BuildingBlock: OJICUG_clean_linker_0, # of connection points: 2
#     Edge 11, Type (0, 0), BuildingBlock: OJICUG_clean_linker_0, # of connection points: 2
#     Edge 12, Type (0, 0), BuildingBlock: OJICUG_clean_linker_0, # of connection points: 2
#     Edge 13, Type (0, 0), BuildingBlock: OJICUG_clean_linker_0, # of connection points: 2
#     Edge 14, Type (0, 0), BuildingBlock: OJICUG_clean_linker_0, # of connection points: 2
#     Edge 15, Type (0, 0), BuildingBlock: OJICUG_clean_linker_0, # of connection points: 2
#     Edge 16, Type (0, 0), BuildingBlock: OJICUG_clean_linker_0, # of connection points: 2
#     Edge 17, Type (0, 0), BuildingBlock: OJICUG_clean_linker_0, # of connection points: 2
#     Edge 18, Type (0, 0), BuildingBlock: OJICUG_clean_linker_0, # of connection points: 2
#     Edge 19, Type (0, 0), BuildingBlock: OJICUG_clean_linker_0, # of connection points: 2
#     Edge 20, Type (0, 0), BuildingBlock: OJICUG_clean_linker_0, # of connection points: 2
#     Edge 21, Type (0, 0), BuildingBlock: OJICUG_clean_linker_0, # of connection points: 2
#     Edge 22, Type (0, 0), BuildingBlock: OJICUG_clean_linker_0, # of connection points: 2
#     Edge 23, Type (0, 0), BuildingBlock: OJICUG_clean_linker_0, # of connection points: 2
#     Edge 24, Type (0, 0), BuildingBlock: OJICUG_clean_linker_0, # of connection points: 2
#     Edge 25, Type (0, 0), BuildingBlock: OJICUG_clean_linker_0, # of connection points: 2
#     Edge 26, Type (0, 0), BuildingBlock: OJICUG_clean_linker_0, # of connection points: 2
#     Edge 27, Type (0, 0), BuildingBlock: OJICUG_clean_linker_0, # of connection points: 2
#     Edge 28, Type (0, 0), BuildingBlock: OJICUG_clean_linker_0, # of connection points: 2
#     Edge 29, Type (0, 0), BuildingBlock: OJICUG_clean_linker_0, # of connection points: 2
#     Edge 30, Type (0, 0), BuildingBlock: OJICUG_clean_linker_0, # of connection points: 2
#     Edge 31, Type (0, 0), BuildingBlock: OJICUG_clean_linker_0, # of connection points: 2
#     Edge 32, Type (0, 0), BuildingBlock: OJICUG_clean_linker_0, # of connection points: 2
#     Edge 33, Type (0, 0), BuildingBlock: OJICUG_clean_linker_0, # of connection points: 2
#     Edge 34, Type (0, 0), BuildingBlock: OJICUG_clean_linker_0, # of connection points: 2
#     Edge 35, Type (0, 0), BuildingBlock: OJICUG_clean_linker_0, # of connection points: 2
# Relax obj value: 0.289
# Max RMSD: 0.292
# Mean RMSD: 0.291
data_MOF--net-smc--node1-IZENUY_clean_sbu_0--edge1-OJICUG_clean_linker_0
_symmetry_space_group_name_H-M    P1
_symmetry_Int_Tables_number       1
_symmetry_cell_setting            triclinic
loop_
_symmetry_equiv_pos_as_xyz
'x, y, z'
_cell_length_a     20.971065
_cell_length_b     21.052362
_cell_length_c     33.184464
_cell_angle_alpha  90.179151
_cell_angle_beta   90.194254
_cell_angle_gamma 119.71615
loop_
_atom_site_label
_atom_site_type_symbol
_atom_site_fract_x
_atom_site_fract_y
_atom_site_fract_z
_atom_type_partial_charge
Fe0 Fe 0.11865 0.50935 0.98518 0.0
Fe1 Fe 0.05311 0.35012 0.01266 0.0
O2 O 0.05361 0.43436 0.01298 0.0
Fe3 Fe 0.98944 0.44583 0.04154 0.0
O4 O 0.95188 0.45993 0.99648 0.0
O5 O 0.05583 0.54934 0.9756 0.0
O6 O 0.08619 0.46084 0.93858 0.0
C7 C 0.08353 0.40101 0.93081 0.0
C8 C 0.12216 0.58438 0.05022 0.0
O9 O 0.08266 0.35907 0.95893 0.0
C10 C 1.02466 0.37137 0.09483 0.0
O11 O 0.19239 0.48505 0.99023 0.0
O12 O 0.14622 0.39194 0.0318 0.0
O13 O 0.052 0.54763 0.05105 0.0
O14 O 0.15525 0.55895 0.03091 0.0
C15 C 0.90593 0.30179 0.00962 0.0
O16 O 1.02368 0.3297 0.06637 0.0
O17 O 1.02308 0.42925 0.08757 0.0
C18 C 0.20086 0.44584 0.01652 0.0
O19 O 0.95981 0.30115 0.99358 0.0
O20 O 0.91576 0.34898 0.0366 0.0
C21 C 0.98551 0.51717 0.97652 0.0
Fe22 Fe 0.73371 0.7166 0.01363 0.0
Fe23 Fe 0.5717 0.6223 0.98859 0.0
O24 O 0.65006 0.63322 0.01466 0.0
Fe25 Fe 0.64237 0.5572 0.04027 0.0
O26 O 0.66323 0.60319 0.08782 0.0
O27 O 0.75775 0.70733 0.06678 0.0
O28 O 0.69152 0.76622 0.03457 0.0
C29 C 0.63624 0.76652 0.02019 0.0
C30 C 0.7853 0.62001 1.00644 0.0
O31 O 0.59639 0.71966 0.99366 0.0
C32 C 0.56134 0.48097 0.97958 0.0
O33 O 0.71977 0.73618 0.9604 0.0
O34 O 0.6168 0.63732 0.94116 0.0
O35 O 0.73881 0.5798 0.03262 0.0
O36 O 0.78396 0.67476 0.99254 0.0
C37 C 0.50253 0.55113 0.05393 0.0
O38 O 0.52947 0.51938 0.97962 0.0
O39 O 0.62542 0.51178 0.99236 0.0
C40 C 0.67597 0.69446 0.93275 0.0
O41 O 0.52585 0.61 0.03557 0.0
O42 O 0.54105 0.51923 0.05302 0.0
C43 C 0.71934 0.66411 0.09513 0.0
Fe44 Fe 0.46314 0.96815 0.98703 0.0
Fe45 Fe 0.36528 0.03084 0.01348 0.0
O46 O 0.44935 0.03066 0.01547 0.0
Fe47 Fe 0.52145 0.09335 0.04641 0.0
O48 O 0.57563 0.13457 1.00299 0.0
O49 O 0.56545 0.03308 0.97951 0.0
O50 O 0.4482 1.00159 0.94056 0.0
C51 C 0.39069 1.00338 0.93193 0.0
C52 C 0.53214 0.96315 0.05318 0.0
O53 O 0.34788 1.00298 0.95938 0.0
C54 C 0.40859 0.05458 0.09687 0.0
O55 O 0.36597 0.89373 0.99037 0.0
O56 O 0.31432 0.93779 0.03095 0.0
O57 O 0.56348 0.03281 0.05526 0.0
O58 O 0.47558 0.93 0.03224 0.0
C59 C 0.4603 0.17709 0.01501 0.0
O60 O 0.37029 0.05804 0.06768 0.0
O61 O 0.46809 0.05527 0.09065 0.0
C62 C 0.31663 0.88425 0.01585 0.0
O63 O 0.41017 0.12444 0.99575 0.0
O64 O 0.49478 0.16512 0.04293 0.0
C65 C 0.60141 0.10311 0.98227 0.0
Fe66 Fe 0.65525 0.77815 0.37683 0.0
Fe67 Fe 0.71837 0.68356 0.34641 0.0
O68 O 0.7185 0.76743 0.34707 0.0
Fe69 Fe 0.78157 0.84211 0.31851 0.0
O70 O 0.81929 0.89355 0.36366 0.0
O71 O 0.71596 0.88023 0.38509 0.0
O72 O 0.69301 0.76424 0.42202 0.0
C73 C 0.69353 0.70584 0.42921 0.0
C74 C 0.6463 0.84621 0.31149 0.0
O75 O 0.6905 0.6634 0.40056 0.0
C76 C 0.74712 0.73336 0.26442 0.0
O77 O 0.58325 0.68033 0.37374 0.0
O78 O 0.62455 0.63497 0.32784 0.0
O79 O 0.71661 0.87949 0.30938 0.0
O80 O 0.6143 0.7899 0.33247 0.0
C81 C 0.86559 0.78027 0.34943 0.0
O82 O 0.74697 0.692 0.29259 0.0
O83 O 0.74845 0.79254 0.27217 0.0
C84 C 0.57156 0.63324 0.34635 0.0
O85 O 0.81169 0.72572 0.36476 0.0
O86 O 0.85635 0.81933 0.32334 0.0
C87 C 0.78589 0.91791 0.3836 0.0
Fe88 Fe 0.30515 0.89018 0.37368 0.0
Fe89 Fe 0.39769 0.04918 0.34659 0.0
O90 O 0.31377 0.96608 0.34749 0.0
Fe91 Fe 0.23606 0.95555 0.32089 0.0
O92 O 0.1897 0.94413 0.3676 0.0
O93 O 0.20418 0.8533 0.38602 0.0
O94 O 0.32581 0.93694 0.42098 0.0
C95 C 0.38234 0.99749 0.42825 0.0
C96 C 0.22452 0.81372 0.31259 0.0
O97 O 0.42118 0.04024 0.39989 0.0
C98 C 0.34144 1.02652 0.26547 0.0
O99 O 0.4013 0.91208 0.36647 0.0
O100 O 0.44754 1.00656 0.32601 0.0
O101 O 0.19323 0.85263 0.31234 0.0
O102 O 0.28811 0.84344 0.32618 0.0
C103 C 0.30071 0.0998 0.35209 0.0
O104 O 0.38465 0.06849 0.2932 0.0
O105 O 0.28183 0.96974 0.27371 0.0
C106 C 0.44782 0.95139 0.3401 0.0
O107 O 0.35553 0.09924 0.367 0.0
O108 O 0.2614 0.0531 0.32539 0.0
C109 C 0.16635 0.88585 0.38658 0.0
Fe110 Fe 1.02926 0.36351 0.34551 0.0
Fe111 Fe 0.12471 0.29741 0.31988 0.0
O112 O 0.11242 0.36194 0.34758 0.0
Fe113 Fe 0.18635 0.42626 0.37657 0.0
O114 O 0.13609 0.39401 0.42213 0.0
O115 O 1.0358 0.39266 0.3995 0.0
O116 O 0.97794 0.27106 0.36399 0.0
C117 C 0.97875 0.21673 0.34891 0.0
C118 C 0.12537 0.50993 0.34487 0.0
O119 O 1.02684 0.22503 0.32293 0.0
C120 C 0.26638 0.42879 0.31551 0.0
O121 O 1.01148 0.33419 0.2916 0.0
O122 O 0.1113 0.33114 0.27303 0.0
O123 O 0.16203 0.49924 0.3719 0.0
O124 O 0.07402 0.45657 0.32672 0.0
C125 C 0.19299 0.29351 0.38627 0.0
O126 O 0.2279 0.359 0.31309 0.0
O127 O 0.23672 0.46162 0.33083 0.0
C128 C 0.05438 0.33419 0.26425 0.0
O129 O 0.13569 0.25976 0.36583 0.0
O130 O 0.22505 0.3633 0.38726 0.0
C131 C 0.07623 0.39244 0.42854 0.0
Fe132 Fe 0.44596 0.17516 0.65158 0.0
Fe133 Fe 0.38347 1.01663 0.6796 0.0
O134 O 0.38358 0.10053 0.68047 0.0
Fe135 Fe 0.32075 0.11117 0.71065 0.0
O136 O 0.27894 0.12249 0.66653 0.0
O137 O 0.38074 0.21194 0.64282 0.0
O138 O 0.41218 0.12522 0.60541 0.0
C139 C 0.41089 0.06612 0.59756 0.0
C140 C 0.45092 0.25116 0.71688 0.0
O141 O 0.41105 1.02478 0.62563 0.0
C142 C 0.36069 0.03953 0.76258 0.0
O143 O 0.52079 0.15273 0.65598 0.0
O144 O 0.47729 0.05912 0.69738 0.0
O145 O 0.3811 0.21315 0.71869 0.0
O146 O 0.48443 0.22742 0.69648 0.0
C147 C 0.23645 0.96651 0.68038 0.0
O148 O 0.35686 0.99684 0.73389 0.0
O149 O 0.35946 0.09764 0.75557 0.0
C150 C 0.53074 0.11422 0.68209 0.0
O151 O 0.28902 0.96775 0.66159 0.0
O152 O 0.24902 1.01346 0.70795 0.0
C153 C 0.31055 0.17829 0.64512 0.0
Fe154 Fe 0.97061 0.22465 0.7071 0.0
Fe155 Fe 0.06504 0.38304 0.67955 0.0
O156 O 0.98118 0.30012 0.67989 0.0
Fe157 Fe 0.90557 0.28994 0.65141 0.0
O158 O 0.85716 0.28126 0.69701 0.0
O159 O 0.86987 0.19059 0.71858 0.0
O160 O 0.991 0.27245 0.75409 0.0
C161 C 0.04805 0.33241 0.76146 0.0
C162 C 0.89058 0.14696 0.64608 0.0
O163 O 0.08727 0.37482 0.73314 0.0
C164 C 1.01285 0.3587 0.59743 0.0
O165 O 0.06641 0.24502 0.70052 0.0
O166 O 0.11521 0.34015 0.66031 0.0
O167 O 0.86056 0.18681 0.64452 0.0
O168 O 0.95372 0.17612 0.6602 0.0
C169 C 0.96961 0.43487 0.68105 0.0
O170 O 0.05413 0.40176 0.62549 0.0
O171 O 0.95381 0.3011 0.60542 0.0
C172 C 0.11391 0.2843 0.67448 0.0
O173 O 1.02144 0.43276 0.69889 0.0
O174 O 0.93352 0.38821 0.65366 0.0
C175 C 0.83309 0.22428 0.71744 0.0
Fe176 Fe 0.78791 0.6331 0.65535 0.0
Fe177 Fe 0.69145 0.69765 0.68032 0.0
O178 O 0.77515 0.69757 0.68208 0.0
Fe179 Fe 0.84879 0.76157 0.71171 0.0
O180 O 0.89908 0.79977 0.66624 0.0
O181 O 0.89075 0.69784 0.64721 0.0
O182 O 0.77283 0.66304 0.60783 0.0
C183 C 0.71626 0.66664 0.59896 0.0
C184 C 0.86098 0.63131 0.71839 0.0
O185 O 0.67415 0.66878 0.62621 0.0
C186 C 0.73802 0.72435 0.76351 0.0
O187 O 0.69112 0.55917 0.65889 0.0
O188 O 0.64026 0.60494 0.6986 0.0
O189 O 0.89145 0.70086 0.72068 0.0
O190 O 0.79888 0.5995 0.703 0.0
C191 C 0.78642 0.84393 0.68065 0.0
O192 O 0.69801 0.72594 0.73456 0.0
O193 O 0.79799 0.72602 0.75693 0.0
C194 C 0.64216 0.55076 0.68419 0.0
O195 O 0.73598 0.79078 0.66189 0.0
O196 O 0.82196 0.83296 0.70827 0.0
C197 C 0.92871 0.76772 0.64987 0.0
C198 C 0.38732 0.55332 0.06646 0.0
C199 C 0.42104 0.51122 0.05777 0.0
H200 H 0.29344 0.5671 0.0584 0.0
C201 C 0.37793 0.44233 0.03932 0.0
H202 H 0.41879 0.6068 0.08039 0.0
C203 C 0.3053 0.41955 0.02679 0.0
C204 C 0.27533 0.46597 0.03168 0.0
H205 H 0.40203 0.40887 0.03153 0.0
H206 H 0.27412 0.36761 0.01129 0.0
C207 C 0.31609 0.53159 0.053 0.0
C208 C 0.64218 0.94568 0.04737 0.0
C209 C 0.56961 0.91988 0.06016 0.0
H210 H 0.72045 0.91685 0.02405 0.0
C211 C 0.52419 0.84388 0.0655 0.0
H212 H 0.6787 1.00364 0.04331 0.0
C213 C 0.54634 0.79465 0.05259 0.0
C214 C 0.61599 0.82006 0.03595 0.0
H215 H 0.46825 0.82209 0.07578 0.0
H216 H 0.50809 0.73651 0.05454 0.0
C217 C 0.66547 0.89598 0.03567 0.0
C218 C 0.29141 0.76566 0.04498 0.0
C219 C 0.26421 0.80997 0.03059 0.0
H220 H 0.26681 0.66157 0.06763 0.0
C221 C 0.18813 0.78427 0.03323 0.0
H222 H 0.34982 0.78503 0.04495 0.0
C223 C 0.13953 0.71191 0.04551 0.0
C224 C 0.16673 0.66511 0.056 0.0
H225 H 0.16601 0.81872 0.02378 0.0
H226 H 0.081 0.69129 0.04419 0.0
C227 C 0.24359 0.69524 0.0587 0.0
C228 C 0.45404 0.27238 0.97062 0.0
C229 C 0.47595 0.25299 1.00682 0.0
H230 H 0.46292 0.3604 0.93314 0.0
C231 C 0.51669 0.30798 0.03496 0.0
H232 H 0.42234 0.23093 0.94823 0.0
C233 C 0.53857 0.3805 0.02658 0.0
C234 C 0.52072 0.40149 0.98967 0.0
H235 H 0.53399 0.29545 0.06322 0.0
H236 H 0.57367 0.4209 0.04861 0.0
C237 C 0.47658 0.34629 0.96201 0.0
C238 C 0.73143 0.12387 0.98166 0.0
C239 C 0.68187 0.14964 0.9752 0.0
H240 H 0.84223 0.15221 0.99797 0.0
C241 C 0.71017 0.22608 0.97439 0.0
H242 H 0.71203 0.06574 0.98195 0.0
C243 C 0.78263 0.2746 0.98555 0.0
C244 C 0.83049 0.24879 0.99563 0.0
H245 H 0.67407 0.24831 0.96897 0.0
H246 H 0.80075 0.33245 0.98734 0.0
C247 C 0.8056 0.17332 0.9914 0.0
C248 C 0.96598 0.62674 0.97944 0.0
C249 C 0.94067 0.55326 0.96882 0.0
H250 H 0.93638 0.70599 1.00022 0.0
C251 C 0.86421 0.50688 0.96409 0.0
H252 H 1.02418 0.66437 0.98241 0.0
C253 C 0.81449 0.52933 0.97583 0.0
C254 C 0.83953 0.60017 0.99063 0.0
H255 H 0.8425 0.4503 0.95517 0.0
H256 H 0.75619 0.49033 0.97454 0.0
C257 C 0.91565 0.6502 0.99005 0.0
C258 C 0.9694 0.75398 0.36072 0.0
C259 C 0.94008 0.80112 0.3644 0.0
H260 H 0.06566 0.74286 0.36639 0.0
C261 C 0.98101 0.86765 0.38485 0.0
H262 H 0.93784 0.7013 0.346 0.0
C263 C 0.05196 0.88941 0.39865 0.0
C264 C 0.0852 0.84658 0.39087 0.0
H265 H 0.95866 0.90368 0.38936 0.0
H266 H 0.08366 0.94337 0.41197 0.0
C267 C 1.04185 0.77689 0.37341 0.0
C268 C 0.30318 0.27814 0.37601 0.0
C269 C 0.23225 0.25173 0.39178 0.0
H270 H 0.38067 0.25012 0.35067 0.0
C271 C 0.18911 0.17615 0.39913 0.0
H272 H 0.33731 0.33566 0.36927 0.0
C273 C 0.21204 0.12738 0.38642 0.0
C274 C 0.27999 0.15306 0.36756 0.0
H275 H 0.1342 0.15397 0.41113 0.0
H276 H 0.17556 0.06925 0.39023 0.0
C277 C 0.32722 0.22904 0.36443 0.0
C278 C 0.95373 0.09988 0.38028 0.0
C279 C 0.92642 0.14304 0.36424 0.0
H280 H 0.92905 0.99622 0.40387 0.0
C281 C 0.85012 0.1165 0.36525 0.0
H282 H 1.01228 0.12003 0.38144 0.0
C283 C 0.80162 0.04422 0.37757 0.0
C284 C 0.82915 0.99844 0.38967 0.0
H285 H 0.82791 0.15006 0.35438 0.0
H286 H 0.74308 1.02267 0.37475 0.0
C287 C 0.90584 0.02939 0.39388 0.0
C288 C 0.14316 0.67997 0.29231 0.0
C289 C 0.1828 0.73391 0.32155 0.0
H290 H 0.09318 0.56549 0.27669 0.0
C291 C 0.19659 0.71147 0.35911 0.0
H292 H 0.13296 0.69533 0.26289 0.0
C293 C 0.17547 0.63891 0.36669 0.0
C294 C 0.13953 0.58536 0.33709 0.0
H295 H 0.22856 0.7509 0.38226 0.0
H296 H 0.18976 0.62527 0.39555 0.0
C297 C 0.12116 0.60592 0.30016 0.0
C298 C 0.39942 0.48428 0.29324 0.0
C299 C 0.34687 0.46644 0.32362 0.0
H300 H 0.51303 0.55153 0.27664 0.0
C301 C 0.37103 0.49909 0.36201 0.0
H302 H 0.38262 0.46145 0.26325 0.0
C303 C 0.44391 0.55108 0.36934 0.0
C304 C 0.49592 0.5721 0.33872 0.0
H305 H 0.33247 0.48838 0.38613 0.0
H306 H 0.45902 0.57654 0.39887 0.0
C307 C 0.47375 0.53638 0.30088 0.0
C308 C 0.47479 0.85741 0.31245 0.0
C309 C 0.50081 0.92998 0.32443 0.0
H310 H 0.50134 0.77591 0.29476 0.0
C311 C 0.57667 0.97999 0.32145 0.0
H312 H 0.41653 0.81821 0.3131 0.0
C313 C 0.62625 0.95542 0.3113 0.0
C314 C 0.6003 0.8808 0.30354 0.0
H315 H 0.59797 0.03691 0.32949 0.0
H316 H 0.68461 0.99346 0.31257 0.0
C317 C 0.52361 0.83363 0.30121 0.0
C318 C 0.72001 0.23166 0.72623 0.0
C319 C 0.75213 0.18685 0.72245 0.0
H320 H 0.6272 0.2451 0.71372 0.0
C321 C 0.70726 0.11387 0.70977 0.0
H322 H 0.75292 0.28822 0.73576 0.0
C323 C 0.63402 0.08882 0.69778 0.0
C324 C 0.60562 0.13702 0.69717 0.0
H325 H 0.73023 0.07818 0.70588 0.0
H326 H 0.60114 0.03331 0.6867 0.0
C327 C 0.64847 0.20766 0.71281 0.0
C328 C 0.91606 0.51187 0.66118 0.0
C329 C 0.95356 0.49462 0.69001 0.0
H330 H 0.85917 0.56822 0.64742 0.0
C331 C 0.97063 0.53153 0.7276 0.0
H332 H 0.90265 0.48535 0.63189 0.0
C333 C 0.94582 0.58124 0.73683 0.0
C334 C 0.90445 0.59492 0.70837 0.0
H335 H 0.99972 0.51916 0.7505 0.0
H336 H 0.95527 0.60538 0.76665 0.0
C337 C 0.89206 0.56088 0.67014 0.0
C338 C 0.61786 0.43399 0.71541 0.0
C339 C 0.59018 0.477 0.69953 0.0
H340 H 0.5936 0.32984 0.73816 0.0
C341 C 0.51377 0.44975 0.70009 0.0
H342 H 0.67654 0.4547 0.71693 0.0
C343 C 0.46561 0.37703 0.71177 0.0
C344 C 0.49358 0.33148 0.72359 0.0
H345 H 0.49127 0.48307 0.68924 0.0
H346 H 0.40705 0.355 0.70855 0.0
C347 C 0.5702 0.3629 0.72828 0.0
C348 C 0.78504 0.93958 0.63479 0.0
C349 C 0.80119 0.91926 0.67242 0.0
H350 H 0.8001 0.02881 0.59641 0.0
C351 C 0.83603 0.97296 0.70205 0.0
H352 H 0.75799 0.89896 0.61129 0.0
C353 C 0.85852 0.0456 0.69381 0.0
C354 C 0.84716 0.06768 0.65557 0.0
H355 H 0.8486 0.95937 0.7314 0.0
H356 H 0.88978 0.08526 0.71702 0.0
C357 C 0.80839 1.01361 0.6263 0.0
C358 C 1.03435 0.83883 0.69572 0.0
C359 C 1.00947 0.80547 0.65756 0.0
H360 H 0.1235 0.91452 0.73247 0.0
C361 C 0.06186 0.82038 0.62741 0.0
H362 H 0.99608 0.82993 0.71976 0.0
C363 C 0.13687 0.87048 0.63505 0.0
C364 C 0.15997 0.90681 0.6727 0.0
H365 H 0.04462 0.79664 0.59763 0.0
H366 H 0.17611 0.8835 0.61097 0.0
C367 C 0.10788 0.88857 0.70307 0.0
C368 C 0.29102 0.28734 0.64482 0.0
C369 C 0.2646 0.21265 0.63717 0.0
H370 H 0.26352 0.36911 0.66332 0.0
C371 C 0.18791 0.16552 0.6353 0.0
H372 H 0.34945 0.32526 0.64574 0.0
C373 C 0.13956 0.18949 0.64706 0.0
C374 C 0.1662 0.26214 0.65902 0.0
H375 H 0.16544 0.10775 0.6289 0.0
H376 H 0.08128 0.15048 0.64803 0.0
C377 C 0.24192 0.31209 0.65543 0.0
C378 C 0.06621 0.30605 0.19221 0.0
C379 C 1.03734 0.3344 0.22098 0.0
H380 H 0.08357 0.29409 0.12953 0.0
C381 C 0.99772 0.3678 0.20763 0.0
H382 H 0.09653 0.27932 0.20165 0.0
C383 C 0.99118 0.37686 0.1664 0.0
C384 C 1.02299 0.35157 0.13767 0.0
H385 H 0.97498 0.39012 0.229 0.0
H386 H 0.96281 0.4056 0.157 0.0
C387 C 0.05851 0.31397 0.15092 0.0
C388 C 0.77672 0.77216 0.19246 0.0
C389 C 0.7499 0.71583 0.2214 0.0
H390 H 0.78969 0.80025 0.12972 0.0
C391 C 0.7216 0.64344 0.2083 0.0
H392 H 0.79978 0.8288 0.20164 0.0
C393 C 0.71554 0.62732 0.16705 0.0
C394 C 0.73873 0.68333 0.13809 0.0
H395 H 0.70078 0.59904 0.22977 0.0
H396 H 0.69026 0.57052 0.15778 0.0
C397 C 0.77168 0.75611 0.15123 0.0
C398 C 0.44645 0.09136 0.1682 0.0
C399 C 0.38968 0.05763 0.13933 0.0
H400 H 0.47575 0.10905 0.23084 0.0
C401 C 0.3167 1.02118 0.1522 0.0
H402 H 0.50342 0.12064 0.159 0.0
C403 C 0.30107 1.01398 0.19342 0.0
C404 C 0.35815 0.04415 0.22238 0.0
H405 H 0.27212 0.99478 0.13061 0.0
H406 H 0.24424 0.98266 0.20263 0.0
C407 C 0.43081 0.08516 0.20933 0.0
C408 C 0.40278 0.97502 0.85999 0.0
C409 C 0.37322 1.00287 0.88867 0.0
H410 H 0.42077 0.96338 0.79734 0.0
C411 C 0.33272 0.03523 0.87522 0.0
H412 H 0.43375 0.94902 0.86953 0.0
C413 C 0.32615 0.04401 0.83396 0.0
C414 C 0.35886 1.01949 0.80535 0.0
H415 H 0.30938 0.05707 0.89651 0.0
H416 H 0.29713 0.07203 0.82445 0.0
C417 C 0.39509 0.98268 0.81867 0.0
C418 C 0.05183 0.31032 0.87449 0.0
C419 C 0.08472 0.38303 0.88775 0.0
H420 H 1.01468 0.23749 0.82385 0.0
C421 C 0.11345 0.43952 0.85892 0.0
H422 H 1.02931 0.2658 0.89589 0.0
C423 C 0.10586 0.42357 0.81764 0.0
C424 C 0.06841 0.35078 0.80439 0.0
H425 H 0.13992 0.49635 0.86826 0.0
H426 H 0.12568 0.46804 0.79625 0.0
C427 C 0.04326 0.29435 0.83321 0.0
C428 C 0.64756 0.68957 0.81973 0.0
C429 C 0.72006 0.72754 0.80617 0.0
H430 H 0.57683 0.64929 0.8708 0.0
C431 C 0.77755 0.76229 0.83459 0.0
H432 H 0.60244 0.66231 0.79854 0.0
C433 C 0.76322 0.75542 0.87589 0.0
C434 C 0.69118 0.71279 0.88958 0.0
H435 H 0.83417 0.79273 0.82486 0.0
H436 H 0.80878 0.78007 0.89699 0.0
C437 C 0.63327 0.68181 0.86111 0.0
C438 C 0.72248 0.64542 0.48586 0.0
C439 C 0.68953 0.68509 0.47204 0.0
H440 H 0.7567 0.60852 0.53722 0.0
C441 C 0.65764 0.71124 0.50025 0.0
H442 H 0.74733 0.62467 0.46487 0.0
C443 C 0.66213 0.70145 0.54159 0.0
C444 C 0.69962 0.66631 0.55557 0.0
H445 H 0.63096 0.74136 0.49039 0.0
H446 H 0.63979 0.7248 0.56256 0.0
C447 C 0.72802 0.63665 0.52728 0.0
C448 C 0.4351 0.08929 0.4844 0.0
C449 C 0.40188 1.01655 0.47119 0.0
H450 H 0.46359 0.1618 0.53491 0.0
C451 C 0.37863 0.9604 0.50007 0.0
H452 H 0.45317 0.13351 0.46294 0.0
C453 C 0.38489 0.97636 0.54133 0.0
C454 C 0.41344 0.04872 0.55451 0.0
H455 H 0.35317 0.90362 0.49072 0.0
H456 H 0.36403 0.93187 0.56274 0.0
C457 C 0.44032 0.10517 0.52565 0.0
C458 C 0.10043 0.42184 0.54098 0.0
C459 C 1.02846 0.37776 0.55439 0.0
H460 H 0.17165 0.46145 0.49011 0.0
C461 C 0.97079 0.34674 0.52578 0.0
H462 H 0.14573 0.44664 0.56223 0.0
C463 C 0.98531 0.35582 0.48448 0.0
C464 C 0.05783 0.3952 0.47112 0.0
H465 H 0.91436 0.31327 0.53528 0.0
H466 H 0.94044 0.32838 0.46316 0.0
C467 C 0.11503 0.43005 0.49971 0.0
loop_
_geom_bond_atom_site_label_1
_geom_bond_atom_site_label_2
_geom_bond_distance
_geom_bond_site_symmetry_2
_ccdc_geom_bond_type
Fe0 O2 1.918 1_556 S
Fe0 O5 1.997 1_455 S
Fe0 O6 2.002 . S
Fe0 O11 1.976 . S
Fe0 O14 2.007 . S
Fe1 O2 1.918 . S
Fe1 O9 1.997 1_454 S
Fe1 O12 1.996 1_554 S
Fe1 O16 1.976 . S
Fe1 O19 2.002 1_455 S
O2 Fe0 1.918 1_554 S
O2 Fe1 1.918 . S
O2 Fe3 1.918 1_455 S
Fe3 O2 1.918 1_655 S
Fe3 O4 2.002 . S
Fe3 O13 1.976 1_655 S
Fe3 O17 1.996 . S
Fe3 O20 1.997 . S
O4 Fe3 2.002 . S
O4 C21 1.295 1_554 S
O5 Fe0 1.997 1_655 S
O5 C21 1.235 . S
O6 Fe0 2.002 . S
O6 C7 1.295 1_455 S
C7 O6 1.295 1_655 S
C7 O9 1.235 . S
C8 O13 1.287 . S
C8 O14 1.237 1_554 S
O9 Fe1 1.997 1_656 S
O9 C7 1.235 . S
C10 O16 1.287 . S
C10 O17 1.255 1_455 S
O11 Fe0 1.976 . S
O11 C18 1.287 . S
O12 Fe1 1.996 1_556 S
O12 C18 1.255 . S
O13 Fe3 1.976 1_455 S
O13 C8 1.287 . S
O14 Fe0 2.007 . S
O14 C8 1.237 1_556 S
C15 O19 1.295 . S
C15 O20 1.235 . S
O16 Fe1 1.976 . S
O16 C10 1.287 . S
O17 Fe3 1.996 . S
O17 C10 1.255 1_655 S
C18 O11 1.287 . S
C18 O12 1.255 . S
O19 Fe1 2.002 1_655 S
O19 C15 1.295 . S
O20 Fe3 1.997 . S
O20 C15 1.235 . S
C21 O4 1.295 1_556 S
C21 O5 1.235 . S
Fe22 O24 1.918 . S
Fe22 O27 1.997 . S
Fe22 O28 2.002 1_554 S
Fe22 O33 1.976 1_554 S
Fe22 O36 1.996 . S
Fe23 O24 1.918 1_556 S
Fe23 O31 1.997 . S
Fe23 O34 1.996 . S
Fe23 O38 1.976 . S
Fe23 O41 2.002 . S
O24 Fe22 1.918 . S
O24 Fe23 1.918 1_554 S
O24 Fe25 1.918 . S
Fe25 O24 1.918 . S
Fe25 O26 2.002 . S
Fe25 O35 1.976 . S
Fe25 O39 1.996 . S
Fe25 O42 1.997 . S
O26 Fe25 2.002 . S
O26 C43 1.295 . S
O27 Fe22 1.997 . S
O27 C43 1.235 . S
O28 Fe22 2.002 1_556 S
O28 C29 1.295 . S
C29 O28 1.295 . S
C29 O31 1.235 . S
C30 O35 1.287 . S
C30 O36 1.255 . S
O31 Fe23 1.997 . S
O31 C29 1.235 . S
C32 O38 1.287 . S
C32 O39 1.255 1_556 S
O33 Fe22 1.976 1_556 S
O33 C40 1.287 . S
O34 Fe23 1.996 . S
O34 C40 1.255 . S
O35 Fe25 1.976 . S
O35 C30 1.287 . S
O36 Fe22 1.996 . S
O36 C30 1.255 . S
C37 O41 1.295 1_554 S
C37 O42 1.235 . S
O38 Fe23 1.976 . S
O38 C32 1.287 . S
O39 Fe25 1.996 . S
O39 C32 1.255 1_554 S
C40 O33 1.287 . S
C40 O34 1.255 . S
O41 Fe23 2.002 . S
O41 C37 1.295 1_556 S
O42 Fe25 1.997 . S
O42 C37 1.235 . S
C43 O26 1.295 . S
C43 O27 1.235 . S
Fe44 O46 1.910 1_566 S
Fe44 O49 1.997 1_565 S
Fe44 O50 2.002 . S
Fe44 O55 1.976 . S
Fe44 O58 1.991 1_556 S
Fe45 O46 1.925 . S
Fe45 O53 1.997 1_554 S
Fe45 O56 1.996 1_544 S
Fe45 O60 1.976 1_545 S
Fe45 O63 2.002 . S
O46 Fe44 1.910 1_544 S
O46 Fe45 1.925 . S
O46 Fe47 1.920 . S
Fe47 O46 1.920 . S
Fe47 O48 2.002 . S
Fe47 O57 1.976 1_545 S
Fe47 O61 1.996 . S
Fe47 O64 1.997 . S
O48 Fe47 2.002 . S
O48 C65 1.295 1_554 S
O49 Fe44 1.997 1_545 S
O49 C65 1.235 . S
O50 Fe44 2.002 . S
O50 C51 1.295 1_565 S
C51 O50 1.295 1_545 S
C51 O53 1.235 . S
C52 O57 1.287 . S
C52 O58 1.263 . S
O53 Fe45 1.997 1_556 S
O53 C51 1.235 . S
C54 O60 1.287 . S
C54 O61 1.255 1_565 S
O55 Fe44 1.976 . S
O55 C62 1.287 . S
O56 Fe45 1.996 1_566 S
O56 C62 1.255 . S
O57 Fe47 1.976 1_565 S
O57 C52 1.287 . S
O58 Fe44 1.991 1_554 S
O58 C52 1.263 . S
C59 O63 1.295 . S
C59 O64 1.235 . S
O60 Fe45 1.976 1_565 S
O60 C54 1.287 . S
O61 Fe47 1.996 . S
O61 C54 1.255 1_545 S
C62 O55 1.287 . S
C62 O56 1.255 . S
O63 Fe45 2.002 . S
O63 C59 1.295 . S
O64 Fe47 1.997 . S
O64 C59 1.235 . S
C65 O48 1.295 1_556 S
C65 O49 1.235 . S
Fe66 O68 1.918 . S
Fe66 O71 1.997 . S
Fe66 O72 2.002 . S
Fe66 O77 1.976 . S
Fe66 O80 1.996 . S
Fe67 O68 1.918 . S
Fe67 O75 1.997 . S
Fe67 O78 1.996 . S
Fe67 O82 1.976 . S
Fe67 O85 2.002 . S
O68 Fe66 1.918 . S
O68 Fe67 1.918 . S
O68 Fe69 1.918 . S
Fe69 O68 1.918 . S
Fe69 O70 2.002 . S
Fe69 O79 1.976 . S
Fe69 O83 1.996 . S
Fe69 O86 1.997 . S
O70 Fe69 2.002 . S
O70 C87 1.295 . S
O71 Fe66 1.997 . S
O71 C87 1.235 . S
O72 Fe66 2.002 . S
O72 C73 1.295 . S
C73 O72 1.295 . S
C73 O75 1.235 . S
C74 O79 1.287 . S
C74 O80 1.255 . S
O75 Fe67 1.997 . S
O75 C73 1.235 . S
C76 O82 1.287 . S
C76 O83 1.255 . S
O77 Fe66 1.976 . S
O77 C84 1.287 . S
O78 Fe67 1.996 . S
O78 C84 1.255 . S
O79 Fe69 1.976 . S
O79 C74 1.287 . S
O80 Fe66 1.996 . S
O80 C74 1.255 . S
C81 O85 1.295 . S
C81 O86 1.235 . S
O82 Fe67 1.976 . S
O82 C76 1.287 . S
O83 Fe69 1.996 . S
O83 C76 1.255 . S
C84 O77 1.287 . S
C84 O78 1.255 . S
O85 Fe67 2.002 . S
O85 C81 1.295 . S
O86 Fe69 1.997 . S
O86 C81 1.235 . S
C87 O70 1.295 . S
C87 O71 1.235 . S
Fe88 O90 1.918 . S
Fe88 O93 1.997 . S
Fe88 O94 2.002 . S
Fe88 O99 1.976 . S
Fe88 O102 1.996 . S
Fe89 O90 1.918 . S
Fe89 O97 1.997 1_565 S
Fe89 O100 1.996 . S
Fe89 O104 1.976 . S
Fe89 O107 2.002 1_565 S
O90 Fe88 1.918 . S
O90 Fe89 1.918 . S
O90 Fe91 1.918 . S
Fe91 O90 1.918 . S
Fe91 O92 2.002 . S
Fe91 O101 1.976 . S
Fe91 O105 1.996 . S
Fe91 O108 1.997 . S
O92 Fe91 2.002 . S
O92 C109 1.295 . S
O93 Fe88 1.997 . S
O93 C109 1.235 . S
O94 Fe88 2.002 . S
O94 C95 1.295 . S
C95 O94 1.295 . S
C95 O97 1.235 1_565 S
C96 O101 1.287 . S
C96 O102 1.255 . S
O97 Fe89 1.997 1_545 S
O97 C95 1.235 1_545 S
C98 O104 1.287 . S
C98 O105 1.255 . S
O99 Fe88 1.976 . S
O99 C106 1.287 . S
O100 Fe89 1.996 . S
O100 C106 1.255 . S
O101 Fe91 1.976 . S
O101 C96 1.287 . S
O102 Fe88 1.996 . S
O102 C96 1.255 . S
C103 O107 1.295 . S
C103 O108 1.235 1_545 S
O104 Fe89 1.976 . S
O104 C98 1.287 . S
O105 Fe91 1.996 . S
O105 C98 1.255 . S
C106 O99 1.287 . S
C106 O100 1.255 . S
O107 Fe89 2.002 1_545 S
O107 C103 1.295 . S
O108 Fe91 1.997 . S
O108 C103 1.235 1_565 S
C109 O92 1.295 . S
C109 O93 1.235 . S
Fe110 O112 1.918 . S
Fe110 O115 1.997 1_455 S
Fe110 O116 2.002 1_455 S
Fe110 O121 1.976 . S
Fe110 O124 1.996 . S
Fe111 O112 1.918 . S
Fe111 O119 1.997 . S
Fe111 O122 1.996 . S
Fe111 O126 1.976 . S
Fe111 O129 2.002 . S
O112 Fe110 1.918 . S
O112 Fe111 1.918 . S
O112 Fe113 1.918 . S
Fe113 O112 1.918 . S
Fe113 O114 2.002 . S
Fe113 O123 1.976 . S
Fe113 O127 1.996 . S
Fe113 O130 1.997 . S
O114 Fe113 2.002 . S
O114 C131 1.295 . S
O115 Fe110 1.997 1_655 S
O115 C131 1.235 1_655 S
O116 Fe110 2.002 1_655 S
O116 C117 1.295 . S
C117 O116 1.295 . S
C117 O119 1.235 1_655 S
C118 O123 1.287 . S
C118 O124 1.255 . S
O119 Fe111 1.997 . S
O119 C117 1.235 1_455 S
C120 O126 1.287 . S
C120 O127 1.255 . S
O121 Fe110 1.976 . S
O121 C128 1.287 . S
O122 Fe111 1.996 . S
O122 C128 1.255 . S
O123 Fe113 1.976 . S
O123 C118 1.287 . S
O124 Fe110 1.996 . S
O124 C118 1.255 . S
C125 O129 1.295 . S
C125 O130 1.235 . S
O126 Fe111 1.976 . S
O126 C120 1.287 . S
O127 Fe113 1.996 . S
O127 C120 1.255 . S
C128 O121 1.287 . S
C128 O122 1.255 . S
O129 Fe111 2.002 . S
O129 C125 1.295 . S
O130 Fe113 1.997 . S
O130 C125 1.235 . S
C131 O114 1.295 . S
C131 O115 1.235 1_455 S
Fe132 O134 1.918 . S
Fe132 O137 1.997 . S
Fe132 O138 2.002 . S
Fe132 O143 1.976 . S
Fe132 O146 1.996 . S
Fe133 O134 1.918 . S
Fe133 O141 1.997 . S
Fe133 O144 1.996 . S
Fe133 O148 1.976 . S
Fe133 O151 2.002 1_545 S
O134 Fe132 1.918 . S
O134 Fe133 1.918 . S
O134 Fe135 1.918 . S
Fe135 O134 1.918 . S
Fe135 O136 2.002 . S
Fe135 O145 1.976 . S
Fe135 O149 1.996 . S
Fe135 O152 1.997 . S
O136 Fe135 2.002 . S
O136 C153 1.295 . S
O137 Fe132 1.997 . S
O137 C153 1.235 . S
O138 Fe132 2.002 . S
O138 C139 1.295 . S
C139 O138 1.295 . S
C139 O141 1.240 . S
C140 O145 1.287 . S
C140 O146 1.255 . S
O141 Fe133 1.997 . S
O141 C139 1.240 . S
C142 O148 1.287 . S
C142 O149 1.255 . S
O143 Fe132 1.976 . S
O143 C150 1.287 . S
O144 Fe133 1.996 . S
O144 C150 1.255 . S
O145 Fe135 1.976 . S
O145 C140 1.287 . S
O146 Fe132 1.996 . S
O146 C140 1.255 . S
C147 O151 1.295 . S
C147 O152 1.235 1_565 S
O148 Fe133 1.976 . S
O148 C142 1.287 . S
O149 Fe135 1.996 . S
O149 C142 1.255 . S
C150 O143 1.287 . S
C150 O144 1.255 . S
O151 Fe133 2.002 1_565 S
O151 C147 1.295 . S
O152 Fe135 1.997 . S
O152 C147 1.235 1_545 S
C153 O136 1.295 . S
C153 O137 1.235 . S
Fe154 O156 1.918 . S
Fe154 O159 1.997 . S
Fe154 O160 2.002 . S
Fe154 O165 1.976 . S
Fe154 O168 1.996 . S
Fe155 O156 1.918 . S
Fe155 O163 1.997 . S
Fe155 O166 1.996 1_655 S
Fe155 O170 1.976 1_655 S
Fe155 O173 2.002 . S
O156 Fe154 1.918 . S
O156 Fe155 1.918 . S
O156 Fe157 1.918 . S
Fe157 O156 1.918 . S
Fe157 O158 2.002 . S
Fe157 O167 1.976 . S
Fe157 O171 1.996 . S
Fe157 O174 1.997 . S
O158 Fe157 2.002 . S
O158 C175 1.295 . S
O159 Fe154 1.997 . S
O159 C175 1.235 . S
O160 Fe154 2.002 . S
O160 C161 1.295 . S
C161 O160 1.295 . S
C161 O163 1.235 . S
C162 O167 1.287 . S
C162 O168 1.255 . S
O163 Fe155 1.997 . S
O163 C161 1.235 . S
C164 O170 1.287 1_655 S
C164 O171 1.255 . S
O165 Fe154 1.976 . S
O165 C172 1.287 1_655 S
O166 Fe155 1.996 1_455 S
O166 C172 1.255 . S
O167 Fe157 1.976 . S
O167 C162 1.287 . S
O168 Fe154 1.996 . S
O168 C162 1.255 . S
C169 O173 1.295 . S
C169 O174 1.235 . S
O170 Fe155 1.976 1_455 S
O170 C164 1.287 1_455 S
O171 Fe157 1.996 . S
O171 C164 1.255 . S
C172 O165 1.287 1_455 S
C172 O166 1.255 . S
O173 Fe155 2.002 . S
O173 C169 1.295 . S
O174 Fe157 1.997 . S
O174 C169 1.235 . S
C175 O158 1.295 . S
C175 O159 1.235 . S
Fe176 O178 1.918 . S
Fe176 O181 1.997 . S
Fe176 O182 2.002 . S
Fe176 O187 1.976 . S
Fe176 O190 1.996 . S
Fe177 O178 1.918 . S
Fe177 O185 1.997 . S
Fe177 O188 1.996 . S
Fe177 O192 1.976 . S
Fe177 O195 2.002 . S
O178 Fe176 1.918 . S
O178 Fe177 1.918 . S
O178 Fe179 1.918 . S
Fe179 O178 1.918 . S
Fe179 O180 2.002 . S
Fe179 O189 1.976 . S
Fe179 O193 1.996 . S
Fe179 O196 1.997 . S
O180 Fe179 2.002 . S
O180 C197 1.295 . S
O181 Fe176 1.997 . S
O181 C197 1.235 . S
O182 Fe176 2.002 . S
O182 C183 1.295 . S
C183 O182 1.295 . S
C183 O185 1.235 . S
C184 O189 1.287 . S
C184 O190 1.255 . S
O185 Fe177 1.997 . S
O185 C183 1.235 . S
C186 O192 1.287 . S
C186 O193 1.255 . S
O187 Fe176 1.976 . S
O187 C194 1.287 . S
O188 Fe177 1.996 . S
O188 C194 1.255 . S
O189 Fe179 1.976 . S
O189 C184 1.287 . S
O190 Fe176 1.996 . S
O190 C184 1.255 . S
C191 O195 1.295 . S
C191 O196 1.235 . S
O192 Fe177 1.976 . S
O192 C186 1.287 . S
O193 Fe179 1.996 . S
O193 C186 1.255 . S
C194 O187 1.287 . S
C194 O188 1.255 . S
O195 Fe177 2.002 . S
O195 C191 1.295 . S
O196 Fe179 1.997 . S
O196 C191 1.235 . S
C197 O180 1.295 . S
C197 O181 1.235 . S
C198 C199 1.387 . S
C198 H202 0.950 . S
C198 C207 1.390 1_554 S
C199 C198 1.387 . S
C199 C201 1.387 . S
H200 C207 0.950 . S
C201 C199 1.387 . S
C201 C203 1.390 . S
C201 H205 0.950 . S
H202 C198 0.950 . S
C203 C201 1.390 . S
C203 C204 1.387 1_554 S
C203 H206 0.950 . S
C204 C203 1.387 1_556 S
C204 C207 1.387 . S
H205 C201 0.950 . S
H206 C203 0.950 . S
C207 C198 1.390 1_556 S
C207 H200 0.950 . S
C207 C204 1.387 . S
C208 C209 1.387 1_556 S
C208 H212 0.950 . S
C208 C217 1.390 . S
C209 C208 1.387 1_554 S
C209 C211 1.387 . S
H210 C217 0.950 . S
C211 C209 1.387 . S
C211 C213 1.390 . S
C211 H215 0.950 . S
H212 C208 0.950 . S
C213 C211 1.390 . S
C213 C214 1.387 1_554 S
C213 H216 0.950 . S
C214 C213 1.387 1_556 S
C214 C217 1.387 . S
H215 C211 0.950 . S
H216 C213 0.950 . S
C217 C208 1.390 . S
C217 H210 0.950 . S
C217 C214 1.387 . S
C218 C219 1.387 . S
C218 H222 0.950 . S
C218 C227 1.390 1_556 S
C219 C218 1.387 . S
C219 C221 1.387 1_556 S
H220 C227 0.950 . S
C221 C219 1.387 1_554 S
C221 C223 1.390 . S
C221 H225 0.950 . S
H222 C218 0.950 . S
C223 C221 1.390 . S
C223 C224 1.387 . S
C223 H226 0.950 . S
C224 C223 1.387 . S
C224 C227 1.387 . S
H225 C221 0.950 . S
H226 C223 0.950 . S
C227 C218 1.390 1_554 S
C227 H220 0.950 . S
C227 C224 1.387 . S
C228 C229 1.387 1_556 S
C228 H232 0.950 . S
C228 C237 1.390 . S
C229 C228 1.387 1_554 S
C229 C231 1.387 . S
H230 C237 0.950 . S
C231 C229 1.387 . S
C231 C233 1.390 . S
C231 H235 0.950 . S
H232 C228 0.950 . S
C233 C231 1.390 . S
C233 C234 1.387 1_554 S
C233 H236 0.950 . S
C234 C233 1.387 1_556 S
C234 C237 1.387 . S
H235 C231 0.950 . S
H236 C233 0.950 . S
C237 C228 1.390 . S
C237 H230 0.950 . S
C237 C234 1.387 . S
C238 C239 1.387 1_554 S
C238 H242 0.950 . S
C238 C247 1.390 . S
C239 C238 1.387 1_556 S
C239 C241 1.387 . S
H240 C247 0.950 . S
C241 C239 1.387 . S
C241 C243 1.390 . S
C241 H245 0.950 . S
H242 C238 0.950 . S
C243 C241 1.390 . S
C243 C244 1.387 1_556 S
C243 H246 0.950 . S
C244 C243 1.387 1_554 S
C244 C247 1.387 . S
H245 C241 0.950 . S
H246 C243 0.950 . S
C247 C238 1.390 . S
C247 H240 0.950 . S
C247 C244 1.387 . S
C248 C249 1.387 . S
C248 H252 0.950 . S
C248 C257 1.390 . S
C249 C248 1.387 . S
C249 C251 1.387 1_556 S
H250 C257 0.950 . S
C251 C249 1.387 1_554 S
C251 C253 1.390 . S
C251 H255 0.950 . S
H252 C248 0.950 . S
C253 C251 1.390 . S
C253 C254 1.387 . S
C253 H256 0.950 . S
C254 C253 1.387 . S
C254 C257 1.387 1_554 S
H255 C251 0.950 . S
H256 C253 0.950 . S
C257 C248 1.390 . S
C257 H250 0.950 . S
C257 C254 1.387 1_556 S
C258 C259 1.387 . S
C258 H262 0.950 . S
C258 C267 1.390 . S
C259 C258 1.387 . S
C259 C261 1.387 . S
H260 C267 0.950 . S
C261 C259 1.387 . S
C261 C263 1.390 1_655 S
C261 H265 0.950 . S
H262 C258 0.950 . S
C263 C261 1.390 1_455 S
C263 C264 1.387 . S
C263 H266 0.950 . S
C264 C263 1.387 . S
C264 C267 1.387 1_455 S
H265 C261 0.950 . S
H266 C263 0.950 . S
C267 C258 1.390 . S
C267 H260 0.950 . S
C267 C264 1.387 1_655 S
C268 C269 1.387 . S
C268 H272 0.950 . S
C268 C277 1.390 . S
C269 C268 1.387 . S
C269 C271 1.387 . S
H270 C277 0.950 . S
C271 C269 1.387 . S
C271 C273 1.390 . S
C271 H275 0.950 . S
H272 C268 0.950 . S
C273 C271 1.390 . S
C273 C274 1.387 . S
C273 H276 0.950 . S
C274 C273 1.387 . S
C274 C277 1.387 . S
H275 C271 0.950 . S
H276 C273 0.950 . S
C277 C268 1.390 . S
C277 H270 0.950 . S
C277 C274 1.387 . S
C278 C279 1.387 . S
C278 H282 0.950 . S
C278 C287 1.390 1_545 S
C279 C278 1.387 . S
C279 C281 1.387 . S
H280 C287 0.950 . S
C281 C279 1.387 . S
C281 C283 1.390 . S
C281 H285 0.950 . S
H282 C278 0.950 . S
C283 C281 1.390 . S
C283 C284 1.380 1_545 S
C283 H286 0.950 . S
C284 C283 1.380 1_565 S
C284 C287 1.391 . S
H285 C281 0.950 . S
H286 C283 0.950 . S
C287 C278 1.390 1_565 S
C287 H280 0.950 . S
C287 C284 1.391 . S
C288 C289 1.387 . S
C288 H292 0.950 . S
C288 C297 1.390 . S
C289 C288 1.387 . S
C289 C291 1.387 . S
H290 C297 0.950 . S
C291 C289 1.387 . S
C291 C293 1.390 . S
C291 H295 0.950 . S
H292 C288 0.950 . S
C293 C291 1.390 . S
C293 C294 1.387 . S
C293 H296 0.950 . S
C294 C293 1.387 . S
C294 C297 1.387 . S
H295 C291 0.950 . S
H296 C293 0.950 . S
C297 C288 1.390 . S
C297 H290 0.950 . S
C297 C294 1.387 . S
C298 C299 1.387 . S
C298 H302 0.950 . S
C298 C307 1.390 . S
C299 C298 1.387 . S
C299 C301 1.387 . S
H300 C307 0.950 . S
C301 C299 1.387 . S
C301 C303 1.390 . S
C301 H305 0.950 . S
H302 C298 0.950 . S
C303 C301 1.390 . S
C303 C304 1.387 . S
C303 H306 0.950 . S
C304 C303 1.387 . S
C304 C307 1.387 . S
H305 C301 0.950 . S
H306 C303 0.950 . S
C307 C298 1.390 . S
C307 H300 0.950 . S
C307 C304 1.387 . S
C308 C309 1.387 . S
C308 H312 0.950 . S
C308 C317 1.390 . S
C309 C308 1.387 . S
C309 C311 1.387 . S
H310 C317 0.950 . S
C311 C309 1.387 . S
C311 C313 1.390 . S
C311 H315 0.950 . S
H312 C308 0.950 . S
C313 C311 1.390 . S
C313 C314 1.387 . S
C313 H316 0.950 . S
C314 C313 1.387 . S
C314 C317 1.387 . S
H315 C311 0.950 . S
H316 C313 0.950 . S
C317 C308 1.390 . S
C317 H310 0.950 . S
C317 C314 1.387 . S
C318 C319 1.387 . S
C318 H322 0.950 . S
C318 C327 1.390 . S
C319 C318 1.387 . S
C319 C321 1.387 . S
H320 C327 0.950 . S
C321 C319 1.387 . S
C321 C323 1.390 . S
C321 H325 0.950 . S
H322 C318 0.950 . S
C323 C321 1.390 . S
C323 C324 1.387 . S
C323 H326 0.950 . S
C324 C323 1.387 . S
C324 C327 1.387 . S
H325 C321 0.950 . S
H326 C323 0.950 . S
C327 C318 1.390 . S
C327 H320 0.950 . S
C327 C324 1.387 . S
C328 C329 1.387 . S
C328 H332 0.950 . S
C328 C337 1.390 . S
C329 C328 1.387 . S
C329 C331 1.387 . S
H330 C337 0.950 . S
C331 C329 1.387 . S
C331 C333 1.390 . S
C331 H335 0.950 . S
H332 C328 0.950 . S
C333 C331 1.390 . S
C333 C334 1.387 . S
C333 H336 0.950 . S
C334 C333 1.387 . S
C334 C337 1.387 . S
H335 C331 0.950 . S
H336 C333 0.950 . S
C337 C328 1.390 . S
C337 H330 0.950 . S
C337 C334 1.387 . S
C338 C339 1.387 . S
C338 H342 0.950 . S
C338 C347 1.390 . S
C339 C338 1.387 . S
C339 C341 1.387 . S
H340 C347 0.950 . S
C341 C339 1.387 . S
C341 C343 1.390 . S
C341 H345 0.950 . S
H342 C338 0.950 . S
C343 C341 1.390 . S
C343 C344 1.387 . S
C343 H346 0.950 . S
C344 C343 1.387 . S
C344 C347 1.387 . S
H345 C341 0.950 . S
H346 C343 0.950 . S
C347 C338 1.390 . S
C347 H340 0.950 . S
C347 C344 1.387 . S
C348 C349 1.387 . S
C348 H352 0.950 . S
C348 C357 1.390 . S
C349 C348 1.387 . S
C349 C351 1.387 . S
H350 C357 0.950 . S
C351 C349 1.387 . S
C351 C353 1.390 1_565 S
C351 H355 0.950 . S
H352 C348 0.950 . S
C353 C351 1.390 1_545 S
C353 C354 1.387 . S
C353 H356 0.950 . S
C354 C353 1.387 . S
C354 C357 1.387 1_545 S
H355 C351 0.950 . S
H356 C353 0.950 . S
C357 C348 1.390 . S
C357 H350 0.950 . S
C357 C354 1.387 1_565 S
C358 C359 1.386 1_455 S
C358 H362 0.950 1_455 S
C358 C367 1.390 . S
C359 C358 1.386 1_655 S
C359 C361 1.385 1_655 S
H360 C367 0.950 . S
C361 C359 1.385 1_455 S
C361 C363 1.390 . S
C361 H365 0.950 . S
H362 C358 0.950 1_655 S
C363 C361 1.390 . S
C363 C364 1.387 . S
C363 H366 0.950 . S
C364 C363 1.387 . S
C364 C367 1.387 . S
H365 C361 0.950 . S
H366 C363 0.950 . S
C367 C358 1.390 . S
C367 H360 0.950 . S
C367 C364 1.387 . S
C368 C369 1.387 . S
C368 H372 0.950 . S
C368 C377 1.390 . S
C369 C368 1.387 . S
C369 C371 1.387 . S
H370 C377 0.950 . S
C371 C369 1.387 . S
C371 C373 1.390 . S
C371 H375 0.950 . S
H372 C368 0.950 . S
C373 C371 1.390 . S
C373 C374 1.387 . S
C373 H376 0.950 . S
C374 C373 1.387 . S
C374 C377 1.387 . S
H375 C371 0.950 . S
H376 C373 0.950 . S
C377 C368 1.390 . S
C377 H370 0.950 . S
C377 C374 1.387 . S
C378 C379 1.387 . S
C378 H382 0.950 . S
C378 C387 1.390 . S
C379 C378 1.387 . S
C379 C381 1.387 1_455 S
H380 C387 0.950 . S
C381 C379 1.387 1_655 S
C381 C383 1.390 . S
C381 H385 0.950 . S
H382 C378 0.950 . S
C383 C381 1.390 . S
C383 C384 1.387 1_655 S
C383 H386 0.950 . S
C384 C383 1.387 1_455 S
C384 C387 1.387 . S
H385 C381 0.950 . S
H386 C383 0.950 . S
C387 C378 1.390 . S
C387 H380 0.950 . S
C387 C384 1.387 . S
C388 C389 1.387 . S
C388 H392 0.950 . S
C388 C397 1.390 . S
C389 C388 1.387 . S
C389 C391 1.387 . S
H390 C397 0.950 . S
C391 C389 1.387 . S
C391 C393 1.390 . S
C391 H395 0.950 . S
H392 C388 0.950 . S
C393 C391 1.390 . S
C393 C394 1.387 . S
C393 H396 0.950 . S
C394 C393 1.387 . S
C394 C397 1.387 . S
H395 C391 0.950 . S
H396 C393 0.950 . S
C397 C388 1.390 . S
C397 H390 0.950 . S
C397 C394 1.387 . S
C398 C399 1.387 . S
C398 H402 0.950 . S
C398 C407 1.390 . S
C399 C398 1.387 . S
C399 C401 1.387 1_565 S
H400 C407 0.950 . S
C401 C399 1.387 1_545 S
C401 C403 1.390 . S
C401 H405 0.950 . S
H402 C398 0.950 . S
C403 C401 1.390 . S
C403 C404 1.387 1_545 S
C403 H406 0.950 . S
C404 C403 1.387 1_565 S
C404 C407 1.387 . S
H405 C401 0.950 . S
H406 C403 0.950 . S
C407 C398 1.390 . S
C407 H400 0.950 . S
C407 C404 1.387 . S
C408 C409 1.387 1_565 S
C408 H412 0.950 . S
C408 C417 1.390 . S
C409 C408 1.387 1_545 S
C409 C411 1.387 . S
H410 C417 0.950 . S
C411 C409 1.387 . S
C411 C413 1.390 . S
C411 H415 0.950 . S
H412 C408 0.950 . S
C413 C411 1.390 . S
C413 C414 1.387 . S
C413 H416 0.950 . S
C414 C413 1.387 . S
C414 C417 1.387 1_545 S
H415 C411 0.950 . S
H416 C413 0.950 . S
C417 C408 1.390 . S
C417 H410 0.950 . S
C417 C414 1.387 1_565 S
C418 C419 1.387 . S
C418 H422 0.950 . S
C418 C427 1.390 . S
C419 C418 1.387 . S
C419 C421 1.387 1_655 S
H420 C427 0.950 . S
C421 C419 1.387 1_455 S
C421 C423 1.390 . S
C421 H425 0.950 . S
H422 C418 0.950 . S
C423 C421 1.390 . S
C423 C424 1.387 1_455 S
C423 H426 0.950 . S
C424 C423 1.387 1_655 S
C424 C427 1.387 . S
H425 C421 0.950 . S
H426 C423 0.950 . S
C427 C418 1.390 . S
C427 H420 0.950 . S
C427 C424 1.387 . S
C428 C429 1.387 . S
C428 H432 0.950 . S
C428 C437 1.390 . S
C429 C428 1.387 . S
C429 C431 1.387 . S
H430 C437 0.950 . S
C431 C429 1.387 . S
C431 C433 1.390 . S
C431 H435 0.950 . S
H432 C428 0.950 . S
C433 C431 1.390 . S
C433 C434 1.387 . S
C433 H436 0.950 . S
C434 C433 1.387 . S
C434 C437 1.387 . S
H435 C431 0.950 . S
H436 C433 0.950 . S
C437 C428 1.390 . S
C437 H430 0.950 . S
C437 C434 1.387 . S
C438 C439 1.387 . S
C438 H442 0.950 . S
C438 C447 1.390 . S
C439 C438 1.387 . S
C439 C441 1.387 . S
H440 C447 0.950 . S
C441 C439 1.387 . S
C441 C443 1.390 . S
C441 H445 0.950 . S
H442 C438 0.950 . S
C443 C441 1.390 . S
C443 C444 1.387 . S
C443 H446 0.950 . S
C444 C443 1.387 . S
C444 C447 1.387 . S
H445 C441 0.950 . S
H446 C443 0.950 . S
C447 C438 1.390 . S
C447 H440 0.950 . S
C447 C444 1.387 . S
C448 C449 1.387 . S
C448 H452 0.950 . S
C448 C457 1.390 . S
C449 C448 1.387 . S
C449 C451 1.388 1_545 S
H450 C457 0.950 . S
C451 C449 1.388 1_565 S
C451 C453 1.390 1_565 S
C451 H455 0.950 . S
H452 C448 0.950 . S
C453 C451 1.390 1_545 S
C453 C454 1.387 . S
C453 H456 0.950 1_545 S
C454 C453 1.387 . S
C454 C457 1.387 . S
H455 C451 0.950 . S
H456 C453 0.950 1_565 S
C457 C448 1.390 . S
C457 H450 0.950 . S
C457 C454 1.387 . S
C458 C459 1.387 1_455 S
C458 H462 0.950 . S
C458 C467 1.390 . S
C459 C458 1.387 1_655 S
C459 C461 1.387 . S
H460 C467 0.950 . S
C461 C459 1.387 . S
C461 C463 1.390 . S
C461 H465 0.950 . S
H462 C458 0.950 . S
C463 C461 1.390 . S
C463 C464 1.387 1_655 S
C463 H466 0.950 . S
C464 C463 1.387 1_455 S
C464 C467 1.387 . S
H465 C461 0.950 . S
H466 C463 0.950 . S
C467 C458 1.390 . S
C467 H460 0.950 . S
C467 C464 1.387 . S
C199 C37 1.503 . S
C204 C18 1.599 . S
C209 C52 1.497 . S
C214 C29 1.613 . S
C219 C62 1.549 . S
C224 C8 1.470 . S
C229 C59 1.602 . S
C234 C32 1.487 . S
C239 C65 1.494 . S
C244 C15 1.621 . S
C249 C21 1.477 . S
C254 C30 1.574 . S
C259 C81 1.615 . S
C264 C109 1.484 . S
C269 C125 1.480 . S
C274 C103 1.608 . S
C279 C117 1.624 . S
C284 C87 1.499 . S
C289 C96 1.485 . S
C294 C118 1.565 . S
C299 C120 1.480 . S
C304 C84 1.559 . S
C309 C106 1.573 . S
C314 C74 1.491 . S
C319 C175 1.487 . S
C324 C150 1.580 . S
C329 C169 1.605 . S
C334 C184 1.491 . S
C339 C194 1.560 . S
C344 C140 1.478 . S
C349 C191 1.583 . S
C354 C162 1.469 . S
C359 C197 1.507 . S
C364 C147 1.632 . S
C369 C153 1.469 . S
C374 C172 1.565 . S
C379 C128 1.363 . S
C384 C10 1.363 . S
C389 C76 1.413 . S
C394 C43 1.403 . S
C399 C54 1.372 . S
C404 C98 1.372 . S
C409 C51 1.369 . S
C414 C142 1.378 . S
C419 C7 1.416 . S
C424 C161 1.418 . S
C429 C186 1.335 . S
C434 C40 1.335 . S
C439 C73 1.386 . S
C444 C183 1.388 . S
C449 C95 1.377 1_545 S
C454 C139 1.378 . S
C459 C164 1.347 . S
C464 C131 1.337 . S
