# Generated by pormake.
# Topology why, (6)-cn, num edge types: 1
# Building blocks:
#     Node 0, Type 0, BuildingBlock: UKALOJ_clean_sbu_0, # of connection points: 6
#     Node 1, Type 0, BuildingBlock: UKALOJ_clean_sbu_0, # of connection points: 6
#     Node 2, Type 0, BuildingBlock: UKALOJ_clean_sbu_0, # of connection points: 6
#     Node 3, Type 0, BuildingBlock: UKALOJ_clean_sbu_0, # of connection points: 6
#     Node 4, Type 0, BuildingBlock: UKALOJ_clean_sbu_0, # of connection points: 6
#     Node 5, Type 0, BuildingBlock: UKALOJ_clean_sbu_0, # of connection points: 6
#     Node 6, Type 0, BuildingBlock: UKALOJ_clean_sbu_0, # of connection points: 6
#     Node 7, Type 0, BuildingBlock: UKALOJ_clean_sbu_0, # of connection points: 6
#     Node 8, Type 0, BuildingBlock: UKALOJ_clean_sbu_0, # of connection points: 6
#     Node 9, Type 0, BuildingBlock: UKALOJ_clean_sbu_0, # of connection points: 6
#     Node 10, Type 0, BuildingBlock: UKALOJ_clean_sbu_0, # of connection points: 6
#     Node 11, Type 0, BuildingBlock: UKALOJ_clean_sbu_0, # of connection points: 6
#     Node 12, Type 0, BuildingBlock: UKALOJ_clean_sbu_0, # of connection points: 6
#     Node 13, Type 0, BuildingBlock: UKALOJ_clean_sbu_0, # of connection points: 6
#     Node 14, Type 0, BuildingBlock: UKALOJ_clean_sbu_0, # of connection points: 6
#     Node 15, Type 0, BuildingBlock: UKALOJ_clean_sbu_0, # of connection points: 6
#     Edge 16, Type (0, 0), BuildingBlock: XIVTED_clean_linker_0, # of connection points: 2
#     Edge 17, Type (0, 0), BuildingBlock: XIVTED_clean_linker_0, # of connection points: 2
#     Edge 18, Type (0, 0), BuildingBlock: XIVTED_clean_linker_0, # of connection points: 2
#     Edge 19, Type (0, 0), BuildingBlock: XIVTED_clean_linker_0, # of connection points: 2
#     Edge 20, Type (0, 0), BuildingBlock: XIVTED_clean_linker_0, # of connection points: 2
#     Edge 21, Type (0, 0), BuildingBlock: XIVTED_clean_linker_0, # of connection points: 2
#     Edge 22, Type (0, 0), BuildingBlock: XIVTED_clean_linker_0, # of connection points: 2
#     Edge 23, Type (0, 0), BuildingBlock: XIVTED_clean_linker_0, # of connection points: 2
#     Edge 24, Type (0, 0), BuildingBlock: XIVTED_clean_linker_0, # of connection points: 2
#     Edge 25, Type (0, 0), BuildingBlock: XIVTED_clean_linker_0, # of connection points: 2
#     Edge 26, Type (0, 0), BuildingBlock: XIVTED_clean_linker_0, # of connection points: 2
#     Edge 27, Type (0, 0), BuildingBlock: XIVTED_clean_linker_0, # of connection points: 2
#     Edge 28, Type (0, 0), BuildingBlock: XIVTED_clean_linker_0, # of connection points: 2
#     Edge 29, Type (0, 0), BuildingBlock: XIVTED_clean_linker_0, # of connection points: 2
#     Edge 30, Type (0, 0), BuildingBlock: XIVTED_clean_linker_0, # of connection points: 2
#     Edge 31, Type (0, 0), BuildingBlock: XIVTED_clean_linker_0, # of connection points: 2
#     Edge 32, Type (0, 0), BuildingBlock: XIVTED_clean_linker_0, # of connection points: 2
#     Edge 33, Type (0, 0), BuildingBlock: XIVTED_clean_linker_0, # of connection points: 2
#     Edge 34, Type (0, 0), BuildingBlock: XIVTED_clean_linker_0, # of connection points: 2
#     Edge 35, Type (0, 0), BuildingBlock: XIVTED_clean_linker_0, # of connection points: 2
#     Edge 36, Type (0, 0), BuildingBlock: XIVTED_clean_linker_0, # of connection points: 2
#     Edge 37, Type (0, 0), BuildingBlock: XIVTED_clean_linker_0, # of connection points: 2
#     Edge 38, Type (0, 0), BuildingBlock: XIVTED_clean_linker_0, # of connection points: 2
#     Edge 39, Type (0, 0), BuildingBlock: XIVTED_clean_linker_0, # of connection points: 2
#     Edge 40, Type (0, 0), BuildingBlock: XIVTED_clean_linker_0, # of connection points: 2
#     Edge 41, Type (0, 0), BuildingBlock: XIVTED_clean_linker_0, # of connection points: 2
#     Edge 42, Type (0, 0), BuildingBlock: XIVTED_clean_linker_0, # of connection points: 2
#     Edge 43, Type (0, 0), BuildingBlock: XIVTED_clean_linker_0, # of connection points: 2
#     Edge 44, Type (0, 0), BuildingBlock: XIVTED_clean_linker_0, # of connection points: 2
#     Edge 45, Type (0, 0), BuildingBlock: XIVTED_clean_linker_0, # of connection points: 2
#     Edge 46, Type (0, 0), BuildingBlock: XIVTED_clean_linker_0, # of connection points: 2
#     Edge 47, Type (0, 0), BuildingBlock: XIVTED_clean_linker_0, # of connection points: 2
#     Edge 48, Type (0, 0), BuildingBlock: XIVTED_clean_linker_0, # of connection points: 2
#     Edge 49, Type (0, 0), BuildingBlock: XIVTED_clean_linker_0, # of connection points: 2
#     Edge 50, Type (0, 0), BuildingBlock: XIVTED_clean_linker_0, # of connection points: 2
#     Edge 51, Type (0, 0), BuildingBlock: XIVTED_clean_linker_0, # of connection points: 2
#     Edge 52, Type (0, 0), BuildingBlock: XIVTED_clean_linker_0, # of connection points: 2
#     Edge 53, Type (0, 0), BuildingBlock: XIVTED_clean_linker_0, # of connection points: 2
#     Edge 54, Type (0, 0), BuildingBlock: XIVTED_clean_linker_0, # of connection points: 2
#     Edge 55, Type (0, 0), BuildingBlock: XIVTED_clean_linker_0, # of connection points: 2
#     Edge 56, Type (0, 0), BuildingBlock: XIVTED_clean_linker_0, # of connection points: 2
#     Edge 57, Type (0, 0), BuildingBlock: XIVTED_clean_linker_0, # of connection points: 2
#     Edge 58, Type (0, 0), BuildingBlock: XIVTED_clean_linker_0, # of connection points: 2
#     Edge 59, Type (0, 0), BuildingBlock: XIVTED_clean_linker_0, # of connection points: 2
#     Edge 60, Type (0, 0), BuildingBlock: XIVTED_clean_linker_0, # of connection points: 2
#     Edge 61, Type (0, 0), BuildingBlock: XIVTED_clean_linker_0, # of connection points: 2
#     Edge 62, Type (0, 0), BuildingBlock: XIVTED_clean_linker_0, # of connection points: 2
#     Edge 63, Type (0, 0), BuildingBlock: XIVTED_clean_linker_0, # of connection points: 2
# Relax obj value: 0.393
# Max RMSD: 0.164
# Mean RMSD: 0.164
data_MOF--net-why--node1-UKALOJ_clean_sbu_0--edge1-XIVTED_clean_linker_0
_symmetry_space_group_name_H-M    P1
_symmetry_Int_Tables_number       1
_symmetry_cell_setting            triclinic
loop_
_symmetry_equiv_pos_as_xyz
'x, y, z'
_cell_length_a     53.359549
_cell_length_b     53.272058
_cell_length_c     25.816501
_cell_angle_alpha  89.973322
_cell_angle_beta   89.941912
_cell_angle_gamma 90.051763
loop_
_atom_site_label
_atom_site_type_symbol
_atom_site_fract_x
_atom_site_fract_y
_atom_site_fract_z
_atom_type_partial_charge
Zn0 Zn 0.31837 0.18057 0.05494 0.0
O1 O 0.31506 0.1442 0.08795 0.0
C2 C 0.29879 0.20624 0.15063 0.0
Zn3 Zn 0.34816 0.18849 0.11191 0.0
C4 C 0.3273 0.13803 0.12805 0.0
O5 O 0.34171 0.15395 0.14905 0.0
C6 C 0.34167 0.23026 1.03509 0.0
O7 O 0.37459 0.17016 0.06292 0.0
O8 O 0.34569 0.16534 1.00341 0.0
N9 N 0.37442 0.19564 0.16623 0.0
C10 C 0.39918 0.19993 0.16318 0.0
C11 C 0.38933 0.2 0.24338 0.0
N12 N 0.36831 0.19566 0.21601 0.0
N13 N 0.40894 0.20243 0.21103 0.0
C14 C 0.26837 0.16068 1.01018 0.0
C15 C 0.27493 0.16228 0.92876 0.0
N16 N 0.29094 0.17158 1.00302 0.0
N17 N 0.29493 0.17265 0.95243 0.0
N18 N 0.25796 0.15466 0.96413 0.0
H19 H 0.24805 0.13576 0.06107 0.0
H20 H 0.24301 0.16872 0.07215 0.0
H21 H 0.27142 0.15447 0.09325 0.0
C22 C 0.2573 0.15441 0.06213 0.0
C23 C 0.41342 0.20307 0.11349 0.0
H24 H 0.401 0.20987 0.08217 0.0
H25 H 0.42131 0.18466 0.10179 0.0
H26 H 0.42914 0.2165 0.11847 0.0
O27 O 0.35494 0.22334 0.07351 0.0
O28 O 0.3237 0.21632 1.01996 0.0
C29 C 0.36824 0.16248 1.01819 0.0
O30 O 0.29108 0.19642 0.10855 0.0
O31 O 0.32204 0.20598 0.16038 0.0
Zn32 Zn 0.54137 0.59996 0.36085 0.0
O33 O 0.55855 0.62751 0.31285 0.0
C34 C 0.50244 0.591 0.28045 0.0
Zn35 Zn 0.55269 0.56961 0.30737 0.0
C36 C 0.56885 0.6207 0.27066 0.0
O37 O 0.56882 0.59756 0.2584 0.0
C38 C 0.52517 0.54973 0.3996 0.0
O39 O 0.58792 0.56695 0.34678 0.0
O40 O 0.57523 0.59612 0.40014 0.0
N41 N 0.56437 0.5426 0.25648 0.0
C42 C 0.57862 0.52197 0.26363 0.0
C43 C 0.57232 0.52567 0.18254 0.0
N44 N 0.5605 0.54486 0.20609 0.0
N45 N 0.58413 0.51109 0.2176 0.0
C46 C 0.51693 0.64599 0.41319 0.0
C47 C 0.52792 0.64044 0.49189 0.0
N48 N 0.53134 0.62537 0.4147 0.0
N49 N 0.53814 0.62191 0.46354 0.0
N50 N 0.51427 0.65558 0.46125 0.0
H51 H 0.50632 0.67812 0.36729 0.0
H52 H 0.48733 0.65052 0.35823 0.0
H53 H 0.51819 0.65187 0.33045 0.0
C54 C 0.50675 0.65735 0.3644 0.0
C55 C 0.58628 0.51221 0.31581 0.0
H56 H 0.57384 0.5191 0.34679 0.0
H57 H 0.6055 0.51886 0.32477 0.0
H58 H 0.58605 0.49139 0.31628 0.0
O59 O 0.53566 0.5419 0.35833 0.0
O60 O 0.52488 0.57307 0.40863 0.0
C61 C 0.59224 0.58127 0.38505 0.0
O62 O 0.50724 0.60416 0.32029 0.0
O63 O 0.51794 0.57412 0.26637 0.0
Zn64 Zn 0.13435 0.79343 0.60773 0.0
O65 O 0.10695 0.80845 0.55695 0.0
C66 C 0.14479 0.75479 0.52917 0.0
Zn67 Zn 0.16461 0.80651 0.55576 0.0
C68 C 0.11359 0.82047 0.5166 0.0
O69 O 0.13682 0.82283 0.50622 0.0
C70 C 0.18438 0.77942 0.64928 0.0
O71 O 0.16662 0.84165 0.59495 0.0
O72 O 0.13646 0.82818 0.64495 0.0
N73 N 0.19231 0.81791 0.50607 0.0
C74 C 0.21321 0.8315 0.515 0.0
C75 C 0.21124 0.82498 0.43359 0.0
N76 N 0.19114 0.81383 0.45551 0.0
N77 N 0.22535 0.83616 0.47013 0.0
C78 C 0.08801 0.76925 0.66037 0.0
C79 C 0.09199 0.78344 0.73732 0.0
N80 N 0.1086 0.78374 0.6611 0.0
N81 N 0.11112 0.79243 0.70892 0.0
N82 N 0.07746 0.76863 0.70782 0.0
H83 H 0.05682 0.75646 0.61425 0.0
H84 H 0.08454 0.73735 0.61085 0.0
H85 H 0.08369 0.76696 0.57735 0.0
C86 C 0.0776 0.75696 0.61281 0.0
C87 C 0.21994 0.84279 0.56648 0.0
H88 H 0.21117 0.86162 0.56938 0.0
H89 H 0.24037 0.84535 0.57098 0.0
H90 H 0.21303 0.83109 0.59885 0.0
O91 O 0.19219 0.78979 0.60778 0.0
O92 O 0.16105 0.77869 0.65789 0.0
C93 C 0.15133 0.84555 0.63168 0.0
O94 O 0.13179 0.75865 0.56966 0.0
O95 O 0.16055 0.7714 0.51463 0.0
Zn96 Zn 0.9403 0.38516 0.86245 0.0
O97 O 0.92318 0.35751 0.81412 0.0
C98 C 0.98012 0.39328 0.78365 0.0
Zn99 Zn 0.92945 0.41479 0.80701 0.0
C100 C 0.91346 0.36388 0.77105 0.0
O101 O 0.91395 0.38685 0.75746 0.0
C102 C 0.95602 0.43543 0.90043 0.0
O103 O 0.89364 0.41754 0.8438 0.0
O104 O 0.90612 0.38978 0.90036 0.0
N105 N 0.91919 0.44205 0.75564 0.0
C106 C 0.90585 0.46323 0.76317 0.0
C107 C 0.91309 0.46031 0.68209 0.0
N108 N 0.92372 0.44029 0.7053 0.0
N109 N 0.90181 0.47494 0.71764 0.0
C110 C 0.96298 0.3388 0.91728 0.0
C111 C 0.94894 0.34374 0.99414 0.0
N112 N 0.94895 0.35969 0.91729 0.0
N113 N 0.9403 0.36279 0.96502 0.0
N114 N 0.96344 0.32867 0.9651 0.0
H115 H 0.97576 0.30689 0.87306 0.0
H116 H -0.00555 0.33484 0.8668 0.0
H117 H 0.96457 0.33297 0.83465 0.0
C118 C 0.97499 0.32766 0.8701 0.0
C119 C 0.89414 0.47067 0.81387 0.0
H120 H 0.8749 0.46279 0.81568 0.0
H121 H 0.89252 0.49125 0.81791 0.0
H122 H 0.90495 0.46342 0.84712 0.0
O123 O 0.94561 0.44271 0.85865 0.0
O124 O 0.95666 0.41217 0.91038 0.0
C125 C 0.88916 0.40417 0.88341 0.0
O126 O 0.97485 0.38027 0.82351 0.0
O127 O 0.9648 0.4101 0.76857 0.0
Zn128 Zn 0.63485 0.79401 0.96194 0.0
O129 O 0.6081 0.81315 1.0086 0.0
C130 C 0.64102 0.75492 0.04272 0.0
Zn131 Zn 0.66487 0.80434 1.01677 0.0
C132 C 0.61454 0.82283 0.05155 0.0
O133 O 0.63734 0.8215 0.06561 0.0
C134 C 0.68439 0.7756 0.92518 0.0
O135 O 0.66938 0.83949 0.97813 0.0
O136 O 0.64126 0.82738 0.92196 0.0
N137 N 0.69181 0.81466 0.06874 0.0
C138 C 0.71276 0.82856 0.0627 0.0
C139 C 0.70798 0.82215 0.14357 0.0
N140 N 0.68889 0.81069 0.11899 0.0
N141 N 0.72313 0.83382 0.10929 0.0
C142 C 0.58417 0.78259 0.90951 0.0
C143 C 0.59485 0.78121 0.8298 0.0
N144 N 0.60909 0.78584 0.90743 0.0
N145 N 0.61573 0.78496 0.85796 0.0
N146 N 0.57484 0.77999 0.86134 0.0
H147 H 0.58115 0.77356 0.99076 0.0
H148 H 0.56211 0.79944 0.96925 0.0
H149 H 0.55307 0.76782 0.95352 0.0
C150 C 0.5693 0.7806 0.95866 0.0
C151 C 0.72334 0.83607 1.01108 0.0
H152 H 0.71696 0.82344 0.97994 0.0
H153 H 0.71688 0.85528 1.00129 0.0
H154 H 0.74413 0.83587 1.01201 0.0
O155 O 0.69222 0.7864 0.96613 0.0
O156 O 0.66113 0.77565 0.91568 0.0
C157 C 0.65628 0.84401 0.93821 0.0
O158 O 0.62802 0.76028 1.00294 0.0
O159 O 0.65861 0.76966 0.05661 0.0
Zn160 Zn 0.4395 0.38516 0.7146 0.0
O161 O 0.42074 0.35907 0.7636 0.0
C162 C 0.47952 0.39232 0.79276 0.0
Zn163 Zn 0.42964 0.41539 0.76921 0.0
C164 C 0.41197 0.36566 0.80734 0.0
O165 O 0.41372 0.38851 0.82122 0.0
C166 C 0.45704 0.43419 0.67462 0.0
O167 O 0.39374 0.41862 0.73321 0.0
O168 O 0.4059 0.39117 0.67569 0.0
N169 N 0.42047 0.44365 0.81916 0.0
C170 C 0.4078 0.46514 0.81066 0.0
C171 C 0.41508 0.46295 0.89179 0.0
N172 N 0.42505 0.44234 0.86952 0.0
N173 N 0.40421 0.47751 0.85559 0.0
C174 C 0.45031 0.33384 0.66386 0.0
C175 C 0.45094 0.34385 0.58373 0.0
N176 N 0.44696 0.35876 0.66099 0.0
N177 N 0.44735 0.36497 0.61127 0.0
N178 N 0.45253 0.32408 0.61591 0.0
H179 H 0.45999 0.33164 0.74484 0.0
H180 H 0.43409 0.3122 0.72508 0.0
H181 H 0.46559 0.3032 0.7085 0.0
C182 C 0.45278 0.31942 0.71348 0.0
C183 C 0.39622 0.4724 0.75976 0.0
H184 H 0.37649 0.46582 0.7592 0.0
H185 H 0.39599 0.49297 0.75424 0.0
H186 H 0.40626 0.4639 0.72674 0.0
O187 O 0.44627 0.44222 0.71543 0.0
O188 O 0.4575 0.4108 0.66625 0.0
C189 C 0.38913 0.40567 0.69311 0.0
O190 O 0.47352 0.3787 0.75424 0.0
O191 O 0.46507 0.41015 0.80654 0.0
Zn192 Zn 0.84942 0.19193 0.46238 0.0
O193 O 0.87703 0.17649 0.51263 0.0
C194 C 0.84085 0.23111 0.54041 0.0
Zn195 Zn 0.81967 0.17964 0.51624 0.0
C196 C 0.87055 0.16496 0.5537 0.0
O197 O 0.84741 0.16312 0.56507 0.0
C198 C 0.79928 0.20668 0.42302 0.0
O199 O 0.81644 0.14424 0.47827 0.0
O200 O 0.84603 0.15704 0.42613 0.0
N201 N 0.7923 0.16935 0.56737 0.0
C202 C 0.7709 0.15642 0.55956 0.0
C203 C 0.77373 0.16349 0.64069 0.0
N204 N 0.79402 0.17377 0.61775 0.0
N205 N 0.75899 0.15253 0.60495 0.0
C206 C 0.89661 0.21318 0.40762 0.0
C207 C 0.8909 0.19924 0.33094 0.0
N208 N 0.87487 0.2005 0.40763 0.0
N209 N 0.87126 0.19201 0.35997 0.0
N210 N 0.90687 0.21277 0.35989 0.0
H211 H 0.92902 0.22205 0.4539 0.0
H212 H 0.90445 0.24508 0.45497 0.0
H213 H 0.90073 0.21636 0.49072 0.0
C214 C 0.90839 0.22464 0.45472 0.0
C215 C 0.76334 0.14498 0.50871 0.0
H216 H 0.77137 0.12581 0.50623 0.0
H217 H 0.74279 0.14316 0.50501 0.0
H218 H 0.7704 0.15611 0.47566 0.0
O219 O 0.79194 0.19661 0.46517 0.0
O220 O 0.82248 0.20704 0.41294 0.0
C221 C 0.8311 0.13997 0.44062 0.0
O222 O 0.85329 0.22688 0.49934 0.0
O223 O 0.82495 0.21487 0.55602 0.0
Zn224 Zn 0.04505 0.6013 0.20927 0.0
O225 O 0.06483 0.62747 0.25663 0.0
C226 C 0.00442 0.59562 0.2877 0.0
Zn227 Zn 0.05346 0.5711 0.26491 0.0
C228 C 0.07263 0.62089 0.30117 0.0
O229 O 0.0694 0.59832 0.31595 0.0
C230 C 0.02626 0.55189 0.17146 0.0
O231 O 0.08967 0.56745 0.22947 0.0
O232 O 0.07813 0.59402 0.16963 0.0
N233 N 0.06237 0.54323 0.31627 0.0
C234 C 0.07524 0.52172 0.30908 0.0
C235 C 0.06793 0.525 0.39005 0.0
N236 N 0.05777 0.54519 0.36655 0.0
N237 N 0.07894 0.51 0.35477 0.0
C238 C 0.03363 0.65231 0.15677 0.0
C239 C 0.03231 0.6415 0.07717 0.0
N240 N 0.03766 0.62745 0.15477 0.0
N241 N 0.03688 0.62076 0.10535 0.0
N242 N 0.03048 0.66155 0.10854 0.0
H243 H 0.02553 0.65495 0.23854 0.0
H244 H 0.04993 0.67538 0.21548 0.0
H245 H 0.01769 0.68259 0.20144 0.0
C246 C 0.03141 0.66711 0.20595 0.0
C247 C 0.0869 0.51389 0.25861 0.0
H248 H 0.10674 0.52015 0.25805 0.0
H249 H 0.0868 0.49328 0.25384 0.0
H250 H 0.07709 0.52226 0.22517 0.0
O251 O 0.03706 0.54406 0.21234 0.0
O252 O 0.02599 0.57526 0.16232 0.0
C253 C 0.09464 0.57964 0.18845 0.0
O254 O 0.01172 0.60919 0.25003 0.0
O255 O 0.01752 0.57672 0.30127 0.0
Zn256 Zn 0.81895 0.67966 0.55675 0.0
O257 O 0.81471 0.64347 0.59164 0.0
C258 C 0.79995 0.70633 0.65162 0.0
Zn259 Zn 0.84927 0.68903 0.61178 0.0
C260 C 0.82802 0.6383 0.63087 0.0
O261 O 0.84306 0.65466 0.64799 0.0
C262 C 0.84317 0.72972 0.535 0.0
O263 O 0.87591 0.67187 0.5625 0.0
O264 O 0.84635 0.66321 0.50604 0.0
N265 N 0.87522 0.69564 0.66681 0.0
C266 C 0.89752 0.70731 0.66676 0.0
C267 C 0.89157 0.69294 0.74307 0.0
N268 N 0.87149 0.68682 0.71424 0.0
N269 N 0.90796 0.70601 0.71417 0.0
C270 C 0.76815 0.66102 0.51334 0.0
C271 C 0.77457 0.66092 0.43182 0.0
N272 N 0.79122 0.67068 0.50526 0.0
N273 N 0.79513 0.67066 0.45458 0.0
N274 N 0.75733 0.6548 0.46785 0.0
H275 H 0.7712 0.65498 0.59642 0.0
H276 H 0.74601 0.63833 0.56548 0.0
H277 H 0.744 0.67167 0.57566 0.0
C278 C 0.7569 0.65608 0.56573 0.0
C279 C 0.90963 0.71868 0.61988 0.0
H280 H 0.93031 0.71667 0.62168 0.0
H281 H 0.9051 0.739 0.61862 0.0
H282 H 0.90265 0.70982 0.58394 0.0
O283 O 0.856 0.72327 0.57426 0.0
O284 O 0.82514 0.71575 0.51993 0.0
C285 C 0.86932 0.66255 0.51929 0.0
O286 O 0.79197 0.69644 0.60983 0.0
O287 O 0.82325 0.70608 0.66074 0.0
Zn288 Zn 0.0451 0.10153 0.86427 0.0
O289 O 0.06441 0.12778 0.81619 0.0
C290 C 0.00386 0.09622 0.78743 0.0
Zn291 Zn 0.05289 0.07134 0.80848 0.0
C292 C 0.07174 0.12119 0.77129 0.0
O293 O 0.06839 0.09861 0.75678 0.0
C294 C 0.02638 0.05235 0.90332 0.0
O295 O 0.0896 0.06733 0.84172 0.0
O296 O 0.07858 0.09384 0.90198 0.0
N297 N 0.06129 0.04368 0.75661 0.0
C298 C 0.07103 0.02062 0.7641 0.0
C299 C 0.07017 0.02709 0.68262 0.0
N300 N 0.0607 0.04764 0.70596 0.0
N301 N 0.0767 0.00983 0.71828 0.0
C302 C 0.02757 0.15008 0.91925 0.0
C303 C 0.04115 0.1437 0.99596 0.0
N304 N 0.0389 0.12761 0.91937 0.0
N305 N 0.04726 0.12363 0.96702 0.0
N306 N 0.02859 0.16037 0.96685 0.0
H307 H 0.01846 0.18316 0.8748 0.0
H308 H -0.00343 0.1576 0.86944 0.0
H309 H 0.02628 0.15585 0.83655 0.0
C310 C 0.01675 0.16244 0.87215 0.0
C311 C 0.0766 0.00933 0.81617 0.0
H312 H 0.09433 -0.00151 0.81492 0.0
H313 H 0.06119 -0.00366 0.82687 0.0
H314 H 0.07804 0.02365 0.84683 0.0
O315 O 0.03676 0.04436 0.86206 0.0
O316 O 0.02639 0.07574 0.91224 0.0
C317 C 0.09489 0.07944 0.8826 0.0
O318 O 0.0114 0.1097 0.82499 0.0
O319 O 0.01673 0.0772 0.77364 0.0
Zn320 Zn 0.63428 0.29492 0.11237 0.0
O321 O 0.60762 0.31222 0.06255 0.0
C322 C 0.64253 0.25372 1.03454 0.0
Zn323 Zn 0.66431 0.30378 0.0562 0.0
C324 C 0.61423 0.32057 1.0184 0.0
O325 O 0.63706 0.31884 1.0046 0.0
C326 C 0.68376 0.27828 0.1521 0.0
O327 O 0.6668 0.33982 0.09081 0.0
O328 O 0.63914 0.32969 0.14982 0.0
N329 N 0.69215 0.31343 1.00556 0.0
C330 C 0.71326 0.32686 1.01322 0.0
C331 C 0.71086 0.31906 0.93232 0.0
N332 N 0.69072 0.30854 0.95533 0.0
N333 N 0.72526 0.33061 0.96787 0.0
C334 C 0.58705 0.27226 0.1633 0.0
C335 C 0.59136 0.28409 0.24181 0.0
N336 N 0.60789 0.28636 0.16565 0.0
N337 N 0.61056 0.29372 0.21437 0.0
N338 N 0.57656 0.27031 0.21068 0.0
H339 H 0.58227 0.27279 0.08021 0.0
H340 H 0.55555 0.26132 0.11606 0.0
H341 H 0.58307 0.24213 0.10923 0.0
C342 C 0.57632 0.26166 0.11428 0.0
C343 C 0.72036 0.33895 0.0637 0.0
H344 H 0.71295 0.3584 0.06424 0.0
H345 H 0.7409 0.34013 0.0686 0.0
H346 H 0.71251 0.32861 0.09708 0.0
O347 O 0.69143 0.28799 0.10984 0.0
O348 O 0.6605 0.27836 0.16185 0.0
C349 C 0.6538 0.34579 0.13006 0.0
O350 O 0.62923 0.25992 0.07341 0.0
O351 O 0.65998 0.26832 1.01956 0.0
Zn352 Zn 0.44024 0.88555 0.36167 0.0
O353 O 0.421 0.85902 0.31461 0.0
C354 C 0.47944 0.89213 0.28093 0.0
Zn355 Zn 0.43006 0.9159 0.30732 0.0
C356 C 0.41128 0.86578 0.2719 0.0
O357 O 0.41278 0.88867 0.25824 0.0
C358 C 0.45885 0.93497 0.39903 0.0
O359 O 0.39494 0.92017 0.3464 0.0
O360 O 0.40698 0.89174 0.40204 0.0
N361 N 0.41964 0.9432 0.256 0.0
C362 C 0.40562 0.96401 0.26273 0.0
C363 C 0.41163 0.9597 0.18165 0.0
N364 N 0.42338 0.94057 0.20562 0.0
N365 N 0.40002 0.97458 0.21646 0.0
C366 C 0.45161 0.83456 0.41331 0.0
C367 C 0.45312 0.84499 0.49313 0.0
N368 N 0.44841 0.85951 0.41571 0.0
N369 N 0.44937 0.86599 0.46524 0.0
N370 N 0.45426 0.82505 0.46137 0.0
H371 H 0.4605 0.83184 0.33198 0.0
H372 H 0.43464 0.81271 0.3534 0.0
H373 H 0.46621 0.80355 0.36881 0.0
C374 C 0.45349 0.81985 0.36396 0.0
C375 C 0.39832 0.9743 0.31472 0.0
H376 H 0.41122 0.96799 0.34539 0.0
H377 H 0.37929 0.9675 0.32499 0.0
H378 H 0.39822 -0.00487 0.31404 0.0
O379 O 0.44808 0.943 0.35823 0.0
O380 O 0.45868 0.91165 0.40828 0.0
C381 C 0.39041 0.90686 0.38611 0.0
O382 O 0.47391 0.87894 0.32046 0.0
O383 O 0.46478 0.90979 0.26706 0.0
Zn384 Zn 0.1346 0.29488 0.46229 0.0
O385 O 0.10737 0.31218 0.51098 0.0
C386 C 0.14297 0.25518 0.54114 0.0
Zn387 Zn 0.16445 0.30599 0.51674 0.0
C388 C 0.11384 0.32191 0.55397 0.0
O389 O 0.1368 0.32146 0.56725 0.0
C390 C 0.18445 0.27904 0.42289 0.0
O391 O 0.16697 0.34195 0.47997 0.0
O392 O 0.13919 0.32906 0.42401 0.0
N393 N 0.19201 0.31622 0.56736 0.0
C394 C 0.21314 0.32956 0.55933 0.0
C395 C 0.21078 0.32203 0.64038 0.0
N396 N 0.19058 0.31151 0.61768 0.0
N397 N 0.22518 0.33343 0.60453 0.0
C398 C 0.08766 0.27292 0.40858 0.0
C399 C 0.09268 0.28679 0.33159 0.0
N400 N 0.10894 0.28635 0.40807 0.0
N401 N 0.1121 0.29487 0.36024 0.0
N402 N 0.07732 0.27276 0.36101 0.0
H403 H 0.05565 0.26127 0.45376 0.0
H404 H 0.08277 0.24141 0.45872 0.0
H405 H 0.08243 0.27125 0.49143 0.0
C406 C 0.07641 0.26119 0.45601 0.0
C407 C 0.22026 0.34141 0.50856 0.0
H408 H 0.21226 0.36062 0.50705 0.0
H409 H 0.24078 0.34322 0.50406 0.0
H410 H 0.21292 0.33056 0.47543 0.0
O411 O 0.19203 0.28976 0.46412 0.0
O412 O 0.16115 0.27826 0.41387 0.0
C413 C 0.15344 0.34624 0.44059 0.0
O414 O 0.12964 0.26035 0.50172 0.0
O415 O 0.15997 0.27055 0.55525 0.0
Zn416 Zn 0.93797 0.88428 0.20984 0.0
O417 O 0.92099 0.85701 0.25843 0.0
C418 C 0.97926 0.89097 0.28744 0.0
Zn419 Zn 0.92978 0.91442 0.26637 0.0
C420 C 0.91216 0.86359 0.30214 0.0
O421 O 0.91362 0.88647 0.31606 0.0
C422 C 0.95545 0.9344 0.17176 0.0
O423 O 0.89386 0.91804 0.2319 0.0
O424 O 0.90332 0.89004 0.17309 0.0
N425 N 0.92025 0.94156 0.31865 0.0
C426 C 0.91014 0.96449 0.31149 0.0
C427 C 0.91026 0.95736 0.39276 0.0
N428 N 0.92038 0.9372 0.36916 0.0
N429 N 0.90376 0.97479 0.35742 0.0
C430 C 0.96046 0.8379 0.15522 0.0
C431 C 0.94819 0.84331 0.07734 0.0
N432 N 0.94611 0.85858 0.15468 0.0
N433 N 0.93845 0.86192 0.10633 0.0
N434 N 0.96232 0.82824 0.10715 0.0
H435 H 0.96024 0.83125 0.23765 0.0
H436 H 0.97259 0.80574 0.1994 0.0
H437 H 0.99082 0.83381 0.20838 0.0
C438 C 0.97154 0.82647 0.20305 0.0
C439 C 0.90495 0.97608 0.25953 0.0
H440 H 0.88697 0.98652 0.26023 0.0
H441 H 0.92021 0.98947 0.25005 0.0
H442 H 0.90421 0.96199 0.22832 0.0
O443 O 0.94612 0.94204 0.21435 0.0
O444 O 0.95476 0.91115 0.16154 0.0
C445 C 0.88764 0.90514 0.1927 0.0
O446 O 0.97239 0.87815 0.24842 0.0
O447 O 0.96555 0.90901 0.30305 0.0
Zn448 Zn 0.31896 0.68199 1.01582 0.0
O449 O 0.31684 0.64642 0.97781 0.0
C450 C 0.29964 0.70913 0.92216 0.0
Zn451 Zn 0.34938 0.69299 0.96231 0.0
C452 C 0.33076 0.64205 0.93898 0.0
O453 O 0.34538 0.6591 0.92302 0.0
C454 C 0.34009 0.73248 0.04159 0.0
O455 O 0.37641 0.67551 1.01123 0.0
O456 O 0.3464 0.66622 0.06638 0.0
N457 N 0.37518 0.70265 0.90895 0.0
C458 C 0.39587 0.71697 0.91066 0.0
C459 C 0.39064 0.70573 0.83201 0.0
N460 N 0.37192 0.6957 0.86014 0.0
N461 N 0.40571 0.7194 0.86274 0.0
C462 C 0.27024 0.65755 0.05693 0.0
C463 C 0.27215 0.66455 0.13819 0.0
N464 N 0.29115 0.67115 0.0656 0.0
N465 N 0.29229 0.67553 0.11606 0.0
N466 N 0.25806 0.65318 0.10186 0.0
H467 H 0.27207 0.62697 1.0036 0.0
H468 H 0.24311 0.64362 1.00095 0.0
H469 H 0.27071 0.65729 0.97305 0.0
C470 C 0.26355 0.64594 1.00571 0.0
C471 C 0.40702 0.72726 0.95954 0.0
H472 H 0.40137 0.71586 0.99347 0.0
H473 H 0.42778 0.72767 0.95698 0.0
H474 H 0.40022 0.74672 0.96546 0.0
O475 O 0.35368 0.72725 1.0026 0.0
O476 O 0.323 0.71715 0.05547 0.0
C477 C 0.36949 0.66564 0.05385 0.0
O478 O 0.29164 0.69843 0.96312 0.0
O479 O 0.32299 0.70971 0.91378 0.0
Zn480 Zn 0.54285 0.0994 0.71608 0.0
O481 O 0.55983 0.12633 0.76591 0.0
C482 C 0.50305 0.08948 0.79443 0.0
Zn483 Zn 0.5537 0.06887 0.76936 0.0
C484 C 0.56934 0.11938 0.80879 0.0
O485 O 0.56885 0.09623 0.82105 0.0
C486 C 0.52737 0.04971 0.67459 0.0
O487 O 0.58947 0.06729 0.73205 0.0
O488 O 0.57687 0.09585 0.67729 0.0
N489 N 0.56447 0.0408 0.81848 0.0
C490 C 0.57809 0.01996 0.8092 0.0
C491 C 0.57091 0.02124 0.89047 0.0
N492 N 0.55998 0.04155 0.86894 0.0
N493 N 0.58235 0.00744 0.85373 0.0
C494 C 0.5187 0.14591 0.66511 0.0
C495 C 0.53013 0.14109 0.58643 0.0
N496 N 0.53328 0.12542 0.66316 0.0
N497 N 0.54036 0.12242 0.61434 0.0
N498 N 0.5162 0.15586 0.61733 0.0
H499 H 0.51959 0.15118 0.748 0.0
H500 H 0.50754 0.17757 0.71182 0.0
H501 H 0.48885 0.14969 0.71983 0.0
C502 C 0.5082 0.15678 0.7141 0.0
C503 C 0.58983 0.01362 0.75789 0.0
H504 H 0.60892 0.02186 0.75654 0.0
H505 H 0.5918 -0.00685 0.75232 0.0
H506 H 0.57883 0.02126 0.72529 0.0
O507 O 0.53785 0.04165 0.71565 0.0
O508 O 0.5266 0.07313 0.66667 0.0
C509 C 0.5939 0.08131 0.69336 0.0
O510 O 0.50845 0.10326 0.7558 0.0
O511 O 0.51832 0.07237 0.80832 0.0
H512 H 0.44994 0.17717 0.18025 0.0
H513 H 0.53912 0.2876 0.27065 0.0
H514 H 0.4251 0.23886 0.27481 0.0
H515 H 0.56436 0.22259 0.18648 0.0
H516 H 0.49889 0.26667 0.28634 0.0
H517 H 0.49342 0.18979 0.19494 0.0
C518 C 0.45384 0.1933 0.20443 0.0
C519 C 0.43428 0.20752 0.22524 0.0
C520 C 0.51331 0.25684 0.26491 0.0
C521 C 0.48353 0.22212 0.24235 0.0
C522 C 0.53616 0.26877 0.25605 0.0
C523 C 0.55442 0.25705 0.22563 0.0
C524 C 0.50892 0.23308 0.24307 0.0
C525 C 0.55017 0.23256 0.2082 0.0
C526 C 0.47854 0.20044 0.21311 0.0
C527 C 0.43993 0.22777 0.25765 0.0
N528 N 0.52766 0.22148 0.21645 0.0
N529 N 0.46414 0.23482 0.26449 0.0
H530 H 0.53138 0.69119 0.52587 0.0
H531 H 0.42639 0.78541 0.43212 0.0
H532 H 0.46735 0.66955 0.43477 0.0
H533 H 0.48932 0.80715 0.52618 0.0
H534 H 0.43617 0.74129 0.44843 0.0
H535 H 0.51154 0.73175 0.54311 0.0
C536 C 0.51297 0.695 0.51008 0.0
C537 C 0.50131 0.67772 0.47718 0.0
C538 C 0.44771 0.75564 0.46612 0.0
C539 C 0.47861 0.72365 0.4963 0.0
C540 C 0.44222 0.7807 0.45644 0.0
C541 C 0.45769 0.79952 0.47647 0.0
C542 C 0.46897 0.74956 0.49559 0.0
C543 C 0.47736 0.79289 0.50942 0.0
C544 C 0.50166 0.71805 0.51983 0.0
C545 C 0.47733 0.68302 0.45835 0.0
N546 N 0.48281 0.76832 0.5172 0.0
N547 N 0.4669 0.70577 0.46743 0.0
H548 H 0.06412 0.72021 0.69645 0.0
H549 H 0.94462 0.67751 0.75408 0.0
H550 H 0.0389 0.79168 0.75414 0.0
H551 H 0.92584 0.75303 0.70933 0.0
H552 H 0.98823 0.69084 0.76843 0.0
H553 H 0.0225 0.70256 0.714 0.0
C554 C 0.04978 0.73196 0.71357 0.0
C555 C 0.05442 0.75734 0.72331 0.0
C556 C 0.97449 0.70448 0.75585 0.0
C557 C 0.00743 0.73758 0.74415 0.0
C558 C 0.94978 0.69697 0.74816 0.0
C559 C 0.93221 0.71424 0.72968 0.0
C560 C 0.98125 0.72943 0.74525 0.0
C561 C 0.93927 0.73926 0.72269 0.0
C562 C 0.02627 0.7219 0.72426 0.0
C563 C 0.03568 0.772 0.74605 0.0
N564 N 0.96343 0.74616 0.73022 0.0
N565 N 0.01268 0.76204 0.75467 0.0
H566 H 0.01209 0.31644 0.9566 0.0
H567 H 0.05594 0.19699 1.01053 0.0
H568 H 0.9405 0.28953 1.00994 0.0
H569 H 0.98151 0.17768 0.96011 0.0
H570 H 0.04172 0.24018 1.02726 0.0
H571 H 0.03021 0.27498 0.97381 0.0
C572 C 0.00043 0.30177 0.9729 0.0
C573 C 0.9749 0.30588 0.98145 0.0
C574 C 0.02851 0.22641 1.01291 0.0
C575 C -0.00488 0.25902 1.00159 0.0
C576 C 0.03653 0.20194 1.00378 0.0
C577 C 0.01985 0.18437 0.98299 0.0
C578 C 0.00364 0.23292 1.00145 0.0
C579 C -0.00514 0.19114 0.97512 0.0
C580 C 0.01073 0.27834 0.98331 0.0
C581 C 0.96029 0.28671 1.00288 0.0
N582 N 0.98747 0.21506 0.9841 0.0
N583 N 0.9705 0.26376 1.01111 0.0
H584 H 0.53528 0.80803 0.88987 0.0
H585 H 0.44131 0.70215 0.79833 0.0
H586 H 0.55706 0.74462 0.79695 0.0
H587 H 0.41977 0.76642 0.8891 0.0
H588 H 0.48177 0.72209 0.78058 0.0
H589 H 0.49124 0.79802 0.87391 0.0
C590 C 0.53059 0.79207 0.8658 0.0
C591 C 0.5494 0.77652 0.84603 0.0
C592 C 0.46811 0.73199 0.80393 0.0
C593 C 0.49953 0.76495 0.8274 0.0
C594 C 0.44513 0.72061 0.81399 0.0
C595 C 0.4279 0.73232 0.84691 0.0
C596 C 0.4737 0.75517 0.82715 0.0
C597 C 0.4332 0.75639 0.86553 0.0
C598 C 0.50558 0.78643 0.85636 0.0
C599 C 0.5428 0.75664 0.81348 0.0
N600 N 0.45588 0.76689 0.85613 0.0
N601 N 0.51828 0.75105 0.80595 0.0
H602 H 0.4259 0.28395 0.64742 0.0
H603 H 0.53263 0.19199 0.55306 0.0
H604 H 0.48735 0.3067 0.54994 0.0
H605 H 0.46897 0.1688 0.64393 0.0
H606 H 0.51187 0.23206 0.53572 0.0
H607 H 0.43663 0.23999 0.6318 0.0
C608 C 0.44159 0.27949 0.62247 0.0
C609 C 0.45639 0.29857 0.60126 0.0
C610 C 0.50228 0.21813 0.55901 0.0
C611 C 0.46876 0.24881 0.58294 0.0
C612 C 0.51413 0.19537 0.56884 0.0
C613 C 0.50283 0.1778 0.6017 0.0
C614 C 0.47905 0.22316 0.58244 0.0
C615 C 0.47869 0.18253 0.62047 0.0
C616 C 0.44763 0.25453 0.61319 0.0
C617 C 0.47591 0.29224 0.56759 0.0
N618 N 0.46773 0.20501 0.61132 0.0
N619 N 0.48191 0.26778 0.56021 0.0
H620 H 0.9426 0.18521 0.31406 0.0
H621 H 0.06323 0.22453 0.36863 0.0
H622 H 0.92556 0.25943 0.36979 0.0
H623 H 0.03878 0.29764 0.319 0.0
H624 H 0.02102 0.2081 0.35231 0.0
H625 H 0.98602 0.19849 0.29782 0.0
C626 C 0.94808 0.20439 0.32215 0.0
C627 C 0.93107 0.22122 0.34431 0.0
C628 C 0.02506 0.22755 0.34346 0.0
C629 C 0.97996 0.23634 0.32647 0.0
C630 C 0.04892 0.23688 0.35333 0.0
C631 C 0.05396 0.26233 0.34542 0.0
C632 C 0.00628 0.24404 0.3264 0.0
C633 C 0.03523 0.27788 0.32544 0.0
C634 C 0.9727 0.21186 0.3133 0.0
C635 C 0.93858 0.24592 0.35385 0.0
N636 N 0.01187 0.2686 0.31769 0.0
N637 N 0.96267 0.25278 0.34515 0.0
H638 H -0.00559 0.67599 0.04238 0.0
H639 H 0.01094 0.81865 0.12596 0.0
H640 H 0.05437 0.70381 0.13798 0.0
H641 H 0.94527 0.78966 0.04994 0.0
H642 H 0.03238 0.7788 0.11033 0.0
H643 H 0.9815 0.71933 1.02465 0.0
C644 C 0.00498 0.69136 0.05902 0.0
C645 C 0.02484 0.68665 0.09298 0.0
C646 C 0.01339 0.7812 0.09643 0.0
C647 C 0.0105 0.73581 0.0731 0.0
C648 C 0.00121 0.80381 0.10559 0.0
C649 C 0.9762 0.80679 0.09067 0.0
C650 C 0.00031 0.76151 0.07243 0.0
C651 C 0.96448 0.78764 0.06269 0.0
C652 C -0.00233 0.71598 0.04902 0.0
C653 C 0.03835 0.7069 0.11314 0.0
N654 N 0.97649 0.76549 0.05527 0.0
N655 N 0.03071 0.73069 0.10347 0.0
H656 H 0.1097 0.0947 0.97809 0.0
H657 H 0.2521 0.11736 0.89429 0.0
H658 H 0.13883 0.0693 0.8312 0.0
H659 H 0.21238 0.16049 1.00914 0.0
H660 H 0.21388 0.09259 0.87906 0.0
H661 H 0.15134 0.10965 1.00141 0.0
C662 C 0.12503 0.0917 0.95124 0.0
C663 C 0.12076 0.08112 0.9023 0.0
C664 C 0.2137 0.1073 0.908 0.0
C665 C 0.16833 0.09872 0.92831 0.0
C666 C 0.23536 0.12149 0.91643 0.0
C667 C 0.2355 0.14058 0.9539 0.0
C668 C 0.19213 0.11227 0.93739 0.0
C669 C 0.21337 0.14536 0.98139 0.0
C670 C 0.14874 0.10046 0.96439 0.0
C671 C 0.14133 0.07747 0.86924 0.0
N672 N 0.19263 0.13124 0.97274 0.0
N673 N 0.16425 0.08669 0.88248 0.0
H674 H 0.65838 0.38696 0.06875 0.0
H675 H 0.62559 0.49255 0.26828 0.0
H676 H 0.6431 0.36451 0.22628 0.0
H677 H 0.57739 0.47977 0.13671 0.0
H678 H 0.64708 0.45306 0.24973 0.0
H679 H 0.64481 0.42971 0.0902 0.0
C680 C 0.65301 0.39123 0.10826 0.0
C681 C 0.65176 0.37225 0.14589 0.0
C682 C 0.63175 0.45906 0.2252 0.0
C683 C 0.63667 0.42083 0.17033 0.0
C684 C 0.61904 0.48132 0.23632 0.0
C685 C 0.59854 0.48887 0.20581 0.0
C686 C 0.62476 0.44502 0.18183 0.0
C687 C 0.59267 0.47443 0.16193 0.0
C688 C 0.6451 0.41548 0.12018 0.0
C689 C 0.64426 0.37867 0.19627 0.0
N690 N 0.60571 0.45317 0.1512 0.0
N691 N 0.6369 0.40253 0.20713 0.0
H692 H 0.37697 0.88715 0.47928 0.0
H693 H 0.23211 0.8748 0.4039 0.0
H694 H 0.34584 0.92129 0.34206 0.0
H695 H 0.27022 0.82832 0.5151 0.0
H696 H 0.27134 0.89824 0.38943 0.0
H697 H 0.33514 0.87353 0.50458 0.0
C698 C 0.36122 0.89227 0.45501 0.0
C699 C 0.36493 0.90503 0.40808 0.0
C700 C 0.271 0.88313 0.4175 0.0
C701 C 0.317 0.88896 0.43625 0.0
C702 C 0.24874 0.86978 0.42552 0.0
C703 C 0.24798 0.85014 0.46164 0.0
C704 C 0.29253 0.87661 0.44575 0.0
C705 C 0.26993 0.84395 0.48832 0.0
C706 C 0.33735 0.8843 0.46928 0.0
C707 C 0.34381 0.91137 0.37844 0.0
N708 N 0.29129 0.85718 0.47997 0.0
N709 N 0.32072 0.90288 0.39258 0.0
H710 H 0.815 0.59413 0.58295 0.0
H711 H 0.91044 0.52009 0.76049 0.0
H712 H 0.84651 0.62386 0.7241 0.0
H713 H 0.86334 0.48155 0.65108 0.0
H714 H 0.8864 0.55845 0.74648 0.0
H715 H 0.82995 0.55225 0.60766 0.0
C716 C 0.82437 0.59172 0.61983 0.0
C717 C 0.82991 0.61252 0.65117 0.0
C718 C 0.881 0.54158 0.72591 0.0
C719 C 0.84748 0.56507 0.67885 0.0
C720 C 0.89469 0.51975 0.73408 0.0
C721 C 0.88827 0.49769 0.708 0.0
C722 C 0.8611 0.54152 0.69031 0.0
C723 C 0.86854 0.4983 0.67222 0.0
C724 C 0.83308 0.56788 0.63367 0.0
C725 C 0.8422 0.60839 0.6984 0.0
N726 N 0.85559 0.51996 0.66424 0.0
N727 N 0.85093 0.58524 0.71035 0.0
H728 H 0.75377 0.82658 0.19091 0.0
H729 H 0.86874 0.89695 0.09581 0.0
H730 H 0.74182 0.87566 0.06023 0.0
H731 H 0.84691 0.90755 0.25524 0.0
H732 H 0.82555 0.88404 0.07559 0.0
H733 H 0.79178 0.85036 0.21203 0.0
C734 C 0.75919 0.84217 0.1664 0.0
C735 C 0.74514 0.84827 0.12222 0.0
C736 C 0.83021 0.88981 0.11465 0.0
C737 C 0.78851 0.87523 0.14592 0.0
C738 C 0.85469 0.8972 0.12614 0.0
C739 C 0.86121 0.90342 0.17713 0.0
C740 C 0.81265 0.88776 0.15485 0.0
C741 C 0.84249 0.90314 0.21533 0.0
C742 C 0.78075 0.85572 0.17859 0.0
C743 C 0.75282 0.86905 0.09244 0.0
N744 N 0.81914 0.89473 0.20372 0.0
N745 N 0.77434 0.88146 0.10414 0.0
H746 H 0.31554 0.59747 0.9824 0.0
H747 H 0.41386 0.52217 0.81125 0.0
H748 H 0.35365 0.62834 0.84923 0.0
H749 H 0.36556 0.48532 0.92114 0.0
H750 H 0.39058 0.56114 0.82392 0.0
H751 H 0.33073 0.55566 0.95823 0.0
C752 C 0.32652 0.59537 0.94734 0.0
C753 C 0.33369 0.61644 0.9182 0.0
C754 C 0.38477 0.54453 0.84495 0.0
C755 C 0.3515 0.56896 0.89112 0.0
C756 C 0.39803 0.52234 0.83753 0.0
C757 C 0.39109 0.50059 0.86425 0.0
C758 C 0.36472 0.54509 0.88028 0.0
C759 C 0.3712 0.50182 0.89962 0.0
C760 C 0.33535 0.57154 0.93382 0.0
C761 C 0.34799 0.61266 0.87326 0.0
N762 N 0.35865 0.52378 0.90676 0.0
N763 N 0.35672 0.58947 0.86156 0.0
H764 H 0.63843 0.06594 0.73634 0.0
H765 H 0.71431 0.16274 0.56184 0.0
H766 H 0.60755 0.10423 0.60357 0.0
H767 H 0.75098 0.11405 0.67102 0.0
H768 H 0.67506 0.14018 0.5762 0.0
H769 H 0.68028 0.08059 0.71108 0.0
C770 C 0.64052 0.07686 0.70119 0.0
C771 C 0.61946 0.08422 0.67242 0.0
C772 C 0.69169 0.13412 0.59669 0.0
C773 C 0.66699 0.10138 0.64407 0.0
C774 C 0.71403 0.14697 0.58831 0.0
C775 C 0.73581 0.13969 0.61429 0.0
C776 C 0.69099 0.11417 0.6323 0.0
C777 C 0.73446 0.11991 0.64998 0.0
C778 C 0.66437 0.08538 0.68704 0.0
C779 C 0.62322 0.09843 0.62733 0.0
N780 N 0.71235 0.10777 0.65808 0.0
N781 N 0.64645 0.10683 0.615 0.0
H782 H 0.13323 0.35935 0.3479 0.0
H783 H 0.11727 0.50427 0.4219 0.0
H784 H 0.16578 0.39125 0.486 0.0
H785 H 0.07114 0.46437 0.31278 0.0
H786 H 0.14112 0.46542 0.43782 0.0
H787 H 0.11811 0.40077 0.32332 0.0
C788 C 0.13766 0.3752 0.37255 0.0
C789 C 0.15046 0.3718 0.41946 0.0
C790 C 0.12596 0.46528 0.40998 0.0
C791 C 0.13269 0.41925 0.39205 0.0
C792 C 0.11236 0.4873 0.40116 0.0
C793 C 0.09274 0.48745 0.36509 0.0
C794 C 0.11974 0.44339 0.38249 0.0
C795 C 0.08674 0.46512 0.33946 0.0
C796 C 0.12883 0.39882 0.3587 0.0
C797 C 0.15588 0.39305 0.44961 0.0
N798 N 0.10025 0.44401 0.34848 0.0
N799 N 0.1466 0.4159 0.4358 0.0
H800 H 0.63689 0.5656 0.34288 0.0
H801 H 0.71234 0.66524 0.51141 0.0
H802 H 0.6058 0.60542 0.47353 0.0
H803 H 0.74884 0.61611 0.40251 0.0
H804 H 0.67329 0.64227 0.49875 0.0
H805 H 0.67859 0.58119 0.36653 0.0
C806 C 0.63891 0.57704 0.3773 0.0
C807 C 0.6178 0.58452 0.40588 0.0
C808 C 0.68985 0.63626 0.47793 0.0
C809 C 0.66519 0.60283 0.43233 0.0
C810 C 0.71217 0.64934 0.48539 0.0
C811 C 0.73391 0.64214 0.4589 0.0
C812 C 0.68911 0.61606 0.44293 0.0
C813 C 0.73242 0.6221 0.42379 0.0
C814 C 0.66268 0.58613 0.3905 0.0
C815 C 0.6215 0.59946 0.44997 0.0
N816 N 0.71037 0.60972 0.41673 0.0
N817 N 0.64464 0.60841 0.46136 0.0
H818 H 0.06652 0.96468 0.76147 0.0
H819 H 0.16722 0.89075 0.59218 0.0
H820 H 0.11506 0.00174 0.65209 0.0
H821 H 0.1255 0.85806 0.71874 0.0
H822 H 0.15124 0.93219 0.61682 0.0
H823 H 0.0895 0.92569 0.74788 0.0
C824 C 0.08227 0.96461 0.73507 0.0
C825 C 0.0893 0.98647 0.70868 0.0
C826 C 0.14594 0.91598 0.63967 0.0
C827 C 0.11542 0.94182 0.69177 0.0
C828 C 0.15524 0.89237 0.62591 0.0
C829 C 0.14739 0.87092 0.65305 0.0
C830 C 0.12868 0.918 0.68064 0.0
C831 C 0.13177 0.87406 0.69629 0.0
C832 C 0.09536 0.94235 0.7271 0.0
C833 C 0.1092 0.9852 0.67323 0.0
N834 N 0.12267 0.89709 0.70828 0.0
N835 N 0.12161 0.96321 0.66574 0.0
H836 H 0.73136 0.36876 0.90019 0.0
H837 H 0.8757 0.38466 0.97663 0.0
H838 H 0.7704 0.3233 1.01179 0.0
H839 H 0.84452 0.41681 0.83743 0.0
H840 H 0.83411 0.37011 1.00133 0.0
H841 H 0.77022 0.39271 0.88491 0.0
C842 C 0.74814 0.36403 0.92162 0.0
C843 C 0.74776 0.34456 0.95813 0.0
C844 C 0.83626 0.38063 0.96569 0.0
C845 C 0.79182 0.37165 0.94146 0.0
C846 C 0.85997 0.38912 0.95176 0.0
C847 C 0.8636 0.4016 0.9045 0.0
C848 C 0.816 0.38448 0.93201 0.0
C849 C 0.84252 0.40712 0.87407 0.0
C850 C 0.77016 0.37769 0.91317 0.0
C851 C 0.76985 0.33877 0.98466 0.0
N852 N 0.81959 0.39813 0.88793 0.0
N853 N 0.79096 0.35231 0.97596 0.0
H854 H 0.35822 0.99229 0.26701 0.0
H855 H 0.32499 0.09736 0.06502 0.0
H856 H 0.40595 0.0056 0.13473 0.0
H857 H 0.33565 0.11871 0.2247 0.0
H858 H 0.33921 0.05481 0.08629 0.0
H859 H 0.33561 0.03102 0.24755 0.0
C860 C 0.36443 0.00352 0.23468 0.0
C861 C 0.38511 -0.00361 0.20425 0.0
C862 C 0.33775 0.06873 0.11674 0.0
C863 C 0.35764 0.03929 0.17925 0.0
C864 C 0.32943 0.09285 0.1049 0.0
C865 C 0.32922 0.11149 0.14328 0.0
C866 C 0.34515 0.06316 0.16746 0.0
C867 C 0.33561 0.1048 0.19413 0.0
C868 C 0.35108 0.02532 0.22305 0.0
C869 C 0.39055 0.01069 0.15992 0.0
N870 N 0.34342 0.08108 0.20485 0.0
N871 N 0.37691 0.0315 0.14871 0.0
H872 H 0.26991 0.32476 0.56 0.0
H873 H 0.34476 0.41979 0.73864 0.0
H874 H 0.23252 0.37156 0.67172 0.0
H875 H 0.37523 0.38569 0.60065 0.0
H876 H 0.30294 0.40525 0.71309 0.0
H877 H 0.30862 0.34823 0.57415 0.0
C878 C 0.26989 0.34034 0.58693 0.0
C879 C 0.24806 0.34682 0.6137 0.0
C880 C 0.31874 0.40141 0.68796 0.0
C881 C 0.2923 0.37332 0.63155 0.0
C882 C 0.34257 0.40988 0.70229 0.0
C883 C 0.36353 0.40355 0.67212 0.0
C884 C 0.31607 0.38648 0.64344 0.0
C885 C 0.35964 0.39063 0.6255 0.0
C886 C 0.29193 0.35369 0.5952 0.0
C887 C 0.24908 0.36632 0.65005 0.0
N888 N 0.33646 0.38219 0.61304 0.0
N889 N 0.27092 0.37893 0.65809 0.0
H890 H 0.85366 0.12711 0.35006 0.0
H891 H 0.86514 0.98175 0.42355 0.0
H892 H 0.81688 0.09494 0.48348 0.0
H893 H 0.91302 0.02044 0.31529 0.0
H894 H 0.84209 0.02106 0.43828 0.0
H895 H 0.86859 0.08557 0.32592 0.0
C896 C 0.84829 0.11118 0.37374 0.0
C897 C 0.83431 0.11451 0.41925 0.0
C898 C 0.85749 0.02084 0.41094 0.0
C899 C 0.85184 0.06692 0.39243 0.0
C900 C 0.87069 -0.00146 0.40282 0.0
C901 C 0.89063 -0.00216 0.36738 0.0
C902 C 0.8644 0.04252 0.38345 0.0
C903 C 0.89725 0.02 0.34159 0.0
C904 C 0.857 0.08748 0.36015 0.0
C905 C 0.8277 0.09318 0.44818 0.0
N906 N 0.88413 0.04141 0.35003 0.0
N907 N 0.83688 0.07026 0.43471 0.0
H908 H 0.13868 0.56677 0.23672 0.0
H909 H 0.21337 0.66085 0.05635 0.0
H910 H 0.10925 0.59747 0.09451 0.0
H911 H 0.25109 0.61497 0.16917 0.0
H912 H 0.17506 0.63664 0.07005 0.0
H913 H 0.18057 0.58139 0.21159 0.0
C914 C 0.14114 0.5759 0.19955 0.0
C915 C 0.12041 0.58132 0.16803 0.0
C916 C 0.19176 0.63152 0.09138 0.0
C917 C 0.16794 0.59852 0.1398 0.0
C918 C 0.21358 0.64528 0.08333 0.0
C919 C 0.23542 0.63928 0.11052 0.0
C920 C 0.19156 0.61199 0.12801 0.0
C921 C 0.23456 0.61984 0.14711 0.0
C922 C 0.165 0.58442 0.18545 0.0
C923 C 0.12465 0.59326 0.12039 0.0
N924 N 0.2129 0.60685 0.15499 0.0
N925 N 0.14783 0.60183 0.10817 0.0
H926 H 0.57442 0.96293 0.80739 0.0
H927 H 0.67111 0.88847 0.98249 0.0
H928 H 0.62089 0.00022 0.91975 0.0
H929 H 0.63598 0.85778 0.84593 0.0
H930 H 0.65636 0.93029 0.95729 0.0
H931 H 0.59861 0.92451 0.81961 0.0
C932 C 0.59008 0.96301 0.83402 0.0
C933 C 0.59623 0.98473 0.8616 0.0
C934 C 0.65235 0.91445 0.93234 0.0
C935 C 0.62357 0.94078 0.87727 0.0
C936 C 0.66095 0.89062 0.94645 0.0
C937 C 0.65436 0.86958 0.91669 0.0
C938 C 0.63702 0.91707 0.88842 0.0
C939 C 0.64113 0.87344 0.87046 0.0
C940 C 0.60385 0.94112 0.84121 0.0
C941 C 0.61588 0.98375 0.89752 0.0
N942 N 0.63254 0.89662 0.85823 0.0
N943 N 0.62889 0.96205 0.90451 0.0
H944 H 0.36505 0.1538 0.91372 0.0
H945 H 0.49429 0.07803 0.8964 0.0
H946 H 0.41353 0.14219 0.04525 0.0
H947 H 0.46126 0.11554 0.76502 0.0
H948 H 0.46023 0.09402 0.95107 0.0
H949 H 0.3961 0.13302 0.85836 0.0
C950 C 0.38218 0.14683 0.93099 0.0
C951 C 0.38678 0.1499 0.98416 0.0
C952 C 0.46035 0.09852 0.91016 0.0
C953 C 0.42216 0.12578 0.92117 0.0
C954 C 0.47963 0.08922 0.87884 0.0
C955 C 0.48067 0.09554 0.82609 0.0
C956 C 0.44178 0.11395 0.88842 0.0
C957 C 0.46128 0.11033 0.80556 0.0
C958 C 0.39988 0.135 0.89937 0.0
C959 C 0.40931 0.14044 1.00441 0.0
N960 N 0.44266 0.11905 0.83674 0.0
N961 N 0.42611 0.12874 0.97295 0.0
H962 H 0.57951 0.61624 0.16732 0.0
H963 H 0.65172 0.74705 0.14514 0.0
H964 H 0.58583 0.66769 0.29569 0.0
H965 H 0.61355 0.71358 1.01504 0.0
H966 H 0.63543 0.7135 0.20088 0.0
H967 H 0.59926 0.64763 0.11095 0.0
C968 C 0.58514 0.63409 0.18369 0.0
C969 C 0.58091 0.63942 0.23624 0.0
C970 C 0.63082 0.71344 0.16003 0.0
C971 C 0.60386 0.67515 0.17218 0.0
C972 C 0.64027 0.73243 0.12811 0.0
C973 C 0.63396 0.73313 0.07534 0.0
C974 C 0.61533 0.69476 0.13889 0.0
C975 C 0.61882 0.71381 0.05552 0.0
C976 C 0.59634 0.65198 0.15148 0.0
C977 C 0.58857 0.66288 0.25534 0.0
N978 N 0.61006 0.69538 0.08727 0.0
N979 N 0.5998 0.67983 0.2234 0.0
H980 H 0.01329 0.919 0.34374 0.0
H981 H 0.06633 0.80316 0.49893 0.0
H982 H -0.00634 0.84292 0.30369 0.0
H983 H 0.117 0.86288 0.45647 0.0
H984 H 0.03454 0.82135 0.44163 0.0
H985 H 0.04737 0.90255 0.39899 0.0
C986 C 0.01628 0.89893 0.34623 0.0
C987 C 0.00091 0.88229 0.31849 0.0
C988 C 0.05263 0.83045 0.44496 0.0
C989 C 0.03894 0.86353 0.38238 0.0
C990 C 0.07072 0.82016 0.47769 0.0
C991 C 0.09436 0.83146 0.48213 0.0
C992 C 0.05793 0.8526 0.41757 0.0
C993 C 0.09906 0.85348 0.45367 0.0
C994 C 0.03565 0.8896 0.37755 0.0
C995 C 0.00538 0.85643 0.32343 0.0
N996 N 0.08089 0.86352 0.42288 0.0
N997 N 0.02372 0.84785 0.35521 0.0
H998 H 0.86486 0.27418 0.51057 0.0
H999 H 0.89754 0.31661 0.79736 0.0
H1000 H 0.83271 0.23777 0.64439 0.0
H1001 H 0.90135 0.36794 0.66823 0.0
H1002 H 0.87692 0.28577 0.74125 0.0
H1003 H 0.88091 0.30751 0.5668 0.0
C1004 C 0.86086 0.27338 0.55169 0.0
C1005 C 0.84733 0.25318 0.57277 0.0
C1006 C 0.88219 0.30383 0.72531 0.0
C1007 C 0.86624 0.29094 0.63749 0.0
C1008 C 0.89411 0.32138 0.75719 0.0
C1009 C 0.90124 0.34489 0.73745 0.0
C1010 C 0.87777 0.30963 0.67302 0.0
C1011 C 0.89616 0.35008 0.68513 0.0
C1012 C 0.87007 0.29239 0.58375 0.0
C1013 C 0.84286 0.25307 0.62641 0.0
N1014 N 0.88494 0.33252 0.65464 0.0
N1015 N 0.85259 0.27147 0.65701 0.0
H1016 H 0.56858 0.84115 1.02353 0.0
H1017 H 0.52064 0.86501 0.31011 0.0
H1018 H 0.61734 0.8328 0.15562 0.0
H1019 H 0.48826 0.90306 0.1787 0.0
H1020 H 0.55475 0.85011 0.25449 0.0
H1021 H 0.5371 0.86066 0.07972 0.0
C1022 C 0.57267 0.84342 0.06435 0.0
C1023 C 0.59562 0.83527 0.08493 0.0
C1024 C 0.54032 0.86194 0.23799 0.0
C1025 C 0.55956 0.85738 0.14949 0.0
C1026 C 0.52084 0.87044 0.26967 0.0
C1027 C 0.50158 0.88535 0.24906 0.0
C1028 C 0.54028 0.86789 0.18499 0.0
C1029 C 0.50279 0.89175 0.19631 0.0
C1030 C 0.55475 0.85468 0.09631 0.0
C1031 C 0.59994 0.83885 0.13808 0.0
N1032 N 0.52162 0.88271 0.16596 0.0
N1033 N 0.58199 0.84939 0.16863 0.0
H1034 H 0.39168 0.32051 0.7797 0.0
H1035 H 0.37187 0.26942 0.06496 0.0
H1036 H 0.40459 0.36789 0.91255 0.0
H1037 H 0.32859 0.24208 0.9356 0.0
H1038 H 0.38735 0.30387 1.01041 0.0
H1039 H 0.3722 0.28926 0.83645 0.0
C1040 C 0.39043 0.32433 0.82083 0.0
C1041 C 0.3998 0.34684 0.84143 0.0
C1042 C 0.37424 0.29047 0.99425 0.0
C1043 C 0.37772 0.31101 0.90665 0.0
C1044 C 0.3654 0.27082 1.02531 0.0
C1045 C 0.34886 0.25284 1.00486 0.0
C1046 C 0.36696 0.29182 0.94206 0.0
C1047 C 0.34119 0.25555 0.95312 0.0
C1048 C 0.37918 0.30655 0.85313 0.0
C1049 C 0.39754 0.35083 0.89504 0.0
N1050 N 0.35056 0.27444 0.92334 0.0
N1051 N 0.38697 0.33297 0.92592 0.0
H1052 H 0.9709 0.06798 0.72923 0.0
H1053 H 0.9178 0.18243 0.57123 0.0
H1054 H 0.98831 0.14419 0.7728 0.0
H1055 H 0.86712 0.12288 0.61452 0.0
H1056 H 0.94932 0.16486 0.63015 0.0
H1057 H 0.93722 0.08404 0.6727 0.0
C1058 C 0.96752 0.088 0.7272 0.0
C1059 C 0.98224 0.10477 0.75611 0.0
C1060 C 0.9313 0.15565 0.62656 0.0
C1061 C 0.94463 0.12311 0.69069 0.0
C1062 C 0.91339 0.16557 0.5929 0.0
C1063 C 0.88982 0.15414 0.58828 0.0
C1064 C 0.92588 0.13374 0.65462 0.0
C1065 C 0.88503 0.13234 0.61737 0.0
C1066 C 0.94837 0.0971 0.69511 0.0
C1067 C 0.97721 0.13057 0.75181 0.0
N1068 N 0.90302 0.12265 0.64901 0.0
N1069 N 0.95911 0.13896 0.71918 0.0
H1070 H 0.15507 0.74806 0.4259 0.0
H1071 H 0.08251 0.61674 0.40504 0.0
H1072 H 0.1206 0.71152 0.55708 0.0
H1073 H 0.09221 0.66686 0.27517 0.0
H1074 H 0.1032 0.64759 0.4609 0.0
H1075 H 0.13947 0.7143 0.36988 0.0
C1076 C 0.14466 0.73271 0.44311 0.0
C1077 C 0.1391 0.73266 0.49629 0.0
C1078 C 0.10085 0.65178 0.42014 0.0
C1079 C 0.1211 0.69409 0.43236 0.0
C1080 C 0.08907 0.63417 0.38819 0.0
C1081 C 0.08546 0.63926 0.33534 0.0
C1082 C 0.10946 0.67452 0.39904 0.0
C1083 C 0.0944 0.66221 0.31573 0.0
C1084 C 0.13556 0.71359 0.41103 0.0
C1085 C 0.12527 0.71239 0.5163 0.0
N1086 N 0.10603 0.67894 0.34752 0.0
N1087 N 0.11673 0.69397 0.48437 0.0
H1088 H 0.91699 0.67909 0.50499 0.0
H1089 H 0.97199 0.56683 0.34632 0.0
H1090 H 0.86533 0.62183 0.45449 0.0
H1091 H 0.98756 0.64323 0.30091 0.0
H1092 H 0.93748 0.58232 0.40163 0.0
H1093 H 0.9488 0.66182 0.44635 0.0
C1094 C 0.91242 0.66279 0.48176 0.0
C1095 C 0.88852 0.6519 0.48431 0.0
C1096 C 0.94844 0.59552 0.37909 0.0
C1097 C 0.92493 0.6318 0.41838 0.0
C1098 C 0.96807 0.58676 0.34777 0.0
C1099 C 0.98254 0.60377 0.31879 0.0
C1100 C 0.94397 0.62144 0.38266 0.0
C1101 C 0.97675 0.62944 0.32218 0.0
C1102 C 0.9305 0.65304 0.4483 0.0
C1103 C 0.88352 0.63084 0.45324 0.0
N1104 N 0.95821 0.63752 0.35413 0.0
N1105 N 0.90171 0.62123 0.42185 0.0
H1106 H 0.07896 0.11769 0.66636 0.0
H1107 H 0.1555 0.24642 0.64248 0.0
H1108 H 0.09279 0.16653 0.79656 0.0
H1109 H 0.1152 0.21388 0.51415 0.0
H1110 H 0.13983 0.2127 0.69847 0.0
H1111 H 0.09886 0.14865 0.60925 0.0
C1112 C 0.08627 0.13486 0.68299 0.0
C1113 C 0.08408 0.13957 0.73633 0.0
C1114 C 0.13462 0.21285 0.65794 0.0
C1115 C 0.10718 0.17489 0.67124 0.0
C1116 C 0.14373 0.23196 0.62583 0.0
C1117 C 0.13661 0.23303 0.57351 0.0
C1118 C 0.11858 0.19444 0.63748 0.0
C1119 C 0.12109 0.21386 0.55426 0.0
C1120 C 0.09758 0.15253 0.65034 0.0
C1121 C 0.0939 0.16218 0.75566 0.0
N1122 N 0.1126 0.19537 0.5862 0.0
N1123 N 0.1051 0.17894 0.72319 0.0
H1124 H 0.48931 0.40507 0.89348 0.0
H1125 H 0.61752 0.32836 0.91365 0.0
H1126 H 0.51983 0.36358 0.76451 0.0
H1127 H 0.56866 0.34042 0.04457 0.0
H1128 H 0.58626 0.34826 0.85739 0.0
H1129 H 0.52322 0.38905 0.94828 0.0
C1130 C 0.50337 0.39295 0.87645 0.0
C1131 C 0.50171 0.3856 0.82434 0.0
C1132 C 0.58246 0.34656 0.89846 0.0
C1133 C 0.54047 0.36725 0.88684 0.0
C1134 C 0.60027 0.33526 0.93058 0.0
C1135 C 0.59561 0.33259 0.98384 0.0
C1136 C 0.56007 0.35572 0.9199 0.0
C1137 C 0.57293 0.34189 1.00368 0.0
C1138 C 0.52257 0.38366 0.90786 0.0
C1139 C 0.52035 0.36965 0.80451 0.0
N1140 N 0.55606 0.35315 0.97177 0.0
N1141 N 0.53897 0.36102 0.83576 0.0
H1142 H 0.36542 0.77479 1.01204 0.0
H1143 H 0.39308 0.81952 0.29906 0.0
H1144 H 0.32969 0.74044 0.14426 0.0
H1145 H 0.40014 0.86968 0.16856 0.0
H1146 H 0.37257 0.78874 0.24273 0.0
H1147 H 0.3806 0.8086 0.0681 0.0
C1148 C 0.3605 0.77453 0.05276 0.0
C1149 C 0.34624 0.75476 0.0735 0.0
C1150 C 0.37848 0.80655 0.22654 0.0
C1151 C 0.36405 0.7931 0.13805 0.0
C1152 C 0.39033 0.82406 0.25856 0.0
C1153 C 0.39842 0.84718 0.23845 0.0
C1154 C 0.3751 0.81197 0.17376 0.0
C1155 C 0.39418 0.85211 0.18572 0.0
C1156 C 0.36917 0.79383 0.08471 0.0
C1157 C 0.34047 0.75538 0.12657 0.0
N1158 N 0.38305 0.83456 0.15509 0.0
N1159 N 0.3497 0.77404 0.15717 0.0
H1160 H 0.06701 0.33844 0.52742 0.0
H1161 H 0.02217 0.36777 0.81396 0.0
H1162 H 0.11749 0.3331 0.65743 0.0
H1163 H 0.98822 0.40283 0.68073 0.0
H1164 H 0.05588 0.35201 0.75826 0.0
H1165 H 0.03602 0.35861 0.58371 0.0
C1166 C 0.07156 0.34146 0.56782 0.0
C1167 C 0.09488 0.33402 0.58776 0.0
C1168 C 0.04121 0.3634 0.74137 0.0
C1169 C 0.0594 0.35695 0.65243 0.0
C1170 C 0.02197 0.37241 0.77311 0.0
C1171 C 0.00235 0.38668 0.75199 0.0
C1172 C 0.04054 0.36819 0.6879 0.0
C1173 C 0.00304 0.39206 0.69874 0.0
C1174 C 0.05393 0.35312 0.59982 0.0
C1175 C 0.09978 0.33856 0.6404 0.0
N1176 N 0.02162 0.38252 0.66841 0.0
N1177 N 0.08211 0.34951 0.67103 0.0
H1178 H 0.87184 0.86943 0.36687 0.0
H1179 H 0.89111 0.74495 0.52141 0.0
H1180 H 0.92601 0.81482 0.31537 0.0
H1181 H 0.81556 0.7626 0.47467 0.0
H1182 H 0.90678 0.7779 0.46409 0.0
H1183 H 0.85298 0.83727 0.42373 0.0
C1184 C 0.87978 0.85072 0.36771 0.0
C1185 C 0.9005 0.84469 0.33654 0.0
C1186 C 0.88677 0.77468 0.46678 0.0
C1187 C 0.87948 0.80837 0.40174 0.0
C1188 C 0.87775 0.75606 0.49978 0.0
C1189 C 0.85195 0.75112 0.50309 0.0
C1190 C 0.86989 0.78902 0.43776 0.0
C1191 C 0.83558 0.76585 0.47324 0.0
C1192 C 0.86893 0.83245 0.39974 0.0
C1193 C 0.91 0.82018 0.33869 0.0
N1194 N 0.84481 0.7844 0.44204 0.0
N1195 N 0.89967 0.80301 0.37135 0.0
H1196 H 0.36462 0.65394 0.15678 0.0
H1197 H 0.49557 0.58167 0.17701 0.0
H1198 H 0.41638 0.64849 1.02875 0.0
H1199 H 0.45993 0.61616 0.30907 0.0
H1200 H 0.46224 0.59839 0.12141 0.0
H1201 H 0.39545 0.63306 0.21244 0.0
C1202 C 0.38243 0.6483 0.14033 0.0
C1203 C 0.38798 0.65311 0.08807 0.0
C1204 C 0.46163 0.60207 0.16265 0.0
C1205 C 0.42312 0.62883 0.15136 0.0
C1206 C 0.48049 0.59234 0.19448 0.0
C1207 C 0.48056 0.59756 0.24778 0.0
C1208 C 0.44248 0.61677 0.18439 0.0
C1209 C 0.46067 0.61176 0.26816 0.0
C1210 C 0.4 0.63642 0.17214 0.0
C1211 C 0.41138 0.64536 0.06889 0.0
N1212 N 0.44245 0.62085 0.23648 0.0
N1213 N 0.42803 0.6335 0.10043 0.0
H1214 H 0.65401 0.2443 0.93317 0.0
H1215 H 0.57869 0.11514 0.9129 0.0
H1216 H 0.61452 0.21283 0.06393 0.0
H1217 H 0.58755 0.16587 0.78382 0.0
H1218 H 0.59874 0.14631 0.96942 0.0
H1219 H 0.63741 0.2106 0.87859 0.0
C1220 C 0.64221 0.23006 0.95065 0.0
C1221 C 0.63558 0.23145 1.00322 0.0
C1222 C 0.59629 0.15054 0.92871 0.0
C1223 C 0.61651 0.19287 0.94084 0.0
C1224 C 0.58491 0.13279 0.89643 0.0
C1225 C 0.58133 0.13797 0.8436 0.0
C1226 C 0.60465 0.1734 0.90778 0.0
C1227 C 0.58975 0.16116 0.82436 0.0
C1228 C 0.63257 0.21098 0.91934 0.0
C1229 C 0.62 0.21257 1.02356 0.0
N1230 N 0.60115 0.17793 0.85634 0.0
N1231 N 0.611 0.19404 0.99235 0.0
H1232 H 0.24706 0.20769 0.1492 0.0
H1233 H 0.23626 0.27867 0.42355 0.0
H1234 H 0.31091 0.23018 0.24072 0.0
H1235 H 0.17254 0.25446 0.33351 0.0
H1236 H 0.26406 0.26124 0.35682 0.0
H1237 H 0.21937 0.2253 0.21585 0.0
C1238 C 0.25526 0.21639 0.1831 0.0
C1239 C 0.28136 0.21742 0.18921 0.0
C1240 C 0.24397 0.25972 0.35178 0.0
C1241 C 0.24982 0.23754 0.26586 0.0
C1242 C 0.22811 0.26964 0.38997 0.0
C1243 C 0.20201 0.26805 0.38431 0.0
C1244 C 0.23366 0.24816 0.30758 0.0
C1245 C 0.19253 0.25618 0.33972 0.0
C1246 C 0.23946 0.2264 0.22126 0.0
C1247 C 0.29091 0.22889 0.2342 0.0
N1248 N 0.20829 0.24676 0.30323 0.0
N1249 N 0.2752 0.23844 0.27065 0.0
H1250 H 0.49866 0.56233 0.48606 0.0
H1251 H 0.48347 0.42138 0.58807 0.0
H1252 H 0.52675 0.49787 0.40306 0.0
H1253 H 0.45553 0.48599 0.67079 0.0
H1254 H 0.49957 0.449 0.52062 0.0
H1255 H 0.48258 0.53464 0.55329 0.0
C1256 C 0.50139 0.54229 0.48176 0.0
C1257 C 0.51415 0.53244 0.43862 0.0
C1258 C 0.48999 0.4572 0.55351 0.0
C1259 C 0.49573 0.50048 0.51631 0.0
C1260 C 0.48079 0.44143 0.59227 0.0
C1261 C 0.46807 0.45136 0.63539 0.0
C1262 C 0.48649 0.4832 0.55752 0.0
C1263 C 0.46525 0.4775 0.63843 0.0
C1264 C 0.49219 0.52648 0.52041 0.0
C1265 C 0.51699 0.5063 0.43545 0.0
N1266 N 0.47434 0.4925 0.59995 0.0
N1267 N 0.50791 0.49124 0.47386 0.0
H1268 H 0.17168 0.75397 0.73711 0.0
H1269 H 0.31254 0.73505 0.83492 0.0
H1270 H 0.23625 0.78026 0.65194 0.0
H1271 H 0.24783 0.70857 0.91934 0.0
H1272 H 0.28501 0.75194 0.76836 0.0
H1273 H 0.19927 0.73736 0.8037 0.0
C1274 C 0.19172 0.75623 0.73222 0.0
C1275 C 0.20162 0.7686 0.68858 0.0
C1276 C 0.27677 0.74249 0.8014 0.0
C1277 C 0.2335 0.7495 0.76556 0.0
C1278 C 0.29249 0.73282 0.83966 0.0
C1279 C 0.28252 0.72029 0.88305 0.0
C1280 C 0.25075 0.73968 0.80618 0.0
C1281 C 0.25637 0.7181 0.88675 0.0
C1282 C 0.20748 0.74671 0.77051 0.0
C1283 C 0.22776 0.77084 0.68473 0.0
N1284 N 0.24141 0.72765 0.84878 0.0
N1285 N 0.24279 0.76142 0.72277 0.0
H1286 H 0.02587 0.50018 0.17288 0.0
H1287 H 0.9555 0.48731 0.89867 0.0
H1288 H 0.00135 0.56363 0.08213 0.0
H1289 H 0.98066 0.42432 0.99008 0.0
H1290 H 0.9721 0.51575 0.96518 0.0
H1291 H 0.00888 0.47208 0.1065 0.0
C1292 C 0.01681 0.50821 0.13921 0.0
C1293 C 0.01505 0.53433 0.13323 0.0
C1294 C 0.974 0.49569 0.97055 0.0
C1295 C -0.00433 0.50226 0.05674 0.0
C1296 C 0.96459 0.47946 0.93249 0.0
C1297 C 0.96667 0.45336 0.93864 0.0
C1298 C 0.98558 0.48575 1.01508 0.0
C1299 C 0.97857 0.44428 0.9835 0.0
C1300 C 0.00716 0.49216 0.10118 0.0
C1301 C 0.00316 0.54363 0.08853 0.0
N1302 N 0.9875 0.46039 1.01984 0.0
N1303 N -0.00601 0.52766 0.05209 0.0
H1304 H 0.67181 0.74895 0.83885 0.0
H1305 H 0.81278 0.73137 0.73989 0.0
H1306 H 0.73622 0.77626 0.92283 0.0
H1307 H 0.74815 0.70607 0.654 0.0
H1308 H 0.78516 0.74753 0.80717 0.0
H1309 H 0.69951 0.73242 0.77218 0.0
C1310 C 0.69184 0.75139 0.84352 0.0
C1311 C 0.70166 0.76409 0.88675 0.0
C1312 C 0.77696 0.73851 0.77364 0.0
C1313 C 0.73364 0.74516 0.80968 0.0
C1314 C 0.79273 0.72926 0.73498 0.0
C1315 C 0.78281 0.71728 0.69097 0.0
C1316 C 0.75094 0.73578 0.76868 0.0
C1317 C 0.75666 0.7152 0.68705 0.0
C1318 C 0.70765 0.74195 0.80517 0.0
C1319 C 0.72779 0.76656 0.89038 0.0
N1320 N 0.74165 0.7243 0.72546 0.0
N1321 N 0.74286 0.75725 0.85227 0.0
H1322 H 0.73544 0.27681 0.14968 0.0
H1323 H 0.74748 0.20757 0.42569 0.0
H1324 H 0.67194 0.25505 0.24329 0.0
H1325 H 0.81072 0.23038 0.33234 0.0
H1326 H 0.71933 0.22482 0.35943 0.0
H1327 H 0.76337 0.25953 0.21608 0.0
C1328 C 0.72736 0.26834 0.18402 0.0
C1329 C 0.70129 0.2674 0.19076 0.0
C1330 C 0.73939 0.22606 0.35358 0.0
C1331 C 0.73312 0.24765 0.26714 0.0
C1332 C 0.75545 0.21626 0.39148 0.0
C1333 C 0.78152 0.21751 0.38473 0.0
C1334 C 0.74947 0.23717 0.30861 0.0
C1335 C 0.79077 0.22893 0.33939 0.0
C1336 C 0.74331 0.25851 0.22202 0.0
C1337 C 0.69191 0.25624 0.23628 0.0
N1338 N 0.77482 0.23825 0.30322 0.0
N1339 N 0.70777 0.24685 0.2726 0.0
H1340 H 0.00242 0.06465 0.99345 0.0
H1341 H 0.97871 0.9224 0.08086 0.0
H1342 H 0.02489 0.00054 0.90243 0.0
H1343 H 0.95726 0.98627 0.17364 0.0
H1344 H -0.00446 0.95074 1.01548 0.0
H1345 H 0.98546 0.0364 0.05905 0.0
C1346 C 0.00373 0.0446 0.98706 0.0
C1347 C 0.01514 0.035 0.9421 0.0
C1348 C 0.98721 0.95863 0.0501 0.0
C1349 C -0.00429 0.00241 1.01777 0.0
C1350 C 0.97757 0.94243 0.08767 0.0
C1351 C 0.9665 0.95192 0.13308 0.0
C1352 C 0.98581 0.98466 0.05757 0.0
C1353 C 0.96565 0.97808 0.13941 0.0
C1354 C -0.00595 0.02847 1.02475 0.0
C1355 C 0.01624 0.00883 0.93629 0.0
N1356 N 0.97513 -0.00648 0.10205 0.0
N1357 N 0.00669 -0.00653 0.97368 0.0
H1358 H 0.50161 0.0627 0.58744 0.0
H1359 H 0.48602 0.92203 0.48437 0.0
H1360 H 0.5292 -0.00211 0.67001 0.0
H1361 H 0.45789 0.98682 0.40254 0.0
H1362 H 0.5026 0.94951 0.55141 0.0
H1363 H 0.48583 0.03527 0.51953 0.0
C1364 C 0.50431 0.04264 0.59148 0.0
C1365 C 0.5168 0.03261 0.63476 0.0
C1366 C 0.4929 0.95779 0.51879 0.0
C1367 C 0.49872 0.00097 0.55631 0.0
C1368 C 0.48342 0.9421 0.48025 0.0
C1369 C 0.47046 0.9521 0.43755 0.0
C1370 C 0.48943 0.9838 0.515 0.0
C1371 C 0.46779 0.97826 0.43458 0.0
C1372 C 0.49528 0.02698 0.55245 0.0
C1373 C 0.51964 0.00646 0.63755 0.0
N1374 N 0.47711 -0.00681 0.47288 0.0
N1375 N 0.51071 0.99156 0.59881 0.0
loop_
_geom_bond_atom_site_label_1
_geom_bond_atom_site_label_2
_geom_bond_distance
_geom_bond_site_symmetry_2
_ccdc_geom_bond_type
Zn0 O1 2.055 . S
Zn0 O8 2.046 1_554 S
Zn0 N16 2.036 1_554 S
Zn0 O28 2.053 1_554 S
Zn0 O30 2.066 . S
O1 Zn0 2.055 . S
O1 C4 1.259 . S
C2 O30 1.256 . S
C2 O31 1.244 . S
Zn3 O5 2.046 . S
Zn3 O7 2.055 . S
Zn3 N9 2.036 . S
Zn3 O27 2.066 . S
Zn3 O31 2.053 . S
C4 O1 1.259 . S
C4 O5 1.254 . S
O5 Zn3 2.046 . S
O5 C4 1.254 . S
C6 O27 1.256 1_556 S
C6 O28 1.244 . S
O7 Zn3 2.055 . S
O7 C29 1.259 1_554 S
O8 Zn0 2.046 1_556 S
O8 C29 1.254 . S
N9 Zn3 2.036 . S
N9 C10 1.298 . S
N9 N12 1.398 . S
C10 N9 1.298 . S
C10 N13 1.367 . S
C10 C23 1.481 . S
C11 N12 1.299 . S
C11 N13 1.379 . S
N12 N9 1.398 . S
N12 C11 1.299 . S
N13 C10 1.367 . S
N13 C11 1.379 . S
C14 N16 1.298 1_554 S
C14 N18 1.367 1_554 S
C14 C22 1.481 . S
C15 N17 1.299 . S
C15 N18 1.379 . S
N16 Zn0 2.036 1_556 S
N16 C14 1.298 1_556 S
N16 N17 1.398 . S
N17 C15 1.299 . S
N17 N16 1.398 . S
N18 C14 1.367 1_556 S
N18 C15 1.379 . S
H19 C22 0.980 . S
H20 C22 0.981 . S
H21 C22 0.981 . S
C22 C14 1.481 . S
C22 H19 0.980 . S
C22 H20 0.981 . S
C22 H21 0.981 . S
C23 C10 1.481 . S
C23 H24 0.980 . S
C23 H25 0.981 . S
C23 H26 0.981 . S
H24 C23 0.980 . S
H25 C23 0.981 . S
H26 C23 0.981 . S
O27 Zn3 2.066 . S
O27 C6 1.256 1_554 S
O28 Zn0 2.053 1_556 S
O28 C6 1.244 . S
C29 O7 1.259 1_556 S
C29 O8 1.254 . S
O30 Zn0 2.066 . S
O30 C2 1.256 . S
O31 C2 1.244 . S
O31 Zn3 2.053 . S
Zn32 O33 2.055 . S
Zn32 O40 2.046 . S
Zn32 N48 2.036 . S
Zn32 O60 2.053 . S
Zn32 O62 2.066 . S
O33 Zn32 2.055 . S
O33 C36 1.259 . S
C34 O62 1.256 . S
C34 O63 1.244 . S
Zn35 O37 2.046 . S
Zn35 O39 2.055 . S
Zn35 N41 2.036 . S
Zn35 O59 2.066 . S
Zn35 O63 2.053 . S
C36 O33 1.259 . S
C36 O37 1.254 . S
O37 Zn35 2.046 . S
O37 C36 1.254 . S
C38 O59 1.256 . S
C38 O60 1.244 . S
O39 Zn35 2.055 . S
O39 C61 1.259 . S
O40 Zn32 2.046 . S
O40 C61 1.254 . S
N41 Zn35 2.036 . S
N41 C42 1.298 . S
N41 N44 1.398 . S
C42 N41 1.298 . S
C42 N45 1.367 . S
C42 C55 1.481 . S
C43 N44 1.299 . S
C43 N45 1.379 . S
N44 N41 1.398 . S
N44 C43 1.299 . S
N45 C42 1.367 . S
N45 C43 1.379 . S
C46 N48 1.298 . S
C46 N50 1.367 . S
C46 C54 1.481 . S
C47 N49 1.299 . S
C47 N50 1.379 . S
N48 Zn32 2.036 . S
N48 C46 1.298 . S
N48 N49 1.398 . S
N49 C47 1.299 . S
N49 N48 1.398 . S
N50 C46 1.367 . S
N50 C47 1.379 . S
H51 C54 0.980 . S
H52 C54 0.981 . S
H53 C54 0.981 . S
C54 C46 1.481 . S
C54 H51 0.980 . S
C54 H52 0.981 . S
C54 H53 0.981 . S
C55 C42 1.481 . S
C55 H56 0.980 . S
C55 H57 0.981 . S
C55 H58 0.981 . S
H56 C55 0.980 . S
H57 C55 0.981 . S
H58 C55 0.981 . S
O59 Zn35 2.066 . S
O59 C38 1.256 . S
O60 Zn32 2.053 . S
O60 C38 1.244 . S
C61 O39 1.259 . S
C61 O40 1.254 . S
O62 Zn32 2.066 . S
O62 C34 1.256 . S
O63 C34 1.244 . S
O63 Zn35 2.053 . S
Zn64 O65 2.055 . S
Zn64 O72 2.046 . S
Zn64 N80 2.036 . S
Zn64 O92 2.053 . S
Zn64 O94 2.066 . S
O65 Zn64 2.055 . S
O65 C68 1.259 . S
C66 O94 1.256 . S
C66 O95 1.244 . S
Zn67 O69 2.046 . S
Zn67 O71 2.055 . S
Zn67 N73 2.036 . S
Zn67 O91 2.066 . S
Zn67 O95 2.053 . S
C68 O65 1.259 . S
C68 O69 1.254 . S
O69 Zn67 2.046 . S
O69 C68 1.254 . S
C70 O91 1.256 . S
C70 O92 1.244 . S
O71 Zn67 2.055 . S
O71 C93 1.259 . S
O72 Zn64 2.046 . S
O72 C93 1.254 . S
N73 Zn67 2.036 . S
N73 C74 1.298 . S
N73 N76 1.398 . S
C74 N73 1.298 . S
C74 N77 1.367 . S
C74 C87 1.481 . S
C75 N76 1.299 . S
C75 N77 1.379 . S
N76 N73 1.398 . S
N76 C75 1.299 . S
N77 C74 1.367 . S
N77 C75 1.379 . S
C78 N80 1.298 . S
C78 N82 1.367 . S
C78 C86 1.481 . S
C79 N81 1.299 . S
C79 N82 1.379 . S
N80 Zn64 2.036 . S
N80 C78 1.298 . S
N80 N81 1.398 . S
N81 C79 1.299 . S
N81 N80 1.398 . S
N82 C78 1.367 . S
N82 C79 1.379 . S
H83 C86 0.980 . S
H84 C86 0.981 . S
H85 C86 0.981 . S
C86 C78 1.481 . S
C86 H83 0.980 . S
C86 H84 0.981 . S
C86 H85 0.981 . S
C87 C74 1.481 . S
C87 H88 0.980 . S
C87 H89 0.981 . S
C87 H90 0.981 . S
H88 C87 0.980 . S
H89 C87 0.981 . S
H90 C87 0.981 . S
O91 Zn67 2.066 . S
O91 C70 1.256 . S
O92 Zn64 2.053 . S
O92 C70 1.244 . S
C93 O71 1.259 . S
C93 O72 1.254 . S
O94 Zn64 2.066 . S
O94 C66 1.256 . S
O95 C66 1.244 . S
O95 Zn67 2.053 . S
Zn96 O97 2.055 . S
Zn96 O104 2.046 . S
Zn96 N112 2.036 . S
Zn96 O124 2.053 . S
Zn96 O126 2.066 . S
O97 Zn96 2.055 . S
O97 C100 1.259 . S
C98 O126 1.256 . S
C98 O127 1.244 . S
Zn99 O101 2.046 . S
Zn99 O103 2.055 . S
Zn99 N105 2.036 . S
Zn99 O123 2.066 . S
Zn99 O127 2.053 . S
C100 O97 1.259 . S
C100 O101 1.254 . S
O101 Zn99 2.046 . S
O101 C100 1.254 . S
C102 O123 1.256 . S
C102 O124 1.244 . S
O103 Zn99 2.055 . S
O103 C125 1.259 . S
O104 Zn96 2.046 . S
O104 C125 1.254 . S
N105 Zn99 2.036 . S
N105 C106 1.298 . S
N105 N108 1.398 . S
C106 N105 1.298 . S
C106 N109 1.367 . S
C106 C119 1.481 . S
C107 N108 1.299 . S
C107 N109 1.379 . S
N108 N105 1.398 . S
N108 C107 1.299 . S
N109 C106 1.367 . S
N109 C107 1.379 . S
C110 N112 1.298 . S
C110 N114 1.367 . S
C110 C118 1.481 . S
C111 N113 1.299 . S
C111 N114 1.379 . S
N112 Zn96 2.036 . S
N112 C110 1.298 . S
N112 N113 1.398 . S
N113 C111 1.299 . S
N113 N112 1.398 . S
N114 C110 1.367 . S
N114 C111 1.379 . S
H115 C118 0.980 . S
H116 C118 0.981 . S
H117 C118 0.981 . S
C118 C110 1.481 . S
C118 H115 0.980 . S
C118 H116 0.981 . S
C118 H117 0.981 . S
C119 C106 1.481 . S
C119 H120 0.980 . S
C119 H121 0.981 . S
C119 H122 0.981 . S
H120 C119 0.980 . S
H121 C119 0.981 . S
H122 C119 0.981 . S
O123 Zn99 2.066 . S
O123 C102 1.256 . S
O124 Zn96 2.053 . S
O124 C102 1.244 . S
C125 O103 1.259 . S
C125 O104 1.254 . S
O126 Zn96 2.066 . S
O126 C98 1.256 . S
O127 C98 1.244 . S
O127 Zn99 2.053 . S
Zn128 O129 2.055 . S
Zn128 O136 2.046 . S
Zn128 N144 2.036 . S
Zn128 O156 2.053 . S
Zn128 O158 2.066 . S
O129 Zn128 2.055 . S
O129 C132 1.259 1_556 S
C130 O158 1.256 1_554 S
C130 O159 1.244 . S
Zn131 O133 2.046 1_556 S
Zn131 O135 2.055 . S
Zn131 N137 2.036 1_556 S
Zn131 O155 2.066 . S
Zn131 O159 2.053 1_556 S
C132 O129 1.259 1_554 S
C132 O133 1.254 . S
O133 Zn131 2.046 1_554 S
O133 C132 1.254 . S
C134 O155 1.256 . S
C134 O156 1.244 . S
O135 Zn131 2.055 . S
O135 C157 1.259 . S
O136 Zn128 2.046 . S
O136 C157 1.254 . S
N137 Zn131 2.036 1_554 S
N137 C138 1.298 1_554 S
N137 N140 1.398 . S
C138 N137 1.298 1_556 S
C138 N141 1.367 1_556 S
C138 C151 1.481 . S
C139 N140 1.299 . S
C139 N141 1.379 . S
N140 N137 1.398 . S
N140 C139 1.299 . S
N141 C138 1.367 1_554 S
N141 C139 1.379 . S
C142 N144 1.298 . S
C142 N146 1.367 . S
C142 C150 1.481 . S
C143 N145 1.299 . S
C143 N146 1.379 . S
N144 Zn128 2.036 . S
N144 C142 1.298 . S
N144 N145 1.398 . S
N145 C143 1.299 . S
N145 N144 1.398 . S
N146 C142 1.367 . S
N146 C143 1.379 . S
H147 C150 0.980 . S
H148 C150 0.981 . S
H149 C150 0.981 . S
C150 C142 1.481 . S
C150 H147 0.980 . S
C150 H148 0.981 . S
C150 H149 0.981 . S
C151 C138 1.481 . S
C151 H152 0.980 . S
C151 H153 0.981 . S
C151 H154 0.981 . S
H152 C151 0.980 . S
H153 C151 0.981 . S
H154 C151 0.981 . S
O155 Zn131 2.066 . S
O155 C134 1.256 . S
O156 Zn128 2.053 . S
O156 C134 1.244 . S
C157 O135 1.259 . S
C157 O136 1.254 . S
O158 Zn128 2.066 . S
O158 C130 1.256 1_556 S
O159 C130 1.244 . S
O159 Zn131 2.053 1_554 S
Zn160 O161 2.055 . S
Zn160 O168 2.046 . S
Zn160 N176 2.036 . S
Zn160 O188 2.053 . S
Zn160 O190 2.066 . S
O161 Zn160 2.055 . S
O161 C164 1.259 . S
C162 O190 1.256 . S
C162 O191 1.244 . S
Zn163 O165 2.046 . S
Zn163 O167 2.055 . S
Zn163 N169 2.036 . S
Zn163 O187 2.066 . S
Zn163 O191 2.053 . S
C164 O161 1.259 . S
C164 O165 1.254 . S
O165 Zn163 2.046 . S
O165 C164 1.254 . S
C166 O187 1.256 . S
C166 O188 1.244 . S
O167 Zn163 2.055 . S
O167 C189 1.259 . S
O168 Zn160 2.046 . S
O168 C189 1.254 . S
N169 Zn163 2.036 . S
N169 C170 1.298 . S
N169 N172 1.398 . S
C170 N169 1.298 . S
C170 N173 1.367 . S
C170 C183 1.481 . S
C171 N172 1.299 . S
C171 N173 1.379 . S
N172 N169 1.398 . S
N172 C171 1.299 . S
N173 C170 1.367 . S
N173 C171 1.379 . S
C174 N176 1.298 . S
C174 N178 1.367 . S
C174 C182 1.481 . S
C175 N177 1.299 . S
C175 N178 1.379 . S
N176 Zn160 2.036 . S
N176 C174 1.298 . S
N176 N177 1.398 . S
N177 C175 1.299 . S
N177 N176 1.398 . S
N178 C174 1.367 . S
N178 C175 1.379 . S
H179 C182 0.980 . S
H180 C182 0.981 . S
H181 C182 0.981 . S
C182 C174 1.481 . S
C182 H179 0.980 . S
C182 H180 0.981 . S
C182 H181 0.981 . S
C183 C170 1.481 . S
C183 H184 0.980 . S
C183 H185 0.981 . S
C183 H186 0.981 . S
H184 C183 0.980 . S
H185 C183 0.981 . S
H186 C183 0.981 . S
O187 Zn163 2.066 . S
O187 C166 1.256 . S
O188 Zn160 2.053 . S
O188 C166 1.244 . S
C189 O167 1.259 . S
C189 O168 1.254 . S
O190 Zn160 2.066 . S
O190 C162 1.256 . S
O191 C162 1.244 . S
O191 Zn163 2.053 . S
Zn192 O193 2.055 . S
Zn192 O200 2.046 . S
Zn192 N208 2.036 . S
Zn192 O220 2.053 . S
Zn192 O222 2.066 . S
O193 Zn192 2.055 . S
O193 C196 1.259 . S
C194 O222 1.256 . S
C194 O223 1.244 . S
Zn195 O197 2.046 . S
Zn195 O199 2.055 . S
Zn195 N201 2.036 . S
Zn195 O219 2.066 . S
Zn195 O223 2.053 . S
C196 O193 1.259 . S
C196 O197 1.254 . S
O197 Zn195 2.046 . S
O197 C196 1.254 . S
C198 O219 1.256 . S
C198 O220 1.244 . S
O199 Zn195 2.055 . S
O199 C221 1.259 . S
O200 Zn192 2.046 . S
O200 C221 1.254 . S
N201 Zn195 2.036 . S
N201 C202 1.298 . S
N201 N204 1.398 . S
C202 N201 1.298 . S
C202 N205 1.367 . S
C202 C215 1.481 . S
C203 N204 1.299 . S
C203 N205 1.379 . S
N204 N201 1.398 . S
N204 C203 1.299 . S
N205 C202 1.367 . S
N205 C203 1.379 . S
C206 N208 1.298 . S
C206 N210 1.367 . S
C206 C214 1.481 . S
C207 N209 1.299 . S
C207 N210 1.379 . S
N208 Zn192 2.036 . S
N208 C206 1.298 . S
N208 N209 1.398 . S
N209 C207 1.299 . S
N209 N208 1.398 . S
N210 C206 1.367 . S
N210 C207 1.379 . S
H211 C214 0.980 . S
H212 C214 0.981 . S
H213 C214 0.981 . S
C214 C206 1.481 . S
C214 H211 0.980 . S
C214 H212 0.981 . S
C214 H213 0.981 . S
C215 C202 1.481 . S
C215 H216 0.980 . S
C215 H217 0.981 . S
C215 H218 0.981 . S
H216 C215 0.980 . S
H217 C215 0.981 . S
H218 C215 0.981 . S
O219 Zn195 2.066 . S
O219 C198 1.256 . S
O220 Zn192 2.053 . S
O220 C198 1.244 . S
C221 O199 1.259 . S
C221 O200 1.254 . S
O222 Zn192 2.066 . S
O222 C194 1.256 . S
O223 C194 1.244 . S
O223 Zn195 2.053 . S
Zn224 O225 2.055 . S
Zn224 O232 2.046 . S
Zn224 N240 2.036 . S
Zn224 O252 2.053 . S
Zn224 O254 2.066 . S
O225 Zn224 2.055 . S
O225 C228 1.259 . S
C226 O254 1.256 . S
C226 O255 1.244 . S
Zn227 O229 2.046 . S
Zn227 O231 2.055 . S
Zn227 N233 2.036 . S
Zn227 O251 2.066 . S
Zn227 O255 2.053 . S
C228 O225 1.259 . S
C228 O229 1.254 . S
O229 Zn227 2.046 . S
O229 C228 1.254 . S
C230 O251 1.256 . S
C230 O252 1.244 . S
O231 Zn227 2.055 . S
O231 C253 1.259 . S
O232 Zn224 2.046 . S
O232 C253 1.254 . S
N233 Zn227 2.036 . S
N233 C234 1.298 . S
N233 N236 1.398 . S
C234 N233 1.298 . S
C234 N237 1.367 . S
C234 C247 1.481 . S
C235 N236 1.299 . S
C235 N237 1.379 . S
N236 N233 1.398 . S
N236 C235 1.299 . S
N237 C234 1.367 . S
N237 C235 1.379 . S
C238 N240 1.298 . S
C238 N242 1.367 . S
C238 C246 1.481 . S
C239 N241 1.299 . S
C239 N242 1.379 . S
N240 Zn224 2.036 . S
N240 C238 1.298 . S
N240 N241 1.398 . S
N241 C239 1.299 . S
N241 N240 1.398 . S
N242 C238 1.367 . S
N242 C239 1.379 . S
H243 C246 0.980 . S
H244 C246 0.981 . S
H245 C246 0.981 . S
C246 C238 1.481 . S
C246 H243 0.980 . S
C246 H244 0.981 . S
C246 H245 0.981 . S
C247 C234 1.481 . S
C247 H248 0.980 . S
C247 H249 0.981 . S
C247 H250 0.981 . S
H248 C247 0.980 . S
H249 C247 0.981 . S
H250 C247 0.981 . S
O251 Zn227 2.066 . S
O251 C230 1.256 . S
O252 Zn224 2.053 . S
O252 C230 1.244 . S
C253 O231 1.259 . S
C253 O232 1.254 . S
O254 Zn224 2.066 . S
O254 C226 1.256 . S
O255 C226 1.244 . S
O255 Zn227 2.053 . S
Zn256 O257 2.055 . S
Zn256 O264 2.046 . S
Zn256 N272 2.036 . S
Zn256 O284 2.053 . S
Zn256 O286 2.066 . S
O257 Zn256 2.055 . S
O257 C260 1.259 . S
C258 O286 1.256 . S
C258 O287 1.244 . S
Zn259 O261 2.046 . S
Zn259 O263 2.055 . S
Zn259 N265 2.036 . S
Zn259 O283 2.066 . S
Zn259 O287 2.053 . S
C260 O257 1.259 . S
C260 O261 1.254 . S
O261 Zn259 2.046 . S
O261 C260 1.254 . S
C262 O283 1.256 . S
C262 O284 1.244 . S
O263 Zn259 2.055 . S
O263 C285 1.259 . S
O264 Zn256 2.046 . S
O264 C285 1.254 . S
N265 Zn259 2.036 . S
N265 C266 1.298 . S
N265 N268 1.398 . S
C266 N265 1.298 . S
C266 N269 1.367 . S
C266 C279 1.481 . S
C267 N268 1.299 . S
C267 N269 1.379 . S
N268 N265 1.398 . S
N268 C267 1.299 . S
N269 C266 1.367 . S
N269 C267 1.379 . S
C270 N272 1.298 . S
C270 N274 1.367 . S
C270 C278 1.481 . S
C271 N273 1.299 . S
C271 N274 1.379 . S
N272 Zn256 2.036 . S
N272 C270 1.298 . S
N272 N273 1.398 . S
N273 C271 1.299 . S
N273 N272 1.398 . S
N274 C270 1.367 . S
N274 C271 1.379 . S
H275 C278 0.980 . S
H276 C278 0.981 . S
H277 C278 0.981 . S
C278 C270 1.481 . S
C278 H275 0.980 . S
C278 H276 0.981 . S
C278 H277 0.981 . S
C279 C266 1.481 . S
C279 H280 0.980 . S
C279 H281 0.981 . S
C279 H282 0.981 . S
H280 C279 0.980 . S
H281 C279 0.981 . S
H282 C279 0.981 . S
O283 Zn259 2.066 . S
O283 C262 1.256 . S
O284 Zn256 2.053 . S
O284 C262 1.244 . S
C285 O263 1.259 . S
C285 O264 1.254 . S
O286 Zn256 2.066 . S
O286 C258 1.256 . S
O287 C258 1.244 . S
O287 Zn259 2.053 . S
Zn288 O289 2.055 . S
Zn288 O296 2.046 . S
Zn288 N304 2.036 . S
Zn288 O316 2.053 . S
Zn288 O318 2.066 . S
O289 Zn288 2.055 . S
O289 C292 1.259 . S
C290 O318 1.256 . S
C290 O319 1.244 . S
Zn291 O293 2.046 . S
Zn291 O295 2.055 . S
Zn291 N297 2.036 . S
Zn291 O315 2.066 . S
Zn291 O319 2.053 . S
C292 O289 1.259 . S
C292 O293 1.254 . S
O293 Zn291 2.046 . S
O293 C292 1.254 . S
C294 O315 1.256 . S
C294 O316 1.244 . S
O295 Zn291 2.055 . S
O295 C317 1.259 . S
O296 Zn288 2.046 . S
O296 C317 1.254 . S
N297 Zn291 2.036 . S
N297 C298 1.298 . S
N297 N300 1.398 . S
C298 N297 1.298 . S
C298 N301 1.395 . S
C298 C311 1.481 . S
C299 N300 1.299 . S
C299 N301 1.392 . S
N300 N297 1.398 . S
N300 C299 1.299 . S
N301 C298 1.395 . S
N301 C299 1.392 . S
C302 N304 1.298 . S
C302 N306 1.367 . S
C302 C310 1.481 . S
C303 N305 1.299 . S
C303 N306 1.379 . S
N304 Zn288 2.036 . S
N304 C302 1.298 . S
N304 N305 1.398 . S
N305 C303 1.299 . S
N305 N304 1.398 . S
N306 C302 1.367 . S
N306 C303 1.379 . S
H307 C310 0.980 . S
H308 C310 0.981 . S
H309 C310 0.981 . S
C310 C302 1.481 . S
C310 H307 0.980 . S
C310 H308 0.981 . S
C310 H309 0.981 . S
C311 C298 1.481 . S
C311 H312 0.980 . S
C311 H313 0.981 . S
C311 H314 0.981 . S
H312 C311 0.980 . S
H313 C311 0.981 . S
H314 C311 0.981 . S
O315 Zn291 2.066 . S
O315 C294 1.256 . S
O316 Zn288 2.053 . S
O316 C294 1.244 . S
C317 O295 1.259 . S
C317 O296 1.254 . S
O318 Zn288 2.066 . S
O318 C290 1.256 . S
O319 C290 1.244 . S
O319 Zn291 2.053 . S
Zn320 O321 2.055 . S
Zn320 O328 2.046 . S
Zn320 N336 2.036 . S
Zn320 O348 2.053 . S
Zn320 O350 2.066 . S
O321 Zn320 2.055 . S
O321 C324 1.259 1_554 S
C322 O350 1.256 1_556 S
C322 O351 1.244 . S
Zn323 O325 2.046 1_554 S
Zn323 O327 2.055 . S
Zn323 N329 2.036 1_554 S
Zn323 O347 2.066 . S
Zn323 O351 2.053 1_554 S
C324 O321 1.259 1_556 S
C324 O325 1.254 . S
O325 Zn323 2.046 1_556 S
O325 C324 1.254 . S
C326 O347 1.256 . S
C326 O348 1.244 . S
O327 Zn323 2.055 . S
O327 C349 1.259 . S
O328 Zn320 2.046 . S
O328 C349 1.254 . S
N329 Zn323 2.036 1_556 S
N329 C330 1.298 1_556 S
N329 N332 1.398 . S
C330 N329 1.298 1_554 S
C330 N333 1.367 1_554 S
C330 C343 1.481 . S
C331 N332 1.299 . S
C331 N333 1.379 . S
N332 N329 1.398 . S
N332 C331 1.299 . S
N333 C330 1.367 1_556 S
N333 C331 1.379 . S
C334 N336 1.298 . S
C334 N338 1.367 . S
C334 C342 1.481 . S
C335 N337 1.299 . S
C335 N338 1.379 . S
N336 Zn320 2.036 . S
N336 C334 1.298 . S
N336 N337 1.398 . S
N337 C335 1.299 . S
N337 N336 1.398 . S
N338 C334 1.367 . S
N338 C335 1.379 . S
H339 C342 0.980 . S
H340 C342 0.981 . S
H341 C342 0.981 . S
C342 C334 1.481 . S
C342 H339 0.980 . S
C342 H340 0.981 . S
C342 H341 0.981 . S
C343 C330 1.481 . S
C343 H344 0.980 . S
C343 H345 0.981 . S
C343 H346 0.981 . S
H344 C343 0.980 . S
H345 C343 0.981 . S
H346 C343 0.981 . S
O347 Zn323 2.066 . S
O347 C326 1.256 . S
O348 Zn320 2.053 . S
O348 C326 1.244 . S
C349 O327 1.259 . S
C349 O328 1.254 . S
O350 Zn320 2.066 . S
O350 C322 1.256 1_554 S
O351 C322 1.244 . S
O351 Zn323 2.053 1_556 S
Zn352 O353 2.055 . S
Zn352 O360 2.046 . S
Zn352 N368 2.036 . S
Zn352 O380 2.053 . S
Zn352 O382 2.066 . S
O353 Zn352 2.055 . S
O353 C356 1.259 . S
C354 O382 1.256 . S
C354 O383 1.244 . S
Zn355 O357 2.046 . S
Zn355 O359 2.055 . S
Zn355 N361 2.036 . S
Zn355 O379 2.066 . S
Zn355 O383 2.053 . S
C356 O353 1.259 . S
C356 O357 1.254 . S
O357 Zn355 2.046 . S
O357 C356 1.254 . S
C358 O379 1.256 . S
C358 O380 1.244 . S
O359 Zn355 2.055 . S
O359 C381 1.259 . S
O360 Zn352 2.046 . S
O360 C381 1.254 . S
N361 Zn355 2.036 . S
N361 C362 1.298 . S
N361 N364 1.398 . S
C362 N361 1.298 . S
C362 N365 1.395 . S
C362 C375 1.481 . S
C363 N364 1.299 . S
C363 N365 1.392 . S
N364 N361 1.398 . S
N364 C363 1.299 . S
N365 C362 1.395 . S
N365 C363 1.392 . S
C366 N368 1.298 . S
C366 N370 1.367 . S
C366 C374 1.481 . S
C367 N369 1.299 . S
C367 N370 1.379 . S
N368 Zn352 2.036 . S
N368 C366 1.298 . S
N368 N369 1.398 . S
N369 C367 1.299 . S
N369 N368 1.398 . S
N370 C366 1.367 . S
N370 C367 1.379 . S
H371 C374 0.980 . S
H372 C374 0.981 . S
H373 C374 0.981 . S
C374 C366 1.481 . S
C374 H371 0.980 . S
C374 H372 0.981 . S
C374 H373 0.981 . S
C375 C362 1.481 . S
C375 H376 0.980 . S
C375 H377 0.981 . S
C375 H378 0.981 . S
H376 C375 0.980 . S
H377 C375 0.981 . S
H378 C375 0.981 . S
O379 Zn355 2.066 . S
O379 C358 1.256 . S
O380 Zn352 2.053 . S
O380 C358 1.244 . S
C381 O359 1.259 . S
C381 O360 1.254 . S
O382 Zn352 2.066 . S
O382 C354 1.256 . S
O383 C354 1.244 . S
O383 Zn355 2.053 . S
Zn384 O385 2.055 . S
Zn384 O392 2.046 . S
Zn384 N400 2.036 . S
Zn384 O412 2.053 . S
Zn384 O414 2.066 . S
O385 Zn384 2.055 . S
O385 C388 1.259 . S
C386 O414 1.256 . S
C386 O415 1.244 . S
Zn387 O389 2.046 . S
Zn387 O391 2.055 . S
Zn387 N393 2.036 . S
Zn387 O411 2.066 . S
Zn387 O415 2.053 . S
C388 O385 1.259 . S
C388 O389 1.254 . S
O389 Zn387 2.046 . S
O389 C388 1.254 . S
C390 O411 1.256 . S
C390 O412 1.244 . S
O391 Zn387 2.055 . S
O391 C413 1.259 . S
O392 Zn384 2.046 . S
O392 C413 1.254 . S
N393 Zn387 2.036 . S
N393 C394 1.298 . S
N393 N396 1.398 . S
C394 N393 1.298 . S
C394 N397 1.367 . S
C394 C407 1.481 . S
C395 N396 1.299 . S
C395 N397 1.379 . S
N396 N393 1.398 . S
N396 C395 1.299 . S
N397 C394 1.367 . S
N397 C395 1.379 . S
C398 N400 1.298 . S
C398 N402 1.367 . S
C398 C406 1.481 . S
C399 N401 1.299 . S
C399 N402 1.379 . S
N400 Zn384 2.036 . S
N400 C398 1.298 . S
N400 N401 1.398 . S
N401 C399 1.299 . S
N401 N400 1.398 . S
N402 C398 1.367 . S
N402 C399 1.379 . S
H403 C406 0.980 . S
H404 C406 0.981 . S
H405 C406 0.981 . S
C406 C398 1.481 . S
C406 H403 0.980 . S
C406 H404 0.981 . S
C406 H405 0.981 . S
C407 C394 1.481 . S
C407 H408 0.980 . S
C407 H409 0.981 . S
C407 H410 0.981 . S
H408 C407 0.980 . S
H409 C407 0.981 . S
H410 C407 0.981 . S
O411 Zn387 2.066 . S
O411 C390 1.256 . S
O412 Zn384 2.053 . S
O412 C390 1.244 . S
C413 O391 1.259 . S
C413 O392 1.254 . S
O414 Zn384 2.066 . S
O414 C386 1.256 . S
O415 C386 1.244 . S
O415 Zn387 2.053 . S
Zn416 O417 2.055 . S
Zn416 O424 2.046 . S
Zn416 N432 2.036 . S
Zn416 O444 2.053 . S
Zn416 O446 2.066 . S
O417 Zn416 2.055 . S
O417 C420 1.259 . S
C418 O446 1.256 . S
C418 O447 1.244 . S
Zn419 O421 2.046 . S
Zn419 O423 2.055 . S
Zn419 N425 2.036 . S
Zn419 O443 2.066 . S
Zn419 O447 2.053 . S
C420 O417 1.259 . S
C420 O421 1.254 . S
O421 Zn419 2.046 . S
O421 C420 1.254 . S
C422 O443 1.256 . S
C422 O444 1.244 . S
O423 Zn419 2.055 . S
O423 C445 1.259 . S
O424 Zn416 2.046 . S
O424 C445 1.254 . S
N425 Zn419 2.036 . S
N425 C426 1.298 . S
N425 N428 1.398 . S
C426 N425 1.298 . S
C426 N429 1.395 . S
C426 C439 1.481 . S
C427 N428 1.299 . S
C427 N429 1.392 . S
N428 N425 1.398 . S
N428 C427 1.299 . S
N429 C426 1.395 . S
N429 C427 1.392 . S
C430 N432 1.298 . S
C430 N434 1.367 . S
C430 C438 1.481 . S
C431 N433 1.299 . S
C431 N434 1.379 . S
N432 Zn416 2.036 . S
N432 C430 1.298 . S
N432 N433 1.398 . S
N433 C431 1.299 . S
N433 N432 1.398 . S
N434 C430 1.367 . S
N434 C431 1.379 . S
H435 C438 0.980 . S
H436 C438 0.981 . S
H437 C438 0.981 . S
C438 C430 1.481 . S
C438 H435 0.980 . S
C438 H436 0.981 . S
C438 H437 0.981 . S
C439 C426 1.481 . S
C439 H440 0.980 . S
C439 H441 0.981 . S
C439 H442 0.981 . S
H440 C439 0.980 . S
H441 C439 0.981 . S
H442 C439 0.981 . S
O443 Zn419 2.066 . S
O443 C422 1.256 . S
O444 Zn416 2.053 . S
O444 C422 1.244 . S
C445 O423 1.259 . S
C445 O424 1.254 . S
O446 Zn416 2.066 . S
O446 C418 1.256 . S
O447 C418 1.244 . S
O447 Zn419 2.053 . S
Zn448 O449 2.055 . S
Zn448 O456 2.046 1_556 S
Zn448 N464 2.036 1_556 S
Zn448 O476 2.053 1_556 S
Zn448 O478 2.066 . S
O449 Zn448 2.055 . S
O449 C452 1.259 . S
C450 O478 1.256 . S
C450 O479 1.244 . S
Zn451 O453 2.046 . S
Zn451 O455 2.055 . S
Zn451 N457 2.036 . S
Zn451 O475 2.066 . S
Zn451 O479 2.053 . S
C452 O449 1.259 . S
C452 O453 1.254 . S
O453 Zn451 2.046 . S
O453 C452 1.254 . S
C454 O475 1.256 1_554 S
C454 O476 1.244 . S
O455 Zn451 2.055 . S
O455 C477 1.259 1_556 S
O456 Zn448 2.046 1_554 S
O456 C477 1.254 . S
N457 Zn451 2.036 . S
N457 C458 1.298 . S
N457 N460 1.398 . S
C458 N457 1.298 . S
C458 N461 1.367 . S
C458 C471 1.481 . S
C459 N460 1.299 . S
C459 N461 1.379 . S
N460 N457 1.398 . S
N460 C459 1.299 . S
N461 C458 1.367 . S
N461 C459 1.379 . S
C462 N464 1.298 1_556 S
C462 N466 1.367 1_556 S
C462 C470 1.481 . S
C463 N465 1.299 . S
C463 N466 1.379 . S
N464 Zn448 2.036 1_554 S
N464 C462 1.298 1_554 S
N464 N465 1.398 . S
N465 C463 1.299 . S
N465 N464 1.398 . S
N466 C462 1.367 1_554 S
N466 C463 1.379 . S
H467 C470 0.980 . S
H468 C470 0.981 . S
H469 C470 0.981 . S
C470 C462 1.481 . S
C470 H467 0.980 . S
C470 H468 0.981 . S
C470 H469 0.981 . S
C471 C458 1.481 . S
C471 H472 0.980 . S
C471 H473 0.981 . S
C471 H474 0.981 . S
H472 C471 0.980 . S
H473 C471 0.981 . S
H474 C471 0.981 . S
O475 Zn451 2.066 . S
O475 C454 1.256 1_556 S
O476 Zn448 2.053 1_554 S
O476 C454 1.244 . S
C477 O455 1.259 1_554 S
C477 O456 1.254 . S
O478 Zn448 2.066 . S
O478 C450 1.256 . S
O479 C450 1.244 . S
O479 Zn451 2.053 . S
Zn480 O481 2.055 . S
Zn480 O488 2.046 . S
Zn480 N496 2.036 . S
Zn480 O508 2.053 . S
Zn480 O510 2.066 . S
O481 Zn480 2.055 . S
O481 C484 1.259 . S
C482 O510 1.256 . S
C482 O511 1.244 . S
Zn483 O485 2.046 . S
Zn483 O487 2.055 . S
Zn483 N489 2.036 . S
Zn483 O507 2.066 . S
Zn483 O511 2.053 . S
C484 O481 1.259 . S
C484 O485 1.254 . S
O485 Zn483 2.046 . S
O485 C484 1.254 . S
C486 O507 1.256 . S
C486 O508 1.244 . S
O487 Zn483 2.055 . S
O487 C509 1.259 . S
O488 Zn480 2.046 . S
O488 C509 1.254 . S
N489 Zn483 2.036 . S
N489 C490 1.298 . S
N489 N492 1.398 . S
C490 N489 1.298 . S
C490 N493 1.395 . S
C490 C503 1.481 . S
C491 N492 1.299 . S
C491 N493 1.392 . S
N492 N489 1.398 . S
N492 C491 1.299 . S
N493 C490 1.395 . S
N493 C491 1.392 . S
C494 N496 1.298 . S
C494 N498 1.367 . S
C494 C502 1.481 . S
C495 N497 1.299 . S
C495 N498 1.379 . S
N496 Zn480 2.036 . S
N496 C494 1.298 . S
N496 N497 1.398 . S
N497 C495 1.299 . S
N497 N496 1.398 . S
N498 C494 1.367 . S
N498 C495 1.379 . S
H499 C502 0.980 . S
H500 C502 0.981 . S
H501 C502 0.981 . S
C502 C494 1.481 . S
C502 H499 0.980 . S
C502 H500 0.981 . S
C502 H501 0.981 . S
C503 C490 1.481 . S
C503 H504 0.980 . S
C503 H505 0.981 . S
C503 H506 0.981 . S
H504 C503 0.980 . S
H505 C503 0.981 . S
H506 C503 0.981 . S
O507 Zn483 2.066 . S
O507 C486 1.256 . S
O508 Zn480 2.053 . S
O508 C486 1.244 . S
C509 O487 1.259 . S
C509 O488 1.254 . S
O510 Zn480 2.066 . S
O510 C482 1.256 . S
O511 C482 1.244 . S
O511 Zn483 2.053 . S
H512 C518 0.930 . S
H513 C522 0.930 . S
H514 C527 0.929 . S
H515 C525 0.929 . S
H516 C520 0.929 . S
H517 C526 0.929 . S
C518 H512 0.930 . S
C518 C519 1.367 . S
C518 C526 1.378 . S
C519 C518 1.367 . S
C519 C527 1.433 . S
C520 H516 0.929 . S
C520 C522 1.378 . S
C520 C524 1.350 . S
C521 C524 1.463 . S
C521 C526 1.350 . S
C521 N529 1.427 . S
C522 H513 0.930 . S
C522 C520 1.378 . S
C522 C523 1.367 . S
C523 C522 1.367 . S
C523 C525 1.433 . S
C524 C520 1.350 . S
C524 C521 1.463 . S
C524 N528 1.427 . S
C525 H515 0.929 . S
C525 C523 1.433 . S
C525 N528 1.384 . S
C526 H517 0.929 . S
C526 C518 1.378 . S
C526 C521 1.350 . S
C527 H514 0.929 . S
C527 C519 1.433 . S
C527 N529 1.384 . S
N528 C524 1.427 . S
N528 C525 1.384 . S
N529 C521 1.427 . S
N529 C527 1.384 . S
H530 C536 0.930 . S
H531 C540 0.930 . S
H532 C545 0.929 . S
H533 C543 0.929 . S
H534 C538 0.929 . S
H535 C544 0.929 . S
C536 H530 0.930 . S
C536 C537 1.367 . S
C536 C544 1.378 . S
C537 C536 1.367 . S
C537 C545 1.433 . S
C538 H534 0.929 . S
C538 C540 1.378 . S
C538 C542 1.350 . S
C539 C542 1.463 . S
C539 C544 1.350 . S
C539 N547 1.427 . S
C540 H531 0.930 . S
C540 C538 1.378 . S
C540 C541 1.367 . S
C541 C540 1.367 . S
C541 C543 1.433 . S
C542 C538 1.350 . S
C542 C539 1.463 . S
C542 N546 1.427 . S
C543 H533 0.929 . S
C543 C541 1.433 . S
C543 N546 1.384 . S
C544 H535 0.929 . S
C544 C536 1.378 . S
C544 C539 1.350 . S
C545 H532 0.929 . S
C545 C537 1.433 . S
C545 N547 1.384 . S
N546 C542 1.427 . S
N546 C543 1.384 . S
N547 C539 1.427 . S
N547 C545 1.384 . S
H548 C554 0.930 . S
H549 C558 0.930 . S
H550 C563 0.929 . S
H551 C561 0.929 . S
H552 C556 0.929 . S
H553 C562 0.929 . S
C554 H548 0.930 . S
C554 C555 1.367 . S
C554 C562 1.378 . S
C555 C554 1.367 . S
C555 C563 1.433 . S
C556 H552 0.929 . S
C556 C558 1.378 . S
C556 C560 1.350 . S
C557 C560 1.463 1_455 S
C557 C562 1.350 . S
C557 N565 1.427 . S
C558 H549 0.930 . S
C558 C556 1.378 . S
C558 C559 1.367 . S
C559 C558 1.367 . S
C559 C561 1.433 . S
C560 C556 1.350 . S
C560 C557 1.463 1_655 S
C560 N564 1.427 . S
C561 H551 0.929 . S
C561 C559 1.433 . S
C561 N564 1.384 . S
C562 H553 0.929 . S
C562 C554 1.378 . S
C562 C557 1.350 . S
C563 H550 0.929 . S
C563 C555 1.433 . S
C563 N565 1.384 . S
N564 C560 1.427 . S
N564 C561 1.384 . S
N565 C557 1.427 . S
N565 C563 1.384 . S
H566 C572 0.925 1_455 S
H567 C576 0.924 1_655 S
H568 C581 0.929 . S
H569 C579 0.929 . S
H570 C574 0.929 . S
H571 C580 0.929 . S
C572 H566 0.925 1_655 S
C572 C573 1.378 . S
C572 C580 1.373 1_655 S
C573 C572 1.378 . S
C573 C581 1.433 . S
C574 H570 0.929 . S
C574 C576 1.373 1_655 S
C574 C578 1.350 1_655 S
C575 C578 1.463 1_655 S
C575 C580 1.350 1_655 S
C575 N583 1.427 . S
C576 H567 0.924 1_455 S
C576 C574 1.373 1_455 S
C576 C577 1.378 . S
C577 C576 1.378 . S
C577 C579 1.433 . S
C578 C574 1.350 1_455 S
C578 C575 1.463 1_455 S
C578 N582 1.427 . S
C579 H569 0.929 . S
C579 C577 1.433 . S
C579 N582 1.384 . S
C580 H571 0.929 . S
C580 C572 1.373 1_455 S
C580 C575 1.350 1_455 S
C581 H568 0.929 . S
C581 C573 1.433 . S
C581 N583 1.384 . S
N582 C578 1.427 . S
N582 C579 1.384 . S
N583 C575 1.427 . S
N583 C581 1.384 . S
H584 C590 0.930 . S
H585 C594 0.930 . S
H586 C599 0.929 . S
H587 C597 0.929 . S
H588 C592 0.929 . S
H589 C598 0.929 . S
C590 H584 0.930 . S
C590 C591 1.367 . S
C590 C598 1.378 . S
C591 C590 1.367 . S
C591 C599 1.433 . S
C592 H588 0.929 . S
C592 C594 1.378 . S
C592 C596 1.350 . S
C593 C596 1.463 . S
C593 C598 1.350 . S
C593 N601 1.427 . S
C594 H585 0.930 . S
C594 C592 1.378 . S
C594 C595 1.367 . S
C595 C594 1.367 . S
C595 C597 1.433 . S
C596 C592 1.350 . S
C596 C593 1.463 . S
C596 N600 1.427 . S
C597 H587 0.929 . S
C597 C595 1.433 . S
C597 N600 1.384 . S
C598 H589 0.929 . S
C598 C590 1.378 . S
C598 C593 1.350 . S
C599 H586 0.929 . S
C599 C591 1.433 . S
C599 N601 1.384 . S
N600 C596 1.427 . S
N600 C597 1.384 . S
N601 C593 1.427 . S
N601 C599 1.384 . S
H602 C608 0.930 . S
H603 C612 0.930 . S
H604 C617 0.929 . S
H605 C615 0.929 . S
H606 C610 0.929 . S
H607 C616 0.929 . S
C608 H602 0.930 . S
C608 C609 1.367 . S
C608 C616 1.378 . S
C609 C608 1.367 . S
C609 C617 1.433 . S
C610 H606 0.929 . S
C610 C612 1.378 . S
C610 C614 1.350 . S
C611 C614 1.463 . S
C611 C616 1.350 . S
C611 N619 1.427 . S
C612 H603 0.930 . S
C612 C610 1.378 . S
C612 C613 1.367 . S
C613 C612 1.367 . S
C613 C615 1.433 . S
C614 C610 1.350 . S
C614 C611 1.463 . S
C614 N618 1.427 . S
C615 H605 0.929 . S
C615 C613 1.433 . S
C615 N618 1.384 . S
C616 H607 0.929 . S
C616 C608 1.378 . S
C616 C611 1.350 . S
C617 H604 0.929 . S
C617 C609 1.433 . S
C617 N619 1.384 . S
N618 C614 1.427 . S
N618 C615 1.384 . S
N619 C611 1.427 . S
N619 C617 1.384 . S
H620 C626 0.930 . S
H621 C630 0.930 . S
H622 C635 0.929 . S
H623 C633 0.929 . S
H624 C628 0.929 . S
H625 C634 0.929 . S
C626 H620 0.930 . S
C626 C627 1.367 . S
C626 C634 1.378 . S
C627 C626 1.367 . S
C627 C635 1.433 . S
C628 H624 0.929 . S
C628 C630 1.378 . S
C628 C632 1.350 . S
C629 C632 1.463 1_655 S
C629 C634 1.350 . S
C629 N637 1.427 . S
C630 H621 0.930 . S
C630 C628 1.378 . S
C630 C631 1.367 . S
C631 C630 1.367 . S
C631 C633 1.433 . S
C632 C628 1.350 . S
C632 C629 1.463 1_455 S
C632 N636 1.427 . S
C633 H623 0.929 . S
C633 C631 1.433 . S
C633 N636 1.384 . S
C634 H625 0.929 . S
C634 C626 1.378 . S
C634 C629 1.350 . S
C635 H622 0.929 . S
C635 C627 1.433 . S
C635 N637 1.384 . S
N636 C632 1.427 . S
N636 C633 1.384 . S
N637 C629 1.427 . S
N637 C635 1.384 . S
H638 C644 0.930 . S
H639 C648 0.930 . S
H640 C653 0.929 . S
H641 C651 0.929 . S
H642 C646 0.929 . S
H643 C652 0.929 . S
C644 H638 0.930 . S
C644 C645 1.367 1_655 S
C644 C652 1.378 . S
C645 C644 1.367 1_455 S
C645 C653 1.433 . S
C646 H642 0.929 . S
C646 C648 1.378 . S
C646 C650 1.350 1_455 S
C647 C650 1.463 1_455 S
C647 C652 1.350 1_455 S
C647 N655 1.427 . S
C648 H639 0.930 . S
C648 C646 1.378 . S
C648 C649 1.367 1_455 S
C649 C648 1.367 1_655 S
C649 C651 1.433 . S
C650 C646 1.350 1_655 S
C650 C647 1.463 1_655 S
C650 N654 1.427 . S
C651 H641 0.929 . S
C651 C649 1.433 . S
C651 N654 1.384 . S
C652 H643 0.929 . S
C652 C644 1.378 . S
C652 C647 1.350 1_655 S
C653 H640 0.929 . S
C653 C645 1.433 . S
C653 N655 1.384 . S
N654 C650 1.427 . S
N654 C651 1.384 . S
N655 C647 1.427 . S
N655 C653 1.384 . S
H656 C662 0.930 . S
H657 C666 0.930 . S
H658 C671 0.929 . S
H659 C669 0.929 . S
H660 C664 0.929 . S
H661 C670 0.929 . S
C662 H656 0.930 . S
C662 C663 1.367 . S
C662 C670 1.378 . S
C663 C662 1.367 . S
C663 C671 1.433 . S
C664 H660 0.929 . S
C664 C666 1.378 . S
C664 C668 1.350 . S
C665 C668 1.463 . S
C665 C670 1.350 . S
C665 N673 1.427 . S
C666 H657 0.930 . S
C666 C664 1.378 . S
C666 C667 1.367 . S
C667 C666 1.367 . S
C667 C669 1.433 1_556 S
C668 C664 1.350 . S
C668 C665 1.463 . S
C668 N672 1.427 . S
C669 H659 0.929 . S
C669 C667 1.433 1_554 S
C669 N672 1.384 1_554 S
C670 H661 0.929 . S
C670 C662 1.378 . S
C670 C665 1.350 . S
C671 H658 0.929 . S
C671 C663 1.433 . S
C671 N673 1.384 . S
N672 C668 1.427 . S
N672 C669 1.384 1_556 S
N673 C665 1.427 . S
N673 C671 1.384 . S
H674 C680 0.930 . S
H675 C684 0.930 . S
H676 C689 0.929 . S
H677 C687 0.929 . S
H678 C682 0.929 . S
H679 C688 0.929 . S
C680 H674 0.930 . S
C680 C681 1.367 . S
C680 C688 1.378 . S
C681 C680 1.367 . S
C681 C689 1.433 . S
C682 H678 0.929 . S
C682 C684 1.378 . S
C682 C686 1.350 . S
C683 C686 1.463 . S
C683 C688 1.350 . S
C683 N691 1.427 . S
C684 H675 0.930 . S
C684 C682 1.378 . S
C684 C685 1.367 . S
C685 C684 1.367 . S
C685 C687 1.433 . S
C686 C682 1.350 . S
C686 C683 1.463 . S
C686 N690 1.427 . S
C687 H677 0.929 . S
C687 C685 1.433 . S
C687 N690 1.384 . S
C688 H679 0.929 . S
C688 C680 1.378 . S
C688 C683 1.350 . S
C689 H676 0.929 . S
C689 C681 1.433 . S
C689 N691 1.384 . S
N690 C686 1.427 . S
N690 C687 1.384 . S
N691 C683 1.427 . S
N691 C689 1.384 . S
H692 C698 0.930 . S
H693 C702 0.930 . S
H694 C707 0.929 . S
H695 C705 0.929 . S
H696 C700 0.929 . S
H697 C706 0.929 . S
C698 H692 0.930 . S
C698 C699 1.367 . S
C698 C706 1.378 . S
C699 C698 1.367 . S
C699 C707 1.433 . S
C700 H696 0.929 . S
C700 C702 1.378 . S
C700 C704 1.350 . S
C701 C704 1.463 . S
C701 C706 1.350 . S
C701 N709 1.427 . S
C702 H693 0.930 . S
C702 C700 1.378 . S
C702 C703 1.367 . S
C703 C702 1.367 . S
C703 C705 1.433 . S
C704 C700 1.350 . S
C704 C701 1.463 . S
C704 N708 1.427 . S
C705 H695 0.929 . S
C705 C703 1.433 . S
C705 N708 1.384 . S
C706 H697 0.929 . S
C706 C698 1.378 . S
C706 C701 1.350 . S
C707 H694 0.929 . S
C707 C699 1.433 . S
C707 N709 1.384 . S
N708 C704 1.427 . S
N708 C705 1.384 . S
N709 C701 1.427 . S
N709 C707 1.384 . S
H710 C716 0.930 . S
H711 C720 0.930 . S
H712 C725 0.929 . S
H713 C723 0.929 . S
H714 C718 0.929 . S
H715 C724 0.929 . S
C716 H710 0.930 . S
C716 C717 1.367 . S
C716 C724 1.378 . S
C717 C716 1.367 . S
C717 C725 1.433 . S
C718 H714 0.929 . S
C718 C720 1.378 . S
C718 C722 1.350 . S
C719 C722 1.463 . S
C719 C724 1.350 . S
C719 N727 1.427 . S
C720 H711 0.930 . S
C720 C718 1.378 . S
C720 C721 1.367 . S
C721 C720 1.367 . S
C721 C723 1.433 . S
C722 C718 1.350 . S
C722 C719 1.463 . S
C722 N726 1.427 . S
C723 H713 0.929 . S
C723 C721 1.433 . S
C723 N726 1.384 . S
C724 H715 0.929 . S
C724 C716 1.378 . S
C724 C719 1.350 . S
C725 H712 0.929 . S
C725 C717 1.433 . S
C725 N727 1.384 . S
N726 C722 1.427 . S
N726 C723 1.384 . S
N727 C719 1.427 . S
N727 C725 1.384 . S
H728 C734 0.930 . S
H729 C738 0.930 . S
H730 C743 0.929 1_556 S
H731 C741 0.929 . S
H732 C736 0.929 . S
H733 C742 0.929 . S
C734 H728 0.930 . S
C734 C735 1.367 . S
C734 C742 1.378 . S
C735 C734 1.367 . S
C735 C743 1.433 . S
C736 H732 0.929 . S
C736 C738 1.378 . S
C736 C740 1.350 . S
C737 C740 1.463 . S
C737 C742 1.350 . S
C737 N745 1.427 . S
C738 H729 0.930 . S
C738 C736 1.378 . S
C738 C739 1.367 . S
C739 C738 1.367 . S
C739 C741 1.433 . S
C740 C736 1.350 . S
C740 C737 1.463 . S
C740 N744 1.427 . S
C741 H731 0.929 . S
C741 C739 1.433 . S
C741 N744 1.384 . S
C742 H733 0.929 . S
C742 C734 1.378 . S
C742 C737 1.350 . S
C743 H730 0.929 1_554 S
C743 C735 1.433 . S
C743 N745 1.384 . S
N744 C740 1.427 . S
N744 C741 1.384 . S
N745 C737 1.427 . S
N745 C743 1.384 . S
H746 C752 0.930 . S
H747 C756 0.930 . S
H748 C761 0.929 . S
H749 C759 0.929 . S
H750 C754 0.929 . S
H751 C760 0.929 . S
C752 H746 0.930 . S
C752 C753 1.367 . S
C752 C760 1.378 . S
C753 C752 1.367 . S
C753 C761 1.433 . S
C754 H750 0.929 . S
C754 C756 1.378 . S
C754 C758 1.350 . S
C755 C758 1.463 . S
C755 C760 1.350 . S
C755 N763 1.427 . S
C756 H747 0.930 . S
C756 C754 1.378 . S
C756 C757 1.367 . S
C757 C756 1.367 . S
C757 C759 1.433 . S
C758 C754 1.350 . S
C758 C755 1.463 . S
C758 N762 1.427 . S
C759 H749 0.929 . S
C759 C757 1.433 . S
C759 N762 1.384 . S
C760 H751 0.929 . S
C760 C752 1.378 . S
C760 C755 1.350 . S
C761 H748 0.929 . S
C761 C753 1.433 . S
C761 N763 1.384 . S
N762 C758 1.427 . S
N762 C759 1.384 . S
N763 C755 1.427 . S
N763 C761 1.384 . S
H764 C770 0.930 . S
H765 C774 0.930 . S
H766 C779 0.929 . S
H767 C777 0.929 . S
H768 C772 0.929 . S
H769 C778 0.929 . S
C770 H764 0.930 . S
C770 C771 1.367 . S
C770 C778 1.378 . S
C771 C770 1.367 . S
C771 C779 1.433 . S
C772 H768 0.929 . S
C772 C774 1.378 . S
C772 C776 1.350 . S
C773 C776 1.463 . S
C773 C778 1.350 . S
C773 N781 1.427 . S
C774 H765 0.930 . S
C774 C772 1.378 . S
C774 C775 1.367 . S
C775 C774 1.367 . S
C775 C777 1.433 . S
C776 C772 1.350 . S
C776 C773 1.463 . S
C776 N780 1.427 . S
C777 H767 0.929 . S
C777 C775 1.433 . S
C777 N780 1.384 . S
C778 H769 0.929 . S
C778 C770 1.378 . S
C778 C773 1.350 . S
C779 H766 0.929 . S
C779 C771 1.433 . S
C779 N781 1.384 . S
N780 C776 1.427 . S
N780 C777 1.384 . S
N781 C773 1.427 . S
N781 C779 1.384 . S
H782 C788 0.930 . S
H783 C792 0.930 . S
H784 C797 0.929 . S
H785 C795 0.929 . S
H786 C790 0.929 . S
H787 C796 0.929 . S
C788 H782 0.930 . S
C788 C789 1.367 . S
C788 C796 1.378 . S
C789 C788 1.367 . S
C789 C797 1.433 . S
C790 H786 0.929 . S
C790 C792 1.378 . S
C790 C794 1.350 . S
C791 C794 1.463 . S
C791 C796 1.350 . S
C791 N799 1.427 . S
C792 H783 0.930 . S
C792 C790 1.378 . S
C792 C793 1.367 . S
C793 C792 1.367 . S
C793 C795 1.433 . S
C794 C790 1.350 . S
C794 C791 1.463 . S
C794 N798 1.427 . S
C795 H785 0.929 . S
C795 C793 1.433 . S
C795 N798 1.384 . S
C796 H787 0.929 . S
C796 C788 1.378 . S
C796 C791 1.350 . S
C797 H784 0.929 . S
C797 C789 1.433 . S
C797 N799 1.384 . S
N798 C794 1.427 . S
N798 C795 1.384 . S
N799 C791 1.427 . S
N799 C797 1.384 . S
H800 C806 0.930 . S
H801 C810 0.930 . S
H802 C815 0.929 . S
H803 C813 0.929 . S
H804 C808 0.929 . S
H805 C814 0.929 . S
C806 H800 0.930 . S
C806 C807 1.367 . S
C806 C814 1.378 . S
C807 C806 1.367 . S
C807 C815 1.433 . S
C808 H804 0.929 . S
C808 C810 1.378 . S
C808 C812 1.350 . S
C809 C812 1.463 . S
C809 C814 1.350 . S
C809 N817 1.427 . S
C810 H801 0.930 . S
C810 C808 1.378 . S
C810 C811 1.367 . S
C811 C810 1.367 . S
C811 C813 1.433 . S
C812 C808 1.350 . S
C812 C809 1.463 . S
C812 N816 1.427 . S
C813 H803 0.929 . S
C813 C811 1.433 . S
C813 N816 1.384 . S
C814 H805 0.929 . S
C814 C806 1.378 . S
C814 C809 1.350 . S
C815 H802 0.929 . S
C815 C807 1.433 . S
C815 N817 1.384 . S
N816 C812 1.427 . S
N816 C813 1.384 . S
N817 C809 1.427 . S
N817 C815 1.384 . S
H818 C824 0.930 . S
H819 C828 0.930 . S
H820 C833 0.929 . S
H821 C831 0.929 . S
H822 C826 0.929 . S
H823 C832 0.929 . S
C824 H818 0.930 . S
C824 C825 1.367 . S
C824 C832 1.378 . S
C825 C824 1.367 . S
C825 C833 1.433 . S
C826 H822 0.929 . S
C826 C828 1.378 . S
C826 C830 1.350 . S
C827 C830 1.463 . S
C827 C832 1.350 . S
C827 N835 1.427 . S
C828 H819 0.930 . S
C828 C826 1.378 . S
C828 C829 1.367 . S
C829 C828 1.367 . S
C829 C831 1.433 . S
C830 C826 1.350 . S
C830 C827 1.463 . S
C830 N834 1.427 . S
C831 H821 0.929 . S
C831 C829 1.433 . S
C831 N834 1.384 . S
C832 H823 0.929 . S
C832 C824 1.378 . S
C832 C827 1.350 . S
C833 H820 0.929 . S
C833 C825 1.433 . S
C833 N835 1.384 . S
N834 C830 1.427 . S
N834 C831 1.384 . S
N835 C827 1.427 . S
N835 C833 1.384 . S
H836 C842 0.930 . S
H837 C846 0.930 . S
H838 C851 0.929 . S
H839 C849 0.929 . S
H840 C844 0.929 . S
H841 C850 0.929 . S
C842 H836 0.930 . S
C842 C843 1.367 . S
C842 C850 1.378 . S
C843 C842 1.367 . S
C843 C851 1.433 1_556 S
C844 H840 0.929 . S
C844 C846 1.378 . S
C844 C848 1.350 . S
C845 C848 1.463 . S
C845 C850 1.350 . S
C845 N853 1.427 . S
C846 H837 0.930 . S
C846 C844 1.378 . S
C846 C847 1.367 . S
C847 C846 1.367 . S
C847 C849 1.433 . S
C848 C844 1.350 . S
C848 C845 1.463 . S
C848 N852 1.427 . S
C849 H839 0.929 . S
C849 C847 1.433 . S
C849 N852 1.384 . S
C850 H841 0.929 . S
C850 C842 1.378 . S
C850 C845 1.350 . S
C851 H838 0.929 . S
C851 C843 1.433 1_554 S
C851 N853 1.384 1_554 S
N852 C848 1.427 . S
N852 C849 1.384 . S
N853 C845 1.427 . S
N853 C851 1.384 1_556 S
H854 C860 0.930 . S
H855 C864 0.930 . S
H856 C869 0.929 . S
H857 C867 0.929 . S
H858 C862 0.929 . S
H859 C868 0.929 . S
C860 H854 0.930 . S
C860 C861 1.367 . S
C860 C868 1.378 . S
C861 C860 1.367 . S
C861 C869 1.433 . S
C862 H858 0.929 . S
C862 C864 1.378 . S
C862 C866 1.350 . S
C863 C866 1.463 . S
C863 C868 1.350 . S
C863 N871 1.427 . S
C864 H855 0.930 . S
C864 C862 1.378 . S
C864 C865 1.367 . S
C865 C864 1.367 . S
C865 C867 1.433 . S
C866 C862 1.350 . S
C866 C863 1.463 . S
C866 N870 1.427 . S
C867 H857 0.929 . S
C867 C865 1.433 . S
C867 N870 1.384 . S
C868 H859 0.929 . S
C868 C860 1.378 . S
C868 C863 1.350 . S
C869 H856 0.929 . S
C869 C861 1.433 . S
C869 N871 1.384 . S
N870 C866 1.427 . S
N870 C867 1.384 . S
N871 C863 1.427 . S
N871 C869 1.384 . S
H872 C878 0.930 . S
H873 C882 0.930 . S
H874 C887 0.929 . S
H875 C885 0.929 . S
H876 C880 0.929 . S
H877 C886 0.929 . S
C878 H872 0.930 . S
C878 C879 1.367 . S
C878 C886 1.378 . S
C879 C878 1.367 . S
C879 C887 1.433 . S
C880 H876 0.929 . S
C880 C882 1.378 . S
C880 C884 1.350 . S
C881 C884 1.463 . S
C881 C886 1.350 . S
C881 N889 1.427 . S
C882 H873 0.930 . S
C882 C880 1.378 . S
C882 C883 1.367 . S
C883 C882 1.367 . S
C883 C885 1.433 . S
C884 C880 1.350 . S
C884 C881 1.463 . S
C884 N888 1.427 . S
C885 H875 0.929 . S
C885 C883 1.433 . S
C885 N888 1.384 . S
C886 H877 0.929 . S
C886 C878 1.378 . S
C886 C881 1.350 . S
C887 H874 0.929 . S
C887 C879 1.433 . S
C887 N889 1.384 . S
N888 C884 1.427 . S
N888 C885 1.384 . S
N889 C881 1.427 . S
N889 C887 1.384 . S
H890 C896 0.930 . S
H891 C900 0.930 . S
H892 C905 0.929 . S
H893 C903 0.929 . S
H894 C898 0.929 . S
H895 C904 0.929 . S
C896 H890 0.930 . S
C896 C897 1.367 . S
C896 C904 1.378 . S
C897 C896 1.367 . S
C897 C905 1.433 . S
C898 H894 0.929 . S
C898 C900 1.378 . S
C898 C902 1.350 . S
C899 C902 1.463 . S
C899 C904 1.350 . S
C899 N907 1.427 . S
C900 H891 0.930 . S
C900 C898 1.378 . S
C900 C901 1.367 . S
C901 C900 1.367 . S
C901 C903 1.433 . S
C902 C898 1.350 . S
C902 C899 1.463 . S
C902 N906 1.427 . S
C903 H893 0.929 . S
C903 C901 1.433 . S
C903 N906 1.384 . S
C904 H895 0.929 . S
C904 C896 1.378 . S
C904 C899 1.350 . S
C905 H892 0.929 . S
C905 C897 1.433 . S
C905 N907 1.384 . S
N906 C902 1.427 . S
N906 C903 1.384 . S
N907 C899 1.427 . S
N907 C905 1.384 . S
H908 C914 0.930 . S
H909 C918 0.930 . S
H910 C923 0.929 . S
H911 C921 0.929 . S
H912 C916 0.929 1_556 S
H913 C922 0.929 . S
C914 H908 0.930 . S
C914 C915 1.367 . S
C914 C922 1.378 . S
C915 C914 1.367 . S
C915 C923 1.433 . S
C916 H912 0.929 1_554 S
C916 C918 1.378 1_554 S
C916 C920 1.350 . S
C917 C920 1.463 . S
C917 C922 1.350 . S
C917 N925 1.427 . S
C918 H909 0.930 . S
C918 C916 1.378 1_556 S
C918 C919 1.367 1_556 S
C919 C918 1.367 1_554 S
C919 C921 1.433 . S
C920 C916 1.350 . S
C920 C917 1.463 . S
C920 N924 1.427 . S
C921 H911 0.929 . S
C921 C919 1.433 . S
C921 N924 1.384 . S
C922 H913 0.929 . S
C922 C914 1.378 . S
C922 C917 1.350 . S
C923 H910 0.929 . S
C923 C915 1.433 . S
C923 N925 1.384 . S
N924 C920 1.427 . S
N924 C921 1.384 . S
N925 C917 1.427 . S
N925 C923 1.384 . S
H926 C932 0.930 . S
H927 C936 0.930 . S
H928 C941 0.929 . S
H929 C939 0.929 . S
H930 C934 0.929 . S
H931 C940 0.929 . S
C932 H926 0.930 . S
C932 C933 1.367 . S
C932 C940 1.378 . S
C933 C932 1.367 . S
C933 C941 1.433 . S
C934 H930 0.929 . S
C934 C936 1.378 . S
C934 C938 1.350 . S
C935 C938 1.463 . S
C935 C940 1.350 . S
C935 N943 1.427 . S
C936 H927 0.930 . S
C936 C934 1.378 . S
C936 C937 1.367 . S
C937 C936 1.367 . S
C937 C939 1.433 . S
C938 C934 1.350 . S
C938 C935 1.463 . S
C938 N942 1.427 . S
C939 H929 0.929 . S
C939 C937 1.433 . S
C939 N942 1.384 . S
C940 H931 0.929 . S
C940 C932 1.378 . S
C940 C935 1.350 . S
C941 H928 0.929 . S
C941 C933 1.433 . S
C941 N943 1.384 . S
N942 C938 1.427 . S
N942 C939 1.384 . S
N943 C935 1.427 . S
N943 C941 1.384 . S
H944 C950 0.930 . S
H945 C954 0.930 . S
H946 C959 0.929 . S
H947 C957 0.929 . S
H948 C952 0.929 . S
H949 C958 0.929 . S
C950 H944 0.930 . S
C950 C951 1.367 . S
C950 C958 1.378 . S
C951 C950 1.367 . S
C951 C959 1.433 . S
C952 H948 0.929 . S
C952 C954 1.378 . S
C952 C956 1.350 . S
C953 C956 1.463 . S
C953 C958 1.350 . S
C953 N961 1.427 . S
C954 H945 0.930 . S
C954 C952 1.378 . S
C954 C955 1.367 . S
C955 C954 1.367 . S
C955 C957 1.433 . S
C956 C952 1.350 . S
C956 C953 1.463 . S
C956 N960 1.427 . S
C957 H947 0.929 . S
C957 C955 1.433 . S
C957 N960 1.384 . S
C958 H949 0.929 . S
C958 C950 1.378 . S
C958 C953 1.350 . S
C959 H946 0.929 . S
C959 C951 1.433 . S
C959 N961 1.384 . S
N960 C956 1.427 . S
N960 C957 1.384 . S
N961 C953 1.427 . S
N961 C959 1.384 . S
H962 C968 0.930 . S
H963 C972 0.930 . S
H964 C977 0.929 . S
H965 C975 0.929 . S
H966 C970 0.929 . S
H967 C976 0.929 . S
C968 H962 0.930 . S
C968 C969 1.367 . S
C968 C976 1.378 . S
C969 C968 1.367 . S
C969 C977 1.433 . S
C970 H966 0.929 . S
C970 C972 1.378 . S
C970 C974 1.350 . S
C971 C974 1.463 . S
C971 C976 1.350 . S
C971 N979 1.427 . S
C972 H963 0.930 . S
C972 C970 1.378 . S
C972 C973 1.367 . S
C973 C972 1.367 . S
C973 C975 1.433 . S
C974 C970 1.350 . S
C974 C971 1.463 . S
C974 N978 1.427 . S
C975 H965 0.929 . S
C975 C973 1.433 . S
C975 N978 1.384 . S
C976 H967 0.929 . S
C976 C968 1.378 . S
C976 C971 1.350 . S
C977 H964 0.929 . S
C977 C969 1.433 . S
C977 N979 1.384 . S
N978 C974 1.427 . S
N978 C975 1.384 . S
N979 C971 1.427 . S
N979 C977 1.384 . S
H980 C986 0.930 . S
H981 C990 0.930 . S
H982 C995 0.929 1_655 S
H983 C993 0.929 . S
H984 C988 0.929 . S
H985 C994 0.929 . S
C986 H980 0.930 . S
C986 C987 1.367 . S
C986 C994 1.378 . S
C987 C986 1.367 . S
C987 C995 1.433 . S
C988 H984 0.929 . S
C988 C990 1.378 . S
C988 C992 1.350 . S
C989 C992 1.463 . S
C989 C994 1.350 . S
C989 N997 1.427 . S
C990 H981 0.930 . S
C990 C988 1.378 . S
C990 C991 1.367 . S
C991 C990 1.367 . S
C991 C993 1.433 . S
C992 C988 1.350 . S
C992 C989 1.463 . S
C992 N996 1.427 . S
C993 H983 0.929 . S
C993 C991 1.433 . S
C993 N996 1.384 . S
C994 H985 0.929 . S
C994 C986 1.378 . S
C994 C989 1.350 . S
C995 H982 0.929 1_455 S
C995 C987 1.433 . S
C995 N997 1.384 . S
N996 C992 1.427 . S
N996 C993 1.384 . S
N997 C989 1.427 . S
N997 C995 1.384 . S
H998 C1004 0.930 . S
H999 C1008 0.930 . S
H1000 C1013 0.929 . S
H1001 C1011 0.929 . S
H1002 C1006 0.929 . S
H1003 C1012 0.929 . S
C1004 H998 0.930 . S
C1004 C1005 1.367 . S
C1004 C1012 1.378 . S
C1005 C1004 1.367 . S
C1005 C1013 1.433 . S
C1006 H1002 0.929 . S
C1006 C1008 1.378 . S
C1006 C1010 1.350 . S
C1007 C1010 1.463 . S
C1007 C1012 1.350 . S
C1007 N1015 1.427 . S
C1008 H999 0.930 . S
C1008 C1006 1.378 . S
C1008 C1009 1.367 . S
C1009 C1008 1.367 . S
C1009 C1011 1.433 . S
C1010 C1006 1.350 . S
C1010 C1007 1.463 . S
C1010 N1014 1.427 . S
C1011 H1001 0.929 . S
C1011 C1009 1.433 . S
C1011 N1014 1.384 . S
C1012 H1003 0.929 . S
C1012 C1004 1.378 . S
C1012 C1007 1.350 . S
C1013 H1000 0.929 . S
C1013 C1005 1.433 . S
C1013 N1015 1.384 . S
N1014 C1010 1.427 . S
N1014 C1011 1.384 . S
N1015 C1007 1.427 . S
N1015 C1013 1.384 . S
H1016 C1022 0.930 . S
H1017 C1026 0.930 . S
H1018 C1031 0.929 . S
H1019 C1029 0.929 . S
H1020 C1024 0.929 . S
H1021 C1030 0.929 . S
C1022 H1016 0.930 . S
C1022 C1023 1.367 . S
C1022 C1030 1.378 . S
C1023 C1022 1.367 . S
C1023 C1031 1.433 . S
C1024 H1020 0.929 . S
C1024 C1026 1.378 . S
C1024 C1028 1.350 . S
C1025 C1028 1.463 . S
C1025 C1030 1.350 . S
C1025 N1033 1.427 . S
C1026 H1017 0.930 . S
C1026 C1024 1.378 . S
C1026 C1027 1.367 . S
C1027 C1026 1.367 . S
C1027 C1029 1.433 . S
C1028 C1024 1.350 . S
C1028 C1025 1.463 . S
C1028 N1032 1.427 . S
C1029 H1019 0.929 . S
C1029 C1027 1.433 . S
C1029 N1032 1.384 . S
C1030 H1021 0.929 . S
C1030 C1022 1.378 . S
C1030 C1025 1.350 . S
C1031 H1018 0.929 . S
C1031 C1023 1.433 . S
C1031 N1033 1.384 . S
N1032 C1028 1.427 . S
N1032 C1029 1.384 . S
N1033 C1025 1.427 . S
N1033 C1031 1.384 . S
H1034 C1040 0.930 . S
H1035 C1044 0.930 1_554 S
H1036 C1049 0.929 . S
H1037 C1047 0.929 . S
H1038 C1042 0.929 . S
H1039 C1048 0.929 . S
C1040 H1034 0.930 . S
C1040 C1041 1.367 . S
C1040 C1048 1.378 . S
C1041 C1040 1.367 . S
C1041 C1049 1.433 . S
C1042 H1038 0.929 . S
C1042 C1044 1.378 . S
C1042 C1046 1.350 . S
C1043 C1046 1.463 . S
C1043 C1048 1.350 . S
C1043 N1051 1.427 . S
C1044 H1035 0.930 1_556 S
C1044 C1042 1.378 . S
C1044 C1045 1.367 . S
C1045 C1044 1.367 . S
C1045 C1047 1.433 . S
C1046 C1042 1.350 . S
C1046 C1043 1.463 . S
C1046 N1050 1.427 . S
C1047 H1037 0.929 . S
C1047 C1045 1.433 . S
C1047 N1050 1.384 . S
C1048 H1039 0.929 . S
C1048 C1040 1.378 . S
C1048 C1043 1.350 . S
C1049 H1036 0.929 . S
C1049 C1041 1.433 . S
C1049 N1051 1.384 . S
N1050 C1046 1.427 . S
N1050 C1047 1.384 . S
N1051 C1043 1.427 . S
N1051 C1049 1.384 . S
H1052 C1058 0.930 . S
H1053 C1062 0.930 . S
H1054 C1067 0.929 . S
H1055 C1065 0.929 . S
H1056 C1060 0.929 . S
H1057 C1066 0.929 . S
C1058 H1052 0.930 . S
C1058 C1059 1.367 . S
C1058 C1066 1.378 . S
C1059 C1058 1.367 . S
C1059 C1067 1.433 1_655 S
C1060 H1056 0.929 . S
C1060 C1062 1.378 . S
C1060 C1064 1.350 . S
C1061 C1064 1.463 . S
C1061 C1066 1.350 . S
C1061 N1069 1.427 . S
C1062 H1053 0.930 . S
C1062 C1060 1.378 . S
C1062 C1063 1.367 . S
C1063 C1062 1.367 . S
C1063 C1065 1.433 . S
C1064 C1060 1.350 . S
C1064 C1061 1.463 . S
C1064 N1068 1.427 . S
C1065 H1055 0.929 . S
C1065 C1063 1.433 . S
C1065 N1068 1.384 . S
C1066 H1057 0.929 . S
C1066 C1058 1.378 . S
C1066 C1061 1.350 . S
C1067 H1054 0.929 . S
C1067 C1059 1.433 1_455 S
C1067 N1069 1.384 1_455 S
N1068 C1064 1.427 . S
N1068 C1065 1.384 . S
N1069 C1061 1.427 . S
N1069 C1067 1.384 1_655 S
H1070 C1076 0.930 . S
H1071 C1080 0.930 . S
H1072 C1085 0.929 . S
H1073 C1083 0.929 . S
H1074 C1078 0.929 . S
H1075 C1084 0.929 . S
C1076 H1070 0.930 . S
C1076 C1077 1.367 . S
C1076 C1084 1.378 . S
C1077 C1076 1.367 . S
C1077 C1085 1.433 . S
C1078 H1074 0.929 . S
C1078 C1080 1.378 . S
C1078 C1082 1.350 . S
C1079 C1082 1.463 . S
C1079 C1084 1.350 . S
C1079 N1087 1.427 . S
C1080 H1071 0.930 . S
C1080 C1078 1.378 . S
C1080 C1081 1.367 . S
C1081 C1080 1.367 . S
C1081 C1083 1.433 . S
C1082 C1078 1.350 . S
C1082 C1079 1.463 . S
C1082 N1086 1.427 . S
C1083 H1073 0.929 . S
C1083 C1081 1.433 . S
C1083 N1086 1.384 . S
C1084 H1075 0.929 . S
C1084 C1076 1.378 . S
C1084 C1079 1.350 . S
C1085 H1072 0.929 . S
C1085 C1077 1.433 . S
C1085 N1087 1.384 . S
N1086 C1082 1.427 . S
N1086 C1083 1.384 . S
N1087 C1079 1.427 . S
N1087 C1085 1.384 . S
H1088 C1094 0.930 . S
H1089 C1098 0.930 . S
H1090 C1103 0.929 . S
H1091 C1101 0.929 . S
H1092 C1096 0.929 . S
H1093 C1102 0.929 . S
C1094 H1088 0.930 . S
C1094 C1095 1.367 . S
C1094 C1102 1.378 . S
C1095 C1094 1.367 . S
C1095 C1103 1.433 . S
C1096 H1092 0.929 . S
C1096 C1098 1.378 . S
C1096 C1100 1.350 . S
C1097 C1100 1.463 . S
C1097 C1102 1.350 . S
C1097 N1105 1.427 . S
C1098 H1089 0.930 . S
C1098 C1096 1.378 . S
C1098 C1099 1.367 . S
C1099 C1098 1.367 . S
C1099 C1101 1.433 1_655 S
C1100 C1096 1.350 . S
C1100 C1097 1.463 . S
C1100 N1104 1.427 . S
C1101 H1091 0.929 . S
C1101 C1099 1.433 1_455 S
C1101 N1104 1.384 1_455 S
C1102 H1093 0.929 . S
C1102 C1094 1.378 . S
C1102 C1097 1.350 . S
C1103 H1090 0.929 . S
C1103 C1095 1.433 . S
C1103 N1105 1.384 . S
N1104 C1100 1.427 . S
N1104 C1101 1.384 1_655 S
N1105 C1097 1.427 . S
N1105 C1103 1.384 . S
H1106 C1112 0.930 . S
H1107 C1116 0.930 . S
H1108 C1121 0.929 . S
H1109 C1119 0.929 . S
H1110 C1114 0.929 . S
H1111 C1120 0.929 . S
C1112 H1106 0.930 . S
C1112 C1113 1.367 . S
C1112 C1120 1.378 . S
C1113 C1112 1.367 . S
C1113 C1121 1.433 . S
C1114 H1110 0.929 . S
C1114 C1116 1.378 . S
C1114 C1118 1.350 . S
C1115 C1118 1.463 . S
C1115 C1120 1.350 . S
C1115 N1123 1.427 . S
C1116 H1107 0.930 . S
C1116 C1114 1.378 . S
C1116 C1117 1.367 . S
C1117 C1116 1.367 . S
C1117 C1119 1.433 . S
C1118 C1114 1.350 . S
C1118 C1115 1.463 . S
C1118 N1122 1.427 . S
C1119 H1109 0.929 . S
C1119 C1117 1.433 . S
C1119 N1122 1.384 . S
C1120 H1111 0.929 . S
C1120 C1112 1.378 . S
C1120 C1115 1.350 . S
C1121 H1108 0.929 . S
C1121 C1113 1.433 . S
C1121 N1123 1.384 . S
N1122 C1118 1.427 . S
N1122 C1119 1.384 . S
N1123 C1115 1.427 . S
N1123 C1121 1.384 . S
H1124 C1130 0.930 . S
H1125 C1134 0.930 . S
H1126 C1139 0.929 . S
H1127 C1137 0.929 . S
H1128 C1132 0.929 . S
H1129 C1138 0.929 . S
C1130 H1124 0.930 . S
C1130 C1131 1.367 . S
C1130 C1138 1.378 . S
C1131 C1130 1.367 . S
C1131 C1139 1.433 . S
C1132 H1128 0.929 . S
C1132 C1134 1.378 . S
C1132 C1136 1.350 . S
C1133 C1136 1.463 . S
C1133 C1138 1.350 . S
C1133 N1141 1.427 . S
C1134 H1125 0.930 . S
C1134 C1132 1.378 . S
C1134 C1135 1.367 . S
C1135 C1134 1.367 . S
C1135 C1137 1.433 . S
C1136 C1132 1.350 . S
C1136 C1133 1.463 . S
C1136 N1140 1.427 . S
C1137 H1127 0.929 . S
C1137 C1135 1.433 . S
C1137 N1140 1.384 . S
C1138 H1129 0.929 . S
C1138 C1130 1.378 . S
C1138 C1133 1.350 . S
C1139 H1126 0.929 . S
C1139 C1131 1.433 . S
C1139 N1141 1.384 . S
N1140 C1136 1.427 . S
N1140 C1137 1.384 . S
N1141 C1133 1.427 . S
N1141 C1139 1.384 . S
H1142 C1148 0.930 1_556 S
H1143 C1152 0.930 . S
H1144 C1157 0.929 . S
H1145 C1155 0.929 . S
H1146 C1150 0.929 . S
H1147 C1156 0.929 . S
C1148 H1142 0.930 1_554 S
C1148 C1149 1.367 . S
C1148 C1156 1.378 . S
C1149 C1148 1.367 . S
C1149 C1157 1.433 . S
C1150 H1146 0.929 . S
C1150 C1152 1.378 . S
C1150 C1154 1.350 . S
C1151 C1154 1.463 . S
C1151 C1156 1.350 . S
C1151 N1159 1.427 . S
C1152 H1143 0.930 . S
C1152 C1150 1.378 . S
C1152 C1153 1.367 . S
C1153 C1152 1.367 . S
C1153 C1155 1.433 . S
C1154 C1150 1.350 . S
C1154 C1151 1.463 . S
C1154 N1158 1.427 . S
C1155 H1145 0.929 . S
C1155 C1153 1.433 . S
C1155 N1158 1.384 . S
C1156 H1147 0.929 . S
C1156 C1148 1.378 . S
C1156 C1151 1.350 . S
C1157 H1144 0.929 . S
C1157 C1149 1.433 . S
C1157 N1159 1.384 . S
N1158 C1154 1.427 . S
N1158 C1155 1.384 . S
N1159 C1151 1.427 . S
N1159 C1157 1.384 . S
H1160 C1166 0.930 . S
H1161 C1170 0.930 . S
H1162 C1175 0.929 . S
H1163 C1173 0.929 1_655 S
H1164 C1168 0.929 . S
H1165 C1174 0.929 . S
C1166 H1160 0.930 . S
C1166 C1167 1.367 . S
C1166 C1174 1.378 . S
C1167 C1166 1.367 . S
C1167 C1175 1.433 . S
C1168 H1164 0.929 . S
C1168 C1170 1.378 . S
C1168 C1172 1.350 . S
C1169 C1172 1.463 . S
C1169 C1174 1.350 . S
C1169 N1177 1.427 . S
C1170 H1161 0.930 . S
C1170 C1168 1.378 . S
C1170 C1171 1.367 . S
C1171 C1170 1.367 . S
C1171 C1173 1.433 . S
C1172 C1168 1.350 . S
C1172 C1169 1.463 . S
C1172 N1176 1.427 . S
C1173 H1163 0.929 1_455 S
C1173 C1171 1.433 . S
C1173 N1176 1.384 . S
C1174 H1165 0.929 . S
C1174 C1166 1.378 . S
C1174 C1169 1.350 . S
C1175 H1162 0.929 . S
C1175 C1167 1.433 . S
C1175 N1177 1.384 . S
N1176 C1172 1.427 . S
N1176 C1173 1.384 . S
N1177 C1169 1.427 . S
N1177 C1175 1.384 . S
H1178 C1184 0.930 . S
H1179 C1188 0.930 . S
H1180 C1193 0.929 . S
H1181 C1191 0.929 . S
H1182 C1186 0.929 . S
H1183 C1192 0.929 . S
C1184 H1178 0.930 . S
C1184 C1185 1.367 . S
C1184 C1192 1.378 . S
C1185 C1184 1.367 . S
C1185 C1193 1.433 . S
C1186 H1182 0.929 . S
C1186 C1188 1.378 . S
C1186 C1190 1.350 . S
C1187 C1190 1.463 . S
C1187 C1192 1.350 . S
C1187 N1195 1.427 . S
C1188 H1179 0.930 . S
C1188 C1186 1.378 . S
C1188 C1189 1.367 . S
C1189 C1188 1.367 . S
C1189 C1191 1.433 . S
C1190 C1186 1.350 . S
C1190 C1187 1.463 . S
C1190 N1194 1.427 . S
C1191 H1181 0.929 . S
C1191 C1189 1.433 . S
C1191 N1194 1.384 . S
C1192 H1183 0.929 . S
C1192 C1184 1.378 . S
C1192 C1187 1.350 . S
C1193 H1180 0.929 . S
C1193 C1185 1.433 . S
C1193 N1195 1.384 . S
N1194 C1190 1.427 . S
N1194 C1191 1.384 . S
N1195 C1187 1.427 . S
N1195 C1193 1.384 . S
H1196 C1202 0.930 . S
H1197 C1206 0.930 . S
H1198 C1211 0.929 . S
H1199 C1209 0.929 . S
H1200 C1204 0.929 . S
H1201 C1210 0.929 . S
C1202 H1196 0.930 . S
C1202 C1203 1.367 . S
C1202 C1210 1.378 . S
C1203 C1202 1.367 . S
C1203 C1211 1.433 . S
C1204 H1200 0.929 . S
C1204 C1206 1.378 . S
C1204 C1208 1.350 . S
C1205 C1208 1.463 . S
C1205 C1210 1.350 . S
C1205 N1213 1.427 . S
C1206 H1197 0.930 . S
C1206 C1204 1.378 . S
C1206 C1207 1.367 . S
C1207 C1206 1.367 . S
C1207 C1209 1.433 . S
C1208 C1204 1.350 . S
C1208 C1205 1.463 . S
C1208 N1212 1.427 . S
C1209 H1199 0.929 . S
C1209 C1207 1.433 . S
C1209 N1212 1.384 . S
C1210 H1201 0.929 . S
C1210 C1202 1.378 . S
C1210 C1205 1.350 . S
C1211 H1198 0.929 . S
C1211 C1203 1.433 . S
C1211 N1213 1.384 . S
N1212 C1208 1.427 . S
N1212 C1209 1.384 . S
N1213 C1205 1.427 . S
N1213 C1211 1.384 . S
H1214 C1220 0.930 . S
H1215 C1224 0.930 . S
H1216 C1229 0.929 1_554 S
H1217 C1227 0.929 . S
H1218 C1222 0.929 . S
H1219 C1228 0.929 . S
C1220 H1214 0.930 . S
C1220 C1221 1.367 . S
C1220 C1228 1.378 . S
C1221 C1220 1.367 . S
C1221 C1229 1.433 . S
C1222 H1218 0.929 . S
C1222 C1224 1.378 . S
C1222 C1226 1.350 . S
C1223 C1226 1.463 . S
C1223 C1228 1.350 . S
C1223 N1231 1.427 . S
C1224 H1215 0.930 . S
C1224 C1222 1.378 . S
C1224 C1225 1.367 . S
C1225 C1224 1.367 . S
C1225 C1227 1.433 . S
C1226 C1222 1.350 . S
C1226 C1223 1.463 . S
C1226 N1230 1.427 . S
C1227 H1217 0.929 . S
C1227 C1225 1.433 . S
C1227 N1230 1.384 . S
C1228 H1219 0.929 . S
C1228 C1220 1.378 . S
C1228 C1223 1.350 . S
C1229 H1216 0.929 1_556 S
C1229 C1221 1.433 . S
C1229 N1231 1.384 . S
N1230 C1226 1.427 . S
N1230 C1227 1.384 . S
N1231 C1223 1.427 . S
N1231 C1229 1.384 . S
H1232 C1238 0.930 . S
H1233 C1242 0.930 . S
H1234 C1247 0.929 . S
H1235 C1245 0.929 . S
H1236 C1240 0.929 . S
H1237 C1246 0.929 . S
C1238 H1232 0.930 . S
C1238 C1239 1.367 . S
C1238 C1246 1.378 . S
C1239 C1238 1.367 . S
C1239 C1247 1.433 . S
C1240 H1236 0.929 . S
C1240 C1242 1.378 . S
C1240 C1244 1.350 . S
C1241 C1244 1.463 . S
C1241 C1246 1.350 . S
C1241 N1249 1.427 . S
C1242 H1233 0.930 . S
C1242 C1240 1.378 . S
C1242 C1243 1.367 . S
C1243 C1242 1.367 . S
C1243 C1245 1.433 . S
C1244 C1240 1.350 . S
C1244 C1241 1.463 . S
C1244 N1248 1.427 . S
C1245 H1235 0.929 . S
C1245 C1243 1.433 . S
C1245 N1248 1.384 . S
C1246 H1237 0.929 . S
C1246 C1238 1.378 . S
C1246 C1241 1.350 . S
C1247 H1234 0.929 . S
C1247 C1239 1.433 . S
C1247 N1249 1.384 . S
N1248 C1244 1.427 . S
N1248 C1245 1.384 . S
N1249 C1241 1.427 . S
N1249 C1247 1.384 . S
H1250 C1256 0.930 . S
H1251 C1260 0.930 . S
H1252 C1265 0.929 . S
H1253 C1263 0.929 . S
H1254 C1258 0.929 . S
H1255 C1264 0.929 . S
C1256 H1250 0.930 . S
C1256 C1257 1.367 . S
C1256 C1264 1.378 . S
C1257 C1256 1.367 . S
C1257 C1265 1.433 . S
C1258 H1254 0.929 . S
C1258 C1260 1.378 . S
C1258 C1262 1.350 . S
C1259 C1262 1.463 . S
C1259 C1264 1.350 . S
C1259 N1267 1.427 . S
C1260 H1251 0.930 . S
C1260 C1258 1.378 . S
C1260 C1261 1.367 . S
C1261 C1260 1.367 . S
C1261 C1263 1.433 . S
C1262 C1258 1.350 . S
C1262 C1259 1.463 . S
C1262 N1266 1.427 . S
C1263 H1253 0.929 . S
C1263 C1261 1.433 . S
C1263 N1266 1.384 . S
C1264 H1255 0.929 . S
C1264 C1256 1.378 . S
C1264 C1259 1.350 . S
C1265 H1252 0.929 . S
C1265 C1257 1.433 . S
C1265 N1267 1.384 . S
N1266 C1262 1.427 . S
N1266 C1263 1.384 . S
N1267 C1259 1.427 . S
N1267 C1265 1.384 . S
H1268 C1274 0.930 . S
H1269 C1278 0.930 . S
H1270 C1283 0.929 . S
H1271 C1281 0.929 . S
H1272 C1276 0.929 . S
H1273 C1282 0.929 . S
C1274 H1268 0.930 . S
C1274 C1275 1.367 . S
C1274 C1282 1.378 . S
C1275 C1274 1.367 . S
C1275 C1283 1.433 . S
C1276 H1272 0.929 . S
C1276 C1278 1.378 . S
C1276 C1280 1.350 . S
C1277 C1280 1.463 . S
C1277 C1282 1.350 . S
C1277 N1285 1.427 . S
C1278 H1269 0.930 . S
C1278 C1276 1.378 . S
C1278 C1279 1.367 . S
C1279 C1278 1.367 . S
C1279 C1281 1.433 . S
C1280 C1276 1.350 . S
C1280 C1277 1.463 . S
C1280 N1284 1.427 . S
C1281 H1271 0.929 . S
C1281 C1279 1.433 . S
C1281 N1284 1.384 . S
C1282 H1273 0.929 . S
C1282 C1274 1.378 . S
C1282 C1277 1.350 . S
C1283 H1270 0.929 . S
C1283 C1275 1.433 . S
C1283 N1285 1.384 . S
N1284 C1280 1.427 . S
N1284 C1281 1.384 . S
N1285 C1277 1.427 . S
N1285 C1283 1.384 . S
H1286 C1292 0.930 . S
H1287 C1296 0.930 . S
H1288 C1301 0.929 . S
H1289 C1299 0.929 . S
H1290 C1294 0.933 . S
H1291 C1300 0.933 . S
C1292 H1286 0.930 . S
C1292 C1293 1.367 . S
C1292 C1300 1.375 1_455 S
C1293 C1292 1.367 . S
C1293 C1301 1.433 . S
C1294 H1290 0.933 . S
C1294 C1296 1.375 1_455 S
C1294 C1298 1.348 1_455 S
C1295 C1298 1.463 1_454 S
C1295 C1300 1.348 1_455 S
C1295 N1303 1.423 1_554 S
C1296 H1287 0.930 . S
C1296 C1294 1.375 1_655 S
C1296 C1297 1.367 . S
C1297 C1296 1.367 . S
C1297 C1299 1.433 . S
C1298 C1294 1.348 1_655 S
C1298 C1295 1.463 1_656 S
C1298 N1302 1.423 1_556 S
C1299 H1289 0.929 . S
C1299 C1297 1.433 . S
C1299 N1302 1.376 1_556 S
C1300 H1291 0.933 . S
C1300 C1292 1.375 1_655 S
C1300 C1295 1.348 1_655 S
C1301 H1288 0.929 . S
C1301 C1293 1.433 . S
C1301 N1303 1.376 1_554 S
N1302 C1298 1.423 1_554 S
N1302 C1299 1.376 1_554 S
N1303 C1295 1.423 1_556 S
N1303 C1301 1.376 1_556 S
H1304 C1310 0.930 . S
H1305 C1314 0.930 . S
H1306 C1319 0.929 . S
H1307 C1317 0.929 . S
H1308 C1312 0.929 . S
H1309 C1318 0.929 . S
C1310 H1304 0.930 . S
C1310 C1311 1.367 . S
C1310 C1318 1.378 . S
C1311 C1310 1.367 . S
C1311 C1319 1.433 . S
C1312 H1308 0.929 . S
C1312 C1314 1.378 . S
C1312 C1316 1.350 . S
C1313 C1316 1.463 . S
C1313 C1318 1.350 . S
C1313 N1321 1.427 . S
C1314 H1305 0.930 . S
C1314 C1312 1.378 . S
C1314 C1315 1.367 . S
C1315 C1314 1.367 . S
C1315 C1317 1.433 . S
C1316 C1312 1.350 . S
C1316 C1313 1.463 . S
C1316 N1320 1.427 . S
C1317 H1307 0.929 . S
C1317 C1315 1.433 . S
C1317 N1320 1.384 . S
C1318 H1309 0.929 . S
C1318 C1310 1.378 . S
C1318 C1313 1.350 . S
C1319 H1306 0.929 . S
C1319 C1311 1.433 . S
C1319 N1321 1.384 . S
N1320 C1316 1.427 . S
N1320 C1317 1.384 . S
N1321 C1313 1.427 . S
N1321 C1319 1.384 . S
H1322 C1328 0.930 . S
H1323 C1332 0.930 . S
H1324 C1337 0.929 . S
H1325 C1335 0.929 . S
H1326 C1330 0.929 . S
H1327 C1336 0.929 . S
C1328 H1322 0.930 . S
C1328 C1329 1.367 . S
C1328 C1336 1.378 . S
C1329 C1328 1.367 . S
C1329 C1337 1.433 . S
C1330 H1326 0.929 . S
C1330 C1332 1.378 . S
C1330 C1334 1.350 . S
C1331 C1334 1.463 . S
C1331 C1336 1.350 . S
C1331 N1339 1.427 . S
C1332 H1323 0.930 . S
C1332 C1330 1.378 . S
C1332 C1333 1.367 . S
C1333 C1332 1.367 . S
C1333 C1335 1.433 . S
C1334 C1330 1.350 . S
C1334 C1331 1.463 . S
C1334 N1338 1.427 . S
C1335 H1325 0.929 . S
C1335 C1333 1.433 . S
C1335 N1338 1.384 . S
C1336 H1327 0.929 . S
C1336 C1328 1.378 . S
C1336 C1331 1.350 . S
C1337 H1324 0.929 . S
C1337 C1329 1.433 . S
C1337 N1339 1.384 . S
N1338 C1334 1.427 . S
N1338 C1335 1.384 . S
N1339 C1331 1.427 . S
N1339 C1337 1.384 . S
H1340 C1346 0.930 . S
H1341 C1350 0.930 . S
H1342 C1355 0.929 . S
H1343 C1353 0.929 . S
H1344 C1348 0.929 1_456 S
H1345 C1354 0.929 1_654 S
C1346 H1340 0.930 . S
C1346 C1347 1.367 . S
C1346 C1354 1.378 . S
C1347 C1346 1.367 . S
C1347 C1355 1.433 . S
C1348 H1344 0.929 1_654 S
C1348 C1350 1.378 . S
C1348 C1352 1.350 . S
C1349 C1352 1.463 1_446 S
C1349 C1354 1.350 . S
C1349 N1357 1.427 1_545 S
C1350 H1341 0.930 . S
C1350 C1348 1.378 . S
C1350 C1351 1.367 . S
C1351 C1350 1.367 . S
C1351 C1353 1.433 . S
C1352 C1348 1.350 . S
C1352 C1349 1.463 1_664 S
C1352 N1356 1.427 1_565 S
C1353 H1343 0.929 . S
C1353 C1351 1.433 . S
C1353 N1356 1.384 1_565 S
C1354 H1345 0.929 1_456 S
C1354 C1346 1.378 . S
C1354 C1349 1.350 . S
C1355 H1342 0.929 . S
C1355 C1347 1.433 . S
C1355 N1357 1.384 1_545 S
N1356 C1352 1.427 1_545 S
N1356 C1353 1.384 1_545 S
N1357 C1349 1.427 1_565 S
N1357 C1355 1.384 1_565 S
H1358 C1364 0.930 . S
H1359 C1368 0.930 . S
H1360 C1373 0.929 . S
H1361 C1371 0.929 . S
H1362 C1366 0.929 . S
H1363 C1372 0.929 . S
C1364 H1358 0.930 . S
C1364 C1365 1.367 . S
C1364 C1372 1.378 . S
C1365 C1364 1.367 . S
C1365 C1373 1.433 . S
C1366 H1362 0.929 . S
C1366 C1368 1.378 . S
C1366 C1370 1.350 . S
C1367 C1370 1.463 1_545 S
C1367 C1372 1.350 . S
C1367 N1375 1.427 . S
C1368 H1359 0.930 . S
C1368 C1366 1.378 . S
C1368 C1369 1.367 . S
C1369 C1368 1.367 . S
C1369 C1371 1.433 . S
C1370 C1366 1.350 . S
C1370 C1367 1.463 1_565 S
C1370 N1374 1.427 . S
C1371 H1361 0.929 . S
C1371 C1369 1.433 . S
C1371 N1374 1.384 . S
C1372 H1363 0.929 . S
C1372 C1364 1.378 . S
C1372 C1367 1.350 . S
C1373 H1360 0.929 . S
C1373 C1365 1.433 . S
C1373 N1375 1.384 . S
N1374 C1370 1.427 . S
N1374 C1371 1.384 . S
N1375 C1367 1.427 . S
N1375 C1373 1.384 . S
C519 N13 0.296 . S
C523 N338 0.282 . S
C537 N50 0.280 . S
C541 N370 0.292 . S
C555 N82 0.317 . S
C559 N269 0.303 . S
C573 N114 0.319 . S
C577 N306 0.306 . S
C591 N146 0.296 . S
C595 N461 0.282 . S
C609 N178 0.296 . S
C613 N498 0.282 . S
C627 N210 0.286 . S
C631 N402 0.301 . S
C645 N242 0.310 . S
C649 N434 0.322 . S
C663 C317 1.046 . S
C667 N18 1.037 . S
C681 C349 1.029 . S
C685 N45 1.055 . S
C699 C381 1.049 . S
C703 N77 1.037 . S
C717 C260 1.043 . S
C721 N109 1.053 . S
C735 N141 1.041 . S
C739 C445 1.051 . S
C753 C452 1.033 . S
C757 N173 1.058 . S
C771 C509 1.037 . S
C775 N205 1.057 . S
C789 C413 1.043 . S
C793 N237 1.038 . S
C807 C61 1.051 . S
C811 N274 1.044 . S
C825 N301 1.018 1_565 S
C829 C93 1.045 . S
C843 N333 1.038 . S
C847 C125 1.045 . S
C861 N365 1.022 1_545 S
C865 C4 1.029 . S
C879 N397 1.051 . S
C883 C189 1.046 . S
C897 C221 1.037 . S
C901 N429 1.008 1_545 S
C915 C253 1.030 . S
C919 N466 1.057 . S
C933 N493 1.024 1_565 S
C937 C157 1.031 . S
C951 C29 1.924 . S
C955 C482 1.921 . S
C969 C36 1.922 . S
C973 C130 1.918 . S
C987 C418 1.923 1_455 S
C991 C68 1.920 . S
C1005 C194 1.921 . S
C1009 C100 1.918 . S
C1023 C132 1.917 . S
C1027 C354 1.919 . S
C1041 C164 1.917 . S
C1045 C6 1.920 . S
C1059 C290 1.923 1_655 S
C1063 C196 1.920 . S
C1077 C66 1.923 . S
C1081 C228 1.924 . S
C1095 C285 1.919 . S
C1099 C226 1.922 1_655 S
C1113 C292 1.924 . S
C1117 C386 1.922 . S
C1131 C162 1.923 . S
C1135 C324 1.923 . S
C1149 C454 1.920 . S
C1153 C356 1.917 . S
C1167 C388 1.917 . S
C1171 C98 1.917 1_455 S
C1185 C420 1.919 . S
C1189 C262 1.916 . S
C1203 C477 1.924 . S
C1207 C34 1.922 . S
C1221 C322 1.923 . S
C1225 C484 1.923 . S
C1239 C2 2.355 . S
C1243 C390 2.355 . S
C1257 C38 2.355 . S
C1261 C166 2.355 . S
C1275 C70 2.356 . S
C1279 C450 2.356 . S
C1293 C230 2.353 . S
C1297 C102 2.353 . S
C1311 C134 2.356 . S
C1315 C258 2.356 . S
C1329 C326 2.353 . S
C1333 C198 2.353 . S
C1347 C294 2.356 . S
C1351 C422 2.356 . S
C1365 C486 2.357 . S
C1369 C358 2.357 . S
