# Generated by pormake.
# Topology neb, (4)-cn, num edge types: 1
# Building blocks:
#     Node 0, Type 0, BuildingBlock: UXUYUI_clean_sbu_0, # of connection points: 4
#     Node 1, Type 0, BuildingBlock: UXUYUI_clean_sbu_0, # of connection points: 4
#     Node 2, Type 0, BuildingBlock: UXUYUI_clean_sbu_0, # of connection points: 4
#     Node 3, Type 0, BuildingBlock: UXUYUI_clean_sbu_0, # of connection points: 4
#     Node 4, Type 0, BuildingBlock: UXUYUI_clean_sbu_0, # of connection points: 4
#     Node 5, Type 0, BuildingBlock: UXUYUI_clean_sbu_0, # of connection points: 4
#     Node 6, Type 0, BuildingBlock: UXUYUI_clean_sbu_0, # of connection points: 4
#     Node 7, Type 0, BuildingBlock: UXUYUI_clean_sbu_0, # of connection points: 4
#     Node 8, Type 0, BuildingBlock: UXUYUI_clean_sbu_0, # of connection points: 4
#     Node 9, Type 0, BuildingBlock: UXUYUI_clean_sbu_0, # of connection points: 4
#     Node 10, Type 0, BuildingBlock: UXUYUI_clean_sbu_0, # of connection points: 4
#     Node 11, Type 0, BuildingBlock: UXUYUI_clean_sbu_0, # of connection points: 4
#     Node 12, Type 0, BuildingBlock: UXUYUI_clean_sbu_0, # of connection points: 4
#     Node 13, Type 0, BuildingBlock: UXUYUI_clean_sbu_0, # of connection points: 4
#     Node 14, Type 0, BuildingBlock: UXUYUI_clean_sbu_0, # of connection points: 4
#     Node 15, Type 0, BuildingBlock: UXUYUI_clean_sbu_0, # of connection points: 4
#     Edge 16, Type (0, 0), BuildingBlock: TEMPAE_clean_linker_10, # of connection points: 2
#     Edge 17, Type (0, 0), BuildingBlock: TEMPAE_clean_linker_10, # of connection points: 2
#     Edge 18, Type (0, 0), BuildingBlock: TEMPAE_clean_linker_10, # of connection points: 2
#     Edge 19, Type (0, 0), BuildingBlock: TEMPAE_clean_linker_10, # of connection points: 2
#     Edge 20, Type (0, 0), BuildingBlock: TEMPAE_clean_linker_10, # of connection points: 2
#     Edge 21, Type (0, 0), BuildingBlock: TEMPAE_clean_linker_10, # of connection points: 2
#     Edge 22, Type (0, 0), BuildingBlock: TEMPAE_clean_linker_10, # of connection points: 2
#     Edge 23, Type (0, 0), BuildingBlock: TEMPAE_clean_linker_10, # of connection points: 2
#     Edge 24, Type (0, 0), BuildingBlock: TEMPAE_clean_linker_10, # of connection points: 2
#     Edge 25, Type (0, 0), BuildingBlock: TEMPAE_clean_linker_10, # of connection points: 2
#     Edge 26, Type (0, 0), BuildingBlock: TEMPAE_clean_linker_10, # of connection points: 2
#     Edge 27, Type (0, 0), BuildingBlock: TEMPAE_clean_linker_10, # of connection points: 2
#     Edge 28, Type (0, 0), BuildingBlock: TEMPAE_clean_linker_10, # of connection points: 2
#     Edge 29, Type (0, 0), BuildingBlock: TEMPAE_clean_linker_10, # of connection points: 2
#     Edge 30, Type (0, 0), BuildingBlock: TEMPAE_clean_linker_10, # of connection points: 2
#     Edge 31, Type (0, 0), BuildingBlock: TEMPAE_clean_linker_10, # of connection points: 2
#     Edge 32, Type (0, 0), BuildingBlock: TEMPAE_clean_linker_10, # of connection points: 2
#     Edge 33, Type (0, 0), BuildingBlock: TEMPAE_clean_linker_10, # of connection points: 2
#     Edge 34, Type (0, 0), BuildingBlock: TEMPAE_clean_linker_10, # of connection points: 2
#     Edge 35, Type (0, 0), BuildingBlock: TEMPAE_clean_linker_10, # of connection points: 2
#     Edge 36, Type (0, 0), BuildingBlock: TEMPAE_clean_linker_10, # of connection points: 2
#     Edge 37, Type (0, 0), BuildingBlock: TEMPAE_clean_linker_10, # of connection points: 2
#     Edge 38, Type (0, 0), BuildingBlock: TEMPAE_clean_linker_10, # of connection points: 2
#     Edge 39, Type (0, 0), BuildingBlock: TEMPAE_clean_linker_10, # of connection points: 2
#     Edge 40, Type (0, 0), BuildingBlock: TEMPAE_clean_linker_10, # of connection points: 2
#     Edge 41, Type (0, 0), BuildingBlock: TEMPAE_clean_linker_10, # of connection points: 2
#     Edge 42, Type (0, 0), BuildingBlock: TEMPAE_clean_linker_10, # of connection points: 2
#     Edge 43, Type (0, 0), BuildingBlock: TEMPAE_clean_linker_10, # of connection points: 2
#     Edge 44, Type (0, 0), BuildingBlock: TEMPAE_clean_linker_10, # of connection points: 2
#     Edge 45, Type (0, 0), BuildingBlock: TEMPAE_clean_linker_10, # of connection points: 2
#     Edge 46, Type (0, 0), BuildingBlock: TEMPAE_clean_linker_10, # of connection points: 2
#     Edge 47, Type (0, 0), BuildingBlock: TEMPAE_clean_linker_10, # of connection points: 2
# Relax obj value: 0.156
# Max RMSD: 0.184
# Mean RMSD: 0.183
data_MOF--net-neb--node1-UXUYUI_clean_sbu_0--edge1-TEMPAE_clean_linker_10
_symmetry_space_group_name_H-M    P1
_symmetry_Int_Tables_number       1
_symmetry_cell_setting            triclinic
loop_
_symmetry_equiv_pos_as_xyz
'x, y, z'
_cell_length_a     67.750773
_cell_length_b     32.075001
_cell_length_c     108.86201
_cell_angle_alpha  89.998885
_cell_angle_beta   90.010654
_cell_angle_gamma 90.001751
loop_
_atom_site_label
_atom_site_type_symbol
_atom_site_fract_x
_atom_site_fract_y
_atom_site_fract_z
_atom_type_partial_charge
Li0 Li 0.10744 0.1064 0.44926 0.0
Li1 Li 0.14069 0.13526 0.44932 0.0
Li2 Li 0.11825 0.15366 0.4331 0.0
Li3 Li 0.13226 0.0834 0.43479 0.0
C4 C 0.11242 0.18009 0.46256 0.0
N5 N 0.10701 0.20722 0.48642 0.0
C6 C 0.11718 0.15403 0.47243 0.0
C7 C 0.10494 0.21994 0.46484 0.0
C8 C 0.11433 0.16833 0.48442 0.0
C9 C 0.1023 0.23308 0.47697 0.0
C10 C 0.14181 0.03972 0.4547 0.0
C11 C 0.16926 0.99343 0.45102 0.0
N12 N 0.16023 0.96354 0.45787 0.0
C13 C 0.13294 0.00873 0.46185 0.0
C14 C 0.16025 0.0322 0.44939 0.0
C15 C 0.14244 0.97037 0.46329 0.0
C16 C 0.08167 0.04604 0.45827 0.0
N17 N 0.08489 0.08784 0.4581 0.0
C18 C 0.05558 0.09979 0.4698 0.0
C19 C 0.07207 0.11484 0.46351 0.0
C20 C 0.05236 0.05663 0.47052 0.0
C21 C 0.06556 0.0296 0.4646 0.0
H22 H 0.0916 0.02549 0.4534 0.0
H23 H 0.07452 0.14804 0.46288 0.0
C24 C 0.16165 0.1995 0.46124 0.0
N25 N 0.1613 0.15763 0.45929 0.0
C26 C 0.17685 0.2175 0.46807 0.0
C27 C 0.19111 0.14901 0.47073 0.0
C28 C 0.17553 0.13228 0.46394 0.0
C29 C 0.19189 0.19215 0.47284 0.0
H30 H 0.15026 0.21901 0.45732 0.0
H31 H 0.17491 0.09916 0.46232 0.0
C32 C 0.08526 0.10408 0.42813 0.0
N33 N 0.04608 0.11326 0.42164 0.0
C34 C 0.07612 0.0744 0.42066 0.0
C35 C 0.07449 0.13842 0.43232 0.0
C36 C 0.0563 0.0796 0.41747 0.0
C37 C 0.05469 0.1425 0.42894 0.0
C38 C 0.1627 0.16018 0.43109 0.0
C39 C 0.16107 0.20357 0.43041 0.0
C40 C 0.18137 0.14183 0.43187 0.0
C41 C 0.17817 0.22791 0.43064 0.0
C42 C 0.19811 0.16725 0.43209 0.0
N43 N 0.19618 0.2094 0.43149 0.0
C44 C 0.10512 0.23317 0.42469 0.0
C45 C 0.11174 0.18215 0.40946 0.0
C46 C 0.10123 0.26298 0.41564 0.0
N47 N 0.11052 0.19392 0.42141 0.0
C48 C 0.10798 0.21085 0.40014 0.0
C49 C 0.10299 0.25208 0.40318 0.0
H50 H 0.10442 0.24159 0.43429 0.0
H51 H 0.11608 0.15061 0.4072 0.0
C52 C 0.128 0.00293 0.42546 0.0
N53 N 0.13958 0.03744 0.42495 0.0
C54 C 0.13111 0.97013 0.41729 0.0
C55 C 0.1584 0.00855 0.40849 0.0
C56 C 0.15471 0.04072 0.41681 0.0
C57 C 0.14623 0.97311 0.4085 0.0
H58 H 0.11596 0.00155 0.43198 0.0
H59 H 0.16342 0.06893 0.4165 0.0
O60 O 0.11515 0.16712 0.4507 0.0
O61 O 0.13265 0.07745 0.45313 0.0
O62 O 0.10459 0.09904 0.43142 0.0
O63 O 0.14607 0.13592 0.43126 0.0
H64 H 0.12299 0.12312 0.47092 0.0
H65 H 0.1012 0.24053 0.45732 0.0
H66 H 0.11793 0.14849 0.49214 0.0
H67 H 0.09652 0.26386 0.47886 0.0
H68 H 0.18344 0.98712 0.44684 0.0
H69 H 0.11901 0.01436 0.46639 0.0
H70 H 0.16742 0.05592 0.44395 0.0
H71 H 0.1357 0.94609 0.46876 0.0
H72 H 0.04562 0.12157 0.47421 0.0
H73 H 0.06331 0.99617 0.46476 0.0
H74 H 0.17705 0.25097 0.4694 0.0
H75 H 0.20234 0.12839 0.47437 0.0
H76 H 0.08427 0.04756 0.41738 0.0
H77 H 0.08127 0.16159 0.43817 0.0
H78 H 0.04902 0.05686 0.4117 0.0
H79 H 0.04617 0.16888 0.43213 0.0
H80 H 0.14677 0.21838 0.42993 0.0
H81 H 0.18296 0.10835 0.43238 0.0
H82 H 0.17711 0.26153 0.43021 0.0
H83 H 0.21264 0.15347 0.43277 0.0
H84 H 0.09764 0.29454 0.41838 0.0
H85 H 0.10924 0.20103 0.39065 0.0
H86 H 0.12152 0.94314 0.41765 0.0
H87 H 0.17005 0.01222 0.40176 0.0
Li88 Li 0.13011 0.15267 0.81356 0.0
Li89 Li 0.11609 0.08271 0.81195 0.0
Li90 Li 0.14054 0.10907 0.79737 0.0
Li91 Li 0.10788 0.137 0.79615 0.0
C92 C 0.15577 0.1068 0.82468 0.0
N93 N 0.17943 0.12761 0.84441 0.0
C94 C 0.14934 0.09908 0.83666 0.0
C95 C 0.1743 0.12475 0.82272 0.0
C96 C 0.1615 0.10993 0.84652 0.0
C97 C 0.18603 0.13512 0.83282 0.0
C98 C 0.08202 0.13504 0.81551 0.0
C99 C 0.05074 0.10128 0.81192 0.0
N100 N 0.0414 0.13346 0.81762 0.0
C101 C 0.07213 0.16785 0.82128 0.0
C102 C 0.07127 0.10152 0.81076 0.0
C103 C 0.05158 0.16643 0.82228 0.0
C104 C 0.15146 0.221 0.82401 0.0
N105 N 0.1365 0.19328 0.82558 0.0
C106 C 0.12906 0.22168 0.84531 0.0
C107 C 0.12541 0.19296 0.83598 0.0
C108 C 0.14433 0.25091 0.84393 0.0
C109 C 0.15572 0.25018 0.83316 0.0
H110 H 0.16005 0.22054 0.81566 0.0
H111 H 0.11374 0.17022 0.83701 0.0
C112 C 0.1126 0.99826 0.81928 0.0
N113 N 0.10717 0.03799 0.82195 0.0
C114 C 0.10845 0.96601 0.8275 0.0
C115 C 0.09272 0.01608 0.8409 0.0
C116 C 0.09723 0.04733 0.83244 0.0
C117 C 0.09872 0.97489 0.8386 0.0
H118 H 0.12089 0.99184 0.81104 0.0
H119 H 0.0935 0.07934 0.8345 0.0
C120 C 0.14438 0.18599 0.78727 0.0
N121 N 0.16786 0.2205 0.76918 0.0
C122 C 0.13623 0.19685 0.77592 0.0
C123 C 0.16445 0.19295 0.78946 0.0
C124 C 0.14835 0.21422 0.76689 0.0
C125 C 0.17608 0.21032 0.78018 0.0
C126 C 0.12066 0.0591 0.78281 0.0
C127 C 0.11803 0.07976 0.77162 0.0
C128 C 0.12952 0.01973 0.78295 0.0
C129 C 0.12414 0.06053 0.76075 0.0
C130 C 0.13551 0.00162 0.77189 0.0
N131 N 0.1327 0.0222 0.76111 0.0
C132 C 0.17512 0.06272 0.79367 0.0
C133 C 0.16568 0.10122 0.77607 0.0
C134 C 0.19107 0.04544 0.78735 0.0
N135 N 0.16285 0.09019 0.78801 0.0
C136 C 0.18156 0.08514 0.76945 0.0
C137 C 0.19448 0.05662 0.77505 0.0
H138 H 0.17229 0.05351 0.80306 0.0
H139 H 0.15547 0.12197 0.77157 0.0
C140 C 0.08376 0.201 0.78728 0.0
N141 N 0.08678 0.15918 0.7868 0.0
C142 C 0.06812 0.21899 0.78084 0.0
C143 C 0.05892 0.15037 0.77363 0.0
C144 C 0.07462 0.13369 0.78031 0.0
C145 C 0.0555 0.19362 0.77381 0.0
H146 H 0.09347 0.22032 0.79274 0.0
H147 H 0.07715 0.1004 0.78032 0.0
O148 O 0.14382 0.09768 0.81492 0.0
O149 O 0.10209 0.13638 0.81423 0.0
O150 O 0.13268 0.1694 0.79626 0.0
O151 O 0.11509 0.07782 0.79358 0.0
H152 H 0.135 0.08538 0.83833 0.0
H153 H 0.17949 0.1309 0.8135 0.0
H154 H 0.15665 0.10442 0.85585 0.0
H155 H 0.20036 0.14925 0.83145 0.0
H156 H 0.04223 0.07558 0.80827 0.0
H157 H 0.08025 0.19417 0.82492 0.0
H158 H 0.07869 0.07611 0.80612 0.0
H159 H 0.04371 0.19158 0.82673 0.0
H160 H 0.12011 0.22089 0.85355 0.0
H161 H 0.16752 0.27244 0.83172 0.0
H162 H 0.11368 0.93488 0.82545 0.0
H163 H 0.08508 0.02427 0.8493 0.0
H164 H 0.12074 0.1917 0.77406 0.0
H165 H 0.17105 0.1844 0.79814 0.0
H166 H 0.14226 0.22262 0.75804 0.0
H167 H 0.19166 0.21559 0.78171 0.0
H168 H 0.11174 0.11069 0.77132 0.0
H169 H 0.13205 0.00356 0.7915 0.0
H170 H 0.12226 0.07628 0.75204 0.0
H171 H 0.14247 0.97128 0.77188 0.0
H172 H 0.20034 0.02291 0.79198 0.0
H173 H 0.18365 0.09505 0.76003 0.0
H174 H 0.06583 0.25232 0.78147 0.0
H175 H 0.04971 0.12961 0.76828 0.0
Li176 Li 0.8909 0.88923 0.54703 0.0
Li177 Li 0.86742 0.90966 0.56324 0.0
Li178 Li 0.88063 0.84078 0.5626 0.0
Li179 Li 0.85748 0.86153 0.54743 0.0
C180 C 0.91159 0.87929 0.57114 0.0
N181 N 0.94346 0.84744 0.58392 0.0
C182 C 0.91435 0.88947 0.58351 0.0
C183 C 0.92512 0.85313 0.56525 0.0
C184 C 0.93053 0.87298 0.58981 0.0
C185 C 0.94112 0.83732 0.57187 0.0
C186 C 0.86947 0.96115 0.54234 0.0
C187 C 0.86312 0.02295 0.53036 0.0
N188 N 0.87769 0.04322 0.53654 0.0
C189 C 0.88439 0.9826 0.54858 0.0
C190 C 0.85875 0.98145 0.53315 0.0
C191 C 0.88831 0.02406 0.54552 0.0
C192 C 0.90897 0.90716 0.52435 0.0
N193 N 0.91142 0.909 0.53672 0.0
C194 C 0.94257 0.94284 0.53435 0.0
C195 C 0.92772 0.92663 0.54181 0.0
C196 C 0.94048 0.94174 0.5215 0.0
C197 C 0.92336 0.92353 0.51652 0.0
H198 H 0.89566 0.89356 0.52059 0.0
H199 H 0.92912 0.92857 0.55168 0.0
C200 C 0.86257 0.94388 0.58632 0.0
N201 N 0.859 0.95198 0.57428 0.0
C202 C 0.85791 0.97333 0.59527 0.0
C203 C 0.84506 0.01823 0.57933 0.0
C204 C 0.84993 0.98777 0.57067 0.0
C205 C 0.84933 0.0114 0.5918 0.0
H206 H 0.86923 0.91458 0.58893 0.0
H207 H 0.84655 0.99291 0.56109 0.0
C208 C 0.87855 0.7904 0.54133 0.0
N209 N 0.87003 0.70947 0.53444 0.0
C210 C 0.86598 0.76593 0.54852 0.0
C211 C 0.88677 0.77374 0.53064 0.0
C212 C 0.86186 0.72509 0.54488 0.0
C213 C 0.88229 0.73274 0.52731 0.0
C214 C 0.83368 0.86555 0.56808 0.0
C215 C 0.824 0.84318 0.57729 0.0
C216 C 0.82358 0.89682 0.5617 0.0
C217 C 0.80431 0.8524 0.57997 0.0
C218 C 0.80391 0.90511 0.56466 0.0
N219 N 0.79476 0.88292 0.57365 0.0
C220 C 0.88236 0.80232 0.58523 0.0
C221 C 0.9 0.76446 0.57007 0.0
C222 C 0.88704 0.77269 0.59411 0.0
N223 N 0.88872 0.79758 0.57348 0.0
C224 C 0.90482 0.73365 0.57865 0.0
C225 C 0.89823 0.73761 0.59082 0.0
H226 H 0.87351 0.82917 0.58765 0.0
H227 H 0.90516 0.76183 0.5607 0.0
C228 C 0.83359 0.86149 0.52617 0.0
N229 N 0.83616 0.84367 0.53738 0.0
C230 C 0.81815 0.84852 0.51856 0.0
C231 C 0.80847 0.79893 0.53416 0.0
C232 C 0.82393 0.81314 0.54149 0.0
C233 C 0.80536 0.81666 0.52251 0.0
H234 H 0.84355 0.88577 0.52315 0.0
H235 H 0.82624 0.79953 0.55046 0.0
O236 O 0.89555 0.8941 0.56487 0.0
O237 O 0.86542 0.92037 0.54504 0.0
O238 O 0.88273 0.83063 0.5446 0.0
O239 O 0.85298 0.85668 0.56542 0.0
H240 H 0.90414 0.90986 0.5882 0.0
H241 H 0.92311 0.84464 0.55571 0.0
H242 H 0.93281 0.88049 0.59939 0.0
H243 H 0.95162 0.81682 0.56745 0.0
H244 H 0.85493 0.03905 0.52326 0.0
H245 H 0.89281 0.96759 0.55575 0.0
H246 H 0.84717 0.96528 0.52822 0.0
H247 H 0.8998 0.04103 0.55028 0.0
H248 H 0.95559 0.95596 0.53864 0.0
H249 H 0.92091 0.92259 0.5067 0.0
H250 H 0.86154 0.96682 0.60477 0.0
H251 H 0.83811 0.04685 0.5763 0.0
H252 H 0.85946 0.77828 0.55682 0.0
H253 H 0.8965 0.79235 0.52496 0.0
H254 H 0.85215 0.70582 0.55036 0.0
H255 H 0.88854 0.71944 0.51905 0.0
H256 H 0.83163 0.8189 0.58231 0.0
H257 H 0.83077 0.9145 0.55454 0.0
H258 H 0.79663 0.83531 0.58708 0.0
H259 H 0.79591 0.9292 0.5598 0.0
H260 H 0.88152 0.77659 0.60338 0.0
H261 H 0.91358 0.70709 0.57581 0.0
H262 H 0.81619 0.86349 0.50973 0.0
H263 H 0.79925 0.77385 0.53753 0.0
Li264 Li 0.87889 0.90443 0.18208 0.0
Li265 Li 0.85625 0.89094 0.19835 0.0
Li266 Li 0.89115 0.86225 0.19867 0.0
Li267 Li 0.86587 0.83631 0.18347 0.0
C268 C 0.88388 0.9627 0.20066 0.0
N269 N 0.88804 0.04811 0.20248 0.0
C270 C 0.86928 0.98904 0.19598 0.0
C271 C 0.9006 0.9797 0.20626 0.0
C272 C 0.87166 0.03216 0.19698 0.0
C273 C 0.90242 0.023 0.2071 0.0
C274 C 0.83125 0.88024 0.17864 0.0
C275 C 0.80205 0.8402 0.18328 0.0
N276 N 0.79162 0.86361 0.17513 0.0
C277 C 0.82025 0.90387 0.1703 0.0
C278 C 0.82209 0.84813 0.18518 0.0
C279 C 0.80023 0.89499 0.16866 0.0
C280 C 0.87516 0.94292 0.15953 0.0
N281 N 0.88584 0.94509 0.17006 0.0
C282 C 0.90374 0.00386 0.16245 0.0
C283 C 0.90019 0.97426 0.17161 0.0
C284 C 0.89255 0.003 0.15157 0.0
C285 C 0.87834 0.97148 0.1501 0.0
H286 H 0.86414 0.91881 0.15844 0.0
H287 H 0.9088 0.97478 0.17997 0.0
C288 C 0.83544 0.90205 0.22063 0.0
N289 N 0.83589 0.91246 0.20853 0.0
C290 C 0.82066 0.91795 0.22827 0.0
C291 C 0.80715 0.95485 0.21082 0.0
C292 C 0.82224 0.93855 0.20358 0.0
C293 C 0.80623 0.94476 0.22337 0.0
H294 H 0.84664 0.88157 0.22435 0.0
H295 H 0.82306 0.94689 0.19398 0.0
C296 C 0.90599 0.86085 0.17141 0.0
N297 N 0.92991 0.88383 0.15202 0.0
C298 C 0.90059 0.85085 0.15938 0.0
C299 C 0.9236 0.8823 0.1736 0.0
C300 C 0.91287 0.86281 0.14969 0.0
C301 C 0.93549 0.89369 0.16367 0.0
C302 C 0.86261 0.79671 0.2079 0.0
C303 C 0.878 0.76784 0.20873 0.0
C304 C 0.84459 0.78821 0.21364 0.0
C305 C 0.87502 0.7306 0.21512 0.0
C306 C 0.84218 0.75061 0.21994 0.0
N307 N 0.85732 0.72282 0.22054 0.0
C308 C 0.91129 0.85279 0.22122 0.0
C309 C 0.92765 0.82486 0.20381 0.0
C310 C 0.92614 0.8378 0.22897 0.0
N311 N 0.9123 0.84585 0.20893 0.0
C312 C 0.94279 0.80939 0.21119 0.0
C313 C 0.94206 0.81538 0.22397 0.0
H314 H 0.89874 0.86917 0.22502 0.0
H315 H 0.9279 0.81932 0.19402 0.0
C316 C 0.8476 0.79563 0.16349 0.0
N317 N 0.85804 0.78904 0.17399 0.0
C318 C 0.84335 0.76259 0.1556 0.0
C319 C 0.86104 0.71653 0.16929 0.0
C320 C 0.86477 0.75044 0.17699 0.0
C321 C 0.85037 0.72256 0.15838 0.0
H322 H 0.84323 0.82682 0.16094 0.0
H323 H 0.8737 0.74615 0.18508 0.0
O324 O 0.88201 0.92044 0.19962 0.0
O325 O 0.85084 0.88895 0.18036 0.0
O326 O 0.8939 0.85046 0.18098 0.0
O327 O 0.86537 0.83381 0.20193 0.0
H328 H 0.85644 0.97632 0.19142 0.0
H329 H 0.91206 0.95963 0.20988 0.0
H330 H 0.86053 0.05296 0.19335 0.0
H331 H 0.91529 0.03664 0.21139 0.0
H332 H 0.7948 0.8154 0.18828 0.0
H333 H 0.8271 0.92892 0.16518 0.0
H334 H 0.83036 0.82934 0.19158 0.0
H335 H 0.79154 0.91308 0.16225 0.0
H336 H 0.91479 0.02767 0.164 0.0
H337 H 0.86972 0.96889 0.14176 0.0
H338 H 0.82071 0.90979 0.23792 0.0
H339 H 0.79623 0.97486 0.20659 0.0
H340 H 0.88696 0.83441 0.15754 0.0
H341 H 0.92788 0.89064 0.18286 0.0
H342 H 0.90883 0.8555 0.14032 0.0
H343 H 0.94909 0.91056 0.16521 0.0
H344 H 0.89204 0.77383 0.20435 0.0
H345 H 0.8326 0.81045 0.21326 0.0
H346 H 0.88677 0.70788 0.21575 0.0
H347 H 0.8283 0.74358 0.22439 0.0
H348 H 0.92488 0.84271 0.23878 0.0
H349 H 0.95491 0.79277 0.20694 0.0
H350 H 0.8355 0.76867 0.14711 0.0
H351 H 0.8668 0.68611 0.1717 0.0
Li352 Li 0.14385 0.63357 0.94944 0.0
Li353 Li 0.11064 0.60426 0.94859 0.0
Li354 Li 0.13655 0.5805 0.93464 0.0
Li355 Li 0.1217 0.64955 0.93242 0.0
C356 C 0.14083 0.53504 0.95447 0.0
N357 N 0.15085 0.45189 0.95675 0.0
C358 C 0.1266 0.5058 0.95798 0.0
C359 C 0.16018 0.52201 0.95219 0.0
C360 C 0.13196 0.46391 0.95907 0.0
C361 C 0.16494 0.47983 0.95336 0.0
C362 C 0.10571 0.67829 0.95858 0.0
C363 C 0.07294 0.69825 0.96494 0.0
N364 N 0.07968 0.70402 0.97659 0.0
C365 C 0.11232 0.68448 0.97061 0.0
C366 C 0.08588 0.68536 0.9557 0.0
C367 C 0.09892 0.69751 0.97958 0.0
C368 C 0.1641 0.69906 0.96103 0.0
N369 N 0.16372 0.65696 0.95966 0.0
C370 C 0.19279 0.64977 0.97188 0.0
C371 C 0.17755 0.63218 0.96498 0.0
C372 C 0.19367 0.69327 0.97342 0.0
C373 C 0.17896 0.71795 0.96794 0.0
H374 H 0.1529 0.71797 0.95665 0.0
H375 H 0.17693 0.59884 0.9637 0.0
C376 C 0.07264 0.57045 0.95184 0.0
N377 N 0.08849 0.58625 0.95789 0.0
C378 C 0.05628 0.55609 0.95836 0.0
C379 C 0.07289 0.57444 0.97725 0.0
C380 C 0.08904 0.58795 0.97036 0.0
C381 C 0.0562 0.55811 0.97126 0.0
H382 H 0.0728 0.56842 0.94193 0.0
H383 H 0.10204 0.59972 0.97495 0.0
C384 C 0.16702 0.65564 0.93152 0.0
N385 N 0.20151 0.70136 0.93276 0.0
C386 C 0.16662 0.69876 0.9297 0.0
C387 C 0.18496 0.63572 0.93392 0.0
C388 C 0.18422 0.72133 0.93036 0.0
C389 C 0.20224 0.65941 0.93453 0.0
C390 C 0.09821 0.59964 0.92033 0.0
C391 C 0.10549 0.5844 0.90919 0.0
C392 C 0.08044 0.62177 0.92052 0.0
C393 C 0.09491 0.59181 0.89839 0.0
C394 C 0.07031 0.6286 0.90952 0.0
N395 N 0.0777 0.61361 0.89878 0.0
C396 C 0.13407 0.49919 0.92558 0.0
C397 C 0.16131 0.53749 0.91784 0.0
C398 C 0.13839 0.46588 0.91782 0.0
N399 N 0.14543 0.53408 0.9254 0.0
C400 C 0.16607 0.50501 0.90982 0.0
C401 C 0.15434 0.4689 0.90963 0.0
H402 H 0.12119 0.49794 0.93143 0.0
H403 H 0.16979 0.56602 0.91768 0.0
C404 C 0.10336 0.7236 0.92328 0.0
N405 N 0.11482 0.69013 0.92051 0.0
C406 C 0.09924 0.75351 0.9143 0.0
C407 C 0.11872 0.71365 0.89986 0.0
C408 C 0.12249 0.68469 0.9091 0.0
C409 C 0.10711 0.74887 0.90243 0.0
H410 H 0.09771 0.72747 0.93249 0.0
H411 H 0.13171 0.6579 0.90722 0.0
O412 O 0.13581 0.57613 0.95321 0.0
O413 O 0.11854 0.66508 0.9497 0.0
O414 O 0.14986 0.63318 0.9313 0.0
O415 O 0.10857 0.59356 0.93097 0.0
H416 H 0.11155 0.51525 0.95976 0.0
H417 H 0.17131 0.5441 0.9493 0.0
H418 H 0.12109 0.44092 0.96174 0.0
H419 H 0.17981 0.46927 0.95153 0.0
H420 H 0.05753 0.70356 0.96286 0.0
H421 H 0.12756 0.67881 0.97304 0.0
H422 H 0.08048 0.68039 0.94647 0.0
H423 H 0.10382 0.70225 0.98894 0.0
H424 H 0.20395 0.62952 0.97576 0.0
H425 H 0.17883 0.7515 0.96902 0.0
H426 H 0.04398 0.54287 0.95334 0.0
H427 H 0.07348 0.57698 0.98716 0.0
H428 H 0.15284 0.71473 0.92795 0.0
H429 H 0.18549 0.60243 0.93549 0.0
H430 H 0.18413 0.75475 0.92903 0.0
H431 H 0.21621 0.64447 0.93647 0.0
H432 H 0.11927 0.56746 0.90884 0.0
H433 H 0.07463 0.63395 0.92905 0.0
H434 H 0.10042 0.58037 0.8897 0.0
H435 H 0.05661 0.6459 0.90953 0.0
H436 H 0.12874 0.43896 0.91778 0.0
H437 H 0.17847 0.50849 0.90362 0.0
H438 H 0.09046 0.78051 0.91672 0.0
H439 H 0.12489 0.7086 0.89081 0.0
Li440 Li 0.13075 0.66021 0.3119 0.0
Li441 Li 0.11583 0.58623 0.31183 0.0
Li442 Li 0.13804 0.61103 0.29556 0.0
Li443 Li 0.10599 0.63823 0.29679 0.0
C444 C 0.16227 0.58817 0.31305 0.0
N445 N 0.19948 0.55374 0.31101 0.0
C446 C 0.16456 0.5449 0.31263 0.0
C447 C 0.17887 0.61396 0.31252 0.0
C448 C 0.18351 0.5281 0.31157 0.0
C449 C 0.19757 0.59593 0.31148 0.0
C450 C 0.08369 0.65201 0.31605 0.0
C451 C 0.04928 0.63348 0.31741 0.0
N452 N 0.0444 0.6746 0.31711 0.0
C453 C 0.07837 0.69408 0.31582 0.0
C454 C 0.06907 0.62141 0.31688 0.0
C455 C 0.0584 0.70487 0.31634 0.0
C456 C 0.13251 0.74187 0.32133 0.0
N457 N 0.13939 0.70238 0.32269 0.0
C458 C 0.15616 0.72093 0.34118 0.0
C459 C 0.1512 0.69154 0.33225 0.0
C460 C 0.14865 0.76167 0.34032 0.0
C461 C 0.13696 0.77219 0.3301 0.0
H462 H 0.12308 0.74942 0.31363 0.0
H463 H 0.15632 0.65974 0.33313 0.0
C464 C 0.10903 0.50201 0.3187 0.0
N465 N 0.10875 0.54241 0.32244 0.0
C466 C 0.10554 0.47003 0.32714 0.0
C467 C 0.10105 0.52212 0.34297 0.0
C468 C 0.10465 0.55299 0.33425 0.0
C469 C 0.10182 0.47996 0.33951 0.0
H470 H 0.11256 0.49466 0.30925 0.0
H471 H 0.10461 0.58547 0.33692 0.0
C472 C 0.14263 0.69329 0.28693 0.0
N473 N 0.16739 0.74019 0.27225 0.0
C474 C 0.13932 0.69568 0.27428 0.0
C475 C 0.15834 0.71534 0.29215 0.0
C476 C 0.15207 0.71937 0.267 0.0
C477 C 0.17074 0.73873 0.28456 0.0
C478 C 0.10477 0.56613 0.28333 0.0
C479 C 0.11076 0.58346 0.27217 0.0
C480 C 0.09005 0.53563 0.28349 0.0
C481 C 0.10174 0.57027 0.26131 0.0
C482 C 0.08138 0.52327 0.27242 0.0
N483 N 0.08735 0.54072 0.26166 0.0
C484 C 0.15714 0.54942 0.28169 0.0
C485 C 0.1747 0.61327 0.28202 0.0
C486 C 0.17214 0.53056 0.27488 0.0
N487 N 0.15863 0.5901 0.2851 0.0
C488 C 0.18995 0.5958 0.27512 0.0
C489 C 0.18883 0.55385 0.27153 0.0
H490 H 0.14449 0.53127 0.28451 0.0
H491 H 0.17613 0.64481 0.28524 0.0
C492 C 0.08548 0.69899 0.28351 0.0
N493 N 0.08403 0.65928 0.28776 0.0
C494 C 0.0699 0.71695 0.27702 0.0
C495 C 0.05148 0.65296 0.27951 0.0
C496 C 0.06743 0.63625 0.28598 0.0
C497 C 0.05262 0.69383 0.2749 0.0
H498 H 0.09869 0.7169 0.28528 0.0
H499 H 0.06648 0.60506 0.28967 0.0
O500 O 0.14381 0.60522 0.31364 0.0
O501 O 0.1031 0.64074 0.31518 0.0
O502 O 0.13008 0.67092 0.29424 0.0
O503 O 0.11329 0.57883 0.29408 0.0
H504 H 0.15183 0.52457 0.31296 0.0
H505 H 0.1773 0.64753 0.31273 0.0
H506 H 0.18552 0.49467 0.31114 0.0
H507 H 0.21055 0.61549 0.31097 0.0
H508 H 0.03779 0.61014 0.31799 0.0
H509 H 0.08951 0.71811 0.3151 0.0
H510 H 0.07295 0.58868 0.31696 0.0
H511 H 0.05405 0.73731 0.31609 0.0
H512 H 0.16544 0.71159 0.3488 0.0
H513 H 0.13061 0.803 0.32914 0.0
H514 H 0.10649 0.43791 0.32413 0.0
H515 H 0.09799 0.53112 0.35237 0.0
H516 H 0.12695 0.67968 0.27013 0.0
H517 H 0.16111 0.71401 0.30192 0.0
H518 H 0.14972 0.72136 0.25719 0.0
H519 H 0.18305 0.75566 0.28846 0.0
H520 H 0.12226 0.60676 0.27191 0.0
H521 H 0.08528 0.52191 0.29208 0.0
H522 H 0.10619 0.58349 0.25259 0.0
H523 H 0.0699 0.49983 0.2724 0.0
H524 H 0.17074 0.49809 0.27229 0.0
H525 H 0.20278 0.61455 0.27295 0.0
H526 H 0.07128 0.74881 0.27384 0.0
H527 H 0.03849 0.63393 0.27803 0.0
Li528 Li 0.89193 0.39515 0.04662 0.0
Li529 Li 0.86857 0.4081 0.06268 0.0
Li530 Li 0.88362 0.34018 0.06135 0.0
Li531 Li 0.85834 0.36359 0.04593 0.0
C532 C 0.91616 0.39504 0.06767 0.0
N533 N 0.9558 0.39757 0.07355 0.0
C534 C 0.9235 0.42691 0.07514 0.0
C535 C 0.92894 0.36433 0.06326 0.0
C536 C 0.9436 0.42769 0.07799 0.0
C537 C 0.94894 0.36616 0.06632 0.0
C538 C 0.86897 0.46562 0.04334 0.0
C539 C 0.86282 0.52947 0.03227 0.0
N540 N 0.87587 0.54964 0.03967 0.0
C541 C 0.88231 0.48702 0.05084 0.0
C542 C 0.85913 0.48701 0.03398 0.0
C543 C 0.8856 0.52947 0.04884 0.0
C544 C 0.9126 0.40674 0.02447 0.0
N545 N 0.91216 0.41801 0.0365 0.0
C546 C 0.94044 0.4615 0.03379 0.0
C547 C 0.92552 0.44533 0.04119 0.0
C548 C 0.94147 0.45014 0.02133 0.0
C549 C 0.92718 0.42252 0.01668 0.0
H550 H 0.90159 0.38544 0.02094 0.0
H551 H 0.92463 0.4548 0.05067 0.0
C552 C 0.86801 0.44341 0.08588 0.0
N553 N 0.85977 0.44711 0.07457 0.0
C554 C 0.86302 0.47127 0.09519 0.0
C555 C 0.84112 0.5064 0.081 0.0
C556 C 0.84633 0.47736 0.07199 0.0
C557 C 0.84961 0.50355 0.09274 0.0
H558 H 0.87862 0.41891 0.08763 0.0
H559 H 0.83987 0.47926 0.06292 0.0
C560 C 0.89274 0.30145 0.03832 0.0
N561 N 0.90918 0.22963 0.02871 0.0
C562 C 0.88099 0.26637 0.0362 0.0
C563 C 0.91279 0.30025 0.03531 0.0
C564 C 0.88959 0.23028 0.03142 0.0
C565 C 0.92084 0.2636 0.03052 0.0
C566 C 0.84156 0.3599 0.07237 0.0
C567 C 0.84551 0.34985 0.08461 0.0
C568 C 0.82365 0.37868 0.06924 0.0
C569 C 0.83147 0.35922 0.09359 0.0
C570 C 0.80999 0.38754 0.0785 0.0
N571 N 0.81416 0.37774 0.09038 0.0
C572 C 0.90272 0.30104 0.08135 0.0
C573 C 0.88417 0.25557 0.06868 0.0
C574 C 0.90677 0.26872 0.08953 0.0
N575 N 0.8917 0.29395 0.07112 0.0
C576 C 0.88768 0.22237 0.07669 0.0
C577 C 0.8989 0.22887 0.08739 0.0
H578 H 0.90774 0.33213 0.08348 0.0
H579 H 0.87464 0.25116 0.06084 0.0
C580 C 0.83127 0.36778 0.02612 0.0
N581 N 0.83727 0.34508 0.03598 0.0
C582 C 0.8157 0.35361 0.01881 0.0
C583 C 0.81302 0.29291 0.03189 0.0
C584 C 0.82839 0.30857 0.03906 0.0
C585 C 0.80653 0.31553 0.02163 0.0
H586 H 0.83862 0.39675 0.02393 0.0
H587 H 0.83337 0.29152 0.04706 0.0
O588 O 0.89654 0.39422 0.0647 0.0
O589 O 0.86551 0.42397 0.04506 0.0
O590 O 0.88449 0.33726 0.04286 0.0
O591 O 0.85534 0.35216 0.0635 0.0
H592 H 0.91377 0.45094 0.07862 0.0
H593 H 0.92341 0.33905 0.05771 0.0
H594 H 0.94951 0.45226 0.08372 0.0
H595 H 0.95899 0.34254 0.06298 0.0
H596 H 0.8553 0.54639 0.02506 0.0
H597 H 0.89002 0.47118 0.05817 0.0
H598 H 0.84874 0.47096 0.02809 0.0
H599 H 0.89589 0.54637 0.05459 0.0
H600 H 0.95121 0.48229 0.03785 0.0
H601 H 0.92714 0.41344 0.0071 0.0
H602 H 0.87003 0.4684 0.10409 0.0
H603 H 0.83068 0.53087 0.07882 0.0
H604 H 0.86541 0.26685 0.03832 0.0
H605 H 0.92205 0.32738 0.03654 0.0
H606 H 0.88068 0.20281 0.02984 0.0
H607 H 0.93635 0.26221 0.02819 0.0
H608 H 0.85937 0.33541 0.08715 0.0
H609 H 0.82045 0.38676 0.05979 0.0
H610 H 0.83436 0.35188 0.10312 0.0
H611 H 0.7961 0.40232 0.07624 0.0
H612 H 0.91554 0.27522 0.09763 0.0
H613 H 0.88086 0.1925 0.07482 0.0
H614 H 0.8111 0.37178 0.01092 0.0
H615 H 0.80613 0.26365 0.03441 0.0
Li616 Li 0.86656 0.33937 0.68456 0.0
Li617 Li 0.8906 0.36224 0.69994 0.0
Li618 Li 0.85605 0.39112 0.6996 0.0
Li619 Li 0.88027 0.41275 0.68425 0.0
C620 C 0.8564 0.29521 0.70512 0.0
N621 N 0.83908 0.21863 0.70956 0.0
C622 C 0.86693 0.26396 0.71122 0.0
C623 C 0.83695 0.28768 0.70147 0.0
C624 C 0.85795 0.2254 0.71333 0.0
C625 C 0.82848 0.24874 0.70374 0.0
C626 C 0.91256 0.34456 0.679 0.0
C627 C 0.94708 0.3572 0.67498 0.0
N628 N 0.94988 0.31565 0.67321 0.0
C629 C 0.91573 0.30208 0.67693 0.0
C630 C 0.92831 0.37243 0.67784 0.0
C631 C 0.93472 0.28804 0.6741 0.0
C632 C 0.84944 0.30322 0.66362 0.0
N633 N 0.85901 0.29421 0.67427 0.0
C634 C 0.86049 0.22205 0.66894 0.0
C635 C 0.86443 0.25454 0.67709 0.0
C636 C 0.85104 0.23053 0.65773 0.0
C637 C 0.8452 0.27166 0.65519 0.0
H638 H 0.84566 0.33517 0.6615 0.0
H639 H 0.87239 0.24825 0.68549 0.0
C640 C 0.92015 0.36803 0.71855 0.0
N641 N 0.91193 0.34309 0.70985 0.0
C642 C 0.93595 0.35369 0.72563 0.0
C643 C 0.93406 0.28774 0.71496 0.0
C644 C 0.91842 0.30348 0.70805 0.0
C645 C 0.94316 0.31302 0.72385 0.0
H646 H 0.91442 0.39902 0.72006 0.0
H647 H 0.91123 0.28382 0.70135 0.0
C648 C 0.83429 0.40836 0.6793 0.0
N649 N 0.79684 0.43966 0.67521 0.0
C650 C 0.83148 0.45108 0.67749 0.0
C651 C 0.81808 0.38147 0.67879 0.0
C652 C 0.81243 0.46634 0.67551 0.0
C653 C 0.79926 0.39791 0.67678 0.0
C654 C 0.89194 0.4566 0.70479 0.0
C655 C 0.88271 0.49072 0.71034 0.0
C656 C 0.91192 0.45909 0.70171 0.0
C657 C 0.89355 0.52706 0.71249 0.0
C658 C 0.92227 0.49593 0.70401 0.0
N659 N 0.91294 0.52892 0.70928 0.0
C660 C 0.82453 0.38478 0.71678 0.0
C661 C 0.82947 0.45184 0.70818 0.0
C662 C 0.80856 0.3994 0.72365 0.0
N663 N 0.83449 0.41095 0.70917 0.0
C664 C 0.81372 0.46787 0.71495 0.0
C665 C 0.80302 0.44147 0.72278 0.0
H666 H 0.82904 0.35264 0.71762 0.0
H667 H 0.83771 0.47205 0.70212 0.0
C668 C 0.89705 0.44679 0.66289 0.0
N669 N 0.8881 0.45686 0.67366 0.0
C670 C 0.90146 0.47774 0.6543 0.0
C671 C 0.88734 0.52883 0.66806 0.0
C672 C 0.88337 0.49696 0.67642 0.0
C673 C 0.89626 0.51927 0.65677 0.0
H674 H 0.90024 0.41453 0.66081 0.0
H675 H 0.87585 0.50407 0.68491 0.0
O676 O 0.86506 0.33299 0.70283 0.0
O677 O 0.89403 0.35885 0.68178 0.0
O678 O 0.85284 0.39291 0.68137 0.0
O679 O 0.88148 0.42095 0.70243 0.0
H680 H 0.88185 0.26939 0.71434 0.0
H681 H 0.82849 0.31169 0.69695 0.0
H682 H 0.86597 0.2009 0.71799 0.0
H683 H 0.81347 0.24248 0.70089 0.0
H684 H 0.9594 0.37845 0.67411 0.0
H685 H 0.90373 0.28008 0.67763 0.0
H686 H 0.92609 0.40555 0.67897 0.0
H687 H 0.93739 0.25517 0.67261 0.0
H688 H 0.86513 0.19073 0.67129 0.0
H689 H 0.83817 0.27967 0.64658 0.0
H690 H 0.94254 0.37438 0.73233 0.0
H691 H 0.93874 0.25586 0.71348 0.0
H692 H 0.84383 0.47234 0.67775 0.0
H693 H 0.81999 0.34823 0.67981 0.0
H694 H 0.81005 0.49939 0.67421 0.0
H695 H 0.78658 0.37744 0.67642 0.0
H696 H 0.86736 0.48923 0.71298 0.0
H697 H 0.9194 0.43267 0.69772 0.0
H698 H 0.88656 0.55376 0.71672 0.0
H699 H 0.93773 0.49825 0.70163 0.0
H700 H 0.80084 0.37822 0.72973 0.0
H701 H 0.80982 0.50045 0.71397 0.0
H702 H 0.90808 0.46906 0.64561 0.0
H703 H 0.88315 0.56052 0.6703 0.0
Li704 Li 0.61002 0.10919 0.94994 0.0
Li705 Li 0.64315 0.13921 0.94866 0.0
Li706 Li 0.61869 0.15669 0.93328 0.0
Li707 Li 0.63364 0.08689 0.93461 0.0
C708 C 0.61632 0.18456 0.96274 0.0
N709 N 0.61403 0.21484 0.98646 0.0
C710 C 0.62238 0.15982 0.97263 0.0
C711 C 0.60914 0.22472 0.96493 0.0
C712 C 0.6211 0.1757 0.98455 0.0
C713 C 0.60807 0.23944 0.97698 0.0
C714 C 0.6447 0.04323 0.95405 0.0
C715 C 0.67272 0.99811 0.9508 0.0
N716 N 0.66268 0.96615 0.95613 0.0
C717 C 0.63479 0.0101 0.95967 0.0
C718 C 0.66393 0.03733 0.94975 0.0
C719 C 0.64408 0.97133 0.96057 0.0
C720 C 0.58343 0.04911 0.95788 0.0
N721 N 0.5883 0.08983 0.95951 0.0
C722 C 0.56145 0.09898 0.97349 0.0
C723 C 0.57746 0.11506 0.96695 0.0
C724 C 0.5565 0.05665 0.97229 0.0
C725 C 0.56765 0.03165 0.9643 0.0
H726 H 0.59175 0.03026 0.95148 0.0
H727 H 0.58102 0.14774 0.96774 0.0
C728 C 0.66807 0.20365 0.95697 0.0
N729 N 0.66422 0.1622 0.95803 0.0
C730 C 0.68352 0.22163 0.96358 0.0
C731 C 0.69001 0.15444 0.97282 0.0
C732 C 0.67468 0.13757 0.96583 0.0
C733 C 0.69465 0.19688 0.97163 0.0
H734 H 0.65909 0.22275 0.951 0.0
H735 H 0.67103 0.10493 0.96671 0.0
C736 C 0.58583 0.10582 0.92967 0.0
N737 N 0.54604 0.11413 0.92468 0.0
C738 C 0.57625 0.07663 0.92224 0.0
C739 C 0.57517 0.13921 0.93459 0.0
C740 C 0.55613 0.08139 0.91981 0.0
C741 C 0.55507 0.14287 0.93195 0.0
C742 C 0.66345 0.16251 0.92877 0.0
C743 C 0.66248 0.20488 0.92582 0.0
C744 C 0.68189 0.14331 0.92994 0.0
C745 C 0.67994 0.22753 0.92437 0.0
C746 C 0.69901 0.16703 0.92844 0.0
N747 N 0.6977 0.20831 0.92573 0.0
C748 C 0.60864 0.2382 0.92567 0.0
C749 C 0.604 0.18529 0.91074 0.0
C750 C 0.60368 0.26891 0.91713 0.0
N751 N 0.60912 0.19749 0.92225 0.0
C752 C 0.59867 0.21488 0.90195 0.0
C753 C 0.59895 0.25748 0.905 0.0
H754 H 0.61299 0.24691 0.93488 0.0
H755 H 0.60452 0.15261 0.90831 0.0
C756 C 0.63126 0.00445 0.92601 0.0
N757 N 0.6411 0.04108 0.92471 0.0
C758 C 0.63483 0.97161 0.91791 0.0
C759 C 0.65876 0.01471 0.9074 0.0
C760 C 0.6548 0.04664 0.91575 0.0
C761 C 0.64843 0.97682 0.90827 0.0
H762 H 0.62025 0.00122 0.93314 0.0
H763 H 0.66211 0.07642 0.91479 0.0
O764 O 0.61768 0.17009 0.95094 0.0
O765 O 0.63576 0.08134 0.95294 0.0
O766 O 0.60547 0.10119 0.93222 0.0
O767 O 0.64648 0.13992 0.93037 0.0
H768 H 0.62799 0.12869 0.97116 0.0
H769 H 0.60441 0.2443 0.95738 0.0
H770 H 0.62573 0.1569 0.99228 0.0
H771 H 0.60252 0.27045 0.97881 0.0
H772 H 0.68753 0.99309 0.9474 0.0
H773 H 0.62017 0.01428 0.96341 0.0
H774 H 0.67193 0.06274 0.9456 0.0
H775 H 0.63653 0.94539 0.96484 0.0
H776 H 0.55315 0.11933 0.97953 0.0
H777 H 0.56402 0.99911 0.9629 0.0
H778 H 0.68653 0.25463 0.96259 0.0
H779 H 0.69829 0.13449 0.97897 0.0
H780 H 0.5843 0.05052 0.91841 0.0
H781 H 0.5823 0.16199 0.94042 0.0
H782 H 0.54852 0.05903 0.91407 0.0
H783 H 0.54664 0.16852 0.9357 0.0
H784 H 0.64843 0.2203 0.92479 0.0
H785 H 0.68302 0.11045 0.93195 0.0
H786 H 0.67937 0.26042 0.92219 0.0
H787 H 0.71336 0.15257 0.9294 0.0
H788 H 0.60442 0.30131 0.91988 0.0
H789 H 0.5948 0.20451 0.8928 0.0
H790 H 0.6267 0.94277 0.91901 0.0
H791 H 0.66913 0.02036 0.90001 0.0
Li792 Li 0.63065 0.15473 0.31386 0.0
Li793 Li 0.61588 0.08529 0.31226 0.0
Li794 Li 0.64072 0.1089 0.2975 0.0
Li795 Li 0.60735 0.13776 0.29752 0.0
C796 C 0.65569 0.1048 0.32519 0.0
N797 N 0.67898 0.11772 0.34568 0.0
C798 C 0.65021 0.08789 0.33652 0.0
C799 C 0.67309 0.12801 0.32426 0.0
C800 C 0.66217 0.09482 0.34677 0.0
C801 C 0.68463 0.1343 0.33473 0.0
C802 C 0.5854 0.15998 0.31599 0.0
C803 C 0.54997 0.16274 0.31407 0.0
N804 N 0.5506 0.20481 0.3156 0.0
C805 C 0.58571 0.20321 0.31759 0.0
C806 C 0.5674 0.1395 0.31427 0.0
C807 C 0.56795 0.22532 0.31736 0.0
C808 C 0.6473 0.23168 0.32206 0.0
N809 N 0.63816 0.19579 0.32546 0.0
C810 C 0.63719 0.21774 0.34639 0.0
C811 C 0.63302 0.18843 0.33732 0.0
C812 C 0.64631 0.25557 0.34319 0.0
C813 C 0.65154 0.26221 0.33084 0.0
H814 H 0.65086 0.23703 0.31251 0.0
H815 H 0.62544 0.15987 0.33969 0.0
C816 C 0.61906 0.00413 0.32145 0.0
N817 N 0.60799 0.03937 0.32204 0.0
C818 C 0.61586 0.97174 0.32974 0.0
C819 C 0.58979 0.01239 0.33906 0.0
C820 C 0.59339 0.0439 0.33049 0.0
C821 C 0.60141 0.97608 0.33892 0.0
H822 H 0.63093 0.0019 0.31484 0.0
H823 H 0.58519 0.07276 0.33095 0.0
C824 C 0.6447 0.18312 0.28727 0.0
N825 N 0.66938 0.20976 0.26866 0.0
C826 C 0.63744 0.18778 0.27533 0.0
C827 C 0.66447 0.19223 0.28976 0.0
C828 C 0.65016 0.20128 0.26605 0.0
C829 C 0.67673 0.20555 0.28022 0.0
C830 C 0.61021 0.03916 0.29264 0.0
C831 C 0.62411 0.00996 0.28863 0.0
C832 C 0.59111 0.02611 0.2956 0.0
C833 C 0.61867 0.96806 0.28772 0.0
C834 C 0.58626 0.98391 0.29459 0.0
N835 N 0.60003 0.95601 0.29071 0.0
C836 C 0.67829 0.07434 0.29358 0.0
C837 C 0.6613 0.09211 0.27529 0.0
C838 C 0.69424 0.05916 0.28683 0.0
N839 N 0.66233 0.09063 0.28775 0.0
C840 C 0.67703 0.07773 0.26817 0.0
C841 C 0.6938 0.06082 0.27393 0.0
H842 H 0.67851 0.07241 0.30348 0.0
H843 H 0.64819 0.10414 0.27088 0.0
C844 C 0.58656 0.20269 0.28604 0.0
N845 N 0.58678 0.16071 0.28774 0.0
C846 C 0.57153 0.22128 0.27919 0.0
C847 C 0.5571 0.15312 0.27611 0.0
C848 C 0.57253 0.13579 0.28291 0.0
C849 C 0.55652 0.19639 0.27417 0.0
H850 H 0.59803 0.22173 0.29007 0.0
H851 H 0.57308 0.10254 0.28439 0.0
O852 O 0.64401 0.09898 0.31507 0.0
O853 O 0.60267 0.13795 0.3158 0.0
O854 O 0.63254 0.16954 0.29647 0.0
O855 O 0.6153 0.08027 0.2937 0.0
H856 H 0.63677 0.06999 0.33745 0.0
H857 H 0.67755 0.14131 0.31556 0.0
H858 H 0.65806 0.0821 0.35561 0.0
H859 H 0.69807 0.1524 0.33415 0.0
H860 H 0.53594 0.14736 0.31265 0.0
H861 H 0.59953 0.21958 0.31884 0.0
H862 H 0.56694 0.10608 0.31292 0.0
H863 H 0.56796 0.25882 0.31851 0.0
H864 H 0.63312 0.21095 0.3558 0.0
H865 H 0.65827 0.29116 0.3279 0.0
H866 H 0.62499 0.94411 0.32919 0.0
H867 H 0.57872 0.01735 0.34608 0.0
H868 H 0.62223 0.18054 0.27321 0.0
H869 H 0.67033 0.18875 0.29895 0.0
H870 H 0.64478 0.20483 0.25675 0.0
H871 H 0.69209 0.21249 0.28201 0.0
H872 H 0.63895 0.01946 0.2863 0.0
H873 H 0.58024 0.04819 0.29886 0.0
H874 H 0.62928 0.9451 0.28466 0.0
H875 H 0.57158 0.97333 0.29695 0.0
H876 H 0.7066 0.04549 0.29169 0.0
H877 H 0.67605 0.07996 0.25826 0.0
H878 H 0.57148 0.2548 0.27799 0.0
H879 H 0.54587 0.13288 0.27229 0.0
Li880 Li 0.35734 0.86443 0.04708 0.0
Li881 Li 0.38338 0.83985 0.06174 0.0
Li882 Li 0.37032 0.90963 0.06317 0.0
Li883 Li 0.3922 0.89174 0.04701 0.0
C884 C 0.34529 0.86268 0.07543 0.0
N885 N 0.32504 0.87935 0.09691 0.0
C886 C 0.35395 0.85403 0.08681 0.0
C887 C 0.32632 0.87977 0.07498 0.0
C888 C 0.34347 0.86269 0.09756 0.0
C889 C 0.31633 0.88796 0.08594 0.0
C890 C 0.38672 0.79273 0.04232 0.0
C891 C 0.40962 0.73524 0.04331 0.0
N892 N 0.39463 0.70836 0.04081 0.0
C893 C 0.37155 0.76455 0.03971 0.0
C894 C 0.40594 0.77801 0.04407 0.0
C895 C 0.37584 0.72202 0.039 0.0
C896 C 0.33683 0.85111 0.025 0.0
N897 N 0.33556 0.84763 0.03742 0.0
C898 C 0.30365 0.81649 0.03588 0.0
C899 C 0.31948 0.83062 0.04294 0.0
C900 C 0.30459 0.8193 0.02302 0.0
C901 C 0.32143 0.83691 0.01757 0.0
H902 H 0.34992 0.86445 0.0209 0.0
H903 H 0.31911 0.82729 0.05281 0.0
C904 C 0.40748 0.79331 0.07821 0.0
N905 N 0.39081 0.79279 0.07126 0.0
C906 C 0.41147 0.7606 0.08631 0.0
C907 C 0.3812 0.7273 0.0798 0.0
C908 C 0.3778 0.76063 0.07185 0.0
C909 C 0.39807 0.72732 0.08731 0.0
H910 H 0.41731 0.81977 0.07781 0.0
H911 H 0.3644 0.76166 0.06646 0.0
C912 C 0.35672 0.95969 0.04515 0.0
N913 N 0.33629 0.03424 0.04446 0.0
C914 C 0.36599 0.99676 0.04868 0.0
C915 C 0.33707 0.96058 0.04123 0.0
C916 C 0.3554 0.0341 0.04829 0.0
C917 C 0.327 0.99858 0.04096 0.0
C918 C 0.41637 0.90911 0.06448 0.0
C919 C 0.41878 0.95179 0.06663 0.0
C920 C 0.4328 0.88473 0.06152 0.0
C921 C 0.4376 0.96936 0.06576 0.0
C922 C 0.45136 0.9035 0.0607 0.0
N923 N 0.45336 0.94507 0.06282 0.0
C924 C 0.37524 0.95236 0.08521 0.0
C925 C 0.34614 0.97323 0.07484 0.0
C926 C 0.37134 0.98001 0.09477 0.0
N927 N 0.36296 0.95007 0.07536 0.0
C928 C 0.34173 0.00165 0.08417 0.0
C929 C 0.3545 0.00542 0.09426 0.0
H930 H 0.38811 0.93251 0.08567 0.0
H931 H 0.33601 0.96943 0.06727 0.0
C932 C 0.42284 0.88384 0.02925 0.0
N933 N 0.41259 0.91126 0.03633 0.0
C934 C 0.43838 0.89777 0.02187 0.0
C935 C 0.43232 0.96787 0.02909 0.0
C936 C 0.41681 0.95268 0.0362 0.0
C937 C 0.44341 0.94024 0.02187 0.0
H938 H 0.41907 0.85112 0.02942 0.0
H939 H 0.40838 0.97388 0.0418 0.0
O940 O 0.35554 0.85553 0.06482 0.0
O941 O 0.38275 0.83443 0.04329 0.0
O942 O 0.36687 0.92281 0.04531 0.0
O943 O 0.39799 0.89144 0.06504 0.0
H944 H 0.36871 0.84129 0.08734 0.0
H945 H 0.31954 0.88742 0.06626 0.0
H946 H 0.35003 0.85635 0.10642 0.0
H947 H 0.30169 0.90144 0.08573 0.0
H948 H 0.4244 0.72341 0.04472 0.0
H949 H 0.35658 0.77528 0.03836 0.0
H950 H 0.41784 0.79932 0.04615 0.0
H951 H 0.36423 0.69985 0.03704 0.0
H952 H 0.29104 0.80248 0.0404 0.0
H953 H 0.32264 0.83971 0.00768 0.0
H954 H 0.42467 0.76178 0.0919 0.0
H955 H 0.37027 0.70277 0.08045 0.0
H956 H 0.38103 0.99664 0.05197 0.0
H957 H 0.32965 0.93228 0.03845 0.0
H958 H 0.36234 0.06295 0.05109 0.0
H959 H 0.31178 -0.00029 0.03796 0.0
H960 H 0.40623 0.97136 0.06872 0.0
H961 H 0.43121 0.85178 0.05969 0.0
H962 H 0.43965 0.00238 0.06733 0.0
H963 H 0.46417 0.88503 0.05833 0.0
H964 H 0.3816 0.98201 0.10238 0.0
H965 H 0.32839 0.02015 0.08357 0.0
H966 H 0.44663 0.87548 0.01644 0.0
H967 H 0.43557 0.00094 0.0292 0.0
Li968 Li 0.38236 0.9108 0.68396 0.0
Li969 Li 0.35813 0.89136 0.69966 0.0
Li970 Li 0.39203 0.85837 0.69931 0.0
Li971 Li 0.36681 0.83967 0.68402 0.0
C972 C 0.39353 0.9546 0.70473 0.0
N973 N 0.41185 0.02943 0.71005 0.0
C974 C 0.38226 0.99015 0.70715 0.0
C975 C 0.41411 0.95691 0.70527 0.0
C976 C 0.3918 0.02776 0.70974 0.0
C977 C 0.4231 0.99507 0.70791 0.0
C978 C 0.3353 0.90613 0.67904 0.0
C979 C 0.30042 0.89111 0.67927 0.0
N980 N 0.29677 0.929 0.67414 0.0
C981 C 0.33123 0.94477 0.67366 0.0
C982 C 0.3198 0.87894 0.68178 0.0
C983 C 0.31164 0.95582 0.6713 0.0
C984 C 0.40209 0.94563 0.66353 0.0
N985 N 0.39061 0.95475 0.67341 0.0
C986 C 0.38719 0.02531 0.66669 0.0
C987 C 0.3832 0.99369 0.67514 0.0
C988 C 0.39873 0.01661 0.65628 0.0
C989 C 0.40649 0.9763 0.65487 0.0
H990 H 0.40724 0.91417 0.66209 0.0
H991 H 0.37342 -0.00027 0.68277 0.0
C992 C 0.33313 0.891 0.72038 0.0
N993 N 0.33773 0.91207 0.70994 0.0
C994 C 0.31816 0.90554 0.72809 0.0
C995 C 0.31303 0.9632 0.71416 0.0
C996 C 0.32824 0.94785 0.70682 0.0
C997 C 0.30779 0.94205 0.72499 0.0
H998 H 0.34117 0.86301 0.72275 0.0
H999 H 0.33251 0.96459 0.69863 0.0
C1000 C 0.41334 0.84471 0.67755 0.0
N1001 N 0.45109 0.82241 0.67054 0.0
C1002 C 0.41662 0.80701 0.67144 0.0
C1003 C 0.42922 0.87128 0.67996 0.0
C1004 C 0.43582 0.79624 0.66801 0.0
C1005 C 0.4482 0.8594 0.67638 0.0
C1006 C 0.35814 0.79366 0.70479 0.0
C1007 C 0.37072 0.76002 0.70708 0.0
C1008 C 0.33772 0.78797 0.70544 0.0
C1009 C 0.36264 0.72093 0.70968 0.0
C1010 C 0.3302 0.74841 0.70807 0.0
N1011 N 0.34271 0.71597 0.7101 0.0
C1012 C 0.41603 0.85527 0.72038 0.0
C1013 C 0.4241 0.80492 0.70524 0.0
C1014 C 0.43111 0.84069 0.728 0.0
N1015 N 0.41293 0.83747 0.70921 0.0
C1016 C 0.43955 0.78989 0.71245 0.0
C1017 C 0.44316 0.80784 0.72398 0.0
H1018 H 0.40673 0.88075 0.72336 0.0
H1019 H 0.4209 0.79021 0.69656 0.0
C1020 C 0.34598 0.80571 0.66391 0.0
N1021 N 0.35799 0.79619 0.67352 0.0
C1022 C 0.34124 0.77545 0.65519 0.0
C1023 C 0.36117 0.72601 0.66645 0.0
C1024 C 0.36552 0.75723 0.67495 0.0
C1025 C 0.34915 0.73516 0.65629 0.0
H1026 H 0.34068 0.83721 0.66273 0.0
H1027 H 0.37571 0.7509 0.68234 0.0
O1028 O 0.38444 0.9175 0.70219 0.0
O1029 O 0.35437 0.895 0.68155 0.0
O1030 O 0.39466 0.85547 0.68113 0.0
O1031 O 0.36581 0.83219 0.70228 0.0
H1032 H 0.36632 0.98882 0.70692 0.0
H1033 H 0.42306 0.92948 0.7038 0.0
H1034 H 0.38325 0.0556 0.71152 0.0
H1035 H 0.43902 0.99733 0.70831 0.0
H1036 H 0.28829 0.8704 0.68138 0.0
H1037 H 0.34304 0.96608 0.6714 0.0
H1038 H 0.32274 0.84868 0.68572 0.0
H1039 H 0.30826 0.98571 0.66721 0.0
H1040 H 0.38051 0.05567 0.668 0.0
H1041 H 0.41548 0.96826 0.64699 0.0
H1042 H 0.31494 0.88861 0.73646 0.0
H1043 H 0.30536 0.99115 0.71128 0.0
H1044 H 0.40449 0.78621 0.66942 0.0
H1045 H 0.42688 0.90087 0.68446 0.0
H1046 H 0.43859 0.76707 0.66333 0.0
H1047 H 0.46063 0.87963 0.67822 0.0
H1048 H 0.38656 0.76394 0.70674 0.0
H1049 H 0.32776 0.81385 0.70404 0.0
H1050 H 0.37221 0.69455 0.71137 0.0
H1051 H 0.31442 0.74354 0.70856 0.0
H1052 H 0.43349 0.85517 0.73687 0.0
H1053 H 0.44837 0.76401 0.70917 0.0
H1054 H 0.33189 0.7838 0.6475 0.0
H1055 H 0.36798 0.69567 0.6675 0.0
Li1056 Li 0.60814 0.60744 0.44886 0.0
Li1057 Li 0.64119 0.63814 0.44992 0.0
Li1058 Li 0.61743 0.658 0.43441 0.0
Li1059 Li 0.63259 0.58848 0.43365 0.0
C1060 C 0.60824 0.70576 0.45298 0.0
N1061 N 0.59412 0.78662 0.4533 0.0
C1062 C 0.62008 0.73816 0.45738 0.0
C1063 C 0.58907 0.71442 0.44896 0.0
C1064 C 0.61271 0.77885 0.45742 0.0
C1065 C 0.58225 0.75551 0.44912 0.0
C1066 C 0.63535 0.5629 0.46319 0.0
C1067 C 0.64583 0.50996 0.4775 0.0
N1068 N 0.63792 0.53246 0.48688 0.0
C1069 C 0.62729 0.58549 0.47297 0.0
C1070 C 0.64464 0.52477 0.46545 0.0
C1071 C 0.62875 0.56956 0.48488 0.0
C1072 C 0.58519 0.54268 0.45885 0.0
N1073 N 0.58706 0.58483 0.45831 0.0
C1074 C 0.55891 0.59381 0.47122 0.0
C1075 C 0.57442 0.61048 0.46437 0.0
C1076 C 0.55644 0.55036 0.47184 0.0
C1077 C 0.56985 0.52468 0.46555 0.0
H1078 H 0.59564 0.52307 0.45406 0.0
H1079 H 0.57639 0.64385 0.46389 0.0
C1080 C 0.67057 0.69603 0.45526 0.0
N1081 N 0.66299 0.65924 0.45929 0.0
C1082 C 0.68659 0.71436 0.46124 0.0
C1083 C 0.68698 0.65636 0.47538 0.0
C1084 C 0.67109 0.63895 0.46904 0.0
C1085 C 0.69494 0.69467 0.47154 0.0
H1086 H 0.66412 0.71119 0.44734 0.0
H1087 H 0.66542 0.60921 0.47194 0.0
C1088 C 0.58762 0.5819 0.42996 0.0
N1089 N 0.55312 0.53593 0.42918 0.0
C1090 C 0.58825 0.53913 0.42754 0.0
C1091 C 0.5694 0.60137 0.43182 0.0
C1092 C 0.57066 0.51641 0.42721 0.0
C1093 C 0.55214 0.57757 0.43144 0.0
C1094 C 0.66526 0.63855 0.42948 0.0
C1095 C 0.6747 0.66549 0.42129 0.0
C1096 C 0.67597 0.60649 0.43509 0.0
C1097 C 0.69476 0.65988 0.41882 0.0
C1098 C 0.696 0.60193 0.43237 0.0
N1099 N 0.7049 0.62849 0.42436 0.0
C1100 C 0.62048 0.73808 0.42403 0.0
C1101 C 0.59445 0.69672 0.41604 0.0
C1102 C 0.61626 0.76982 0.41567 0.0
N1103 N 0.60966 0.70241 0.424 0.0
C1104 C 0.58978 0.72754 0.40747 0.0
C1105 C 0.60094 0.76442 0.40711 0.0
H1106 H 0.63272 0.74134 0.43034 0.0
H1107 H 0.58631 0.66777 0.41609 0.0
C1108 C 0.64234 0.50617 0.42644 0.0
N1109 N 0.64212 0.54679 0.42292 0.0
C1110 C 0.64706 0.47507 0.41796 0.0
C1111 C 0.65237 0.52856 0.40265 0.0
C1112 C 0.64727 0.55851 0.41137 0.0
C1113 C 0.65177 0.48605 0.40579 0.0
H1114 H 0.63796 0.49785 0.43568 0.0
H1115 H 0.64689 0.59111 0.40885 0.0
O1116 O 0.6153 0.66577 0.45271 0.0
O1117 O 0.63366 0.57716 0.45139 0.0
O1118 O 0.60475 0.60449 0.43061 0.0
O1119 O 0.64566 0.644 0.43206 0.0
H1120 H 0.63475 0.73202 0.4608 0.0
H1121 H 0.57966 0.68977 0.4456 0.0
H1122 H 0.62176 0.80423 0.46075 0.0
H1123 H 0.56752 0.76266 0.44591 0.0
H1124 H 0.65301 0.48052 0.47939 0.0
H1125 H 0.62006 0.61507 0.47142 0.0
H1126 H 0.65086 0.50682 0.45798 0.0
H1127 H 0.62261 0.58672 0.49253 0.0
H1128 H 0.5488 0.61471 0.47586 0.0
H1129 H 0.56864 0.49103 0.46593 0.0
H1130 H 0.69245 0.74345 0.45776 0.0
H1131 H 0.69279 0.64011 0.48332 0.0
H1132 H 0.60215 0.5235 0.42603 0.0
H1133 H 0.56857 0.63441 0.43365 0.0
H1134 H 0.57096 0.48324 0.42542 0.0
H1135 H 0.53797 0.5922 0.43297 0.0
H1136 H 0.66661 0.69052 0.41692 0.0
H1137 H 0.66895 0.58542 0.44149 0.0
H1138 H 0.70227 0.68051 0.4125 0.0
H1139 H 0.70447 0.57729 0.43665 0.0
H1140 H 0.62541 0.79751 0.41556 0.0
H1141 H 0.57781 0.72229 0.40106 0.0
H1142 H 0.6461 0.44275 0.42077 0.0
H1143 H 0.65626 0.53857 0.39347 0.0
Li1144 Li 0.61734 0.59313 0.81427 0.0
Li1145 Li 0.63242 0.66217 0.81264 0.0
Li1146 Li 0.60673 0.63985 0.79821 0.0
Li1147 Li 0.64001 0.61043 0.79753 0.0
C1148 C 0.59269 0.64328 0.82597 0.0
N1149 N 0.56941 0.63024 0.84644 0.0
C1150 C 0.59861 0.65858 0.83742 0.0
C1151 C 0.57486 0.62167 0.82491 0.0
C1152 C 0.58664 0.6516 0.84766 0.0
C1153 C 0.56332 0.61529 0.83538 0.0
C1154 C 0.66281 0.58703 0.8158 0.0
C1155 C 0.69797 0.5834 0.81253 0.0
N1156 N 0.69761 0.54216 0.81543 0.0
C1157 C 0.66278 0.54466 0.81881 0.0
C1158 C 0.68054 0.60667 0.8127 0.0
C1159 C 0.68054 0.52252 0.81856 0.0
C1160 C 0.60082 0.51591 0.82216 0.0
N1161 N 0.60997 0.55159 0.82574 0.0
C1162 C 0.61137 0.52797 0.8465 0.0
C1163 C 0.61529 0.55808 0.83761 0.0
C1164 C 0.60232 0.49026 0.84309 0.0
C1165 C 0.59684 0.48461 0.83074 0.0
H1166 H 0.59711 0.51129 0.8126 0.0
H1167 H 0.62289 0.58645 0.84013 0.0
C1168 C 0.63009 0.74206 0.82301 0.0
N1169 N 0.64142 0.70719 0.8224 0.0
C1170 C 0.63464 0.77354 0.83138 0.0
C1171 C 0.66261 0.73283 0.83822 0.0
C1172 C 0.65757 0.70222 0.82966 0.0
C1173 C 0.65084 0.7687 0.8393 0.0
H1174 H 0.61701 0.74457 0.81735 0.0
H1175 H 0.66607 0.67378 0.82916 0.0
C1176 C 0.60257 0.56467 0.78779 0.0
N1177 N 0.57798 0.53577 0.76943 0.0
C1178 C 0.61 0.55763 0.77599 0.0
C1179 C 0.5827 0.55666 0.79028 0.0
C1180 C 0.59732 0.54305 0.76683 0.0
C1181 C 0.57048 0.5422 0.78086 0.0
C1182 C 0.63729 0.70931 0.79336 0.0
C1183 C 0.62306 0.73952 0.79068 0.0
C1184 C 0.65686 0.72133 0.79535 0.0
C1185 C 0.62864 0.78142 0.79014 0.0
C1186 C 0.66184 0.76355 0.79475 0.0
N1187 N 0.64775 0.79246 0.79218 0.0
C1188 C 0.57002 0.67898 0.7947 0.0
C1189 C 0.58495 0.65442 0.77637 0.0
C1190 C 0.55417 0.69522 0.78806 0.0
N1191 N 0.58493 0.6589 0.78879 0.0
C1192 C 0.56918 0.66938 0.7694 0.0
C1193 C 0.55363 0.69027 0.77527 0.0
H1194 H 0.57061 0.683 0.80454 0.0
H1195 H 0.59733 0.63971 0.77186 0.0
C1196 C 0.66314 0.54657 0.78723 0.0
N1197 N 0.6599 0.58839 0.78713 0.0
C1198 C 0.67825 0.52942 0.78014 0.0
C1199 C 0.68587 0.59852 0.77261 0.0
C1200 C 0.67074 0.61439 0.77995 0.0
C1201 C 0.68987 0.55556 0.77275 0.0
H1202 H 0.65408 0.52663 0.79292 0.0
H1203 H 0.66772 0.64746 0.77999 0.0
O1204 O 0.60434 0.6492 0.81586 0.0
O1205 O 0.64552 0.60906 0.81573 0.0
O1206 O 0.61472 0.57919 0.79686 0.0
O1207 O 0.63207 0.66821 0.79413 0.0
H1208 H 0.6124 0.67523 0.83842 0.0
H1209 H 0.57005 0.60974 0.81612 0.0
H1210 H 0.59109 0.66305 0.85659 0.0
H1211 H 0.54954 0.59841 0.83471 0.0
H1212 H 0.71178 0.59811 0.81005 0.0
H1213 H 0.64919 0.52891 0.82117 0.0
H1214 H 0.68079 0.63939 0.81029 0.0
H1215 H 0.68073 0.48966 0.8208 0.0
H1216 H 0.61561 0.53403 0.85593 0.0
H1217 H 0.59015 0.45581 0.82764 0.0
H1218 H 0.62498 0.80034 0.83207 0.0
H1219 H 0.67525 0.72802 0.84414 0.0
H1220 H 0.62534 0.5637 0.7739 0.0
H1221 H 0.57674 0.56185 0.79937 0.0
H1222 H 0.60283 0.53766 0.75764 0.0
H1223 H 0.55504 0.53612 0.78263 0.0
H1224 H 0.60785 0.7308 0.78912 0.0
H1225 H 0.66804 0.69836 0.79749 0.0
H1226 H 0.61777 0.80516 0.78813 0.0
H1227 H 0.67691 0.77333 0.79635 0.0
H1228 H 0.54242 0.71135 0.79285 0.0
H1229 H 0.56935 0.66563 0.75951 0.0
H1230 H 0.68073 0.49607 0.78037 0.0
H1231 H 0.69459 0.61969 0.76708 0.0
Li1232 Li 0.39119 0.3873 0.5459 0.0
Li1233 Li 0.36871 0.41206 0.56128 0.0
Li1234 Li 0.38111 0.34057 0.56165 0.0
Li1235 Li 0.35673 0.36166 0.54608 0.0
C1236 C 0.41411 0.411 0.56357 0.0
N1237 N 0.45059 0.44923 0.56215 0.0
C1238 C 0.41564 0.45432 0.56462 0.0
C1239 C 0.43115 0.38712 0.56184 0.0
C1240 C 0.43422 0.47305 0.56388 0.0
C1241 C 0.44945 0.40704 0.56112 0.0
C1242 C 0.35211 0.44735 0.53972 0.0
C1243 C 0.31788 0.46796 0.53897 0.0
N1244 N 0.32294 0.50193 0.53219 0.0
C1245 C 0.35695 0.48233 0.53268 0.0
C1246 C 0.33241 0.44002 0.54285 0.0
C1247 C 0.34201 0.50963 0.529 0.0
C1248 C 0.42436 0.37653 0.53008 0.0
N1249 N 0.41211 0.40463 0.53547 0.0
C1250 C 0.42997 0.46134 0.52664 0.0
C1251 C 0.41452 0.4463 0.53384 0.0
C1252 C 0.44301 0.43315 0.52102 0.0
C1253 C 0.44005 0.3902 0.52279 0.0
H1254 H 0.42201 0.34356 0.53147 0.0
H1255 H 0.40461 0.46788 0.53833 0.0
C1256 C 0.37177 0.45362 0.58329 0.0
N1257 N 0.36242 0.4567 0.57228 0.0
C1258 C 0.36876 0.48347 0.59238 0.0
C1259 C 0.34654 0.51967 0.57869 0.0
C1260 C 0.34997 0.48895 0.56983 0.0
C1261 C 0.35609 0.5172 0.59012 0.0
H1262 H 0.38165 0.42781 0.58501 0.0
H1263 H 0.3428 0.49134 0.56104 0.0
C1264 C 0.38576 0.28801 0.54353 0.0
N1265 N 0.39382 0.20359 0.5442 0.0
C1266 C 0.37092 0.25909 0.5409 0.0
C1267 C 0.40474 0.27399 0.54641 0.0
C1268 C 0.37528 0.21654 0.5413 0.0
C1269 C 0.40851 0.23119 0.54674 0.0
C1270 C 0.3437 0.36582 0.57485 0.0
C1271 C 0.35342 0.35957 0.58603 0.0
C1272 C 0.32409 0.37941 0.57485 0.0
C1273 C 0.3434 0.36729 0.59702 0.0
C1274 C 0.31459 0.38681 0.58603 0.0
N1275 N 0.32436 0.38066 0.59679 0.0
C1276 C 0.404 0.29763 0.57958 0.0
C1277 C 0.37459 0.26401 0.57315 0.0
C1278 C 0.40744 0.26656 0.58831 0.0
N1279 N 0.38773 0.29586 0.5723 0.0
C1280 C 0.37748 0.23224 0.58169 0.0
C1281 C 0.3939 0.23363 0.58957 0.0
H1282 H 0.41392 0.3239 0.57892 0.0
H1283 H 0.3616 0.26389 0.56738 0.0
C1284 C 0.33605 0.34604 0.52408 0.0
N1285 N 0.33523 0.34272 0.53651 0.0
C1286 C 0.32058 0.3309 0.51687 0.0
C1287 C 0.3037 0.30976 0.53543 0.0
C1288 C 0.31956 0.32499 0.54226 0.0
C1289 C 0.30412 0.31232 0.52254 0.0
H1290 H 0.34884 0.36003 0.51979 0.0
H1291 H 0.31943 0.32249 0.55216 0.0
O1292 O 0.396 0.39215 0.56397 0.0
O1293 O 0.36655 0.41988 0.54314 0.0
O1294 O 0.38169 0.32978 0.54339 0.0
O1295 O 0.35339 0.35917 0.56398 0.0
H1296 H 0.4026 0.47337 0.5658 0.0
H1297 H 0.43023 0.35362 0.56088 0.0
H1298 H 0.4356 0.50656 0.56461 0.0
H1299 H 0.46273 0.38897 0.5597 0.0
H1300 H 0.30259 0.46271 0.54138 0.0
H1301 H 0.37209 0.48831 0.53006 0.0
H1302 H 0.32842 0.41336 0.54834 0.0
H1303 H 0.34556 0.53686 0.52357 0.0
H1304 H 0.43189 0.4947 0.52566 0.0
H1305 H 0.44964 0.36744 0.51851 0.0
H1306 H 0.37623 0.48003 0.60112 0.0
H1307 H 0.33683 0.54547 0.57652 0.0
H1308 H 0.35615 0.26932 0.53865 0.0
H1309 H 0.41637 0.29591 0.54857 0.0
H1310 H 0.36392 0.19381 0.53933 0.0
H1311 H 0.42309 0.21991 0.54906 0.0
H1312 H 0.36865 0.34971 0.58627 0.0
H1313 H 0.31622 0.38425 0.56633 0.0
H1314 H 0.35081 0.36286 0.60572 0.0
H1315 H 0.29944 0.39743 0.58615 0.0
H1316 H 0.42012 0.26916 0.59432 0.0
H1317 H 0.3668 0.20719 0.58225 0.0
H1318 H 0.32169 0.33299 0.50697 0.0
H1319 H 0.29123 0.29627 0.54022 0.0
Li1320 Li 0.37791 0.41148 0.18468 0.0
Li1321 Li 0.35716 0.38928 0.20077 0.0
Li1322 Li 0.39251 0.3657 0.20017 0.0
Li1323 Li 0.36679 0.34014 0.18542 0.0
C1324 C 0.39184 0.46006 0.20257 0.0
N1325 N 0.41212 0.53485 0.20273 0.0
C1326 C 0.38206 0.49726 0.19976 0.0
C1327 C 0.41192 0.46098 0.20552 0.0
C1328 C 0.39258 0.53472 0.19987 0.0
C1329 C 0.42191 0.49909 0.20554 0.0
C1330 C 0.33204 0.40599 0.18409 0.0
C1331 C 0.29704 0.39583 0.18691 0.0
N1332 N 0.29449 0.43786 0.18737 0.0
C1333 C 0.32905 0.4491 0.18456 0.0
C1334 C 0.3159 0.37911 0.18525 0.0
C1335 C 0.30996 0.46459 0.18623 0.0
C1336 C 0.37001 0.46005 0.16396 0.0
N1337 N 0.38379 0.45434 0.17288 0.0
C1338 C 0.40469 0.50572 0.16365 0.0
C1339 C 0.40108 0.47595 0.17276 0.0
C1340 C 0.39043 0.51295 0.15453 0.0
C1341 C 0.37298 0.48939 0.15472 0.0
H1342 H 0.35675 0.44134 0.16391 0.0
H1343 H 0.4122 0.46984 0.17963 0.0
C1344 C 0.32221 0.37813 0.21499 0.0
N1345 N 0.33657 0.40564 0.21177 0.0
C1346 C 0.3062 0.39117 0.22209 0.0
C1347 C 0.32052 0.46013 0.22291 0.0
C1348 C 0.33618 0.44579 0.21574 0.0
C1349 C 0.30513 0.4328 0.22603 0.0
H1350 H 0.32291 0.34634 0.21178 0.0
H1351 H 0.3478 0.46696 0.21313 0.0
C1352 C 0.40376 0.36828 0.17163 0.0
N1353 N 0.42293 0.38812 0.15002 0.0
C1354 C 0.3943 0.36247 0.16035 0.0
C1355 C 0.42297 0.38411 0.17193 0.0
C1356 C 0.40424 0.37271 0.14952 0.0
C1357 C 0.43242 0.39394 0.1609 0.0
C1358 C 0.36484 0.29055 0.2046 0.0
C1359 C 0.38021 0.26407 0.20816 0.0
C1360 C 0.34636 0.2737 0.20176 0.0
C1361 C 0.37685 0.22114 0.20874 0.0
C1362 C 0.34361 0.2306 0.20242 0.0
N1363 N 0.35878 0.20543 0.20587 0.0
C1364 C 0.41418 0.35337 0.22188 0.0
C1365 C 0.43048 0.33161 0.20371 0.0
C1366 C 0.4298 0.33883 0.22908 0.0
N1367 N 0.41481 0.34936 0.20947 0.0
C1368 C 0.44649 0.31699 0.21053 0.0
C1369 C 0.44622 0.32008 0.22342 0.0
H1370 H 0.40135 0.3671 0.22619 0.0
H1371 H 0.43039 0.32811 0.19384 0.0
C1372 C 0.34474 0.29334 0.16789 0.0
N1373 N 0.36073 0.29334 0.17543 0.0
C1374 C 0.34163 0.26029 0.15976 0.0
C1375 C 0.37153 0.22808 0.16733 0.0
C1376 C 0.37403 0.26166 0.1753 0.0
C1377 C 0.35529 0.22739 0.1593 0.0
H1378 H 0.33479 0.31964 0.16785 0.0
H1379 H 0.38686 0.26303 0.1812 0.0
O1380 O 0.38179 0.42304 0.20262 0.0
O1381 O 0.35072 0.39025 0.18283 0.0
O1382 O 0.39406 0.35952 0.18234 0.0
O1383 O 0.36791 0.33265 0.20382 0.0
H1384 H 0.36659 0.49723 0.19735 0.0
H1385 H 0.41977 0.43262 0.20772 0.0
H1386 H 0.38523 0.56367 0.19763 0.0
H1387 H 0.43746 0.50021 0.20777 0.0
H1388 H 0.28445 0.37538 0.18792 0.0
H1389 H 0.34135 0.47039 0.18377 0.0
H1390 H 0.31792 0.34569 0.18515 0.0
H1391 H 0.30747 0.49786 0.18667 0.0
H1392 H 0.41839 0.5231 0.16382 0.0
H1393 H 0.36183 0.49313 0.14767 0.0
H1394 H 0.29474 0.369 0.22443 0.0
H1395 H 0.32019 0.49256 0.22567 0.0
H1396 H 0.37935 0.35073 0.15996 0.0
H1397 H 0.43039 0.38948 0.18059 0.0
H1398 H 0.39707 0.36858 0.14073 0.0
H1399 H 0.44724 0.40646 0.16098 0.0
H1400 H 0.3946 0.27642 0.2104 0.0
H1401 H 0.33438 0.29355 0.1988 0.0
H1402 H 0.38863 0.2003 0.21144 0.0
H1403 H 0.32943 0.21714 0.20014 0.0
H1404 H 0.42875 0.34126 0.23898 0.0
H1405 H 0.4589 0.30326 0.20575 0.0
H1406 H 0.32913 0.2613 0.15357 0.0
H1407 H 0.38234 0.20321 0.16731 0.0
C1408 C 0.28104 0.31607 0.50452 0.0
C1409 C 0.28762 0.29516 0.51508 0.0
C1410 C 0.26555 0.30001 0.49738 0.0
C1411 C 0.25627 0.26239 0.50097 0.0
C1412 C 0.26277 0.24122 0.51163 0.0
C1413 C 0.27843 0.25771 0.5185 0.0
C1414 C 0.25908 0.32332 0.48602 0.0
C1415 C 0.25318 0.20109 0.51577 0.0
C1416 C 0.2046 0.23963 0.48926 0.0
C1417 C 0.20838 0.21061 0.47992 0.0
C1418 C 0.22007 0.25686 0.49616 0.0
C1419 C 0.23977 0.24506 0.49357 0.0
C1420 C 0.24368 0.21615 0.48405 0.0
C1421 C 0.22792 0.19909 0.47738 0.0
C1422 C 0.21531 0.28724 0.50633 0.0
C1423 C 0.26451 0.20319 0.48093 0.0
H1424 H 0.28786 0.3453 0.50188 0.0
H1425 H 0.28363 0.24092 0.52651 0.0
H1426 H 0.26023 0.30274 0.47786 0.0
H1427 H 0.24337 0.3326 0.4869 0.0
H1428 H 0.26807 0.35174 0.48436 0.0
H1429 H 0.25973 0.18891 0.52441 0.0
H1430 H 0.23715 0.20607 0.51724 0.0
H1431 H 0.25475 0.17699 0.50852 0.0
H1432 H 0.18949 0.24826 0.49131 0.0
H1433 H 0.23087 0.17704 0.47006 0.0
H1434 H 0.22307 0.31721 0.50473 0.0
H1435 H 0.22064 0.27476 0.51524 0.0
H1436 H 0.19923 0.2935 0.50709 0.0
H1437 H 0.27348 0.23105 0.4786 0.0
H1438 H 0.26506 0.18109 0.47308 0.0
H1439 H 0.27152 0.18818 0.48901 0.0
C1440 C 0.96105 0.94028 0.50228 0.0
C1441 C 0.95605 0.95965 0.51342 0.0
C1442 C 0.97609 0.95631 0.49477 0.0
C1443 C 0.98661 0.99217 0.49858 0.0
C1444 C 0.98154 0.01213 0.50973 0.0
C1445 C 0.96621 0.9959 0.51694 0.0
C1446 C 0.98092 0.9345 0.48285 0.0
C1447 C 0.99254 0.05025 0.51416 0.0
C1448 C 0.03842 0.00826 0.48623 0.0
C1449 C 0.03542 0.03977 0.47752 0.0
C1450 C 0.02264 0.99246 0.49314 0.0
C1451 C 0.00336 0.0081 0.49112 0.0
C1452 C 0.00021 0.03951 0.48219 0.0
C1453 C 0.01634 0.05526 0.47556 0.0
C1454 C 0.02664 0.9595 0.50273 0.0
C1455 C 0.97982 0.05641 0.47964 0.0
H1456 H 0.95349 0.91202 0.49952 0.0
H1457 H 0.9622 0.01171 0.52537 0.0
H1458 H 0.98046 0.95703 0.47512 0.0
H1459 H 0.99612 0.92173 0.48326 0.0
H1460 H 0.97056 0.90855 0.48084 0.0
H1461 H 0.98671 0.0622 0.52302 0.0
H1462 H 0.00841 0.0427 0.51535 0.0
H1463 H 0.99156 0.07547 0.50721 0.0
H1464 H 0.05322 0.99657 0.48781 0.0
H1465 H 0.01402 0.07938 0.46873 0.0
H1466 H 0.0178 0.93117 0.50076 0.0
H1467 H 0.02207 0.97106 0.51191 0.0
H1468 H 0.04248 0.95063 0.50314 0.0
H1469 H 0.96972 0.03056 0.47711 0.0
H1470 H 0.97979 0.0798 0.47212 0.0
H1471 H 0.97376 0.0712 0.48805 0.0
C1472 C 0.28895 0.00112 0.73455 0.0
C1473 C 0.29161 0.95805 0.73295 0.0
C1474 C 0.27329 0.01675 0.74161 0.0
C1475 C 0.26017 0.98866 0.74741 0.0
C1476 C 0.26299 0.94517 0.74609 0.0
C1477 C 0.27857 0.93039 0.73879 0.0
C1478 C 0.27065 0.06336 0.74272 0.0
C1479 C 0.24942 0.91427 0.75227 0.0
C1480 C 0.2295 0.03117 0.77378 0.0
C1481 C 0.21124 0.03832 0.76805 0.0
C1482 C 0.24545 0.01425 0.76723 0.0
C1483 C 0.2432 0.0049 0.75461 0.0
C1484 C 0.22484 0.0119 0.74877 0.0
C1485 C 0.20905 0.02815 0.75558 0.0
C1486 C 0.26476 0.00672 0.7738 0.0
C1487 C 0.22192 0.00264 0.73528 0.0
H1488 H 0.29914 0.02277 0.73031 0.0
H1489 H 0.2803 0.8971 0.7375 0.0
H1490 H 0.25595 0.07248 0.7391 0.0
H1491 H 0.27115 0.07279 0.75251 0.0
H1492 H 0.28216 0.08099 0.73763 0.0
H1493 H 0.25422 0.88152 0.75084 0.0
H1494 H 0.24878 0.92052 0.76228 0.0
H1495 H 0.23422 0.9178 0.74862 0.0
H1496 H 0.23146 0.03939 0.78335 0.0
H1497 H 0.19491 0.03269 0.75112 0.0
H1498 H 0.2765 0.02637 0.7697 0.0
H1499 H 0.26934 0.97373 0.77268 0.0
H1500 H 0.26381 0.01385 0.78377 0.0
H1501 H 0.23254 0.02108 0.72974 0.0
H1502 H 0.20673 0.00998 0.73212 0.0
H1503 H 0.22494 0.96924 0.73343 0.0
C1504 C 0.04128 0.25045 0.76065 0.0
C1505 C 0.0389 0.21215 0.76672 0.0
C1506 C 0.02581 0.26814 0.75385 0.0
C1507 C 0.0076 0.24677 0.75295 0.0
C1508 C 0.00506 0.20816 0.75903 0.0
C1509 C 0.02069 0.19146 0.76591 0.0
C1510 C 0.02901 0.30956 0.74755 0.0
C1511 C 0.98588 0.18433 0.75821 0.0
C1512 C 0.96145 0.30641 0.74383 0.0
C1513 C 0.9599 0.29679 0.73129 0.0
C1514 C 0.97703 0.29075 0.75096 0.0
C1515 C 0.99128 0.26446 0.74546 0.0
C1516 C 0.98986 0.2547 0.73282 0.0
C1517 C 0.97427 0.27118 0.72587 0.0
C1518 C 0.97816 0.30208 0.76441 0.0
C1519 C 0.00474 0.2266 0.72664 0.0
H1520 H 0.05537 0.2664 0.76106 0.0
H1521 H 0.01857 0.16225 0.77073 0.0
H1522 H 0.02744 0.3058 0.73747 0.0
H1523 H 0.01761 0.33221 0.75056 0.0
H1524 H 0.04381 0.32287 0.74952 0.0
H1525 H 0.98632 0.15464 0.76346 0.0
H1526 H 0.97359 0.20368 0.76179 0.0
H1527 H 0.98249 0.17714 0.74847 0.0
H1528 H 0.95028 0.32566 0.74814 0.0
H1529 H 0.97341 0.26417 0.71615 0.0
H1530 H 0.99263 0.31672 0.76647 0.0
H1531 H 0.97706 0.27351 0.77011 0.0
H1532 H 0.96625 0.32391 0.7672 0.0
H1533 H 0.01976 0.24005 0.72751 0.0
H1534 H 0.00147 0.22187 0.71673 0.0
H1535 H 0.00495 0.19573 0.73124 0.0
C1536 C 0.7708 0.79022 0.51969 0.0
C1537 C 0.78902 0.80152 0.51453 0.0
C1538 C 0.75559 0.77381 0.51242 0.0
C1539 C 0.75852 0.7692 0.49962 0.0
C1540 C 0.77664 0.78153 0.49428 0.0
C1541 C 0.79173 0.79728 0.5018 0.0
C1542 C 0.7365 0.76078 0.51846 0.0
C1543 C 0.7802 0.77749 0.48064 0.0
C1544 C 0.72684 0.68917 0.48317 0.0
C1545 C 0.7117 0.71404 0.47829 0.0
C1546 C 0.74225 0.70678 0.49003 0.0
C1547 C 0.74274 0.75042 0.49191 0.0
C1548 C 0.72782 0.77588 0.48676 0.0
C1549 C 0.71241 0.75736 0.4801 0.0
C1550 C 0.75784 0.67857 0.49545 0.0
C1551 C 0.72797 0.8226 0.48846 0.0
H1552 H 0.7684 0.79416 0.52946 0.0
H1553 H 0.80581 0.8054 0.49774 0.0
H1554 H 0.72393 0.77786 0.51431 0.0
H1555 H 0.73389 0.72704 0.51689 0.0
H1556 H 0.73653 0.76667 0.52852 0.0
H1557 H 0.79471 0.79055 0.47783 0.0
H1558 H 0.77968 0.74417 0.47793 0.0
H1559 H 0.76839 0.7938 0.47546 0.0
H1560 H 0.72667 0.65579 0.48163 0.0
H1561 H 0.70067 0.77684 0.47652 0.0
H1562 H 0.75784 0.6815 0.50561 0.0
H1563 H 0.77268 0.68809 0.49218 0.0
H1564 H 0.75546 0.64531 0.49302 0.0
H1565 H 0.7263 0.83027 0.49834 0.0
H1566 H 0.71593 0.83819 0.48327 0.0
H1567 H 0.74231 0.83567 0.4854 0.0
C1568 C 0.7071 0.02243 0.25561 0.0
C1569 C 0.71057 0.04424 0.26658 0.0
C1570 C 0.72276 0.00634 0.24865 0.0
C1571 C 0.74238 0.01164 0.25283 0.0
C1572 C 0.74602 0.03338 0.26391 0.0
C1573 C 0.7301 0.04968 0.2706 0.0
C1574 C 0.71832 0.98365 0.23681 0.0
C1575 C 0.76675 0.0394 0.2687 0.0
C1576 C 0.7812 0.93761 0.24027 0.0
C1577 C 0.79028 0.96222 0.23123 0.0
C1578 C 0.76577 0.95348 0.24749 0.0
C1579 C 0.75911 0.99478 0.24553 0.0
C1580 C 0.76827 0.01988 0.2365 0.0
C1581 C 0.78382 0.00342 0.22952 0.0
C1582 C 0.75646 0.92592 0.25713 0.0
C1583 C 0.76151 0.06402 0.2341 0.0
H1584 H 0.69208 0.0174 0.25252 0.0
H1585 H 0.73298 0.06704 0.27895 0.0
H1586 H 0.72606 0.99904 0.22905 0.0
H1587 H 0.72388 0.95117 0.23733 0.0
H1588 H 0.70227 0.98276 0.23473 0.0
H1589 H 0.76704 0.05617 0.27763 0.0
H1590 H 0.77405 0.00869 0.2699 0.0
H1591 H 0.77561 0.05732 0.26196 0.0
H1592 H 0.7859 0.90562 0.24155 0.0
H1593 H 0.79098 0.02296 0.22274 0.0
H1594 H 0.74065 0.92091 0.25494 0.0
H1595 H 0.75715 0.94137 0.26624 0.0
H1596 H 0.76383 0.89506 0.2578 0.0
H1597 H 0.7457 0.06407 0.23142 0.0
H1598 H 0.77017 0.0794 0.22672 0.0
H1599 H 0.76283 0.08287 0.24261 0.0
C1600 C 0.96539 0.82062 0.24184 0.0
C1601 C 0.95764 0.79751 0.23201 0.0
C1602 C 0.98044 0.80427 0.24929 0.0
C1603 C 0.98791 0.76389 0.24684 0.0
C1604 C 0.97996 0.74019 0.23706 0.0
C1605 C 0.96491 0.75725 0.22978 0.0
C1606 C 0.98858 0.83046 0.25964 0.0
C1607 C 0.98749 0.69694 0.23419 0.0
C1608 C 0.0397 0.73622 0.25732 0.0
C1609 C 0.03598 0.71223 0.26784 0.0
C1610 C 0.0242 0.75364 0.2505 0.0
C1611 C 0.00447 0.74679 0.25426 0.0
C1612 C 0.00058 0.7228 0.2649 0.0
C1613 C 0.01639 0.70583 0.27158 0.0
C1614 C 0.02893 0.77897 0.23918 0.0
C1615 C 0.97973 0.71488 0.2692 0.0
H1616 H 0.95996 0.85187 0.24355 0.0
H1617 H 0.95874 0.7389 0.22235 0.0
H1618 H 0.98754 0.81319 0.26844 0.0
H1619 H 0.00444 0.83701 0.25799 0.0
H1620 H 0.98065 0.8606 0.26062 0.0
H1621 H 0.97944 0.68227 0.22642 0.0
H1622 H 0.00341 0.69832 0.23184 0.0
H1623 H 0.98601 0.67664 0.24239 0.0
H1624 H 0.05478 0.74082 0.25428 0.0
H1625 H 0.01342 0.68783 0.2798 0.0
H1626 H 0.02232 0.8105 0.23995 0.0
H1627 H 0.02239 0.7639 0.23096 0.0
H1628 H 0.04507 0.78237 0.2377 0.0
H1629 H 0.97208 0.74493 0.27087 0.0
H1630 H 0.97922 0.69605 0.27776 0.0
H1631 H 0.97134 0.69822 0.26195 0.0
C1632 C 0.29241 0.77627 0.00544 0.0
C1633 C 0.28831 0.80275 0.01536 0.0
C1634 C 0.27711 0.75887 0.99843 0.0
C1635 C 0.25727 0.76863 0.00133 0.0
C1636 C 0.25306 0.79599 0.0112 0.0
C1637 C 0.26865 0.81251 0.01815 0.0
C1638 C 0.28215 0.72939 0.98808 0.0
C1639 C 0.23211 0.8076 0.01445 0.0
C1640 C 0.21841 0.75048 0.97676 0.0
C1641 C 0.20991 0.71276 0.98062 0.0
C1642 C 0.23371 0.76922 0.98347 0.0
C1643 C 0.24089 0.7495 0.9942 0.0
C1644 C 0.23247 0.71137 0.99813 0.0
C1645 C 0.21701 0.69362 0.99134 0.0
C1646 C 0.24223 0.81006 0.97905 0.0
C1647 C 0.23983 0.68928 0.00949 0.0
H1648 H 0.3076 0.76833 0.00336 0.0
H1649 H 0.26548 0.83331 0.02575 0.0
H1650 H 0.27553 0.69835 0.98988 0.0
H1651 H 0.27581 0.74098 0.97932 0.0
H1652 H 0.29833 0.72553 0.98689 0.0
H1653 H 0.23139 0.83036 0.02213 0.0
H1654 H 0.22459 0.82123 0.00633 0.0
H1655 H 0.22374 0.77928 0.01711 0.0
H1656 H 0.21327 0.76518 0.96839 0.0
H1657 H 0.21035 0.66485 0.99451 0.0
H1658 H 0.25815 0.8062 0.97695 0.0
H1659 H 0.24104 0.83393 0.98639 0.0
H1660 H 0.23465 0.8219 0.9707 0.0
H1661 H 0.25584 0.68263 0.0086 0.0
H1662 H 0.23194 0.65946 0.01118 0.0
H1663 H 0.23794 0.70963 0.01764 0.0
C1664 C 0.01965 0.54893 0.97407 0.0
C1665 C 0.03895 0.54266 0.9784 0.0
C1666 C 0.00329 0.53393 0.98061 0.0
C1667 C 0.00625 0.51275 0.99186 0.0
C1668 C 0.02564 0.50658 0.99635 0.0
C1669 C 0.04175 0.52131 0.98952 0.0
C1670 C 0.98282 0.54077 0.97549 0.0
C1671 C 0.02937 0.48444 0.00837 0.0
C1672 C 0.96415 0.50791 0.0148 0.0
C1673 C 0.95748 0.46675 0.01336 0.0
C1674 C 0.97994 0.52334 0.00782 0.0
C1675 C 0.98908 0.49725 0.99902 0.0
C1676 C 0.98211 0.45608 0.99727 0.0
C1677 C 0.9665 0.44122 0.00452 0.0
C1678 C 0.98705 0.56735 0.01001 0.0
C1679 C 0.99135 0.4275 0.98786 0.0
H1680 H 0.01729 0.56593 0.9656 0.0
H1681 H 0.05658 0.51562 0.99285 0.0
H1682 H 0.97518 0.5104 0.97439 0.0
H1683 H 0.97395 0.55967 0.982 0.0
H1684 H 0.98307 0.55689 0.96646 0.0
H1685 H 0.04532 0.48283 0.01068 0.0
H1686 H 0.02154 0.50075 0.01593 0.0
H1687 H 0.02344 0.45224 0.00795 0.0
H1688 H 0.95704 0.52819 0.02141 0.0
H1689 H 0.96165 0.40923 0.00343 0.0
H1690 H 0.98629 0.58556 0.00136 0.0
H1691 H 0.00274 0.56689 0.01295 0.0
H1692 H 0.97825 0.58372 0.01714 0.0
H1693 H 0.99125 0.44258 0.97869 0.0
H1694 H 0.98355 0.39712 0.98719 0.0
H1695 H 0.007 0.42152 0.9903 0.0
C1696 C 0.26864 0.43742 0.22936 0.0
C1697 C 0.28782 0.44808 0.23305 0.0
C1698 C 0.25209 0.4532 0.23556 0.0
C1699 C 0.25483 0.48015 0.24572 0.0
C1700 C 0.27416 0.49048 0.24961 0.0
C1701 C 0.29043 0.4744 0.2432 0.0
C1702 C 0.2317 0.44169 0.23111 0.0
C1703 C 0.27765 0.51889 0.26046 0.0
C1704 C 0.21384 0.5549 0.25465 0.0
C1705 C 0.20528 0.53429 0.26467 0.0
C1706 C 0.2298 0.53731 0.24828 0.0
C1707 C 0.23747 0.49837 0.25212 0.0
C1708 C 0.22881 0.47728 0.26219 0.0
C1709 C 0.21275 0.49545 0.26832 0.0
C1710 C 0.23853 0.56054 0.23751 0.0
C1711 C 0.2367 0.43589 0.2666 0.0
H1712 H 0.26656 0.41753 0.22141 0.0
H1713 H 0.30523 0.48233 0.24617 0.0
H1714 H 0.22309 0.42742 0.23869 0.0
H1715 H 0.2237 0.47018 0.22817 0.0
H1716 H 0.23212 0.4195 0.22328 0.0
H1717 H 0.2936 0.5229 0.26252 0.0
H1718 H 0.27115 0.55002 0.25861 0.0
H1719 H 0.27022 0.50621 0.26873 0.0
H1720 H 0.20796 0.58474 0.25174 0.0
H1721 H 0.20631 0.47969 0.27616 0.0
H1722 H 0.23822 0.54059 0.22919 0.0
H1723 H 0.25422 0.56815 0.2394 0.0
H1724 H 0.2305 0.58996 0.2355 0.0
H1725 H 0.23647 0.41286 0.259 0.0
H1726 H 0.22807 0.42318 0.27442 0.0
H1727 H 0.2523 0.43944 0.26953 0.0
C1728 C 0.71161 0.21039 0.99159 0.0
C1729 C 0.71098 0.21532 0.97881 0.0
C1730 C 0.72698 0.2278 0.99853 0.0
C1731 C 0.74227 0.24986 0.99249 0.0
C1732 C 0.74173 0.25472 0.97956 0.0
C1733 C 0.72594 0.23773 0.97288 0.0
C1734 C 0.72686 0.22266 0.01231 0.0
C1735 C 0.75796 0.27732 0.97278 0.0
C1736 C 0.774 0.32435 0.01111 0.0
C1737 C 0.79031 0.29924 0.0139 0.0
C1738 C 0.75821 0.30869 0.00415 0.0
C1739 C 0.759 0.26723 -0.00031 0.0
C1740 C 0.77565 0.24205 0.00229 0.0
C1741 C 0.79104 0.25826 0.00947 0.0
C1742 C 0.74054 0.3362 0.00175 0.0
C1743 C 0.7772 0.19798 0.99751 0.0
H1744 H 0.6999 0.19334 0.99615 0.0
H1745 H 0.72548 0.24123 0.96298 0.0
H1746 H 0.74011 0.20504 0.01528 0.0
H1747 H 0.72748 0.25366 0.01682 0.0
H1748 H 0.71351 0.20594 0.01562 0.0
H1749 H 0.75536 0.27821 0.9627 0.0
H1750 H 0.75924 0.30977 0.9762 0.0
H1751 H 0.77232 0.26176 0.97453 0.0
H1752 H 0.7734 0.35595 0.01463 0.0
H1753 H 0.80377 0.23902 0.01154 0.0
H1754 H 0.72707 0.32151 0.0056 0.0
H1755 H 0.73818 0.33966 0.99172 0.0
H1756 H 0.74225 0.36771 0.00585 0.0
H1757 H 0.76505 0.17875 0.0013 0.0
H1758 H 0.79148 0.18311 -4e-05 0.0
H1759 H 0.77563 0.19779 0.98736 0.0
C1760 C 0.7086 0.54999 0.75301 0.0
C1761 C 0.70623 0.53815 0.76532 0.0
C1762 C 0.72411 0.53395 0.7459 0.0
C1763 C 0.73766 0.50575 0.75129 0.0
C1764 C 0.73534 0.49372 0.76372 0.0
C1765 C 0.71958 0.50993 0.77057 0.0
C1766 C 0.726 0.54715 0.73264 0.0
C1767 C 0.74963 0.46407 0.76981 0.0
C1768 C 0.76837 0.43604 0.73056 0.0
C1769 C 0.78628 0.45786 0.73008 0.0
C1770 C 0.75236 0.45139 0.73737 0.0
C1771 C 0.75442 0.48921 0.74396 0.0
C1772 C 0.77252 0.51124 0.74356 0.0
C1773 C 0.78821 0.49539 0.73657 0.0
C1774 C 0.73322 0.42728 0.73748 0.0
C1775 C 0.77534 0.55143 0.75057 0.0
H1776 H 0.69816 0.57148 0.7489 0.0
H1777 H 0.7179 0.50112 0.78013 0.0
H1778 H 0.74038 0.56289 0.73117 0.0
H1779 H 0.72569 0.51933 0.72658 0.0
H1780 H 0.71401 0.56869 0.72978 0.0
H1781 H 0.7457 0.45775 0.77954 0.0
H1782 H 0.74997 0.43405 0.76476 0.0
H1783 H 0.76477 0.47724 0.7695 0.0
H1784 H 0.76679 0.40724 0.72544 0.0
H1785 H 0.80212 0.51206 0.73632 0.0
H1786 H 0.72106 0.44719 0.73398 0.0
H1787 H 0.72937 0.41832 0.74702 0.0
H1788 H 0.73398 0.39859 0.73178 0.0
H1789 H 0.76441 0.57493 0.74746 0.0
H1790 H 0.79039 0.56456 0.74937 0.0
H1791 H 0.77274 0.54607 0.76051 0.0
C1792 C 0.5217 0.05968 0.97997 0.0
C1793 C 0.5398 0.03862 0.9793 0.0
C1794 C 0.50583 0.04305 0.98665 0.0
C1795 C 0.50821 0.00463 0.99289 0.0
C1796 C 0.52643 0.98317 0.99221 0.0
C1797 C 0.54199 0.00036 0.98538 0.0
C1798 C 0.48656 0.06663 0.98707 0.0
C1799 C 0.52958 0.94236 0.99885 0.0
C1800 C 0.47399 0.98314 0.01974 0.0
C1801 C 0.46022 0.95584 0.01448 0.0
C1802 C 0.48979 0.99892 0.01284 0.0
C1803 C 0.49176 0.98738 0.00035 0.0
C1804 C 0.47794 0.95966 0.995 0.0
C1805 C 0.46238 0.94402 0.00216 0.0
C1806 C 0.50436 0.02799 0.01892 0.0
C1807 C 0.47948 0.94696 0.98168 0.0
H1808 H 0.51989 0.08901 0.97515 0.0
H1809 H 0.55603 0.98421 0.98498 0.0
H1810 H 0.47439 0.04654 0.98369 0.0
H1811 H 0.48301 0.0752 0.99669 0.0
H1812 H 0.48696 0.09553 0.98145 0.0
H1813 H 0.54455 0.92932 0.99724 0.0
H1814 H 0.52751 0.94688 0.00887 0.0
H1815 H 0.51848 0.91914 0.99579 0.0
H1816 H 0.47249 0.99188 0.02932 0.0
H1817 H 0.45164 0.9232 0.99805 0.0
H1818 H 0.50435 0.05856 0.01415 0.0
H1819 H 0.5195 0.01507 0.01818 0.0
H1820 H 0.50094 0.03323 0.02878 0.0
H1821 H 0.47863 0.97498 0.97572 0.0
H1822 H 0.4676 0.92497 0.97893 0.0
H1823 H 0.49396 0.93199 0.97993 0.0
C1824 C 0.4692 0.32349 0.24153 0.0
C1825 C 0.46268 0.30279 0.23092 0.0
C1826 C 0.48443 0.30697 0.2488 0.0
C1827 C 0.49354 0.26909 0.2453 0.0
C1828 C 0.48718 0.2482 0.23455 0.0
C1829 C 0.47176 0.26514 0.22755 0.0
C1830 C 0.49074 0.33 0.26024 0.0
C1831 C 0.49661 0.20783 0.23048 0.0
C1832 C 0.54466 0.24449 0.25765 0.0
C1833 C 0.54037 0.21546 0.2669 0.0
C1834 C 0.52955 0.26229 0.25056 0.0
C1835 C 0.50968 0.2511 0.25289 0.0
C1836 C 0.50525 0.22218 0.26232 0.0
C1837 C 0.52068 0.20451 0.26917 0.0
C1838 C 0.53486 0.2926 0.24048 0.0
C1839 C 0.48423 0.2099 0.26517 0.0
H1840 H 0.46248 0.35286 0.24413 0.0
H1841 H 0.46662 0.24845 0.2195 0.0
H1842 H 0.48911 0.30946 0.26838 0.0
H1843 H 0.50656 0.33862 0.25958 0.0
H1844 H 0.48197 0.35879 0.26179 0.0
H1845 H 0.49031 0.19607 0.22172 0.0
H1846 H 0.51274 0.21227 0.22926 0.0
H1847 H 0.49457 0.18364 0.23765 0.0
H1848 H 0.5599 0.25269 0.25581 0.0
H1849 H 0.51733 0.18242 0.27642 0.0
H1850 H 0.52729 0.32282 0.24201 0.0
H1851 H 0.52973 0.28038 0.23149 0.0
H1852 H 0.55101 0.29831 0.23993 0.0
H1853 H 0.4754 0.23804 0.2674 0.0
H1854 H 0.48327 0.18778 0.273 0.0
H1855 H 0.47739 0.19517 0.257 0.0
C1856 C 0.4555 0.77888 0.74382 0.0
C1857 C 0.45932 0.79192 0.73178 0.0
C1858 C 0.47059 0.76214 0.75115 0.0
C1859 C 0.48999 0.75931 0.74637 0.0
C1860 C 0.49396 0.77323 0.73428 0.0
C1861 C 0.4785 0.78896 0.72707 0.0
C1862 C 0.46573 0.74684 0.76391 0.0
C1863 C 0.51453 0.77154 0.72896 0.0
C1864 C 0.53243 0.75011 0.76898 0.0
C1865 C 0.53716 0.70774 0.76803 0.0
C1866 C 0.51715 0.76741 0.76193 0.0
C1867 C 0.50612 0.74141 0.75397 0.0
C1868 C 0.51067 0.6984 0.75314 0.0
C1869 C 0.52633 0.68216 0.76008 0.0
C1870 C 0.51302 0.81356 0.76286 0.0
C1871 C 0.49898 0.66956 0.74494 0.0
H1872 H 0.4406 0.78089 0.7474 0.0
H1873 H 0.48142 0.79937 0.71777 0.0
H1874 H 0.4695 0.71328 0.76473 0.0
H1875 H 0.47471 0.76383 0.7708 0.0
H1876 H 0.44987 0.75097 0.76621 0.0
H1877 H 0.51526 0.78503 0.71957 0.0
H1878 H 0.52493 0.78881 0.73497 0.0
H1879 H 0.5197 0.73875 0.72855 0.0
H1880 H 0.54097 0.76986 0.77507 0.0
H1881 H 0.52997 0.64931 0.75944 0.0
H1882 H 0.49758 0.81879 0.76587 0.0
H1883 H 0.51466 0.8283 0.75369 0.0
H1884 H 0.52309 0.82949 0.76941 0.0
H1885 H 0.48308 0.67116 0.74735 0.0
H1886 H 0.50394 0.63664 0.74569 0.0
H1887 H 0.5004 0.67954 0.73522 0.0
C1888 C 0.47853 0.43105 0.51462 0.0
C1889 C 0.45968 0.44866 0.51344 0.0
C1890 C 0.49453 0.44636 0.50779 0.0
C1891 C 0.49158 0.48003 0.49958 0.0
C1892 C 0.47254 0.49759 0.49824 0.0
C1893 C 0.45682 0.4817 0.50519 0.0
C1894 C 0.51465 0.42692 0.50948 0.0
C1895 C 0.4688 0.5334 0.48954 0.0
C1896 C 0.53533 0.54748 0.49069 0.0
C1897 C 0.53999 0.53193 0.47901 0.0
C1898 C 0.51971 0.53061 0.49753 0.0
C1899 C 0.50847 0.49746 0.49255 0.0
C1900 C 0.51316 0.48148 0.48079 0.0
C1901 C 0.52889 0.49889 0.47416 0.0
C1902 C 0.51519 0.54834 0.51007 0.0
C1903 C 0.50144 0.44627 0.47516 0.0
H1904 H 0.48087 0.40584 0.52109 0.0
H1905 H 0.44222 0.49503 0.50412 0.0
H1906 H 0.52039 0.41576 0.50052 0.0
H1907 H 0.52518 0.45062 0.51296 0.0
H1908 H 0.51437 0.40029 0.516 0.0
H1909 H 0.45305 0.54302 0.48941 0.0
H1910 H 0.4779 0.56065 0.49224 0.0
H1911 H 0.47324 0.52456 0.48008 0.0
H1912 H 0.54404 0.57263 0.49454 0.0
H1913 H 0.5323 0.4871 0.46507 0.0
H1914 H 0.51604 0.52338 0.5171 0.0
H1915 H 0.49992 0.56081 0.51024 0.0
H1916 H 0.52552 0.57374 0.51269 0.0
H1917 H 0.50173 0.41869 0.48131 0.0
H1918 H 0.50722 0.43693 0.46602 0.0
H1919 H 0.48578 0.45573 0.47412 0.0
C1920 C 0.15057 0.77899 0.36273 0.0
C1921 C 0.15173 0.7921 0.35044 0.0
C1922 C 0.15158 0.80773 0.37241 0.0
C1923 C 0.15357 0.85069 0.36974 0.0
C1924 C 0.15548 0.86404 0.35741 0.0
C1925 C 0.1546 0.83455 0.3479 0.0
C1926 C 0.14959 0.79229 0.38545 0.0
C1927 C 0.15761 0.90963 0.35422 0.0
C1928 C 0.13151 0.92637 0.39265 0.0
C1929 C 0.1483 0.94092 0.39882 0.0
C1930 C 0.13308 0.89711 0.38315 0.0
C1931 C 0.15191 0.88185 0.37978 0.0
C1932 C 0.16895 0.89619 0.38602 0.0
C1933 C 0.16695 0.92577 0.39545 0.0
C1934 C 0.11457 0.88281 0.37665 0.0
C1935 C 0.18924 0.88025 0.38274 0.0
H1936 H 0.14806 0.74637 0.3648 0.0
H1937 H 0.15585 0.84484 0.33845 0.0
H1938 H 0.1615 0.80541 0.39128 0.0
H1939 H 0.13532 0.80298 0.38934 0.0
H1940 H 0.15015 0.75773 0.38604 0.0
H1941 H 0.16039 0.91459 0.34427 0.0
H1942 H 0.14392 0.92652 0.35679 0.0
H1943 H 0.1699 0.92374 0.35951 0.0
H1944 H 0.11711 0.93858 0.39508 0.0
H1945 H 0.17994 0.93683 0.40026 0.0
H1946 H 0.11295 0.84853 0.37755 0.0
H1947 H 0.11563 0.88996 0.3667 0.0
H1948 H 0.10107 0.89789 0.38037 0.0
H1949 H 0.18978 0.84589 0.38388 0.0
H1950 H 0.20098 0.89446 0.3885 0.0
H1951 H 0.19248 0.88701 0.37295 0.0
C1952 C 0.08571 0.31384 0.39394 0.0
C1953 C 0.10084 0.28405 0.39341 0.0
C1954 C 0.08423 0.34535 0.38503 0.0
C1955 C 0.09829 0.34714 0.37542 0.0
C1956 C 0.11335 0.31669 0.37471 0.0
C1957 C 0.11445 0.28555 0.38371 0.0
C1958 C 0.06792 0.37721 0.38604 0.0
C1959 C 0.1287 0.31771 0.36465 0.0
C1960 C 0.0889 0.41054 0.34652 0.0
C1961 C 0.09992 0.44665 0.3489 0.0
C1962 C 0.08778 0.37824 0.3552 0.0
C1963 C 0.09802 0.38215 0.36648 0.0
C1964 C 0.1089 0.41881 0.36901 0.0
C1965 C 0.10972 0.45058 0.3602 0.0
C1966 C 0.07596 0.33964 0.35222 0.0
C1967 C 0.12013 0.42404 0.38091 0.0
H1968 H 0.07504 0.31253 0.40135 0.0
H1969 H 0.12636 0.26302 0.38335 0.0
H1970 H 0.07435 0.40854 0.38766 0.0
H1971 H 0.0595 0.37878 0.37731 0.0
H1972 H 0.05751 0.37004 0.39364 0.0
H1973 H 0.13885 0.29055 0.36506 0.0
H1974 H 0.12144 0.3181 0.35551 0.0
H1975 H 0.13757 0.34667 0.3654 0.0
H1976 H 0.08114 0.40755 0.33785 0.0
H1977 H 0.11852 0.47812 0.36202 0.0
H1978 H 0.06504 0.3335 0.35959 0.0
H1979 H 0.08591 0.31221 0.35178 0.0
H1980 H 0.06802 0.34237 0.34333 0.0
H1981 H 0.11008 0.41964 0.38885 0.0
H1982 H 0.12716 0.45522 0.38167 0.0
H1983 H 0.1318 0.39989 0.38158 0.0
C1984 C 0.132 0.3041 0.85879 0.0
C1985 C 0.14793 0.28261 0.85358 0.0
C1986 C 0.13499 0.33411 0.86795 0.0
C1987 C 0.1544 0.34271 0.87204 0.0
C1988 C 0.17058 0.32117 0.86682 0.0
C1989 C 0.16716 0.29142 0.85759 0.0
C1990 C 0.11735 0.35672 0.87321 0.0
C1991 C 0.19146 0.32936 0.87103 0.0
C1992 C 0.15985 0.44727 0.88786 0.0
C1993 C 0.15741 0.43614 0.90022 0.0
C1994 C 0.1599 0.41689 0.8786 0.0
C1995 C 0.15753 0.37441 0.8818 0.0
C1996 C 0.1562 0.36281 0.89432 0.0
C1997 C 0.15606 0.39388 0.90339 0.0
C1998 C 0.16127 0.4305 0.86534 0.0
C1999 C 0.15388 0.31779 0.8981 0.0
H2000 H 0.11715 0.29779 0.85558 0.0
H2001 H 0.17949 0.27457 0.85364 0.0
H2002 H 0.11644 0.35119 0.88326 0.0
H2003 H 0.119 0.39081 0.87182 0.0
H2004 H 0.10325 0.34657 0.86894 0.0
H2005 H 0.20241 0.31004 0.86601 0.0
H2006 H 0.1952 0.36272 0.86968 0.0
H2007 H 0.19278 0.32275 0.881 0.0
H2008 H 0.16068 0.47994 0.88536 0.0
H2009 H 0.1544 0.38519 0.91296 0.0
H2010 H 0.1469 0.42508 0.86072 0.0
H2011 H 0.17252 0.41183 0.86039 0.0
H2012 H 0.16509 0.46405 0.86446 0.0
H2013 H 0.13918 0.30624 0.89517 0.0
H2014 H 0.15521 0.31359 0.9082 0.0
H2015 H 0.16515 0.29814 0.8935 0.0
C2016 C 0.11973 0.79388 0.88541 0.0
C2017 C 0.10398 0.78135 0.89291 0.0
C2018 C 0.11727 0.82496 0.87651 0.0
C2019 C 0.0986 0.84417 0.87508 0.0
C2020 C 0.08258 0.83156 0.88255 0.0
C2021 C 0.08547 0.80026 0.8914 0.0
C2022 C 0.13474 0.83766 0.86874 0.0
C2023 C 0.06248 0.85139 0.88127 0.0
C2024 C 0.10057 0.95126 0.86047 0.0
C2025 C 0.09643 0.94211 0.84813 0.0
C2026 C 0.10046 0.91992 0.86945 0.0
C2027 C 0.0962 0.87836 0.86599 0.0
C2028 C 0.09125 0.86913 0.85365 0.0
C2029 C 0.09142 0.90115 0.84486 0.0
C2030 C 0.10581 0.931 0.88251 0.0
C2031 C 0.08656 0.82517 0.84964 0.0
H2032 H 0.13416 0.77993 0.88667 0.0
H2033 H 0.07319 0.79039 0.89708 0.0
H2034 H 0.13113 0.83424 0.85885 0.0
H2035 H 0.13827 0.87099 0.87037 0.0
H2036 H 0.14811 0.8188 0.87077 0.0
H2037 H 0.05144 0.83731 0.88757 0.0
H2038 H 0.06349 0.88525 0.88326 0.0
H2039 H 0.05711 0.84813 0.8717 0.0
H2040 H 0.10474 0.98268 0.86306 0.0
H2041 H 0.08794 0.89399 0.83538 0.0
H2042 H 0.12016 0.91648 0.88494 0.0
H2043 H 0.09461 0.91855 0.88897 0.0
H2044 H 0.10704 0.96522 0.88391 0.0
H2045 H 0.09994 0.80547 0.85053 0.0
H2046 H 0.08137 0.82377 0.83997 0.0
H2047 H 0.07505 0.81145 0.85566 0.0
C2048 C 0.83104 0.19403 0.64155 0.0
C2049 C 0.84854 0.19727 0.64838 0.0
C2050 C 0.82903 0.16389 0.63228 0.0
C2051 C 0.84493 0.13656 0.62977 0.0
C2052 C 0.86251 0.13934 0.63674 0.0
C2053 C 0.8641 0.16964 0.64595 0.0
C2054 C 0.81003 0.16163 0.62506 0.0
C2055 C 0.87984 0.11086 0.6343 0.0
C2056 C 0.83842 0.03436 0.61274 0.0
C2057 C 0.84589 0.04445 0.60109 0.0
C2058 C 0.83717 0.06454 0.62203 0.0
C2059 C 0.84358 0.10572 0.61962 0.0
C2060 C 0.85031 0.11653 0.60772 0.0
C2061 C 0.85137 0.08575 0.5986 0.0
C2062 C 0.82978 0.05193 0.63458 0.0
C2063 C 0.8573 0.16012 0.6048 0.0
H2064 H 0.81892 0.21509 0.64347 0.0
H2065 H 0.87778 0.17244 0.65105 0.0
H2066 H 0.81298 0.16835 0.61524 0.0
H2067 H 0.80379 0.1297 0.62557 0.0
H2068 H 0.7988 0.18409 0.62846 0.0
H2069 H 0.89225 0.11636 0.64077 0.0
H2070 H 0.87518 0.07781 0.63508 0.0
H2071 H 0.88528 0.11565 0.62479 0.0
H2072 H 0.83388 0.00261 0.61465 0.0
H2073 H 0.85734 0.09367 0.58966 0.0
H2074 H 0.81821 0.07387 0.63777 0.0
H2075 H 0.84209 0.0534 0.64129 0.0
H2076 H 0.82363 0.01981 0.63464 0.0
H2077 H 0.84604 0.18336 0.6076 0.0
H2078 H 0.86049 0.16432 0.59486 0.0
H2079 H 0.87094 0.16694 0.61007 0.0
C2080 C 0.88312 0.5787 0.64447 0.0
C2081 C 0.89882 0.55189 0.64726 0.0
C2082 C 0.8848 0.60851 0.63513 0.0
C2083 C 0.90269 0.61187 0.62848 0.0
C2084 C 0.91873 0.58532 0.63138 0.0
C2085 C 0.91655 0.55538 0.6407 0.0
C2086 C 0.86728 0.63596 0.63223 0.0
C2087 C 0.9381 0.58844 0.62459 0.0
C2088 C 0.89761 0.66287 0.59723 0.0
C2089 C 0.90201 0.7045 0.6 0.0
C2090 C 0.89859 0.63193 0.60631 0.0
C2091 C 0.90432 0.64291 0.6184 0.0
C2092 C 0.90984 0.6845 0.62106 0.0
C2093 C 0.90849 0.71489 0.61184 0.0
C2094 C 0.89241 0.58799 0.60314 0.0
C2095 C 0.91632 0.69729 0.63379 0.0
H2096 H 0.8693 0.57563 0.64941 0.0
H2097 H 0.92874 0.5348 0.6429 0.0
H2098 H 0.87139 0.66925 0.63328 0.0
H2099 H 0.8627 0.63129 0.62254 0.0
H2100 H 0.85444 0.62939 0.63828 0.0
H2101 H 0.94932 0.56635 0.62821 0.0
H2102 H 0.93579 0.58185 0.61469 0.0
H2103 H 0.94402 0.6206 0.6253 0.0
H2104 H 0.89245 0.65487 0.5881 0.0
H2105 H 0.91211 0.74704 0.61394 0.0
H2106 H 0.87852 0.58026 0.60804 0.0
H2107 H 0.90377 0.56538 0.60622 0.0
H2108 H 0.88996 0.58381 0.59313 0.0
H2109 H 0.90361 0.69533 0.64019 0.0
H2110 H 0.92218 0.72963 0.63401 0.0
H2111 H 0.92787 0.67577 0.63726 0.0
C2112 C 0.84121 0.52334 0.11431 0.0
C2113 C 0.84559 0.53538 0.10224 0.0
C2114 C 0.83972 0.55304 0.12372 0.0
C2115 C 0.843 0.59562 0.12099 0.0
C2116 C 0.84664 0.60808 0.10872 0.0
C2117 C 0.84776 0.57777 0.09946 0.0
C2118 C 0.83546 0.53866 0.13666 0.0
C2119 C 0.85044 0.65315 0.10547 0.0
C2120 C 0.8297 0.68077 0.1438 0.0
C2121 C 0.84798 0.6882 0.14942 0.0
C2122 C 0.82768 0.64997 0.13472 0.0
C2123 C 0.84442 0.62663 0.13109 0.0
C2124 C 0.86286 0.63371 0.13686 0.0
C2125 C 0.86438 0.66426 0.146 0.0
C2126 C 0.80775 0.6428 0.12889 0.0
C2127 C 0.88111 0.60979 0.13314 0.0
H2128 H 0.83935 0.49054 0.11643 0.0
H2129 H 0.85133 0.58704 0.09014 0.0
H2130 H 0.84879 0.543 0.14244 0.0
H2131 H 0.82348 0.55766 0.14077 0.0
H2132 H 0.83112 0.50528 0.13701 0.0
H2133 H 0.85158 0.65805 0.09539 0.0
H2134 H 0.83846 0.67326 0.10909 0.0
H2135 H 0.86442 0.66357 0.1098 0.0
H2136 H 0.81699 0.69915 0.14649 0.0
H2137 H 0.87859 0.67039 0.15021 0.0
H2138 H 0.80359 0.60943 0.12963 0.0
H2139 H 0.80841 0.65052 0.11897 0.0
H2140 H 0.79599 0.66197 0.13322 0.0
H2141 H 0.87858 0.57582 0.13422 0.0
H2142 H 0.89425 0.61867 0.13866 0.0
H2143 H 0.8844 0.61558 0.1233 0.0
C2144 C 0.87859 0.05156 0.13581 0.0
C2145 C 0.89514 0.03536 0.14192 0.0
C2146 C 0.88058 0.08215 0.12672 0.0
C2147 C 0.89958 0.09746 0.12376 0.0
C2148 C 0.91637 0.08141 0.12988 0.0
C2149 C 0.91396 0.0504 0.13886 0.0
C2150 C 0.8623 0.09845 0.12038 0.0
C2151 C 0.93683 0.09729 0.12701 0.0
C2152 C 0.9035 0.15362 0.09316 0.0
C2153 C 0.90098 0.19532 0.09673 0.0
C2154 C 0.90377 0.12144 0.1019 0.0
C2155 C 0.90161 0.13126 0.11451 0.0
C2156 C 0.89983 0.17336 0.11821 0.0
C2157 C 0.89941 0.20482 0.10929 0.0
C2158 C 0.90562 0.07685 0.09761 0.0
C2159 C 0.89758 0.1851 0.13158 0.0
H2160 H 0.86395 0.04079 0.13827 0.0
H2161 H 0.92684 0.03773 0.14344 0.0
H2162 H 0.86055 0.13222 0.1223 0.0
H2163 H 0.86375 0.09485 0.11029 0.0
H2164 H 0.8487 0.08206 0.12341 0.0
H2165 H 0.9484 0.08113 0.13246 0.0
H2166 H 0.9401 0.09304 0.1171 0.0
H2167 H 0.93768 0.13121 0.12895 0.0
H2168 H 0.905 0.14606 0.08351 0.0
H2169 H 0.89712 0.23681 0.11215 0.0
H2170 H 0.89176 0.05978 0.09967 0.0
H2171 H 0.91769 0.06086 0.10263 0.0
H2172 H 0.90856 0.07464 0.0876 0.0
H2173 H 0.88323 0.17341 0.13508 0.0
H2174 H 0.89815 0.21937 0.13302 0.0
H2175 H 0.90937 0.17033 0.13715 0.0
C2176 C 0.65771 0.78519 0.86134 0.0
C2177 C 0.65429 0.79919 0.84932 0.0
C2178 C 0.65867 0.81332 0.87118 0.0
C2179 C 0.6562 0.85645 0.86893 0.0
C2180 C 0.65366 0.87094 0.85675 0.0
C2181 C 0.65267 0.84209 0.84708 0.0
C2182 C 0.66132 0.79666 0.88405 0.0
C2183 C 0.65114 0.91676 0.85398 0.0
C2184 C 0.63411 0.92355 0.89406 0.0
C2185 C 0.65077 0.94426 0.89868 0.0
C2186 C 0.63577 0.89447 0.88452 0.0
C2187 C 0.65454 0.88602 0.87939 0.0
C2188 C 0.67148 0.90633 0.88409 0.0
C2189 C 0.6694 0.93519 0.8937 0.0
C2190 C 0.61735 0.87337 0.87976 0.0
C2191 C 0.69172 0.89799 0.87884 0.0
H2192 H 0.65873 0.75202 0.86314 0.0
H2193 H 0.65026 0.85304 0.83778 0.0
H2194 H 0.67324 0.81382 0.88887 0.0
H2195 H 0.64753 0.8015 0.88936 0.0
H2196 H 0.66491 0.76287 0.88413 0.0
H2197 H 0.651 0.92321 0.84395 0.0
H2198 H 0.63705 0.92801 0.85797 0.0
H2199 H 0.66321 0.93504 0.85826 0.0
H2200 H 0.61963 0.93091 0.89768 0.0
H2201 H 0.68236 0.95076 0.89731 0.0
H2202 H 0.61904 0.83901 0.88024 0.0
H2203 H 0.61502 0.88165 0.86997 0.0
H2204 H 0.60397 0.88238 0.88503 0.0
H2205 H 0.69516 0.86423 0.8794 0.0
H2206 H 0.70346 0.91564 0.88372 0.0
H2207 H 0.69204 0.90673 0.86899 0.0
C2208 C 0.60375 0.2844 0.88359 0.0
C2209 C 0.59587 0.28991 0.89541 0.0
C2210 C 0.60274 0.31619 0.87478 0.0
C2211 C 0.5939 0.35471 0.87789 0.0
C2212 C 0.58525 0.36003 0.88962 0.0
C2213 C 0.58623 0.32747 0.89822 0.0
C2214 C 0.61199 0.30919 0.86232 0.0
C2215 C 0.57576 0.40076 0.89329 0.0
C2216 C 0.61425 0.44874 0.8611 0.0
C2217 C 0.5996 0.45635 0.85226 0.0
C2218 C 0.61229 0.41643 0.86966 0.0
C2219 C 0.5954 0.39052 0.86929 0.0
C2220 C 0.58049 0.39798 0.86045 0.0
C2221 C 0.58272 0.43096 0.85207 0.0
C2222 C 0.6285 0.40958 0.87898 0.0
C2223 C 0.56236 0.37073 0.85972 0.0
H2224 H 0.61149 0.25584 0.88135 0.0
H2225 H 0.57978 0.33176 0.90724 0.0
H2226 H 0.60159 0.31829 0.85493 0.0
H2227 H 0.62532 0.32905 0.86138 0.0
H2228 H 0.61639 0.27617 0.8609 0.0
H2229 H 0.56825 0.39872 0.90234 0.0
H2230 H 0.58721 0.42546 0.89381 0.0
H2231 H 0.56484 0.41063 0.88628 0.0
H2232 H 0.62754 0.46754 0.86118 0.0
H2233 H 0.57122 0.43689 0.84538 0.0
H2234 H 0.6354 0.37862 0.8775 0.0
H2235 H 0.62227 0.4097 0.88841 0.0
H2236 H 0.64019 0.43378 0.87844 0.0
H2237 H 0.56676 0.33814 0.85768 0.0
H2238 H 0.55187 0.38136 0.85253 0.0
H2239 H 0.55462 0.37042 0.8687 0.0
C2240 C 0.63491 0.29582 0.36157 0.0
C2241 C 0.64937 0.2886 0.35259 0.0
C2242 C 0.63715 0.32748 0.37031 0.0
C2243 C 0.65415 0.35308 0.36999 0.0
C2244 C 0.66892 0.34585 0.36105 0.0
C2245 C 0.66639 0.31355 0.35247 0.0
C2246 C 0.62109 0.33412 0.37974 0.0
C2247 C 0.68717 0.37275 0.36038 0.0
C2248 C 0.64639 0.45911 0.38445 0.0
C2249 C 0.65442 0.45338 0.39622 0.0
C2250 C 0.64711 0.42737 0.37562 0.0
C2251 C 0.65582 0.38864 0.37867 0.0
C2252 C 0.66454 0.38301 0.39037 0.0
C2253 C 0.66382 0.41553 0.39899 0.0
C2254 C 0.63775 0.43469 0.36321 0.0
C2255 C 0.67389 0.34205 0.39396 0.0
H2256 H 0.62152 0.27732 0.3616 0.0
H2257 H 0.67775 0.30787 0.34567 0.0
H2258 H 0.62744 0.33367 0.38913 0.0
H2259 H 0.61421 0.36516 0.37837 0.0
H2260 H 0.60935 0.31 0.37918 0.0
H2261 H 0.69764 0.36201 0.3532 0.0
H2262 H 0.68292 0.40544 0.35836 0.0
H2263 H 0.69489 0.37282 0.36937 0.0
H2264 H 0.63879 0.48788 0.38225 0.0
H2265 H 0.67035 0.41104 0.40798 0.0
H2266 H 0.62443 0.41484 0.36226 0.0
H2267 H 0.6481 0.42578 0.35576 0.0
H2268 H 0.63334 0.46774 0.36187 0.0
H2269 H 0.66236 0.31753 0.39445 0.0
H2270 H 0.68145 0.3438 0.403 0.0
H2271 H 0.68474 0.33214 0.38691 0.0
C2272 C 0.59791 0.83844 0.39999 0.0
C2273 C 0.59765 0.79571 0.39729 0.0
C2274 C 0.59663 0.86828 0.3906 0.0
C2275 C 0.59523 0.85498 0.37822 0.0
C2276 C 0.59424 0.8119 0.37549 0.0
C2277 C 0.59543 0.78278 0.38506 0.0
C2278 C 0.59753 0.91398 0.39387 0.0
C2279 C 0.5929 0.7965 0.3624 0.0
C2280 C 0.58099 0.93286 0.35342 0.0
C2281 C 0.59955 0.94436 0.3488 0.0
C2282 C 0.57929 0.90388 0.36304 0.0
C2283 C 0.59656 0.88589 0.36809 0.0
C2284 C 0.6153 0.89723 0.36344 0.0
C2285 C 0.61657 0.92645 0.35392 0.0
C2286 C 0.55907 0.89255 0.36781 0.0
C2287 C 0.63407 0.87868 0.36858 0.0
H2288 H 0.59939 0.84852 0.40945 0.0
H2289 H 0.59545 0.74978 0.38291 0.0
H2290 H 0.61148 0.92762 0.39036 0.0
H2291 H 0.58519 0.93107 0.38946 0.0
H2292 H 0.59684 0.91921 0.40395 0.0
H2293 H 0.5906 0.76225 0.3619 0.0
H2294 H 0.58062 0.81222 0.35752 0.0
H2295 H 0.60673 0.80431 0.35745 0.0
H2296 H 0.56777 0.94633 0.34946 0.0
H2297 H 0.63099 0.93583 0.35061 0.0
H2298 H 0.55812 0.89953 0.37777 0.0
H2299 H 0.5565 0.8586 0.36669 0.0
H2300 H 0.54712 0.9097 0.36298 0.0
H2301 H 0.63537 0.8862 0.37849 0.0
H2302 H 0.64746 0.89035 0.36379 0.0
H2303 H 0.63366 0.84421 0.36775 0.0
C2304 C 0.36987 0.18099 0.14329 0.0
C2305 C 0.35331 0.19381 0.15002 0.0
C2306 C 0.36837 0.14986 0.13431 0.0
C2307 C 0.34984 0.131 0.13202 0.0
C2308 C 0.33304 0.14375 0.13877 0.0
C2309 C 0.33497 0.17516 0.14768 0.0
C2310 C 0.38662 0.1373 0.12725 0.0
C2311 C 0.31309 0.12413 0.1366 0.0
C2312 C 0.34594 0.0777 0.10103 0.0
C2313 C 0.3508 0.03649 0.10407 0.0
C2314 C 0.34468 0.10856 0.11013 0.0
C2315 C 0.34829 0.09783 0.12254 0.0
C2316 C 0.3522 0.05585 0.12573 0.0
C2317 C 0.35345 0.02569 0.11644 0.0
C2318 C 0.34052 0.15302 0.10637 0.0
C2319 C 0.35594 0.04312 0.13888 0.0
H2320 H 0.38401 0.19584 0.1449 0.0
H2321 H 0.32216 0.18483 0.15293 0.0
H2322 H 0.3896 0.1036 0.1286 0.0
H2323 H 0.38424 0.14231 0.11727 0.0
H2324 H 0.39988 0.15518 0.13012 0.0
H2325 H 0.30148 0.13763 0.14261 0.0
H2326 H 0.30863 0.12844 0.12688 0.0
H2327 H 0.3139 0.09007 0.1383 0.0
H2328 H 0.34401 0.08621 0.09146 0.0
H2329 H 0.35691 0.99369 0.11883 0.0
H2330 H 0.35389 0.17231 0.10789 0.0
H2331 H 0.32855 0.16638 0.1121 0.0
H2332 H 0.3362 0.15553 0.09655 0.0
H2333 H 0.37003 0.05702 0.14209 0.0
H2334 H 0.35688 0.00873 0.13995 0.0
H2335 H 0.34406 0.05506 0.14493 0.0
C2336 C 0.37803 0.57091 0.14126 0.0
C2337 C 0.3936 0.54474 0.14481 0.0
C2338 C 0.38042 0.60015 0.13181 0.0
C2339 C 0.39886 0.60348 0.12579 0.0
C2340 C 0.41475 0.57761 0.12943 0.0
C2341 C 0.41193 0.54849 0.13891 0.0
C2342 C 0.36313 0.62731 0.12823 0.0
C2343 C 0.43462 0.58036 0.12321 0.0
C2344 C 0.39614 0.65279 0.09417 0.0
C2345 C 0.40072 0.6945 0.0968 0.0
C2346 C 0.39635 0.62236 0.10343 0.0
C2347 C 0.40127 0.63394 0.1156 0.0
C2348 C 0.40681 0.67556 0.1182 0.0
C2349 C 0.40643 0.70536 0.10877 0.0
C2350 C 0.39043 0.57824 0.10029 0.0
C2351 C 0.41218 0.68909 0.13106 0.0
H2352 H 0.36394 0.56864 0.14592 0.0
H2353 H 0.42395 0.52806 0.14153 0.0
H2354 H 0.36711 0.66067 0.12925 0.0
H2355 H 0.35934 0.62208 0.11844 0.0
H2356 H 0.34982 0.62098 0.1339 0.0
H2357 H 0.4456 0.55881 0.12734 0.0
H2358 H 0.43308 0.57278 0.11331 0.0
H2359 H 0.4404 0.61266 0.12382 0.0
H2360 H 0.39201 0.64409 0.0849 0.0
H2361 H 0.40977 0.7376 0.11092 0.0
H2362 H 0.37622 0.57066 0.10484 0.0
H2363 H 0.4016 0.55587 0.10377 0.0
H2364 H 0.38868 0.57353 0.09024 0.0
H2365 H 0.39892 0.68752 0.13702 0.0
H2366 H 0.41804 0.72142 0.13132 0.0
H2367 H 0.42338 0.66777 0.13503 0.0
C2368 C 0.34327 0.66177 0.64924 0.0
C2369 C 0.34639 0.70389 0.64638 0.0
C2370 C 0.34288 0.63133 0.63999 0.0
C2371 C 0.34571 0.64334 0.6276 0.0
C2372 C 0.34798 0.686 0.62461 0.0
C2373 C 0.34832 0.71576 0.63404 0.0
C2374 C 0.34031 0.58614 0.64353 0.0
C2375 C 0.35107 0.70002 0.6115 0.0
C2376 C 0.3695 0.56478 0.60626 0.0
C2377 C 0.35326 0.54992 0.59959 0.0
C2378 C 0.36719 0.59508 0.61541 0.0
C2379 C 0.34815 0.61109 0.61793 0.0
C2380 C 0.33167 0.59652 0.61119 0.0
C2381 C 0.33443 0.56606 0.60208 0.0
C2382 C 0.38515 0.60999 0.62237 0.0
C2383 C 0.31117 0.61295 0.61364 0.0
H2384 H 0.34151 0.65252 0.65876 0.0
H2385 H 0.35098 0.74817 0.63176 0.0
H2386 H 0.32856 0.57149 0.63789 0.0
H2387 H 0.3542 0.5689 0.6417 0.0
H2388 H 0.33649 0.58235 0.65339 0.0
H2389 H 0.35069 0.73451 0.61059 0.0
H2390 H 0.36558 0.6887 0.60817 0.0
H2391 H 0.33959 0.68647 0.60543 0.0
H2392 H 0.38414 0.55295 0.60424 0.0
H2393 H 0.32179 0.55438 0.59703 0.0
H2394 H 0.38317 0.6043 0.63235 0.0
H2395 H 0.387 0.64409 0.6211 0.0
H2396 H 0.39889 0.59417 0.61933 0.0
H2397 H 0.307 0.60679 0.62332 0.0
H2398 H 0.29994 0.59856 0.60753 0.0
H2399 H 0.31085 0.64724 0.61231 0.0
C2400 C 0.41488 0.18526 0.60219 0.0
C2401 C 0.39628 0.20207 0.59944 0.0
C2402 C 0.41714 0.15544 0.61153 0.0
C2403 C 0.40039 0.14215 0.61825 0.0
C2404 C 0.38162 0.15926 0.61558 0.0
C2405 C 0.37981 0.18906 0.60625 0.0
C2406 C 0.43738 0.13784 0.61414 0.0
C2407 C 0.3634 0.14593 0.62255 0.0
C2408 C 0.39901 0.03707 0.63411 0.0
C2409 C 0.40122 0.04838 0.64649 0.0
C2410 C 0.39951 0.06715 0.62477 0.0
C2411 C 0.40223 0.10959 0.62789 0.0
C2412 C 0.40519 0.12108 0.64031 0.0
C2413 C 0.40462 0.09031 0.64947 0.0
C2414 C 0.39624 0.05368 0.61164 0.0
C2415 C 0.40824 0.16603 0.64396 0.0
H2416 H 0.42764 0.19498 0.59691 0.0
H2417 H 0.36546 0.20255 0.60435 0.0
H2418 H 0.44122 0.14254 0.62395 0.0
H2419 H 0.43741 0.10375 0.61242 0.0
H2420 H 0.449 0.15247 0.60837 0.0
H2421 H 0.34993 0.16255 0.61941 0.0
H2422 H 0.36103 0.11192 0.62141 0.0
H2423 H 0.36541 0.15189 0.63251 0.0
H2424 H 0.3961 0.00484 0.63174 0.0
H2425 H 0.40658 0.09914 0.659 0.0
H2426 H 0.40804 0.06631 0.60563 0.0
H2427 H 0.382 0.0664 0.60827 0.0
H2428 H 0.39593 0.01922 0.61065 0.0
H2429 H 0.42031 0.18008 0.63845 0.0
H2430 H 0.41188 0.16938 0.65386 0.0
H2431 H 0.39464 0.18412 0.64203 0.0
loop_
_geom_bond_atom_site_label_1
_geom_bond_atom_site_label_2
_geom_bond_distance
_geom_bond_site_symmetry_2
_ccdc_geom_bond_type
Li0 N17 1.990 . S
Li0 O60 1.956 . S
Li0 O61 1.970 . S
Li0 O62 1.961 . S
Li1 N25 1.990 . S
Li1 O60 1.970 . S
Li1 O61 1.956 . S
Li1 O63 1.961 . S
Li2 N47 1.990 . S
Li2 O60 1.961 . S
Li2 O62 1.956 . S
Li2 O63 1.970 . S
Li3 N53 1.990 . S
Li3 O61 1.961 . S
Li3 O62 1.970 . S
Li3 O63 1.956 . S
C4 C6 1.348 . S
C4 C7 1.356 . S
C4 O60 1.325 . S
N5 C8 1.314 . S
N5 C9 1.279 . S
C6 C4 1.348 . S
C6 C8 1.353 . S
C6 H64 0.929 . S
C7 C4 1.356 . S
C7 C9 1.358 . S
C7 H65 0.930 . S
C8 N5 1.314 . S
C8 C6 1.353 . S
C8 H66 0.930 . S
C9 N5 1.279 . S
C9 C7 1.358 . S
C9 H67 0.930 . S
C10 C13 1.348 . S
C10 C14 1.356 . S
C10 O61 1.325 . S
C11 N12 1.279 . S
C11 C14 1.358 1_565 S
C11 H68 0.930 . S
N12 C11 1.279 . S
N12 C15 1.314 1_565 S
C13 C10 1.348 . S
C13 C15 1.353 . S
C13 H69 0.929 . S
C14 C10 1.356 . S
C14 C11 1.358 1_545 S
C14 H70 0.930 . S
C15 N12 1.314 1_545 S
C15 C13 1.353 . S
C15 H71 0.933 . S
C16 N17 1.314 . S
C16 C21 1.353 . S
C16 H22 0.930 . S
N17 Li0 1.990 . S
N17 C16 1.314 . S
N17 C19 1.279 . S
C18 C19 1.358 . S
C18 C20 1.356 . S
C18 H72 0.930 . S
C19 N17 1.279 . S
C19 C18 1.358 . S
C19 H23 0.930 . S
C20 C18 1.356 . S
C20 C21 1.348 . S
C21 C16 1.353 . S
C21 C20 1.348 . S
C21 H73 0.929 . S
H22 C16 0.930 . S
H23 C19 0.930 . S
C24 N25 1.314 . S
C24 C26 1.353 . S
C24 H30 0.930 . S
N25 Li1 1.990 . S
N25 C24 1.314 . S
N25 C28 1.279 . S
C26 C24 1.353 . S
C26 C29 1.348 . S
C26 H74 0.929 . S
C27 C28 1.358 . S
C27 C29 1.356 . S
C27 H75 0.930 . S
C28 N25 1.279 . S
C28 C27 1.358 . S
C28 H31 0.930 . S
C29 C26 1.348 . S
C29 C27 1.356 . S
H30 C24 0.930 . S
H31 C28 0.930 . S
C32 C34 1.348 . S
C32 C35 1.356 . S
C32 O62 1.325 . S
N33 C36 1.314 . S
N33 C37 1.279 . S
C34 C32 1.348 . S
C34 C36 1.353 . S
C34 H76 0.929 . S
C35 C32 1.356 . S
C35 C37 1.358 . S
C35 H77 0.930 . S
C36 N33 1.314 . S
C36 C34 1.353 . S
C36 H78 0.930 . S
C37 N33 1.279 . S
C37 C35 1.358 . S
C37 H79 0.930 . S
C38 C39 1.348 . S
C38 C40 1.356 . S
C38 O63 1.325 . S
C39 C38 1.348 . S
C39 C41 1.353 . S
C39 H80 0.929 . S
C40 C38 1.356 . S
C40 C42 1.358 . S
C40 H81 0.930 . S
C41 C39 1.353 . S
C41 N43 1.314 . S
C41 H82 0.930 . S
C42 C40 1.358 . S
C42 N43 1.279 . S
C42 H83 0.930 . S
N43 C41 1.314 . S
N43 C42 1.279 . S
C44 C46 1.353 . S
C44 N47 1.314 . S
C44 H50 0.930 . S
C45 N47 1.279 . S
C45 C48 1.358 . S
C45 H51 0.930 . S
C46 C44 1.353 . S
C46 C49 1.348 . S
C46 H84 0.929 . S
N47 Li2 1.990 . S
N47 C44 1.314 . S
N47 C45 1.279 . S
C48 C45 1.358 . S
C48 C49 1.356 . S
C48 H85 0.930 . S
C49 C46 1.348 . S
C49 C48 1.356 . S
H50 C44 0.930 . S
H51 C45 0.930 . S
C52 N53 1.314 1_565 S
C52 C54 1.353 . S
C52 H58 0.930 . S
N53 Li3 1.990 . S
N53 C52 1.314 1_545 S
N53 C56 1.279 . S
C54 C52 1.353 . S
C54 C57 1.348 . S
C54 H86 0.929 . S
C55 C56 1.358 . S
C55 C57 1.356 1_545 S
C55 H87 0.930 . S
C56 N53 1.279 . S
C56 C55 1.358 . S
C56 H59 0.930 . S
C57 C54 1.348 . S
C57 C55 1.356 1_565 S
H58 C52 0.930 . S
H59 C56 0.930 . S
O60 Li0 1.956 . S
O60 Li1 1.970 . S
O60 Li2 1.961 . S
O60 C4 1.325 . S
O61 Li0 1.970 . S
O61 Li1 1.956 . S
O61 Li3 1.961 . S
O61 C10 1.325 . S
O62 Li0 1.961 . S
O62 Li2 1.956 . S
O62 Li3 1.970 . S
O62 C32 1.325 . S
O63 Li1 1.961 . S
O63 Li2 1.970 . S
O63 Li3 1.956 . S
O63 C38 1.325 . S
H64 C6 0.929 . S
H65 C7 0.930 . S
H66 C8 0.930 . S
H67 C9 0.930 . S
H68 C11 0.930 . S
H69 C13 0.929 . S
H70 C14 0.930 . S
H71 C15 0.933 . S
H72 C18 0.930 . S
H73 C21 0.929 . S
H74 C26 0.929 . S
H75 C27 0.930 . S
H76 C34 0.929 . S
H77 C35 0.930 . S
H78 C36 0.930 . S
H79 C37 0.930 . S
H80 C39 0.929 . S
H81 C40 0.930 . S
H82 C41 0.930 . S
H83 C42 0.930 . S
H84 C46 0.929 . S
H85 C48 0.930 . S
H86 C54 0.929 . S
H87 C55 0.930 . S
Li88 N105 1.990 . S
Li88 O148 1.956 . S
Li88 O149 1.970 . S
Li88 O150 1.961 . S
Li89 N113 1.990 . S
Li89 O148 1.970 . S
Li89 O149 1.956 . S
Li89 O151 1.961 . S
Li90 N135 1.990 . S
Li90 O148 1.961 . S
Li90 O150 1.956 . S
Li90 O151 1.970 . S
Li91 N141 1.990 . S
Li91 O149 1.961 . S
Li91 O150 1.970 . S
Li91 O151 1.956 . S
C92 C94 1.348 . S
C92 C95 1.356 . S
C92 O148 1.325 . S
N93 C96 1.314 . S
N93 C97 1.279 . S
C94 C92 1.348 . S
C94 C96 1.353 . S
C94 H152 0.929 . S
C95 C92 1.356 . S
C95 C97 1.358 . S
C95 H153 0.930 . S
C96 N93 1.314 . S
C96 C94 1.353 . S
C96 H154 0.930 . S
C97 N93 1.279 . S
C97 C95 1.358 . S
C97 H155 0.930 . S
C98 C101 1.348 . S
C98 C102 1.356 . S
C98 O149 1.325 . S
C99 N100 1.279 . S
C99 C102 1.358 . S
C99 H156 0.930 . S
N100 C99 1.279 . S
N100 C103 1.314 . S
C101 C98 1.348 . S
C101 C103 1.353 . S
C101 H157 0.929 . S
C102 C98 1.356 . S
C102 C99 1.358 . S
C102 H158 0.930 . S
C103 N100 1.314 . S
C103 C101 1.353 . S
C103 H159 0.930 . S
C104 N105 1.314 . S
C104 C109 1.353 . S
C104 H110 0.930 . S
N105 Li88 1.990 . S
N105 C104 1.314 . S
N105 C107 1.279 . S
C106 C107 1.358 . S
C106 C108 1.356 . S
C106 H160 0.930 . S
C107 N105 1.279 . S
C107 C106 1.358 . S
C107 H111 0.930 . S
C108 C106 1.356 . S
C108 C109 1.348 . S
C109 C104 1.353 . S
C109 C108 1.348 . S
C109 H161 0.929 . S
H110 C104 0.930 . S
H111 C107 0.930 . S
C112 N113 1.314 1_565 S
C112 C114 1.353 . S
C112 H118 0.930 . S
N113 Li89 1.990 . S
N113 C112 1.314 1_545 S
N113 C116 1.279 . S
C114 C112 1.353 . S
C114 C117 1.348 . S
C114 H162 0.929 . S
C115 C116 1.358 . S
C115 C117 1.356 1_545 S
C115 H163 0.930 . S
C116 N113 1.279 . S
C116 C115 1.358 . S
C116 H119 0.930 . S
C117 C114 1.348 . S
C117 C115 1.356 1_565 S
H118 C112 0.930 . S
H119 C116 0.930 . S
C120 C122 1.348 . S
C120 C123 1.356 . S
C120 O150 1.325 . S
N121 C124 1.314 . S
N121 C125 1.279 . S
C122 C120 1.348 . S
C122 C124 1.353 . S
C122 H164 0.929 . S
C123 C120 1.356 . S
C123 C125 1.358 . S
C123 H165 0.930 . S
C124 N121 1.314 . S
C124 C122 1.353 . S
C124 H166 0.930 . S
C125 N121 1.279 . S
C125 C123 1.358 . S
C125 H167 0.930 . S
C126 C127 1.348 . S
C126 C128 1.356 . S
C126 O151 1.325 . S
C127 C126 1.348 . S
C127 C129 1.353 . S
C127 H168 0.929 . S
C128 C126 1.356 . S
C128 C130 1.358 1_545 S
C128 H169 0.930 . S
C129 C127 1.353 . S
C129 N131 1.314 1_545 S
C129 H170 0.933 . S
C130 C128 1.358 1_565 S
C130 N131 1.279 . S
C130 H171 0.930 . S
N131 C129 1.314 1_565 S
N131 C130 1.279 . S
C132 C134 1.353 . S
C132 N135 1.314 . S
C132 H138 0.930 . S
C133 N135 1.279 . S
C133 C136 1.358 . S
C133 H139 0.930 . S
C134 C132 1.353 . S
C134 C137 1.348 . S
C134 H172 0.929 . S
N135 Li90 1.990 . S
N135 C132 1.314 . S
N135 C133 1.279 . S
C136 C133 1.358 . S
C136 C137 1.356 . S
C136 H173 0.930 . S
C137 C134 1.348 . S
C137 C136 1.356 . S
H138 C132 0.930 . S
H139 C133 0.930 . S
C140 N141 1.314 . S
C140 C142 1.353 . S
C140 H146 0.930 . S
N141 Li91 1.990 . S
N141 C140 1.314 . S
N141 C144 1.279 . S
C142 C140 1.353 . S
C142 C145 1.348 . S
C142 H174 0.929 . S
C143 C144 1.358 . S
C143 C145 1.356 . S
C143 H175 0.930 . S
C144 N141 1.279 . S
C144 C143 1.358 . S
C144 H147 0.930 . S
C145 C142 1.348 . S
C145 C143 1.356 . S
H146 C140 0.930 . S
H147 C144 0.930 . S
O148 Li88 1.956 . S
O148 Li89 1.970 . S
O148 Li90 1.961 . S
O148 C92 1.325 . S
O149 Li88 1.970 . S
O149 Li89 1.956 . S
O149 Li91 1.961 . S
O149 C98 1.325 . S
O150 Li88 1.961 . S
O150 Li90 1.956 . S
O150 Li91 1.970 . S
O150 C120 1.325 . S
O151 Li89 1.961 . S
O151 Li90 1.970 . S
O151 Li91 1.956 . S
O151 C126 1.325 . S
H152 C94 0.929 . S
H153 C95 0.930 . S
H154 C96 0.930 . S
H155 C97 0.930 . S
H156 C99 0.930 . S
H157 C101 0.929 . S
H158 C102 0.930 . S
H159 C103 0.930 . S
H160 C106 0.930 . S
H161 C109 0.929 . S
H162 C114 0.929 . S
H163 C115 0.930 . S
H164 C122 0.929 . S
H165 C123 0.930 . S
H166 C124 0.930 . S
H167 C125 0.930 . S
H168 C127 0.929 . S
H169 C128 0.930 . S
H170 C129 0.933 . S
H171 C130 0.930 . S
H172 C134 0.929 . S
H173 C136 0.930 . S
H174 C142 0.929 . S
H175 C143 0.930 . S
Li176 N193 1.990 . S
Li176 O236 1.956 . S
Li176 O237 1.970 . S
Li176 O238 1.961 . S
Li177 N201 1.990 . S
Li177 O236 1.970 . S
Li177 O237 1.956 . S
Li177 O239 1.961 . S
Li178 N223 1.990 . S
Li178 O236 1.961 . S
Li178 O238 1.956 . S
Li178 O239 1.970 . S
Li179 N229 1.990 . S
Li179 O237 1.961 . S
Li179 O238 1.970 . S
Li179 O239 1.956 . S
C180 C182 1.348 . S
C180 C183 1.356 . S
C180 O236 1.325 . S
N181 C184 1.314 . S
N181 C185 1.279 . S
C182 C180 1.348 . S
C182 C184 1.353 . S
C182 H240 0.929 . S
C183 C180 1.356 . S
C183 C185 1.358 . S
C183 H241 0.930 . S
C184 N181 1.314 . S
C184 C182 1.353 . S
C184 H242 0.930 . S
C185 N181 1.279 . S
C185 C183 1.358 . S
C185 H243 0.930 . S
C186 C189 1.348 . S
C186 C190 1.356 . S
C186 O237 1.325 . S
C187 N188 1.279 . S
C187 C190 1.358 1_545 S
C187 H244 0.930 . S
N188 C187 1.279 . S
N188 C191 1.314 . S
C189 C186 1.348 . S
C189 C191 1.353 1_565 S
C189 H245 0.929 . S
C190 C186 1.356 . S
C190 C187 1.358 1_565 S
C190 H246 0.930 . S
C191 N188 1.314 . S
C191 C189 1.353 1_545 S
C191 H247 0.930 . S
C192 N193 1.314 . S
C192 C197 1.353 . S
C192 H198 0.930 . S
N193 Li176 1.990 . S
N193 C192 1.314 . S
N193 C195 1.279 . S
C194 C195 1.358 . S
C194 C196 1.356 . S
C194 H248 0.930 . S
C195 N193 1.279 . S
C195 C194 1.358 . S
C195 H199 0.930 . S
C196 C194 1.356 . S
C196 C197 1.348 . S
C197 C192 1.353 . S
C197 C196 1.348 . S
C197 H249 0.929 . S
H198 C192 0.930 . S
H199 C195 0.930 . S
C200 N201 1.314 . S
C200 C202 1.353 . S
C200 H206 0.930 . S
N201 Li177 1.990 . S
N201 C200 1.314 . S
N201 C204 1.279 1_565 S
C202 C200 1.353 . S
C202 C205 1.348 1_565 S
C202 H250 0.929 . S
C203 C204 1.358 . S
C203 C205 1.356 . S
C203 H251 0.930 . S
C204 N201 1.279 1_545 S
C204 C203 1.358 . S
C204 H207 0.930 . S
C205 C202 1.348 1_545 S
C205 C203 1.356 . S
H206 C200 0.930 . S
H207 C204 0.930 . S
C208 C210 1.348 . S
C208 C211 1.356 . S
C208 O238 1.325 . S
N209 C212 1.314 . S
N209 C213 1.279 . S
C210 C208 1.348 . S
C210 C212 1.353 . S
C210 H252 0.929 . S
C211 C208 1.356 . S
C211 C213 1.358 . S
C211 H253 0.930 . S
C212 N209 1.314 . S
C212 C210 1.353 . S
C212 H254 0.930 . S
C213 N209 1.279 . S
C213 C211 1.358 . S
C213 H255 0.930 . S
C214 C215 1.348 . S
C214 C216 1.356 . S
C214 O239 1.325 . S
C215 C214 1.348 . S
C215 C217 1.353 . S
C215 H256 0.929 . S
C216 C214 1.356 . S
C216 C218 1.358 . S
C216 H257 0.930 . S
C217 C215 1.353 . S
C217 N219 1.314 . S
C217 H258 0.930 . S
C218 C216 1.358 . S
C218 N219 1.279 . S
C218 H259 0.930 . S
N219 C217 1.314 . S
N219 C218 1.279 . S
C220 C222 1.353 . S
C220 N223 1.314 . S
C220 H226 0.930 . S
C221 N223 1.279 . S
C221 C224 1.358 . S
C221 H227 0.930 . S
C222 C220 1.353 . S
C222 C225 1.348 . S
C222 H260 0.929 . S
N223 Li178 1.990 . S
N223 C220 1.314 . S
N223 C221 1.279 . S
C224 C221 1.358 . S
C224 C225 1.356 . S
C224 H261 0.930 . S
C225 C222 1.348 . S
C225 C224 1.356 . S
H226 C220 0.930 . S
H227 C221 0.930 . S
C228 N229 1.314 . S
C228 C230 1.353 . S
C228 H234 0.930 . S
N229 Li179 1.990 . S
N229 C228 1.314 . S
N229 C232 1.279 . S
C230 C228 1.353 . S
C230 C233 1.348 . S
C230 H262 0.929 . S
C231 C232 1.358 . S
C231 C233 1.356 . S
C231 H263 0.930 . S
C232 N229 1.279 . S
C232 C231 1.358 . S
C232 H235 0.930 . S
C233 C230 1.348 . S
C233 C231 1.356 . S
H234 C228 0.930 . S
H235 C232 0.930 . S
O236 Li176 1.956 . S
O236 Li177 1.970 . S
O236 Li178 1.961 . S
O236 C180 1.325 . S
O237 Li176 1.970 . S
O237 Li177 1.956 . S
O237 Li179 1.961 . S
O237 C186 1.325 . S
O238 Li176 1.961 . S
O238 Li178 1.956 . S
O238 Li179 1.970 . S
O238 C208 1.325 . S
O239 Li177 1.961 . S
O239 Li178 1.970 . S
O239 Li179 1.956 . S
O239 C214 1.325 . S
H240 C182 0.929 . S
H241 C183 0.930 . S
H242 C184 0.930 . S
H243 C185 0.930 . S
H244 C187 0.930 . S
H245 C189 0.929 . S
H246 C190 0.930 . S
H247 C191 0.930 . S
H248 C194 0.930 . S
H249 C197 0.929 . S
H250 C202 0.929 . S
H251 C203 0.930 . S
H252 C210 0.929 . S
H253 C211 0.930 . S
H254 C212 0.930 . S
H255 C213 0.930 . S
H256 C215 0.929 . S
H257 C216 0.930 . S
H258 C217 0.930 . S
H259 C218 0.930 . S
H260 C222 0.929 . S
H261 C224 0.930 . S
H262 C230 0.929 . S
H263 C231 0.930 . S
Li264 N281 1.990 . S
Li264 O324 1.956 . S
Li264 O325 1.970 . S
Li264 O326 1.961 . S
Li265 N289 1.990 . S
Li265 O324 1.970 . S
Li265 O325 1.956 . S
Li265 O327 1.961 . S
Li266 N311 1.990 . S
Li266 O324 1.961 . S
Li266 O326 1.956 . S
Li266 O327 1.970 . S
Li267 N317 1.990 . S
Li267 O325 1.961 . S
Li267 O326 1.970 . S
Li267 O327 1.956 . S
C268 C270 1.348 . S
C268 C271 1.356 . S
C268 O324 1.325 . S
N269 C272 1.314 . S
N269 C273 1.279 . S
C270 C268 1.348 . S
C270 C272 1.353 1_565 S
C270 H328 0.929 . S
C271 C268 1.356 . S
C271 C273 1.358 1_565 S
C271 H329 0.930 . S
C272 N269 1.314 . S
C272 C270 1.353 1_545 S
C272 H330 0.930 . S
C273 N269 1.279 . S
C273 C271 1.358 1_545 S
C273 H331 0.930 . S
C274 C277 1.348 . S
C274 C278 1.356 . S
C274 O325 1.325 . S
C275 N276 1.279 . S
C275 C278 1.358 . S
C275 H332 0.930 . S
N276 C275 1.279 . S
N276 C279 1.314 . S
C277 C274 1.348 . S
C277 C279 1.353 . S
C277 H333 0.929 . S
C278 C274 1.356 . S
C278 C275 1.358 . S
C278 H334 0.930 . S
C279 N276 1.314 . S
C279 C277 1.353 . S
C279 H335 0.930 . S
C280 N281 1.314 . S
C280 C285 1.353 . S
C280 H286 0.930 . S
N281 Li264 1.990 . S
N281 C280 1.314 . S
N281 C283 1.279 1_565 S
C282 C283 1.358 . S
C282 C284 1.356 . S
C282 H336 0.930 . S
C283 N281 1.279 1_545 S
C283 C282 1.358 . S
C283 H287 0.930 . S
C284 C282 1.356 . S
C284 C285 1.348 1_545 S
C285 C280 1.353 . S
C285 C284 1.348 1_565 S
C285 H337 0.929 . S
H286 C280 0.930 . S
H287 C283 0.930 . S
C288 N289 1.314 . S
C288 C290 1.353 . S
C288 H294 0.930 . S
N289 Li265 1.990 . S
N289 C288 1.314 . S
N289 C292 1.279 . S
C290 C288 1.353 . S
C290 C293 1.348 . S
C290 H338 0.929 . S
C291 C292 1.358 . S
C291 C293 1.356 . S
C291 H339 0.930 . S
C292 N289 1.279 . S
C292 C291 1.358 . S
C292 H295 0.930 . S
C293 C290 1.348 . S
C293 C291 1.356 . S
H294 C288 0.930 . S
H295 C292 0.930 . S
C296 C298 1.348 . S
C296 C299 1.356 . S
C296 O326 1.325 . S
N297 C300 1.314 . S
N297 C301 1.279 . S
C298 C296 1.348 . S
C298 C300 1.353 . S
C298 H340 0.929 . S
C299 C296 1.356 . S
C299 C301 1.358 . S
C299 H341 0.930 . S
C300 N297 1.314 . S
C300 C298 1.353 . S
C300 H342 0.930 . S
C301 N297 1.279 . S
C301 C299 1.358 . S
C301 H343 0.930 . S
C302 C303 1.348 . S
C302 C304 1.356 . S
C302 O327 1.325 . S
C303 C302 1.348 . S
C303 C305 1.353 . S
C303 H344 0.929 . S
C304 C302 1.356 . S
C304 C306 1.358 . S
C304 H345 0.930 . S
C305 C303 1.353 . S
C305 N307 1.314 . S
C305 H346 0.930 . S
C306 C304 1.358 . S
C306 N307 1.279 . S
C306 H347 0.930 . S
N307 C305 1.314 . S
N307 C306 1.279 . S
C308 C310 1.353 . S
C308 N311 1.314 . S
C308 H314 0.930 . S
C309 N311 1.279 . S
C309 C312 1.358 . S
C309 H315 0.930 . S
C310 C308 1.353 . S
C310 C313 1.348 . S
C310 H348 0.929 . S
N311 Li266 1.990 . S
N311 C308 1.314 . S
N311 C309 1.279 . S
C312 C309 1.358 . S
C312 C313 1.356 . S
C312 H349 0.930 . S
C313 C310 1.348 . S
C313 C312 1.356 . S
H314 C308 0.930 . S
H315 C309 0.930 . S
C316 N317 1.314 . S
C316 C318 1.353 . S
C316 H322 0.930 . S
N317 Li267 1.990 . S
N317 C316 1.314 . S
N317 C320 1.279 . S
C318 C316 1.353 . S
C318 C321 1.348 . S
C318 H350 0.929 . S
C319 C320 1.358 . S
C319 C321 1.356 . S
C319 H351 0.930 . S
C320 N317 1.279 . S
C320 C319 1.358 . S
C320 H323 0.930 . S
C321 C318 1.348 . S
C321 C319 1.356 . S
H322 C316 0.930 . S
H323 C320 0.930 . S
O324 Li264 1.956 . S
O324 Li265 1.970 . S
O324 Li266 1.961 . S
O324 C268 1.325 . S
O325 Li264 1.970 . S
O325 Li265 1.956 . S
O325 Li267 1.961 . S
O325 C274 1.325 . S
O326 Li264 1.961 . S
O326 Li266 1.956 . S
O326 Li267 1.970 . S
O326 C296 1.325 . S
O327 Li265 1.961 . S
O327 Li266 1.970 . S
O327 Li267 1.956 . S
O327 C302 1.325 . S
H328 C270 0.929 . S
H329 C271 0.930 . S
H330 C272 0.930 . S
H331 C273 0.930 . S
H332 C275 0.930 . S
H333 C277 0.929 . S
H334 C278 0.930 . S
H335 C279 0.930 . S
H336 C282 0.930 . S
H337 C285 0.929 . S
H338 C290 0.929 . S
H339 C291 0.930 . S
H340 C298 0.929 . S
H341 C299 0.930 . S
H342 C300 0.930 . S
H343 C301 0.930 . S
H344 C303 0.929 . S
H345 C304 0.930 . S
H346 C305 0.930 . S
H347 C306 0.930 . S
H348 C310 0.929 . S
H349 C312 0.930 . S
H350 C318 0.929 . S
H351 C319 0.930 . S
Li352 N369 1.990 . S
Li352 O412 1.956 . S
Li352 O413 1.970 . S
Li352 O414 1.961 . S
Li353 N377 1.990 . S
Li353 O412 1.970 . S
Li353 O413 1.956 . S
Li353 O415 1.961 . S
Li354 N399 1.990 . S
Li354 O412 1.961 . S
Li354 O414 1.956 . S
Li354 O415 1.970 . S
Li355 N405 1.990 . S
Li355 O413 1.961 . S
Li355 O414 1.970 . S
Li355 O415 1.956 . S
C356 C358 1.348 . S
C356 C359 1.356 . S
C356 O412 1.325 . S
N357 C360 1.314 . S
N357 C361 1.279 . S
C358 C356 1.348 . S
C358 C360 1.353 . S
C358 H416 0.929 . S
C359 C356 1.356 . S
C359 C361 1.358 . S
C359 H417 0.930 . S
C360 N357 1.314 . S
C360 C358 1.353 . S
C360 H418 0.930 . S
C361 N357 1.279 . S
C361 C359 1.358 . S
C361 H419 0.930 . S
C362 C365 1.348 . S
C362 C366 1.356 . S
C362 O413 1.325 . S
C363 N364 1.279 . S
C363 C366 1.358 . S
C363 H420 0.930 . S
N364 C363 1.279 . S
N364 C367 1.314 . S
C365 C362 1.348 . S
C365 C367 1.353 . S
C365 H421 0.929 . S
C366 C362 1.356 . S
C366 C363 1.358 . S
C366 H422 0.930 . S
C367 N364 1.314 . S
C367 C365 1.353 . S
C367 H423 0.930 . S
C368 N369 1.314 . S
C368 C373 1.353 . S
C368 H374 0.930 . S
N369 Li352 1.990 . S
N369 C368 1.314 . S
N369 C371 1.279 . S
C370 C371 1.358 . S
C370 C372 1.356 . S
C370 H424 0.930 . S
C371 N369 1.279 . S
C371 C370 1.358 . S
C371 H375 0.930 . S
C372 C370 1.356 . S
C372 C373 1.348 . S
C373 C368 1.353 . S
C373 C372 1.348 . S
C373 H425 0.929 . S
H374 C368 0.930 . S
H375 C371 0.930 . S
C376 N377 1.314 . S
C376 C378 1.353 . S
C376 H382 0.930 . S
N377 Li353 1.990 . S
N377 C376 1.314 . S
N377 C380 1.279 . S
C378 C376 1.353 . S
C378 C381 1.348 . S
C378 H426 0.929 . S
C379 C380 1.358 . S
C379 C381 1.356 . S
C379 H427 0.930 . S
C380 N377 1.279 . S
C380 C379 1.358 . S
C380 H383 0.930 . S
C381 C378 1.348 . S
C381 C379 1.356 . S
H382 C376 0.930 . S
H383 C380 0.930 . S
C384 C386 1.348 . S
C384 C387 1.356 . S
C384 O414 1.325 . S
N385 C388 1.314 . S
N385 C389 1.279 . S
C386 C384 1.348 . S
C386 C388 1.353 . S
C386 H428 0.929 . S
C387 C384 1.356 . S
C387 C389 1.358 . S
C387 H429 0.930 . S
C388 N385 1.314 . S
C388 C386 1.353 . S
C388 H430 0.930 . S
C389 N385 1.279 . S
C389 C387 1.358 . S
C389 H431 0.930 . S
C390 C391 1.348 . S
C390 C392 1.356 . S
C390 O415 1.325 . S
C391 C390 1.348 . S
C391 C393 1.353 . S
C391 H432 0.929 . S
C392 C390 1.356 . S
C392 C394 1.358 . S
C392 H433 0.930 . S
C393 C391 1.353 . S
C393 N395 1.314 . S
C393 H434 0.930 . S
C394 C392 1.358 . S
C394 N395 1.279 . S
C394 H435 0.930 . S
N395 C393 1.314 . S
N395 C394 1.279 . S
C396 C398 1.353 . S
C396 N399 1.314 . S
C396 H402 0.930 . S
C397 N399 1.279 . S
C397 C400 1.358 . S
C397 H403 0.930 . S
C398 C396 1.353 . S
C398 C401 1.348 . S
C398 H436 0.929 . S
N399 Li354 1.990 . S
N399 C396 1.314 . S
N399 C397 1.279 . S
C400 C397 1.358 . S
C400 C401 1.356 . S
C400 H437 0.930 . S
C401 C398 1.348 . S
C401 C400 1.356 . S
H402 C396 0.930 . S
H403 C397 0.930 . S
C404 N405 1.314 . S
C404 C406 1.353 . S
C404 H410 0.930 . S
N405 Li355 1.990 . S
N405 C404 1.314 . S
N405 C408 1.279 . S
C406 C404 1.353 . S
C406 C409 1.348 . S
C406 H438 0.929 . S
C407 C408 1.358 . S
C407 C409 1.356 . S
C407 H439 0.930 . S
C408 N405 1.279 . S
C408 C407 1.358 . S
C408 H411 0.930 . S
C409 C406 1.348 . S
C409 C407 1.356 . S
H410 C404 0.930 . S
H411 C408 0.930 . S
O412 Li352 1.956 . S
O412 Li353 1.970 . S
O412 Li354 1.961 . S
O412 C356 1.325 . S
O413 Li352 1.970 . S
O413 Li353 1.956 . S
O413 Li355 1.961 . S
O413 C362 1.325 . S
O414 Li352 1.961 . S
O414 Li354 1.956 . S
O414 Li355 1.970 . S
O414 C384 1.325 . S
O415 Li353 1.961 . S
O415 Li354 1.970 . S
O415 Li355 1.956 . S
O415 C390 1.325 . S
H416 C358 0.929 . S
H417 C359 0.930 . S
H418 C360 0.930 . S
H419 C361 0.930 . S
H420 C363 0.930 . S
H421 C365 0.929 . S
H422 C366 0.930 . S
H423 C367 0.930 . S
H424 C370 0.930 . S
H425 C373 0.929 . S
H426 C378 0.929 . S
H427 C379 0.930 . S
H428 C386 0.929 . S
H429 C387 0.930 . S
H430 C388 0.930 . S
H431 C389 0.930 . S
H432 C391 0.929 . S
H433 C392 0.930 . S
H434 C393 0.930 . S
H435 C394 0.930 . S
H436 C398 0.929 . S
H437 C400 0.930 . S
H438 C406 0.929 . S
H439 C407 0.930 . S
Li440 N457 1.990 . S
Li440 O500 1.956 . S
Li440 O501 1.970 . S
Li440 O502 1.961 . S
Li441 N465 1.990 . S
Li441 O500 1.970 . S
Li441 O501 1.956 . S
Li441 O503 1.961 . S
Li442 N487 1.990 . S
Li442 O500 1.961 . S
Li442 O502 1.956 . S
Li442 O503 1.970 . S
Li443 N493 1.990 . S
Li443 O501 1.961 . S
Li443 O502 1.970 . S
Li443 O503 1.956 . S
C444 C446 1.348 . S
C444 C447 1.356 . S
C444 O500 1.325 . S
N445 C448 1.314 . S
N445 C449 1.279 . S
C446 C444 1.348 . S
C446 C448 1.353 . S
C446 H504 0.929 . S
C447 C444 1.356 . S
C447 C449 1.358 . S
C447 H505 0.930 . S
C448 N445 1.314 . S
C448 C446 1.353 . S
C448 H506 0.930 . S
C449 N445 1.279 . S
C449 C447 1.358 . S
C449 H507 0.930 . S
C450 C453 1.348 . S
C450 C454 1.356 . S
C450 O501 1.325 . S
C451 N452 1.279 . S
C451 C454 1.358 . S
C451 H508 0.930 . S
N452 C451 1.279 . S
N452 C455 1.314 . S
C453 C450 1.348 . S
C453 C455 1.353 . S
C453 H509 0.929 . S
C454 C450 1.356 . S
C454 C451 1.358 . S
C454 H510 0.930 . S
C455 N452 1.314 . S
C455 C453 1.353 . S
C455 H511 0.930 . S
C456 N457 1.314 . S
C456 C461 1.353 . S
C456 H462 0.930 . S
N457 Li440 1.990 . S
N457 C456 1.314 . S
N457 C459 1.279 . S
C458 C459 1.358 . S
C458 C460 1.356 . S
C458 H512 0.930 . S
C459 N457 1.279 . S
C459 C458 1.358 . S
C459 H463 0.930 . S
C460 C458 1.356 . S
C460 C461 1.348 . S
C461 C456 1.353 . S
C461 C460 1.348 . S
C461 H513 0.929 . S
H462 C456 0.930 . S
H463 C459 0.930 . S
C464 N465 1.314 . S
C464 C466 1.353 . S
C464 H470 0.930 . S
N465 Li441 1.990 . S
N465 C464 1.314 . S
N465 C468 1.279 . S
C466 C464 1.353 . S
C466 C469 1.348 . S
C466 H514 0.929 . S
C467 C468 1.358 . S
C467 C469 1.356 . S
C467 H515 0.930 . S
C468 N465 1.279 . S
C468 C467 1.358 . S
C468 H471 0.930 . S
C469 C466 1.348 . S
C469 C467 1.356 . S
H470 C464 0.930 . S
H471 C468 0.930 . S
C472 C474 1.348 . S
C472 C475 1.356 . S
C472 O502 1.325 . S
N473 C476 1.314 . S
N473 C477 1.279 . S
C474 C472 1.348 . S
C474 C476 1.353 . S
C474 H516 0.929 . S
C475 C472 1.356 . S
C475 C477 1.358 . S
C475 H517 0.930 . S
C476 N473 1.314 . S
C476 C474 1.353 . S
C476 H518 0.930 . S
C477 N473 1.279 . S
C477 C475 1.358 . S
C477 H519 0.930 . S
C478 C479 1.348 . S
C478 C480 1.356 . S
C478 O503 1.325 . S
C479 C478 1.348 . S
C479 C481 1.353 . S
C479 H520 0.929 . S
C480 C478 1.356 . S
C480 C482 1.358 . S
C480 H521 0.930 . S
C481 C479 1.353 . S
C481 N483 1.314 . S
C481 H522 0.930 . S
C482 C480 1.358 . S
C482 N483 1.279 . S
C482 H523 0.930 . S
N483 C481 1.314 . S
N483 C482 1.279 . S
C484 C486 1.353 . S
C484 N487 1.314 . S
C484 H490 0.930 . S
C485 N487 1.279 . S
C485 C488 1.358 . S
C485 H491 0.930 . S
C486 C484 1.353 . S
C486 C489 1.348 . S
C486 H524 0.929 . S
N487 Li442 1.990 . S
N487 C484 1.314 . S
N487 C485 1.279 . S
C488 C485 1.358 . S
C488 C489 1.356 . S
C488 H525 0.930 . S
C489 C486 1.348 . S
C489 C488 1.356 . S
H490 C484 0.930 . S
H491 C485 0.930 . S
C492 N493 1.314 . S
C492 C494 1.353 . S
C492 H498 0.930 . S
N493 Li443 1.990 . S
N493 C492 1.314 . S
N493 C496 1.279 . S
C494 C492 1.353 . S
C494 C497 1.348 . S
C494 H526 0.929 . S
C495 C496 1.358 . S
C495 C497 1.356 . S
C495 H527 0.930 . S
C496 N493 1.279 . S
C496 C495 1.358 . S
C496 H499 0.930 . S
C497 C494 1.348 . S
C497 C495 1.356 . S
H498 C492 0.930 . S
H499 C496 0.930 . S
O500 Li440 1.956 . S
O500 Li441 1.970 . S
O500 Li442 1.961 . S
O500 C444 1.325 . S
O501 Li440 1.970 . S
O501 Li441 1.956 . S
O501 Li443 1.961 . S
O501 C450 1.325 . S
O502 Li440 1.961 . S
O502 Li442 1.956 . S
O502 Li443 1.970 . S
O502 C472 1.325 . S
O503 Li441 1.961 . S
O503 Li442 1.970 . S
O503 Li443 1.956 . S
O503 C478 1.325 . S
H504 C446 0.929 . S
H505 C447 0.930 . S
H506 C448 0.930 . S
H507 C449 0.930 . S
H508 C451 0.930 . S
H509 C453 0.929 . S
H510 C454 0.930 . S
H511 C455 0.930 . S
H512 C458 0.930 . S
H513 C461 0.929 . S
H514 C466 0.929 . S
H515 C467 0.930 . S
H516 C474 0.929 . S
H517 C475 0.930 . S
H518 C476 0.930 . S
H519 C477 0.930 . S
H520 C479 0.929 . S
H521 C480 0.930 . S
H522 C481 0.930 . S
H523 C482 0.930 . S
H524 C486 0.929 . S
H525 C488 0.930 . S
H526 C494 0.929 . S
H527 C495 0.930 . S
Li528 N545 1.990 . S
Li528 O588 1.956 . S
Li528 O589 1.970 . S
Li528 O590 1.961 . S
Li529 N553 1.990 . S
Li529 O588 1.970 . S
Li529 O589 1.956 . S
Li529 O591 1.961 . S
Li530 N575 1.990 . S
Li530 O588 1.961 . S
Li530 O590 1.956 . S
Li530 O591 1.970 . S
Li531 N581 1.990 . S
Li531 O589 1.961 . S
Li531 O590 1.970 . S
Li531 O591 1.956 . S
C532 C534 1.348 . S
C532 C535 1.356 . S
C532 O588 1.325 . S
N533 C536 1.314 . S
N533 C537 1.279 . S
C534 C532 1.348 . S
C534 C536 1.353 . S
C534 H592 0.929 . S
C535 C532 1.356 . S
C535 C537 1.358 . S
C535 H593 0.930 . S
C536 N533 1.314 . S
C536 C534 1.353 . S
C536 H594 0.930 . S
C537 N533 1.279 . S
C537 C535 1.358 . S
C537 H595 0.930 . S
C538 C541 1.348 . S
C538 C542 1.356 . S
C538 O589 1.325 . S
C539 N540 1.279 . S
C539 C542 1.358 . S
C539 H596 0.930 . S
N540 C539 1.279 . S
N540 C543 1.314 . S
C541 C538 1.348 . S
C541 C543 1.353 . S
C541 H597 0.929 . S
C542 C538 1.356 . S
C542 C539 1.358 . S
C542 H598 0.930 . S
C543 N540 1.314 . S
C543 C541 1.353 . S
C543 H599 0.930 . S
C544 N545 1.314 . S
C544 C549 1.353 . S
C544 H550 0.930 . S
N545 Li528 1.990 . S
N545 C544 1.314 . S
N545 C547 1.279 . S
C546 C547 1.358 . S
C546 C548 1.356 . S
C546 H600 0.930 . S
C547 N545 1.279 . S
C547 C546 1.358 . S
C547 H551 0.930 . S
C548 C546 1.356 . S
C548 C549 1.348 . S
C549 C544 1.353 . S
C549 C548 1.348 . S
C549 H601 0.929 . S
H550 C544 0.930 . S
H551 C547 0.930 . S
C552 N553 1.314 . S
C552 C554 1.353 . S
C552 H558 0.930 . S
N553 Li529 1.990 . S
N553 C552 1.314 . S
N553 C556 1.279 . S
C554 C552 1.353 . S
C554 C557 1.348 . S
C554 H602 0.929 . S
C555 C556 1.358 . S
C555 C557 1.356 . S
C555 H603 0.930 . S
C556 N553 1.279 . S
C556 C555 1.358 . S
C556 H559 0.930 . S
C557 C554 1.348 . S
C557 C555 1.356 . S
H558 C552 0.930 . S
H559 C556 0.930 . S
C560 C562 1.348 . S
C560 C563 1.356 . S
C560 O590 1.325 . S
N561 C564 1.314 . S
N561 C565 1.279 . S
C562 C560 1.348 . S
C562 C564 1.353 . S
C562 H604 0.929 . S
C563 C560 1.356 . S
C563 C565 1.358 . S
C563 H605 0.930 . S
C564 N561 1.314 . S
C564 C562 1.353 . S
C564 H606 0.930 . S
C565 N561 1.279 . S
C565 C563 1.358 . S
C565 H607 0.930 . S
C566 C567 1.348 . S
C566 C568 1.356 . S
C566 O591 1.325 . S
C567 C566 1.348 . S
C567 C569 1.353 . S
C567 H608 0.929 . S
C568 C566 1.356 . S
C568 C570 1.358 . S
C568 H609 0.930 . S
C569 C567 1.353 . S
C569 N571 1.314 . S
C569 H610 0.930 . S
C570 C568 1.358 . S
C570 N571 1.279 . S
C570 H611 0.930 . S
N571 C569 1.314 . S
N571 C570 1.279 . S
C572 C574 1.353 . S
C572 N575 1.314 . S
C572 H578 0.930 . S
C573 N575 1.279 . S
C573 C576 1.358 . S
C573 H579 0.930 . S
C574 C572 1.353 . S
C574 C577 1.348 . S
C574 H612 0.929 . S
N575 Li530 1.990 . S
N575 C572 1.314 . S
N575 C573 1.279 . S
C576 C573 1.358 . S
C576 C577 1.356 . S
C576 H613 0.930 . S
C577 C574 1.348 . S
C577 C576 1.356 . S
H578 C572 0.930 . S
H579 C573 0.930 . S
C580 N581 1.314 . S
C580 C582 1.353 . S
C580 H586 0.930 . S
N581 Li531 1.990 . S
N581 C580 1.314 . S
N581 C584 1.279 . S
C582 C580 1.353 . S
C582 C585 1.348 . S
C582 H614 0.929 . S
C583 C584 1.358 . S
C583 C585 1.356 . S
C583 H615 0.930 . S
C584 N581 1.279 . S
C584 C583 1.358 . S
C584 H587 0.930 . S
C585 C582 1.348 . S
C585 C583 1.356 . S
H586 C580 0.930 . S
H587 C584 0.930 . S
O588 Li528 1.956 . S
O588 Li529 1.970 . S
O588 Li530 1.961 . S
O588 C532 1.325 . S
O589 Li528 1.970 . S
O589 Li529 1.956 . S
O589 Li531 1.961 . S
O589 C538 1.325 . S
O590 Li528 1.961 . S
O590 Li530 1.956 . S
O590 Li531 1.970 . S
O590 C560 1.325 . S
O591 Li529 1.961 . S
O591 Li530 1.970 . S
O591 Li531 1.956 . S
O591 C566 1.325 . S
H592 C534 0.929 . S
H593 C535 0.930 . S
H594 C536 0.930 . S
H595 C537 0.930 . S
H596 C539 0.930 . S
H597 C541 0.929 . S
H598 C542 0.930 . S
H599 C543 0.930 . S
H600 C546 0.930 . S
H601 C549 0.929 . S
H602 C554 0.929 . S
H603 C555 0.930 . S
H604 C562 0.929 . S
H605 C563 0.930 . S
H606 C564 0.930 . S
H607 C565 0.930 . S
H608 C567 0.929 . S
H609 C568 0.930 . S
H610 C569 0.930 . S
H611 C570 0.930 . S
H612 C574 0.929 . S
H613 C576 0.930 . S
H614 C582 0.929 . S
H615 C583 0.930 . S
Li616 N633 1.990 . S
Li616 O676 1.956 . S
Li616 O677 1.970 . S
Li616 O678 1.961 . S
Li617 N641 1.990 . S
Li617 O676 1.970 . S
Li617 O677 1.956 . S
Li617 O679 1.961 . S
Li618 N663 1.990 . S
Li618 O676 1.961 . S
Li618 O678 1.956 . S
Li618 O679 1.970 . S
Li619 N669 1.990 . S
Li619 O677 1.961 . S
Li619 O678 1.970 . S
Li619 O679 1.956 . S
C620 C622 1.348 . S
C620 C623 1.356 . S
C620 O676 1.325 . S
N621 C624 1.314 . S
N621 C625 1.279 . S
C622 C620 1.348 . S
C622 C624 1.353 . S
C622 H680 0.929 . S
C623 C620 1.356 . S
C623 C625 1.358 . S
C623 H681 0.930 . S
C624 N621 1.314 . S
C624 C622 1.353 . S
C624 H682 0.930 . S
C625 N621 1.279 . S
C625 C623 1.358 . S
C625 H683 0.930 . S
C626 C629 1.348 . S
C626 C630 1.356 . S
C626 O677 1.325 . S
C627 N628 1.279 . S
C627 C630 1.358 . S
C627 H684 0.930 . S
N628 C627 1.279 . S
N628 C631 1.314 . S
C629 C626 1.348 . S
C629 C631 1.353 . S
C629 H685 0.929 . S
C630 C626 1.356 . S
C630 C627 1.358 . S
C630 H686 0.930 . S
C631 N628 1.314 . S
C631 C629 1.353 . S
C631 H687 0.930 . S
C632 N633 1.314 . S
C632 C637 1.353 . S
C632 H638 0.930 . S
N633 Li616 1.990 . S
N633 C632 1.314 . S
N633 C635 1.279 . S
C634 C635 1.358 . S
C634 C636 1.356 . S
C634 H688 0.930 . S
C635 N633 1.279 . S
C635 C634 1.358 . S
C635 H639 0.930 . S
C636 C634 1.356 . S
C636 C637 1.348 . S
C637 C632 1.353 . S
C637 C636 1.348 . S
C637 H689 0.929 . S
H638 C632 0.930 . S
H639 C635 0.930 . S
C640 N641 1.314 . S
C640 C642 1.353 . S
C640 H646 0.930 . S
N641 Li617 1.990 . S
N641 C640 1.314 . S
N641 C644 1.279 . S
C642 C640 1.353 . S
C642 C645 1.348 . S
C642 H690 0.929 . S
C643 C644 1.358 . S
C643 C645 1.356 . S
C643 H691 0.930 . S
C644 N641 1.279 . S
C644 C643 1.358 . S
C644 H647 0.930 . S
C645 C642 1.348 . S
C645 C643 1.356 . S
H646 C640 0.930 . S
H647 C644 0.930 . S
C648 C650 1.348 . S
C648 C651 1.356 . S
C648 O678 1.325 . S
N649 C652 1.314 . S
N649 C653 1.279 . S
C650 C648 1.348 . S
C650 C652 1.353 . S
C650 H692 0.929 . S
C651 C648 1.356 . S
C651 C653 1.358 . S
C651 H693 0.930 . S
C652 N649 1.314 . S
C652 C650 1.353 . S
C652 H694 0.930 . S
C653 N649 1.279 . S
C653 C651 1.358 . S
C653 H695 0.930 . S
C654 C655 1.348 . S
C654 C656 1.356 . S
C654 O679 1.325 . S
C655 C654 1.348 . S
C655 C657 1.353 . S
C655 H696 0.929 . S
C656 C654 1.356 . S
C656 C658 1.358 . S
C656 H697 0.930 . S
C657 C655 1.353 . S
C657 N659 1.314 . S
C657 H698 0.930 . S
C658 C656 1.358 . S
C658 N659 1.279 . S
C658 H699 0.930 . S
N659 C657 1.314 . S
N659 C658 1.279 . S
C660 C662 1.353 . S
C660 N663 1.314 . S
C660 H666 0.930 . S
C661 N663 1.279 . S
C661 C664 1.358 . S
C661 H667 0.930 . S
C662 C660 1.353 . S
C662 C665 1.348 . S
C662 H700 0.929 . S
N663 Li618 1.990 . S
N663 C660 1.314 . S
N663 C661 1.279 . S
C664 C661 1.358 . S
C664 C665 1.356 . S
C664 H701 0.930 . S
C665 C662 1.348 . S
C665 C664 1.356 . S
H666 C660 0.930 . S
H667 C661 0.930 . S
C668 N669 1.314 . S
C668 C670 1.353 . S
C668 H674 0.930 . S
N669 Li619 1.990 . S
N669 C668 1.314 . S
N669 C672 1.279 . S
C670 C668 1.353 . S
C670 C673 1.348 . S
C670 H702 0.929 . S
C671 C672 1.358 . S
C671 C673 1.356 . S
C671 H703 0.930 . S
C672 N669 1.279 . S
C672 C671 1.358 . S
C672 H675 0.930 . S
C673 C670 1.348 . S
C673 C671 1.356 . S
H674 C668 0.930 . S
H675 C672 0.930 . S
O676 Li616 1.956 . S
O676 Li617 1.970 . S
O676 Li618 1.961 . S
O676 C620 1.325 . S
O677 Li616 1.970 . S
O677 Li617 1.956 . S
O677 Li619 1.961 . S
O677 C626 1.325 . S
O678 Li616 1.961 . S
O678 Li618 1.956 . S
O678 Li619 1.970 . S
O678 C648 1.325 . S
O679 Li617 1.961 . S
O679 Li618 1.970 . S
O679 Li619 1.956 . S
O679 C654 1.325 . S
H680 C622 0.929 . S
H681 C623 0.930 . S
H682 C624 0.930 . S
H683 C625 0.930 . S
H684 C627 0.930 . S
H685 C629 0.929 . S
H686 C630 0.930 . S
H687 C631 0.930 . S
H688 C634 0.930 . S
H689 C637 0.929 . S
H690 C642 0.929 . S
H691 C643 0.930 . S
H692 C650 0.929 . S
H693 C651 0.930 . S
H694 C652 0.930 . S
H695 C653 0.930 . S
H696 C655 0.929 . S
H697 C656 0.930 . S
H698 C657 0.930 . S
H699 C658 0.930 . S
H700 C662 0.929 . S
H701 C664 0.930 . S
H702 C670 0.929 . S
H703 C671 0.930 . S
Li704 N721 1.990 . S
Li704 O764 1.956 . S
Li704 O765 1.970 . S
Li704 O766 1.961 . S
Li705 N729 1.990 . S
Li705 O764 1.970 . S
Li705 O765 1.956 . S
Li705 O767 1.961 . S
Li706 N751 1.990 . S
Li706 O764 1.961 . S
Li706 O766 1.956 . S
Li706 O767 1.970 . S
Li707 N757 1.990 . S
Li707 O765 1.961 . S
Li707 O766 1.970 . S
Li707 O767 1.956 . S
C708 C710 1.348 . S
C708 C711 1.356 . S
C708 O764 1.325 . S
N709 C712 1.314 . S
N709 C713 1.279 . S
C710 C708 1.348 . S
C710 C712 1.353 . S
C710 H768 0.929 . S
C711 C708 1.356 . S
C711 C713 1.358 . S
C711 H769 0.930 . S
C712 N709 1.314 . S
C712 C710 1.353 . S
C712 H770 0.930 . S
C713 N709 1.279 . S
C713 C711 1.358 . S
C713 H771 0.930 . S
C714 C717 1.348 . S
C714 C718 1.356 . S
C714 O765 1.325 . S
C715 N716 1.279 . S
C715 C718 1.358 1_565 S
C715 H772 0.930 . S
N716 C715 1.279 . S
N716 C719 1.314 1_565 S
C717 C714 1.348 . S
C717 C719 1.353 . S
C717 H773 0.929 . S
C718 C714 1.356 . S
C718 C715 1.358 1_545 S
C718 H774 0.930 . S
C719 N716 1.314 1_545 S
C719 C717 1.353 . S
C719 H775 0.933 . S
C720 N721 1.314 . S
C720 C725 1.353 . S
C720 H726 0.930 . S
N721 Li704 1.990 . S
N721 C720 1.314 . S
N721 C723 1.279 . S
C722 C723 1.358 . S
C722 C724 1.356 . S
C722 H776 0.930 . S
C723 N721 1.279 . S
C723 C722 1.358 . S
C723 H727 0.930 . S
C724 C722 1.356 . S
C724 C725 1.348 . S
C725 C720 1.353 . S
C725 C724 1.348 . S
C725 H777 0.929 . S
H726 C720 0.930 . S
H727 C723 0.930 . S
C728 N729 1.314 . S
C728 C730 1.353 . S
C728 H734 0.930 . S
N729 Li705 1.990 . S
N729 C728 1.314 . S
N729 C732 1.279 . S
C730 C728 1.353 . S
C730 C733 1.348 . S
C730 H778 0.929 . S
C731 C732 1.358 . S
C731 C733 1.356 . S
C731 H779 0.930 . S
C732 N729 1.279 . S
C732 C731 1.358 . S
C732 H735 0.930 . S
C733 C730 1.348 . S
C733 C731 1.356 . S
H734 C728 0.930 . S
H735 C732 0.930 . S
C736 C738 1.348 . S
C736 C739 1.356 . S
C736 O766 1.325 . S
N737 C740 1.314 . S
N737 C741 1.279 . S
C738 C736 1.348 . S
C738 C740 1.353 . S
C738 H780 0.929 . S
C739 C736 1.356 . S
C739 C741 1.358 . S
C739 H781 0.930 . S
C740 N737 1.314 . S
C740 C738 1.353 . S
C740 H782 0.930 . S
C741 N737 1.279 . S
C741 C739 1.358 . S
C741 H783 0.930 . S
C742 C743 1.348 . S
C742 C744 1.356 . S
C742 O767 1.325 . S
C743 C742 1.348 . S
C743 C745 1.353 . S
C743 H784 0.929 . S
C744 C742 1.356 . S
C744 C746 1.358 . S
C744 H785 0.930 . S
C745 C743 1.353 . S
C745 N747 1.314 . S
C745 H786 0.930 . S
C746 C744 1.358 . S
C746 N747 1.279 . S
C746 H787 0.930 . S
N747 C745 1.314 . S
N747 C746 1.279 . S
C748 C750 1.353 . S
C748 N751 1.314 . S
C748 H754 0.930 . S
C749 N751 1.279 . S
C749 C752 1.358 . S
C749 H755 0.930 . S
C750 C748 1.353 . S
C750 C753 1.348 . S
C750 H788 0.929 . S
N751 Li706 1.990 . S
N751 C748 1.314 . S
N751 C749 1.279 . S
C752 C749 1.358 . S
C752 C753 1.356 . S
C752 H789 0.930 . S
C753 C750 1.348 . S
C753 C752 1.356 . S
H754 C748 0.930 . S
H755 C749 0.930 . S
C756 N757 1.314 1_565 S
C756 C758 1.353 . S
C756 H762 0.930 . S
N757 Li707 1.990 . S
N757 C756 1.314 1_545 S
N757 C760 1.279 . S
C758 C756 1.353 . S
C758 C761 1.348 . S
C758 H790 0.929 . S
C759 C760 1.358 . S
C759 C761 1.356 1_545 S
C759 H791 0.930 . S
C760 N757 1.279 . S
C760 C759 1.358 . S
C760 H763 0.930 . S
C761 C758 1.348 . S
C761 C759 1.356 1_565 S
H762 C756 0.930 . S
H763 C760 0.930 . S
O764 Li704 1.956 . S
O764 Li705 1.970 . S
O764 Li706 1.961 . S
O764 C708 1.325 . S
O765 Li704 1.970 . S
O765 Li705 1.956 . S
O765 Li707 1.961 . S
O765 C714 1.325 . S
O766 Li704 1.961 . S
O766 Li706 1.956 . S
O766 Li707 1.970 . S
O766 C736 1.325 . S
O767 Li705 1.961 . S
O767 Li706 1.970 . S
O767 Li707 1.956 . S
O767 C742 1.325 . S
H768 C710 0.929 . S
H769 C711 0.930 . S
H770 C712 0.930 . S
H771 C713 0.930 . S
H772 C715 0.930 . S
H773 C717 0.929 . S
H774 C718 0.930 . S
H775 C719 0.933 . S
H776 C722 0.930 . S
H777 C725 0.929 . S
H778 C730 0.929 . S
H779 C731 0.930 . S
H780 C738 0.929 . S
H781 C739 0.930 . S
H782 C740 0.930 . S
H783 C741 0.930 . S
H784 C743 0.929 . S
H785 C744 0.930 . S
H786 C745 0.930 . S
H787 C746 0.930 . S
H788 C750 0.929 . S
H789 C752 0.930 . S
H790 C758 0.929 . S
H791 C759 0.930 . S
Li792 N809 1.990 . S
Li792 O852 1.956 . S
Li792 O853 1.970 . S
Li792 O854 1.961 . S
Li793 N817 1.990 . S
Li793 O852 1.970 . S
Li793 O853 1.956 . S
Li793 O855 1.961 . S
Li794 N839 1.990 . S
Li794 O852 1.961 . S
Li794 O854 1.956 . S
Li794 O855 1.970 . S
Li795 N845 1.990 . S
Li795 O853 1.961 . S
Li795 O854 1.970 . S
Li795 O855 1.956 . S
C796 C798 1.348 . S
C796 C799 1.356 . S
C796 O852 1.325 . S
N797 C800 1.314 . S
N797 C801 1.279 . S
C798 C796 1.348 . S
C798 C800 1.353 . S
C798 H856 0.929 . S
C799 C796 1.356 . S
C799 C801 1.358 . S
C799 H857 0.930 . S
C800 N797 1.314 . S
C800 C798 1.353 . S
C800 H858 0.930 . S
C801 N797 1.279 . S
C801 C799 1.358 . S
C801 H859 0.930 . S
C802 C805 1.348 . S
C802 C806 1.356 . S
C802 O853 1.325 . S
C803 N804 1.279 . S
C803 C806 1.358 . S
C803 H860 0.930 . S
N804 C803 1.279 . S
N804 C807 1.314 . S
C805 C802 1.348 . S
C805 C807 1.353 . S
C805 H861 0.929 . S
C806 C802 1.356 . S
C806 C803 1.358 . S
C806 H862 0.930 . S
C807 N804 1.314 . S
C807 C805 1.353 . S
C807 H863 0.930 . S
C808 N809 1.314 . S
C808 C813 1.353 . S
C808 H814 0.930 . S
N809 Li792 1.990 . S
N809 C808 1.314 . S
N809 C811 1.279 . S
C810 C811 1.358 . S
C810 C812 1.356 . S
C810 H864 0.930 . S
C811 N809 1.279 . S
C811 C810 1.358 . S
C811 H815 0.930 . S
C812 C810 1.356 . S
C812 C813 1.348 . S
C813 C808 1.353 . S
C813 C812 1.348 . S
C813 H865 0.929 . S
H814 C808 0.930 . S
H815 C811 0.930 . S
C816 N817 1.314 1_565 S
C816 C818 1.353 . S
C816 H822 0.930 . S
N817 Li793 1.990 . S
N817 C816 1.314 1_545 S
N817 C820 1.279 . S
C818 C816 1.353 . S
C818 C821 1.348 . S
C818 H866 0.929 . S
C819 C820 1.358 . S
C819 C821 1.356 1_545 S
C819 H867 0.930 . S
C820 N817 1.279 . S
C820 C819 1.358 . S
C820 H823 0.930 . S
C821 C818 1.348 . S
C821 C819 1.356 1_565 S
H822 C816 0.930 . S
H823 C820 0.930 . S
C824 C826 1.348 . S
C824 C827 1.356 . S
C824 O854 1.325 . S
N825 C828 1.314 . S
N825 C829 1.279 . S
C826 C824 1.348 . S
C826 C828 1.353 . S
C826 H868 0.929 . S
C827 C824 1.356 . S
C827 C829 1.358 . S
C827 H869 0.930 . S
C828 N825 1.314 . S
C828 C826 1.353 . S
C828 H870 0.930 . S
C829 N825 1.279 . S
C829 C827 1.358 . S
C829 H871 0.930 . S
C830 C831 1.348 . S
C830 C832 1.356 . S
C830 O855 1.325 . S
C831 C830 1.348 . S
C831 C833 1.353 . S
C831 H872 0.929 . S
C832 C830 1.356 . S
C832 C834 1.358 1_545 S
C832 H873 0.930 . S
C833 C831 1.353 . S
C833 N835 1.314 1_545 S
C833 H874 0.933 . S
C834 C832 1.358 1_565 S
C834 N835 1.279 . S
C834 H875 0.930 . S
N835 C833 1.314 1_565 S
N835 C834 1.279 . S
C836 C838 1.353 . S
C836 N839 1.314 . S
C836 H842 0.930 . S
C837 N839 1.279 . S
C837 C840 1.358 . S
C837 H843 0.930 . S
C838 C836 1.353 . S
C838 C841 1.348 . S
C838 H876 0.929 . S
N839 Li794 1.990 . S
N839 C836 1.314 . S
N839 C837 1.279 . S
C840 C837 1.358 . S
C840 C841 1.356 . S
C840 H877 0.930 . S
C841 C838 1.348 . S
C841 C840 1.356 . S
H842 C836 0.930 . S
H843 C837 0.930 . S
C844 N845 1.314 . S
C844 C846 1.353 . S
C844 H850 0.930 . S
N845 Li795 1.990 . S
N845 C844 1.314 . S
N845 C848 1.279 . S
C846 C844 1.353 . S
C846 C849 1.348 . S
C846 H878 0.929 . S
C847 C848 1.358 . S
C847 C849 1.356 . S
C847 H879 0.930 . S
C848 N845 1.279 . S
C848 C847 1.358 . S
C848 H851 0.930 . S
C849 C846 1.348 . S
C849 C847 1.356 . S
H850 C844 0.930 . S
H851 C848 0.930 . S
O852 Li792 1.956 . S
O852 Li793 1.970 . S
O852 Li794 1.961 . S
O852 C796 1.325 . S
O853 Li792 1.970 . S
O853 Li793 1.956 . S
O853 Li795 1.961 . S
O853 C802 1.325 . S
O854 Li792 1.961 . S
O854 Li794 1.956 . S
O854 Li795 1.970 . S
O854 C824 1.325 . S
O855 Li793 1.961 . S
O855 Li794 1.970 . S
O855 Li795 1.956 . S
O855 C830 1.325 . S
H856 C798 0.929 . S
H857 C799 0.930 . S
H858 C800 0.930 . S
H859 C801 0.930 . S
H860 C803 0.930 . S
H861 C805 0.929 . S
H862 C806 0.930 . S
H863 C807 0.930 . S
H864 C810 0.930 . S
H865 C813 0.929 . S
H866 C818 0.929 . S
H867 C819 0.930 . S
H868 C826 0.929 . S
H869 C827 0.930 . S
H870 C828 0.930 . S
H871 C829 0.930 . S
H872 C831 0.929 . S
H873 C832 0.930 . S
H874 C833 0.933 . S
H875 C834 0.930 . S
H876 C838 0.929 . S
H877 C840 0.930 . S
H878 C846 0.929 . S
H879 C847 0.930 . S
Li880 N897 1.990 . S
Li880 O940 1.956 . S
Li880 O941 1.970 . S
Li880 O942 1.961 . S
Li881 N905 1.990 . S
Li881 O940 1.970 . S
Li881 O941 1.956 . S
Li881 O943 1.961 . S
Li882 N927 1.990 . S
Li882 O940 1.961 . S
Li882 O942 1.956 . S
Li882 O943 1.970 . S
Li883 N933 1.990 . S
Li883 O941 1.961 . S
Li883 O942 1.970 . S
Li883 O943 1.956 . S
C884 C886 1.348 . S
C884 C887 1.356 . S
C884 O940 1.325 . S
N885 C888 1.314 . S
N885 C889 1.279 . S
C886 C884 1.348 . S
C886 C888 1.353 . S
C886 H944 0.929 . S
C887 C884 1.356 . S
C887 C889 1.358 . S
C887 H945 0.930 . S
C888 N885 1.314 . S
C888 C886 1.353 . S
C888 H946 0.930 . S
C889 N885 1.279 . S
C889 C887 1.358 . S
C889 H947 0.930 . S
C890 C893 1.348 . S
C890 C894 1.356 . S
C890 O941 1.325 . S
C891 N892 1.279 . S
C891 C894 1.358 . S
C891 H948 0.930 . S
N892 C891 1.279 . S
N892 C895 1.314 . S
C893 C890 1.348 . S
C893 C895 1.353 . S
C893 H949 0.929 . S
C894 C890 1.356 . S
C894 C891 1.358 . S
C894 H950 0.930 . S
C895 N892 1.314 . S
C895 C893 1.353 . S
C895 H951 0.930 . S
C896 N897 1.314 . S
C896 C901 1.353 . S
C896 H902 0.930 . S
N897 Li880 1.990 . S
N897 C896 1.314 . S
N897 C899 1.279 . S
C898 C899 1.358 . S
C898 C900 1.356 . S
C898 H952 0.930 . S
C899 N897 1.279 . S
C899 C898 1.358 . S
C899 H903 0.930 . S
C900 C898 1.356 . S
C900 C901 1.348 . S
C901 C896 1.353 . S
C901 C900 1.348 . S
C901 H953 0.929 . S
H902 C896 0.930 . S
H903 C899 0.930 . S
C904 N905 1.314 . S
C904 C906 1.353 . S
C904 H910 0.930 . S
N905 Li881 1.990 . S
N905 C904 1.314 . S
N905 C908 1.279 . S
C906 C904 1.353 . S
C906 C909 1.348 . S
C906 H954 0.929 . S
C907 C908 1.358 . S
C907 C909 1.356 . S
C907 H955 0.930 . S
C908 N905 1.279 . S
C908 C907 1.358 . S
C908 H911 0.930 . S
C909 C906 1.348 . S
C909 C907 1.356 . S
H910 C904 0.930 . S
H911 C908 0.930 . S
C912 C914 1.348 . S
C912 C915 1.356 . S
C912 O942 1.325 . S
N913 C916 1.314 . S
N913 C917 1.279 . S
C914 C912 1.348 . S
C914 C916 1.353 1_565 S
C914 H956 0.929 . S
C915 C912 1.356 . S
C915 C917 1.358 1_565 S
C915 H957 0.930 . S
C916 N913 1.314 . S
C916 C914 1.353 1_545 S
C916 H958 0.930 . S
C917 N913 1.279 . S
C917 C915 1.358 1_545 S
C917 H959 0.930 . S
C918 C919 1.348 . S
C918 C920 1.356 . S
C918 O943 1.325 . S
C919 C918 1.348 . S
C919 C921 1.353 . S
C919 H960 0.929 . S
C920 C918 1.356 . S
C920 C922 1.358 . S
C920 H961 0.930 . S
C921 C919 1.353 . S
C921 N923 1.314 . S
C921 H962 0.930 . S
C922 C920 1.358 . S
C922 N923 1.279 . S
C922 H963 0.930 . S
N923 C921 1.314 . S
N923 C922 1.279 . S
C924 C926 1.353 . S
C924 N927 1.314 . S
C924 H930 0.930 . S
C925 N927 1.279 1_545 S
C925 C928 1.358 . S
C925 H931 0.930 . S
C926 C924 1.353 . S
C926 C929 1.348 1_565 S
C926 H964 0.929 . S
N927 Li882 1.990 . S
N927 C924 1.314 . S
N927 C925 1.279 1_565 S
C928 C925 1.358 . S
C928 C929 1.356 . S
C928 H965 0.930 . S
C929 C926 1.348 1_545 S
C929 C928 1.356 . S
H930 C924 0.930 . S
H931 C925 0.930 . S
C932 N933 1.314 . S
C932 C934 1.353 . S
C932 H938 0.930 . S
N933 Li883 1.990 . S
N933 C932 1.314 . S
N933 C936 1.279 . S
C934 C932 1.353 . S
C934 C937 1.348 . S
C934 H966 0.929 . S
C935 C936 1.358 . S
C935 C937 1.356 . S
C935 H967 0.930 . S
C936 N933 1.279 . S
C936 C935 1.358 . S
C936 H939 0.930 . S
C937 C934 1.348 . S
C937 C935 1.356 . S
H938 C932 0.930 . S
H939 C936 0.930 . S
O940 Li880 1.956 . S
O940 Li881 1.970 . S
O940 Li882 1.961 . S
O940 C884 1.325 . S
O941 Li880 1.970 . S
O941 Li881 1.956 . S
O941 Li883 1.961 . S
O941 C890 1.325 . S
O942 Li880 1.961 . S
O942 Li882 1.956 . S
O942 Li883 1.970 . S
O942 C912 1.325 . S
O943 Li881 1.961 . S
O943 Li882 1.970 . S
O943 Li883 1.956 . S
O943 C918 1.325 . S
H944 C886 0.929 . S
H945 C887 0.930 . S
H946 C888 0.930 . S
H947 C889 0.930 . S
H948 C891 0.930 . S
H949 C893 0.929 . S
H950 C894 0.930 . S
H951 C895 0.930 . S
H952 C898 0.930 . S
H953 C901 0.929 . S
H954 C906 0.929 . S
H955 C907 0.930 . S
H956 C914 0.929 . S
H957 C915 0.930 . S
H958 C916 0.930 . S
H959 C917 0.930 . S
H960 C919 0.929 . S
H961 C920 0.930 . S
H962 C921 0.930 . S
H963 C922 0.930 . S
H964 C926 0.929 . S
H965 C928 0.930 . S
H966 C934 0.929 . S
H967 C935 0.930 . S
Li968 N985 1.990 . S
Li968 O1028 1.956 . S
Li968 O1029 1.970 . S
Li968 O1030 1.961 . S
Li969 N993 1.990 . S
Li969 O1028 1.970 . S
Li969 O1029 1.956 . S
Li969 O1031 1.961 . S
Li970 N1015 1.990 . S
Li970 O1028 1.961 . S
Li970 O1030 1.956 . S
Li970 O1031 1.970 . S
Li971 N1021 1.990 . S
Li971 O1029 1.961 . S
Li971 O1030 1.970 . S
Li971 O1031 1.956 . S
C972 C974 1.348 . S
C972 C975 1.356 . S
C972 O1028 1.325 . S
N973 C976 1.314 . S
N973 C977 1.279 . S
C974 C972 1.348 . S
C974 C976 1.353 1_565 S
C974 H1032 0.929 . S
C975 C972 1.356 . S
C975 C977 1.358 1_565 S
C975 H1033 0.930 . S
C976 N973 1.314 . S
C976 C974 1.353 1_545 S
C976 H1034 0.930 . S
C977 N973 1.279 . S
C977 C975 1.358 1_545 S
C977 H1035 0.930 . S
C978 C981 1.348 . S
C978 C982 1.356 . S
C978 O1029 1.325 . S
C979 N980 1.279 . S
C979 C982 1.358 . S
C979 H1036 0.930 . S
N980 C979 1.279 . S
N980 C983 1.314 . S
C981 C978 1.348 . S
C981 C983 1.353 . S
C981 H1037 0.929 . S
C982 C978 1.356 . S
C982 C979 1.358 . S
C982 H1038 0.930 . S
C983 N980 1.314 . S
C983 C981 1.353 . S
C983 H1039 0.930 . S
C984 N985 1.314 . S
C984 C989 1.353 . S
C984 H990 0.930 . S
N985 Li968 1.990 . S
N985 C984 1.314 . S
N985 C987 1.279 1_565 S
C986 C987 1.358 . S
C986 C988 1.356 . S
C986 H1040 0.930 . S
C987 N985 1.279 1_545 S
C987 C986 1.358 . S
C987 H991 0.930 . S
C988 C986 1.356 . S
C988 C989 1.348 1_545 S
C989 C984 1.353 . S
C989 C988 1.348 1_565 S
C989 H1041 0.929 . S
H990 C984 0.930 . S
H991 C987 0.930 . S
C992 N993 1.314 . S
C992 C994 1.353 . S
C992 H998 0.930 . S
N993 Li969 1.990 . S
N993 C992 1.314 . S
N993 C996 1.279 . S
C994 C992 1.353 . S
C994 C997 1.348 . S
C994 H1042 0.929 . S
C995 C996 1.358 . S
C995 C997 1.356 . S
C995 H1043 0.930 . S
C996 N993 1.279 . S
C996 C995 1.358 . S
C996 H999 0.930 . S
C997 C994 1.348 . S
C997 C995 1.356 . S
H998 C992 0.930 . S
H999 C996 0.930 . S
C1000 C1002 1.348 . S
C1000 C1003 1.356 . S
C1000 O1030 1.325 . S
N1001 C1004 1.314 . S
N1001 C1005 1.279 . S
C1002 C1000 1.348 . S
C1002 C1004 1.353 . S
C1002 H1044 0.929 . S
C1003 C1000 1.356 . S
C1003 C1005 1.358 . S
C1003 H1045 0.930 . S
C1004 N1001 1.314 . S
C1004 C1002 1.353 . S
C1004 H1046 0.930 . S
C1005 N1001 1.279 . S
C1005 C1003 1.358 . S
C1005 H1047 0.930 . S
C1006 C1007 1.348 . S
C1006 C1008 1.356 . S
C1006 O1031 1.325 . S
C1007 C1006 1.348 . S
C1007 C1009 1.353 . S
C1007 H1048 0.929 . S
C1008 C1006 1.356 . S
C1008 C1010 1.358 . S
C1008 H1049 0.930 . S
C1009 C1007 1.353 . S
C1009 N1011 1.314 . S
C1009 H1050 0.930 . S
C1010 C1008 1.358 . S
C1010 N1011 1.279 . S
C1010 H1051 0.930 . S
N1011 C1009 1.314 . S
N1011 C1010 1.279 . S
C1012 C1014 1.353 . S
C1012 N1015 1.314 . S
C1012 H1018 0.930 . S
C1013 N1015 1.279 . S
C1013 C1016 1.358 . S
C1013 H1019 0.930 . S
C1014 C1012 1.353 . S
C1014 C1017 1.348 . S
C1014 H1052 0.929 . S
N1015 Li970 1.990 . S
N1015 C1012 1.314 . S
N1015 C1013 1.279 . S
C1016 C1013 1.358 . S
C1016 C1017 1.356 . S
C1016 H1053 0.930 . S
C1017 C1014 1.348 . S
C1017 C1016 1.356 . S
H1018 C1012 0.930 . S
H1019 C1013 0.930 . S
C1020 N1021 1.314 . S
C1020 C1022 1.353 . S
C1020 H1026 0.930 . S
N1021 Li971 1.990 . S
N1021 C1020 1.314 . S
N1021 C1024 1.279 . S
C1022 C1020 1.353 . S
C1022 C1025 1.348 . S
C1022 H1054 0.929 . S
C1023 C1024 1.358 . S
C1023 C1025 1.356 . S
C1023 H1055 0.930 . S
C1024 N1021 1.279 . S
C1024 C1023 1.358 . S
C1024 H1027 0.930 . S
C1025 C1022 1.348 . S
C1025 C1023 1.356 . S
H1026 C1020 0.930 . S
H1027 C1024 0.930 . S
O1028 Li968 1.956 . S
O1028 Li969 1.970 . S
O1028 Li970 1.961 . S
O1028 C972 1.325 . S
O1029 Li968 1.970 . S
O1029 Li969 1.956 . S
O1029 Li971 1.961 . S
O1029 C978 1.325 . S
O1030 Li968 1.961 . S
O1030 Li970 1.956 . S
O1030 Li971 1.970 . S
O1030 C1000 1.325 . S
O1031 Li969 1.961 . S
O1031 Li970 1.970 . S
O1031 Li971 1.956 . S
O1031 C1006 1.325 . S
H1032 C974 0.929 . S
H1033 C975 0.930 . S
H1034 C976 0.930 . S
H1035 C977 0.930 . S
H1036 C979 0.930 . S
H1037 C981 0.929 . S
H1038 C982 0.930 . S
H1039 C983 0.930 . S
H1040 C986 0.930 . S
H1041 C989 0.929 . S
H1042 C994 0.929 . S
H1043 C995 0.930 . S
H1044 C1002 0.929 . S
H1045 C1003 0.930 . S
H1046 C1004 0.930 . S
H1047 C1005 0.930 . S
H1048 C1007 0.929 . S
H1049 C1008 0.930 . S
H1050 C1009 0.930 . S
H1051 C1010 0.930 . S
H1052 C1014 0.929 . S
H1053 C1016 0.930 . S
H1054 C1022 0.929 . S
H1055 C1023 0.930 . S
Li1056 N1073 1.990 . S
Li1056 O1116 1.956 . S
Li1056 O1117 1.970 . S
Li1056 O1118 1.961 . S
Li1057 N1081 1.990 . S
Li1057 O1116 1.970 . S
Li1057 O1117 1.956 . S
Li1057 O1119 1.961 . S
Li1058 N1103 1.990 . S
Li1058 O1116 1.961 . S
Li1058 O1118 1.956 . S
Li1058 O1119 1.970 . S
Li1059 N1109 1.990 . S
Li1059 O1117 1.961 . S
Li1059 O1118 1.970 . S
Li1059 O1119 1.956 . S
C1060 C1062 1.348 . S
C1060 C1063 1.356 . S
C1060 O1116 1.325 . S
N1061 C1064 1.314 . S
N1061 C1065 1.279 . S
C1062 C1060 1.348 . S
C1062 C1064 1.353 . S
C1062 H1120 0.929 . S
C1063 C1060 1.356 . S
C1063 C1065 1.358 . S
C1063 H1121 0.930 . S
C1064 N1061 1.314 . S
C1064 C1062 1.353 . S
C1064 H1122 0.930 . S
C1065 N1061 1.279 . S
C1065 C1063 1.358 . S
C1065 H1123 0.930 . S
C1066 C1069 1.348 . S
C1066 C1070 1.356 . S
C1066 O1117 1.325 . S
C1067 N1068 1.279 . S
C1067 C1070 1.358 . S
C1067 H1124 0.930 . S
N1068 C1067 1.279 . S
N1068 C1071 1.314 . S
C1069 C1066 1.348 . S
C1069 C1071 1.353 . S
C1069 H1125 0.929 . S
C1070 C1066 1.356 . S
C1070 C1067 1.358 . S
C1070 H1126 0.930 . S
C1071 N1068 1.314 . S
C1071 C1069 1.353 . S
C1071 H1127 0.930 . S
C1072 N1073 1.314 . S
C1072 C1077 1.353 . S
C1072 H1078 0.930 . S
N1073 Li1056 1.990 . S
N1073 C1072 1.314 . S
N1073 C1075 1.279 . S
C1074 C1075 1.358 . S
C1074 C1076 1.356 . S
C1074 H1128 0.930 . S
C1075 N1073 1.279 . S
C1075 C1074 1.358 . S
C1075 H1079 0.930 . S
C1076 C1074 1.356 . S
C1076 C1077 1.348 . S
C1077 C1072 1.353 . S
C1077 C1076 1.348 . S
C1077 H1129 0.929 . S
H1078 C1072 0.930 . S
H1079 C1075 0.930 . S
C1080 N1081 1.314 . S
C1080 C1082 1.353 . S
C1080 H1086 0.930 . S
N1081 Li1057 1.990 . S
N1081 C1080 1.314 . S
N1081 C1084 1.279 . S
C1082 C1080 1.353 . S
C1082 C1085 1.348 . S
C1082 H1130 0.929 . S
C1083 C1084 1.358 . S
C1083 C1085 1.356 . S
C1083 H1131 0.930 . S
C1084 N1081 1.279 . S
C1084 C1083 1.358 . S
C1084 H1087 0.930 . S
C1085 C1082 1.348 . S
C1085 C1083 1.356 . S
H1086 C1080 0.930 . S
H1087 C1084 0.930 . S
C1088 C1090 1.348 . S
C1088 C1091 1.356 . S
C1088 O1118 1.325 . S
N1089 C1092 1.314 . S
N1089 C1093 1.279 . S
C1090 C1088 1.348 . S
C1090 C1092 1.353 . S
C1090 H1132 0.929 . S
C1091 C1088 1.356 . S
C1091 C1093 1.358 . S
C1091 H1133 0.930 . S
C1092 N1089 1.314 . S
C1092 C1090 1.353 . S
C1092 H1134 0.930 . S
C1093 N1089 1.279 . S
C1093 C1091 1.358 . S
C1093 H1135 0.930 . S
C1094 C1095 1.348 . S
C1094 C1096 1.356 . S
C1094 O1119 1.325 . S
C1095 C1094 1.348 . S
C1095 C1097 1.353 . S
C1095 H1136 0.929 . S
C1096 C1094 1.356 . S
C1096 C1098 1.358 . S
C1096 H1137 0.930 . S
C1097 C1095 1.353 . S
C1097 N1099 1.314 . S
C1097 H1138 0.930 . S
C1098 C1096 1.358 . S
C1098 N1099 1.279 . S
C1098 H1139 0.930 . S
N1099 C1097 1.314 . S
N1099 C1098 1.279 . S
C1100 C1102 1.353 . S
C1100 N1103 1.314 . S
C1100 H1106 0.930 . S
C1101 N1103 1.279 . S
C1101 C1104 1.358 . S
C1101 H1107 0.930 . S
C1102 C1100 1.353 . S
C1102 C1105 1.348 . S
C1102 H1140 0.929 . S
N1103 Li1058 1.990 . S
N1103 C1100 1.314 . S
N1103 C1101 1.279 . S
C1104 C1101 1.358 . S
C1104 C1105 1.356 . S
C1104 H1141 0.930 . S
C1105 C1102 1.348 . S
C1105 C1104 1.356 . S
H1106 C1100 0.930 . S
H1107 C1101 0.930 . S
C1108 N1109 1.314 . S
C1108 C1110 1.353 . S
C1108 H1114 0.930 . S
N1109 Li1059 1.990 . S
N1109 C1108 1.314 . S
N1109 C1112 1.279 . S
C1110 C1108 1.353 . S
C1110 C1113 1.348 . S
C1110 H1142 0.929 . S
C1111 C1112 1.358 . S
C1111 C1113 1.356 . S
C1111 H1143 0.930 . S
C1112 N1109 1.279 . S
C1112 C1111 1.358 . S
C1112 H1115 0.930 . S
C1113 C1110 1.348 . S
C1113 C1111 1.356 . S
H1114 C1108 0.930 . S
H1115 C1112 0.930 . S
O1116 Li1056 1.956 . S
O1116 Li1057 1.970 . S
O1116 Li1058 1.961 . S
O1116 C1060 1.325 . S
O1117 Li1056 1.970 . S
O1117 Li1057 1.956 . S
O1117 Li1059 1.961 . S
O1117 C1066 1.325 . S
O1118 Li1056 1.961 . S
O1118 Li1058 1.956 . S
O1118 Li1059 1.970 . S
O1118 C1088 1.325 . S
O1119 Li1057 1.961 . S
O1119 Li1058 1.970 . S
O1119 Li1059 1.956 . S
O1119 C1094 1.325 . S
H1120 C1062 0.929 . S
H1121 C1063 0.930 . S
H1122 C1064 0.930 . S
H1123 C1065 0.930 . S
H1124 C1067 0.930 . S
H1125 C1069 0.929 . S
H1126 C1070 0.930 . S
H1127 C1071 0.930 . S
H1128 C1074 0.930 . S
H1129 C1077 0.929 . S
H1130 C1082 0.929 . S
H1131 C1083 0.930 . S
H1132 C1090 0.929 . S
H1133 C1091 0.930 . S
H1134 C1092 0.930 . S
H1135 C1093 0.930 . S
H1136 C1095 0.929 . S
H1137 C1096 0.930 . S
H1138 C1097 0.930 . S
H1139 C1098 0.930 . S
H1140 C1102 0.929 . S
H1141 C1104 0.930 . S
H1142 C1110 0.929 . S
H1143 C1111 0.930 . S
Li1144 N1161 1.990 . S
Li1144 O1204 1.956 . S
Li1144 O1205 1.970 . S
Li1144 O1206 1.961 . S
Li1145 N1169 1.990 . S
Li1145 O1204 1.970 . S
Li1145 O1205 1.956 . S
Li1145 O1207 1.961 . S
Li1146 N1191 1.990 . S
Li1146 O1204 1.961 . S
Li1146 O1206 1.956 . S
Li1146 O1207 1.970 . S
Li1147 N1197 1.990 . S
Li1147 O1205 1.961 . S
Li1147 O1206 1.970 . S
Li1147 O1207 1.956 . S
C1148 C1150 1.348 . S
C1148 C1151 1.356 . S
C1148 O1204 1.325 . S
N1149 C1152 1.314 . S
N1149 C1153 1.279 . S
C1150 C1148 1.348 . S
C1150 C1152 1.353 . S
C1150 H1208 0.929 . S
C1151 C1148 1.356 . S
C1151 C1153 1.358 . S
C1151 H1209 0.930 . S
C1152 N1149 1.314 . S
C1152 C1150 1.353 . S
C1152 H1210 0.930 . S
C1153 N1149 1.279 . S
C1153 C1151 1.358 . S
C1153 H1211 0.930 . S
C1154 C1157 1.348 . S
C1154 C1158 1.356 . S
C1154 O1205 1.325 . S
C1155 N1156 1.279 . S
C1155 C1158 1.358 . S
C1155 H1212 0.930 . S
N1156 C1155 1.279 . S
N1156 C1159 1.314 . S
C1157 C1154 1.348 . S
C1157 C1159 1.353 . S
C1157 H1213 0.929 . S
C1158 C1154 1.356 . S
C1158 C1155 1.358 . S
C1158 H1214 0.930 . S
C1159 N1156 1.314 . S
C1159 C1157 1.353 . S
C1159 H1215 0.930 . S
C1160 N1161 1.314 . S
C1160 C1165 1.353 . S
C1160 H1166 0.930 . S
N1161 Li1144 1.990 . S
N1161 C1160 1.314 . S
N1161 C1163 1.279 . S
C1162 C1163 1.358 . S
C1162 C1164 1.356 . S
C1162 H1216 0.930 . S
C1163 N1161 1.279 . S
C1163 C1162 1.358 . S
C1163 H1167 0.930 . S
C1164 C1162 1.356 . S
C1164 C1165 1.348 . S
C1165 C1160 1.353 . S
C1165 C1164 1.348 . S
C1165 H1217 0.929 . S
H1166 C1160 0.930 . S
H1167 C1163 0.930 . S
C1168 N1169 1.314 . S
C1168 C1170 1.353 . S
C1168 H1174 0.930 . S
N1169 Li1145 1.990 . S
N1169 C1168 1.314 . S
N1169 C1172 1.279 . S
C1170 C1168 1.353 . S
C1170 C1173 1.348 . S
C1170 H1218 0.929 . S
C1171 C1172 1.358 . S
C1171 C1173 1.356 . S
C1171 H1219 0.930 . S
C1172 N1169 1.279 . S
C1172 C1171 1.358 . S
C1172 H1175 0.930 . S
C1173 C1170 1.348 . S
C1173 C1171 1.356 . S
H1174 C1168 0.930 . S
H1175 C1172 0.930 . S
C1176 C1178 1.348 . S
C1176 C1179 1.356 . S
C1176 O1206 1.325 . S
N1177 C1180 1.314 . S
N1177 C1181 1.279 . S
C1178 C1176 1.348 . S
C1178 C1180 1.353 . S
C1178 H1220 0.929 . S
C1179 C1176 1.356 . S
C1179 C1181 1.358 . S
C1179 H1221 0.930 . S
C1180 N1177 1.314 . S
C1180 C1178 1.353 . S
C1180 H1222 0.930 . S
C1181 N1177 1.279 . S
C1181 C1179 1.358 . S
C1181 H1223 0.930 . S
C1182 C1183 1.348 . S
C1182 C1184 1.356 . S
C1182 O1207 1.325 . S
C1183 C1182 1.348 . S
C1183 C1185 1.353 . S
C1183 H1224 0.929 . S
C1184 C1182 1.356 . S
C1184 C1186 1.358 . S
C1184 H1225 0.930 . S
C1185 C1183 1.353 . S
C1185 N1187 1.314 . S
C1185 H1226 0.930 . S
C1186 C1184 1.358 . S
C1186 N1187 1.279 . S
C1186 H1227 0.930 . S
N1187 C1185 1.314 . S
N1187 C1186 1.279 . S
C1188 C1190 1.353 . S
C1188 N1191 1.314 . S
C1188 H1194 0.930 . S
C1189 N1191 1.279 . S
C1189 C1192 1.358 . S
C1189 H1195 0.930 . S
C1190 C1188 1.353 . S
C1190 C1193 1.348 . S
C1190 H1228 0.929 . S
N1191 Li1146 1.990 . S
N1191 C1188 1.314 . S
N1191 C1189 1.279 . S
C1192 C1189 1.358 . S
C1192 C1193 1.356 . S
C1192 H1229 0.930 . S
C1193 C1190 1.348 . S
C1193 C1192 1.356 . S
H1194 C1188 0.930 . S
H1195 C1189 0.930 . S
C1196 N1197 1.314 . S
C1196 C1198 1.353 . S
C1196 H1202 0.930 . S
N1197 Li1147 1.990 . S
N1197 C1196 1.314 . S
N1197 C1200 1.279 . S
C1198 C1196 1.353 . S
C1198 C1201 1.348 . S
C1198 H1230 0.929 . S
C1199 C1200 1.358 . S
C1199 C1201 1.356 . S
C1199 H1231 0.930 . S
C1200 N1197 1.279 . S
C1200 C1199 1.358 . S
C1200 H1203 0.930 . S
C1201 C1198 1.348 . S
C1201 C1199 1.356 . S
H1202 C1196 0.930 . S
H1203 C1200 0.930 . S
O1204 Li1144 1.956 . S
O1204 Li1145 1.970 . S
O1204 Li1146 1.961 . S
O1204 C1148 1.325 . S
O1205 Li1144 1.970 . S
O1205 Li1145 1.956 . S
O1205 Li1147 1.961 . S
O1205 C1154 1.325 . S
O1206 Li1144 1.961 . S
O1206 Li1146 1.956 . S
O1206 Li1147 1.970 . S
O1206 C1176 1.325 . S
O1207 Li1145 1.961 . S
O1207 Li1146 1.970 . S
O1207 Li1147 1.956 . S
O1207 C1182 1.325 . S
H1208 C1150 0.929 . S
H1209 C1151 0.930 . S
H1210 C1152 0.930 . S
H1211 C1153 0.930 . S
H1212 C1155 0.930 . S
H1213 C1157 0.929 . S
H1214 C1158 0.930 . S
H1215 C1159 0.930 . S
H1216 C1162 0.930 . S
H1217 C1165 0.929 . S
H1218 C1170 0.929 . S
H1219 C1171 0.930 . S
H1220 C1178 0.929 . S
H1221 C1179 0.930 . S
H1222 C1180 0.930 . S
H1223 C1181 0.930 . S
H1224 C1183 0.929 . S
H1225 C1184 0.930 . S
H1226 C1185 0.930 . S
H1227 C1186 0.930 . S
H1228 C1190 0.929 . S
H1229 C1192 0.930 . S
H1230 C1198 0.929 . S
H1231 C1199 0.930 . S
Li1232 N1249 1.990 . S
Li1232 O1292 1.956 . S
Li1232 O1293 1.970 . S
Li1232 O1294 1.961 . S
Li1233 N1257 1.990 . S
Li1233 O1292 1.970 . S
Li1233 O1293 1.956 . S
Li1233 O1295 1.961 . S
Li1234 N1279 1.990 . S
Li1234 O1292 1.961 . S
Li1234 O1294 1.956 . S
Li1234 O1295 1.970 . S
Li1235 N1285 1.990 . S
Li1235 O1293 1.961 . S
Li1235 O1294 1.970 . S
Li1235 O1295 1.956 . S
C1236 C1238 1.348 . S
C1236 C1239 1.356 . S
C1236 O1292 1.325 . S
N1237 C1240 1.314 . S
N1237 C1241 1.279 . S
C1238 C1236 1.348 . S
C1238 C1240 1.353 . S
C1238 H1296 0.929 . S
C1239 C1236 1.356 . S
C1239 C1241 1.358 . S
C1239 H1297 0.930 . S
C1240 N1237 1.314 . S
C1240 C1238 1.353 . S
C1240 H1298 0.930 . S
C1241 N1237 1.279 . S
C1241 C1239 1.358 . S
C1241 H1299 0.930 . S
C1242 C1245 1.348 . S
C1242 C1246 1.356 . S
C1242 O1293 1.325 . S
C1243 N1244 1.279 . S
C1243 C1246 1.358 . S
C1243 H1300 0.930 . S
N1244 C1243 1.279 . S
N1244 C1247 1.314 . S
C1245 C1242 1.348 . S
C1245 C1247 1.353 . S
C1245 H1301 0.929 . S
C1246 C1242 1.356 . S
C1246 C1243 1.358 . S
C1246 H1302 0.930 . S
C1247 N1244 1.314 . S
C1247 C1245 1.353 . S
C1247 H1303 0.930 . S
C1248 N1249 1.314 . S
C1248 C1253 1.353 . S
C1248 H1254 0.930 . S
N1249 Li1232 1.990 . S
N1249 C1248 1.314 . S
N1249 C1251 1.279 . S
C1250 C1251 1.358 . S
C1250 C1252 1.356 . S
C1250 H1304 0.930 . S
C1251 N1249 1.279 . S
C1251 C1250 1.358 . S
C1251 H1255 0.930 . S
C1252 C1250 1.356 . S
C1252 C1253 1.348 . S
C1253 C1248 1.353 . S
C1253 C1252 1.348 . S
C1253 H1305 0.929 . S
H1254 C1248 0.930 . S
H1255 C1251 0.930 . S
C1256 N1257 1.314 . S
C1256 C1258 1.353 . S
C1256 H1262 0.930 . S
N1257 Li1233 1.990 . S
N1257 C1256 1.314 . S
N1257 C1260 1.279 . S
C1258 C1256 1.353 . S
C1258 C1261 1.348 . S
C1258 H1306 0.929 . S
C1259 C1260 1.358 . S
C1259 C1261 1.356 . S
C1259 H1307 0.930 . S
C1260 N1257 1.279 . S
C1260 C1259 1.358 . S
C1260 H1263 0.930 . S
C1261 C1258 1.348 . S
C1261 C1259 1.356 . S
H1262 C1256 0.930 . S
H1263 C1260 0.930 . S
C1264 C1266 1.348 . S
C1264 C1267 1.356 . S
C1264 O1294 1.325 . S
N1265 C1268 1.314 . S
N1265 C1269 1.279 . S
C1266 C1264 1.348 . S
C1266 C1268 1.353 . S
C1266 H1308 0.929 . S
C1267 C1264 1.356 . S
C1267 C1269 1.358 . S
C1267 H1309 0.930 . S
C1268 N1265 1.314 . S
C1268 C1266 1.353 . S
C1268 H1310 0.930 . S
C1269 N1265 1.279 . S
C1269 C1267 1.358 . S
C1269 H1311 0.930 . S
C1270 C1271 1.348 . S
C1270 C1272 1.356 . S
C1270 O1295 1.325 . S
C1271 C1270 1.348 . S
C1271 C1273 1.353 . S
C1271 H1312 0.929 . S
C1272 C1270 1.356 . S
C1272 C1274 1.358 . S
C1272 H1313 0.930 . S
C1273 C1271 1.353 . S
C1273 N1275 1.314 . S
C1273 H1314 0.930 . S
C1274 C1272 1.358 . S
C1274 N1275 1.279 . S
C1274 H1315 0.930 . S
N1275 C1273 1.314 . S
N1275 C1274 1.279 . S
C1276 C1278 1.353 . S
C1276 N1279 1.314 . S
C1276 H1282 0.930 . S
C1277 N1279 1.279 . S
C1277 C1280 1.358 . S
C1277 H1283 0.930 . S
C1278 C1276 1.353 . S
C1278 C1281 1.348 . S
C1278 H1316 0.929 . S
N1279 Li1234 1.990 . S
N1279 C1276 1.314 . S
N1279 C1277 1.279 . S
C1280 C1277 1.358 . S
C1280 C1281 1.356 . S
C1280 H1317 0.930 . S
C1281 C1278 1.348 . S
C1281 C1280 1.356 . S
H1282 C1276 0.930 . S
H1283 C1277 0.930 . S
C1284 N1285 1.314 . S
C1284 C1286 1.353 . S
C1284 H1290 0.930 . S
N1285 Li1235 1.990 . S
N1285 C1284 1.314 . S
N1285 C1288 1.279 . S
C1286 C1284 1.353 . S
C1286 C1289 1.348 . S
C1286 H1318 0.929 . S
C1287 C1288 1.358 . S
C1287 C1289 1.356 . S
C1287 H1319 0.930 . S
C1288 N1285 1.279 . S
C1288 C1287 1.358 . S
C1288 H1291 0.930 . S
C1289 C1286 1.348 . S
C1289 C1287 1.356 . S
H1290 C1284 0.930 . S
H1291 C1288 0.930 . S
O1292 Li1232 1.956 . S
O1292 Li1233 1.970 . S
O1292 Li1234 1.961 . S
O1292 C1236 1.325 . S
O1293 Li1232 1.970 . S
O1293 Li1233 1.956 . S
O1293 Li1235 1.961 . S
O1293 C1242 1.325 . S
O1294 Li1232 1.961 . S
O1294 Li1234 1.956 . S
O1294 Li1235 1.970 . S
O1294 C1264 1.325 . S
O1295 Li1233 1.961 . S
O1295 Li1234 1.970 . S
O1295 Li1235 1.956 . S
O1295 C1270 1.325 . S
H1296 C1238 0.929 . S
H1297 C1239 0.930 . S
H1298 C1240 0.930 . S
H1299 C1241 0.930 . S
H1300 C1243 0.930 . S
H1301 C1245 0.929 . S
H1302 C1246 0.930 . S
H1303 C1247 0.930 . S
H1304 C1250 0.930 . S
H1305 C1253 0.929 . S
H1306 C1258 0.929 . S
H1307 C1259 0.930 . S
H1308 C1266 0.929 . S
H1309 C1267 0.930 . S
H1310 C1268 0.930 . S
H1311 C1269 0.930 . S
H1312 C1271 0.929 . S
H1313 C1272 0.930 . S
H1314 C1273 0.930 . S
H1315 C1274 0.930 . S
H1316 C1278 0.929 . S
H1317 C1280 0.930 . S
H1318 C1286 0.929 . S
H1319 C1287 0.930 . S
Li1320 N1337 1.990 . S
Li1320 O1380 1.956 . S
Li1320 O1381 1.970 . S
Li1320 O1382 1.961 . S
Li1321 N1345 1.990 . S
Li1321 O1380 1.970 . S
Li1321 O1381 1.956 . S
Li1321 O1383 1.961 . S
Li1322 N1367 1.990 . S
Li1322 O1380 1.961 . S
Li1322 O1382 1.956 . S
Li1322 O1383 1.970 . S
Li1323 N1373 1.990 . S
Li1323 O1381 1.961 . S
Li1323 O1382 1.970 . S
Li1323 O1383 1.956 . S
C1324 C1326 1.348 . S
C1324 C1327 1.356 . S
C1324 O1380 1.325 . S
N1325 C1328 1.314 . S
N1325 C1329 1.279 . S
C1326 C1324 1.348 . S
C1326 C1328 1.353 . S
C1326 H1384 0.929 . S
C1327 C1324 1.356 . S
C1327 C1329 1.358 . S
C1327 H1385 0.930 . S
C1328 N1325 1.314 . S
C1328 C1326 1.353 . S
C1328 H1386 0.930 . S
C1329 N1325 1.279 . S
C1329 C1327 1.358 . S
C1329 H1387 0.930 . S
C1330 C1333 1.348 . S
C1330 C1334 1.356 . S
C1330 O1381 1.325 . S
C1331 N1332 1.279 . S
C1331 C1334 1.358 . S
C1331 H1388 0.930 . S
N1332 C1331 1.279 . S
N1332 C1335 1.314 . S
C1333 C1330 1.348 . S
C1333 C1335 1.353 . S
C1333 H1389 0.929 . S
C1334 C1330 1.356 . S
C1334 C1331 1.358 . S
C1334 H1390 0.930 . S
C1335 N1332 1.314 . S
C1335 C1333 1.353 . S
C1335 H1391 0.930 . S
C1336 N1337 1.314 . S
C1336 C1341 1.353 . S
C1336 H1342 0.930 . S
N1337 Li1320 1.990 . S
N1337 C1336 1.314 . S
N1337 C1339 1.279 . S
C1338 C1339 1.358 . S
C1338 C1340 1.356 . S
C1338 H1392 0.930 . S
C1339 N1337 1.279 . S
C1339 C1338 1.358 . S
C1339 H1343 0.930 . S
C1340 C1338 1.356 . S
C1340 C1341 1.348 . S
C1341 C1336 1.353 . S
C1341 C1340 1.348 . S
C1341 H1393 0.929 . S
H1342 C1336 0.930 . S
H1343 C1339 0.930 . S
C1344 N1345 1.314 . S
C1344 C1346 1.353 . S
C1344 H1350 0.930 . S
N1345 Li1321 1.990 . S
N1345 C1344 1.314 . S
N1345 C1348 1.279 . S
C1346 C1344 1.353 . S
C1346 C1349 1.348 . S
C1346 H1394 0.929 . S
C1347 C1348 1.358 . S
C1347 C1349 1.356 . S
C1347 H1395 0.930 . S
C1348 N1345 1.279 . S
C1348 C1347 1.358 . S
C1348 H1351 0.930 . S
C1349 C1346 1.348 . S
C1349 C1347 1.356 . S
H1350 C1344 0.930 . S
H1351 C1348 0.930 . S
C1352 C1354 1.348 . S
C1352 C1355 1.356 . S
C1352 O1382 1.325 . S
N1353 C1356 1.314 . S
N1353 C1357 1.279 . S
C1354 C1352 1.348 . S
C1354 C1356 1.353 . S
C1354 H1396 0.929 . S
C1355 C1352 1.356 . S
C1355 C1357 1.358 . S
C1355 H1397 0.930 . S
C1356 N1353 1.314 . S
C1356 C1354 1.353 . S
C1356 H1398 0.930 . S
C1357 N1353 1.279 . S
C1357 C1355 1.358 . S
C1357 H1399 0.930 . S
C1358 C1359 1.348 . S
C1358 C1360 1.356 . S
C1358 O1383 1.325 . S
C1359 C1358 1.348 . S
C1359 C1361 1.353 . S
C1359 H1400 0.929 . S
C1360 C1358 1.356 . S
C1360 C1362 1.358 . S
C1360 H1401 0.930 . S
C1361 C1359 1.353 . S
C1361 N1363 1.314 . S
C1361 H1402 0.930 . S
C1362 C1360 1.358 . S
C1362 N1363 1.279 . S
C1362 H1403 0.930 . S
N1363 C1361 1.314 . S
N1363 C1362 1.279 . S
C1364 C1366 1.353 . S
C1364 N1367 1.314 . S
C1364 H1370 0.930 . S
C1365 N1367 1.279 . S
C1365 C1368 1.358 . S
C1365 H1371 0.930 . S
C1366 C1364 1.353 . S
C1366 C1369 1.348 . S
C1366 H1404 0.929 . S
N1367 Li1322 1.990 . S
N1367 C1364 1.314 . S
N1367 C1365 1.279 . S
C1368 C1365 1.358 . S
C1368 C1369 1.356 . S
C1368 H1405 0.930 . S
C1369 C1366 1.348 . S
C1369 C1368 1.356 . S
H1370 C1364 0.930 . S
H1371 C1365 0.930 . S
C1372 N1373 1.314 . S
C1372 C1374 1.353 . S
C1372 H1378 0.930 . S
N1373 Li1323 1.990 . S
N1373 C1372 1.314 . S
N1373 C1376 1.279 . S
C1374 C1372 1.353 . S
C1374 C1377 1.348 . S
C1374 H1406 0.929 . S
C1375 C1376 1.358 . S
C1375 C1377 1.356 . S
C1375 H1407 0.930 . S
C1376 N1373 1.279 . S
C1376 C1375 1.358 . S
C1376 H1379 0.930 . S
C1377 C1374 1.348 . S
C1377 C1375 1.356 . S
H1378 C1372 0.930 . S
H1379 C1376 0.930 . S
O1380 Li1320 1.956 . S
O1380 Li1321 1.970 . S
O1380 Li1322 1.961 . S
O1380 C1324 1.325 . S
O1381 Li1320 1.970 . S
O1381 Li1321 1.956 . S
O1381 Li1323 1.961 . S
O1381 C1330 1.325 . S
O1382 Li1320 1.961 . S
O1382 Li1322 1.956 . S
O1382 Li1323 1.970 . S
O1382 C1352 1.325 . S
O1383 Li1321 1.961 . S
O1383 Li1322 1.970 . S
O1383 Li1323 1.956 . S
O1383 C1358 1.325 . S
H1384 C1326 0.929 . S
H1385 C1327 0.930 . S
H1386 C1328 0.930 . S
H1387 C1329 0.930 . S
H1388 C1331 0.930 . S
H1389 C1333 0.929 . S
H1390 C1334 0.930 . S
H1391 C1335 0.930 . S
H1392 C1338 0.930 . S
H1393 C1341 0.929 . S
H1394 C1346 0.929 . S
H1395 C1347 0.930 . S
H1396 C1354 0.929 . S
H1397 C1355 0.930 . S
H1398 C1356 0.930 . S
H1399 C1357 0.930 . S
H1400 C1359 0.929 . S
H1401 C1360 0.930 . S
H1402 C1361 0.930 . S
H1403 C1362 0.930 . S
H1404 C1366 0.929 . S
H1405 C1368 0.930 . S
H1406 C1374 0.929 . S
H1407 C1375 0.930 . S
C1408 C1409 1.391 . S
C1408 C1410 1.394 . S
C1408 H1424 0.931 . S
C1409 C1408 1.391 . S
C1409 C1413 1.376 . S
C1410 C1408 1.394 . S
C1410 C1411 1.369 . S
C1410 C1414 1.531 . S
C1411 C1410 1.369 . S
C1411 C1412 1.410 . S
C1411 C1419 1.503 . S
C1412 C1411 1.410 . S
C1412 C1413 1.392 . S
C1412 C1415 1.511 . S
C1413 C1409 1.376 . S
C1413 C1412 1.392 . S
C1413 H1425 0.929 . S
C1414 C1410 1.531 . S
C1414 H1426 0.960 . S
C1414 H1427 0.962 . S
C1414 H1428 0.960 . S
C1415 C1412 1.511 . S
C1415 H1429 0.961 . S
C1415 H1430 0.961 . S
C1415 H1431 0.961 . S
C1416 C1417 1.370 . S
C1416 C1418 1.363 . S
C1416 H1432 0.931 . S
C1417 C1416 1.370 . S
C1417 C1421 1.408 . S
C1418 C1416 1.363 . S
C1418 C1419 1.370 . S
C1418 C1422 1.524 . S
C1419 C1411 1.503 . S
C1419 C1418 1.370 . S
C1419 C1420 1.403 . S
C1420 C1419 1.403 . S
C1420 C1421 1.404 . S
C1420 C1423 1.539 . S
C1421 C1417 1.408 . S
C1421 C1420 1.404 . S
C1421 H1433 0.930 . S
C1422 C1418 1.524 . S
C1422 H1434 0.956 . S
C1422 H1435 0.961 . S
C1422 H1436 0.961 . S
C1423 C1420 1.539 . S
C1423 H1437 0.958 . S
C1423 H1438 0.961 . S
C1423 H1439 0.960 . S
H1424 C1408 0.931 . S
H1425 C1413 0.929 . S
H1426 C1414 0.960 . S
H1427 C1414 0.962 . S
H1428 C1414 0.960 . S
H1429 C1415 0.961 . S
H1430 C1415 0.961 . S
H1431 C1415 0.961 . S
H1432 C1416 0.931 . S
H1433 C1421 0.930 . S
H1434 C1422 0.956 . S
H1435 C1422 0.961 . S
H1436 C1422 0.961 . S
H1437 C1423 0.958 . S
H1438 C1423 0.961 . S
H1439 C1423 0.960 . S
C1440 C1441 1.391 . S
C1440 C1442 1.394 . S
C1440 H1456 0.931 . S
C1441 C1440 1.391 . S
C1441 C1445 1.376 . S
C1442 C1440 1.394 . S
C1442 C1443 1.369 . S
C1442 C1446 1.531 . S
C1443 C1442 1.369 . S
C1443 C1444 1.404 1_565 S
C1443 C1451 1.503 1_665 S
C1444 C1443 1.404 1_545 S
C1444 C1445 1.375 1_545 S
C1444 C1447 1.534 . S
C1445 C1441 1.376 . S
C1445 C1444 1.375 1_565 S
C1445 H1457 0.929 . S
C1446 C1442 1.531 . S
C1446 H1458 0.960 . S
C1446 H1459 0.962 . S
C1446 H1460 0.960 . S
C1447 C1444 1.534 . S
C1447 H1461 0.961 . S
C1447 H1462 0.961 1_655 S
C1447 H1463 0.961 . S
C1448 C1449 1.370 . S
C1448 C1450 1.363 . S
C1448 H1464 0.931 . S
C1449 C1448 1.370 . S
C1449 C1453 1.408 . S
C1450 C1448 1.363 . S
C1450 C1451 1.370 . S
C1450 C1454 1.524 1_545 S
C1451 C1443 1.503 1_445 S
C1451 C1450 1.370 . S
C1451 C1452 1.403 1_455 S
C1452 C1451 1.403 1_655 S
C1452 C1453 1.404 1_655 S
C1452 C1455 1.539 . S
C1453 C1449 1.408 . S
C1453 C1452 1.404 1_455 S
C1453 H1465 0.930 . S
C1454 C1450 1.524 1_565 S
C1454 H1466 0.956 . S
C1454 H1467 0.961 . S
C1454 H1468 0.961 . S
C1455 C1452 1.539 . S
C1455 H1469 0.958 . S
C1455 H1470 0.961 . S
C1455 H1471 0.960 . S
H1456 C1440 0.931 . S
H1457 C1445 0.929 . S
H1458 C1446 0.960 . S
H1459 C1446 0.962 . S
H1460 C1446 0.960 . S
H1461 C1447 0.961 . S
H1462 C1447 0.961 1_455 S
H1463 C1447 0.961 . S
H1464 C1448 0.931 . S
H1465 C1453 0.930 . S
H1466 C1454 0.956 . S
H1467 C1454 0.961 . S
H1468 C1454 0.961 . S
H1469 C1455 0.958 . S
H1470 C1455 0.961 . S
H1471 C1455 0.960 . S
C1472 C1473 1.391 . S
C1472 C1474 1.394 1_565 S
C1472 H1488 0.931 . S
C1473 C1472 1.391 . S
C1473 C1477 1.376 . S
C1474 C1472 1.394 1_545 S
C1474 C1475 1.369 1_545 S
C1474 C1478 1.531 . S
C1475 C1474 1.369 1_565 S
C1475 C1476 1.410 . S
C1475 C1483 1.503 1_565 S
C1476 C1475 1.410 . S
C1476 C1477 1.392 . S
C1476 C1479 1.511 . S
C1477 C1473 1.376 . S
C1477 C1476 1.392 . S
C1477 H1489 0.929 . S
C1478 C1474 1.531 . S
C1478 H1490 0.960 . S
C1478 H1491 0.962 . S
C1478 H1492 0.960 . S
C1479 C1476 1.511 . S
C1479 H1493 0.961 . S
C1479 H1494 0.961 . S
C1479 H1495 0.961 . S
C1480 C1481 1.370 . S
C1480 C1482 1.363 . S
C1480 H1496 0.931 . S
C1481 C1480 1.370 . S
C1481 C1485 1.408 . S
C1482 C1480 1.363 . S
C1482 C1483 1.370 . S
C1482 C1486 1.524 . S
C1483 C1475 1.503 1_545 S
C1483 C1482 1.370 . S
C1483 C1484 1.403 . S
C1484 C1483 1.403 . S
C1484 C1485 1.404 . S
C1484 C1487 1.539 . S
C1485 C1481 1.408 . S
C1485 C1484 1.404 . S
C1485 H1497 0.930 . S
C1486 C1482 1.524 . S
C1486 H1498 0.956 . S
C1486 H1499 0.961 1_545 S
C1486 H1500 0.961 . S
C1487 C1484 1.539 . S
C1487 H1501 0.958 . S
C1487 H1502 0.961 . S
C1487 H1503 0.960 1_545 S
H1488 C1472 0.931 . S
H1489 C1477 0.929 . S
H1490 C1478 0.960 . S
H1491 C1478 0.962 . S
H1492 C1478 0.960 . S
H1493 C1479 0.961 . S
H1494 C1479 0.961 . S
H1495 C1479 0.961 . S
H1496 C1480 0.931 . S
H1497 C1485 0.930 . S
H1498 C1486 0.956 . S
H1499 C1486 0.961 1_565 S
H1500 C1486 0.961 . S
H1501 C1487 0.958 . S
H1502 C1487 0.961 . S
H1503 C1487 0.960 1_565 S
C1504 C1505 1.391 . S
C1504 C1506 1.394 . S
C1504 H1520 0.931 . S
C1505 C1504 1.391 . S
C1505 C1509 1.376 . S
C1506 C1504 1.394 . S
C1506 C1507 1.369 . S
C1506 C1510 1.531 . S
C1507 C1506 1.369 . S
C1507 C1508 1.410 . S
C1507 C1515 1.503 1_455 S
C1508 C1507 1.410 . S
C1508 C1509 1.392 . S
C1508 C1511 1.511 1_455 S
C1509 C1505 1.376 . S
C1509 C1508 1.392 . S
C1509 H1521 0.929 . S
C1510 C1506 1.531 . S
C1510 H1522 0.960 . S
C1510 H1523 0.962 . S
C1510 H1524 0.960 . S
C1511 C1508 1.511 1_655 S
C1511 H1525 0.961 . S
C1511 H1526 0.961 . S
C1511 H1527 0.961 . S
C1512 C1513 1.370 . S
C1512 C1514 1.363 . S
C1512 H1528 0.931 . S
C1513 C1512 1.370 . S
C1513 C1517 1.408 . S
C1514 C1512 1.363 . S
C1514 C1515 1.370 . S
C1514 C1518 1.524 . S
C1515 C1507 1.503 1_655 S
C1515 C1514 1.370 . S
C1515 C1516 1.409 . S
C1516 C1515 1.409 . S
C1516 C1517 1.425 . S
C1516 C1519 1.514 1_655 S
C1517 C1513 1.408 . S
C1517 C1516 1.425 . S
C1517 H1529 0.930 . S
C1518 C1514 1.524 . S
C1518 H1530 0.956 . S
C1518 H1531 0.961 . S
C1518 H1532 0.961 . S
C1519 C1516 1.514 1_455 S
C1519 H1533 0.958 . S
C1519 H1534 0.961 . S
C1519 H1535 0.960 . S
H1520 C1504 0.931 . S
H1521 C1509 0.929 . S
H1522 C1510 0.960 . S
H1523 C1510 0.962 . S
H1524 C1510 0.960 . S
H1525 C1511 0.961 . S
H1526 C1511 0.961 . S
H1527 C1511 0.961 . S
H1528 C1512 0.931 . S
H1529 C1517 0.930 . S
H1530 C1518 0.956 . S
H1531 C1518 0.961 . S
H1532 C1518 0.961 . S
H1533 C1519 0.958 . S
H1534 C1519 0.961 . S
H1535 C1519 0.960 . S
C1536 C1537 1.391 . S
C1536 C1538 1.394 . S
C1536 H1552 0.931 . S
C1537 C1536 1.391 . S
C1537 C1541 1.376 . S
C1538 C1536 1.394 . S
C1538 C1539 1.369 . S
C1538 C1542 1.531 . S
C1539 C1538 1.369 . S
C1539 C1540 1.410 . S
C1539 C1547 1.503 . S
C1540 C1539 1.410 . S
C1540 C1541 1.392 . S
C1540 C1543 1.511 . S
C1541 C1537 1.376 . S
C1541 C1540 1.392 . S
C1541 H1553 0.929 . S
C1542 C1538 1.531 . S
C1542 H1554 0.960 . S
C1542 H1555 0.962 . S
C1542 H1556 0.960 . S
C1543 C1540 1.511 . S
C1543 H1557 0.961 . S
C1543 H1558 0.961 . S
C1543 H1559 0.961 . S
C1544 C1545 1.370 . S
C1544 C1546 1.363 . S
C1544 H1560 0.931 . S
C1545 C1544 1.370 . S
C1545 C1549 1.408 . S
C1546 C1544 1.363 . S
C1546 C1547 1.370 . S
C1546 C1550 1.524 . S
C1547 C1539 1.503 . S
C1547 C1546 1.370 . S
C1547 C1548 1.403 . S
C1548 C1547 1.403 . S
C1548 C1549 1.404 . S
C1548 C1551 1.539 . S
C1549 C1545 1.408 . S
C1549 C1548 1.404 . S
C1549 H1561 0.930 . S
C1550 C1546 1.524 . S
C1550 H1562 0.956 . S
C1550 H1563 0.961 . S
C1550 H1564 0.961 . S
C1551 C1548 1.539 . S
C1551 H1565 0.958 . S
C1551 H1566 0.961 . S
C1551 H1567 0.960 . S
H1552 C1536 0.931 . S
H1553 C1541 0.929 . S
H1554 C1542 0.960 . S
H1555 C1542 0.962 . S
H1556 C1542 0.960 . S
H1557 C1543 0.961 . S
H1558 C1543 0.961 . S
H1559 C1543 0.961 . S
H1560 C1544 0.931 . S
H1561 C1549 0.930 . S
H1562 C1550 0.956 . S
H1563 C1550 0.961 . S
H1564 C1550 0.961 . S
H1565 C1551 0.958 . S
H1566 C1551 0.961 . S
H1567 C1551 0.960 . S
C1568 C1569 1.391 . S
C1568 C1570 1.394 . S
C1568 H1584 0.931 . S
C1569 C1568 1.391 . S
C1569 C1573 1.376 . S
C1570 C1568 1.394 . S
C1570 C1571 1.369 . S
C1570 C1574 1.531 . S
C1571 C1570 1.369 . S
C1571 C1572 1.410 . S
C1571 C1579 1.503 1_545 S
C1572 C1571 1.410 . S
C1572 C1573 1.392 . S
C1572 C1575 1.511 . S
C1573 C1569 1.376 . S
C1573 C1572 1.392 . S
C1573 H1585 0.929 . S
C1574 C1570 1.531 . S
C1574 H1586 0.960 . S
C1574 H1587 0.962 1_545 S
C1574 H1588 0.960 . S
C1575 C1572 1.511 . S
C1575 H1589 0.961 . S
C1575 H1590 0.961 . S
C1575 H1591 0.961 . S
C1576 C1577 1.370 . S
C1576 C1578 1.363 . S
C1576 H1592 0.931 . S
C1577 C1576 1.370 . S
C1577 C1581 1.408 . S
C1578 C1576 1.363 . S
C1578 C1579 1.370 . S
C1578 C1582 1.524 . S
C1579 C1571 1.503 1_565 S
C1579 C1578 1.370 . S
C1579 C1580 1.403 1_565 S
C1580 C1579 1.403 1_545 S
C1580 C1581 1.404 1_545 S
C1580 C1583 1.539 . S
C1581 C1577 1.408 . S
C1581 C1580 1.404 1_565 S
C1581 H1593 0.930 . S
C1582 C1578 1.524 . S
C1582 H1594 0.956 . S
C1582 H1595 0.961 . S
C1582 H1596 0.961 . S
C1583 C1580 1.539 . S
C1583 H1597 0.958 . S
C1583 H1598 0.961 . S
C1583 H1599 0.960 . S
H1584 C1568 0.931 . S
H1585 C1573 0.929 . S
H1586 C1574 0.960 . S
H1587 C1574 0.962 1_565 S
H1588 C1574 0.960 . S
H1589 C1575 0.961 . S
H1590 C1575 0.961 . S
H1591 C1575 0.961 . S
H1592 C1576 0.931 . S
H1593 C1581 0.930 . S
H1594 C1582 0.956 . S
H1595 C1582 0.961 . S
H1596 C1582 0.961 . S
H1597 C1583 0.958 . S
H1598 C1583 0.961 . S
H1599 C1583 0.960 . S
C1600 C1601 1.391 . S
C1600 C1602 1.394 . S
C1600 H1616 0.931 . S
C1601 C1600 1.391 . S
C1601 C1605 1.376 . S
C1602 C1600 1.394 . S
C1602 C1603 1.369 . S
C1602 C1606 1.531 . S
C1603 C1602 1.369 . S
C1603 C1604 1.410 . S
C1603 C1611 1.503 1_655 S
C1604 C1603 1.410 . S
C1604 C1605 1.392 . S
C1604 C1607 1.511 1_655 S
C1605 C1601 1.376 . S
C1605 C1604 1.392 . S
C1605 H1617 0.929 . S
C1606 C1602 1.531 . S
C1606 H1618 0.960 . S
C1606 H1619 0.962 . S
C1606 H1620 0.960 . S
C1607 C1604 1.511 1_455 S
C1607 H1621 0.961 . S
C1607 H1622 0.961 . S
C1607 H1623 0.961 1_455 S
C1608 C1609 1.370 . S
C1608 C1610 1.363 . S
C1608 H1624 0.931 . S
C1609 C1608 1.370 . S
C1609 C1613 1.408 . S
C1610 C1608 1.363 . S
C1610 C1611 1.370 . S
C1610 C1614 1.524 . S
C1611 C1603 1.503 1_455 S
C1611 C1610 1.370 . S
C1611 C1612 1.403 1_455 S
C1612 C1611 1.403 1_655 S
C1612 C1613 1.404 1_655 S
C1612 C1615 1.539 . S
C1613 C1609 1.408 . S
C1613 C1612 1.404 1_455 S
C1613 H1625 0.930 . S
C1614 C1610 1.524 . S
C1614 H1626 0.956 . S
C1614 H1627 0.961 . S
C1614 H1628 0.961 . S
C1615 C1612 1.539 . S
C1615 H1629 0.958 . S
C1615 H1630 0.961 . S
C1615 H1631 0.960 . S
H1616 C1600 0.931 . S
H1617 C1605 0.929 . S
H1618 C1606 0.960 . S
H1619 C1606 0.962 . S
H1620 C1606 0.960 . S
H1621 C1607 0.961 . S
H1622 C1607 0.961 . S
H1623 C1607 0.961 1_655 S
H1624 C1608 0.931 . S
H1625 C1613 0.930 . S
H1626 C1614 0.956 . S
H1627 C1614 0.961 . S
H1628 C1614 0.961 . S
H1629 C1615 0.958 . S
H1630 C1615 0.961 . S
H1631 C1615 0.960 . S
C1632 C1633 1.391 . S
C1632 C1634 1.394 . S
C1632 H1648 0.931 . S
C1633 C1632 1.391 . S
C1633 C1637 1.376 . S
C1634 C1632 1.394 . S
C1634 C1635 1.369 . S
C1634 C1638 1.531 . S
C1635 C1634 1.369 . S
C1635 C1636 1.410 . S
C1635 C1643 1.503 1_554 S
C1636 C1635 1.410 . S
C1636 C1637 1.392 . S
C1636 C1639 1.511 . S
C1637 C1633 1.376 . S
C1637 C1636 1.392 . S
C1637 H1649 0.929 . S
C1638 C1634 1.531 . S
C1638 H1650 0.960 . S
C1638 H1651 0.962 1_554 S
C1638 H1652 0.960 . S
C1639 C1636 1.511 . S
C1639 H1653 0.961 . S
C1639 H1654 0.961 . S
C1639 H1655 0.961 . S
C1640 C1641 1.370 . S
C1640 C1642 1.363 . S
C1640 H1656 0.931 . S
C1641 C1640 1.370 . S
C1641 C1645 1.408 . S
C1642 C1640 1.363 . S
C1642 C1643 1.370 . S
C1642 C1646 1.524 . S
C1643 C1635 1.503 1_556 S
C1643 C1642 1.370 . S
C1643 C1644 1.403 1_556 S
C1644 C1643 1.403 1_554 S
C1644 C1645 1.404 1_554 S
C1644 C1647 1.539 . S
C1645 C1641 1.408 . S
C1645 C1644 1.404 1_556 S
C1645 H1657 0.930 . S
C1646 C1642 1.524 . S
C1646 H1658 0.956 . S
C1646 H1659 0.961 . S
C1646 H1660 0.961 . S
C1647 C1644 1.539 . S
C1647 H1661 0.958 . S
C1647 H1662 0.961 . S
C1647 H1663 0.960 . S
H1648 C1632 0.931 . S
H1649 C1637 0.929 . S
H1650 C1638 0.960 . S
H1651 C1638 0.962 1_556 S
H1652 C1638 0.960 . S
H1653 C1639 0.961 . S
H1654 C1639 0.961 . S
H1655 C1639 0.961 . S
H1656 C1640 0.931 . S
H1657 C1645 0.930 . S
H1658 C1646 0.956 . S
H1659 C1646 0.961 . S
H1660 C1646 0.961 . S
H1661 C1647 0.958 . S
H1662 C1647 0.961 . S
H1663 C1647 0.960 . S
C1664 C1665 1.391 . S
C1664 C1666 1.394 . S
C1664 H1680 0.931 . S
C1665 C1664 1.391 . S
C1665 C1669 1.376 . S
C1666 C1664 1.394 . S
C1666 C1667 1.369 . S
C1666 C1670 1.531 1_455 S
C1667 C1666 1.369 . S
C1667 C1668 1.425 . S
C1667 C1675 1.503 1_456 S
C1668 C1667 1.425 . S
C1668 C1669 1.411 . S
C1668 C1671 1.479 1_556 S
C1669 C1665 1.376 . S
C1669 C1668 1.411 . S
C1669 H1681 0.929 . S
C1670 C1666 1.531 1_655 S
C1670 H1682 0.960 . S
C1670 H1683 0.962 . S
C1670 H1684 0.960 . S
C1671 C1668 1.479 1_554 S
C1671 H1685 0.961 . S
C1671 H1686 0.961 . S
C1671 H1687 0.961 . S
C1672 C1673 1.370 . S
C1672 C1674 1.363 . S
C1672 H1688 0.931 . S
C1673 C1672 1.370 . S
C1673 C1677 1.408 . S
C1674 C1672 1.363 . S
C1674 C1675 1.370 . S
C1674 C1678 1.524 . S
C1675 C1667 1.503 1_654 S
C1675 C1674 1.370 . S
C1675 C1676 1.403 . S
C1676 C1675 1.403 . S
C1676 C1677 1.404 . S
C1676 C1679 1.539 1_654 S
C1677 C1673 1.408 . S
C1677 C1676 1.404 . S
C1677 H1689 0.930 . S
C1678 C1674 1.524 . S
C1678 H1690 0.956 . S
C1678 H1691 0.961 . S
C1678 H1692 0.961 . S
C1679 C1676 1.539 1_456 S
C1679 H1693 0.958 . S
C1679 H1694 0.961 . S
C1679 H1695 0.960 . S
H1680 C1664 0.931 . S
H1681 C1669 0.929 . S
H1682 C1670 0.960 . S
H1683 C1670 0.962 . S
H1684 C1670 0.960 . S
H1685 C1671 0.961 . S
H1686 C1671 0.961 . S
H1687 C1671 0.961 . S
H1688 C1672 0.931 . S
H1689 C1677 0.930 . S
H1690 C1678 0.956 . S
H1691 C1678 0.961 . S
H1692 C1678 0.961 . S
H1693 C1679 0.958 . S
H1694 C1679 0.961 . S
H1695 C1679 0.960 . S
C1696 C1697 1.391 . S
C1696 C1698 1.394 . S
C1696 H1712 0.931 . S
C1697 C1696 1.391 . S
C1697 C1701 1.376 . S
C1698 C1696 1.394 . S
C1698 C1699 1.369 . S
C1698 C1702 1.531 . S
C1699 C1698 1.369 . S
C1699 C1700 1.410 . S
C1699 C1707 1.503 . S
C1700 C1699 1.410 . S
C1700 C1701 1.392 . S
C1700 C1703 1.511 . S
C1701 C1697 1.376 . S
C1701 C1700 1.392 . S
C1701 H1713 0.929 . S
C1702 C1698 1.531 . S
C1702 H1714 0.960 . S
C1702 H1715 0.962 . S
C1702 H1716 0.960 . S
C1703 C1700 1.511 . S
C1703 H1717 0.961 . S
C1703 H1718 0.961 . S
C1703 H1719 0.961 . S
C1704 C1705 1.370 . S
C1704 C1706 1.363 . S
C1704 H1720 0.931 . S
C1705 C1704 1.370 . S
C1705 C1709 1.408 . S
C1706 C1704 1.363 . S
C1706 C1707 1.370 . S
C1706 C1710 1.524 . S
C1707 C1699 1.503 . S
C1707 C1706 1.370 . S
C1707 C1708 1.403 . S
C1708 C1707 1.403 . S
C1708 C1709 1.404 . S
C1708 C1711 1.539 . S
C1709 C1705 1.408 . S
C1709 C1708 1.404 . S
C1709 H1721 0.930 . S
C1710 C1706 1.524 . S
C1710 H1722 0.956 . S
C1710 H1723 0.961 . S
C1710 H1724 0.961 . S
C1711 C1708 1.539 . S
C1711 H1725 0.958 . S
C1711 H1726 0.961 . S
C1711 H1727 0.960 . S
H1712 C1696 0.931 . S
H1713 C1701 0.929 . S
H1714 C1702 0.960 . S
H1715 C1702 0.962 . S
H1716 C1702 0.960 . S
H1717 C1703 0.961 . S
H1718 C1703 0.961 . S
H1719 C1703 0.961 . S
H1720 C1704 0.931 . S
H1721 C1709 0.930 . S
H1722 C1710 0.956 . S
H1723 C1710 0.961 . S
H1724 C1710 0.961 . S
H1725 C1711 0.958 . S
H1726 C1711 0.961 . S
H1727 C1711 0.960 . S
C1728 C1729 1.391 . S
C1728 C1730 1.394 1_556 S
C1728 H1744 0.931 . S
C1729 C1728 1.391 . S
C1729 C1733 1.376 . S
C1730 C1728 1.394 1_554 S
C1730 C1731 1.369 1_554 S
C1730 C1734 1.531 . S
C1731 C1730 1.369 1_556 S
C1731 C1732 1.410 . S
C1731 C1739 1.503 1_556 S
C1732 C1731 1.410 . S
C1732 C1733 1.392 . S
C1732 C1735 1.511 . S
C1733 C1729 1.376 . S
C1733 C1732 1.392 . S
C1733 H1745 0.929 . S
C1734 C1730 1.531 . S
C1734 H1746 0.960 . S
C1734 H1747 0.962 . S
C1734 H1748 0.960 . S
C1735 C1732 1.511 . S
C1735 H1749 0.961 . S
C1735 H1750 0.961 . S
C1735 H1751 0.961 . S
C1736 C1737 1.370 . S
C1736 C1738 1.363 . S
C1736 H1752 0.931 . S
C1737 C1736 1.370 . S
C1737 C1741 1.408 . S
C1738 C1736 1.363 . S
C1738 C1739 1.370 . S
C1738 C1742 1.524 1_554 S
C1739 C1731 1.503 1_554 S
C1739 C1738 1.370 . S
C1739 C1740 1.403 . S
C1740 C1739 1.403 . S
C1740 C1741 1.404 . S
C1740 C1743 1.539 . S
C1741 C1737 1.408 . S
C1741 C1740 1.404 . S
C1741 H1753 0.930 . S
C1742 C1738 1.524 1_556 S
C1742 H1754 0.956 . S
C1742 H1755 0.961 . S
C1742 H1756 0.961 . S
C1743 C1740 1.539 . S
C1743 H1757 0.958 . S
C1743 H1758 0.961 . S
C1743 H1759 0.960 . S
H1744 C1728 0.931 . S
H1745 C1733 0.929 . S
H1746 C1734 0.960 . S
H1747 C1734 0.962 . S
H1748 C1734 0.960 . S
H1749 C1735 0.961 . S
H1750 C1735 0.961 . S
H1751 C1735 0.961 . S
H1752 C1736 0.931 . S
H1753 C1741 0.930 . S
H1754 C1742 0.956 . S
H1755 C1742 0.961 . S
H1756 C1742 0.961 . S
H1757 C1743 0.958 . S
H1758 C1743 0.961 . S
H1759 C1743 0.960 . S
C1760 C1761 1.391 . S
C1760 C1762 1.394 . S
C1760 H1776 0.931 . S
C1761 C1760 1.391 . S
C1761 C1765 1.376 . S
C1762 C1760 1.394 . S
C1762 C1763 1.369 . S
C1762 C1766 1.531 . S
C1763 C1762 1.369 . S
C1763 C1764 1.410 . S
C1763 C1771 1.503 . S
C1764 C1763 1.410 . S
C1764 C1765 1.392 . S
C1764 C1767 1.511 . S
C1765 C1761 1.376 . S
C1765 C1764 1.392 . S
C1765 H1777 0.929 . S
C1766 C1762 1.531 . S
C1766 H1778 0.960 . S
C1766 H1779 0.962 . S
C1766 H1780 0.960 . S
C1767 C1764 1.511 . S
C1767 H1781 0.961 . S
C1767 H1782 0.961 . S
C1767 H1783 0.961 . S
C1768 C1769 1.370 . S
C1768 C1770 1.363 . S
C1768 H1784 0.931 . S
C1769 C1768 1.370 . S
C1769 C1773 1.408 . S
C1770 C1768 1.363 . S
C1770 C1771 1.370 . S
C1770 C1774 1.524 . S
C1771 C1763 1.503 . S
C1771 C1770 1.370 . S
C1771 C1772 1.403 . S
C1772 C1771 1.403 . S
C1772 C1773 1.404 . S
C1772 C1775 1.539 . S
C1773 C1769 1.408 . S
C1773 C1772 1.404 . S
C1773 H1785 0.930 . S
C1774 C1770 1.524 . S
C1774 H1786 0.956 . S
C1774 H1787 0.961 . S
C1774 H1788 0.961 . S
C1775 C1772 1.539 . S
C1775 H1789 0.958 . S
C1775 H1790 0.961 . S
C1775 H1791 0.960 . S
H1776 C1760 0.931 . S
H1777 C1765 0.929 . S
H1778 C1766 0.960 . S
H1779 C1766 0.962 . S
H1780 C1766 0.960 . S
H1781 C1767 0.961 . S
H1782 C1767 0.961 . S
H1783 C1767 0.961 . S
H1784 C1768 0.931 . S
H1785 C1773 0.930 . S
H1786 C1774 0.956 . S
H1787 C1774 0.961 . S
H1788 C1774 0.961 . S
H1789 C1775 0.958 . S
H1790 C1775 0.961 . S
H1791 C1775 0.960 . S
C1792 C1793 1.391 . S
C1792 C1794 1.394 . S
C1792 H1808 0.931 . S
C1793 C1792 1.391 . S
C1793 C1797 1.376 . S
C1794 C1792 1.394 . S
C1794 C1795 1.369 . S
C1794 C1798 1.531 . S
C1795 C1794 1.369 . S
C1795 C1796 1.410 1_545 S
C1795 C1803 1.456 1_546 S
C1796 C1795 1.410 1_565 S
C1796 C1797 1.392 1_565 S
C1796 C1799 1.511 . S
C1797 C1793 1.376 . S
C1797 C1796 1.392 1_545 S
C1797 H1809 0.929 . S
C1798 C1794 1.531 . S
C1798 H1810 0.960 . S
C1798 H1811 0.962 1_556 S
C1798 H1812 0.960 . S
C1799 C1796 1.511 . S
C1799 H1813 0.961 . S
C1799 H1814 0.961 . S
C1799 H1815 0.961 . S
C1800 C1801 1.370 . S
C1800 C1802 1.363 . S
C1800 H1816 0.931 . S
C1801 C1800 1.370 . S
C1801 C1805 1.408 . S
C1802 C1800 1.363 . S
C1802 C1803 1.457 . S
C1802 C1806 1.524 1_565 S
C1803 C1795 1.456 1_564 S
C1803 C1802 1.457 . S
C1803 C1804 1.368 1_554 S
C1804 C1803 1.368 1_556 S
C1804 C1805 1.404 1_556 S
C1804 C1807 1.539 . S
C1805 C1801 1.408 . S
C1805 C1804 1.404 1_554 S
C1805 H1817 0.899 1_554 S
C1806 C1802 1.524 1_545 S
C1806 H1818 0.956 . S
C1806 H1819 0.961 . S
C1806 H1820 0.961 . S
C1807 C1804 1.539 . S
C1807 H1821 0.958 . S
C1807 H1822 0.961 . S
C1807 H1823 0.960 . S
H1808 C1792 0.931 . S
H1809 C1797 0.929 . S
H1810 C1798 0.960 . S
H1811 C1798 0.962 1_554 S
H1812 C1798 0.960 . S
H1813 C1799 0.961 . S
H1814 C1799 0.961 . S
H1815 C1799 0.961 . S
H1816 C1800 0.931 . S
H1817 C1805 0.899 1_556 S
H1818 C1806 0.956 . S
H1819 C1806 0.961 . S
H1820 C1806 0.961 . S
H1821 C1807 0.958 . S
H1822 C1807 0.961 . S
H1823 C1807 0.960 . S
C1824 C1825 1.391 . S
C1824 C1826 1.394 . S
C1824 H1840 0.931 . S
C1825 C1824 1.391 . S
C1825 C1829 1.376 . S
C1826 C1824 1.394 . S
C1826 C1827 1.369 . S
C1826 C1830 1.531 . S
C1827 C1826 1.369 . S
C1827 C1828 1.410 . S
C1827 C1835 1.503 . S
C1828 C1827 1.410 . S
C1828 C1829 1.392 . S
C1828 C1831 1.511 . S
C1829 C1825 1.376 . S
C1829 C1828 1.392 . S
C1829 H1841 0.929 . S
C1830 C1826 1.531 . S
C1830 H1842 0.960 . S
C1830 H1843 0.962 . S
C1830 H1844 0.960 . S
C1831 C1828 1.511 . S
C1831 H1845 0.961 . S
C1831 H1846 0.961 . S
C1831 H1847 0.961 . S
C1832 C1833 1.370 . S
C1832 C1834 1.363 . S
C1832 H1848 0.931 . S
C1833 C1832 1.370 . S
C1833 C1837 1.408 . S
C1834 C1832 1.363 . S
C1834 C1835 1.370 . S
C1834 C1838 1.524 . S
C1835 C1827 1.503 . S
C1835 C1834 1.370 . S
C1835 C1836 1.403 . S
C1836 C1835 1.403 . S
C1836 C1837 1.404 . S
C1836 C1839 1.539 . S
C1837 C1833 1.408 . S
C1837 C1836 1.404 . S
C1837 H1849 0.930 . S
C1838 C1834 1.524 . S
C1838 H1850 0.956 . S
C1838 H1851 0.961 . S
C1838 H1852 0.961 . S
C1839 C1836 1.539 . S
C1839 H1853 0.958 . S
C1839 H1854 0.961 . S
C1839 H1855 0.960 . S
H1840 C1824 0.931 . S
H1841 C1829 0.929 . S
H1842 C1830 0.960 . S
H1843 C1830 0.962 . S
H1844 C1830 0.960 . S
H1845 C1831 0.961 . S
H1846 C1831 0.961 . S
H1847 C1831 0.961 . S
H1848 C1832 0.931 . S
H1849 C1837 0.930 . S
H1850 C1838 0.956 . S
H1851 C1838 0.961 . S
H1852 C1838 0.961 . S
H1853 C1839 0.958 . S
H1854 C1839 0.961 . S
H1855 C1839 0.960 . S
C1856 C1857 1.391 . S
C1856 C1858 1.394 . S
C1856 H1872 0.931 . S
C1857 C1856 1.391 . S
C1857 C1861 1.376 . S
C1858 C1856 1.394 . S
C1858 C1859 1.369 . S
C1858 C1862 1.531 . S
C1859 C1858 1.369 . S
C1859 C1860 1.410 . S
C1859 C1867 1.503 . S
C1860 C1859 1.410 . S
C1860 C1861 1.392 . S
C1860 C1863 1.511 . S
C1861 C1857 1.376 . S
C1861 C1860 1.392 . S
C1861 H1873 0.929 . S
C1862 C1858 1.531 . S
C1862 H1874 0.960 . S
C1862 H1875 0.962 . S
C1862 H1876 0.960 . S
C1863 C1860 1.511 . S
C1863 H1877 0.961 . S
C1863 H1878 0.961 . S
C1863 H1879 0.961 . S
C1864 C1865 1.370 . S
C1864 C1866 1.363 . S
C1864 H1880 0.931 . S
C1865 C1864 1.370 . S
C1865 C1869 1.408 . S
C1866 C1864 1.363 . S
C1866 C1867 1.370 . S
C1866 C1870 1.524 . S
C1867 C1859 1.503 . S
C1867 C1866 1.370 . S
C1867 C1868 1.403 . S
C1868 C1867 1.403 . S
C1868 C1869 1.404 . S
C1868 C1871 1.539 . S
C1869 C1865 1.408 . S
C1869 C1868 1.404 . S
C1869 H1881 0.930 . S
C1870 C1866 1.524 . S
C1870 H1882 0.956 . S
C1870 H1883 0.961 . S
C1870 H1884 0.961 . S
C1871 C1868 1.539 . S
C1871 H1885 0.958 . S
C1871 H1886 0.961 . S
C1871 H1887 0.960 . S
H1872 C1856 0.931 . S
H1873 C1861 0.929 . S
H1874 C1862 0.960 . S
H1875 C1862 0.962 . S
H1876 C1862 0.960 . S
H1877 C1863 0.961 . S
H1878 C1863 0.961 . S
H1879 C1863 0.961 . S
H1880 C1864 0.931 . S
H1881 C1869 0.930 . S
H1882 C1870 0.956 . S
H1883 C1870 0.961 . S
H1884 C1870 0.961 . S
H1885 C1871 0.958 . S
H1886 C1871 0.961 . S
H1887 C1871 0.960 . S
C1888 C1889 1.391 . S
C1888 C1890 1.394 . S
C1888 H1904 0.931 . S
C1889 C1888 1.391 . S
C1889 C1893 1.376 . S
C1890 C1888 1.394 . S
C1890 C1891 1.369 . S
C1890 C1894 1.531 . S
C1891 C1890 1.369 . S
C1891 C1892 1.410 . S
C1891 C1899 1.503 . S
C1892 C1891 1.410 . S
C1892 C1893 1.392 . S
C1892 C1895 1.511 . S
C1893 C1889 1.376 . S
C1893 C1892 1.392 . S
C1893 H1905 0.929 . S
C1894 C1890 1.531 . S
C1894 H1906 0.960 . S
C1894 H1907 0.962 . S
C1894 H1908 0.960 . S
C1895 C1892 1.511 . S
C1895 H1909 0.961 . S
C1895 H1910 0.961 . S
C1895 H1911 0.961 . S
C1896 C1897 1.370 . S
C1896 C1898 1.363 . S
C1896 H1912 0.931 . S
C1897 C1896 1.370 . S
C1897 C1901 1.408 . S
C1898 C1896 1.363 . S
C1898 C1899 1.370 . S
C1898 C1902 1.524 . S
C1899 C1891 1.503 . S
C1899 C1898 1.370 . S
C1899 C1900 1.403 . S
C1900 C1899 1.403 . S
C1900 C1901 1.404 . S
C1900 C1903 1.539 . S
C1901 C1897 1.408 . S
C1901 C1900 1.404 . S
C1901 H1913 0.930 . S
C1902 C1898 1.524 . S
C1902 H1914 0.956 . S
C1902 H1915 0.961 . S
C1902 H1916 0.961 . S
C1903 C1900 1.539 . S
C1903 H1917 0.958 . S
C1903 H1918 0.961 . S
C1903 H1919 0.960 . S
H1904 C1888 0.931 . S
H1905 C1893 0.929 . S
H1906 C1894 0.960 . S
H1907 C1894 0.962 . S
H1908 C1894 0.960 . S
H1909 C1895 0.961 . S
H1910 C1895 0.961 . S
H1911 C1895 0.961 . S
H1912 C1896 0.931 . S
H1913 C1901 0.930 . S
H1914 C1902 0.956 . S
H1915 C1902 0.961 . S
H1916 C1902 0.961 . S
H1917 C1903 0.958 . S
H1918 C1903 0.961 . S
H1919 C1903 0.960 . S
C1920 C1921 1.391 . S
C1920 C1922 1.394 . S
C1920 H1936 0.931 . S
C1921 C1920 1.391 . S
C1921 C1925 1.376 . S
C1922 C1920 1.394 . S
C1922 C1923 1.369 . S
C1922 C1926 1.531 . S
C1923 C1922 1.369 . S
C1923 C1924 1.410 . S
C1923 C1931 1.503 . S
C1924 C1923 1.410 . S
C1924 C1925 1.392 . S
C1924 C1927 1.511 . S
C1925 C1921 1.376 . S
C1925 C1924 1.392 . S
C1925 H1937 0.929 . S
C1926 C1922 1.531 . S
C1926 H1938 0.960 . S
C1926 H1939 0.962 . S
C1926 H1940 0.960 . S
C1927 C1924 1.511 . S
C1927 H1941 0.961 . S
C1927 H1942 0.961 . S
C1927 H1943 0.961 . S
C1928 C1929 1.370 . S
C1928 C1930 1.363 . S
C1928 H1944 0.931 . S
C1929 C1928 1.370 . S
C1929 C1933 1.408 . S
C1930 C1928 1.363 . S
C1930 C1931 1.370 . S
C1930 C1934 1.524 . S
C1931 C1923 1.503 . S
C1931 C1930 1.370 . S
C1931 C1932 1.403 . S
C1932 C1931 1.403 . S
C1932 C1933 1.404 . S
C1932 C1935 1.539 . S
C1933 C1929 1.408 . S
C1933 C1932 1.404 . S
C1933 H1945 0.930 . S
C1934 C1930 1.524 . S
C1934 H1946 0.956 . S
C1934 H1947 0.961 . S
C1934 H1948 0.961 . S
C1935 C1932 1.539 . S
C1935 H1949 0.958 . S
C1935 H1950 0.961 . S
C1935 H1951 0.960 . S
H1936 C1920 0.931 . S
H1937 C1925 0.929 . S
H1938 C1926 0.960 . S
H1939 C1926 0.962 . S
H1940 C1926 0.960 . S
H1941 C1927 0.961 . S
H1942 C1927 0.961 . S
H1943 C1927 0.961 . S
H1944 C1928 0.931 . S
H1945 C1933 0.930 . S
H1946 C1934 0.956 . S
H1947 C1934 0.961 . S
H1948 C1934 0.961 . S
H1949 C1935 0.958 . S
H1950 C1935 0.961 . S
H1951 C1935 0.960 . S
C1952 C1953 1.391 . S
C1952 C1954 1.394 . S
C1952 H1968 0.931 . S
C1953 C1952 1.391 . S
C1953 C1957 1.376 . S
C1954 C1952 1.394 . S
C1954 C1955 1.369 . S
C1954 C1958 1.531 . S
C1955 C1954 1.369 . S
C1955 C1956 1.410 . S
C1955 C1963 1.503 . S
C1956 C1955 1.410 . S
C1956 C1957 1.392 . S
C1956 C1959 1.511 . S
C1957 C1953 1.376 . S
C1957 C1956 1.392 . S
C1957 H1969 0.929 . S
C1958 C1954 1.531 . S
C1958 H1970 0.960 . S
C1958 H1971 0.962 . S
C1958 H1972 0.960 . S
C1959 C1956 1.511 . S
C1959 H1973 0.961 . S
C1959 H1974 0.961 . S
C1959 H1975 0.961 . S
C1960 C1961 1.370 . S
C1960 C1962 1.363 . S
C1960 H1976 0.931 . S
C1961 C1960 1.370 . S
C1961 C1965 1.408 . S
C1962 C1960 1.363 . S
C1962 C1963 1.370 . S
C1962 C1966 1.524 . S
C1963 C1955 1.503 . S
C1963 C1962 1.370 . S
C1963 C1964 1.403 . S
C1964 C1963 1.403 . S
C1964 C1965 1.404 . S
C1964 C1967 1.539 . S
C1965 C1961 1.408 . S
C1965 C1964 1.404 . S
C1965 H1977 0.930 . S
C1966 C1962 1.524 . S
C1966 H1978 0.956 . S
C1966 H1979 0.961 . S
C1966 H1980 0.961 . S
C1967 C1964 1.539 . S
C1967 H1981 0.958 . S
C1967 H1982 0.961 . S
C1967 H1983 0.960 . S
H1968 C1952 0.931 . S
H1969 C1957 0.929 . S
H1970 C1958 0.960 . S
H1971 C1958 0.962 . S
H1972 C1958 0.960 . S
H1973 C1959 0.961 . S
H1974 C1959 0.961 . S
H1975 C1959 0.961 . S
H1976 C1960 0.931 . S
H1977 C1965 0.930 . S
H1978 C1966 0.956 . S
H1979 C1966 0.961 . S
H1980 C1966 0.961 . S
H1981 C1967 0.958 . S
H1982 C1967 0.961 . S
H1983 C1967 0.960 . S
C1984 C1985 1.391 . S
C1984 C1986 1.394 . S
C1984 H2000 0.931 . S
C1985 C1984 1.391 . S
C1985 C1989 1.376 . S
C1986 C1984 1.394 . S
C1986 C1987 1.369 . S
C1986 C1990 1.531 . S
C1987 C1986 1.369 . S
C1987 C1988 1.410 . S
C1987 C1995 1.503 . S
C1988 C1987 1.410 . S
C1988 C1989 1.392 . S
C1988 C1991 1.511 . S
C1989 C1985 1.376 . S
C1989 C1988 1.392 . S
C1989 H2001 0.929 . S
C1990 C1986 1.531 . S
C1990 H2002 0.960 . S
C1990 H2003 0.962 . S
C1990 H2004 0.960 . S
C1991 C1988 1.511 . S
C1991 H2005 0.961 . S
C1991 H2006 0.961 . S
C1991 H2007 0.961 . S
C1992 C1993 1.370 . S
C1992 C1994 1.363 . S
C1992 H2008 0.931 . S
C1993 C1992 1.370 . S
C1993 C1997 1.408 . S
C1994 C1992 1.363 . S
C1994 C1995 1.370 . S
C1994 C1998 1.524 . S
C1995 C1987 1.503 . S
C1995 C1994 1.370 . S
C1995 C1996 1.403 . S
C1996 C1995 1.403 . S
C1996 C1997 1.404 . S
C1996 C1999 1.539 . S
C1997 C1993 1.408 . S
C1997 C1996 1.404 . S
C1997 H2009 0.930 . S
C1998 C1994 1.524 . S
C1998 H2010 0.956 . S
C1998 H2011 0.961 . S
C1998 H2012 0.961 . S
C1999 C1996 1.539 . S
C1999 H2013 0.958 . S
C1999 H2014 0.961 . S
C1999 H2015 0.960 . S
H2000 C1984 0.931 . S
H2001 C1989 0.929 . S
H2002 C1990 0.960 . S
H2003 C1990 0.962 . S
H2004 C1990 0.960 . S
H2005 C1991 0.961 . S
H2006 C1991 0.961 . S
H2007 C1991 0.961 . S
H2008 C1992 0.931 . S
H2009 C1997 0.930 . S
H2010 C1998 0.956 . S
H2011 C1998 0.961 . S
H2012 C1998 0.961 . S
H2013 C1999 0.958 . S
H2014 C1999 0.961 . S
H2015 C1999 0.960 . S
C2016 C2017 1.391 . S
C2016 C2018 1.394 . S
C2016 H2032 0.931 . S
C2017 C2016 1.391 . S
C2017 C2021 1.376 . S
C2018 C2016 1.394 . S
C2018 C2019 1.369 . S
C2018 C2022 1.531 . S
C2019 C2018 1.369 . S
C2019 C2020 1.410 . S
C2019 C2027 1.503 . S
C2020 C2019 1.410 . S
C2020 C2021 1.392 . S
C2020 C2023 1.511 . S
C2021 C2017 1.376 . S
C2021 C2020 1.392 . S
C2021 H2033 0.929 . S
C2022 C2018 1.531 . S
C2022 H2034 0.960 . S
C2022 H2035 0.962 . S
C2022 H2036 0.960 . S
C2023 C2020 1.511 . S
C2023 H2037 0.961 . S
C2023 H2038 0.961 . S
C2023 H2039 0.961 . S
C2024 C2025 1.370 . S
C2024 C2026 1.363 . S
C2024 H2040 0.931 . S
C2025 C2024 1.370 . S
C2025 C2029 1.408 . S
C2026 C2024 1.363 . S
C2026 C2027 1.370 . S
C2026 C2030 1.524 . S
C2027 C2019 1.503 . S
C2027 C2026 1.370 . S
C2027 C2028 1.403 . S
C2028 C2027 1.403 . S
C2028 C2029 1.404 . S
C2028 C2031 1.539 . S
C2029 C2025 1.408 . S
C2029 C2028 1.404 . S
C2029 H2041 0.930 . S
C2030 C2026 1.524 . S
C2030 H2042 0.956 . S
C2030 H2043 0.961 . S
C2030 H2044 0.961 . S
C2031 C2028 1.539 . S
C2031 H2045 0.958 . S
C2031 H2046 0.961 . S
C2031 H2047 0.960 . S
H2032 C2016 0.931 . S
H2033 C2021 0.929 . S
H2034 C2022 0.960 . S
H2035 C2022 0.962 . S
H2036 C2022 0.960 . S
H2037 C2023 0.961 . S
H2038 C2023 0.961 . S
H2039 C2023 0.961 . S
H2040 C2024 0.931 . S
H2041 C2029 0.930 . S
H2042 C2030 0.956 . S
H2043 C2030 0.961 . S
H2044 C2030 0.961 . S
H2045 C2031 0.958 . S
H2046 C2031 0.961 . S
H2047 C2031 0.960 . S
C2048 C2049 1.391 . S
C2048 C2050 1.394 . S
C2048 H2064 0.931 . S
C2049 C2048 1.391 . S
C2049 C2053 1.376 . S
C2050 C2048 1.394 . S
C2050 C2051 1.369 . S
C2050 C2054 1.531 . S
C2051 C2050 1.369 . S
C2051 C2052 1.410 . S
C2051 C2059 1.503 . S
C2052 C2051 1.410 . S
C2052 C2053 1.392 . S
C2052 C2055 1.511 . S
C2053 C2049 1.376 . S
C2053 C2052 1.392 . S
C2053 H2065 0.929 . S
C2054 C2050 1.531 . S
C2054 H2066 0.960 . S
C2054 H2067 0.962 . S
C2054 H2068 0.960 . S
C2055 C2052 1.511 . S
C2055 H2069 0.961 . S
C2055 H2070 0.961 . S
C2055 H2071 0.961 . S
C2056 C2057 1.370 . S
C2056 C2058 1.363 . S
C2056 H2072 0.931 . S
C2057 C2056 1.370 . S
C2057 C2061 1.408 . S
C2058 C2056 1.363 . S
C2058 C2059 1.370 . S
C2058 C2062 1.524 . S
C2059 C2051 1.503 . S
C2059 C2058 1.370 . S
C2059 C2060 1.403 . S
C2060 C2059 1.403 . S
C2060 C2061 1.404 . S
C2060 C2063 1.539 . S
C2061 C2057 1.408 . S
C2061 C2060 1.404 . S
C2061 H2073 0.930 . S
C2062 C2058 1.524 . S
C2062 H2074 0.956 . S
C2062 H2075 0.961 . S
C2062 H2076 0.961 . S
C2063 C2060 1.539 . S
C2063 H2077 0.958 . S
C2063 H2078 0.961 . S
C2063 H2079 0.960 . S
H2064 C2048 0.931 . S
H2065 C2053 0.929 . S
H2066 C2054 0.960 . S
H2067 C2054 0.962 . S
H2068 C2054 0.960 . S
H2069 C2055 0.961 . S
H2070 C2055 0.961 . S
H2071 C2055 0.961 . S
H2072 C2056 0.931 . S
H2073 C2061 0.930 . S
H2074 C2062 0.956 . S
H2075 C2062 0.961 . S
H2076 C2062 0.961 . S
H2077 C2063 0.958 . S
H2078 C2063 0.961 . S
H2079 C2063 0.960 . S
C2080 C2081 1.391 . S
C2080 C2082 1.394 . S
C2080 H2096 0.931 . S
C2081 C2080 1.391 . S
C2081 C2085 1.376 . S
C2082 C2080 1.394 . S
C2082 C2083 1.369 . S
C2082 C2086 1.531 . S
C2083 C2082 1.369 . S
C2083 C2084 1.410 . S
C2083 C2091 1.503 . S
C2084 C2083 1.410 . S
C2084 C2085 1.392 . S
C2084 C2087 1.511 . S
C2085 C2081 1.376 . S
C2085 C2084 1.392 . S
C2085 H2097 0.929 . S
C2086 C2082 1.531 . S
C2086 H2098 0.960 . S
C2086 H2099 0.962 . S
C2086 H2100 0.960 . S
C2087 C2084 1.511 . S
C2087 H2101 0.961 . S
C2087 H2102 0.961 . S
C2087 H2103 0.961 . S
C2088 C2089 1.370 . S
C2088 C2090 1.363 . S
C2088 H2104 0.931 . S
C2089 C2088 1.370 . S
C2089 C2093 1.408 . S
C2090 C2088 1.363 . S
C2090 C2091 1.370 . S
C2090 C2094 1.524 . S
C2091 C2083 1.503 . S
C2091 C2090 1.370 . S
C2091 C2092 1.403 . S
C2092 C2091 1.403 . S
C2092 C2093 1.404 . S
C2092 C2095 1.539 . S
C2093 C2089 1.408 . S
C2093 C2092 1.404 . S
C2093 H2105 0.930 . S
C2094 C2090 1.524 . S
C2094 H2106 0.956 . S
C2094 H2107 0.961 . S
C2094 H2108 0.961 . S
C2095 C2092 1.539 . S
C2095 H2109 0.958 . S
C2095 H2110 0.961 . S
C2095 H2111 0.960 . S
H2096 C2080 0.931 . S
H2097 C2085 0.929 . S
H2098 C2086 0.960 . S
H2099 C2086 0.962 . S
H2100 C2086 0.960 . S
H2101 C2087 0.961 . S
H2102 C2087 0.961 . S
H2103 C2087 0.961 . S
H2104 C2088 0.931 . S
H2105 C2093 0.930 . S
H2106 C2094 0.956 . S
H2107 C2094 0.961 . S
H2108 C2094 0.961 . S
H2109 C2095 0.958 . S
H2110 C2095 0.961 . S
H2111 C2095 0.960 . S
C2112 C2113 1.391 . S
C2112 C2114 1.394 . S
C2112 H2128 0.931 . S
C2113 C2112 1.391 . S
C2113 C2117 1.376 . S
C2114 C2112 1.394 . S
C2114 C2115 1.369 . S
C2114 C2118 1.531 . S
C2115 C2114 1.369 . S
C2115 C2116 1.410 . S
C2115 C2123 1.503 . S
C2116 C2115 1.410 . S
C2116 C2117 1.392 . S
C2116 C2119 1.511 . S
C2117 C2113 1.376 . S
C2117 C2116 1.392 . S
C2117 H2129 0.929 . S
C2118 C2114 1.531 . S
C2118 H2130 0.960 . S
C2118 H2131 0.962 . S
C2118 H2132 0.960 . S
C2119 C2116 1.511 . S
C2119 H2133 0.961 . S
C2119 H2134 0.961 . S
C2119 H2135 0.961 . S
C2120 C2121 1.370 . S
C2120 C2122 1.363 . S
C2120 H2136 0.931 . S
C2121 C2120 1.370 . S
C2121 C2125 1.408 . S
C2122 C2120 1.363 . S
C2122 C2123 1.370 . S
C2122 C2126 1.524 . S
C2123 C2115 1.503 . S
C2123 C2122 1.370 . S
C2123 C2124 1.403 . S
C2124 C2123 1.403 . S
C2124 C2125 1.404 . S
C2124 C2127 1.539 . S
C2125 C2121 1.408 . S
C2125 C2124 1.404 . S
C2125 H2137 0.930 . S
C2126 C2122 1.524 . S
C2126 H2138 0.956 . S
C2126 H2139 0.961 . S
C2126 H2140 0.961 . S
C2127 C2124 1.539 . S
C2127 H2141 0.958 . S
C2127 H2142 0.961 . S
C2127 H2143 0.960 . S
H2128 C2112 0.931 . S
H2129 C2117 0.929 . S
H2130 C2118 0.960 . S
H2131 C2118 0.962 . S
H2132 C2118 0.960 . S
H2133 C2119 0.961 . S
H2134 C2119 0.961 . S
H2135 C2119 0.961 . S
H2136 C2120 0.931 . S
H2137 C2125 0.930 . S
H2138 C2126 0.956 . S
H2139 C2126 0.961 . S
H2140 C2126 0.961 . S
H2141 C2127 0.958 . S
H2142 C2127 0.961 . S
H2143 C2127 0.960 . S
C2144 C2145 1.391 . S
C2144 C2146 1.394 . S
C2144 H2160 0.931 . S
C2145 C2144 1.391 . S
C2145 C2149 1.376 . S
C2146 C2144 1.394 . S
C2146 C2147 1.369 . S
C2146 C2150 1.531 . S
C2147 C2146 1.369 . S
C2147 C2148 1.410 . S
C2147 C2155 1.503 . S
C2148 C2147 1.410 . S
C2148 C2149 1.392 . S
C2148 C2151 1.511 . S
C2149 C2145 1.376 . S
C2149 C2148 1.392 . S
C2149 H2161 0.929 . S
C2150 C2146 1.531 . S
C2150 H2162 0.960 . S
C2150 H2163 0.962 . S
C2150 H2164 0.960 . S
C2151 C2148 1.511 . S
C2151 H2165 0.961 . S
C2151 H2166 0.961 . S
C2151 H2167 0.961 . S
C2152 C2153 1.370 . S
C2152 C2154 1.363 . S
C2152 H2168 0.931 . S
C2153 C2152 1.370 . S
C2153 C2157 1.408 . S
C2154 C2152 1.363 . S
C2154 C2155 1.370 . S
C2154 C2158 1.524 . S
C2155 C2147 1.503 . S
C2155 C2154 1.370 . S
C2155 C2156 1.403 . S
C2156 C2155 1.403 . S
C2156 C2157 1.404 . S
C2156 C2159 1.539 . S
C2157 C2153 1.408 . S
C2157 C2156 1.404 . S
C2157 H2169 0.930 . S
C2158 C2154 1.524 . S
C2158 H2170 0.956 . S
C2158 H2171 0.961 . S
C2158 H2172 0.961 . S
C2159 C2156 1.539 . S
C2159 H2173 0.958 . S
C2159 H2174 0.961 . S
C2159 H2175 0.960 . S
H2160 C2144 0.931 . S
H2161 C2149 0.929 . S
H2162 C2150 0.960 . S
H2163 C2150 0.962 . S
H2164 C2150 0.960 . S
H2165 C2151 0.961 . S
H2166 C2151 0.961 . S
H2167 C2151 0.961 . S
H2168 C2152 0.931 . S
H2169 C2157 0.930 . S
H2170 C2158 0.956 . S
H2171 C2158 0.961 . S
H2172 C2158 0.961 . S
H2173 C2159 0.958 . S
H2174 C2159 0.961 . S
H2175 C2159 0.960 . S
C2176 C2177 1.391 . S
C2176 C2178 1.394 . S
C2176 H2192 0.931 . S
C2177 C2176 1.391 . S
C2177 C2181 1.376 . S
C2178 C2176 1.394 . S
C2178 C2179 1.369 . S
C2178 C2182 1.531 . S
C2179 C2178 1.369 . S
C2179 C2180 1.410 . S
C2179 C2187 1.503 . S
C2180 C2179 1.410 . S
C2180 C2181 1.392 . S
C2180 C2183 1.511 . S
C2181 C2177 1.376 . S
C2181 C2180 1.392 . S
C2181 H2193 0.929 . S
C2182 C2178 1.531 . S
C2182 H2194 0.960 . S
C2182 H2195 0.962 . S
C2182 H2196 0.960 . S
C2183 C2180 1.511 . S
C2183 H2197 0.961 . S
C2183 H2198 0.961 . S
C2183 H2199 0.961 . S
C2184 C2185 1.370 . S
C2184 C2186 1.363 . S
C2184 H2200 0.931 . S
C2185 C2184 1.370 . S
C2185 C2189 1.408 . S
C2186 C2184 1.363 . S
C2186 C2187 1.370 . S
C2186 C2190 1.524 . S
C2187 C2179 1.503 . S
C2187 C2186 1.370 . S
C2187 C2188 1.403 . S
C2188 C2187 1.403 . S
C2188 C2189 1.404 . S
C2188 C2191 1.539 . S
C2189 C2185 1.408 . S
C2189 C2188 1.404 . S
C2189 H2201 0.930 . S
C2190 C2186 1.524 . S
C2190 H2202 0.956 . S
C2190 H2203 0.961 . S
C2190 H2204 0.961 . S
C2191 C2188 1.539 . S
C2191 H2205 0.958 . S
C2191 H2206 0.961 . S
C2191 H2207 0.960 . S
H2192 C2176 0.931 . S
H2193 C2181 0.929 . S
H2194 C2182 0.960 . S
H2195 C2182 0.962 . S
H2196 C2182 0.960 . S
H2197 C2183 0.961 . S
H2198 C2183 0.961 . S
H2199 C2183 0.961 . S
H2200 C2184 0.931 . S
H2201 C2189 0.930 . S
H2202 C2190 0.956 . S
H2203 C2190 0.961 . S
H2204 C2190 0.961 . S
H2205 C2191 0.958 . S
H2206 C2191 0.961 . S
H2207 C2191 0.960 . S
C2208 C2209 1.391 . S
C2208 C2210 1.394 . S
C2208 H2224 0.931 . S
C2209 C2208 1.391 . S
C2209 C2213 1.376 . S
C2210 C2208 1.394 . S
C2210 C2211 1.369 . S
C2210 C2214 1.531 . S
C2211 C2210 1.369 . S
C2211 C2212 1.410 . S
C2211 C2219 1.503 . S
C2212 C2211 1.410 . S
C2212 C2213 1.392 . S
C2212 C2215 1.511 . S
C2213 C2209 1.376 . S
C2213 C2212 1.392 . S
C2213 H2225 0.929 . S
C2214 C2210 1.531 . S
C2214 H2226 0.960 . S
C2214 H2227 0.962 . S
C2214 H2228 0.960 . S
C2215 C2212 1.511 . S
C2215 H2229 0.961 . S
C2215 H2230 0.961 . S
C2215 H2231 0.961 . S
C2216 C2217 1.370 . S
C2216 C2218 1.363 . S
C2216 H2232 0.931 . S
C2217 C2216 1.370 . S
C2217 C2221 1.408 . S
C2218 C2216 1.363 . S
C2218 C2219 1.370 . S
C2218 C2222 1.524 . S
C2219 C2211 1.503 . S
C2219 C2218 1.370 . S
C2219 C2220 1.403 . S
C2220 C2219 1.403 . S
C2220 C2221 1.404 . S
C2220 C2223 1.539 . S
C2221 C2217 1.408 . S
C2221 C2220 1.404 . S
C2221 H2233 0.930 . S
C2222 C2218 1.524 . S
C2222 H2234 0.956 . S
C2222 H2235 0.961 . S
C2222 H2236 0.961 . S
C2223 C2220 1.539 . S
C2223 H2237 0.958 . S
C2223 H2238 0.961 . S
C2223 H2239 0.960 . S
H2224 C2208 0.931 . S
H2225 C2213 0.929 . S
H2226 C2214 0.960 . S
H2227 C2214 0.962 . S
H2228 C2214 0.960 . S
H2229 C2215 0.961 . S
H2230 C2215 0.961 . S
H2231 C2215 0.961 . S
H2232 C2216 0.931 . S
H2233 C2221 0.930 . S
H2234 C2222 0.956 . S
H2235 C2222 0.961 . S
H2236 C2222 0.961 . S
H2237 C2223 0.958 . S
H2238 C2223 0.961 . S
H2239 C2223 0.960 . S
C2240 C2241 1.391 . S
C2240 C2242 1.394 . S
C2240 H2256 0.931 . S
C2241 C2240 1.391 . S
C2241 C2245 1.376 . S
C2242 C2240 1.394 . S
C2242 C2243 1.369 . S
C2242 C2246 1.531 . S
C2243 C2242 1.369 . S
C2243 C2244 1.410 . S
C2243 C2251 1.503 . S
C2244 C2243 1.410 . S
C2244 C2245 1.392 . S
C2244 C2247 1.511 . S
C2245 C2241 1.376 . S
C2245 C2244 1.392 . S
C2245 H2257 0.929 . S
C2246 C2242 1.531 . S
C2246 H2258 0.960 . S
C2246 H2259 0.962 . S
C2246 H2260 0.960 . S
C2247 C2244 1.511 . S
C2247 H2261 0.961 . S
C2247 H2262 0.961 . S
C2247 H2263 0.961 . S
C2248 C2249 1.370 . S
C2248 C2250 1.363 . S
C2248 H2264 0.931 . S
C2249 C2248 1.370 . S
C2249 C2253 1.408 . S
C2250 C2248 1.363 . S
C2250 C2251 1.370 . S
C2250 C2254 1.524 . S
C2251 C2243 1.503 . S
C2251 C2250 1.370 . S
C2251 C2252 1.403 . S
C2252 C2251 1.403 . S
C2252 C2253 1.404 . S
C2252 C2255 1.539 . S
C2253 C2249 1.408 . S
C2253 C2252 1.404 . S
C2253 H2265 0.930 . S
C2254 C2250 1.524 . S
C2254 H2266 0.956 . S
C2254 H2267 0.961 . S
C2254 H2268 0.961 . S
C2255 C2252 1.539 . S
C2255 H2269 0.958 . S
C2255 H2270 0.961 . S
C2255 H2271 0.960 . S
H2256 C2240 0.931 . S
H2257 C2245 0.929 . S
H2258 C2246 0.960 . S
H2259 C2246 0.962 . S
H2260 C2246 0.960 . S
H2261 C2247 0.961 . S
H2262 C2247 0.961 . S
H2263 C2247 0.961 . S
H2264 C2248 0.931 . S
H2265 C2253 0.930 . S
H2266 C2254 0.956 . S
H2267 C2254 0.961 . S
H2268 C2254 0.961 . S
H2269 C2255 0.958 . S
H2270 C2255 0.961 . S
H2271 C2255 0.960 . S
C2272 C2273 1.391 . S
C2272 C2274 1.394 . S
C2272 H2288 0.931 . S
C2273 C2272 1.391 . S
C2273 C2277 1.376 . S
C2274 C2272 1.394 . S
C2274 C2275 1.369 . S
C2274 C2278 1.531 . S
C2275 C2274 1.369 . S
C2275 C2276 1.410 . S
C2275 C2283 1.503 . S
C2276 C2275 1.410 . S
C2276 C2277 1.392 . S
C2276 C2279 1.511 . S
C2277 C2273 1.376 . S
C2277 C2276 1.392 . S
C2277 H2289 0.929 . S
C2278 C2274 1.531 . S
C2278 H2290 0.960 . S
C2278 H2291 0.962 . S
C2278 H2292 0.960 . S
C2279 C2276 1.511 . S
C2279 H2293 0.961 . S
C2279 H2294 0.961 . S
C2279 H2295 0.961 . S
C2280 C2281 1.370 . S
C2280 C2282 1.363 . S
C2280 H2296 0.931 . S
C2281 C2280 1.370 . S
C2281 C2285 1.408 . S
C2282 C2280 1.363 . S
C2282 C2283 1.370 . S
C2282 C2286 1.524 . S
C2283 C2275 1.503 . S
C2283 C2282 1.370 . S
C2283 C2284 1.403 . S
C2284 C2283 1.403 . S
C2284 C2285 1.404 . S
C2284 C2287 1.539 . S
C2285 C2281 1.408 . S
C2285 C2284 1.404 . S
C2285 H2297 0.930 . S
C2286 C2282 1.524 . S
C2286 H2298 0.956 . S
C2286 H2299 0.961 . S
C2286 H2300 0.961 . S
C2287 C2284 1.539 . S
C2287 H2301 0.958 . S
C2287 H2302 0.961 . S
C2287 H2303 0.960 . S
H2288 C2272 0.931 . S
H2289 C2277 0.929 . S
H2290 C2278 0.960 . S
H2291 C2278 0.962 . S
H2292 C2278 0.960 . S
H2293 C2279 0.961 . S
H2294 C2279 0.961 . S
H2295 C2279 0.961 . S
H2296 C2280 0.931 . S
H2297 C2285 0.930 . S
H2298 C2286 0.956 . S
H2299 C2286 0.961 . S
H2300 C2286 0.961 . S
H2301 C2287 0.958 . S
H2302 C2287 0.961 . S
H2303 C2287 0.960 . S
C2304 C2305 1.391 . S
C2304 C2306 1.394 . S
C2304 H2320 0.931 . S
C2305 C2304 1.391 . S
C2305 C2309 1.376 . S
C2306 C2304 1.394 . S
C2306 C2307 1.369 . S
C2306 C2310 1.531 . S
C2307 C2306 1.369 . S
C2307 C2308 1.410 . S
C2307 C2315 1.503 . S
C2308 C2307 1.410 . S
C2308 C2309 1.392 . S
C2308 C2311 1.511 . S
C2309 C2305 1.376 . S
C2309 C2308 1.392 . S
C2309 H2321 0.929 . S
C2310 C2306 1.531 . S
C2310 H2322 0.960 . S
C2310 H2323 0.962 . S
C2310 H2324 0.960 . S
C2311 C2308 1.511 . S
C2311 H2325 0.961 . S
C2311 H2326 0.961 . S
C2311 H2327 0.961 . S
C2312 C2313 1.370 . S
C2312 C2314 1.363 . S
C2312 H2328 0.931 . S
C2313 C2312 1.370 . S
C2313 C2317 1.408 . S
C2314 C2312 1.363 . S
C2314 C2315 1.370 . S
C2314 C2318 1.524 . S
C2315 C2307 1.503 . S
C2315 C2314 1.370 . S
C2315 C2316 1.403 . S
C2316 C2315 1.403 . S
C2316 C2317 1.404 . S
C2316 C2319 1.539 . S
C2317 C2313 1.408 . S
C2317 C2316 1.404 . S
C2317 H2329 0.930 . S
C2318 C2314 1.524 . S
C2318 H2330 0.956 . S
C2318 H2331 0.961 . S
C2318 H2332 0.961 . S
C2319 C2316 1.539 . S
C2319 H2333 0.958 . S
C2319 H2334 0.961 . S
C2319 H2335 0.960 . S
H2320 C2304 0.931 . S
H2321 C2309 0.929 . S
H2322 C2310 0.960 . S
H2323 C2310 0.962 . S
H2324 C2310 0.960 . S
H2325 C2311 0.961 . S
H2326 C2311 0.961 . S
H2327 C2311 0.961 . S
H2328 C2312 0.931 . S
H2329 C2317 0.930 . S
H2330 C2318 0.956 . S
H2331 C2318 0.961 . S
H2332 C2318 0.961 . S
H2333 C2319 0.958 . S
H2334 C2319 0.961 . S
H2335 C2319 0.960 . S
C2336 C2337 1.391 . S
C2336 C2338 1.394 . S
C2336 H2352 0.931 . S
C2337 C2336 1.391 . S
C2337 C2341 1.376 . S
C2338 C2336 1.394 . S
C2338 C2339 1.369 . S
C2338 C2342 1.531 . S
C2339 C2338 1.369 . S
C2339 C2340 1.410 . S
C2339 C2347 1.503 . S
C2340 C2339 1.410 . S
C2340 C2341 1.392 . S
C2340 C2343 1.511 . S
C2341 C2337 1.376 . S
C2341 C2340 1.392 . S
C2341 H2353 0.929 . S
C2342 C2338 1.531 . S
C2342 H2354 0.960 . S
C2342 H2355 0.962 . S
C2342 H2356 0.960 . S
C2343 C2340 1.511 . S
C2343 H2357 0.961 . S
C2343 H2358 0.961 . S
C2343 H2359 0.961 . S
C2344 C2345 1.370 . S
C2344 C2346 1.363 . S
C2344 H2360 0.931 . S
C2345 C2344 1.370 . S
C2345 C2349 1.408 . S
C2346 C2344 1.363 . S
C2346 C2347 1.370 . S
C2346 C2350 1.524 . S
C2347 C2339 1.503 . S
C2347 C2346 1.370 . S
C2347 C2348 1.403 . S
C2348 C2347 1.403 . S
C2348 C2349 1.404 . S
C2348 C2351 1.539 . S
C2349 C2345 1.408 . S
C2349 C2348 1.404 . S
C2349 H2361 0.930 . S
C2350 C2346 1.524 . S
C2350 H2362 0.956 . S
C2350 H2363 0.961 . S
C2350 H2364 0.961 . S
C2351 C2348 1.539 . S
C2351 H2365 0.958 . S
C2351 H2366 0.961 . S
C2351 H2367 0.960 . S
H2352 C2336 0.931 . S
H2353 C2341 0.929 . S
H2354 C2342 0.960 . S
H2355 C2342 0.962 . S
H2356 C2342 0.960 . S
H2357 C2343 0.961 . S
H2358 C2343 0.961 . S
H2359 C2343 0.961 . S
H2360 C2344 0.931 . S
H2361 C2349 0.930 . S
H2362 C2350 0.956 . S
H2363 C2350 0.961 . S
H2364 C2350 0.961 . S
H2365 C2351 0.958 . S
H2366 C2351 0.961 . S
H2367 C2351 0.960 . S
C2368 C2369 1.391 . S
C2368 C2370 1.394 . S
C2368 H2384 0.931 . S
C2369 C2368 1.391 . S
C2369 C2373 1.376 . S
C2370 C2368 1.394 . S
C2370 C2371 1.369 . S
C2370 C2374 1.531 . S
C2371 C2370 1.369 . S
C2371 C2372 1.410 . S
C2371 C2379 1.503 . S
C2372 C2371 1.410 . S
C2372 C2373 1.392 . S
C2372 C2375 1.511 . S
C2373 C2369 1.376 . S
C2373 C2372 1.392 . S
C2373 H2385 0.929 . S
C2374 C2370 1.531 . S
C2374 H2386 0.960 . S
C2374 H2387 0.962 . S
C2374 H2388 0.960 . S
C2375 C2372 1.511 . S
C2375 H2389 0.961 . S
C2375 H2390 0.961 . S
C2375 H2391 0.961 . S
C2376 C2377 1.370 . S
C2376 C2378 1.363 . S
C2376 H2392 0.931 . S
C2377 C2376 1.370 . S
C2377 C2381 1.408 . S
C2378 C2376 1.363 . S
C2378 C2379 1.370 . S
C2378 C2382 1.524 . S
C2379 C2371 1.503 . S
C2379 C2378 1.370 . S
C2379 C2380 1.403 . S
C2380 C2379 1.403 . S
C2380 C2381 1.404 . S
C2380 C2383 1.539 . S
C2381 C2377 1.408 . S
C2381 C2380 1.404 . S
C2381 H2393 0.930 . S
C2382 C2378 1.524 . S
C2382 H2394 0.956 . S
C2382 H2395 0.961 . S
C2382 H2396 0.961 . S
C2383 C2380 1.539 . S
C2383 H2397 0.958 . S
C2383 H2398 0.961 . S
C2383 H2399 0.960 . S
H2384 C2368 0.931 . S
H2385 C2373 0.929 . S
H2386 C2374 0.960 . S
H2387 C2374 0.962 . S
H2388 C2374 0.960 . S
H2389 C2375 0.961 . S
H2390 C2375 0.961 . S
H2391 C2375 0.961 . S
H2392 C2376 0.931 . S
H2393 C2381 0.930 . S
H2394 C2382 0.956 . S
H2395 C2382 0.961 . S
H2396 C2382 0.961 . S
H2397 C2383 0.958 . S
H2398 C2383 0.961 . S
H2399 C2383 0.960 . S
C2400 C2401 1.391 . S
C2400 C2402 1.394 . S
C2400 H2416 0.931 . S
C2401 C2400 1.391 . S
C2401 C2405 1.376 . S
C2402 C2400 1.394 . S
C2402 C2403 1.369 . S
C2402 C2406 1.531 . S
C2403 C2402 1.369 . S
C2403 C2404 1.410 . S
C2403 C2411 1.503 . S
C2404 C2403 1.410 . S
C2404 C2405 1.392 . S
C2404 C2407 1.511 . S
C2405 C2401 1.376 . S
C2405 C2404 1.392 . S
C2405 H2417 0.929 . S
C2406 C2402 1.531 . S
C2406 H2418 0.960 . S
C2406 H2419 0.962 . S
C2406 H2420 0.960 . S
C2407 C2404 1.511 . S
C2407 H2421 0.961 . S
C2407 H2422 0.961 . S
C2407 H2423 0.961 . S
C2408 C2409 1.370 . S
C2408 C2410 1.363 . S
C2408 H2424 0.931 . S
C2409 C2408 1.370 . S
C2409 C2413 1.408 . S
C2410 C2408 1.363 . S
C2410 C2411 1.370 . S
C2410 C2414 1.524 . S
C2411 C2403 1.503 . S
C2411 C2410 1.370 . S
C2411 C2412 1.403 . S
C2412 C2411 1.403 . S
C2412 C2413 1.404 . S
C2412 C2415 1.539 . S
C2413 C2409 1.408 . S
C2413 C2412 1.404 . S
C2413 H2425 0.930 . S
C2414 C2410 1.524 . S
C2414 H2426 0.956 . S
C2414 H2427 0.961 . S
C2414 H2428 0.961 . S
C2415 C2412 1.539 . S
C2415 H2429 0.958 . S
C2415 H2430 0.961 . S
C2415 H2431 0.960 . S
H2416 C2400 0.931 . S
H2417 C2405 0.929 . S
H2418 C2406 0.960 . S
H2419 C2406 0.962 . S
H2420 C2406 0.960 . S
H2421 C2407 0.961 . S
H2422 C2407 0.961 . S
H2423 C2407 0.961 . S
H2424 C2408 0.931 . S
H2425 C2413 0.930 . S
H2426 C2414 0.956 . S
H2427 C2414 0.961 . S
H2428 C2414 0.961 . S
H2429 C2415 0.958 . S
H2430 C2415 0.961 . S
H2431 C2415 0.960 . S
C1409 C1289 1.664 . S
C1417 C29 1.698 . S
C1441 C196 1.667 . S
C1449 C20 1.698 . S
C1473 C997 1.685 . S
C1481 C137 1.687 . S
C1505 C145 1.684 . S
C1513 C645 1.686 . S
C1537 C233 1.705 . S
C1545 C1085 1.681 . S
C1569 C841 1.706 . S
C1577 C293 1.678 . S
C1601 C313 1.663 . S
C1609 C497 1.699 . S
C1633 C900 1.672 . S
C1641 C372 1.693 . S
C1665 C381 1.665 . S
C1673 C548 1.697 . S
C1697 C1349 1.688 . S
C1705 C489 1.690 . S
C1729 C733 1.707 . S
C1737 C585 1.679 . S
C1761 C1201 1.705 . S
C1769 C665 1.678 . S
C1793 C724 1.681 . S
C1801 C937 1.692 . S
C1825 C1369 1.665 . S
C1833 C849 1.698 . S
C1857 C1017 1.667 . S
C1865 C1193 1.695 . S
C1889 C1252 1.691 . S
C1897 C1076 1.689 . S
C1921 C460 0.947 . S
C1929 C57 0.957 . S
C1953 C49 0.953 . S
C1961 C469 0.938 . S
C1985 C108 0.930 . S
C1993 C401 0.960 . S
C2017 C409 0.936 . S
C2025 C117 0.960 . S
C2049 C636 0.933 . S
C2057 C205 0.966 . S
C2081 C673 0.984 . S
C2089 C225 0.955 . S
C2113 C557 0.933 . S
C2121 C321 0.957 . S
C2145 C284 0.956 . S
C2153 C577 0.948 . S
C2177 C1173 0.959 . S
C2185 C761 0.953 . S
C2209 C753 0.940 . S
C2217 C1164 0.959 . S
C2241 C812 0.923 . S
C2249 C1113 0.960 . S
C2273 C1105 0.934 . S
C2281 C821 0.944 . S
C2305 C1377 0.982 . S
C2313 C929 0.952 . S
C2337 C1340 0.975 . S
C2345 C909 0.949 . S
C2369 C1025 0.960 . S
C2377 C1261 0.969 . S
C2401 C1281 0.933 . S
C2409 C988 0.967 . S
