# Generated by pormake.
# Topology cha, (4)-cn, num edge types: 1
# Building blocks:
#     Node 0, Type 0, BuildingBlock: GALJAG_clean_sbu_0, # of connection points: 4
#     Node 1, Type 0, BuildingBlock: GALJAG_clean_sbu_0, # of connection points: 4
#     Node 2, Type 0, BuildingBlock: GALJAG_clean_sbu_0, # of connection points: 4
#     Node 3, Type 0, BuildingBlock: GALJAG_clean_sbu_0, # of connection points: 4
#     Node 4, Type 0, BuildingBlock: GALJAG_clean_sbu_0, # of connection points: 4
#     Node 5, Type 0, BuildingBlock: GALJAG_clean_sbu_0, # of connection points: 4
#     Node 6, Type 0, BuildingBlock: GALJAG_clean_sbu_0, # of connection points: 4
#     Node 7, Type 0, BuildingBlock: GALJAG_clean_sbu_0, # of connection points: 4
#     Node 8, Type 0, BuildingBlock: GALJAG_clean_sbu_0, # of connection points: 4
#     Node 9, Type 0, BuildingBlock: GALJAG_clean_sbu_0, # of connection points: 4
#     Node 10, Type 0, BuildingBlock: GALJAG_clean_sbu_0, # of connection points: 4
#     Node 11, Type 0, BuildingBlock: GALJAG_clean_sbu_0, # of connection points: 4
#     Node 12, Type 0, BuildingBlock: GALJAG_clean_sbu_0, # of connection points: 4
#     Node 13, Type 0, BuildingBlock: GALJAG_clean_sbu_0, # of connection points: 4
#     Node 14, Type 0, BuildingBlock: GALJAG_clean_sbu_0, # of connection points: 4
#     Node 15, Type 0, BuildingBlock: GALJAG_clean_sbu_0, # of connection points: 4
#     Node 16, Type 0, BuildingBlock: GALJAG_clean_sbu_0, # of connection points: 4
#     Node 17, Type 0, BuildingBlock: GALJAG_clean_sbu_0, # of connection points: 4
#     Node 18, Type 0, BuildingBlock: GALJAG_clean_sbu_0, # of connection points: 4
#     Node 19, Type 0, BuildingBlock: GALJAG_clean_sbu_0, # of connection points: 4
#     Node 20, Type 0, BuildingBlock: GALJAG_clean_sbu_0, # of connection points: 4
#     Node 21, Type 0, BuildingBlock: GALJAG_clean_sbu_0, # of connection points: 4
#     Node 22, Type 0, BuildingBlock: GALJAG_clean_sbu_0, # of connection points: 4
#     Node 23, Type 0, BuildingBlock: GALJAG_clean_sbu_0, # of connection points: 4
#     Node 24, Type 0, BuildingBlock: GALJAG_clean_sbu_0, # of connection points: 4
#     Node 25, Type 0, BuildingBlock: GALJAG_clean_sbu_0, # of connection points: 4
#     Node 26, Type 0, BuildingBlock: GALJAG_clean_sbu_0, # of connection points: 4
#     Node 27, Type 0, BuildingBlock: GALJAG_clean_sbu_0, # of connection points: 4
#     Node 28, Type 0, BuildingBlock: GALJAG_clean_sbu_0, # of connection points: 4
#     Node 29, Type 0, BuildingBlock: GALJAG_clean_sbu_0, # of connection points: 4
#     Node 30, Type 0, BuildingBlock: GALJAG_clean_sbu_0, # of connection points: 4
#     Node 31, Type 0, BuildingBlock: GALJAG_clean_sbu_0, # of connection points: 4
#     Node 32, Type 0, BuildingBlock: GALJAG_clean_sbu_0, # of connection points: 4
#     Node 33, Type 0, BuildingBlock: GALJAG_clean_sbu_0, # of connection points: 4
#     Node 34, Type 0, BuildingBlock: GALJAG_clean_sbu_0, # of connection points: 4
#     Node 35, Type 0, BuildingBlock: GALJAG_clean_sbu_0, # of connection points: 4
#     Edge 36, Type (0, 0), BuildingBlock: CIFDUS_clean_linker_0, # of connection points: 2
#     Edge 37, Type (0, 0), BuildingBlock: CIFDUS_clean_linker_0, # of connection points: 2
#     Edge 38, Type (0, 0), BuildingBlock: CIFDUS_clean_linker_0, # of connection points: 2
#     Edge 39, Type (0, 0), BuildingBlock: CIFDUS_clean_linker_0, # of connection points: 2
#     Edge 40, Type (0, 0), BuildingBlock: CIFDUS_clean_linker_0, # of connection points: 2
#     Edge 41, Type (0, 0), BuildingBlock: CIFDUS_clean_linker_0, # of connection points: 2
#     Edge 42, Type (0, 0), BuildingBlock: CIFDUS_clean_linker_0, # of connection points: 2
#     Edge 43, Type (0, 0), BuildingBlock: CIFDUS_clean_linker_0, # of connection points: 2
#     Edge 44, Type (0, 0), BuildingBlock: CIFDUS_clean_linker_0, # of connection points: 2
#     Edge 45, Type (0, 0), BuildingBlock: CIFDUS_clean_linker_0, # of connection points: 2
#     Edge 46, Type (0, 0), BuildingBlock: CIFDUS_clean_linker_0, # of connection points: 2
#     Edge 47, Type (0, 0), BuildingBlock: CIFDUS_clean_linker_0, # of connection points: 2
#     Edge 48, Type (0, 0), BuildingBlock: CIFDUS_clean_linker_0, # of connection points: 2
#     Edge 49, Type (0, 0), BuildingBlock: CIFDUS_clean_linker_0, # of connection points: 2
#     Edge 50, Type (0, 0), BuildingBlock: CIFDUS_clean_linker_0, # of connection points: 2
#     Edge 51, Type (0, 0), BuildingBlock: CIFDUS_clean_linker_0, # of connection points: 2
#     Edge 52, Type (0, 0), BuildingBlock: CIFDUS_clean_linker_0, # of connection points: 2
#     Edge 53, Type (0, 0), BuildingBlock: CIFDUS_clean_linker_0, # of connection points: 2
#     Edge 54, Type (0, 0), BuildingBlock: CIFDUS_clean_linker_0, # of connection points: 2
#     Edge 55, Type (0, 0), BuildingBlock: CIFDUS_clean_linker_0, # of connection points: 2
#     Edge 56, Type (0, 0), BuildingBlock: CIFDUS_clean_linker_0, # of connection points: 2
#     Edge 57, Type (0, 0), BuildingBlock: CIFDUS_clean_linker_0, # of connection points: 2
#     Edge 58, Type (0, 0), BuildingBlock: CIFDUS_clean_linker_0, # of connection points: 2
#     Edge 59, Type (0, 0), BuildingBlock: CIFDUS_clean_linker_0, # of connection points: 2
#     Edge 60, Type (0, 0), BuildingBlock: CIFDUS_clean_linker_0, # of connection points: 2
#     Edge 61, Type (0, 0), BuildingBlock: CIFDUS_clean_linker_0, # of connection points: 2
#     Edge 62, Type (0, 0), BuildingBlock: CIFDUS_clean_linker_0, # of connection points: 2
#     Edge 63, Type (0, 0), BuildingBlock: CIFDUS_clean_linker_0, # of connection points: 2
#     Edge 64, Type (0, 0), BuildingBlock: CIFDUS_clean_linker_0, # of connection points: 2
#     Edge 65, Type (0, 0), BuildingBlock: CIFDUS_clean_linker_0, # of connection points: 2
#     Edge 66, Type (0, 0), BuildingBlock: CIFDUS_clean_linker_0, # of connection points: 2
#     Edge 67, Type (0, 0), BuildingBlock: CIFDUS_clean_linker_0, # of connection points: 2
#     Edge 68, Type (0, 0), BuildingBlock: CIFDUS_clean_linker_0, # of connection points: 2
#     Edge 69, Type (0, 0), BuildingBlock: CIFDUS_clean_linker_0, # of connection points: 2
#     Edge 70, Type (0, 0), BuildingBlock: CIFDUS_clean_linker_0, # of connection points: 2
#     Edge 71, Type (0, 0), BuildingBlock: CIFDUS_clean_linker_0, # of connection points: 2
#     Edge 72, Type (0, 0), BuildingBlock: CIFDUS_clean_linker_0, # of connection points: 2
#     Edge 73, Type (0, 0), BuildingBlock: CIFDUS_clean_linker_0, # of connection points: 2
#     Edge 74, Type (0, 0), BuildingBlock: CIFDUS_clean_linker_0, # of connection points: 2
#     Edge 75, Type (0, 0), BuildingBlock: CIFDUS_clean_linker_0, # of connection points: 2
#     Edge 76, Type (0, 0), BuildingBlock: CIFDUS_clean_linker_0, # of connection points: 2
#     Edge 77, Type (0, 0), BuildingBlock: CIFDUS_clean_linker_0, # of connection points: 2
#     Edge 78, Type (0, 0), BuildingBlock: CIFDUS_clean_linker_0, # of connection points: 2
#     Edge 79, Type (0, 0), BuildingBlock: CIFDUS_clean_linker_0, # of connection points: 2
#     Edge 80, Type (0, 0), BuildingBlock: CIFDUS_clean_linker_0, # of connection points: 2
#     Edge 81, Type (0, 0), BuildingBlock: CIFDUS_clean_linker_0, # of connection points: 2
#     Edge 82, Type (0, 0), BuildingBlock: CIFDUS_clean_linker_0, # of connection points: 2
#     Edge 83, Type (0, 0), BuildingBlock: CIFDUS_clean_linker_0, # of connection points: 2
#     Edge 84, Type (0, 0), BuildingBlock: CIFDUS_clean_linker_0, # of connection points: 2
#     Edge 85, Type (0, 0), BuildingBlock: CIFDUS_clean_linker_0, # of connection points: 2
#     Edge 86, Type (0, 0), BuildingBlock: CIFDUS_clean_linker_0, # of connection points: 2
#     Edge 87, Type (0, 0), BuildingBlock: CIFDUS_clean_linker_0, # of connection points: 2
#     Edge 88, Type (0, 0), BuildingBlock: CIFDUS_clean_linker_0, # of connection points: 2
#     Edge 89, Type (0, 0), BuildingBlock: CIFDUS_clean_linker_0, # of connection points: 2
#     Edge 90, Type (0, 0), BuildingBlock: CIFDUS_clean_linker_0, # of connection points: 2
#     Edge 91, Type (0, 0), BuildingBlock: CIFDUS_clean_linker_0, # of connection points: 2
#     Edge 92, Type (0, 0), BuildingBlock: CIFDUS_clean_linker_0, # of connection points: 2
#     Edge 93, Type (0, 0), BuildingBlock: CIFDUS_clean_linker_0, # of connection points: 2
#     Edge 94, Type (0, 0), BuildingBlock: CIFDUS_clean_linker_0, # of connection points: 2
#     Edge 95, Type (0, 0), BuildingBlock: CIFDUS_clean_linker_0, # of connection points: 2
#     Edge 96, Type (0, 0), BuildingBlock: CIFDUS_clean_linker_0, # of connection points: 2
#     Edge 97, Type (0, 0), BuildingBlock: CIFDUS_clean_linker_0, # of connection points: 2
#     Edge 98, Type (0, 0), BuildingBlock: CIFDUS_clean_linker_0, # of connection points: 2
#     Edge 99, Type (0, 0), BuildingBlock: CIFDUS_clean_linker_0, # of connection points: 2
#     Edge 100, Type (0, 0), BuildingBlock: CIFDUS_clean_linker_0, # of connection points: 2
#     Edge 101, Type (0, 0), BuildingBlock: CIFDUS_clean_linker_0, # of connection points: 2
#     Edge 102, Type (0, 0), BuildingBlock: CIFDUS_clean_linker_0, # of connection points: 2
#     Edge 103, Type (0, 0), BuildingBlock: CIFDUS_clean_linker_0, # of connection points: 2
#     Edge 104, Type (0, 0), BuildingBlock: CIFDUS_clean_linker_0, # of connection points: 2
#     Edge 105, Type (0, 0), BuildingBlock: CIFDUS_clean_linker_0, # of connection points: 2
#     Edge 106, Type (0, 0), BuildingBlock: CIFDUS_clean_linker_0, # of connection points: 2
#     Edge 107, Type (0, 0), BuildingBlock: CIFDUS_clean_linker_0, # of connection points: 2
# Relax obj value: 0.076
# Max RMSD: 0.060
# Mean RMSD: 0.060
data_MOF--net-cha--node1-GALJAG_clean_sbu_0--edge1-CIFDUS_clean_linker_0
_symmetry_space_group_name_H-M    P1
_symmetry_Int_Tables_number       1
_symmetry_cell_setting            triclinic
loop_
_symmetry_equiv_pos_as_xyz
'x, y, z'
_cell_length_a     50.970148
_cell_length_b     50.935853
_cell_length_c     73.321371
_cell_angle_alpha  90.004285
_cell_angle_beta   90.005192
_cell_angle_gamma 119.99802
loop_
_atom_site_label
_atom_site_type_symbol
_atom_site_fract_x
_atom_site_fract_y
_atom_site_fract_z
_atom_type_partial_charge
In0 In 0.03119 0.28568 0.08932 0.0
O1 O 0.03206 0.31128 0.06292 0.0
O2 O 0.0146 0.26376 0.06187 0.0
C3 C 0.0318 0.32058 0.11729 0.0
C4 C 0.08711 0.29264 0.08779 0.0
C5 C 0.98161 0.23328 0.09886 0.0
O6 O 0.02193 0.32168 0.10165 0.0
O7 O 0.04199 0.30265 0.11854 0.0
O8 O 0.00785 0.23651 0.09887 0.0
O9 O 0.98056 0.2567 0.09442 0.0
C10 C 0.02048 0.28748 0.0533 0.0
O11 O 0.06407 0.26819 0.09258 0.0
O12 O 0.08204 0.31385 0.08391 0.0
In13 In 0.76241 0.76662 0.09474 0.0
O14 O 0.73116 0.74541 0.06974 0.0
O15 O 0.77821 0.77495 0.06545 0.0
C16 C 0.72855 0.72935 0.12208 0.0
C17 C 0.76419 0.82001 0.09871 0.0
C18 C 0.81431 0.76577 0.10011 0.0
O19 O 0.72808 0.71986 0.10613 0.0
O20 O 0.74493 0.75758 0.12394 0.0
O21 O 0.81146 0.7884 0.10371 0.0
O22 O 0.79078 0.7432 0.09383 0.0
C23 C 0.75257 0.75833 0.05839 0.0
O24 O 0.78634 0.81629 0.10211 0.0
O25 O 0.74052 0.79648 0.09337 0.0
In26 In 0.28037 0.02299 0.09432 0.0
O27 O 0.31074 0.0206 0.07153 0.0
O28 O 0.27793 0.03304 0.0647 0.0
C29 C 0.30702 0.02467 0.12645 0.0
C30 C 0.23214 0.96671 0.09417 0.0
C31 C 0.27671 0.07365 0.09783 0.0
O32 O 0.32192 0.03294 0.11171 0.0
O33 O 0.27911 0.01511 0.12473 0.0
O34 O 0.25365 0.04767 0.09603 0.0
O35 O 0.3017 0.07407 0.09799 0.0
C36 C 0.29844 0.0281 0.05915 0.0
O37 O 0.23027 0.98999 0.09762 0.0
O38 O 0.25853 0.97176 0.09069 0.0
In39 In 0.29277 0.02478 0.91397 0.0
O40 O 0.2739 0.05512 0.90606 0.0
O41 O 0.32082 0.07627 0.91294 0.0
C42 C 0.24296 0.96958 0.91093 0.0
C43 C 0.29808 0.03068 0.95056 0.0
C44 C 0.32506 0.02179 0.88574 0.0
O45 O 0.24332 0.99363 0.9063 0.0
O46 O 0.26776 0.9734 0.91707 0.0
O47 O 0.33113 0.01849 0.90206 0.0
O48 O 0.30357 0.02712 0.88402 0.0
C49 C 0.29872 0.07953 0.90826 0.0
O50 O 0.31757 0.02806 0.9412 0.0
O51 O 0.27664 0.02971 0.94147 0.0
In52 In 0.02544 0.28729 0.90961 0.0
O53 O 0.02962 0.31958 0.93315 0.0
O54 O 0.01884 0.27442 0.93921 0.0
C55 C 0.02641 0.31363 0.8776 0.0
C56 C 0.96951 0.23933 0.90659 0.0
C57 C 0.07935 0.28951 0.90838 0.0
O58 O 0.02832 0.32666 0.89267 0.0
O59 O 0.02382 0.28777 0.87891 0.0
O60 O 0.05453 0.26479 0.90879 0.0
O61 O 0.07691 0.31296 0.90865 0.0
C62 C 0.02357 0.29957 0.94523 0.0
O63 O 0.99313 0.23729 0.90491 0.0
O64 O 0.97416 0.26576 0.90963 0.0
In65 In 0.76539 0.76815 0.91291 0.0
O66 O 0.74232 0.74597 0.94033 0.0
O67 O 0.78471 0.78708 0.94044 0.0
C68 C 0.72834 0.73467 0.88557 0.0
C69 C 0.81193 0.758 0.90928 0.0
C70 C 0.76692 0.82101 0.90664 0.0
O71 O 0.7188 0.73215 0.90179 0.0
O72 O 0.75617 0.75312 0.88357 0.0
O73 O 0.78899 0.81711 0.90323 0.0
O74 O 0.7439 0.79812 0.9131 0.0
C75 C 0.76368 0.76645 0.94967 0.0
O76 O 0.81356 0.78283 0.90509 0.0
O77 O 0.78633 0.73772 0.91504 0.0
In78 In 0.02634 0.77014 0.90994 0.0
O79 O -0.00051 0.79347 0.9042 0.0
O80 O 0.97464 0.74702 0.91197 0.0
C81 C 0.07939 0.82215 0.90514 0.0
C82 C 0.02592 0.75863 0.946 0.0
C83 C 0.02645 0.73739 0.88093 0.0
O84 O 0.05397 0.82001 0.90247 0.0
O85 O 0.07821 0.79782 0.91003 0.0
O86 O 0.03648 0.7355 0.89633 0.0
O87 O 0.01595 0.75507 0.88042 0.0
C88 C 0.97396 0.77059 0.90735 0.0
O89 O 0.0188 0.73805 0.93419 0.0
O90 O 0.03303 0.78423 0.93951 0.0
In91 In 0.28279 0.27964 0.91115 0.0
O92 O 0.30631 0.28128 0.93811 0.0
O93 O 0.2891 0.31114 0.93514 0.0
C94 C 0.31489 0.31247 0.882 0.0
C95 C 0.28104 0.22627 0.90717 0.0
C96 C 0.22708 0.27348 0.91008 0.0
O97 O 0.32179 0.32215 0.89813 0.0
O98 O 0.29227 0.28623 0.88067 0.0
O99 O 0.23202 0.2539 0.91736 0.0
O100 O 0.25009 0.29584 0.90323 0.0
C101 C 0.30223 0.30139 0.9453 0.0
O102 O 0.25757 0.22867 0.90658 0.0
O103 O 0.30548 0.25087 0.90975 0.0
In104 In 0.7643 0.02789 0.90987 0.0
O105 O 0.74053 0.03494 0.93464 0.0
O106 O 0.77753 0.02751 0.93909 0.0
C107 C 0.73241 0.02996 0.88113 0.0
C108 C 0.81817 0.07859 0.90581 0.0
C109 C 0.7556 0.97127 0.9067 0.0
O110 O 0.72151 0.02432 0.89706 0.0
O111 O 0.75916 0.03496 0.87995 0.0
O112 O 0.78033 0.99468 0.90283 0.0
O113 O 0.735 0.97635 0.91197 0.0
C114 C 0.75771 0.0323 0.94603 0.0
O115 O 0.81449 0.05236 0.90367 0.0
O116 O 0.79445 0.07934 0.9099 0.0
In117 In 0.76981 0.03078 0.09103 0.0
O118 O 0.78448 0.99692 0.09889 0.0
O119 O 0.74035 0.97984 0.08755 0.0
C120 C 0.81913 0.08488 0.09804 0.0
C121 C 0.77049 0.03441 0.05444 0.0
C122 C 0.73407 0.03069 0.11793 0.0
O123 O 0.81919 0.06022 0.09991 0.0
O124 O 0.79421 0.08203 0.09288 0.0
O125 O 0.73029 0.03591 0.10153 0.0
O126 O 0.75523 0.02504 0.12043 0.0
C127 C 0.75995 0.97403 0.09387 0.0
O128 O 0.74835 0.03208 0.0636 0.0
O129 O 0.79148 0.0349 0.06379 0.0
In130 In 0.02012 0.76289 0.09143 0.0
O131 O 0.02524 0.74306 0.06405 0.0
O132 O 0.02071 0.78239 0.06396 0.0
C133 C 0.02391 0.72963 0.11884 0.0
C134 C 0.07143 0.81561 0.09646 0.0
C135 C 0.96352 0.7532 0.09609 0.0
O136 O 0.01787 0.71954 0.10268 0.0
O137 O 0.0284 0.7561 0.12079 0.0
O138 O 0.98689 0.77763 0.10051 0.0
O139 O 0.96863 0.7333 0.0895 0.0
C140 C 0.0242 0.7635 0.05476 0.0
O141 O 0.04558 0.81201 0.10004 0.0
O142 O 0.07147 0.79227 0.09057 0.0
In143 In 0.29414 0.28933 0.08769 0.0
O144 O 0.24275 0.26103 0.0896 0.0
O145 O 0.26223 0.30816 0.08421 0.0
C146 C 0.29483 0.23814 0.09559 0.0
C147 C 0.31428 0.30169 0.05269 0.0
C148 C 0.32318 0.32514 0.11659 0.0
O149 O 0.27125 0.23801 0.09008 0.0
O150 O 0.31792 0.26414 0.09731 0.0
O151 O 0.33568 0.32909 0.10118 0.0
O152 O 0.29618 0.30378 0.11717 0.0
C153 C 0.23844 0.28302 0.08677 0.0
O154 O 0.31389 0.2808 0.06199 0.0
O155 O 0.30538 0.31732 0.06117 0.0
In156 In 0.68604 0.6231 0.42388 0.0
O157 O 0.68848 0.65116 0.39835 0.0
O158 O 0.68224 0.60679 0.39528 0.0
C159 C 0.69087 0.65326 0.45495 0.0
C160 C 0.74009 0.62663 0.42395 0.0
C161 C 0.6308 0.57439 0.42867 0.0
O162 O 0.68278 0.66006 0.44016 0.0
O163 O 0.69667 0.63203 0.45374 0.0
O164 O 0.65492 0.57342 0.43065 0.0
O165 O 0.63458 0.60013 0.42453 0.0
C166 C 0.68559 0.63036 0.38757 0.0
O167 O 0.71573 0.60226 0.42726 0.0
O168 O 0.73718 0.64947 0.42082 0.0
In169 In 0.44471 0.1096 0.42862 0.0
O170 O 0.41872 0.08824 0.4017 0.0
O171 O 0.46031 0.12999 0.40076 0.0
C172 C 0.41044 0.07135 0.45541 0.0
C173 C 0.43909 0.15809 0.43602 0.0
C174 C 0.49715 0.10889 0.43186 0.0
O175 O 0.40808 0.06274 0.43901 0.0
O176 O 0.42945 0.09888 0.458 0.0
O177 O 0.49483 0.13178 0.43562 0.0
O178 O 0.47287 0.08607 0.4266 0.0
C179 C 0.43821 0.10971 0.39199 0.0
O180 O 0.46265 0.15687 0.43972 0.0
O181 O 0.4179 0.13446 0.42874 0.0
In182 In 0.9533 0.35814 0.42553 0.0
O183 O 0.97541 0.35528 0.39844 0.0
O184 O 0.94145 0.36786 0.39785 0.0
C185 C 0.98524 0.35436 0.45375 0.0
C186 C 0.90038 0.30576 0.42723 0.0
C187 C 0.96088 0.41307 0.43332 0.0
O188 O 0.99621 0.36088 0.43781 0.0
O189 O 0.95827 0.34869 0.45501 0.0
O190 O 0.93598 0.38884 0.43549 0.0
O191 O 0.98219 0.40959 0.42737 0.0
C192 C 0.9596 0.36292 0.38887 0.0
O193 O 0.90314 0.33104 0.43147 0.0
O194 O 0.9246 0.30675 0.42218 0.0
In195 In 0.96573 0.3632 0.24398 0.0
O196 O 0.94142 0.38916 0.23833 0.0
O197 O 0.98856 0.41505 0.24433 0.0
C198 C 0.91626 0.30783 0.23987 0.0
C199 C 0.97542 0.36528 0.28037 0.0
C200 C -0.00126 0.36389 0.21489 0.0
O201 O 0.91662 0.33207 0.23592 0.0
O202 O 0.941 0.31137 0.24588 0.0
O203 O 0.00469 0.3592 0.2309 0.0
O204 O 0.97708 0.36904 0.21385 0.0
C205 C 0.96437 0.41507 0.24047 0.0
O206 O 0.99473 0.36633 0.26911 0.0
O207 O 0.95206 0.36335 0.2732 0.0
In208 In 0.69706 0.60694 0.24347 0.0
O209 O 0.66669 0.55779 0.2354 0.0
O210 O 0.64545 0.58171 0.24555 0.0
C211 C 0.75004 0.60799 0.23823 0.0
C212 C 0.69662 0.61238 0.28011 0.0
C213 C 0.69809 0.64342 0.21642 0.0
O214 O 0.72462 0.58486 0.23521 0.0
O215 O 0.74883 0.63091 0.2436 0.0
O216 O 0.70481 0.65262 0.23267 0.0
O217 O 0.69075 0.61611 0.21403 0.0
C218 C 0.64231 0.55704 0.23955 0.0
O219 O 0.69359 0.63043 0.26965 0.0
O220 O 0.7 0.59246 0.27203 0.0
In221 In 0.43497 0.11042 0.24748 0.0
O222 O 0.40718 0.08059 0.27194 0.0
O223 O 0.44311 0.12545 0.27678 0.0
C224 C 0.40685 0.08134 0.21651 0.0
C225 C 0.4837 0.10338 0.24645 0.0
C226 C 0.43596 0.16324 0.24222 0.0
O227 O 0.39259 0.07606 0.23145 0.0
O228 O 0.43463 0.10054 0.21751 0.0
O229 O 0.45961 0.16115 0.24232 0.0
O230 O 0.4116 0.13855 0.24474 0.0
C231 C 0.42255 0.10104 0.28353 0.0
O232 O 0.48489 0.12821 0.24292 0.0
O233 O 0.45778 0.08192 0.25076 0.0
In234 In 0.69657 0.1142 0.23865 0.0
O235 O 0.66914 0.13623 0.23099 0.0
O236 O 0.64519 0.09119 0.24143 0.0
C237 C 0.751 0.16388 0.23264 0.0
C238 C 0.69605 0.10938 0.27524 0.0
C239 C 0.69458 0.07659 0.21211 0.0
O240 O 0.72632 0.16235 0.22838 0.0
O241 O 0.74834 0.14005 0.23965 0.0
O242 O 0.70237 0.07494 0.22823 0.0
O243 O 0.68727 0.09655 0.20966 0.0
C244 C 0.64399 0.11392 0.23559 0.0
O245 O 0.69247 0.08778 0.26506 0.0
O246 O 0.70007 0.13273 0.26691 0.0
In247 In 0.96616 0.62417 0.24637 0.0
O248 O 0.94912 0.57454 0.24052 0.0
O249 O 0.99587 0.6025 0.24721 0.0
C250 C 0.91508 0.62732 0.243 0.0
C251 C 0.97384 0.63114 0.28278 0.0
C252 C 0.99657 0.65615 0.21673 0.0
O253 O 0.91569 0.6032 0.24004 0.0
O254 O 0.94018 0.64972 0.24755 0.0
O255 O 0.00416 0.66686 0.23268 0.0
O256 O 0.97431 0.62957 0.21598 0.0
C257 C 0.9745 0.57634 0.24313 0.0
O258 O 0.99139 0.65193 0.27195 0.0
O259 O 0.95319 0.60771 0.27516 0.0
In260 In 0.42181 0.36399 0.24513 0.0
O261 O 0.39724 0.36895 0.27027 0.0
O262 O 0.43085 0.35635 0.27402 0.0
C263 C 0.3904 0.36536 0.21594 0.0
C264 C 0.47353 0.41758 0.24328 0.0
C265 C 0.41718 0.30935 0.24026 0.0
O266 O 0.37853 0.35804 0.23161 0.0
O267 O 0.41787 0.37253 0.2153 0.0
O268 O 0.44206 0.33392 0.23913 0.0
O269 O 0.39452 0.31237 0.24352 0.0
C270 C 0.4119 0.36206 0.28133 0.0
O271 O 0.4719 0.39281 0.23896 0.0
O272 O 0.44887 0.4154 0.24845 0.0
In273 In 0.42955 0.35938 0.42608 0.0
O274 O 0.40544 0.35932 0.39936 0.0
O275 O 0.44569 0.35653 0.39811 0.0
C276 C 0.39662 0.36333 0.4535 0.0
C277 C 0.42016 0.30325 0.43134 0.0
C278 C 0.48272 0.41117 0.43072 0.0
O279 O 0.39327 0.36942 0.43723 0.0
O280 O 0.41582 0.35492 0.45556 0.0
O281 O 0.47959 0.38532 0.43346 0.0
O282 O 0.45894 0.41097 0.42572 0.0
C283 C 0.42465 0.35717 0.38948 0.0
O284 O 0.44459 0.32686 0.43555 0.0
O285 O 0.39999 0.30788 0.4246 0.0
In286 In 0.6967 0.09348 0.41932 0.0
O287 O 0.69823 0.0687 0.39333 0.0
O288 O 0.69282 0.10738 0.39093 0.0
C289 C 0.6973 0.06075 0.44791 0.0
C290 C 0.75203 0.14277 0.42153 0.0
C291 C 0.64251 0.0894 0.42483 0.0
O292 O 0.69024 0.04948 0.43206 0.0
O293 O 0.7045 0.08822 0.44901 0.0
O294 O 0.66725 0.11374 0.42724 0.0
O295 O 0.64517 0.06713 0.41987 0.0
C296 C 0.69517 0.0868 0.38289 0.0
O297 O 0.72813 0.14325 0.42545 0.0
O298 O 0.74802 0.11724 0.4166 0.0
In299 In 0.93737 0.60621 0.42637 0.0
O300 O 0.96239 0.63325 0.40042 0.0
O301 O 0.9323 0.58579 0.39853 0.0
C302 C 0.9661 0.64244 0.45507 0.0
C303 C 0.88441 0.60531 0.42466 0.0
C304 C 0.94106 0.55746 0.43655 0.0
O305 O 0.97956 0.64484 0.44014 0.0
O306 O 0.93844 0.62263 0.45514 0.0
O307 O 0.91677 0.55832 0.43729 0.0
O308 O 0.9638 0.58154 0.43093 0.0
C309 C 0.95021 0.60994 0.39036 0.0
O310 O 0.88643 0.5823 0.42863 0.0
O311 O 0.90932 0.62906 0.42135 0.0
In312 In 0.36052 0.94574 0.75953 0.0
O313 O 0.36847 0.97782 0.73523 0.0
O314 O 0.35101 0.93099 0.73004 0.0
C315 C 0.36055 0.97882 0.78851 0.0
C316 C 0.4131 0.94517 0.76079 0.0
C317 C 0.30668 0.89455 0.76408 0.0
O318 O 0.3528 0.98218 0.77272 0.0
O319 O 0.36895 0.95944 0.78953 0.0
O320 O 0.33172 0.89553 0.76619 0.0
O321 O 0.30875 0.91957 0.75994 0.0
C322 C 0.35934 0.95686 0.7235 0.0
O323 O 0.38794 0.92259 0.76505 0.0
O324 O 0.41191 0.96841 0.7561 0.0
In325 In 0.10557 0.44678 0.75868 0.0
O326 O 0.0738 0.4168 0.73551 0.0
O327 O 0.11443 0.45718 0.72867 0.0
C328 C 0.07502 0.41708 0.78911 0.0
C329 C 0.10442 0.49882 0.75997 0.0
C330 C 0.15806 0.44615 0.7625 0.0
O331 O 0.07204 0.4035 0.77418 0.0
O332 O 0.09258 0.44528 0.78845 0.0
O333 O 0.15551 0.46889 0.76624 0.0
O334 O 0.13403 0.42347 0.75688 0.0
C335 C 0.09064 0.43429 0.72306 0.0
O336 O 0.12835 0.49752 0.76194 0.0
O337 O 0.08061 0.47356 0.75741 0.0
In338 In 0.61583 0.69358 0.759 0.0
O339 O 0.63047 0.67397 0.7351 0.0
O340 O 0.62952 0.71442 0.73064 0.0
C341 C 0.64897 0.69637 0.78857 0.0
C342 C 0.56171 0.64219 0.76172 0.0
C343 C 0.61186 0.74412 0.7627 0.0
O344 O 0.66007 0.70276 0.77272 0.0
O345 O 0.62129 0.68829 0.78941 0.0
O346 O 0.58938 0.71863 0.75874 0.0
O347 O 0.63649 0.74414 0.76487 0.0
C348 C 0.63434 0.69448 0.724 0.0
O349 O 0.56456 0.66823 0.76174 0.0
O350 O 0.58623 0.64193 0.76015 0.0
In351 In 0.62153 0.6982 0.5809 0.0
O352 O 0.60383 0.73071 0.57743 0.0
O353 O 0.65181 0.74908 0.57921 0.0
C354 C 0.57162 0.643 0.58048 0.0
C355 C 0.63645 0.70405 0.61643 0.0
C356 C 0.64455 0.6977 0.54803 0.0
O357 O 0.57055 0.66708 0.57839 0.0
O358 O 0.59782 0.64687 0.58303 0.0
O359 O 0.65709 0.69594 0.56258 0.0
O360 O 0.62095 0.69939 0.55034 0.0
C361 C 0.62998 0.75407 0.57747 0.0
O362 O 0.65012 0.69652 0.60494 0.0
O363 O 0.61574 0.70793 0.60996 0.0
In364 In 0.36547 0.95156 0.57827 0.0
O365 O 0.36078 0.97257 0.60534 0.0
O366 O 0.35945 0.93017 0.60584 0.0
C367 C 0.36589 0.98596 0.55025 0.0
C368 C 0.31403 0.90042 0.57031 0.0
C369 C 0.42228 0.96104 0.57645 0.0
O370 O 0.36675 0.99416 0.56666 0.0
O371 O 0.3643 0.96064 0.54828 0.0
O372 O 0.39918 0.93531 0.57411 0.0
O373 O 0.4168 0.98216 0.57963 0.0
C374 C 0.35814 0.95056 0.6148 0.0
O375 O 0.33991 0.90343 0.5677 0.0
O376 O 0.31412 0.92356 0.57667 0.0
In377 In 0.09673 0.43607 0.57803 0.0
O378 O 0.07384 0.41437 0.60568 0.0
O379 O 0.10828 0.46068 0.6048 0.0
C380 C 0.06151 0.39936 0.55099 0.0
C381 C 0.14489 0.42802 0.57854 0.0
C382 C 0.09942 0.48801 0.56757 0.0
O383 O 0.05085 0.39933 0.56659 0.0
O384 O 0.08958 0.41713 0.54942 0.0
O385 O 0.12183 0.4839 0.56656 0.0
O386 O 0.07535 0.46557 0.57349 0.0
C387 C 0.08988 0.43871 0.61444 0.0
O388 O 0.14609 0.45202 0.57295 0.0
O389 O 0.11905 0.4076 0.58381 0.0
In390 In 0.35891 0.439 0.57887 0.0
O391 O 0.33249 0.46314 0.57418 0.0
O392 O 0.30738 0.41677 0.5819 0.0
C393 C 0.41039 0.49245 0.57444 0.0
C394 C 0.36058 0.42533 0.61432 0.0
C395 C 0.36028 0.40678 0.54996 0.0
O396 O 0.38438 0.48949 0.57314 0.0
O397 O 0.41058 0.46817 0.57766 0.0
O398 O 0.36933 0.40458 0.56559 0.0
O399 O 0.35024 0.42482 0.54903 0.0
C400 C 0.30696 0.4406 0.57771 0.0
O401 O 0.34663 0.40493 0.60252 0.0
O402 O 0.37329 0.45194 0.60816 0.0
In403 In 0.63217 0.96344 0.57781 0.0
O404 O 0.60404 0.91269 0.5742 0.0
O405 O 0.65192 0.93202 0.57644 0.0
C406 C 0.57672 0.95774 0.57788 0.0
C407 C 0.65336 0.98377 0.61187 0.0
C408 C 0.66267 0.99269 0.54734 0.0
O409 O 0.58172 0.93726 0.58346 0.0
O410 O 0.59984 0.98153 0.57237 0.0
O411 O 0.67109 0.00403 0.56302 0.0
O412 O 0.63927 0.96692 0.54716 0.0
C413 C 0.62634 0.90834 0.57456 0.0
O414 O 0.6416 0.99548 0.6021 0.0
O415 O 0.65563 0.96293 0.60416 0.0
In416 In 0.10204 0.697 0.57078 0.0
O417 O 0.0779 0.69822 0.59726 0.0
O418 O 0.11735 0.69389 0.59881 0.0
C419 C 0.07371 0.69989 0.54067 0.0
C420 C 0.15123 0.75217 0.56895 0.0
C421 C 0.09336 0.6409 0.56603 0.0
O422 O 0.06123 0.6952 0.55622 0.0
O423 O 0.1 0.7034 0.54067 0.0
O424 O 0.11899 0.6644 0.56389 0.0
O425 O 0.07223 0.64585 0.57036 0.0
C426 C 0.0969 0.69585 0.60731 0.0
O427 O 0.15204 0.72829 0.56529 0.0
O428 O 0.12549 0.74809 0.57342 0.0
In429 In 0.0888 0.69861 0.75195 0.0
O430 O 0.0607 0.69656 0.7266 0.0
O431 O 0.10415 0.70102 0.72303 0.0
C432 C 0.05764 0.699 0.78153 0.0
C433 C 0.08383 0.64371 0.75454 0.0
C434 C 0.13977 0.7525 0.75671 0.0
O435 O 0.05168 0.70472 0.76576 0.0
O436 O 0.07852 0.69262 0.78207 0.0
O437 O 0.13877 0.72747 0.75905 0.0
O438 O 0.11496 0.75038 0.75203 0.0
C439 C 0.08082 0.69872 0.71558 0.0
O440 O 0.10841 0.66813 0.75716 0.0
O441 O 0.06142 0.64691 0.75068 0.0
In442 In 0.35872 0.43084 0.7585 0.0
O443 O 0.38929 0.48015 0.76603 0.0
O444 O 0.40996 0.45337 0.76069 0.0
C445 C 0.30401 0.42704 0.76008 0.0
C446 C 0.36684 0.43026 0.72232 0.0
C447 C 0.35498 0.39447 0.78617 0.0
O448 O 0.32792 0.44994 0.76568 0.0
O449 O 0.30771 0.40606 0.75383 0.0
O450 O 0.35236 0.38596 0.76973 0.0
O451 O 0.35972 0.42102 0.78841 0.0
C452 C 0.41351 0.47912 0.76465 0.0
O453 O 0.36013 0.40713 0.73196 0.0
O454 O 0.36884 0.4526 0.73088 0.0
In455 In 0.62883 0.95989 0.75409 0.0
O456 O 0.57794 0.93889 0.75861 0.0
O457 O 0.60195 0.98363 0.74798 0.0
C458 C 0.62946 0.90857 0.76197 0.0
C459 C 0.64761 0.9689 0.71899 0.0
C460 C 0.66021 0.99428 0.78287 0.0
O461 O 0.60534 0.90864 0.75802 0.0
O462 O 0.65305 0.9344 0.76219 0.0
O463 O 0.67217 0.99711 0.76737 0.0
O464 O 0.63246 0.97474 0.78362 0.0
C465 C 0.57689 0.96184 0.75315 0.0
O466 O 0.65161 0.9906 0.72915 0.0
O467 O 0.63431 0.94327 0.72648 0.0
H468 H 0.10168 0.24884 0.09286 0.0
H469 H 0.14068 0.34386 0.08016 0.0
H470 H 0.19104 0.3492 0.07844 0.0
H471 H 0.22397 0.32688 0.08085 0.0
H472 H 0.18465 0.23173 0.09333 0.0
H473 H 0.13434 0.2264 0.09475 0.0
C474 C 0.1212 0.27073 0.08972 0.0
C475 C 0.11752 0.29594 0.0867 0.0
C476 C 0.14998 0.27358 0.08868 0.0
C477 C 0.14297 0.32412 0.08257 0.0
C478 C 0.17175 0.32718 0.08157 0.0
C479 C 0.20436 0.30497 0.08383 0.0
C480 C 0.208 0.27975 0.08701 0.0
C481 C 0.17552 0.30207 0.08464 0.0
C482 C 0.18242 0.25149 0.09083 0.0
C483 C 0.15367 0.24843 0.09167 0.0
H484 H 0.79872 0.95661 0.10662 0.0
H485 H 0.7099 0.9217 0.08297 0.0
H486 H 0.70263 0.87048 0.08308 0.0
H487 H 0.72246 0.83591 0.08884 0.0
H488 H 0.8117 0.87154 0.11208 0.0
H489 H 0.81777 0.92209 0.11327 0.0
C490 C 0.77771 0.93777 0.10157 0.0
C491 C 0.75495 0.94292 0.09474 0.0
C492 C 0.77377 0.90849 0.10157 0.0
C493 C 0.72781 0.9183 0.08828 0.0
C494 C 0.72364 0.88901 0.08832 0.0
C495 C 0.74311 0.85472 0.09427 0.0
C496 C 0.76661 0.85002 0.1003 0.0
C497 C 0.74659 0.88388 0.09478 0.0
C498 C 0.79329 0.87459 0.10729 0.0
C499 C 0.79682 0.90352 0.10797 0.0
H500 H 0.12909 0.82977 0.08829 0.0
H501 H 0.07597 0.86817 0.10847 0.0
H502 H 0.12121 0.91818 0.1098 0.0
H503 H 0.17534 0.95124 0.10436 0.0
H504 H 0.22901 0.91349 0.08424 0.0
H505 H 0.18401 0.86289 0.08376 0.0
C506 C 0.12749 0.84907 0.09308 0.0
C507 C 0.09925 0.84532 0.09822 0.0
C508 C 0.1536 0.87784 0.09373 0.0
C509 C 0.09746 0.87049 0.10441 0.0
C510 C 0.12329 0.8991 0.10515 0.0
C511 C 0.17721 0.93194 0.09989 0.0
C512 C 0.20535 0.93604 0.09425 0.0
C513 C 0.15138 0.90307 0.09968 0.0
C514 C 0.20751 0.91084 0.08861 0.0
C515 C 0.18182 0.88195 0.08833 0.0
H516 H 0.25331 0.09132 0.90173 0.0
H517 H 0.34955 0.1351 0.91162 0.0
H518 H 0.35281 0.18465 0.91142 0.0
H519 H 0.32784 0.21527 0.90986 0.0
H520 H 0.23137 0.17113 0.9007 0.0
H521 H 0.22869 0.12196 0.89917 0.0
C522 C 0.27505 0.11172 0.90369 0.0
C523 C 0.30113 0.10956 0.90672 0.0
C524 C 0.27667 0.14004 0.90379 0.0
C525 C 0.32912 0.13618 0.90927 0.0
C526 C 0.33099 0.1645 0.9092 0.0
C527 C 0.30627 0.19489 0.90743 0.0
C528 C 0.27984 0.1968 0.90547 0.0
C529 C 0.30485 0.16666 0.90671 0.0
C530 C 0.25204 0.17024 0.90232 0.0
C531 C 0.25048 0.14212 0.90144 0.0
H532 H 0.95473 0.18135 0.89974 0.0
H533 H 0.91553 0.23738 0.91178 0.0
H534 H 0.8649 0.19256 0.91205 0.0
H535 H 0.83202 0.13719 0.90993 0.0
H536 H 0.8717 0.0815 0.89804 0.0
H537 H 0.9219 0.12649 0.8966 0.0
C538 C 0.93509 0.18377 0.90234 0.0
C539 C 0.93883 0.21257 0.9058 0.0
C540 C 0.90616 0.15797 0.90255 0.0
C541 C 0.9132 0.2154 0.90909 0.0
C542 C 0.88427 0.1898 0.90928 0.0
C543 C 0.85166 0.13496 0.90694 0.0
C544 C 0.84819 0.10609 0.90417 0.0
C545 C 0.88052 0.16094 0.90619 0.0
C546 C 0.87379 0.10349 0.90027 0.0
C547 C 0.90252 0.12919 0.89945 0.0
H548 H 0.86829 0.79941 0.89859 0.0
H549 H 0.81549 0.70775 0.9185 0.0
H550 H 0.86101 0.703 0.91915 0.0
H551 H 0.91636 0.72595 0.9152 0.0
H552 H 0.96842 0.81814 0.89587 0.0
H553 H 0.92258 0.82161 0.89387 0.0
C554 C 0.86666 0.7783 0.90296 0.0
C555 C 0.83864 0.754 0.90852 0.0
C556 C 0.89282 0.7759 0.90351 0.0
C557 C 0.83687 0.72679 0.91415 0.0
C558 C 0.86288 0.7241 0.91457 0.0
C559 C 0.91758 0.74671 0.9105 0.0
C560 C 0.94573 0.77178 0.90577 0.0
C561 C 0.89106 0.74866 0.90947 0.0
C562 C 0.94704 0.79856 0.89967 0.0
C563 C 0.92084 0.80058 0.8985 0.0
H564 H 0.75063 0.5802 0.42885 0.0
H565 H 0.7957 0.67622 0.4178 0.0
H566 H 0.84458 0.6781 0.41667 0.0
H567 H 0.87441 0.65232 0.41902 0.0
H568 H 0.82875 0.55625 0.43014 0.0
H569 H 0.78011 0.55451 0.43095 0.0
C570 C 0.77115 0.60155 0.42621 0.0
C571 C 0.76964 0.62803 0.42346 0.0
C572 C 0.79902 0.60243 0.42555 0.0
C573 C 0.79636 0.65553 0.42 0.0
C574 C 0.82427 0.65661 0.41933 0.0
C575 C 0.85378 0.63102 0.42155 0.0
C576 C 0.85512 0.60447 0.42452 0.0
C577 C 0.82586 0.63019 0.42209 0.0
C578 C 0.82828 0.57701 0.42783 0.0
C579 C 0.80046 0.57598 0.42832 0.0
H580 H 0.45921 0.28903 0.44713 0.0
H581 H 0.37311 0.24928 0.41938 0.0
H582 H 0.37013 0.19979 0.41962 0.0
H583 H 0.39412 0.16893 0.42565 0.0
H584 H 0.48085 0.20973 0.45281 0.0
H585 H 0.48135 0.25771 0.45498 0.0
C586 C 0.43965 0.26949 0.44128 0.0
C587 C 0.41655 0.27279 0.43311 0.0
C588 C 0.43828 0.24136 0.44129 0.0
C589 C 0.39123 0.24726 0.4257 0.0
C590 C 0.38956 0.21902 0.42579 0.0
C591 C 0.41293 0.18825 0.43222 0.0
C592 C 0.43751 0.1859 0.43892 0.0
C593 C 0.41326 0.21594 0.43323 0.0
C594 C 0.46174 0.21104 0.44744 0.0
C595 C 0.46208 0.2385 0.44867 0.0
H596 H 0.88805 0.24882 0.41828 0.0
H597 H 0.84633 0.29944 0.4375 0.0
H598 H 0.79693 0.25336 0.43777 0.0
H599 H 0.76537 0.19902 0.43199 0.0
H600 H 0.80648 0.14794 0.41267 0.0
H601 H 0.85634 0.19384 0.41305 0.0
C602 C 0.86814 0.24969 0.42258 0.0
C603 C 0.87083 0.27748 0.42783 0.0
C604 C 0.83971 0.22308 0.42267 0.0
C605 C 0.84486 0.27832 0.43338 0.0
C606 C 0.81659 0.25199 0.43353 0.0
C607 C 0.78525 0.19791 0.42791 0.0
C608 C 0.78227 0.17019 0.42228 0.0
C609 C 0.81373 0.22431 0.42812 0.0
C610 C 0.80822 0.16907 0.41706 0.0
C611 C 0.83671 0.19529 0.41726 0.0
H612 H 0.00917 0.47343 0.24631 0.0
H613 H 0.91488 0.41911 0.23148 0.0
H614 H 0.91008 0.46432 0.23036 0.0
H615 H 0.93196 0.5189 0.23459 0.0
H616 H 0.02598 0.57377 0.2497 0.0
H617 H 0.03163 0.52881 0.24963 0.0
C618 C 0.98765 0.47157 0.24275 0.0
C619 C 0.96242 0.44297 0.23905 0.0
C620 C 0.98496 0.49772 0.24221 0.0
C621 C 0.93466 0.44086 0.23444 0.0
C622 C 0.93185 0.4667 0.2338 0.0
C623 C 0.95373 0.52106 0.23778 0.0
C624 C 0.97847 0.54956 0.2422 0.0
C625 C 0.95676 0.49518 0.23782 0.0
C626 C 0.00656 0.55203 0.24627 0.0
C627 C 0.0098 0.52633 0.24626 0.0
H628 H 0.58713 0.54922 0.2487 0.0
H629 H 0.631 0.50207 0.22715 0.0
H630 H 0.58245 0.45499 0.22593 0.0
H631 H 0.52795 0.42687 0.23185 0.0
H632 H 0.48366 0.47345 0.25358 0.0
H633 H 0.53197 0.52116 0.25381 0.0
C634 C 0.586 0.52866 0.24366 0.0
C635 C 0.61259 0.52909 0.23807 0.0
C636 C 0.55799 0.50159 0.24307 0.0
C637 C 0.61084 0.50231 0.23155 0.0
C638 C 0.5831 0.47537 0.23087 0.0
C639 C 0.52883 0.44749 0.23658 0.0
C640 C 0.50234 0.44666 0.24275 0.0
C641 C 0.55661 0.4747 0.23673 0.0
C642 C 0.5038 0.47354 0.24878 0.0
C643 C 0.5314 0.5008 0.24893 0.0
H644 H 0.53857 0.14399 0.23315 0.0
H645 H 0.48893 0.05462 0.25678 0.0
H646 H 0.53404 0.04934 0.25484 0.0
H647 H 0.58802 0.07089 0.24709 0.0
H648 H 0.63698 0.16032 0.22333 0.0
H649 H 0.59154 0.16469 0.22452 0.0
C650 C 0.53761 0.12335 0.23789 0.0
C651 C 0.5106 0.09981 0.2452 0.0
C652 C 0.56345 0.12046 0.23665 0.0
C653 C 0.50957 0.07309 0.25114 0.0
C654 C 0.53531 0.07006 0.25002 0.0
C655 C 0.58863 0.09122 0.24205 0.0
C656 C 0.61579 0.11527 0.23518 0.0
C657 C 0.56242 0.09368 0.24287 0.0
C658 C 0.61633 0.14149 0.22871 0.0
C659 C 0.59039 0.14407 0.22942 0.0
H660 H 0.46895 0.98897 0.74969 0.0
H661 H 0.42071 0.89846 0.77193 0.0
H662 H 0.46706 0.89554 0.77141 0.0
H663 H 0.5212 0.91851 0.76449 0.0
H664 H 0.56957 0.00889 0.7421 0.0
H665 H 0.52326 0.012 0.74276 0.0
C666 C 0.46864 0.96866 0.75447 0.0
C667 C 0.44147 0.944 0.76086 0.0
C668 C 0.49535 0.96706 0.75404 0.0
C669 C 0.44135 0.91778 0.76696 0.0
C670 C 0.46783 0.91606 0.76664 0.0
C671 C 0.52159 0.93887 0.75972 0.0
C672 C 0.54873 0.96341 0.75324 0.0
C673 C 0.49493 0.94052 0.76017 0.0
C674 C 0.54892 0.98966 0.74714 0.0
C675 C 0.52247 0.99148 0.74753 0.0
H676 H 0.05713 0.50853 0.75406 0.0
H677 H 0.15267 0.5545 0.76665 0.0
H678 H 0.1544 0.60316 0.76648 0.0
H679 H 0.12931 0.6328 0.76214 0.0
H680 H 0.034 0.58774 0.74922 0.0
H681 H 0.03162 0.53853 0.75018 0.0
C682 C 0.07826 0.52921 0.75683 0.0
C683 C 0.10473 0.52793 0.76033 0.0
C684 C 0.07917 0.55724 0.75662 0.0
C685 C 0.13198 0.55487 0.76388 0.0
C686 C 0.13302 0.58273 0.76378 0.0
C687 C 0.10797 0.61222 0.75959 0.0
C688 C 0.08189 0.61387 0.75559 0.0
C689 C 0.10683 0.58418 0.76007 0.0
C690 C 0.05441 0.58702 0.75232 0.0
C691 C 0.05304 0.55891 0.75285 0.0
H692 H 0.42601 0.53718 0.76762 0.0
H693 H 0.46866 0.48248 0.764 0.0
H694 H 0.51858 0.52826 0.76325 0.0
H695 H 0.5499 0.58389 0.76224 0.0
H696 H 0.50674 0.63823 0.76513 0.0
H697 H 0.4572 0.5925 0.76747 0.0
C698 C 0.44624 0.53527 0.76686 0.0
C699 C 0.44369 0.50654 0.76587 0.0
C700 C 0.47475 0.56161 0.76613 0.0
C701 C 0.47007 0.50439 0.76478 0.0
C702 C 0.4986 0.53053 0.76429 0.0
C703 C 0.52964 0.58568 0.76343 0.0
C704 C 0.53195 0.61436 0.76344 0.0
C705 C 0.50118 0.55927 0.76471 0.0
C706 C 0.50555 0.61639 0.76503 0.0
C707 C 0.47721 0.59027 0.7664 0.0
H708 H 0.58704 0.76997 0.57309 0.0
H709 H 0.68353 0.80745 0.57884 0.0
H710 H 0.69114 0.85875 0.57782 0.0
H711 H 0.67012 0.89288 0.57628 0.0
H712 H 0.57353 0.85507 0.57072 0.0
H713 H 0.56624 0.80396 0.5706 0.0
C714 C 0.60974 0.78937 0.57405 0.0
C715 C 0.63466 0.78498 0.57611 0.0
C716 C 0.61393 0.81872 0.57351 0.0
C717 C 0.66396 0.81029 0.57728 0.0
C718 C 0.66833 0.83961 0.57671 0.0
C719 C 0.64752 0.87344 0.57495 0.0
C720 C 0.62241 0.8777 0.57357 0.0
C721 C 0.64345 0.84409 0.57497 0.0
C722 C 0.59323 0.85235 0.57184 0.0
C723 C 0.58902 0.82312 0.57178 0.0
H724 H 0.208 0.76643 0.55889 0.0
H725 H 0.15553 0.80591 0.57843 0.0
H726 H 0.20119 0.85579 0.57964 0.0
H727 H 0.25636 0.88766 0.57655 0.0
H728 H 0.30879 0.84796 0.55729 0.0
H729 H 0.26275 0.79872 0.55444 0.0
C730 C 0.20655 0.78599 0.56332 0.0
C731 C 0.17852 0.7825 0.56867 0.0
C732 C 0.23286 0.81453 0.56405 0.0
C733 C 0.17691 0.80803 0.57429 0.0
C734 C 0.20299 0.83654 0.57501 0.0
C735 C 0.25766 0.86828 0.57159 0.0
C736 C 0.28591 0.87138 0.56722 0.0
C737 C 0.23114 0.83998 0.57012 0.0
C738 C 0.28728 0.84611 0.56078 0.0
C739 C 0.26099 0.81794 0.55918 0.0
H740 H 0.24933 0.39612 0.5855 0.0
H741 H 0.30215 0.48937 0.5681 0.0
H742 H 0.25656 0.49335 0.56664 0.0
H743 H 0.20205 0.47076 0.57038 0.0
H744 H 0.14841 0.37789 0.58812 0.0
H745 H 0.19399 0.3733 0.58934 0.0
C746 C 0.25077 0.41726 0.58138 0.0
C747 C 0.27902 0.44239 0.5769 0.0
C748 C 0.2244 0.41946 0.58061 0.0
C749 C 0.28065 0.46968 0.57161 0.0
C750 C 0.25461 0.47201 0.57076 0.0
C751 C 0.20028 0.44946 0.57448 0.0
C752 C 0.17198 0.42469 0.57913 0.0
C753 C 0.22643 0.44708 0.57524 0.0
C754 C 0.17003 0.39729 0.58448 0.0
C755 C 0.19605 0.39466 0.58518 0.0
H756 H 0.05239 0.32173 0.15158 0.0
H757 H 0.00367 0.35416 0.11922 0.0
H758 H 0.9919 0.37346 0.14669 0.0
H759 H 0.9909 0.37619 0.18007 0.0
H760 H 0.03855 0.34277 0.21259 0.0
H761 H 0.05568 0.32913 0.18484 0.0
C762 C 0.03956 0.33341 0.15051 0.0
C763 C 0.02863 0.33623 0.13341 0.0
C764 C 0.03256 0.34409 0.16639 0.0
C765 C 0.01224 0.3516 0.13222 0.0
C766 C 0.00541 0.36253 0.14794 0.0
C767 C 0.00541 0.36632 0.18109 0.0
C768 C 0.01319 0.36019 0.19836 0.0
C769 C 0.01476 0.35816 0.16512 0.0
C770 C 0.03218 0.34764 0.19946 0.0
C771 C 0.04185 0.3397 0.1836 0.0
H772 H 0.73172 0.74531 0.15763 0.0
H773 H 0.69525 0.66755 0.12194 0.0
H774 H 0.68007 0.63381 0.14834 0.0
H775 H 0.68205 0.62682 0.1813 0.0
H776 H 0.71999 0.70457 0.21701 0.0
H777 H 0.72957 0.73797 0.19083 0.0
C778 C 0.71999 0.72095 0.15563 0.0
C779 C 0.71482 0.70893 0.13786 0.0
C780 C 0.71192 0.70175 0.17086 0.0
C781 C 0.69956 0.67735 0.13548 0.0
C782 C 0.69101 0.65806 0.15057 0.0
C783 C 0.69212 0.65105 0.18338 0.0
C784 C 0.70063 0.66328 0.20103 0.0
C785 C 0.69787 0.67007 0.16828 0.0
C786 C 0.71339 0.69465 0.20355 0.0
C787 C 0.71893 0.71374 0.18858 0.0
H788 H 0.36696 0.04979 0.13449 0.0
H789 H 0.27838 0.0082 0.15927 0.0
H790 H 0.30123 0.01978 0.18956 0.0
H791 H 0.34657 0.04569 0.20903 0.0
H792 H 0.43506 0.08796 0.18406 0.0
H793 H 0.41213 0.07197 0.15401 0.0
C794 C 0.35268 0.04291 0.14652 0.0
C795 C 0.32108 0.02841 0.14462 0.0
C796 C 0.36597 0.04995 0.16394 0.0
C797 C 0.30283 0.01956 0.16035 0.0
C798 C 0.31586 0.02623 0.17771 0.0
C799 C 0.36078 0.05101 0.19703 0.0
C800 C 0.39242 0.06821 0.19878 0.0
C801 C 0.34743 0.04202 0.17967 0.0
C802 C 0.41059 0.07492 0.18309 0.0
C803 C 0.39752 0.06582 0.16586 0.0
H804 H 0.32119 0.03655 0.85088 0.0
H805 H 0.36094 0.99586 0.88432 0.0
H806 H 0.3779 0.98112 0.85688 0.0
H807 H 0.37679 0.97545 0.82341 0.0
H808 H 0.33634 0.01584 0.79027 0.0
H809 H 0.32448 0.03527 0.81761 0.0
C810 C 0.33392 0.02479 0.85219 0.0
C811 C 0.33954 0.01701 0.86959 0.0
C812 C 0.34325 0.01616 0.83641 0.0
C813 C 0.35631 0.00207 0.87107 0.0
C814 C 0.36585 0.9935 0.85539 0.0
C815 C 0.36574 0.98885 0.82217 0.0
C816 C 0.35717 0.99394 0.80484 0.0
C817 C 0.35875 -0.00025 0.83799 0.0
C818 C 0.34306 0.0115 0.80344 0.0
C819 C 0.33618 0.02254 0.81907 0.0
H820 H 0.04639 0.35649 0.79575 0.0
H821 H 0.07465 0.44263 0.82163 0.0
H822 H 0.05943 0.41786 0.85133 0.0
H823 H 0.0426 0.37235 0.87034 0.0
H824 H 0.01626 0.28662 0.84442 0.0
H825 H 0.02596 0.31047 0.81448 0.0
C826 C 0.04875 0.36974 0.80785 0.0
C827 C 0.0618 0.40133 0.80651 0.0
C828 C 0.04054 0.35544 0.82496 0.0
C829 C 0.0648 0.41825 0.82232 0.0
C830 C 0.05618 0.40413 0.83933 0.0
C831 C 0.0386 0.35886 0.85812 0.0
C832 C 0.02899 0.32785 0.85961 0.0
C833 C 0.04472 0.37283 0.84089 0.0
C834 C 0.0239 0.31062 0.84365 0.0
C835 C 0.02945 0.32423 0.8265 0.0
H836 H 0.6295 0.68452 0.82371 0.0
H837 H 0.70966 0.71729 0.79038 0.0
H838 H 0.74092 0.7291 0.81774 0.0
H839 H 0.74594 0.73432 0.8509 0.0
H840 H 0.66627 0.70286 0.88448 0.0
H841 H 0.63421 0.68584 0.85721 0.0
C842 C 0.65378 0.69393 0.82244 0.0
C843 C 0.66731 0.70031 0.80505 0.0
C844 C 0.67165 0.70096 0.83824 0.0
C845 C 0.69873 0.71232 0.80361 0.0
C846 C 0.71662 0.71913 0.81924 0.0
C847 C 0.72151 0.72338 0.8523 0.0
C848 C 0.70848 0.72009 0.86966 0.0
C849 C 0.70339 0.71417 0.8366 0.0
C850 C 0.67683 0.70567 0.87126 0.0
C851 C 0.65853 0.69611 0.85566 0.0
H852 H 0.00594 0.7388 0.84706 0.0
H853 H 0.05408 0.70351 0.87746 0.0
H854 H 0.06522 0.68557 0.84918 0.0
H855 H 0.0657 0.68467 0.81577 0.0
H856 H 0.01894 0.72128 0.78521 0.0
H857 H 0.00245 0.73365 0.81369 0.0
C858 C 0.01853 0.72682 0.84752 0.0
C859 C 0.02947 0.72275 0.8643 0.0
C860 C 0.02522 0.717 0.8312 0.0
C861 C 0.04554 0.70702 0.86471 0.0
C862 C 0.052 0.69686 0.84854 0.0
C863 C 0.05156 0.69501 0.81532 0.0
C864 C 0.04381 0.70237 0.79842 0.0
C865 C 0.04263 0.70245 0.83169 0.0
C866 C 0.02528 0.7155 0.79805 0.0
C867 C 0.01598 0.72268 0.81432 0.0
H868 H 0.37236 0.41163 0.82094 0.0
H869 H 0.32712 0.33263 0.78651 0.0
H870 H 0.31282 0.29975 0.81338 0.0
H871 H 0.30876 0.29401 0.84679 0.0
H872 H 0.35444 0.37326 0.88104 0.0
H873 H 0.37331 0.40559 0.85406 0.0
C874 C 0.3597 0.38719 0.81932 0.0
C875 C 0.35043 0.37451 0.80185 0.0
C876 C 0.35151 0.36856 0.83477 0.0
C877 C 0.33443 0.34286 0.79985 0.0
C878 C 0.32612 0.3241 0.81521 0.0
C879 C 0.32319 0.31833 0.84832 0.0
C880 C 0.3299 0.33132 0.86585 0.0
C881 C 0.33385 0.33676 0.83275 0.0
C882 C 0.34888 0.36277 0.86769 0.0
C883 C 0.35956 0.38127 0.85227 0.0
H884 H 0.75369 0.04763 0.84696 0.0
H885 H 0.67124 0.00687 0.87855 0.0
H886 H 0.64136 0.99533 0.85053 0.0
H887 H 0.63876 0.99133 0.81709 0.0
H888 H 0.72139 0.03106 0.78563 0.0
H889 H 0.7512 0.0489 0.81363 0.0
C890 C 0.72919 0.03662 0.84772 0.0
C891 C 0.71462 0.02771 0.86474 0.0
C892 C 0.71224 0.02971 0.8316 0.0
C893 C 0.68293 0.01382 0.86558 0.0
C894 C 0.66586 0.00709 0.84957 0.0
C895 C 0.66329 0.00433 0.81635 0.0
C896 C 0.67789 0.00953 0.79936 0.0
C897 C 0.68026 0.01409 0.8325 0.0
C898 C 0.70964 0.02662 0.79857 0.0
C899 C 0.7267 0.03671 0.81457 0.0
H900 H 0.73583 0.01589 0.1531 0.0
H901 H 0.69612 0.05411 0.11755 0.0
H902 H 0.67686 0.06845 0.14404 0.0
H903 H 0.67718 0.07586 0.17715 0.0
H904 H 0.71842 0.03907 0.21261 0.0
H905 H 0.73092 0.01802 0.18624 0.0
C906 C 0.72254 0.02693 0.15114 0.0
C907 C 0.71775 0.03435 0.13344 0.0
C908 C 0.71207 0.03555 0.16639 0.0
C909 C 0.70021 0.04831 0.13106 0.0
C910 C 0.68935 0.05664 0.1462 0.0
C911 C 0.68847 0.06281 0.17913 0.0
C912 C 0.69727 0.05937 0.19675 0.0
C913 C 0.69603 0.05127 0.16391 0.0
C914 C 0.71158 0.04216 0.19916 0.0
C915 C 0.71885 0.03025 0.18409 0.0
H916 H 0.04561 0.75022 0.1526 0.0
H917 H -0.00086 0.66809 0.12088 0.0
H918 H 0.98933 0.6378 0.14862 0.0
H919 H 0.98875 0.63498 0.18212 0.0
H920 H 0.03472 0.71724 0.2138 0.0
H921 H 0.0503 0.74728 0.18576 0.0
C922 C 0.03374 0.72567 0.15172 0.0
C923 C 0.02274 0.71135 0.13478 0.0
C924 C 0.02791 0.70851 0.16771 0.0
C925 C 0.00774 0.6796 0.13378 0.0
C926 C 0.00199 0.6623 0.14964 0.0
C927 C 0.00256 0.65948 0.18287 0.0
C928 C 0.01024 0.67395 0.19999 0.0
C929 C 0.01115 0.67655 0.16672 0.0
C930 C 0.02843 0.70562 0.20078 0.0
C931 C 0.03721 0.72278 0.18476 0.0
H932 H 0.29963 0.32116 0.15026 0.0
H933 H 0.38366 0.36525 0.12021 0.0
H934 H 0.41183 0.38502 0.14865 0.0
H935 H 0.41285 0.38423 0.18207 0.0
H936 H 0.32899 0.3389 0.21221 0.0
H937 H 0.30035 0.32551 0.18364 0.0
C938 C 0.32408 0.33551 0.14991 0.0
C939 C 0.33962 0.34141 0.1332 0.0
C940 C 0.34011 0.34636 0.16631 0.0
C941 C 0.37123 0.36026 0.13292 0.0
C942 C 0.38733 0.37146 0.14917 0.0
C943 C 0.38828 0.37184 0.1824 0.0
C944 C 0.37302 0.36218 0.19918 0.0
C945 C 0.37207 0.36381 0.16596 0.0
C946 C 0.34123 0.34647 0.19944 0.0
C947 C 0.32487 0.33867 0.18312 0.0
H948 H 0.68568 0.681 0.53795 0.0
H949 H 0.62694 0.71176 0.51639 0.0
H950 H 0.63912 0.70445 0.48535 0.0
H951 H 0.66219 0.68422 0.46433 0.0
H952 H 0.71889 0.65101 0.48587 0.0
H953 H 0.71223 0.66475 0.5167 0.0
C954 C 0.67596 0.68651 0.52644 0.0
C955 C 0.65523 0.69657 0.52947 0.0
C956 C 0.68258 0.68168 0.50855 0.0
C957 C 0.64274 0.70364 0.51442 0.0
C958 C 0.64968 0.69949 0.49664 0.0
C959 C 0.67356 0.6806 0.47574 0.0
C960 C 0.69081 0.66648 0.47286 0.0
C961 C 0.66896 0.68778 0.49353 0.0
C962 C 0.70529 0.6617 0.48778 0.0
C963 C 0.70143 0.66945 0.50543 0.0
H964 H 0.40708 0.087 0.49025 0.0
H965 H 0.37873 0.00941 0.45516 0.0
H966 H 0.35947 0.97568 0.4816 0.0
H967 H 0.35579 0.96891 0.51484 0.0
H968 H 0.38454 0.04649 0.55 0.0
H969 H 0.39825 0.07966 0.5233 0.0
C970 C 0.39632 0.06267 0.48836 0.0
C971 C 0.39465 0.05069 0.47081 0.0
C972 C 0.38557 0.04351 0.50362 0.0
C973 C 0.38036 0.01915 0.46853 0.0
C974 C 0.36948 -0.00011 0.48365 0.0
C975 C 0.36467 0.99304 0.51666 0.0
C976 C 0.36951 0.00534 0.53436 0.0
C977 C 0.37274 0.01191 0.50129 0.0
C978 C 0.38068 0.03654 0.53651 0.0
C979 C 0.38866 0.0555 0.52126 0.0
H980 H 0.96497 0.3411 0.48851 0.0
H981 H 0.04612 0.3751 0.45601 0.0
H982 H 0.07683 0.38889 0.48379 0.0
H983 H 0.08085 0.39693 0.51694 0.0
H984 H -0.00024 0.36492 0.54928 0.0
H985 H 0.96868 0.34439 0.52187 0.0
C986 C 0.98935 0.35106 0.48749 0.0
C987 C 0.00331 0.35738 0.47022 0.0
C988 C 0.00683 0.35954 0.50347 0.0
C989 C 0.03486 0.37008 0.46913 0.0
C990 C 0.05242 0.37812 0.48501 0.0
C991 C 0.05635 0.38506 0.51804 0.0
C992 C 0.0426 0.38275 0.53509 0.0
C993 C 0.0387 0.37385 0.5022 0.0
C994 C 0.01086 0.36712 0.53631 0.0
C995 C 0.99311 0.35548 0.52064 0.0
H996 H 0.3457 0.41156 0.51499 0.0
H997 H 0.38251 0.36809 0.54857 0.0
H998 H 0.39382 0.34788 0.52138 0.0
H999 H 0.39786 0.34685 0.48825 0.0
H1000 H 0.36291 0.39163 0.45435 0.0
H1001 H 0.34576 0.4067 0.48156 0.0
C1002 C 0.35585 0.39734 0.51635 0.0
C1003 C 0.36358 0.39157 0.53373 0.0
C1004 C 0.3627 0.38618 0.50065 0.0
C1005 C 0.37655 0.373 0.53533 0.0
C1006 C 0.38306 0.36149 0.5198 0.0
C1007 C 0.38614 0.35959 0.48678 0.0
C1008 C 0.38193 0.36843 0.46936 0.0
C1009 C 0.37694 0.36859 0.50241 0.0
C1010 C 0.36646 0.38464 0.46764 0.0
C1011 C 0.35681 0.39338 0.48319 0.0
H1012 H 0.6533 0.96928 0.51328 0.0
H1013 H 0.70441 0.05264 0.54337 0.0
H1014 H 0.72263 0.08081 0.51479 0.0
H1015 H 0.71926 0.0823 0.48148 0.0
H1016 H 0.66777 -0.00091 0.45132 0.0
H1017 H 0.65482 0.97011 0.47976 0.0
C1018 C 0.66874 0.99357 0.51357 0.0
C1019 C 0.67718 0.00899 0.53035 0.0
C1020 C 0.67892 0.00957 0.49711 0.0
C1021 C 0.69749 0.04034 0.53059 0.0
C1022 C 0.70782 0.05645 0.51427 0.0
C1023 C 0.70559 0.05776 0.48111 0.0
C1024 C 0.69412 0.04282 0.46439 0.0
C1025 C 0.69797 0.04139 0.49748 0.0
C1026 C 0.67677 0.01106 0.46405 0.0
C1027 C 0.66922 0.99453 0.48031 0.0
H1028 H 0.02659 0.67947 0.46014 0.0
H1029 H 0.94067 0.64041 0.48804 0.0
H1030 H 0.96656 0.65838 0.51722 0.0
H1031 H 0.01359 0.67919 0.53518 0.0
H1032 H 0.09933 0.71666 0.50718 0.0
H1033 H 0.07365 0.70576 0.47781 0.0
C1034 C 0.01356 0.67545 0.47256 0.0
C1035 C 0.98183 0.65831 0.47196 0.0
C1036 C 0.02859 0.68532 0.48936 0.0
C1037 C 0.9652 0.65334 0.48816 0.0
C1038 C 0.97997 0.66353 0.50488 0.0
C1039 C 0.02663 0.68552 0.52264 0.0
C1040 C 0.05821 0.69829 0.52335 0.0
C1041 C 0.01166 0.67863 0.50572 0.0
C1042 C 0.07489 0.70645 0.507 0.0
C1043 C 0.06025 0.70019 0.49017 0.0
H1044 H 0.04193 0.33497 0.0289 0.0
H1045 H 0.98636 0.23762 0.03311 0.0
H1046 H 0.98063 0.23347 1.00021 0.0
H1047 H 0.99444 0.25638 0.97025 0.0
H1048 H 0.05014 0.35324 0.9646 0.0
H1049 H 0.05251 0.3588 0.998 0.0
C1050 C 0.02829 0.31296 0.02257 0.0
C1051 C 0.0149 0.28661 0.03345 0.0
C1052 C 0.02525 0.31061 0.00341 0.0
C1053 C 0.99722 0.25823 0.02508 0.0
C1054 C 0.99388 0.25578 0.00624 0.0
C1055 C 0.00694 0.27879 0.97629 0.0
C1056 C 0.0224 0.30432 0.96504 0.0
C1057 C 0.00833 0.28167 0.99529 0.0
C1058 C 0.03808 0.33323 0.97304 0.0
C1059 C 0.03954 0.33635 0.99211 0.0
H1060 H 0.71842 0.73294 0.97446 0.0
H1061 H 0.81308 0.80087 0.97012 0.0
H1062 H 0.81774 0.8037 0.00307 0.0
H1063 H 0.79546 0.78799 0.03306 0.0
H1064 H 0.70084 0.72134 0.03878 0.0
H1065 H 0.6956 0.71694 0.00544 0.0
C1066 C 0.74001 0.74822 0.98079 0.0
C1067 C 0.76533 0.7667 0.96982 0.0
C1068 C 0.74256 0.75008 0.99998 0.0
C1069 C 0.79317 0.78652 0.97819 0.0
C1070 C 0.79592 0.78817 0.99708 0.0
C1071 C 0.77363 0.77241 0.02707 0.0
C1072 C 0.7486 0.75501 0.03837 0.0
C1073 C 0.77081 0.77023 0.00807 0.0
C1074 C 0.72048 0.73503 0.03035 0.0
C1075 C 0.7175 0.7325 0.0113 0.0
H1076 H 0.32817 0.01625 0.9765 0.0
H1077 H 0.27103 0.05572 0.96941 0.0
H1078 H 0.26828 0.06036 0.00218 0.0
H1079 H 0.27882 0.05039 0.03273 0.0
H1080 H 0.33418 0.00949 0.04137 0.0
H1081 H 0.34119 0.00849 0.00823 0.0
C1082 C 0.31545 0.02614 0.98221 0.0
C1083 C 0.2996 0.03537 0.97053 0.0
C1084 C 0.31349 0.02834 0.00132 0.0
C1085 C 0.28314 0.0481 0.97807 0.0
C1086 C 0.28156 0.05083 0.99684 0.0
C1087 C 0.29262 0.04139 0.02743 0.0
C1088 C 0.30575 0.02981 0.03948 0.0
C1089 C 0.29611 0.04052 0.00856 0.0
C1090 C 0.32378 0.01852 0.03236 0.0
C1091 C 0.32768 0.01785 0.01342 0.0
H1092 H 0.03867 0.80017 0.97215 0.0
H1093 H 0.01234 0.70622 0.96457 0.0
H1094 H 0.01086 0.69926 0.9978 0.0
H1095 H 0.01566 0.72015 0.02923 0.0
H1096 H 0.04047 0.81411 0.03537 0.0
H1097 H 0.0441 0.82077 0.00253 0.0
C1098 C 0.03268 0.77812 0.9777 0.0
C1099 C 0.02557 0.75375 0.96592 0.0
C1100 C 0.0316 0.77431 0.99663 0.0
C1101 C 0.01787 0.72536 0.97338 0.0
C1102 C 0.01702 0.7214 0.99237 0.0
C1103 C 0.02205 0.74205 0.02331 0.0
C1104 C 0.02765 0.76655 0.03473 0.0
C1105 C 0.02367 0.74572 0.00417 0.0
C1106 C 0.03578 0.7948 0.0269 0.0
C1107 C 0.03792 0.7987 0.0081 0.0
H1108 H 0.30366 0.33513 0.02793 0.0
H1109 H 0.33888 0.27408 0.03312 0.0
H1110 H 0.34153 0.27136 1.00002 0.0
H1111 H 0.32817 0.28141 0.96976 0.0
H1112 H 0.29107 0.34082 0.96436 0.0
H1113 H 0.29514 0.34937 0.9973 0.0
C1114 C 0.31248 0.32174 0.0218 0.0
C1115 C 0.32079 0.30462 0.03294 0.0
C1116 C 0.3133 0.31971 0.0027 0.0
C1117 C 0.33213 0.28731 0.02483 0.0
C1118 C 0.33357 0.28565 0.00589 0.0
C1119 C 0.32142 0.2966 0.97576 0.0
C1120 C 0.30903 0.31019 0.96468 0.0
C1121 C 0.32331 0.30098 0.99471 0.0
C1122 C 0.30053 0.32995 0.97262 0.0
C1123 C 0.30276 0.33478 0.99147 0.0
H1124 H 0.79831 0.03684 0.97089 0.0
H1125 H 0.7119 0.03241 0.96591 0.0
H1126 H 0.70808 0.03324 0.9993 0.0
H1127 H 0.72915 0.03362 0.03002 0.0
H1128 H 0.81609 0.03849 0.03367 0.0
H1129 H 0.81979 0.03911 1.00068 0.0
C1130 C 0.7786 0.0361 0.97706 0.0
C1131 C 0.75533 0.03435 0.96599 0.0
C1132 C 0.77664 0.0366 0.99606 0.0
C1133 C 0.73011 0.03373 0.9742 0.0
C1134 C 0.72791 0.03413 0.99326 0.0
C1135 C 0.74888 0.03492 0.02354 0.0
C1136 C 0.7722 0.03583 0.03432 0.0
C1137 C 0.75099 0.03531 0.00436 0.0
C1138 C 0.79773 0.03764 0.02575 0.0
C1139 C 0.79993 0.03799 0.00685 0.0
H1140 H 0.69152 0.65353 0.30214 0.0
H1141 H 0.69931 0.57287 0.30338 0.0
H1142 H 0.69645 0.57178 0.33638 0.0
H1143 H 0.6913 0.59267 0.36473 0.0
H1144 H 0.68458 0.67376 0.36525 0.0
H1145 H 0.68748 0.67579 0.3317 0.0
C1146 C 0.69263 0.63582 0.30969 0.0
C1147 C 0.69553 0.61326 0.30026 0.0
C1148 C 0.6911 0.63532 0.32893 0.0
C1149 C 0.69705 0.59049 0.31022 0.0
C1150 C 0.69539 0.58978 0.32913 0.0
C1151 C 0.69035 0.61084 0.35758 0.0
C1152 C 0.68747 0.6329 0.36745 0.0
C1153 C 0.69229 0.61193 0.33858 0.0
C1154 C 0.6867 0.65644 0.35793 0.0
C1155 C 0.68835 0.65757 0.33878 0.0
H1156 H 0.4011 0.06554 0.36744 0.0
H1157 H 0.47043 0.15978 0.37163 0.0
H1158 H 0.47005 0.16541 0.33881 0.0
H1159 H 0.45224 0.14378 0.30891 0.0
H1160 H 0.38428 0.04955 0.30315 0.0
H1161 H 0.38171 0.04375 0.33651 0.0
C1162 C 0.41592 0.08728 0.36111 0.0
C1163 C 0.43591 0.11214 0.372 0.0
C1164 C 0.41592 0.09039 0.34196 0.0
C1165 C 0.45503 0.14019 0.36362 0.0
C1166 C 0.45482 0.14351 0.34481 0.0
C1167 C 0.43668 0.12192 0.31488 0.0
C1168 C 0.41857 0.09711 0.30356 0.0
C1169 C 0.4357 0.11875 0.33386 0.0
C1170 C 0.39848 0.06904 0.31159 0.0
C1171 C 0.39709 0.06572 0.33065 0.0
H1172 H 0.99721 0.35563 0.36479 0.0
H1173 H 0.92495 0.37656 0.3676 0.0
H1174 H 0.9245 0.38005 0.33467 0.0
H1175 H 0.94297 0.37583 0.30503 0.0
H1176 H 0.01549 0.35581 0.30073 0.0
H1177 H 0.01767 0.35352 0.33417 0.0
C1178 C 0.98148 0.36101 0.35814 0.0
C1179 C 0.96102 0.36561 0.36872 0.0
C1180 C 0.98134 0.36315 0.33893 0.0
C1181 C 0.94087 0.37276 0.35989 0.0
C1182 C 0.94055 0.37479 0.341 0.0
C1183 C 0.95936 0.37103 0.31137 0.0
C1184 C 0.97888 0.36579 0.30044 0.0
C1185 C 0.96044 0.36981 0.3304 0.0
C1186 C 0.00021 0.35995 0.30888 0.0
C1187 C 0.00136 0.35854 0.32799 0.0
H1188 H 0.69288 0.12631 0.35976 0.0
H1189 H 0.69702 0.0438 0.36088 0.0
H1190 H 0.69702 0.04281 0.32735 0.0
H1191 H 0.69638 0.0663 0.29766 0.0
H1192 H 0.69348 0.14963 0.29796 0.0
H1193 H 0.69238 0.14929 0.33104 0.0
C1194 C 0.69372 0.10799 0.35274 0.0
C1195 C 0.69491 0.08514 0.36276 0.0
C1196 C 0.69395 0.10776 0.33369 0.0
C1197 C 0.69609 0.06167 0.35342 0.0
C1198 C 0.69609 0.06112 0.33428 0.0
C1199 C 0.69544 0.08428 0.30503 0.0
C1200 C 0.69506 0.10798 0.29536 0.0
C1201 C 0.69509 0.08415 0.32425 0.0
C1202 C 0.69394 0.1312 0.30504 0.0
C1203 C 0.69327 0.13104 0.32398 0.0
H1204 H 0.98386 0.65861 0.36762 0.0
H1205 H 0.92737 0.56107 0.36831 0.0
H1206 H 0.93126 0.55934 0.33544 0.0
H1207 H 0.94806 0.58497 0.30639 0.0
H1208 H 0.0047 0.68216 0.30424 0.0
H1209 H 0.0037 0.68459 0.33773 0.0
C1210 C 0.97264 0.63704 0.36054 0.0
C1211 C 0.95512 0.61006 0.37045 0.0
C1212 C 0.9749 0.6361 0.34138 0.0
C1213 C 0.94081 0.58223 0.36109 0.0
C1214 C 0.943 0.58115 0.34224 0.0
C1215 C 0.96034 0.60675 0.31322 0.0
C1216 C 0.97617 0.63336 0.30289 0.0
C1217 C 0.95956 0.60789 0.33226 0.0
C1218 C 0.99231 0.66133 0.31194 0.0
C1219 C 0.99162 0.66271 0.33106 0.0
H1220 H 0.38994 0.36919 0.3659 0.0
H1221 H 0.45639 0.34023 0.36797 0.0
H1222 H 0.45708 0.33817 0.33495 0.0
H1223 H 0.44064 0.34604 0.3056 0.0
H1224 H 0.37536 0.37615 0.30203 0.0
H1225 H 0.37226 0.37621 0.3355 0.0
C1226 C 0.40438 0.36229 0.35906 0.0
C1227 C 0.42319 0.35504 0.36939 0.0
C1228 C 0.40498 0.36145 0.33984 0.0
C1229 C 0.44186 0.34618 0.36038 0.0
C1230 C 0.44228 0.34493 0.34146 0.0
C1231 C 0.42561 0.35257 0.31207 0.0
C1232 C 0.40835 0.36119 0.30137 0.0
C1233 C 0.42422 0.3528 0.33109 0.0
C1234 C 0.38892 0.36944 0.31001 0.0
C1235 C 0.3872 0.36951 0.32912 0.0
H1236 H 0.33946 0.91399 0.69748 0.0
H1237 H 0.37854 0.01039 0.70482 0.0
H1238 H 0.37988 0.01726 0.6716 0.0
H1239 H 0.37208 0.99553 0.64022 0.0
H1240 H 0.33436 0.89893 0.63421 0.0
H1241 H 0.33017 0.89252 0.66709 0.0
C1242 C 0.34817 0.93655 0.69187 0.0
C1243 C 0.35902 0.96164 0.7036 0.0
C1244 C 0.34913 0.94028 0.67292 0.0
C1245 C 0.37011 0.99068 0.69606 0.0
C1246 C 0.3709 0.99461 0.67707 0.0
C1247 C 0.36266 0.97313 0.64618 0.0
C1248 C 0.35368 0.94777 0.63479 0.0
C1249 C 0.36076 0.96955 0.66532 0.0
C1250 C 0.34167 0.91885 0.64266 0.0
C1251 C 0.33924 0.91511 0.66148 0.0
H1252 H 0.11309 0.47651 0.69688 0.0
H1253 H 0.05252 0.38095 0.70513 0.0
H1254 H 0.04525 0.3735 0.67196 0.0
H1255 H 0.05903 0.39441 0.64037 0.0
H1256 H 0.11933 0.49068 0.63358 0.0
H1257 H 0.12356 0.49754 0.66637 0.0
C1258 C 0.09818 0.45402 0.69145 0.0
C1259 C 0.08366 0.42927 0.70336 0.0
C1260 C 0.0941 0.45005 0.67258 0.0
C1261 C 0.06401 0.40036 0.69617 0.0
C1262 C 0.05994 0.39612 0.67722 0.0
C1263 C 0.07278 0.41686 0.64612 0.0
C1264 C 0.08908 0.44192 0.63448 0.0
C1265 C 0.07526 0.4208 0.66524 0.0
C1266 C 0.10675 0.47092 0.64215 0.0
C1267 C 0.10924 0.47495 0.66094 0.0
H1268 H 0.64382 0.73706 0.69895 0.0
H1269 H 0.63972 0.65089 0.70498 0.0
H1270 H 0.64441 0.64793 0.67185 0.0
H1271 H 0.64391 0.66756 0.64079 0.0
H1272 H 0.64436 0.75208 0.63569 0.0
H1273 H 0.64736 0.75827 0.66874 0.0
C1274 C 0.64435 0.71778 0.69307 0.0
C1275 C 0.64116 0.69411 0.70439 0.0
C1276 C 0.64636 0.71597 0.67409 0.0
C1277 C 0.64204 0.66938 0.69654 0.0
C1278 C 0.64463 0.66765 0.67759 0.0
C1279 C 0.64546 0.68761 0.647 0.0
C1280 C 0.64406 0.70944 0.63594 0.0
C1281 C 0.64604 0.69048 0.66616 0.0
C1282 C 0.64546 0.73508 0.64402 0.0
C1283 C 0.64703 0.73856 0.6629 0.0
H1284 H 0.3418 0.3846 0.69702 0.0
H1285 H 0.40384 0.48047 0.70339 0.0
H1286 H 0.40924 0.48667 0.67046 0.0
H1287 H 0.39325 0.46615 0.64007 0.0
H1288 H 0.32944 0.37104 0.63258 0.0
H1289 H 0.32787 0.36311 0.66569 0.0
C1290 C 0.35681 0.40666 0.69111 0.0
C1291 C 0.37226 0.43209 0.70252 0.0
C1292 C 0.35923 0.41025 0.67202 0.0
C1293 C 0.39151 0.46064 0.69482 0.0
C1294 C 0.39461 0.46423 0.67601 0.0
C1295 C 0.37912 0.44359 0.64563 0.0
C1296 C 0.36126 0.41928 0.63395 0.0
C1297 C 0.37803 0.43939 0.66451 0.0
C1298 C 0.34331 0.39015 0.64135 0.0
C1299 C 0.34238 0.38564 0.66026 0.0
H1300 H 0.65231 0.01222 0.69528 0.0
H1301 H 0.66127 0.93258 0.69927 0.0
H1302 H 0.66857 0.93312 0.66637 0.0
H1303 H 0.66638 0.9524 0.63632 0.0
H1304 H 0.65271 0.02912 0.63158 0.0
H1305 H 0.65377 0.03394 0.66485 0.0
C1306 C 0.65645 0.99541 0.68892 0.0
C1307 C 0.65615 0.97233 0.69958 0.0
C1308 C 0.65956 0.99521 0.66986 0.0
C1309 C 0.66122 0.95043 0.69125 0.0
C1310 C 0.66537 0.95071 0.67246 0.0
C1311 C 0.66422 0.97056 0.64254 0.0
C1312 C 0.65934 0.99028 0.63154 0.0
C1313 C 0.66369 0.97243 0.66159 0.0
C1314 C 0.65643 0.0136 0.63979 0.0
C1315 C 0.65689 0.01627 0.65881 0.0
H1316 H 0.11951 0.69722 0.6915 0.0
H1317 H 0.03573 0.69859 0.69452 0.0
H1318 H 0.03282 0.69786 0.661 0.0
H1319 H 0.05493 0.69708 0.63067 0.0
H1320 H 0.13864 0.69494 0.62938 0.0
H1321 H 0.14061 0.69573 0.66236 0.0
C1322 C 0.10054 0.6974 0.6849 0.0
C1323 C 0.07794 0.69809 0.69547 0.0
C1324 C 0.09902 0.69683 0.66587 0.0
C1325 C 0.05347 0.69811 0.68665 0.0
C1326 C 0.05183 0.6977 0.6675 0.0
C1327 C 0.07351 0.69676 0.63767 0.0
C1328 C 0.09659 0.69598 0.6275 0.0
C1329 C 0.07457 0.6971 0.65693 0.0
C1330 C 0.12052 0.69552 0.63677 0.0
C1331 C 0.12176 0.69599 0.65569 0.0
H1332 H 0.87668 0.09737 0.10518 0.0
H1333 H 0.82279 0.13989 0.0961 0.0
H1334 H 0.86824 0.1898 0.09706 0.0
H1335 H 0.92349 0.22117 0.09817 0.0
H1336 H 0.97788 0.17902 0.10647 0.0
H1337 H 0.93207 0.12924 0.10831 0.0
C1338 C 0.87489 0.11759 0.10361 0.0
C1339 C 0.84646 0.11493 0.10044 0.0
C1340 C 0.90121 0.14628 0.10396 0.0
C1341 C 0.84445 0.14131 0.09845 0.0
C1342 C 0.87043 0.16988 0.09898 0.0
C1343 C 0.92532 0.20113 0.10058 0.0
C1344 C 0.95401 0.20374 0.10206 0.0
C1345 C 0.89896 0.1726 0.10137 0.0
C1346 C 0.95602 0.17759 0.10524 0.0
C1347 C 0.92985 0.14911 0.10624 0.0
H1348 H 0.9484 0.79339 0.10927 0.0
H1349 H 0.90991 0.70396 0.08583 0.0
H1350 H 0.85969 0.69916 0.0859 0.0
H1351 H 0.82735 0.72173 0.09105 0.0
H1352 H 0.86664 0.81164 0.11397 0.0
H1353 H 0.91592 0.81484 0.11574 0.0
C1354 C 0.92899 0.77274 0.1043 0.0
C1355 C 0.93284 0.74914 0.09747 0.0
C1356 C 0.90036 0.77029 0.10421 0.0
C1357 C 0.90749 0.72249 0.09113 0.0
C1358 C 0.87881 0.71976 0.09113 0.0
C1359 C 0.84667 0.7419 0.09655 0.0
C1360 C 0.84342 0.76646 0.10227 0.0
C1361 C 0.87506 0.74371 0.09739 0.0
C1362 C 0.86859 0.79246 0.10941 0.0
C1363 C 0.89679 0.79434 0.11041 0.0
H1364 H 0.32242 0.13115 0.10371 0.0
H1365 H 0.22618 0.0785 0.09384 0.0
H1366 H 0.22301 0.12477 0.09317 0.0
H1367 H 0.24801 0.18031 0.09382 0.0
H1368 H 0.34422 0.23301 0.10378 0.0
H1369 H 0.34693 0.18658 0.10611 0.0
C1370 C 0.30074 0.12981 0.10152 0.0
C1371 C 0.27462 0.1015 0.0987 0.0
C1372 C 0.29908 0.1565 0.10113 0.0
C1373 C 0.24664 0.10006 0.096 0.0
C1374 C 0.2448 0.1265 0.09559 0.0
C1375 C 0.26952 0.18161 0.09664 0.0
C1376 C 0.29589 0.21001 0.09851 0.0
C1377 C 0.27094 0.15486 0.0979 0.0
C1378 C 0.32359 0.21138 0.10225 0.0
C1379 C 0.32518 0.18486 0.10354 0.0
H1380 H 0.18738 0.95652 0.89902 0.0
H1381 H 0.23691 0.91496 0.92022 0.0
H1382 H 0.19091 0.86526 0.91945 0.0
H1383 H 0.13612 0.83392 0.91387 0.0
H1384 H 0.08665 0.87592 0.89319 0.0
H1385 H 0.13314 0.92508 0.89254 0.0
C1386 C 0.18813 0.93657 0.90339 0.0
C1387 C 0.21545 0.93941 0.90973 0.0
C1388 C 0.1616 0.90814 0.90302 0.0
C1389 C 0.21611 0.91336 0.91533 0.0
C1390 C 0.18983 0.88494 0.91489 0.0
C1391 C 0.13559 0.8538 0.90909 0.0
C1392 C 0.108 0.85131 0.90363 0.0
C1393 C 0.16238 0.8821 0.90893 0.0
C1394 C 0.10762 0.87726 0.89751 0.0
C1395 C 0.13417 0.90539 0.89715 0.0
H1396 H 0.2143 0.31775 0.90228 0.0
H1397 H 0.1725 0.22374 0.91806 0.0
H1398 H 0.12276 0.22009 0.91847 0.0
H1399 H 0.09132 0.24396 0.9147 0.0
H1400 H 0.13388 0.33867 0.90035 0.0
H1401 H 0.18319 0.34173 0.89902 0.0
C1402 C 0.19427 0.29642 0.90573 0.0
C1403 C 0.19698 0.27101 0.91005 0.0
C1404 C 0.16593 0.29466 0.90623 0.0
C1405 C 0.17094 0.24361 0.91468 0.0
C1406 C 0.14252 0.24151 0.91491 0.0
C1407 C 0.1114 0.26522 0.91124 0.0
C1408 C 0.109 0.29103 0.90758 0.0
C1409 C 0.13977 0.26693 0.91076 0.0
C1410 C 0.13519 0.3185 0.90325 0.0
C1411 C 0.16338 0.32027 0.90246 0.0
H1412 H 0.72296 0.8349 0.91372 0.0
H1413 H 0.81456 0.87327 0.89379 0.0
H1414 H 0.81855 0.92292 0.8912 0.0
H1415 H 0.79694 0.95588 0.89596 0.0
H1416 H 0.70559 0.91788 0.91621 0.0
H1417 H 0.70051 0.86756 0.91721 0.0
C1418 C 0.74372 0.8541 0.9087 0.0
C1419 C 0.76847 0.85048 0.90404 0.0
C1420 C 0.74593 0.88263 0.90735 0.0
C1421 C 0.7952 0.87551 0.89751 0.0
C1422 C 0.79753 0.90391 0.89605 0.0
C1423 C 0.77584 0.93655 0.90047 0.0
C1424 C 0.75173 0.94058 0.90608 0.0
C1425 C 0.77317 0.9078 0.90113 0.0
C1426 C 0.7245 0.91534 0.91185 0.0
C1427 C 0.7216 0.88658 0.91246 0.0
H1428 H 0.49474 0.46899 0.42573 0.0
H1429 H 0.53688 0.41633 0.4398 0.0
H1430 H 0.58629 0.46246 0.44126 0.0
H1431 H 0.6178 0.5174 0.43723 0.0
H1432 H 0.57595 0.57022 0.42294 0.0
H1433 H 0.5261 0.52438 0.423 0.0
C1434 C 0.51473 0.46765 0.42921 0.0
C1435 C 0.51221 0.43931 0.43256 0.0
C1436 C 0.5431 0.49426 0.42996 0.0
C1437 C 0.53825 0.4379 0.43711 0.0
C1438 C 0.56652 0.46425 0.43794 0.0
C1439 C 0.59774 0.51891 0.43425 0.0
C1440 C 0.60054 0.54709 0.43001 0.0
C1441 C 0.56924 0.49249 0.43419 0.0
C1442 C 0.57437 0.54874 0.42623 0.0
C1443 C 0.54588 0.52255 0.42622 0.0
H1444 H 0.63138 0.13409 0.43516 0.0
H1445 H 0.58681 0.04019 0.41873 0.0
H1446 H 0.53767 0.03755 0.42009 0.0
H1447 H 0.50756 0.06253 0.42473 0.0
H1448 H 0.55224 0.15649 0.44105 0.0
H1449 H 0.60109 0.15845 0.44102 0.0
C1450 C 0.61089 0.11301 0.43198 0.0
C1451 C 0.61273 0.08743 0.42678 0.0
C1452 C 0.58273 0.11168 0.43272 0.0
C1453 C 0.586 0.06024 0.42275 0.0
C1454 C 0.55789 0.05871 0.42349 0.0
C1455 C 0.52797 0.08337 0.42837 0.0
C1456 C 0.52631 0.10934 0.4328 0.0
C1457 C 0.55601 0.08438 0.42827 0.0
C1458 C 0.55293 0.13618 0.43755 0.0
C1459 C 0.58088 0.13735 0.43752 0.0
H1460 H 0.91807 0.42516 0.4457 0.0
H1461 H 0.01067 0.46843 0.42696 0.0
H1462 H 0.01372 0.51786 0.42807 0.0
H1463 H 0.98844 0.54793 0.43161 0.0
H1464 H 0.8953 0.50404 0.44944 0.0
H1465 H 0.89421 0.45571 0.45163 0.0
C1466 C 0.93903 0.44545 0.44206 0.0
C1467 C 0.96399 0.44317 0.43607 0.0
C1468 C 0.94047 0.47364 0.44248 0.0
C1469 C 0.99108 0.46963 0.43152 0.0
C1470 C 0.99282 0.49787 0.43211 0.0
C1471 C 0.96806 0.52786 0.43622 0.0
C1472 C 0.94192 0.52945 0.44019 0.0
C1473 C 0.96742 0.50003 0.43715 0.0
C1474 C 0.91567 0.50333 0.44619 0.0
C1475 C 0.91499 0.47568 0.44741 0.0
H1476 H 0.80644 0.17385 0.2431 0.0
H1477 H 0.76132 0.21734 0.21815 0.0
H1478 H 0.80893 0.26544 0.21744 0.0
H1479 H 0.86257 0.29574 0.22544 0.0
H1480 H 0.90802 0.25286 0.25067 0.0
H1481 H 0.86108 0.20385 0.24967 0.0
C1482 C 0.80712 0.19381 0.23735 0.0
C1483 C 0.7804 0.1921 0.23077 0.0
C1484 C 0.83455 0.2215 0.23714 0.0
C1485 C 0.78158 0.2181 0.22335 0.0
C1486 C 0.80877 0.24563 0.22297 0.0
C1487 C 0.86226 0.27563 0.23063 0.0
C1488 C 0.88861 0.2779 0.23823 0.0
C1489 C 0.83526 0.24768 0.23008 0.0
C1490 C 0.88795 0.25166 0.24479 0.0
C1491 C 0.86113 0.22367 0.24425 0.0
H1492 H 0.85901 0.5828 0.23281 0.0
H1493 H 0.90845 0.67607 0.25046 0.0
H1494 H 0.86198 0.67878 0.24976 0.0
H1495 H 0.80692 0.6541 0.24527 0.0
H1496 H 0.75741 0.56075 0.22778 0.0
H1497 H 0.80426 0.55871 0.22716 0.0
C1498 C 0.85961 0.60374 0.23643 0.0
C1499 C 0.88709 0.62913 0.24176 0.0
C1500 C 0.83279 0.60514 0.23603 0.0
C1501 C 0.88756 0.65616 0.24634 0.0
C1502 C 0.86099 0.65775 0.24596 0.0
C1503 C 0.80644 0.63338 0.2412 0.0
C1504 C 0.77874 0.6076 0.23664 0.0
C1505 C 0.83343 0.6323 0.24099 0.0
C1506 C 0.77845 0.58092 0.23138 0.0
C1507 C 0.80522 0.5797 0.23106 0.0
H1508 H 0.46332 0.29797 0.2357 0.0
H1509 H 0.36634 0.2536 0.24246 0.0
H1510 H 0.36336 0.20419 0.24291 0.0
H1511 H 0.38868 0.17381 0.24285 0.0
H1512 H 0.4858 0.21854 0.23662 0.0
H1513 H 0.48834 0.26756 0.23445 0.0
C1514 C 0.44151 0.27747 0.23713 0.0
C1515 C 0.41512 0.27943 0.2391 0.0
C1516 C 0.44001 0.24921 0.23756 0.0
C1517 C 0.38701 0.25268 0.24094 0.0
C1518 C 0.38529 0.22443 0.24124 0.0
C1519 C 0.41036 0.19428 0.24091 0.0
C1520 C 0.43702 0.19257 0.23998 0.0
C1521 C 0.41169 0.22245 0.23979 0.0
C1522 C 0.46495 0.21926 0.23744 0.0
C1523 C 0.46644 0.24731 0.2362 0.0
H1524 H 0.25052 0.88621 0.75753 0.0
H1525 H 0.29732 0.83864 0.77301 0.0
H1526 H 0.24955 0.7906 0.77279 0.0
H1527 H 0.19493 0.76184 0.76684 0.0
H1528 H 0.148 0.80907 0.75097 0.0
H1529 H 0.19536 0.85753 0.75275 0.0
C1530 C 0.2502 0.86535 0.761 0.0
C1531 C 0.27741 0.86596 0.76522 0.0
C1532 C 0.22268 0.83775 0.76068 0.0
C1533 C 0.27668 0.83877 0.76967 0.0
C1534 C 0.24939 0.81127 0.76952 0.0
C1535 C 0.19504 0.78275 0.76386 0.0
C1536 C 0.16806 0.78188 0.7587 0.0
C1537 C 0.22233 0.81046 0.76482 0.0
C1538 C 0.16851 0.80915 0.75493 0.0
C1539 C 0.19558 0.83686 0.75593 0.0
H1540 H 0.29127 0.47009 0.77155 0.0
H1541 H 0.24985 0.37986 0.74896 0.0
H1542 H 0.20075 0.37739 0.7482 0.0
H1543 H 0.16984 0.40142 0.75319 0.0
H1544 H 0.21153 0.49195 0.77538 0.0
H1545 H 0.26021 0.49369 0.77712 0.0
C1546 C 0.27146 0.44984 0.76654 0.0
C1547 C 0.27418 0.42523 0.7603 0.0
C1548 C 0.24336 0.44864 0.76604 0.0
C1549 C 0.24834 0.39914 0.75383 0.0
C1550 C 0.22026 0.39771 0.75337 0.0
C1551 C 0.18956 0.42146 0.75848 0.0
C1552 C 0.18712 0.44652 0.76411 0.0
C1553 C 0.21754 0.4224 0.75933 0.0
C1554 C 0.21285 0.47236 0.77092 0.0
C1555 C 0.2407 0.4734 0.77191 0.0
H1556 H 0.65733 0.80158 0.76925 0.0
H1557 H 0.56134 0.74896 0.75856 0.0
H1558 H 0.55794 0.79511 0.75848 0.0
H1559 H 0.58269 0.85064 0.75984 0.0
H1560 H 0.67882 0.90333 0.77003 0.0
H1561 H 0.68166 0.85696 0.77203 0.0
C1562 C 0.63564 0.80021 0.76703 0.0
C1563 C 0.60968 0.77193 0.76382 0.0
C1564 C 0.63388 0.82686 0.76686 0.0
C1565 C 0.58171 0.77049 0.76099 0.0
C1566 C 0.57973 0.79686 0.76093 0.0
C1567 C 0.6042 0.85194 0.76266 0.0
C1568 C 0.63051 0.88036 0.76471 0.0
C1569 C 0.60573 0.8252 0.76361 0.0
C1570 C 0.65823 0.88171 0.76837 0.0
C1571 C 0.6599 0.85521 0.76947 0.0
H1572 H 0.51426 0.62915 0.57223 0.0
H1573 H 0.56813 0.5886 0.58679 0.0
H1574 H 0.52318 0.53817 0.58546 0.0
H1575 H 0.4683 0.50567 0.58077 0.0
H1576 H 0.41462 0.54651 0.56631 0.0
H1577 H 0.45979 0.59669 0.56682 0.0
C1578 C 0.51615 0.60927 0.57512 0.0
C1579 C 0.54441 0.61258 0.57969 0.0
C1580 C 0.49027 0.58039 0.57427 0.0
C1581 C 0.54657 0.58663 0.58329 0.0
C1582 C 0.5209 0.55779 0.58251 0.0
C1583 C 0.46656 0.52555 0.5776 0.0
C1584 C 0.43819 0.5224 0.57353 0.0
C1585 C 0.49261 0.5544 0.57807 0.0
C1586 C 0.43623 0.54834 0.5695 0.0
C1587 C 0.46202 0.57706 0.56983 0.0
H1588 H 0.43838 0.91811 0.57853 0.0
H1589 H 0.47542 0.01465 0.57343 0.0
H1590 H 0.52681 0.02228 0.5729 0.0
H1591 H 0.56113 0.00129 0.57425 0.0
H1592 H 0.52357 0.90489 0.581 0.0
H1593 H 0.4724 0.89737 0.58053 0.0
C1594 C 0.45771 0.94081 0.57723 0.0
C1595 C 0.45323 0.96577 0.57594 0.0
C1596 C 0.48705 0.94502 0.57728 0.0
C1597 C 0.47841 0.99509 0.57446 0.0
C1598 C 0.50774 -0.00055 0.57414 0.0
C1599 C 0.5417 0.97868 0.57557 0.0
C1600 C 0.54602 0.95368 0.57761 0.0
C1601 C 0.51233 0.97457 0.5756 0.0
C1602 C 0.52075 0.92449 0.57947 0.0
C1603 C 0.49151 0.92016 0.57917 0.0
H1604 H 0.13503 0.62458 0.55725 0.0
H1605 H 0.04106 0.58768 0.5719 0.0
H1606 H 0.03402 0.53664 0.5723 0.0
H1607 H 0.05541 0.50293 0.5706 0.0
H1608 H 0.14954 0.53983 0.55638 0.0
H1609 H 0.15557 0.59033 0.55352 0.0
C1610 C 0.11296 0.60533 0.56037 0.0
C1611 C 0.08868 0.60992 0.56468 0.0
C1612 C 0.10911 0.57604 0.5607 0.0
C1613 C 0.06017 0.58476 0.56861 0.0
C1614 C 0.05611 0.55556 0.56887 0.0
C1615 C 0.07714 0.52197 0.56667 0.0
C1616 C 0.10202 0.5177 0.56382 0.0
C1617 C 0.08055 0.55099 0.56525 0.0
C1618 C 0.13004 0.54256 0.5587 0.0
C1619 C 0.13354 0.57146 0.55711 0.0
loop_
_geom_bond_atom_site_label_1
_geom_bond_atom_site_label_2
_geom_bond_distance
_geom_bond_site_symmetry_2
_ccdc_geom_bond_type
In0 O1 2.294 . S
In0 O2 2.326 . S
In0 O6 2.266 . S
In0 O7 2.326 . S
In0 O8 2.266 1_455 S
In0 O9 2.326 1_455 S
In0 O11 2.294 . S
In0 O12 2.326 . S
O1 In0 2.294 . S
O1 C10 1.240 . S
O2 In0 2.326 . S
O2 C10 1.252 . S
C3 O6 1.252 . S
C3 O7 1.260 . S
C4 O11 1.240 . S
C4 O12 1.252 . S
C5 O8 1.252 . S
C5 O9 1.260 . S
O6 In0 2.266 . S
O6 C3 1.252 . S
O7 In0 2.326 . S
O7 C3 1.260 . S
O8 In0 2.266 1_655 S
O8 C5 1.252 . S
O9 In0 2.326 1_655 S
O9 C5 1.260 . S
C10 O1 1.240 . S
C10 O2 1.252 . S
O11 In0 2.294 . S
O11 C4 1.240 . S
O12 In0 2.326 . S
O12 C4 1.252 . S
In13 O14 2.294 . S
In13 O15 2.326 . S
In13 O19 2.266 . S
In13 O20 2.326 . S
In13 O21 2.266 . S
In13 O22 2.326 . S
In13 O24 2.294 . S
In13 O25 2.326 . S
O14 In13 2.294 . S
O14 C23 1.240 . S
O15 In13 2.326 . S
O15 C23 1.252 . S
C16 O19 1.252 . S
C16 O20 1.260 . S
C17 O24 1.240 . S
C17 O25 1.252 . S
C18 O21 1.252 . S
C18 O22 1.260 . S
O19 In13 2.266 . S
O19 C16 1.252 . S
O20 In13 2.326 . S
O20 C16 1.260 . S
O21 In13 2.266 . S
O21 C18 1.252 . S
O22 In13 2.326 . S
O22 C18 1.260 . S
C23 O14 1.240 . S
C23 O15 1.252 . S
O24 In13 2.294 . S
O24 C17 1.240 . S
O25 In13 2.326 . S
O25 C17 1.252 . S
In26 O27 2.294 . S
In26 O28 2.326 . S
In26 O32 2.266 . S
In26 O33 2.326 . S
In26 O34 2.266 . S
In26 O35 2.326 . S
In26 O37 2.288 1_545 S
In26 O38 2.326 1_545 S
O27 In26 2.294 . S
O27 C36 1.240 . S
O28 In26 2.326 . S
O28 C36 1.252 . S
C29 O32 1.252 . S
C29 O33 1.260 . S
C30 O37 1.269 . S
C30 O38 1.252 . S
C31 O34 1.252 . S
C31 O35 1.260 . S
O32 In26 2.266 . S
O32 C29 1.252 . S
O33 In26 2.326 . S
O33 C29 1.260 . S
O34 In26 2.266 . S
O34 C31 1.252 . S
O35 In26 2.326 . S
O35 C31 1.260 . S
C36 O27 1.240 . S
C36 O28 1.252 . S
O37 In26 2.288 1_565 S
O37 C30 1.269 . S
O38 In26 2.326 1_565 S
O38 C30 1.252 . S
In39 O40 2.294 . S
In39 O41 2.326 . S
In39 O45 2.266 1_545 S
In39 O46 2.326 1_545 S
In39 O47 2.266 . S
In39 O48 2.326 . S
In39 O50 2.294 . S
In39 O51 2.326 . S
O40 In39 2.294 . S
O40 C49 1.240 . S
O41 In39 2.326 . S
O41 C49 1.252 . S
C42 O45 1.252 . S
C42 O46 1.260 . S
C43 O50 1.240 . S
C43 O51 1.252 . S
C44 O47 1.252 . S
C44 O48 1.260 . S
O45 In39 2.266 1_565 S
O45 C42 1.252 . S
O46 In39 2.326 1_565 S
O46 C42 1.260 . S
O47 In39 2.266 . S
O47 C44 1.252 . S
O48 In39 2.326 . S
O48 C44 1.260 . S
C49 O40 1.240 . S
C49 O41 1.252 . S
O50 In39 2.294 . S
O50 C43 1.240 . S
O51 In39 2.326 . S
O51 C43 1.252 . S
In52 O53 2.294 . S
In52 O54 2.326 . S
In52 O58 2.266 . S
In52 O59 2.326 . S
In52 O60 2.266 . S
In52 O61 2.326 . S
In52 O63 2.288 1_455 S
In52 O64 2.326 1_455 S
O53 In52 2.294 . S
O53 C62 1.240 . S
O54 In52 2.326 . S
O54 C62 1.252 . S
C55 O58 1.252 . S
C55 O59 1.260 . S
C56 O63 1.269 . S
C56 O64 1.252 . S
C57 O60 1.252 . S
C57 O61 1.260 . S
O58 In52 2.266 . S
O58 C55 1.252 . S
O59 In52 2.326 . S
O59 C55 1.260 . S
O60 In52 2.266 . S
O60 C57 1.252 . S
O61 In52 2.326 . S
O61 C57 1.260 . S
C62 O53 1.240 . S
C62 O54 1.252 . S
O63 In52 2.288 1_655 S
O63 C56 1.269 . S
O64 In52 2.326 1_655 S
O64 C56 1.252 . S
In65 O66 2.294 . S
In65 O67 2.326 . S
In65 O71 2.266 . S
In65 O72 2.326 . S
In65 O73 2.266 . S
In65 O74 2.326 . S
In65 O76 2.294 . S
In65 O77 2.326 . S
O66 In65 2.294 . S
O66 C75 1.240 . S
O67 In65 2.326 . S
O67 C75 1.252 . S
C68 O71 1.252 . S
C68 O72 1.260 . S
C69 O76 1.240 . S
C69 O77 1.252 . S
C70 O73 1.252 . S
C70 O74 1.260 . S
O71 In65 2.266 . S
O71 C68 1.252 . S
O72 In65 2.326 . S
O72 C68 1.260 . S
O73 In65 2.266 . S
O73 C70 1.252 . S
O74 In65 2.326 . S
O74 C70 1.260 . S
C75 O66 1.240 . S
C75 O67 1.252 . S
O76 In65 2.294 . S
O76 C69 1.240 . S
O77 In65 2.326 . S
O77 C69 1.252 . S
In78 O79 2.268 1_455 S
In78 O80 2.326 1_455 S
In78 O84 2.266 . S
In78 O85 2.326 . S
In78 O86 2.266 . S
In78 O87 2.326 . S
In78 O89 2.294 . S
In78 O90 2.326 . S
O79 In78 2.268 1_655 S
O79 C88 1.250 . S
O80 In78 2.326 1_655 S
O80 C88 1.252 . S
C81 O84 1.252 . S
C81 O85 1.260 . S
C82 O89 1.240 . S
C82 O90 1.252 . S
C83 O86 1.252 . S
C83 O87 1.260 . S
O84 In78 2.266 . S
O84 C81 1.252 . S
O85 In78 2.326 . S
O85 C81 1.260 . S
O86 In78 2.266 . S
O86 C83 1.252 . S
O87 In78 2.326 . S
O87 C83 1.260 . S
C88 O79 1.250 . S
C88 O80 1.252 . S
O89 In78 2.294 . S
O89 C82 1.240 . S
O90 In78 2.326 . S
O90 C82 1.252 . S
In91 O92 2.294 . S
In91 O93 2.326 . S
In91 O97 2.266 . S
In91 O98 2.326 . S
In91 O99 2.266 . S
In91 O100 2.326 . S
In91 O102 2.294 . S
In91 O103 2.326 . S
O92 In91 2.294 . S
O92 C101 1.240 . S
O93 In91 2.326 . S
O93 C101 1.252 . S
C94 O97 1.252 . S
C94 O98 1.260 . S
C95 O102 1.240 . S
C95 O103 1.252 . S
C96 O99 1.252 . S
C96 O100 1.260 . S
O97 In91 2.266 . S
O97 C94 1.252 . S
O98 In91 2.326 . S
O98 C94 1.260 . S
O99 In91 2.266 . S
O99 C96 1.252 . S
O100 In91 2.326 . S
O100 C96 1.260 . S
C101 O92 1.240 . S
C101 O93 1.252 . S
O102 In91 2.294 . S
O102 C95 1.240 . S
O103 In91 2.326 . S
O103 C95 1.252 . S
In104 O105 2.294 . S
In104 O106 2.326 . S
In104 O110 2.266 . S
In104 O111 2.326 . S
In104 O112 2.266 1_545 S
In104 O113 2.326 1_545 S
In104 O115 2.294 . S
In104 O116 2.326 . S
O105 In104 2.294 . S
O105 C114 1.240 . S
O106 In104 2.326 . S
O106 C114 1.252 . S
C107 O110 1.252 . S
C107 O111 1.260 . S
C108 O115 1.240 . S
C108 O116 1.252 . S
C109 O112 1.252 . S
C109 O113 1.260 . S
O110 In104 2.266 . S
O110 C107 1.252 . S
O111 In104 2.326 . S
O111 C107 1.260 . S
O112 In104 2.266 1_565 S
O112 C109 1.252 . S
O113 In104 2.326 1_565 S
O113 C109 1.260 . S
C114 O105 1.240 . S
C114 O106 1.252 . S
O115 In104 2.294 . S
O115 C108 1.240 . S
O116 In104 2.326 . S
O116 C108 1.252 . S
In117 O118 2.268 1_545 S
In117 O119 2.326 1_545 S
In117 O123 2.266 . S
In117 O124 2.326 . S
In117 O125 2.266 . S
In117 O126 2.326 . S
In117 O128 2.294 . S
In117 O129 2.326 . S
O118 In117 2.268 1_565 S
O118 C127 1.250 . S
O119 In117 2.326 1_565 S
O119 C127 1.252 . S
C120 O123 1.252 . S
C120 O124 1.260 . S
C121 O128 1.240 . S
C121 O129 1.252 . S
C122 O125 1.252 . S
C122 O126 1.260 . S
O123 In117 2.266 . S
O123 C120 1.252 . S
O124 In117 2.326 . S
O124 C120 1.260 . S
O125 In117 2.266 . S
O125 C122 1.252 . S
O126 In117 2.326 . S
O126 C122 1.260 . S
C127 O118 1.250 . S
C127 O119 1.252 . S
O128 In117 2.294 . S
O128 C121 1.240 . S
O129 In117 2.326 . S
O129 C121 1.252 . S
In130 O131 2.294 . S
In130 O132 2.326 . S
In130 O136 2.266 . S
In130 O137 2.326 . S
In130 O138 2.266 1_455 S
In130 O139 2.326 1_455 S
In130 O141 2.294 . S
In130 O142 2.326 . S
O131 In130 2.294 . S
O131 C140 1.240 . S
O132 In130 2.326 . S
O132 C140 1.252 . S
C133 O136 1.252 . S
C133 O137 1.260 . S
C134 O141 1.240 . S
C134 O142 1.252 . S
C135 O138 1.252 . S
C135 O139 1.260 . S
O136 In130 2.266 . S
O136 C133 1.252 . S
O137 In130 2.326 . S
O137 C133 1.260 . S
O138 In130 2.266 1_655 S
O138 C135 1.252 . S
O139 In130 2.326 1_655 S
O139 C135 1.260 . S
C140 O131 1.240 . S
C140 O132 1.252 . S
O141 In130 2.294 . S
O141 C134 1.240 . S
O142 In130 2.326 . S
O142 C134 1.252 . S
In143 O144 2.294 . S
In143 O145 2.326 . S
In143 O149 2.266 . S
In143 O150 2.326 . S
In143 O151 2.266 . S
In143 O152 2.326 . S
In143 O154 2.294 . S
In143 O155 2.326 . S
O144 In143 2.294 . S
O144 C153 1.240 . S
O145 In143 2.326 . S
O145 C153 1.252 . S
C146 O149 1.252 . S
C146 O150 1.260 . S
C147 O154 1.240 . S
C147 O155 1.252 . S
C148 O151 1.252 . S
C148 O152 1.260 . S
O149 In143 2.266 . S
O149 C146 1.252 . S
O150 In143 2.326 . S
O150 C146 1.260 . S
O151 In143 2.266 . S
O151 C148 1.252 . S
O152 In143 2.326 . S
O152 C148 1.260 . S
C153 O144 1.240 . S
C153 O145 1.252 . S
O154 In143 2.294 . S
O154 C147 1.240 . S
O155 In143 2.326 . S
O155 C147 1.252 . S
In156 O157 2.294 . S
In156 O158 2.326 . S
In156 O162 2.266 . S
In156 O163 2.326 . S
In156 O164 2.266 . S
In156 O165 2.326 . S
In156 O167 2.294 . S
In156 O168 2.326 . S
O157 In156 2.294 . S
O157 C166 1.240 . S
O158 In156 2.326 . S
O158 C166 1.252 . S
C159 O162 1.252 . S
C159 O163 1.260 . S
C160 O167 1.240 . S
C160 O168 1.252 . S
C161 O164 1.252 . S
C161 O165 1.260 . S
O162 In156 2.266 . S
O162 C159 1.252 . S
O163 In156 2.326 . S
O163 C159 1.260 . S
O164 In156 2.266 . S
O164 C161 1.252 . S
O165 In156 2.326 . S
O165 C161 1.260 . S
C166 O157 1.240 . S
C166 O158 1.252 . S
O167 In156 2.294 . S
O167 C160 1.240 . S
O168 In156 2.326 . S
O168 C160 1.252 . S
In169 O170 2.294 . S
In169 O171 2.326 . S
In169 O175 2.266 . S
In169 O176 2.326 . S
In169 O177 2.266 . S
In169 O178 2.326 . S
In169 O180 2.294 . S
In169 O181 2.326 . S
O170 In169 2.294 . S
O170 C179 1.240 . S
O171 In169 2.326 . S
O171 C179 1.252 . S
C172 O175 1.252 . S
C172 O176 1.260 . S
C173 O180 1.240 . S
C173 O181 1.252 . S
C174 O177 1.252 . S
C174 O178 1.260 . S
O175 In169 2.266 . S
O175 C172 1.252 . S
O176 In169 2.326 . S
O176 C172 1.260 . S
O177 In169 2.266 . S
O177 C174 1.252 . S
O178 In169 2.326 . S
O178 C174 1.260 . S
C179 O170 1.240 . S
C179 O171 1.252 . S
O180 In169 2.294 . S
O180 C173 1.240 . S
O181 In169 2.326 . S
O181 C173 1.252 . S
In182 O183 2.294 . S
In182 O184 2.326 . S
In182 O188 2.266 1_655 S
In182 O189 2.326 . S
In182 O190 2.266 . S
In182 O191 2.326 . S
In182 O193 2.294 . S
In182 O194 2.326 . S
O183 In182 2.294 . S
O183 C192 1.240 . S
O184 In182 2.326 . S
O184 C192 1.252 . S
C185 O188 1.252 1_655 S
C185 O189 1.260 . S
C186 O193 1.240 . S
C186 O194 1.252 . S
C187 O190 1.252 . S
C187 O191 1.260 . S
O188 In182 2.266 1_455 S
O188 C185 1.252 1_455 S
O189 In182 2.326 . S
O189 C185 1.260 . S
O190 In182 2.266 . S
O190 C187 1.252 . S
O191 In182 2.326 . S
O191 C187 1.260 . S
C192 O183 1.240 . S
C192 O184 1.252 . S
O193 In182 2.294 . S
O193 C186 1.240 . S
O194 In182 2.326 . S
O194 C186 1.252 . S
In195 O196 2.294 . S
In195 O197 2.326 . S
In195 O201 2.266 . S
In195 O202 2.326 . S
In195 O203 2.266 . S
In195 O204 2.326 . S
In195 O206 2.294 . S
In195 O207 2.326 . S
O196 In195 2.294 . S
O196 C205 1.240 . S
O197 In195 2.326 . S
O197 C205 1.252 . S
C198 O201 1.252 . S
C198 O202 1.260 . S
C199 O206 1.240 . S
C199 O207 1.252 . S
C200 O203 1.252 . S
C200 O204 1.260 . S
O201 In195 2.266 . S
O201 C198 1.252 . S
O202 In195 2.326 . S
O202 C198 1.260 . S
O203 In195 2.266 . S
O203 C200 1.252 . S
O204 In195 2.326 . S
O204 C200 1.260 . S
C205 O196 1.240 . S
C205 O197 1.252 . S
O206 In195 2.294 . S
O206 C199 1.240 . S
O207 In195 2.326 . S
O207 C199 1.252 . S
In208 O209 2.294 . S
In208 O210 2.326 . S
In208 O214 2.266 . S
In208 O215 2.326 . S
In208 O216 2.266 . S
In208 O217 2.326 . S
In208 O219 2.294 . S
In208 O220 2.326 . S
O209 In208 2.294 . S
O209 C218 1.240 . S
O210 In208 2.326 . S
O210 C218 1.252 . S
C211 O214 1.252 . S
C211 O215 1.260 . S
C212 O219 1.240 . S
C212 O220 1.252 . S
C213 O216 1.252 . S
C213 O217 1.260 . S
O214 In208 2.266 . S
O214 C211 1.252 . S
O215 In208 2.326 . S
O215 C211 1.260 . S
O216 In208 2.266 . S
O216 C213 1.252 . S
O217 In208 2.326 . S
O217 C213 1.260 . S
C218 O209 1.240 . S
C218 O210 1.252 . S
O219 In208 2.294 . S
O219 C212 1.240 . S
O220 In208 2.326 . S
O220 C212 1.252 . S
In221 O222 2.294 . S
In221 O223 2.326 . S
In221 O227 2.266 . S
In221 O228 2.326 . S
In221 O229 2.266 . S
In221 O230 2.326 . S
In221 O232 2.294 . S
In221 O233 2.326 . S
O222 In221 2.294 . S
O222 C231 1.240 . S
O223 In221 2.326 . S
O223 C231 1.252 . S
C224 O227 1.252 . S
C224 O228 1.260 . S
C225 O232 1.240 . S
C225 O233 1.252 . S
C226 O229 1.252 . S
C226 O230 1.260 . S
O227 In221 2.266 . S
O227 C224 1.252 . S
O228 In221 2.326 . S
O228 C224 1.260 . S
O229 In221 2.266 . S
O229 C226 1.252 . S
O230 In221 2.326 . S
O230 C226 1.260 . S
C231 O222 1.240 . S
C231 O223 1.252 . S
O232 In221 2.294 . S
O232 C225 1.240 . S
O233 In221 2.326 . S
O233 C225 1.252 . S
In234 O235 2.294 . S
In234 O236 2.326 . S
In234 O240 2.266 . S
In234 O241 2.326 . S
In234 O242 2.266 . S
In234 O243 2.326 . S
In234 O245 2.294 . S
In234 O246 2.326 . S
O235 In234 2.294 . S
O235 C244 1.240 . S
O236 In234 2.326 . S
O236 C244 1.252 . S
C237 O240 1.252 . S
C237 O241 1.260 . S
C238 O245 1.240 . S
C238 O246 1.252 . S
C239 O242 1.252 . S
C239 O243 1.260 . S
O240 In234 2.266 . S
O240 C237 1.252 . S
O241 In234 2.326 . S
O241 C237 1.260 . S
O242 In234 2.266 . S
O242 C239 1.252 . S
O243 In234 2.326 . S
O243 C239 1.260 . S
C244 O235 1.240 . S
C244 O236 1.252 . S
O245 In234 2.294 . S
O245 C238 1.240 . S
O246 In234 2.326 . S
O246 C238 1.252 . S
In247 O248 2.294 . S
In247 O249 2.326 . S
In247 O253 2.266 . S
In247 O254 2.326 . S
In247 O255 2.266 . S
In247 O256 2.326 . S
In247 O258 2.294 . S
In247 O259 2.326 . S
O248 In247 2.294 . S
O248 C257 1.240 . S
O249 In247 2.326 . S
O249 C257 1.252 . S
C250 O253 1.252 . S
C250 O254 1.260 . S
C251 O258 1.240 . S
C251 O259 1.252 . S
C252 O255 1.252 . S
C252 O256 1.260 . S
O253 In247 2.266 . S
O253 C250 1.252 . S
O254 In247 2.326 . S
O254 C250 1.260 . S
O255 In247 2.266 . S
O255 C252 1.252 . S
O256 In247 2.326 . S
O256 C252 1.260 . S
C257 O248 1.240 . S
C257 O249 1.252 . S
O258 In247 2.294 . S
O258 C251 1.240 . S
O259 In247 2.326 . S
O259 C251 1.252 . S
In260 O261 2.294 . S
In260 O262 2.326 . S
In260 O266 2.266 . S
In260 O267 2.326 . S
In260 O268 2.266 . S
In260 O269 2.326 . S
In260 O271 2.294 . S
In260 O272 2.326 . S
O261 In260 2.294 . S
O261 C270 1.240 . S
O262 In260 2.326 . S
O262 C270 1.252 . S
C263 O266 1.252 . S
C263 O267 1.260 . S
C264 O271 1.240 . S
C264 O272 1.252 . S
C265 O268 1.252 . S
C265 O269 1.260 . S
O266 In260 2.266 . S
O266 C263 1.252 . S
O267 In260 2.326 . S
O267 C263 1.260 . S
O268 In260 2.266 . S
O268 C265 1.252 . S
O269 In260 2.326 . S
O269 C265 1.260 . S
C270 O261 1.240 . S
C270 O262 1.252 . S
O271 In260 2.294 . S
O271 C264 1.240 . S
O272 In260 2.326 . S
O272 C264 1.252 . S
In273 O274 2.294 . S
In273 O275 2.326 . S
In273 O279 2.266 . S
In273 O280 2.326 . S
In273 O281 2.266 . S
In273 O282 2.326 . S
In273 O284 2.294 . S
In273 O285 2.326 . S
O274 In273 2.294 . S
O274 C283 1.240 . S
O275 In273 2.326 . S
O275 C283 1.252 . S
C276 O279 1.252 . S
C276 O280 1.260 . S
C277 O284 1.240 . S
C277 O285 1.252 . S
C278 O281 1.252 . S
C278 O282 1.260 . S
O279 In273 2.266 . S
O279 C276 1.252 . S
O280 In273 2.326 . S
O280 C276 1.260 . S
O281 In273 2.266 . S
O281 C278 1.252 . S
O282 In273 2.326 . S
O282 C278 1.260 . S
C283 O274 1.240 . S
C283 O275 1.252 . S
O284 In273 2.294 . S
O284 C277 1.240 . S
O285 In273 2.326 . S
O285 C277 1.252 . S
In286 O287 2.294 . S
In286 O288 2.326 . S
In286 O292 2.266 . S
In286 O293 2.326 . S
In286 O294 2.266 . S
In286 O295 2.326 . S
In286 O297 2.294 . S
In286 O298 2.326 . S
O287 In286 2.294 . S
O287 C296 1.240 . S
O288 In286 2.326 . S
O288 C296 1.252 . S
C289 O292 1.252 . S
C289 O293 1.260 . S
C290 O297 1.240 . S
C290 O298 1.252 . S
C291 O294 1.252 . S
C291 O295 1.260 . S
O292 In286 2.266 . S
O292 C289 1.252 . S
O293 In286 2.326 . S
O293 C289 1.260 . S
O294 In286 2.266 . S
O294 C291 1.252 . S
O295 In286 2.326 . S
O295 C291 1.260 . S
C296 O287 1.240 . S
C296 O288 1.252 . S
O297 In286 2.294 . S
O297 C290 1.240 . S
O298 In286 2.326 . S
O298 C290 1.252 . S
In299 O300 2.294 . S
In299 O301 2.326 . S
In299 O305 2.266 1_655 S
In299 O306 2.326 . S
In299 O307 2.266 . S
In299 O308 2.326 . S
In299 O310 2.294 . S
In299 O311 2.326 . S
O300 In299 2.294 . S
O300 C309 1.240 . S
O301 In299 2.326 . S
O301 C309 1.252 . S
C302 O305 1.252 1_655 S
C302 O306 1.260 . S
C303 O310 1.240 . S
C303 O311 1.252 . S
C304 O307 1.252 . S
C304 O308 1.260 . S
O305 In299 2.266 1_455 S
O305 C302 1.252 1_455 S
O306 In299 2.326 . S
O306 C302 1.260 . S
O307 In299 2.266 . S
O307 C304 1.252 . S
O308 In299 2.326 . S
O308 C304 1.260 . S
C309 O300 1.240 . S
C309 O301 1.252 . S
O310 In299 2.294 . S
O310 C303 1.240 . S
O311 In299 2.326 . S
O311 C303 1.252 . S
In312 O313 2.294 . S
In312 O314 2.326 . S
In312 O318 2.266 . S
In312 O319 2.326 . S
In312 O320 2.266 . S
In312 O321 2.326 . S
In312 O323 2.294 . S
In312 O324 2.326 . S
O313 In312 2.294 . S
O313 C322 1.240 . S
O314 In312 2.326 . S
O314 C322 1.252 . S
C315 O318 1.252 . S
C315 O319 1.260 . S
C316 O323 1.240 . S
C316 O324 1.252 . S
C317 O320 1.252 . S
C317 O321 1.260 . S
O318 In312 2.266 . S
O318 C315 1.252 . S
O319 In312 2.326 . S
O319 C315 1.260 . S
O320 In312 2.266 . S
O320 C317 1.252 . S
O321 In312 2.326 . S
O321 C317 1.260 . S
C322 O313 1.240 . S
C322 O314 1.252 . S
O323 In312 2.294 . S
O323 C316 1.240 . S
O324 In312 2.326 . S
O324 C316 1.252 . S
In325 O326 2.294 . S
In325 O327 2.326 . S
In325 O331 2.266 . S
In325 O332 2.326 . S
In325 O333 2.266 . S
In325 O334 2.326 . S
In325 O336 2.294 . S
In325 O337 2.326 . S
O326 In325 2.294 . S
O326 C335 1.240 . S
O327 In325 2.326 . S
O327 C335 1.252 . S
C328 O331 1.252 . S
C328 O332 1.260 . S
C329 O336 1.240 . S
C329 O337 1.252 . S
C330 O333 1.252 . S
C330 O334 1.260 . S
O331 In325 2.266 . S
O331 C328 1.252 . S
O332 In325 2.326 . S
O332 C328 1.260 . S
O333 In325 2.266 . S
O333 C330 1.252 . S
O334 In325 2.326 . S
O334 C330 1.260 . S
C335 O326 1.240 . S
C335 O327 1.252 . S
O336 In325 2.294 . S
O336 C329 1.240 . S
O337 In325 2.326 . S
O337 C329 1.252 . S
In338 O339 2.294 . S
In338 O340 2.326 . S
In338 O344 2.266 . S
In338 O345 2.326 . S
In338 O346 2.266 . S
In338 O347 2.326 . S
In338 O349 2.294 . S
In338 O350 2.326 . S
O339 In338 2.294 . S
O339 C348 1.240 . S
O340 In338 2.326 . S
O340 C348 1.252 . S
C341 O344 1.252 . S
C341 O345 1.260 . S
C342 O349 1.240 . S
C342 O350 1.252 . S
C343 O346 1.252 . S
C343 O347 1.260 . S
O344 In338 2.266 . S
O344 C341 1.252 . S
O345 In338 2.326 . S
O345 C341 1.260 . S
O346 In338 2.266 . S
O346 C343 1.252 . S
O347 In338 2.326 . S
O347 C343 1.260 . S
C348 O339 1.240 . S
C348 O340 1.252 . S
O349 In338 2.294 . S
O349 C342 1.240 . S
O350 In338 2.326 . S
O350 C342 1.252 . S
In351 O352 2.294 . S
In351 O353 2.326 . S
In351 O357 2.266 . S
In351 O358 2.326 . S
In351 O359 2.266 . S
In351 O360 2.326 . S
In351 O362 2.294 . S
In351 O363 2.326 . S
O352 In351 2.294 . S
O352 C361 1.240 . S
O353 In351 2.326 . S
O353 C361 1.252 . S
C354 O357 1.252 . S
C354 O358 1.260 . S
C355 O362 1.240 . S
C355 O363 1.252 . S
C356 O359 1.252 . S
C356 O360 1.260 . S
O357 In351 2.266 . S
O357 C354 1.252 . S
O358 In351 2.326 . S
O358 C354 1.260 . S
O359 In351 2.266 . S
O359 C356 1.252 . S
O360 In351 2.326 . S
O360 C356 1.260 . S
C361 O352 1.240 . S
C361 O353 1.252 . S
O362 In351 2.294 . S
O362 C355 1.240 . S
O363 In351 2.326 . S
O363 C355 1.252 . S
In364 O365 2.294 . S
In364 O366 2.326 . S
In364 O370 2.266 1_565 S
In364 O371 2.326 . S
In364 O372 2.266 . S
In364 O373 2.326 . S
In364 O375 2.294 . S
In364 O376 2.326 . S
O365 In364 2.294 . S
O365 C374 1.240 . S
O366 In364 2.326 . S
O366 C374 1.252 . S
C367 O370 1.252 1_565 S
C367 O371 1.260 . S
C368 O375 1.240 . S
C368 O376 1.252 . S
C369 O372 1.252 . S
C369 O373 1.260 . S
O370 In364 2.266 1_545 S
O370 C367 1.252 1_545 S
O371 In364 2.326 . S
O371 C367 1.260 . S
O372 In364 2.266 . S
O372 C369 1.252 . S
O373 In364 2.326 . S
O373 C369 1.260 . S
C374 O365 1.240 . S
C374 O366 1.252 . S
O375 In364 2.294 . S
O375 C368 1.240 . S
O376 In364 2.326 . S
O376 C368 1.252 . S
In377 O378 2.294 . S
In377 O379 2.326 . S
In377 O383 2.266 . S
In377 O384 2.326 . S
In377 O385 2.266 . S
In377 O386 2.326 . S
In377 O388 2.294 . S
In377 O389 2.326 . S
O378 In377 2.294 . S
O378 C387 1.240 . S
O379 In377 2.326 . S
O379 C387 1.252 . S
C380 O383 1.252 . S
C380 O384 1.260 . S
C381 O388 1.240 . S
C381 O389 1.252 . S
C382 O385 1.252 . S
C382 O386 1.260 . S
O383 In377 2.266 . S
O383 C380 1.252 . S
O384 In377 2.326 . S
O384 C380 1.260 . S
O385 In377 2.266 . S
O385 C382 1.252 . S
O386 In377 2.326 . S
O386 C382 1.260 . S
C387 O378 1.240 . S
C387 O379 1.252 . S
O388 In377 2.294 . S
O388 C381 1.240 . S
O389 In377 2.326 . S
O389 C381 1.252 . S
In390 O391 2.294 . S
In390 O392 2.326 . S
In390 O396 2.266 . S
In390 O397 2.326 . S
In390 O398 2.266 . S
In390 O399 2.326 . S
In390 O401 2.294 . S
In390 O402 2.326 . S
O391 In390 2.294 . S
O391 C400 1.240 . S
O392 In390 2.326 . S
O392 C400 1.252 . S
C393 O396 1.252 . S
C393 O397 1.260 . S
C394 O401 1.240 . S
C394 O402 1.252 . S
C395 O398 1.252 . S
C395 O399 1.260 . S
O396 In390 2.266 . S
O396 C393 1.252 . S
O397 In390 2.326 . S
O397 C393 1.260 . S
O398 In390 2.266 . S
O398 C395 1.252 . S
O399 In390 2.326 . S
O399 C395 1.260 . S
C400 O391 1.240 . S
C400 O392 1.252 . S
O401 In390 2.294 . S
O401 C394 1.240 . S
O402 In390 2.326 . S
O402 C394 1.252 . S
In403 O404 2.294 . S
In403 O405 2.326 . S
In403 O409 2.266 . S
In403 O410 2.326 . S
In403 O411 2.266 1_565 S
In403 O412 2.326 . S
In403 O414 2.294 . S
In403 O415 2.326 . S
O404 In403 2.294 . S
O404 C413 1.240 . S
O405 In403 2.326 . S
O405 C413 1.252 . S
C406 O409 1.252 . S
C406 O410 1.260 . S
C407 O414 1.240 . S
C407 O415 1.252 . S
C408 O411 1.252 1_565 S
C408 O412 1.260 . S
O409 In403 2.266 . S
O409 C406 1.252 . S
O410 In403 2.326 . S
O410 C406 1.260 . S
O411 In403 2.266 1_545 S
O411 C408 1.252 1_545 S
O412 In403 2.326 . S
O412 C408 1.260 . S
C413 O404 1.240 . S
C413 O405 1.252 . S
O414 In403 2.294 . S
O414 C407 1.240 . S
O415 In403 2.326 . S
O415 C407 1.252 . S
In416 O417 2.294 . S
In416 O418 2.326 . S
In416 O422 2.266 . S
In416 O423 2.326 . S
In416 O424 2.266 . S
In416 O425 2.326 . S
In416 O427 2.294 . S
In416 O428 2.326 . S
O417 In416 2.294 . S
O417 C426 1.240 . S
O418 In416 2.326 . S
O418 C426 1.252 . S
C419 O422 1.252 . S
C419 O423 1.260 . S
C420 O427 1.240 . S
C420 O428 1.252 . S
C421 O424 1.252 . S
C421 O425 1.260 . S
O422 In416 2.266 . S
O422 C419 1.252 . S
O423 In416 2.326 . S
O423 C419 1.260 . S
O424 In416 2.266 . S
O424 C421 1.252 . S
O425 In416 2.326 . S
O425 C421 1.260 . S
C426 O417 1.240 . S
C426 O418 1.252 . S
O427 In416 2.294 . S
O427 C420 1.240 . S
O428 In416 2.326 . S
O428 C420 1.252 . S
In429 O430 2.294 . S
In429 O431 2.326 . S
In429 O435 2.266 . S
In429 O436 2.326 . S
In429 O437 2.266 . S
In429 O438 2.326 . S
In429 O440 2.294 . S
In429 O441 2.326 . S
O430 In429 2.294 . S
O430 C439 1.240 . S
O431 In429 2.326 . S
O431 C439 1.252 . S
C432 O435 1.252 . S
C432 O436 1.260 . S
C433 O440 1.240 . S
C433 O441 1.252 . S
C434 O437 1.252 . S
C434 O438 1.260 . S
O435 In429 2.266 . S
O435 C432 1.252 . S
O436 In429 2.326 . S
O436 C432 1.260 . S
O437 In429 2.266 . S
O437 C434 1.252 . S
O438 In429 2.326 . S
O438 C434 1.260 . S
C439 O430 1.240 . S
C439 O431 1.252 . S
O440 In429 2.294 . S
O440 C433 1.240 . S
O441 In429 2.326 . S
O441 C433 1.252 . S
In442 O443 2.294 . S
In442 O444 2.326 . S
In442 O448 2.266 . S
In442 O449 2.326 . S
In442 O450 2.266 . S
In442 O451 2.326 . S
In442 O453 2.294 . S
In442 O454 2.326 . S
O443 In442 2.294 . S
O443 C452 1.240 . S
O444 In442 2.326 . S
O444 C452 1.252 . S
C445 O448 1.252 . S
C445 O449 1.260 . S
C446 O453 1.240 . S
C446 O454 1.252 . S
C447 O450 1.252 . S
C447 O451 1.260 . S
O448 In442 2.266 . S
O448 C445 1.252 . S
O449 In442 2.326 . S
O449 C445 1.260 . S
O450 In442 2.266 . S
O450 C447 1.252 . S
O451 In442 2.326 . S
O451 C447 1.260 . S
C452 O443 1.240 . S
C452 O444 1.252 . S
O453 In442 2.294 . S
O453 C446 1.240 . S
O454 In442 2.326 . S
O454 C446 1.252 . S
In455 O456 2.294 . S
In455 O457 2.326 . S
In455 O461 2.266 . S
In455 O462 2.326 . S
In455 O463 2.266 . S
In455 O464 2.326 . S
In455 O466 2.294 . S
In455 O467 2.326 . S
O456 In455 2.294 . S
O456 C465 1.240 . S
O457 In455 2.326 . S
O457 C465 1.252 . S
C458 O461 1.252 . S
C458 O462 1.260 . S
C459 O466 1.240 . S
C459 O467 1.252 . S
C460 O463 1.252 . S
C460 O464 1.260 . S
O461 In455 2.266 . S
O461 C458 1.252 . S
O462 In455 2.326 . S
O462 C458 1.260 . S
O463 In455 2.266 . S
O463 C460 1.252 . S
O464 In455 2.326 . S
O464 C460 1.260 . S
C465 O456 1.240 . S
C465 O457 1.252 . S
O466 In455 2.294 . S
O466 C459 1.240 . S
O467 In455 2.326 . S
O467 C459 1.252 . S
H468 C474 0.930 . S
H469 C477 0.930 . S
H470 C478 0.930 . S
H471 C479 0.930 . S
H472 C482 0.930 . S
H473 C483 0.930 . S
C474 H468 0.930 . S
C474 C475 1.355 . S
C474 C476 1.415 . S
C475 C474 1.355 . S
C475 C477 1.419 . S
C476 C474 1.415 . S
C476 C481 1.425 . S
C476 C483 1.409 . S
C477 H469 0.930 . S
C477 C475 1.419 . S
C477 C478 1.362 . S
C478 H470 0.930 . S
C478 C477 1.362 . S
C478 C481 1.409 . S
C479 H471 0.930 . S
C479 C480 1.355 . S
C479 C481 1.415 . S
C480 C479 1.355 . S
C480 C482 1.419 . S
C481 C476 1.425 . S
C481 C478 1.409 . S
C481 C479 1.415 . S
C482 H472 0.930 . S
C482 C480 1.419 . S
C482 C483 1.362 . S
C483 H473 0.930 . S
C483 C476 1.409 . S
C483 C482 1.362 . S
H484 C490 0.930 . S
H485 C493 0.930 . S
H486 C494 0.930 . S
H487 C495 0.930 . S
H488 C498 0.930 . S
H489 C499 0.930 . S
C490 H484 0.930 . S
C490 C491 1.355 . S
C490 C492 1.415 . S
C491 C490 1.355 . S
C491 C493 1.419 . S
C492 C490 1.415 . S
C492 C497 1.425 . S
C492 C499 1.409 . S
C493 H485 0.930 . S
C493 C491 1.419 . S
C493 C494 1.362 . S
C494 H486 0.930 . S
C494 C493 1.362 . S
C494 C497 1.409 . S
C495 H487 0.930 . S
C495 C496 1.355 . S
C495 C497 1.415 . S
C496 C495 1.355 . S
C496 C498 1.419 . S
C497 C492 1.425 . S
C497 C494 1.409 . S
C497 C495 1.415 . S
C498 H488 0.930 . S
C498 C496 1.419 . S
C498 C499 1.362 . S
C499 H489 0.930 . S
C499 C492 1.409 . S
C499 C498 1.362 . S
H500 C506 0.930 . S
H501 C509 0.930 . S
H502 C510 0.930 . S
H503 C511 0.930 . S
H504 C514 0.930 . S
H505 C515 0.930 . S
C506 H500 0.930 . S
C506 C507 1.355 . S
C506 C508 1.415 . S
C507 C506 1.355 . S
C507 C509 1.419 . S
C508 C506 1.415 . S
C508 C513 1.425 . S
C508 C515 1.409 . S
C509 H501 0.930 . S
C509 C507 1.419 . S
C509 C510 1.362 . S
C510 H502 0.930 . S
C510 C509 1.362 . S
C510 C513 1.409 . S
C511 H503 0.930 . S
C511 C512 1.355 . S
C511 C513 1.415 . S
C512 C511 1.355 . S
C512 C514 1.419 . S
C513 C508 1.425 . S
C513 C510 1.409 . S
C513 C511 1.415 . S
C514 H504 0.930 . S
C514 C512 1.419 . S
C514 C515 1.362 . S
C515 H505 0.930 . S
C515 C508 1.409 . S
C515 C514 1.362 . S
H516 C522 0.930 . S
H517 C525 0.930 . S
H518 C526 0.930 . S
H519 C527 0.930 . S
H520 C530 0.930 . S
H521 C531 0.930 . S
C522 H516 0.930 . S
C522 C523 1.355 . S
C522 C524 1.415 . S
C523 C522 1.355 . S
C523 C525 1.419 . S
C524 C522 1.415 . S
C524 C529 1.425 . S
C524 C531 1.409 . S
C525 H517 0.930 . S
C525 C523 1.419 . S
C525 C526 1.362 . S
C526 H518 0.930 . S
C526 C525 1.362 . S
C526 C529 1.409 . S
C527 H519 0.930 . S
C527 C528 1.355 . S
C527 C529 1.415 . S
C528 C527 1.355 . S
C528 C530 1.419 . S
C529 C524 1.425 . S
C529 C526 1.409 . S
C529 C527 1.415 . S
C530 H520 0.930 . S
C530 C528 1.419 . S
C530 C531 1.362 . S
C531 H521 0.930 . S
C531 C524 1.409 . S
C531 C530 1.362 . S
H532 C538 0.930 . S
H533 C541 0.930 . S
H534 C542 0.930 . S
H535 C543 0.930 . S
H536 C546 0.930 . S
H537 C547 0.930 . S
C538 H532 0.930 . S
C538 C539 1.355 . S
C538 C540 1.415 . S
C539 C538 1.355 . S
C539 C541 1.419 . S
C540 C538 1.415 . S
C540 C545 1.425 . S
C540 C547 1.409 . S
C541 H533 0.930 . S
C541 C539 1.419 . S
C541 C542 1.362 . S
C542 H534 0.930 . S
C542 C541 1.362 . S
C542 C545 1.409 . S
C543 H535 0.930 . S
C543 C544 1.355 . S
C543 C545 1.415 . S
C544 C543 1.355 . S
C544 C546 1.419 . S
C545 C540 1.425 . S
C545 C542 1.409 . S
C545 C543 1.415 . S
C546 H536 0.930 . S
C546 C544 1.419 . S
C546 C547 1.362 . S
C547 H537 0.930 . S
C547 C540 1.409 . S
C547 C546 1.362 . S
H548 C554 0.930 . S
H549 C557 0.930 . S
H550 C558 0.930 . S
H551 C559 0.930 . S
H552 C562 0.930 . S
H553 C563 0.930 . S
C554 H548 0.930 . S
C554 C555 1.355 . S
C554 C556 1.415 . S
C555 C554 1.355 . S
C555 C557 1.419 . S
C556 C554 1.415 . S
C556 C561 1.425 . S
C556 C563 1.409 . S
C557 H549 0.930 . S
C557 C555 1.419 . S
C557 C558 1.362 . S
C558 H550 0.930 . S
C558 C557 1.362 . S
C558 C561 1.409 . S
C559 H551 0.930 . S
C559 C560 1.355 . S
C559 C561 1.415 . S
C560 C559 1.355 . S
C560 C562 1.419 . S
C561 C556 1.425 . S
C561 C558 1.409 . S
C561 C559 1.415 . S
C562 H552 0.930 . S
C562 C560 1.419 . S
C562 C563 1.362 . S
C563 H553 0.930 . S
C563 C556 1.409 . S
C563 C562 1.362 . S
H564 C570 0.930 . S
H565 C573 0.930 . S
H566 C574 0.930 . S
H567 C575 0.930 . S
H568 C578 0.930 . S
H569 C579 0.930 . S
C570 H564 0.930 . S
C570 C571 1.355 . S
C570 C572 1.415 . S
C571 C570 1.355 . S
C571 C573 1.419 . S
C572 C570 1.415 . S
C572 C577 1.425 . S
C572 C579 1.409 . S
C573 H565 0.930 . S
C573 C571 1.419 . S
C573 C574 1.362 . S
C574 H566 0.930 . S
C574 C573 1.362 . S
C574 C577 1.409 . S
C575 H567 0.930 . S
C575 C576 1.355 . S
C575 C577 1.415 . S
C576 C575 1.355 . S
C576 C578 1.419 . S
C577 C572 1.425 . S
C577 C574 1.409 . S
C577 C575 1.415 . S
C578 H568 0.930 . S
C578 C576 1.419 . S
C578 C579 1.362 . S
C579 H569 0.930 . S
C579 C572 1.409 . S
C579 C578 1.362 . S
H580 C586 0.930 . S
H581 C589 0.930 . S
H582 C590 0.930 . S
H583 C591 0.930 . S
H584 C594 0.930 . S
H585 C595 0.930 . S
C586 H580 0.930 . S
C586 C587 1.355 . S
C586 C588 1.415 . S
C587 C586 1.355 . S
C587 C589 1.419 . S
C588 C586 1.415 . S
C588 C593 1.425 . S
C588 C595 1.409 . S
C589 H581 0.930 . S
C589 C587 1.419 . S
C589 C590 1.362 . S
C590 H582 0.930 . S
C590 C589 1.362 . S
C590 C593 1.409 . S
C591 H583 0.930 . S
C591 C592 1.355 . S
C591 C593 1.415 . S
C592 C591 1.355 . S
C592 C594 1.419 . S
C593 C588 1.425 . S
C593 C590 1.409 . S
C593 C591 1.415 . S
C594 H584 0.930 . S
C594 C592 1.419 . S
C594 C595 1.362 . S
C595 H585 0.930 . S
C595 C588 1.409 . S
C595 C594 1.362 . S
H596 C602 0.930 . S
H597 C605 0.930 . S
H598 C606 0.930 . S
H599 C607 0.930 . S
H600 C610 0.930 . S
H601 C611 0.930 . S
C602 H596 0.930 . S
C602 C603 1.355 . S
C602 C604 1.415 . S
C603 C602 1.355 . S
C603 C605 1.419 . S
C604 C602 1.415 . S
C604 C609 1.425 . S
C604 C611 1.409 . S
C605 H597 0.930 . S
C605 C603 1.419 . S
C605 C606 1.362 . S
C606 H598 0.930 . S
C606 C605 1.362 . S
C606 C609 1.409 . S
C607 H599 0.930 . S
C607 C608 1.355 . S
C607 C609 1.415 . S
C608 C607 1.355 . S
C608 C610 1.419 . S
C609 C604 1.425 . S
C609 C606 1.409 . S
C609 C607 1.415 . S
C610 H600 0.930 . S
C610 C608 1.419 . S
C610 C611 1.362 . S
C611 H601 0.930 . S
C611 C604 1.409 . S
C611 C610 1.362 . S
H612 C618 0.930 . S
H613 C621 0.930 . S
H614 C622 0.930 . S
H615 C623 0.930 . S
H616 C626 0.930 . S
H617 C627 0.930 . S
C618 H612 0.930 . S
C618 C619 1.355 . S
C618 C620 1.415 . S
C619 C618 1.355 . S
C619 C621 1.419 . S
C620 C618 1.415 . S
C620 C625 1.425 . S
C620 C627 1.409 . S
C621 H613 0.930 . S
C621 C619 1.419 . S
C621 C622 1.362 . S
C622 H614 0.930 . S
C622 C621 1.362 . S
C622 C625 1.409 . S
C623 H615 0.930 . S
C623 C624 1.355 . S
C623 C625 1.415 . S
C624 C623 1.355 . S
C624 C626 1.419 . S
C625 C620 1.425 . S
C625 C622 1.409 . S
C625 C623 1.415 . S
C626 H616 0.930 . S
C626 C624 1.419 . S
C626 C627 1.362 . S
C627 H617 0.930 . S
C627 C620 1.409 . S
C627 C626 1.362 . S
H628 C634 0.930 . S
H629 C637 0.930 . S
H630 C638 0.930 . S
H631 C639 0.930 . S
H632 C642 0.930 . S
H633 C643 0.930 . S
C634 H628 0.930 . S
C634 C635 1.355 . S
C634 C636 1.415 . S
C635 C634 1.355 . S
C635 C637 1.419 . S
C636 C634 1.415 . S
C636 C641 1.425 . S
C636 C643 1.409 . S
C637 H629 0.930 . S
C637 C635 1.419 . S
C637 C638 1.362 . S
C638 H630 0.930 . S
C638 C637 1.362 . S
C638 C641 1.409 . S
C639 H631 0.930 . S
C639 C640 1.355 . S
C639 C641 1.415 . S
C640 C639 1.355 . S
C640 C642 1.419 . S
C641 C636 1.425 . S
C641 C638 1.409 . S
C641 C639 1.415 . S
C642 H632 0.930 . S
C642 C640 1.419 . S
C642 C643 1.362 . S
C643 H633 0.930 . S
C643 C636 1.409 . S
C643 C642 1.362 . S
H644 C650 0.930 . S
H645 C653 0.930 . S
H646 C654 0.930 . S
H647 C655 0.930 . S
H648 C658 0.930 . S
H649 C659 0.930 . S
C650 H644 0.930 . S
C650 C651 1.355 . S
C650 C652 1.415 . S
C651 C650 1.355 . S
C651 C653 1.419 . S
C652 C650 1.415 . S
C652 C657 1.425 . S
C652 C659 1.409 . S
C653 H645 0.930 . S
C653 C651 1.419 . S
C653 C654 1.362 . S
C654 H646 0.930 . S
C654 C653 1.362 . S
C654 C657 1.409 . S
C655 H647 0.930 . S
C655 C656 1.355 . S
C655 C657 1.415 . S
C656 C655 1.355 . S
C656 C658 1.419 . S
C657 C652 1.425 . S
C657 C654 1.409 . S
C657 C655 1.415 . S
C658 H648 0.930 . S
C658 C656 1.419 . S
C658 C659 1.362 . S
C659 H649 0.930 . S
C659 C652 1.409 . S
C659 C658 1.362 . S
H660 C666 0.930 1_545 S
H661 C669 0.930 . S
H662 C670 0.930 . S
H663 C671 0.930 . S
H664 C674 0.930 . S
H665 C675 0.930 . S
C666 H660 0.930 1_565 S
C666 C667 1.355 . S
C666 C668 1.415 . S
C667 C666 1.355 . S
C667 C669 1.419 . S
C668 C666 1.415 . S
C668 C673 1.425 . S
C668 C675 1.409 1_565 S
C669 H661 0.930 . S
C669 C667 1.419 . S
C669 C670 1.362 . S
C670 H662 0.930 . S
C670 C669 1.362 . S
C670 C673 1.409 . S
C671 H663 0.930 . S
C671 C672 1.355 . S
C671 C673 1.415 . S
C672 C671 1.355 . S
C672 C674 1.419 1_565 S
C673 C668 1.425 . S
C673 C670 1.409 . S
C673 C671 1.415 . S
C674 H664 0.930 . S
C674 C672 1.419 1_545 S
C674 C675 1.362 . S
C675 H665 0.930 . S
C675 C668 1.409 1_545 S
C675 C674 1.362 . S
H676 C682 0.930 . S
H677 C685 0.930 . S
H678 C686 0.930 . S
H679 C687 0.930 . S
H680 C690 0.930 . S
H681 C691 0.930 . S
C682 H676 0.930 . S
C682 C683 1.355 . S
C682 C684 1.415 . S
C683 C682 1.355 . S
C683 C685 1.419 . S
C684 C682 1.415 . S
C684 C689 1.425 . S
C684 C691 1.409 . S
C685 H677 0.930 . S
C685 C683 1.419 . S
C685 C686 1.362 . S
C686 H678 0.930 . S
C686 C685 1.362 . S
C686 C689 1.409 . S
C687 H679 0.930 . S
C687 C688 1.355 . S
C687 C689 1.415 . S
C688 C687 1.355 . S
C688 C690 1.419 . S
C689 C684 1.425 . S
C689 C686 1.409 . S
C689 C687 1.415 . S
C690 H680 0.930 . S
C690 C688 1.419 . S
C690 C691 1.362 . S
C691 H681 0.930 . S
C691 C684 1.409 . S
C691 C690 1.362 . S
H692 C698 0.930 . S
H693 C701 0.930 . S
H694 C702 0.930 . S
H695 C703 0.930 . S
H696 C706 0.930 . S
H697 C707 0.930 . S
C698 H692 0.930 . S
C698 C699 1.355 . S
C698 C700 1.415 . S
C699 C698 1.355 . S
C699 C701 1.419 . S
C700 C698 1.415 . S
C700 C705 1.425 . S
C700 C707 1.409 . S
C701 H693 0.930 . S
C701 C699 1.419 . S
C701 C702 1.362 . S
C702 H694 0.930 . S
C702 C701 1.362 . S
C702 C705 1.409 . S
C703 H695 0.930 . S
C703 C704 1.355 . S
C703 C705 1.415 . S
C704 C703 1.355 . S
C704 C706 1.419 . S
C705 C700 1.425 . S
C705 C702 1.409 . S
C705 C703 1.415 . S
C706 H696 0.930 . S
C706 C704 1.419 . S
C706 C707 1.362 . S
C707 H697 0.930 . S
C707 C700 1.409 . S
C707 C706 1.362 . S
H708 C714 0.930 . S
H709 C717 0.930 . S
H710 C718 0.930 . S
H711 C719 0.930 . S
H712 C722 0.930 . S
H713 C723 0.930 . S
C714 H708 0.930 . S
C714 C715 1.355 . S
C714 C716 1.415 . S
C715 C714 1.355 . S
C715 C717 1.419 . S
C716 C714 1.415 . S
C716 C721 1.425 . S
C716 C723 1.409 . S
C717 H709 0.930 . S
C717 C715 1.419 . S
C717 C718 1.362 . S
C718 H710 0.930 . S
C718 C717 1.362 . S
C718 C721 1.409 . S
C719 H711 0.930 . S
C719 C720 1.355 . S
C719 C721 1.415 . S
C720 C719 1.355 . S
C720 C722 1.419 . S
C721 C716 1.425 . S
C721 C718 1.409 . S
C721 C719 1.415 . S
C722 H712 0.930 . S
C722 C720 1.419 . S
C722 C723 1.362 . S
C723 H713 0.930 . S
C723 C716 1.409 . S
C723 C722 1.362 . S
H724 C730 0.930 . S
H725 C733 0.930 . S
H726 C734 0.930 . S
H727 C735 0.930 . S
H728 C738 0.930 . S
H729 C739 0.930 . S
C730 H724 0.930 . S
C730 C731 1.355 . S
C730 C732 1.415 . S
C731 C730 1.355 . S
C731 C733 1.419 . S
C732 C730 1.415 . S
C732 C737 1.425 . S
C732 C739 1.409 . S
C733 H725 0.930 . S
C733 C731 1.419 . S
C733 C734 1.362 . S
C734 H726 0.930 . S
C734 C733 1.362 . S
C734 C737 1.409 . S
C735 H727 0.930 . S
C735 C736 1.355 . S
C735 C737 1.415 . S
C736 C735 1.355 . S
C736 C738 1.419 . S
C737 C732 1.425 . S
C737 C734 1.409 . S
C737 C735 1.415 . S
C738 H728 0.930 . S
C738 C736 1.419 . S
C738 C739 1.362 . S
C739 H729 0.930 . S
C739 C732 1.409 . S
C739 C738 1.362 . S
H740 C746 0.930 . S
H741 C749 0.930 . S
H742 C750 0.930 . S
H743 C751 0.930 . S
H744 C754 0.930 . S
H745 C755 0.930 . S
C746 H740 0.930 . S
C746 C747 1.355 . S
C746 C748 1.415 . S
C747 C746 1.355 . S
C747 C749 1.419 . S
C748 C746 1.415 . S
C748 C753 1.425 . S
C748 C755 1.409 . S
C749 H741 0.930 . S
C749 C747 1.419 . S
C749 C750 1.362 . S
C750 H742 0.930 . S
C750 C749 1.362 . S
C750 C753 1.409 . S
C751 H743 0.930 . S
C751 C752 1.355 . S
C751 C753 1.415 . S
C752 C751 1.355 . S
C752 C754 1.419 . S
C753 C748 1.425 . S
C753 C750 1.409 . S
C753 C751 1.415 . S
C754 H744 0.930 . S
C754 C752 1.419 . S
C754 C755 1.362 . S
C755 H745 0.930 . S
C755 C748 1.409 . S
C755 C754 1.362 . S
H756 C762 0.930 . S
H757 C765 0.930 . S
H758 C766 0.930 . S
H759 C767 0.930 . S
H760 C770 0.930 . S
H761 C771 0.930 . S
C762 H756 0.930 . S
C762 C763 1.355 . S
C762 C764 1.415 . S
C763 C762 1.355 . S
C763 C765 1.419 1_455 S
C764 C762 1.415 . S
C764 C769 1.425 1_455 S
C764 C771 1.409 . S
C765 H757 0.930 . S
C765 C763 1.419 1_655 S
C765 C766 1.362 . S
C766 H758 0.930 . S
C766 C765 1.362 . S
C766 C769 1.409 . S
C767 H759 0.930 . S
C767 C768 1.355 . S
C767 C769 1.415 . S
C768 C767 1.355 . S
C768 C770 1.419 1_655 S
C769 C764 1.425 1_655 S
C769 C766 1.409 . S
C769 C767 1.415 . S
C770 H760 0.930 . S
C770 C768 1.419 1_455 S
C770 C771 1.362 . S
C771 H761 0.930 . S
C771 C764 1.409 . S
C771 C770 1.362 . S
H772 C778 0.930 . S
H773 C781 0.930 . S
H774 C782 0.930 . S
H775 C783 0.930 . S
H776 C786 0.930 . S
H777 C787 0.930 . S
C778 H772 0.930 . S
C778 C779 1.355 . S
C778 C780 1.415 . S
C779 C778 1.355 . S
C779 C781 1.419 . S
C780 C778 1.415 . S
C780 C785 1.425 . S
C780 C787 1.409 . S
C781 H773 0.930 . S
C781 C779 1.419 . S
C781 C782 1.362 . S
C782 H774 0.930 . S
C782 C781 1.362 . S
C782 C785 1.409 . S
C783 H775 0.930 . S
C783 C784 1.355 . S
C783 C785 1.415 . S
C784 C783 1.355 . S
C784 C786 1.419 . S
C785 C780 1.425 . S
C785 C782 1.409 . S
C785 C783 1.415 . S
C786 H776 0.930 . S
C786 C784 1.419 . S
C786 C787 1.362 . S
C787 H777 0.930 . S
C787 C780 1.409 . S
C787 C786 1.362 . S
H788 C794 0.930 . S
H789 C797 0.926 1_565 S
H790 C798 0.930 1_565 S
H791 C799 0.930 . S
H792 C802 0.930 . S
H793 C803 0.930 . S
C794 H788 0.930 . S
C794 C795 1.355 . S
C794 C796 1.415 . S
C795 C794 1.355 . S
C795 C797 1.419 . S
C796 C794 1.415 . S
C796 C801 1.425 . S
C796 C803 1.409 . S
C797 H789 0.926 1_545 S
C797 C795 1.419 . S
C797 C798 1.362 . S
C798 H790 0.930 1_545 S
C798 C797 1.362 . S
C798 C801 1.409 . S
C799 H791 0.930 . S
C799 C800 1.355 . S
C799 C801 1.415 . S
C800 C799 1.355 . S
C800 C802 1.419 . S
C801 C796 1.425 . S
C801 C798 1.409 . S
C801 C799 1.415 . S
C802 H792 0.930 . S
C802 C800 1.419 . S
C802 C803 1.362 . S
C803 H793 0.930 . S
C803 C796 1.409 . S
C803 C802 1.362 . S
H804 C810 0.930 . S
H805 C813 0.930 . S
H806 C814 0.930 . S
H807 C815 0.930 . S
H808 C818 0.930 . S
H809 C819 0.930 . S
C810 H804 0.930 . S
C810 C811 1.355 . S
C810 C812 1.415 . S
C811 C810 1.355 . S
C811 C813 1.419 1_545 S
C812 C810 1.415 . S
C812 C817 1.425 1_545 S
C812 C819 1.409 . S
C813 H805 0.930 . S
C813 C811 1.419 1_565 S
C813 C814 1.362 . S
C814 H806 0.930 . S
C814 C813 1.362 . S
C814 C817 1.409 . S
C815 H807 0.930 . S
C815 C816 1.355 . S
C815 C817 1.415 . S
C816 C815 1.355 . S
C816 C818 1.419 1_565 S
C817 C812 1.425 1_565 S
C817 C814 1.409 . S
C817 C815 1.415 . S
C818 H808 0.930 . S
C818 C816 1.419 1_545 S
C818 C819 1.362 . S
C819 H809 0.930 . S
C819 C812 1.409 . S
C819 C818 1.362 . S
H820 C826 0.930 . S
H821 C829 0.930 . S
H822 C830 0.930 . S
H823 C831 0.930 . S
H824 C834 0.930 . S
H825 C835 0.930 . S
C826 H820 0.930 . S
C826 C827 1.355 . S
C826 C828 1.415 . S
C827 C826 1.355 . S
C827 C829 1.419 . S
C828 C826 1.415 . S
C828 C833 1.425 . S
C828 C835 1.409 . S
C829 H821 0.930 . S
C829 C827 1.419 . S
C829 C830 1.362 . S
C830 H822 0.930 . S
C830 C829 1.362 . S
C830 C833 1.409 . S
C831 H823 0.930 . S
C831 C832 1.355 . S
C831 C833 1.415 . S
C832 C831 1.355 . S
C832 C834 1.419 . S
C833 C828 1.425 . S
C833 C830 1.409 . S
C833 C831 1.415 . S
C834 H824 0.930 . S
C834 C832 1.419 . S
C834 C835 1.362 . S
C835 H825 0.930 . S
C835 C828 1.409 . S
C835 C834 1.362 . S
H836 C842 0.930 . S
H837 C845 0.930 . S
H838 C846 0.930 . S
H839 C847 0.930 . S
H840 C850 0.930 . S
H841 C851 0.930 . S
C842 H836 0.930 . S
C842 C843 1.355 . S
C842 C844 1.415 . S
C843 C842 1.355 . S
C843 C845 1.419 . S
C844 C842 1.415 . S
C844 C849 1.425 . S
C844 C851 1.409 . S
C845 H837 0.930 . S
C845 C843 1.419 . S
C845 C846 1.362 . S
C846 H838 0.930 . S
C846 C845 1.362 . S
C846 C849 1.409 . S
C847 H839 0.930 . S
C847 C848 1.355 . S
C847 C849 1.415 . S
C848 C847 1.355 . S
C848 C850 1.419 . S
C849 C844 1.425 . S
C849 C846 1.409 . S
C849 C847 1.415 . S
C850 H840 0.930 . S
C850 C848 1.419 . S
C850 C851 1.362 . S
C851 H841 0.930 . S
C851 C844 1.409 . S
C851 C850 1.362 . S
H852 C858 0.930 . S
H853 C861 0.930 . S
H854 C862 0.930 . S
H855 C863 0.930 . S
H856 C866 0.930 . S
H857 C867 0.970 . S
C858 H852 0.930 . S
C858 C859 1.355 . S
C858 C860 1.415 . S
C859 C858 1.355 . S
C859 C861 1.419 . S
C860 C858 1.415 . S
C860 C865 1.425 . S
C860 C867 1.409 . S
C861 H853 0.930 . S
C861 C859 1.419 . S
C861 C862 1.362 . S
C862 H854 0.930 . S
C862 C861 1.362 . S
C862 C865 1.409 . S
C863 H855 0.930 . S
C863 C864 1.355 . S
C863 C865 1.415 . S
C864 C863 1.355 . S
C864 C866 1.419 . S
C865 C860 1.425 . S
C865 C862 1.409 . S
C865 C863 1.415 . S
C866 H856 0.930 . S
C866 C864 1.419 . S
C866 C867 1.362 . S
C867 H857 0.970 . S
C867 C860 1.409 . S
C867 C866 1.362 . S
H868 C874 0.930 . S
H869 C877 0.930 . S
H870 C878 0.930 . S
H871 C879 0.930 . S
H872 C882 0.930 . S
H873 C883 0.930 . S
C874 H868 0.930 . S
C874 C875 1.355 . S
C874 C876 1.415 . S
C875 C874 1.355 . S
C875 C877 1.419 . S
C876 C874 1.415 . S
C876 C881 1.425 . S
C876 C883 1.409 . S
C877 H869 0.930 . S
C877 C875 1.419 . S
C877 C878 1.362 . S
C878 H870 0.930 . S
C878 C877 1.362 . S
C878 C881 1.409 . S
C879 H871 0.930 . S
C879 C880 1.355 . S
C879 C881 1.415 . S
C880 C879 1.355 . S
C880 C882 1.419 . S
C881 C876 1.425 . S
C881 C878 1.409 . S
C881 C879 1.415 . S
C882 H872 0.930 . S
C882 C880 1.419 . S
C882 C883 1.362 . S
C883 H873 0.930 . S
C883 C876 1.409 . S
C883 C882 1.362 . S
H884 C890 0.930 . S
H885 C893 0.930 . S
H886 C894 0.930 . S
H887 C895 0.930 . S
H888 C898 0.930 . S
H889 C899 0.930 . S
C890 H884 0.930 . S
C890 C891 1.355 . S
C890 C892 1.415 . S
C891 C890 1.355 . S
C891 C893 1.419 1_545 S
C892 C890 1.415 . S
C892 C897 1.425 1_545 S
C892 C899 1.409 . S
C893 H885 0.930 . S
C893 C891 1.419 1_565 S
C893 C894 1.362 . S
C894 H886 0.930 . S
C894 C893 1.362 . S
C894 C897 1.409 . S
C895 H887 0.930 . S
C895 C896 1.355 . S
C895 C897 1.415 . S
C896 C895 1.355 . S
C896 C898 1.419 1_565 S
C897 C892 1.425 1_565 S
C897 C894 1.409 . S
C897 C895 1.415 . S
C898 H888 0.930 . S
C898 C896 1.419 1_545 S
C898 C899 1.362 . S
C899 H889 0.930 . S
C899 C892 1.409 . S
C899 C898 1.362 . S
H900 C906 0.930 . S
H901 C909 0.930 . S
H902 C910 0.930 . S
H903 C911 0.930 . S
H904 C914 0.930 . S
H905 C915 0.930 . S
C906 H900 0.930 . S
C906 C907 1.355 . S
C906 C908 1.415 . S
C907 C906 1.355 . S
C907 C909 1.419 . S
C908 C906 1.415 . S
C908 C913 1.425 . S
C908 C915 1.409 . S
C909 H901 0.930 . S
C909 C907 1.419 . S
C909 C910 1.362 . S
C910 H902 0.930 . S
C910 C909 1.362 . S
C910 C913 1.409 . S
C911 H903 0.930 . S
C911 C912 1.355 . S
C911 C913 1.415 . S
C912 C911 1.355 . S
C912 C914 1.419 . S
C913 C908 1.425 . S
C913 C910 1.409 . S
C913 C911 1.415 . S
C914 H904 0.930 . S
C914 C912 1.419 . S
C914 C915 1.362 . S
C915 H905 0.930 . S
C915 C908 1.409 . S
C915 C914 1.362 . S
H916 C922 0.930 . S
H917 C925 0.930 . S
H918 C926 0.930 . S
H919 C927 0.930 . S
H920 C930 0.930 . S
H921 C931 0.930 . S
C922 H916 0.930 . S
C922 C923 1.355 1_655 S
C922 C924 1.415 . S
C923 C922 1.355 1_455 S
C923 C925 1.419 . S
C924 C922 1.415 . S
C924 C929 1.425 1_655 S
C924 C931 1.409 . S
C925 H917 0.930 . S
C925 C923 1.419 . S
C925 C926 1.362 . S
C926 H918 0.930 . S
C926 C925 1.362 . S
C926 C929 1.409 . S
C927 H919 0.930 . S
C927 C928 1.355 1_455 S
C927 C929 1.415 . S
C928 C927 1.355 1_655 S
C928 C930 1.419 . S
C929 C924 1.425 1_455 S
C929 C926 1.409 . S
C929 C927 1.415 . S
C930 H920 0.930 . S
C930 C928 1.419 . S
C930 C931 1.362 . S
C931 H921 0.930 . S
C931 C924 1.409 . S
C931 C930 1.362 . S
H932 C938 0.930 . S
H933 C941 0.930 . S
H934 C942 0.930 . S
H935 C943 0.930 . S
H936 C946 0.930 . S
H937 C947 0.930 . S
C938 H932 0.930 . S
C938 C939 1.355 . S
C938 C940 1.415 . S
C939 C938 1.355 . S
C939 C941 1.419 . S
C940 C938 1.415 . S
C940 C945 1.425 . S
C940 C947 1.409 . S
C941 H933 0.930 . S
C941 C939 1.419 . S
C941 C942 1.362 . S
C942 H934 0.930 . S
C942 C941 1.362 . S
C942 C945 1.409 . S
C943 H935 0.930 . S
C943 C944 1.355 . S
C943 C945 1.415 . S
C944 C943 1.355 . S
C944 C946 1.419 . S
C945 C940 1.425 . S
C945 C942 1.409 . S
C945 C943 1.415 . S
C946 H936 0.930 . S
C946 C944 1.419 . S
C946 C947 1.362 . S
C947 H937 0.930 . S
C947 C940 1.409 . S
C947 C946 1.362 . S
H948 C954 0.930 . S
H949 C957 0.930 . S
H950 C958 0.930 . S
H951 C959 0.930 . S
H952 C962 0.930 . S
H953 C963 0.930 . S
C954 H948 0.930 . S
C954 C955 1.355 . S
C954 C956 1.415 . S
C955 C954 1.355 . S
C955 C957 1.419 . S
C956 C954 1.415 . S
C956 C961 1.425 . S
C956 C963 1.409 . S
C957 H949 0.930 . S
C957 C955 1.419 . S
C957 C958 1.362 . S
C958 H950 0.930 . S
C958 C957 1.362 . S
C958 C961 1.409 . S
C959 H951 0.930 . S
C959 C960 1.355 . S
C959 C961 1.415 . S
C960 C959 1.355 . S
C960 C962 1.419 . S
C961 C956 1.425 . S
C961 C958 1.409 . S
C961 C959 1.415 . S
C962 H952 0.930 . S
C962 C960 1.419 . S
C962 C963 1.362 . S
C963 H953 0.930 . S
C963 C956 1.409 . S
C963 C962 1.362 . S
H964 C970 0.930 . S
H965 C973 0.930 . S
H966 C974 0.930 1_565 S
H967 C975 0.930 1_565 S
H968 C978 0.930 . S
H969 C979 0.930 . S
C970 H964 0.930 . S
C970 C971 1.355 . S
C970 C972 1.415 . S
C971 C970 1.355 . S
C971 C973 1.419 . S
C972 C970 1.415 . S
C972 C977 1.425 . S
C972 C979 1.409 . S
C973 H965 0.930 . S
C973 C971 1.419 . S
C973 C974 1.362 . S
C974 H966 0.930 1_545 S
C974 C973 1.362 . S
C974 C977 1.409 . S
C975 H967 0.930 1_545 S
C975 C976 1.355 . S
C975 C977 1.415 . S
C976 C975 1.355 . S
C976 C978 1.419 . S
C977 C972 1.425 . S
C977 C974 1.409 . S
C977 C975 1.415 . S
C978 H968 0.930 . S
C978 C976 1.419 . S
C978 C979 1.362 . S
C979 H969 0.930 . S
C979 C972 1.409 . S
C979 C978 1.362 . S
H980 C986 0.930 . S
H981 C989 0.930 . S
H982 C990 0.930 . S
H983 C991 0.930 . S
H984 C994 0.930 . S
H985 C995 0.930 . S
C986 H980 0.930 . S
C986 C987 1.355 1_655 S
C986 C988 1.415 1_655 S
C987 C986 1.355 1_455 S
C987 C989 1.419 . S
C988 C986 1.415 1_455 S
C988 C993 1.425 . S
C988 C995 1.409 1_455 S
C989 H981 0.930 . S
C989 C987 1.419 . S
C989 C990 1.362 . S
C990 H982 0.930 . S
C990 C989 1.362 . S
C990 C993 1.409 . S
C991 H983 0.930 . S
C991 C992 1.355 . S
C991 C993 1.415 . S
C992 C991 1.355 . S
C992 C994 1.419 . S
C993 C988 1.425 . S
C993 C990 1.409 . S
C993 C991 1.415 . S
C994 H984 0.930 . S
C994 C992 1.419 . S
C994 C995 1.362 1_455 S
C995 H985 0.930 . S
C995 C988 1.409 1_655 S
C995 C994 1.362 1_655 S
H996 C1002 0.930 . S
H997 C1005 0.930 . S
H998 C1006 0.930 . S
H999 C1007 0.930 . S
H1000 C1010 0.930 . S
H1001 C1011 0.930 . S
C1002 H996 0.930 . S
C1002 C1003 1.355 . S
C1002 C1004 1.415 . S
C1003 C1002 1.355 . S
C1003 C1005 1.419 . S
C1004 C1002 1.415 . S
C1004 C1009 1.425 . S
C1004 C1011 1.409 . S
C1005 H997 0.930 . S
C1005 C1003 1.419 . S
C1005 C1006 1.362 . S
C1006 H998 0.930 . S
C1006 C1005 1.362 . S
C1006 C1009 1.409 . S
C1007 H999 0.930 . S
C1007 C1008 1.355 . S
C1007 C1009 1.415 . S
C1008 C1007 1.355 . S
C1008 C1010 1.419 . S
C1009 C1004 1.425 . S
C1009 C1006 1.409 . S
C1009 C1007 1.415 . S
C1010 H1000 0.930 . S
C1010 C1008 1.419 . S
C1010 C1011 1.362 . S
C1011 H1001 0.930 . S
C1011 C1004 1.409 . S
C1011 C1010 1.362 . S
H1012 C1018 0.930 1_565 S
H1013 C1021 0.930 . S
H1014 C1022 0.930 . S
H1015 C1023 0.930 . S
H1016 C1026 0.930 . S
H1017 C1027 0.930 1_565 S
C1018 H1012 0.930 1_545 S
C1018 C1019 1.355 . S
C1018 C1020 1.415 . S
C1019 C1018 1.355 . S
C1019 C1021 1.419 . S
C1020 C1018 1.415 . S
C1020 C1025 1.425 . S
C1020 C1027 1.409 . S
C1021 H1013 0.930 . S
C1021 C1019 1.419 . S
C1021 C1022 1.362 . S
C1022 H1014 0.930 . S
C1022 C1021 1.362 . S
C1022 C1025 1.409 . S
C1023 H1015 0.930 . S
C1023 C1024 1.355 . S
C1023 C1025 1.415 . S
C1024 C1023 1.355 . S
C1024 C1026 1.419 . S
C1025 C1020 1.425 . S
C1025 C1022 1.409 . S
C1025 C1023 1.415 . S
C1026 H1016 0.930 . S
C1026 C1024 1.419 . S
C1026 C1027 1.362 . S
C1027 H1017 0.930 1_545 S
C1027 C1020 1.409 . S
C1027 C1026 1.362 . S
H1028 C1034 0.930 . S
H1029 C1037 0.930 1_655 S
H1030 C1038 0.930 . S
H1031 C1039 0.930 . S
H1032 C1042 0.930 . S
H1033 C1043 0.930 . S
C1034 H1028 0.930 . S
C1034 C1035 1.355 . S
C1034 C1036 1.415 . S
C1035 C1034 1.355 . S
C1035 C1037 1.419 . S
C1036 C1034 1.415 . S
C1036 C1041 1.425 . S
C1036 C1043 1.409 . S
C1037 H1029 0.930 1_455 S
C1037 C1035 1.419 . S
C1037 C1038 1.362 . S
C1038 H1030 0.930 . S
C1038 C1037 1.362 . S
C1038 C1041 1.409 . S
C1039 H1031 0.930 . S
C1039 C1040 1.355 . S
C1039 C1041 1.415 . S
C1040 C1039 1.355 . S
C1040 C1042 1.419 . S
C1041 C1036 1.425 . S
C1041 C1038 1.409 . S
C1041 C1039 1.415 . S
C1042 H1032 0.930 . S
C1042 C1040 1.419 . S
C1042 C1043 1.362 . S
C1043 H1033 0.930 . S
C1043 C1036 1.409 . S
C1043 C1042 1.362 . S
H1044 C1050 0.930 . S
H1045 C1053 0.930 . S
H1046 C1054 0.930 1_655 S
H1047 C1055 0.930 . S
H1048 C1058 0.930 . S
H1049 C1059 0.930 . S
C1050 H1044 0.930 . S
C1050 C1051 1.355 . S
C1050 C1052 1.415 . S
C1051 C1050 1.355 . S
C1051 C1053 1.419 . S
C1052 C1050 1.415 . S
C1052 C1057 1.425 1_554 S
C1052 C1059 1.409 1_554 S
C1053 H1045 0.930 . S
C1053 C1051 1.419 . S
C1053 C1054 1.362 . S
C1054 H1046 0.930 1_455 S
C1054 C1053 1.362 . S
C1054 C1057 1.409 1_554 S
C1055 H1047 0.930 . S
C1055 C1056 1.355 . S
C1055 C1057 1.415 . S
C1056 C1055 1.355 . S
C1056 C1058 1.419 . S
C1057 C1052 1.425 1_556 S
C1057 C1054 1.409 1_556 S
C1057 C1055 1.415 . S
C1058 H1048 0.930 . S
C1058 C1056 1.419 . S
C1058 C1059 1.362 . S
C1059 H1049 0.930 . S
C1059 C1052 1.409 1_556 S
C1059 C1058 1.362 . S
H1060 C1066 0.930 . S
H1061 C1069 0.930 . S
H1062 C1070 0.930 . S
H1063 C1071 0.930 . S
H1064 C1074 0.930 . S
H1065 C1075 0.930 . S
C1066 H1060 0.930 . S
C1066 C1067 1.355 . S
C1066 C1068 1.415 . S
C1067 C1066 1.355 . S
C1067 C1069 1.419 . S
C1068 C1066 1.415 . S
C1068 C1073 1.425 1_556 S
C1068 C1075 1.409 1_556 S
C1069 H1061 0.930 . S
C1069 C1067 1.419 . S
C1069 C1070 1.362 . S
C1070 H1062 0.930 . S
C1070 C1069 1.362 . S
C1070 C1073 1.409 1_556 S
C1071 H1063 0.930 . S
C1071 C1072 1.355 . S
C1071 C1073 1.415 . S
C1072 C1071 1.355 . S
C1072 C1074 1.419 . S
C1073 C1068 1.425 1_554 S
C1073 C1070 1.409 1_554 S
C1073 C1071 1.415 . S
C1074 H1064 0.930 . S
C1074 C1072 1.419 . S
C1074 C1075 1.362 . S
C1075 H1065 0.930 . S
C1075 C1068 1.409 1_554 S
C1075 C1074 1.362 . S
H1076 C1082 0.930 . S
H1077 C1085 0.930 . S
H1078 C1086 0.930 . S
H1079 C1087 0.930 . S
H1080 C1090 0.930 . S
H1081 C1091 0.930 . S
C1082 H1076 0.930 . S
C1082 C1083 1.355 . S
C1082 C1084 1.415 . S
C1083 C1082 1.355 . S
C1083 C1085 1.419 . S
C1084 C1082 1.415 . S
C1084 C1089 1.425 1_556 S
C1084 C1091 1.409 1_556 S
C1085 H1077 0.930 . S
C1085 C1083 1.419 . S
C1085 C1086 1.362 . S
C1086 H1078 0.930 . S
C1086 C1085 1.362 . S
C1086 C1089 1.409 1_556 S
C1087 H1079 0.930 . S
C1087 C1088 1.355 . S
C1087 C1089 1.415 . S
C1088 C1087 1.355 . S
C1088 C1090 1.419 . S
C1089 C1084 1.425 1_554 S
C1089 C1086 1.409 1_554 S
C1089 C1087 1.415 . S
C1090 H1080 0.930 . S
C1090 C1088 1.419 . S
C1090 C1091 1.362 . S
C1091 H1081 0.930 . S
C1091 C1084 1.409 1_554 S
C1091 C1090 1.362 . S
H1092 C1098 0.930 . S
H1093 C1101 0.930 . S
H1094 C1102 0.930 . S
H1095 C1103 0.930 . S
H1096 C1106 0.930 . S
H1097 C1107 0.930 . S
C1098 H1092 0.930 . S
C1098 C1099 1.355 . S
C1098 C1100 1.415 . S
C1099 C1098 1.355 . S
C1099 C1101 1.419 . S
C1100 C1098 1.415 . S
C1100 C1105 1.425 1_556 S
C1100 C1107 1.409 1_556 S
C1101 H1093 0.930 . S
C1101 C1099 1.419 . S
C1101 C1102 1.362 . S
C1102 H1094 0.930 . S
C1102 C1101 1.362 . S
C1102 C1105 1.409 1_556 S
C1103 H1095 0.930 . S
C1103 C1104 1.355 . S
C1103 C1105 1.415 . S
C1104 C1103 1.355 . S
C1104 C1106 1.419 . S
C1105 C1100 1.425 1_554 S
C1105 C1102 1.409 1_554 S
C1105 C1103 1.415 . S
C1106 H1096 0.930 . S
C1106 C1104 1.419 . S
C1106 C1107 1.362 . S
C1107 H1097 0.930 . S
C1107 C1100 1.409 1_554 S
C1107 C1106 1.362 . S
H1108 C1114 0.930 . S
H1109 C1117 0.930 . S
H1110 C1118 0.930 . S
H1111 C1119 0.930 . S
H1112 C1122 0.930 . S
H1113 C1123 0.930 . S
C1114 H1108 0.930 . S
C1114 C1115 1.355 . S
C1114 C1116 1.415 . S
C1115 C1114 1.355 . S
C1115 C1117 1.419 . S
C1116 C1114 1.415 . S
C1116 C1121 1.425 1_554 S
C1116 C1123 1.409 1_554 S
C1117 H1109 0.930 . S
C1117 C1115 1.419 . S
C1117 C1118 1.362 . S
C1118 H1110 0.930 . S
C1118 C1117 1.362 . S
C1118 C1121 1.409 1_554 S
C1119 H1111 0.930 . S
C1119 C1120 1.355 . S
C1119 C1121 1.415 . S
C1120 C1119 1.355 . S
C1120 C1122 1.419 . S
C1121 C1116 1.425 1_556 S
C1121 C1118 1.409 1_556 S
C1121 C1119 1.415 . S
C1122 H1112 0.930 . S
C1122 C1120 1.419 . S
C1122 C1123 1.362 . S
C1123 H1113 0.930 . S
C1123 C1116 1.409 1_556 S
C1123 C1122 1.362 . S
H1124 C1130 0.930 . S
H1125 C1133 0.930 . S
H1126 C1134 0.930 . S
H1127 C1135 0.930 . S
H1128 C1138 0.930 . S
H1129 C1139 0.930 . S
C1130 H1124 0.930 . S
C1130 C1131 1.355 . S
C1130 C1132 1.415 . S
C1131 C1130 1.355 . S
C1131 C1133 1.419 . S
C1132 C1130 1.415 . S
C1132 C1137 1.425 1_556 S
C1132 C1139 1.409 1_556 S
C1133 H1125 0.930 . S
C1133 C1131 1.419 . S
C1133 C1134 1.362 . S
C1134 H1126 0.930 . S
C1134 C1133 1.362 . S
C1134 C1137 1.409 1_556 S
C1135 H1127 0.930 . S
C1135 C1136 1.355 . S
C1135 C1137 1.415 . S
C1136 C1135 1.355 . S
C1136 C1138 1.419 . S
C1137 C1132 1.425 1_554 S
C1137 C1134 1.409 1_554 S
C1137 C1135 1.415 . S
C1138 H1128 0.930 . S
C1138 C1136 1.419 . S
C1138 C1139 1.362 . S
C1139 H1129 0.930 . S
C1139 C1132 1.409 1_554 S
C1139 C1138 1.362 . S
H1140 C1146 0.930 . S
H1141 C1149 0.930 . S
H1142 C1150 0.930 . S
H1143 C1151 0.930 . S
H1144 C1154 0.930 . S
H1145 C1155 0.930 . S
C1146 H1140 0.930 . S
C1146 C1147 1.355 . S
C1146 C1148 1.415 . S
C1147 C1146 1.355 . S
C1147 C1149 1.419 . S
C1148 C1146 1.415 . S
C1148 C1153 1.425 . S
C1148 C1155 1.409 . S
C1149 H1141 0.930 . S
C1149 C1147 1.419 . S
C1149 C1150 1.362 . S
C1150 H1142 0.930 . S
C1150 C1149 1.362 . S
C1150 C1153 1.409 . S
C1151 H1143 0.930 . S
C1151 C1152 1.355 . S
C1151 C1153 1.415 . S
C1152 C1151 1.355 . S
C1152 C1154 1.419 . S
C1153 C1148 1.425 . S
C1153 C1150 1.409 . S
C1153 C1151 1.415 . S
C1154 H1144 0.930 . S
C1154 C1152 1.419 . S
C1154 C1155 1.362 . S
C1155 H1145 0.930 . S
C1155 C1148 1.409 . S
C1155 C1154 1.362 . S
H1156 C1162 0.930 . S
H1157 C1165 0.930 . S
H1158 C1166 0.930 . S
H1159 C1167 0.930 . S
H1160 C1170 0.930 . S
H1161 C1171 0.930 . S
C1162 H1156 0.930 . S
C1162 C1163 1.355 . S
C1162 C1164 1.415 . S
C1163 C1162 1.355 . S
C1163 C1165 1.419 . S
C1164 C1162 1.415 . S
C1164 C1169 1.425 . S
C1164 C1171 1.409 . S
C1165 H1157 0.930 . S
C1165 C1163 1.419 . S
C1165 C1166 1.362 . S
C1166 H1158 0.930 . S
C1166 C1165 1.362 . S
C1166 C1169 1.409 . S
C1167 H1159 0.930 . S
C1167 C1168 1.355 . S
C1167 C1169 1.415 . S
C1168 C1167 1.355 . S
C1168 C1170 1.419 . S
C1169 C1164 1.425 . S
C1169 C1166 1.409 . S
C1169 C1167 1.415 . S
C1170 H1160 0.930 . S
C1170 C1168 1.419 . S
C1170 C1171 1.362 . S
C1171 H1161 0.930 . S
C1171 C1164 1.409 . S
C1171 C1170 1.362 . S
H1172 C1178 0.930 . S
H1173 C1181 0.930 . S
H1174 C1182 0.930 . S
H1175 C1183 0.930 . S
H1176 C1186 0.930 . S
H1177 C1187 0.930 . S
C1178 H1172 0.930 . S
C1178 C1179 1.355 . S
C1178 C1180 1.415 . S
C1179 C1178 1.355 . S
C1179 C1181 1.419 . S
C1180 C1178 1.415 . S
C1180 C1185 1.425 . S
C1180 C1187 1.409 . S
C1181 H1173 0.930 . S
C1181 C1179 1.419 . S
C1181 C1182 1.362 . S
C1182 H1174 0.930 . S
C1182 C1181 1.362 . S
C1182 C1185 1.409 . S
C1183 H1175 0.930 . S
C1183 C1184 1.355 . S
C1183 C1185 1.415 . S
C1184 C1183 1.355 . S
C1184 C1186 1.419 . S
C1185 C1180 1.425 . S
C1185 C1182 1.409 . S
C1185 C1183 1.415 . S
C1186 H1176 0.930 . S
C1186 C1184 1.419 . S
C1186 C1187 1.362 . S
C1187 H1177 0.930 . S
C1187 C1180 1.409 . S
C1187 C1186 1.362 . S
H1188 C1194 0.930 . S
H1189 C1197 0.930 . S
H1190 C1198 0.930 . S
H1191 C1199 0.930 . S
H1192 C1202 0.930 . S
H1193 C1203 0.930 . S
C1194 H1188 0.930 . S
C1194 C1195 1.355 . S
C1194 C1196 1.415 . S
C1195 C1194 1.355 . S
C1195 C1197 1.419 . S
C1196 C1194 1.415 . S
C1196 C1201 1.425 . S
C1196 C1203 1.409 . S
C1197 H1189 0.930 . S
C1197 C1195 1.419 . S
C1197 C1198 1.362 . S
C1198 H1190 0.930 . S
C1198 C1197 1.362 . S
C1198 C1201 1.409 . S
C1199 H1191 0.930 . S
C1199 C1200 1.355 . S
C1199 C1201 1.415 . S
C1200 C1199 1.355 . S
C1200 C1202 1.419 . S
C1201 C1196 1.425 . S
C1201 C1198 1.409 . S
C1201 C1199 1.415 . S
C1202 H1192 0.930 . S
C1202 C1200 1.419 . S
C1202 C1203 1.362 . S
C1203 H1193 0.930 . S
C1203 C1196 1.409 . S
C1203 C1202 1.362 . S
H1204 C1210 0.930 . S
H1205 C1213 0.930 . S
H1206 C1214 0.930 . S
H1207 C1215 0.930 . S
H1208 C1218 0.930 . S
H1209 C1219 0.930 . S
C1210 H1204 0.930 . S
C1210 C1211 1.355 . S
C1210 C1212 1.415 . S
C1211 C1210 1.355 . S
C1211 C1213 1.419 . S
C1212 C1210 1.415 . S
C1212 C1217 1.425 . S
C1212 C1219 1.409 . S
C1213 H1205 0.930 . S
C1213 C1211 1.419 . S
C1213 C1214 1.362 . S
C1214 H1206 0.930 . S
C1214 C1213 1.362 . S
C1214 C1217 1.409 . S
C1215 H1207 0.930 . S
C1215 C1216 1.355 . S
C1215 C1217 1.415 . S
C1216 C1215 1.355 . S
C1216 C1218 1.419 . S
C1217 C1212 1.425 . S
C1217 C1214 1.409 . S
C1217 C1215 1.415 . S
C1218 H1208 0.930 . S
C1218 C1216 1.419 . S
C1218 C1219 1.362 . S
C1219 H1209 0.930 . S
C1219 C1212 1.409 . S
C1219 C1218 1.362 . S
H1220 C1226 0.930 . S
H1221 C1229 0.930 . S
H1222 C1230 0.930 . S
H1223 C1231 0.930 . S
H1224 C1234 0.930 . S
H1225 C1235 0.930 . S
C1226 H1220 0.930 . S
C1226 C1227 1.355 . S
C1226 C1228 1.415 . S
C1227 C1226 1.355 . S
C1227 C1229 1.419 . S
C1228 C1226 1.415 . S
C1228 C1233 1.425 . S
C1228 C1235 1.409 . S
C1229 H1221 0.930 . S
C1229 C1227 1.419 . S
C1229 C1230 1.362 . S
C1230 H1222 0.930 . S
C1230 C1229 1.362 . S
C1230 C1233 1.409 . S
C1231 H1223 0.930 . S
C1231 C1232 1.355 . S
C1231 C1233 1.415 . S
C1232 C1231 1.355 . S
C1232 C1234 1.419 . S
C1233 C1228 1.425 . S
C1233 C1230 1.409 . S
C1233 C1231 1.415 . S
C1234 H1224 0.930 . S
C1234 C1232 1.419 . S
C1234 C1235 1.362 . S
C1235 H1225 0.930 . S
C1235 C1228 1.409 . S
C1235 C1234 1.362 . S
H1236 C1242 0.930 . S
H1237 C1245 0.930 . S
H1238 C1246 0.930 . S
H1239 C1247 0.930 1_545 S
H1240 C1250 0.930 . S
H1241 C1251 0.930 . S
C1242 H1236 0.930 . S
C1242 C1243 1.355 . S
C1242 C1244 1.415 . S
C1243 C1242 1.355 . S
C1243 C1245 1.419 1_565 S
C1244 C1242 1.415 . S
C1244 C1249 1.425 . S
C1244 C1251 1.409 . S
C1245 H1237 0.930 . S
C1245 C1243 1.419 1_545 S
C1245 C1246 1.362 . S
C1246 H1238 0.930 . S
C1246 C1245 1.362 . S
C1246 C1249 1.409 1_545 S
C1247 H1239 0.930 1_565 S
C1247 C1248 1.355 . S
C1247 C1249 1.415 . S
C1248 C1247 1.355 . S
C1248 C1250 1.419 . S
C1249 C1244 1.425 . S
C1249 C1246 1.409 1_565 S
C1249 C1247 1.415 . S
C1250 H1240 0.930 . S
C1250 C1248 1.419 . S
C1250 C1251 1.362 . S
C1251 H1241 0.930 . S
C1251 C1244 1.409 . S
C1251 C1250 1.362 . S
H1252 C1258 0.930 . S
H1253 C1261 0.930 . S
H1254 C1262 0.930 . S
H1255 C1263 0.930 . S
H1256 C1266 0.930 . S
H1257 C1267 0.930 . S
C1258 H1252 0.930 . S
C1258 C1259 1.355 . S
C1258 C1260 1.415 . S
C1259 C1258 1.355 . S
C1259 C1261 1.419 . S
C1260 C1258 1.415 . S
C1260 C1265 1.425 . S
C1260 C1267 1.409 . S
C1261 H1253 0.930 . S
C1261 C1259 1.419 . S
C1261 C1262 1.362 . S
C1262 H1254 0.930 . S
C1262 C1261 1.362 . S
C1262 C1265 1.409 . S
C1263 H1255 0.930 . S
C1263 C1264 1.355 . S
C1263 C1265 1.415 . S
C1264 C1263 1.355 . S
C1264 C1266 1.419 . S
C1265 C1260 1.425 . S
C1265 C1262 1.409 . S
C1265 C1263 1.415 . S
C1266 H1256 0.930 . S
C1266 C1264 1.419 . S
C1266 C1267 1.362 . S
C1267 H1257 0.930 . S
C1267 C1260 1.409 . S
C1267 C1266 1.362 . S
H1268 C1274 0.930 . S
H1269 C1277 0.930 . S
H1270 C1278 0.930 . S
H1271 C1279 0.930 . S
H1272 C1282 0.930 . S
H1273 C1283 0.930 . S
C1274 H1268 0.930 . S
C1274 C1275 1.355 . S
C1274 C1276 1.415 . S
C1275 C1274 1.355 . S
C1275 C1277 1.419 . S
C1276 C1274 1.415 . S
C1276 C1281 1.425 . S
C1276 C1283 1.409 . S
C1277 H1269 0.930 . S
C1277 C1275 1.419 . S
C1277 C1278 1.362 . S
C1278 H1270 0.930 . S
C1278 C1277 1.362 . S
C1278 C1281 1.409 . S
C1279 H1271 0.930 . S
C1279 C1280 1.355 . S
C1279 C1281 1.415 . S
C1280 C1279 1.355 . S
C1280 C1282 1.419 . S
C1281 C1276 1.425 . S
C1281 C1278 1.409 . S
C1281 C1279 1.415 . S
C1282 H1272 0.930 . S
C1282 C1280 1.419 . S
C1282 C1283 1.362 . S
C1283 H1273 0.930 . S
C1283 C1276 1.409 . S
C1283 C1282 1.362 . S
H1284 C1290 0.930 . S
H1285 C1293 0.930 . S
H1286 C1294 0.930 . S
H1287 C1295 0.930 . S
H1288 C1298 0.930 . S
H1289 C1299 0.930 . S
C1290 H1284 0.930 . S
C1290 C1291 1.355 . S
C1290 C1292 1.415 . S
C1291 C1290 1.355 . S
C1291 C1293 1.419 . S
C1292 C1290 1.415 . S
C1292 C1297 1.425 . S
C1292 C1299 1.409 . S
C1293 H1285 0.930 . S
C1293 C1291 1.419 . S
C1293 C1294 1.362 . S
C1294 H1286 0.930 . S
C1294 C1293 1.362 . S
C1294 C1297 1.409 . S
C1295 H1287 0.930 . S
C1295 C1296 1.355 . S
C1295 C1297 1.415 . S
C1296 C1295 1.355 . S
C1296 C1298 1.419 . S
C1297 C1292 1.425 . S
C1297 C1294 1.409 . S
C1297 C1295 1.415 . S
C1298 H1288 0.930 . S
C1298 C1296 1.419 . S
C1298 C1299 1.362 . S
C1299 H1289 0.930 . S
C1299 C1292 1.409 . S
C1299 C1298 1.362 . S
H1300 C1306 0.930 1_545 S
H1301 C1309 0.930 . S
H1302 C1310 0.930 . S
H1303 C1311 0.930 . S
H1304 C1314 0.930 . S
H1305 C1315 0.930 . S
C1306 H1300 0.930 1_565 S
C1306 C1307 1.355 . S
C1306 C1308 1.415 . S
C1307 C1306 1.355 . S
C1307 C1309 1.419 . S
C1308 C1306 1.415 . S
C1308 C1313 1.425 . S
C1308 C1315 1.409 1_565 S
C1309 H1301 0.930 . S
C1309 C1307 1.419 . S
C1309 C1310 1.362 . S
C1310 H1302 0.930 . S
C1310 C1309 1.362 . S
C1310 C1313 1.409 . S
C1311 H1303 0.930 . S
C1311 C1312 1.355 . S
C1311 C1313 1.415 . S
C1312 C1311 1.355 . S
C1312 C1314 1.419 1_565 S
C1313 C1308 1.425 . S
C1313 C1310 1.409 . S
C1313 C1311 1.415 . S
C1314 H1304 0.930 . S
C1314 C1312 1.419 1_545 S
C1314 C1315 1.362 . S
C1315 H1305 0.930 . S
C1315 C1308 1.409 1_545 S
C1315 C1314 1.362 . S
H1316 C1322 0.930 . S
H1317 C1325 0.930 . S
H1318 C1326 0.930 . S
H1319 C1327 0.930 . S
H1320 C1330 0.930 . S
H1321 C1331 0.930 . S
C1322 H1316 0.930 . S
C1322 C1323 1.355 . S
C1322 C1324 1.415 . S
C1323 C1322 1.355 . S
C1323 C1325 1.419 . S
C1324 C1322 1.415 . S
C1324 C1329 1.425 . S
C1324 C1331 1.409 . S
C1325 H1317 0.930 . S
C1325 C1323 1.419 . S
C1325 C1326 1.362 . S
C1326 H1318 0.930 . S
C1326 C1325 1.362 . S
C1326 C1329 1.409 . S
C1327 H1319 0.930 . S
C1327 C1328 1.355 . S
C1327 C1329 1.415 . S
C1328 C1327 1.355 . S
C1328 C1330 1.419 . S
C1329 C1324 1.425 . S
C1329 C1326 1.409 . S
C1329 C1327 1.415 . S
C1330 H1320 0.930 . S
C1330 C1328 1.419 . S
C1330 C1331 1.362 . S
C1331 H1321 0.930 . S
C1331 C1324 1.409 . S
C1331 C1330 1.362 . S
H1332 C1338 0.930 . S
H1333 C1341 0.930 . S
H1334 C1342 0.930 . S
H1335 C1343 0.930 . S
H1336 C1346 0.930 . S
H1337 C1347 0.930 . S
C1338 H1332 0.930 . S
C1338 C1339 1.355 . S
C1338 C1340 1.415 . S
C1339 C1338 1.355 . S
C1339 C1341 1.419 . S
C1340 C1338 1.415 . S
C1340 C1345 1.425 . S
C1340 C1347 1.409 . S
C1341 H1333 0.930 . S
C1341 C1339 1.419 . S
C1341 C1342 1.362 . S
C1342 H1334 0.930 . S
C1342 C1341 1.362 . S
C1342 C1345 1.409 . S
C1343 H1335 0.930 . S
C1343 C1344 1.355 . S
C1343 C1345 1.415 . S
C1344 C1343 1.355 . S
C1344 C1346 1.419 . S
C1345 C1340 1.425 . S
C1345 C1342 1.409 . S
C1345 C1343 1.415 . S
C1346 H1336 0.930 . S
C1346 C1344 1.419 . S
C1346 C1347 1.362 . S
C1347 H1337 0.930 . S
C1347 C1340 1.409 . S
C1347 C1346 1.362 . S
H1348 C1354 0.930 . S
H1349 C1357 0.930 . S
H1350 C1358 0.930 . S
H1351 C1359 0.930 . S
H1352 C1362 0.930 . S
H1353 C1363 0.930 . S
C1354 H1348 0.930 . S
C1354 C1355 1.355 . S
C1354 C1356 1.415 . S
C1355 C1354 1.355 . S
C1355 C1357 1.419 . S
C1356 C1354 1.415 . S
C1356 C1361 1.425 . S
C1356 C1363 1.409 . S
C1357 H1349 0.930 . S
C1357 C1355 1.419 . S
C1357 C1358 1.362 . S
C1358 H1350 0.930 . S
C1358 C1357 1.362 . S
C1358 C1361 1.409 . S
C1359 H1351 0.930 . S
C1359 C1360 1.355 . S
C1359 C1361 1.415 . S
C1360 C1359 1.355 . S
C1360 C1362 1.419 . S
C1361 C1356 1.425 . S
C1361 C1358 1.409 . S
C1361 C1359 1.415 . S
C1362 H1352 0.930 . S
C1362 C1360 1.419 . S
C1362 C1363 1.362 . S
C1363 H1353 0.930 . S
C1363 C1356 1.409 . S
C1363 C1362 1.362 . S
H1364 C1370 0.930 . S
H1365 C1373 0.930 . S
H1366 C1374 0.930 . S
H1367 C1375 0.930 . S
H1368 C1378 0.930 . S
H1369 C1379 0.930 . S
C1370 H1364 0.930 . S
C1370 C1371 1.355 . S
C1370 C1372 1.415 . S
C1371 C1370 1.355 . S
C1371 C1373 1.419 . S
C1372 C1370 1.415 . S
C1372 C1377 1.425 . S
C1372 C1379 1.409 . S
C1373 H1365 0.930 . S
C1373 C1371 1.419 . S
C1373 C1374 1.362 . S
C1374 H1366 0.930 . S
C1374 C1373 1.362 . S
C1374 C1377 1.409 . S
C1375 H1367 0.930 . S
C1375 C1376 1.355 . S
C1375 C1377 1.415 . S
C1376 C1375 1.355 . S
C1376 C1378 1.419 . S
C1377 C1372 1.425 . S
C1377 C1374 1.409 . S
C1377 C1375 1.415 . S
C1378 H1368 0.930 . S
C1378 C1376 1.419 . S
C1378 C1379 1.362 . S
C1379 H1369 0.930 . S
C1379 C1372 1.409 . S
C1379 C1378 1.362 . S
H1380 C1386 0.930 . S
H1381 C1389 0.930 . S
H1382 C1390 0.930 . S
H1383 C1391 0.930 . S
H1384 C1394 0.930 . S
H1385 C1395 0.930 . S
C1386 H1380 0.930 . S
C1386 C1387 1.355 . S
C1386 C1388 1.415 . S
C1387 C1386 1.355 . S
C1387 C1389 1.419 . S
C1388 C1386 1.415 . S
C1388 C1393 1.425 . S
C1388 C1395 1.409 . S
C1389 H1381 0.930 . S
C1389 C1387 1.419 . S
C1389 C1390 1.362 . S
C1390 H1382 0.930 . S
C1390 C1389 1.362 . S
C1390 C1393 1.409 . S
C1391 H1383 0.930 . S
C1391 C1392 1.355 . S
C1391 C1393 1.415 . S
C1392 C1391 1.355 . S
C1392 C1394 1.419 . S
C1393 C1388 1.425 . S
C1393 C1390 1.409 . S
C1393 C1391 1.415 . S
C1394 H1384 0.930 . S
C1394 C1392 1.419 . S
C1394 C1395 1.362 . S
C1395 H1385 0.930 . S
C1395 C1388 1.409 . S
C1395 C1394 1.362 . S
H1396 C1402 0.930 . S
H1397 C1405 0.930 . S
H1398 C1406 0.930 . S
H1399 C1407 0.930 . S
H1400 C1410 0.930 . S
H1401 C1411 0.930 . S
C1402 H1396 0.930 . S
C1402 C1403 1.355 . S
C1402 C1404 1.415 . S
C1403 C1402 1.355 . S
C1403 C1405 1.419 . S
C1404 C1402 1.415 . S
C1404 C1409 1.425 . S
C1404 C1411 1.409 . S
C1405 H1397 0.930 . S
C1405 C1403 1.419 . S
C1405 C1406 1.362 . S
C1406 H1398 0.930 . S
C1406 C1405 1.362 . S
C1406 C1409 1.409 . S
C1407 H1399 0.930 . S
C1407 C1408 1.355 . S
C1407 C1409 1.415 . S
C1408 C1407 1.355 . S
C1408 C1410 1.419 . S
C1409 C1404 1.425 . S
C1409 C1406 1.409 . S
C1409 C1407 1.415 . S
C1410 H1400 0.930 . S
C1410 C1408 1.419 . S
C1410 C1411 1.362 . S
C1411 H1401 0.930 . S
C1411 C1404 1.409 . S
C1411 C1410 1.362 . S
H1412 C1418 0.930 . S
H1413 C1421 0.930 . S
H1414 C1422 0.930 . S
H1415 C1423 0.930 . S
H1416 C1426 0.930 . S
H1417 C1427 0.930 . S
C1418 H1412 0.930 . S
C1418 C1419 1.355 . S
C1418 C1420 1.415 . S
C1419 C1418 1.355 . S
C1419 C1421 1.419 . S
C1420 C1418 1.415 . S
C1420 C1425 1.425 . S
C1420 C1427 1.409 . S
C1421 H1413 0.930 . S
C1421 C1419 1.419 . S
C1421 C1422 1.362 . S
C1422 H1414 0.930 . S
C1422 C1421 1.362 . S
C1422 C1425 1.409 . S
C1423 H1415 0.930 . S
C1423 C1424 1.355 . S
C1423 C1425 1.415 . S
C1424 C1423 1.355 . S
C1424 C1426 1.419 . S
C1425 C1420 1.425 . S
C1425 C1422 1.409 . S
C1425 C1423 1.415 . S
C1426 H1416 0.930 . S
C1426 C1424 1.419 . S
C1426 C1427 1.362 . S
C1427 H1417 0.930 . S
C1427 C1420 1.409 . S
C1427 C1426 1.362 . S
H1428 C1434 0.930 . S
H1429 C1437 0.930 . S
H1430 C1438 0.930 . S
H1431 C1439 0.930 . S
H1432 C1442 0.930 . S
H1433 C1443 0.930 . S
C1434 H1428 0.930 . S
C1434 C1435 1.355 . S
C1434 C1436 1.415 . S
C1435 C1434 1.355 . S
C1435 C1437 1.419 . S
C1436 C1434 1.415 . S
C1436 C1441 1.425 . S
C1436 C1443 1.409 . S
C1437 H1429 0.930 . S
C1437 C1435 1.419 . S
C1437 C1438 1.362 . S
C1438 H1430 0.930 . S
C1438 C1437 1.362 . S
C1438 C1441 1.409 . S
C1439 H1431 0.930 . S
C1439 C1440 1.355 . S
C1439 C1441 1.415 . S
C1440 C1439 1.355 . S
C1440 C1442 1.419 . S
C1441 C1436 1.425 . S
C1441 C1438 1.409 . S
C1441 C1439 1.415 . S
C1442 H1432 0.930 . S
C1442 C1440 1.419 . S
C1442 C1443 1.362 . S
C1443 H1433 0.930 . S
C1443 C1436 1.409 . S
C1443 C1442 1.362 . S
H1444 C1450 0.930 . S
H1445 C1453 0.930 . S
H1446 C1454 0.930 . S
H1447 C1455 0.930 . S
H1448 C1458 0.930 . S
H1449 C1459 0.930 . S
C1450 H1444 0.930 . S
C1450 C1451 1.355 . S
C1450 C1452 1.415 . S
C1451 C1450 1.355 . S
C1451 C1453 1.419 . S
C1452 C1450 1.415 . S
C1452 C1457 1.425 . S
C1452 C1459 1.409 . S
C1453 H1445 0.930 . S
C1453 C1451 1.419 . S
C1453 C1454 1.362 . S
C1454 H1446 0.930 . S
C1454 C1453 1.362 . S
C1454 C1457 1.409 . S
C1455 H1447 0.930 . S
C1455 C1456 1.355 . S
C1455 C1457 1.415 . S
C1456 C1455 1.355 . S
C1456 C1458 1.419 . S
C1457 C1452 1.425 . S
C1457 C1454 1.409 . S
C1457 C1455 1.415 . S
C1458 H1448 0.930 . S
C1458 C1456 1.419 . S
C1458 C1459 1.362 . S
C1459 H1449 0.930 . S
C1459 C1452 1.409 . S
C1459 C1458 1.362 . S
H1460 C1466 0.930 . S
H1461 C1469 0.930 . S
H1462 C1470 0.930 . S
H1463 C1471 0.930 1_455 S
H1464 C1474 0.930 . S
H1465 C1475 0.930 . S
C1466 H1460 0.930 . S
C1466 C1467 1.355 . S
C1466 C1468 1.415 . S
C1467 C1466 1.355 . S
C1467 C1469 1.419 1_655 S
C1468 C1466 1.415 . S
C1468 C1473 1.425 . S
C1468 C1475 1.409 . S
C1469 H1461 0.930 . S
C1469 C1467 1.419 1_455 S
C1469 C1470 1.362 . S
C1470 H1462 0.930 . S
C1470 C1469 1.362 . S
C1470 C1473 1.409 1_455 S
C1471 H1463 0.930 1_655 S
C1471 C1472 1.355 . S
C1471 C1473 1.415 . S
C1472 C1471 1.355 . S
C1472 C1474 1.419 . S
C1473 C1468 1.425 . S
C1473 C1470 1.409 1_655 S
C1473 C1471 1.415 . S
C1474 H1464 0.930 . S
C1474 C1472 1.419 . S
C1474 C1475 1.362 . S
C1475 H1465 0.930 . S
C1475 C1468 1.409 . S
C1475 C1474 1.362 . S
H1476 C1482 0.930 . S
H1477 C1485 0.930 . S
H1478 C1486 0.930 . S
H1479 C1487 0.930 . S
H1480 C1490 0.930 . S
H1481 C1491 0.930 . S
C1482 H1476 0.930 . S
C1482 C1483 1.355 . S
C1482 C1484 1.415 . S
C1483 C1482 1.355 . S
C1483 C1485 1.419 . S
C1484 C1482 1.415 . S
C1484 C1489 1.425 . S
C1484 C1491 1.409 . S
C1485 H1477 0.930 . S
C1485 C1483 1.419 . S
C1485 C1486 1.362 . S
C1486 H1478 0.930 . S
C1486 C1485 1.362 . S
C1486 C1489 1.409 . S
C1487 H1479 0.930 . S
C1487 C1488 1.355 . S
C1487 C1489 1.415 . S
C1488 C1487 1.355 . S
C1488 C1490 1.419 . S
C1489 C1484 1.425 . S
C1489 C1486 1.409 . S
C1489 C1487 1.415 . S
C1490 H1480 0.930 . S
C1490 C1488 1.419 . S
C1490 C1491 1.362 . S
C1491 H1481 0.930 . S
C1491 C1484 1.409 . S
C1491 C1490 1.362 . S
H1492 C1498 0.930 . S
H1493 C1501 0.930 . S
H1494 C1502 0.930 . S
H1495 C1503 0.930 . S
H1496 C1506 0.930 . S
H1497 C1507 0.930 . S
C1498 H1492 0.930 . S
C1498 C1499 1.355 . S
C1498 C1500 1.415 . S
C1499 C1498 1.355 . S
C1499 C1501 1.419 . S
C1500 C1498 1.415 . S
C1500 C1505 1.425 . S
C1500 C1507 1.409 . S
C1501 H1493 0.930 . S
C1501 C1499 1.419 . S
C1501 C1502 1.362 . S
C1502 H1494 0.930 . S
C1502 C1501 1.362 . S
C1502 C1505 1.409 . S
C1503 H1495 0.930 . S
C1503 C1504 1.355 . S
C1503 C1505 1.415 . S
C1504 C1503 1.355 . S
C1504 C1506 1.419 . S
C1505 C1500 1.425 . S
C1505 C1502 1.409 . S
C1505 C1503 1.415 . S
C1506 H1496 0.930 . S
C1506 C1504 1.419 . S
C1506 C1507 1.362 . S
C1507 H1497 0.930 . S
C1507 C1500 1.409 . S
C1507 C1506 1.362 . S
H1508 C1514 0.930 . S
H1509 C1517 0.930 . S
H1510 C1518 0.930 . S
H1511 C1519 0.930 . S
H1512 C1522 0.930 . S
H1513 C1523 0.930 . S
C1514 H1508 0.930 . S
C1514 C1515 1.355 . S
C1514 C1516 1.415 . S
C1515 C1514 1.355 . S
C1515 C1517 1.419 . S
C1516 C1514 1.415 . S
C1516 C1521 1.425 . S
C1516 C1523 1.409 . S
C1517 H1509 0.930 . S
C1517 C1515 1.419 . S
C1517 C1518 1.362 . S
C1518 H1510 0.930 . S
C1518 C1517 1.362 . S
C1518 C1521 1.409 . S
C1519 H1511 0.930 . S
C1519 C1520 1.355 . S
C1519 C1521 1.415 . S
C1520 C1519 1.355 . S
C1520 C1522 1.419 . S
C1521 C1516 1.425 . S
C1521 C1518 1.409 . S
C1521 C1519 1.415 . S
C1522 H1512 0.930 . S
C1522 C1520 1.419 . S
C1522 C1523 1.362 . S
C1523 H1513 0.930 . S
C1523 C1516 1.409 . S
C1523 C1522 1.362 . S
H1524 C1530 0.930 . S
H1525 C1533 0.930 . S
H1526 C1534 0.930 . S
H1527 C1535 0.930 . S
H1528 C1538 0.930 . S
H1529 C1539 0.930 . S
C1530 H1524 0.930 . S
C1530 C1531 1.355 . S
C1530 C1532 1.415 . S
C1531 C1530 1.355 . S
C1531 C1533 1.419 . S
C1532 C1530 1.415 . S
C1532 C1537 1.425 . S
C1532 C1539 1.409 . S
C1533 H1525 0.930 . S
C1533 C1531 1.419 . S
C1533 C1534 1.362 . S
C1534 H1526 0.930 . S
C1534 C1533 1.362 . S
C1534 C1537 1.409 . S
C1535 H1527 0.930 . S
C1535 C1536 1.355 . S
C1535 C1537 1.415 . S
C1536 C1535 1.355 . S
C1536 C1538 1.419 . S
C1537 C1532 1.425 . S
C1537 C1534 1.409 . S
C1537 C1535 1.415 . S
C1538 H1528 0.930 . S
C1538 C1536 1.419 . S
C1538 C1539 1.362 . S
C1539 H1529 0.930 . S
C1539 C1532 1.409 . S
C1539 C1538 1.362 . S
H1540 C1546 0.930 . S
H1541 C1549 0.930 . S
H1542 C1550 0.930 . S
H1543 C1551 0.930 . S
H1544 C1554 0.930 . S
H1545 C1555 0.930 . S
C1546 H1540 0.930 . S
C1546 C1547 1.355 . S
C1546 C1548 1.415 . S
C1547 C1546 1.355 . S
C1547 C1549 1.419 . S
C1548 C1546 1.415 . S
C1548 C1553 1.425 . S
C1548 C1555 1.409 . S
C1549 H1541 0.930 . S
C1549 C1547 1.419 . S
C1549 C1550 1.362 . S
C1550 H1542 0.930 . S
C1550 C1549 1.362 . S
C1550 C1553 1.409 . S
C1551 H1543 0.930 . S
C1551 C1552 1.355 . S
C1551 C1553 1.415 . S
C1552 C1551 1.355 . S
C1552 C1554 1.419 . S
C1553 C1548 1.425 . S
C1553 C1550 1.409 . S
C1553 C1551 1.415 . S
C1554 H1544 0.930 . S
C1554 C1552 1.419 . S
C1554 C1555 1.362 . S
C1555 H1545 0.930 . S
C1555 C1548 1.409 . S
C1555 C1554 1.362 . S
H1556 C1562 0.930 . S
H1557 C1565 0.930 . S
H1558 C1566 0.930 . S
H1559 C1567 0.930 . S
H1560 C1570 0.930 . S
H1561 C1571 0.930 . S
C1562 H1556 0.930 . S
C1562 C1563 1.355 . S
C1562 C1564 1.415 . S
C1563 C1562 1.355 . S
C1563 C1565 1.419 . S
C1564 C1562 1.415 . S
C1564 C1569 1.425 . S
C1564 C1571 1.409 . S
C1565 H1557 0.930 . S
C1565 C1563 1.419 . S
C1565 C1566 1.362 . S
C1566 H1558 0.930 . S
C1566 C1565 1.362 . S
C1566 C1569 1.409 . S
C1567 H1559 0.930 . S
C1567 C1568 1.355 . S
C1567 C1569 1.415 . S
C1568 C1567 1.355 . S
C1568 C1570 1.419 . S
C1569 C1564 1.425 . S
C1569 C1566 1.409 . S
C1569 C1567 1.415 . S
C1570 H1560 0.930 . S
C1570 C1568 1.419 . S
C1570 C1571 1.362 . S
C1571 H1561 0.930 . S
C1571 C1564 1.409 . S
C1571 C1570 1.362 . S
H1572 C1578 0.930 . S
H1573 C1581 0.930 . S
H1574 C1582 0.930 . S
H1575 C1583 0.930 . S
H1576 C1586 0.930 . S
H1577 C1587 0.930 . S
C1578 H1572 0.930 . S
C1578 C1579 1.355 . S
C1578 C1580 1.415 . S
C1579 C1578 1.355 . S
C1579 C1581 1.419 . S
C1580 C1578 1.415 . S
C1580 C1585 1.425 . S
C1580 C1587 1.409 . S
C1581 H1573 0.930 . S
C1581 C1579 1.419 . S
C1581 C1582 1.362 . S
C1582 H1574 0.930 . S
C1582 C1581 1.362 . S
C1582 C1585 1.409 . S
C1583 H1575 0.930 . S
C1583 C1584 1.355 . S
C1583 C1585 1.415 . S
C1584 C1583 1.355 . S
C1584 C1586 1.419 . S
C1585 C1580 1.425 . S
C1585 C1582 1.409 . S
C1585 C1583 1.415 . S
C1586 H1576 0.930 . S
C1586 C1584 1.419 . S
C1586 C1587 1.362 . S
C1587 H1577 0.930 . S
C1587 C1580 1.409 . S
C1587 C1586 1.362 . S
H1588 C1594 0.930 . S
H1589 C1597 0.930 1_545 S
H1590 C1598 0.930 1_545 S
H1591 C1599 0.930 . S
H1592 C1602 0.930 . S
H1593 C1603 0.930 . S
C1594 H1588 0.930 . S
C1594 C1595 1.355 . S
C1594 C1596 1.415 . S
C1595 C1594 1.355 . S
C1595 C1597 1.419 . S
C1596 C1594 1.415 . S
C1596 C1601 1.425 . S
C1596 C1603 1.409 . S
C1597 H1589 0.930 1_565 S
C1597 C1595 1.419 . S
C1597 C1598 1.362 . S
C1598 H1590 0.930 1_565 S
C1598 C1597 1.362 . S
C1598 C1601 1.409 . S
C1599 H1591 0.930 . S
C1599 C1600 1.355 . S
C1599 C1601 1.415 . S
C1600 C1599 1.355 . S
C1600 C1602 1.419 . S
C1601 C1596 1.425 . S
C1601 C1598 1.409 . S
C1601 C1599 1.415 . S
C1602 H1592 0.930 . S
C1602 C1600 1.419 . S
C1602 C1603 1.362 . S
C1603 H1593 0.930 . S
C1603 C1596 1.409 . S
C1603 C1602 1.362 . S
H1604 C1610 0.930 . S
H1605 C1613 0.930 . S
H1606 C1614 0.930 . S
H1607 C1615 0.930 . S
H1608 C1618 0.930 . S
H1609 C1619 0.930 . S
C1610 H1604 0.930 . S
C1610 C1611 1.355 . S
C1610 C1612 1.415 . S
C1611 C1610 1.355 . S
C1611 C1613 1.419 . S
C1612 C1610 1.415 . S
C1612 C1617 1.425 . S
C1612 C1619 1.409 . S
C1613 H1605 0.930 . S
C1613 C1611 1.419 . S
C1613 C1614 1.362 . S
C1614 H1606 0.930 . S
C1614 C1613 1.362 . S
C1614 C1617 1.409 . S
C1615 H1607 0.930 . S
C1615 C1616 1.355 . S
C1615 C1617 1.415 . S
C1616 C1615 1.355 . S
C1616 C1618 1.419 . S
C1617 C1612 1.425 . S
C1617 C1614 1.409 . S
C1617 C1615 1.415 . S
C1618 H1608 0.930 . S
C1618 C1616 1.419 . S
C1618 C1619 1.362 . S
C1619 H1609 0.930 . S
C1619 C1612 1.409 . S
C1619 C1618 1.362 . S
C475 C4 1.857 . S
C480 C153 1.844 . S
C491 C127 1.843 . S
C496 C17 1.858 . S
C507 C134 1.855 . S
C512 C30 1.847 . S
C523 C49 1.860 . S
C528 C95 1.841 . S
C539 C56 1.860 . S
C544 C108 1.842 . S
C555 C69 1.849 . S
C560 C88 1.852 . S
C571 C160 1.850 . S
C576 C303 1.852 . S
C587 C277 1.848 . S
C592 C173 1.853 . S
C603 C186 1.842 . S
C608 C290 1.860 . S
C619 C205 1.849 . S
C624 C257 1.852 . S
C635 C218 1.842 . S
C640 C264 1.860 . S
C651 C225 1.849 . S
C656 C244 1.852 . S
C667 C316 1.842 . S
C672 C465 1.859 . S
C683 C329 1.843 . S
C688 C433 1.858 . S
C699 C452 1.859 . S
C704 C342 1.843 . S
C715 C361 1.857 . S
C720 C413 1.844 . S
C731 C420 1.857 . S
C736 C368 1.844 . S
C747 C400 1.842 . S
C752 C381 1.859 . S
C763 C3 1.291 . S
C768 C200 1.314 . S
C779 C16 1.322 . S
C784 C213 1.328 . S
C795 C29 1.311 . S
C800 C224 1.289 . S
C811 C44 1.322 . S
C816 C315 1.328 . S
C827 C328 1.303 . S
C832 C55 1.284 . S
C843 C341 1.305 . S
C848 C68 1.325 . S
C859 C83 1.313 . S
C864 C432 1.329 . S
C875 C447 1.314 . S
C880 C94 1.329 . S
C891 C107 1.329 . S
C896 C460 1.318 . S
C907 C122 1.321 . S
C912 C239 1.329 . S
C923 C133 1.321 . S
C928 C252 1.298 . S
C939 C148 1.306 . S
C944 C263 1.326 . S
C955 C356 1.284 . S
C960 C159 1.287 . S
C971 C172 1.329 . S
C976 C367 1.318 1_545 S
C987 C185 1.323 1_455 S
C992 C380 1.328 . S
C1003 C395 1.328 . S
C1008 C276 1.312 . S
C1019 C408 1.320 1_545 S
C1024 C289 1.329 . S
C1035 C302 1.292 1_455 S
C1040 C419 1.315 . S
C1051 C10 1.392 . S
C1056 C62 1.411 . S
C1067 C75 1.393 . S
C1072 C23 1.427 . S
C1083 C43 1.392 . S
C1088 C36 1.425 . S
C1099 C82 1.427 . S
C1104 C140 1.393 . S
C1115 C147 1.402 . S
C1120 C101 1.397 . S
C1131 C114 1.419 . S
C1136 C121 1.390 . S
C1147 C212 1.391 . S
C1152 C166 1.417 . S
C1163 C179 1.399 . S
C1168 C231 1.431 . S
C1179 C192 1.395 . S
C1184 C199 1.405 . S
C1195 C296 1.427 . S
C1200 C238 1.393 . S
C1211 C309 1.390 . S
C1216 C251 1.418 . S
C1227 C283 1.419 . S
C1232 C270 1.427 . S
C1243 C322 1.430 . S
C1248 C374 1.397 . S
C1259 C335 1.422 . S
C1264 C387 1.391 . S
C1275 C348 1.424 . S
C1280 C355 1.423 . S
C1291 C446 1.401 . S
C1296 C394 1.432 . S
C1307 C459 1.390 . S
C1312 C407 1.418 . S
C1323 C439 1.427 . S
C1328 C426 1.393 . S
C1339 C120 1.516 . S
C1344 C5 1.501 . S
C1355 C135 1.516 . S
C1360 C18 1.501 . S
C1371 C31 1.508 . S
C1376 C146 1.509 . S
C1387 C42 1.504 . S
C1392 C81 1.513 . S
C1403 C96 1.501 . S
C1408 C57 1.515 . S
C1419 C70 1.506 . S
C1424 C109 1.511 . S
C1435 C278 1.504 . S
C1440 C161 1.512 . S
C1451 C291 1.510 . S
C1456 C174 1.506 . S
C1467 C187 1.510 . S
C1472 C304 1.507 . S
C1483 C237 1.502 . S
C1488 C198 1.515 . S
C1499 C250 1.507 . S
C1504 C211 1.510 . S
C1515 C265 1.514 . S
C1520 C226 1.503 . S
C1531 C317 1.505 . S
C1536 C434 1.512 . S
C1547 C445 1.508 . S
C1552 C330 1.508 . S
C1563 C343 1.509 . S
C1568 C458 1.507 . S
C1579 C354 1.505 . S
C1584 C393 1.511 . S
C1595 C369 1.517 . S
C1600 C406 1.500 . S
C1611 C421 1.517 . S
C1616 C382 1.499 . S
