# Generated by pormake.
# Topology utn, (3)-cn, num edge types: 1
# Building blocks:
#     Node 0, Type 0, BuildingBlock: OLANEW_clean_sbu_2, # of connection points: 3
#     Node 1, Type 0, BuildingBlock: OLANEW_clean_sbu_2, # of connection points: 3
#     Node 2, Type 0, BuildingBlock: OLANEW_clean_sbu_2, # of connection points: 3
#     Node 3, Type 0, BuildingBlock: OLANEW_clean_sbu_2, # of connection points: 3
#     Node 4, Type 0, BuildingBlock: OLANEW_clean_sbu_2, # of connection points: 3
#     Node 5, Type 0, BuildingBlock: OLANEW_clean_sbu_2, # of connection points: 3
#     Node 6, Type 0, BuildingBlock: OLANEW_clean_sbu_2, # of connection points: 3
#     Node 7, Type 0, BuildingBlock: OLANEW_clean_sbu_2, # of connection points: 3
#     Node 8, Type 0, BuildingBlock: OLANEW_clean_sbu_2, # of connection points: 3
#     Node 9, Type 0, BuildingBlock: OLANEW_clean_sbu_2, # of connection points: 3
#     Node 10, Type 0, BuildingBlock: OLANEW_clean_sbu_2, # of connection points: 3
#     Node 11, Type 0, BuildingBlock: OLANEW_clean_sbu_2, # of connection points: 3
#     Node 12, Type 0, BuildingBlock: OLANEW_clean_sbu_2, # of connection points: 3
#     Node 13, Type 0, BuildingBlock: OLANEW_clean_sbu_2, # of connection points: 3
#     Node 14, Type 0, BuildingBlock: OLANEW_clean_sbu_2, # of connection points: 3
#     Node 15, Type 0, BuildingBlock: OLANEW_clean_sbu_2, # of connection points: 3
#     Node 16, Type 0, BuildingBlock: OLANEW_clean_sbu_2, # of connection points: 3
#     Node 17, Type 0, BuildingBlock: OLANEW_clean_sbu_2, # of connection points: 3
#     Node 18, Type 0, BuildingBlock: OLANEW_clean_sbu_2, # of connection points: 3
#     Node 19, Type 0, BuildingBlock: OLANEW_clean_sbu_2, # of connection points: 3
#     Node 20, Type 0, BuildingBlock: OLANEW_clean_sbu_2, # of connection points: 3
#     Node 21, Type 0, BuildingBlock: OLANEW_clean_sbu_2, # of connection points: 3
#     Node 22, Type 0, BuildingBlock: OLANEW_clean_sbu_2, # of connection points: 3
#     Node 23, Type 0, BuildingBlock: OLANEW_clean_sbu_2, # of connection points: 3
#     Node 24, Type 0, BuildingBlock: OLANEW_clean_sbu_2, # of connection points: 3
#     Node 25, Type 0, BuildingBlock: OLANEW_clean_sbu_2, # of connection points: 3
#     Node 26, Type 0, BuildingBlock: OLANEW_clean_sbu_2, # of connection points: 3
#     Node 27, Type 0, BuildingBlock: OLANEW_clean_sbu_2, # of connection points: 3
#     Node 28, Type 0, BuildingBlock: OLANEW_clean_sbu_2, # of connection points: 3
#     Node 29, Type 0, BuildingBlock: OLANEW_clean_sbu_2, # of connection points: 3
#     Node 30, Type 0, BuildingBlock: OLANEW_clean_sbu_2, # of connection points: 3
#     Node 31, Type 0, BuildingBlock: OLANEW_clean_sbu_2, # of connection points: 3
#     Edge 32, Type (0, 0), BuildingBlock: TEMPAE_clean_linker_10, # of connection points: 2
#     Edge 33, Type (0, 0), BuildingBlock: TEMPAE_clean_linker_10, # of connection points: 2
#     Edge 34, Type (0, 0), BuildingBlock: TEMPAE_clean_linker_10, # of connection points: 2
#     Edge 35, Type (0, 0), BuildingBlock: TEMPAE_clean_linker_10, # of connection points: 2
#     Edge 36, Type (0, 0), BuildingBlock: TEMPAE_clean_linker_10, # of connection points: 2
#     Edge 37, Type (0, 0), BuildingBlock: TEMPAE_clean_linker_10, # of connection points: 2
#     Edge 38, Type (0, 0), BuildingBlock: TEMPAE_clean_linker_10, # of connection points: 2
#     Edge 39, Type (0, 0), BuildingBlock: TEMPAE_clean_linker_10, # of connection points: 2
#     Edge 40, Type (0, 0), BuildingBlock: TEMPAE_clean_linker_10, # of connection points: 2
#     Edge 41, Type (0, 0), BuildingBlock: TEMPAE_clean_linker_10, # of connection points: 2
#     Edge 42, Type (0, 0), BuildingBlock: TEMPAE_clean_linker_10, # of connection points: 2
#     Edge 43, Type (0, 0), BuildingBlock: TEMPAE_clean_linker_10, # of connection points: 2
#     Edge 44, Type (0, 0), BuildingBlock: TEMPAE_clean_linker_10, # of connection points: 2
#     Edge 45, Type (0, 0), BuildingBlock: TEMPAE_clean_linker_10, # of connection points: 2
#     Edge 46, Type (0, 0), BuildingBlock: TEMPAE_clean_linker_10, # of connection points: 2
#     Edge 47, Type (0, 0), BuildingBlock: TEMPAE_clean_linker_10, # of connection points: 2
#     Edge 48, Type (0, 0), BuildingBlock: TEMPAE_clean_linker_10, # of connection points: 2
#     Edge 49, Type (0, 0), BuildingBlock: TEMPAE_clean_linker_10, # of connection points: 2
#     Edge 50, Type (0, 0), BuildingBlock: TEMPAE_clean_linker_10, # of connection points: 2
#     Edge 51, Type (0, 0), BuildingBlock: TEMPAE_clean_linker_10, # of connection points: 2
#     Edge 52, Type (0, 0), BuildingBlock: TEMPAE_clean_linker_10, # of connection points: 2
#     Edge 53, Type (0, 0), BuildingBlock: TEMPAE_clean_linker_10, # of connection points: 2
#     Edge 54, Type (0, 0), BuildingBlock: TEMPAE_clean_linker_10, # of connection points: 2
#     Edge 55, Type (0, 0), BuildingBlock: TEMPAE_clean_linker_10, # of connection points: 2
#     Edge 56, Type (0, 0), BuildingBlock: TEMPAE_clean_linker_10, # of connection points: 2
#     Edge 57, Type (0, 0), BuildingBlock: TEMPAE_clean_linker_10, # of connection points: 2
#     Edge 58, Type (0, 0), BuildingBlock: TEMPAE_clean_linker_10, # of connection points: 2
#     Edge 59, Type (0, 0), BuildingBlock: TEMPAE_clean_linker_10, # of connection points: 2
#     Edge 60, Type (0, 0), BuildingBlock: TEMPAE_clean_linker_10, # of connection points: 2
#     Edge 61, Type (0, 0), BuildingBlock: TEMPAE_clean_linker_10, # of connection points: 2
#     Edge 62, Type (0, 0), BuildingBlock: TEMPAE_clean_linker_10, # of connection points: 2
#     Edge 63, Type (0, 0), BuildingBlock: TEMPAE_clean_linker_10, # of connection points: 2
#     Edge 64, Type (0, 0), BuildingBlock: TEMPAE_clean_linker_10, # of connection points: 2
#     Edge 65, Type (0, 0), BuildingBlock: TEMPAE_clean_linker_10, # of connection points: 2
#     Edge 66, Type (0, 0), BuildingBlock: TEMPAE_clean_linker_10, # of connection points: 2
#     Edge 67, Type (0, 0), BuildingBlock: TEMPAE_clean_linker_10, # of connection points: 2
#     Edge 68, Type (0, 0), BuildingBlock: TEMPAE_clean_linker_10, # of connection points: 2
#     Edge 69, Type (0, 0), BuildingBlock: TEMPAE_clean_linker_10, # of connection points: 2
#     Edge 70, Type (0, 0), BuildingBlock: TEMPAE_clean_linker_10, # of connection points: 2
#     Edge 71, Type (0, 0), BuildingBlock: TEMPAE_clean_linker_10, # of connection points: 2
#     Edge 72, Type (0, 0), BuildingBlock: TEMPAE_clean_linker_10, # of connection points: 2
#     Edge 73, Type (0, 0), BuildingBlock: TEMPAE_clean_linker_10, # of connection points: 2
#     Edge 74, Type (0, 0), BuildingBlock: TEMPAE_clean_linker_10, # of connection points: 2
#     Edge 75, Type (0, 0), BuildingBlock: TEMPAE_clean_linker_10, # of connection points: 2
#     Edge 76, Type (0, 0), BuildingBlock: TEMPAE_clean_linker_10, # of connection points: 2
#     Edge 77, Type (0, 0), BuildingBlock: TEMPAE_clean_linker_10, # of connection points: 2
#     Edge 78, Type (0, 0), BuildingBlock: TEMPAE_clean_linker_10, # of connection points: 2
#     Edge 79, Type (0, 0), BuildingBlock: TEMPAE_clean_linker_10, # of connection points: 2
# Relax obj value: 0.009
# Max RMSD: 0.035
# Mean RMSD: 0.035
data_MOF--net-utn--node1-OLANEW_clean_sbu_2--edge1-TEMPAE_clean_linker_10
_symmetry_space_group_name_H-M    P1
_symmetry_Int_Tables_number       1
_symmetry_cell_setting            triclinic
loop_
_symmetry_equiv_pos_as_xyz
'x, y, z'
_cell_length_a     83.23683
_cell_length_b     83.234498
_cell_length_c     28.991938
_cell_angle_alpha  89.999182
_cell_angle_beta   90.017325
_cell_angle_gamma 89.993407
loop_
_atom_site_label
_atom_site_type_symbol
_atom_site_fract_x
_atom_site_fract_y
_atom_site_fract_z
_atom_type_partial_charge
O0 O 0.2246 0.12609 0.32498 0.0
Cd1 Cd 0.21256 0.12883 0.24853 0.0
O2 O 0.22756 0.15216 0.3214 0.0
Cd3 Cd 0.2328 0.176 0.34932 0.0
O4 O 0.23551 0.20169 0.3618 0.0
C5 C 0.24928 0.20828 0.36095 0.0
O6 O 0.26204 0.19926 0.35445 0.0
C7 C 0.22924 0.1391 0.34359 0.0
C8 C 0.20038 0.10029 0.21266 0.0
O9 O 0.21447 0.10518 0.20165 0.0
O10 O 0.19218 0.10878 0.24105 0.0
O11 O 0.13255 0.01567 0.54986 0.0
Cd12 Cd 0.13289 0.01858 0.46607 0.0
O13 O 0.10744 0.00852 0.54156 0.0
Cd14 Cd 0.08313 0.00196 0.56342 0.0
O15 O 0.05749 0.99688 0.56991 0.0
C16 C 0.04813 0.0069 0.58919 0.0
O17 O 0.05421 0.02012 0.60682 0.0
C18 C 0.11948 0.01088 0.56776 0.0
C19 C 0.14914 0.99289 0.42592 0.0
O20 O 0.15619 0.00641 0.43207 0.0
O21 O 0.13441 0.9916 0.43824 0.0
O22 O 0.26073 0.8657 0.80945 0.0
Cd23 Cd 0.26996 0.86422 0.72963 0.0
O24 O 0.26577 0.83993 0.81268 0.0
Cd25 Cd 0.2654 0.81598 0.84382 0.0
O26 O 0.26371 0.79016 0.85624 0.0
C27 C 0.25392 0.78239 0.83106 0.0
O28 O 0.24527 0.79033 0.80074 0.0
C29 C 0.26115 0.85274 0.83254 0.0
C30 C 0.28557 0.89218 0.70189 0.0
O31 O 0.27077 0.88982 0.69172 0.0
O32 O 0.29293 0.88136 0.72517 0.0
O33 O 0.37061 0.99207 0.09441 0.0
Cd34 Cd 0.37095 0.98929 0.0105 0.0
O35 O 0.39632 0.99699 0.08854 0.0
Cd36 Cd 0.42103 0.001 0.11171 0.0
O37 O 0.44722 0.00263 0.11144 0.0
C38 C 0.4547 0.99167 0.08976 0.0
O39 O 0.44637 0.97999 0.07079 0.0
C40 C 0.38389 0.99549 0.11367 0.0
C41 C 0.3542 0.01397 0.96679 0.0
O42 O 0.34754 0.00031 0.97392 0.0
O43 O 0.36872 0.01593 0.98032 0.0
O44 O 0.22836 0.86764 0.18875 0.0
Cd45 Cd 0.21886 0.86665 0.26836 0.0
O46 O 0.22475 0.8416 0.18865 0.0
Cd47 Cd 0.2265 0.81729 0.16036 0.0
O48 O 0.22955 0.79151 0.1497 0.0
C49 C 0.24311 0.78527 0.15894 0.0
O50 O 0.25487 0.79466 0.17263 0.0
C51 C 0.22875 0.85434 0.16731 0.0
C52 C 0.20544 0.89555 0.29766 0.0
O53 O 0.22003 0.892 0.30755 0.0
O54 O 0.19728 0.8855 0.27372 0.0
O55 O 0.36826 0.0136 0.47594 0.0
Cd56 Cd 0.36656 0.01407 0.55995 0.0
O57 O 0.39347 0.00705 0.48578 0.0
Cd58 Cd 0.41839 0.00195 0.46661 0.0
O59 O 0.44449 0.99927 0.46484 0.0
C60 C 0.45195 0.99979 0.50309 0.0
O61 O 0.44364 0.00169 0.54123 0.0
C62 C 0.38176 0.00977 0.45866 0.0
C63 C 0.34821 0.98838 0.59172 0.0
O64 O 0.34204 0.00242 0.58786 0.0
O65 O 0.36302 0.98653 0.58097 0.0
O66 O 0.27595 0.13061 0.68998 0.0
Cd67 Cd 0.28748 0.13443 0.76671 0.0
O68 O 0.27196 0.15659 0.69019 0.0
Cd69 Cd 0.26605 0.17997 0.66007 0.0
O70 O 0.26337 0.20571 0.64753 0.0
C71 C 0.25177 0.21313 0.6664 0.0
O72 O 0.24134 0.2049 0.6909 0.0
C73 C 0.27095 0.14315 0.66953 0.0
C74 C 0.29976 0.10641 0.80569 0.0
O75 O 0.28555 0.11125 0.81555 0.0
O76 O 0.30804 0.11471 0.77704 0.0
O77 O 0.13077 0.98554 0.92949 0.0
Cd78 Cd 0.13009 0.98164 0.01295 0.0
O79 O 0.10509 0.99076 0.93458 0.0
Cd80 Cd 0.08071 0.99578 0.91002 0.0
O81 O 0.05489 0.99979 0.90271 0.0
C82 C 0.04592 0.99297 0.93226 0.0
O83 O 0.05261 0.98391 0.96402 0.0
C84 C 0.11769 0.98953 0.91002 0.0
C85 C 0.14618 0.0064 0.05819 0.0
O86 O 0.15317 0.99294 0.05047 0.0
O87 O 0.13161 0.00808 0.04483 0.0
O88 O 0.77273 0.85158 0.66287 0.0
Cd89 Cd 0.78262 0.84202 0.73738 0.0
O90 O 0.75069 0.86288 0.68922 0.0
Cd91 Cd 0.75383 0.85005 0.75428 0.0
O92 O 0.75482 0.82651 0.78768 0.0
C93 C 0.75675 0.81492 0.75966 0.0
O94 O 0.75812 0.81818 0.71547 0.0
C95 C 0.76022 0.86002 0.65593 0.0
C96 C 0.7992 0.86634 0.78323 0.0
O97 O 0.80627 0.85731 0.75375 0.0
O98 O 0.78428 0.86378 0.79136 0.0
O99 O 0.86828 0.0037 0.45325 0.0
Cd100 Cd 0.87728 0.00875 0.53212 0.0
O101 O 0.88465 0.98322 0.44392 0.0
Cd102 Cd 0.89682 0.98583 0.51019 0.0
O103 O 0.91987 0.98935 0.54473 0.0
C104 C 0.93036 0.99619 0.51964 0.0
O105 O 0.92622 0.00076 0.4779 0.0
C106 C 0.87377 0.99243 0.42818 0.0
C107 C 0.86191 0.03563 0.56869 0.0
O108 O 0.87462 0.03707 0.54407 0.0
O109 O 0.85653 0.02145 0.57632 0.0
O110 O 0.72681 0.15099 0.17257 0.0
Cd111 Cd 0.71704 0.15647 0.25063 0.0
O112 O 0.74853 0.13765 0.1925 0.0
Cd113 Cd 0.74633 0.1478 0.2615 0.0
O114 O 0.74551 0.17066 0.29833 0.0
C115 C 0.75593 0.18087 0.28545 0.0
O116 O 0.76664 0.17649 0.25459 0.0
C117 C 0.73893 0.14254 0.16138 0.0
C118 C 0.70611 0.12811 0.29117 0.0
O119 O 0.69729 0.13599 0.2629 0.0
O120 O 0.72002 0.13375 0.30098 0.0
O121 O 0.60379 0.968 0.8837 0.0
Cd122 Cd 0.59256 0.96348 0.96054 0.0
O123 O 0.61528 0.99112 0.89968 0.0
Cd124 Cd 0.60321 0.99175 0.96647 0.0
O125 O 0.58146 0.99273 0.00845 0.0
C126 C 0.56997 0.00068 0.9908 0.0
O127 O 0.57237 0.00798 0.9512 0.0
C128 C 0.6125 0.9798 0.87132 0.0
C129 C 0.61313 0.94451 0.01354 0.0
O130 O 0.60282 0.93817 0.98623 0.0
O131 O 0.61364 0.95988 0.01612 0.0
O132 O 0.78111 0.15218 0.81657 0.0
Cd133 Cd 0.78982 0.15905 0.73855 0.0
O134 O 0.75884 0.13985 0.79615 0.0
Cd135 Cd 0.76071 0.15099 0.72821 0.0
O136 O 0.76099 0.17475 0.69616 0.0
C137 C 0.76282 0.18601 0.72532 0.0
O138 O 0.76443 0.18221 0.76908 0.0
C139 C 0.76883 0.14387 0.8273 0.0
C140 C 0.8056 0.13297 0.69878 0.0
O141 O 0.81313 0.14298 0.72449 0.0
O142 O 0.79062 0.13541 0.69135 0.0
O143 O 0.65867 0.98785 0.52306 0.0
Cd144 Cd 0.66244 0.98926 0.43967 0.0
O145 O 0.63312 0.98741 0.50579 0.0
Cd146 Cd 0.60722 0.98519 0.5175 0.0
O147 O 0.581 0.98448 0.51944 0.0
C148 C 0.57322 0.99752 0.51485 0.0
O149 O 0.58123 0.01102 0.51 0.0
C150 C 0.64413 0.98743 0.53628 0.0
C151 C 0.67206 0.01973 0.41122 0.0
O152 O 0.65726 0.01665 0.41947 0.0
O153 O 0.68235 0.00841 0.41646 0.0
O154 O 0.71591 0.85906 0.31476 0.0
Cd155 Cd 0.70869 0.85087 0.23644 0.0
O156 O 0.73608 0.87488 0.29646 0.0
Cd157 Cd 0.73514 0.86552 0.22622 0.0
O158 O 0.7375 0.84289 0.1887 0.0
C159 C 0.748 0.83345 0.20539 0.0
O160 O 0.75681 0.83851 0.24008 0.0
C161 C 0.72685 0.86887 0.32687 0.0
C162 C 0.68846 0.87275 0.19237 0.0
O163 O 0.68281 0.86189 0.21917 0.0
O164 O 0.70372 0.87334 0.18664 0.0
O165 O 0.86717 0.98569 0.06058 0.0
Cd166 Cd 0.87565 0.98196 0.98063 0.0
O167 O 0.88323 0.00638 0.07044 0.0
Cd168 Cd 0.89485 0.00488 0.00311 0.0
O169 O 0.91754 0.00332 0.96559 0.0
C170 C 0.92813 0.01364 0.97654 0.0
O171 O 0.92432 0.02487 0.00645 0.0
C172 C 0.87268 0.99679 0.0862 0.0
C173 C 0.85892 0.95694 0.93857 0.0
O174 O 0.87157 0.95421 0.96254 0.0
O175 O 0.8542 0.97152 0.93438 0.0
O176 O 0.75264 0.61212 0.81096 0.0
Cd177 Cd 0.75508 0.60578 0.72895 0.0
O178 O 0.7475 0.63743 0.79605 0.0
Cd179 Cd 0.74452 0.66282 0.81403 0.0
O180 O 0.74318 0.68896 0.81974 0.0
C181 C 0.75528 0.69696 0.83345 0.0
O182 O 0.76837 0.68922 0.84563 0.0
C183 C 0.74968 0.62625 0.82526 0.0
C184 C 0.73125 0.58501 0.69717 0.0
O185 O 0.74374 0.57964 0.71793 0.0
O186 O 0.72993 0.60024 0.69175 0.0
O187 O 0.63176 0.51023 0.06313 0.0
Cd188 Cd 0.63696 0.51439 0.98104 0.0
O189 O 0.60599 0.50651 0.05157 0.0
Cd190 Cd 0.58095 0.50341 0.07301 0.0
O191 O 0.55503 0.50132 0.08324 0.0
C192 C 0.54602 0.50902 0.05559 0.0
O193 O 0.55272 0.51785 0.02332 0.0
C194 C 0.61785 0.50737 0.07914 0.0
C195 C 0.65895 0.49216 0.94631 0.0
O196 O 0.66368 0.50485 0.96737 0.0
O197 O 0.64379 0.48995 0.94163 0.0
O198 O 0.73752 0.38507 0.32147 0.0
Cd199 Cd 0.73286 0.38817 0.23871 0.0
O200 O 0.7418 0.3592 0.3143 0.0
Cd201 Cd 0.74555 0.33463 0.33904 0.0
O202 O 0.74816 0.30873 0.34871 0.0
C203 C 0.74046 0.29976 0.32098 0.0
O204 O 0.73136 0.30651 0.28942 0.0
C205 C 0.74079 0.37159 0.33981 0.0
C206 C 0.75522 0.40868 0.19791 0.0
O207 O 0.74279 0.41422 0.21857 0.0
O208 O 0.75712 0.3934 0.19651 0.0
O209 O 0.87718 0.50154 0.55109 0.0
Cd210 Cd 0.87976 0.50563 0.46796 0.0
O211 O 0.90311 0.5056 0.55524 0.0
Cd212 Cd 0.92679 0.50677 0.58797 0.0
O213 O 0.95288 0.50661 0.59561 0.0
C214 C 0.96057 0.50428 0.63291 0.0
O215 O 0.9526 0.50197 0.67146 0.0
C216 C 0.88983 0.5028 0.57537 0.0
C217 C 0.85706 0.52734 0.43446 0.0
O218 O 0.85471 0.51216 0.43138 0.0
O219 O 0.8701 0.53222 0.45334 0.0
O220 O 0.76069 0.38948 0.6989 0.0
Cd221 Cd 0.76461 0.39493 0.78096 0.0
O222 O 0.75626 0.36386 0.71118 0.0
Cd223 Cd 0.75263 0.33882 0.69044 0.0
O224 O 0.75054 0.31287 0.68105 0.0
C225 C 0.76235 0.30485 0.66548 0.0
O226 O 0.77554 0.31251 0.65377 0.0
C227 C 0.75753 0.37557 0.68325 0.0
C228 C 0.74103 0.41538 0.81601 0.0
O229 O 0.75334 0.42094 0.79483 0.0
O230 O 0.73983 0.40011 0.82066 0.0
O231 O 0.85903 0.50625 0.93291 0.0
Cd232 Cd 0.85293 0.50999 0.01466 0.0
O233 O 0.88423 0.50067 0.94816 0.0
Cd234 Cd 0.90942 0.49678 0.92958 0.0
O235 O 0.93539 0.49417 0.92222 0.0
C236 C 0.9432 0.4994 0.88765 0.0
O237 O 0.93541 0.50643 0.85378 0.0
C238 C 0.87305 0.50271 0.91883 0.0
C239 C 0.8326 0.48645 0.05033 0.0
O240 O 0.82698 0.49853 0.02814 0.0
O241 O 0.84786 0.4854 0.05534 0.0
O242 O 0.75369 0.63059 0.19305 0.0
Cd243 Cd 0.75897 0.63331 0.2756 0.0
O244 O 0.75744 0.65656 0.18818 0.0
Cd245 Cd 0.75784 0.6801 0.15452 0.0
O246 O 0.75683 0.70594 0.14168 0.0
C247 C 0.74663 0.71385 0.16507 0.0
O248 O 0.7372 0.70603 0.19368 0.0
C249 C 0.7545 0.64322 0.16853 0.0
C250 C 0.77938 0.60932 0.30839 0.0
O251 O 0.76412 0.6081 0.31303 0.0
O252 O 0.78496 0.62184 0.28825 0.0
O253 O 0.62789 0.48766 0.44083 0.0
Cd254 Cd 0.63142 0.48353 0.52368 0.0
O255 O 0.60211 0.49233 0.44856 0.0
Cd256 Cd 0.57755 0.49625 0.42393 0.0
O257 O 0.5517 0.49872 0.41289 0.0
C258 C 0.54267 0.48776 0.42893 0.0
O259 O 0.54932 0.47545 0.44994 0.0
C260 C 0.61439 0.49099 0.42275 0.0
C261 C 0.65227 0.50612 0.56195 0.0
O262 O 0.65763 0.49352 0.54172 0.0
O263 O 0.63701 0.50806 0.5642 0.0
O264 O 0.2745 0.35515 0.18646 0.0
Cd265 Cd 0.28321 0.34606 0.26258 0.0
O266 O 0.25465 0.37067 0.20931 0.0
Cd267 Cd 0.25678 0.36042 0.27833 0.0
O268 O 0.25611 0.33748 0.31487 0.0
C269 C 0.25289 0.32584 0.28803 0.0
O270 O 0.25021 0.32897 0.24426 0.0
C271 C 0.26338 0.36511 0.17701 0.0
C272 C 0.30437 0.36777 0.30334 0.0
O273 O 0.30943 0.35688 0.27568 0.0
O274 O 0.28926 0.36838 0.3118 0.0
O275 O 0.39658 0.52739 0.92077 0.0
Cd276 Cd 0.4069 0.53527 0.99636 0.0
O277 O 0.38173 0.5071 0.94406 0.0
Cd278 Cd 0.39328 0.50857 0.01151 0.0
O279 O 0.41658 0.50809 0.04614 0.0
C280 C 0.42628 0.49745 0.03156 0.0
O281 O 0.42117 0.48715 0.00046 0.0
C282 C 0.38656 0.51627 0.91181 0.0
C283 C 0.38548 0.55546 0.04216 0.0
O284 O 0.39582 0.5611 0.01369 0.0
O285 O 0.38531 0.54026 0.04911 0.0
O286 O 0.22555 0.63683 0.67581 0.0
Cd287 Cd 0.21659 0.64549 0.75211 0.0
O288 O 0.24492 0.62074 0.69876 0.0
Cd289 Cd 0.24272 0.6308 0.76796 0.0
O290 O 0.2442 0.65345 0.80575 0.0
C291 C 0.25526 0.66278 0.79177 0.0
O292 O 0.26505 0.65761 0.75947 0.0
C293 C 0.23648 0.62666 0.66636 0.0
C294 C 0.19543 0.62321 0.79028 0.0
O295 O 0.19042 0.63419 0.76282 0.0
O296 O 0.21045 0.62283 0.79996 0.0
O297 O 0.13461 0.50119 0.43473 0.0
Cd298 Cd 0.13711 0.50409 0.5182 0.0
O299 O 0.10821 0.50242 0.43468 0.0
Cd300 Cd 0.10445 0.50438 0.50908 0.0
O301 O 0.0857 0.50604 0.56166 0.0
C302 C 0.07768 0.49342 0.57054 0.0
O303 O 0.0821 0.47982 0.55128 0.0
C304 C 0.12139 0.50116 0.41283 0.0
C305 C 0.15023 0.47659 0.55785 0.0
O306 O 0.15913 0.48696 0.53754 0.0
O307 O 0.13507 0.47921 0.5597 0.0
O308 O 0.27887 0.63922 0.32603 0.0
Cd309 Cd 0.28618 0.64952 0.24995 0.0
O310 O 0.25987 0.62266 0.30328 0.0
Cd311 Cd 0.26073 0.63356 0.2349 0.0
O312 O 0.25791 0.65653 0.19939 0.0
C313 C 0.25176 0.66726 0.22508 0.0
O314 O 0.2476 0.6633 0.26732 0.0
C315 C 0.2685 0.62847 0.33543 0.0
C316 C 0.30758 0.6291 0.2049 0.0
O317 O 0.31261 0.63986 0.23304 0.0
O318 O 0.29241 0.62803 0.19796 0.0
O319 O 0.10873 0.514 0.04783 0.0
Cd320 Cd 0.09987 0.51868 0.96863 0.0
O321 O 0.1046 0.48791 0.04739 0.0
Cd322 Cd 0.0925 0.48897 0.98057 0.0
O323 O 0.07082 0.49063 0.93829 0.0
C324 C 0.06145 0.50232 0.94683 0.0
O325 O 0.06582 0.51295 0.97791 0.0
C326 C 0.10948 0.50047 0.0681 0.0
C327 C 0.11967 0.54135 0.92656 0.0
O328 O 0.1076 0.54567 0.951 0.0
O329 O 0.12227 0.52627 0.92151 0.0
O330 O 0.22468 0.36086 0.82747 0.0
Cd331 Cd 0.21971 0.35526 0.74594 0.0
O332 O 0.24668 0.37463 0.81293 0.0
Cd333 Cd 0.24738 0.36512 0.7428 0.0
O334 O 0.24836 0.3425 0.7047 0.0
C335 C 0.25647 0.33165 0.72496 0.0
O336 O 0.26386 0.33534 0.76361 0.0
C337 C 0.23621 0.36964 0.84156 0.0
C338 C 0.20363 0.38084 0.70462 0.0
O339 O 0.196 0.3681 0.71635 0.0
O340 O 0.21879 0.38141 0.71201 0.0
O341 O 0.3943 0.4742 0.57072 0.0
Cd342 Cd 0.40357 0.46617 0.49419 0.0
O343 O 0.37886 0.49425 0.54892 0.0
Cd344 Cd 0.38955 0.4928 0.48032 0.0
O345 O 0.41297 0.49348 0.44639 0.0
C346 C 0.42363 0.50066 0.47005 0.0
O347 O 0.41935 0.50737 0.5092 0.0
C348 C 0.38429 0.48522 0.58071 0.0
C349 C 0.38202 0.44511 0.45233 0.0
O350 O 0.39299 0.43995 0.47962 0.0
O351 O 0.38129 0.46026 0.44469 0.0
C352 C 0.22946 0.1286 0.42409 0.0
C353 C 0.23575 0.1391 0.39092 0.0
C354 C 0.23504 0.12892 0.46977 0.0
C355 C 0.2474 0.13978 0.48219 0.0
C356 C 0.25406 0.15012 0.44844 0.0
C357 C 0.24812 0.14967 0.40318 0.0
C358 C 0.22753 0.11783 0.5049 0.0
C359 C 0.26745 0.16167 0.46017 0.0
C360 C 0.2521 0.15207 0.6076 0.0
C361 C 0.26472 0.14213 0.62197 0.0
C362 C 0.24625 0.15133 0.56226 0.0
C363 C 0.25327 0.14045 0.53058 0.0
C364 C 0.26594 0.13029 0.54508 0.0
C365 C 0.27142 0.13115 0.59081 0.0
C366 C 0.23252 0.16216 0.54828 0.0
C367 C 0.27386 0.11867 0.51216 0.0
H368 H 0.21989 0.12041 0.41455 0.0
H369 H 0.25332 0.15744 0.37719 0.0
H370 H 0.23686 0.11005 0.52061 0.0
H371 H 0.22209 0.12499 0.53315 0.0
H372 H 0.21808 0.11005 0.48959 0.0
H373 H 0.27147 0.16871 0.42974 0.0
H374 H 0.2634 0.17016 0.48727 0.0
H375 H 0.27788 0.15498 0.47426 0.0
H376 H 0.2466 0.16023 0.63205 0.0
H377 H 0.28118 0.12344 0.60196 0.0
H378 H 0.22231 0.15483 0.53554 0.0
H379 H 0.23633 0.17011 0.51957 0.0
H380 H 0.22825 0.16978 0.57726 0.0
H381 H 0.26481 0.1102 0.49812 0.0
H382 H 0.28358 0.11162 0.52889 0.0
H383 H 0.27902 0.12533 0.4825 0.0
C384 C 0.12806 0.01711 0.64824 0.0
C385 C 0.11845 0.00814 0.61804 0.0
C386 C 0.12767 0.01432 0.69597 0.0
C387 C 0.11749 0.00219 0.7138 0.0
C388 C 0.10776 0.99309 0.68345 0.0
C389 C 0.10845 0.99611 0.63587 0.0
C390 C 0.13825 0.02424 0.72725 0.0
C391 C 0.09683 0.97999 0.70115 0.0
C392 C 0.12806 0.98447 0.83063 0.0
C393 C 0.1173 0.99252 0.85978 0.0
C394 C 0.12817 0.98742 0.78298 0.0
C395 C 0.11732 0.99876 0.76412 0.0
C396 C 0.10647 0.00697 0.79342 0.0
C397 C 0.10667 0.00382 0.84097 0.0
C398 C 0.13994 0.97845 0.75285 0.0
C399 C 0.0948 0.01921 0.7746 0.0
H400 H 0.13589 0.02636 0.63452 0.0
H401 H 0.10153 0.98867 0.61258 0.0
H402 H 0.13083 0.03041 0.75363 0.0
H403 H 0.14678 0.01631 0.74587 0.0
H404 H 0.14524 0.03343 0.708 0.0
H405 H 0.08957 0.97445 0.6732 0.0
H406 H 0.10407 0.97046 0.71798 0.0
H407 H 0.08855 0.98491 0.72761 0.0
H408 H 0.13636 0.9758 0.84511 0.0
H409 H 0.09882 0.01057 0.86353 0.0
H410 H 0.14797 0.98708 0.73502 0.0
H411 H 0.13339 0.97166 0.7258 0.0
H412 H 0.14746 0.9699 0.77285 0.0
H413 H 0.10149 0.02927 0.75841 0.0
H414 H 0.08682 0.02419 0.8018 0.0
H415 H 0.08723 0.01369 0.74738 0.0
C416 C 0.24407 0.86295 0.89684 0.0
C417 C 0.25626 0.85266 0.88145 0.0
C418 C 0.23946 0.86319 0.9434 0.0
C419 C 0.24743 0.85308 0.97532 0.0
C420 C 0.25987 0.84278 0.96 0.0
C421 C 0.26414 0.84271 0.91319 0.0
C422 C 0.22605 0.87424 0.9584 0.0
C423 C 0.2688 0.83199 0.99313 0.0
C424 C 0.24546 0.86445 0.10208 0.0
C425 C 0.23378 0.85378 0.11854 0.0
C426 C 0.25016 0.86425 0.05558 0.0
C427 C 0.24278 0.85328 0.02481 0.0
C428 C 0.23087 0.84258 0.04123 0.0
C429 C 0.22651 0.84297 0.08794 0.0
C430 C 0.263 0.87575 0.0394 0.0
C431 C 0.22258 0.83087 0.00934 0.0
H432 H 0.23802 0.87071 0.87231 0.0
H433 H 0.27395 0.83516 0.90168 0.0
H434 H 0.21629 0.86715 0.97471 0.0
H435 H 0.23054 0.88283 0.98466 0.0
H436 H 0.22092 0.88116 0.92914 0.0
H437 H 0.2781 0.82462 0.9756 0.0
H438 H 0.27469 0.83934 0.02021 0.0
H439 H 0.26025 0.82381 0.01073 0.0
H440 H 0.25104 0.87287 0.12571 0.0
H441 H 0.21706 0.83512 0.10023 0.0
H442 H 0.25809 0.88376 0.01226 0.0
H443 H 0.27311 0.86896 0.02381 0.0
H444 H 0.26777 0.88329 0.0679 0.0
H445 H 0.2163 0.83752 0.98147 0.0
H446 H 0.21368 0.82325 0.02768 0.0
H447 H 0.23158 0.82295 0.99265 0.0
C448 C 0.37417 0.98883 0.1927 0.0
C449 C 0.38472 0.99744 0.16429 0.0
C450 C 0.3744 0.99083 0.24075 0.0
C451 C 0.38531 0.00186 0.26078 0.0
C452 C 0.396 0.01059 0.23224 0.0
C453 C 0.39554 0.00829 0.18427 0.0
C454 C 0.36286 0.98124 0.27003 0.0
C455 C 0.40768 0.02258 0.25229 0.0
C456 C 0.37396 0.01789 0.37895 0.0
C457 C 0.38354 0.00846 0.40807 0.0
C458 C 0.37473 0.01615 0.33086 0.0
C459 C 0.38518 0.00455 0.3115 0.0
C460 C 0.395 0.9951 0.34073 0.0
C461 C 0.39404 0.99715 0.38872 0.0
C462 C 0.36412 0.02651 0.30082 0.0
C463 C 0.40618 0.9825 0.32139 0.0
H464 H 0.36575 0.98045 0.17732 0.0
H465 H 0.40332 0.01539 0.16236 0.0
H466 H 0.36957 0.97425 0.29632 0.0
H467 H 0.35467 0.98948 0.28878 0.0
H468 H 0.35549 0.9728 0.24922 0.0
H469 H 0.41558 0.02796 0.22557 0.0
H470 H 0.40098 0.03237 0.26975 0.0
H471 H 0.41532 0.01671 0.27874 0.0
H472 H 0.3658 0.02661 0.39383 0.0
H473 H 0.40104 0.98943 0.41109 0.0
H474 H 0.35549 0.01885 0.28168 0.0
H475 H 0.37149 0.03296 0.27487 0.0
H476 H 0.35724 0.03549 0.32115 0.0
H477 H 0.39909 0.97305 0.30366 0.0
H478 H 0.41362 0.97674 0.34858 0.0
H479 H 0.41429 0.98793 0.29531 0.0
C480 C 0.72249 0.86185 0.40958 0.0
C481 C 0.72992 0.87169 0.3766 0.0
C482 C 0.72708 0.86237 0.45605 0.0
C483 C 0.7392 0.87323 0.47018 0.0
C484 C 0.74592 0.88404 0.43777 0.0
C485 C 0.74132 0.88303 0.39119 0.0
C486 C 0.7197 0.85052 0.48937 0.0
C487 C 0.75857 0.89608 0.4518 0.0
C488 C 0.74375 0.87629 0.60031 0.0
C489 C 0.75612 0.86519 0.60845 0.0
C490 C 0.73872 0.87985 0.55514 0.0
C491 C 0.74601 0.87185 0.51747 0.0
C492 C 0.75894 0.86115 0.52544 0.0
C493 C 0.76393 0.85808 0.57075 0.0
C494 C 0.7252 0.89166 0.54788 0.0
C495 C 0.76692 0.8522 0.48631 0.0
H496 H 0.71364 0.85307 0.39876 0.0
H497 H 0.74702 0.8908 0.36602 0.0
H498 H 0.72902 0.84188 0.50102 0.0
H499 H 0.71514 0.85682 0.52041 0.0
H500 H 0.70966 0.84364 0.47364 0.0
H501 H 0.76064 0.90526 0.42462 0.0
H502 H 0.75505 0.90225 0.4842 0.0
H503 H 0.77007 0.88976 0.45846 0.0
H504 H 0.73776 0.88196 0.62925 0.0
H505 H 0.7735 0.84949 0.57666 0.0
H506 H 0.71418 0.88511 0.53734 0.0
H507 H 0.72821 0.90019 0.51977 0.0
H508 H 0.72248 0.8986 0.57968 0.0
H509 H 0.7581 0.84403 0.46978 0.0
H510 H 0.77735 0.84495 0.4981 0.0
H511 H 0.77111 0.86075 0.45954 0.0
C512 C 0.85696 0.98686 0.15447 0.0
C513 C 0.86828 0.99752 0.13573 0.0
C514 C 0.8546 0.98585 0.2024 0.0
C515 C 0.86396 0.99556 0.23215 0.0
C516 C 0.87469 0.007 0.21328 0.0
C517 C 0.87663 0.00792 0.16535 0.0
C518 C 0.84275 0.9738 0.22121 0.0
C519 C 0.88494 0.01757 0.24377 0.0
C520 C 0.8572 0.0014 0.36049 0.0
C521 C 0.86899 0.9912 0.37902 0.0
C522 C 0.85454 0.00214 0.31266 0.0
C523 C 0.86407 0.99265 0.28277 0.0
C524 C 0.87524 0.98161 0.3015 0.0
C525 C 0.87747 0.98094 0.34937 0.0
C526 C 0.84222 0.01376 0.29404 0.0
C527 C 0.88569 0.97129 0.27086 0.0
H528 H 0.85034 0.97888 0.13184 0.0
H529 H 0.88532 0.01628 0.1513 0.0
H530 H 0.84936 0.96345 0.23611 0.0
H531 H 0.83547 0.97919 0.24926 0.0
H532 H 0.83455 0.96921 0.194 0.0
H533 H 0.89184 0.02661 0.2237 0.0
H534 H 0.87736 0.02398 0.26928 0.0
H535 H 0.89356 0.01002 0.26334 0.0
H536 H 0.85045 0.00926 0.38316 0.0
H537 H 0.88654 0.97294 0.36328 0.0
H538 H 0.83505 0.0081 0.26618 0.0
H539 H 0.84842 0.02432 0.27896 0.0
H540 H 0.83394 0.01807 0.32141 0.0
H541 H 0.87823 0.96471 0.24543 0.0
H542 H 0.89285 0.96243 0.29084 0.0
H543 H 0.89409 0.97906 0.25122 0.0
C544 C 0.77388 0.14855 0.91102 0.0
C545 C 0.76554 0.14024 0.87641 0.0
C546 C 0.76968 0.14689 0.95756 0.0
C547 C 0.757 0.13642 0.96998 0.0
C548 C 0.74915 0.12726 0.93554 0.0
C549 C 0.7534 0.1294 0.88902 0.0
C550 C 0.77822 0.15704 0.99314 0.0
C551 C 0.73583 0.11569 0.94762 0.0
C552 C 0.75401 0.12823 0.09863 0.0
C553 C 0.74241 0.13953 0.11203 0.0
C554 C 0.75829 0.1264 0.05202 0.0
C555 C 0.75104 0.13636 0.01833 0.0
C556 C 0.73896 0.14741 0.03153 0.0
C557 C 0.73469 0.14874 0.07811 0.0
C558 C 0.77095 0.11423 0.03906 0.0
C559 C 0.73108 0.15842 0.99678 0.0
H560 H 0.78328 0.15696 0.90164 0.0
H561 H 0.747 0.12282 0.8625 0.0
H562 H 0.76962 0.16569 0.00859 0.0
H563 H 0.78286 0.14939 0.02147 0.0
H564 H 0.78841 0.1639 0.97817 0.0
H565 H 0.73247 0.10794 0.91795 0.0
H566 H 0.73947 0.10792 0.97692 0.0
H567 H 0.72504 0.12251 0.95862 0.0
H568 H 0.75992 0.12096 0.12462 0.0
H569 H 0.72573 0.15752 0.08813 0.0
H570 H 0.78208 0.12053 0.0283 0.0
H571 H 0.76685 0.1069 0.00932 0.0
H572 H 0.77392 0.10607 0.06817 0.0
H573 H 0.74022 0.16662 0.98186 0.0
H574 H 0.72137 0.1658 0.01232 0.0
H575 H 0.72594 0.15133 0.96796 0.0
C576 C 0.62605 0.99341 0.603 0.0
C577 C 0.64026 0.98663 0.58601 0.0
C578 C 0.62211 0.99243 0.64996 0.0
C579 C 0.6328 0.98469 0.6808 0.0
C580 C 0.6474 0.97821 0.66406 0.0
C581 C 0.65097 0.97928 0.61682 0.0
C582 C 0.60647 0.99959 0.66652 0.0
C583 C 0.65914 0.96994 0.69592 0.0
C584 C 0.62775 0.99384 0.80846 0.0
C585 C 0.61865 0.98063 0.82336 0.0
C586 C 0.63272 0.99518 0.76232 0.0
C587 C 0.62847 0.98305 0.73035 0.0
C588 C 0.6196 0.96953 0.74537 0.0
C589 C 0.61482 0.96847 0.79165 0.0
C590 C 0.64225 0.00974 0.74758 0.0
C591 C 0.61483 0.95634 0.7123 0.0
H592 H 0.6181 0.99977 0.57977 0.0
H593 H 0.66206 0.97414 0.60386 0.0
H594 H 0.59897 0.99013 0.68275 0.0
H595 H 0.60885 0.00883 0.69321 0.0
H596 H 0.59949 0.00519 0.63807 0.0
H597 H 0.67021 0.96602 0.67772 0.0
H598 H 0.66259 0.97813 0.72445 0.0
H599 H 0.65338 0.95926 0.71173 0.0
H600 H 0.63078 0.00328 0.83267 0.0
H601 H 0.60782 0.9582 0.80278 0.0
H602 H 0.63529 0.01675 0.72187 0.0
H603 H 0.65359 0.00596 0.73068 0.0
H604 H 0.64522 0.01773 0.77707 0.0
H605 H 0.60691 0.96131 0.685 0.0
H606 H 0.6084 0.94636 0.72978 0.0
H607 H 0.62563 0.95139 0.69499 0.0
C608 C 0.74192 0.63068 0.09926 0.0
C609 C 0.7523 0.64219 0.11808 0.0
C610 C 0.7405 0.62879 0.05133 0.0
C611 C 0.74992 0.63847 0.02163 0.0
C612 C 0.76024 0.65029 0.04047 0.0
C613 C 0.76131 0.65201 0.08853 0.0
C614 C 0.72925 0.61616 0.03253 0.0
C615 C 0.77064 0.66068 0.00996 0.0
C616 C 0.76012 0.62109 0.90429 0.0
C617 C 0.74966 0.62957 0.87529 0.0
C618 C 0.76041 0.624 0.95191 0.0
C619 C 0.74979 0.63548 0.97107 0.0
C620 C 0.73906 0.64396 0.942 0.0
C621 C 0.73913 0.6409 0.89435 0.0
C622 C 0.77213 0.6148 0.98169 0.0
C623 C 0.72741 0.65613 0.9613 0.0
H624 H 0.73497 0.62306 0.12211 0.0
H625 H 0.76973 0.66056 0.10295 0.0
H626 H 0.72107 0.62153 0.00653 0.0
H627 H 0.73626 0.60664 0.01487 0.0
H628 H 0.7219 0.61048 0.06004 0.0
H629 H 0.77722 0.67001 0.02983 0.0
H630 H 0.77953 0.65307 0.99164 0.0
H631 H 0.7632 0.66671 0.98332 0.0
H632 H 0.76827 0.61231 0.88958 0.0
H633 H 0.73067 0.64709 0.8722 0.0
H634 H 0.76552 0.60771 0.00792 0.0
H635 H 0.78004 0.6233 0.00049 0.0
H636 H 0.77977 0.60649 0.96126 0.0
H637 H 0.71932 0.65025 0.98657 0.0
H638 H 0.71998 0.66183 0.93399 0.0
H639 H 0.73405 0.66568 0.98 0.0
C640 C 0.62541 0.51416 0.15985 0.0
C641 C 0.61568 0.50544 0.12939 0.0
C642 C 0.62414 0.51206 0.20769 0.0
C643 C 0.613 0.50079 0.22545 0.0
C644 C 0.60302 0.49205 0.19487 0.0
C645 C 0.60451 0.49446 0.1471 0.0
C646 C 0.63495 0.52167 0.23917 0.0
C647 C 0.59113 0.47983 0.21252 0.0
C648 C 0.62324 0.48391 0.34334 0.0
C649 C 0.61319 0.49292 0.37222 0.0
C650 C 0.62294 0.48603 0.29537 0.0
C651 C 0.61247 0.4976 0.27589 0.0
C652 C 0.60217 0.50663 0.30485 0.0
C653 C 0.60268 0.5042 0.35278 0.0
C654 C 0.63405 0.47611 0.26564 0.0
C655 C 0.59098 0.51918 0.28535 0.0
H656 H 0.63407 0.52265 0.14619 0.0
H657 H 0.59735 0.48731 0.12363 0.0
H658 H 0.62766 0.52818 0.26519 0.0
H659 H 0.6431 0.51346 0.25818 0.0
H660 H 0.64236 0.53053 0.21999 0.0
H661 H 0.58356 0.47478 0.18447 0.0
H662 H 0.59764 0.46982 0.22955 0.0
H663 H 0.58317 0.48534 0.2388 0.0
H664 H 0.63139 0.47519 0.35833 0.0
H665 H 0.59529 0.51156 0.37508 0.0
H666 H 0.64279 0.48408 0.248 0.0
H667 H 0.6271 0.46981 0.23847 0.0
H668 H 0.64083 0.46704 0.28595 0.0
H669 H 0.59809 0.52899 0.26941 0.0
H670 H 0.58303 0.52445 0.31216 0.0
H671 H 0.58338 0.51389 0.25782 0.0
C672 C 0.7445 0.36228 0.61539 0.0
C673 C 0.7557 0.37325 0.63302 0.0
C674 C 0.74214 0.36072 0.56764 0.0
C675 C 0.75113 0.37043 0.53696 0.0
C676 C 0.76264 0.38134 0.55462 0.0
C677 C 0.76471 0.38268 0.60246 0.0
C678 C 0.72965 0.34906 0.55009 0.0
C679 C 0.77252 0.39185 0.52304 0.0
C680 C 0.75405 0.35984 0.40968 0.0
C681 C 0.74294 0.37054 0.3903 0.0
C682 C 0.7566 0.35938 0.45756 0.0
C683 C 0.74788 0.36994 0.48654 0.0
C684 C 0.73651 0.38063 0.46712 0.0
C685 C 0.73426 0.38087 0.4192 0.0
C686 C 0.76894 0.34794 0.477 0.0
C687 C 0.72692 0.39203 0.49687 0.0
H688 H 0.73714 0.35537 0.63891 0.0
H689 H 0.77337 0.39119 0.61605 0.0
H690 H 0.71977 0.35578 0.53315 0.0
H691 H 0.73498 0.34099 0.52376 0.0
H692 H 0.72449 0.34161 0.57819 0.0
H693 H 0.7816 0.39903 0.54215 0.0
H694 H 0.77881 0.38438 0.497 0.0
H695 H 0.76453 0.40022 0.50406 0.0
H696 H 0.76117 0.35222 0.38735 0.0
H697 H 0.72566 0.38917 0.40427 0.0
H698 H 0.76351 0.34047 0.50461 0.0
H699 H 0.77891 0.35484 0.49284 0.0
H700 H 0.774 0.33986 0.45019 0.0
H701 H 0.72044 0.38526 0.52407 0.0
H702 H 0.71803 0.39905 0.47659 0.0
H703 H 0.73514 0.40055 0.51447 0.0
C704 C 0.87728 0.49126 0.64604 0.0
C705 C 0.8889 0.50125 0.62604 0.0
C706 C 0.87545 0.49047 0.69409 0.0
C707 C 0.88531 0.50011 0.72269 0.0
C708 C 0.89728 0.50998 0.70269 0.0
C709 C 0.8989 0.51046 0.65454 0.0
C710 C 0.86265 0.47968 0.71417 0.0
C711 C 0.90793 0.52054 0.73202 0.0
C712 C 0.8681 0.51219 0.83871 0.0
C713 C 0.87632 0.50191 0.86884 0.0
C714 C 0.87104 0.5118 0.79112 0.0
C715 C 0.88234 0.50072 0.77321 0.0
C716 C 0.89057 0.49019 0.80344 0.0
C717 C 0.88742 0.49089 0.85098 0.0
C718 C 0.8621 0.5233 0.76004 0.0
C719 C 0.90258 0.47812 0.78551 0.0
H720 H 0.86953 0.48413 0.62403 0.0
H721 H 0.90751 0.51861 0.63921 0.0
H722 H 0.86792 0.47176 0.74099 0.0
H723 H 0.85327 0.48708 0.73112 0.0
H724 H 0.85682 0.47207 0.68751 0.0
H725 H 0.91746 0.52654 0.71145 0.0
H726 H 0.90054 0.52991 0.74907 0.0
H727 H 0.91372 0.51337 0.75966 0.0
H728 H 0.8595 0.52071 0.85249 0.0
H729 H 0.89338 0.48256 0.87401 0.0
H730 H 0.8549 0.51649 0.73445 0.0
H731 H 0.87076 0.53081 0.74052 0.0
H732 H 0.85391 0.53135 0.77957 0.0
H733 H 0.89658 0.46976 0.76116 0.0
H734 H 0.90816 0.47099 0.81367 0.0
H735 H 0.91223 0.48435 0.76613 0.0
C736 C 0.22952 0.36377 0.92385 0.0
C737 C 0.23832 0.3727 0.89155 0.0
C738 C 0.23301 0.36469 0.9711 0.0
C739 C 0.24546 0.37497 0.98651 0.0
C740 C 0.25364 0.38484 0.95445 0.0
C741 C 0.25006 0.38351 0.90726 0.0
C742 C 0.22409 0.35386 0.00412 0.0
C743 C 0.26675 0.39619 0.96967 0.0
C744 C 0.24828 0.38061 0.11648 0.0
C745 C 0.25988 0.36906 0.12816 0.0
C746 C 0.24391 0.38321 0.07022 0.0
C747 C 0.25112 0.37387 0.03507 0.0
C748 C 0.26319 0.36258 0.04657 0.0
C749 C 0.26749 0.3604 0.09286 0.0
C750 C 0.23122 0.39558 0.05911 0.0
C751 C 0.27111 0.35227 0.01017 0.0
H752 H 0.2204 0.35542 0.91209 0.0
H753 H 0.2568 0.39058 0.88256 0.0
H754 H 0.23244 0.34465 0.01798 0.0
H755 H 0.21947 0.36085 0.03384 0.0
H756 H 0.21384 0.34762 0.98732 0.0
H757 H 0.27025 0.40467 0.94184 0.0
H758 H 0.26286 0.4032 0.00024 0.0
H759 H 0.27752 0.38919 0.97988 0.0
H760 H 0.24241 0.38742 0.14351 0.0
H761 H 0.27646 0.35145 0.10145 0.0
H762 H 0.22018 0.38948 0.04679 0.0
H763 H 0.23539 0.40359 0.03094 0.0
H764 H 0.22808 0.40305 0.08956 0.0
H765 H 0.26197 0.34453 0.99336 0.0
H766 H 0.28068 0.34445 0.02467 0.0
H767 H 0.27648 0.35995 0.98296 0.0
C768 C 0.37048 0.50134 0.85223 0.0
C769 C 0.38193 0.51311 0.86326 0.0
C770 C 0.3677 0.49686 0.80616 0.0
C771 C 0.37681 0.5041 0.77055 0.0
C772 C 0.38774 0.51658 0.78133 0.0
C773 C 0.39005 0.52101 0.82745 0.0
C774 C 0.35564 0.4838 0.79586 0.0
C775 C 0.3978 0.52454 0.74446 0.0
C776 C 0.3891 0.48065 0.6646 0.0
C777 C 0.38036 0.48841 0.62973 0.0
C778 C 0.38742 0.48512 0.71092 0.0
C779 C 0.37652 0.49748 0.7229 0.0
C780 C 0.36681 0.50459 0.68836 0.0
C781 C 0.36895 0.50008 0.64202 0.0
C782 C 0.3981 0.4773 0.74661 0.0
C783 C 0.35476 0.51751 0.7 0.0
H784 H 0.36402 0.49529 0.87965 0.0
H785 H 0.39887 0.53017 0.83552 0.0
H786 H 0.34809 0.48713 0.76578 0.0
H787 H 0.36206 0.47255 0.78692 0.0
H788 H 0.34769 0.48136 0.82583 0.0
H789 H 0.40491 0.53479 0.75812 0.0
H790 H 0.40623 0.51562 0.72946 0.0
H791 H 0.39006 0.52898 0.71606 0.0
H792 H 0.39789 0.47157 0.65557 0.0
H793 H 0.36202 0.50602 0.61536 0.0
H794 H 0.39083 0.47276 0.77586 0.0
H795 H 0.40661 0.48634 0.76065 0.0
H796 H 0.40516 0.46715 0.73215 0.0
H797 H 0.34768 0.51412 0.73092 0.0
H798 H 0.34637 0.51986 0.67096 0.0
H799 H 0.36118 0.52884 0.70817 0.0
C800 C 0.23251 0.63159 0.58223 0.0
C801 C 0.24018 0.62295 0.61748 0.0
C802 C 0.23724 0.62995 0.53612 0.0
C803 C 0.24983 0.61923 0.52473 0.0
C804 C 0.25696 0.60971 0.55966 0.0
C805 C 0.25213 0.61176 0.60576 0.0
C806 C 0.22938 0.6404 0.49997 0.0
C807 C 0.27018 0.59791 0.54868 0.0
C808 C 0.25398 0.61242 0.39581 0.0
C809 C 0.26548 0.62407 0.38422 0.0
C810 C 0.24948 0.60988 0.44198 0.0
C811 C 0.2565 0.61937 0.47714 0.0
C812 C 0.26876 0.63048 0.46587 0.0
C813 C 0.27317 0.63261 0.41965 0.0
C814 C 0.23662 0.59767 0.4528 0.0
C815 C 0.2765 0.64091 0.50228 0.0
H816 H 0.22321 0.6402 0.59081 0.0
H817 H 0.25803 0.60493 0.63271 0.0
H818 H 0.23833 0.64897 0.48586 0.0
H819 H 0.22501 0.63295 0.47085 0.0
H820 H 0.2191 0.64738 0.51401 0.0
H821 H 0.27277 0.58978 0.57815 0.0
H822 H 0.26694 0.59054 0.51817 0.0
H823 H 0.28134 0.60455 0.54003 0.0
H824 H 0.24808 0.60565 0.36873 0.0
H825 H 0.28214 0.64156 0.41117 0.0
H826 H 0.22528 0.60396 0.46164 0.0
H827 H 0.24009 0.5903 0.48311 0.0
H828 H 0.23425 0.58955 0.42314 0.0
H829 H 0.26744 0.64935 0.51653 0.0
H830 H 0.2867 0.64804 0.4884 0.0
H831 H 0.28095 0.63345 0.53127 0.0
C832 C 0.13552 0.49779 0.33682 0.0
C833 C 0.12122 0.49999 0.36176 0.0
C834 C 0.1354 0.49708 0.28837 0.0
C835 C 0.12068 0.49871 0.26437 0.0
C836 C 0.10622 0.50077 0.28937 0.0
C837 C 0.10666 0.50134 0.33766 0.0
C838 C 0.15104 0.49477 0.26285 0.0
C839 C 0.09027 0.50261 0.26505 0.0
C840 C 0.1185 0.51373 0.14112 0.0
C841 C 0.11464 0.49962 0.11703 0.0
C842 C 0.12129 0.51347 0.18884 0.0
C843 C 0.12026 0.49875 0.21307 0.0
C844 C 0.11729 0.48434 0.1886 0.0
C845 C 0.11448 0.48494 0.14086 0.0
C846 C 0.12447 0.52911 0.21366 0.0
C847 C 0.11625 0.46838 0.21318 0.0
H848 H 0.14681 0.49668 0.35511 0.0
H849 H 0.09554 0.50305 0.35653 0.0
H850 H 0.15021 0.48418 0.23975 0.0
H851 H 0.15347 0.50538 0.24076 0.0
H852 H 0.16137 0.49306 0.28662 0.0
H853 H 0.08009 0.50385 0.28957 0.0
H854 H 0.09054 0.51337 0.24246 0.0
H855 H 0.08799 0.49204 0.24265 0.0
H856 H 0.11876 0.52512 0.12304 0.0
H857 H 0.11161 0.47396 0.12254 0.0
H858 H 0.13518 0.528 0.2362 0.0
H859 H 0.11409 0.53205 0.23614 0.0
H860 H 0.12639 0.53926 0.18939 0.0
H861 H 0.12674 0.46671 0.23628 0.0
H862 H 0.1157 0.45812 0.18872 0.0
H863 H 0.10532 0.46813 0.23507 0.0
C864 C 0.1997 0.07944 0.15064 0.0
C865 C 0.19352 0.08556 0.19205 0.0
C866 C 0.19256 0.06614 0.12901 0.0
C867 C 0.17914 0.05861 0.14985 0.0
C868 C 0.17322 0.0644 0.19249 0.0
C869 C 0.18037 0.07793 0.21283 0.0
C870 C 0.19904 0.06049 0.08315 0.0
C871 C 0.15915 0.05648 0.21626 0.0
C872 C 0.14963 0.03558 0.07512 0.0
C873 C 0.1547 0.01968 0.08153 0.0
C874 C 0.15766 0.04837 0.09657 0.0
C875 C 0.17083 0.04514 0.12606 0.0
C876 C 0.17592 0.02909 0.13303 0.0
C877 C 0.16791 0.01655 0.11018 0.0
C878 C 0.15209 0.06535 0.08749 0.0
C879 C 0.18969 0.02516 0.16502 0.0
H880 H 0.20981 0.08535 0.13434 0.0
H881 H 0.17563 0.08255 0.24503 0.0
H882 H 0.20222 0.04757 0.08497 0.0
H883 H 0.18963 0.06178 0.05626 0.0
H884 H 0.20982 0.06736 0.0722 0.0
H885 H 0.15675 0.06174 0.25079 0.0
H886 H 0.14819 0.05781 0.19482 0.0
H887 H 0.16143 0.04342 0.22034 0.0
H888 H 0.1395 0.03805 0.05269 0.0
H889 H 0.1718 0.00425 0.11541 0.0
H890 H 0.16219 0.07264 0.07386 0.0
H891 H 0.14812 0.07103 0.12017 0.0
H892 H 0.142 0.06584 0.06242 0.0
H893 H 0.2008 0.0312 0.15305 0.0
H894 H 0.192 0.01203 0.16722 0.0
H895 H 0.18706 0.02975 0.20015 0.0
C896 C 0.18468 0.91709 0.29161 0.0
C897 C 0.19807 0.91062 0.31429 0.0
C898 C 0.17718 0.93107 0.30797 0.0
C899 C 0.18296 0.93848 0.34867 0.0
C900 C 0.19657 0.93207 0.3715 0.0
C901 C 0.20409 0.91831 0.35367 0.0
C902 C 0.16295 0.93778 0.28202 0.0
C903 C 0.20286 0.93943 0.41554 0.0
C904 C 0.17094 0.98147 0.37652 0.0
C905 C 0.15778 0.97906 0.40589 0.0
C906 C 0.17914 0.96837 0.35708 0.0
C907 C 0.17434 0.95253 0.36843 0.0
C908 C 0.1612 0.95007 0.39863 0.0
C909 C 0.15294 0.96337 0.41647 0.0
C910 C 0.19282 0.97146 0.32406 0.0
C911 C 0.15596 0.93337 0.41244 0.0
H912 H 0.18008 0.91124 0.26091 0.0
H913 H 0.21439 0.91328 0.37142 0.0
H914 H 0.15201 0.93698 0.30373 0.0
H915 H 0.16493 0.95068 0.27416 0.0
H916 H 0.16068 0.93128 0.2492 0.0
H917 H 0.21374 0.93316 0.4286 0.0
H918 H 0.20585 0.95227 0.40996 0.0
H919 H 0.19343 0.93895 0.44256 0.0
H920 H 0.17463 0.99361 0.36808 0.0
H921 H 0.14285 0.96149 0.43951 0.0
H922 H 0.19034 0.96554 0.29052 0.0
H923 H 0.20408 0.96619 0.33781 0.0
H924 H 0.19479 0.98449 0.31791 0.0
H925 H 0.15214 0.92652 0.38152 0.0
H926 H 0.14586 0.93354 0.43749 0.0
H927 H 0.16619 0.92679 0.42811 0.0
C928 C 0.34264 0.95896 0.59469 0.0
C929 C 0.3385 0.97463 0.60781 0.0
C930 C 0.33351 0.94575 0.60936 0.0
C931 C 0.32021 0.94825 0.63895 0.0
C932 C 0.31605 0.96405 0.6526 0.0
C933 C 0.32513 0.97709 0.6363 0.0
C934 C 0.33808 0.92913 0.59311 0.0
C935 C 0.3022 0.96715 0.68502 0.0
C936 C 0.2887 0.91537 0.64791 0.0
C937 C 0.29402 0.90686 0.68675 0.0
C938 C 0.2971 0.9289 0.63195 0.0
C939 C 0.31086 0.93427 0.65618 0.0
C940 C 0.316 0.92598 0.6962 0.0
C941 C 0.30764 0.91224 0.71064 0.0
C942 C 0.29148 0.93721 0.58853 0.0
C943 C 0.33038 0.93156 0.72361 0.0
H944 H 0.35289 0.95705 0.5723 0.0
H945 H 0.32197 0.9892 0.64669 0.0
H946 H 0.34146 0.92155 0.62305 0.0
H947 H 0.32764 0.9233 0.57613 0.0
H948 H 0.34829 0.92932 0.56845 0.0
H949 H 0.30064 0.98014 0.69268 0.0
H950 H 0.29088 0.9625 0.66991 0.0
H951 H 0.30419 0.96065 0.71795 0.0
H952 H 0.27823 0.91117 0.62922 0.0
H953 H 0.31169 0.90576 0.74092 0.0
H954 H 0.30111 0.9368 0.56212 0.0
H955 H 0.28894 0.95005 0.59567 0.0
H956 H 0.28049 0.9316 0.57393 0.0
H957 H 0.34138 0.9307 0.70216 0.0
H958 H 0.33222 0.92436 0.75544 0.0
H959 H 0.32891 0.94436 0.73342 0.0
C960 C 0.32003 0.08429 0.8083 0.0
C961 C 0.30664 0.09194 0.82774 0.0
C962 C 0.32715 0.07099 0.82991 0.0
C963 C 0.32095 0.06544 0.87249 0.0
C964 C 0.30731 0.07299 0.89201 0.0
C965 C 0.30021 0.08606 0.86913 0.0
C966 C 0.34148 0.06304 0.80752 0.0
C967 C 0.30052 0.06759 0.93775 0.0
C968 C 0.33239 0.02369 0.9144 0.0
C969 C 0.34544 0.02709 0.9434 0.0
C970 C 0.32432 0.03605 0.8909 0.0
C971 C 0.32918 0.05219 0.89752 0.0
C972 C 0.34214 0.05569 0.92754 0.0
C973 C 0.35024 0.04308 0.94967 0.0
C974 C 0.31079 0.03182 0.8584 0.0
C975 C 0.34746 0.07277 0.93626 0.0
H976 H 0.32497 0.08871 0.77612 0.0
H977 H 0.2899 0.09198 0.8844 0.0
H978 H 0.35224 0.06458 0.82965 0.0
H979 H 0.33933 0.04994 0.80393 0.0
H980 H 0.34414 0.06811 0.77291 0.0
H981 H 0.28959 0.07445 0.94762 0.0
H982 H 0.29745 0.05464 0.93646 0.0
H983 H 0.3097 0.06915 0.96516 0.0
H984 H 0.32871 0.01133 0.90927 0.0
H985 H 0.36024 0.04576 0.97236 0.0
H986 H 0.31368 0.0361 0.82311 0.0
H987 H 0.29958 0.03795 0.86923 0.0
H988 H 0.3085 0.01868 0.857 0.0
H989 H 0.3517 0.07829 0.90363 0.0
H990 H 0.35729 0.0735 0.9621 0.0
H991 H 0.33716 0.08005 0.94871 0.0
C992 C 0.83859 0.9468 0.88206 0.0
C993 C 0.85004 0.94362 0.91636 0.0
C994 C 0.83024 0.93427 0.8603 0.0
C995 C 0.83323 0.91818 0.87371 0.0
C996 C 0.84463 0.9149 0.9087 0.0
C997 C 0.85299 0.92766 0.92936 0.0
C998 C 0.81833 0.93822 0.82266 0.0
C999 C 0.84797 0.89793 0.92438 0.0
C1000 C 0.80133 0.88704 0.84554 0.0
C1001 C 0.80796 0.87946 0.80676 0.0
C1002 C 0.8095 0.89955 0.86799 0.0
C1003 C 0.82453 0.90477 0.85077 0.0
C1004 C 0.83126 0.89721 0.81152 0.0
C1005 C 0.82295 0.88456 0.7902 0.0
C1006 C 0.80206 0.90716 0.91017 0.0
C1007 C 0.84716 0.90259 0.79179 0.0
H1008 H 0.8363 0.95911 0.87173 0.0
H1009 H 0.86176 0.92512 0.95604 0.0
H1010 H 0.82187 0.93212 0.79017 0.0
H1011 H 0.80624 0.93369 0.83215 0.0
H1012 H 0.81748 0.95133 0.81604 0.0
H1013 H 0.85691 0.89745 0.9528 0.0
H1014 H 0.83669 0.89219 0.93633 0.0
H1015 H 0.85255 0.89069 0.89507 0.0
H1016 H 0.78978 0.8831 0.85862 0.0
H1017 H 0.8281 0.87882 0.76009 0.0
H1018 H 0.79996 0.92014 0.90392 0.0
H1019 H 0.81042 0.90619 0.93986 0.0
H1020 H 0.79046 0.90148 0.91974 0.0
H1021 H 0.84654 0.91549 0.78227 0.0
H1022 H 0.85066 0.89557 0.76078 0.0
H1023 H 0.85675 0.90133 0.81812 0.0
C1024 C 0.84234 0.04834 0.62303 0.0
C1025 C 0.85365 0.04994 0.5875 0.0
C1026 C 0.83449 0.06184 0.64134 0.0
C1027 C 0.83783 0.07726 0.6231 0.0
C1028 C 0.84912 0.07893 0.5869 0.0
C1029 C 0.857 0.06526 0.56981 0.0
C1030 C 0.82271 0.05961 0.68044 0.0
C1031 C 0.85282 0.09515 0.56608 0.0
C1032 C 0.80687 0.11009 0.64291 0.0
C1033 C 0.81393 0.11888 0.67887 0.0
C1034 C 0.81461 0.09662 0.62405 0.0
C1035 C 0.82961 0.09167 0.64215 0.0
C1036 C 0.83675 0.10045 0.67859 0.0
C1037 C 0.82889 0.11404 0.69624 0.0
C1038 C 0.80674 0.0877 0.5847 0.0
C1039 C 0.85263 0.0954 0.69926 0.0
H1040 H 0.83975 0.03654 0.63697 0.0
H1041 H 0.86566 0.06656 0.54213 0.0
H1042 H 0.82657 0.06681 0.71071 0.0
H1043 H 0.81068 0.06404 0.67005 0.0
H1044 H 0.82162 0.04684 0.69112 0.0
H1045 H 0.86163 0.09435 0.53741 0.0
H1046 H 0.84162 0.10071 0.55279 0.0
H1047 H 0.85771 0.1033 0.5929 0.0
H1048 H 0.79534 0.11382 0.6292 0.0
H1049 H 0.83436 0.12072 0.72423 0.0
H1050 H 0.80433 0.07509 0.59496 0.0
H1051 H 0.81496 0.08733 0.55459 0.0
H1052 H 0.79524 0.09333 0.57385 0.0
H1053 H 0.85173 0.08295 0.71268 0.0
H1054 H 0.85647 0.10343 0.72783 0.0
H1055 H 0.8621 0.09543 0.67235 0.0
C1056 C 0.68923 0.10339 0.28727 0.0
C1057 C 0.70061 0.11269 0.31082 0.0
C1058 C 0.68451 0.08832 0.30415 0.0
C1059 C 0.69101 0.08263 0.34623 0.0
C1060 C 0.7022 0.09218 0.37079 0.0
C1061 C 0.70705 0.10701 0.35242 0.0
C1062 C 0.67284 0.07832 0.27643 0.0
C1063 C 0.70907 0.08671 0.41636 0.0
C1064 C 0.66786 0.04939 0.40659 0.0
C1065 C 0.6771 0.03585 0.39557 0.0
C1066 C 0.67246 0.06477 0.39168 0.0
C1067 C 0.68635 0.06653 0.364 0.0
C1068 C 0.69567 0.05286 0.35256 0.0
C1069 C 0.69105 0.0377 0.36907 0.0
C1070 C 0.66246 0.07911 0.4056 0.0
C1071 C 0.71034 0.0542 0.32218 0.0
H1072 H 0.68433 0.1077 0.2549 0.0
H1073 H 0.71578 0.11424 0.37083 0.0
H1074 H 0.67847 0.06666 0.2672 0.0
H1075 H 0.66202 0.0756 0.29732 0.0
H1076 H 0.66899 0.08443 0.2442 0.0
H1077 H 0.71697 0.09593 0.43229 0.0
H1078 H 0.69921 0.08385 0.44076 0.0
H1079 H 0.71615 0.07555 0.41141 0.0
H1080 H 0.65713 0.048 0.42741 0.0
H1081 H 0.69814 0.02722 0.36025 0.0
H1082 H 0.65733 0.08494 0.37451 0.0
H1083 H 0.67013 0.08815 0.42311 0.0
H1084 H 0.65245 0.07578 0.42907 0.0
H1085 H 0.70696 0.0595 0.28842 0.0
H1086 H 0.71614 0.04237 0.31598 0.0
H1087 H 0.71928 0.06235 0.33823 0.0
C1088 C 0.66151 0.88549 0.18131 0.0
C1089 C 0.67765 0.88405 0.16803 0.0
C1090 C 0.65101 0.89581 0.15769 0.0
C1091 C 0.65672 0.9047 0.11942 0.0
C1092 C 0.67303 0.9034 0.10609 0.0
C1093 C 0.68333 0.89318 0.13079 0.0
C1094 C 0.63375 0.89707 0.17338 0.0
C1095 C 0.67951 0.91253 0.06512 0.0
C1096 C 0.62604 0.91803 0.0303 0.0
C1097 C 0.62421 0.93437 0.04092 0.0
C1098 C 0.63667 0.90829 0.05538 0.0
C1099 C 0.6455 0.91497 0.09244 0.0
C1100 C 0.6436 0.93143 0.10362 0.0
C1101 C 0.63306 0.94096 0.07748 0.0
C1102 C 0.63852 0.89085 0.04201 0.0
C1103 C 0.65264 0.93893 0.14331 0.0
H1104 H 0.65707 0.87855 0.21025 0.0
H1105 H 0.69578 0.89208 0.12025 0.0
H1106 H 0.63063 0.90981 0.18021 0.0
H1107 H 0.62563 0.89274 0.1457 0.0
H1108 H 0.63141 0.88996 0.20509 0.0
H1109 H 0.69256 0.9104 0.05972 0.0
H1110 H 0.67297 0.90889 0.03345 0.0
H1111 H 0.67752 0.9256 0.06981 0.0
H1112 H 0.6193 0.91288 0.00193 0.0
H1113 H 0.63165 0.95357 0.08598 0.0
H1114 H 0.63517 0.88302 0.07143 0.0
H1115 H 0.65127 0.88827 0.03356 0.0
H1116 H 0.63097 0.88756 0.01184 0.0
H1117 H 0.64986 0.93243 0.17576 0.0
H1118 H 0.64963 0.95182 0.14798 0.0
H1119 H 0.66577 0.93785 0.13748 0.0
C1120 C 0.65816 0.52858 0.61672 0.0
C1121 C 0.6634 0.51804 0.58213 0.0
C1122 C 0.66875 0.5397 0.63683 0.0
C1123 C 0.68484 0.54054 0.62114 0.0
C1124 C 0.6901 0.5301 0.58567 0.0
C1125 C 0.67937 0.51885 0.56698 0.0
C1126 C 0.66279 0.55039 0.67526 0.0
C1127 C 0.70707 0.53086 0.56733 0.0
C1128 C 0.70871 0.5787 0.64316 0.0
C1129 C 0.71891 0.57389 0.67908 0.0
C1130 C 0.69751 0.56798 0.62403 0.0
C1131 C 0.69624 0.55222 0.64204 0.0
C1132 C 0.70621 0.54745 0.67919 0.0
C1133 C 0.71757 0.55829 0.69689 0.0
C1134 C 0.68732 0.5734 0.58383 0.0
C1135 C 0.70497 0.53087 0.7 0.0
H1136 H 0.64584 0.52793 0.62873 0.0
H1137 H 0.68344 0.5108 0.54 0.0
H1138 H 0.67014 0.54845 0.70671 0.0
H1139 H 0.66414 0.5632 0.66541 0.0
H1140 H 0.64998 0.54812 0.68384 0.0
H1141 H 0.7091 0.5223 0.5385 0.0
H1142 H 0.70977 0.54319 0.555 0.0
H1143 H 0.71573 0.52808 0.59531 0.0
H1144 H 0.70977 0.59072 0.62911 0.0
H1145 H 0.72536 0.55457 0.7249 0.0
H1146 H 0.67439 0.5721 0.59231 0.0
H1147 H 0.68974 0.56566 0.55344 0.0
H1148 H 0.68967 0.5861 0.57415 0.0
H1149 H 0.69241 0.52844 0.71073 0.0
H1150 H 0.71295 0.52935 0.73042 0.0
H1151 H 0.70823 0.52169 0.67388 0.0
C1152 C 0.71832 0.42114 0.87001 0.0
C1153 C 0.72862 0.42629 0.83473 0.0
C1154 C 0.70678 0.43155 0.88891 0.0
C1155 C 0.70529 0.44735 0.87134 0.0
C1156 C 0.71546 0.45251 0.83512 0.0
C1157 C 0.72713 0.44198 0.81762 0.0
C1158 C 0.69638 0.42572 0.92814 0.0
C1159 C 0.71402 0.46916 0.81483 0.0
C1160 C 0.66622 0.46982 0.89255 0.0
C1161 C 0.67067 0.48048 0.92773 0.0
C1162 C 0.67738 0.459 0.87372 0.0
C1163 C 0.69325 0.4586 0.89127 0.0
C1164 C 0.69772 0.46913 0.92743 0.0
C1165 C 0.68642 0.48008 0.94485 0.0
C1166 C 0.67226 0.44818 0.83457 0.0
C1167 C 0.71443 0.46883 0.94771 0.0
H1168 H 0.71949 0.40905 0.88352 0.0
H1169 H 0.73499 0.44598 0.79011 0.0
H1170 H 0.69812 0.43353 0.95875 0.0
H1171 H 0.68352 0.42649 0.91838 0.0
H1172 H 0.69912 0.41312 0.93804 0.0
H1173 H 0.72241 0.47109 0.78557 0.0
H1174 H 0.70156 0.47122 0.80251 0.0
H1175 H 0.71654 0.4783 0.8417 0.0
H1176 H 0.65408 0.47016 0.87903 0.0
H1177 H 0.68988 0.48822 0.97229 0.0
H1178 H 0.67394 0.43541 0.84438 0.0
H1179 H 0.67991 0.45045 0.80392 0.0
H1180 H 0.65949 0.45003 0.82471 0.0
H1181 H 0.71734 0.45655 0.96003 0.0
H1182 H 0.71578 0.47735 0.97696 0.0
H1183 H 0.72337 0.47197 0.92082 0.0
C1184 C 0.76779 0.43577 0.18975 0.0
C1185 C 0.76699 0.41963 0.17618 0.0
C1186 C 0.77885 0.44635 0.16942 0.0
C1187 C 0.78908 0.44072 0.13391 0.0
C1188 C 0.78826 0.42445 0.11987 0.0
C1189 C 0.77734 0.41404 0.14157 0.0
C1190 C 0.77959 0.46353 0.186 0.0
C1191 C 0.79875 0.41809 0.0815 0.0
C1192 C 0.806 0.47258 0.0537 0.0
C1193 C 0.82171 0.47428 0.07043 0.0
C1194 C 0.79539 0.46139 0.07327 0.0
C1195 C 0.8005 0.45196 0.11117 0.0
C1196 C 0.81638 0.45359 0.1281 0.0
C1197 C 0.82686 0.46461 0.10716 0.0
C1198 C 0.77867 0.45975 0.0536 0.0
C1199 C 0.82217 0.44397 0.16903 0.0
H1200 H 0.75989 0.44012 0.21673 0.0
H1201 H 0.77669 0.40159 0.13078 0.0
H1202 H 0.79199 0.46648 0.1973 0.0
H1203 H 0.77654 0.47181 0.15734 0.0
H1204 H 0.77123 0.46584 0.21511 0.0
H1205 H 0.79655 0.40516 0.07442 0.0
H1206 H 0.7965 0.42501 0.0494 0.0
H1207 H 0.8116 0.4197 0.09045 0.0
H1208 H 0.80201 0.47996 0.02509 0.0
H1209 H 0.83897 0.46596 0.12038 0.0
H1210 H 0.76966 0.46325 0.07993 0.0
H1211 H 0.77628 0.44704 0.04428 0.0
H1212 H 0.77686 0.46734 0.0225 0.0
H1213 H 0.81463 0.44672 0.19959 0.0
H1214 H 0.83492 0.44655 0.17771 0.0
H1215 H 0.82093 0.43093 0.16199 0.0
C1216 C 0.78533 0.58645 0.36163 0.0
C1217 C 0.7903 0.59674 0.32612 0.0
C1218 C 0.7958 0.57485 0.37991 0.0
C1219 C 0.81147 0.57327 0.3614 0.0
C1220 C 0.8164 0.58339 0.32478 0.0
C1221 C 0.80582 0.59514 0.30797 0.0
C1222 C 0.79023 0.56453 0.41964 0.0
C1223 C 0.83287 0.58182 0.30342 0.0
C1224 C 0.84483 0.55473 0.43319 0.0
C1225 C 0.84514 0.53893 0.41651 0.0
C1226 C 0.83368 0.56592 0.41627 0.0
C1227 C 0.82286 0.5613 0.381 0.0
C1228 C 0.82315 0.54537 0.36391 0.0
C1229 C 0.83416 0.5343 0.3823 0.0
C1230 C 0.83351 0.5827 0.43611 0.0
C1231 C 0.81203 0.54009 0.32563 0.0
H1232 H 0.77336 0.58772 0.37592 0.0
H1233 H 0.80966 0.60299 0.28025 0.0
H1234 H 0.791 0.55164 0.41017 0.0
H1235 H 0.79822 0.56639 0.44983 0.0
H1236 H 0.77768 0.56726 0.43006 0.0
H1237 H 0.83456 0.59007 0.27367 0.0
H1238 H 0.84223 0.5845 0.32956 0.0
H1239 H 0.83484 0.5693 0.29153 0.0
H1240 H 0.85322 0.55831 0.4599 0.0
H1241 H 0.83443 0.52212 0.36914 0.0
H1242 H 0.8213 0.58566 0.44894 0.0
H1243 H 0.83649 0.59155 0.40883 0.0
H1244 H 0.8422 0.58415 0.4649 0.0
H1245 H 0.79934 0.54183 0.33613 0.0
H1246 H 0.8138 0.52728 0.31614 0.0
H1247 H 0.81408 0.54761 0.29457 0.0
C1248 C 0.36064 0.43907 0.39416 0.0
C1249 C 0.37054 0.43389 0.43039 0.0
C1250 C 0.34979 0.4285 0.37285 0.0
C1251 C 0.34867 0.41244 0.38858 0.0
C1252 C 0.35853 0.40718 0.42539 0.0
C1253 C 0.36942 0.41793 0.44565 0.0
C1254 C 0.33961 0.4345 0.33332 0.0
C1255 C 0.35753 0.39019 0.44348 0.0
C1256 C 0.31061 0.38905 0.36161 0.0
C1257 C 0.31564 0.37929 0.32493 0.0
C1258 C 0.32125 0.39987 0.38275 0.0
C1259 C 0.33723 0.4011 0.3664 0.0
C1260 C 0.34232 0.39139 0.32907 0.0
C1261 C 0.3315 0.38053 0.30898 0.0
C1262 C 0.31543 0.40989 0.42284 0.0
C1263 C 0.35921 0.3925 0.31032 0.0
H1264 H 0.36149 0.45136 0.38208 0.0
H1265 H 0.37698 0.41387 0.47379 0.0
H1266 H 0.3419 0.42714 0.30209 0.0
H1267 H 0.32669 0.43319 0.34189 0.0
H1268 H 0.34203 0.44729 0.32495 0.0
H1269 H 0.36583 0.38807 0.47288 0.0
H1270 H 0.34509 0.38755 0.45492 0.0
H1271 H 0.36048 0.38156 0.41559 0.0
H1272 H 0.29839 0.38812 0.37421 0.0
H1273 H 0.33544 0.37307 0.28049 0.0
H1274 H 0.31672 0.42285 0.4147 0.0
H1275 H 0.32292 0.40744 0.45373 0.0
H1276 H 0.30267 0.40744 0.43155 0.0
H1277 H 0.36179 0.40501 0.29933 0.0
H1278 H 0.36118 0.38437 0.28048 0.0
H1279 H 0.36799 0.3894 0.33771 0.0
C1280 C 0.31378 0.60861 0.14431 0.0
C1281 C 0.31897 0.61823 0.18115 0.0
C1282 C 0.32448 0.59835 0.12127 0.0
C1283 C 0.3407 0.59753 0.13582 0.0
C1284 C 0.34597 0.60711 0.17322 0.0
C1285 C 0.33507 0.61742 0.19525 0.0
C1286 C 0.31846 0.58846 0.08116 0.0
C1287 C 0.36313 0.60642 0.19006 0.0
C1288 C 0.36482 0.56049 0.10318 0.0
C1289 C 0.37404 0.56621 0.06616 0.0
C1290 C 0.35399 0.57058 0.12635 0.0
C1291 C 0.35218 0.58671 0.11175 0.0
C1292 C 0.36136 0.59252 0.0742 0.0
C1293 C 0.37226 0.58223 0.05204 0.0
C1294 C 0.34454 0.56401 0.16661 0.0
C1295 C 0.35962 0.6096 0.0573 0.0
H1296 H 0.30137 0.60922 0.13313 0.0
H1297 H 0.33914 0.62476 0.22384 0.0
H1298 H 0.32548 0.59134 0.0497 0.0
H1299 H 0.32022 0.57549 0.08838 0.0
H1300 H 0.30553 0.59059 0.07389 0.0
H1301 H 0.36525 0.61443 0.22009 0.0
H1302 H 0.36624 0.59394 0.2001 0.0
H1303 H 0.37143 0.60996 0.1619 0.0
H1304 H 0.36618 0.54814 0.11438 0.0
H1305 H 0.37928 0.58671 0.02332 0.0
H1306 H 0.33148 0.56495 0.15949 0.0
H1307 H 0.34702 0.57123 0.19798 0.0
H1308 H 0.34748 0.55125 0.17398 0.0
H1309 H 0.34697 0.61193 0.04729 0.0
H1310 H 0.36748 0.61218 0.02722 0.0
H1311 H 0.36266 0.61811 0.08541 0.0
C1312 C 0.13008 0.56943 0.92049 0.0
C1313 C 0.13047 0.55342 0.90552 0.0
C1314 C 0.14059 0.58092 0.90193 0.0
C1315 C 0.15156 0.57633 0.86702 0.0
C1316 C 0.15184 0.56023 0.85127 0.0
C1317 C 0.14138 0.54893 0.87099 0.0
C1318 C 0.1401 0.59792 0.92009 0.0
C1319 C 0.1632 0.55495 0.81359 0.0
C1320 C 0.16881 0.6093 0.79116 0.0
C1321 C 0.18421 0.61127 0.81 0.0
C1322 C 0.15811 0.59786 0.8091 0.0
C1323 C 0.16284 0.58836 0.84726 0.0
C1324 C 0.17832 0.59038 0.86667 0.0
C1325 C 0.18887 0.60172 0.84755 0.0
C1326 C 0.14179 0.59588 0.78706 0.0
C1327 C 0.1837 0.58064 0.9078 0.0
H1328 H 0.12174 0.57296 0.94736 0.0
H1329 H 0.14168 0.53658 0.85913 0.0
H1330 H 0.15202 0.60126 0.93428 0.0
H1331 H 0.13742 0.60641 0.8916 0.0
H1332 H 0.13092 0.59952 0.94753 0.0
H1333 H 0.1616 0.5421 0.80433 0.0
H1334 H 0.16129 0.56236 0.78224 0.0
H1335 H 0.17581 0.55682 0.82475 0.0
H1336 H 0.16517 0.61657 0.76196 0.0
H1337 H 0.20073 0.60324 0.86238 0.0
H1338 H 0.13222 0.59838 0.81272 0.0
H1339 H 0.14019 0.58329 0.77534 0.0
H1340 H 0.14007 0.60401 0.75706 0.0
H1341 H 0.1753 0.58253 0.93703 0.0
H1342 H 0.19602 0.58384 0.91924 0.0
H1343 H 0.18343 0.56765 0.89926 0.0
C1344 C 0.17095 0.45501 0.55887 0.0
C1345 C 0.15732 0.46207 0.57865 0.0
C1346 C 0.17797 0.44129 0.57843 0.0
C1347 C 0.17153 0.43484 0.61968 0.0
C1348 C 0.15779 0.44199 0.63992 0.0
C1349 C 0.15067 0.45538 0.61865 0.0
C1350 C 0.1923 0.43371 0.55501 0.0
C1351 C 0.15089 0.43578 0.68465 0.0
C1352 C 0.18201 0.39206 0.65438 0.0
C1353 C 0.19521 0.39457 0.68347 0.0
C1354 C 0.17425 0.40506 0.63296 0.0
C1355 C 0.17949 0.42092 0.6423 0.0
C1356 C 0.19257 0.4235 0.67265 0.0
C1357 C 0.20046 0.41026 0.69222 0.0
C1358 C 0.16069 0.40181 0.59963 0.0
C1359 C 0.1982 0.44024 0.6846 0.0
H1360 H 0.176 0.46012 0.52767 0.0
H1361 H 0.14018 0.46092 0.63409 0.0
H1362 H 0.20301 0.43461 0.57763 0.0
H1363 H 0.19002 0.42074 0.54893 0.0
H1364 H 0.19513 0.43952 0.52148 0.0
H1365 H 0.14021 0.44275 0.69597 0.0
H1366 H 0.14739 0.42299 0.68091 0.0
H1367 H 0.16015 0.43638 0.71215 0.0
H1368 H 0.17803 0.3799 0.6474 0.0
H1369 H 0.21059 0.41219 0.71509 0.0
H1370 H 0.16368 0.4069 0.5653 0.0
H1371 H 0.14955 0.4078 0.61159 0.0
H1372 H 0.15824 0.38876 0.59561 0.0
H1373 H 0.20273 0.44636 0.65322 0.0
H1374 H 0.2079 0.44019 0.71091 0.0
H1375 H 0.18799 0.44746 0.69789 0.0
C1376 C 0.23699 0.23559 0.36856 0.0
C1377 C 0.25065 0.22603 0.36138 0.0
C1378 C 0.23762 0.25232 0.3629 0.0
C1379 C 0.25224 0.25965 0.34953 0.0
C1380 C 0.26628 0.25019 0.34499 0.0
C1381 C 0.26533 0.23348 0.35109 0.0
C1382 C 0.2224 0.26201 0.36847 0.0
C1383 C 0.28211 0.25756 0.33085 0.0
C1384 C 0.24915 0.29657 0.27367 0.0
C1385 C 0.25256 0.30903 0.30472 0.0
C1386 C 0.24901 0.28051 0.28799 0.0
C1387 C 0.25235 0.27674 0.33462 0.0
C1388 C 0.25574 0.28923 0.36634 0.0
C1389 C 0.25582 0.30527 0.35098 0.0
C1390 C 0.24533 0.26754 0.25305 0.0
C1391 C 0.25932 0.28564 0.41633 0.0
H1392 H 0.22563 0.22996 0.37704 0.0
H1393 H 0.27597 0.22621 0.34578 0.0
H1394 H 0.22466 0.27282 0.38989 0.0
H1395 H 0.21826 0.26621 0.33415 0.0
H1396 H 0.2126 0.2549 0.38456 0.0
H1397 H 0.29225 0.24896 0.33419 0.0
H1398 H 0.28138 0.26153 0.29437 0.0
H1399 H 0.28475 0.26833 0.35206 0.0
H1400 H 0.24662 0.29934 0.23787 0.0
H1401 H 0.25848 0.31483 0.37517 0.0
H1402 H 0.23463 0.26059 0.26411 0.0
H1403 H 0.25555 0.25901 0.2508 0.0
H1404 H 0.243 0.2725 0.2181 0.0
H1405 H 0.24912 0.27903 0.43204 0.0
H1406 H 0.26154 0.29672 0.43672 0.0
H1407 H 0.27004 0.27778 0.41892 0.0
C1408 C 0.02002 0.01652 0.60315 0.0
C1409 C 0.03049 0.00447 0.58759 0.0
C1410 C 0.00334 0.0151 0.59724 0.0
C1411 C 0.99698 0.00129 0.57535 0.0
C1412 C 0.00742 0.98873 0.56168 0.0
C1413 C 0.02405 0.99048 0.56791 0.0
C1414 C 0.99259 0.02872 0.61241 0.0
C1415 C 0.0011 0.97377 0.53844 0.0
C1416 C 0.95212 0.99247 0.57882 0.0
C1417 C 0.94717 0.99817 0.53553 0.0
C1418 C 0.96826 0.99362 0.59275 0.0
C1419 C 0.97968 0.00063 0.56264 0.0
C1420 C 0.97468 0.00666 0.51931 0.0
C1421 C 0.95851 0.00538 0.50634 0.0
C1422 C 0.97316 0.9871 0.63926 0.0
C1423 C 0.98647 0.01423 0.48619 0.0
H1424 H 0.02488 0.02733 0.61862 0.0
H1425 H 0.03202 0.98104 0.55613 0.0
H1426 H 0.9874 0.03472 0.58164 0.0
H1427 H 0.98242 0.02408 0.63324 0.0
H1428 H 0.99917 0.03785 0.63304 0.0
H1429 H 0.01058 0.96452 0.53377 0.0
H1430 H 0.99116 0.96849 0.55888 0.0
H1431 H 0.99617 0.97693 0.50404 0.0
H1432 H 0.94343 0.98689 0.6016 0.0
H1433 H 0.95482 0.00986 0.47288 0.0
H1434 H 0.97941 0.99654 0.6595 0.0
H1435 H 0.98176 0.97705 0.63464 0.0
H1436 H 0.96272 0.98269 0.65949 0.0
H1437 H 0.99275 0.02441 0.50311 0.0
H1438 H 0.98056 0.01873 0.45434 0.0
H1439 H 0.99575 0.00531 0.47624 0.0
C1440 C 0.24447 0.68601 0.83754 0.0
C1441 C 0.25597 0.67976 0.80701 0.0
C1442 C 0.24401 0.70252 0.84771 0.0
C1443 C 0.25523 0.71298 0.82663 0.0
C1444 C 0.26731 0.70661 0.79756 0.0
C1445 C 0.26756 0.69009 0.78823 0.0
C1446 C 0.23107 0.70885 0.87933 0.0
C1447 C 0.27952 0.71735 0.77439 0.0
C1448 C 0.24404 0.75615 0.80043 0.0
C1449 C 0.25316 0.76462 0.83305 0.0
C1450 C 0.24419 0.73932 0.79908 0.0
C1451 C 0.25359 0.7307 0.83139 0.0
C1452 C 0.26229 0.73912 0.86569 0.0
C1453 C 0.26203 0.75601 0.866 0.0
C1454 C 0.23479 0.73079 0.76182 0.0
C1455 C 0.27228 0.73033 0.90106 0.0
H1456 H 0.23552 0.6781 0.85241 0.0
H1457 H 0.27656 0.68537 0.76485 0.0
H1458 H 0.23633 0.71696 0.90569 0.0
H1459 H 0.22231 0.71601 0.85905 0.0
H1460 H 0.22449 0.69903 0.89711 0.0
H1461 H 0.2888 0.71041 0.7554 0.0
H1462 H 0.27334 0.72544 0.74964 0.0
H1463 H 0.28559 0.72505 0.80029 0.0
H1464 H 0.2371 0.76269 0.77495 0.0
H1465 H 0.26901 0.76245 0.89155 0.0
H1466 H 0.22676 0.72162 0.7773 0.0
H1467 H 0.24319 0.72441 0.7384 0.0
H1468 H 0.22739 0.73919 0.74096 0.0
H1469 H 0.26508 0.72075 0.9178 0.0
H1470 H 0.27699 0.73851 0.92816 0.0
H1471 H 0.2826 0.72442 0.8838 0.0
C1472 C 0.48131 0.00519 0.10203 0.0
C1473 C 0.4723 0.99265 0.0826 0.0
C1474 C 0.49777 0.00687 0.09231 0.0
C1475 C 0.50533 0.99581 0.06223 0.0
C1476 C 0.49642 0.98283 0.0438 0.0
C1477 C 0.48004 0.98138 0.05432 0.0
C1478 C 0.50692 0.02078 0.11294 0.0
C1479 C 0.50403 0.9708 0.01148 0.0
C1480 C 0.54104 0.00858 0.98994 0.0
C1481 C 0.55377 0.00063 0.01198 0.0
C1482 C 0.52531 0.00754 0.00692 0.0
C1483 C 0.52221 0.99839 0.04709 0.0
C1484 C 0.53508 0.99087 0.07062 0.0
C1485 C 0.55073 0.99204 0.0527 0.0
C1486 C 0.51191 0.01573 0.98077 0.0
C1487 C 0.53225 0.98113 0.11379 0.0
H1488 H 0.47545 0.01391 0.12415 0.0
H1489 H 0.47321 0.97161 0.03927 0.0
H1490 H 0.51813 0.01646 0.12953 0.0
H1491 H 0.51046 0.02927 0.08524 0.0
H1492 H 0.49971 0.02743 0.13894 0.0
H1493 H 0.49568 0.96089 0.00219 0.0
H1494 H 0.50784 0.97694 0.97932 0.0
H1495 H 0.51493 0.96553 0.02744 0.0
H1496 H 0.54326 0.01531 0.95859 0.0
H1497 H 0.56051 0.98593 0.07007 0.0
H1498 H 0.50489 0.02357 0.00424 0.0
H1499 H 0.50353 0.00656 0.96682 0.0
H1500 H 0.51644 0.02312 0.95165 0.0
H1501 H 0.52516 0.98818 0.13908 0.0
H1502 H 0.54367 0.9773 0.13031 0.0
H1503 H 0.52515 0.97025 0.1052 0.0
C1504 C 0.24328 0.69558 0.2389 0.0
C1505 C 0.24999 0.68409 0.20924 0.0
C1506 C 0.2422 0.71176 0.22599 0.0
C1507 C 0.24793 0.71662 0.18222 0.0
C1508 C 0.2544 0.70506 0.15159 0.0
C1509 C 0.25538 0.6889 0.1655 0.0
C1510 C 0.2352 0.72372 0.25968 0.0
C1511 C 0.26056 0.70981 0.10456 0.0
C1512 C 0.2326 0.7575 0.14459 0.0
C1513 C 0.24512 0.76758 0.15919 0.0
C1514 C 0.23371 0.74075 0.14947 0.0
C1515 C 0.24762 0.73395 0.16971 0.0
C1516 C 0.2606 0.744 0.18241 0.0
C1517 C 0.25922 0.76069 0.17685 0.0
C1518 C 0.21968 0.73041 0.13506 0.0
C1519 C 0.27563 0.73722 0.2042 0.0
H1520 H 0.23903 0.69199 0.2727 0.0
H1521 H 0.26056 0.68008 0.14235 0.0
H1522 H 0.24441 0.73281 0.26892 0.0
H1523 H 0.225 0.73021 0.24358 0.0
H1524 H 0.23089 0.71791 0.29188 0.0
H1525 H 0.26438 0.69925 0.08382 0.0
H1526 H 0.25113 0.71641 0.08526 0.0
H1527 H 0.27096 0.71804 0.10834 0.0
H1528 H 0.22172 0.76271 0.1305 0.0
H1529 H 0.26899 0.76837 0.18801 0.0
H1530 H 0.21376 0.72539 0.16616 0.0
H1531 H 0.22387 0.72012 0.11391 0.0
H1532 H 0.2106 0.73728 0.11502 0.0
H1533 H 0.27271 0.7323 0.23877 0.0
H1534 H 0.28518 0.74643 0.20823 0.0
H1535 H 0.28042 0.72718 0.18314 0.0
C1536 C 0.4778 0.99979 0.54717 0.0
C1537 C 0.46972 0.99872 0.50478 0.0
C1538 C 0.49463 0.99924 0.5494 0.0
C1539 C 0.50362 0.99756 0.50826 0.0
C1540 C 0.49556 0.99627 0.46541 0.0
C1541 C 0.4787 0.99688 0.46417 0.0
C1542 C 0.5028 0.00064 0.59576 0.0
C1543 C 0.50475 0.99444 0.42082 0.0
C1544 C 0.54692 0.01195 0.50854 0.0
C1545 C 0.55541 0.9975 0.51372 0.0
C1546 C 0.53008 0.01213 0.50667 0.0
C1547 C 0.52149 0.9975 0.51003 0.0
C1548 C 0.52996 0.98287 0.51537 0.0
C1549 C 0.54682 0.98304 0.51719 0.0
C1550 C 0.52146 0.02798 0.50106 0.0
C1551 C 0.5212 0.96703 0.51909 0.0
H1552 H 0.47097 0.00119 0.57874 0.0
H1553 H 0.47256 0.99601 0.43128 0.0
H1554 H 0.51063 0.99006 0.60178 0.0
H1555 H 0.51061 0.01144 0.5963 0.0
H1556 H 0.49406 0.00154 0.6246 0.0
H1557 H 0.49667 0.9932 0.39051 0.0
H1558 H 0.51261 0.00503 0.41544 0.0
H1559 H 0.51264 0.98371 0.42257 0.0
H1560 H 0.55345 0.02318 0.50584 0.0
H1561 H 0.55326 0.97181 0.52117 0.0
H1562 H 0.51322 0.02997 0.53058 0.0
H1563 H 0.51402 0.02778 0.46932 0.0
H1564 H 0.52991 0.03829 0.49893 0.0
H1565 H 0.51295 0.96724 0.54913 0.0
H1566 H 0.52956 0.95671 0.52303 0.0
H1567 H 0.51374 0.96506 0.48788 0.0
C1568 C 0.247 0.31016 0.67044 0.0
C1569 C 0.25644 0.31482 0.70827 0.0
C1570 C 0.24588 0.29393 0.65734 0.0
C1571 C 0.25435 0.28214 0.68278 0.0
C1572 C 0.26433 0.28686 0.71993 0.0
C1573 C 0.26527 0.30311 0.73214 0.0
C1574 C 0.23524 0.28935 0.61728 0.0
C1575 C 0.2736 0.27466 0.7479 0.0
C1576 C 0.23979 0.23914 0.6925 0.0
C1577 C 0.25109 0.23093 0.66542 0.0
C1578 C 0.24023 0.25593 0.69659 0.0
C1579 C 0.25218 0.26474 0.67277 0.0
C1580 C 0.26302 0.25662 0.64325 0.0
C1581 C 0.26238 0.23979 0.64003 0.0
C1582 C 0.22844 0.26414 0.72842 0.0
C1583 C 0.2758 0.26561 0.61685 0.0
H1584 H 0.24018 0.31914 0.65173 0.0
H1585 H 0.27267 0.30659 0.76124 0.0
H1586 H 0.2419 0.28162 0.59269 0.0
H1587 H 0.22484 0.28229 0.63002 0.0
H1588 H 0.23063 0.30003 0.59849 0.0
H1589 H 0.28139 0.28037 0.77437 0.0
H1590 H 0.26511 0.26643 0.76556 0.0
H1591 H 0.28125 0.26723 0.72494 0.0
H1592 H 0.23096 0.23242 0.71202 0.0
H1593 H 0.27106 0.23356 0.61867 0.0
H1594 H 0.22251 0.27431 0.71052 0.0
H1595 H 0.23496 0.26915 0.75856 0.0
H1596 H 0.21904 0.25578 0.74121 0.0
H1597 H 0.27052 0.2761 0.59876 0.0
H1598 H 0.28194 0.25786 0.59112 0.0
H1599 H 0.28495 0.27028 0.64128 0.0
C1600 C 0.01885 0.98911 0.9677 0.0
C1601 C 0.02832 0.99574 0.93253 0.0
C1602 C 0.00232 0.99221 0.97014 0.0
C1603 C 0.99502 0.00213 0.93645 0.0
C1604 C 0.00441 0.00854 0.90014 0.0
C1605 C 0.02098 0.0053 0.89866 0.0
C1606 C 0.99274 0.98517 0.00952 0.0
C1607 C 0.99701 0.01907 0.86344 0.0
C1608 C 0.94953 0.99905 0.93227 0.0
C1609 C 0.94498 0.01187 0.96085 0.0
C1610 C 0.96578 0.99618 0.922 0.0
C1611 C 0.97772 0.00633 0.94094 0.0
C1612 C 0.97314 0.01976 0.96786 0.0
C1613 C 0.95684 0.02238 0.97738 0.0
C1614 C 0.97019 0.98184 0.89273 0.0
C1615 C 0.98551 0.03088 0.98867 0.0
H1616 H 0.02439 0.98168 0.99396 0.0
H1617 H 0.0282 0.01042 0.87125 0.0
H1618 H 0.98768 0.99499 0.03094 0.0
H1619 H 0.98249 0.97809 0.99594 0.0
H1620 H 0.00011 0.97727 0.03201 0.0
H1621 H 0.00573 0.02224 0.83589 0.0
H1622 H 0.98658 0.01292 0.84748 0.0
H1623 H 0.99248 0.03032 0.87927 0.0
H1624 H 0.94045 0.99092 0.91909 0.0
H1625 H 0.95345 0.03239 0.99924 0.0
H1626 H 0.97624 0.97269 0.91448 0.0
H1627 H 0.97877 0.98539 0.8653 0.0
H1628 H 0.9595 0.97623 0.87638 0.0
H1629 H 0.99266 0.02427 0.01485 0.0
H1630 H 0.97995 0.0415 0.00552 0.0
H1631 H 0.99399 0.03513 0.9618 0.0
C1632 C 0.76036 0.78567 0.74416 0.0
C1633 C 0.75704 0.79802 0.77567 0.0
C1634 C 0.76018 0.76952 0.75777 0.0
C1635 C 0.75652 0.76555 0.80406 0.0
C1636 C 0.75336 0.77794 0.8363 0.0
C1637 C 0.75369 0.79406 0.82173 0.0
C1638 C 0.76371 0.75668 0.72236 0.0
C1639 C 0.74939 0.77415 0.88591 0.0
C1640 C 0.74109 0.723 0.8188 0.0
C1641 C 0.75513 0.71476 0.8314 0.0
C1642 C 0.74119 0.7397 0.8121 0.0
C1643 C 0.75568 0.74836 0.81793 0.0
C1644 C 0.76971 0.74024 0.83273 0.0
C1645 C 0.76926 0.72353 0.8394 0.0
C1646 C 0.72594 0.74794 0.79669 0.0
C1647 C 0.78539 0.74906 0.83932 0.0
H1648 H 0.76304 0.7886 0.70856 0.0
H1649 H 0.7511 0.80353 0.84628 0.0
H1650 H 0.77388 0.74909 0.7341 0.0
H1651 H 0.75312 0.74871 0.71836 0.0
H1652 H 0.76676 0.76179 0.68807 0.0
H1653 H 0.74774 0.78517 0.90702 0.0
H1654 H 0.73819 0.76694 0.88755 0.0
H1655 H 0.75909 0.76679 0.9015 0.0
H1656 H 0.73009 0.71635 0.81295 0.0
H1657 H 0.78015 0.71729 0.84936 0.0
H1658 H 0.72738 0.75225 0.7607 0.0
H1659 H 0.72351 0.75861 0.81854 0.0
H1660 H 0.71537 0.73982 0.7981 0.0
H1661 H 0.78988 0.75329 0.80539 0.0
H1662 H 0.79476 0.74134 0.85529 0.0
H1663 H 0.78361 0.75982 0.8613 0.0
C1664 C 0.73498 0.27251 0.28855 0.0
C1665 C 0.74232 0.28206 0.32239 0.0
C1666 C 0.73729 0.25584 0.28748 0.0
C1667 C 0.74711 0.24846 0.32126 0.0
C1668 C 0.75418 0.25793 0.35638 0.0
C1669 C 0.75175 0.27465 0.35645 0.0
C1670 C 0.72957 0.24617 0.24933 0.0
C1671 C 0.76462 0.25047 0.39319 0.0
C1672 C 0.7424 0.20315 0.32894 0.0
C1673 C 0.75486 0.1979 0.30004 0.0
C1674 C 0.74019 0.21958 0.33817 0.0
C1675 C 0.75064 0.23098 0.31785 0.0
C1676 C 0.76371 0.22568 0.29059 0.0
C1677 C 0.76568 0.20922 0.28213 0.0
C1678 C 0.72622 0.22477 0.36784 0.0
C1679 C 0.77514 0.23745 0.26831 0.0
H1680 H 0.72764 0.27811 0.26216 0.0
H1681 H 0.7574 0.28192 0.38287 0.0
H1682 H 0.73902 0.24054 0.22769 0.0
H1683 H 0.72223 0.23632 0.26415 0.0
H1684 H 0.72177 0.25363 0.2268 0.0
H1685 H 0.76824 0.25929 0.42001 0.0
H1686 H 0.75819 0.24038 0.41008 0.0
H1687 H 0.77563 0.24542 0.37725 0.0
H1688 H 0.73404 0.19449 0.34316 0.0
H1689 H 0.77541 0.20528 0.26003 0.0
H1690 H 0.71713 0.23093 0.34613 0.0
H1691 H 0.73026 0.23348 0.39439 0.0
H1692 H 0.72036 0.21444 0.38533 0.0
H1693 H 0.76861 0.24463 0.24205 0.0
H1694 H 0.78541 0.23135 0.25123 0.0
H1695 H 0.77991 0.24596 0.29437 0.0
C1696 C 0.77573 0.27813 0.65546 0.0
C1697 C 0.76181 0.28705 0.66498 0.0
C1698 C 0.77586 0.26134 0.65996 0.0
C1699 C 0.76172 0.25327 0.67408 0.0
C1700 C 0.74741 0.26212 0.68126 0.0
C1701 C 0.74764 0.2789 0.67676 0.0
C1702 C 0.79137 0.25233 0.65203 0.0
C1703 C 0.73205 0.25394 0.69596 0.0
C1704 C 0.75936 0.20766 0.66564 0.0
C1705 C 0.7629 0.20311 0.71113 0.0
C1706 C 0.759 0.22396 0.6528 0.0
C1707 C 0.76233 0.23592 0.68622 0.0
C1708 C 0.7661 0.23136 0.73199 0.0
C1709 C 0.76631 0.21505 0.74386 0.0
C1710 C 0.75487 0.22839 0.60373 0.0
C1711 C 0.76981 0.24373 0.76862 0.0
H1712 H 0.78672 0.28431 0.6461 0.0
H1713 H 0.73679 0.28568 0.68374 0.0
H1714 H 0.79589 0.24759 0.68536 0.0
H1715 H 0.78933 0.2419 0.62897 0.0
H1716 H 0.80081 0.26009 0.63663 0.0
H1717 H 0.7216 0.26224 0.69529 0.0
H1718 H 0.72944 0.24355 0.67318 0.0
H1719 H 0.73343 0.24923 0.73155 0.0
H1720 H 0.7567 0.19851 0.64017 0.0
H1721 H 0.76912 0.21166 0.77905 0.0
H1722 H 0.76466 0.23571 0.58848 0.0
H1723 H 0.74383 0.23587 0.60318 0.0
H1724 H 0.7529 0.21766 0.58167 0.0
H1725 H 0.78007 0.25131 0.75758 0.0
H1726 H 0.77282 0.23817 0.80238 0.0
H1727 H 0.75933 0.25179 0.77346 0.0
C1728 C 0.73622 0.7402 0.19344 0.0
C1729 C 0.74616 0.73164 0.16309 0.0
C1730 C 0.73654 0.75703 0.19498 0.0
C1731 C 0.74696 0.76556 0.16518 0.0
C1732 C 0.75655 0.75705 0.1331 0.0
C1733 C 0.75609 0.74017 0.13255 0.0
C1734 C 0.72615 0.76565 0.22982 0.0
C1735 C 0.76768 0.76574 0.10044 0.0
C1736 C 0.73845 0.81033 0.15695 0.0
C1737 C 0.74902 0.81647 0.19029 0.0
C1738 C 0.73816 0.79383 0.14662 0.0
C1739 C 0.74862 0.78326 0.17038 0.0
C1740 C 0.75983 0.78952 0.20241 0.0
C1741 C 0.75992 0.80603 0.21185 0.0
C1742 C 0.72617 0.78762 0.11184 0.0
C1743 C 0.77119 0.77866 0.22849 0.0
H1744 H 0.72846 0.73374 0.21705 0.0
H1745 H 0.76373 0.73365 0.10876 0.0
H1746 H 0.73389 0.77194 0.25524 0.0
H1747 H 0.7187 0.7749 0.21245 0.0
H1748 H 0.71807 0.75732 0.24876 0.0
H1749 H 0.77312 0.75752 0.0746 0.0
H1750 H 0.76112 0.7754 0.08199 0.0
H1751 H 0.77749 0.77154 0.12028 0.0
H1752 H 0.73005 0.81832 0.13993 0.0
H1753 H 0.76821 0.81066 0.23743 0.0
H1754 H 0.71679 0.78052 0.12981 0.0
H1755 H 0.73214 0.77948 0.08684 0.0
H1756 H 0.72023 0.7975 0.09255 0.0
H1757 H 0.76423 0.77064 0.25163 0.0
H1758 H 0.77994 0.78552 0.24971 0.0
H1759 H 0.77795 0.7709 0.20419 0.0
C1760 C 0.52096 0.49848 0.09312 0.0
C1761 C 0.52829 0.50758 0.05821 0.0
C1762 C 0.50419 0.49654 0.09449 0.0
C1763 C 0.49457 0.50378 0.05999 0.0
C1764 C 0.50189 0.51324 0.02526 0.0
C1765 C 0.51863 0.51505 0.02487 0.0
C1766 C 0.49679 0.48647 0.13223 0.0
C1767 C 0.49206 0.52113 0.98775 0.0
C1768 C 0.45417 0.4866 0.02548 0.0
C1769 C 0.44351 0.49788 0.04436 0.0
C1770 C 0.4708 0.48798 0.03213 0.0
C1771 C 0.47694 0.50092 0.05845 0.0
C1772 C 0.46621 0.51184 0.0797 0.0
C1773 C 0.4496 0.51021 0.07236 0.0
C1774 C 0.48184 0.47604 0.00897 0.0
C1775 C 0.4723 0.52571 0.10835 0.0
H1776 H 0.52832 0.49273 0.11915 0.0
H1777 H 0.52417 0.52213 0.99783 0.0
H1778 H 0.48723 0.49335 0.15012 0.0
H1779 H 0.49107 0.47566 0.11701 0.0
H1780 H 0.50581 0.48251 0.15812 0.0
H1781 H 0.49953 0.52854 0.96419 0.0
H1782 H 0.48583 0.51181 0.96705 0.0
H1783 H 0.48267 0.52891 0.00322 0.0
H1784 H 0.44958 0.47696 0.00407 0.0
H1785 H 0.44145 0.51894 0.08727 0.0
H1786 H 0.49052 0.47105 0.03423 0.0
H1787 H 0.48889 0.4822 0.98172 0.0
H1788 H 0.47514 0.46594 0.99292 0.0
H1789 H 0.48117 0.52144 0.13415 0.0
H1790 H 0.46243 0.53204 0.12665 0.0
H1791 H 0.47853 0.53447 0.08571 0.0
C1792 C 0.98653 0.50562 0.59005 0.0
C1793 C 0.97837 0.50343 0.6319 0.0
C1794 C 0.00325 0.50412 0.58737 0.0
C1795 C 0.01215 0.50034 0.62756 0.0
C1796 C 0.00407 0.49837 0.67019 0.0
C1797 C 0.98725 0.50002 0.6719 0.0
C1798 C 0.01136 0.50624 0.54112 0.0
C1799 C 0.01313 0.49451 0.71391 0.0
C1800 C 0.05186 0.48111 0.5968 0.0
C1801 C 0.06199 0.49456 0.59457 0.0
C1802 C 0.03583 0.4826 0.61105 0.0
C1803 C 0.02981 0.49789 0.62366 0.0
C1804 C 0.04035 0.51121 0.6255 0.0
C1805 C 0.05633 0.50941 0.61076 0.0
C1806 C 0.02502 0.46804 0.60919 0.0
C1807 C 0.03446 0.52762 0.63978 0.0
H1808 H 0.97981 0.50832 0.55896 0.0
H1809 H 0.98106 0.49842 0.70448 0.0
H1810 H 0.0206 0.51582 0.54331 0.0
H1811 H 0.01758 0.49496 0.53122 0.0
H1812 H 0.00274 0.50944 0.51336 0.0
H1813 H 0.00496 0.4907 0.74213 0.0
H1814 H 0.02208 0.48486 0.70792 0.0
H1815 H 0.01979 0.50533 0.72544 0.0
H1816 H 0.05617 0.46954 0.58496 0.0
H1817 H 0.06412 0.51983 0.60981 0.0
H1818 H 0.01646 0.46933 0.58007 0.0
H1819 H 0.01785 0.46704 0.64131 0.0
H1820 H 0.03191 0.45674 0.60429 0.0
H1821 H 0.02668 0.53264 0.61222 0.0
H1822 H 0.04453 0.53612 0.64592 0.0
H1823 H 0.02711 0.52679 0.67159 0.0
C1824 C 0.03436 0.51503 0.94037 0.0
C1825 C 0.04504 0.50285 0.92699 0.0
C1826 C 0.01815 0.51459 0.92729 0.0
C1827 C 0.01247 0.50168 0.90003 0.0
C1828 C 0.02339 0.48995 0.88374 0.0
C1829 C 0.03956 0.49063 0.89756 0.0
C1830 C 0.00693 0.52748 0.94477 0.0
C1831 C 0.01784 0.47624 0.85363 0.0
C1832 C 0.96908 0.49079 0.92362 0.0
C1833 C 0.961 0.49864 0.88764 0.0
C1834 C 0.98587 0.49116 0.92681 0.0
C1835 C 0.99487 0.49959 0.89319 0.0
C1836 C 0.98687 0.50692 0.85554 0.0
C1837 C 0.97001 0.50639 0.85326 0.0
C1838 C 0.99393 0.48306 0.96731 0.0
C1839 C 0.99596 0.51603 0.81885 0.0
H1840 H 0.03851 0.52463 0.96264 0.0
H1841 H 0.04776 0.48126 0.88659 0.0
H1842 H 0.99992 0.53263 0.91578 0.0
H1843 H 0.99824 0.52214 0.96941 0.0
H1844 H 0.01344 0.53736 0.96248 0.0
H1845 H 0.02807 0.46948 0.83853 0.0
H1846 H 0.01049 0.46781 0.87444 0.0
H1847 H 0.01013 0.48076 0.82523 0.0
H1848 H 0.96225 0.48464 0.95011 0.0
H1849 H 0.96389 0.51245 0.8252 0.0
H1850 H 0.99984 0.49224 0.98931 0.0
H1851 H 0.00342 0.47473 0.95504 0.0
H1852 H 0.98531 0.47619 0.9889 0.0
H1853 H 0.99813 0.52847 0.83104 0.0
H1854 H 0.98901 0.5167 0.78617 0.0
H1855 H 0.0078 0.51046 0.81162 0.0
C1856 C 0.51771 0.50229 0.40405 0.0
C1857 C 0.52495 0.48936 0.42719 0.0
C1858 C 0.50098 0.50452 0.40528 0.0
C1859 C 0.49131 0.49365 0.43053 0.0
C1860 C 0.49849 0.48028 0.45259 0.0
C1861 C 0.5152 0.47827 0.45051 0.0
C1862 C 0.49372 0.51882 0.38092 0.0
C1863 C 0.4886 0.46844 0.48002 0.0
C1864 C 0.45234 0.50757 0.48487 0.0
C1865 C 0.44081 0.50019 0.45666 0.0
C1866 C 0.46879 0.50599 0.47571 0.0
C1867 C 0.47388 0.49685 0.43724 0.0
C1868 C 0.46231 0.48993 0.40743 0.0
C1869 C 0.44588 0.49165 0.41755 0.0
C1870 C 0.48074 0.51357 0.50837 0.0
C1871 C 0.4673 0.48023 0.36583 0.0
H1872 H 0.52513 0.51085 0.38566 0.0
H1873 H 0.52067 0.46821 0.46834 0.0
H1874 H 0.48352 0.51498 0.3589 0.0
H1875 H 0.4889 0.52739 0.40677 0.0
H1876 H 0.50263 0.52523 0.35911 0.0
H1877 H 0.49588 0.45817 0.4928 0.0
H1878 H 0.48314 0.4746 0.51012 0.0
H1879 H 0.47863 0.46368 0.45863 0.0
H1880 H 0.44854 0.51427 0.51501 0.0
H1881 H 0.43705 0.48596 0.39547 0.0
H1882 H 0.48933 0.5212 0.48902 0.0
H1883 H 0.48781 0.50404 0.52583 0.0
H1884 H 0.47482 0.52105 0.53516 0.0
H1885 H 0.47611 0.48704 0.3448 0.0
H1886 H 0.4569 0.47698 0.34369 0.0
H1887 H 0.47329 0.46901 0.37726 0.0
loop_
_geom_bond_atom_site_label_1
_geom_bond_atom_site_label_2
_geom_bond_distance
_geom_bond_site_symmetry_2
_ccdc_geom_bond_type
O0 Cd1 2.300 . S
O0 C7 1.275 . S
Cd1 O0 2.300 . S
Cd1 O9 2.381 . S
Cd1 O10 2.378 . S
O2 Cd3 2.385 . S
O2 C7 1.255 . S
Cd3 O2 2.385 . S
Cd3 O4 2.317 . S
O4 Cd3 2.317 . S
O4 C5 1.232 . S
C5 O4 1.232 . S
C5 O6 1.218 . S
O6 C5 1.218 . S
C7 O0 1.275 . S
C7 O2 1.255 . S
C8 O9 1.258 . S
C8 O10 1.256 . S
O9 Cd1 2.381 . S
O9 C8 1.258 . S
O10 Cd1 2.378 . S
O10 C8 1.256 . S
O11 Cd12 2.300 . S
O11 C18 1.275 . S
Cd12 O11 2.300 . S
Cd12 O20 2.381 . S
Cd12 O21 2.378 . S
O13 Cd14 2.385 . S
O13 C18 1.255 . S
Cd14 O13 2.385 . S
Cd14 O15 2.317 . S
O15 Cd14 2.317 . S
O15 C16 1.232 . S
C16 O15 1.232 . S
C16 O17 1.218 . S
O17 C16 1.218 . S
C18 O11 1.275 . S
C18 O13 1.255 . S
C19 O20 1.258 . S
C19 O21 1.256 . S
O20 Cd12 2.381 . S
O20 C19 1.258 . S
O21 Cd12 2.378 . S
O21 C19 1.256 . S
O22 Cd23 2.300 . S
O22 C29 1.275 . S
Cd23 O22 2.300 . S
Cd23 O31 2.381 . S
Cd23 O32 2.378 . S
O24 Cd25 2.385 . S
O24 C29 1.255 . S
Cd25 O24 2.385 . S
Cd25 O26 2.317 . S
O26 Cd25 2.317 . S
O26 C27 1.232 . S
C27 O26 1.232 . S
C27 O28 1.218 . S
O28 C27 1.218 . S
C29 O22 1.275 . S
C29 O24 1.255 . S
C30 O31 1.258 . S
C30 O32 1.256 . S
O31 Cd23 2.381 . S
O31 C30 1.258 . S
O32 Cd23 2.378 . S
O32 C30 1.256 . S
O33 Cd34 2.300 . S
O33 C40 1.275 . S
Cd34 O33 2.300 . S
Cd34 O42 2.381 1_554 S
Cd34 O43 2.378 1_554 S
O35 Cd36 2.385 . S
O35 C40 1.255 . S
Cd36 O35 2.385 . S
Cd36 O37 2.317 1_554 S
O37 Cd36 2.317 1_556 S
O37 C38 1.232 1_556 S
C38 O37 1.232 1_554 S
C38 O39 1.218 . S
O39 C38 1.218 . S
C40 O33 1.275 . S
C40 O35 1.255 . S
C41 O42 1.258 . S
C41 O43 1.256 . S
O42 Cd34 2.381 1_556 S
O42 C41 1.258 . S
O43 Cd34 2.378 1_556 S
O43 C41 1.256 . S
O44 Cd45 2.300 . S
O44 C51 1.275 . S
Cd45 O44 2.300 . S
Cd45 O53 2.381 . S
Cd45 O54 2.378 . S
O46 Cd47 2.385 . S
O46 C51 1.255 . S
Cd47 O46 2.385 . S
Cd47 O48 2.317 . S
O48 Cd47 2.317 . S
O48 C49 1.232 . S
C49 O48 1.232 . S
C49 O50 1.218 . S
O50 C49 1.218 . S
C51 O44 1.275 . S
C51 O46 1.255 . S
C52 O53 1.258 . S
C52 O54 1.256 . S
O53 Cd45 2.381 . S
O53 C52 1.258 . S
O54 Cd45 2.378 . S
O54 C52 1.256 . S
O55 Cd56 2.300 . S
O55 C62 1.275 . S
Cd56 O55 2.300 . S
Cd56 O64 2.381 . S
Cd56 O65 2.378 . S
O57 Cd58 2.385 . S
O57 C62 1.255 . S
Cd58 O57 2.385 . S
Cd58 O59 2.317 . S
O59 Cd58 2.317 . S
O59 C60 1.232 . S
C60 O59 1.232 . S
C60 O61 1.218 . S
O61 C60 1.218 . S
C62 O55 1.275 . S
C62 O57 1.255 . S
C63 O64 1.258 . S
C63 O65 1.256 . S
O64 Cd56 2.381 . S
O64 C63 1.258 . S
O65 Cd56 2.378 . S
O65 C63 1.256 . S
O66 Cd67 2.300 . S
O66 C73 1.275 . S
Cd67 O66 2.300 . S
Cd67 O75 2.381 . S
Cd67 O76 2.378 . S
O68 Cd69 2.385 . S
O68 C73 1.255 . S
Cd69 O68 2.385 . S
Cd69 O70 2.317 . S
O70 Cd69 2.317 . S
O70 C71 1.232 . S
C71 O70 1.232 . S
C71 O72 1.218 . S
O72 C71 1.218 . S
C73 O66 1.275 . S
C73 O68 1.255 . S
C74 O75 1.258 . S
C74 O76 1.256 . S
O75 Cd67 2.381 . S
O75 C74 1.258 . S
O76 Cd67 2.378 . S
O76 C74 1.256 . S
O77 Cd78 2.300 . S
O77 C84 1.275 . S
Cd78 O77 2.300 . S
Cd78 O86 2.381 1_556 S
Cd78 O87 2.378 1_556 S
O79 Cd80 2.385 . S
O79 C84 1.255 . S
Cd80 O79 2.385 . S
Cd80 O81 2.317 1_556 S
O81 Cd80 2.317 1_554 S
O81 C82 1.232 1_554 S
C82 O81 1.232 1_556 S
C82 O83 1.218 . S
O83 C82 1.218 . S
C84 O77 1.275 . S
C84 O79 1.255 . S
C85 O86 1.258 . S
C85 O87 1.256 . S
O86 Cd78 2.381 1_554 S
O86 C85 1.258 . S
O87 Cd78 2.378 1_554 S
O87 C85 1.256 . S
O88 Cd89 2.300 . S
O88 C95 1.275 . S
Cd89 O88 2.300 . S
Cd89 O97 2.381 . S
Cd89 O98 2.378 . S
O90 Cd91 2.385 . S
O90 C95 1.255 . S
Cd91 O90 2.385 . S
Cd91 O92 2.317 . S
O92 Cd91 2.317 . S
O92 C93 1.232 . S
C93 O92 1.232 . S
C93 O94 1.218 . S
O94 C93 1.218 . S
C95 O88 1.275 . S
C95 O90 1.255 . S
C96 O97 1.258 . S
C96 O98 1.256 . S
O97 Cd89 2.381 . S
O97 C96 1.258 . S
O98 Cd89 2.378 . S
O98 C96 1.256 . S
O99 Cd100 2.300 . S
O99 C106 1.275 . S
Cd100 O99 2.300 . S
Cd100 O108 2.381 . S
Cd100 O109 2.378 . S
O101 Cd102 2.385 . S
O101 C106 1.255 1_565 S
Cd102 O101 2.385 . S
Cd102 O103 2.317 . S
O103 Cd102 2.317 . S
O103 C104 1.232 . S
C104 O103 1.232 . S
C104 O105 1.218 . S
O105 C104 1.218 . S
C106 O99 1.275 . S
C106 O101 1.255 1_545 S
C107 O108 1.258 . S
C107 O109 1.256 . S
O108 Cd100 2.381 . S
O108 C107 1.258 . S
O109 Cd100 2.378 . S
O109 C107 1.256 . S
O110 Cd111 2.300 . S
O110 C117 1.275 . S
Cd111 O110 2.300 . S
Cd111 O119 2.381 . S
Cd111 O120 2.378 . S
O112 Cd113 2.385 . S
O112 C117 1.255 . S
Cd113 O112 2.385 . S
Cd113 O114 2.317 . S
O114 Cd113 2.317 . S
O114 C115 1.232 . S
C115 O114 1.232 . S
C115 O116 1.218 . S
O116 C115 1.218 . S
C117 O110 1.275 . S
C117 O112 1.255 . S
C118 O119 1.258 . S
C118 O120 1.256 . S
O119 Cd111 2.381 . S
O119 C118 1.258 . S
O120 Cd111 2.378 . S
O120 C118 1.256 . S
O121 Cd122 2.300 1_556 S
O121 C128 1.275 . S
Cd122 O121 2.300 1_554 S
Cd122 O130 2.381 . S
Cd122 O131 2.378 . S
O123 Cd124 2.385 1_556 S
O123 C128 1.255 1_545 S
Cd124 O123 2.385 1_554 S
Cd124 O125 2.317 . S
O125 Cd124 2.317 . S
O125 C126 1.232 . S
C126 O125 1.232 . S
C126 O127 1.218 1_554 S
O127 C126 1.218 1_556 S
C128 O121 1.275 . S
C128 O123 1.255 1_565 S
C129 O130 1.258 . S
C129 O131 1.256 . S
O130 Cd122 2.381 . S
O130 C129 1.258 . S
O131 Cd122 2.378 . S
O131 C129 1.256 . S
O132 Cd133 2.300 . S
O132 C139 1.275 . S
Cd133 O132 2.300 . S
Cd133 O141 2.381 . S
Cd133 O142 2.378 . S
O134 Cd135 2.385 . S
O134 C139 1.255 . S
Cd135 O134 2.385 . S
Cd135 O136 2.317 . S
O136 Cd135 2.317 . S
O136 C137 1.232 . S
C137 O136 1.232 . S
C137 O138 1.218 . S
O138 C137 1.218 . S
C139 O132 1.275 . S
C139 O134 1.255 . S
C140 O141 1.258 . S
C140 O142 1.256 . S
O141 Cd133 2.381 . S
O141 C140 1.258 . S
O142 Cd133 2.378 . S
O142 C140 1.256 . S
O143 Cd144 2.300 . S
O143 C150 1.275 . S
Cd144 O143 2.300 . S
Cd144 O152 2.381 . S
Cd144 O153 2.378 . S
O145 Cd146 2.385 . S
O145 C150 1.255 1_565 S
Cd146 O145 2.385 . S
Cd146 O147 2.317 . S
O147 Cd146 2.317 . S
O147 C148 1.232 . S
C148 O147 1.232 . S
C148 O149 1.218 . S
O149 C148 1.218 . S
C150 O143 1.275 . S
C150 O145 1.255 1_545 S
C151 O152 1.258 . S
C151 O153 1.256 . S
O152 Cd144 2.381 . S
O152 C151 1.258 . S
O153 Cd144 2.378 . S
O153 C151 1.256 . S
O154 Cd155 2.300 . S
O154 C161 1.275 . S
Cd155 O154 2.300 . S
Cd155 O163 2.381 . S
Cd155 O164 2.378 . S
O156 Cd157 2.385 . S
O156 C161 1.255 . S
Cd157 O156 2.385 . S
Cd157 O158 2.317 . S
O158 Cd157 2.317 . S
O158 C159 1.232 . S
C159 O158 1.232 . S
C159 O160 1.218 . S
O160 C159 1.218 . S
C161 O154 1.275 . S
C161 O156 1.255 . S
C162 O163 1.258 . S
C162 O164 1.256 . S
O163 Cd155 2.381 . S
O163 C162 1.258 . S
O164 Cd155 2.378 . S
O164 C162 1.256 . S
O165 Cd166 2.300 1_554 S
O165 C172 1.275 . S
Cd166 O165 2.300 1_556 S
Cd166 O174 2.381 . S
Cd166 O175 2.378 . S
O167 Cd168 2.385 1_554 S
O167 C172 1.255 1_545 S
Cd168 O167 2.385 1_556 S
Cd168 O169 2.317 . S
O169 Cd168 2.317 . S
O169 C170 1.232 . S
C170 O169 1.232 . S
C170 O171 1.218 1_556 S
O171 C170 1.218 1_554 S
C172 O165 1.275 . S
C172 O167 1.255 1_565 S
C173 O174 1.258 . S
C173 O175 1.256 . S
O174 Cd166 2.381 . S
O174 C173 1.258 . S
O175 Cd166 2.378 . S
O175 C173 1.256 . S
O176 Cd177 2.300 . S
O176 C183 1.275 . S
Cd177 O176 2.300 . S
Cd177 O185 2.381 . S
Cd177 O186 2.378 . S
O178 Cd179 2.385 . S
O178 C183 1.255 . S
Cd179 O178 2.385 . S
Cd179 O180 2.317 . S
O180 Cd179 2.317 . S
O180 C181 1.232 . S
C181 O180 1.232 . S
C181 O182 1.218 . S
O182 C181 1.218 . S
C183 O176 1.275 . S
C183 O178 1.255 . S
C184 O185 1.258 . S
C184 O186 1.256 . S
O185 Cd177 2.381 . S
O185 C184 1.258 . S
O186 Cd177 2.378 . S
O186 C184 1.256 . S
O187 Cd188 2.300 . S
O187 C194 1.275 . S
Cd188 O187 2.300 . S
Cd188 O196 2.381 1_554 S
Cd188 O197 2.378 1_554 S
O189 Cd190 2.385 . S
O189 C194 1.255 . S
Cd190 O189 2.385 . S
Cd190 O191 2.317 1_554 S
O191 Cd190 2.317 1_556 S
O191 C192 1.232 1_556 S
C192 O191 1.232 1_554 S
C192 O193 1.218 . S
O193 C192 1.218 . S
C194 O187 1.275 . S
C194 O189 1.255 . S
C195 O196 1.258 . S
C195 O197 1.256 . S
O196 Cd188 2.381 1_556 S
O196 C195 1.258 . S
O197 Cd188 2.378 1_556 S
O197 C195 1.256 . S
O198 Cd199 2.300 . S
O198 C205 1.275 . S
Cd199 O198 2.300 . S
Cd199 O207 2.381 . S
Cd199 O208 2.378 . S
O200 Cd201 2.385 . S
O200 C205 1.255 . S
Cd201 O200 2.385 . S
Cd201 O202 2.317 . S
O202 Cd201 2.317 . S
O202 C203 1.232 . S
C203 O202 1.232 . S
C203 O204 1.218 . S
O204 C203 1.218 . S
C205 O198 1.275 . S
C205 O200 1.255 . S
C206 O207 1.258 . S
C206 O208 1.256 . S
O207 Cd199 2.381 . S
O207 C206 1.258 . S
O208 Cd199 2.378 . S
O208 C206 1.256 . S
O209 Cd210 2.300 . S
O209 C216 1.275 . S
Cd210 O209 2.300 . S
Cd210 O218 2.381 . S
Cd210 O219 2.378 . S
O211 Cd212 2.385 . S
O211 C216 1.255 . S
Cd212 O211 2.385 . S
Cd212 O213 2.317 . S
O213 Cd212 2.317 . S
O213 C214 1.232 . S
C214 O213 1.232 . S
C214 O215 1.218 . S
O215 C214 1.218 . S
C216 O209 1.275 . S
C216 O211 1.255 . S
C217 O218 1.258 . S
C217 O219 1.256 . S
O218 Cd210 2.381 . S
O218 C217 1.258 . S
O219 Cd210 2.378 . S
O219 C217 1.256 . S
O220 Cd221 2.300 . S
O220 C227 1.275 . S
Cd221 O220 2.300 . S
Cd221 O229 2.381 . S
Cd221 O230 2.378 . S
O222 Cd223 2.385 . S
O222 C227 1.255 . S
Cd223 O222 2.385 . S
Cd223 O224 2.317 . S
O224 Cd223 2.317 . S
O224 C225 1.232 . S
C225 O224 1.232 . S
C225 O226 1.218 . S
O226 C225 1.218 . S
C227 O220 1.275 . S
C227 O222 1.255 . S
C228 O229 1.258 . S
C228 O230 1.256 . S
O229 Cd221 2.381 . S
O229 C228 1.258 . S
O230 Cd221 2.378 . S
O230 C228 1.256 . S
O231 Cd232 2.300 . S
O231 C238 1.275 . S
Cd232 O231 2.300 . S
Cd232 O240 2.381 1_556 S
Cd232 O241 2.378 1_556 S
O233 Cd234 2.385 . S
O233 C238 1.255 . S
Cd234 O233 2.385 . S
Cd234 O235 2.317 1_556 S
O235 Cd234 2.317 1_554 S
O235 C236 1.232 1_554 S
C236 O235 1.232 1_556 S
C236 O237 1.218 . S
O237 C236 1.218 . S
C238 O231 1.275 . S
C238 O233 1.255 . S
C239 O240 1.258 . S
C239 O241 1.256 . S
O240 Cd232 2.381 1_554 S
O240 C239 1.258 . S
O241 Cd232 2.378 1_554 S
O241 C239 1.256 . S
O242 Cd243 2.300 . S
O242 C249 1.275 . S
Cd243 O242 2.300 . S
Cd243 O251 2.381 . S
Cd243 O252 2.378 . S
O244 Cd245 2.385 . S
O244 C249 1.255 . S
Cd245 O244 2.385 . S
Cd245 O246 2.317 . S
O246 Cd245 2.317 . S
O246 C247 1.232 . S
C247 O246 1.232 . S
C247 O248 1.218 . S
O248 C247 1.218 . S
C249 O242 1.275 . S
C249 O244 1.255 . S
C250 O251 1.258 . S
C250 O252 1.256 . S
O251 Cd243 2.381 . S
O251 C250 1.258 . S
O252 Cd243 2.378 . S
O252 C250 1.256 . S
O253 Cd254 2.300 . S
O253 C260 1.275 . S
Cd254 O253 2.300 . S
Cd254 O262 2.381 . S
Cd254 O263 2.378 . S
O255 Cd256 2.385 . S
O255 C260 1.255 . S
Cd256 O255 2.385 . S
Cd256 O257 2.317 . S
O257 Cd256 2.317 . S
O257 C258 1.232 . S
C258 O257 1.232 . S
C258 O259 1.218 . S
O259 C258 1.218 . S
C260 O253 1.275 . S
C260 O255 1.255 . S
C261 O262 1.258 . S
C261 O263 1.256 . S
O262 Cd254 2.381 . S
O262 C261 1.258 . S
O263 Cd254 2.378 . S
O263 C261 1.256 . S
O264 Cd265 2.300 . S
O264 C271 1.275 . S
Cd265 O264 2.300 . S
Cd265 O273 2.381 . S
Cd265 O274 2.378 . S
O266 Cd267 2.385 . S
O266 C271 1.255 . S
Cd267 O266 2.385 . S
Cd267 O268 2.317 . S
O268 Cd267 2.317 . S
O268 C269 1.232 . S
C269 O268 1.232 . S
C269 O270 1.218 . S
O270 C269 1.218 . S
C271 O264 1.275 . S
C271 O266 1.255 . S
C272 O273 1.258 . S
C272 O274 1.256 . S
O273 Cd265 2.381 . S
O273 C272 1.258 . S
O274 Cd265 2.378 . S
O274 C272 1.256 . S
O275 Cd276 2.300 1_556 S
O275 C282 1.275 . S
Cd276 O275 2.300 1_554 S
Cd276 O284 2.381 . S
Cd276 O285 2.378 . S
O277 Cd278 2.385 1_556 S
O277 C282 1.255 . S
Cd278 O277 2.385 1_554 S
Cd278 O279 2.317 . S
O279 Cd278 2.317 . S
O279 C280 1.232 . S
C280 O279 1.232 . S
C280 O281 1.218 1_554 S
O281 C280 1.218 1_556 S
C282 O275 1.275 . S
C282 O277 1.255 . S
C283 O284 1.258 . S
C283 O285 1.256 . S
O284 Cd276 2.381 . S
O284 C283 1.258 . S
O285 Cd276 2.378 . S
O285 C283 1.256 . S
O286 Cd287 2.300 . S
O286 C293 1.275 . S
Cd287 O286 2.300 . S
Cd287 O295 2.381 . S
Cd287 O296 2.378 . S
O288 Cd289 2.385 . S
O288 C293 1.255 . S
Cd289 O288 2.385 . S
Cd289 O290 2.317 . S
O290 Cd289 2.317 . S
O290 C291 1.232 . S
C291 O290 1.232 . S
C291 O292 1.218 . S
O292 C291 1.218 . S
C293 O286 1.275 . S
C293 O288 1.255 . S
C294 O295 1.258 . S
C294 O296 1.256 . S
O295 Cd287 2.381 . S
O295 C294 1.258 . S
O296 Cd287 2.378 . S
O296 C294 1.256 . S
O297 Cd298 2.300 . S
O297 C304 1.275 . S
Cd298 O297 2.300 . S
Cd298 O306 2.381 . S
Cd298 O307 2.378 . S
O299 Cd300 2.385 . S
O299 C304 1.255 . S
Cd300 O299 2.385 . S
Cd300 O301 2.317 . S
O301 Cd300 2.317 . S
O301 C302 1.232 . S
C302 O301 1.232 . S
C302 O303 1.218 . S
O303 C302 1.218 . S
C304 O297 1.275 . S
C304 O299 1.255 . S
C305 O306 1.258 . S
C305 O307 1.256 . S
O306 Cd298 2.381 . S
O306 C305 1.258 . S
O307 Cd298 2.378 . S
O307 C305 1.256 . S
O308 Cd309 2.300 . S
O308 C315 1.275 . S
Cd309 O308 2.300 . S
Cd309 O317 2.381 . S
Cd309 O318 2.378 . S
O310 Cd311 2.385 . S
O310 C315 1.255 . S
Cd311 O310 2.385 . S
Cd311 O312 2.317 . S
O312 Cd311 2.317 . S
O312 C313 1.232 . S
C313 O312 1.232 . S
C313 O314 1.218 . S
O314 C313 1.218 . S
C315 O308 1.275 . S
C315 O310 1.255 . S
C316 O317 1.258 . S
C316 O318 1.256 . S
O317 Cd309 2.381 . S
O317 C316 1.258 . S
O318 Cd309 2.378 . S
O318 C316 1.256 . S
O319 Cd320 2.300 1_554 S
O319 C326 1.275 . S
Cd320 O319 2.300 1_556 S
Cd320 O328 2.381 . S
Cd320 O329 2.378 . S
O321 Cd322 2.385 1_554 S
O321 C326 1.255 . S
Cd322 O321 2.385 1_556 S
Cd322 O323 2.317 . S
O323 Cd322 2.317 . S
O323 C324 1.232 . S
C324 O323 1.232 . S
C324 O325 1.218 1_556 S
O325 C324 1.218 1_554 S
C326 O319 1.275 . S
C326 O321 1.255 . S
C327 O328 1.258 . S
C327 O329 1.256 . S
O328 Cd320 2.381 . S
O328 C327 1.258 . S
O329 Cd320 2.378 . S
O329 C327 1.256 . S
O330 Cd331 2.300 . S
O330 C337 1.275 . S
Cd331 O330 2.300 . S
Cd331 O339 2.381 . S
Cd331 O340 2.378 . S
O332 Cd333 2.385 . S
O332 C337 1.255 . S
Cd333 O332 2.385 . S
Cd333 O334 2.317 . S
O334 Cd333 2.317 . S
O334 C335 1.232 . S
C335 O334 1.232 . S
C335 O336 1.218 . S
O336 C335 1.218 . S
C337 O330 1.275 . S
C337 O332 1.255 . S
C338 O339 1.258 . S
C338 O340 1.256 . S
O339 Cd331 2.381 . S
O339 C338 1.258 . S
O340 Cd331 2.378 . S
O340 C338 1.256 . S
O341 Cd342 2.300 . S
O341 C348 1.275 . S
Cd342 O341 2.300 . S
Cd342 O350 2.381 . S
Cd342 O351 2.378 . S
O343 Cd344 2.385 . S
O343 C348 1.255 . S
Cd344 O343 2.385 . S
Cd344 O345 2.317 . S
O345 Cd344 2.317 . S
O345 C346 1.232 . S
C346 O345 1.232 . S
C346 O347 1.218 . S
O347 C346 1.218 . S
C348 O341 1.275 . S
C348 O343 1.255 . S
C349 O350 1.258 . S
C349 O351 1.256 . S
O350 Cd342 2.381 . S
O350 C349 1.258 . S
O351 Cd342 2.378 . S
O351 C349 1.256 . S
C352 C353 1.391 . S
C352 C354 1.394 . S
C352 H368 0.931 . S
C353 C352 1.391 . S
C353 C357 1.376 . S
C354 C352 1.394 . S
C354 C355 1.369 . S
C354 C358 1.531 . S
C355 C354 1.369 . S
C355 C356 1.410 . S
C355 C363 1.503 . S
C356 C355 1.410 . S
C356 C357 1.392 . S
C356 C359 1.511 . S
C357 C353 1.376 . S
C357 C356 1.392 . S
C357 H369 0.929 . S
C358 C354 1.531 . S
C358 H370 0.960 . S
C358 H371 0.962 . S
C358 H372 0.960 . S
C359 C356 1.511 . S
C359 H373 0.961 . S
C359 H374 0.961 . S
C359 H375 0.961 . S
C360 C361 1.370 . S
C360 C362 1.363 . S
C360 H376 0.931 . S
C361 C360 1.370 . S
C361 C365 1.408 . S
C362 C360 1.363 . S
C362 C363 1.370 . S
C362 C366 1.524 . S
C363 C355 1.503 . S
C363 C362 1.370 . S
C363 C364 1.403 . S
C364 C363 1.403 . S
C364 C365 1.404 . S
C364 C367 1.539 . S
C365 C361 1.408 . S
C365 C364 1.404 . S
C365 H377 0.930 . S
C366 C362 1.524 . S
C366 H378 0.956 . S
C366 H379 0.961 . S
C366 H380 0.961 . S
C367 C364 1.539 . S
C367 H381 0.958 . S
C367 H382 0.961 . S
C367 H383 0.960 . S
H368 C352 0.931 . S
H369 C357 0.929 . S
H370 C358 0.960 . S
H371 C358 0.962 . S
H372 C358 0.960 . S
H373 C359 0.961 . S
H374 C359 0.961 . S
H375 C359 0.961 . S
H376 C360 0.931 . S
H377 C365 0.930 . S
H378 C366 0.956 . S
H379 C366 0.961 . S
H380 C366 0.961 . S
H381 C367 0.958 . S
H382 C367 0.961 . S
H383 C367 0.960 . S
C384 C385 1.391 1_545 S
C384 C386 1.394 . S
C384 H400 0.931 . S
C385 C384 1.391 1_565 S
C385 C389 1.376 . S
C386 C384 1.394 . S
C386 C387 1.369 1_545 S
C386 C390 1.531 . S
C387 C386 1.369 1_565 S
C387 C388 1.410 . S
C387 C395 1.510 . S
C388 C387 1.410 . S
C388 C389 1.392 . S
C388 C391 1.511 . S
C389 C385 1.376 . S
C389 C388 1.392 . S
C389 H401 0.929 . S
C390 C386 1.531 . S
C390 H402 0.960 . S
C390 H403 0.962 . S
C390 H404 0.960 . S
C391 C388 1.511 . S
C391 H405 0.961 . S
C391 H406 0.961 . S
C391 H407 0.961 . S
C392 C393 1.370 . S
C392 C394 1.363 . S
C392 H408 0.931 . S
C393 C392 1.370 . S
C393 C397 1.408 1_545 S
C394 C392 1.363 . S
C394 C395 1.337 1_545 S
C394 C398 1.524 . S
C395 C387 1.510 . S
C395 C394 1.337 1_565 S
C395 C396 1.434 . S
C396 C395 1.434 . S
C396 C397 1.404 . S
C396 C399 1.539 . S
C397 C393 1.408 1_565 S
C397 C396 1.404 . S
C397 H409 0.930 . S
C398 C394 1.524 . S
C398 H410 0.956 . S
C398 H411 0.961 . S
C398 H412 0.961 . S
C399 C396 1.539 . S
C399 H413 0.958 . S
C399 H414 0.961 . S
C399 H415 0.960 . S
H400 C384 0.931 . S
H401 C389 0.929 . S
H402 C390 0.960 . S
H403 C390 0.962 . S
H404 C390 0.960 . S
H405 C391 0.961 . S
H406 C391 0.961 . S
H407 C391 0.961 . S
H408 C392 0.931 . S
H409 C397 0.930 . S
H410 C398 0.956 . S
H411 C398 0.961 . S
H412 C398 0.961 . S
H413 C399 0.958 . S
H414 C399 0.961 . S
H415 C399 0.960 . S
C416 C417 1.391 . S
C416 C418 1.394 . S
C416 H432 0.931 . S
C417 C416 1.391 . S
C417 C421 1.376 . S
C418 C416 1.394 . S
C418 C419 1.369 . S
C418 C422 1.531 . S
C419 C418 1.369 . S
C419 C420 1.410 . S
C419 C427 1.503 1_556 S
C420 C419 1.410 . S
C420 C421 1.392 . S
C420 C423 1.511 . S
C421 C417 1.376 . S
C421 C420 1.392 . S
C421 H433 0.929 . S
C422 C418 1.531 . S
C422 H434 0.960 1_556 S
C422 H435 0.962 . S
C422 H436 0.960 . S
C423 C420 1.511 . S
C423 H437 0.961 . S
C423 H438 0.961 1_556 S
C423 H439 0.961 . S
C424 C425 1.370 . S
C424 C426 1.363 . S
C424 H440 0.931 . S
C425 C424 1.370 . S
C425 C429 1.408 . S
C426 C424 1.363 . S
C426 C427 1.370 . S
C426 C430 1.524 . S
C427 C419 1.503 1_554 S
C427 C426 1.370 . S
C427 C428 1.403 . S
C428 C427 1.403 . S
C428 C429 1.404 . S
C428 C431 1.539 . S
C429 C425 1.408 . S
C429 C428 1.404 . S
C429 H441 0.930 . S
C430 C426 1.524 . S
C430 H442 0.955 . S
C430 H443 0.961 1_554 S
C430 H444 0.961 . S
C431 C428 1.539 . S
C431 H445 0.958 . S
C431 H446 0.961 . S
C431 H447 0.960 . S
H432 C416 0.931 . S
H433 C421 0.929 . S
H434 C422 0.960 1_554 S
H435 C422 0.962 . S
H436 C422 0.960 . S
H437 C423 0.961 . S
H438 C423 0.961 1_554 S
H439 C423 0.961 . S
H440 C424 0.931 . S
H441 C429 0.930 . S
H442 C430 0.955 . S
H443 C430 0.961 1_556 S
H444 C430 0.961 . S
H445 C431 0.958 . S
H446 C431 0.961 . S
H447 C431 0.960 . S
C448 C449 1.374 1_565 S
C448 C450 1.394 . S
C448 H464 0.931 . S
C449 C448 1.374 1_545 S
C449 C453 1.389 . S
C450 C448 1.394 . S
C450 C451 1.369 . S
C450 C454 1.531 . S
C451 C450 1.369 . S
C451 C452 1.410 1_565 S
C451 C459 1.503 . S
C452 C451 1.410 1_545 S
C452 C453 1.392 . S
C452 C455 1.511 . S
C453 C449 1.389 . S
C453 C452 1.392 . S
C453 H465 0.929 . S
C454 C450 1.531 . S
C454 H466 0.960 . S
C454 H467 0.962 . S
C454 H468 0.960 . S
C455 C452 1.511 . S
C455 H469 0.961 . S
C455 H470 0.961 . S
C455 H471 0.961 . S
C456 C457 1.370 1_545 S
C456 C458 1.363 . S
C456 H472 0.931 . S
C457 C456 1.370 1_565 S
C457 C461 1.408 . S
C458 C456 1.363 . S
C458 C459 1.370 1_545 S
C458 C462 1.524 . S
C459 C451 1.503 . S
C459 C458 1.370 1_565 S
C459 C460 1.403 . S
C460 C459 1.403 . S
C460 C461 1.404 . S
C460 C463 1.539 . S
C461 C457 1.408 . S
C461 C460 1.404 . S
C461 H473 0.930 . S
C462 C458 1.524 . S
C462 H474 0.956 . S
C462 H475 0.961 . S
C462 H476 0.961 . S
C463 C460 1.539 . S
C463 H477 0.958 . S
C463 H478 0.961 . S
C463 H479 0.960 . S
H464 C448 0.931 . S
H465 C453 0.929 . S
H466 C454 0.960 . S
H467 C454 0.962 . S
H468 C454 0.960 . S
H469 C455 0.961 . S
H470 C455 0.961 . S
H471 C455 0.961 . S
H472 C456 0.931 . S
H473 C461 0.930 . S
H474 C462 0.956 . S
H475 C462 0.961 . S
H476 C462 0.961 . S
H477 C463 0.958 . S
H478 C463 0.961 . S
H479 C463 0.960 . S
C480 C481 1.391 . S
C480 C482 1.394 . S
C480 H496 0.931 . S
C481 C480 1.391 . S
C481 C485 1.376 . S
C482 C480 1.394 . S
C482 C483 1.369 . S
C482 C486 1.531 . S
C483 C482 1.369 . S
C483 C484 1.410 . S
C483 C491 1.503 . S
C484 C483 1.410 . S
C484 C485 1.392 . S
C484 C487 1.511 . S
C485 C481 1.376 . S
C485 C484 1.392 . S
C485 H497 0.929 . S
C486 C482 1.531 . S
C486 H498 0.960 . S
C486 H499 0.962 . S
C486 H500 0.960 . S
C487 C484 1.511 . S
C487 H501 0.961 . S
C487 H502 0.961 . S
C487 H503 0.961 . S
C488 C489 1.370 . S
C488 C490 1.363 . S
C488 H504 0.931 . S
C489 C488 1.370 . S
C489 C493 1.408 . S
C490 C488 1.363 . S
C490 C491 1.370 . S
C490 C494 1.524 . S
C491 C483 1.503 . S
C491 C490 1.370 . S
C491 C492 1.403 . S
C492 C491 1.403 . S
C492 C493 1.404 . S
C492 C495 1.539 . S
C493 C489 1.408 . S
C493 C492 1.404 . S
C493 H505 0.930 . S
C494 C490 1.524 . S
C494 H506 0.956 . S
C494 H507 0.961 . S
C494 H508 0.961 . S
C495 C492 1.539 . S
C495 H509 0.958 . S
C495 H510 0.961 . S
C495 H511 0.960 . S
H496 C480 0.931 . S
H497 C485 0.929 . S
H498 C486 0.960 . S
H499 C486 0.962 . S
H500 C486 0.960 . S
H501 C487 0.961 . S
H502 C487 0.961 . S
H503 C487 0.961 . S
H504 C488 0.931 . S
H505 C493 0.930 . S
H506 C494 0.956 . S
H507 C494 0.961 . S
H508 C494 0.961 . S
H509 C495 0.958 . S
H510 C495 0.961 . S
H511 C495 0.960 . S
C512 C513 1.391 . S
C512 C514 1.394 . S
C512 H528 0.931 . S
C513 C512 1.391 . S
C513 C517 1.376 1_565 S
C514 C512 1.394 . S
C514 C515 1.369 . S
C514 C518 1.531 . S
C515 C514 1.369 . S
C515 C516 1.410 1_565 S
C515 C523 1.503 . S
C516 C515 1.410 1_545 S
C516 C517 1.392 . S
C516 C519 1.511 . S
C517 C513 1.376 1_545 S
C517 C516 1.392 . S
C517 H529 0.929 . S
C518 C514 1.531 . S
C518 H530 0.960 . S
C518 H531 0.962 . S
C518 H532 0.960 . S
C519 C516 1.511 . S
C519 H533 0.961 . S
C519 H534 0.961 . S
C519 H535 0.961 1_545 S
C520 C521 1.370 . S
C520 C522 1.363 . S
C520 H536 0.931 . S
C521 C520 1.370 . S
C521 C525 1.408 1_545 S
C522 C520 1.363 . S
C522 C523 1.370 1_545 S
C522 C526 1.524 . S
C523 C515 1.503 . S
C523 C522 1.370 1_565 S
C523 C524 1.403 . S
C524 C523 1.403 . S
C524 C525 1.404 . S
C524 C527 1.539 . S
C525 C521 1.408 1_565 S
C525 C524 1.404 . S
C525 H537 0.930 . S
C526 C522 1.524 . S
C526 H538 0.956 . S
C526 H539 0.961 . S
C526 H540 0.961 . S
C527 C524 1.539 . S
C527 H541 0.958 . S
C527 H542 0.961 . S
C527 H543 0.960 . S
H528 C512 0.931 . S
H529 C517 0.929 . S
H530 C518 0.960 . S
H531 C518 0.962 . S
H532 C518 0.960 . S
H533 C519 0.961 . S
H534 C519 0.961 . S
H535 C519 0.961 1_565 S
H536 C520 0.931 . S
H537 C525 0.930 . S
H538 C526 0.956 . S
H539 C526 0.961 . S
H540 C526 0.961 . S
H541 C527 0.958 . S
H542 C527 0.961 . S
H543 C527 0.960 . S
C544 C545 1.391 . S
C544 C546 1.394 . S
C544 H560 0.931 . S
C545 C544 1.391 . S
C545 C549 1.376 . S
C546 C544 1.394 . S
C546 C547 1.369 . S
C546 C550 1.531 . S
C547 C546 1.369 . S
C547 C548 1.410 . S
C547 C555 1.503 1_556 S
C548 C547 1.410 . S
C548 C549 1.392 . S
C548 C551 1.511 . S
C549 C545 1.376 . S
C549 C548 1.392 . S
C549 H561 0.929 . S
C550 C546 1.531 . S
C550 H562 0.960 1_556 S
C550 H563 0.962 . S
C550 H564 0.960 . S
C551 C548 1.511 . S
C551 H565 0.961 . S
C551 H566 0.961 1_556 S
C551 H567 0.961 . S
C552 C553 1.370 . S
C552 C554 1.363 . S
C552 H568 0.931 . S
C553 C552 1.370 . S
C553 C557 1.408 . S
C554 C552 1.363 . S
C554 C555 1.370 . S
C554 C558 1.524 . S
C555 C547 1.503 1_554 S
C555 C554 1.370 . S
C555 C556 1.403 . S
C556 C555 1.403 . S
C556 C557 1.404 . S
C556 C559 1.539 . S
C557 C553 1.408 . S
C557 C556 1.404 . S
C557 H569 0.930 . S
C558 C554 1.524 . S
C558 H570 0.956 . S
C558 H571 0.961 1_554 S
C558 H572 0.961 . S
C559 C556 1.539 . S
C559 H573 0.958 . S
C559 H574 0.961 . S
C559 H575 0.960 1_554 S
H560 C544 0.931 . S
H561 C549 0.929 . S
H562 C550 0.960 1_554 S
H563 C550 0.962 . S
H564 C550 0.960 . S
H565 C551 0.961 . S
H566 C551 0.961 1_554 S
H567 C551 0.961 . S
H568 C552 0.931 . S
H569 C557 0.930 . S
H570 C558 0.956 . S
H571 C558 0.961 1_556 S
H572 C558 0.961 . S
H573 C559 0.958 . S
H574 C559 0.961 . S
H575 C559 0.960 1_556 S
C576 C577 1.362 1_565 S
C576 C578 1.394 . S
C576 H592 0.931 . S
C577 C576 1.362 1_545 S
C577 C581 1.400 . S
C578 C576 1.394 . S
C578 C579 1.369 . S
C578 C582 1.531 . S
C579 C578 1.369 . S
C579 C580 1.410 1_565 S
C579 C587 1.503 . S
C580 C579 1.410 1_545 S
C580 C581 1.392 . S
C580 C583 1.511 . S
C581 C577 1.400 . S
C581 C580 1.392 . S
C581 H593 0.929 . S
C582 C578 1.531 . S
C582 H594 0.960 . S
C582 H595 0.962 . S
C582 H596 0.960 . S
C583 C580 1.511 . S
C583 H597 0.961 . S
C583 H598 0.961 . S
C583 H599 0.961 . S
C584 C585 1.370 1_545 S
C584 C586 1.363 . S
C584 H600 0.931 . S
C585 C584 1.370 1_565 S
C585 C589 1.408 . S
C586 C584 1.363 . S
C586 C587 1.370 1_545 S
C586 C590 1.524 . S
C587 C579 1.503 . S
C587 C586 1.370 1_565 S
C587 C588 1.403 . S
C588 C587 1.403 . S
C588 C589 1.404 . S
C588 C591 1.539 . S
C589 C585 1.408 . S
C589 C588 1.404 . S
C589 H601 0.930 . S
C590 C586 1.524 . S
C590 H602 0.956 . S
C590 H603 0.961 . S
C590 H604 0.961 . S
C591 C588 1.539 . S
C591 H605 0.958 . S
C591 H606 0.961 . S
C591 H607 0.960 . S
H592 C576 0.931 . S
H593 C581 0.929 . S
H594 C582 0.960 . S
H595 C582 0.962 . S
H596 C582 0.960 . S
H597 C583 0.961 . S
H598 C583 0.961 . S
H599 C583 0.961 . S
H600 C584 0.931 . S
H601 C589 0.930 . S
H602 C590 0.956 . S
H603 C590 0.961 . S
H604 C590 0.961 . S
H605 C591 0.958 . S
H606 C591 0.961 . S
H607 C591 0.960 . S
C608 C609 1.391 . S
C608 C610 1.394 . S
C608 H624 0.931 . S
C609 C608 1.391 . S
C609 C613 1.376 . S
C610 C608 1.394 . S
C610 C611 1.369 . S
C610 C614 1.531 . S
C611 C610 1.369 . S
C611 C612 1.410 . S
C611 C619 1.503 1_554 S
C612 C611 1.410 . S
C612 C613 1.392 . S
C612 C615 1.511 . S
C613 C609 1.376 . S
C613 C612 1.392 . S
C613 H625 0.929 . S
C614 C610 1.531 . S
C614 H626 0.960 1_554 S
C614 H627 0.962 . S
C614 H628 0.960 . S
C615 C612 1.511 . S
C615 H629 0.961 . S
C615 H630 0.961 1_554 S
C615 H631 0.961 . S
C616 C617 1.370 . S
C616 C618 1.363 . S
C616 H632 0.931 . S
C617 C616 1.370 . S
C617 C621 1.408 . S
C618 C616 1.363 . S
C618 C619 1.370 . S
C618 C622 1.524 . S
C619 C611 1.503 1_556 S
C619 C618 1.370 . S
C619 C620 1.403 . S
C620 C619 1.403 . S
C620 C621 1.404 . S
C620 C623 1.539 . S
C621 C617 1.408 . S
C621 C620 1.404 . S
C621 H633 0.930 . S
C622 C618 1.524 . S
C622 H634 0.956 . S
C622 H635 0.959 1_556 S
C622 H636 0.961 . S
C623 C620 1.539 . S
C623 H637 0.958 . S
C623 H638 0.961 . S
C623 H639 0.960 1_556 S
H624 C608 0.931 . S
H625 C613 0.929 . S
H626 C614 0.960 1_556 S
H627 C614 0.962 . S
H628 C614 0.960 . S
H629 C615 0.961 . S
H630 C615 0.961 1_556 S
H631 C615 0.961 . S
H632 C616 0.931 . S
H633 C621 0.930 . S
H634 C622 0.956 . S
H635 C622 0.959 1_554 S
H636 C622 0.961 . S
H637 C623 0.958 . S
H638 C623 0.961 . S
H639 C623 0.960 1_554 S
C640 C641 1.391 . S
C640 C642 1.394 . S
C640 H656 0.931 . S
C641 C640 1.391 . S
C641 C645 1.376 . S
C642 C640 1.394 . S
C642 C643 1.369 . S
C642 C646 1.531 . S
C643 C642 1.369 . S
C643 C644 1.410 . S
C643 C651 1.503 . S
C644 C643 1.410 . S
C644 C645 1.392 . S
C644 C647 1.511 . S
C645 C641 1.376 . S
C645 C644 1.392 . S
C645 H657 0.929 . S
C646 C642 1.531 . S
C646 H658 0.960 . S
C646 H659 0.962 . S
C646 H660 0.960 . S
C647 C644 1.511 . S
C647 H661 0.961 . S
C647 H662 0.961 . S
C647 H663 0.961 . S
C648 C649 1.370 . S
C648 C650 1.363 . S
C648 H664 0.931 . S
C649 C648 1.370 . S
C649 C653 1.408 . S
C650 C648 1.363 . S
C650 C651 1.370 . S
C650 C654 1.524 . S
C651 C643 1.503 . S
C651 C650 1.370 . S
C651 C652 1.403 . S
C652 C651 1.403 . S
C652 C653 1.404 . S
C652 C655 1.539 . S
C653 C649 1.408 . S
C653 C652 1.404 . S
C653 H665 0.930 . S
C654 C650 1.524 . S
C654 H666 0.956 . S
C654 H667 0.961 . S
C654 H668 0.961 . S
C655 C652 1.539 . S
C655 H669 0.958 . S
C655 H670 0.961 . S
C655 H671 0.960 . S
H656 C640 0.931 . S
H657 C645 0.929 . S
H658 C646 0.960 . S
H659 C646 0.962 . S
H660 C646 0.960 . S
H661 C647 0.961 . S
H662 C647 0.961 . S
H663 C647 0.961 . S
H664 C648 0.931 . S
H665 C653 0.930 . S
H666 C654 0.956 . S
H667 C654 0.961 . S
H668 C654 0.961 . S
H669 C655 0.958 . S
H670 C655 0.961 . S
H671 C655 0.960 . S
C672 C673 1.391 . S
C672 C674 1.394 . S
C672 H688 0.931 . S
C673 C672 1.391 . S
C673 C677 1.376 . S
C674 C672 1.394 . S
C674 C675 1.369 . S
C674 C678 1.531 . S
C675 C674 1.369 . S
C675 C676 1.410 . S
C675 C683 1.503 . S
C676 C675 1.410 . S
C676 C677 1.392 . S
C676 C679 1.511 . S
C677 C673 1.376 . S
C677 C676 1.392 . S
C677 H689 0.929 . S
C678 C674 1.531 . S
C678 H690 0.960 . S
C678 H691 0.962 . S
C678 H692 0.960 . S
C679 C676 1.511 . S
C679 H693 0.961 . S
C679 H694 0.961 . S
C679 H695 0.961 . S
C680 C681 1.370 . S
C680 C682 1.363 . S
C680 H696 0.931 . S
C681 C680 1.370 . S
C681 C685 1.408 . S
C682 C680 1.363 . S
C682 C683 1.370 . S
C682 C686 1.524 . S
C683 C675 1.503 . S
C683 C682 1.370 . S
C683 C684 1.403 . S
C684 C683 1.403 . S
C684 C685 1.404 . S
C684 C687 1.539 . S
C685 C681 1.408 . S
C685 C684 1.404 . S
C685 H697 0.930 . S
C686 C682 1.524 . S
C686 H698 0.956 . S
C686 H699 0.961 . S
C686 H700 0.961 . S
C687 C684 1.539 . S
C687 H701 0.958 . S
C687 H702 0.961 . S
C687 H703 0.960 . S
H688 C672 0.931 . S
H689 C677 0.929 . S
H690 C678 0.960 . S
H691 C678 0.962 . S
H692 C678 0.960 . S
H693 C679 0.961 . S
H694 C679 0.961 . S
H695 C679 0.961 . S
H696 C680 0.931 . S
H697 C685 0.930 . S
H698 C686 0.956 . S
H699 C686 0.961 . S
H700 C686 0.961 . S
H701 C687 0.958 . S
H702 C687 0.961 . S
H703 C687 0.960 . S
C704 C705 1.391 . S
C704 C706 1.394 . S
C704 H720 0.931 . S
C705 C704 1.391 . S
C705 C709 1.376 . S
C706 C704 1.394 . S
C706 C707 1.369 . S
C706 C710 1.531 . S
C707 C706 1.369 . S
C707 C708 1.410 . S
C707 C715 1.503 . S
C708 C707 1.410 . S
C708 C709 1.392 . S
C708 C711 1.511 . S
C709 C705 1.376 . S
C709 C708 1.392 . S
C709 H721 0.929 . S
C710 C706 1.531 . S
C710 H722 0.960 . S
C710 H723 0.962 . S
C710 H724 0.960 . S
C711 C708 1.511 . S
C711 H725 0.961 . S
C711 H726 0.961 . S
C711 H727 0.961 . S
C712 C713 1.370 . S
C712 C714 1.363 . S
C712 H728 0.931 . S
C713 C712 1.370 . S
C713 C717 1.408 . S
C714 C712 1.363 . S
C714 C715 1.370 . S
C714 C718 1.524 . S
C715 C707 1.503 . S
C715 C714 1.370 . S
C715 C716 1.403 . S
C716 C715 1.403 . S
C716 C717 1.404 . S
C716 C719 1.539 . S
C717 C713 1.408 . S
C717 C716 1.404 . S
C717 H729 0.930 . S
C718 C714 1.524 . S
C718 H730 0.956 . S
C718 H731 0.961 . S
C718 H732 0.961 . S
C719 C716 1.539 . S
C719 H733 0.958 . S
C719 H734 0.961 . S
C719 H735 0.960 . S
H720 C704 0.931 . S
H721 C709 0.929 . S
H722 C710 0.960 . S
H723 C710 0.962 . S
H724 C710 0.960 . S
H725 C711 0.961 . S
H726 C711 0.961 . S
H727 C711 0.961 . S
H728 C712 0.931 . S
H729 C717 0.930 . S
H730 C718 0.956 . S
H731 C718 0.961 . S
H732 C718 0.961 . S
H733 C719 0.958 . S
H734 C719 0.961 . S
H735 C719 0.960 . S
C736 C737 1.391 . S
C736 C738 1.394 . S
C736 H752 0.931 . S
C737 C736 1.391 . S
C737 C741 1.376 . S
C738 C736 1.394 . S
C738 C739 1.369 . S
C738 C742 1.531 . S
C739 C738 1.369 . S
C739 C740 1.410 . S
C739 C747 1.503 1_556 S
C740 C739 1.410 . S
C740 C741 1.392 . S
C740 C743 1.511 . S
C741 C737 1.376 . S
C741 C740 1.392 . S
C741 H753 0.929 . S
C742 C738 1.531 . S
C742 H754 0.960 1_556 S
C742 H755 0.962 . S
C742 H756 0.960 . S
C743 C740 1.511 . S
C743 H757 0.961 . S
C743 H758 0.961 1_556 S
C743 H759 0.961 . S
C744 C745 1.370 . S
C744 C746 1.363 . S
C744 H760 0.931 . S
C745 C744 1.370 . S
C745 C749 1.408 . S
C746 C744 1.363 . S
C746 C747 1.370 . S
C746 C750 1.524 . S
C747 C739 1.503 1_554 S
C747 C746 1.370 . S
C747 C748 1.403 . S
C748 C747 1.403 . S
C748 C749 1.404 . S
C748 C751 1.539 . S
C749 C745 1.408 . S
C749 C748 1.404 . S
C749 H761 0.930 . S
C750 C746 1.524 . S
C750 H762 0.956 . S
C750 H763 0.961 1_554 S
C750 H764 0.961 . S
C751 C748 1.539 . S
C751 H765 0.958 . S
C751 H766 0.961 . S
C751 H767 0.960 1_554 S
H752 C736 0.931 . S
H753 C741 0.929 . S
H754 C742 0.960 1_554 S
H755 C742 0.962 . S
H756 C742 0.960 . S
H757 C743 0.961 . S
H758 C743 0.961 1_554 S
H759 C743 0.961 . S
H760 C744 0.931 . S
H761 C749 0.930 . S
H762 C750 0.956 . S
H763 C750 0.961 1_556 S
H764 C750 0.961 . S
H765 C751 0.958 . S
H766 C751 0.961 . S
H767 C751 0.960 1_556 S
C768 C769 1.391 . S
C768 C770 1.394 . S
C768 H784 0.931 . S
C769 C768 1.391 . S
C769 C773 1.376 . S
C770 C768 1.394 . S
C770 C771 1.369 . S
C770 C774 1.531 . S
C771 C770 1.369 . S
C771 C772 1.410 . S
C771 C779 1.503 . S
C772 C771 1.410 . S
C772 C773 1.392 . S
C772 C775 1.511 . S
C773 C769 1.376 . S
C773 C772 1.392 . S
C773 H785 0.929 . S
C774 C770 1.531 . S
C774 H786 0.960 . S
C774 H787 0.962 . S
C774 H788 0.960 . S
C775 C772 1.511 . S
C775 H789 0.961 . S
C775 H790 0.961 . S
C775 H791 0.961 . S
C776 C777 1.370 . S
C776 C778 1.363 . S
C776 H792 0.931 . S
C777 C776 1.370 . S
C777 C781 1.408 . S
C778 C776 1.363 . S
C778 C779 1.370 . S
C778 C782 1.524 . S
C779 C771 1.503 . S
C779 C778 1.370 . S
C779 C780 1.403 . S
C780 C779 1.403 . S
C780 C781 1.404 . S
C780 C783 1.539 . S
C781 C777 1.408 . S
C781 C780 1.404 . S
C781 H793 0.930 . S
C782 C778 1.524 . S
C782 H794 0.956 . S
C782 H795 0.961 . S
C782 H796 0.961 . S
C783 C780 1.539 . S
C783 H797 0.958 . S
C783 H798 0.961 . S
C783 H799 0.960 . S
H784 C768 0.931 . S
H785 C773 0.929 . S
H786 C774 0.960 . S
H787 C774 0.962 . S
H788 C774 0.960 . S
H789 C775 0.961 . S
H790 C775 0.961 . S
H791 C775 0.961 . S
H792 C776 0.931 . S
H793 C781 0.930 . S
H794 C782 0.956 . S
H795 C782 0.961 . S
H796 C782 0.961 . S
H797 C783 0.958 . S
H798 C783 0.961 . S
H799 C783 0.960 . S
C800 C801 1.391 . S
C800 C802 1.394 . S
C800 H816 0.931 . S
C801 C800 1.391 . S
C801 C805 1.376 . S
C802 C800 1.394 . S
C802 C803 1.369 . S
C802 C806 1.531 . S
C803 C802 1.369 . S
C803 C804 1.410 . S
C803 C811 1.503 . S
C804 C803 1.410 . S
C804 C805 1.392 . S
C804 C807 1.511 . S
C805 C801 1.376 . S
C805 C804 1.392 . S
C805 H817 0.929 . S
C806 C802 1.531 . S
C806 H818 0.960 . S
C806 H819 0.962 . S
C806 H820 0.960 . S
C807 C804 1.511 . S
C807 H821 0.961 . S
C807 H822 0.961 . S
C807 H823 0.961 . S
C808 C809 1.370 . S
C808 C810 1.363 . S
C808 H824 0.931 . S
C809 C808 1.370 . S
C809 C813 1.408 . S
C810 C808 1.363 . S
C810 C811 1.370 . S
C810 C814 1.524 . S
C811 C803 1.503 . S
C811 C810 1.370 . S
C811 C812 1.403 . S
C812 C811 1.403 . S
C812 C813 1.404 . S
C812 C815 1.539 . S
C813 C809 1.408 . S
C813 C812 1.404 . S
C813 H825 0.930 . S
C814 C810 1.524 . S
C814 H826 0.956 . S
C814 H827 0.961 . S
C814 H828 0.961 . S
C815 C812 1.539 . S
C815 H829 0.958 . S
C815 H830 0.961 . S
C815 H831 0.960 . S
H816 C800 0.931 . S
H817 C805 0.929 . S
H818 C806 0.960 . S
H819 C806 0.962 . S
H820 C806 0.960 . S
H821 C807 0.961 . S
H822 C807 0.961 . S
H823 C807 0.961 . S
H824 C808 0.931 . S
H825 C813 0.930 . S
H826 C814 0.956 . S
H827 C814 0.961 . S
H828 C814 0.961 . S
H829 C815 0.958 . S
H830 C815 0.961 . S
H831 C815 0.960 . S
C832 C833 1.391 . S
C832 C834 1.394 . S
C832 H848 0.931 . S
C833 C832 1.391 . S
C833 C837 1.376 . S
C834 C832 1.394 . S
C834 C835 1.369 . S
C834 C838 1.531 . S
C835 C834 1.369 . S
C835 C836 1.410 . S
C835 C843 1.503 . S
C836 C835 1.410 . S
C836 C837 1.392 . S
C836 C839 1.511 . S
C837 C833 1.376 . S
C837 C836 1.392 . S
C837 H849 0.929 . S
C838 C834 1.531 . S
C838 H850 0.960 . S
C838 H851 0.962 . S
C838 H852 0.960 . S
C839 C836 1.511 . S
C839 H853 0.961 . S
C839 H854 0.961 . S
C839 H855 0.961 . S
C840 C841 1.370 . S
C840 C842 1.363 . S
C840 H856 0.931 . S
C841 C840 1.370 . S
C841 C845 1.408 . S
C842 C840 1.363 . S
C842 C843 1.370 . S
C842 C846 1.524 . S
C843 C835 1.503 . S
C843 C842 1.370 . S
C843 C844 1.403 . S
C844 C843 1.403 . S
C844 C845 1.404 . S
C844 C847 1.539 . S
C845 C841 1.408 . S
C845 C844 1.404 . S
C845 H857 0.930 . S
C846 C842 1.524 . S
C846 H858 0.956 . S
C846 H859 0.961 . S
C846 H860 0.961 . S
C847 C844 1.539 . S
C847 H861 0.958 . S
C847 H862 0.961 . S
C847 H863 0.960 . S
H848 C832 0.931 . S
H849 C837 0.929 . S
H850 C838 0.960 . S
H851 C838 0.962 . S
H852 C838 0.960 . S
H853 C839 0.961 . S
H854 C839 0.961 . S
H855 C839 0.961 . S
H856 C840 0.931 . S
H857 C845 0.930 . S
H858 C846 0.956 . S
H859 C846 0.961 . S
H860 C846 0.961 . S
H861 C847 0.958 . S
H862 C847 0.961 . S
H863 C847 0.960 . S
C864 C865 1.391 . S
C864 C866 1.394 . S
C864 H880 0.931 . S
C865 C864 1.391 . S
C865 C869 1.376 . S
C866 C864 1.394 . S
C866 C867 1.369 . S
C866 C870 1.531 . S
C867 C866 1.369 . S
C867 C868 1.410 . S
C867 C875 1.503 . S
C868 C867 1.410 . S
C868 C869 1.392 . S
C868 C871 1.511 . S
C869 C865 1.376 . S
C869 C868 1.392 . S
C869 H881 0.929 . S
C870 C866 1.531 . S
C870 H882 0.960 . S
C870 H883 0.962 . S
C870 H884 0.960 . S
C871 C868 1.511 . S
C871 H885 0.961 . S
C871 H886 0.961 . S
C871 H887 0.961 . S
C872 C873 1.370 . S
C872 C874 1.363 . S
C872 H888 0.931 . S
C873 C872 1.370 . S
C873 C877 1.408 . S
C874 C872 1.363 . S
C874 C875 1.370 . S
C874 C878 1.524 . S
C875 C867 1.503 . S
C875 C874 1.370 . S
C875 C876 1.403 . S
C876 C875 1.403 . S
C876 C877 1.404 . S
C876 C879 1.539 . S
C877 C873 1.408 . S
C877 C876 1.404 . S
C877 H889 0.930 . S
C878 C874 1.524 . S
C878 H890 0.956 . S
C878 H891 0.961 . S
C878 H892 0.961 . S
C879 C876 1.539 . S
C879 H893 0.958 . S
C879 H894 0.961 . S
C879 H895 0.960 . S
H880 C864 0.931 . S
H881 C869 0.929 . S
H882 C870 0.960 . S
H883 C870 0.962 . S
H884 C870 0.960 . S
H885 C871 0.961 . S
H886 C871 0.961 . S
H887 C871 0.961 . S
H888 C872 0.931 . S
H889 C877 0.930 . S
H890 C878 0.956 . S
H891 C878 0.961 . S
H892 C878 0.961 . S
H893 C879 0.958 . S
H894 C879 0.961 . S
H895 C879 0.960 . S
C896 C897 1.391 . S
C896 C898 1.394 . S
C896 H912 0.931 . S
C897 C896 1.391 . S
C897 C901 1.376 . S
C898 C896 1.394 . S
C898 C899 1.369 . S
C898 C902 1.531 . S
C899 C898 1.369 . S
C899 C900 1.410 . S
C899 C907 1.503 . S
C900 C899 1.410 . S
C900 C901 1.392 . S
C900 C903 1.511 . S
C901 C897 1.376 . S
C901 C900 1.392 . S
C901 H913 0.929 . S
C902 C898 1.531 . S
C902 H914 0.960 . S
C902 H915 0.962 . S
C902 H916 0.960 . S
C903 C900 1.511 . S
C903 H917 0.961 . S
C903 H918 0.961 . S
C903 H919 0.961 . S
C904 C905 1.370 . S
C904 C906 1.363 . S
C904 H920 0.931 . S
C905 C904 1.370 . S
C905 C909 1.408 . S
C906 C904 1.363 . S
C906 C907 1.370 . S
C906 C910 1.524 . S
C907 C899 1.503 . S
C907 C906 1.370 . S
C907 C908 1.403 . S
C908 C907 1.403 . S
C908 C909 1.404 . S
C908 C911 1.539 . S
C909 C905 1.408 . S
C909 C908 1.404 . S
C909 H921 0.930 . S
C910 C906 1.524 . S
C910 H922 0.956 . S
C910 H923 0.961 . S
C910 H924 0.961 . S
C911 C908 1.539 . S
C911 H925 0.958 . S
C911 H926 0.961 . S
C911 H927 0.960 . S
H912 C896 0.931 . S
H913 C901 0.929 . S
H914 C902 0.960 . S
H915 C902 0.962 . S
H916 C902 0.960 . S
H917 C903 0.961 . S
H918 C903 0.961 . S
H919 C903 0.961 . S
H920 C904 0.931 . S
H921 C909 0.930 . S
H922 C910 0.956 . S
H923 C910 0.961 . S
H924 C910 0.961 . S
H925 C911 0.958 . S
H926 C911 0.961 . S
H927 C911 0.960 . S
C928 C929 1.391 . S
C928 C930 1.394 . S
C928 H944 0.931 . S
C929 C928 1.391 . S
C929 C933 1.376 . S
C930 C928 1.394 . S
C930 C931 1.369 . S
C930 C934 1.531 . S
C931 C930 1.369 . S
C931 C932 1.410 . S
C931 C939 1.503 . S
C932 C931 1.410 . S
C932 C933 1.392 . S
C932 C935 1.511 . S
C933 C929 1.376 . S
C933 C932 1.392 . S
C933 H945 0.929 . S
C934 C930 1.531 . S
C934 H946 0.960 . S
C934 H947 0.962 . S
C934 H948 0.960 . S
C935 C932 1.511 . S
C935 H949 0.961 . S
C935 H950 0.961 . S
C935 H951 0.961 . S
C936 C937 1.370 . S
C936 C938 1.363 . S
C936 H952 0.931 . S
C937 C936 1.370 . S
C937 C941 1.408 . S
C938 C936 1.363 . S
C938 C939 1.370 . S
C938 C942 1.524 . S
C939 C931 1.503 . S
C939 C938 1.370 . S
C939 C940 1.403 . S
C940 C939 1.403 . S
C940 C941 1.404 . S
C940 C943 1.539 . S
C941 C937 1.408 . S
C941 C940 1.404 . S
C941 H953 0.930 . S
C942 C938 1.524 . S
C942 H954 0.956 . S
C942 H955 0.961 . S
C942 H956 0.961 . S
C943 C940 1.539 . S
C943 H957 0.958 . S
C943 H958 0.961 . S
C943 H959 0.960 . S
H944 C928 0.931 . S
H945 C933 0.929 . S
H946 C934 0.960 . S
H947 C934 0.962 . S
H948 C934 0.960 . S
H949 C935 0.961 . S
H950 C935 0.961 . S
H951 C935 0.961 . S
H952 C936 0.931 . S
H953 C941 0.930 . S
H954 C942 0.956 . S
H955 C942 0.961 . S
H956 C942 0.961 . S
H957 C943 0.958 . S
H958 C943 0.961 . S
H959 C943 0.960 . S
C960 C961 1.391 . S
C960 C962 1.394 . S
C960 H976 0.931 . S
C961 C960 1.391 . S
C961 C965 1.376 . S
C962 C960 1.394 . S
C962 C963 1.369 . S
C962 C966 1.531 . S
C963 C962 1.369 . S
C963 C964 1.410 . S
C963 C971 1.503 . S
C964 C963 1.410 . S
C964 C965 1.392 . S
C964 C967 1.511 . S
C965 C961 1.376 . S
C965 C964 1.392 . S
C965 H977 0.929 . S
C966 C962 1.531 . S
C966 H978 0.960 . S
C966 H979 0.962 . S
C966 H980 0.960 . S
C967 C964 1.511 . S
C967 H981 0.961 . S
C967 H982 0.961 . S
C967 H983 0.961 . S
C968 C969 1.370 . S
C968 C970 1.363 . S
C968 H984 0.931 . S
C969 C968 1.370 . S
C969 C973 1.408 . S
C970 C968 1.363 . S
C970 C971 1.370 . S
C970 C974 1.524 . S
C971 C963 1.503 . S
C971 C970 1.370 . S
C971 C972 1.403 . S
C972 C971 1.403 . S
C972 C973 1.404 . S
C972 C975 1.539 . S
C973 C969 1.408 . S
C973 C972 1.404 . S
C973 H985 0.930 . S
C974 C970 1.524 . S
C974 H986 0.956 . S
C974 H987 0.961 . S
C974 H988 0.961 . S
C975 C972 1.539 . S
C975 H989 0.958 . S
C975 H990 0.961 1_556 S
C975 H991 0.960 . S
H976 C960 0.931 . S
H977 C965 0.929 . S
H978 C966 0.960 . S
H979 C966 0.962 . S
H980 C966 0.960 . S
H981 C967 0.961 . S
H982 C967 0.961 . S
H983 C967 0.961 . S
H984 C968 0.931 . S
H985 C973 0.930 . S
H986 C974 0.956 . S
H987 C974 0.961 . S
H988 C974 0.961 . S
H989 C975 0.958 . S
H990 C975 0.961 1_554 S
H991 C975 0.960 . S
C992 C993 1.391 . S
C992 C994 1.394 . S
C992 H1008 0.931 . S
C993 C992 1.391 . S
C993 C997 1.376 . S
C994 C992 1.394 . S
C994 C995 1.369 . S
C994 C998 1.531 . S
C995 C994 1.369 . S
C995 C996 1.410 . S
C995 C1003 1.503 . S
C996 C995 1.410 . S
C996 C997 1.392 . S
C996 C999 1.511 . S
C997 C993 1.376 . S
C997 C996 1.392 . S
C997 H1009 0.929 . S
C998 C994 1.531 . S
C998 H1010 0.960 . S
C998 H1011 0.962 . S
C998 H1012 0.960 . S
C999 C996 1.511 . S
C999 H1013 0.961 . S
C999 H1014 0.961 . S
C999 H1015 0.961 . S
C1000 C1001 1.370 . S
C1000 C1002 1.363 . S
C1000 H1016 0.931 . S
C1001 C1000 1.370 . S
C1001 C1005 1.408 . S
C1002 C1000 1.363 . S
C1002 C1003 1.370 . S
C1002 C1006 1.524 . S
C1003 C995 1.503 . S
C1003 C1002 1.370 . S
C1003 C1004 1.403 . S
C1004 C1003 1.403 . S
C1004 C1005 1.404 . S
C1004 C1007 1.539 . S
C1005 C1001 1.408 . S
C1005 C1004 1.404 . S
C1005 H1017 0.930 . S
C1006 C1002 1.524 . S
C1006 H1018 0.956 . S
C1006 H1019 0.961 . S
C1006 H1020 0.961 . S
C1007 C1004 1.539 . S
C1007 H1021 0.958 . S
C1007 H1022 0.961 . S
C1007 H1023 0.960 . S
H1008 C992 0.931 . S
H1009 C997 0.929 . S
H1010 C998 0.960 . S
H1011 C998 0.962 . S
H1012 C998 0.960 . S
H1013 C999 0.961 . S
H1014 C999 0.961 . S
H1015 C999 0.961 . S
H1016 C1000 0.931 . S
H1017 C1005 0.930 . S
H1018 C1006 0.956 . S
H1019 C1006 0.961 . S
H1020 C1006 0.961 . S
H1021 C1007 0.958 . S
H1022 C1007 0.961 . S
H1023 C1007 0.960 . S
C1024 C1025 1.391 . S
C1024 C1026 1.394 . S
C1024 H1040 0.931 . S
C1025 C1024 1.391 . S
C1025 C1029 1.376 . S
C1026 C1024 1.394 . S
C1026 C1027 1.369 . S
C1026 C1030 1.531 . S
C1027 C1026 1.369 . S
C1027 C1028 1.410 . S
C1027 C1035 1.503 . S
C1028 C1027 1.410 . S
C1028 C1029 1.392 . S
C1028 C1031 1.511 . S
C1029 C1025 1.376 . S
C1029 C1028 1.392 . S
C1029 H1041 0.929 . S
C1030 C1026 1.531 . S
C1030 H1042 0.960 . S
C1030 H1043 0.962 . S
C1030 H1044 0.960 . S
C1031 C1028 1.511 . S
C1031 H1045 0.961 . S
C1031 H1046 0.961 . S
C1031 H1047 0.961 . S
C1032 C1033 1.370 . S
C1032 C1034 1.363 . S
C1032 H1048 0.931 . S
C1033 C1032 1.370 . S
C1033 C1037 1.408 . S
C1034 C1032 1.363 . S
C1034 C1035 1.370 . S
C1034 C1038 1.524 . S
C1035 C1027 1.503 . S
C1035 C1034 1.370 . S
C1035 C1036 1.403 . S
C1036 C1035 1.403 . S
C1036 C1037 1.404 . S
C1036 C1039 1.539 . S
C1037 C1033 1.408 . S
C1037 C1036 1.404 . S
C1037 H1049 0.930 . S
C1038 C1034 1.524 . S
C1038 H1050 0.956 . S
C1038 H1051 0.961 . S
C1038 H1052 0.961 . S
C1039 C1036 1.539 . S
C1039 H1053 0.958 . S
C1039 H1054 0.961 . S
C1039 H1055 0.960 . S
H1040 C1024 0.931 . S
H1041 C1029 0.929 . S
H1042 C1030 0.960 . S
H1043 C1030 0.962 . S
H1044 C1030 0.960 . S
H1045 C1031 0.961 . S
H1046 C1031 0.961 . S
H1047 C1031 0.961 . S
H1048 C1032 0.931 . S
H1049 C1037 0.930 . S
H1050 C1038 0.956 . S
H1051 C1038 0.961 . S
H1052 C1038 0.961 . S
H1053 C1039 0.958 . S
H1054 C1039 0.961 . S
H1055 C1039 0.960 . S
C1056 C1057 1.391 . S
C1056 C1058 1.394 . S
C1056 H1072 0.931 . S
C1057 C1056 1.391 . S
C1057 C1061 1.376 . S
C1058 C1056 1.394 . S
C1058 C1059 1.369 . S
C1058 C1062 1.531 . S
C1059 C1058 1.369 . S
C1059 C1060 1.410 . S
C1059 C1067 1.503 . S
C1060 C1059 1.410 . S
C1060 C1061 1.392 . S
C1060 C1063 1.511 . S
C1061 C1057 1.376 . S
C1061 C1060 1.392 . S
C1061 H1073 0.929 . S
C1062 C1058 1.531 . S
C1062 H1074 0.960 . S
C1062 H1075 0.962 . S
C1062 H1076 0.960 . S
C1063 C1060 1.511 . S
C1063 H1077 0.961 . S
C1063 H1078 0.961 . S
C1063 H1079 0.961 . S
C1064 C1065 1.370 . S
C1064 C1066 1.363 . S
C1064 H1080 0.931 . S
C1065 C1064 1.370 . S
C1065 C1069 1.408 . S
C1066 C1064 1.363 . S
C1066 C1067 1.370 . S
C1066 C1070 1.524 . S
C1067 C1059 1.503 . S
C1067 C1066 1.370 . S
C1067 C1068 1.403 . S
C1068 C1067 1.403 . S
C1068 C1069 1.404 . S
C1068 C1071 1.539 . S
C1069 C1065 1.408 . S
C1069 C1068 1.404 . S
C1069 H1081 0.930 . S
C1070 C1066 1.524 . S
C1070 H1082 0.956 . S
C1070 H1083 0.961 . S
C1070 H1084 0.961 . S
C1071 C1068 1.539 . S
C1071 H1085 0.958 . S
C1071 H1086 0.961 . S
C1071 H1087 0.960 . S
H1072 C1056 0.931 . S
H1073 C1061 0.929 . S
H1074 C1062 0.960 . S
H1075 C1062 0.962 . S
H1076 C1062 0.960 . S
H1077 C1063 0.961 . S
H1078 C1063 0.961 . S
H1079 C1063 0.961 . S
H1080 C1064 0.931 . S
H1081 C1069 0.930 . S
H1082 C1070 0.956 . S
H1083 C1070 0.961 . S
H1084 C1070 0.961 . S
H1085 C1071 0.958 . S
H1086 C1071 0.961 . S
H1087 C1071 0.960 . S
C1088 C1089 1.391 . S
C1088 C1090 1.394 . S
C1088 H1104 0.931 . S
C1089 C1088 1.391 . S
C1089 C1093 1.376 . S
C1090 C1088 1.394 . S
C1090 C1091 1.369 . S
C1090 C1094 1.531 . S
C1091 C1090 1.369 . S
C1091 C1092 1.410 . S
C1091 C1099 1.503 . S
C1092 C1091 1.410 . S
C1092 C1093 1.392 . S
C1092 C1095 1.511 . S
C1093 C1089 1.376 . S
C1093 C1092 1.392 . S
C1093 H1105 0.929 . S
C1094 C1090 1.531 . S
C1094 H1106 0.960 . S
C1094 H1107 0.962 . S
C1094 H1108 0.960 . S
C1095 C1092 1.511 . S
C1095 H1109 0.961 . S
C1095 H1110 0.961 . S
C1095 H1111 0.961 . S
C1096 C1097 1.370 . S
C1096 C1098 1.363 . S
C1096 H1112 0.931 . S
C1097 C1096 1.370 . S
C1097 C1101 1.408 . S
C1098 C1096 1.363 . S
C1098 C1099 1.370 . S
C1098 C1102 1.524 . S
C1099 C1091 1.503 . S
C1099 C1098 1.370 . S
C1099 C1100 1.403 . S
C1100 C1099 1.403 . S
C1100 C1101 1.404 . S
C1100 C1103 1.539 . S
C1101 C1097 1.408 . S
C1101 C1100 1.404 . S
C1101 H1113 0.930 . S
C1102 C1098 1.524 . S
C1102 H1114 0.956 . S
C1102 H1115 0.961 . S
C1102 H1116 0.961 . S
C1103 C1100 1.539 . S
C1103 H1117 0.958 . S
C1103 H1118 0.961 . S
C1103 H1119 0.960 . S
H1104 C1088 0.931 . S
H1105 C1093 0.929 . S
H1106 C1094 0.960 . S
H1107 C1094 0.962 . S
H1108 C1094 0.960 . S
H1109 C1095 0.961 . S
H1110 C1095 0.961 . S
H1111 C1095 0.961 . S
H1112 C1096 0.931 . S
H1113 C1101 0.930 . S
H1114 C1102 0.956 . S
H1115 C1102 0.961 . S
H1116 C1102 0.961 . S
H1117 C1103 0.958 . S
H1118 C1103 0.961 . S
H1119 C1103 0.960 . S
C1120 C1121 1.391 . S
C1120 C1122 1.394 . S
C1120 H1136 0.931 . S
C1121 C1120 1.391 . S
C1121 C1125 1.376 . S
C1122 C1120 1.394 . S
C1122 C1123 1.369 . S
C1122 C1126 1.531 . S
C1123 C1122 1.369 . S
C1123 C1124 1.410 . S
C1123 C1131 1.503 . S
C1124 C1123 1.410 . S
C1124 C1125 1.392 . S
C1124 C1127 1.511 . S
C1125 C1121 1.376 . S
C1125 C1124 1.392 . S
C1125 H1137 0.929 . S
C1126 C1122 1.531 . S
C1126 H1138 0.960 . S
C1126 H1139 0.962 . S
C1126 H1140 0.960 . S
C1127 C1124 1.511 . S
C1127 H1141 0.961 . S
C1127 H1142 0.961 . S
C1127 H1143 0.961 . S
C1128 C1129 1.370 . S
C1128 C1130 1.363 . S
C1128 H1144 0.931 . S
C1129 C1128 1.370 . S
C1129 C1133 1.408 . S
C1130 C1128 1.363 . S
C1130 C1131 1.370 . S
C1130 C1134 1.524 . S
C1131 C1123 1.503 . S
C1131 C1130 1.370 . S
C1131 C1132 1.403 . S
C1132 C1131 1.403 . S
C1132 C1133 1.404 . S
C1132 C1135 1.539 . S
C1133 C1129 1.408 . S
C1133 C1132 1.404 . S
C1133 H1145 0.930 . S
C1134 C1130 1.524 . S
C1134 H1146 0.956 . S
C1134 H1147 0.961 . S
C1134 H1148 0.961 . S
C1135 C1132 1.539 . S
C1135 H1149 0.958 . S
C1135 H1150 0.961 . S
C1135 H1151 0.960 . S
H1136 C1120 0.931 . S
H1137 C1125 0.929 . S
H1138 C1126 0.960 . S
H1139 C1126 0.962 . S
H1140 C1126 0.960 . S
H1141 C1127 0.961 . S
H1142 C1127 0.961 . S
H1143 C1127 0.961 . S
H1144 C1128 0.931 . S
H1145 C1133 0.930 . S
H1146 C1134 0.956 . S
H1147 C1134 0.961 . S
H1148 C1134 0.961 . S
H1149 C1135 0.958 . S
H1150 C1135 0.961 . S
H1151 C1135 0.960 . S
C1152 C1153 1.391 . S
C1152 C1154 1.394 . S
C1152 H1168 0.931 . S
C1153 C1152 1.391 . S
C1153 C1157 1.376 . S
C1154 C1152 1.394 . S
C1154 C1155 1.369 . S
C1154 C1158 1.531 . S
C1155 C1154 1.369 . S
C1155 C1156 1.410 . S
C1155 C1163 1.503 . S
C1156 C1155 1.410 . S
C1156 C1157 1.392 . S
C1156 C1159 1.511 . S
C1157 C1153 1.376 . S
C1157 C1156 1.392 . S
C1157 H1169 0.929 . S
C1158 C1154 1.531 . S
C1158 H1170 0.960 . S
C1158 H1171 0.962 . S
C1158 H1172 0.960 . S
C1159 C1156 1.511 . S
C1159 H1173 0.961 . S
C1159 H1174 0.961 . S
C1159 H1175 0.961 . S
C1160 C1161 1.370 . S
C1160 C1162 1.363 . S
C1160 H1176 0.931 . S
C1161 C1160 1.370 . S
C1161 C1165 1.408 . S
C1162 C1160 1.363 . S
C1162 C1163 1.370 . S
C1162 C1166 1.524 . S
C1163 C1155 1.503 . S
C1163 C1162 1.370 . S
C1163 C1164 1.403 . S
C1164 C1163 1.403 . S
C1164 C1165 1.404 . S
C1164 C1167 1.539 . S
C1165 C1161 1.408 . S
C1165 C1164 1.404 . S
C1165 H1177 0.930 . S
C1166 C1162 1.524 . S
C1166 H1178 0.956 . S
C1166 H1179 0.961 . S
C1166 H1180 0.961 . S
C1167 C1164 1.539 . S
C1167 H1181 0.958 . S
C1167 H1182 0.961 . S
C1167 H1183 0.960 . S
H1168 C1152 0.931 . S
H1169 C1157 0.929 . S
H1170 C1158 0.960 . S
H1171 C1158 0.962 . S
H1172 C1158 0.960 . S
H1173 C1159 0.961 . S
H1174 C1159 0.961 . S
H1175 C1159 0.961 . S
H1176 C1160 0.931 . S
H1177 C1165 0.930 . S
H1178 C1166 0.956 . S
H1179 C1166 0.961 . S
H1180 C1166 0.961 . S
H1181 C1167 0.958 . S
H1182 C1167 0.961 . S
H1183 C1167 0.960 . S
C1184 C1185 1.391 . S
C1184 C1186 1.394 . S
C1184 H1200 0.931 . S
C1185 C1184 1.391 . S
C1185 C1189 1.376 . S
C1186 C1184 1.394 . S
C1186 C1187 1.369 . S
C1186 C1190 1.531 . S
C1187 C1186 1.369 . S
C1187 C1188 1.410 . S
C1187 C1195 1.503 . S
C1188 C1187 1.410 . S
C1188 C1189 1.392 . S
C1188 C1191 1.511 . S
C1189 C1185 1.376 . S
C1189 C1188 1.392 . S
C1189 H1201 0.929 . S
C1190 C1186 1.531 . S
C1190 H1202 0.960 . S
C1190 H1203 0.962 . S
C1190 H1204 0.960 . S
C1191 C1188 1.511 . S
C1191 H1205 0.961 . S
C1191 H1206 0.961 . S
C1191 H1207 0.961 . S
C1192 C1193 1.370 . S
C1192 C1194 1.363 . S
C1192 H1208 0.931 . S
C1193 C1192 1.370 . S
C1193 C1197 1.408 . S
C1194 C1192 1.363 . S
C1194 C1195 1.370 . S
C1194 C1198 1.524 . S
C1195 C1187 1.503 . S
C1195 C1194 1.370 . S
C1195 C1196 1.403 . S
C1196 C1195 1.403 . S
C1196 C1197 1.404 . S
C1196 C1199 1.539 . S
C1197 C1193 1.408 . S
C1197 C1196 1.404 . S
C1197 H1209 0.930 . S
C1198 C1194 1.524 . S
C1198 H1210 0.956 . S
C1198 H1211 0.961 . S
C1198 H1212 0.961 . S
C1199 C1196 1.539 . S
C1199 H1213 0.958 . S
C1199 H1214 0.961 . S
C1199 H1215 0.960 . S
H1200 C1184 0.931 . S
H1201 C1189 0.929 . S
H1202 C1190 0.960 . S
H1203 C1190 0.962 . S
H1204 C1190 0.960 . S
H1205 C1191 0.961 . S
H1206 C1191 0.961 . S
H1207 C1191 0.961 . S
H1208 C1192 0.931 . S
H1209 C1197 0.930 . S
H1210 C1198 0.956 . S
H1211 C1198 0.961 . S
H1212 C1198 0.961 . S
H1213 C1199 0.958 . S
H1214 C1199 0.961 . S
H1215 C1199 0.960 . S
C1216 C1217 1.391 . S
C1216 C1218 1.394 . S
C1216 H1232 0.931 . S
C1217 C1216 1.391 . S
C1217 C1221 1.376 . S
C1218 C1216 1.394 . S
C1218 C1219 1.369 . S
C1218 C1222 1.531 . S
C1219 C1218 1.369 . S
C1219 C1220 1.410 . S
C1219 C1227 1.503 . S
C1220 C1219 1.410 . S
C1220 C1221 1.392 . S
C1220 C1223 1.511 . S
C1221 C1217 1.376 . S
C1221 C1220 1.392 . S
C1221 H1233 0.929 . S
C1222 C1218 1.531 . S
C1222 H1234 0.960 . S
C1222 H1235 0.962 . S
C1222 H1236 0.960 . S
C1223 C1220 1.511 . S
C1223 H1237 0.961 . S
C1223 H1238 0.961 . S
C1223 H1239 0.961 . S
C1224 C1225 1.370 . S
C1224 C1226 1.363 . S
C1224 H1240 0.931 . S
C1225 C1224 1.370 . S
C1225 C1229 1.408 . S
C1226 C1224 1.363 . S
C1226 C1227 1.370 . S
C1226 C1230 1.524 . S
C1227 C1219 1.503 . S
C1227 C1226 1.370 . S
C1227 C1228 1.403 . S
C1228 C1227 1.403 . S
C1228 C1229 1.404 . S
C1228 C1231 1.539 . S
C1229 C1225 1.408 . S
C1229 C1228 1.404 . S
C1229 H1241 0.930 . S
C1230 C1226 1.524 . S
C1230 H1242 0.956 . S
C1230 H1243 0.961 . S
C1230 H1244 0.961 . S
C1231 C1228 1.539 . S
C1231 H1245 0.958 . S
C1231 H1246 0.961 . S
C1231 H1247 0.960 . S
H1232 C1216 0.931 . S
H1233 C1221 0.929 . S
H1234 C1222 0.960 . S
H1235 C1222 0.962 . S
H1236 C1222 0.960 . S
H1237 C1223 0.961 . S
H1238 C1223 0.961 . S
H1239 C1223 0.961 . S
H1240 C1224 0.931 . S
H1241 C1229 0.930 . S
H1242 C1230 0.956 . S
H1243 C1230 0.961 . S
H1244 C1230 0.961 . S
H1245 C1231 0.958 . S
H1246 C1231 0.961 . S
H1247 C1231 0.960 . S
C1248 C1249 1.391 . S
C1248 C1250 1.394 . S
C1248 H1264 0.931 . S
C1249 C1248 1.391 . S
C1249 C1253 1.376 . S
C1250 C1248 1.394 . S
C1250 C1251 1.369 . S
C1250 C1254 1.531 . S
C1251 C1250 1.369 . S
C1251 C1252 1.410 . S
C1251 C1259 1.503 . S
C1252 C1251 1.410 . S
C1252 C1253 1.392 . S
C1252 C1255 1.511 . S
C1253 C1249 1.376 . S
C1253 C1252 1.392 . S
C1253 H1265 0.929 . S
C1254 C1250 1.531 . S
C1254 H1266 0.960 . S
C1254 H1267 0.962 . S
C1254 H1268 0.960 . S
C1255 C1252 1.511 . S
C1255 H1269 0.961 . S
C1255 H1270 0.961 . S
C1255 H1271 0.961 . S
C1256 C1257 1.370 . S
C1256 C1258 1.363 . S
C1256 H1272 0.931 . S
C1257 C1256 1.370 . S
C1257 C1261 1.408 . S
C1258 C1256 1.363 . S
C1258 C1259 1.370 . S
C1258 C1262 1.524 . S
C1259 C1251 1.503 . S
C1259 C1258 1.370 . S
C1259 C1260 1.403 . S
C1260 C1259 1.403 . S
C1260 C1261 1.404 . S
C1260 C1263 1.539 . S
C1261 C1257 1.408 . S
C1261 C1260 1.404 . S
C1261 H1273 0.930 . S
C1262 C1258 1.524 . S
C1262 H1274 0.956 . S
C1262 H1275 0.961 . S
C1262 H1276 0.961 . S
C1263 C1260 1.539 . S
C1263 H1277 0.958 . S
C1263 H1278 0.961 . S
C1263 H1279 0.960 . S
H1264 C1248 0.931 . S
H1265 C1253 0.929 . S
H1266 C1254 0.960 . S
H1267 C1254 0.962 . S
H1268 C1254 0.960 . S
H1269 C1255 0.961 . S
H1270 C1255 0.961 . S
H1271 C1255 0.961 . S
H1272 C1256 0.931 . S
H1273 C1261 0.930 . S
H1274 C1262 0.956 . S
H1275 C1262 0.961 . S
H1276 C1262 0.961 . S
H1277 C1263 0.958 . S
H1278 C1263 0.961 . S
H1279 C1263 0.960 . S
C1280 C1281 1.391 . S
C1280 C1282 1.394 . S
C1280 H1296 0.931 . S
C1281 C1280 1.391 . S
C1281 C1285 1.376 . S
C1282 C1280 1.394 . S
C1282 C1283 1.369 . S
C1282 C1286 1.531 . S
C1283 C1282 1.369 . S
C1283 C1284 1.410 . S
C1283 C1291 1.503 . S
C1284 C1283 1.410 . S
C1284 C1285 1.392 . S
C1284 C1287 1.511 . S
C1285 C1281 1.376 . S
C1285 C1284 1.392 . S
C1285 H1297 0.929 . S
C1286 C1282 1.531 . S
C1286 H1298 0.960 . S
C1286 H1299 0.962 . S
C1286 H1300 0.960 . S
C1287 C1284 1.511 . S
C1287 H1301 0.961 . S
C1287 H1302 0.961 . S
C1287 H1303 0.961 . S
C1288 C1289 1.370 . S
C1288 C1290 1.363 . S
C1288 H1304 0.931 . S
C1289 C1288 1.370 . S
C1289 C1293 1.408 . S
C1290 C1288 1.363 . S
C1290 C1291 1.370 . S
C1290 C1294 1.524 . S
C1291 C1283 1.503 . S
C1291 C1290 1.370 . S
C1291 C1292 1.403 . S
C1292 C1291 1.403 . S
C1292 C1293 1.404 . S
C1292 C1295 1.539 . S
C1293 C1289 1.408 . S
C1293 C1292 1.404 . S
C1293 H1305 0.930 . S
C1294 C1290 1.524 . S
C1294 H1306 0.956 . S
C1294 H1307 0.961 . S
C1294 H1308 0.961 . S
C1295 C1292 1.539 . S
C1295 H1309 0.958 . S
C1295 H1310 0.961 . S
C1295 H1311 0.960 . S
H1296 C1280 0.931 . S
H1297 C1285 0.929 . S
H1298 C1286 0.960 . S
H1299 C1286 0.962 . S
H1300 C1286 0.960 . S
H1301 C1287 0.961 . S
H1302 C1287 0.961 . S
H1303 C1287 0.961 . S
H1304 C1288 0.931 . S
H1305 C1293 0.930 . S
H1306 C1294 0.956 . S
H1307 C1294 0.961 . S
H1308 C1294 0.961 . S
H1309 C1295 0.958 . S
H1310 C1295 0.961 . S
H1311 C1295 0.960 . S
C1312 C1313 1.391 . S
C1312 C1314 1.394 . S
C1312 H1328 0.931 . S
C1313 C1312 1.391 . S
C1313 C1317 1.376 . S
C1314 C1312 1.394 . S
C1314 C1315 1.369 . S
C1314 C1318 1.531 . S
C1315 C1314 1.369 . S
C1315 C1316 1.410 . S
C1315 C1323 1.503 . S
C1316 C1315 1.410 . S
C1316 C1317 1.392 . S
C1316 C1319 1.511 . S
C1317 C1313 1.376 . S
C1317 C1316 1.392 . S
C1317 H1329 0.929 . S
C1318 C1314 1.531 . S
C1318 H1330 0.960 . S
C1318 H1331 0.962 . S
C1318 H1332 0.960 . S
C1319 C1316 1.511 . S
C1319 H1333 0.961 . S
C1319 H1334 0.961 . S
C1319 H1335 0.961 . S
C1320 C1321 1.370 . S
C1320 C1322 1.363 . S
C1320 H1336 0.931 . S
C1321 C1320 1.370 . S
C1321 C1325 1.408 . S
C1322 C1320 1.363 . S
C1322 C1323 1.370 . S
C1322 C1326 1.524 . S
C1323 C1315 1.503 . S
C1323 C1322 1.370 . S
C1323 C1324 1.403 . S
C1324 C1323 1.403 . S
C1324 C1325 1.404 . S
C1324 C1327 1.539 . S
C1325 C1321 1.408 . S
C1325 C1324 1.404 . S
C1325 H1337 0.930 . S
C1326 C1322 1.524 . S
C1326 H1338 0.956 . S
C1326 H1339 0.961 . S
C1326 H1340 0.961 . S
C1327 C1324 1.539 . S
C1327 H1341 0.958 . S
C1327 H1342 0.961 . S
C1327 H1343 0.960 . S
H1328 C1312 0.931 . S
H1329 C1317 0.929 . S
H1330 C1318 0.960 . S
H1331 C1318 0.962 . S
H1332 C1318 0.960 . S
H1333 C1319 0.961 . S
H1334 C1319 0.961 . S
H1335 C1319 0.961 . S
H1336 C1320 0.931 . S
H1337 C1325 0.930 . S
H1338 C1326 0.956 . S
H1339 C1326 0.961 . S
H1340 C1326 0.961 . S
H1341 C1327 0.958 . S
H1342 C1327 0.961 . S
H1343 C1327 0.960 . S
C1344 C1345 1.391 . S
C1344 C1346 1.394 . S
C1344 H1360 0.931 . S
C1345 C1344 1.391 . S
C1345 C1349 1.376 . S
C1346 C1344 1.394 . S
C1346 C1347 1.369 . S
C1346 C1350 1.531 . S
C1347 C1346 1.369 . S
C1347 C1348 1.410 . S
C1347 C1355 1.503 . S
C1348 C1347 1.410 . S
C1348 C1349 1.392 . S
C1348 C1351 1.511 . S
C1349 C1345 1.376 . S
C1349 C1348 1.392 . S
C1349 H1361 0.929 . S
C1350 C1346 1.531 . S
C1350 H1362 0.960 . S
C1350 H1363 0.962 . S
C1350 H1364 0.960 . S
C1351 C1348 1.511 . S
C1351 H1365 0.961 . S
C1351 H1366 0.961 . S
C1351 H1367 0.961 . S
C1352 C1353 1.370 . S
C1352 C1354 1.363 . S
C1352 H1368 0.931 . S
C1353 C1352 1.370 . S
C1353 C1357 1.408 . S
C1354 C1352 1.363 . S
C1354 C1355 1.370 . S
C1354 C1358 1.524 . S
C1355 C1347 1.503 . S
C1355 C1354 1.370 . S
C1355 C1356 1.403 . S
C1356 C1355 1.403 . S
C1356 C1357 1.404 . S
C1356 C1359 1.539 . S
C1357 C1353 1.408 . S
C1357 C1356 1.404 . S
C1357 H1369 0.930 . S
C1358 C1354 1.524 . S
C1358 H1370 0.956 . S
C1358 H1371 0.961 . S
C1358 H1372 0.961 . S
C1359 C1356 1.539 . S
C1359 H1373 0.958 . S
C1359 H1374 0.961 . S
C1359 H1375 0.960 . S
H1360 C1344 0.931 . S
H1361 C1349 0.929 . S
H1362 C1350 0.960 . S
H1363 C1350 0.962 . S
H1364 C1350 0.960 . S
H1365 C1351 0.961 . S
H1366 C1351 0.961 . S
H1367 C1351 0.961 . S
H1368 C1352 0.931 . S
H1369 C1357 0.930 . S
H1370 C1358 0.956 . S
H1371 C1358 0.961 . S
H1372 C1358 0.961 . S
H1373 C1359 0.958 . S
H1374 C1359 0.961 . S
H1375 C1359 0.960 . S
C1376 C1377 1.391 . S
C1376 C1378 1.394 . S
C1376 H1392 0.931 . S
C1377 C1376 1.391 . S
C1377 C1381 1.376 . S
C1378 C1376 1.394 . S
C1378 C1379 1.369 . S
C1378 C1382 1.531 . S
C1379 C1378 1.369 . S
C1379 C1380 1.410 . S
C1379 C1387 1.503 . S
C1380 C1379 1.410 . S
C1380 C1381 1.392 . S
C1380 C1383 1.511 . S
C1381 C1377 1.376 . S
C1381 C1380 1.392 . S
C1381 H1393 0.929 . S
C1382 C1378 1.531 . S
C1382 H1394 0.960 . S
C1382 H1395 0.962 . S
C1382 H1396 0.960 . S
C1383 C1380 1.511 . S
C1383 H1397 0.961 . S
C1383 H1398 0.961 . S
C1383 H1399 0.961 . S
C1384 C1385 1.370 . S
C1384 C1386 1.363 . S
C1384 H1400 0.931 . S
C1385 C1384 1.370 . S
C1385 C1389 1.408 . S
C1386 C1384 1.363 . S
C1386 C1387 1.370 . S
C1386 C1390 1.524 . S
C1387 C1379 1.503 . S
C1387 C1386 1.370 . S
C1387 C1388 1.403 . S
C1388 C1387 1.403 . S
C1388 C1389 1.404 . S
C1388 C1391 1.539 . S
C1389 C1385 1.408 . S
C1389 C1388 1.404 . S
C1389 H1401 0.930 . S
C1390 C1386 1.524 . S
C1390 H1402 0.956 . S
C1390 H1403 0.961 . S
C1390 H1404 0.961 . S
C1391 C1388 1.539 . S
C1391 H1405 0.958 . S
C1391 H1406 0.961 . S
C1391 H1407 0.960 . S
H1392 C1376 0.931 . S
H1393 C1381 0.929 . S
H1394 C1382 0.960 . S
H1395 C1382 0.962 . S
H1396 C1382 0.960 . S
H1397 C1383 0.961 . S
H1398 C1383 0.961 . S
H1399 C1383 0.961 . S
H1400 C1384 0.931 . S
H1401 C1389 0.930 . S
H1402 C1390 0.956 . S
H1403 C1390 0.961 . S
H1404 C1390 0.961 . S
H1405 C1391 0.958 . S
H1406 C1391 0.961 . S
H1407 C1391 0.960 . S
C1408 C1409 1.385 . S
C1408 C1410 1.394 . S
C1408 H1424 0.931 . S
C1409 C1408 1.385 . S
C1409 C1413 1.382 1_545 S
C1410 C1408 1.394 . S
C1410 C1411 1.333 1_545 S
C1410 C1414 1.531 . S
C1411 C1410 1.333 1_565 S
C1411 C1412 1.446 . S
C1411 C1419 1.503 1_455 S
C1412 C1411 1.446 . S
C1412 C1413 1.392 . S
C1412 C1415 1.511 . S
C1413 C1409 1.382 1_565 S
C1413 C1412 1.392 . S
C1413 H1425 0.929 . S
C1414 C1410 1.531 . S
C1414 H1426 0.960 1_455 S
C1414 H1427 0.962 . S
C1414 H1428 0.960 . S
C1415 C1412 1.511 . S
C1415 H1429 0.961 . S
C1415 H1430 0.961 1_455 S
C1415 H1431 0.961 . S
C1416 C1417 1.361 1_545 S
C1416 C1418 1.363 . S
C1416 H1432 0.931 . S
C1417 C1416 1.361 1_565 S
C1417 C1421 1.418 . S
C1418 C1416 1.363 . S
C1418 C1419 1.362 1_545 S
C1418 C1422 1.524 . S
C1419 C1411 1.503 1_655 S
C1419 C1418 1.362 1_565 S
C1419 C1420 1.412 . S
C1420 C1419 1.412 . S
C1420 C1421 1.404 . S
C1420 C1423 1.539 . S
C1421 C1417 1.418 . S
C1421 C1420 1.404 . S
C1421 H1433 0.930 . S
C1422 C1418 1.524 . S
C1422 H1434 0.948 1_655 S
C1422 H1435 0.961 1_645 S
C1422 H1436 0.961 . S
C1423 C1420 1.539 . S
C1423 H1437 0.943 1_565 S
C1423 H1438 0.961 . S
C1423 H1439 0.960 . S
H1424 C1408 0.931 . S
H1425 C1413 0.929 . S
H1426 C1414 0.960 1_655 S
H1427 C1414 0.962 . S
H1428 C1414 0.960 . S
H1429 C1415 0.961 . S
H1430 C1415 0.961 1_655 S
H1431 C1415 0.961 . S
H1432 C1416 0.931 . S
H1433 C1421 0.930 . S
H1434 C1422 0.948 1_455 S
H1435 C1422 0.961 1_465 S
H1436 C1422 0.961 . S
H1437 C1423 0.943 1_545 S
H1438 C1423 0.961 . S
H1439 C1423 0.960 . S
C1440 C1441 1.391 . S
C1440 C1442 1.394 . S
C1440 H1456 0.931 . S
C1441 C1440 1.391 . S
C1441 C1445 1.376 . S
C1442 C1440 1.394 . S
C1442 C1443 1.369 . S
C1442 C1446 1.531 . S
C1443 C1442 1.369 . S
C1443 C1444 1.410 . S
C1443 C1451 1.503 . S
C1444 C1443 1.410 . S
C1444 C1445 1.392 . S
C1444 C1447 1.511 . S
C1445 C1441 1.376 . S
C1445 C1444 1.392 . S
C1445 H1457 0.929 . S
C1446 C1442 1.531 . S
C1446 H1458 0.960 . S
C1446 H1459 0.962 . S
C1446 H1460 0.960 . S
C1447 C1444 1.511 . S
C1447 H1461 0.961 . S
C1447 H1462 0.961 . S
C1447 H1463 0.961 . S
C1448 C1449 1.370 . S
C1448 C1450 1.363 . S
C1448 H1464 0.931 . S
C1449 C1448 1.370 . S
C1449 C1453 1.408 . S
C1450 C1448 1.363 . S
C1450 C1451 1.370 . S
C1450 C1454 1.524 . S
C1451 C1443 1.503 . S
C1451 C1450 1.370 . S
C1451 C1452 1.403 . S
C1452 C1451 1.403 . S
C1452 C1453 1.404 . S
C1452 C1455 1.539 . S
C1453 C1449 1.408 . S
C1453 C1452 1.404 . S
C1453 H1465 0.930 . S
C1454 C1450 1.524 . S
C1454 H1466 0.956 . S
C1454 H1467 0.961 . S
C1454 H1468 0.961 . S
C1455 C1452 1.539 . S
C1455 H1469 0.958 . S
C1455 H1470 0.961 . S
C1455 H1471 0.960 . S
H1456 C1440 0.931 . S
H1457 C1445 0.929 . S
H1458 C1446 0.960 . S
H1459 C1446 0.962 . S
H1460 C1446 0.960 . S
H1461 C1447 0.961 . S
H1462 C1447 0.961 . S
H1463 C1447 0.961 . S
H1464 C1448 0.931 . S
H1465 C1453 0.930 . S
H1466 C1454 0.956 . S
H1467 C1454 0.961 . S
H1468 C1454 0.961 . S
H1469 C1455 0.958 . S
H1470 C1455 0.961 . S
H1471 C1455 0.960 . S
C1472 C1473 1.391 1_544 S
C1472 C1474 1.394 . S
C1472 H1488 0.931 . S
C1473 C1472 1.391 1_566 S
C1473 C1477 1.376 . S
C1474 C1472 1.394 . S
C1474 C1475 1.369 1_545 S
C1474 C1478 1.531 . S
C1475 C1474 1.369 1_565 S
C1475 C1476 1.410 1_554 S
C1475 C1483 1.503 . S
C1476 C1475 1.410 1_556 S
C1476 C1477 1.392 . S
C1476 C1479 1.511 . S
C1477 C1473 1.376 . S
C1477 C1476 1.392 . S
C1477 H1489 0.929 . S
C1478 C1474 1.531 . S
C1478 H1490 0.960 . S
C1478 H1491 0.962 . S
C1478 H1492 0.960 . S
C1479 C1476 1.511 . S
C1479 H1493 0.961 . S
C1479 H1494 0.961 . S
C1479 H1495 0.961 . S
C1480 C1481 1.369 1_546 S
C1480 C1482 1.363 . S
C1480 H1496 0.931 . S
C1481 C1480 1.369 1_564 S
C1481 C1485 1.410 . S
C1482 C1480 1.363 . S
C1482 C1483 1.370 1_546 S
C1482 C1486 1.524 . S
C1483 C1475 1.503 . S
C1483 C1482 1.370 1_564 S
C1483 C1484 1.403 . S
C1484 C1483 1.403 . S
C1484 C1485 1.404 . S
C1484 C1487 1.539 . S
C1485 C1481 1.410 . S
C1485 C1484 1.404 . S
C1485 H1497 0.930 . S
C1486 C1482 1.524 . S
C1486 H1498 0.956 . S
C1486 H1499 0.961 . S
C1486 H1500 0.961 . S
C1487 C1484 1.539 . S
C1487 H1501 0.958 . S
C1487 H1502 0.961 . S
C1487 H1503 0.960 . S
H1488 C1472 0.931 . S
H1489 C1477 0.929 . S
H1490 C1478 0.960 . S
H1491 C1478 0.962 . S
H1492 C1478 0.960 . S
H1493 C1479 0.961 . S
H1494 C1479 0.961 . S
H1495 C1479 0.961 . S
H1496 C1480 0.931 . S
H1497 C1485 0.930 . S
H1498 C1486 0.956 . S
H1499 C1486 0.961 . S
H1500 C1486 0.961 . S
H1501 C1487 0.958 . S
H1502 C1487 0.961 . S
H1503 C1487 0.960 . S
C1504 C1505 1.391 . S
C1504 C1506 1.394 . S
C1504 H1520 0.931 . S
C1505 C1504 1.391 . S
C1505 C1509 1.376 . S
C1506 C1504 1.394 . S
C1506 C1507 1.369 . S
C1506 C1510 1.531 . S
C1507 C1506 1.369 . S
C1507 C1508 1.410 . S
C1507 C1515 1.503 . S
C1508 C1507 1.410 . S
C1508 C1509 1.392 . S
C1508 C1511 1.511 . S
C1509 C1505 1.376 . S
C1509 C1508 1.392 . S
C1509 H1521 0.929 . S
C1510 C1506 1.531 . S
C1510 H1522 0.960 . S
C1510 H1523 0.962 . S
C1510 H1524 0.960 . S
C1511 C1508 1.511 . S
C1511 H1525 0.961 . S
C1511 H1526 0.961 . S
C1511 H1527 0.961 . S
C1512 C1513 1.370 . S
C1512 C1514 1.363 . S
C1512 H1528 0.931 . S
C1513 C1512 1.370 . S
C1513 C1517 1.408 . S
C1514 C1512 1.363 . S
C1514 C1515 1.370 . S
C1514 C1518 1.524 . S
C1515 C1507 1.503 . S
C1515 C1514 1.370 . S
C1515 C1516 1.403 . S
C1516 C1515 1.403 . S
C1516 C1517 1.404 . S
C1516 C1519 1.539 . S
C1517 C1513 1.408 . S
C1517 C1516 1.404 . S
C1517 H1529 0.930 . S
C1518 C1514 1.524 . S
C1518 H1530 0.956 . S
C1518 H1531 0.961 . S
C1518 H1532 0.961 . S
C1519 C1516 1.539 . S
C1519 H1533 0.958 . S
C1519 H1534 0.961 . S
C1519 H1535 0.960 . S
H1520 C1504 0.931 . S
H1521 C1509 0.929 . S
H1522 C1510 0.960 . S
H1523 C1510 0.962 . S
H1524 C1510 0.960 . S
H1525 C1511 0.961 . S
H1526 C1511 0.961 . S
H1527 C1511 0.961 . S
H1528 C1512 0.931 . S
H1529 C1517 0.930 . S
H1530 C1518 0.956 . S
H1531 C1518 0.961 . S
H1532 C1518 0.961 . S
H1533 C1519 0.958 . S
H1534 C1519 0.961 . S
H1535 C1519 0.960 . S
C1536 C1537 1.391 1_545 S
C1536 C1538 1.394 1_545 S
C1536 H1552 0.931 . S
C1537 C1536 1.391 1_565 S
C1537 C1541 1.376 . S
C1538 C1536 1.394 1_565 S
C1538 C1539 1.367 . S
C1538 C1542 1.532 1_565 S
C1539 C1538 1.367 . S
C1539 C1540 1.410 . S
C1539 C1547 1.503 . S
C1540 C1539 1.410 . S
C1540 C1541 1.392 . S
C1540 C1543 1.511 . S
C1541 C1537 1.376 . S
C1541 C1540 1.392 . S
C1541 H1553 0.929 . S
C1542 C1538 1.532 1_545 S
C1542 H1554 0.960 1_545 S
C1542 H1555 0.962 . S
C1542 H1556 0.949 1_545 S
C1543 C1540 1.511 . S
C1543 H1557 0.961 . S
C1543 H1558 0.961 . S
C1543 H1559 0.961 . S
C1544 C1545 1.313 1_545 S
C1544 C1546 1.363 . S
C1544 H1560 0.931 . S
C1545 C1544 1.313 1_565 S
C1545 C1549 1.471 . S
C1546 C1544 1.363 . S
C1546 C1547 1.370 1_545 S
C1546 C1550 1.524 . S
C1547 C1539 1.503 . S
C1547 C1546 1.370 1_565 S
C1547 C1548 1.403 . S
C1548 C1547 1.403 . S
C1548 C1549 1.404 . S
C1548 C1551 1.539 . S
C1549 C1545 1.471 . S
C1549 C1548 1.404 . S
C1549 H1561 0.930 . S
C1550 C1546 1.524 . S
C1550 H1562 0.956 . S
C1550 H1563 0.961 . S
C1550 H1564 0.961 . S
C1551 C1548 1.539 . S
C1551 H1565 0.958 . S
C1551 H1566 0.961 . S
C1551 H1567 0.960 . S
H1552 C1536 0.931 . S
H1553 C1541 0.929 . S
H1554 C1542 0.960 1_565 S
H1555 C1542 0.962 . S
H1556 C1542 0.949 1_565 S
H1557 C1543 0.961 . S
H1558 C1543 0.961 . S
H1559 C1543 0.961 . S
H1560 C1544 0.931 . S
H1561 C1549 0.930 . S
H1562 C1550 0.956 . S
H1563 C1550 0.961 . S
H1564 C1550 0.961 . S
H1565 C1551 0.958 . S
H1566 C1551 0.961 . S
H1567 C1551 0.960 . S
C1568 C1569 1.391 . S
C1568 C1570 1.394 . S
C1568 H1584 0.931 . S
C1569 C1568 1.391 . S
C1569 C1573 1.376 . S
C1570 C1568 1.394 . S
C1570 C1571 1.369 . S
C1570 C1574 1.531 . S
C1571 C1570 1.369 . S
C1571 C1572 1.410 . S
C1571 C1579 1.503 . S
C1572 C1571 1.410 . S
C1572 C1573 1.392 . S
C1572 C1575 1.511 . S
C1573 C1569 1.376 . S
C1573 C1572 1.392 . S
C1573 H1585 0.929 . S
C1574 C1570 1.531 . S
C1574 H1586 0.960 . S
C1574 H1587 0.962 . S
C1574 H1588 0.960 . S
C1575 C1572 1.511 . S
C1575 H1589 0.961 . S
C1575 H1590 0.961 . S
C1575 H1591 0.961 . S
C1576 C1577 1.370 . S
C1576 C1578 1.363 . S
C1576 H1592 0.931 . S
C1577 C1576 1.370 . S
C1577 C1581 1.408 . S
C1578 C1576 1.363 . S
C1578 C1579 1.370 . S
C1578 C1582 1.524 . S
C1579 C1571 1.503 . S
C1579 C1578 1.370 . S
C1579 C1580 1.403 . S
C1580 C1579 1.403 . S
C1580 C1581 1.404 . S
C1580 C1583 1.539 . S
C1581 C1577 1.408 . S
C1581 C1580 1.404 . S
C1581 H1593 0.930 . S
C1582 C1578 1.524 . S
C1582 H1594 0.956 . S
C1582 H1595 0.961 . S
C1582 H1596 0.961 . S
C1583 C1580 1.539 . S
C1583 H1597 0.958 . S
C1583 H1598 0.961 . S
C1583 H1599 0.960 . S
H1584 C1568 0.931 . S
H1585 C1573 0.929 . S
H1586 C1574 0.960 . S
H1587 C1574 0.962 . S
H1588 C1574 0.960 . S
H1589 C1575 0.961 . S
H1590 C1575 0.961 . S
H1591 C1575 0.961 . S
H1592 C1576 0.931 . S
H1593 C1581 0.930 . S
H1594 C1582 0.956 . S
H1595 C1582 0.961 . S
H1596 C1582 0.961 . S
H1597 C1583 0.958 . S
H1598 C1583 0.961 . S
H1599 C1583 0.960 . S
C1600 C1601 1.371 1_565 S
C1600 C1602 1.394 . S
C1600 H1616 0.931 . S
C1601 C1600 1.371 1_545 S
C1601 C1605 1.406 1_554 S
C1602 C1600 1.394 . S
C1602 C1603 1.369 1_565 S
C1602 C1606 1.531 . S
C1603 C1602 1.369 1_545 S
C1603 C1604 1.410 1_554 S
C1603 C1611 1.503 1_455 S
C1604 C1603 1.410 1_556 S
C1604 C1605 1.392 . S
C1604 C1607 1.511 . S
C1605 C1601 1.406 1_556 S
C1605 C1604 1.392 . S
C1605 H1617 0.929 . S
C1606 C1602 1.531 . S
C1606 H1618 0.960 1_455 S
C1606 H1619 0.962 . S
C1606 H1620 0.960 . S
C1607 C1604 1.511 . S
C1607 H1621 0.961 . S
C1607 H1622 0.943 1_455 S
C1607 H1623 0.961 . S
C1608 C1609 1.318 1_565 S
C1608 C1610 1.363 . S
C1608 H1624 0.931 . S
C1609 C1608 1.318 1_545 S
C1609 C1613 1.465 1_556 S
C1610 C1608 1.363 . S
C1610 C1611 1.370 1_566 S
C1610 C1614 1.524 . S
C1611 C1603 1.503 1_655 S
C1611 C1610 1.370 1_544 S
C1611 C1612 1.403 . S
C1612 C1611 1.403 . S
C1612 C1613 1.404 . S
C1612 C1615 1.539 . S
C1613 C1609 1.465 1_554 S
C1613 C1612 1.404 . S
C1613 H1625 0.930 . S
C1614 C1610 1.524 . S
C1614 H1626 0.986 . S
C1614 H1627 0.961 1_655 S
C1614 H1628 0.961 . S
C1615 C1612 1.539 . S
C1615 H1629 0.958 . S
C1615 H1630 0.961 . S
C1615 H1631 0.976 . S
H1616 C1600 0.931 . S
H1617 C1605 0.929 . S
H1618 C1606 0.960 1_655 S
H1619 C1606 0.962 . S
H1620 C1606 0.960 . S
H1621 C1607 0.961 . S
H1622 C1607 0.943 1_655 S
H1623 C1607 0.961 . S
H1624 C1608 0.931 . S
H1625 C1613 0.930 . S
H1626 C1614 0.986 . S
H1627 C1614 0.961 1_455 S
H1628 C1614 0.961 . S
H1629 C1615 0.958 . S
H1630 C1615 0.961 . S
H1631 C1615 0.976 . S
C1632 C1633 1.391 . S
C1632 C1634 1.394 . S
C1632 H1648 0.931 . S
C1633 C1632 1.391 . S
C1633 C1637 1.376 . S
C1634 C1632 1.394 . S
C1634 C1635 1.369 . S
C1634 C1638 1.531 . S
C1635 C1634 1.369 . S
C1635 C1636 1.410 . S
C1635 C1643 1.503 . S
C1636 C1635 1.410 . S
C1636 C1637 1.392 . S
C1636 C1639 1.511 . S
C1637 C1633 1.376 . S
C1637 C1636 1.392 . S
C1637 H1649 0.929 . S
C1638 C1634 1.531 . S
C1638 H1650 0.960 . S
C1638 H1651 0.962 . S
C1638 H1652 0.960 . S
C1639 C1636 1.511 . S
C1639 H1653 0.961 . S
C1639 H1654 0.961 . S
C1639 H1655 0.961 . S
C1640 C1641 1.370 . S
C1640 C1642 1.363 . S
C1640 H1656 0.931 . S
C1641 C1640 1.370 . S
C1641 C1645 1.408 . S
C1642 C1640 1.363 . S
C1642 C1643 1.370 . S
C1642 C1646 1.524 . S
C1643 C1635 1.503 . S
C1643 C1642 1.370 . S
C1643 C1644 1.403 . S
C1644 C1643 1.403 . S
C1644 C1645 1.404 . S
C1644 C1647 1.539 . S
C1645 C1641 1.408 . S
C1645 C1644 1.404 . S
C1645 H1657 0.930 . S
C1646 C1642 1.524 . S
C1646 H1658 0.956 . S
C1646 H1659 0.961 . S
C1646 H1660 0.961 . S
C1647 C1644 1.539 . S
C1647 H1661 0.958 . S
C1647 H1662 0.961 . S
C1647 H1663 0.960 . S
H1648 C1632 0.931 . S
H1649 C1637 0.929 . S
H1650 C1638 0.960 . S
H1651 C1638 0.962 . S
H1652 C1638 0.960 . S
H1653 C1639 0.961 . S
H1654 C1639 0.961 . S
H1655 C1639 0.961 . S
H1656 C1640 0.931 . S
H1657 C1645 0.930 . S
H1658 C1646 0.956 . S
H1659 C1646 0.961 . S
H1660 C1646 0.961 . S
H1661 C1647 0.958 . S
H1662 C1647 0.961 . S
H1663 C1647 0.960 . S
C1664 C1665 1.391 . S
C1664 C1666 1.394 . S
C1664 H1680 0.931 . S
C1665 C1664 1.391 . S
C1665 C1669 1.376 . S
C1666 C1664 1.394 . S
C1666 C1667 1.369 . S
C1666 C1670 1.531 . S
C1667 C1666 1.369 . S
C1667 C1668 1.410 . S
C1667 C1675 1.503 . S
C1668 C1667 1.410 . S
C1668 C1669 1.392 . S
C1668 C1671 1.511 . S
C1669 C1665 1.376 . S
C1669 C1668 1.392 . S
C1669 H1681 0.929 . S
C1670 C1666 1.531 . S
C1670 H1682 0.960 . S
C1670 H1683 0.962 . S
C1670 H1684 0.960 . S
C1671 C1668 1.511 . S
C1671 H1685 0.961 . S
C1671 H1686 0.961 . S
C1671 H1687 0.961 . S
C1672 C1673 1.370 . S
C1672 C1674 1.363 . S
C1672 H1688 0.931 . S
C1673 C1672 1.370 . S
C1673 C1677 1.408 . S
C1674 C1672 1.363 . S
C1674 C1675 1.370 . S
C1674 C1678 1.524 . S
C1675 C1667 1.503 . S
C1675 C1674 1.370 . S
C1675 C1676 1.403 . S
C1676 C1675 1.403 . S
C1676 C1677 1.404 . S
C1676 C1679 1.539 . S
C1677 C1673 1.408 . S
C1677 C1676 1.404 . S
C1677 H1689 0.930 . S
C1678 C1674 1.524 . S
C1678 H1690 0.956 . S
C1678 H1691 0.961 . S
C1678 H1692 0.961 . S
C1679 C1676 1.539 . S
C1679 H1693 0.958 . S
C1679 H1694 0.961 . S
C1679 H1695 0.960 . S
H1680 C1664 0.931 . S
H1681 C1669 0.929 . S
H1682 C1670 0.960 . S
H1683 C1670 0.962 . S
H1684 C1670 0.960 . S
H1685 C1671 0.961 . S
H1686 C1671 0.961 . S
H1687 C1671 0.961 . S
H1688 C1672 0.931 . S
H1689 C1677 0.930 . S
H1690 C1678 0.956 . S
H1691 C1678 0.961 . S
H1692 C1678 0.961 . S
H1693 C1679 0.958 . S
H1694 C1679 0.961 . S
H1695 C1679 0.960 . S
C1696 C1697 1.391 . S
C1696 C1698 1.394 . S
C1696 H1712 0.931 . S
C1697 C1696 1.391 . S
C1697 C1701 1.376 . S
C1698 C1696 1.394 . S
C1698 C1699 1.369 . S
C1698 C1702 1.531 . S
C1699 C1698 1.369 . S
C1699 C1700 1.410 . S
C1699 C1707 1.503 . S
C1700 C1699 1.410 . S
C1700 C1701 1.392 . S
C1700 C1703 1.511 . S
C1701 C1697 1.376 . S
C1701 C1700 1.392 . S
C1701 H1713 0.929 . S
C1702 C1698 1.531 . S
C1702 H1714 0.960 . S
C1702 H1715 0.962 . S
C1702 H1716 0.960 . S
C1703 C1700 1.511 . S
C1703 H1717 0.961 . S
C1703 H1718 0.961 . S
C1703 H1719 0.961 . S
C1704 C1705 1.370 . S
C1704 C1706 1.363 . S
C1704 H1720 0.931 . S
C1705 C1704 1.370 . S
C1705 C1709 1.408 . S
C1706 C1704 1.363 . S
C1706 C1707 1.370 . S
C1706 C1710 1.524 . S
C1707 C1699 1.503 . S
C1707 C1706 1.370 . S
C1707 C1708 1.403 . S
C1708 C1707 1.403 . S
C1708 C1709 1.404 . S
C1708 C1711 1.539 . S
C1709 C1705 1.408 . S
C1709 C1708 1.404 . S
C1709 H1721 0.930 . S
C1710 C1706 1.524 . S
C1710 H1722 0.956 . S
C1710 H1723 0.961 . S
C1710 H1724 0.961 . S
C1711 C1708 1.539 . S
C1711 H1725 0.958 . S
C1711 H1726 0.961 . S
C1711 H1727 0.960 . S
H1712 C1696 0.931 . S
H1713 C1701 0.929 . S
H1714 C1702 0.960 . S
H1715 C1702 0.962 . S
H1716 C1702 0.960 . S
H1717 C1703 0.961 . S
H1718 C1703 0.961 . S
H1719 C1703 0.961 . S
H1720 C1704 0.931 . S
H1721 C1709 0.930 . S
H1722 C1710 0.956 . S
H1723 C1710 0.961 . S
H1724 C1710 0.961 . S
H1725 C1711 0.958 . S
H1726 C1711 0.961 . S
H1727 C1711 0.960 . S
C1728 C1729 1.391 . S
C1728 C1730 1.394 . S
C1728 H1744 0.931 . S
C1729 C1728 1.391 . S
C1729 C1733 1.376 . S
C1730 C1728 1.394 . S
C1730 C1731 1.369 . S
C1730 C1734 1.531 . S
C1731 C1730 1.369 . S
C1731 C1732 1.410 . S
C1731 C1739 1.503 . S
C1732 C1731 1.410 . S
C1732 C1733 1.392 . S
C1732 C1735 1.511 . S
C1733 C1729 1.376 . S
C1733 C1732 1.392 . S
C1733 H1745 0.929 . S
C1734 C1730 1.531 . S
C1734 H1746 0.960 . S
C1734 H1747 0.962 . S
C1734 H1748 0.960 . S
C1735 C1732 1.511 . S
C1735 H1749 0.961 . S
C1735 H1750 0.961 . S
C1735 H1751 0.961 . S
C1736 C1737 1.370 . S
C1736 C1738 1.363 . S
C1736 H1752 0.931 . S
C1737 C1736 1.370 . S
C1737 C1741 1.408 . S
C1738 C1736 1.363 . S
C1738 C1739 1.370 . S
C1738 C1742 1.524 . S
C1739 C1731 1.503 . S
C1739 C1738 1.370 . S
C1739 C1740 1.403 . S
C1740 C1739 1.403 . S
C1740 C1741 1.404 . S
C1740 C1743 1.539 . S
C1741 C1737 1.408 . S
C1741 C1740 1.404 . S
C1741 H1753 0.930 . S
C1742 C1738 1.524 . S
C1742 H1754 0.956 . S
C1742 H1755 0.961 . S
C1742 H1756 0.961 . S
C1743 C1740 1.539 . S
C1743 H1757 0.958 . S
C1743 H1758 0.961 . S
C1743 H1759 0.960 . S
H1744 C1728 0.931 . S
H1745 C1733 0.929 . S
H1746 C1734 0.960 . S
H1747 C1734 0.962 . S
H1748 C1734 0.960 . S
H1749 C1735 0.961 . S
H1750 C1735 0.961 . S
H1751 C1735 0.961 . S
H1752 C1736 0.931 . S
H1753 C1741 0.930 . S
H1754 C1742 0.956 . S
H1755 C1742 0.961 . S
H1756 C1742 0.961 . S
H1757 C1743 0.958 . S
H1758 C1743 0.961 . S
H1759 C1743 0.960 . S
C1760 C1761 1.391 1_554 S
C1760 C1762 1.394 . S
C1760 H1776 0.931 . S
C1761 C1760 1.391 1_556 S
C1761 C1765 1.376 . S
C1762 C1760 1.394 . S
C1762 C1763 1.390 . S
C1762 C1766 1.531 . S
C1763 C1762 1.390 . S
C1763 C1764 1.387 1_554 S
C1763 C1771 1.504 . S
C1764 C1763 1.387 1_556 S
C1764 C1765 1.392 . S
C1764 C1767 1.511 . S
C1765 C1761 1.376 . S
C1765 C1764 1.392 . S
C1765 H1777 0.929 . S
C1766 C1762 1.531 . S
C1766 H1778 0.960 . S
C1766 H1779 0.962 . S
C1766 H1780 0.960 . S
C1767 C1764 1.511 . S
C1767 H1781 0.961 . S
C1767 H1782 0.961 . S
C1767 H1783 0.961 . S
C1768 C1769 1.370 1_556 S
C1768 C1770 1.363 . S
C1768 H1784 0.931 . S
C1769 C1768 1.370 1_554 S
C1769 C1773 1.408 . S
C1770 C1768 1.363 . S
C1770 C1771 1.370 1_556 S
C1770 C1774 1.524 . S
C1771 C1763 1.504 . S
C1771 C1770 1.370 1_554 S
C1771 C1772 1.403 . S
C1772 C1771 1.403 . S
C1772 C1773 1.404 . S
C1772 C1775 1.539 . S
C1773 C1769 1.408 . S
C1773 C1772 1.404 . S
C1773 H1785 0.930 . S
C1774 C1770 1.524 . S
C1774 H1786 0.956 1_556 S
C1774 H1787 0.961 . S
C1774 H1788 0.961 . S
C1775 C1772 1.539 . S
C1775 H1789 0.958 . S
C1775 H1790 0.957 1_554 S
C1775 H1791 0.960 1_554 S
H1776 C1760 0.931 . S
H1777 C1765 0.929 . S
H1778 C1766 0.960 . S
H1779 C1766 0.962 . S
H1780 C1766 0.960 . S
H1781 C1767 0.961 . S
H1782 C1767 0.961 . S
H1783 C1767 0.961 . S
H1784 C1768 0.931 . S
H1785 C1773 0.930 . S
H1786 C1774 0.956 1_554 S
H1787 C1774 0.961 . S
H1788 C1774 0.961 . S
H1789 C1775 0.958 . S
H1790 C1775 0.957 1_556 S
H1791 C1775 0.960 1_556 S
C1792 C1793 1.391 . S
C1792 C1794 1.394 . S
C1792 H1808 0.931 . S
C1793 C1792 1.391 . S
C1793 C1797 1.376 . S
C1794 C1792 1.394 . S
C1794 C1795 1.369 . S
C1794 C1798 1.531 . S
C1795 C1794 1.369 . S
C1795 C1796 1.410 . S
C1795 C1803 1.503 1_655 S
C1796 C1795 1.410 . S
C1796 C1797 1.392 . S
C1796 C1799 1.511 . S
C1797 C1793 1.376 . S
C1797 C1796 1.392 . S
C1797 H1809 0.929 . S
C1798 C1794 1.531 . S
C1798 H1810 0.960 1_655 S
C1798 H1811 0.962 . S
C1798 H1812 0.960 . S
C1799 C1796 1.511 . S
C1799 H1813 0.961 . S
C1799 H1814 0.961 1_655 S
C1799 H1815 0.961 . S
C1800 C1801 1.370 . S
C1800 C1802 1.363 . S
C1800 H1816 0.931 . S
C1801 C1800 1.370 . S
C1801 C1805 1.408 . S
C1802 C1800 1.363 . S
C1802 C1803 1.370 . S
C1802 C1806 1.524 . S
C1803 C1795 1.503 1_455 S
C1803 C1802 1.370 . S
C1803 C1804 1.403 . S
C1804 C1803 1.403 . S
C1804 C1805 1.404 . S
C1804 C1807 1.539 . S
C1805 C1801 1.408 . S
C1805 C1804 1.404 . S
C1805 H1817 0.930 . S
C1806 C1802 1.524 . S
C1806 H1818 0.956 . S
C1806 H1819 0.965 1_455 S
C1806 H1820 0.961 . S
C1807 C1804 1.539 . S
C1807 H1821 0.958 . S
C1807 H1822 0.961 . S
C1807 H1823 0.960 1_455 S
H1808 C1792 0.931 . S
H1809 C1797 0.929 . S
H1810 C1798 0.960 1_455 S
H1811 C1798 0.962 . S
H1812 C1798 0.960 . S
H1813 C1799 0.961 . S
H1814 C1799 0.961 1_455 S
H1815 C1799 0.961 . S
H1816 C1800 0.931 . S
H1817 C1805 0.930 . S
H1818 C1806 0.956 . S
H1819 C1806 0.965 1_655 S
H1820 C1806 0.961 . S
H1821 C1807 0.958 . S
H1822 C1807 0.961 . S
H1823 C1807 0.960 1_655 S
C1824 C1825 1.391 1_554 S
C1824 C1826 1.394 . S
C1824 H1840 0.931 . S
C1825 C1824 1.391 1_556 S
C1825 C1829 1.376 . S
C1826 C1824 1.394 . S
C1826 C1827 1.369 1_554 S
C1826 C1830 1.531 . S
C1827 C1826 1.369 1_556 S
C1827 C1828 1.409 . S
C1827 C1835 1.503 1_456 S
C1828 C1827 1.409 . S
C1828 C1829 1.392 . S
C1828 C1831 1.511 . S
C1829 C1825 1.376 . S
C1829 C1828 1.392 . S
C1829 H1841 0.929 . S
C1830 C1826 1.531 . S
C1830 H1842 0.954 . S
C1830 H1843 0.962 . S
C1830 H1844 0.960 . S
C1831 C1828 1.511 . S
C1831 H1845 0.961 . S
C1831 H1846 0.961 1_455 S
C1831 H1847 0.961 . S
C1832 C1833 1.370 . S
C1832 C1834 1.363 . S
C1832 H1848 0.931 . S
C1833 C1832 1.370 . S
C1833 C1837 1.408 . S
C1834 C1832 1.363 . S
C1834 C1835 1.370 . S
C1834 C1838 1.524 1_554 S
C1835 C1827 1.503 1_654 S
C1835 C1834 1.370 . S
C1835 C1836 1.403 . S
C1836 C1835 1.403 . S
C1836 C1837 1.404 . S
C1836 C1839 1.539 . S
C1837 C1833 1.408 . S
C1837 C1836 1.404 . S
C1837 H1849 0.930 . S
C1838 C1834 1.524 1_556 S
C1838 H1850 0.977 1_556 S
C1838 H1851 0.954 1_655 S
C1838 H1852 0.961 . S
C1839 C1836 1.539 . S
C1839 H1853 0.958 . S
C1839 H1854 0.961 1_554 S
C1839 H1855 0.963 1_554 S
H1840 C1824 0.931 . S
H1841 C1829 0.929 . S
H1842 C1830 0.954 . S
H1843 C1830 0.962 . S
H1844 C1830 0.960 . S
H1845 C1831 0.961 . S
H1846 C1831 0.961 1_655 S
H1847 C1831 0.961 . S
H1848 C1832 0.931 . S
H1849 C1837 0.930 . S
H1850 C1838 0.977 1_554 S
H1851 C1838 0.954 1_455 S
H1852 C1838 0.961 . S
H1853 C1839 0.958 . S
H1854 C1839 0.961 1_556 S
H1855 C1839 0.963 1_556 S
C1856 C1857 1.391 . S
C1856 C1858 1.394 . S
C1856 H1872 0.931 . S
C1857 C1856 1.391 . S
C1857 C1861 1.376 . S
C1858 C1856 1.394 . S
C1858 C1859 1.369 . S
C1858 C1862 1.531 . S
C1859 C1858 1.369 . S
C1859 C1860 1.410 . S
C1859 C1867 1.503 . S
C1860 C1859 1.410 . S
C1860 C1861 1.392 . S
C1860 C1863 1.511 . S
C1861 C1857 1.376 . S
C1861 C1860 1.392 . S
C1861 H1873 0.929 . S
C1862 C1858 1.531 . S
C1862 H1874 0.960 . S
C1862 H1875 0.962 . S
C1862 H1876 0.960 . S
C1863 C1860 1.511 . S
C1863 H1877 0.961 . S
C1863 H1878 0.961 . S
C1863 H1879 0.961 . S
C1864 C1865 1.370 . S
C1864 C1866 1.363 . S
C1864 H1880 0.931 . S
C1865 C1864 1.370 . S
C1865 C1869 1.408 . S
C1866 C1864 1.363 . S
C1866 C1867 1.370 . S
C1866 C1870 1.524 . S
C1867 C1859 1.503 . S
C1867 C1866 1.370 . S
C1867 C1868 1.403 . S
C1868 C1867 1.403 . S
C1868 C1869 1.404 . S
C1868 C1871 1.539 . S
C1869 C1865 1.408 . S
C1869 C1868 1.404 . S
C1869 H1881 0.930 . S
C1870 C1866 1.524 . S
C1870 H1882 0.956 . S
C1870 H1883 0.961 . S
C1870 H1884 0.961 . S
C1871 C1868 1.539 . S
C1871 H1885 0.958 . S
C1871 H1886 0.961 . S
C1871 H1887 0.960 . S
H1872 C1856 0.931 . S
H1873 C1861 0.929 . S
H1874 C1862 0.960 . S
H1875 C1862 0.962 . S
H1876 C1862 0.960 . S
H1877 C1863 0.961 . S
H1878 C1863 0.961 . S
H1879 C1863 0.961 . S
H1880 C1864 0.931 . S
H1881 C1869 0.930 . S
H1882 C1870 0.956 . S
H1883 C1870 0.961 . S
H1884 C1870 0.961 . S
H1885 C1871 0.958 . S
H1886 C1871 0.961 . S
H1887 C1871 0.960 . S
C353 C7 1.460 . S
C361 C73 1.427 . S
C385 C18 1.419 . S
C393 C84 1.454 . S
C417 C29 1.429 . S
C425 C51 1.451 . S
C449 C40 1.490 . S
C457 C62 1.430 . S
C481 C161 1.534 . S
C489 C95 1.527 . S
C513 C172 1.527 . S
C521 C106 1.536 . S
C545 C139 1.544 . S
C553 C117 1.535 . S
C577 C150 1.528 . S
C585 C128 1.524 . S
C609 C249 1.474 . S
C617 C183 1.424 . S
C641 C194 1.459 . S
C649 C260 1.439 . S
C673 C227 1.445 . S
C681 C205 1.433 . S
C705 C216 1.479 . S
C713 C238 1.426 . S
C737 C337 1.544 . S
C745 C271 1.534 . S
C769 C282 1.510 . S
C777 C348 1.527 . S
C801 C293 1.543 . S
C809 C315 1.533 . S
C833 C304 1.527 . S
C841 C326 1.536 . S
C865 C8 1.639 . S
C873 C85 1.649 . S
C897 C52 1.645 . S
C905 C19 1.632 . S
C929 C63 1.649 . S
C937 C30 1.633 . S
C961 C74 1.650 . S
C969 C41 1.634 . S
C993 C173 1.678 . S
C1001 C96 1.676 . S
C1025 C107 1.677 . S
C1033 C140 1.675 . S
C1057 C118 1.668 . S
C1065 C151 1.679 . S
C1089 C162 1.669 . S
C1097 C129 1.676 . S
C1121 C261 1.658 . S
C1129 C184 1.639 . S
C1153 C228 1.659 . S
C1161 C195 1.641 . S
C1185 C206 1.614 . S
C1193 C239 1.641 . S
C1217 C250 1.629 . S
C1225 C217 1.648 . S
C1249 C349 1.678 . S
C1257 C272 1.677 . S
C1281 C316 1.676 . S
C1289 C283 1.678 . S
C1313 C327 1.668 . S
C1321 C294 1.679 . S
C1345 C305 1.673 . S
C1353 C338 1.675 . S
C1377 C5 1.321 . S
C1385 C269 1.627 . S
C1409 C16 1.359 1_545 S
C1417 C104 1.622 . S
C1441 C291 1.606 . S
C1449 C27 1.303 . S
C1473 C38 1.334 1_566 S
C1481 C126 1.628 1_565 S
C1505 C313 1.625 . S
C1513 C49 1.355 . S
C1537 C60 1.287 . S
C1545 C148 1.622 . S
C1569 C335 1.599 . S
C1577 C71 1.301 . S
C1601 C82 1.324 1_554 S
C1609 C170 1.621 . S
C1633 C93 1.647 . S
C1641 C181 1.349 . S
C1665 C203 1.295 . S
C1673 C115 1.600 . S
C1697 C225 1.368 . S
C1705 C137 1.611 . S
C1729 C247 1.296 . S
C1737 C159 1.600 . S
C1761 C192 1.369 1_556 S
C1769 C280 1.631 . S
C1793 C214 1.259 . S
C1801 C302 1.609 . S
C1825 C324 1.648 . S
C1833 C236 1.347 1_554 S
C1857 C258 1.349 . S
C1865 C346 1.630 . S
