# Generated by pormake.
# Topology upa, (4)-cn, num edge types: 1
# Building blocks:
#     Node 0, Type 0, BuildingBlock: TATPOV_clean_sbu_0, # of connection points: 4
#     Node 1, Type 0, BuildingBlock: TATPOV_clean_sbu_0, # of connection points: 4
#     Node 2, Type 0, BuildingBlock: TATPOV_clean_sbu_0, # of connection points: 4
#     Node 3, Type 0, BuildingBlock: TATPOV_clean_sbu_0, # of connection points: 4
#     Node 4, Type 0, BuildingBlock: TATPOV_clean_sbu_0, # of connection points: 4
#     Node 5, Type 0, BuildingBlock: TATPOV_clean_sbu_0, # of connection points: 4
#     Node 6, Type 0, BuildingBlock: TATPOV_clean_sbu_0, # of connection points: 4
#     Node 7, Type 0, BuildingBlock: TATPOV_clean_sbu_0, # of connection points: 4
#     Edge 8, Type (0, 0), BuildingBlock: UVAHIK_clean_linker_0, # of connection points: 2
#     Edge 9, Type (0, 0), BuildingBlock: UVAHIK_clean_linker_0, # of connection points: 2
#     Edge 10, Type (0, 0), BuildingBlock: UVAHIK_clean_linker_0, # of connection points: 2
#     Edge 11, Type (0, 0), BuildingBlock: UVAHIK_clean_linker_0, # of connection points: 2
#     Edge 12, Type (0, 0), BuildingBlock: UVAHIK_clean_linker_0, # of connection points: 2
#     Edge 13, Type (0, 0), BuildingBlock: UVAHIK_clean_linker_0, # of connection points: 2
#     Edge 14, Type (0, 0), BuildingBlock: UVAHIK_clean_linker_0, # of connection points: 2
#     Edge 15, Type (0, 0), BuildingBlock: UVAHIK_clean_linker_0, # of connection points: 2
#     Edge 16, Type (0, 0), BuildingBlock: UVAHIK_clean_linker_0, # of connection points: 2
#     Edge 17, Type (0, 0), BuildingBlock: UVAHIK_clean_linker_0, # of connection points: 2
#     Edge 18, Type (0, 0), BuildingBlock: UVAHIK_clean_linker_0, # of connection points: 2
#     Edge 19, Type (0, 0), BuildingBlock: UVAHIK_clean_linker_0, # of connection points: 2
#     Edge 20, Type (0, 0), BuildingBlock: UVAHIK_clean_linker_0, # of connection points: 2
#     Edge 21, Type (0, 0), BuildingBlock: UVAHIK_clean_linker_0, # of connection points: 2
#     Edge 22, Type (0, 0), BuildingBlock: UVAHIK_clean_linker_0, # of connection points: 2
#     Edge 23, Type (0, 0), BuildingBlock: UVAHIK_clean_linker_0, # of connection points: 2
# Relax obj value: 0.177
# Max RMSD: 0.172
# Mean RMSD: 0.172
data_MOF--net-upa--node1-TATPOV_clean_sbu_0--edge1-UVAHIK_clean_linker_0
_symmetry_space_group_name_H-M    P1
_symmetry_Int_Tables_number       1
_symmetry_cell_setting            triclinic
loop_
_symmetry_equiv_pos_as_xyz
'x, y, z'
_cell_length_a     33.642448
_cell_length_b     33.57823
_cell_length_c     55.162633
_cell_angle_alpha  89.981749
_cell_angle_beta   90.055717
_cell_angle_gamma 89.974105
loop_
_atom_site_label
_atom_site_type_symbol
_atom_site_fract_x
_atom_site_fract_y
_atom_site_fract_z
_atom_type_partial_charge
Zn0 Zn 0.09974 0.27463 0.37768 0.0
Zn1 Zn 0.15503 0.2563 0.34634 0.0
O2 O 0.11236 0.28749 0.32608 0.0
O3 O 0.06885 0.3067 0.35348 0.0
O4 O 0.20413 0.24994 0.32495 0.0
O5 O 0.13471 0.29959 0.40267 0.0
O6 O 0.18124 0.27734 0.37833 0.0
C7 C 0.07984 0.30506 0.33157 0.0
C8 C 0.10578 0.18976 0.36621 0.0
O9 O 0.13281 0.20059 0.35147 0.0
O10 O 0.08868 0.21511 0.37968 0.0
C11 C 0.21152 0.22013 0.31143 0.0
O12 O 0.18483 0.19178 0.30936 0.0
C13 C 0.17107 0.29331 0.39842 0.0
Zn14 Zn 0.2207 0.58993 0.87116 0.0
Zn15 Zn 0.24448 0.64945 0.84576 0.0
O16 O 0.2141 0.6103 0.82235 0.0
O17 O 0.18307 0.56841 0.84641 0.0
O18 O 0.2534 0.70112 0.82693 0.0
O19 O 0.20248 0.62054 0.90001 0.0
O20 O 0.22129 0.67191 0.87828 0.0
C21 C 0.19092 0.58045 0.82523 0.0
C22 C 0.30603 0.59073 0.86096 0.0
O23 O 0.29922 0.62476 0.85158 0.0
O24 O 0.27772 0.57043 0.86976 0.0
C25 C 0.2843 0.71021 0.81481 0.0
O26 O 0.31296 0.68389 0.81257 0.0
C27 C 0.20713 0.65772 0.89795 0.0
Zn28 Zn 0.91061 0.73033 0.37419 0.0
Zn29 Zn 0.85333 0.74966 0.34519 0.0
O30 O 0.89469 0.71965 0.32322 0.0
O31 O 0.93983 0.69878 0.3492 0.0
O32 O 0.80271 0.75681 0.32522 0.0
O33 O 0.87859 0.70476 0.40006 0.0
O34 O 0.82943 0.72666 0.37754 0.0
C35 C 0.92741 0.70156 0.32762 0.0
C36 C 0.90391 0.8155 0.36474 0.0
O37 O 0.87559 0.80549 0.35067 0.0
O38 O 0.92229 0.7894 0.37702 0.0
C39 C 0.79512 0.7858 0.31106 0.0
O40 O 0.82251 0.81297 0.3073 0.0
C41 C 0.84178 0.71039 0.3971 0.0
Zn42 Zn 0.782 0.42035 0.86909 0.0
Zn43 Zn 0.75965 0.35972 0.84398 0.0
O44 O 0.78953 0.39897 0.82041 0.0
O45 O 0.81885 0.44252 0.84419 0.0
O46 O 0.75095 0.30802 0.82508 0.0
O47 O 0.80108 0.39009 0.89791 0.0
O48 O 0.78346 0.33787 0.87654 0.0
C49 C 0.81171 0.42963 0.82309 0.0
C50 C 0.69686 0.41756 0.85908 0.0
O51 O 0.70453 0.38363 0.84986 0.0
O52 O 0.72465 0.4387 0.86777 0.0
C53 C 0.71969 0.29946 0.81313 0.0
O54 O 0.69116 0.32604 0.81145 0.0
C55 C 0.79734 0.35277 0.8961 0.0
Zn56 Zn 0.59695 0.23728 0.13758 0.0
Zn57 Zn 0.65484 0.25289 0.16718 0.0
O58 O 0.61272 0.22233 0.18833 0.0
O59 O 0.56701 0.20485 0.1618 0.0
O60 O 0.70497 0.25856 0.18783 0.0
O61 O 0.62894 0.21246 0.11148 0.0
O62 O 0.67882 0.2307 0.13461 0.0
C63 C 0.57956 0.20548 0.18341 0.0
C64 C 0.60579 0.32134 0.14885 0.0
O65 O 0.63378 0.3095 0.16263 0.0
O66 O 0.5866 0.29669 0.13598 0.0
C67 C 0.71111 0.28649 0.20299 0.0
O68 O 0.68279 0.31261 0.20702 0.0
C69 C 0.66594 0.21618 0.11467 0.0
Zn70 Zn 0.2881 0.09335 0.64403 0.0
Zn71 Zn 0.2603 0.15101 0.67061 0.0
O72 O 0.29004 0.11134 0.69394 0.0
O73 O 0.3217 0.06947 0.67016 0.0
O74 O 0.24933 0.20156 0.69015 0.0
O75 O 0.31069 0.12717 0.61749 0.0
O76 O 0.28384 0.17526 0.63887 0.0
C77 C 0.3128 0.0811 0.69128 0.0
C78 C 0.20133 0.09299 0.65157 0.0
O79 O 0.20695 0.12543 0.66305 0.0
O80 O 0.2305 0.07457 0.64224 0.0
C81 C 0.2165 0.21062 0.70022 0.0
O82 O 0.18704 0.18498 0.69962 0.0
C83 C 0.30212 0.16361 0.61988 0.0
Zn84 Zn 0.41096 0.78081 0.13801 0.0
Zn85 Zn 0.35341 0.76149 0.16691 0.0
O86 O 0.39433 0.79214 0.18881 0.0
O87 O 0.43991 0.8126 0.16307 0.0
O88 O 0.30304 0.75392 0.18707 0.0
O89 O 0.37853 0.80582 0.11203 0.0
O90 O 0.32931 0.78407 0.13451 0.0
C91 C 0.42717 0.81008 0.18458 0.0
C92 C 0.40511 0.69585 0.14786 0.0
O93 O 0.37652 0.70587 0.1617 0.0
O94 O 0.42331 0.72187 0.13547 0.0
C95 C 0.29579 0.7239 0.20048 0.0
O96 O 0.32314 0.69628 0.20303 0.0
C97 C 0.34172 0.80015 0.11491 0.0
Zn98 Zn 0.72734 0.91989 0.64141 0.0
Zn99 Zn 0.7491 0.85959 0.66676 0.0
O100 O 0.71958 0.89942 0.6902 0.0
O101 O 0.69 0.94219 0.66598 0.0
O102 O 0.75698 0.80771 0.68553 0.0
O103 O 0.70858 0.8899 0.61245 0.0
O104 O 0.72521 0.83779 0.63422 0.0
C105 C 0.69718 0.92986 0.6872 0.0
C106 C 0.81244 0.91648 0.65175 0.0
O107 O 0.80456 0.88256 0.66093 0.0
O108 O 0.78479 0.93787 0.64309 0.0
C109 C 0.7873 0.79863 0.69823 0.0
O110 O 0.81571 0.82505 0.70109 0.0
C111 C 0.71179 0.85257 0.6145 0.0
C112 C 0.09073 0.1261 0.34474 0.0
C113 C 0.09139 0.14838 0.36629 0.0
C114 C 0.07147 0.08924 0.34402 0.0
C115 C 0.04072 1.00462 0.37919 0.0
H116 H 0.94737 0.99844 0.33801 0.0
C117 C 0.93526 0.87182 0.38679 0.0
C118 C 0.91834 0.85681 0.36543 0.0
C119 C 0.95468 0.90848 0.38673 0.0
C120 C 0.97368 0.99928 0.34931 0.0
H121 H 0.07451 0.14899 0.40421 0.0
H122 H 0.04232 0.08367 0.40314 0.0
H123 H 0.98881 0.05812 0.33728 0.0
H124 H 0.90724 0.8685 0.32743 0.0
H125 H 0.94273 0.9318 0.32693 0.0
H126 H 0.02699 0.94563 0.39072 0.0
C127 C 0.05603 0.09512 0.38679 0.0
C128 C 0.99728 0.03351 0.3489 0.0
C129 C 0.07437 0.13235 0.38738 0.0
C130 C 0.91976 0.87972 0.34419 0.0
C131 C 0.9401 0.91604 0.34396 0.0
C132 C 0.0177 0.97008 0.37924 0.0
C133 C 0.05362 0.0738 0.36499 0.0
C134 C 0.03065 0.03652 0.36403 0.0
C135 C 0.95865 0.93044 0.36513 0.0
C136 C 0.98349 0.96713 0.36458 0.0
H137 H 0.10336 0.13801 0.3282 0.0
H138 H 0.06995 0.07307 0.32706 0.0
H139 H 0.06652 0.00639 0.39091 0.0
H140 H 0.9342 0.85477 0.40346 0.0
H141 H 0.96729 0.91913 0.40359 0.0
C142 C 0.38007 0.59706 0.85657 0.0
C143 C 0.34637 0.57337 0.86063 0.0
C144 C 0.41794 0.57981 0.85605 0.0
C145 C 0.47186 0.48714 0.87369 0.0
H146 H 0.55209 0.52786 0.8298 0.0
C147 C 0.62293 0.40889 0.85547 0.0
C148 C 0.65607 0.43377 0.85873 0.0
C149 C 0.58457 0.42503 0.8551 0.0
C150 C 0.52987 0.51626 0.84214 0.0
H151 H 0.32576 0.51293 0.86672 0.0
H152 H 0.39112 0.48287 0.86492 0.0
H153 H 0.48622 0.55831 0.83037 0.0
H154 H 0.67512 0.49504 0.86368 0.0
H155 H 0.60838 0.52302 0.86256 0.0
H156 H 0.51557 0.4445 0.88497 0.0
C157 C 0.38881 0.51488 0.863 0.0
C158 C 0.49227 0.53387 0.84263 0.0
C159 C 0.3512 0.53214 0.8639 0.0
C160 C 0.65018 0.47502 0.8613 0.0
C161 C 0.61204 0.49114 0.86049 0.0
C162 C 0.50926 0.46917 0.87289 0.0
C163 C 0.42275 0.53844 0.85921 0.0
C164 C 0.46282 0.5197 0.85854 0.0
C165 C 0.57892 0.46632 0.85747 0.0
C166 C 0.53863 0.48378 0.85725 0.0
H167 H 0.37723 0.62893 0.85403 0.0
H168 H 0.44343 0.59901 0.85344 0.0
H169 H 0.45029 0.47587 0.88653 0.0
H170 H 0.62662 0.37702 0.85341 0.0
H171 H 0.55935 0.40537 0.85269 0.0
C172 C 0.5765 0.38011 0.12803 0.0
C173 C 0.59295 0.3632 0.14905 0.0
C174 C 0.55917 0.4178 0.12882 0.0
C175 C 0.50084 0.47929 0.1666 0.0
H176 H 0.53166 0.56724 0.12519 0.0
C177 C 0.4212 0.63234 0.16921 0.0
C178 C 0.42024 0.65475 0.14775 0.0
C179 C 0.44221 0.59642 0.17011 0.0
C180 C 0.52211 0.54279 0.13657 0.0
H181 H 0.60502 0.37243 0.18724 0.0
H182 H 0.57324 0.43829 0.18877 0.0
H183 H 0.57141 0.50657 0.12556 0.0
H184 H 0.4377 0.65619 0.11 0.0
H185 H 0.47203 0.59248 0.11101 0.0
H186 H 0.45038 0.51419 0.17672 0.0
C187 C 0.57452 0.42244 0.17168 0.0
C188 C 0.54526 0.50832 0.13697 0.0
C189 C 0.59284 0.38507 0.17075 0.0
C190 C 0.43836 0.63955 0.12683 0.0
C191 C 0.45849 0.60329 0.12754 0.0
C192 C 0.47713 0.51346 0.16584 0.0
C193 C 0.55715 0.43874 0.15077 0.0
C194 C 0.53469 0.47633 0.1519 0.0
C195 C 0.46194 0.5819 0.14939 0.0
C196 C 0.48728 0.54557 0.15065 0.0
H197 H 0.57623 0.36375 0.1111 0.0
H198 H 0.54579 0.42989 0.11252 0.0
H199 H 0.49197 0.4546 0.17803 0.0
H200 H 0.40777 0.64371 0.18566 0.0
H201 H 0.44438 0.58106 0.18731 0.0
C202 C 0.12727 0.09736 0.65589 0.0
C203 C 0.16135 0.07496 0.65046 0.0
C204 C 0.08981 0.07934 0.65595 0.0
C205 C 0.03662 0.98767 0.6357 0.0
H206 H 0.9586 0.02258 0.68284 0.0
C207 C 0.88641 0.90715 0.65442 0.0
C208 C 0.8533 0.9324 0.6521 0.0
C209 C 0.92487 0.92307 0.65466 0.0
C210 C 0.98022 0.01257 0.66962 0.0
H211 H 0.18299 0.01608 0.64101 0.0
H212 H 0.11824 0.98448 0.64199 0.0
H213 H 0.02404 0.05373 0.68212 0.0
H214 H 0.83437 0.994 0.64875 0.0
H215 H 0.90127 0.02157 0.64974 0.0
H216 H 0.99266 0.9458 0.62373 0.0
C217 C 0.11997 0.01617 0.64545 0.0
C218 C 0.01756 0.03063 0.66901 0.0
C219 C 0.15723 0.0343 0.645 0.0
C220 C 0.85929 0.97374 0.65038 0.0
C221 C 0.89751 0.9896 0.65111 0.0
C222 C 0.99947 0.96917 0.63662 0.0
C223 C 0.08574 0.03838 0.65099 0.0
C224 C 0.04613 0.01872 0.65187 0.0
C225 C 0.93059 0.96445 0.65316 0.0
C226 C 0.97088 0.98179 0.6534 0.0
H227 H 0.12952 0.12879 0.66008 0.0
H228 H 0.06406 0.0976 0.65982 0.0
H229 H 0.05753 0.9781 0.62198 0.0
H230 H 0.88261 0.8752 0.65579 0.0
H231 H 0.95009 0.90318 0.65631 0.0
C232 C 0.18853 0.31483 0.44059 0.0
C233 C 0.20024 0.29754 0.41848 0.0
C234 C 0.21183 0.31029 0.46142 0.0
C235 C 0.27932 0.23624 0.48676 0.0
H236 H 0.28516 0.30947 0.54097 0.0
C237 C 0.33118 0.17948 0.5792 0.0
C238 C 0.3071 0.19073 0.59885 0.0
C239 C 0.32909 0.20001 0.55717 0.0
C240 C 0.28373 0.28861 0.52603 0.0
H241 H 0.24755 0.26513 0.4005 0.0
H242 H 0.28834 0.25748 0.43683 0.0
H243 H 0.26177 0.33317 0.50154 0.0
H244 H 0.26411 0.23426 0.6113 0.0
H245 H 0.25962 0.26936 0.57282 0.0
H246 H 0.29908 0.1912 0.51121 0.0
C247 C 0.26074 0.27397 0.43811 0.0
C248 C 0.27044 0.30225 0.50341 0.0
C249 C 0.23749 0.27865 0.41723 0.0
C250 C 0.28315 0.22484 0.59655 0.0
C251 C 0.28066 0.24509 0.5744 0.0
C252 C 0.29234 0.22258 0.50932 0.0
C253 C 0.24736 0.28828 0.46066 0.0
C254 C 0.26725 0.27599 0.48363 0.0
C255 C 0.30242 0.23195 0.55412 0.0
C256 C 0.29391 0.2483 0.52945 0.0
H257 H 0.16012 0.32979 0.4422 0.0
H258 H 0.20049 0.32161 0.47844 0.0
H259 H 0.27658 0.21496 0.4721 0.0
H260 H 0.3503 0.15359 0.58046 0.0
H261 H 0.34717 0.1897 0.54221 0.0
C262 C 0.1985 0.66569 0.94263 0.0
C263 C 0.20197 0.68339 0.91964 0.0
C264 C 0.20108 0.68858 0.96367 0.0
C265 C 0.24157 0.78593 0.98454 0.0
H266 H 0.20724 0.74308 0.04625 0.0
C267 C 0.2738 0.79752 0.09554 0.0
C268 C 0.31473 0.8054 0.09381 0.0
C269 C 0.25038 0.79439 0.07456 0.0
C270 C 0.21651 0.75641 0.02932 0.0
H271 H 0.20756 0.73968 0.90076 0.0
H272 H 0.20982 0.78015 0.93749 0.0
H273 H 0.17991 0.71643 0.00919 0.0
H274 H 0.3624 0.819 0.06865 0.0
H275 H 0.32287 0.81164 0.03262 0.0
H276 H 0.27656 0.82733 1.00468 0.0
C277 C 0.20688 0.74821 0.93935 0.0
C278 C 0.20134 0.74034 0.00782 0.0
C279 C 0.20514 0.72506 0.9182 0.0
C280 C 0.331 0.8128 0.07078 0.0
C281 C 0.30794 0.80886 0.0499 0.0
C282 C 0.25579 0.80283 1.00605 0.0
C283 C 0.20634 0.73015 0.96246 0.0
C284 C 0.21531 0.7533 0.98508 0.0
C285 C 0.26751 0.79826 0.05133 0.0
C286 C 0.24525 0.78688 0.02879 0.0
H287 H 0.19618 0.63366 0.94452 0.0
H288 H 0.20124 0.673 0.98083 0.0
H289 H 0.25317 0.79719 0.96759 0.0
H290 H 0.2602 0.79204 0.11302 0.0
H291 H 0.21916 0.78745 0.07662 0.0
C292 C 0.70792 0.78543 0.59408 0.0
C293 C 0.70582 0.82718 0.59275 0.0
C294 C 0.70892 0.76239 0.57286 0.0
C295 C 0.70301 0.77091 0.50443 0.0
H296 H 0.77641 0.68226 0.50715 0.0
C297 C 0.83095 0.69682 0.44111 0.0
C298 C 0.81474 0.70496 0.41813 0.0
C299 C 0.808 0.70075 0.46201 0.0
C300 C 0.75614 0.70721 0.50591 0.0
H301 H 0.7011 0.87722 0.568 0.0
H302 H 0.70487 0.83802 0.53159 0.0
H303 H 0.7539 0.71254 0.54439 0.0
H304 H 0.76037 0.71953 0.399 0.0
H305 H 0.7195 0.72414 0.43542 0.0
H306 H 0.70859 0.76842 0.466 0.0
C307 C 0.70445 0.82233 0.54871 0.0
C308 C 0.74242 0.72421 0.52749 0.0
C309 C 0.70262 0.84513 0.56981 0.0
C310 C 0.77393 0.71348 0.41644 0.0
C311 C 0.75061 0.71662 0.43744 0.0
C312 C 0.71769 0.75471 0.48286 0.0
C313 C 0.70866 0.78063 0.5498 0.0
C314 C 0.71688 0.75744 0.52711 0.0
C315 C 0.76775 0.71209 0.46064 0.0
C316 C 0.74579 0.72363 0.48324 0.0
H317 H 0.71011 0.77061 0.61147 0.0
H318 H 0.71108 0.73037 0.57462 0.0
H319 H 0.6821 0.79532 0.50319 0.0
H320 H 0.86226 0.69008 0.44321 0.0
H321 H 0.82292 0.69742 0.47927 0.0
C322 C 0.80689 0.34597 0.9408 0.0
C323 C 0.80317 0.32767 0.91801 0.0
C324 C 0.80484 0.32361 0.96208 0.0
C325 C 0.76526 0.22659 0.98408 0.0
H326 H 0.79995 0.27136 0.04523 0.0
C327 C 0.73382 0.21811 0.09524 0.0
C328 C 0.69286 0.2103 0.09361 0.0
C329 C 0.75714 0.22067 0.0742 0.0
C330 C 0.79059 0.25751 0.02847 0.0
H331 H 0.79775 0.27085 0.89971 0.0
H332 H 0.7964 0.23131 0.93686 0.0
H333 H 0.82678 0.2971 0.00781 0.0
H334 H 0.64505 0.19607 0.06862 0.0
H335 H 0.6844 0.20238 0.03251 0.0
H336 H 0.73065 0.18562 1.00476 0.0
C337 C 0.79913 0.26332 0.93838 0.0
C338 C 0.80547 0.27303 0.00676 0.0
C339 C 0.80035 0.28594 0.91699 0.0
C340 C 0.67646 0.20231 0.07067 0.0
C341 C 0.69942 0.20561 0.04974 0.0
C342 C 0.75132 0.21024 1.0058 0.0
C343 C 0.79987 0.28198 0.96131 0.0
C344 C 0.79134 0.25938 0.98419 0.0
C345 C 0.73987 0.21618 0.05102 0.0
C346 C 0.76198 0.22691 0.02833 0.0
H347 H 0.80898 0.37806 0.94238 0.0
H348 H 0.80482 0.33963 0.97908 0.0
H349 H 0.75355 0.21479 0.96729 0.0
H350 H 0.74753 0.22405 0.11264 0.0
H351 H 0.78837 0.22765 0.07615 0.0
C352 C 0.52157 0.16581 0.19785 0.0
C353 C 0.5512 0.19416 0.20277 0.0
C354 C 0.48765 0.16322 0.21239 0.0
C355 C 0.43943 0.20091 0.26925 0.0
H356 H 0.34359 0.18893 0.2308 0.0
C357 C 0.28216 0.24248 0.30489 0.0
C358 C 0.25095 0.21603 0.29947 0.0
C359 C 0.31979 0.23745 0.29443 0.0
C360 C 0.37001 0.19188 0.2419 0.0
H361 H 0.56973 0.24018 0.22783 0.0
H362 H 0.51027 0.23627 0.25302 0.0
H363 H 0.40812 0.18202 0.21158 0.0
H364 H 0.23497 0.16366 0.27863 0.0
H365 H 0.30036 0.15515 0.26028 0.0
H366 H 0.40077 0.21195 0.29945 0.0
C367 C 0.51335 0.21551 0.23813 0.0
C368 C 0.4072 0.18769 0.23089 0.0
C369 C 0.54767 0.21767 0.22374 0.0
C370 C 0.25823 0.18467 0.28317 0.0
C371 C 0.29573 0.17985 0.27258 0.0
C372 C 0.40209 0.20539 0.28025 0.0
C373 C 0.48207 0.18946 0.232 0.0
C374 C 0.44254 0.1921 0.24437 0.0
C375 C 0.32706 0.20606 0.27814 0.0
C376 C 0.36691 0.20096 0.26668 0.0
H377 H 0.52352 0.14718 0.18185 0.0
H378 H 0.46493 0.14183 0.20753 0.0
H379 H 0.46584 0.20418 0.28031 0.0
H380 H 0.27769 0.2669 0.31741 0.0
H381 H 0.3431 0.25846 0.29889 0.0
C382 C 0.26156 0.78126 0.81017 0.0
C383 C 0.28895 0.75097 0.80456 0.0
C384 C 0.26679 0.82 0.80128 0.0
C385 C 0.343 0.88741 0.77392 0.0
H386 H 0.25072 0.9478 0.75338 0.0
C387 C 0.34906 0.02293 0.70912 0.0
C388 C 0.32078 0.05351 0.7118 0.0
C389 C 0.34886 0.98984 0.72456 0.0
C390 C 0.27681 0.9317 0.75944 0.0
H391 H 0.34315 0.7378 0.7849 0.0
H392 H 0.35171 0.80488 0.76889 0.0
H393 H 0.24194 0.8819 0.77089 0.0
H394 H 0.27222 0.07471 0.73416 0.0
H395 H 0.2721 0.01708 0.76124 0.0
H396 H 0.37787 0.93694 0.76163 0.0
C397 C 0.32663 0.79905 0.78065 0.0
C398 C 0.27178 0.89374 0.76948 0.0
C399 C 0.32152 0.76037 0.78967 0.0
C400 C 0.29454 0.05183 0.73161 0.0
C401 C 0.2941 0.0185 0.74694 0.0
C402 C 0.34804 0.92532 0.76371 0.0
C403 C 0.29943 0.82952 0.7864 0.0
C404 C 0.30481 0.87081 0.77665 0.0
C405 C 0.3202 0.98636 0.74298 0.0
C406 C 0.31502 0.94781 0.75612 0.0
H407 H 0.23627 0.77522 0.82174 0.0
H408 H 0.24548 0.84264 0.80643 0.0
H409 H 0.36915 0.87112 0.77965 0.0
H410 H 0.36967 0.02323 0.69405 0.0
H411 H 0.36937 0.96571 0.72092 0.0
C412 C 0.72336 0.76543 0.30751 0.0
C413 C 0.75481 0.79031 0.30025 0.0
C414 C 0.685 0.77082 0.29814 0.0
C415 C 0.62144 0.84497 0.2656 0.0
H416 H 0.55673 0.75247 0.2512 0.0
C417 C 0.48728 0.84581 0.19996 0.0
C418 C 0.45514 0.82009 0.20451 0.0
C419 C 0.52015 0.84669 0.21551 0.0
C420 C 0.57406 0.7787 0.25552 0.0
H421 H 0.77049 0.84009 0.27712 0.0
H422 H 0.70406 0.84878 0.26031 0.0
H423 H 0.62201 0.74364 0.26945 0.0
H424 H 0.4311 0.77733 0.23001 0.0
H425 H 0.48849 0.77902 0.25727 0.0
H426 H 0.57379 0.87986 0.25081 0.0
C427 C 0.70869 0.82567 0.2737 0.0
C428 C 0.61167 0.77364 0.26599 0.0
C429 C 0.74699 0.82045 0.2832 0.0
C430 C 0.4552 0.79769 0.22605 0.0
C431 C 0.48836 0.79823 0.2415 0.0
C432 C 0.58392 0.85 0.25497 0.0
C433 C 0.67705 0.80107 0.28113 0.0
C434 C 0.63614 0.80666 0.27094 0.0
C435 C 0.52187 0.8216 0.23589 0.0
C436 C 0.5599 0.8169 0.24956 0.0
H437 H 0.72818 0.74209 0.32075 0.0
H438 H 0.66145 0.75159 0.30459 0.0
H439 H 0.63894 0.87122 0.2696 0.0
H440 H 0.48821 0.86339 0.1835 0.0
H441 H 0.54539 0.86498 0.21057 0.0
C442 C 0.6809 0.25054 0.78803 0.0
C443 C 0.71459 0.25926 0.80218 0.0
C444 C 0.67548 0.21254 0.77813 0.0
C445 C 0.7065 0.10692 0.78431 0.0
H446 H 0.67006 0.09924 0.71784 0.0
C447 C 0.71511 0.9619 0.72672 0.0
C448 C 0.68783 0.95708 0.70761 0.0
C449 C 0.71386 0.99601 0.74141 0.0
C450 C 0.67945 0.10059 0.7366 0.0
H451 H 0.76896 0.23448 0.81705 0.0
H452 H 0.75956 0.16823 0.79965 0.0
H453 H 0.67792 0.16429 0.7364 0.0
H454 H 0.63534 0.982 0.69065 0.0
H455 H 0.63191 0.04021 0.71689 0.0
H456 H 0.70825 0.04305 0.7844 0.0
C457 C 0.73715 0.19077 0.7964 0.0
C458 C 0.68415 0.1381 0.74722 0.0
C459 C 0.7427 0.2289 0.80621 0.0
C460 C 0.65692 0.98495 0.70513 0.0
C461 C 0.65535 0.01868 0.71997 0.0
C462 C 0.7016 0.06925 0.7737 0.0
C463 C 0.70349 0.18211 0.78218 0.0
C464 C 0.6979 0.14184 0.77118 0.0
C465 C 0.68503 0.02579 0.73746 0.0
C466 C 0.68809 0.06554 0.74963 0.0
H467 H 0.65854 0.27307 0.78461 0.0
H468 H 0.64899 0.20686 0.7675 0.0
H469 H 0.7167 0.10868 0.80291 0.0
H470 H 0.73958 0.94124 0.72895 0.0
H471 H 0.73725 1.00028 0.75464 0.0
C472 C 0.01958 0.34273 0.31828 0.0
C473 C 0.05032 0.31594 0.31267 0.0
C474 C 0.9854 0.3448 0.30389 0.0
C475 C 0.93854 0.30971 0.24602 0.0
H476 H 0.84237 0.31466 0.28462 0.0
C477 C 0.7828 0.26651 0.20838 0.0
C478 C 0.75055 0.29093 0.21495 0.0
C479 C 0.82027 0.2718 0.21906 0.0
C480 C 0.86885 0.3137 0.27349 0.0
H481 H 0.07042 0.27229 0.28649 0.0
H482 H 0.0106 0.2754 0.26151 0.0
H483 H 0.90662 0.32234 0.30416 0.0
H484 H 0.73261 0.34003 0.23803 0.0
H485 H 0.79771 0.34908 0.25666 0.0
H486 H 0.90031 0.30005 0.2154 0.0
C487 C 0.01297 0.29525 0.2769 0.0
C488 C 0.90587 0.31831 0.28469 0.0
C489 C 0.04748 0.29357 0.29119 0.0
C490 C 0.75667 0.32056 0.23257 0.0
C491 C 0.79403 0.32568 0.24334 0.0
C492 C 0.90139 0.30487 0.23481 0.0
C493 C 0.98074 0.31967 0.28366 0.0
C494 C 0.94133 0.31644 0.27116 0.0
C495 C 0.82637 0.30145 0.2367 0.0
C496 C 0.86606 0.3068 0.24842 0.0
H497 H 0.02094 0.36054 0.33464 0.0
H498 H 0.96185 0.36492 0.30926 0.0
H499 H 0.96505 0.30841 0.23494 0.0
H500 H 0.77923 0.24343 0.19484 0.0
H501 H 0.84437 0.25229 0.21372 0.0
C502 C 0.23955 0.28068 0.7085 0.0
C503 C 0.21075 0.25063 0.71128 0.0
C504 C 0.23338 0.31879 0.71816 0.0
C505 C 0.17681 0.37201 0.76534 0.0
H506 H 0.20413 0.46662 0.72863 0.0
C507 C 0.15037 0.52576 0.80703 0.0
C508 C 0.18165 0.55323 0.8048 0.0
C509 C 0.14876 0.49196 0.79223 0.0
C510 C 0.19657 0.44056 0.73922 0.0
H511 H 0.15289 0.23729 0.72657 0.0
H512 H 0.14235 0.30352 0.74357 0.0
H513 H 0.2132 0.40085 0.71048 0.0
H514 H 0.23408 0.56829 0.78395 0.0
H515 H 0.23177 0.50917 0.75842 0.0
H516 H 0.1614 0.41112 0.79434 0.0
C517 C 0.16976 0.29759 0.73395 0.0
C518 C 0.20181 0.40281 0.7288 0.0
C519 C 0.17578 0.25961 0.72412 0.0
C520 C 0.20931 0.54795 0.78598 0.0
C521 C 0.20805 0.51378 0.77137 0.0
C522 C 0.17187 0.40962 0.77581 0.0
C523 C 0.19841 0.32773 0.73103 0.0
C524 C 0.19212 0.36805 0.74177 0.0
C525 C 0.17879 0.48438 0.77507 0.0
C526 C 0.18175 0.44453 0.76297 0.0
H527 H 0.2668 0.2749 0.69867 0.0
H528 H 0.25627 0.34113 0.71583 0.0
H529 H 0.16962 0.34591 0.776 0.0
H530 H 0.12849 0.52906 0.82129 0.0
H531 H 0.12496 0.47078 0.7951 0.0
C532 C 0.22472 0.74534 0.20671 0.0
C533 C 0.25609 0.71895 0.21198 0.0
C534 C 0.18699 0.7397 0.21692 0.0
C535 C 0.13672 0.69164 0.26873 0.0
H536 H 0.04091 0.70596 0.23055 0.0
C537 C 0.98522 0.66264 0.3121 0.0
C538 C 0.95565 0.69142 0.30794 0.0
C539 C 0.01909 0.66095 0.29747 0.0
C540 C 0.06732 0.70209 0.24153 0.0
H541 H 0.27215 0.66593 0.23222 0.0
H542 H 0.20661 0.65629 0.25008 0.0
H543 H 0.106 0.71476 0.21158 0.0
H544 H 0.93715 0.73914 0.28403 0.0
H545 H 0.99651 0.73671 0.25868 0.0
H546 H 0.09858 0.68004 0.2988 0.0
C547 C 0.21119 0.68147 0.23813 0.0
C548 C 0.10467 0.70718 0.23064 0.0
C549 C 0.24881 0.68695 0.22781 0.0
C550 C 0.95916 0.7163 0.28755 0.0
C551 C 0.99343 0.71499 0.27306 0.0
C552 C 0.09952 0.68679 0.27962 0.0
C553 C 0.17975 0.70771 0.2328 0.0
C554 C 0.13985 0.70204 0.24413 0.0
C555 C 0.02468 0.68847 0.27852 0.0
C556 C 0.0642 0.69189 0.26622 0.0
H557 H 0.2292 0.77026 0.19455 0.0
H558 H 0.16361 0.76075 0.21264 0.0
H559 H 0.1631 0.68814 0.27979 0.0
H560 H 0.98329 0.64295 0.32762 0.0
H561 H 0.04181 0.63921 0.30178 0.0
C562 C 0.79527 0.45751 0.78211 0.0
C563 C 0.82073 0.45635 0.80234 0.0
C564 C 0.79541 0.49045 0.76647 0.0
C565 C 0.84972 0.58348 0.74991 0.0
H566 H 0.74378 0.62671 0.7412 0.0
C567 C 0.82367 0.7484 0.72382 0.0
C568 C 0.79166 0.75782 0.70844 0.0
C569 C 0.82855 0.70968 0.73282 0.0
C570 C 0.77359 0.61492 0.74304 0.0
H571 H 0.86898 0.48698 0.82052 0.0
H572 H 0.86973 0.5438 0.79312 0.0
H573 H 0.75213 0.56091 0.75896 0.0
H574 H 0.73975 0.73357 0.69038 0.0
H575 H 0.74857 0.66607 0.70568 0.0
H576 H 0.87124 0.63766 0.73419 0.0
C577 C 0.84936 0.5196 0.78938 0.0
C578 C 0.77837 0.57701 0.75321 0.0
C579 C 0.84897 0.48691 0.80512 0.0
C580 C 0.7646 0.72751 0.70232 0.0
C581 C 0.76961 0.68873 0.7112 0.0
C582 C 0.84494 0.62133 0.73958 0.0
C583 C 0.82134 0.52267 0.77054 0.0
C584 C 0.81651 0.56099 0.7571 0.0
C585 C 0.80169 0.67919 0.72657 0.0
C586 C 0.80681 0.63788 0.73633 0.0
H587 H 0.77299 0.43463 0.77948 0.0
H588 H 0.77391 0.49156 0.75186 0.0
H589 H 0.8795 0.57193 0.75243 0.0
H590 H 0.84503 0.77098 0.72899 0.0
H591 H 0.85318 0.70382 0.74495 0.0
loop_
_geom_bond_atom_site_label_1
_geom_bond_atom_site_label_2
_geom_bond_distance
_geom_bond_site_symmetry_2
_ccdc_geom_bond_type
Zn0 O3 2.031 . S
Zn0 O5 2.049 . S
Zn0 O10 2.067 . S
Zn1 O2 1.962 . S
Zn1 O4 1.986 . S
Zn1 O6 1.996 . S
Zn1 O9 1.943 . S
O2 Zn1 1.962 . S
O2 C7 1.254 . S
O3 Zn0 2.031 . S
O3 C7 1.269 . S
O4 Zn1 1.986 . S
O4 C11 1.262 . S
O5 Zn0 2.049 . S
O5 C13 1.260 . S
O6 Zn1 1.996 . S
O6 C13 1.257 . S
C7 O2 1.254 . S
C7 O3 1.269 . S
C8 O9 1.249 . S
C8 O10 1.270 . S
O9 Zn1 1.943 . S
O9 C8 1.249 . S
O10 Zn0 2.067 . S
O10 C8 1.270 . S
C11 O4 1.262 . S
C11 O12 1.232 . S
O12 C11 1.232 . S
C13 O5 1.260 . S
C13 O6 1.257 . S
Zn14 O17 2.031 . S
Zn14 O19 2.049 . S
Zn14 O24 2.067 . S
Zn15 O16 1.962 . S
Zn15 O18 1.986 . S
Zn15 O20 1.996 . S
Zn15 O23 1.943 . S
O16 Zn15 1.962 . S
O16 C21 1.254 . S
O17 Zn14 2.031 . S
O17 C21 1.269 . S
O18 Zn15 1.986 . S
O18 C25 1.262 . S
O19 Zn14 2.049 . S
O19 C27 1.260 . S
O20 Zn15 1.996 . S
O20 C27 1.257 . S
C21 O16 1.254 . S
C21 O17 1.269 . S
C22 O23 1.249 . S
C22 O24 1.270 . S
O23 Zn15 1.943 . S
O23 C22 1.249 . S
O24 Zn14 2.067 . S
O24 C22 1.270 . S
C25 O18 1.262 . S
C25 O26 1.232 . S
O26 C25 1.232 . S
C27 O19 1.260 . S
C27 O20 1.257 . S
Zn28 O31 2.031 . S
Zn28 O33 2.049 . S
Zn28 O38 2.067 . S
Zn29 O30 1.962 . S
Zn29 O32 1.986 . S
Zn29 O34 1.996 . S
Zn29 O37 1.943 . S
O30 Zn29 1.962 . S
O30 C35 1.254 . S
O31 Zn28 2.031 . S
O31 C35 1.269 . S
O32 Zn29 1.986 . S
O32 C39 1.262 . S
O33 Zn28 2.049 . S
O33 C41 1.260 . S
O34 Zn29 1.996 . S
O34 C41 1.257 . S
C35 O30 1.254 . S
C35 O31 1.269 . S
C36 O37 1.249 . S
C36 O38 1.270 . S
O37 Zn29 1.943 . S
O37 C36 1.249 . S
O38 Zn28 2.067 . S
O38 C36 1.270 . S
C39 O32 1.262 . S
C39 O40 1.232 . S
O40 C39 1.232 . S
C41 O33 1.260 . S
C41 O34 1.257 . S
Zn42 O45 2.031 . S
Zn42 O47 2.049 . S
Zn42 O52 2.067 . S
Zn43 O44 1.962 . S
Zn43 O46 1.986 . S
Zn43 O48 1.996 . S
Zn43 O51 1.943 . S
O44 Zn43 1.962 . S
O44 C49 1.254 . S
O45 Zn42 2.031 . S
O45 C49 1.269 . S
O46 Zn43 1.986 . S
O46 C53 1.262 . S
O47 Zn42 2.049 . S
O47 C55 1.260 . S
O48 Zn43 1.996 . S
O48 C55 1.257 . S
C49 O44 1.254 . S
C49 O45 1.269 . S
C50 O51 1.249 . S
C50 O52 1.270 . S
O51 Zn43 1.943 . S
O51 C50 1.249 . S
O52 Zn42 2.067 . S
O52 C50 1.270 . S
C53 O46 1.262 . S
C53 O54 1.232 . S
O54 C53 1.232 . S
C55 O47 1.260 . S
C55 O48 1.257 . S
Zn56 O59 2.031 . S
Zn56 O61 2.049 . S
Zn56 O66 2.067 . S
Zn57 O58 1.962 . S
Zn57 O60 1.986 . S
Zn57 O62 1.996 . S
Zn57 O65 1.943 . S
O58 Zn57 1.962 . S
O58 C63 1.254 . S
O59 Zn56 2.031 . S
O59 C63 1.269 . S
O60 Zn57 1.986 . S
O60 C67 1.262 . S
O61 Zn56 2.049 . S
O61 C69 1.260 . S
O62 Zn57 1.996 . S
O62 C69 1.257 . S
C63 O58 1.254 . S
C63 O59 1.269 . S
C64 O65 1.249 . S
C64 O66 1.270 . S
O65 Zn57 1.943 . S
O65 C64 1.249 . S
O66 Zn56 2.067 . S
O66 C64 1.270 . S
C67 O60 1.262 . S
C67 O68 1.232 . S
O68 C67 1.232 . S
C69 O61 1.260 . S
C69 O62 1.257 . S
Zn70 O73 2.031 . S
Zn70 O75 2.049 . S
Zn70 O80 2.067 . S
Zn71 O72 1.962 . S
Zn71 O74 1.986 . S
Zn71 O76 1.996 . S
Zn71 O79 1.943 . S
O72 Zn71 1.962 . S
O72 C77 1.254 . S
O73 Zn70 2.031 . S
O73 C77 1.269 . S
O74 Zn71 1.986 . S
O74 C81 1.262 . S
O75 Zn70 2.049 . S
O75 C83 1.260 . S
O76 Zn71 1.996 . S
O76 C83 1.257 . S
C77 O72 1.254 . S
C77 O73 1.269 . S
C78 O79 1.249 . S
C78 O80 1.270 . S
O79 Zn71 1.943 . S
O79 C78 1.249 . S
O80 Zn70 2.067 . S
O80 C78 1.270 . S
C81 O74 1.262 . S
C81 O82 1.232 . S
O82 C81 1.232 . S
C83 O75 1.260 . S
C83 O76 1.257 . S
Zn84 O87 2.031 . S
Zn84 O89 2.049 . S
Zn84 O94 2.067 . S
Zn85 O86 1.962 . S
Zn85 O88 1.986 . S
Zn85 O90 1.996 . S
Zn85 O93 1.943 . S
O86 Zn85 1.962 . S
O86 C91 1.254 . S
O87 Zn84 2.031 . S
O87 C91 1.269 . S
O88 Zn85 1.986 . S
O88 C95 1.262 . S
O89 Zn84 2.049 . S
O89 C97 1.260 . S
O90 Zn85 1.996 . S
O90 C97 1.257 . S
C91 O86 1.254 . S
C91 O87 1.269 . S
C92 O93 1.249 . S
C92 O94 1.270 . S
O93 Zn85 1.943 . S
O93 C92 1.249 . S
O94 Zn84 2.067 . S
O94 C92 1.270 . S
C95 O88 1.262 . S
C95 O96 1.232 . S
O96 C95 1.232 . S
C97 O89 1.260 . S
C97 O90 1.257 . S
Zn98 O101 2.031 . S
Zn98 O103 2.049 . S
Zn98 O108 2.067 . S
Zn99 O100 1.962 . S
Zn99 O102 1.986 . S
Zn99 O104 1.996 . S
Zn99 O107 1.943 . S
O100 Zn99 1.962 . S
O100 C105 1.254 . S
O101 Zn98 2.031 . S
O101 C105 1.269 . S
O102 Zn99 1.986 . S
O102 C109 1.262 . S
O103 Zn98 2.049 . S
O103 C111 1.260 . S
O104 Zn99 1.996 . S
O104 C111 1.257 . S
C105 O100 1.254 . S
C105 O101 1.269 . S
C106 O107 1.249 . S
C106 O108 1.270 . S
O107 Zn99 1.943 . S
O107 C106 1.249 . S
O108 Zn98 2.067 . S
O108 C106 1.270 . S
C109 O102 1.262 . S
C109 O110 1.232 . S
O110 C109 1.232 . S
C111 O103 1.260 . S
C111 O104 1.257 . S
C112 C113 1.349 . S
C112 C114 1.327 . S
C112 H137 0.950 . S
C113 C112 1.349 . S
C113 C129 1.349 . S
C114 C112 1.327 . S
C114 C133 1.429 . S
C114 H138 0.950 . S
C115 C132 1.574 1_545 S
C115 C134 1.368 1_655 S
C115 H139 0.949 . S
H116 C120 0.949 . S
C117 C118 1.349 . S
C117 C119 1.327 . S
C117 H140 0.950 . S
C118 C117 1.349 . S
C118 C130 1.349 . S
C119 C117 1.327 . S
C119 C135 1.429 . S
C119 H141 0.950 . S
C120 H116 0.949 . S
C120 C128 1.574 1_565 S
C120 C136 1.368 1_455 S
H121 C129 0.950 . S
H122 C127 0.950 . S
H123 C128 0.949 . S
H124 C130 0.950 . S
H125 C131 0.950 . S
H126 C132 0.949 . S
C127 H122 0.950 . S
C127 C129 1.327 . S
C127 C133 1.429 . S
C128 C120 1.574 1_545 S
C128 H123 0.949 . S
C128 C134 1.368 . S
C129 C113 1.349 . S
C129 H121 0.950 . S
C129 C127 1.327 . S
C130 C118 1.349 . S
C130 H124 0.950 . S
C130 C131 1.327 . S
C131 H125 0.950 . S
C131 C130 1.327 . S
C131 C135 1.429 . S
C132 C115 1.574 1_565 S
C132 H126 0.949 . S
C132 C136 1.368 . S
C133 C114 1.429 . S
C133 C127 1.429 . S
C133 C134 1.523 . S
C134 C115 1.368 1_455 S
C134 C128 1.368 . S
C134 C133 1.523 . S
C135 C119 1.429 . S
C135 C131 1.429 . S
C135 C136 1.523 . S
C136 C120 1.368 1_655 S
C136 C132 1.368 . S
C136 C135 1.523 . S
H137 C112 0.950 . S
H138 C114 0.950 . S
H139 C115 0.949 . S
H140 C117 0.950 . S
H141 C119 0.950 . S
C142 C143 1.349 . S
C142 C144 1.327 . S
C142 H167 0.950 . S
C143 C142 1.349 . S
C143 C159 1.349 . S
C144 C142 1.327 . S
C144 C163 1.429 . S
C144 H168 0.950 . S
C145 C162 1.574 . S
C145 C164 1.368 . S
C145 H169 0.949 . S
H146 C150 0.949 . S
C147 C148 1.349 . S
C147 C149 1.327 . S
C147 H170 0.950 . S
C148 C147 1.349 . S
C148 C160 1.349 . S
C149 C147 1.327 . S
C149 C165 1.429 . S
C149 H171 0.950 . S
C150 H146 0.949 . S
C150 C158 1.574 . S
C150 C166 1.368 . S
H151 C159 0.950 . S
H152 C157 0.950 . S
H153 C158 0.949 . S
H154 C160 0.950 . S
H155 C161 0.950 . S
H156 C162 0.949 . S
C157 H152 0.950 . S
C157 C159 1.327 . S
C157 C163 1.429 . S
C158 C150 1.574 . S
C158 H153 0.949 . S
C158 C164 1.368 . S
C159 C143 1.349 . S
C159 H151 0.950 . S
C159 C157 1.327 . S
C160 C148 1.349 . S
C160 H154 0.950 . S
C160 C161 1.327 . S
C161 H155 0.950 . S
C161 C160 1.327 . S
C161 C165 1.429 . S
C162 C145 1.574 . S
C162 H156 0.949 . S
C162 C166 1.368 . S
C163 C144 1.429 . S
C163 C157 1.429 . S
C163 C164 1.523 . S
C164 C145 1.368 . S
C164 C158 1.368 . S
C164 C163 1.523 . S
C165 C149 1.429 . S
C165 C161 1.429 . S
C165 C166 1.523 . S
C166 C150 1.368 . S
C166 C162 1.368 . S
C166 C165 1.523 . S
H167 C142 0.950 . S
H168 C144 0.950 . S
H169 C145 0.949 . S
H170 C147 0.950 . S
H171 C149 0.950 . S
C172 C173 1.349 . S
C172 C174 1.327 . S
C172 H197 0.950 . S
C173 C172 1.349 . S
C173 C189 1.349 . S
C174 C172 1.327 . S
C174 C193 1.429 . S
C174 H198 0.950 . S
C175 C192 1.574 . S
C175 C194 1.368 . S
C175 H199 0.949 . S
H176 C180 0.949 . S
C177 C178 1.349 . S
C177 C179 1.327 . S
C177 H200 0.950 . S
C178 C177 1.349 . S
C178 C190 1.349 . S
C179 C177 1.327 . S
C179 C195 1.429 . S
C179 H201 0.950 . S
C180 H176 0.949 . S
C180 C188 1.574 . S
C180 C196 1.368 . S
H181 C189 0.950 . S
H182 C187 0.950 . S
H183 C188 0.949 . S
H184 C190 0.950 . S
H185 C191 0.950 . S
H186 C192 0.949 . S
C187 H182 0.950 . S
C187 C189 1.327 . S
C187 C193 1.429 . S
C188 C180 1.574 . S
C188 H183 0.949 . S
C188 C194 1.368 . S
C189 C173 1.349 . S
C189 H181 0.950 . S
C189 C187 1.327 . S
C190 C178 1.349 . S
C190 H184 0.950 . S
C190 C191 1.327 . S
C191 H185 0.950 . S
C191 C190 1.327 . S
C191 C195 1.429 . S
C192 C175 1.574 . S
C192 H186 0.949 . S
C192 C196 1.368 . S
C193 C174 1.429 . S
C193 C187 1.429 . S
C193 C194 1.523 . S
C194 C175 1.368 . S
C194 C188 1.368 . S
C194 C193 1.523 . S
C195 C179 1.429 . S
C195 C191 1.429 . S
C195 C196 1.523 . S
C196 C180 1.368 . S
C196 C192 1.368 . S
C196 C195 1.523 . S
H197 C172 0.950 . S
H198 C174 0.950 . S
H199 C175 0.949 . S
H200 C177 0.950 . S
H201 C179 0.950 . S
C202 C203 1.349 . S
C202 C204 1.327 . S
C202 H227 0.950 . S
C203 C202 1.349 . S
C203 C219 1.349 . S
C204 C202 1.327 . S
C204 C223 1.429 . S
C204 H228 0.950 . S
C205 C222 1.574 1_455 S
C205 C224 1.368 1_565 S
C205 H229 0.949 . S
H206 C210 0.949 . S
C207 C208 1.349 . S
C207 C209 1.327 . S
C207 H230 0.950 . S
C208 C207 1.349 . S
C208 C220 1.349 . S
C209 C207 1.327 . S
C209 C225 1.429 . S
C209 H231 0.950 . S
C210 H206 0.949 . S
C210 C218 1.574 1_655 S
C210 C226 1.368 1_545 S
H211 C219 0.950 . S
H212 C217 0.950 . S
H213 C218 0.949 . S
H214 C220 0.950 . S
H215 C221 0.950 . S
H216 C222 0.949 . S
C217 H212 0.950 . S
C217 C219 1.327 . S
C217 C223 1.429 . S
C218 C210 1.574 1_455 S
C218 H213 0.949 . S
C218 C224 1.368 . S
C219 C203 1.349 . S
C219 H211 0.950 . S
C219 C217 1.327 . S
C220 C208 1.349 . S
C220 H214 0.950 . S
C220 C221 1.327 . S
C221 H215 0.950 . S
C221 C220 1.327 . S
C221 C225 1.429 . S
C222 C205 1.574 1_655 S
C222 H216 0.949 . S
C222 C226 1.368 . S
C223 C204 1.429 . S
C223 C217 1.429 . S
C223 C224 1.523 . S
C224 C205 1.368 1_545 S
C224 C218 1.368 . S
C224 C223 1.523 . S
C225 C209 1.429 . S
C225 C221 1.429 . S
C225 C226 1.523 . S
C226 C210 1.368 1_565 S
C226 C222 1.368 . S
C226 C225 1.523 . S
H227 C202 0.950 . S
H228 C204 0.950 . S
H229 C205 0.949 . S
H230 C207 0.950 . S
H231 C209 0.950 . S
C232 C233 1.349 . S
C232 C234 1.327 . S
C232 H257 0.950 . S
C233 C232 1.349 . S
C233 C249 1.349 . S
C234 C232 1.327 . S
C234 C253 1.429 . S
C234 H258 0.950 . S
C235 C252 1.574 . S
C235 C254 1.368 . S
C235 H259 0.949 . S
H236 C240 0.949 . S
C237 C238 1.349 . S
C237 C239 1.327 . S
C237 H260 0.950 . S
C238 C237 1.349 . S
C238 C250 1.349 . S
C239 C237 1.327 . S
C239 C255 1.429 . S
C239 H261 0.950 . S
C240 H236 0.949 . S
C240 C248 1.574 . S
C240 C256 1.368 . S
H241 C249 0.950 . S
H242 C247 0.950 . S
H243 C248 0.949 . S
H244 C250 0.950 . S
H245 C251 0.950 . S
H246 C252 0.949 . S
C247 H242 0.950 . S
C247 C249 1.327 . S
C247 C253 1.429 . S
C248 C240 1.574 . S
C248 H243 0.949 . S
C248 C254 1.368 . S
C249 C233 1.349 . S
C249 H241 0.950 . S
C249 C247 1.327 . S
C250 C238 1.349 . S
C250 H244 0.950 . S
C250 C251 1.327 . S
C251 H245 0.950 . S
C251 C250 1.327 . S
C251 C255 1.429 . S
C252 C235 1.574 . S
C252 H246 0.949 . S
C252 C256 1.368 . S
C253 C234 1.429 . S
C253 C247 1.429 . S
C253 C254 1.523 . S
C254 C235 1.368 . S
C254 C248 1.368 . S
C254 C253 1.523 . S
C255 C239 1.429 . S
C255 C251 1.429 . S
C255 C256 1.523 . S
C256 C240 1.368 . S
C256 C252 1.368 . S
C256 C255 1.523 . S
H257 C232 0.950 . S
H258 C234 0.950 . S
H259 C235 0.949 . S
H260 C237 0.950 . S
H261 C239 0.950 . S
C262 C263 1.349 . S
C262 C264 1.327 . S
C262 H287 0.950 . S
C263 C262 1.349 . S
C263 C279 1.349 . S
C264 C262 1.327 . S
C264 C283 1.429 . S
C264 H288 0.950 . S
C265 C282 1.574 1_556 S
C265 C284 1.368 . S
C265 H289 0.949 . S
H266 C270 0.949 . S
C267 C268 1.349 . S
C267 C269 1.327 . S
C267 H290 0.950 . S
C268 C267 1.349 . S
C268 C280 1.349 . S
C269 C267 1.327 . S
C269 C285 1.429 . S
C269 H291 0.950 . S
C270 H266 0.949 . S
C270 C278 1.574 1_554 S
C270 C286 1.368 . S
H271 C279 0.950 . S
H272 C277 0.950 . S
H273 C278 0.949 . S
H274 C280 0.950 . S
H275 C281 0.950 . S
H276 C282 0.949 . S
C277 H272 0.950 . S
C277 C279 1.327 . S
C277 C283 1.429 . S
C278 C270 1.574 1_556 S
C278 H273 0.949 . S
C278 C284 1.368 . S
C279 C263 1.349 . S
C279 H271 0.950 . S
C279 C277 1.327 . S
C280 C268 1.349 . S
C280 H274 0.950 . S
C280 C281 1.327 . S
C281 H275 0.950 . S
C281 C280 1.327 . S
C281 C285 1.429 . S
C282 C265 1.574 1_554 S
C282 H276 0.949 . S
C282 C286 1.368 . S
C283 C264 1.429 . S
C283 C277 1.429 . S
C283 C284 1.523 . S
C284 C265 1.368 . S
C284 C278 1.368 . S
C284 C283 1.523 . S
C285 C269 1.429 . S
C285 C281 1.429 . S
C285 C286 1.523 . S
C286 C270 1.368 . S
C286 C282 1.368 . S
C286 C285 1.523 . S
H287 C262 0.950 . S
H288 C264 0.950 . S
H289 C265 0.949 . S
H290 C267 0.950 . S
H291 C269 0.950 . S
C292 C293 1.349 . S
C292 C294 1.327 . S
C292 H317 0.950 . S
C293 C292 1.349 . S
C293 C309 1.349 . S
C294 C292 1.327 . S
C294 C313 1.429 . S
C294 H318 0.950 . S
C295 C312 1.574 . S
C295 C314 1.368 . S
C295 H319 0.949 . S
H296 C300 0.949 . S
C297 C298 1.349 . S
C297 C299 1.327 . S
C297 H320 0.950 . S
C298 C297 1.349 . S
C298 C310 1.349 . S
C299 C297 1.327 . S
C299 C315 1.429 . S
C299 H321 0.950 . S
C300 H296 0.949 . S
C300 C308 1.574 . S
C300 C316 1.368 . S
H301 C309 0.950 . S
H302 C307 0.950 . S
H303 C308 0.949 . S
H304 C310 0.950 . S
H305 C311 0.950 . S
H306 C312 0.949 . S
C307 H302 0.950 . S
C307 C309 1.327 . S
C307 C313 1.429 . S
C308 C300 1.574 . S
C308 H303 0.949 . S
C308 C314 1.368 . S
C309 C293 1.349 . S
C309 H301 0.950 . S
C309 C307 1.327 . S
C310 C298 1.349 . S
C310 H304 0.950 . S
C310 C311 1.327 . S
C311 H305 0.950 . S
C311 C310 1.327 . S
C311 C315 1.429 . S
C312 C295 1.574 . S
C312 H306 0.949 . S
C312 C316 1.368 . S
C313 C294 1.429 . S
C313 C307 1.429 . S
C313 C314 1.523 . S
C314 C295 1.368 . S
C314 C308 1.368 . S
C314 C313 1.523 . S
C315 C299 1.429 . S
C315 C311 1.429 . S
C315 C316 1.523 . S
C316 C300 1.368 . S
C316 C312 1.368 . S
C316 C315 1.523 . S
H317 C292 0.950 . S
H318 C294 0.950 . S
H319 C295 0.949 . S
H320 C297 0.950 . S
H321 C299 0.950 . S
C322 C323 1.349 . S
C322 C324 1.327 . S
C322 H347 0.950 . S
C323 C322 1.349 . S
C323 C339 1.349 . S
C324 C322 1.327 . S
C324 C343 1.429 . S
C324 H348 0.950 . S
C325 C342 1.574 1_556 S
C325 C344 1.368 . S
C325 H349 0.949 . S
H326 C330 0.949 . S
C327 C328 1.349 . S
C327 C329 1.327 . S
C327 H350 0.950 . S
C328 C327 1.349 . S
C328 C340 1.349 . S
C329 C327 1.327 . S
C329 C345 1.429 . S
C329 H351 0.950 . S
C330 H326 0.949 . S
C330 C338 1.574 1_554 S
C330 C346 1.368 . S
H331 C339 0.950 . S
H332 C337 0.950 . S
H333 C338 0.949 . S
H334 C340 0.950 . S
H335 C341 0.950 . S
H336 C342 0.949 . S
C337 H332 0.950 . S
C337 C339 1.327 . S
C337 C343 1.429 . S
C338 C330 1.574 1_556 S
C338 H333 0.949 . S
C338 C344 1.368 . S
C339 C323 1.349 . S
C339 H331 0.950 . S
C339 C337 1.327 . S
C340 C328 1.349 . S
C340 H334 0.950 . S
C340 C341 1.327 . S
C341 H335 0.950 . S
C341 C340 1.327 . S
C341 C345 1.429 . S
C342 C325 1.574 1_554 S
C342 H336 0.949 . S
C342 C346 1.368 . S
C343 C324 1.429 . S
C343 C337 1.429 . S
C343 C344 1.523 . S
C344 C325 1.368 . S
C344 C338 1.368 . S
C344 C343 1.523 . S
C345 C329 1.429 . S
C345 C341 1.429 . S
C345 C346 1.523 . S
C346 C330 1.368 . S
C346 C342 1.368 . S
C346 C345 1.523 . S
H347 C322 0.950 . S
H348 C324 0.950 . S
H349 C325 0.949 . S
H350 C327 0.950 . S
H351 C329 0.950 . S
C352 C353 1.349 . S
C352 C354 1.327 . S
C352 H377 0.950 . S
C353 C352 1.349 . S
C353 C369 1.349 . S
C354 C352 1.327 . S
C354 C373 1.429 . S
C354 H378 0.950 . S
C355 C372 1.574 . S
C355 C374 1.368 . S
C355 H379 0.949 . S
H356 C360 0.949 . S
C357 C358 1.349 . S
C357 C359 1.327 . S
C357 H380 0.950 . S
C358 C357 1.349 . S
C358 C370 1.349 . S
C359 C357 1.327 . S
C359 C375 1.429 . S
C359 H381 0.950 . S
C360 H356 0.949 . S
C360 C368 1.574 . S
C360 C376 1.368 . S
H361 C369 0.950 . S
H362 C367 0.950 . S
H363 C368 0.949 . S
H364 C370 0.950 . S
H365 C371 0.950 . S
H366 C372 0.949 . S
C367 H362 0.950 . S
C367 C369 1.327 . S
C367 C373 1.429 . S
C368 C360 1.574 . S
C368 H363 0.949 . S
C368 C374 1.368 . S
C369 C353 1.349 . S
C369 H361 0.950 . S
C369 C367 1.327 . S
C370 C358 1.349 . S
C370 H364 0.950 . S
C370 C371 1.327 . S
C371 H365 0.950 . S
C371 C370 1.327 . S
C371 C375 1.429 . S
C372 C355 1.574 . S
C372 H366 0.949 . S
C372 C376 1.368 . S
C373 C354 1.429 . S
C373 C367 1.429 . S
C373 C374 1.523 . S
C374 C355 1.368 . S
C374 C368 1.368 . S
C374 C373 1.523 . S
C375 C359 1.429 . S
C375 C371 1.429 . S
C375 C376 1.523 . S
C376 C360 1.368 . S
C376 C372 1.368 . S
C376 C375 1.523 . S
H377 C352 0.950 . S
H378 C354 0.950 . S
H379 C355 0.949 . S
H380 C357 0.950 . S
H381 C359 0.950 . S
C382 C383 1.349 . S
C382 C384 1.327 . S
C382 H407 0.950 . S
C383 C382 1.349 . S
C383 C399 1.349 . S
C384 C382 1.327 . S
C384 C403 1.429 . S
C384 H408 0.950 . S
C385 C402 1.574 . S
C385 C404 1.368 . S
C385 H409 0.949 . S
H386 C390 0.949 . S
C387 C388 1.349 1_565 S
C387 C389 1.327 . S
C387 H410 0.950 1_565 S
C388 C387 1.349 1_545 S
C388 C400 1.349 . S
C389 C387 1.327 . S
C389 C405 1.429 . S
C389 H411 0.950 . S
C390 H386 0.949 . S
C390 C398 1.574 . S
C390 C406 1.368 . S
H391 C399 0.950 . S
H392 C397 0.950 . S
H393 C398 0.949 . S
H394 C400 0.950 . S
H395 C401 0.950 . S
H396 C402 0.949 . S
C397 H392 0.950 . S
C397 C399 1.327 . S
C397 C403 1.429 . S
C398 C390 1.574 . S
C398 H393 0.949 . S
C398 C404 1.368 . S
C399 C383 1.349 . S
C399 H391 0.950 . S
C399 C397 1.327 . S
C400 C388 1.349 . S
C400 H394 0.950 . S
C400 C401 1.327 1_545 S
C401 H395 0.950 . S
C401 C400 1.327 1_565 S
C401 C405 1.429 . S
C402 C385 1.574 . S
C402 H396 0.949 . S
C402 C406 1.368 . S
C403 C384 1.429 . S
C403 C397 1.429 . S
C403 C404 1.523 . S
C404 C385 1.368 . S
C404 C398 1.368 . S
C404 C403 1.523 . S
C405 C389 1.429 . S
C405 C401 1.429 . S
C405 C406 1.523 . S
C406 C390 1.368 . S
C406 C402 1.368 . S
C406 C405 1.523 . S
H407 C382 0.950 . S
H408 C384 0.950 . S
H409 C385 0.949 . S
H410 C387 0.950 1_545 S
H411 C389 0.950 . S
C412 C413 1.349 . S
C412 C414 1.327 . S
C412 H437 0.950 . S
C413 C412 1.349 . S
C413 C429 1.349 . S
C414 C412 1.327 . S
C414 C433 1.429 . S
C414 H438 0.950 . S
C415 C432 1.574 . S
C415 C434 1.368 . S
C415 H439 0.949 . S
H416 C420 0.949 . S
C417 C418 1.349 . S
C417 C419 1.327 . S
C417 H440 0.950 . S
C418 C417 1.349 . S
C418 C430 1.349 . S
C419 C417 1.327 . S
C419 C435 1.429 . S
C419 H441 0.950 . S
C420 H416 0.949 . S
C420 C428 1.574 . S
C420 C436 1.368 . S
H421 C429 0.950 . S
H422 C427 0.950 . S
H423 C428 0.949 . S
H424 C430 0.950 . S
H425 C431 0.950 . S
H426 C432 0.949 . S
C427 H422 0.950 . S
C427 C429 1.327 . S
C427 C433 1.429 . S
C428 C420 1.574 . S
C428 H423 0.949 . S
C428 C434 1.368 . S
C429 C413 1.349 . S
C429 H421 0.950 . S
C429 C427 1.327 . S
C430 C418 1.349 . S
C430 H424 0.950 . S
C430 C431 1.327 . S
C431 H425 0.950 . S
C431 C430 1.327 . S
C431 C435 1.429 . S
C432 C415 1.574 . S
C432 H426 0.949 . S
C432 C436 1.368 . S
C433 C414 1.429 . S
C433 C427 1.429 . S
C433 C434 1.523 . S
C434 C415 1.368 . S
C434 C428 1.368 . S
C434 C433 1.523 . S
C435 C419 1.429 . S
C435 C431 1.429 . S
C435 C436 1.523 . S
C436 C420 1.368 . S
C436 C432 1.368 . S
C436 C435 1.523 . S
H437 C412 0.950 . S
H438 C414 0.950 . S
H439 C415 0.949 . S
H440 C417 0.950 . S
H441 C419 0.950 . S
C442 C443 1.349 . S
C442 C444 1.327 . S
C442 H467 0.950 . S
C443 C442 1.349 . S
C443 C459 1.349 . S
C444 C442 1.327 . S
C444 C463 1.429 . S
C444 H468 0.950 . S
C445 C462 1.574 . S
C445 C464 1.368 . S
C445 H469 0.949 . S
H446 C450 0.949 . S
C447 C448 1.349 . S
C447 C449 1.327 1_565 S
C447 H470 0.950 . S
C448 C447 1.349 . S
C448 C460 1.349 1_565 S
C449 C447 1.327 1_545 S
C449 C465 1.429 . S
C449 H471 0.950 . S
C450 H446 0.949 . S
C450 C458 1.574 . S
C450 C466 1.368 . S
H451 C459 0.950 . S
H452 C457 0.950 . S
H453 C458 0.949 . S
H454 C460 0.950 . S
H455 C461 0.950 . S
H456 C462 0.949 . S
C457 H452 0.950 . S
C457 C459 1.327 . S
C457 C463 1.429 . S
C458 C450 1.574 . S
C458 H453 0.949 . S
C458 C464 1.368 . S
C459 C443 1.349 . S
C459 H451 0.950 . S
C459 C457 1.327 . S
C460 C448 1.349 1_545 S
C460 H454 0.950 . S
C460 C461 1.327 . S
C461 H455 0.950 . S
C461 C460 1.327 . S
C461 C465 1.429 . S
C462 C445 1.574 . S
C462 H456 0.949 . S
C462 C466 1.368 . S
C463 C444 1.429 . S
C463 C457 1.429 . S
C463 C464 1.523 . S
C464 C445 1.368 . S
C464 C458 1.368 . S
C464 C463 1.523 . S
C465 C449 1.429 . S
C465 C461 1.429 . S
C465 C466 1.523 . S
C466 C450 1.368 . S
C466 C462 1.368 . S
C466 C465 1.523 . S
H467 C442 0.950 . S
H468 C444 0.950 . S
H469 C445 0.949 . S
H470 C447 0.950 . S
H471 C449 0.950 . S
C472 C473 1.349 1_655 S
C472 C474 1.327 . S
C472 H497 0.950 . S
C473 C472 1.349 1_455 S
C473 C489 1.349 . S
C474 C472 1.327 . S
C474 C493 1.429 . S
C474 H498 0.950 . S
C475 C492 1.574 . S
C475 C494 1.368 . S
C475 H499 0.949 . S
H476 C480 0.949 . S
C477 C478 1.349 . S
C477 C479 1.327 . S
C477 H500 0.950 . S
C478 C477 1.349 . S
C478 C490 1.349 . S
C479 C477 1.327 . S
C479 C495 1.429 . S
C479 H501 0.950 . S
C480 H476 0.949 . S
C480 C488 1.574 . S
C480 C496 1.368 . S
H481 C489 0.950 . S
H482 C487 0.950 . S
H483 C488 0.949 . S
H484 C490 0.950 . S
H485 C491 0.950 . S
H486 C492 0.949 . S
C487 H482 0.950 . S
C487 C489 1.327 1_655 S
C487 C493 1.429 . S
C488 C480 1.574 . S
C488 H483 0.949 . S
C488 C494 1.368 . S
C489 C473 1.349 . S
C489 H481 0.950 . S
C489 C487 1.327 1_455 S
C490 C478 1.349 . S
C490 H484 0.950 . S
C490 C491 1.327 . S
C491 H485 0.950 . S
C491 C490 1.327 . S
C491 C495 1.429 . S
C492 C475 1.574 . S
C492 H486 0.949 . S
C492 C496 1.368 . S
C493 C474 1.429 . S
C493 C487 1.429 . S
C493 C494 1.523 . S
C494 C475 1.368 . S
C494 C488 1.368 . S
C494 C493 1.523 . S
C495 C479 1.429 . S
C495 C491 1.429 . S
C495 C496 1.523 . S
C496 C480 1.368 . S
C496 C492 1.368 . S
C496 C495 1.523 . S
H497 C472 0.950 . S
H498 C474 0.950 . S
H499 C475 0.949 . S
H500 C477 0.950 . S
H501 C479 0.950 . S
C502 C503 1.349 . S
C502 C504 1.327 . S
C502 H527 0.950 . S
C503 C502 1.349 . S
C503 C519 1.349 . S
C504 C502 1.327 . S
C504 C523 1.429 . S
C504 H528 0.950 . S
C505 C522 1.574 . S
C505 C524 1.368 . S
C505 H529 0.949 . S
H506 C510 0.949 . S
C507 C508 1.349 . S
C507 C509 1.327 . S
C507 H530 0.950 . S
C508 C507 1.349 . S
C508 C520 1.349 . S
C509 C507 1.327 . S
C509 C525 1.429 . S
C509 H531 0.950 . S
C510 H506 0.949 . S
C510 C518 1.574 . S
C510 C526 1.368 . S
H511 C519 0.950 . S
H512 C517 0.950 . S
H513 C518 0.949 . S
H514 C520 0.950 . S
H515 C521 0.950 . S
H516 C522 0.949 . S
C517 H512 0.950 . S
C517 C519 1.327 . S
C517 C523 1.429 . S
C518 C510 1.574 . S
C518 H513 0.949 . S
C518 C524 1.368 . S
C519 C503 1.349 . S
C519 H511 0.950 . S
C519 C517 1.327 . S
C520 C508 1.349 . S
C520 H514 0.950 . S
C520 C521 1.327 . S
C521 H515 0.950 . S
C521 C520 1.327 . S
C521 C525 1.429 . S
C522 C505 1.574 . S
C522 H516 0.949 . S
C522 C526 1.368 . S
C523 C504 1.429 . S
C523 C517 1.429 . S
C523 C524 1.523 . S
C524 C505 1.368 . S
C524 C518 1.368 . S
C524 C523 1.523 . S
C525 C509 1.429 . S
C525 C521 1.429 . S
C525 C526 1.523 . S
C526 C510 1.368 . S
C526 C522 1.368 . S
C526 C525 1.523 . S
H527 C502 0.950 . S
H528 C504 0.950 . S
H529 C505 0.949 . S
H530 C507 0.950 . S
H531 C509 0.950 . S
C532 C533 1.349 . S
C532 C534 1.327 . S
C532 H557 0.950 . S
C533 C532 1.349 . S
C533 C549 1.349 . S
C534 C532 1.327 . S
C534 C553 1.429 . S
C534 H558 0.950 . S
C535 C552 1.574 . S
C535 C554 1.368 . S
C535 H559 0.949 . S
H536 C540 0.949 . S
C537 C538 1.349 1_455 S
C537 C539 1.327 . S
C537 H560 0.950 . S
C538 C537 1.349 1_655 S
C538 C550 1.349 . S
C539 C537 1.327 . S
C539 C555 1.429 . S
C539 H561 0.950 . S
C540 H536 0.949 . S
C540 C548 1.574 . S
C540 C556 1.368 . S
H541 C549 0.950 . S
H542 C547 0.950 . S
H543 C548 0.949 . S
H544 C550 0.950 . S
H545 C551 0.950 . S
H546 C552 0.949 . S
C547 H542 0.950 . S
C547 C549 1.327 . S
C547 C553 1.429 . S
C548 C540 1.574 . S
C548 H543 0.949 . S
C548 C554 1.368 . S
C549 C533 1.349 . S
C549 H541 0.950 . S
C549 C547 1.327 . S
C550 C538 1.349 . S
C550 H544 0.950 . S
C550 C551 1.327 1_655 S
C551 H545 0.950 . S
C551 C550 1.327 1_455 S
C551 C555 1.429 . S
C552 C535 1.574 . S
C552 H546 0.949 . S
C552 C556 1.368 . S
C553 C534 1.429 . S
C553 C547 1.429 . S
C553 C554 1.523 . S
C554 C535 1.368 . S
C554 C548 1.368 . S
C554 C553 1.523 . S
C555 C539 1.429 . S
C555 C551 1.429 . S
C555 C556 1.523 . S
C556 C540 1.368 . S
C556 C552 1.368 . S
C556 C555 1.523 . S
H557 C532 0.950 . S
H558 C534 0.950 . S
H559 C535 0.949 . S
H560 C537 0.950 . S
H561 C539 0.950 . S
C562 C563 1.349 . S
C562 C564 1.327 . S
C562 H587 0.950 . S
C563 C562 1.349 . S
C563 C579 1.349 . S
C564 C562 1.327 . S
C564 C583 1.429 . S
C564 H588 0.950 . S
C565 C582 1.574 . S
C565 C584 1.368 . S
C565 H589 0.949 . S
H566 C570 0.949 . S
C567 C568 1.349 . S
C567 C569 1.327 . S
C567 H590 0.950 . S
C568 C567 1.349 . S
C568 C580 1.349 . S
C569 C567 1.327 . S
C569 C585 1.429 . S
C569 H591 0.950 . S
C570 H566 0.949 . S
C570 C578 1.574 . S
C570 C586 1.368 . S
H571 C579 0.950 . S
H572 C577 0.950 . S
H573 C578 0.949 . S
H574 C580 0.950 . S
H575 C581 0.950 . S
H576 C582 0.949 . S
C577 H572 0.950 . S
C577 C579 1.327 . S
C577 C583 1.429 . S
C578 C570 1.574 . S
C578 H573 0.949 . S
C578 C584 1.368 . S
C579 C563 1.349 . S
C579 H571 0.950 . S
C579 C577 1.327 . S
C580 C568 1.349 . S
C580 H574 0.950 . S
C580 C581 1.327 . S
C581 H575 0.950 . S
C581 C580 1.327 . S
C581 C585 1.429 . S
C582 C565 1.574 . S
C582 H576 0.949 . S
C582 C586 1.368 . S
C583 C564 1.429 . S
C583 C577 1.429 . S
C583 C584 1.523 . S
C584 C565 1.368 . S
C584 C578 1.368 . S
C584 C583 1.523 . S
C585 C569 1.429 . S
C585 C581 1.429 . S
C585 C586 1.523 . S
C586 C570 1.368 . S
C586 C582 1.368 . S
C586 C585 1.523 . S
H587 C562 0.950 . S
H588 C564 0.950 . S
H589 C565 0.949 . S
H590 C567 0.950 . S
H591 C569 0.950 . S
C113 C8 0.451 . S
C118 C36 0.451 . S
C143 C22 0.451 . S
C148 C50 0.451 . S
C173 C64 0.451 . S
C178 C92 0.451 . S
C203 C78 0.451 . S
C208 C106 0.451 . S
C233 C13 1.367 . S
C238 C83 1.367 . S
C263 C27 1.367 . S
C268 C97 1.367 . S
C293 C111 1.367 . S
C298 C41 1.367 . S
C323 C55 1.367 . S
C328 C69 1.367 . S
C353 C63 1.422 . S
C358 C11 1.464 . S
C383 C25 1.464 . S
C388 C77 1.422 . S
C413 C39 1.464 . S
C418 C91 1.422 . S
C443 C53 1.464 . S
C448 C105 1.422 . S
C473 C7 1.422 . S
C478 C67 1.464 . S
C503 C81 1.464 . S
C508 C21 1.422 . S
C533 C95 1.464 . S
C538 C35 1.422 . S
C563 C49 1.422 . S
C568 C109 1.464 . S
