# Generated by pormake.
# Topology snl, (6)-cn, num edge types: 1
# Building blocks:
#     Node 0, Type 0, BuildingBlock: BETDEL_clean_sbu_0, # of connection points: 6
#     Node 1, Type 0, BuildingBlock: BETDEL_clean_sbu_0, # of connection points: 6
#     Node 2, Type 0, BuildingBlock: BETDEL_clean_sbu_0, # of connection points: 6
#     Node 3, Type 0, BuildingBlock: BETDEL_clean_sbu_0, # of connection points: 6
#     Node 4, Type 0, BuildingBlock: BETDEL_clean_sbu_0, # of connection points: 6
#     Node 5, Type 0, BuildingBlock: BETDEL_clean_sbu_0, # of connection points: 6
#     Node 6, Type 0, BuildingBlock: BETDEL_clean_sbu_0, # of connection points: 6
#     Node 7, Type 0, BuildingBlock: BETDEL_clean_sbu_0, # of connection points: 6
#     Node 8, Type 0, BuildingBlock: BETDEL_clean_sbu_0, # of connection points: 6
#     Node 9, Type 0, BuildingBlock: BETDEL_clean_sbu_0, # of connection points: 6
#     Node 10, Type 0, BuildingBlock: BETDEL_clean_sbu_0, # of connection points: 6
#     Node 11, Type 0, BuildingBlock: BETDEL_clean_sbu_0, # of connection points: 6
#     Node 12, Type 0, BuildingBlock: BETDEL_clean_sbu_0, # of connection points: 6
#     Node 13, Type 0, BuildingBlock: BETDEL_clean_sbu_0, # of connection points: 6
#     Node 14, Type 0, BuildingBlock: BETDEL_clean_sbu_0, # of connection points: 6
#     Node 15, Type 0, BuildingBlock: BETDEL_clean_sbu_0, # of connection points: 6
#     Edge 16, Type (0, 0), BuildingBlock: KIFKEQ_clean_linker_1, # of connection points: 2
#     Edge 17, Type (0, 0), BuildingBlock: KIFKEQ_clean_linker_1, # of connection points: 2
#     Edge 18, Type (0, 0), BuildingBlock: KIFKEQ_clean_linker_1, # of connection points: 2
#     Edge 19, Type (0, 0), BuildingBlock: KIFKEQ_clean_linker_1, # of connection points: 2
#     Edge 20, Type (0, 0), BuildingBlock: KIFKEQ_clean_linker_1, # of connection points: 2
#     Edge 21, Type (0, 0), BuildingBlock: KIFKEQ_clean_linker_1, # of connection points: 2
#     Edge 22, Type (0, 0), BuildingBlock: KIFKEQ_clean_linker_1, # of connection points: 2
#     Edge 23, Type (0, 0), BuildingBlock: KIFKEQ_clean_linker_1, # of connection points: 2
#     Edge 24, Type (0, 0), BuildingBlock: KIFKEQ_clean_linker_1, # of connection points: 2
#     Edge 25, Type (0, 0), BuildingBlock: KIFKEQ_clean_linker_1, # of connection points: 2
#     Edge 26, Type (0, 0), BuildingBlock: KIFKEQ_clean_linker_1, # of connection points: 2
#     Edge 27, Type (0, 0), BuildingBlock: KIFKEQ_clean_linker_1, # of connection points: 2
#     Edge 28, Type (0, 0), BuildingBlock: KIFKEQ_clean_linker_1, # of connection points: 2
#     Edge 29, Type (0, 0), BuildingBlock: KIFKEQ_clean_linker_1, # of connection points: 2
#     Edge 30, Type (0, 0), BuildingBlock: KIFKEQ_clean_linker_1, # of connection points: 2
#     Edge 31, Type (0, 0), BuildingBlock: KIFKEQ_clean_linker_1, # of connection points: 2
#     Edge 32, Type (0, 0), BuildingBlock: KIFKEQ_clean_linker_1, # of connection points: 2
#     Edge 33, Type (0, 0), BuildingBlock: KIFKEQ_clean_linker_1, # of connection points: 2
#     Edge 34, Type (0, 0), BuildingBlock: KIFKEQ_clean_linker_1, # of connection points: 2
#     Edge 35, Type (0, 0), BuildingBlock: KIFKEQ_clean_linker_1, # of connection points: 2
#     Edge 36, Type (0, 0), BuildingBlock: KIFKEQ_clean_linker_1, # of connection points: 2
#     Edge 37, Type (0, 0), BuildingBlock: KIFKEQ_clean_linker_1, # of connection points: 2
#     Edge 38, Type (0, 0), BuildingBlock: KIFKEQ_clean_linker_1, # of connection points: 2
#     Edge 39, Type (0, 0), BuildingBlock: KIFKEQ_clean_linker_1, # of connection points: 2
#     Edge 40, Type (0, 0), BuildingBlock: KIFKEQ_clean_linker_1, # of connection points: 2
#     Edge 41, Type (0, 0), BuildingBlock: KIFKEQ_clean_linker_1, # of connection points: 2
#     Edge 42, Type (0, 0), BuildingBlock: KIFKEQ_clean_linker_1, # of connection points: 2
#     Edge 43, Type (0, 0), BuildingBlock: KIFKEQ_clean_linker_1, # of connection points: 2
#     Edge 44, Type (0, 0), BuildingBlock: KIFKEQ_clean_linker_1, # of connection points: 2
#     Edge 45, Type (0, 0), BuildingBlock: KIFKEQ_clean_linker_1, # of connection points: 2
#     Edge 46, Type (0, 0), BuildingBlock: KIFKEQ_clean_linker_1, # of connection points: 2
#     Edge 47, Type (0, 0), BuildingBlock: KIFKEQ_clean_linker_1, # of connection points: 2
#     Edge 48, Type (0, 0), BuildingBlock: KIFKEQ_clean_linker_1, # of connection points: 2
#     Edge 49, Type (0, 0), BuildingBlock: KIFKEQ_clean_linker_1, # of connection points: 2
#     Edge 50, Type (0, 0), BuildingBlock: KIFKEQ_clean_linker_1, # of connection points: 2
#     Edge 51, Type (0, 0), BuildingBlock: KIFKEQ_clean_linker_1, # of connection points: 2
#     Edge 52, Type (0, 0), BuildingBlock: KIFKEQ_clean_linker_1, # of connection points: 2
#     Edge 53, Type (0, 0), BuildingBlock: KIFKEQ_clean_linker_1, # of connection points: 2
#     Edge 54, Type (0, 0), BuildingBlock: KIFKEQ_clean_linker_1, # of connection points: 2
#     Edge 55, Type (0, 0), BuildingBlock: KIFKEQ_clean_linker_1, # of connection points: 2
#     Edge 56, Type (0, 0), BuildingBlock: KIFKEQ_clean_linker_1, # of connection points: 2
#     Edge 57, Type (0, 0), BuildingBlock: KIFKEQ_clean_linker_1, # of connection points: 2
#     Edge 58, Type (0, 0), BuildingBlock: KIFKEQ_clean_linker_1, # of connection points: 2
#     Edge 59, Type (0, 0), BuildingBlock: KIFKEQ_clean_linker_1, # of connection points: 2
#     Edge 60, Type (0, 0), BuildingBlock: KIFKEQ_clean_linker_1, # of connection points: 2
#     Edge 61, Type (0, 0), BuildingBlock: KIFKEQ_clean_linker_1, # of connection points: 2
#     Edge 62, Type (0, 0), BuildingBlock: KIFKEQ_clean_linker_1, # of connection points: 2
#     Edge 63, Type (0, 0), BuildingBlock: KIFKEQ_clean_linker_1, # of connection points: 2
# Relax obj value: 0.146
# Max RMSD: 0.204
# Mean RMSD: 0.175
data_MOF--net-snl--node1-BETDEL_clean_sbu_0--edge1-KIFKEQ_clean_linker_1
_symmetry_space_group_name_H-M    P1
_symmetry_Int_Tables_number       1
_symmetry_cell_setting            triclinic
loop_
_symmetry_equiv_pos_as_xyz
'x, y, z'
_cell_length_a     58.786732
_cell_length_b     58.940337
_cell_length_c     18.338911
_cell_angle_alpha  99.374581
_cell_angle_beta   90.126608
_cell_angle_gamma 89.939715
loop_
_atom_site_label
_atom_site_type_symbol
_atom_site_fract_x
_atom_site_fract_y
_atom_site_fract_z
_atom_type_partial_charge
Dy0 Dy 0.14856 0.63012 0.07543 0.0
C1 C 0.13776 0.62714 0.38638 0.0
C2 C 0.15222 0.61898 0.92622 0.0
Dy3 Dy 0.13894 0.62816 0.23858 0.0
O4 O 0.16635 0.63191 0.96876 0.0
O5 O 0.1364 0.61143 0.96556 0.0
O6 O 0.15071 0.6677 0.07478 0.0
O7 O 0.14399 0.65585 0.17463 0.0
C8 C 0.14657 0.67354 0.14458 0.0
C9 C 0.13291 0.589 0.14325 0.0
O10 O 0.1056 0.64138 0.20875 0.0
O11 O 0.10997 0.63015 0.08219 0.0
O12 O 0.14005 0.60945 0.33504 0.0
O13 O 0.13599 0.64579 0.35728 0.0
O14 O 0.11946 0.59583 0.19846 0.0
O15 O 0.149 0.60306 0.14245 0.0
O16 O 0.18421 0.62467 0.11379 0.0
O17 O 0.17681 0.63039 0.24017 0.0
C18 C 0.09709 0.63738 0.14107 0.0
C19 C 0.19104 0.62723 0.18367 0.0
Dy20 Dy 0.64959 0.88952 0.45823 0.0
C21 C 0.64098 0.88939 0.14384 0.0
C22 C 0.65407 0.9014 0.60697 0.0
Dy23 Dy 0.64005 0.88808 0.29119 0.0
O24 O 0.66819 0.88862 0.56406 0.0
O25 O 0.63784 0.90861 0.56805 0.0
O26 O 0.65258 0.852 0.46316 0.0
O27 O 0.64565 0.8627 0.36243 0.0
C28 C 0.64859 0.84538 0.39356 0.0
C29 C 0.63359 0.92845 0.38023 0.0
O30 O 0.60681 0.87525 0.324 0.0
O31 O 0.61107 0.88953 0.44943 0.0
O32 O 0.648 0.90553 0.19535 0.0
O33 O 0.6335 0.87195 0.1724 0.0
O34 O 0.62044 0.92081 0.32491 0.0
O35 O 0.64968 0.91462 0.38413 0.0
O36 O 0.68451 0.89633 0.41733 0.0
O37 O 0.67741 0.88101 0.29441 0.0
C38 C 0.59835 0.88069 0.39152 0.0
C39 C 0.69157 0.88835 0.34939 0.0
Dy40 Dy 0.38595 0.39439 0.71113 0.0
C41 C 0.37931 0.37822 0.38961 0.0
C42 C 0.37499 0.39914 0.85674 0.0
Dy43 Dy 0.38161 0.37763 0.53737 0.0
O44 O 0.36669 0.38372 0.80486 0.0
O45 O 0.38862 0.41284 0.82853 0.0
O46 O 0.42433 0.39232 0.72001 0.0
O47 O 0.40808 0.3841 0.61891 0.0
C48 C 0.4272 0.38554 0.6496 0.0
C49 C 0.34364 0.378 0.61816 0.0
O50 O 0.39112 0.34416 0.5713 0.0
O51 O 0.38186 0.35595 0.69564 0.0
O52 O 0.36673 0.39023 0.4396 0.0
O53 O 0.39315 0.36509 0.41994 0.0
O54 O 0.34736 0.3633 0.55855 0.0
O55 O 0.35934 0.39268 0.62806 0.0
O56 O 0.38129 0.42814 0.67066 0.0
O57 O 0.39314 0.4142 0.55069 0.0
C58 C 0.38698 0.3397 0.63885 0.0
C59 C 0.38777 0.43145 0.60365 0.0
Dy60 Dy 0.88881 0.12516 0.82726 0.0
C61 C 0.87967 0.14146 0.14779 0.0
C62 C 0.8784 0.12038 0.68096 0.0
Dy63 Dy 0.88244 0.1417 0.99977 0.0
O64 O 0.89257 0.10719 0.70951 0.0
O65 O 0.86937 0.13528 0.73276 0.0
O66 O 0.92711 0.12846 0.82206 0.0
O67 O 0.91002 0.13658 0.92179 0.0
C68 C 0.92937 0.13556 0.89259 0.0
C69 C 0.845 0.13896 0.91467 0.0
O70 O 0.89065 0.17559 0.96706 0.0
O71 O 0.88297 0.16333 0.84182 0.0
O72 O 0.86771 0.12885 0.09729 0.0
O73 O 0.89307 0.155 0.11779 0.0
O74 O 0.84758 0.15415 0.97389 0.0
O75 O 0.86158 0.12526 0.90722 0.0
O76 O 0.88539 0.0912 0.86686 0.0
O77 O 0.8955 0.10565 0.98829 0.0
C78 C 0.88688 0.17981 0.89905 0.0
C79 C 0.89141 0.08817 0.93464 0.0
Dy80 Dy 0.14467 0.38369 0.93296 0.0
C81 C 0.13468 0.38601 0.62996 0.0
C82 C 0.14664 0.38728 0.08333 0.0
Dy83 Dy 0.13482 0.38587 0.77883 0.0
O84 O 0.15055 0.36883 0.03642 0.0
O85 O 0.14196 0.40416 0.04825 0.0
O86 O 0.16191 0.35014 0.90049 0.0
O87 O 0.13273 0.35712 0.8418 0.0
C88 C 0.14798 0.34227 0.84756 0.0
C89 C 0.13087 0.42638 0.86885 0.0
O90 O 0.0998 0.37717 0.80675 0.0
O91 O 0.10602 0.38523 0.93273 0.0
O92 O 0.14235 0.40231 0.6797 0.0
O93 O 0.12689 0.36936 0.66132 0.0
O94 O 0.11696 0.41936 0.81505 0.0
O95 O 0.14657 0.4119 0.87085 0.0
O96 O 0.17986 0.3921 0.89815 0.0
O97 O 0.17183 0.37768 0.77676 0.0
C98 C 0.09208 0.3805 0.87515 0.0
C99 C 0.18669 0.38481 0.82956 0.0
Dy100 Dy 0.88823 0.8939 0.19738 0.0
C101 C 0.8808 0.87349 0.87362 0.0
C102 C 0.87905 0.89993 0.34482 0.0
Dy103 Dy 0.8823 0.87637 0.0235 0.0
O104 O 0.89454 0.91117 0.3146 0.0
O105 O 0.86804 0.88627 0.29403 0.0
O106 O 0.92666 0.89066 0.20203 0.0
O107 O 0.90923 0.88243 0.10327 0.0
C108 C 0.9287 0.88348 0.13155 0.0
C109 C 0.84473 0.87859 0.10703 0.0
O110 O 0.89102 0.84297 0.0593 0.0
O111 O 0.88324 0.85562 0.18445 0.0
O112 O 0.86423 0.88006 0.9187 0.0
O113 O 0.89835 0.86772 0.91026 0.0
O114 O 0.84782 0.86345 0.04789 0.0
O115 O 0.86107 0.89268 0.11573 0.0
O116 O 0.88483 0.92789 0.15744 0.0
O117 O 0.8911 0.91358 0.03259 0.0
C118 C 0.88746 0.83902 0.12775 0.0
C119 C 0.88887 0.93091 0.08816 0.0
Dy120 Dy 0.38929 0.62397 0.33442 0.0
C121 C 0.38237 0.64719 0.65087 0.0
C122 C 0.38508 0.6194 0.18319 0.0
Dy123 Dy 0.38284 0.64299 0.49913 0.0
O124 O 0.40351 0.61554 0.21851 0.0
O125 O 0.36872 0.62467 0.23048 0.0
O126 O 0.42343 0.61031 0.35775 0.0
O127 O 0.41171 0.64085 0.42279 0.0
C128 C 0.42746 0.62599 0.41487 0.0
C129 C 0.34537 0.64056 0.41462 0.0
O130 O 0.39119 0.6766 0.46509 0.0
O131 O 0.38687 0.66253 0.33967 0.0
O132 O 0.36488 0.64296 0.60757 0.0
O133 O 0.40016 0.65021 0.61137 0.0
O134 O 0.34892 0.65697 0.47004 0.0
O135 O 0.36107 0.62586 0.41045 0.0
O136 O 0.38099 0.59068 0.37309 0.0
O137 O 0.38961 0.60539 0.49508 0.0
C138 C 0.3895 0.67984 0.39536 0.0
C139 C 0.38514 0.58779 0.44232 0.0
Dy140 Dy 0.64784 0.13168 0.58228 0.0
C141 C 0.63756 0.1291 0.89416 0.0
C142 C 0.65159 0.12056 0.43327 0.0
Dy143 Dy 0.63848 0.13 0.74651 0.0
O144 O 0.66576 0.13341 0.4759 0.0
O145 O 0.63565 0.11311 0.4724 0.0
O146 O 0.65016 0.16935 0.58215 0.0
O147 O 0.64364 0.1573 0.68157 0.0
C148 C 0.64632 0.17507 0.65218 0.0
C149 C 0.63216 0.09088 0.65168 0.0
O150 O 0.60497 0.14281 0.71605 0.0
O151 O 0.60932 0.13132 0.58949 0.0
O152 O 0.64005 0.1114 0.84296 0.0
O153 O 0.63548 0.14772 0.86502 0.0
O154 O 0.61894 0.09763 0.70754 0.0
O155 O 0.64823 0.1049 0.65031 0.0
O156 O 0.6834 0.12557 0.6198 0.0
O157 O 0.67641 0.13188 0.74652 0.0
C158 C 0.59643 0.13845 0.6484 0.0
C159 C 0.69044 0.12827 0.68946 0.0
Dy160 Dy 0.88181 0.38764 0.78421 0.0
C161 C 0.86705 0.38817 0.08893 0.0
C162 C 0.88403 0.38303 0.63345 0.0
Dy163 Dy 0.86941 0.38639 0.939 0.0
O164 O 0.89517 0.39807 0.67943 0.0
O165 O 0.87221 0.37004 0.66982 0.0
O166 O 0.89866 0.42174 0.81823 0.0
O167 O 0.86917 0.41402 0.87374 0.0
C168 C 0.88476 0.42857 0.87204 0.0
C169 C 0.86679 0.34512 0.85146 0.0
O170 O 0.83442 0.39478 0.90172 0.0
O171 O 0.84388 0.38615 0.77804 0.0
O172 O 0.8667 0.36971 0.04 0.0
O173 O 0.86827 0.4061 0.05609 0.0
O174 O 0.85177 0.35313 0.90066 0.0
O175 O 0.88232 0.35985 0.85031 0.0
O176 O 0.9143 0.37394 0.82008 0.0
O177 O 0.90802 0.38921 0.94221 0.0
C178 C 0.82854 0.39096 0.83092 0.0
C179 C 0.92195 0.38036 0.88805 0.0
Dy180 Dy 0.38326 0.13172 0.74878 0.0
C181 C 0.37572 0.13176 0.43547 0.0
C182 C 0.3862 0.14174 0.89777 0.0
Dy183 Dy 0.37342 0.13274 0.58333 0.0
O184 O 0.40209 0.13162 0.85506 0.0
O185 O 0.36908 0.14699 0.85883 0.0
O186 O 0.3848 0.09275 0.74336 0.0
O187 O 0.37835 0.10696 0.65051 0.0
C188 C 0.38069 0.08822 0.67304 0.0
C189 C 0.36937 0.17357 0.67288 0.0
O190 O 0.33822 0.1245 0.62016 0.0
O191 O 0.34578 0.1368 0.74467 0.0
O192 O 0.38567 0.14662 0.48498 0.0
O193 O 0.36406 0.11711 0.46642 0.0
O194 O 0.35621 0.1665 0.61695 0.0
O195 O 0.38432 0.15844 0.67752 0.0
O196 O 0.41735 0.14122 0.7123 0.0
O197 O 0.4116 0.12712 0.58793 0.0
C198 C 0.33132 0.13047 0.6897 0.0
C199 C 0.4252 0.13492 0.6445 0.0
Dy200 Dy 0.63699 0.6415 0.48944 0.0
C201 C 0.6406 0.61856 0.16865 0.0
C202 C 0.63886 0.64418 0.63917 0.0
Dy203 Dy 0.6311 0.62452 0.31577 0.0
O204 O 0.65526 0.63741 0.59359 0.0
O205 O 0.6213 0.65021 0.60311 0.0
O206 O 0.67081 0.65584 0.46441 0.0
O207 O 0.65849 0.62617 0.39655 0.0
C208 C 0.67426 0.64088 0.40509 0.0
C209 C 0.59046 0.63339 0.38157 0.0
O210 O 0.63575 0.59051 0.35515 0.0
O211 O 0.62881 0.60422 0.47996 0.0
O212 O 0.62504 0.60731 0.19849 0.0
O213 O 0.65153 0.63224 0.21967 0.0
O214 O 0.59267 0.62661 0.3109 0.0
O215 O 0.6099 0.63484 0.41025 0.0
O216 O 0.62715 0.67471 0.45576 0.0
O217 O 0.63404 0.66317 0.32946 0.0
C218 C 0.63175 0.58716 0.42413 0.0
C219 C 0.62981 0.67928 0.38766 0.0
Dy220 Dy 0.13688 0.87527 0.03187 0.0
C221 C 0.14173 0.89685 0.35041 0.0
C222 C 0.13982 0.87491 0.88343 0.0
Dy223 Dy 0.13132 0.89359 0.20431 0.0
O224 O 0.15301 0.88624 0.93321 0.0
O225 O 0.12508 0.86292 0.91439 0.0
O226 O 0.17019 0.85967 0.05763 0.0
O227 O 0.15891 0.88989 0.12436 0.0
C228 C 0.174 0.8745 0.11699 0.0
C229 C 0.09044 0.88833 0.13746 0.0
O230 O 0.13867 0.92664 0.16216 0.0
O231 O 0.12741 0.91234 0.04171 0.0
O232 O 0.12901 0.9115 0.32271 0.0
O233 O 0.1494 0.88129 0.29791 0.0
O234 O 0.0929 0.89682 0.20711 0.0
O235 O 0.10981 0.88384 0.1102 0.0
O236 O 0.12526 0.84264 0.06552 0.0
O237 O 0.13104 0.85477 0.19211 0.0
C238 C 0.13308 0.92969 0.09395 0.0
C239 C 0.12685 0.83846 0.1344 0.0
Dy240 Dy 0.88549 0.63097 0.24328 0.0
C241 C 0.87132 0.63067 0.93861 0.0
C242 C 0.8875 0.63541 0.39403 0.0
Dy243 Dy 0.8736 0.63247 0.08854 0.0
O244 O 0.8987 0.6204 0.34823 0.0
O245 O 0.87572 0.64846 0.35753 0.0
O246 O 0.90171 0.59646 0.20953 0.0
O247 O 0.87252 0.60485 0.15355 0.0
C248 C 0.88774 0.58992 0.15556 0.0
C249 C 0.87101 0.67368 0.17616 0.0
O250 O 0.83842 0.62437 0.12431 0.0
O251 O 0.84749 0.63304 0.24838 0.0
O252 O 0.871 0.64915 0.98748 0.0
O253 O 0.8725 0.61276 0.97151 0.0
O254 O 0.85608 0.6658 0.12635 0.0
O255 O 0.88652 0.65891 0.17777 0.0
O256 O 0.9184 0.64416 0.20889 0.0
O257 O 0.91222 0.6292 0.08644 0.0
C258 C 0.83227 0.62834 0.19479 0.0
C259 C 0.92615 0.63777 0.14113 0.0
Dy260 Dy 0.13742 0.14079 0.9899 0.0
C261 C 0.13998 0.11679 0.66902 0.0
C262 C 0.13903 0.14425 0.14018 0.0
Dy263 Dy 0.13086 0.12155 0.8166 0.0
O264 O 0.15602 0.1389 0.09557 0.0
O265 O 0.12109 0.14859 0.10281 0.0
O266 O 0.17048 0.15593 0.96062 0.0
O267 O 0.15863 0.12536 0.89643 0.0
C268 C 0.17388 0.1406 0.90206 0.0
C269 C 0.09069 0.1275 0.88737 0.0
O270 O 0.13784 0.08832 0.85858 0.0
O271 O 0.13166 0.10306 0.98324 0.0
O272 O 0.1246 0.10516 0.6983 0.0
O273 O 0.15092 0.13015 0.72075 0.0
O274 O 0.09239 0.11853 0.81791 0.0
O275 O 0.11037 0.13225 0.91173 0.0
O276 O 0.12596 0.17316 0.95427 0.0
O277 O 0.13067 0.16044 0.82727 0.0
C278 C 0.13476 0.08558 0.92869 0.0
C279 C 0.12706 0.17699 0.88493 0.0
Dy280 Dy 0.63403 0.37554 0.52803 0.0
C281 C 0.62813 0.3991 0.84489 0.0
C282 C 0.63008 0.37138 0.37698 0.0
Dy283 Dy 0.62762 0.3945 0.69319 0.0
O284 O 0.64827 0.36676 0.41225 0.0
O285 O 0.61381 0.37718 0.42419 0.0
O286 O 0.66832 0.3618 0.55169 0.0
O287 O 0.65612 0.39195 0.61743 0.0
C288 C 0.67178 0.37711 0.61025 0.0
C289 C 0.59 0.39302 0.61011 0.0
O290 O 0.63553 0.4283 0.65684 0.0
O291 O 0.63195 0.41356 0.53181 0.0
O292 O 0.61017 0.3963 0.80319 0.0
O293 O 0.64594 0.40046 0.80379 0.0
O294 O 0.59424 0.40913 0.66586 0.0
O295 O 0.6054 0.37786 0.6044 0.0
O296 O 0.62493 0.34243 0.56365 0.0
O297 O 0.6319 0.35611 0.68788 0.0
C298 C 0.63422 0.43111 0.58639 0.0
C299 C 0.62806 0.33895 0.63262 0.0
Dy300 Dy 0.38374 0.88904 0.27802 0.0
C301 C 0.37258 0.88887 0.5819 0.0
C302 C 0.38394 0.88897 0.12915 0.0
Dy303 Dy 0.37449 0.88527 0.43171 0.0
O304 O 0.37624 0.90537 0.17848 0.0
O305 O 0.39171 0.87238 0.16093 0.0
O306 O 0.39917 0.92372 0.31526 0.0
O307 O 0.37077 0.91371 0.37161 0.0
C308 C 0.38532 0.92932 0.37013 0.0
C309 C 0.37345 0.84428 0.343 0.0
O310 O 0.3388 0.89226 0.39649 0.0
O311 O 0.3471 0.87917 0.27447 0.0
O312 O 0.36773 0.87063 0.53504 0.0
O313 O 0.37819 0.90546 0.54686 0.0
O314 O 0.35926 0.85078 0.39624 0.0
O315 O 0.38779 0.86011 0.33964 0.0
O316 O 0.4194 0.88243 0.30558 0.0
O317 O 0.41322 0.88782 0.43167 0.0
C318 C 0.33208 0.88512 0.32754 0.0
C319 C 0.4272 0.88486 0.37391 0.0
H320 H 0.1226 0.59438 0.8296 0.0
H321 H 0.1798 0.6408 0.84164 0.0
H322 H 0.11828 0.59633 0.69796 0.0
H323 H 0.17545 0.64279 0.71043 0.0
H324 H 0.14154 0.66249 0.50242 0.0
H325 H 0.14549 0.65929 0.63353 0.0
H326 H 0.13996 0.5854 0.57862 0.0
H327 H 0.13605 0.58859 0.44828 0.0
C328 C 0.13444 0.60469 0.80377 0.0
C329 C 0.15153 0.61741 0.84546 0.0
C330 C 0.13194 0.60586 0.72869 0.0
C331 C 0.14636 0.61995 0.69448 0.0
C332 C 0.16387 0.63211 0.73583 0.0
C333 C 0.1665 0.63077 0.8106 0.0
C334 C 0.141 0.64564 0.51871 0.0
C335 C 0.13854 0.6258 0.46563 0.0
C336 C 0.14341 0.64378 0.59338 0.0
C337 C 0.14314 0.62207 0.61591 0.0
C338 C 0.1401 0.60232 0.56278 0.0
C339 C 0.13793 0.60417 0.48829 0.0
H340 H 0.64527 0.92848 0.08648 0.0
H341 H 0.63805 0.85495 0.02436 0.0
H342 H 0.64824 0.93257 0.95657 0.0
H343 H 0.64149 0.85906 0.89356 0.0
H344 H 0.68013 0.87692 0.68811 0.0
H345 H 0.67557 0.87379 0.81835 0.0
H346 H 0.62198 0.92452 0.83788 0.0
H347 H 0.62619 0.92735 0.70654 0.0
C348 C 0.64425 0.9132 0.04485 0.0
C349 C 0.64151 0.89137 0.06506 0.0
C350 C 0.64585 0.91559 0.97071 0.0
C351 C 0.64517 0.89614 0.91552 0.0
C352 C 0.6422 0.87428 0.93551 0.0
C353 C 0.64014 0.87193 1.00992 0.0
C354 C 0.66757 0.88763 0.72039 0.0
C355 C 0.65352 0.90243 0.68756 0.0
C356 C 0.66482 0.88563 0.79455 0.0
C357 C 0.64824 0.89868 0.83745 0.0
C358 C 0.63483 0.91423 0.80556 0.0
C359 C 0.63731 0.91594 0.73083 0.0
H360 H 0.39634 0.34944 0.26914 0.0
H361 H 0.36113 0.41387 0.33423 0.0
H362 H 0.3944 0.35511 0.13924 0.0
H363 H 0.3597 0.41972 0.20565 0.0
H364 H 0.38928 0.43053 0.97439 0.0
H365 H 0.39056 0.42537 0.10451 0.0
H366 H 0.35968 0.35846 0.04638 0.0
H367 H 0.35786 0.36378 0.91711 0.0
C368 C 0.3883 0.36477 0.25566 0.0
C369 C 0.37878 0.38113 0.31135 0.0
C370 C 0.38714 0.368 0.18168 0.0
C371 C 0.37691 0.38788 0.16285 0.0
C372 C 0.36776 0.40434 0.21884 0.0
C373 C 0.36849 0.4009 0.29224 0.0
C374 C 0.38244 0.41492 0.98978 0.0
C375 C 0.37337 0.39762 0.93597 0.0
C376 C 0.38327 0.41193 0.06391 0.0
C377 C 0.37547 0.39139 0.08494 0.0
C378 C 0.36606 0.3743 0.03128 0.0
C379 C 0.36481 0.37747 0.95758 0.0
H380 H 0.85974 0.15513 0.62085 0.0
H381 H 0.89363 0.08963 0.56296 0.0
H382 H 0.86065 0.1605 0.49159 0.0
H383 H 0.89398 0.09482 0.43274 0.0
H384 H 0.86266 0.10535 0.20352 0.0
H385 H 0.86207 0.09943 0.33215 0.0
H386 H 0.89488 0.16506 0.39804 0.0
H387 H 0.89601 0.17081 0.26817 0.0
C388 C 0.86707 0.14171 0.58026 0.0
C389 C 0.87656 0.1219 0.60172 0.0
C390 C 0.86777 0.14492 0.50654 0.0
C391 C 0.87757 0.12819 0.45264 0.0
C392 C 0.88636 0.10798 0.47353 0.0
C393 C 0.88609 0.10498 0.54772 0.0
C394 C 0.86976 0.11855 0.24542 0.0
C395 C 0.8793 0.13861 0.22615 0.0
C396 C 0.86952 0.11506 0.31884 0.0
C397 C 0.87842 0.13177 0.37469 0.0
C398 C 0.88783 0.15197 0.35572 0.0
C399 C 0.88852 0.15525 0.28175 0.0
H400 H 0.13545 0.42369 0.18954 0.0
H401 H 0.1551 0.35216 0.15807 0.0
H402 H 0.13148 0.42358 0.32236 0.0
H403 H 0.15157 0.35208 0.29031 0.0
H404 H 0.11964 0.35325 0.51734 0.0
H405 H 0.12213 0.35417 0.38462 0.0
H406 H 0.15474 0.42067 0.43072 0.0
H407 H 0.1518 0.4199 0.56276 0.0
C408 C 0.13911 0.40804 0.21121 0.0
C409 C 0.14559 0.38796 0.16384 0.0
C410 C 0.13688 0.40795 0.28711 0.0
C411 C 0.14107 0.38776 0.31677 0.0
C412 C 0.14782 0.36779 0.2691 0.0
C413 C 0.15006 0.3679 0.19347 0.0
C414 C 0.12722 0.36806 0.49884 0.0
C415 C 0.13554 0.38648 0.55001 0.0
C416 C 0.12877 0.36856 0.42302 0.0
C417 C 0.13868 0.38749 0.39718 0.0
C418 C 0.14675 0.40599 0.44876 0.0
C419 C 0.14519 0.40548 0.52437 0.0
H420 H 0.84397 0.88227 0.7939 0.0
H421 H 0.91638 0.87046 0.77605 0.0
H422 H 0.84291 0.89008 0.66755 0.0
H423 H 0.91532 0.87814 0.64854 0.0
H424 H 0.90793 0.91872 0.45517 0.0
H425 H 0.90839 0.91163 0.58309 0.0
H426 H 0.84781 0.87013 0.54022 0.0
H427 H 0.8473 0.87737 0.41297 0.0
C428 C 0.85964 0.88106 0.7625 0.0
C429 C 0.88025 0.87567 0.79459 0.0
C430 C 0.85902 0.88553 0.69008 0.0
C431 C 0.87904 0.88486 0.64813 0.0
C432 C 0.89966 0.87909 0.67985 0.0
C433 C 0.90024 0.87444 0.75242 0.0
C434 C 0.89452 0.90843 0.47361 0.0
C435 C 0.87753 0.89866 0.42437 0.0
C436 C 0.89494 0.90412 0.54648 0.0
C437 C 0.87827 0.89012 0.57155 0.0
C438 C 0.86083 0.88107 0.52278 0.0
C439 C 0.86051 0.88524 0.44993 0.0
H440 H 0.41792 0.65361 0.74952 0.0
H441 H 0.34707 0.63461 0.73117 0.0
H442 H 0.41831 0.64661 0.87746 0.0
H443 H 0.34752 0.62677 0.85737 0.0
H444 H 0.3495 0.63492 0.10911 0.0
H445 H 0.34889 0.64288 0.98279 0.0
H446 H 0.41761 0.61707 0.95092 0.0
H447 H 0.41837 0.60995 0.0785 0.0
C448 C 0.40241 0.64805 0.77299 0.0
C449 C 0.38244 0.64483 0.73036 0.0
C450 C 0.40265 0.64375 0.84616 0.0
C451 C 0.38296 0.63596 0.87839 0.0
C452 C 0.36295 0.63306 0.83551 0.0
C453 C 0.36269 0.6375 0.76275 0.0
C454 C 0.36439 0.63074 0.07483 0.0
C455 C 0.38395 0.62172 0.10376 0.0
C456 C 0.36406 0.63527 1.00209 0.0
C457 C 0.38324 0.63076 0.95594 0.0
C458 C 0.40265 0.62123 0.98476 0.0
C459 C 0.40301 0.61686 0.05775 0.0
H460 H 0.64111 0.16444 1.01033 0.0
H461 H 0.63598 0.09052 0.95563 0.0
H462 H 0.64497 0.16115 0.14143 0.0
H463 H 0.63978 0.08725 0.08588 0.0
H464 H 0.62197 0.0961 0.33644 0.0
H465 H 0.61774 0.0982 0.20488 0.0
H466 H 0.67509 0.14445 0.21805 0.0
H467 H 0.67936 0.14231 0.34918 0.0
C468 C 0.64063 0.14757 0.0265 0.0
C469 C 0.6383 0.12775 0.97332 0.0
C470 C 0.64298 0.14566 0.10113 0.0
C471 C 0.64277 0.12392 0.12341 0.0
C472 C 0.63986 0.10419 0.07017 0.0
C473 C 0.63776 0.10608 0.99575 0.0
C474 C 0.63386 0.10639 0.31078 0.0
C475 C 0.65098 0.11903 0.3526 0.0
C476 C 0.63142 0.10765 0.23578 0.0
C477 C 0.64592 0.12173 0.20185 0.0
C478 C 0.66346 0.13379 0.24331 0.0
C479 C 0.66604 0.13235 0.318 0.0
H480 H 0.87073 0.42495 0.20126 0.0
H481 H 0.86648 0.35086 0.15733 0.0
H482 H 0.87479 0.42368 0.33365 0.0
H483 H 0.87113 0.34947 0.28819 0.0
H484 H 0.85705 0.35598 0.53454 0.0
H485 H 0.85179 0.35806 0.40386 0.0
H486 H 0.90204 0.41216 0.42052 0.0
H487 H 0.90679 0.41042 0.55194 0.0
C488 C 0.87058 0.40845 0.22 0.0
C489 C 0.86821 0.38803 0.16925 0.0
C490 C 0.8731 0.40767 0.2956 0.0
C491 C 0.87332 0.38645 0.32163 0.0
C492 C 0.8707 0.36611 0.27045 0.0
C493 C 0.86813 0.36691 0.19529 0.0
C494 C 0.86709 0.36817 0.51004 0.0
C495 C 0.8824 0.38296 0.55313 0.0
C496 C 0.86411 0.36937 0.43513 0.0
C497 C 0.87645 0.38533 0.40157 0.0
C498 C 0.892 0.39993 0.44477 0.0
C499 C 0.89491 0.39877 0.51982 0.0
H500 H 0.34918 0.10966 0.32315 0.0
H501 H 0.40689 0.15507 0.36999 0.0
H502 H 0.35204 0.11291 0.19153 0.0
H503 H 0.40986 0.15807 0.23949 0.0
H504 H 0.42105 0.13346 0.98739 0.0
H505 H 0.41865 0.13016 0.11847 0.0
H506 H 0.34728 0.14759 0.11844 0.0
H507 H 0.3497 0.15118 0.98773 0.0
C508 C 0.36252 0.12012 0.30512 0.0
C509 C 0.37776 0.13216 0.35615 0.0
C510 C 0.36408 0.12209 0.23035 0.0
C511 C 0.38115 0.13578 0.20602 0.0
C512 C 0.39666 0.14733 0.25703 0.0
C513 C 0.39489 0.14566 0.33153 0.0
C514 C 0.40497 0.13691 0.01582 0.0
C515 C 0.38559 0.14266 0.97801 0.0
C516 C 0.40358 0.13494 0.09041 0.0
C517 C 0.38272 0.13836 0.12774 0.0
C518 C 0.36345 0.14457 0.09027 0.0
C519 C 0.36492 0.14687 0.01599 0.0
H520 H 0.67247 0.64106 0.10049 0.0
H521 H 0.61187 0.59965 0.05824 0.0
H522 H 0.6721 0.64805 0.97287 0.0
H523 H 0.61152 0.60656 0.93018 0.0
H524 H 0.6035 0.64775 0.73747 0.0
H525 H 0.60466 0.6403 0.86519 0.0
H526 H 0.67693 0.6276 0.84509 0.0
H527 H 0.67576 0.63512 0.71832 0.0
C528 C 0.6593 0.63313 0.06348 0.0
C529 C 0.64224 0.61976 0.08909 0.0
C530 C 0.65906 0.63716 0.99045 0.0
C531 C 0.64164 0.62805 0.94167 0.0
C532 C 0.62495 0.61411 0.96682 0.0
C533 C 0.62531 0.60992 0.03978 0.0
C534 C 0.61963 0.64364 0.76086 0.0
C535 C 0.63954 0.64209 0.71825 0.0
C536 C 0.62027 0.63914 0.83356 0.0
C537 C 0.64088 0.63322 0.86502 0.0
C538 C 0.66084 0.63226 0.82269 0.0
C539 C 0.66015 0.63655 0.75006 0.0
H540 H 0.15688 0.86022 0.40866 0.0
H541 H 0.12956 0.9287 0.47008 0.0
H542 H 0.15577 0.85471 0.53775 0.0
H543 H 0.12903 0.92332 0.60017 0.0
H544 H 0.15999 0.90931 0.82663 0.0
H545 H 0.16064 0.91543 0.69815 0.0
H546 H 0.12171 0.85332 0.63427 0.0
H547 H 0.12053 0.84743 0.76401 0.0
C548 C 0.15095 0.87423 0.44996 0.0
C549 C 0.14338 0.89495 0.42951 0.0
C550 C 0.15012 0.87096 0.52363 0.0
C551 C 0.14214 0.8885 0.57857 0.0
C552 C 0.13524 0.90953 0.55862 0.0
C553 C 0.13562 0.91264 0.48448 0.0
C554 C 0.15157 0.89693 0.7852 0.0
C555 C 0.14029 0.87781 0.80503 0.0
C556 C 0.15184 0.90055 0.71186 0.0
C557 C 0.14123 0.88487 0.65656 0.0
C558 C 0.13009 0.8656 0.67609 0.0
C559 C 0.12938 0.86224 0.75002 0.0
H560 H 0.87073 0.66793 0.86996 0.0
H561 H 0.8747 0.59382 0.82657 0.0
H562 H 0.87509 0.6692 0.73897 0.0
H563 H 0.87849 0.59496 0.69409 0.0
H564 H 0.91029 0.60799 0.4757 0.0
H565 H 0.90568 0.60634 0.60715 0.0
H566 H 0.85545 0.66053 0.62341 0.0
H567 H 0.86055 0.66251 0.49266 0.0
C568 C 0.87227 0.65185 0.8321 0.0
C569 C 0.87235 0.63076 0.8583 0.0
C570 C 0.87466 0.65258 0.75688 0.0
C571 C 0.87713 0.6322 0.70584 0.0
C572 C 0.87692 0.61101 0.73204 0.0
C573 C 0.87456 0.6103 0.80769 0.0
C574 C 0.89844 0.61967 0.50772 0.0
C575 C 0.88589 0.63549 0.4743 0.0
C576 C 0.89561 0.61856 0.58278 0.0
C577 C 0.88012 0.63323 0.62587 0.0
C578 C 0.86773 0.64918 0.59219 0.0
C579 C 0.87062 0.65032 0.51726 0.0
H580 H 0.17138 0.14043 0.6028 0.0
H581 H 0.11175 0.09779 0.55693 0.0
H582 H 0.1712 0.14788 0.47572 0.0
H583 H 0.11162 0.10509 0.42926 0.0
H584 H 0.10323 0.14585 0.23627 0.0
H585 H 0.10416 0.13809 0.36355 0.0
H586 H 0.17698 0.12877 0.34811 0.0
H587 H 0.17602 0.1367 0.22173 0.0
C588 C 0.15845 0.13234 0.56511 0.0
C589 C 0.14162 0.11848 0.58964 0.0
C590 C 0.15833 0.13662 0.49229 0.0
C591 C 0.14127 0.12726 0.44245 0.0
C592 C 0.12478 0.11286 0.46659 0.0
C593 C 0.12501 0.10845 0.53939 0.0
C594 C 0.11943 0.14243 0.26057 0.0
C595 C 0.13956 0.14198 0.2193 0.0
C596 C 0.11995 0.13773 0.33309 0.0
C597 C 0.14064 0.13265 0.36586 0.0
C598 C 0.1608 0.13277 0.32486 0.0
C599 C 0.16024 0.13731 0.25239 0.0
H600 H 0.59557 0.38916 0.30449 0.0
H601 H 0.6629 0.36023 0.27138 0.0
H602 H 0.59538 0.39732 0.17855 0.0
H603 H 0.66248 0.36747 0.14385 0.0
H604 H 0.66438 0.40329 0.94096 0.0
H605 H 0.66473 0.39651 0.06916 0.0
H606 H 0.59277 0.38136 0.05399 0.0
H607 H 0.59239 0.3891 0.92781 0.0
C608 C 0.61019 0.38414 0.26969 0.0
C609 C 0.62919 0.37393 0.29778 0.0
C610 C 0.61009 0.38878 0.19713 0.0
C611 C 0.62894 0.38313 0.15022 0.0
C612 C 0.6478 0.37249 0.17827 0.0
C613 C 0.64796 0.36805 0.2512 0.0
C614 C 0.64862 0.39883 0.96564 0.0
C615 C 0.62834 0.3969 0.92444 0.0
C616 C 0.64883 0.39465 0.03893 0.0
C617 C 0.62878 0.38824 0.0726 0.0
C618 C 0.60849 0.38661 0.03107 0.0
C619 C 0.60827 0.39099 0.95829 0.0
H620 H 0.39825 0.85554 0.01775 0.0
H621 H 0.36763 0.92301 0.06061 0.0
H622 H 0.3958 0.85601 0.88474 0.0
H623 H 0.36479 0.92337 0.92822 0.0
H624 H 0.38492 0.92501 0.68715 0.0
H625 H 0.38864 0.92517 0.82017 0.0
H626 H 0.36609 0.85448 0.79016 0.0
H627 H 0.36276 0.85427 0.65754 0.0
C628 C 0.39103 0.87044 0.99862 0.0
C629 C 0.38313 0.88922 0.04912 0.0
C630 C 0.38949 0.87068 0.92265 0.0
C631 C 0.38005 0.88973 0.89605 0.0
C632 C 0.37239 0.90858 0.94694 0.0
C633 C 0.37391 0.90832 0.02271 0.0
C634 C 0.38067 0.90959 0.70928 0.0
C635 C 0.37355 0.88965 0.6624 0.0
C636 C 0.38275 0.90967 0.78528 0.0
C637 C 0.37778 0.88978 0.81554 0.0
C638 C 0.37041 0.86994 0.7684 0.0
C639 C 0.3683 0.86989 0.6926 0.0
H640 H 0.17806 0.70549 0.13602 0.0
H641 H 0.11099 0.69619 0.22113 0.0
H642 H 0.17098 0.74659 0.14467 0.0
H643 H 0.10387 0.73783 0.23036 0.0
H644 H 0.12178 0.82272 0.26644 0.0
H645 H 0.12597 0.783 0.28904 0.0
H646 H 0.13539 0.76008 0.0556 0.0
H647 H 0.13092 0.79941 0.0323 0.0
C648 C 0.16219 0.71249 0.16 0.0
C649 C 0.14515 0.69782 0.17865 0.0
C650 C 0.15807 0.73593 0.16415 0.0
C651 C 0.1368 0.74518 0.18704 0.0
C652 C 0.12043 0.73099 0.21268 0.0
C653 C 0.12457 0.7073 0.20829 0.0
C654 C 0.12436 0.80915 0.21974 0.0
C655 C 0.12615 0.81428 0.14748 0.0
C656 C 0.12668 0.78647 0.23288 0.0
C657 C 0.13117 0.76867 0.17412 0.0
C658 C 0.13204 0.77363 0.10181 0.0
C659 C 0.12939 0.79614 0.08851 0.0
H660 H 0.56947 0.85311 0.30114 0.0
H661 H 0.57084 0.90307 0.50151 0.0
H662 H 0.52817 0.85269 0.30485 0.0
H663 H 0.52915 0.90311 0.5042 0.0
H664 H 0.45169 0.88457 0.50287 0.0
H665 H 0.49317 0.88159 0.51535 0.0
H666 H 0.50037 0.88041 0.28042 0.0
H667 H 0.45961 0.88292 0.26776 0.0
C668 C 0.56094 0.86394 0.3463 0.0
C669 C 0.57344 0.87837 0.40042 0.0
C670 C 0.53722 0.86378 0.34828 0.0
C671 C 0.5253 0.87825 0.40393 0.0
C672 C 0.53779 0.89175 0.46061 0.0
C673 C 0.56167 0.89176 0.45896 0.0
C674 C 0.46219 0.88364 0.45405 0.0
C675 C 0.45223 0.88377 0.38426 0.0
C676 C 0.48594 0.882 0.46122 0.0
C677 C 0.50009 0.88038 0.39869 0.0
C678 C 0.49003 0.88098 0.3295 0.0
C679 C 0.46652 0.88259 0.32237 0.0
H680 H 0.36702 0.3235 0.75383 0.0
H681 H 0.40586 0.30134 0.55499 0.0
H682 H 0.36476 0.28394 0.77566 0.0
H683 H 0.4037 0.26152 0.57786 0.0
H684 H 0.41045 0.1954 0.68105 0.0
H685 H 0.41664 0.23646 0.67905 0.0
H686 H 0.34434 0.24846 0.70069 0.0
H687 H 0.33814 0.20744 0.70081 0.0
C688 C 0.37531 0.31024 0.71507 0.0
C689 C 0.38659 0.31559 0.65237 0.0
C690 C 0.37394 0.28757 0.72771 0.0
C691 C 0.38411 0.26974 0.67867 0.0
C692 C 0.39591 0.27504 0.61695 0.0
C693 C 0.39699 0.29777 0.60354 0.0
C694 C 0.39599 0.20697 0.68772 0.0
C695 C 0.3738 0.1984 0.69174 0.0
C696 C 0.39951 0.23035 0.68558 0.0
C697 C 0.38095 0.24553 0.68906 0.0
C698 C 0.35895 0.23714 0.69818 0.0
C699 C 0.35539 0.21375 0.69869 0.0
H700 H 0.96041 0.16621 0.86276 0.0
H701 H 0.94837 0.11463 0.9999 0.0
H702 H 1.00071 0.167 0.89554 0.0
H703 H 0.9891 0.11475 0.03107 0.0
H704 H 0.05952 0.09449 0.8929 0.0
H705 H 0.01962 0.10022 0.92764 0.0
H706 H 0.03247 0.17247 1.00028 0.0
H707 H 0.07285 0.16642 0.96764 0.0
C708 C 0.96633 0.1557 0.90228 0.0
C709 C 0.95144 0.14052 0.92941 0.0
C710 C 0.98937 0.15618 0.92123 0.0
C711 C 0.99804 0.14094 0.96587 0.0
C712 C 0.9828 0.12678 0.99698 0.0
C713 C 0.95956 0.12677 0.97949 0.0
C714 C 0.05399 0.11137 0.9195 0.0
C715 C 0.06911 0.12999 0.92816 0.0
C716 C 0.03119 0.11466 0.93957 0.0
C717 C 0.02294 0.1368 0.96658 0.0
C718 C 0.03844 0.15521 0.97998 0.0
C719 C 0.0615 0.15176 0.9617 0.0
H720 H 0.17853 0.30919 0.86286 0.0
H721 H 0.10929 0.31869 0.7943 0.0
H722 H 0.17086 0.26864 0.86436 0.0
H723 H 0.10182 0.27757 0.79438 0.0
H724 H 0.12028 0.19266 0.75333 0.0
H725 H 0.12382 0.2324 0.7302 0.0
H726 H 0.13665 0.25533 0.96199 0.0
H727 H 0.13276 0.21602 0.98591 0.0
C728 C 0.16183 0.30247 0.84617 0.0
C729 C 0.14443 0.31716 0.82934 0.0
C730 C 0.15746 0.2793 0.84729 0.0
C731 C 0.13571 0.27021 0.83048 0.0
C732 C 0.11872 0.28432 0.80764 0.0
C733 C 0.12303 0.30774 0.80728 0.0
C734 C 0.12348 0.20624 0.79956 0.0
C735 C 0.12633 0.20113 0.8715 0.0
C736 C 0.12543 0.22892 0.78619 0.0
C737 C 0.13061 0.24673 0.84431 0.0
C738 C 0.13269 0.24178 0.91634 0.0
C739 C 0.13038 0.21928 0.92994 0.0
H740 H 0.05933 0.92187 0.13915 0.0
H741 H 0.07174 0.85039 0.05389 0.0
H742 H 0.01932 0.91715 0.10427 0.0
H743 H 0.03121 0.84532 0.02113 0.0
H744 H 0.94825 0.9052 0.02769 0.0
H745 H 0.98903 0.9045 0.99763 0.0
H746 H 0.99916 0.84995 0.12547 0.0
H747 H 0.95879 0.85128 0.1572 0.0
C748 C 0.05356 0.90532 0.11052 0.0
C749 C 0.06846 0.88651 0.09873 0.0
C750 C 0.0307 0.90263 0.0903 0.0
C751 C 0.02217 0.88087 0.05994 0.0
C752 C 0.03742 0.8623 0.04397 0.0
C753 C 0.06054 0.86519 0.06239 0.0
C754 C 0.95911 0.89244 0.0465 0.0
C755 C 0.95057 0.87818 0.09422 0.0
C756 C 0.98238 0.8921 0.02967 0.0
C757 C 0.99721 0.87714 0.05915 0.0
C758 C 0.98811 0.86141 0.10111 0.0
C759 C 0.96504 0.86218 0.11941 0.0
H760 H 0.37422 0.69404 0.26977 0.0
H761 H 0.40564 0.71917 0.48072 0.0
H762 H 0.37305 0.73312 0.24194 0.0
H763 H 0.40469 0.75833 0.452 0.0
H764 H 0.41476 0.82354 0.34996 0.0
H765 H 0.42112 0.78263 0.35472 0.0
H766 H 0.35019 0.76884 0.3049 0.0
H767 H 0.34378 0.80969 0.30208 0.0
C768 C 0.38113 0.70785 0.3099 0.0
C769 C 0.38993 0.70351 0.37774 0.0
C770 C 0.38042 0.73022 0.29383 0.0
C771 C 0.38887 0.7487 0.3446 0.0
C772 C 0.3983 0.74433 0.4115 0.0
C773 C 0.39866 0.72197 0.42821 0.0
C774 C 0.40076 0.81159 0.33749 0.0
C775 C 0.37881 0.81961 0.32492 0.0
C776 C 0.40433 0.78829 0.34116 0.0
C777 C 0.38611 0.77265 0.33073 0.0
C778 C 0.36455 0.78049 0.31275 0.0
C779 C 0.3609 0.8038 0.31075 0.0
H780 H 0.57058 0.13109 0.52071 0.0
H781 H 0.56524 0.14873 0.75826 0.0
H782 H 0.52899 0.13189 0.51091 0.0
H783 H 0.52433 0.1487 0.74874 0.0
H784 H 0.45286 0.16706 0.71994 0.0
H785 H 0.49389 0.17003 0.71201 0.0
H786 H 0.49485 0.11123 0.53704 0.0
H787 H 0.4532 0.10898 0.54303 0.0
C788 C 0.56061 0.13523 0.5707 0.0
C789 C 0.57135 0.13999 0.64021 0.0
C790 C 0.53677 0.13551 0.56512 0.0
C791 C 0.52322 0.14055 0.62895 0.0
C792 C 0.53409 0.14532 0.69812 0.0
C793 C 0.55772 0.14518 0.70363 0.0
C794 C 0.46179 0.15485 0.67933 0.0
C795 C 0.44989 0.13754 0.63296 0.0
C796 C 0.48537 0.15648 0.67496 0.0
C797 C 0.49784 0.14053 0.62514 0.0
C798 C 0.48583 0.12383 0.57602 0.0
C799 C 0.462 0.12245 0.57958 0.0
H800 H 0.86616 0.19514 0.78362 0.0
H801 H 0.9046 0.21876 0.98275 0.0
H802 H 0.86292 0.23453 0.76045 0.0
H803 H 0.90148 0.2584 0.95852 0.0
H804 H 0.9079 0.32336 0.84815 0.0
H805 H 0.91427 0.28265 0.85481 0.0
H806 H 0.84202 0.27023 0.83385 0.0
H807 H 0.83559 0.31098 0.82897 0.0
C808 C 0.87412 0.20871 0.8222 0.0
C809 C 0.88562 0.20383 0.88527 0.0
C810 C 0.87218 0.23126 0.80883 0.0
C811 C 0.88201 0.24942 0.85749 0.0
C812 C 0.89394 0.24461 0.91978 0.0
C813 C 0.89556 0.222 0.93394 0.0
C814 C 0.89346 0.31179 0.84299 0.0
C815 C 0.87123 0.3202 0.83772 0.0
C816 C 0.8971 0.28861 0.84771 0.0
C817 C 0.87862 0.27343 0.84555 0.0
C818 C 0.85656 0.28159 0.83549 0.0
C819 C 0.85288 0.30483 0.83236 0.0
H820 H 0.67963 0.81412 0.41463 0.0
H821 H 0.61581 0.82188 0.30478 0.0
H822 H 0.67361 0.77277 0.40087 0.0
H823 H 0.60969 0.77997 0.29081 0.0
H824 H 0.6275 0.69617 0.25676 0.0
H825 H 0.63215 0.73628 0.23885 0.0
H826 H 0.63754 0.75719 0.47479 0.0
H827 H 0.63269 0.71751 0.4933 0.0
C828 C 0.66474 0.80677 0.38478 0.0
C829 C 0.6482 0.821 0.36056 0.0
C830 C 0.66122 0.78318 0.37749 0.0
C831 C 0.64104 0.7734 0.34608 0.0
C832 C 0.6254 0.78725 0.31521 0.0
C833 C 0.62897 0.81109 0.32252 0.0
C834 C 0.62939 0.70938 0.30488 0.0
C835 C 0.62993 0.70361 0.37653 0.0
C836 C 0.63195 0.73227 0.29443 0.0
C837 C 0.63542 0.74962 0.35538 0.0
C838 C 0.63507 0.74399 0.4269 0.0
C839 C 0.63221 0.72128 0.43745 0.0
H840 H 0.83958 0.70749 0.20211 0.0
H841 H 0.91188 0.69578 0.17836 0.0
H842 H 0.84538 0.74835 0.19807 0.0
H843 H 0.91763 0.73665 0.17256 0.0
H844 H 0.90571 0.80029 0.0446 0.0
H845 H 0.90378 0.76074 0.07007 0.0
H846 H 0.86604 0.78431 0.26963 0.0
H847 H 0.86809 0.82364 0.24516 0.0
C848 C 0.85675 0.71383 0.19802 0.0
C849 C 0.87527 0.69861 0.19104 0.0
C850 C 0.86007 0.73713 0.19539 0.0
C851 C 0.88192 0.74553 0.18421 0.0
C852 C 0.90061 0.73051 0.18061 0.0
C853 C 0.89734 0.70724 0.18482 0.0
C854 C 0.89712 0.79702 0.09403 0.0
C855 C 0.88701 0.81508 0.14264 0.0
C856 C 0.89619 0.77446 0.10892 0.0
C857 C 0.88481 0.76957 0.17194 0.0
C858 C 0.87489 0.78764 0.22069 0.0
C859 C 0.87612 0.81015 0.20655 0.0
H860 H 0.61098 0.1986 0.7265 0.0
H861 H 0.67924 0.2059 0.64798 0.0
H862 H 0.6052 0.24039 0.73515 0.0
H863 H 0.6735 0.24721 0.65611 0.0
H864 H 0.63391 0.29936 0.53457 0.0
H865 H 0.63865 0.26048 0.56205 0.0
H866 H 0.62821 0.28542 0.79391 0.0
H867 H 0.6238 0.32468 0.76704 0.0
C868 C 0.6251 0.20931 0.71523 0.0
C869 C 0.64563 0.19924 0.68735 0.0
C870 C 0.62173 0.23309 0.71933 0.0
C871 C 0.63885 0.24677 0.69522 0.0
C872 C 0.66005 0.23693 0.67456 0.0
C873 C 0.6634 0.21338 0.67067 0.0
C874 C 0.63234 0.29661 0.59132 0.0
C875 C 0.62861 0.31513 0.64859 0.0
C876 C 0.63514 0.27439 0.60702 0.0
C877 C 0.63391 0.27014 0.68008 0.0
C878 C 0.62922 0.28837 0.73723 0.0
C879 C 0.62678 0.31076 0.72169 0.0
H880 H 0.94934 0.40662 0.99006 0.0
H881 H 0.94967 0.34754 0.81663 0.0
H882 H 0.99105 0.40519 0.9959 0.0
H883 H 0.99087 0.34557 0.82405 0.0
H884 H 0.0597 0.37173 0.76854 0.0
H885 H 0.01898 0.37014 0.7829 0.0
H886 H 0.02651 0.38421 0.02038 0.0
H887 H 0.06794 0.38634 1.00594 0.0
C888 C 0.95831 0.39302 0.95463 0.0
C889 C 0.94641 0.37746 0.90192 0.0
C890 C 0.98214 0.39215 0.95805 0.0
C891 C 0.99429 0.37557 0.90927 0.0
C892 C 0.98209 0.35897 0.86089 0.0
C893 C 0.95847 0.36003 0.85679 0.0
C894 C 0.05286 0.3744 0.82408 0.0
C895 C 0.06719 0.37907 0.88613 0.0
C896 C 0.0294 0.37331 0.83231 0.0
C897 C 0.01946 0.3767 0.90284 0.0
C898 C 0.03367 0.38152 0.96529 0.0
C899 C 0.05737 0.38264 0.95701 0.0
H900 H 0.44803 0.66722 0.46543 0.0
H901 H 0.45937 0.59391 0.42841 0.0
H902 H 0.48898 0.67361 0.4852 0.0
H903 H 0.50006 0.60024 0.44977 0.0
H904 H 0.55805 0.66068 0.33975 0.0
H905 H 0.51828 0.66268 0.37774 0.0
H906 H 0.53288 0.61869 0.53864 0.0
H907 H 0.57319 0.6174 0.50178 0.0
C908 C 0.45916 0.65251 0.46422 0.0
C909 C 0.45069 0.63007 0.44459 0.0
C910 C 0.48255 0.65616 0.47544 0.0
C911 C 0.49767 0.63741 0.46887 0.0
C912 C 0.48881 0.61499 0.45597 0.0
C913 C 0.46556 0.61137 0.44325 0.0
C914 C 0.5529 0.65221 0.38528 0.0
C915 C 0.56851 0.63898 0.41818 0.0
C916 C 0.53018 0.65341 0.40724 0.0
C917 C 0.52249 0.64083 0.4611 0.0
C918 C 0.53843 0.62863 0.49721 0.0
C919 C 0.56142 0.62797 0.47649 0.0
H920 H 0.46077 0.36115 0.69917 0.0
H921 H 0.44376 0.39915 0.52448 0.0
H922 H 0.50037 0.35896 0.65923 0.0
H923 H 0.48394 0.39782 0.48588 0.0
H924 H 0.56939 0.35173 0.5626 0.0
H925 H 0.52839 0.3453 0.54519 0.0
H926 H 0.51737 0.41863 0.57501 0.0
H927 H 0.55817 0.42506 0.5944 0.0
C928 C 0.4655 0.36848 0.65086 0.0
C929 C 0.44942 0.38027 0.61467 0.0
C930 C 0.48809 0.36714 0.62777 0.0
C931 C 0.49515 0.37817 0.5694 0.0
C932 C 0.47882 0.38903 0.53067 0.0
C933 C 0.45594 0.38975 0.55251 0.0
C934 C 0.55826 0.36642 0.56298 0.0
C935 C 0.56677 0.3889 0.58077 0.0
C936 C 0.53487 0.36273 0.55301 0.0
C937 C 0.5198 0.38148 0.55889 0.0
C938 C 0.52865 0.40389 0.56944 0.0
C939 C 0.55194 0.40757 0.58102 0.0
H940 H 0.07115 0.63047 0.01346 0.0
H941 H 0.06616 0.64923 0.25079 0.0
H942 H 0.02963 0.63279 1.00385 0.0
H943 H 0.0253 0.65071 0.24149 0.0
H944 H 0.95422 0.67016 0.21392 0.0
H945 H 0.99531 0.67255 0.20439 0.0
H946 H 0.99505 0.61325 0.03116 0.0
H947 H 0.95345 0.61162 0.03872 0.0
C948 C 0.06128 0.63517 0.06343 0.0
C949 C 0.07209 0.63975 0.13283 0.0
C950 C 0.03747 0.63634 0.05797 0.0
C951 C 0.02402 0.64212 0.12181 0.0
C952 C 0.03498 0.64677 0.19084 0.0
C953 C 0.05858 0.64573 0.19622 0.0
C954 C 0.96291 0.65779 0.17316 0.0
C955 C 0.9507 0.6405 0.12779 0.0
C956 C 0.98651 0.65906 0.16791 0.0
C957 C 0.99866 0.64275 0.11825 0.0
C958 C 0.9863 0.62614 0.06993 0.0
C959 C 0.96249 0.62513 0.07436 0.0
H960 H 0.16562 0.56759 0.05103 0.0
H961 H 0.09847 0.55804 0.13593 0.0
H962 H 0.16516 0.52798 0.98475 0.0
H963 H 0.09794 0.51858 0.06948 0.0
H964 H 0.09729 0.45821 0.87354 0.0
H965 H 0.09765 0.49796 0.93748 0.0
H966 H 0.16502 0.4878 0.02082 0.0
H967 H 0.1646 0.44789 0.957 0.0
C968 C 0.15072 0.55707 0.05502 0.0
C969 C 0.1321 0.5658 0.09869 0.0
C970 C 0.15052 0.53439 0.0176 0.0
C971 C 0.13156 0.52018 0.02234 0.0
C972 C 0.11273 0.52917 0.06454 0.0
C973 C 0.11305 0.55172 0.10265 0.0
C974 C 0.11213 0.46446 0.90576 0.0
C975 C 0.13093 0.45003 0.9103 0.0
C976 C 0.11231 0.48717 0.94246 0.0
C977 C 0.1314 0.496 0.98381 0.0
C978 C 0.15019 0.48152 0.98861 0.0
C979 C 0.14989 0.45867 0.95259 0.0
H980 H 0.7221 0.92349 0.35694 0.0
H981 H 0.71558 0.8499 0.30185 0.0
H982 H 0.76064 0.92118 0.30568 0.0
H983 H 0.75443 0.84711 0.25551 0.0
H984 H 0.80761 0.85149 0.08195 0.0
H985 H 0.77229 0.85403 0.15014 0.0
H986 H 0.79932 0.91085 0.30533 0.0
H987 H 0.83444 0.9091 0.23294 0.0
C988 C 0.72929 0.90677 0.33594 0.0
C989 C 0.71604 0.88687 0.33284 0.0
C990 C 0.75138 0.90537 0.30668 0.0
C991 C 0.76067 0.88397 0.27484 0.0
C992 C 0.74772 0.86398 0.27702 0.0
C993 C 0.72555 0.86548 0.30446 0.0
C994 C 0.80607 0.8645 0.13075 0.0
C995 C 0.82384 0.88 0.1523 0.0
C996 C 0.78582 0.86582 0.17066 0.0
C997 C 0.78284 0.88246 0.23434 0.0
C998 C 0.80082 0.89791 0.25641 0.0
C999 C 0.82105 0.8968 0.21541 0.0
H1000 H 0.40541 0.44402 0.47885 0.0
H1001 H 0.37066 0.47181 0.68133 0.0
H1002 H 0.40376 0.48125 0.43915 0.0
H1003 H 0.36869 0.50928 0.64057 0.0
H1004 H 0.39261 0.57757 0.57986 0.0
H1005 H 0.39301 0.54038 0.61905 0.0
H1006 H 0.3772 0.50782 0.39635 0.0
H1007 H 0.37724 0.54549 0.35601 0.0
C1008 C 0.3974 0.45809 0.51517 0.0
C1009 C 0.38818 0.45487 0.58362 0.0
C1010 C 0.39628 0.47944 0.49181 0.0
C1011 C 0.38591 0.49824 0.53614 0.0
C1012 C 0.37697 0.49518 0.6052 0.0
C1013 C 0.37811 0.47372 0.62872 0.0
C1014 C 0.38918 0.56258 0.53872 0.0
C1015 C 0.38496 0.56461 0.46435 0.0
C1016 C 0.38923 0.54117 0.56169 0.0
C1017 C 0.38506 0.52107 0.51115 0.0
C1018 C 0.38072 0.52299 0.43668 0.0
C1019 C 0.38065 0.54455 0.4135 0.0
H1020 H 0.81414 0.17233 0.90072 0.0
H1021 H 0.82999 0.10106 0.82147 0.0
H1022 H 0.77847 0.16823 0.8302 0.0
H1023 H 0.79385 0.09681 0.75305 0.0
H1024 H 0.71009 0.10459 0.78721 0.0
H1025 H 0.74986 0.10606 0.82765 0.0
H1026 H 0.76541 0.15201 0.67409 0.0
H1027 H 0.72558 0.14979 0.63113 0.0
C1028 C 0.81006 0.15587 0.86768 0.0
C1029 C 0.82465 0.13695 0.86688 0.0
C1030 C 0.78979 0.15359 0.82707 0.0
C1031 C 0.78358 0.13224 0.78629 0.0
C1032 C 0.79843 0.11346 0.78388 0.0
C1033 C 0.81899 0.11589 0.82302 0.0
C1034 C 0.72213 0.11458 0.76094 0.0
C1035 C 0.71491 0.12701 0.70598 0.0
C1036 C 0.74482 0.11536 0.7839 0.0
C1037 C 0.76055 0.1291 0.75376 0.0
C1038 C 0.75351 0.1412 0.69765 0.0
C1039 C 0.73087 0.13987 0.67303 0.0
H1040 H 0.92047 0.5572 0.14991 0.0
H1041 H 0.85373 0.56972 0.0659 0.0
H1042 H 0.91946 0.51787 0.08258 0.0
H1043 H 0.85266 0.53022 0.99871 0.0
H1044 H 0.91878 0.45986 0.87975 0.0
H1045 H 0.91926 0.49902 0.94826 0.0
H1046 H 0.8518 0.48925 0.03055 0.0
H1047 H 0.85139 0.44985 0.96209 0.0
C1048 C 0.9056 0.55151 0.11695 0.0
C1049 C 0.88717 0.56643 0.11307 0.0
C1050 C 0.90505 0.52906 0.0783 0.0
C1051 C 0.88596 0.521 0.03564 0.0
C1052 C 0.86749 0.53593 0.03181 0.0
C1053 C 0.86816 0.55853 0.06979 0.0
C1054 C 0.90409 0.46606 0.91265 0.0
C1055 C 0.88504 0.4519 0.91561 0.0
C1056 C 0.90439 0.48842 0.95201 0.0
C1057 C 0.88555 0.49716 0.99453 0.0
C1058 C 0.86647 0.48298 0.99761 0.0
C1059 C 0.86628 0.46046 0.95889 0.0
H1060 H 0.18951 0.10497 0.7985 0.0
H1061 H 0.20426 0.17484 0.8988 0.0
H1062 H 0.22637 0.10277 0.73458 0.0
H1063 H 0.2405 0.17289 0.83413 0.0
H1064 H 0.3133 0.14822 0.82266 0.0
H1065 H 0.27415 0.15086 0.86016 0.0
H1066 H 0.25325 0.11852 0.64209 0.0
H1067 H 0.29347 0.11557 0.60324 0.0
C1068 C 0.20043 0.11997 0.8057 0.0
C1069 C 0.1943 0.13993 0.85479 0.0
C1070 C 0.22143 0.11876 0.76876 0.0
C1071 C 0.23652 0.13752 0.7803 0.0
C1072 C 0.22948 0.15796 0.82527 0.0
C1073 C 0.20871 0.1591 0.86234 0.0
C1074 C 0.3006 0.14159 0.78187 0.0
C1075 C 0.30674 0.13167 0.70949 0.0
C1076 C 0.27795 0.14333 0.80358 0.0
C1077 C 0.2605 0.13525 0.75394 0.0
C1078 C 0.26638 0.12498 0.68154 0.0
C1079 C 0.28935 0.12336 0.65927 0.0
H1080 H 0.61236 0.57407 0.54495 0.0
H1081 H 0.65049 0.54733 0.34848 0.0
H1082 H 0.61431 0.53696 0.58536 0.0
H1083 H 0.65288 0.50997 0.39002 0.0
H1084 H 0.6301 0.4411 0.44731 0.0
H1085 H 0.62979 0.47813 0.40783 0.0
H1086 H 0.64017 0.5113 0.63344 0.0
H1087 H 0.63987 0.47367 0.67417 0.0
C1088 C 0.62121 0.56022 0.51021 0.0
C1089 C 0.6313 0.56368 0.44329 0.0
C1090 C 0.62251 0.53896 0.53397 0.0
C1091 C 0.63399 0.5205 0.49165 0.0
C1092 C 0.64375 0.52379 0.42387 0.0
C1093 C 0.64234 0.54515 0.39979 0.0
C1094 C 0.63242 0.45617 0.48912 0.0
C1095 C 0.63497 0.45429 0.5644 0.0
C1096 C 0.63242 0.47752 0.46595 0.0
C1097 C 0.63504 0.49776 0.51712 0.0
C1098 C 0.63785 0.49602 0.59251 0.0
C1099 C 0.63779 0.47448 0.61596 0.0
H1100 H 0.31461 0.8659 0.19502 0.0
H1101 H 0.29408 0.89951 0.41222 0.0
H1102 H 0.27543 0.8628 0.15602 0.0
H1103 H 0.25402 0.89598 0.37246 0.0
H1104 H 0.19003 0.90934 0.22235 0.0
H1105 H 0.22725 0.91117 0.28402 0.0
H1106 H 0.24151 0.8418 0.1769 0.0
H1107 H 0.20489 0.84031 0.11412 0.0
C1108 C 0.30171 0.87254 0.23496 0.0
C1109 C 0.30762 0.88298 0.30702 0.0
C1110 C 0.27909 0.87055 0.21252 0.0
C1111 C 0.2615 0.87886 0.26128 0.0
C1112 C 0.26721 0.8894 0.33357 0.0
C1113 C 0.29011 0.89134 0.35642 0.0
C1114 C 0.20109 0.89444 0.21284 0.0
C1115 C 0.19484 0.87485 0.16232 0.0
C1116 C 0.22231 0.89543 0.24848 0.0
C1117 C 0.23753 0.87679 0.23434 0.0
C1118 C 0.23045 0.85668 0.18764 0.0
C1119 C 0.20944 0.85578 0.15177 0.0
H1120 H 0.59897 0.95913 0.382 0.0
H1121 H 0.66566 0.95056 0.47303 0.0
H1122 H 0.59801 0.99898 0.44564 0.0
H1123 H 0.66477 0.99048 0.53611 0.0
H1124 H 0.66474 0.06975 0.559 0.0
H1125 H 0.66457 0.03005 0.49381 0.0
H1126 H 0.59752 0.02025 0.57918 0.0
H1127 H 0.59777 0.05985 0.64488 0.0
C1128 C 0.61335 0.96577 0.41593 0.0
C1129 C 0.63241 0.95188 0.42255 0.0
C1130 C 0.61278 0.98851 0.45233 0.0
C1131 C 0.63139 0.99781 0.49518 0.0
C1132 C 0.65033 0.98379 0.50258 0.0
C1133 C 0.65077 0.96095 0.46699 0.0
C1134 C 0.64993 0.05914 0.56333 0.0
C1135 C 0.63131 0.06774 0.60715 0.0
C1136 C 0.64989 0.03643 0.52652 0.0
C1137 C 0.63111 0.02209 0.53205 0.0
C1138 C 0.61219 0.03097 0.5739 0.0
C1139 C 0.61235 0.05358 0.61151 0.0
H1140 H 0.22429 0.39989 0.91553 0.0
H1141 H 0.20444 0.36699 0.69647 0.0
H1142 H 0.26443 0.39736 0.87658 0.0
H1143 H 0.24363 0.36484 0.65846 0.0
H1144 H 0.31392 0.34308 0.61738 0.0
H1145 H 0.27772 0.34379 0.68174 0.0
H1146 H 0.2907 0.4136 0.78732 0.0
H1147 H 0.32758 0.41255 0.72412 0.0
C1148 C 0.22843 0.39211 0.8595 0.0
C1149 C 0.21112 0.38358 0.80936 0.0
C1150 C 0.25134 0.39073 0.83719 0.0
C1151 C 0.25721 0.38059 0.76475 0.0
C1152 C 0.23981 0.37224 0.71513 0.0
C1153 C 0.21719 0.37368 0.73703 0.0
C1154 C 0.30919 0.35847 0.65506 0.0
C1155 C 0.32324 0.37792 0.66464 0.0
C1156 C 0.28846 0.3589 0.6919 0.0
C1157 C 0.28112 0.37893 0.73837 0.0
C1158 C 0.29588 0.39793 0.75187 0.0
C1159 C 0.31687 0.3974 0.71537 0.0
H1160 H 0.87863 0.97269 0.17382 0.0
H1161 H 0.90293 0.94226 0.95745 0.0
H1162 H 0.87946 0.01064 0.13562 0.0
H1163 H 0.90399 0.97978 0.92032 0.0
H1164 H 0.87885 0.04686 0.85144 0.0
H1165 H 0.87823 0.00915 0.89068 0.0
H1166 H 0.90607 0.03906 0.10276 0.0
H1167 H 0.90644 0.07653 0.06444 0.0
C1168 C 0.88431 0.97407 0.11858 0.0
C1169 C 0.89057 0.95436 0.06883 0.0
C1170 C 0.88482 0.9958 0.09662 0.0
C1171 C 0.89159 0.99821 0.02453 0.0
C1172 C 0.89822 0.97853 0.97558 0.0
C1173 C 0.89773 0.95696 0.99735 0.0
C1174 C 0.88502 0.04534 0.90612 0.0
C1175 C 0.89268 0.06477 0.95453 0.0
C1176 C 0.88467 0.02373 0.92872 0.0
C1177 C 0.89197 0.02111 1.00019 0.0
C1178 C 0.89994 0.0405 0.04796 0.0
C1179 C 0.90032 0.062 0.02547 0.0
H1180 H 0.21076 0.60293 0.27943 0.0
H1181 H 0.22596 0.65043 0.13044 0.0
H1182 H 0.25017 0.60524 0.32325 0.0
H1183 H 0.26543 0.65345 0.17667 0.0
H1184 H 0.31495 0.67396 0.395 0.0
H1185 H 0.27928 0.66934 0.32432 0.0
H1186 H 0.29322 0.59696 0.26087 0.0
H1187 H 0.32922 0.60166 0.32953 0.0
C1188 C 0.22269 0.6136 0.25535 0.0
C1189 C 0.21547 0.6264 0.20136 0.0
C1190 C 0.24518 0.61489 0.28032 0.0
C1191 C 0.26073 0.62952 0.25329 0.0
C1192 C 0.25369 0.64201 0.19811 0.0
C1193 C 0.23126 0.64019 0.17146 0.0
C1194 C 0.31051 0.65715 0.3651 0.0
C1195 C 0.32469 0.63814 0.36812 0.0
C1196 C 0.29025 0.65455 0.32434 0.0
C1197 C 0.28362 0.63281 0.28721 0.0
C1198 C 0.29804 0.6139 0.28894 0.0
C1199 C 0.31855 0.61659 0.32825 0.0
H1200 H 0.35774 0.94396 0.48821 0.0
H1201 H 0.41015 0.967 0.35279 0.0
H1202 H 0.35561 0.98262 0.56107 0.0
H1203 H 0.40792 1.00559 0.4251 0.0
H1204 H 0.37956 0.07709 0.52253 0.0
H1205 H 0.37995 0.03848 0.44867 0.0
H1206 H 0.38093 1.00872 0.64885 0.0
H1207 H 0.3806 0.04725 0.72235 0.0
C1208 C 0.3688 0.95729 0.47414 0.0
C1209 C 0.38412 0.9525 0.41496 0.0
C1210 C 0.36762 0.97937 0.51584 0.0
C1211 C 0.38153 0.99716 0.49855 0.0
C1212 C 0.39679 0.99232 0.43915 0.0
C1213 C 0.39816 0.9702 0.39809 0.0
C1214 C 0.37974 0.06226 0.55052 0.0
C1215 C 0.38007 0.06508 0.62799 0.0
C1216 C 0.38008 0.0402 0.50838 0.0
C1217 C 0.38049 0.02058 0.54302 0.0
C1218 C 0.38041 0.02349 0.6206 0.0
C1219 C 0.38034 0.04552 0.66264 0.0
H1220 H 0.81552 0.63718 0.33432 0.0
H1221 H 0.79377 0.62016 0.10647 0.0
H1222 H 0.77637 0.64027 0.37394 0.0
H1223 H 0.75383 0.62328 0.14755 0.0
H1224 H 0.6879 0.60706 0.29203 0.0
H1225 H 0.72527 0.6036 0.23106 0.0
H1226 H 0.74524 0.6687 0.35839 0.0
H1227 H 0.70832 0.67208 0.41903 0.0
C1228 C 0.80241 0.634 0.29232 0.0
C1229 C 0.80794 0.62858 0.21685 0.0
C1230 C 0.77987 0.63592 0.31533 0.0
C1231 C 0.76203 0.63238 0.26385 0.0
C1232 C 0.7673 0.62617 0.18838 0.0
C1233 C 0.79012 0.62442 0.16495 0.0
C1234 C 0.70022 0.62073 0.30601 0.0
C1235 C 0.69539 0.63966 0.3611 0.0
C1236 C 0.72151 0.6188 0.27091 0.0
C1237 C 0.73825 0.63572 0.2908 0.0
C1238 C 0.73281 0.65521 0.34284 0.0
C1239 C 0.71166 0.65715 0.37754 0.0
H1240 H 0.14617 0.04369 0.84511 0.0
H1241 H 0.12341 0.07476 0.06269 0.0
H1242 H 0.14708 1.00613 0.88615 0.0
H1243 H 0.12395 0.03768 0.10247 0.0
H1244 H 0.14738 0.97097 0.17455 0.0
H1245 H 0.14921 1.00833 0.13271 0.0
H1246 H 0.12127 0.9779 0.92129 0.0
H1247 H 0.11981 0.94091 0.9619 0.0
C1248 C 0.14127 0.04255 0.90128 0.0
C1249 C 0.13479 0.06233 0.95031 0.0
C1250 C 0.14176 0.02104 0.92491 0.0
C1251 C 0.13575 0.0189 0.99797 0.0
C1252 C 0.12917 0.03869 0.04647 0.0
C1253 C 0.1287 0.06003 0.02309 0.0
C1254 C 0.14157 0.97232 0.11934 0.0
C1255 C 0.13341 0.95288 0.07199 0.0
C1256 C 0.1426 0.99371 0.09523 0.0
C1257 C 0.13549 0.99611 0.0233 0.0
C1258 C 0.12729 0.97666 0.97637 0.0
C1259 C 0.12626 0.95541 1.00028 0.0
H1260 H 0.70636 0.3464 0.59787 0.0
H1261 H 0.68481 0.41137 0.72251 0.0
H1262 H 0.74296 0.35024 0.66125 0.0
H1263 H 0.72175 0.41521 0.78646 0.0
H1264 H 0.78957 0.39811 0.91699 0.0
H1265 H 0.74986 0.39476 0.87291 0.0
H1266 H 0.77369 0.38003 0.64779 0.0
H1267 H 0.81258 0.38345 0.69021 0.0
C1268 C 0.70938 0.36141 0.63938 0.0
C1269 C 0.6929 0.37873 0.65452 0.0
C1270 C 0.73031 0.36359 0.67572 0.0
C1271 C 0.73525 0.38314 0.72818 0.0
C1272 C 0.71833 0.39994 0.74645 0.0
C1273 C 0.69729 0.39779 0.70964 0.0
C1274 C 0.78624 0.39434 0.85816 0.0
C1275 C 0.80434 0.39086 0.80739 0.0
C1276 C 0.76357 0.39244 0.83304 0.0
C1277 C 0.75878 0.38675 0.75702 0.0
C1278 C 0.77687 0.38397 0.70673 0.0
C1279 C 0.79925 0.38606 0.7314 0.0
loop_
_geom_bond_atom_site_label_1
_geom_bond_atom_site_label_2
_geom_bond_distance
_geom_bond_site_symmetry_2
_ccdc_geom_bond_type
Dy0 O4 2.398 1_554 S
Dy0 O5 2.491 1_554 S
Dy0 O6 2.403 . S
Dy0 O7 2.664 . S
Dy0 O11 2.326 . S
Dy0 O15 2.310 . S
Dy0 O16 2.351 . S
C1 O12 1.185 . S
C1 O13 1.355 . S
C2 O4 1.185 . S
C2 O5 1.355 . S
Dy3 O7 2.310 . S
Dy3 O10 2.351 . S
Dy3 O12 2.398 . S
Dy3 O13 2.491 . S
Dy3 O14 2.403 . S
Dy3 O15 2.664 . S
Dy3 O17 2.326 . S
O4 Dy0 2.398 1_556 S
O4 C2 1.185 . S
O5 Dy0 2.491 1_556 S
O5 C2 1.355 . S
O6 Dy0 2.403 . S
O6 C8 1.254 . S
O7 Dy0 2.664 . S
O7 Dy3 2.310 . S
O7 C8 1.268 . S
C8 O6 1.254 . S
C8 O7 1.268 . S
C9 O14 1.254 . S
C9 O15 1.268 . S
O10 Dy3 2.351 . S
O10 C18 1.249 . S
O11 Dy0 2.326 . S
O11 C18 1.267 . S
O12 C1 1.185 . S
O12 Dy3 2.398 . S
O13 C1 1.355 . S
O13 Dy3 2.491 . S
O14 Dy3 2.403 . S
O14 C9 1.254 . S
O15 Dy0 2.310 . S
O15 Dy3 2.664 . S
O15 C9 1.268 . S
O16 Dy0 2.351 . S
O16 C19 1.249 . S
O17 Dy3 2.326 . S
O17 C19 1.267 . S
C18 O10 1.249 . S
C18 O11 1.267 . S
C19 O16 1.249 . S
C19 O17 1.267 . S
Dy20 O24 2.398 . S
Dy20 O25 2.491 . S
Dy20 O26 2.403 . S
Dy20 O27 2.664 . S
Dy20 O31 2.326 . S
Dy20 O35 2.310 . S
Dy20 O36 2.351 . S
C21 O32 1.185 . S
C21 O33 1.355 . S
C22 O24 1.185 . S
C22 O25 1.355 . S
Dy23 O27 2.310 . S
Dy23 O30 2.351 . S
Dy23 O32 2.398 . S
Dy23 O33 2.491 . S
Dy23 O34 2.403 . S
Dy23 O35 2.664 . S
Dy23 O37 2.326 . S
O24 Dy20 2.398 . S
O24 C22 1.185 . S
O25 Dy20 2.491 . S
O25 C22 1.355 . S
O26 Dy20 2.403 . S
O26 C28 1.254 . S
O27 Dy20 2.664 . S
O27 Dy23 2.310 . S
O27 C28 1.268 . S
C28 O26 1.254 . S
C28 O27 1.268 . S
C29 O34 1.254 . S
C29 O35 1.268 . S
O30 Dy23 2.351 . S
O30 C38 1.249 . S
O31 Dy20 2.326 . S
O31 C38 1.267 . S
O32 C21 1.185 . S
O32 Dy23 2.398 . S
O33 C21 1.355 . S
O33 Dy23 2.491 . S
O34 Dy23 2.403 . S
O34 C29 1.254 . S
O35 Dy20 2.310 . S
O35 Dy23 2.664 . S
O35 C29 1.268 . S
O36 Dy20 2.351 . S
O36 C39 1.249 . S
O37 Dy23 2.326 . S
O37 C39 1.267 . S
C38 O30 1.249 . S
C38 O31 1.267 . S
C39 O36 1.249 . S
C39 O37 1.267 . S
Dy40 O44 2.398 . S
Dy40 O45 2.491 . S
Dy40 O46 2.403 . S
Dy40 O47 2.664 . S
Dy40 O51 2.326 . S
Dy40 O55 2.310 . S
Dy40 O56 2.351 . S
C41 O52 1.185 . S
C41 O53 1.355 . S
C42 O44 1.185 . S
C42 O45 1.355 . S
Dy43 O47 2.310 . S
Dy43 O50 2.351 . S
Dy43 O52 2.398 . S
Dy43 O53 2.491 . S
Dy43 O54 2.403 . S
Dy43 O55 2.664 . S
Dy43 O57 2.326 . S
O44 Dy40 2.398 . S
O44 C42 1.185 . S
O45 Dy40 2.491 . S
O45 C42 1.355 . S
O46 Dy40 2.403 . S
O46 C48 1.254 . S
O47 Dy40 2.664 . S
O47 Dy43 2.310 . S
O47 C48 1.268 . S
C48 O46 1.254 . S
C48 O47 1.268 . S
C49 O54 1.254 . S
C49 O55 1.268 . S
O50 Dy43 2.351 . S
O50 C58 1.249 . S
O51 Dy40 2.326 . S
O51 C58 1.267 . S
O52 C41 1.185 . S
O52 Dy43 2.398 . S
O53 C41 1.355 . S
O53 Dy43 2.491 . S
O54 Dy43 2.403 . S
O54 C49 1.254 . S
O55 Dy40 2.310 . S
O55 Dy43 2.664 . S
O55 C49 1.268 . S
O56 Dy40 2.351 . S
O56 C59 1.249 . S
O57 Dy43 2.326 . S
O57 C59 1.267 . S
C58 O50 1.249 . S
C58 O51 1.267 . S
C59 O56 1.249 . S
C59 O57 1.267 . S
Dy60 O64 2.398 . S
Dy60 O65 2.491 . S
Dy60 O66 2.403 . S
Dy60 O67 2.664 . S
Dy60 O71 2.326 . S
Dy60 O75 2.310 . S
Dy60 O76 2.351 . S
C61 O72 1.185 . S
C61 O73 1.355 . S
C62 O64 1.185 . S
C62 O65 1.355 . S
Dy63 O67 2.310 . S
Dy63 O70 2.351 . S
Dy63 O72 2.398 1_556 S
Dy63 O73 2.491 1_556 S
Dy63 O74 2.403 . S
Dy63 O75 2.664 . S
Dy63 O77 2.326 . S
O64 Dy60 2.398 . S
O64 C62 1.185 . S
O65 Dy60 2.491 . S
O65 C62 1.355 . S
O66 Dy60 2.403 . S
O66 C68 1.254 . S
O67 Dy60 2.664 . S
O67 Dy63 2.310 . S
O67 C68 1.268 . S
C68 O66 1.254 . S
C68 O67 1.268 . S
C69 O74 1.254 . S
C69 O75 1.268 . S
O70 Dy63 2.351 . S
O70 C78 1.249 . S
O71 Dy60 2.326 . S
O71 C78 1.267 . S
O72 C61 1.185 . S
O72 Dy63 2.398 1_554 S
O73 C61 1.355 . S
O73 Dy63 2.491 1_554 S
O74 Dy63 2.403 . S
O74 C69 1.254 . S
O75 Dy60 2.310 . S
O75 Dy63 2.664 . S
O75 C69 1.268 . S
O76 Dy60 2.351 . S
O76 C79 1.249 . S
O77 Dy63 2.326 . S
O77 C79 1.267 . S
C78 O70 1.249 . S
C78 O71 1.267 . S
C79 O76 1.249 . S
C79 O77 1.267 . S
Dy80 O84 2.398 1_556 S
Dy80 O85 2.491 1_556 S
Dy80 O86 2.403 . S
Dy80 O87 2.664 . S
Dy80 O91 2.326 . S
Dy80 O95 2.310 . S
Dy80 O96 2.351 . S
C81 O92 1.185 . S
C81 O93 1.355 . S
C82 O84 1.185 . S
C82 O85 1.355 . S
Dy83 O87 2.310 . S
Dy83 O90 2.351 . S
Dy83 O92 2.398 . S
Dy83 O93 2.491 . S
Dy83 O94 2.403 . S
Dy83 O95 2.664 . S
Dy83 O97 2.326 . S
O84 Dy80 2.398 1_554 S
O84 C82 1.185 . S
O85 Dy80 2.491 1_554 S
O85 C82 1.355 . S
O86 Dy80 2.403 . S
O86 C88 1.254 . S
O87 Dy80 2.664 . S
O87 Dy83 2.310 . S
O87 C88 1.268 . S
C88 O86 1.254 . S
C88 O87 1.268 . S
C89 O94 1.254 . S
C89 O95 1.268 . S
O90 Dy83 2.351 . S
O90 C98 1.249 . S
O91 Dy80 2.326 . S
O91 C98 1.267 . S
O92 C81 1.185 . S
O92 Dy83 2.398 . S
O93 C81 1.355 . S
O93 Dy83 2.491 . S
O94 Dy83 2.403 . S
O94 C89 1.254 . S
O95 Dy80 2.310 . S
O95 Dy83 2.664 . S
O95 C89 1.268 . S
O96 Dy80 2.351 . S
O96 C99 1.249 . S
O97 Dy83 2.326 . S
O97 C99 1.267 . S
C98 O90 1.249 . S
C98 O91 1.267 . S
C99 O96 1.249 . S
C99 O97 1.267 . S
Dy100 O104 2.398 . S
Dy100 O105 2.491 . S
Dy100 O106 2.403 . S
Dy100 O107 2.664 . S
Dy100 O111 2.326 . S
Dy100 O115 2.310 . S
Dy100 O116 2.351 . S
C101 O112 1.185 . S
C101 O113 1.355 . S
C102 O104 1.185 . S
C102 O105 1.355 . S
Dy103 O107 2.310 . S
Dy103 O110 2.351 . S
Dy103 O112 2.398 1_554 S
Dy103 O113 2.491 1_554 S
Dy103 O114 2.403 . S
Dy103 O115 2.664 . S
Dy103 O117 2.326 . S
O104 Dy100 2.398 . S
O104 C102 1.185 . S
O105 Dy100 2.491 . S
O105 C102 1.355 . S
O106 Dy100 2.403 . S
O106 C108 1.254 . S
O107 Dy100 2.664 . S
O107 Dy103 2.310 . S
O107 C108 1.268 . S
C108 O106 1.254 . S
C108 O107 1.268 . S
C109 O114 1.254 . S
C109 O115 1.268 . S
O110 Dy103 2.351 . S
O110 C118 1.249 . S
O111 Dy100 2.326 . S
O111 C118 1.267 . S
O112 C101 1.185 . S
O112 Dy103 2.398 1_556 S
O113 C101 1.355 . S
O113 Dy103 2.491 1_556 S
O114 Dy103 2.403 . S
O114 C109 1.254 . S
O115 Dy100 2.310 . S
O115 Dy103 2.664 . S
O115 C109 1.268 . S
O116 Dy100 2.351 . S
O116 C119 1.249 . S
O117 Dy103 2.326 . S
O117 C119 1.267 . S
C118 O110 1.249 . S
C118 O111 1.267 . S
C119 O116 1.249 . S
C119 O117 1.267 . S
Dy120 O124 2.398 . S
Dy120 O125 2.491 . S
Dy120 O126 2.403 . S
Dy120 O127 2.664 . S
Dy120 O131 2.326 . S
Dy120 O135 2.310 . S
Dy120 O136 2.351 . S
C121 O132 1.185 . S
C121 O133 1.355 . S
C122 O124 1.185 . S
C122 O125 1.355 . S
Dy123 O127 2.310 . S
Dy123 O130 2.351 . S
Dy123 O132 2.398 . S
Dy123 O133 2.491 . S
Dy123 O134 2.403 . S
Dy123 O135 2.664 . S
Dy123 O137 2.326 . S
O124 Dy120 2.398 . S
O124 C122 1.185 . S
O125 Dy120 2.491 . S
O125 C122 1.355 . S
O126 Dy120 2.403 . S
O126 C128 1.254 . S
O127 Dy120 2.664 . S
O127 Dy123 2.310 . S
O127 C128 1.268 . S
C128 O126 1.254 . S
C128 O127 1.268 . S
C129 O134 1.254 . S
C129 O135 1.268 . S
O130 Dy123 2.351 . S
O130 C138 1.249 . S
O131 Dy120 2.326 . S
O131 C138 1.267 . S
O132 C121 1.185 . S
O132 Dy123 2.398 . S
O133 C121 1.355 . S
O133 Dy123 2.491 . S
O134 Dy123 2.403 . S
O134 C129 1.254 . S
O135 Dy120 2.310 . S
O135 Dy123 2.664 . S
O135 C129 1.268 . S
O136 Dy120 2.351 . S
O136 C139 1.249 . S
O137 Dy123 2.326 . S
O137 C139 1.267 . S
C138 O130 1.249 . S
C138 O131 1.267 . S
C139 O136 1.249 . S
C139 O137 1.267 . S
Dy140 O144 2.398 . S
Dy140 O145 2.491 . S
Dy140 O146 2.403 . S
Dy140 O147 2.664 . S
Dy140 O151 2.326 . S
Dy140 O155 2.310 . S
Dy140 O156 2.351 . S
C141 O152 1.185 . S
C141 O153 1.355 . S
C142 O144 1.185 . S
C142 O145 1.355 . S
Dy143 O147 2.310 . S
Dy143 O150 2.351 . S
Dy143 O152 2.398 . S
Dy143 O153 2.491 . S
Dy143 O154 2.403 . S
Dy143 O155 2.664 . S
Dy143 O157 2.326 . S
O144 Dy140 2.398 . S
O144 C142 1.185 . S
O145 Dy140 2.491 . S
O145 C142 1.355 . S
O146 Dy140 2.403 . S
O146 C148 1.254 . S
O147 Dy140 2.664 . S
O147 Dy143 2.310 . S
O147 C148 1.268 . S
C148 O146 1.254 . S
C148 O147 1.268 . S
C149 O154 1.254 . S
C149 O155 1.268 . S
O150 Dy143 2.351 . S
O150 C158 1.249 . S
O151 Dy140 2.326 . S
O151 C158 1.267 . S
O152 C141 1.185 . S
O152 Dy143 2.398 . S
O153 C141 1.355 . S
O153 Dy143 2.491 . S
O154 Dy143 2.403 . S
O154 C149 1.254 . S
O155 Dy140 2.310 . S
O155 Dy143 2.664 . S
O155 C149 1.268 . S
O156 Dy140 2.351 . S
O156 C159 1.249 . S
O157 Dy143 2.326 . S
O157 C159 1.267 . S
C158 O150 1.249 . S
C158 O151 1.267 . S
C159 O156 1.249 . S
C159 O157 1.267 . S
Dy160 O164 2.398 . S
Dy160 O165 2.491 . S
Dy160 O166 2.403 . S
Dy160 O167 2.664 . S
Dy160 O171 2.326 . S
Dy160 O175 2.310 . S
Dy160 O176 2.351 . S
C161 O172 1.185 . S
C161 O173 1.355 . S
C162 O164 1.185 . S
C162 O165 1.355 . S
Dy163 O167 2.310 . S
Dy163 O170 2.351 . S
Dy163 O172 2.398 1_556 S
Dy163 O173 2.491 1_556 S
Dy163 O174 2.403 . S
Dy163 O175 2.664 . S
Dy163 O177 2.326 . S
O164 Dy160 2.398 . S
O164 C162 1.185 . S
O165 Dy160 2.491 . S
O165 C162 1.355 . S
O166 Dy160 2.403 . S
O166 C168 1.254 . S
O167 Dy160 2.664 . S
O167 Dy163 2.310 . S
O167 C168 1.268 . S
C168 O166 1.254 . S
C168 O167 1.268 . S
C169 O174 1.254 . S
C169 O175 1.268 . S
O170 Dy163 2.351 . S
O170 C178 1.249 . S
O171 Dy160 2.326 . S
O171 C178 1.267 . S
O172 C161 1.185 . S
O172 Dy163 2.398 1_554 S
O173 C161 1.355 . S
O173 Dy163 2.491 1_554 S
O174 Dy163 2.403 . S
O174 C169 1.254 . S
O175 Dy160 2.310 . S
O175 Dy163 2.664 . S
O175 C169 1.268 . S
O176 Dy160 2.351 . S
O176 C179 1.249 . S
O177 Dy163 2.326 . S
O177 C179 1.267 . S
C178 O170 1.249 . S
C178 O171 1.267 . S
C179 O176 1.249 . S
C179 O177 1.267 . S
Dy180 O184 2.398 . S
Dy180 O185 2.491 . S
Dy180 O186 2.403 . S
Dy180 O187 2.664 . S
Dy180 O191 2.326 . S
Dy180 O195 2.310 . S
Dy180 O196 2.351 . S
C181 O192 1.185 . S
C181 O193 1.355 . S
C182 O184 1.185 . S
C182 O185 1.355 . S
Dy183 O187 2.310 . S
Dy183 O190 2.351 . S
Dy183 O192 2.398 . S
Dy183 O193 2.491 . S
Dy183 O194 2.403 . S
Dy183 O195 2.664 . S
Dy183 O197 2.326 . S
O184 Dy180 2.398 . S
O184 C182 1.185 . S
O185 Dy180 2.491 . S
O185 C182 1.355 . S
O186 Dy180 2.403 . S
O186 C188 1.254 . S
O187 Dy180 2.664 . S
O187 Dy183 2.310 . S
O187 C188 1.268 . S
C188 O186 1.254 . S
C188 O187 1.268 . S
C189 O194 1.254 . S
C189 O195 1.268 . S
O190 Dy183 2.351 . S
O190 C198 1.249 . S
O191 Dy180 2.326 . S
O191 C198 1.267 . S
O192 C181 1.185 . S
O192 Dy183 2.398 . S
O193 C181 1.355 . S
O193 Dy183 2.491 . S
O194 Dy183 2.403 . S
O194 C189 1.254 . S
O195 Dy180 2.310 . S
O195 Dy183 2.664 . S
O195 C189 1.268 . S
O196 Dy180 2.351 . S
O196 C199 1.249 . S
O197 Dy183 2.326 . S
O197 C199 1.267 . S
C198 O190 1.249 . S
C198 O191 1.267 . S
C199 O196 1.249 . S
C199 O197 1.267 . S
Dy200 O204 2.398 . S
Dy200 O205 2.491 . S
Dy200 O206 2.403 . S
Dy200 O207 2.664 . S
Dy200 O211 2.326 . S
Dy200 O215 2.310 . S
Dy200 O216 2.351 . S
C201 O212 1.185 . S
C201 O213 1.355 . S
C202 O204 1.185 . S
C202 O205 1.355 . S
Dy203 O207 2.310 . S
Dy203 O210 2.351 . S
Dy203 O212 2.398 . S
Dy203 O213 2.491 . S
Dy203 O214 2.403 . S
Dy203 O215 2.664 . S
Dy203 O217 2.326 . S
O204 Dy200 2.398 . S
O204 C202 1.185 . S
O205 Dy200 2.491 . S
O205 C202 1.355 . S
O206 Dy200 2.403 . S
O206 C208 1.254 . S
O207 Dy200 2.664 . S
O207 Dy203 2.310 . S
O207 C208 1.268 . S
C208 O206 1.254 . S
C208 O207 1.268 . S
C209 O214 1.254 . S
C209 O215 1.268 . S
O210 Dy203 2.351 . S
O210 C218 1.249 . S
O211 Dy200 2.326 . S
O211 C218 1.267 . S
O212 C201 1.185 . S
O212 Dy203 2.398 . S
O213 C201 1.355 . S
O213 Dy203 2.491 . S
O214 Dy203 2.403 . S
O214 C209 1.254 . S
O215 Dy200 2.310 . S
O215 Dy203 2.664 . S
O215 C209 1.268 . S
O216 Dy200 2.351 . S
O216 C219 1.249 . S
O217 Dy203 2.326 . S
O217 C219 1.267 . S
C218 O210 1.249 . S
C218 O211 1.267 . S
C219 O216 1.249 . S
C219 O217 1.267 . S
Dy220 O224 2.398 1_554 S
Dy220 O225 2.491 1_554 S
Dy220 O226 2.403 . S
Dy220 O227 2.664 . S
Dy220 O231 2.326 . S
Dy220 O235 2.310 . S
Dy220 O236 2.351 . S
C221 O232 1.185 . S
C221 O233 1.355 . S
C222 O224 1.185 . S
C222 O225 1.355 . S
Dy223 O227 2.310 . S
Dy223 O230 2.351 . S
Dy223 O232 2.398 . S
Dy223 O233 2.491 . S
Dy223 O234 2.403 . S
Dy223 O235 2.664 . S
Dy223 O237 2.326 . S
O224 Dy220 2.398 1_556 S
O224 C222 1.185 . S
O225 Dy220 2.491 1_556 S
O225 C222 1.355 . S
O226 Dy220 2.403 . S
O226 C228 1.254 . S
O227 Dy220 2.664 . S
O227 Dy223 2.310 . S
O227 C228 1.268 . S
C228 O226 1.254 . S
C228 O227 1.268 . S
C229 O234 1.254 . S
C229 O235 1.268 . S
O230 Dy223 2.351 . S
O230 C238 1.249 . S
O231 Dy220 2.326 . S
O231 C238 1.267 . S
O232 C221 1.185 . S
O232 Dy223 2.398 . S
O233 C221 1.355 . S
O233 Dy223 2.491 . S
O234 Dy223 2.403 . S
O234 C229 1.254 . S
O235 Dy220 2.310 . S
O235 Dy223 2.664 . S
O235 C229 1.268 . S
O236 Dy220 2.351 . S
O236 C239 1.249 . S
O237 Dy223 2.326 . S
O237 C239 1.267 . S
C238 O230 1.249 . S
C238 O231 1.267 . S
C239 O236 1.249 . S
C239 O237 1.267 . S
Dy240 O244 2.398 . S
Dy240 O245 2.491 . S
Dy240 O246 2.403 . S
Dy240 O247 2.664 . S
Dy240 O251 2.326 . S
Dy240 O255 2.310 . S
Dy240 O256 2.351 . S
C241 O252 1.185 . S
C241 O253 1.355 . S
C242 O244 1.185 . S
C242 O245 1.355 . S
Dy243 O247 2.310 . S
Dy243 O250 2.351 . S
Dy243 O252 2.398 1_554 S
Dy243 O253 2.491 1_554 S
Dy243 O254 2.403 . S
Dy243 O255 2.664 . S
Dy243 O257 2.326 . S
O244 Dy240 2.398 . S
O244 C242 1.185 . S
O245 Dy240 2.491 . S
O245 C242 1.355 . S
O246 Dy240 2.403 . S
O246 C248 1.254 . S
O247 Dy240 2.664 . S
O247 Dy243 2.310 . S
O247 C248 1.268 . S
C248 O246 1.254 . S
C248 O247 1.268 . S
C249 O254 1.254 . S
C249 O255 1.268 . S
O250 Dy243 2.351 . S
O250 C258 1.249 . S
O251 Dy240 2.326 . S
O251 C258 1.267 . S
O252 C241 1.185 . S
O252 Dy243 2.398 1_556 S
O253 C241 1.355 . S
O253 Dy243 2.491 1_556 S
O254 Dy243 2.403 . S
O254 C249 1.254 . S
O255 Dy240 2.310 . S
O255 Dy243 2.664 . S
O255 C249 1.268 . S
O256 Dy240 2.351 . S
O256 C259 1.249 . S
O257 Dy243 2.326 . S
O257 C259 1.267 . S
C258 O250 1.249 . S
C258 O251 1.267 . S
C259 O256 1.249 . S
C259 O257 1.267 . S
Dy260 O264 2.398 1_556 S
Dy260 O265 2.491 1_556 S
Dy260 O266 2.403 . S
Dy260 O267 2.664 . S
Dy260 O271 2.326 . S
Dy260 O275 2.310 . S
Dy260 O276 2.351 . S
C261 O272 1.185 . S
C261 O273 1.355 . S
C262 O264 1.185 . S
C262 O265 1.355 . S
Dy263 O267 2.310 . S
Dy263 O270 2.351 . S
Dy263 O272 2.398 . S
Dy263 O273 2.491 . S
Dy263 O274 2.403 . S
Dy263 O275 2.664 . S
Dy263 O277 2.326 . S
O264 Dy260 2.398 1_554 S
O264 C262 1.185 . S
O265 Dy260 2.491 1_554 S
O265 C262 1.355 . S
O266 Dy260 2.403 . S
O266 C268 1.254 . S
O267 Dy260 2.664 . S
O267 Dy263 2.310 . S
O267 C268 1.268 . S
C268 O266 1.254 . S
C268 O267 1.268 . S
C269 O274 1.254 . S
C269 O275 1.268 . S
O270 Dy263 2.351 . S
O270 C278 1.249 . S
O271 Dy260 2.326 . S
O271 C278 1.267 . S
O272 C261 1.185 . S
O272 Dy263 2.398 . S
O273 C261 1.355 . S
O273 Dy263 2.491 . S
O274 Dy263 2.403 . S
O274 C269 1.254 . S
O275 Dy260 2.310 . S
O275 Dy263 2.664 . S
O275 C269 1.268 . S
O276 Dy260 2.351 . S
O276 C279 1.249 . S
O277 Dy263 2.326 . S
O277 C279 1.267 . S
C278 O270 1.249 . S
C278 O271 1.267 . S
C279 O276 1.249 . S
C279 O277 1.267 . S
Dy280 O284 2.398 . S
Dy280 O285 2.491 . S
Dy280 O286 2.403 . S
Dy280 O287 2.664 . S
Dy280 O291 2.326 . S
Dy280 O295 2.310 . S
Dy280 O296 2.351 . S
C281 O292 1.185 . S
C281 O293 1.355 . S
C282 O284 1.185 . S
C282 O285 1.355 . S
Dy283 O287 2.310 . S
Dy283 O290 2.351 . S
Dy283 O292 2.398 . S
Dy283 O293 2.491 . S
Dy283 O294 2.403 . S
Dy283 O295 2.664 . S
Dy283 O297 2.326 . S
O284 Dy280 2.398 . S
O284 C282 1.185 . S
O285 Dy280 2.491 . S
O285 C282 1.355 . S
O286 Dy280 2.403 . S
O286 C288 1.254 . S
O287 Dy280 2.664 . S
O287 Dy283 2.310 . S
O287 C288 1.268 . S
C288 O286 1.254 . S
C288 O287 1.268 . S
C289 O294 1.254 . S
C289 O295 1.268 . S
O290 Dy283 2.351 . S
O290 C298 1.249 . S
O291 Dy280 2.326 . S
O291 C298 1.267 . S
O292 C281 1.185 . S
O292 Dy283 2.398 . S
O293 C281 1.355 . S
O293 Dy283 2.491 . S
O294 Dy283 2.403 . S
O294 C289 1.254 . S
O295 Dy280 2.310 . S
O295 Dy283 2.664 . S
O295 C289 1.268 . S
O296 Dy280 2.351 . S
O296 C299 1.249 . S
O297 Dy283 2.326 . S
O297 C299 1.267 . S
C298 O290 1.249 . S
C298 O291 1.267 . S
C299 O296 1.249 . S
C299 O297 1.267 . S
Dy300 O304 2.398 . S
Dy300 O305 2.491 . S
Dy300 O306 2.403 . S
Dy300 O307 2.664 . S
Dy300 O311 2.326 . S
Dy300 O315 2.310 . S
Dy300 O316 2.351 . S
C301 O312 1.185 . S
C301 O313 1.355 . S
C302 O304 1.185 . S
C302 O305 1.355 . S
Dy303 O307 2.310 . S
Dy303 O310 2.351 . S
Dy303 O312 2.398 . S
Dy303 O313 2.491 . S
Dy303 O314 2.403 . S
Dy303 O315 2.664 . S
Dy303 O317 2.326 . S
O304 Dy300 2.398 . S
O304 C302 1.185 . S
O305 Dy300 2.491 . S
O305 C302 1.355 . S
O306 Dy300 2.403 . S
O306 C308 1.254 . S
O307 Dy300 2.664 . S
O307 Dy303 2.310 . S
O307 C308 1.268 . S
C308 O306 1.254 . S
C308 O307 1.268 . S
C309 O314 1.254 . S
C309 O315 1.268 . S
O310 Dy303 2.351 . S
O310 C318 1.249 . S
O311 Dy300 2.326 . S
O311 C318 1.267 . S
O312 C301 1.185 . S
O312 Dy303 2.398 . S
O313 C301 1.355 . S
O313 Dy303 2.491 . S
O314 Dy303 2.403 . S
O314 C309 1.254 . S
O315 Dy300 2.310 . S
O315 Dy303 2.664 . S
O315 C309 1.268 . S
O316 Dy300 2.351 . S
O316 C319 1.249 . S
O317 Dy303 2.326 . S
O317 C319 1.267 . S
C318 O310 1.249 . S
C318 O311 1.267 . S
C319 O316 1.249 . S
C319 O317 1.267 . S
H320 C328 0.950 . S
H321 C333 0.950 . S
H322 C330 0.950 . S
H323 C332 0.950 . S
H324 C334 0.950 . S
H325 C336 0.950 . S
H326 C338 0.950 . S
H327 C339 0.950 . S
C328 H320 0.950 . S
C328 C329 1.386 . S
C328 C330 1.391 . S
C329 C328 1.386 . S
C329 C333 1.393 . S
C330 H322 0.950 . S
C330 C328 1.391 . S
C330 C331 1.400 . S
C331 C330 1.400 . S
C331 C332 1.398 . S
C331 C337 1.491 . S
C332 H323 0.950 . S
C332 C331 1.398 . S
C332 C333 1.391 . S
C333 H321 0.950 . S
C333 C329 1.393 . S
C333 C332 1.391 . S
C334 H324 0.950 . S
C334 C335 1.386 . S
C334 C336 1.391 . S
C335 C334 1.386 . S
C335 C339 1.393 . S
C336 H325 0.950 . S
C336 C334 1.391 . S
C336 C337 1.400 . S
C337 C331 1.491 . S
C337 C336 1.400 . S
C337 C338 1.398 . S
C338 H326 0.950 . S
C338 C337 1.398 . S
C338 C339 1.391 . S
C339 H327 0.950 . S
C339 C335 1.393 . S
C339 C338 1.391 . S
H340 C348 0.950 . S
H341 C353 0.950 1_554 S
H342 C350 0.950 . S
H343 C352 0.950 . S
H344 C354 0.950 . S
H345 C356 0.950 . S
H346 C358 0.950 . S
H347 C359 0.950 . S
C348 H340 0.950 . S
C348 C349 1.386 . S
C348 C350 1.391 1_554 S
C349 C348 1.386 . S
C349 C353 1.393 1_554 S
C350 H342 0.950 . S
C350 C348 1.391 1_556 S
C350 C351 1.400 . S
C351 C350 1.400 . S
C351 C352 1.398 . S
C351 C357 1.491 . S
C352 H343 0.950 . S
C352 C351 1.398 . S
C352 C353 1.391 . S
C353 H341 0.950 1_556 S
C353 C349 1.393 1_556 S
C353 C352 1.391 . S
C354 H344 0.950 . S
C354 C355 1.386 . S
C354 C356 1.391 . S
C355 C354 1.386 . S
C355 C359 1.393 . S
C356 H345 0.950 . S
C356 C354 1.391 . S
C356 C357 1.400 . S
C357 C351 1.491 . S
C357 C356 1.400 . S
C357 C358 1.398 . S
C358 H346 0.950 . S
C358 C357 1.398 . S
C358 C359 1.391 . S
C359 H347 0.950 . S
C359 C355 1.393 . S
C359 C358 1.391 . S
H360 C368 0.950 . S
H361 C373 0.950 . S
H362 C370 0.950 . S
H363 C372 0.950 . S
H364 C374 0.950 . S
H365 C376 0.950 . S
H366 C378 0.950 . S
H367 C379 0.950 . S
C368 H360 0.950 . S
C368 C369 1.386 . S
C368 C370 1.391 . S
C369 C368 1.386 . S
C369 C373 1.393 . S
C370 H362 0.950 . S
C370 C368 1.391 . S
C370 C371 1.400 . S
C371 C370 1.400 . S
C371 C372 1.398 . S
C371 C377 1.491 . S
C372 H363 0.950 . S
C372 C371 1.398 . S
C372 C373 1.391 . S
C373 H361 0.950 . S
C373 C369 1.393 . S
C373 C372 1.391 . S
C374 H364 0.950 . S
C374 C375 1.386 . S
C374 C376 1.391 1_556 S
C375 C374 1.386 . S
C375 C379 1.393 . S
C376 H365 0.950 . S
C376 C374 1.391 1_554 S
C376 C377 1.400 . S
C377 C371 1.491 . S
C377 C376 1.400 . S
C377 C378 1.398 . S
C378 H366 0.950 . S
C378 C377 1.398 . S
C378 C379 1.391 1_554 S
C379 H367 0.950 . S
C379 C375 1.393 . S
C379 C378 1.391 1_556 S
H380 C388 0.950 . S
H381 C393 0.950 . S
H382 C390 0.950 . S
H383 C392 0.950 . S
H384 C394 0.950 . S
H385 C396 0.950 . S
H386 C398 0.950 . S
H387 C399 0.950 . S
C388 H380 0.950 . S
C388 C389 1.386 . S
C388 C390 1.391 . S
C389 C388 1.386 . S
C389 C393 1.393 . S
C390 H382 0.950 . S
C390 C388 1.391 . S
C390 C391 1.400 . S
C391 C390 1.400 . S
C391 C392 1.398 . S
C391 C397 1.491 . S
C392 H383 0.950 . S
C392 C391 1.398 . S
C392 C393 1.391 . S
C393 H381 0.950 . S
C393 C389 1.393 . S
C393 C392 1.391 . S
C394 H384 0.950 . S
C394 C395 1.386 . S
C394 C396 1.391 . S
C395 C394 1.386 . S
C395 C399 1.393 . S
C396 H385 0.950 . S
C396 C394 1.391 . S
C396 C397 1.400 . S
C397 C391 1.491 . S
C397 C396 1.400 . S
C397 C398 1.398 . S
C398 H386 0.950 . S
C398 C397 1.398 . S
C398 C399 1.391 . S
C399 H387 0.950 . S
C399 C395 1.393 . S
C399 C398 1.391 . S
H400 C408 0.950 . S
H401 C413 0.950 . S
H402 C410 0.950 . S
H403 C412 0.950 . S
H404 C414 0.950 . S
H405 C416 0.950 . S
H406 C418 0.950 . S
H407 C419 0.950 . S
C408 H400 0.950 . S
C408 C409 1.386 . S
C408 C410 1.391 . S
C409 C408 1.386 . S
C409 C413 1.393 . S
C410 H402 0.950 . S
C410 C408 1.391 . S
C410 C411 1.400 . S
C411 C410 1.400 . S
C411 C412 1.398 . S
C411 C417 1.491 . S
C412 H403 0.950 . S
C412 C411 1.398 . S
C412 C413 1.391 . S
C413 H401 0.950 . S
C413 C409 1.393 . S
C413 C412 1.391 . S
C414 H404 0.950 . S
C414 C415 1.386 . S
C414 C416 1.391 . S
C415 C414 1.386 . S
C415 C419 1.393 . S
C416 H405 0.950 . S
C416 C414 1.391 . S
C416 C417 1.400 . S
C417 C411 1.491 . S
C417 C416 1.400 . S
C417 C418 1.398 . S
C418 H406 0.950 . S
C418 C417 1.398 . S
C418 C419 1.391 . S
C419 H407 0.950 . S
C419 C415 1.393 . S
C419 C418 1.391 . S
H420 C428 0.950 . S
H421 C433 0.950 . S
H422 C430 0.950 . S
H423 C432 0.950 . S
H424 C434 0.950 . S
H425 C436 0.950 . S
H426 C438 0.950 . S
H427 C439 0.950 . S
C428 H420 0.950 . S
C428 C429 1.386 . S
C428 C430 1.391 . S
C429 C428 1.386 . S
C429 C433 1.393 . S
C430 H422 0.950 . S
C430 C428 1.391 . S
C430 C431 1.400 . S
C431 C430 1.400 . S
C431 C432 1.398 . S
C431 C437 1.491 . S
C432 H423 0.950 . S
C432 C431 1.398 . S
C432 C433 1.391 . S
C433 H421 0.950 . S
C433 C429 1.393 . S
C433 C432 1.391 . S
C434 H424 0.950 . S
C434 C435 1.386 . S
C434 C436 1.391 . S
C435 C434 1.386 . S
C435 C439 1.393 . S
C436 H425 0.950 . S
C436 C434 1.391 . S
C436 C437 1.400 . S
C437 C431 1.491 . S
C437 C436 1.400 . S
C437 C438 1.398 . S
C438 H426 0.950 . S
C438 C437 1.398 . S
C438 C439 1.391 . S
C439 H427 0.950 . S
C439 C435 1.393 . S
C439 C438 1.391 . S
H440 C448 0.950 . S
H441 C453 0.950 . S
H442 C450 0.950 . S
H443 C452 0.950 . S
H444 C454 0.950 . S
H445 C456 0.950 . S
H446 C458 0.950 . S
H447 C459 0.950 . S
C448 H440 0.950 . S
C448 C449 1.386 . S
C448 C450 1.391 . S
C449 C448 1.386 . S
C449 C453 1.393 . S
C450 H442 0.950 . S
C450 C448 1.391 . S
C450 C451 1.400 . S
C451 C450 1.400 . S
C451 C452 1.398 . S
C451 C457 1.491 . S
C452 H443 0.950 . S
C452 C451 1.398 . S
C452 C453 1.391 . S
C453 H441 0.950 . S
C453 C449 1.393 . S
C453 C452 1.391 . S
C454 H444 0.950 . S
C454 C455 1.386 . S
C454 C456 1.391 1_554 S
C455 C454 1.386 . S
C455 C459 1.393 . S
C456 H445 0.950 . S
C456 C454 1.391 1_556 S
C456 C457 1.400 . S
C457 C451 1.491 . S
C457 C456 1.400 . S
C457 C458 1.398 . S
C458 H446 0.950 . S
C458 C457 1.398 . S
C458 C459 1.391 1_556 S
C459 H447 0.950 . S
C459 C455 1.393 . S
C459 C458 1.391 1_554 S
H460 C468 0.947 1_556 S
H461 C473 0.950 . S
H462 C470 0.950 . S
H463 C472 0.950 . S
H464 C474 0.950 . S
H465 C476 0.950 . S
H466 C478 0.950 . S
H467 C479 0.950 . S
C468 H460 0.947 1_554 S
C468 C469 1.380 1_554 S
C468 C470 1.400 . S
C469 C468 1.380 1_556 S
C469 C473 1.393 . S
C470 H462 0.950 . S
C470 C468 1.400 . S
C470 C471 1.400 . S
C471 C470 1.400 . S
C471 C472 1.398 . S
C471 C477 1.491 . S
C472 H463 0.950 . S
C472 C471 1.398 . S
C472 C473 1.391 1_554 S
C473 H461 0.950 . S
C473 C469 1.393 . S
C473 C472 1.391 1_556 S
C474 H464 0.950 . S
C474 C475 1.386 . S
C474 C476 1.391 . S
C475 C474 1.386 . S
C475 C479 1.393 . S
C476 H465 0.950 . S
C476 C474 1.391 . S
C476 C477 1.400 . S
C477 C471 1.491 . S
C477 C476 1.400 . S
C477 C478 1.398 . S
C478 H466 0.950 . S
C478 C477 1.398 . S
C478 C479 1.391 . S
C479 H467 0.950 . S
C479 C475 1.393 . S
C479 C478 1.391 . S
H480 C488 0.950 . S
H481 C493 0.950 . S
H482 C490 0.950 . S
H483 C492 0.950 . S
H484 C494 0.950 . S
H485 C496 0.950 . S
H486 C498 0.950 . S
H487 C499 0.950 . S
C488 H480 0.950 . S
C488 C489 1.386 . S
C488 C490 1.391 . S
C489 C488 1.386 . S
C489 C493 1.393 . S
C490 H482 0.950 . S
C490 C488 1.391 . S
C490 C491 1.400 . S
C491 C490 1.400 . S
C491 C492 1.398 . S
C491 C497 1.491 . S
C492 H483 0.950 . S
C492 C491 1.398 . S
C492 C493 1.391 . S
C493 H481 0.950 . S
C493 C489 1.393 . S
C493 C492 1.391 . S
C494 H484 0.950 . S
C494 C495 1.386 . S
C494 C496 1.391 . S
C495 C494 1.386 . S
C495 C499 1.393 . S
C496 H485 0.950 . S
C496 C494 1.391 . S
C496 C497 1.400 . S
C497 C491 1.491 . S
C497 C496 1.400 . S
C497 C498 1.398 . S
C498 H486 0.950 . S
C498 C497 1.398 . S
C498 C499 1.391 . S
C499 H487 0.950 . S
C499 C495 1.393 . S
C499 C498 1.391 . S
H500 C508 0.950 . S
H501 C513 0.950 . S
H502 C510 0.950 . S
H503 C512 0.950 . S
H504 C514 0.950 . S
H505 C516 0.950 . S
H506 C518 0.950 . S
H507 C519 0.950 . S
C508 H500 0.950 . S
C508 C509 1.386 . S
C508 C510 1.391 . S
C509 C508 1.386 . S
C509 C513 1.393 . S
C510 H502 0.950 . S
C510 C508 1.391 . S
C510 C511 1.400 . S
C511 C510 1.400 . S
C511 C512 1.398 . S
C511 C517 1.491 . S
C512 H503 0.950 . S
C512 C511 1.398 . S
C512 C513 1.391 . S
C513 H501 0.950 . S
C513 C509 1.393 . S
C513 C512 1.391 . S
C514 H504 0.950 . S
C514 C515 1.386 . S
C514 C516 1.391 1_556 S
C515 C514 1.386 . S
C515 C519 1.393 . S
C516 H505 0.950 . S
C516 C514 1.391 1_554 S
C516 C517 1.400 . S
C517 C511 1.491 . S
C517 C516 1.400 . S
C517 C518 1.398 . S
C518 H506 0.950 . S
C518 C517 1.398 . S
C518 C519 1.391 1_554 S
C519 H507 0.950 . S
C519 C515 1.393 . S
C519 C518 1.391 1_556 S
H520 C528 0.950 . S
H521 C533 0.950 . S
H522 C530 0.950 . S
H523 C532 0.950 . S
H524 C534 0.950 . S
H525 C536 0.950 . S
H526 C538 0.950 . S
H527 C539 0.950 . S
C528 H520 0.950 . S
C528 C529 1.386 . S
C528 C530 1.391 1_554 S
C529 C528 1.386 . S
C529 C533 1.393 . S
C530 H522 0.950 . S
C530 C528 1.391 1_556 S
C530 C531 1.400 . S
C531 C530 1.400 . S
C531 C532 1.398 . S
C531 C537 1.491 . S
C532 H523 0.950 . S
C532 C531 1.398 . S
C532 C533 1.391 1_556 S
C533 H521 0.950 . S
C533 C529 1.393 . S
C533 C532 1.391 1_554 S
C534 H524 0.950 . S
C534 C535 1.386 . S
C534 C536 1.391 . S
C535 C534 1.386 . S
C535 C539 1.393 . S
C536 H525 0.950 . S
C536 C534 1.391 . S
C536 C537 1.400 . S
C537 C531 1.491 . S
C537 C536 1.400 . S
C537 C538 1.398 . S
C538 H526 0.950 . S
C538 C537 1.398 . S
C538 C539 1.391 . S
C539 H527 0.950 . S
C539 C535 1.393 . S
C539 C538 1.391 . S
H540 C548 0.950 . S
H541 C553 0.950 . S
H542 C550 0.950 . S
H543 C552 0.950 . S
H544 C554 0.950 . S
H545 C556 0.950 . S
H546 C558 0.950 . S
H547 C559 0.950 . S
C548 H540 0.950 . S
C548 C549 1.386 . S
C548 C550 1.391 . S
C549 C548 1.386 . S
C549 C553 1.393 . S
C550 H542 0.950 . S
C550 C548 1.391 . S
C550 C551 1.400 . S
C551 C550 1.400 . S
C551 C552 1.398 . S
C551 C557 1.491 . S
C552 H543 0.950 . S
C552 C551 1.398 . S
C552 C553 1.391 . S
C553 H541 0.950 . S
C553 C549 1.393 . S
C553 C552 1.391 . S
C554 H544 0.950 . S
C554 C555 1.386 . S
C554 C556 1.391 . S
C555 C554 1.386 . S
C555 C559 1.393 . S
C556 H545 0.950 . S
C556 C554 1.391 . S
C556 C557 1.400 . S
C557 C551 1.491 . S
C557 C556 1.400 . S
C557 C558 1.398 . S
C558 H546 0.950 . S
C558 C557 1.398 . S
C558 C559 1.391 . S
C559 H547 0.950 . S
C559 C555 1.393 . S
C559 C558 1.391 . S
H560 C568 0.950 . S
H561 C573 0.950 . S
H562 C570 0.950 . S
H563 C572 0.950 . S
H564 C574 0.950 . S
H565 C576 0.950 . S
H566 C578 0.950 . S
H567 C579 0.950 . S
C568 H560 0.950 . S
C568 C569 1.386 . S
C568 C570 1.391 . S
C569 C568 1.386 . S
C569 C573 1.393 . S
C570 H562 0.950 . S
C570 C568 1.391 . S
C570 C571 1.400 . S
C571 C570 1.400 . S
C571 C572 1.398 . S
C571 C577 1.491 . S
C572 H563 0.950 . S
C572 C571 1.398 . S
C572 C573 1.391 . S
C573 H561 0.950 . S
C573 C569 1.393 . S
C573 C572 1.391 . S
C574 H564 0.950 . S
C574 C575 1.386 . S
C574 C576 1.391 . S
C575 C574 1.386 . S
C575 C579 1.393 . S
C576 H565 0.950 . S
C576 C574 1.391 . S
C576 C577 1.400 . S
C577 C571 1.491 . S
C577 C576 1.400 . S
C577 C578 1.398 . S
C578 H566 0.950 . S
C578 C577 1.398 . S
C578 C579 1.391 . S
C579 H567 0.950 . S
C579 C575 1.393 . S
C579 C578 1.391 . S
H580 C588 0.950 . S
H581 C593 0.950 . S
H582 C590 0.950 . S
H583 C592 0.950 . S
H584 C594 0.950 . S
H585 C596 0.950 . S
H586 C598 0.950 . S
H587 C599 0.950 . S
C588 H580 0.950 . S
C588 C589 1.386 . S
C588 C590 1.391 . S
C589 C588 1.386 . S
C589 C593 1.393 . S
C590 H582 0.950 . S
C590 C588 1.391 . S
C590 C591 1.400 . S
C591 C590 1.400 . S
C591 C592 1.398 . S
C591 C597 1.491 . S
C592 H583 0.950 . S
C592 C591 1.398 . S
C592 C593 1.391 . S
C593 H581 0.950 . S
C593 C589 1.393 . S
C593 C592 1.391 . S
C594 H584 0.950 . S
C594 C595 1.386 . S
C594 C596 1.391 . S
C595 C594 1.386 . S
C595 C599 1.393 . S
C596 H585 0.950 . S
C596 C594 1.391 . S
C596 C597 1.400 . S
C597 C591 1.491 . S
C597 C596 1.400 . S
C597 C598 1.398 . S
C598 H586 0.950 . S
C598 C597 1.398 . S
C598 C599 1.391 . S
C599 H587 0.950 . S
C599 C595 1.393 . S
C599 C598 1.391 . S
H600 C608 0.950 . S
H601 C613 0.950 . S
H602 C610 0.950 . S
H603 C612 0.950 . S
H604 C614 0.950 . S
H605 C616 0.950 . S
H606 C618 0.950 . S
H607 C619 0.950 . S
C608 H600 0.950 . S
C608 C609 1.386 . S
C608 C610 1.391 . S
C609 C608 1.386 . S
C609 C613 1.393 . S
C610 H602 0.950 . S
C610 C608 1.391 . S
C610 C611 1.400 . S
C611 C610 1.400 . S
C611 C612 1.398 . S
C611 C617 1.491 . S
C612 H603 0.950 . S
C612 C611 1.398 . S
C612 C613 1.391 . S
C613 H601 0.950 . S
C613 C609 1.393 . S
C613 C612 1.391 . S
C614 H604 0.950 . S
C614 C615 1.386 . S
C614 C616 1.391 1_556 S
C615 C614 1.386 . S
C615 C619 1.393 . S
C616 H605 0.950 . S
C616 C614 1.391 1_554 S
C616 C617 1.400 . S
C617 C611 1.491 . S
C617 C616 1.400 . S
C617 C618 1.398 . S
C618 H606 0.950 . S
C618 C617 1.398 . S
C618 C619 1.391 1_554 S
C619 H607 0.950 . S
C619 C615 1.393 . S
C619 C618 1.391 1_556 S
H620 C628 0.950 . S
H621 C633 0.950 . S
H622 C630 0.950 . S
H623 C632 0.950 . S
H624 C634 0.950 . S
H625 C636 0.950 . S
H626 C638 0.950 . S
H627 C639 0.950 . S
C628 H620 0.950 . S
C628 C629 1.386 . S
C628 C630 1.391 1_554 S
C629 C628 1.386 . S
C629 C633 1.393 . S
C630 H622 0.950 . S
C630 C628 1.391 1_556 S
C630 C631 1.400 . S
C631 C630 1.400 . S
C631 C632 1.398 . S
C631 C637 1.491 . S
C632 H623 0.950 . S
C632 C631 1.398 . S
C632 C633 1.391 1_556 S
C633 H621 0.950 . S
C633 C629 1.393 . S
C633 C632 1.391 1_554 S
C634 H624 0.950 . S
C634 C635 1.386 . S
C634 C636 1.391 . S
C635 C634 1.386 . S
C635 C639 1.393 . S
C636 H625 0.950 . S
C636 C634 1.391 . S
C636 C637 1.400 . S
C637 C631 1.491 . S
C637 C636 1.400 . S
C637 C638 1.398 . S
C638 H626 0.950 . S
C638 C637 1.398 . S
C638 C639 1.391 . S
C639 H627 0.950 . S
C639 C635 1.393 . S
C639 C638 1.391 . S
H640 C648 0.950 . S
H641 C653 0.950 . S
H642 C650 0.950 . S
H643 C652 0.950 . S
H644 C654 0.950 . S
H645 C656 0.950 . S
H646 C658 0.950 . S
H647 C659 0.950 . S
C648 H640 0.950 . S
C648 C649 1.386 . S
C648 C650 1.391 . S
C649 C648 1.386 . S
C649 C653 1.393 . S
C650 H642 0.950 . S
C650 C648 1.391 . S
C650 C651 1.400 . S
C651 C650 1.400 . S
C651 C652 1.398 . S
C651 C657 1.491 . S
C652 H643 0.950 . S
C652 C651 1.398 . S
C652 C653 1.391 . S
C653 H641 0.950 . S
C653 C649 1.393 . S
C653 C652 1.391 . S
C654 H644 0.950 . S
C654 C655 1.386 . S
C654 C656 1.391 . S
C655 C654 1.386 . S
C655 C659 1.393 . S
C656 H645 0.950 . S
C656 C654 1.391 . S
C656 C657 1.400 . S
C657 C651 1.491 . S
C657 C656 1.400 . S
C657 C658 1.398 . S
C658 H646 0.950 . S
C658 C657 1.398 . S
C658 C659 1.391 . S
C659 H647 0.950 . S
C659 C655 1.393 . S
C659 C658 1.391 . S
H660 C668 0.950 . S
H661 C673 0.950 . S
H662 C670 0.950 . S
H663 C672 0.950 . S
H664 C674 0.950 . S
H665 C676 0.950 . S
H666 C678 0.950 . S
H667 C679 0.950 . S
C668 H660 0.950 . S
C668 C669 1.386 . S
C668 C670 1.391 . S
C669 C668 1.386 . S
C669 C673 1.393 . S
C670 H662 0.950 . S
C670 C668 1.391 . S
C670 C671 1.400 . S
C671 C670 1.400 . S
C671 C672 1.398 . S
C671 C677 1.491 . S
C672 H663 0.950 . S
C672 C671 1.398 . S
C672 C673 1.391 . S
C673 H661 0.950 . S
C673 C669 1.393 . S
C673 C672 1.391 . S
C674 H664 0.950 . S
C674 C675 1.386 . S
C674 C676 1.391 . S
C675 C674 1.386 . S
C675 C679 1.393 . S
C676 H665 0.950 . S
C676 C674 1.391 . S
C676 C677 1.400 . S
C677 C671 1.491 . S
C677 C676 1.400 . S
C677 C678 1.398 . S
C678 H666 0.950 . S
C678 C677 1.398 . S
C678 C679 1.391 . S
C679 H667 0.950 . S
C679 C675 1.393 . S
C679 C678 1.391 . S
H680 C688 0.950 . S
H681 C693 0.950 . S
H682 C690 0.950 . S
H683 C692 0.950 . S
H684 C694 0.950 . S
H685 C696 0.950 . S
H686 C698 0.950 . S
H687 C699 0.950 . S
C688 H680 0.950 . S
C688 C689 1.386 . S
C688 C690 1.391 . S
C689 C688 1.386 . S
C689 C693 1.393 . S
C690 H682 0.950 . S
C690 C688 1.391 . S
C690 C691 1.400 . S
C691 C690 1.400 . S
C691 C692 1.398 . S
C691 C697 1.491 . S
C692 H683 0.950 . S
C692 C691 1.398 . S
C692 C693 1.391 . S
C693 H681 0.950 . S
C693 C689 1.393 . S
C693 C692 1.391 . S
C694 H684 0.950 . S
C694 C695 1.386 . S
C694 C696 1.391 . S
C695 C694 1.386 . S
C695 C699 1.393 . S
C696 H685 0.950 . S
C696 C694 1.391 . S
C696 C697 1.400 . S
C697 C691 1.491 . S
C697 C696 1.400 . S
C697 C698 1.398 . S
C698 H686 0.950 . S
C698 C697 1.398 . S
C698 C699 1.391 . S
C699 H687 0.950 . S
C699 C695 1.393 . S
C699 C698 1.391 . S
H700 C708 0.950 . S
H701 C713 0.950 . S
H702 C710 0.950 . S
H703 C712 0.950 . S
H704 C714 0.950 . S
H705 C716 0.950 . S
H706 C718 0.950 . S
H707 C719 0.950 . S
C708 H700 0.950 . S
C708 C709 1.386 . S
C708 C710 1.391 . S
C709 C708 1.386 . S
C709 C713 1.393 . S
C710 H702 0.950 . S
C710 C708 1.391 . S
C710 C711 1.400 . S
C711 C710 1.400 . S
C711 C712 1.398 . S
C711 C717 1.491 1_655 S
C712 H703 0.950 . S
C712 C711 1.398 . S
C712 C713 1.391 . S
C713 H701 0.950 . S
C713 C709 1.393 . S
C713 C712 1.391 . S
C714 H704 0.950 . S
C714 C715 1.386 . S
C714 C716 1.391 . S
C715 C714 1.386 . S
C715 C719 1.393 . S
C716 H705 0.950 . S
C716 C714 1.391 . S
C716 C717 1.400 . S
C717 C711 1.491 1_455 S
C717 C716 1.400 . S
C717 C718 1.398 . S
C718 H706 0.950 . S
C718 C717 1.398 . S
C718 C719 1.391 . S
C719 H707 0.950 . S
C719 C715 1.393 . S
C719 C718 1.391 . S
H720 C728 0.950 . S
H721 C733 0.950 . S
H722 C730 0.950 . S
H723 C732 0.950 . S
H724 C734 0.950 . S
H725 C736 0.950 . S
H726 C738 0.950 . S
H727 C739 0.950 . S
C728 H720 0.950 . S
C728 C729 1.386 . S
C728 C730 1.391 . S
C729 C728 1.386 . S
C729 C733 1.393 . S
C730 H722 0.950 . S
C730 C728 1.391 . S
C730 C731 1.400 . S
C731 C730 1.400 . S
C731 C732 1.398 . S
C731 C737 1.491 . S
C732 H723 0.950 . S
C732 C731 1.398 . S
C732 C733 1.391 . S
C733 H721 0.950 . S
C733 C729 1.393 . S
C733 C732 1.391 . S
C734 H724 0.950 . S
C734 C735 1.386 . S
C734 C736 1.391 . S
C735 C734 1.386 . S
C735 C739 1.393 . S
C736 H725 0.950 . S
C736 C734 1.391 . S
C736 C737 1.400 . S
C737 C731 1.491 . S
C737 C736 1.400 . S
C737 C738 1.398 . S
C738 H726 0.950 . S
C738 C737 1.398 . S
C738 C739 1.391 . S
C739 H727 0.950 . S
C739 C735 1.393 . S
C739 C738 1.391 . S
H740 C748 0.950 . S
H741 C753 0.940 1_556 S
H742 C750 0.950 . S
H743 C752 0.947 1_556 S
H744 C754 0.956 . S
H745 C756 0.949 . S
H746 C758 0.950 . S
H747 C759 0.950 . S
C748 H740 0.950 . S
C748 C749 1.386 . S
C748 C750 1.391 . S
C749 C748 1.386 . S
C749 C753 1.393 . S
C750 H742 0.950 . S
C750 C748 1.391 . S
C750 C751 1.400 . S
C751 C750 1.400 . S
C751 C752 1.398 . S
C751 C757 1.491 1_455 S
C752 H743 0.947 1_554 S
C752 C751 1.398 . S
C752 C753 1.391 . S
C753 H741 0.940 1_554 S
C753 C749 1.393 . S
C753 C752 1.391 . S
C754 H744 0.956 . S
C754 C755 1.386 . S
C754 C756 1.391 . S
C755 C754 1.386 . S
C755 C759 1.393 . S
C756 H745 0.949 . S
C756 C754 1.391 . S
C756 C757 1.400 . S
C757 C751 1.491 1_655 S
C757 C756 1.400 . S
C757 C758 1.398 . S
C758 H746 0.950 . S
C758 C757 1.398 . S
C758 C759 1.391 . S
C759 H747 0.950 . S
C759 C755 1.393 . S
C759 C758 1.391 . S
H760 C768 0.950 . S
H761 C773 0.950 . S
H762 C770 0.950 . S
H763 C772 0.950 . S
H764 C774 0.950 . S
H765 C776 0.950 . S
H766 C778 0.950 . S
H767 C779 0.950 . S
C768 H760 0.950 . S
C768 C769 1.386 . S
C768 C770 1.391 . S
C769 C768 1.386 . S
C769 C773 1.393 . S
C770 H762 0.950 . S
C770 C768 1.391 . S
C770 C771 1.400 . S
C771 C770 1.400 . S
C771 C772 1.398 . S
C771 C777 1.491 . S
C772 H763 0.950 . S
C772 C771 1.398 . S
C772 C773 1.391 . S
C773 H761 0.950 . S
C773 C769 1.393 . S
C773 C772 1.391 . S
C774 H764 0.950 . S
C774 C775 1.386 . S
C774 C776 1.391 . S
C775 C774 1.386 . S
C775 C779 1.393 . S
C776 H765 0.950 . S
C776 C774 1.391 . S
C776 C777 1.400 . S
C777 C771 1.491 . S
C777 C776 1.400 . S
C777 C778 1.398 . S
C778 H766 0.950 . S
C778 C777 1.398 . S
C778 C779 1.391 . S
C779 H767 0.950 . S
C779 C775 1.393 . S
C779 C778 1.391 . S
H780 C788 0.950 . S
H781 C793 0.950 . S
H782 C790 0.950 . S
H783 C792 0.950 . S
H784 C794 0.950 . S
H785 C796 0.950 . S
H786 C798 0.950 . S
H787 C799 0.950 . S
C788 H780 0.950 . S
C788 C789 1.386 . S
C788 C790 1.391 . S
C789 C788 1.386 . S
C789 C793 1.393 . S
C790 H782 0.950 . S
C790 C788 1.391 . S
C790 C791 1.400 . S
C791 C790 1.400 . S
C791 C792 1.398 . S
C791 C797 1.491 . S
C792 H783 0.950 . S
C792 C791 1.398 . S
C792 C793 1.391 . S
C793 H781 0.950 . S
C793 C789 1.393 . S
C793 C792 1.391 . S
C794 H784 0.950 . S
C794 C795 1.386 . S
C794 C796 1.391 . S
C795 C794 1.386 . S
C795 C799 1.393 . S
C796 H785 0.950 . S
C796 C794 1.391 . S
C796 C797 1.400 . S
C797 C791 1.491 . S
C797 C796 1.400 . S
C797 C798 1.398 . S
C798 H786 0.950 . S
C798 C797 1.398 . S
C798 C799 1.391 . S
C799 H787 0.950 . S
C799 C795 1.393 . S
C799 C798 1.391 . S
H800 C808 0.950 . S
H801 C813 0.950 . S
H802 C810 0.950 . S
H803 C812 0.950 . S
H804 C814 0.950 . S
H805 C816 0.950 . S
H806 C818 0.950 . S
H807 C819 0.950 . S
C808 H800 0.950 . S
C808 C809 1.386 . S
C808 C810 1.391 . S
C809 C808 1.386 . S
C809 C813 1.393 . S
C810 H802 0.950 . S
C810 C808 1.391 . S
C810 C811 1.400 . S
C811 C810 1.400 . S
C811 C812 1.398 . S
C811 C817 1.491 . S
C812 H803 0.950 . S
C812 C811 1.398 . S
C812 C813 1.391 . S
C813 H801 0.950 . S
C813 C809 1.393 . S
C813 C812 1.391 . S
C814 H804 0.950 . S
C814 C815 1.386 . S
C814 C816 1.391 . S
C815 C814 1.386 . S
C815 C819 1.393 . S
C816 H805 0.950 . S
C816 C814 1.391 . S
C816 C817 1.400 . S
C817 C811 1.491 . S
C817 C816 1.400 . S
C817 C818 1.398 . S
C818 H806 0.950 . S
C818 C817 1.398 . S
C818 C819 1.391 . S
C819 H807 0.950 . S
C819 C815 1.393 . S
C819 C818 1.391 . S
H820 C828 0.950 . S
H821 C833 0.950 . S
H822 C830 0.950 . S
H823 C832 0.950 . S
H824 C834 0.950 . S
H825 C836 0.950 . S
H826 C838 0.950 . S
H827 C839 0.950 . S
C828 H820 0.950 . S
C828 C829 1.386 . S
C828 C830 1.391 . S
C829 C828 1.386 . S
C829 C833 1.393 . S
C830 H822 0.950 . S
C830 C828 1.391 . S
C830 C831 1.400 . S
C831 C830 1.400 . S
C831 C832 1.398 . S
C831 C837 1.491 . S
C832 H823 0.950 . S
C832 C831 1.398 . S
C832 C833 1.391 . S
C833 H821 0.950 . S
C833 C829 1.393 . S
C833 C832 1.391 . S
C834 H824 0.950 . S
C834 C835 1.386 . S
C834 C836 1.391 . S
C835 C834 1.386 . S
C835 C839 1.393 . S
C836 H825 0.950 . S
C836 C834 1.391 . S
C836 C837 1.400 . S
C837 C831 1.491 . S
C837 C836 1.400 . S
C837 C838 1.398 . S
C838 H826 0.950 . S
C838 C837 1.398 . S
C838 C839 1.391 . S
C839 H827 0.950 . S
C839 C835 1.393 . S
C839 C838 1.391 . S
H840 C848 0.950 . S
H841 C853 0.950 . S
H842 C850 0.950 . S
H843 C852 0.950 . S
H844 C854 0.950 . S
H845 C856 0.950 . S
H846 C858 0.950 . S
H847 C859 0.950 . S
C848 H840 0.950 . S
C848 C849 1.386 . S
C848 C850 1.391 . S
C849 C848 1.386 . S
C849 C853 1.393 . S
C850 H842 0.950 . S
C850 C848 1.391 . S
C850 C851 1.400 . S
C851 C850 1.400 . S
C851 C852 1.398 . S
C851 C857 1.491 . S
C852 H843 0.950 . S
C852 C851 1.398 . S
C852 C853 1.391 . S
C853 H841 0.950 . S
C853 C849 1.393 . S
C853 C852 1.391 . S
C854 H844 0.950 . S
C854 C855 1.386 . S
C854 C856 1.391 . S
C855 C854 1.386 . S
C855 C859 1.393 . S
C856 H845 0.950 . S
C856 C854 1.391 . S
C856 C857 1.400 . S
C857 C851 1.491 . S
C857 C856 1.400 . S
C857 C858 1.398 . S
C858 H846 0.950 . S
C858 C857 1.398 . S
C858 C859 1.391 . S
C859 H847 0.950 . S
C859 C855 1.393 . S
C859 C858 1.391 . S
H860 C868 0.950 . S
H861 C873 0.950 . S
H862 C870 0.950 . S
H863 C872 0.950 . S
H864 C874 0.950 . S
H865 C876 0.950 . S
H866 C878 0.950 . S
H867 C879 0.950 . S
C868 H860 0.950 . S
C868 C869 1.386 . S
C868 C870 1.391 . S
C869 C868 1.386 . S
C869 C873 1.393 . S
C870 H862 0.950 . S
C870 C868 1.391 . S
C870 C871 1.400 . S
C871 C870 1.400 . S
C871 C872 1.398 . S
C871 C877 1.491 . S
C872 H863 0.950 . S
C872 C871 1.398 . S
C872 C873 1.391 . S
C873 H861 0.950 . S
C873 C869 1.393 . S
C873 C872 1.391 . S
C874 H864 0.950 . S
C874 C875 1.386 . S
C874 C876 1.391 . S
C875 C874 1.386 . S
C875 C879 1.393 . S
C876 H865 0.950 . S
C876 C874 1.391 . S
C876 C877 1.400 . S
C877 C871 1.491 . S
C877 C876 1.400 . S
C877 C878 1.398 . S
C878 H866 0.950 . S
C878 C877 1.398 . S
C878 C879 1.391 . S
C879 H867 0.950 . S
C879 C875 1.393 . S
C879 C878 1.391 . S
H880 C888 0.950 1_554 S
H881 C893 0.950 . S
H882 C890 0.950 1_554 S
H883 C892 0.950 . S
H884 C894 0.950 . S
H885 C896 0.950 . S
H886 C898 0.950 . S
H887 C899 0.950 . S
C888 H880 0.950 1_556 S
C888 C889 1.386 . S
C888 C890 1.391 . S
C889 C888 1.386 . S
C889 C893 1.393 . S
C890 H882 0.950 1_556 S
C890 C888 1.391 . S
C890 C891 1.400 . S
C891 C890 1.400 . S
C891 C892 1.398 . S
C891 C897 1.491 1_655 S
C892 H883 0.950 . S
C892 C891 1.398 . S
C892 C893 1.391 . S
C893 H881 0.950 . S
C893 C889 1.393 . S
C893 C892 1.391 . S
C894 H884 0.950 . S
C894 C895 1.386 . S
C894 C896 1.391 . S
C895 C894 1.386 . S
C895 C899 1.393 . S
C896 H885 0.950 . S
C896 C894 1.391 . S
C896 C897 1.400 . S
C897 C891 1.491 1_455 S
C897 C896 1.400 . S
C897 C898 1.398 . S
C898 H886 0.950 . S
C898 C897 1.398 . S
C898 C899 1.391 . S
C899 H887 0.950 . S
C899 C895 1.393 . S
C899 C898 1.391 . S
H900 C908 0.950 . S
H901 C913 0.950 . S
H902 C910 0.950 . S
H903 C912 0.950 . S
H904 C914 0.950 . S
H905 C916 0.950 . S
H906 C918 0.950 . S
H907 C919 0.950 . S
C908 H900 0.950 . S
C908 C909 1.386 . S
C908 C910 1.391 . S
C909 C908 1.386 . S
C909 C913 1.393 . S
C910 H902 0.950 . S
C910 C908 1.391 . S
C910 C911 1.400 . S
C911 C910 1.400 . S
C911 C912 1.398 . S
C911 C917 1.491 . S
C912 H903 0.950 . S
C912 C911 1.398 . S
C912 C913 1.391 . S
C913 H901 0.950 . S
C913 C909 1.393 . S
C913 C912 1.391 . S
C914 H904 0.950 . S
C914 C915 1.386 . S
C914 C916 1.391 . S
C915 C914 1.386 . S
C915 C919 1.393 . S
C916 H905 0.950 . S
C916 C914 1.391 . S
C916 C917 1.400 . S
C917 C911 1.491 . S
C917 C916 1.400 . S
C917 C918 1.398 . S
C918 H906 0.950 . S
C918 C917 1.398 . S
C918 C919 1.391 . S
C919 H907 0.950 . S
C919 C915 1.393 . S
C919 C918 1.391 . S
H920 C928 0.950 . S
H921 C933 0.950 . S
H922 C930 0.950 . S
H923 C932 0.950 . S
H924 C934 0.950 . S
H925 C936 0.950 . S
H926 C938 0.950 . S
H927 C939 0.950 . S
C928 H920 0.950 . S
C928 C929 1.386 . S
C928 C930 1.391 . S
C929 C928 1.386 . S
C929 C933 1.393 . S
C930 H922 0.950 . S
C930 C928 1.391 . S
C930 C931 1.400 . S
C931 C930 1.400 . S
C931 C932 1.398 . S
C931 C937 1.491 . S
C932 H923 0.950 . S
C932 C931 1.398 . S
C932 C933 1.391 . S
C933 H921 0.950 . S
C933 C929 1.393 . S
C933 C932 1.391 . S
C934 H924 0.950 . S
C934 C935 1.386 . S
C934 C936 1.391 . S
C935 C934 1.386 . S
C935 C939 1.393 . S
C936 H925 0.950 . S
C936 C934 1.391 . S
C936 C937 1.400 . S
C937 C931 1.491 . S
C937 C936 1.400 . S
C937 C938 1.398 . S
C938 H926 0.950 . S
C938 C937 1.398 . S
C938 C939 1.391 . S
C939 H927 0.950 . S
C939 C935 1.393 . S
C939 C938 1.391 . S
H940 C948 0.950 1_556 S
H941 C953 0.950 . S
H942 C950 0.950 1_556 S
H943 C952 0.950 . S
H944 C954 0.950 . S
H945 C956 0.950 . S
H946 C958 0.950 1_556 S
H947 C959 0.950 1_556 S
C948 H940 0.950 1_554 S
C948 C949 1.386 . S
C948 C950 1.391 . S
C949 C948 1.386 . S
C949 C953 1.393 . S
C950 H942 0.950 1_554 S
C950 C948 1.391 . S
C950 C951 1.400 . S
C951 C950 1.400 . S
C951 C952 1.398 . S
C951 C957 1.491 1_455 S
C952 H943 0.950 . S
C952 C951 1.398 . S
C952 C953 1.391 . S
C953 H941 0.950 . S
C953 C949 1.393 . S
C953 C952 1.391 . S
C954 H944 0.950 . S
C954 C955 1.386 . S
C954 C956 1.391 . S
C955 C954 1.386 . S
C955 C959 1.393 . S
C956 H945 0.950 . S
C956 C954 1.391 . S
C956 C957 1.400 . S
C957 C951 1.491 1_655 S
C957 C956 1.400 . S
C957 C958 1.398 . S
C958 H946 0.950 1_554 S
C958 C957 1.398 . S
C958 C959 1.391 . S
C959 H947 0.950 1_554 S
C959 C955 1.393 . S
C959 C958 1.391 . S
H960 C968 0.950 . S
H961 C973 0.950 . S
H962 C970 0.950 . S
H963 C972 0.950 . S
H964 C974 0.950 . S
H965 C976 0.950 . S
H966 C978 0.950 . S
H967 C979 0.950 . S
C968 H960 0.950 . S
C968 C969 1.386 . S
C968 C970 1.391 . S
C969 C968 1.386 . S
C969 C973 1.393 . S
C970 H962 0.950 . S
C970 C968 1.391 . S
C970 C971 1.400 . S
C971 C970 1.400 . S
C971 C972 1.398 . S
C971 C977 1.491 1_554 S
C972 H963 0.950 . S
C972 C971 1.398 . S
C972 C973 1.391 . S
C973 H961 0.950 . S
C973 C969 1.393 . S
C973 C972 1.391 . S
C974 H964 0.950 . S
C974 C975 1.386 . S
C974 C976 1.391 . S
C975 C974 1.386 . S
C975 C979 1.393 . S
C976 H965 0.950 . S
C976 C974 1.391 . S
C976 C977 1.400 . S
C977 C971 1.491 1_556 S
C977 C976 1.400 . S
C977 C978 1.398 . S
C978 H966 0.950 . S
C978 C977 1.398 . S
C978 C979 1.391 . S
C979 H967 0.950 . S
C979 C975 1.393 . S
C979 C978 1.391 . S
H980 C988 0.950 . S
H981 C993 0.950 . S
H982 C990 0.950 . S
H983 C992 0.950 . S
H984 C994 0.950 . S
H985 C996 0.950 . S
H986 C998 0.950 . S
H987 C999 0.950 . S
C988 H980 0.950 . S
C988 C989 1.386 . S
C988 C990 1.391 . S
C989 C988 1.386 . S
C989 C993 1.393 . S
C990 H982 0.950 . S
C990 C988 1.391 . S
C990 C991 1.400 . S
C991 C990 1.400 . S
C991 C992 1.398 . S
C991 C997 1.491 . S
C992 H983 0.950 . S
C992 C991 1.398 . S
C992 C993 1.391 . S
C993 H981 0.950 . S
C993 C989 1.393 . S
C993 C992 1.391 . S
C994 H984 0.950 . S
C994 C995 1.386 . S
C994 C996 1.391 . S
C995 C994 1.386 . S
C995 C999 1.393 . S
C996 H985 0.950 . S
C996 C994 1.391 . S
C996 C997 1.400 . S
C997 C991 1.491 . S
C997 C996 1.400 . S
C997 C998 1.398 . S
C998 H986 0.950 . S
C998 C997 1.398 . S
C998 C999 1.391 . S
C999 H987 0.950 . S
C999 C995 1.393 . S
C999 C998 1.391 . S
H1000 C1008 0.950 . S
H1001 C1013 0.950 . S
H1002 C1010 0.950 . S
H1003 C1012 0.950 . S
H1004 C1014 0.950 . S
H1005 C1016 0.950 . S
H1006 C1018 0.950 . S
H1007 C1019 0.950 . S
C1008 H1000 0.950 . S
C1008 C1009 1.386 . S
C1008 C1010 1.391 . S
C1009 C1008 1.386 . S
C1009 C1013 1.393 . S
C1010 H1002 0.950 . S
C1010 C1008 1.391 . S
C1010 C1011 1.400 . S
C1011 C1010 1.400 . S
C1011 C1012 1.398 . S
C1011 C1017 1.491 . S
C1012 H1003 0.950 . S
C1012 C1011 1.398 . S
C1012 C1013 1.391 . S
C1013 H1001 0.950 . S
C1013 C1009 1.393 . S
C1013 C1012 1.391 . S
C1014 H1004 0.950 . S
C1014 C1015 1.386 . S
C1014 C1016 1.391 . S
C1015 C1014 1.386 . S
C1015 C1019 1.393 . S
C1016 H1005 0.950 . S
C1016 C1014 1.391 . S
C1016 C1017 1.400 . S
C1017 C1011 1.491 . S
C1017 C1016 1.400 . S
C1017 C1018 1.398 . S
C1018 H1006 0.950 . S
C1018 C1017 1.398 . S
C1018 C1019 1.391 . S
C1019 H1007 0.950 . S
C1019 C1015 1.393 . S
C1019 C1018 1.391 . S
H1020 C1028 0.950 . S
H1021 C1033 0.950 . S
H1022 C1030 0.950 . S
H1023 C1032 0.950 . S
H1024 C1034 0.950 . S
H1025 C1036 0.950 . S
H1026 C1038 0.950 . S
H1027 C1039 0.950 . S
C1028 H1020 0.950 . S
C1028 C1029 1.386 . S
C1028 C1030 1.391 . S
C1029 C1028 1.386 . S
C1029 C1033 1.393 . S
C1030 H1022 0.950 . S
C1030 C1028 1.391 . S
C1030 C1031 1.400 . S
C1031 C1030 1.400 . S
C1031 C1032 1.398 . S
C1031 C1037 1.491 . S
C1032 H1023 0.950 . S
C1032 C1031 1.398 . S
C1032 C1033 1.391 . S
C1033 H1021 0.950 . S
C1033 C1029 1.393 . S
C1033 C1032 1.391 . S
C1034 H1024 0.950 . S
C1034 C1035 1.386 . S
C1034 C1036 1.391 . S
C1035 C1034 1.386 . S
C1035 C1039 1.393 . S
C1036 H1025 0.950 . S
C1036 C1034 1.391 . S
C1036 C1037 1.400 . S
C1037 C1031 1.491 . S
C1037 C1036 1.400 . S
C1037 C1038 1.398 . S
C1038 H1026 0.950 . S
C1038 C1037 1.398 . S
C1038 C1039 1.391 . S
C1039 H1027 0.950 . S
C1039 C1035 1.393 . S
C1039 C1038 1.391 . S
H1040 C1048 0.950 . S
H1041 C1053 0.950 1_556 S
H1042 C1050 0.950 . S
H1043 C1052 0.950 . S
H1044 C1054 0.950 . S
H1045 C1056 0.950 . S
H1046 C1058 0.950 . S
H1047 C1059 0.950 1_554 S
C1048 H1040 0.950 . S
C1048 C1049 1.386 . S
C1048 C1050 1.391 . S
C1049 C1048 1.386 . S
C1049 C1053 1.393 . S
C1050 H1042 0.950 . S
C1050 C1048 1.391 . S
C1050 C1051 1.400 . S
C1051 C1050 1.400 . S
C1051 C1052 1.398 1_554 S
C1051 C1057 1.491 1_554 S
C1052 H1043 0.950 . S
C1052 C1051 1.398 1_556 S
C1052 C1053 1.391 1_556 S
C1053 H1041 0.950 1_554 S
C1053 C1049 1.393 . S
C1053 C1052 1.391 1_554 S
C1054 H1044 0.950 . S
C1054 C1055 1.386 . S
C1054 C1056 1.391 . S
C1055 C1054 1.386 . S
C1055 C1059 1.393 . S
C1056 H1045 0.950 . S
C1056 C1054 1.391 . S
C1056 C1057 1.400 . S
C1057 C1051 1.491 1_556 S
C1057 C1056 1.400 . S
C1057 C1058 1.398 1_556 S
C1058 H1046 0.950 . S
C1058 C1057 1.398 1_554 S
C1058 C1059 1.391 1_554 S
C1059 H1047 0.950 1_556 S
C1059 C1055 1.393 . S
C1059 C1058 1.391 1_556 S
H1060 C1068 0.950 . S
H1061 C1073 0.950 . S
H1062 C1070 0.950 . S
H1063 C1072 0.950 . S
H1064 C1074 0.950 . S
H1065 C1076 0.950 . S
H1066 C1078 0.950 . S
H1067 C1079 0.950 . S
C1068 H1060 0.950 . S
C1068 C1069 1.386 . S
C1068 C1070 1.391 . S
C1069 C1068 1.386 . S
C1069 C1073 1.393 . S
C1070 H1062 0.950 . S
C1070 C1068 1.391 . S
C1070 C1071 1.400 . S
C1071 C1070 1.400 . S
C1071 C1072 1.398 . S
C1071 C1077 1.491 . S
C1072 H1063 0.950 . S
C1072 C1071 1.398 . S
C1072 C1073 1.391 . S
C1073 H1061 0.950 . S
C1073 C1069 1.393 . S
C1073 C1072 1.391 . S
C1074 H1064 0.950 . S
C1074 C1075 1.386 . S
C1074 C1076 1.391 . S
C1075 C1074 1.386 . S
C1075 C1079 1.393 . S
C1076 H1065 0.950 . S
C1076 C1074 1.391 . S
C1076 C1077 1.400 . S
C1077 C1071 1.491 . S
C1077 C1076 1.400 . S
C1077 C1078 1.398 . S
C1078 H1066 0.950 . S
C1078 C1077 1.398 . S
C1078 C1079 1.391 . S
C1079 H1067 0.950 . S
C1079 C1075 1.393 . S
C1079 C1078 1.391 . S
H1080 C1088 0.950 . S
H1081 C1093 0.950 . S
H1082 C1090 0.950 . S
H1083 C1092 0.950 . S
H1084 C1094 0.950 . S
H1085 C1096 0.950 . S
H1086 C1098 0.950 . S
H1087 C1099 0.950 . S
C1088 H1080 0.950 . S
C1088 C1089 1.386 . S
C1088 C1090 1.391 . S
C1089 C1088 1.386 . S
C1089 C1093 1.393 . S
C1090 H1082 0.950 . S
C1090 C1088 1.391 . S
C1090 C1091 1.400 . S
C1091 C1090 1.400 . S
C1091 C1092 1.398 . S
C1091 C1097 1.491 . S
C1092 H1083 0.950 . S
C1092 C1091 1.398 . S
C1092 C1093 1.391 . S
C1093 H1081 0.950 . S
C1093 C1089 1.393 . S
C1093 C1092 1.391 . S
C1094 H1084 0.950 . S
C1094 C1095 1.386 . S
C1094 C1096 1.391 . S
C1095 C1094 1.386 . S
C1095 C1099 1.393 . S
C1096 H1085 0.950 . S
C1096 C1094 1.391 . S
C1096 C1097 1.400 . S
C1097 C1091 1.491 . S
C1097 C1096 1.400 . S
C1097 C1098 1.398 . S
C1098 H1086 0.950 . S
C1098 C1097 1.398 . S
C1098 C1099 1.391 . S
C1099 H1087 0.950 . S
C1099 C1095 1.393 . S
C1099 C1098 1.391 . S
H1100 C1108 0.950 . S
H1101 C1113 0.950 . S
H1102 C1110 0.950 . S
H1103 C1112 0.950 . S
H1104 C1114 0.950 . S
H1105 C1116 0.950 . S
H1106 C1118 0.950 . S
H1107 C1119 0.950 . S
C1108 H1100 0.950 . S
C1108 C1109 1.386 . S
C1108 C1110 1.391 . S
C1109 C1108 1.386 . S
C1109 C1113 1.393 . S
C1110 H1102 0.950 . S
C1110 C1108 1.391 . S
C1110 C1111 1.400 . S
C1111 C1110 1.400 . S
C1111 C1112 1.398 . S
C1111 C1117 1.491 . S
C1112 H1103 0.950 . S
C1112 C1111 1.398 . S
C1112 C1113 1.391 . S
C1113 H1101 0.950 . S
C1113 C1109 1.393 . S
C1113 C1112 1.391 . S
C1114 H1104 0.950 . S
C1114 C1115 1.386 . S
C1114 C1116 1.391 . S
C1115 C1114 1.386 . S
C1115 C1119 1.393 . S
C1116 H1105 0.950 . S
C1116 C1114 1.391 . S
C1116 C1117 1.400 . S
C1117 C1111 1.491 . S
C1117 C1116 1.400 . S
C1117 C1118 1.398 . S
C1118 H1106 0.950 . S
C1118 C1117 1.398 . S
C1118 C1119 1.391 . S
C1119 H1107 0.950 . S
C1119 C1115 1.393 . S
C1119 C1118 1.391 . S
H1120 C1128 0.950 . S
H1121 C1133 0.950 . S
H1122 C1130 0.950 . S
H1123 C1132 0.950 . S
H1124 C1134 0.950 . S
H1125 C1136 0.950 . S
H1126 C1138 0.950 . S
H1127 C1139 0.950 . S
C1128 H1120 0.950 . S
C1128 C1129 1.386 . S
C1128 C1130 1.391 . S
C1129 C1128 1.386 . S
C1129 C1133 1.393 . S
C1130 H1122 0.950 . S
C1130 C1128 1.391 . S
C1130 C1131 1.400 . S
C1131 C1130 1.400 . S
C1131 C1132 1.398 . S
C1131 C1137 1.491 1_565 S
C1132 H1123 0.950 . S
C1132 C1131 1.398 . S
C1132 C1133 1.391 . S
C1133 H1121 0.950 . S
C1133 C1129 1.393 . S
C1133 C1132 1.391 . S
C1134 H1124 0.950 . S
C1134 C1135 1.386 . S
C1134 C1136 1.391 . S
C1135 C1134 1.386 . S
C1135 C1139 1.393 . S
C1136 H1125 0.950 . S
C1136 C1134 1.391 . S
C1136 C1137 1.400 . S
C1137 C1131 1.491 1_545 S
C1137 C1136 1.400 . S
C1137 C1138 1.398 . S
C1138 H1126 0.950 . S
C1138 C1137 1.398 . S
C1138 C1139 1.391 . S
C1139 H1127 0.950 . S
C1139 C1135 1.393 . S
C1139 C1138 1.391 . S
H1140 C1148 0.950 . S
H1141 C1153 0.950 . S
H1142 C1150 0.950 . S
H1143 C1152 0.950 . S
H1144 C1154 0.950 . S
H1145 C1156 0.950 . S
H1146 C1158 0.950 . S
H1147 C1159 0.950 . S
C1148 H1140 0.950 . S
C1148 C1149 1.386 . S
C1148 C1150 1.391 . S
C1149 C1148 1.386 . S
C1149 C1153 1.393 . S
C1150 H1142 0.950 . S
C1150 C1148 1.391 . S
C1150 C1151 1.400 . S
C1151 C1150 1.400 . S
C1151 C1152 1.398 . S
C1151 C1157 1.491 . S
C1152 H1143 0.950 . S
C1152 C1151 1.398 . S
C1152 C1153 1.391 . S
C1153 H1141 0.950 . S
C1153 C1149 1.393 . S
C1153 C1152 1.391 . S
C1154 H1144 0.950 . S
C1154 C1155 1.386 . S
C1154 C1156 1.391 . S
C1155 C1154 1.386 . S
C1155 C1159 1.393 . S
C1156 H1145 0.950 . S
C1156 C1154 1.391 . S
C1156 C1157 1.400 . S
C1157 C1151 1.491 . S
C1157 C1156 1.400 . S
C1157 C1158 1.398 . S
C1158 H1146 0.950 . S
C1158 C1157 1.398 . S
C1158 C1159 1.391 . S
C1159 H1147 0.950 . S
C1159 C1155 1.393 . S
C1159 C1158 1.391 . S
H1160 C1168 0.950 . S
H1161 C1173 0.950 . S
H1162 C1170 0.950 1_545 S
H1163 C1172 0.950 . S
H1164 C1174 0.950 . S
H1165 C1176 0.950 1_565 S
H1166 C1178 0.950 . S
H1167 C1179 0.950 . S
C1168 H1160 0.950 . S
C1168 C1169 1.386 . S
C1168 C1170 1.391 . S
C1169 C1168 1.386 . S
C1169 C1173 1.393 1_554 S
C1170 H1162 0.950 1_565 S
C1170 C1168 1.391 . S
C1170 C1171 1.400 . S
C1171 C1170 1.400 . S
C1171 C1172 1.398 1_554 S
C1171 C1177 1.491 1_564 S
C1172 H1163 0.950 . S
C1172 C1171 1.398 1_556 S
C1172 C1173 1.391 . S
C1173 H1161 0.950 . S
C1173 C1169 1.393 1_556 S
C1173 C1172 1.391 . S
C1174 H1164 0.950 . S
C1174 C1175 1.386 . S
C1174 C1176 1.391 . S
C1175 C1174 1.386 . S
C1175 C1179 1.393 1_556 S
C1176 H1165 0.950 1_545 S
C1176 C1174 1.391 . S
C1176 C1177 1.400 . S
C1177 C1171 1.491 1_546 S
C1177 C1176 1.400 . S
C1177 C1178 1.398 1_556 S
C1178 H1166 0.950 . S
C1178 C1177 1.398 1_554 S
C1178 C1179 1.391 . S
C1179 H1167 0.950 . S
C1179 C1175 1.393 1_554 S
C1179 C1178 1.391 . S
H1180 C1188 0.950 . S
H1181 C1193 0.950 . S
H1182 C1190 0.950 . S
H1183 C1192 0.950 . S
H1184 C1194 0.950 . S
H1185 C1196 0.950 . S
H1186 C1198 0.950 . S
H1187 C1199 0.950 . S
C1188 H1180 0.950 . S
C1188 C1189 1.386 . S
C1188 C1190 1.391 . S
C1189 C1188 1.386 . S
C1189 C1193 1.393 . S
C1190 H1182 0.950 . S
C1190 C1188 1.391 . S
C1190 C1191 1.400 . S
C1191 C1190 1.400 . S
C1191 C1192 1.398 . S
C1191 C1197 1.491 . S
C1192 H1183 0.950 . S
C1192 C1191 1.398 . S
C1192 C1193 1.391 . S
C1193 H1181 0.950 . S
C1193 C1189 1.393 . S
C1193 C1192 1.391 . S
C1194 H1184 0.950 . S
C1194 C1195 1.386 . S
C1194 C1196 1.391 . S
C1195 C1194 1.386 . S
C1195 C1199 1.393 . S
C1196 H1185 0.950 . S
C1196 C1194 1.391 . S
C1196 C1197 1.400 . S
C1197 C1191 1.491 . S
C1197 C1196 1.400 . S
C1197 C1198 1.398 . S
C1198 H1186 0.950 . S
C1198 C1197 1.398 . S
C1198 C1199 1.391 . S
C1199 H1187 0.950 . S
C1199 C1195 1.393 . S
C1199 C1198 1.391 . S
H1200 C1208 0.950 . S
H1201 C1213 0.950 . S
H1202 C1210 0.950 . S
H1203 C1212 0.950 . S
H1204 C1214 0.950 . S
H1205 C1216 0.950 . S
H1206 C1218 0.950 . S
H1207 C1219 0.950 . S
C1208 H1200 0.950 . S
C1208 C1209 1.386 . S
C1208 C1210 1.391 . S
C1209 C1208 1.386 . S
C1209 C1213 1.393 . S
C1210 H1202 0.950 . S
C1210 C1208 1.391 . S
C1210 C1211 1.400 . S
C1211 C1210 1.400 . S
C1211 C1212 1.398 . S
C1211 C1217 1.491 1_565 S
C1212 H1203 0.950 . S
C1212 C1211 1.398 . S
C1212 C1213 1.391 . S
C1213 H1201 0.950 . S
C1213 C1209 1.393 . S
C1213 C1212 1.391 . S
C1214 H1204 0.950 . S
C1214 C1215 1.386 . S
C1214 C1216 1.391 . S
C1215 C1214 1.386 . S
C1215 C1219 1.393 . S
C1216 H1205 0.950 . S
C1216 C1214 1.391 . S
C1216 C1217 1.400 . S
C1217 C1211 1.491 1_545 S
C1217 C1216 1.400 . S
C1217 C1218 1.398 . S
C1218 H1206 0.950 . S
C1218 C1217 1.398 . S
C1218 C1219 1.391 . S
C1219 H1207 0.950 . S
C1219 C1215 1.393 . S
C1219 C1218 1.391 . S
H1220 C1228 0.950 . S
H1221 C1233 0.950 . S
H1222 C1230 0.950 . S
H1223 C1232 0.950 . S
H1224 C1234 0.950 . S
H1225 C1236 0.950 . S
H1226 C1238 0.950 . S
H1227 C1239 0.950 . S
C1228 H1220 0.950 . S
C1228 C1229 1.386 . S
C1228 C1230 1.391 . S
C1229 C1228 1.386 . S
C1229 C1233 1.393 . S
C1230 H1222 0.950 . S
C1230 C1228 1.391 . S
C1230 C1231 1.400 . S
C1231 C1230 1.400 . S
C1231 C1232 1.398 . S
C1231 C1237 1.491 . S
C1232 H1223 0.950 . S
C1232 C1231 1.398 . S
C1232 C1233 1.391 . S
C1233 H1221 0.950 . S
C1233 C1229 1.393 . S
C1233 C1232 1.391 . S
C1234 H1224 0.950 . S
C1234 C1235 1.386 . S
C1234 C1236 1.391 . S
C1235 C1234 1.386 . S
C1235 C1239 1.393 . S
C1236 H1225 0.950 . S
C1236 C1234 1.391 . S
C1236 C1237 1.400 . S
C1237 C1231 1.491 . S
C1237 C1236 1.400 . S
C1237 C1238 1.398 . S
C1238 H1226 0.950 . S
C1238 C1237 1.398 . S
C1238 C1239 1.391 . S
C1239 H1227 0.950 . S
C1239 C1235 1.393 . S
C1239 C1238 1.391 . S
H1240 C1248 0.950 . S
H1241 C1253 0.950 . S
H1242 C1250 0.950 1_565 S
H1243 C1252 0.950 . S
H1244 C1254 0.950 . S
H1245 C1256 0.950 1_545 S
H1246 C1258 0.950 . S
H1247 C1259 0.950 . S
C1248 H1240 0.950 . S
C1248 C1249 1.386 . S
C1248 C1250 1.391 . S
C1249 C1248 1.386 . S
C1249 C1253 1.393 1_556 S
C1250 H1242 0.950 1_545 S
C1250 C1248 1.391 . S
C1250 C1251 1.400 . S
C1251 C1250 1.400 . S
C1251 C1252 1.398 1_556 S
C1251 C1257 1.491 1_546 S
C1252 H1243 0.950 . S
C1252 C1251 1.398 1_554 S
C1252 C1253 1.391 . S
C1253 H1241 0.950 . S
C1253 C1249 1.393 1_554 S
C1253 C1252 1.391 . S
C1254 H1244 0.950 . S
C1254 C1255 1.386 . S
C1254 C1256 1.391 . S
C1255 C1254 1.386 . S
C1255 C1259 1.393 1_554 S
C1256 H1245 0.950 1_565 S
C1256 C1254 1.391 . S
C1256 C1257 1.400 . S
C1257 C1251 1.491 1_564 S
C1257 C1256 1.400 . S
C1257 C1258 1.398 1_554 S
C1258 H1246 0.950 . S
C1258 C1257 1.398 1_556 S
C1258 C1259 1.391 . S
C1259 H1247 0.950 . S
C1259 C1255 1.393 1_556 S
C1259 C1258 1.391 . S
H1260 C1268 0.950 . S
H1261 C1273 0.950 . S
H1262 C1270 0.950 . S
H1263 C1272 0.950 . S
H1264 C1274 0.950 . S
H1265 C1276 0.950 . S
H1266 C1278 0.950 . S
H1267 C1279 0.950 . S
C1268 H1260 0.950 . S
C1268 C1269 1.386 . S
C1268 C1270 1.391 . S
C1269 C1268 1.386 . S
C1269 C1273 1.393 . S
C1270 H1262 0.950 . S
C1270 C1268 1.391 . S
C1270 C1271 1.400 . S
C1271 C1270 1.400 . S
C1271 C1272 1.398 . S
C1271 C1277 1.491 . S
C1272 H1263 0.950 . S
C1272 C1271 1.398 . S
C1272 C1273 1.391 . S
C1273 H1261 0.950 . S
C1273 C1269 1.393 . S
C1273 C1272 1.391 . S
C1274 H1264 0.950 . S
C1274 C1275 1.386 . S
C1274 C1276 1.391 . S
C1275 C1274 1.386 . S
C1275 C1279 1.393 . S
C1276 H1265 0.950 . S
C1276 C1274 1.391 . S
C1276 C1277 1.400 . S
C1277 C1271 1.491 . S
C1277 C1276 1.400 . S
C1277 C1278 1.398 . S
C1278 H1266 0.950 . S
C1278 C1277 1.398 . S
C1278 C1279 1.391 . S
C1279 H1267 0.950 . S
C1279 C1275 1.393 . S
C1279 C1278 1.391 . S
C329 C2 1.581 . S
C335 C1 1.581 . S
C349 C21 1.576 . S
C355 C22 1.576 . S
C369 C41 1.465 . S
C375 C42 1.465 . S
C389 C62 1.469 . S
C395 C61 1.469 . S
C409 C82 1.579 . S
C415 C81 1.579 . S
C429 C101 1.484 . S
C435 C102 1.484 . S
C449 C121 1.463 . S
C455 C122 1.463 . S
C469 C141 1.560 . S
C475 C142 1.560 . S
C489 C161 1.552 . S
C495 C162 1.552 . S
C509 C181 1.559 . S
C515 C182 1.559 . S
C529 C201 1.463 . S
C535 C202 1.463 . S
C549 C221 1.478 . S
C555 C222 1.478 . S
C569 C241 1.577 . S
C575 C242 1.577 . S
C589 C261 1.463 . S
C595 C262 1.463 . S
C609 C282 1.485 . S
C615 C281 1.485 . S
C629 C302 1.578 . S
C635 C301 1.578 . S
C649 C8 1.551 . S
C655 C239 1.622 . S
C669 C38 1.586 . S
C675 C319 1.606 . S
C689 C58 1.608 . S
C695 C189 1.570 . S
C709 C68 1.624 . S
C715 C269 1.624 . S
C729 C88 1.543 . S
C735 C279 1.623 . S
C749 C229 1.624 . S
C755 C108 1.625 . S
C769 C138 1.606 . S
C775 C309 1.569 . S
C789 C158 1.606 . S
C795 C199 1.586 . S
C809 C78 1.610 . S
C815 C169 1.569 . S
C829 C28 1.551 . S
C835 C219 1.622 . S
C849 C249 1.569 . S
C855 C118 1.611 . S
C869 C148 1.556 . S
C875 C299 1.608 . S
C889 C179 1.601 . S
C895 C98 1.591 . S
C909 C128 1.621 . S
C915 C209 1.628 . S
C929 C48 1.628 . S
C935 C289 1.620 . S
C949 C18 1.603 . S
C955 C259 1.588 . S
C969 C9 1.333 . S
C975 C89 1.333 . S
C989 C39 1.594 . S
C995 C109 1.587 . S
C1009 C59 1.800 . S
C1015 C139 1.802 . S
C1029 C69 1.595 . S
C1035 C159 1.597 . S
C1049 C248 1.342 . S
C1055 C168 1.334 . S
C1069 C268 1.584 . S
C1075 C198 1.587 . S
C1089 C218 1.802 . S
C1095 C298 1.800 . S
C1109 C318 1.597 . S
C1115 C228 1.591 . S
C1129 C29 1.347 . S
C1135 C149 1.347 . S
C1149 C99 1.598 . S
C1155 C49 1.595 . S
C1169 C119 1.805 . S
C1175 C79 1.797 . S
C1189 C19 1.589 . S
C1195 C129 1.582 . S
C1209 C308 1.341 . S
C1215 C188 1.348 . S
C1229 C258 1.599 . S
C1235 C208 1.595 . S
C1249 C278 1.797 . S
C1255 C238 1.805 . S
C1269 C288 1.594 . S
C1275 C178 1.598 . S
