# Generated by pormake.
# Topology snp, (6)-cn, num edge types: 1
# Building blocks:
#     Node 0, Type 0, BuildingBlock: BETFAJ_clean_sbu_0, # of connection points: 6
#     Node 1, Type 0, BuildingBlock: BETFAJ_clean_sbu_0, # of connection points: 6
#     Node 2, Type 0, BuildingBlock: BETFAJ_clean_sbu_0, # of connection points: 6
#     Node 3, Type 0, BuildingBlock: BETFAJ_clean_sbu_0, # of connection points: 6
#     Edge 4, Type (0, 0), BuildingBlock: ZUJKAS_clean_linker_0, # of connection points: 2
#     Edge 5, Type (0, 0), BuildingBlock: ZUJKAS_clean_linker_0, # of connection points: 2
#     Edge 6, Type (0, 0), BuildingBlock: ZUJKAS_clean_linker_0, # of connection points: 2
#     Edge 7, Type (0, 0), BuildingBlock: ZUJKAS_clean_linker_0, # of connection points: 2
#     Edge 8, Type (0, 0), BuildingBlock: ZUJKAS_clean_linker_0, # of connection points: 2
#     Edge 9, Type (0, 0), BuildingBlock: ZUJKAS_clean_linker_0, # of connection points: 2
#     Edge 10, Type (0, 0), BuildingBlock: ZUJKAS_clean_linker_0, # of connection points: 2
#     Edge 11, Type (0, 0), BuildingBlock: ZUJKAS_clean_linker_0, # of connection points: 2
#     Edge 12, Type (0, 0), BuildingBlock: ZUJKAS_clean_linker_0, # of connection points: 2
#     Edge 13, Type (0, 0), BuildingBlock: ZUJKAS_clean_linker_0, # of connection points: 2
#     Edge 14, Type (0, 0), BuildingBlock: ZUJKAS_clean_linker_0, # of connection points: 2
#     Edge 15, Type (0, 0), BuildingBlock: ZUJKAS_clean_linker_0, # of connection points: 2
# Relax obj value: 0.198
# Max RMSD: 0.204
# Mean RMSD: 0.198
data_MOF--net-snp--node1-BETFAJ_clean_sbu_0--edge1-ZUJKAS_clean_linker_0
_symmetry_space_group_name_H-M    P1
_symmetry_Int_Tables_number       1
_symmetry_cell_setting            triclinic
loop_
_symmetry_equiv_pos_as_xyz
'x, y, z'
_cell_length_a     32.341983
_cell_length_b     32.215478
_cell_length_c     44.311373
_cell_angle_alpha  86.255265
_cell_angle_beta   101.20237
_cell_angle_gamma 95.336028
loop_
_atom_site_label
_atom_site_type_symbol
_atom_site_fract_x
_atom_site_fract_y
_atom_site_fract_z
_atom_type_partial_charge
Sm0 Sm 0.25769 0.13374 0.10881 0.0
Sm1 Sm 0.24463 0.06347 0.06325 0.0
C2 C 0.25791 0.19726 0.1442 0.0
C3 C 0.2478 0.20158 0.17485 0.0
C4 C 0.22797 0.16794 0.18988 0.0
C5 C 0.21921 0.17203 0.21925 0.0
C6 C 0.23025 0.20983 0.23424 0.0
C7 C 0.24999 0.24348 0.21893 0.0
C8 C 0.25866 0.23935 0.18955 0.0
C9 C 0.32441 0.08473 0.11402 0.0
C10 C 0.22129 0.04415 0.13228 0.0
C11 C 0.24041 -0.00142 0.02831 0.0
C12 C 0.22926 0.99011 0.99511 0.0
C13 C 0.23251 0.02186 0.97215 0.0
C14 C 0.22012 0.01328 0.94083 0.0
C15 C 0.20384 0.97288 0.93183 0.0
C16 C 0.20092 0.94127 0.95503 0.0
C17 C 0.21349 0.94982 0.98623 0.0
C18 C 0.17808 0.11307 0.05732 0.0
C19 C 0.27222 0.1558 0.03785 0.0
O20 O 0.22613 0.1861 0.1224 0.0
O21 O 0.29151 0.17789 0.14373 0.0
O22 O 0.30283 0.09808 0.08915 0.0
O23 O 0.31163 0.09778 0.13745 0.0
O24 O 0.21917 0.08463 0.1332 0.0
O25 O 0.23759 0.02858 0.11051 0.0
O26 O 0.27545 0.02176 0.03773 0.0
O27 O 0.20932 0.00733 0.04112 0.0
O28 O 0.20016 0.09975 0.08203 0.0
O29 O 0.19009 0.0983 0.03416 0.0
O30 O 0.27356 0.11556 0.03456 0.0
O31 O 0.26311 0.17014 0.06289 0.0
H32 H 0.21951 0.13841 0.17901 0.0
H33 H 0.20449 0.1453 0.23042 0.0
H34 H 0.25843 0.2732 0.22953 0.0
H35 H 0.27395 0.26567 0.17831 0.0
H36 H 0.24418 0.05335 0.97843 0.0
H37 H 0.22245 0.03849 0.92368 0.0
H38 H 0.18915 0.90971 0.94906 0.0
H39 H 0.21059 0.92488 1.00351 0.0
Sm40 Sm 0.0072 0.23373 0.69277 0.0
Sm41 Sm 0.092 0.25653 0.66911 0.0
C42 C 0.94836 0.20901 0.72602 0.0
C43 C 0.94444 0.19712 0.75824 0.0
C44 C 0.97785 0.18112 0.77965 0.0
C45 C 0.97274 0.16927 0.80987 0.0
C46 C 0.93413 0.17328 0.81934 0.0
C47 C 0.90117 0.19011 0.79781 0.0
C48 C 0.90628 0.20179 0.76768 0.0
C49 C 0.01431 0.30965 0.66181 0.0
C50 C 0.094 0.27247 0.73925 0.0
C51 C 0.14783 0.28441 0.63446 0.0
C52 C 0.15281 0.27897 0.60247 0.0
C53 C 0.11843 0.28079 0.57766 0.0
C54 C 0.12346 0.27412 0.54769 0.0
C55 C 0.16301 0.26557 0.54182 0.0
C56 C 0.19734 0.26391 0.56677 0.0
C57 C 0.19226 0.27053 0.59672 0.0
C58 C 0.08839 0.18287 0.70322 0.0
C59 C 0.00782 0.20993 0.62307 0.0
O60 O 0.9661 0.18343 0.71164 0.0
O61 O 0.95953 0.24822 0.71987 0.0
O62 O 0.04301 0.29376 0.68111 0.0
O63 O 0.97896 0.28619 0.65911 0.0
O64 O 0.05837 0.24783 0.73606 0.0
O65 O 0.11116 0.28659 0.71544 0.0
O66 O 0.11659 0.30561 0.63807 0.0
O67 O 0.15255 0.2515 0.65336 0.0
O68 O 0.05843 0.19668 0.68354 0.0
O69 O 0.12348 0.20588 0.70253 0.0
O70 O 0.04516 0.23162 0.62643 0.0
O71 O 0.98698 0.20298 0.64609 0.0
H72 H 0.00773 0.17746 0.77293 0.0
H73 H 0.99876 0.15617 0.82561 0.0
H74 H 0.87131 0.19454 0.80426 0.0
H75 H 0.88021 0.2144 0.75163 0.0
H76 H 0.08758 0.28722 0.58139 0.0
H77 H 0.09641 0.27612 0.52908 0.0
H78 H 0.22809 0.25679 0.56328 0.0
H79 H 0.21916 0.26868 0.61549 0.0
Sm80 Sm 0.82389 0.98717 0.1806 0.0
Sm81 Sm 0.81069 0.91616 0.13576 0.0
C82 C 0.8275 0.05273 0.21476 0.0
C83 C 0.83794 0.06156 0.24791 0.0
C84 C 0.83447 0.02994 0.27091 0.0
C85 C 0.84599 0.03879 0.30221 0.0
C86 C 0.8616 0.07936 0.31117 0.0
C87 C 0.86477 0.11086 0.28794 0.0
C88 C 0.85307 0.10203 0.25673 0.0
C89 C 0.89036 0.93741 0.18733 0.0
C90 C 0.79629 0.89514 0.20699 0.0
C91 C 0.80991 0.85273 0.10018 0.0
C92 C 0.81953 0.84875 0.06931 0.0
C93 C 0.84055 0.88204 0.05476 0.0
C94 C 0.84856 0.87842 0.02511 0.0
C95 C 0.83557 0.84145 1.00934 0.0
C96 C 0.81467 0.80814 0.02418 0.0
C97 C 0.80673 0.8118 0.05384 0.0
C98 C 0.74436 0.96588 0.13003 0.0
C99 C 0.84717 0.00525 0.11165 0.0
O100 O 0.79253 0.02952 0.2052 0.0
O101 O 0.85894 0.04364 0.20245 0.0
O102 O 0.86844 0.95013 0.16234 0.0
O103 O 0.87847 0.95303 0.2102 0.0
O104 O 0.79588 0.93556 0.21009 0.0
O105 O 0.80431 0.88017 0.18178 0.0
O106 O 0.8419 0.86374 0.12187 0.0
O107 O 0.77638 0.87202 0.10101 0.0
O108 O 0.76562 0.95238 0.15497 0.0
O109 O 0.75734 0.95263 0.10674 0.0
O110 O 0.84984 0.96478 0.11133 0.0
O111 O 0.83048 0.02119 0.13302 0.0
H112 H 0.82326 -0.00167 0.26468 0.0
H113 H 0.84351 0.01365 0.31938 0.0
H114 H 0.87604 0.14255 0.29385 0.0
H115 H 0.85611 0.12688 0.23941 0.0
H116 H 0.8505 0.91097 0.06621 0.0
H117 H 0.86424 0.90489 1.01434 0.0
H118 H 0.80472 0.77902 1.01298 0.0
H119 H 0.79045 0.78577 0.06466 0.0
Sm120 Sm 0.97099 0.79113 0.57488 0.0
Sm121 Sm 0.05128 0.82423 0.54895 0.0
C122 C 0.92101 0.75534 0.6115 0.0
C123 C 0.91539 0.76216 0.64323 0.0
C124 C 0.94964 0.76225 0.66825 0.0
C125 C 0.94412 0.77043 0.69782 0.0
C126 C 0.90422 0.7787 0.70316 0.0
C127 C 0.86997 0.77837 0.67805 0.0
C128 C 0.87551 0.77016 0.64849 0.0
C129 C 0.96873 0.87051 0.5489 0.0
C130 C 0.05447 0.83995 0.62062 0.0
C131 C 0.10468 0.85839 0.51385 0.0
C132 C 0.10727 0.86646 0.48086 0.0
C133 C 0.11986 0.90687 0.47043 0.0
C134 C 0.12425 0.91521 0.43974 0.0
C135 C 0.11639 0.88322 0.41868 0.0
C136 C 0.10341 0.84275 0.4291 0.0
C137 C 0.09874 0.83448 0.45981 0.0
C138 C 0.0499 0.744 0.57362 0.0
C139 C 0.96435 0.7846 0.503 0.0
O140 O 0.95635 0.74046 0.60857 0.0
O141 O 0.90926 0.7847 0.59056 0.0
O142 O 1.00066 0.85506 0.56525 0.0
O143 O 0.93537 0.84441 0.54795 0.0
O144 O 0.01891 0.81521 0.61762 0.0
O145 O 0.07286 0.85129 0.59682 0.0
O146 O 0.07892 0.87978 0.52477 0.0
O147 O 0.10481 0.81971 0.52487 0.0
O148 O 0.01958 0.76065 0.55664 0.0
O149 O 0.08399 0.76941 0.57748 0.0
O150 O 0.99825 0.81161 0.5065 0.0
O151 O 0.95036 0.76568 0.52688 0.0
H152 H 0.98085 0.75625 0.66503 0.0
H153 H 0.97114 0.76986 0.71656 0.0
H154 H 0.83891 0.78517 0.68109 0.0
H155 H 0.84864 0.77052 0.6296 0.0
H156 H 0.12681 0.93204 0.48619 0.0
H157 H 0.13477 0.94661 0.43269 0.0
H158 H 0.09661 0.81748 0.41346 0.0
H159 H 0.08873 0.80301 0.46708 0.0
H160 H 0.92054 0.89212 0.14846 0.0
H161 H 0.98282 0.9193 0.12828 0.0
H162 H 0.02196 -0.00309 0.20606 0.0
H163 H 0.95984 0.96937 0.22657 0.0
H164 H 0.97249 0.03199 0.1457 0.0
H165 H 0.11536 0.95496 0.13427 0.0
H166 H 0.06615 0.92273 0.12897 0.0
H167 H 0.08805 0.94255 0.16605 0.0
C168 C 0.94407 0.9125 0.16247 0.0
C169 C 0.93461 0.93037 0.1881 0.0
C170 C 0.97979 0.92805 0.1509 0.0
C171 C 0.00583 0.96115 0.16519 0.0
C172 C 1.00162 0.97172 0.19458 0.0
H173 H 0.14709 0.15739 0.09631 0.0
H174 H 0.08662 0.12753 0.11772 0.0
C175 C 0.96605 0.95584 0.20631 0.0
C176 C 0.02343 -0.00669 0.14515 0.0
H177 H 0.09807 0.01406 0.1007 0.0
C178 C 1.00032 0.02846 0.13611 0.0
C179 C 0.05869 0.98763 0.13213 0.0
C180 C 0.08378 0.95008 0.14091 0.0
C181 C 0.01182 0.05834 0.11424 0.0
C182 C 0.04722 0.05278 0.10137 0.0
C183 C 0.07032 0.01764 0.11038 0.0
C184 C 0.06447 0.08493 0.08117 0.0
C185 C 0.9861 0.09533 0.10473 0.0
C186 C 0.06848 0.07442 0.05173 0.0
C187 C 0.10292 0.09189 0.03928 0.0
C188 C 0.13363 0.11873 0.05691 0.0
C189 C 0.12409 0.13608 0.08272 0.0
C190 C 0.08951 0.11891 0.09503 0.0
H191 H 0.95517 0.09105 0.11239 0.0
H192 H 1.00403 0.12366 0.11506 0.0
H193 H 0.9804 0.10078 0.07931 0.0
H194 H 0.04897 0.04844 0.04065 0.0
H195 H 0.10923 0.0786 1.01895 0.0
H196 H 0.90352 0.91142 0.5596 0.0
H197 H 0.91721 0.9743 0.58886 0.0
H198 H 0.04242 0.99293 0.56752 0.0
H199 H 0.02868 0.93062 0.53826 0.0
H200 H 0.98205 0.95286 0.63719 0.0
H201 H 0.02337 0.10976 0.58666 0.0
H202 H 0.98599 0.07176 0.56558 0.0
H203 H 0.0419 0.06817 0.56927 0.0
C204 C 0.93279 0.9306 0.55929 0.0
C205 C 0.96595 0.91557 0.54801 0.0
C206 C 0.94062 0.96647 0.57615 0.0
C207 C 0.9812 0.98736 0.58104 0.0
C208 C 0.01088 0.97723 0.56407 0.0
H209 H 0.1477 0.12886 0.70203 0.0
H210 H 0.12566 0.05839 0.68542 0.0
C211 C 1.0031 0.94139 0.54737 0.0
C212 C 0.99714 0.00836 0.60995 0.0
H213 H 0.05572 0.09472 0.63882 0.0
C214 C 0.99758 0.98421 0.63769 0.0
C215 C 0.01787 0.04874 0.61033 0.0
C216 C 0.01701 0.07629 0.58139 0.0
C217 C 0.01944 -0.00084 0.66583 0.0
C218 C 0.04145 0.03888 0.66597 0.0
C219 C 0.03994 0.06346 0.63836 0.0
C220 C 0.06236 0.0588 0.69443 0.0
C221 C 0.01908 0.97256 0.69506 0.0
C222 C 0.03634 0.07878 0.70971 0.0
C223 C 0.04885 0.11918 0.71906 0.0
C224 C 0.08722 0.13875 0.71325 0.0
C225 C 0.1174 0.11454 0.70591 0.0
C226 C 0.10488 0.07406 0.69656 0.0
H227 H 0.01004 0.93916 0.69031 0.0
H228 H 0.05046 0.97534 0.71054 0.0
H229 H 0.99577 0.98364 0.70743 0.0
H230 H 1.00368 0.06696 0.70894 0.0
H231 H 0.026 0.13705 0.72609 0.0
H232 H 0.70777 0.98504 0.17715 0.0
H233 H 0.63597 0.0057 0.1737 0.0
H234 H 0.61609 0.00585 0.07458 0.0
H235 H 0.68778 0.98473 0.07787 0.0
H236 H 0.5953 0.07494 0.14307 0.0
H237 H 0.5191 0.92451 0.09669 0.0
H238 H 0.57448 0.93142 0.11397 0.0
H239 H 0.55625 0.95117 0.07526 0.0
C240 C 0.6882 0.98982 0.15462 0.0
C241 C 0.70307 0.98289 0.12777 0.0
C242 C 0.64725 0.00158 0.15269 0.0
C243 C 0.62053 0.00643 0.12393 0.0
C244 C 0.63597 0.00135 0.09702 0.0
H245 H 0.36051 0.06595 0.06655 0.0
H246 H 0.43243 0.04592 0.06948 0.0
C247 C 0.67695 0.98959 0.09892 0.0
C248 C 0.57626 0.01599 0.12221 0.0
H249 H 0.47376 0.97705 0.09977 0.0
C250 C 0.56868 0.05355 0.13369 0.0
C251 C 0.54171 0.98788 0.11 0.0
C252 C 0.5481 0.9463 0.0985 0.0
C253 C 0.52734 0.06414 0.1328 0.0
C254 C 0.4928 0.03598 0.12065 0.0
C255 C 0.50037 -0.00154 0.10912 0.0
C256 C 0.44853 0.04534 0.11923 0.0
C257 C 0.52095 0.10573 0.14427 0.0
C258 C 0.43342 0.05029 0.1463 0.0
C259 C 0.39237 0.06169 0.1447 0.0
C260 C 0.36584 0.06813 0.11599 0.0
C261 C 0.3804 0.06135 0.08898 0.0
C262 C 0.42143 0.04997 0.0906 0.0
H263 H 0.54987 0.12761 0.14585 0.0
H264 H 0.49438 0.12047 0.12892 0.0
H265 H 0.51313 0.10093 0.16761 0.0
H266 H 0.45361 0.04595 0.16863 0.0
H267 H 0.3818 0.06644 0.16587 0.0
H268 H 0.95359 0.35375 0.62537 0.0
H269 H 0.9606 0.42778 0.6084 0.0
H270 H 0.09158 0.43656 0.65376 0.0
H271 H 0.08489 0.36309 0.67066 0.0
H272 H 0.9854 0.49418 0.64955 0.0
H273 H 0.09465 0.49115 0.56741 0.0
H274 H 0.06462 0.44493 0.57924 0.0
H275 H 0.11179 0.46511 0.60421 0.0
C276 C 0.98396 0.37143 0.6313 0.0
C277 C 0.01871 0.35282 0.64921 0.0
C278 C 0.98791 0.41356 0.62166 0.0
C279 C 0.02674 0.43731 0.62957 0.0
C280 C 0.06161 0.4185 0.64694 0.0
H281 H 0.11285 0.69967 0.60729 0.0
H282 H 0.10762 0.62498 0.62291 0.0
C283 C 0.05767 0.37658 0.65664 0.0
C284 C 0.03028 0.4825 0.62165 0.0
H285 H 0.08315 0.55789 0.58267 0.0
C286 C 0.00651 0.50816 0.63476 0.0
C287 C 0.05825 0.50044 0.60265 0.0
C288 C 0.08356 0.47401 0.58732 0.0
C289 C 0.01036 0.5516 0.62964 0.0
C290 C 0.0382 0.56955 0.61053 0.0
C291 C 0.06207 0.5439 0.59748 0.0
C292 C 0.04129 0.61472 0.60243 0.0
C293 C 0.98515 0.57795 0.64513 0.0
C294 C 0.00582 0.63324 0.58571 0.0
C295 C 0.00873 0.67549 0.57685 0.0
C296 C 0.04726 0.69991 0.58441 0.0
C297 C 0.0828 0.68146 0.60129 0.0
C298 C 0.07986 0.63897 0.61015 0.0
H299 H 0.97484 0.56095 0.66538 0.0
H300 H 1.00381 0.60738 0.65276 0.0
H301 H 0.9564 0.58619 0.62851 0.0
H302 H 0.97603 0.61483 0.57903 0.0
H303 H 0.98087 0.68888 0.56368 0.0
H304 H 0.10809 0.22264 0.49678 0.0
H305 H 0.11776 0.2108 0.44464 0.0
H306 H 0.23981 0.2802 0.4623 0.0
H307 H 0.2303 0.29259 0.51423 0.0
H308 H 0.13127 0.26858 0.39673 0.0
H309 H 0.26665 0.17091 0.43105 0.0
H310 H 0.23355 0.18208 0.45746 0.0
H311 H 0.27456 0.22014 0.44899 0.0
C312 C 0.1369 0.23564 0.48955 0.0
C313 C 0.16853 0.2584 0.5099 0.0
C314 C 0.14246 0.22864 0.45975 0.0
C315 C 0.17983 0.24396 0.4497 0.0
C316 C 0.21116 0.26716 0.46976 0.0
H317 H 0.2812 0.24948 0.28257 0.0
H318 H 0.26688 0.2571 0.33403 0.0
C319 C 0.20565 0.27421 0.49951 0.0
C320 C 0.1858 0.23656 0.41806 0.0
H321 H 0.25161 0.19502 0.37845 0.0
C322 C 0.15737 0.2522 0.3927 0.0
C323 C 0.21983 0.21511 0.4128 0.0
C324 C 0.25019 0.19572 0.43898 0.0
C325 C 0.16282 0.24818 0.36231 0.0
C326 C 0.19727 0.22733 0.35709 0.0
C327 C 0.22533 0.21116 0.38244 0.0
C328 C 0.20537 0.22274 0.32556 0.0
C329 C 0.13243 0.26744 0.3361 0.0
C330 C 0.17576 0.20049 0.30368 0.0
C331 C 0.18375 0.19627 0.2741 0.0
C332 C 0.22164 0.2141 0.26578 0.0
C333 C 0.2514 0.23596 0.28792 0.0
C334 C 0.24339 0.2401 0.31747 0.0
H335 H 0.11429 0.29077 0.34416 0.0
H336 H 0.14944 0.28288 0.31837 0.0
H337 H 0.10949 0.24258 0.32505 0.0
H338 H 0.14652 0.18616 0.30952 0.0
H339 H 0.16 0.17944 0.25765 0.0
H340 H 0.99101 0.18031 0.87435 0.0
H341 H 0.98022 0.15611 0.92609 0.0
H342 H 0.85167 0.1122 0.88861 0.0
H343 H 0.86257 0.13458 0.8369 0.0
H344 H 0.92348 0.17681 0.96153 0.0
H345 H 0.89697 0.00913 0.93653 0.0
H346 H 0.91809 0.0478 0.91101 0.0
H347 H 0.86208 0.04098 0.91041 0.0
C348 C 0.96057 0.16505 0.87702 0.0
C349 C 0.92776 0.15933 0.8512 0.0
C350 C 0.95433 0.15157 0.90672 0.0
C351 C 0.91528 0.1318 0.91131 0.0
C352 C 0.88232 0.1267 0.88571 0.0
H353 H 0.81807 0.07828 0.08256 0.0
H354 H 0.83746 0.11292 0.03551 0.0
C355 C 0.88851 0.14003 0.85607 0.0
C356 C 0.90893 0.11606 0.94269 0.0
H357 H 0.88028 0.02788 0.98344 0.0
C358 C 0.91424 0.1442 0.96639 0.0
C359 C 0.89743 0.07341 0.94927 0.0
C360 C 0.89371 0.04098 0.92557 0.0
C361 C 0.90748 0.13101 0.99618 0.0
C362 C 0.89443 0.08863 1.00236 0.0
C363 C 0.88989 0.06046 0.97877 0.0
C364 C 0.88618 0.07204 0.03313 0.0
C365 C 0.91506 0.16242 1.02085 0.0
C366 C 0.90729 0.03794 0.0478 0.0
C367 C 0.89591 0.01798 0.07427 0.0
C368 C 0.8632 0.03167 0.08697 0.0
C369 C 0.8436 0.06728 0.07346 0.0
C370 C 0.85477 0.08711 0.04657 0.0
H371 H 0.93596 0.18996 1.01511 0.0
H372 H 0.88436 0.17356 0.023 0.0
H373 H 0.92952 0.14827 0.04351 0.0
H374 H 0.93183 0.02584 0.03817 0.0
H375 H 0.912 0.99089 0.08433 0.0
H376 H 0.97975 0.82531 0.45013 0.0
H377 H 0.93759 0.82055 0.39874 0.0
H378 H 0.8533 0.72395 0.43167 0.0
H379 H 0.89488 0.72966 0.48409 0.0
H380 H 0.91754 0.75893 0.35968 0.0
H381 H 0.77134 0.80735 0.3916 0.0
H382 H 0.82147 0.81022 0.41792 0.0
H383 H 0.79205 0.76063 0.41062 0.0
C384 C 0.95237 0.80284 0.44665 0.0
C385 C 0.94043 0.77819 0.47138 0.0
C386 C 0.92831 0.80006 0.41709 0.0
C387 C 0.89189 0.77234 0.41136 0.0
C388 C 0.88073 0.74625 0.43568 0.0
H389 H 0.7969 0.80952 0.21206 0.0
H390 H 0.80846 0.76612 0.26001 0.0
C391 C 0.90468 0.74936 0.46556 0.0
C392 C 0.86553 0.77295 0.37995 0.0
H393 H 0.77283 0.8064 0.33921 0.0
C394 C 0.88553 0.76848 0.35507 0.0
C395 C 0.8237 0.78523 0.37411 0.0
C396 C 0.80078 0.79144 0.39987 0.0
C397 C 0.8667 0.77998 0.3248 0.0
C398 C 0.82579 0.79464 0.3191 0.0
C399 C 0.80414 0.79516 0.34365 0.0
C400 C 0.80883 0.81712 0.28959 0.0
C401 C 0.89255 0.77999 0.29982 0.0
C402 C 0.80162 0.85932 0.29012 0.0
C403 C 0.79399 0.88385 0.26287 0.0
C404 C 0.79393 0.86684 0.23443 0.0
C405 C 0.79742 0.82372 0.23363 0.0
C406 C 0.80438 0.79894 0.26104 0.0
H407 H 0.9261 0.7744 0.30926 0.0
H408 H 0.87908 0.75487 0.28393 0.0
H409 H 0.89191 0.81025 0.2863 0.0
H410 H 0.80458 0.8741 0.3118 0.0
H411 H 0.79097 0.9168 0.26444 0.0
H412 H 0.12891 0.88898 0.63897 0.0
H413 H 0.1576 0.91485 0.69047 0.0
H414 H 0.04868 0.85559 0.72344 0.0
H415 H 0.02016 0.82957 0.67263 0.0
H416 H 0.12454 0.96571 0.72811 0.0
H417 H 0.14666 0.80871 0.78443 0.0
H418 H 0.13727 0.81775 0.74313 0.0
H419 H 0.09387 0.81364 0.76343 0.0
C420 C 0.11117 0.88128 0.65722 0.0
C421 C 0.07251 0.85642 0.65161 0.0
C422 C 0.12757 0.89622 0.68666 0.0
C423 C 0.10581 0.88644 0.7111 0.0
C424 C 0.06672 0.86267 0.70528 0.0
H425 H 0.13334 0.92468 0.9054 0.0
H426 H 0.11126 0.90685 0.8516 0.0
C427 C 0.05038 0.84779 0.67603 0.0
C428 C 0.12355 0.90069 0.74279 0.0
H429 H 0.15107 0.86466 0.81768 0.0
C430 C 0.1304 0.94365 0.74771 0.0
C431 C 0.13187 0.87198 0.7684 0.0
C432 C 0.12746 0.82545 0.76463 0.0
C433 C 0.14309 0.9586 0.77761 0.0
C434 C 0.15062 0.9298 0.80332 0.0
C435 C 0.14501 0.88687 0.79818 0.0
C436 C 0.16346 0.94303 0.83582 0.0
C437 C 0.1466 0.00508 0.78139 0.0
C438 C 0.20029 0.96942 0.84522 0.0
C439 C 0.21302 0.97978 0.87616 0.0
C440 C 0.18954 0.96353 0.89855 0.0
C441 C 0.15258 0.93734 0.88899 0.0
C442 C 0.13977 0.92724 0.8581 0.0
H443 H 0.12824 0.02172 0.76112 0.0
H444 H 0.13521 0.0125 0.80234 0.0
H445 H 0.18024 0.01726 0.78369 0.0
H446 H 0.21982 0.98125 0.8288 0.0
H447 H 0.24192 -0.00042 0.8827 0.0
H448 H 0.90642 0.86958 0.98589 0.0
H449 H 0.91893 0.86324 0.93368 0.0
H450 H 0.79591 0.79735 0.90879 0.0
H451 H 0.7826 0.80466 0.96053 0.0
H452 H 0.92086 0.7915 0.90281 0.0
H453 H 0.79485 0.88686 0.83937 0.0
H454 H 0.81228 0.88775 0.8806 0.0
H455 H 0.7758 0.84604 0.86398 0.0
C456 C 0.88175 0.85425 0.9692 0.0
C457 C 0.84341 0.83773 0.97751 0.0
C458 C 0.88908 0.85042 0.93939 0.0
C459 C 0.85815 0.83034 0.91711 0.0
C460 C 0.81997 0.81367 0.92535 0.0
H461 H 0.83662 0.75326 0.731 0.0
H462 H 0.82712 0.76756 0.78262 0.0
C463 C 0.81263 0.81742 0.95513 0.0
C464 C 0.86624 0.82554 0.88559 0.0
H465 H 0.82701 0.84547 0.80913 0.0
C466 C 0.90058 0.80362 0.88234 0.0
C467 C 0.83983 0.84143 0.85884 0.0
C468 C 0.80387 0.86719 0.86078 0.0
C469 C 0.90838 0.79601 0.85311 0.0
C470 C 0.88146 0.8112 0.82636 0.0
C471 C 0.84751 0.83365 0.82962 0.0
C472 C 0.88742 0.80332 0.79479 0.0
C473 C 0.9446 0.77064 0.85108 0.0
C474 C 0.92425 0.81918 0.78422 0.0
C475 C 0.9297 0.81132 0.75455 0.0
C476 C 0.89833 0.7875 0.73473 0.0
C477 C 0.86126 0.7721 0.74537 0.0
C478 C 0.85583 0.78007 0.77499 0.0
H479 H 0.95613 0.7534 0.8732 0.0
H480 H 0.93508 0.74789 0.8327 0.0
H481 H 0.97128 0.79184 0.84526 0.0
H482 H 0.9487 0.83794 0.79883 0.0
H483 H 0.95828 0.82441 0.74702 0.0
H484 H 0.1665 0.06439 0.16711 0.0
H485 H 0.14536 0.0258 0.21132 0.0
H486 H 0.21543 0.92362 0.19697 0.0
H487 H 0.23786 0.96301 0.15253 0.0
H488 H 0.1021 0.95214 0.22073 0.0
H489 H 0.26767 0.94984 0.28518 0.0
H490 H 0.25392 0.98085 0.24987 0.0
H491 H 0.25704 0.92557 0.24881 0.0
C492 C 0.17757 0.03368 0.17321 0.0
C493 C 0.20474 0.01719 0.15659 0.0
C494 C 0.16516 0.01149 0.19852 0.0
C495 C 0.17956 0.97216 0.2081 0.0
C496 C 0.20477 0.9544 0.19056 0.0
H497 H 0.15354 0.83596 0.38358 0.0
H498 H 0.16619 0.85229 0.33114 0.0
C499 C 0.21728 0.97674 0.16498 0.0
C500 C 0.16927 0.95137 0.23719 0.0
H501 H 0.21393 0.92112 0.31089 0.0
C502 C 0.12663 0.94481 0.24024 0.0
C503 C 0.20112 0.94214 0.26297 0.0
C504 C 0.24753 0.95022 0.26181 0.0
C505 C 0.11506 0.9299 0.26825 0.0
C506 C 0.14694 0.922 0.29425 0.0
C507 C 0.18949 0.92717 0.29099 0.0
C508 C 0.13707 0.9108 0.32545 0.0
C509 C 0.06869 0.92299 0.26971 0.0
C510 C 0.11665 0.93827 0.33986 0.0
C511 C 0.10941 0.92905 0.36983 0.0
C512 C 0.12247 0.8921 0.38619 0.0
C513 C 0.14257 0.86442 0.37158 0.0
C514 C 0.15004 0.87382 0.34163 0.0
H515 H 0.04916 0.91679 0.24667 0.0
H516 H 0.0625 0.89643 0.28594 0.0
H517 H 0.05834 0.95154 0.27776 0.0
H518 H 0.10698 0.96735 0.32814 0.0
H519 H 0.09359 0.95095 0.38023 0.0
H520 H 0.06267 0.26484 0.79219 0.0
H521 H 0.10308 0.26175 0.8447 0.0
H522 H 0.21902 0.29017 0.81036 0.0
H523 H 0.17863 0.29428 0.75762 0.0
H524 H 0.15832 0.20166 0.86015 0.0
H525 H 0.24073 0.35735 0.88824 0.0
H526 H 0.19561 0.35021 0.85727 0.0
H527 H 0.24702 0.3386 0.8522 0.0
C528 C 0.09668 0.27162 0.79583 0.0
C529 C 0.11754 0.27942 0.77078 0.0
C530 C 0.11972 0.26992 0.82586 0.0
C531 C 0.16403 0.27579 0.83143 0.0
C532 C 0.18481 0.28628 0.80663 0.0
H533 H 0.30553 0.14314 0.98748 0.0
H534 H 0.28821 0.17896 0.93687 0.0
C535 C 0.16168 0.28843 0.77649 0.0
C536 C 0.18815 0.26428 0.8623 0.0
H537 H 0.26158 0.3003 0.92322 0.0
C538 C 0.18083 0.22329 0.87394 0.0
C539 C 0.21751 0.29257 0.88016 0.0
C540 C 0.22554 0.33727 0.86903 0.0
C541 C 0.20168 0.20978 0.90307 0.0
C542 C 0.23163 0.23775 0.9208 0.0
C543 C 0.23908 0.27885 0.90929 0.0
C544 C 0.253 0.22481 0.95212 0.0
C545 C 0.19057 0.16589 0.91491 0.0
C546 C 0.24175 0.24091 0.97777 0.0
C547 C 0.25205 0.22082 1.00684 0.0
C548 C 0.27335 0.18417 1.01043 0.0
C549 C 0.28859 0.17098 0.98532 0.0
C550 C 0.27873 0.19138 0.95639 0.0
H551 H 0.16058 0.15179 0.90136 0.0
H552 H 0.21614 0.14594 0.91323 0.0
H553 H 0.1874 0.16543 0.93944 0.0
H554 H 0.22199 0.2668 0.97489 0.0
H555 H 0.23995 0.2318 0.02576 0.0
H556 H 0.93075 0.12892 0.33824 0.0
H557 H 0.95155 0.14654 0.39217 0.0
H558 H 0.84371 0.06977 0.41381 0.0
H559 H 0.82277 0.05179 0.35978 0.0
H560 H 0.90925 0.18701 0.42643 0.0
H561 H 0.93667 0.02947 0.4811 0.0
H562 H 0.93072 0.04006 0.44004 0.0
H563 H 0.88498 0.03332 0.45788 0.0
C564 C 0.91135 0.11575 0.3544 0.0
C565 C 0.87497 0.08893 0.34449 0.0
C566 C 0.92343 0.12573 0.38536 0.0
C567 C 0.89961 0.10913 0.40735 0.0
C568 C 0.86331 0.08223 0.39759 0.0
H569 H 0.93279 0.16156 0.60465 0.0
H570 H 0.90393 0.1359 0.55305 0.0
C571 C 0.85128 0.07205 0.36658 0.0
C572 C 0.91193 0.12177 0.44 0.0
H573 H 0.94056 0.08459 0.51467 0.0
C574 C 0.9161 0.16452 0.44567 0.0
C575 C 0.92066 0.09255 0.46532 0.0
C576 C 0.91844 0.04631 0.46088 0.0
C577 C 0.92894 0.17883 0.47564 0.0
C578 C 0.93844 0.14974 0.50085 0.0
C579 C 0.93331 0.10692 0.4954 0.0
C580 C 0.95617 0.16362 0.53261 0.0
C581 C 0.93214 0.22515 0.48007 0.0
C582 C 0.99547 0.18692 0.5385 0.0
C583 C 0.01195 0.20154 0.56778 0.0
C584 C 0.98968 0.19324 0.59217 0.0
C585 C 0.95066 0.16898 0.58644 0.0
C586 C 0.93417 0.15417 0.55696 0.0
H587 H 0.91303 0.24204 0.46032 0.0
H588 H 0.92148 0.23172 0.50151 0.0
H589 H 0.96562 0.23774 0.48197 0.0
H590 H 0.01351 0.19394 0.52033 0.0
H591 H 0.04232 0.21949 0.57118 0.0
loop_
_geom_bond_atom_site_label_1
_geom_bond_atom_site_label_2
_geom_bond_distance
_geom_bond_site_symmetry_2
_ccdc_geom_bond_type
Sm0 C2 2.846 . S
Sm0 O20 2.543 . S
Sm0 O21 2.450 . S
Sm0 O22 2.681 . S
Sm0 O23 2.464 . S
Sm0 O24 2.396 . S
Sm0 O28 2.386 . S
Sm0 O31 2.408 . S
Sm1 C11 2.846 1_544 S
Sm1 O22 2.386 . S
Sm1 O25 2.408 1_545 S
Sm1 O26 2.543 . S
Sm1 O27 2.450 1_545 S
Sm1 O28 2.681 . S
Sm1 O29 2.464 . S
Sm1 O30 2.396 . S
C2 Sm0 2.846 . S
C2 C3 1.506 . S
C2 O20 1.261 . S
C2 O21 1.242 . S
C3 C2 1.506 . S
C3 C4 1.358 . S
C3 C8 1.382 . S
C4 C3 1.358 . S
C4 C5 1.385 . S
C4 H32 0.930 . S
C5 C4 1.385 . S
C5 C6 1.395 . S
C5 H33 0.929 . S
C6 C5 1.395 . S
C6 C7 1.335 . S
C7 C6 1.335 . S
C7 C8 1.398 . S
C7 H34 0.930 . S
C8 C3 1.382 . S
C8 C7 1.398 . S
C8 H35 0.929 . S
C9 O22 1.271 . S
C9 O23 1.251 . S
C10 O24 1.252 . S
C10 O25 1.272 1_545 S
C11 Sm1 2.846 1_566 S
C11 C12 1.506 . S
C11 O26 1.260 1_566 S
C11 O27 1.242 1_556 S
C12 C11 1.506 . S
C12 C13 1.358 . S
C12 C17 1.382 . S
C13 C12 1.358 . S
C13 C14 1.385 . S
C13 H36 0.930 . S
C14 C13 1.385 . S
C14 C15 1.395 . S
C14 H37 0.929 . S
C15 C14 1.395 . S
C15 C16 1.335 . S
C16 C15 1.335 . S
C16 C17 1.398 . S
C16 H38 0.930 . S
C17 C12 1.382 . S
C17 C16 1.398 . S
C17 H39 0.929 . S
C18 O28 1.271 . S
C18 O29 1.251 . S
C19 O30 1.252 . S
C19 O31 1.272 . S
O20 Sm0 2.543 . S
O20 C2 1.261 . S
O21 Sm0 2.450 . S
O21 C2 1.242 . S
O22 Sm0 2.681 . S
O22 Sm1 2.386 . S
O22 C9 1.271 . S
O23 Sm0 2.464 . S
O23 C9 1.251 . S
O24 Sm0 2.396 . S
O24 C10 1.252 . S
O25 Sm1 2.408 1_565 S
O25 C10 1.272 1_565 S
O26 Sm1 2.543 . S
O26 C11 1.260 1_544 S
O27 Sm1 2.450 1_565 S
O27 C11 1.242 1_554 S
O28 Sm0 2.386 . S
O28 Sm1 2.681 . S
O28 C18 1.271 . S
O29 Sm1 2.464 . S
O29 C18 1.251 . S
O30 Sm1 2.396 . S
O30 C19 1.252 . S
O31 Sm0 2.408 . S
O31 C19 1.272 . S
H32 C4 0.930 . S
H33 C5 0.929 . S
H34 C7 0.930 . S
H35 C8 0.929 . S
H36 C13 0.930 . S
H37 C14 0.929 . S
H38 C16 0.930 . S
H39 C17 0.929 . S
Sm40 C42 2.846 . S
Sm40 O60 2.543 . S
Sm40 O61 2.450 . S
Sm40 O62 2.681 1_655 S
Sm40 O63 2.464 . S
Sm40 O64 2.396 1_655 S
Sm40 O68 2.386 1_655 S
Sm40 O71 2.408 . S
Sm41 C51 2.846 . S
Sm41 O62 2.386 . S
Sm41 O65 2.408 . S
Sm41 O66 2.543 . S
Sm41 O67 2.450 . S
Sm41 O68 2.681 . S
Sm41 O69 2.464 . S
Sm41 O70 2.396 . S
C42 Sm40 2.846 . S
C42 C43 1.506 . S
C42 O60 1.261 . S
C42 O61 1.242 . S
C43 C42 1.506 . S
C43 C44 1.358 . S
C43 C48 1.382 . S
C44 C43 1.358 . S
C44 C45 1.385 . S
C44 H72 0.930 . S
C45 C44 1.385 . S
C45 C46 1.395 . S
C45 H73 0.929 . S
C46 C45 1.395 . S
C46 C47 1.335 . S
C47 C46 1.335 . S
C47 C48 1.398 . S
C47 H74 0.930 . S
C48 C43 1.382 . S
C48 C47 1.398 . S
C48 H75 0.929 . S
C49 O62 1.271 . S
C49 O63 1.251 1_455 S
C50 O64 1.252 . S
C50 O65 1.272 . S
C51 Sm41 2.846 . S
C51 C52 1.506 . S
C51 O66 1.261 . S
C51 O67 1.242 . S
C52 C51 1.506 . S
C52 C53 1.358 . S
C52 C57 1.382 . S
C53 C52 1.358 . S
C53 C54 1.385 . S
C53 H76 0.930 . S
C54 C53 1.385 . S
C54 C55 1.395 . S
C54 H77 0.929 . S
C55 C54 1.395 . S
C55 C56 1.335 . S
C56 C55 1.335 . S
C56 C57 1.398 . S
C56 H78 0.930 . S
C57 C52 1.382 . S
C57 C56 1.398 . S
C57 H79 0.929 . S
C58 O68 1.271 . S
C58 O69 1.251 . S
C59 O70 1.252 1_655 S
C59 O71 1.272 . S
O60 Sm40 2.543 . S
O60 C42 1.261 . S
O61 Sm40 2.450 . S
O61 C42 1.242 . S
O62 Sm40 2.681 1_455 S
O62 Sm41 2.386 . S
O62 C49 1.271 . S
O63 Sm40 2.464 . S
O63 C49 1.251 1_655 S
O64 Sm40 2.396 1_455 S
O64 C50 1.252 . S
O65 Sm41 2.408 . S
O65 C50 1.272 . S
O66 Sm41 2.543 . S
O66 C51 1.261 . S
O67 Sm41 2.450 . S
O67 C51 1.242 . S
O68 Sm40 2.386 1_455 S
O68 Sm41 2.681 . S
O68 C58 1.271 . S
O69 Sm41 2.464 . S
O69 C58 1.251 . S
O70 Sm41 2.396 . S
O70 C59 1.252 1_455 S
O71 Sm40 2.408 . S
O71 C59 1.272 . S
H72 C44 0.930 . S
H73 C45 0.929 . S
H74 C47 0.930 . S
H75 C48 0.929 . S
H76 C53 0.930 . S
H77 C54 0.929 . S
H78 C56 0.930 . S
H79 C57 0.929 . S
Sm80 C82 2.846 . S
Sm80 O100 2.543 . S
Sm80 O101 2.450 . S
Sm80 O102 2.681 1_545 S
Sm80 O103 2.464 . S
Sm80 O104 2.396 1_545 S
Sm80 O108 2.386 . S
Sm80 O111 2.408 . S
Sm81 C91 2.846 . S
Sm81 O102 2.386 . S
Sm81 O105 2.408 . S
Sm81 O106 2.543 . S
Sm81 O107 2.450 . S
Sm81 O108 2.681 1_565 S
Sm81 O109 2.464 . S
Sm81 O110 2.396 1_565 S
C82 Sm80 2.846 . S
C82 C83 1.506 . S
C82 O100 1.261 . S
C82 O101 1.242 . S
C83 C82 1.506 . S
C83 C84 1.358 . S
C83 C88 1.382 . S
C84 C83 1.358 . S
C84 C85 1.385 . S
C84 H112 0.930 . S
C85 C84 1.385 . S
C85 C86 1.395 . S
C85 H113 0.929 . S
C86 C85 1.395 . S
C86 C87 1.335 . S
C87 C86 1.335 . S
C87 C88 1.398 . S
C87 H114 0.930 . S
C88 C83 1.382 . S
C88 C87 1.398 . S
C88 H115 0.929 . S
C89 O102 1.271 1_545 S
C89 O103 1.251 . S
C90 O104 1.252 . S
C90 O105 1.272 . S
C91 Sm81 2.846 . S
C91 C92 1.506 . S
C91 O106 1.261 . S
C91 O107 1.242 . S
C92 C91 1.506 . S
C92 C93 1.358 . S
C92 C97 1.382 . S
C93 C92 1.358 . S
C93 C94 1.385 1_554 S
C93 H116 0.930 . S
C94 C93 1.385 1_556 S
C94 C95 1.395 . S
C94 H117 0.929 . S
C95 C94 1.395 . S
C95 C96 1.335 . S
C96 C95 1.335 . S
C96 C97 1.398 1_556 S
C96 H118 0.930 . S
C97 C92 1.382 . S
C97 C96 1.398 1_554 S
C97 H119 0.929 . S
C98 O108 1.271 1_565 S
C98 O109 1.251 . S
C99 O110 1.252 . S
C99 O111 1.272 . S
O100 Sm80 2.543 . S
O100 C82 1.261 . S
O101 Sm80 2.450 . S
O101 C82 1.242 . S
O102 Sm80 2.681 1_565 S
O102 Sm81 2.386 . S
O102 C89 1.271 1_565 S
O103 Sm80 2.464 . S
O103 C89 1.251 . S
O104 Sm80 2.396 1_565 S
O104 C90 1.252 . S
O105 Sm81 2.408 . S
O105 C90 1.272 . S
O106 Sm81 2.543 . S
O106 C91 1.261 . S
O107 Sm81 2.450 . S
O107 C91 1.242 . S
O108 Sm80 2.386 . S
O108 Sm81 2.681 1_545 S
O108 C98 1.271 1_545 S
O109 Sm81 2.464 . S
O109 C98 1.251 . S
O110 Sm81 2.396 1_545 S
O110 C99 1.252 . S
O111 Sm80 2.408 . S
O111 C99 1.272 . S
H112 C84 0.930 . S
H113 C85 0.929 . S
H114 C87 0.930 . S
H115 C88 0.929 . S
H116 C93 0.930 . S
H117 C94 0.929 . S
H118 C96 0.930 . S
H119 C97 0.929 . S
Sm120 C122 2.846 . S
Sm120 O140 2.543 . S
Sm120 O141 2.450 . S
Sm120 O142 2.681 1_655 S
Sm120 O143 2.464 . S
Sm120 O144 2.396 1_655 S
Sm120 O148 2.386 1_655 S
Sm120 O151 2.408 . S
Sm121 C131 2.846 . S
Sm121 O142 2.386 . S
Sm121 O145 2.408 . S
Sm121 O146 2.543 . S
Sm121 O147 2.450 . S
Sm121 O148 2.681 . S
Sm121 O149 2.464 . S
Sm121 O150 2.396 . S
C122 Sm120 2.846 . S
C122 C123 1.506 . S
C122 O140 1.261 . S
C122 O141 1.242 . S
C123 C122 1.506 . S
C123 C124 1.358 . S
C123 C128 1.382 . S
C124 C123 1.358 . S
C124 C125 1.385 . S
C124 H152 0.930 . S
C125 C124 1.385 . S
C125 C126 1.395 . S
C125 H153 0.929 . S
C126 C125 1.395 . S
C126 C127 1.335 . S
C127 C126 1.335 . S
C127 C128 1.398 . S
C127 H154 0.930 . S
C128 C123 1.382 . S
C128 C127 1.398 . S
C128 H155 0.929 . S
C129 O142 1.271 . S
C129 O143 1.251 1_455 S
C130 O144 1.252 . S
C130 O145 1.272 . S
C131 Sm121 2.846 . S
C131 C132 1.506 . S
C131 O146 1.261 . S
C131 O147 1.242 . S
C132 C131 1.506 . S
C132 C133 1.358 . S
C132 C137 1.382 . S
C133 C132 1.358 . S
C133 C134 1.385 . S
C133 H156 0.930 . S
C134 C133 1.385 . S
C134 C135 1.395 . S
C134 H157 0.929 . S
C135 C134 1.395 . S
C135 C136 1.335 . S
C136 C135 1.335 . S
C136 C137 1.398 . S
C136 H158 0.930 . S
C137 C132 1.382 . S
C137 C136 1.398 . S
C137 H159 0.929 . S
C138 O148 1.271 . S
C138 O149 1.251 . S
C139 O150 1.252 1_655 S
C139 O151 1.272 . S
O140 Sm120 2.543 . S
O140 C122 1.261 . S
O141 Sm120 2.450 . S
O141 C122 1.242 . S
O142 Sm120 2.681 1_455 S
O142 Sm121 2.386 . S
O142 C129 1.271 . S
O143 Sm120 2.464 . S
O143 C129 1.251 1_655 S
O144 Sm120 2.396 1_455 S
O144 C130 1.252 . S
O145 Sm121 2.408 . S
O145 C130 1.272 . S
O146 Sm121 2.543 . S
O146 C131 1.261 . S
O147 Sm121 2.450 . S
O147 C131 1.242 . S
O148 Sm120 2.386 1_455 S
O148 Sm121 2.681 . S
O148 C138 1.271 . S
O149 Sm121 2.464 . S
O149 C138 1.251 . S
O150 Sm121 2.396 . S
O150 C139 1.252 1_455 S
O151 Sm120 2.408 . S
O151 C139 1.272 . S
H152 C124 0.930 . S
H153 C125 0.929 . S
H154 C127 0.930 . S
H155 C128 0.929 . S
H156 C133 0.930 . S
H157 C134 0.929 . S
H158 C136 0.930 . S
H159 C137 0.929 . S
H160 C168 0.929 . S
H161 C170 0.930 . S
H162 C172 0.930 . S
H163 C175 0.929 . S
H164 C178 0.930 . S
H165 C180 0.960 . S
H166 C180 0.960 . S
H167 C180 0.960 . S
C168 H160 0.929 . S
C168 C169 1.377 . S
C168 C170 1.384 . S
C169 C168 1.377 . S
C169 C175 1.390 1_565 S
C170 H161 0.930 . S
C170 C168 1.384 . S
C170 C171 1.372 1_565 S
C171 C170 1.372 1_545 S
C171 C172 1.400 . S
C171 C176 1.490 . S
C172 H162 0.930 . S
C172 C171 1.400 . S
C172 C175 1.386 . S
H173 C189 0.930 . S
H174 C190 0.931 . S
C175 H163 0.929 . S
C175 C169 1.390 1_545 S
C175 C172 1.386 . S
C176 C171 1.490 . S
C176 C178 1.395 . S
C176 C179 1.403 1_655 S
H177 C183 0.930 . S
C178 H164 0.930 . S
C178 C176 1.395 . S
C178 C181 1.403 1_655 S
C179 C176 1.403 1_455 S
C179 C180 1.524 1_545 S
C179 C183 1.400 . S
C180 H165 0.960 . S
C180 H166 0.960 . S
C180 H167 0.960 . S
C180 C179 1.524 1_565 S
C181 C178 1.403 1_455 S
C181 C182 1.392 . S
C181 C185 1.495 . S
C182 C181 1.392 . S
C182 C183 1.385 . S
C182 C184 1.478 . S
C183 H177 0.930 . S
C183 C179 1.400 . S
C183 C182 1.385 . S
C184 C182 1.478 . S
C184 C186 1.381 . S
C184 C190 1.383 . S
C185 C181 1.495 . S
C185 H191 0.959 1_455 S
C185 H192 0.961 . S
C185 H193 0.960 . S
C186 C184 1.381 . S
C186 C187 1.394 . S
C186 H194 0.930 . S
C187 C186 1.394 . S
C187 C188 1.383 . S
C187 H195 0.929 . S
C188 C187 1.383 . S
C188 C189 1.377 . S
C189 H173 0.930 . S
C189 C188 1.377 . S
C189 C190 1.379 . S
C190 H174 0.931 . S
C190 C184 1.383 . S
C190 C189 1.379 . S
H191 C185 0.959 1_655 S
H192 C185 0.961 . S
H193 C185 0.960 . S
H194 C186 0.930 . S
H195 C187 0.929 . S
H196 C204 0.929 . S
H197 C206 0.930 . S
H198 C208 0.930 . S
H199 C211 0.929 . S
H200 C214 0.930 . S
H201 C216 0.960 . S
H202 C216 0.960 1_655 S
H203 C216 0.960 . S
C204 H196 0.929 . S
C204 C205 1.377 1_655 S
C204 C206 1.384 . S
C205 C204 1.377 1_455 S
C205 C211 1.390 . S
C206 H197 0.930 . S
C206 C204 1.384 . S
C206 C207 1.372 1_655 S
C207 C206 1.372 1_455 S
C207 C208 1.400 . S
C207 C212 1.490 . S
C208 H198 0.930 . S
C208 C207 1.400 . S
C208 C211 1.386 . S
H209 C225 0.930 . S
H210 C226 0.931 . S
C211 H199 0.929 . S
C211 C205 1.390 . S
C211 C208 1.386 . S
C212 C207 1.490 . S
C212 C214 1.395 . S
C212 C215 1.403 1_565 S
H213 C219 0.930 . S
C214 H200 0.930 . S
C214 C212 1.395 . S
C214 C217 1.403 1_565 S
C215 C212 1.403 1_545 S
C215 C216 1.524 . S
C215 C219 1.400 . S
C216 H201 0.960 . S
C216 H202 0.960 1_455 S
C216 H203 0.960 . S
C216 C215 1.524 . S
C217 C214 1.403 1_545 S
C217 C218 1.392 . S
C217 C221 1.495 . S
C218 C217 1.392 . S
C218 C219 1.385 . S
C218 C220 1.478 . S
C219 H213 0.930 . S
C219 C215 1.400 . S
C219 C218 1.385 . S
C220 C218 1.478 . S
C220 C222 1.381 1_455 S
C220 C226 1.383 . S
C221 C217 1.495 . S
C221 H227 0.959 1_545 S
C221 H228 0.961 . S
C221 H229 0.960 . S
C222 C220 1.381 1_655 S
C222 C223 1.394 . S
C222 H230 0.930 . S
C223 C222 1.394 . S
C223 C224 1.383 1_655 S
C223 H231 0.929 . S
C224 C223 1.383 1_455 S
C224 C225 1.377 . S
C225 H209 0.930 . S
C225 C224 1.377 . S
C225 C226 1.379 . S
C226 H210 0.931 . S
C226 C220 1.383 . S
C226 C225 1.379 . S
H227 C221 0.959 1_565 S
H228 C221 0.961 . S
H229 C221 0.960 . S
H230 C222 0.930 . S
H231 C223 0.929 . S
H232 C240 0.929 . S
H233 C242 0.930 1_565 S
H234 C244 0.930 . S
H235 C247 0.929 . S
H236 C250 0.930 . S
H237 C252 0.960 . S
H238 C252 0.960 . S
H239 C252 0.960 . S
C240 H232 0.929 . S
C240 C241 1.377 . S
C240 C242 1.384 1_565 S
C241 C240 1.377 . S
C241 C247 1.390 1_565 S
C242 H233 0.930 1_545 S
C242 C240 1.384 1_545 S
C242 C243 1.372 . S
C243 C242 1.372 . S
C243 C244 1.400 . S
C243 C248 1.490 . S
C244 H234 0.930 . S
C244 C243 1.400 . S
C244 C247 1.386 . S
H245 C261 0.930 . S
H246 C262 0.931 . S
C247 H235 0.929 . S
C247 C241 1.390 1_545 S
C247 C244 1.386 . S
C248 C243 1.490 . S
C248 C250 1.395 . S
C248 C251 1.410 . S
H249 C255 0.930 1_565 S
C250 H236 0.930 . S
C250 C248 1.395 . S
C250 C253 1.403 . S
C251 C248 1.410 . S
C251 C252 1.511 1_545 S
C251 C255 1.405 . S
C252 H237 0.960 . S
C252 H238 0.960 . S
C252 H239 0.960 . S
C252 C251 1.511 1_565 S
C253 C250 1.403 . S
C253 C254 1.392 . S
C253 C257 1.495 . S
C254 C253 1.392 . S
C254 C255 1.385 . S
C254 C256 1.478 . S
C255 H249 0.930 1_545 S
C255 C251 1.405 . S
C255 C254 1.385 . S
C256 C254 1.478 . S
C256 C258 1.381 . S
C256 C262 1.383 . S
C257 C253 1.495 . S
C257 H263 0.959 . S
C257 H264 0.961 . S
C257 H265 0.960 . S
C258 C256 1.381 . S
C258 C259 1.394 . S
C258 H266 0.930 . S
C259 C258 1.394 . S
C259 C260 1.383 . S
C259 H267 0.929 . S
C260 C259 1.383 . S
C260 C261 1.377 . S
C261 H245 0.930 . S
C261 C260 1.377 . S
C261 C262 1.379 . S
C262 H246 0.931 . S
C262 C256 1.383 . S
C262 C261 1.379 . S
H263 C257 0.959 . S
H264 C257 0.961 . S
H265 C257 0.960 . S
H266 C258 0.930 . S
H267 C259 0.929 . S
H268 C276 0.929 . S
H269 C278 0.930 . S
H270 C280 0.930 . S
H271 C283 0.929 . S
H272 C286 0.930 1_655 S
H273 C288 0.960 . S
H274 C288 0.960 . S
H275 C288 0.960 . S
C276 H268 0.929 . S
C276 C277 1.377 1_655 S
C276 C278 1.384 . S
C277 C276 1.377 1_455 S
C277 C283 1.390 . S
C278 H269 0.930 . S
C278 C276 1.384 . S
C278 C279 1.372 1_655 S
C279 C278 1.372 1_455 S
C279 C280 1.400 . S
C279 C284 1.490 . S
C280 H270 0.930 . S
C280 C279 1.400 . S
C280 C283 1.386 . S
H281 C297 0.930 . S
H282 C298 0.931 . S
C283 H271 0.929 . S
C283 C277 1.390 . S
C283 C280 1.386 . S
C284 C279 1.490 . S
C284 C286 1.395 . S
C284 C287 1.403 . S
H285 C291 0.930 . S
C286 H272 0.930 1_455 S
C286 C284 1.395 . S
C286 C289 1.403 . S
C287 C284 1.403 . S
C287 C288 1.524 . S
C287 C291 1.400 . S
C288 H273 0.960 . S
C288 H274 0.960 . S
C288 H275 0.960 . S
C288 C287 1.524 . S
C289 C286 1.403 . S
C289 C290 1.392 . S
C289 C293 1.495 1_455 S
C290 C289 1.392 . S
C290 C291 1.385 . S
C290 C292 1.478 . S
C291 H285 0.930 . S
C291 C287 1.400 . S
C291 C290 1.385 . S
C292 C290 1.478 . S
C292 C294 1.381 1_455 S
C292 C298 1.383 . S
C293 C289 1.495 1_655 S
C293 H299 0.959 . S
C293 H300 0.961 1_655 S
C293 H301 0.960 . S
C294 C292 1.381 1_655 S
C294 C295 1.394 . S
C294 H302 0.930 . S
C295 C294 1.394 . S
C295 C296 1.383 1_655 S
C295 H303 0.929 . S
C296 C295 1.383 1_455 S
C296 C297 1.377 . S
C297 H281 0.930 . S
C297 C296 1.377 . S
C297 C298 1.379 . S
C298 H282 0.931 . S
C298 C292 1.383 . S
C298 C297 1.379 . S
H299 C293 0.959 . S
H300 C293 0.961 1_455 S
H301 C293 0.960 . S
H302 C294 0.930 . S
H303 C295 0.929 . S
H304 C312 0.929 . S
H305 C314 0.930 . S
H306 C316 0.930 . S
H307 C319 0.929 . S
H308 C322 0.930 . S
H309 C324 0.960 . S
H310 C324 0.960 . S
H311 C324 0.960 . S
C312 H304 0.929 . S
C312 C313 1.377 . S
C312 C314 1.384 . S
C313 C312 1.377 . S
C313 C319 1.390 . S
C314 H305 0.930 . S
C314 C312 1.384 . S
C314 C315 1.372 . S
C315 C314 1.372 . S
C315 C316 1.400 . S
C315 C320 1.490 . S
C316 H306 0.930 . S
C316 C315 1.400 . S
C316 C319 1.386 . S
H317 C333 0.930 . S
H318 C334 0.931 . S
C319 H307 0.929 . S
C319 C313 1.390 . S
C319 C316 1.386 . S
C320 C315 1.490 . S
C320 C322 1.395 . S
C320 C323 1.403 . S
H321 C327 0.930 . S
C322 H308 0.930 . S
C322 C320 1.395 . S
C322 C325 1.403 . S
C323 C320 1.403 . S
C323 C324 1.524 . S
C323 C327 1.400 . S
C324 H309 0.960 . S
C324 H310 0.960 . S
C324 H311 0.960 . S
C324 C323 1.524 . S
C325 C322 1.403 . S
C325 C326 1.392 . S
C325 C329 1.495 . S
C326 C325 1.392 . S
C326 C327 1.385 . S
C326 C328 1.478 . S
C327 H321 0.930 . S
C327 C323 1.400 . S
C327 C326 1.385 . S
C328 C326 1.478 . S
C328 C330 1.381 . S
C328 C334 1.383 . S
C329 C325 1.495 . S
C329 H335 0.959 . S
C329 H336 0.961 . S
C329 H337 0.960 . S
C330 C328 1.381 . S
C330 C331 1.394 . S
C330 H338 0.930 . S
C331 C330 1.394 . S
C331 C332 1.383 . S
C331 H339 0.929 . S
C332 C331 1.383 . S
C332 C333 1.377 . S
C333 H317 0.930 . S
C333 C332 1.377 . S
C333 C334 1.379 . S
C334 H318 0.931 . S
C334 C328 1.383 . S
C334 C333 1.379 . S
H335 C329 0.959 . S
H336 C329 0.961 . S
H337 C329 0.960 . S
H338 C330 0.930 . S
H339 C331 0.929 . S
H340 C348 0.929 . S
H341 C350 0.930 . S
H342 C352 0.930 . S
H343 C355 0.929 . S
H344 C358 0.930 . S
H345 C360 0.960 . S
H346 C360 0.960 . S
H347 C360 0.960 . S
C348 H340 0.929 . S
C348 C349 1.377 . S
C348 C350 1.384 . S
C349 C348 1.377 . S
C349 C355 1.390 . S
C350 H341 0.930 . S
C350 C348 1.384 . S
C350 C351 1.372 . S
C351 C350 1.372 . S
C351 C352 1.400 . S
C351 C356 1.490 . S
C352 H342 0.930 . S
C352 C351 1.400 . S
C352 C355 1.386 . S
H353 C369 0.930 . S
H354 C370 0.931 . S
C355 H343 0.929 . S
C355 C349 1.390 . S
C355 C352 1.386 . S
C356 C351 1.490 . S
C356 C358 1.395 . S
C356 C359 1.403 . S
H357 C363 0.930 . S
C358 H344 0.930 . S
C358 C356 1.395 . S
C358 C361 1.403 . S
C359 C356 1.403 . S
C359 C360 1.524 . S
C359 C363 1.400 . S
C360 H345 0.960 . S
C360 H346 0.960 . S
C360 H347 0.960 . S
C360 C359 1.524 . S
C361 C358 1.403 . S
C361 C362 1.392 . S
C361 C365 1.495 . S
C362 C361 1.392 . S
C362 C363 1.385 . S
C362 C364 1.478 . S
C363 H357 0.930 . S
C363 C359 1.400 . S
C363 C362 1.385 . S
C364 C362 1.478 . S
C364 C366 1.381 1_556 S
C364 C370 1.383 . S
C365 C361 1.495 . S
C365 H371 0.959 . S
C365 H372 0.961 . S
C365 H373 0.960 . S
C366 C364 1.381 1_554 S
C366 C367 1.394 . S
C366 H374 0.930 . S
C367 C366 1.394 . S
C367 C368 1.383 . S
C367 H375 0.929 . S
C368 C367 1.383 . S
C368 C369 1.377 . S
C369 H353 0.930 . S
C369 C368 1.377 . S
C369 C370 1.379 1_554 S
C370 H354 0.931 . S
C370 C364 1.383 . S
C370 C369 1.379 1_556 S
H371 C365 0.959 . S
H372 C365 0.961 . S
H373 C365 0.960 . S
H374 C366 0.930 . S
H375 C367 0.929 . S
H376 C384 0.929 . S
H377 C386 0.930 . S
H378 C388 0.930 . S
H379 C391 0.929 . S
H380 C394 0.930 . S
H381 C396 0.960 . S
H382 C396 0.960 . S
H383 C396 0.960 . S
C384 H376 0.929 . S
C384 C385 1.377 . S
C384 C386 1.384 . S
C385 C384 1.377 . S
C385 C391 1.390 . S
C386 H377 0.930 . S
C386 C384 1.384 . S
C386 C387 1.372 . S
C387 C386 1.372 . S
C387 C388 1.400 . S
C387 C392 1.490 . S
C388 H378 0.930 . S
C388 C387 1.400 . S
C388 C391 1.386 . S
H389 C405 0.930 . S
H390 C406 0.931 . S
C391 H379 0.929 . S
C391 C385 1.390 . S
C391 C388 1.386 . S
C392 C387 1.490 . S
C392 C394 1.395 . S
C392 C395 1.403 . S
H393 C399 0.930 . S
C394 H380 0.930 . S
C394 C392 1.395 . S
C394 C397 1.403 . S
C395 C392 1.403 . S
C395 C396 1.524 . S
C395 C399 1.400 . S
C396 H381 0.960 . S
C396 H382 0.960 . S
C396 H383 0.960 . S
C396 C395 1.524 . S
C397 C394 1.403 . S
C397 C398 1.392 . S
C397 C401 1.495 . S
C398 C397 1.392 . S
C398 C399 1.385 . S
C398 C400 1.478 . S
C399 H393 0.930 . S
C399 C395 1.400 . S
C399 C398 1.385 . S
C400 C398 1.478 . S
C400 C402 1.381 . S
C400 C406 1.383 . S
C401 C397 1.495 . S
C401 H407 0.959 . S
C401 H408 0.961 . S
C401 H409 0.960 . S
C402 C400 1.381 . S
C402 C403 1.394 . S
C402 H410 0.930 . S
C403 C402 1.394 . S
C403 C404 1.383 . S
C403 H411 0.929 . S
C404 C403 1.383 . S
C404 C405 1.377 . S
C405 H389 0.930 . S
C405 C404 1.377 . S
C405 C406 1.379 . S
C406 H390 0.931 . S
C406 C400 1.383 . S
C406 C405 1.379 . S
H407 C401 0.959 . S
H408 C401 0.961 . S
H409 C401 0.960 . S
H410 C402 0.930 . S
H411 C403 0.929 . S
H412 C420 0.929 . S
H413 C422 0.930 . S
H414 C424 0.930 . S
H415 C427 0.929 . S
H416 C430 0.930 . S
H417 C432 0.960 . S
H418 C432 0.960 . S
H419 C432 0.960 . S
C420 H412 0.929 . S
C420 C421 1.377 . S
C420 C422 1.384 . S
C421 C420 1.377 . S
C421 C427 1.390 . S
C422 H413 0.930 . S
C422 C420 1.384 . S
C422 C423 1.372 . S
C423 C422 1.372 . S
C423 C424 1.400 . S
C423 C428 1.490 . S
C424 H414 0.930 . S
C424 C423 1.400 . S
C424 C427 1.386 . S
H425 C441 0.930 . S
H426 C442 0.931 . S
C427 H415 0.929 . S
C427 C421 1.390 . S
C427 C424 1.386 . S
C428 C423 1.490 . S
C428 C430 1.395 . S
C428 C431 1.403 . S
H429 C435 0.930 . S
C430 H416 0.930 . S
C430 C428 1.395 . S
C430 C433 1.403 . S
C431 C428 1.403 . S
C431 C432 1.524 . S
C431 C435 1.400 . S
C432 H417 0.960 . S
C432 H418 0.960 . S
C432 H419 0.960 . S
C432 C431 1.524 . S
C433 C430 1.403 . S
C433 C434 1.392 . S
C433 C437 1.495 . S
C434 C433 1.392 . S
C434 C435 1.385 . S
C434 C436 1.478 . S
C435 H429 0.930 . S
C435 C431 1.400 . S
C435 C434 1.385 . S
C436 C434 1.478 . S
C436 C438 1.381 . S
C436 C442 1.383 . S
C437 C433 1.495 . S
C437 H443 0.959 . S
C437 H444 0.961 . S
C437 H445 0.960 . S
C438 C436 1.381 . S
C438 C439 1.394 . S
C438 H446 0.930 . S
C439 C438 1.394 . S
C439 C440 1.383 . S
C439 H447 0.929 . S
C440 C439 1.383 . S
C440 C441 1.377 . S
C441 H425 0.930 . S
C441 C440 1.377 . S
C441 C442 1.379 . S
C442 H426 0.931 . S
C442 C436 1.383 . S
C442 C441 1.379 . S
H443 C437 0.959 . S
H444 C437 0.961 . S
H445 C437 0.960 . S
H446 C438 0.930 . S
H447 C439 0.929 . S
H448 C456 0.929 . S
H449 C458 0.930 . S
H450 C460 0.930 . S
H451 C463 0.929 . S
H452 C466 0.930 . S
H453 C468 0.960 . S
H454 C468 0.960 . S
H455 C468 0.960 . S
C456 H448 0.929 . S
C456 C457 1.377 . S
C456 C458 1.384 . S
C457 C456 1.377 . S
C457 C463 1.390 . S
C458 H449 0.930 . S
C458 C456 1.384 . S
C458 C459 1.372 . S
C459 C458 1.372 . S
C459 C460 1.400 . S
C459 C464 1.490 . S
C460 H450 0.930 . S
C460 C459 1.400 . S
C460 C463 1.386 . S
H461 C477 0.930 . S
H462 C478 0.931 . S
C463 H451 0.929 . S
C463 C457 1.390 . S
C463 C460 1.386 . S
C464 C459 1.490 . S
C464 C466 1.395 . S
C464 C467 1.403 . S
H465 C471 0.930 . S
C466 H452 0.930 . S
C466 C464 1.395 . S
C466 C469 1.403 . S
C467 C464 1.403 . S
C467 C468 1.524 . S
C467 C471 1.400 . S
C468 H453 0.960 . S
C468 H454 0.960 . S
C468 H455 0.960 . S
C468 C467 1.524 . S
C469 C466 1.403 . S
C469 C470 1.392 . S
C469 C473 1.495 . S
C470 C469 1.392 . S
C470 C471 1.385 . S
C470 C472 1.478 . S
C471 H465 0.930 . S
C471 C467 1.400 . S
C471 C470 1.385 . S
C472 C470 1.478 . S
C472 C474 1.381 . S
C472 C478 1.383 . S
C473 C469 1.495 . S
C473 H479 0.959 . S
C473 H480 0.961 . S
C473 H481 0.960 . S
C474 C472 1.381 . S
C474 C475 1.394 . S
C474 H482 0.930 . S
C475 C474 1.394 . S
C475 C476 1.383 . S
C475 H483 0.929 . S
C476 C475 1.383 . S
C476 C477 1.377 . S
C477 H461 0.930 . S
C477 C476 1.377 . S
C477 C478 1.379 . S
C478 H462 0.931 . S
C478 C472 1.383 . S
C478 C477 1.379 . S
H479 C473 0.959 . S
H480 C473 0.961 . S
H481 C473 0.960 . S
H482 C474 0.930 . S
H483 C475 0.929 . S
H484 C492 0.929 . S
H485 C494 0.930 . S
H486 C496 0.930 . S
H487 C499 0.929 . S
H488 C502 0.930 . S
H489 C504 0.960 . S
H490 C504 0.960 1_545 S
H491 C504 0.960 . S
C492 H484 0.929 . S
C492 C493 1.377 1_545 S
C492 C494 1.384 1_545 S
C493 C492 1.377 1_565 S
C493 C499 1.390 . S
C494 H485 0.930 . S
C494 C492 1.384 1_565 S
C494 C495 1.372 . S
C495 C494 1.372 . S
C495 C496 1.400 . S
C495 C500 1.490 . S
C496 H486 0.930 . S
C496 C495 1.400 . S
C496 C499 1.386 . S
H497 C513 0.930 . S
H498 C514 0.931 . S
C499 H487 0.929 . S
C499 C493 1.390 . S
C499 C496 1.386 . S
C500 C495 1.490 . S
C500 C502 1.395 . S
C500 C503 1.403 . S
H501 C507 0.930 . S
C502 H488 0.930 . S
C502 C500 1.395 . S
C502 C505 1.403 . S
C503 C500 1.403 . S
C503 C504 1.524 . S
C503 C507 1.400 . S
C504 H489 0.960 . S
C504 H490 0.960 1_565 S
C504 H491 0.960 . S
C504 C503 1.524 . S
C505 C502 1.403 . S
C505 C506 1.392 . S
C505 C509 1.495 . S
C506 C505 1.392 . S
C506 C507 1.385 . S
C506 C508 1.478 . S
C507 H501 0.930 . S
C507 C503 1.400 . S
C507 C506 1.385 . S
C508 C506 1.478 . S
C508 C510 1.381 . S
C508 C514 1.383 . S
C509 C505 1.495 . S
C509 H515 0.959 . S
C509 H516 0.961 . S
C509 H517 0.960 . S
C510 C508 1.381 . S
C510 C511 1.394 . S
C510 H518 0.930 . S
C511 C510 1.394 . S
C511 C512 1.383 . S
C511 H519 0.929 . S
C512 C511 1.383 . S
C512 C513 1.377 . S
C513 H497 0.930 . S
C513 C512 1.377 . S
C513 C514 1.379 . S
C514 H498 0.931 . S
C514 C508 1.383 . S
C514 C513 1.379 . S
H515 C509 0.959 . S
H516 C509 0.961 . S
H517 C509 0.960 . S
H518 C510 0.930 . S
H519 C511 0.929 . S
H520 C528 0.929 . S
H521 C530 0.930 . S
H522 C532 0.930 . S
H523 C535 0.929 . S
H524 C538 0.930 . S
H525 C540 0.960 . S
H526 C540 0.960 . S
H527 C540 0.960 . S
C528 H520 0.929 . S
C528 C529 1.377 . S
C528 C530 1.384 . S
C529 C528 1.377 . S
C529 C535 1.390 . S
C530 H521 0.930 . S
C530 C528 1.384 . S
C530 C531 1.372 . S
C531 C530 1.372 . S
C531 C532 1.400 . S
C531 C536 1.490 . S
C532 H522 0.930 . S
C532 C531 1.400 . S
C532 C535 1.386 . S
H533 C549 0.930 . S
H534 C550 0.931 . S
C535 H523 0.929 . S
C535 C529 1.390 . S
C535 C532 1.386 . S
C536 C531 1.490 . S
C536 C538 1.395 . S
C536 C539 1.403 . S
H537 C543 0.930 . S
C538 H524 0.930 . S
C538 C536 1.395 . S
C538 C541 1.403 . S
C539 C536 1.403 . S
C539 C540 1.524 . S
C539 C543 1.400 . S
C540 H525 0.960 . S
C540 H526 0.960 . S
C540 H527 0.960 . S
C540 C539 1.524 . S
C541 C538 1.403 . S
C541 C542 1.392 . S
C541 C545 1.495 . S
C542 C541 1.392 . S
C542 C543 1.385 . S
C542 C544 1.478 . S
C543 H537 0.930 . S
C543 C539 1.400 . S
C543 C542 1.385 . S
C544 C542 1.478 . S
C544 C546 1.381 . S
C544 C550 1.383 . S
C545 C541 1.495 . S
C545 H551 0.959 . S
C545 H552 0.961 . S
C545 H553 0.960 . S
C546 C544 1.381 . S
C546 C547 1.394 . S
C546 H554 0.930 . S
C547 C546 1.394 . S
C547 C548 1.383 . S
C547 H555 0.929 . S
C548 C547 1.383 . S
C548 C549 1.377 . S
C549 H533 0.930 . S
C549 C548 1.377 . S
C549 C550 1.379 . S
C550 H534 0.931 . S
C550 C544 1.383 . S
C550 C549 1.379 . S
H551 C545 0.959 . S
H552 C545 0.961 . S
H553 C545 0.960 . S
H554 C546 0.930 . S
H555 C547 0.929 . S
H556 C564 0.929 . S
H557 C566 0.930 . S
H558 C568 0.930 . S
H559 C571 0.929 . S
H560 C574 0.930 . S
H561 C576 0.960 . S
H562 C576 0.960 . S
H563 C576 0.960 . S
C564 H556 0.929 . S
C564 C565 1.377 . S
C564 C566 1.384 . S
C565 C564 1.377 . S
C565 C571 1.390 . S
C566 H557 0.930 . S
C566 C564 1.384 . S
C566 C567 1.372 . S
C567 C566 1.372 . S
C567 C568 1.400 . S
C567 C572 1.490 . S
C568 H558 0.930 . S
C568 C567 1.400 . S
C568 C571 1.386 . S
H569 C585 0.930 . S
H570 C586 0.931 . S
C571 H559 0.929 . S
C571 C565 1.390 . S
C571 C568 1.386 . S
C572 C567 1.490 . S
C572 C574 1.395 . S
C572 C575 1.403 . S
H573 C579 0.930 . S
C574 H560 0.930 . S
C574 C572 1.395 . S
C574 C577 1.403 . S
C575 C572 1.403 . S
C575 C576 1.524 . S
C575 C579 1.400 . S
C576 H561 0.960 . S
C576 H562 0.960 . S
C576 H563 0.960 . S
C576 C575 1.524 . S
C577 C574 1.403 . S
C577 C578 1.392 . S
C577 C581 1.495 . S
C578 C577 1.392 . S
C578 C579 1.385 . S
C578 C580 1.478 . S
C579 H573 0.930 . S
C579 C575 1.400 . S
C579 C578 1.385 . S
C580 C578 1.478 . S
C580 C582 1.381 . S
C580 C586 1.383 . S
C581 C577 1.495 . S
C581 H587 0.959 . S
C581 H588 0.961 . S
C581 H589 0.960 . S
C582 C580 1.381 . S
C582 C583 1.394 . S
C582 H590 0.924 1_655 S
C583 C582 1.394 . S
C583 C584 1.383 . S
C583 H591 0.929 1_655 S
C584 C583 1.383 . S
C584 C585 1.377 . S
C585 H569 0.930 . S
C585 C584 1.377 . S
C585 C586 1.379 . S
C586 H570 0.931 . S
C586 C580 1.383 . S
C586 C585 1.379 . S
H587 C581 0.959 . S
H588 C581 0.961 . S
H589 C581 0.960 . S
H590 C582 0.924 1_455 S
H591 C583 0.929 1_455 S
C169 C89 0.930 1_565 S
C188 C18 0.975 . S
C205 C129 1.122 . S
C224 C58 1.172 . S
C241 C98 0.948 . S
C260 C9 0.917 . S
C277 C49 0.925 . S
C296 C138 0.949 . S
C313 C55 0.989 . S
C332 C6 0.995 . S
C349 C46 1.720 . S
C368 C99 1.735 . S
C385 C139 2.149 . S
C404 C90 2.058 . S
C421 C130 1.343 . S
C440 C15 1.366 . S
C457 C95 0.995 . S
C476 C126 1.015 . S
C493 C10 1.740 1_565 S
C512 C135 1.720 . S
C529 C50 2.150 . S
C548 C19 2.069 1_556 S
C565 C86 1.360 . S
C584 C59 1.356 . S
