# Generated by pormake.
# Topology kag, (6)-cn, num edge types: 1
# Building blocks:
#     Node 0, Type 0, BuildingBlock: GEDQOX_clean_sbu_0, # of connection points: 6
#     Node 1, Type 0, BuildingBlock: GEDQOX_clean_sbu_0, # of connection points: 6
#     Node 2, Type 0, BuildingBlock: GEDQOX_clean_sbu_0, # of connection points: 6
#     Edge 3, Type (0, 0), BuildingBlock: MIFKUJ_clean_linker_0, # of connection points: 2
#     Edge 4, Type (0, 0), BuildingBlock: MIFKUJ_clean_linker_0, # of connection points: 2
#     Edge 5, Type (0, 0), BuildingBlock: MIFKUJ_clean_linker_0, # of connection points: 2
#     Edge 6, Type (0, 0), BuildingBlock: MIFKUJ_clean_linker_0, # of connection points: 2
#     Edge 7, Type (0, 0), BuildingBlock: MIFKUJ_clean_linker_0, # of connection points: 2
#     Edge 8, Type (0, 0), BuildingBlock: MIFKUJ_clean_linker_0, # of connection points: 2
#     Edge 9, Type (0, 0), BuildingBlock: MIFKUJ_clean_linker_0, # of connection points: 2
#     Edge 10, Type (0, 0), BuildingBlock: MIFKUJ_clean_linker_0, # of connection points: 2
#     Edge 11, Type (0, 0), BuildingBlock: MIFKUJ_clean_linker_0, # of connection points: 2
# Relax obj value: 0.055
# Max RMSD: 0.171
# Mean RMSD: 0.098
data_MOF--net-kag--node1-GEDQOX_clean_sbu_0--edge1-MIFKUJ_clean_linker_0
_symmetry_space_group_name_H-M    P1
_symmetry_Int_Tables_number       1
_symmetry_cell_setting            triclinic
loop_
_symmetry_equiv_pos_as_xyz
'x, y, z'
_cell_length_a     58.895614
_cell_length_b     51.266
_cell_length_c     19.257719
_cell_angle_alpha  95.156997
_cell_angle_beta   89.32831
_cell_angle_gamma 137.1229
loop_
_atom_site_label
_atom_site_type_symbol
_atom_site_fract_x
_atom_site_fract_y
_atom_site_fract_z
_atom_type_partial_charge
Nd0 Nd 1.03024 0.55942 0.02771 0.0
Nd1 Nd 0.0453 0.50982 0.98315 0.0
C2 C 1.01538 0.59129 0.09886 0.0
C3 C 0.98993 0.59047 0.09345 0.0
C4 C 0.97994 0.59575 0.15455 0.0
C5 C 0.95512 0.59398 0.15081 0.0
C6 C 0.93983 0.58693 0.08573 0.0
C7 C 0.94996 0.58168 0.02449 0.0
C8 C 0.97468 0.58325 0.02833 0.0
C9 C 1.02492 0.54361 0.88229 0.0
C10 C 0.96682 0.46315 0.99894 0.0
C11 C 0.06068 0.47843 0.91253 0.0
C12 C 0.08631 0.47922 0.91759 0.0
C13 C 0.11293 0.5008 0.8741 0.0
C14 C 0.13728 0.50182 0.87808 0.0
C15 C 0.13542 0.48098 0.92517 0.0
C16 C 0.10864 0.45913 0.96829 0.0
C17 C 0.08437 0.45826 0.96459 0.0
C18 C 0.05076 0.52578 0.12849 0.0
C19 C 0.10887 0.60602 0.01379 0.0
O20 O 1.00444 0.55919 0.11271 0.0
O21 O 0.03748 0.60829 0.05193 0.0
O22 O 1.02025 0.56282 0.91343 0.0
O23 O 1.03103 0.53343 0.92935 0.0
O24 O 0.97802 0.49595 0.02654 0.0
O25 O 0.98702 0.4619 0.97214 0.0
O26 O 0.07118 0.51027 0.89822 0.0
O27 O 0.0381 0.46096 0.95852 0.0
O28 O 0.05512 0.50625 0.09741 0.0
O29 O 0.04453 0.53583 0.0814 0.0
O30 O 0.09785 0.5732 0.98718 0.0
O31 O 0.0885 0.60742 0.03838 0.0
H32 H 0.9913 0.60115 0.20529 0.0
H33 H 0.94819 0.59859 0.19889 0.0
H34 H 0.93841 0.57575 0.97364 0.0
H35 H 0.98173 0.5786 0.98052 0.0
H36 H 0.11491 0.51687 0.83673 0.0
H37 H 0.15729 0.51846 0.8434 0.0
H38 H 0.10664 0.44301 0.00554 0.0
H39 H 0.06414 0.44119 0.99868 0.0
Nd40 Nd 0.52859 0.05492 0.99804 0.0
Nd41 Nd 0.54766 1.01534 0.01356 0.0
C42 C 0.51703 0.09389 0.96523 0.0
C43 C 0.52695 0.12987 0.96073 0.0
C44 C 0.5129 0.13115 0.90464 0.0
C45 C 0.51687 0.16161 0.90406 0.0
C46 C 0.53512 0.19174 0.95958 0.0
C47 C 0.55058 0.1914 0.01427 0.0
C48 C 0.54636 0.16064 0.01508 0.0
C49 C 0.52951 0.04181 0.13354 0.0
C50 C 0.60904 0.1081 0.01849 0.0
C51 C 0.55807 0.97564 0.04961 0.0
C52 C 0.54852 0.93939 0.04119 0.0
C53 C 0.54431 0.92282 0.10103 0.0
C54 C 0.54021 0.89208 0.09627 0.0
C55 C 0.54032 0.87711 0.03139 0.0
C56 C 0.54343 0.89295 0.97109 0.0
C57 C 0.54752 0.92373 0.97591 0.0
C58 C 0.54609 1.02731 0.87764 0.0
C59 C 0.46658 0.96187 0.99357 0.0
O60 O 0.52695 0.08371 0.9204 0.0
O61 O 0.51381 0.08333 0.02698 0.0
O62 O 0.50666 0.03685 0.10463 0.0
O63 O 0.55158 0.05415 0.09172 0.0
O64 O 0.58647 0.10498 0.99125 0.0
O65 O 0.59937 0.07827 0.04365 0.0
O66 O 0.53918 0.97656 0.08322 0.0
O67 O 0.57186 0.99704 0.99837 0.0
O68 O 0.56831 1.031 0.90564 0.0
O69 O 0.52439 1.01573 0.91999 0.0
O70 O 0.48936 0.96397 0.01417 0.0
O71 O 0.47577 0.99257 0.97496 0.0
H72 H 0.49765 0.10769 0.86234 0.0
H73 H 0.50507 0.1612 0.86058 0.0
H74 H 0.56469 0.21401 0.05801 0.0
H75 H 0.55729 0.16027 0.05929 0.0
H76 H 0.54544 0.93462 0.15213 0.0
H77 H 0.5383 0.88111 0.14402 0.0
H78 H 0.54309 0.88186 0.92007 0.0
H79 H 0.55079 0.93588 0.92872 0.0
Nd80 Nd 0.50253 0.50396 0.97585 0.0
Nd81 Nd 0.5753 0.56646 0.01321 0.0
C82 C 0.44084 0.46124 0.92425 0.0
C83 C 0.41789 0.46458 0.92469 0.0
C84 C 0.42519 0.49336 0.89232 0.0
C85 C 0.40326 0.49615 0.89403 0.0
C86 C 0.37359 0.47038 0.9284 0.0
C87 C 0.36647 0.44171 0.96086 0.0
C88 C 0.38827 0.43876 0.9587 0.0
C89 C 0.51882 0.51476 0.1166 0.0
C90 C 0.54127 0.59403 0.00988 0.0
C91 C 0.6374 0.61036 0.0647 0.0
C92 C 0.66012 0.60696 0.065 0.0
C93 C 0.69137 0.63556 0.10311 0.0
C94 C 0.71286 0.63216 0.10459 0.0
C95 C 0.70331 0.59974 0.06867 0.0
C96 C 0.67185 0.5712 0.03021 0.0
C97 C 0.65067 0.57502 0.02788 0.0
C98 C 0.55862 0.55524 0.87252 0.0
C99 C 0.53623 0.47609 0.98044 0.0
O100 O 0.46706 0.48423 0.88813 0.0
O101 O 0.44759 0.45708 0.98401 0.0
O102 O 0.4953 0.48125 0.08016 0.0
O103 O 0.53265 0.54165 0.07916 0.0
O104 O 0.5156 0.55905 0.97708 0.0
O105 O 0.56705 0.60347 0.03863 0.0
O106 O 0.61122 0.58686 0.10061 0.0
O107 O 0.63012 0.61328 0.00412 0.0
O108 O 0.58201 0.58886 0.9087 0.0
O109 O 0.54513 0.52855 0.91019 0.0
O110 O 0.56204 0.51121 0.01268 0.0
O111 O 0.51045 0.46661 0.95157 0.0
H112 H 0.44782 0.51376 0.86558 0.0
H113 H 0.4094 0.51824 0.86758 0.0
H114 H 0.34421 0.42175 0.98884 0.0
H115 H 0.38205 0.41636 0.98417 0.0
H116 H 0.6992 0.66061 0.13162 0.0
H117 H 0.73711 0.65522 0.13344 0.0
H118 H 0.66329 0.54559 0.00254 0.0
H119 H 0.62684 0.553 0.99724 0.0
H120 H 1.03621 0.50621 0.80376 0.0
H121 H 0.04047 0.50286 0.67663 0.0
H122 H 1.0209 0.56829 0.65848 0.0
H123 H 1.01637 0.5713 0.78442 0.0
H124 H 0.988 0.51338 0.55286 0.0
H125 H 0.10149 0.60909 0.65539 0.0
H126 H 0.14789 0.63322 0.73378 0.0
H127 H 0.1386 0.54786 0.6293 0.0
H128 H 0.09174 0.52277 0.55099 0.0
H129 H 0.04055 0.56431 0.20693 0.0
H130 H 0.03703 0.5685 0.33428 0.0
H131 H 0.0556 0.50209 0.35261 0.0
H132 H 0.05942 0.49828 0.2265 0.0
H133 H 0.08897 0.55747 0.45809 0.0
H134 H 0.97702 0.46376 0.35147 0.0
H135 H 0.93228 0.44164 0.27052 0.0
H136 H 0.93761 0.5223 0.3835 0.0
H137 H 0.9837 0.5464 0.46314 0.0
C138 C 1.03287 0.51988 0.77264 0.0
C139 C 1.02627 0.53933 0.80476 0.0
C140 C 1.03536 0.51805 0.69971 0.0
C141 C 1.03146 0.53578 0.65709 0.0
C142 C 1.02406 0.55434 0.68931 0.0
C143 C 1.02158 0.55614 0.7618 0.0
C144 C 1.03557 0.5358 0.57951 0.0
C145 C 1.01029 0.52345 0.5324 0.0
C146 C 0.06432 0.5483 0.55166 0.0
C147 C 0.0929 0.56382 0.59777 0.0
C148 C 0.10923 0.59533 0.64937 0.0
C149 C 0.13562 0.60919 0.69377 0.0
C150 C 0.14615 0.59204 0.68661 0.0
C151 C 0.13038 0.56108 0.63485 0.0
C152 C 0.10391 0.54703 0.59042 0.0
C153 C 0.04386 0.55065 0.23816 0.0
C154 C 0.0499 0.53062 0.20606 0.0
C155 C 0.04184 0.553 0.3112 0.0
C156 C 0.04561 0.53518 0.3539 0.0
C157 C 0.05255 0.51614 0.3217 0.0
C158 C 0.0546 0.51384 0.24912 0.0
C159 C 0.04145 0.53515 0.43143 0.0
C160 C 0.06668 0.54744 0.47852 0.0
C161 C 1.01264 0.52258 0.4592 0.0
C162 C 0.98412 0.50721 0.4129 0.0
C163 C 0.96886 0.47702 0.35882 0.0
C164 C 0.94326 0.46413 0.31309 0.0
C165 C 0.93195 0.48037 0.32205 0.0
C166 C 0.94639 0.50972 0.37662 0.0
C167 C 0.97239 0.52316 0.42189 0.0
H168 H 0.91202 0.47022 0.2867 0.0
H169 H 0.16655 0.60279 0.72109 0.0
H170 H 0.48066 1.00909 0.2227 0.0
H171 H 0.48341 1.00632 0.3478 0.0
H172 H 0.58552 0.06607 0.34148 0.0
H173 H 0.5824 0.06774 0.21494 0.0
H174 H 0.55409 1.0114 0.42362 0.0
H175 H 0.56388 0.11212 0.40629 0.0
H176 H 0.54719 0.1408 0.36569 0.0
H177 H 0.4542 0.0581 0.46063 0.0
H178 H 0.47015 1.0286 0.50103 0.0
H179 H 0.59488 0.06002 0.7885 0.0
H180 H 0.59221 0.06304 0.66354 0.0
H181 H 0.49019 1.0036 0.67002 0.0
H182 H 0.49328 1.00179 0.79652 0.0
H183 H 0.52158 0.05812 0.58777 0.0
H184 H 0.51182 0.95734 0.60494 0.0
H185 H 0.52863 0.92882 0.64575 0.0
H186 H 0.6217 1.01178 0.55122 0.0
H187 H 0.60562 0.04111 0.5106 0.0
C188 C 0.50372 1.02159 0.24785 0.0
C189 C 0.53143 0.03897 0.20898 0.0
C190 C 0.50534 1.0202 0.31969 0.0
C191 C 0.53495 0.03683 0.35504 0.0
C192 C 0.56243 0.05327 0.31584 0.0
C193 C 0.56068 0.05427 0.24349 0.0
C194 C 0.53707 0.03695 0.43262 0.0
C195 C 0.54744 1.02216 0.45948 0.0
C196 C 0.52761 0.05004 0.4799 0.0
C197 C 0.5181 0.06795 0.45616 0.0
C198 C 0.53979 0.09991 0.41813 0.0
C199 C 0.53047 0.11633 0.39521 0.0
C200 C 0.49963 0.10123 0.41044 0.0
C201 C 0.47807 0.06975 0.44882 0.0
C202 C 0.48725 0.05319 0.4718 0.0
C203 C 0.57186 0.04763 0.76341 0.0
C204 C 0.54416 1.03029 0.80231 0.0
C205 C 0.57028 0.04916 0.69164 0.0
C206 C 0.54071 1.03266 0.65635 0.0
C207 C 0.51325 1.01629 0.6956 0.0
C208 C 0.51498 1.0152 0.76792 0.0
C209 C 0.5386 1.03255 0.57877 0.0
C210 C 0.52822 0.04735 0.55191 0.0
C211 C 0.54806 1.01947 0.53148 0.0
C212 C 0.55762 1.00161 0.55523 0.0
C213 C 0.53595 0.96963 0.5932 0.0
C214 C 0.54534 0.9533 0.61626 0.0
C215 C 0.57624 0.96852 0.60121 0.0
C216 C 0.59778 1.00003 0.56288 0.0
C217 C 0.58852 1.01649 0.53976 0.0
H218 H 0.58348 0.95586 0.61915 0.0
H219 H 0.49245 0.11397 0.39261 0.0
H220 H 0.5915 0.61122 0.78605 0.0
H221 H 0.58432 0.60367 0.65874 0.0
H222 H 0.50619 0.47981 0.65536 0.0
H223 H 0.51385 0.48734 0.78359 0.0
H224 H 0.54648 0.50068 0.55401 0.0
H225 H 0.48869 0.52972 0.62877 0.0
H226 H 0.48138 0.56631 0.69522 0.0
H227 H 0.56145 0.66632 0.59436 0.0
H228 H 0.5696 0.63051 0.52806 0.0
H229 H 0.4848 0.45829 0.20215 0.0
H230 H 0.49124 0.46516 0.32946 0.0
H231 H 0.57072 0.58913 0.33478 0.0
H232 H 0.56375 0.58231 0.20648 0.0
H233 H 0.52917 0.56753 0.43499 0.0
H234 H 0.58657 0.5371 0.36039 0.0
H235 H 0.59161 0.4987 0.29193 0.0
H236 H 0.50974 0.39918 0.39143 0.0
H237 H 0.50393 0.43688 0.45989 0.0
C238 C 0.57271 0.58232 0.75834 0.0
C239 C 0.5532 0.54986 0.79504 0.0
C240 C 0.56851 0.57803 0.68533 0.0
C241 C 0.54438 0.54115 0.64697 0.0
C242 C 0.52494 0.50859 0.68352 0.0
C243 C 0.52924 0.5129 0.75685 0.0
C244 C 0.53985 0.53686 0.5689 0.0
C245 C 0.54222 0.51488 0.52812 0.0
C246 C 0.53496 0.55596 0.53452 0.0
C247 C 0.52996 0.57752 0.57391 0.0
C248 C 0.50491 0.5596 0.62112 0.0
C249 C 0.50059 0.58019 0.65872 0.0
C250 C 0.52099 0.61864 0.64914 0.0
C251 C 0.54569 0.63655 0.60179 0.0
C252 C 0.55015 0.61611 0.56414 0.0
C253 C 0.50373 0.48708 0.23027 0.0
C254 C 0.52383 0.51978 0.1941 0.0
C255 C 0.5075 0.49096 0.30328 0.0
C256 C 0.53182 0.52766 0.34216 0.0
C257 C 0.55183 0.56047 0.30616 0.0
C258 C 0.54793 0.55658 0.23282 0.0
C259 C 0.53599 0.53155 0.4202 0.0
C260 C 0.5335 0.55342 0.46095 0.0
C261 C 0.54058 0.51217 0.45452 0.0
C262 C 0.54466 0.48975 0.41489 0.0
C263 C 0.56956 0.50699 0.36749 0.0
C264 C 0.57255 0.48535 0.32868 0.0
C265 C 0.55095 0.4465 0.33721 0.0
C266 C 0.52643 0.42927 0.38485 0.0
C267 C 0.52332 0.45078 0.42376 0.0
H268 H 0.55324 0.42976 0.30696 0.0
H269 H 0.51761 0.63454 0.6783 0.0
H270 H 0.12552 0.42025 0.93383 0.0
H271 H 0.16763 0.42131 0.93848 0.0
H272 H 0.24558 0.54429 0.9293 0.0
H273 H 0.20346 0.54332 0.92398 0.0
H274 H 0.25688 0.51216 0.84525 0.0
H275 H 0.232 0.5059 0.08302 0.0
H276 H 0.19669 0.48136 0.18242 0.0
H277 H 0.16031 0.37187 0.1345 0.0
H278 H 0.19506 0.39558 0.03412 0.0
H279 H 0.38883 0.53585 0.94157 0.0
H280 H 0.35 0.53998 0.94322 0.0
H281 H 0.26641 0.41581 0.92326 0.0
H282 H 0.30486 0.41123 0.91932 0.0
H283 H 0.26068 0.45234 0.0267 0.0
H284 H 0.28579 0.46071 0.7845 0.0
H285 H 0.32347 0.4883 0.68897 0.0
H286 H 0.36257 0.59846 0.75203 0.0
H287 H 0.32541 0.57161 0.84857 0.0
C288 C 0.15166 0.44759 0.93351 0.0
C289 C 0.16113 0.48173 0.9288 0.0
C290 C 0.17574 0.44818 0.93619 0.0
C291 C 0.2099 0.48298 0.93521 0.0
C292 C 0.21942 0.51708 0.93012 0.0
C293 C 0.1953 0.51647 0.92696 0.0
C294 C 0.23553 0.48357 0.93814 0.0
C295 C 0.25801 0.49961 0.88563 0.0
C296 C 0.23688 0.46683 0.9903 0.0
C297 C 0.21591 0.45241 0.05061 0.0
C298 C 0.21627 0.47648 0.09331 0.0
C299 C 0.19638 0.46274 0.14989 0.0
C300 C 0.1762 0.42505 0.16466 0.0
C301 C 0.17592 0.40105 0.12294 0.0
C302 C 0.19573 0.41463 0.06622 0.0
C303 C 0.36219 0.50935 0.93662 0.0
C304 C 0.35007 0.47317 0.93016 0.0
C305 C 0.34004 0.51181 0.93799 0.0
C306 C 0.30532 0.47819 0.93312 0.0
C307 C 0.29312 0.44211 0.92745 0.0
C308 C 0.31521 0.4396 0.92553 0.0
C309 C 0.28159 0.48047 0.93347 0.0
C310 C 0.25955 0.46501 0.98663 0.0
C311 C 0.28094 0.49819 0.88252 0.0
C312 C 0.30307 0.51426 0.82417 0.0
C313 C 0.30261 0.49089 0.77832 0.0
C314 C 0.32384 0.50638 0.72393 0.0
C315 C 0.34547 0.54514 0.71455 0.0
C316 C 0.34584 0.56845 0.75942 0.0
C317 C 0.32468 0.55311 0.81393 0.0
H318 H 0.36189 0.55707 0.67242 0.0
H319 H 0.16084 0.41447 0.20851 0.0
H320 H 0.63961 0.17206 0.95302 0.0
H321 H 0.69962 0.23112 0.94947 0.0
H322 H 0.72232 0.18775 0.08072 0.0
H323 H 0.6624 0.12863 0.08437 0.0
H324 H 0.76246 0.26319 0.12244 0.0
H325 H 0.73065 0.18653 0.905 0.0
H326 H 0.69719 0.14817 0.79272 0.0
H327 H 0.72841 0.24701 0.722 0.0
H328 H 0.76166 0.28582 0.83436 0.0
H329 H 0.93045 0.38952 0.93623 0.0
H330 H 0.87064 0.32967 0.94034 0.0
H331 H 0.85941 0.39277 0.06743 0.0
H332 H 0.91891 0.45243 0.06375 0.0
H333 H 0.81394 0.30542 0.89637 0.0
H334 H 0.79856 0.33488 0.18068 0.0
H335 H 0.83072 0.36775 0.29577 0.0
H336 H 0.89459 0.35774 0.23424 0.0
H337 H 0.8626 0.32444 0.11907 0.0
C338 C 0.65729 0.17506 0.9815 0.0
C339 C 0.64581 0.14522 0.01898 0.0
C340 C 0.69179 0.20894 0.97908 0.0
C341 C 0.71594 0.21416 0.01427 0.0
C342 C 0.7045 0.18475 0.05296 0.0
C343 C 0.67004 0.15074 0.05488 0.0
C344 C 0.75296 0.24996 0.01055 0.0
C345 C 0.77359 0.27244 0.07289 0.0
C346 C 0.76807 0.26211 0.94619 0.0
C347 C 0.74838 0.23897 0.87836 0.0
C348 C 0.73019 0.20001 0.8657 0.0
C349 C 0.71128 0.1782 0.80203 0.0
C350 C 0.7106 0.19512 0.75033 0.0
C351 C 0.72892 0.23393 0.76214 0.0
C352 C 0.74781 0.25585 0.82579 0.0
C353 C 0.91533 0.39077 0.96507 0.0
C354 C 0.92996 0.42623 0.99965 0.0
C355 C 0.88092 0.35637 0.96725 0.0
C356 C 0.86011 0.35617 0.00482 0.0
C357 C 0.87464 0.3916 0.03884 0.0
C358 C 0.90891 0.42598 0.0363 0.0
C359 C 0.82339 0.31918 0.00835 0.0
C360 C 0.8028 0.2964 0.94595 0.0
C361 C 0.80834 0.30654 0.07274 0.0
C362 C 0.82833 0.32745 0.14106 0.0
C363 C 0.81947 0.33969 0.19173 0.0
C364 C 0.83763 0.35834 0.25699 0.0
C365 C 0.86459 0.3647 0.27235 0.0
C366 C 0.87366 0.35274 0.22226 0.0
C367 C 0.85559 0.33408 0.1569 0.0
H368 H 0.87847 0.3789 0.32308 0.0
H369 H 0.69594 0.17818 0.70107 0.0
H370 H 0.57458 0.87026 0.94908 0.0
H371 H 0.57334 0.82146 0.9454 0.0
H372 H 0.5017 0.76566 0.10156 0.0
H373 H 0.50262 0.81425 0.10523 0.0
H374 H 0.54803 0.76983 0.1323 0.0
H375 H 0.47824 0.72725 0.92767 0.0
H376 H 0.46318 0.73287 0.81533 0.0
H377 H 0.54426 0.75952 0.72392 0.0
H378 H 0.56007 0.75455 0.83604 0.0
H379 H 0.49134 0.58332 0.95911 0.0
H380 H 0.49017 0.63004 0.96403 0.0
H381 H 0.58873 0.71695 0.07227 0.0
H382 H 0.58988 0.67005 0.06857 0.0
H383 H 0.5262 0.69495 0.91037 0.0
H384 H 0.59672 0.77992 0.18216 0.0
H385 H 0.60575 0.76894 0.29596 0.0
H386 H 0.51264 0.64836 0.25591 0.0
H387 H 0.50285 0.65872 0.14237 0.0
C388 C 0.55814 0.84732 0.98196 0.0
C389 C 0.53859 0.84631 0.02727 0.0
C390 C 0.55755 0.81941 0.97996 0.0
C391 C 0.53724 0.78953 0.02282 0.0
C392 C 0.51771 0.78842 0.06812 0.0
C393 C 0.51831 0.81635 0.07022 0.0
C394 C 0.53662 0.75973 0.02098 0.0
C395 C 0.54331 0.75355 0.08368 0.0
C396 C 0.52994 0.73783 0.9579 0.0
C397 C 0.52054 0.74091 0.89045 0.0
C398 C 0.49303 0.73462 0.88377 0.0
C399 C 0.48432 0.73763 0.82011 0.0
C400 C 0.50281 0.74666 0.76258 0.0
C401 C 0.52999 0.75259 0.76856 0.0
C402 C 0.53882 0.74965 0.83213 0.0
C403 C 0.5128 0.61232 0.98425 0.0
C404 C 0.5407 0.62276 0.0137 0.0
C405 C 0.51212 0.63914 0.98676 0.0
C406 C 0.53922 0.67711 0.01897 0.0
C407 C 0.56723 0.68774 0.04804 0.0
C408 C 0.56792 0.66086 0.04568 0.0
C409 C 0.53811 0.70545 0.02153 0.0
C410 C 0.53109 0.71137 0.95895 0.0
C411 C 0.54382 0.72654 0.08491 0.0
C412 C 0.54926 0.72006 0.15345 0.0
C413 C 0.57813 0.7511 0.19777 0.0
C414 C 0.58338 0.74498 0.26221 0.0
C415 C 0.55984 0.70795 0.28304 0.0
C416 C 0.53092 0.67699 0.2396 0.0
C417 C 0.52553 0.68297 0.17516 0.0
H418 H 0.56396 0.70327 0.33291 0.0
H419 H 0.49603 0.74896 0.71333 0.0
H420 H 0.93248 0.61871 0.9943 0.0
H421 H 0.89038 0.61782 0.99095 0.0
H422 H 0.84606 0.55126 0.16578 0.0
H423 H 0.88769 0.55138 0.16859 0.0
H424 H 0.79835 0.52447 0.0657 0.0
H425 H 0.89689 0.64615 0.19284 0.0
H426 H 0.95681 0.7084 0.21093 0.0
H427 H 0.94743 0.74474 0.0314 0.0
H428 H 0.88753 0.68245 0.01168 0.0
H429 H 0.74617 0.62266 0.17866 0.0
H430 H 0.78461 0.61816 0.18164 0.0
H431 H 0.74966 0.56173 0.97 0.0
H432 H 0.71224 0.56775 0.9649 0.0
H433 H 0.83636 0.64921 0.09368 0.0
H434 H 0.74959 0.49046 0.97026 0.0
H435 H 0.69002 0.42747 0.96144 0.0
H436 H 0.67497 0.46484 0.14708 0.0
H437 H 0.73468 0.52752 0.15861 0.0
C438 C 0.91354 0.60349 0.03151 0.0
C439 C 0.91357 0.58531 0.08199 0.0
C440 C 0.88963 0.60322 0.02982 0.0
C441 C 0.86526 0.58479 0.07855 0.0
C442 C 0.86466 0.56573 0.12778 0.0
C443 C 0.88866 0.56613 0.12972 0.0
C444 C 0.84106 0.58639 0.07961 0.0
C445 C 0.80661 0.55171 0.07147 0.0
C446 C 0.85187 0.62195 0.08838 0.0
C447 C 0.88782 0.65951 0.10042 0.0
C448 C 0.90767 0.66731 0.15692 0.0
C449 C 0.94162 0.70261 0.16752 0.0
C450 C 0.95594 0.73047 0.12224 0.0
C451 C 0.93631 0.72311 0.06638 0.0
C452 C 0.90236 0.68783 0.0555 0.0
C453 C 0.74688 0.60979 0.13219 0.0
C454 C 0.72605 0.59581 0.07135 0.0
C455 C 0.76876 0.60699 0.13428 0.0
C456 C 0.76988 0.58949 0.07618 0.0
C457 C 0.74893 0.57501 0.01567 0.0
C458 C 0.72737 0.5783 0.01311 0.0
C459 C 0.79362 0.5873 0.07847 0.0
C460 C 0.82803 0.62193 0.0873 0.0
C461 C 0.78269 0.55166 0.07103 0.0
C462 C 0.7466 0.51404 0.06456 0.0
C463 C 0.7336 0.48525 0.00927 0.0
C464 C 0.69979 0.44955 0.00384 0.0
C465 C 0.67863 0.44227 0.05325 0.0
C466 C 0.69132 0.4706 0.10854 0.0
C467 C 0.72518 0.50624 0.11456 0.0
H468 H 0.65246 0.41461 0.04892 0.0
H469 H 0.98222 0.75779 0.13053 0.0
H470 H 0.14198 0.68165 0.03696 0.0
H471 H 0.20196 0.74111 0.03339 0.0
H472 H 0.21992 0.67379 0.9891 0.0
H473 H 0.16013 0.61435 0.992 0.0
H474 H 0.26764 0.73685 0.08801 0.0
H475 H 0.21914 0.71365 0.85991 0.0
H476 H 0.1801 0.70213 0.77744 0.0
H477 H 0.21862 0.81005 0.86083 0.0
H478 H 0.25764 0.82204 0.94442 0.0
H479 H 0.43591 0.88789 0.99633 0.0
H480 H 0.37616 0.82793 0.99819 0.0
H481 H 0.35414 0.8917 0.99634 0.0
H482 H 0.41355 0.95119 0.99065 0.0
H483 H 0.30766 0.82949 0.9213 0.0
H484 H 0.35473 0.85372 0.15038 0.0
H485 H 0.39312 0.86654 0.2377 0.0
H486 H 0.35678 0.75909 0.16104 0.0
H487 H 0.31846 0.74585 0.07265 0.0
C488 C 0.15863 0.67938 0.02674 0.0
C489 C 0.14582 0.64282 0.0147 0.0
C490 C 0.19307 0.71357 0.02436 0.0
C491 C 0.21582 0.7123 0.01045 0.0
C492 C 0.20317 0.67588 0.99992 0.0
C493 C 0.16875 0.64173 1.00142 0.0
C494 C 0.25262 0.74868 0.00622 0.0
C495 C 0.27638 0.75687 0.05097 0.0
C496 C 0.2644 0.77566 0.95934 0.0
C497 C 0.24108 0.76856 0.90887 0.0
C498 C 0.21911 0.73479 0.86102 0.0
C499 C 0.19702 0.7282 0.81401 0.0
C500 C 0.19681 0.75527 0.81404 0.0
C501 C 0.21878 0.78908 0.86093 0.0
C502 C 0.24091 0.79581 0.90809 0.0
C503 C 0.41835 0.88916 0.99608 0.0
C504 C 0.42987 0.92469 0.99337 0.0
C505 C 0.38396 0.85469 0.99781 0.0
C506 C 0.35999 0.85471 0.99905 0.0
C507 C 0.37158 0.89024 0.99551 0.0
C508 C 0.40583 0.92453 0.99237 0.0
C509 C 0.32306 0.81809 0.00355 0.0
C510 C 0.29914 0.80971 0.95868 0.0
C511 C 0.3111 0.79122 0.05118 0.0
C512 C 0.33397 0.79899 0.10447 0.0
C513 C 0.35508 0.83295 0.15188 0.0
C514 C 0.3768 0.84027 0.20159 0.0
C515 C 0.37745 0.81369 0.20479 0.0
C516 C 0.35629 0.77967 0.15843 0.0
C517 C 0.33454 0.77223 0.10855 0.0
H518 H 0.39429 0.81942 0.2433 0.0
H519 H 0.17968 0.7501 0.77761 0.0
H520 H 0.4851 0.39832 0.93444 0.0
H521 H 0.48589 0.35108 0.93239 0.0
H522 H 0.58883 0.44097 0.01686 0.0
H523 H 0.58802 0.48801 0.02086 0.0
H524 H 0.57624 0.39185 0.90226 0.0
H525 H 0.53377 0.38322 0.12261 0.0
H526 H 0.49626 0.37547 0.20134 0.0
H527 H 0.41144 0.26272 0.0935 0.0
H528 H 0.44844 0.27003 0.01348 0.0
H529 H 0.58914 0.27034 0.99604 0.0
H530 H 0.59037 0.31938 0.99963 0.0
H531 H 0.48514 0.2307 0.93234 0.0
H532 H 0.48371 0.18173 0.92917 0.0
H533 H 0.49997 0.28048 0.03952 0.0
H534 H 0.543 0.2882 0.82159 0.0
H535 H 0.58038 0.29673 0.74117 0.0
H536 H 0.66415 0.41216 0.84067 0.0
H537 H 0.62744 0.40398 0.92317 0.0
C538 C 0.50795 0.4081 0.95247 0.0
C539 C 0.53657 0.44718 0.9774 0.0
C540 C 0.50833 0.38101 0.9514 0.0
C541 C 0.53744 0.39244 0.9745 0.0
C542 C 0.56613 0.43146 0.99847 0.0
C543 C 0.5656 0.45839 1.00064 0.0
C544 C 0.53789 0.36371 0.97442 0.0
C545 C 0.55992 0.36778 0.93301 0.0
C546 C 0.51615 0.3319 0.0135 0.0
C547 C 0.49383 0.32734 0.06157 0.0
C548 C 0.50708 0.35691 0.11527 0.0
C549 C 0.48593 0.35257 0.16023 0.0
C550 C 0.45147 0.31867 0.15228 0.0
C551 C 0.43813 0.28899 0.0995 0.0
C552 C 0.45918 0.2932 0.05438 0.0
C553 C 0.56625 0.2613 0.98222 0.0
C554 C 0.53638 0.22206 0.96181 0.0
C555 C 0.56702 0.28939 0.9839 0.0
C556 C 0.53788 0.27885 0.96577 0.0
C557 C 0.50798 0.23966 0.94642 0.0
C558 C 0.50727 0.21168 0.94406 0.0
C559 C 0.53832 0.30844 0.96707 0.0
C560 C 0.51642 0.30456 0.00883 0.0
C561 C 0.56023 0.34045 0.92821 0.0
C562 C 0.58253 0.34519 0.87955 0.0
C563 C 0.56949 0.31519 0.82721 0.0
C564 C 0.59056 0.31999 0.78113 0.0
C565 C 0.62467 0.35486 0.78619 0.0
C566 C 0.63777 0.38504 0.83726 0.0
C567 C 0.61685 0.38031 0.88379 0.0
H568 H 0.64092 0.35857 0.75029 0.0
H569 H 0.43513 0.31535 0.18713 0.0
loop_
_geom_bond_atom_site_label_1
_geom_bond_atom_site_label_2
_geom_bond_distance
_geom_bond_site_symmetry_2
_ccdc_geom_bond_type
Nd0 C2 2.836 1_556 S
Nd0 O20 2.500 1_556 S
Nd0 O21 2.492 . S
Nd0 O22 2.487 . S
Nd0 O23 2.682 1_655 S
Nd0 O24 2.410 . S
Nd0 O29 2.414 1_556 S
Nd0 O31 2.424 1_656 S
Nd1 C11 2.836 1_554 S
Nd1 O23 2.414 1_554 S
Nd1 O25 2.424 1_454 S
Nd1 O26 2.500 1_554 S
Nd1 O27 2.492 . S
Nd1 O28 2.487 . S
Nd1 O29 2.682 1_455 S
Nd1 O30 2.410 . S
C2 Nd0 2.836 1_554 S
C2 C3 1.498 . S
C2 O20 1.258 . S
C2 O21 1.239 1_554 S
C3 C2 1.498 . S
C3 C4 1.366 . S
C3 C8 1.407 1_554 S
C4 C3 1.366 . S
C4 C5 1.392 . S
C4 H32 0.930 . S
C5 C4 1.392 . S
C5 C6 1.398 . S
C5 H33 0.929 . S
C6 C5 1.398 . S
C6 C7 1.352 1_554 S
C7 C6 1.352 1_556 S
C7 C8 1.384 . S
C7 H34 0.930 . S
C8 C3 1.407 1_556 S
C8 C7 1.384 . S
C8 H35 0.929 . S
C9 O22 1.234 1_455 S
C9 O23 1.276 . S
C10 O24 1.251 . S
C10 O25 1.269 . S
C11 Nd1 2.836 1_556 S
C11 C12 1.498 . S
C11 O26 1.258 . S
C11 O27 1.239 1_556 S
C12 C11 1.498 . S
C12 C13 1.366 . S
C12 C17 1.407 1_556 S
C13 C12 1.366 . S
C13 C14 1.392 . S
C13 H36 0.930 . S
C14 C13 1.392 . S
C14 C15 1.398 . S
C14 H37 0.929 . S
C15 C14 1.398 . S
C15 C16 1.352 1_556 S
C16 C15 1.352 1_554 S
C16 C17 1.384 . S
C16 H38 0.930 . S
C17 C12 1.407 1_554 S
C17 C16 1.384 . S
C17 H39 0.929 . S
C18 O28 1.241 . S
C18 O29 1.273 1_455 S
C19 O30 1.251 . S
C19 O31 1.269 . S
O20 Nd0 2.500 1_554 S
O20 C2 1.258 . S
O21 Nd0 2.492 . S
O21 C2 1.239 1_556 S
O22 Nd0 2.487 . S
O22 C9 1.234 1_655 S
O23 Nd0 2.682 1_455 S
O23 Nd1 2.414 1_556 S
O23 C9 1.276 . S
O24 Nd0 2.410 . S
O24 C10 1.251 . S
O25 Nd1 2.424 1_656 S
O25 C10 1.269 . S
O26 Nd1 2.500 1_556 S
O26 C11 1.258 . S
O27 Nd1 2.492 . S
O27 C11 1.239 1_554 S
O28 Nd1 2.487 . S
O28 C18 1.241 . S
O29 Nd0 2.414 1_554 S
O29 Nd1 2.682 1_655 S
O29 C18 1.273 1_655 S
O30 Nd1 2.410 . S
O30 C19 1.251 . S
O31 Nd0 2.424 1_454 S
O31 C19 1.269 . S
H32 C4 0.930 . S
H33 C5 0.929 . S
H34 C7 0.930 . S
H35 C8 0.929 . S
H36 C13 0.930 . S
H37 C14 0.929 . S
H38 C16 0.930 . S
H39 C17 0.929 . S
Nd40 C42 2.836 . S
Nd40 O60 2.500 1_554 S
Nd40 O61 2.492 . S
Nd40 O62 2.487 . S
Nd40 O63 2.682 1_545 S
Nd40 O64 2.410 . S
Nd40 O69 2.414 1_554 S
Nd40 O71 2.424 1_545 S
Nd41 C51 2.836 . S
Nd41 O63 2.414 1_556 S
Nd41 O65 2.424 1_565 S
Nd41 O66 2.500 1_556 S
Nd41 O67 2.492 . S
Nd41 O68 2.487 . S
Nd41 O69 2.682 1_565 S
Nd41 O70 2.410 . S
C42 Nd40 2.836 . S
C42 C43 1.498 . S
C42 O60 1.258 1_554 S
C42 O61 1.239 . S
C43 C42 1.498 . S
C43 C44 1.366 1_554 S
C43 C48 1.407 . S
C44 C43 1.366 1_556 S
C44 C45 1.392 . S
C44 H72 0.930 . S
C45 C44 1.392 . S
C45 C46 1.398 1_556 S
C45 H73 0.929 . S
C46 C45 1.398 1_554 S
C46 C47 1.352 . S
C47 C46 1.352 . S
C47 C48 1.384 . S
C47 H74 0.930 . S
C48 C43 1.407 . S
C48 C47 1.384 . S
C48 H75 0.929 . S
C49 O62 1.241 . S
C49 O63 1.273 1_545 S
C50 O64 1.251 . S
C50 O65 1.268 1_554 S
C51 Nd41 2.836 . S
C51 C52 1.498 . S
C51 O66 1.258 1_556 S
C51 O67 1.239 . S
C52 C51 1.498 . S
C52 C53 1.366 1_556 S
C52 C57 1.407 . S
C53 C52 1.366 1_554 S
C53 C54 1.392 . S
C53 H76 0.930 . S
C54 C53 1.392 . S
C54 C55 1.398 1_554 S
C54 H77 0.929 . S
C55 C54 1.398 1_556 S
C55 C56 1.352 . S
C56 C55 1.352 . S
C56 C57 1.384 . S
C56 H78 0.930 . S
C57 C52 1.407 . S
C57 C56 1.384 . S
C57 H79 0.929 . S
C58 O68 1.241 . S
C58 O69 1.273 1_565 S
C59 O70 1.251 . S
C59 O71 1.268 1_556 S
O60 Nd40 2.500 1_556 S
O60 C42 1.258 1_556 S
O61 Nd40 2.492 . S
O61 C42 1.239 . S
O62 Nd40 2.487 . S
O62 C49 1.241 . S
O63 Nd40 2.682 1_565 S
O63 Nd41 2.414 1_554 S
O63 C49 1.273 1_565 S
O64 Nd40 2.410 . S
O64 C50 1.251 . S
O65 Nd41 2.424 1_545 S
O65 C50 1.268 1_556 S
O66 Nd41 2.500 1_554 S
O66 C51 1.258 1_554 S
O67 Nd41 2.492 . S
O67 C51 1.239 . S
O68 Nd41 2.487 . S
O68 C58 1.241 . S
O69 Nd40 2.414 1_556 S
O69 Nd41 2.682 1_545 S
O69 C58 1.273 1_545 S
O70 Nd41 2.410 . S
O70 C59 1.251 . S
O71 Nd40 2.424 1_565 S
O71 C59 1.268 1_554 S
H72 C44 0.930 . S
H73 C45 0.929 . S
H74 C47 0.930 . S
H75 C48 0.929 . S
H76 C53 0.930 . S
H77 C54 0.929 . S
H78 C56 0.930 . S
H79 C57 0.929 . S
Nd80 C82 2.836 1_554 S
Nd80 O100 2.500 1_554 S
Nd80 O101 2.492 . S
Nd80 O102 2.487 . S
Nd80 O103 2.682 . S
Nd80 O104 2.410 . S
Nd80 O109 2.414 1_554 S
Nd80 O111 2.425 1_554 S
Nd81 C91 2.836 1_556 S
Nd81 O103 2.414 1_556 S
Nd81 O105 2.424 1_556 S
Nd81 O106 2.500 1_556 S
Nd81 O107 2.492 . S
Nd81 O108 2.487 . S
Nd81 O109 2.682 . S
Nd81 O110 2.410 . S
C82 Nd80 2.836 1_556 S
C82 C83 1.498 . S
C82 O100 1.258 . S
C82 O101 1.239 1_556 S
C83 C82 1.498 . S
C83 C84 1.366 . S
C83 C88 1.407 1_556 S
C84 C83 1.366 . S
C84 C85 1.392 . S
C84 H112 0.930 . S
C85 C84 1.392 . S
C85 C86 1.398 . S
C85 H113 0.929 . S
C86 C85 1.398 . S
C86 C87 1.352 1_556 S
C87 C86 1.352 1_554 S
C87 C88 1.384 . S
C87 H114 0.930 . S
C88 C83 1.407 1_554 S
C88 C87 1.384 . S
C88 H115 0.929 . S
C89 O102 1.241 . S
C89 O103 1.273 . S
C90 O104 1.251 . S
C90 O105 1.268 . S
C91 Nd81 2.836 1_554 S
C91 C92 1.498 . S
C91 O106 1.258 . S
C91 O107 1.239 1_554 S
C92 C91 1.498 . S
C92 C93 1.366 . S
C92 C97 1.407 1_554 S
C93 C92 1.366 . S
C93 C94 1.392 . S
C93 H116 0.930 . S
C94 C93 1.392 . S
C94 C95 1.398 . S
C94 H117 0.929 . S
C95 C94 1.398 . S
C95 C96 1.352 1_554 S
C96 C95 1.352 1_556 S
C96 C97 1.384 . S
C96 H118 0.930 . S
C97 C92 1.407 1_556 S
C97 C96 1.384 . S
C97 H119 0.929 . S
C98 O108 1.241 . S
C98 O109 1.273 . S
C99 O110 1.251 . S
C99 O111 1.271 . S
O100 Nd80 2.500 1_556 S
O100 C82 1.258 . S
O101 Nd80 2.492 . S
O101 C82 1.239 1_554 S
O102 Nd80 2.487 . S
O102 C89 1.241 . S
O103 Nd80 2.682 . S
O103 Nd81 2.414 1_554 S
O103 C89 1.273 . S
O104 Nd80 2.410 . S
O104 C90 1.251 . S
O105 Nd81 2.424 1_554 S
O105 C90 1.268 . S
O106 Nd81 2.500 1_554 S
O106 C91 1.258 . S
O107 Nd81 2.492 . S
O107 C91 1.239 1_556 S
O108 Nd81 2.487 . S
O108 C98 1.241 . S
O109 Nd80 2.414 1_556 S
O109 Nd81 2.682 . S
O109 C98 1.273 . S
O110 Nd81 2.410 . S
O110 C99 1.251 . S
O111 Nd80 2.425 1_556 S
O111 C99 1.271 . S
H112 C84 0.930 . S
H113 C85 0.929 . S
H114 C87 0.930 . S
H115 C88 0.929 . S
H116 C93 0.930 . S
H117 C94 0.929 . S
H118 C96 0.930 . S
H119 C97 0.929 . S
H120 C138 0.925 . S
H121 C140 0.936 . S
H122 C142 0.950 . S
H123 C143 0.950 . S
H124 C145 0.950 . S
H125 C148 0.950 . S
H126 C149 0.950 . S
H127 C151 0.950 . S
H128 C152 0.950 . S
H129 C153 0.951 . S
H130 C155 0.951 . S
H131 C157 0.950 . S
H132 C158 0.950 . S
H133 C160 0.950 . S
H134 C163 0.950 . S
H135 C164 0.950 . S
H136 C166 0.950 . S
H137 C167 0.950 . S
C138 H120 0.925 . S
C138 C139 1.392 1_655 S
C138 C140 1.388 . S
C139 C138 1.392 1_455 S
C139 C143 1.385 . S
C140 H121 0.936 . S
C140 C138 1.388 . S
C140 C141 1.382 1_655 S
C141 C140 1.382 1_455 S
C141 C142 1.414 . S
C141 C144 1.499 . S
C142 H122 0.950 . S
C142 C141 1.414 . S
C142 C143 1.374 . S
C143 H123 0.950 . S
C143 C139 1.385 . S
C143 C142 1.374 . S
C144 C141 1.499 . S
C144 C145 1.373 1_455 S
C144 C146 1.389 . S
C145 H124 0.950 . S
C145 C144 1.373 1_655 S
C145 C161 1.377 . S
C146 C144 1.389 . S
C146 C147 1.524 . S
C146 C160 1.377 . S
C147 C146 1.524 . S
C147 C148 1.397 . S
C147 C152 1.363 . S
C148 H125 0.950 . S
C148 C147 1.397 . S
C148 C149 1.334 . S
C149 H126 0.950 . S
C149 C148 1.334 . S
C149 C150 1.287 . S
C150 C149 1.287 . S
C150 C151 1.524 . S
C150 H169 0.913 . S
C151 H127 0.950 . S
C151 C150 1.524 . S
C151 C152 1.415 . S
C152 H128 0.950 . S
C152 C147 1.363 . S
C152 C151 1.415 . S
C153 H129 0.951 . S
C153 C154 1.382 1_455 S
C153 C155 1.388 . S
C154 C153 1.382 1_655 S
C154 C158 1.368 . S
C155 H130 0.951 . S
C155 C153 1.388 . S
C155 C156 1.366 1_455 S
C156 C155 1.366 1_655 S
C156 C157 1.414 . S
C156 C159 1.499 . S
C157 H131 0.950 . S
C157 C156 1.414 . S
C157 C158 1.374 . S
C158 H132 0.950 . S
C158 C154 1.368 . S
C158 C157 1.374 . S
C159 C156 1.499 . S
C159 C160 1.373 1_655 S
C159 C161 1.389 . S
C160 H133 0.950 . S
C160 C146 1.377 . S
C160 C159 1.373 1_455 S
C161 C145 1.377 . S
C161 C159 1.389 . S
C161 C162 1.524 . S
C162 C161 1.524 . S
C162 C163 1.397 . S
C162 C167 1.363 . S
C163 H134 0.950 . S
C163 C162 1.397 . S
C163 C164 1.334 . S
C164 H135 0.950 . S
C164 C163 1.334 . S
C164 C165 1.287 . S
C165 C164 1.287 . S
C165 C166 1.524 . S
C165 H168 0.999 . S
C166 H136 0.950 . S
C166 C165 1.524 . S
C166 C167 1.415 . S
C167 H137 0.950 . S
C167 C162 1.363 . S
C167 C166 1.415 . S
H168 C165 0.999 . S
H169 C150 0.913 . S
H170 C188 0.951 . S
H171 C190 0.951 . S
H172 C192 0.950 . S
H173 C193 0.950 . S
H174 C195 0.950 . S
H175 C198 0.950 . S
H176 C199 0.950 . S
H177 C201 0.950 . S
H178 C202 0.950 . S
H179 C203 0.951 . S
H180 C205 0.951 . S
H181 C207 0.950 . S
H182 C208 0.950 . S
H183 C210 0.950 . S
H184 C213 0.950 . S
H185 C214 0.950 . S
H186 C216 0.950 . S
H187 C217 0.950 . S
C188 H170 0.951 . S
C188 C189 1.366 1_565 S
C188 C190 1.388 . S
C189 C188 1.366 1_545 S
C189 C193 1.385 . S
C190 H171 0.951 . S
C190 C188 1.388 . S
C190 C191 1.366 1_565 S
C191 C190 1.366 1_545 S
C191 C192 1.414 . S
C191 C194 1.499 . S
C192 H172 0.950 . S
C192 C191 1.414 . S
C192 C193 1.374 . S
C193 H173 0.950 . S
C193 C189 1.385 . S
C193 C192 1.374 . S
C194 C191 1.499 . S
C194 C195 1.373 . S
C194 C196 1.389 1_545 S
C195 H174 0.950 . S
C195 C194 1.373 . S
C195 C211 1.377 . S
C196 C194 1.389 1_565 S
C196 C197 1.524 . S
C196 C210 1.377 . S
C197 C196 1.524 . S
C197 C198 1.397 . S
C197 C202 1.363 . S
C198 H175 0.950 . S
C198 C197 1.397 . S
C198 C199 1.334 . S
C199 H176 0.950 . S
C199 C198 1.334 . S
C199 C200 1.287 . S
C200 C199 1.287 . S
C200 C201 1.524 . S
C200 H219 0.913 . S
C201 H177 0.950 . S
C201 C200 1.524 . S
C201 C202 1.415 . S
C202 H178 0.950 . S
C202 C197 1.363 . S
C202 C201 1.415 . S
C203 H179 0.951 . S
C203 C204 1.375 . S
C203 C205 1.388 . S
C204 C203 1.375 . S
C204 C208 1.377 1_545 S
C205 H180 0.951 . S
C205 C203 1.388 . S
C205 C206 1.387 . S
C206 C205 1.387 . S
C206 C207 1.391 1_545 S
C206 C209 1.502 1_545 S
C207 H181 0.950 . S
C207 C206 1.391 1_565 S
C207 C208 1.374 . S
C208 H182 0.950 . S
C208 C204 1.377 1_565 S
C208 C207 1.374 . S
C209 C206 1.502 1_565 S
C209 C210 1.373 . S
C209 C211 1.389 1_565 S
C210 H183 0.950 . S
C210 C196 1.377 . S
C210 C209 1.373 . S
C211 C195 1.377 . S
C211 C209 1.389 1_545 S
C211 C212 1.524 . S
C212 C211 1.524 . S
C212 C213 1.397 . S
C212 C217 1.363 . S
C213 H184 0.950 . S
C213 C212 1.397 . S
C213 C214 1.334 . S
C214 H185 0.950 . S
C214 C213 1.334 . S
C214 C215 1.287 . S
C215 C214 1.287 . S
C215 C216 1.524 . S
C215 H218 0.999 . S
C216 H186 0.950 . S
C216 C215 1.524 . S
C216 C217 1.415 . S
C217 H187 0.950 . S
C217 C212 1.363 . S
C217 C216 1.415 . S
H218 C215 0.999 . S
H219 C200 0.913 . S
H220 C238 0.951 . S
H221 C240 0.951 . S
H222 C242 0.950 . S
H223 C243 0.950 . S
H224 C245 0.950 . S
H225 C248 0.950 . S
H226 C249 0.950 . S
H227 C251 0.950 . S
H228 C252 0.950 . S
H229 C253 0.951 . S
H230 C255 0.951 . S
H231 C257 0.950 . S
H232 C258 0.950 . S
H233 C260 0.950 . S
H234 C263 0.950 . S
H235 C264 0.950 . S
H236 C266 0.950 . S
H237 C267 0.950 . S
C238 H220 0.951 . S
C238 C239 1.366 . S
C238 C240 1.388 . S
C239 C238 1.366 . S
C239 C243 1.385 . S
C240 H221 0.951 . S
C240 C238 1.388 . S
C240 C241 1.366 . S
C241 C240 1.366 . S
C241 C242 1.414 . S
C241 C244 1.499 . S
C242 H222 0.950 . S
C242 C241 1.414 . S
C242 C243 1.374 . S
C243 H223 0.950 . S
C243 C239 1.385 . S
C243 C242 1.374 . S
C244 C241 1.499 . S
C244 C245 1.373 . S
C244 C246 1.389 . S
C245 H224 0.950 . S
C245 C244 1.373 . S
C245 C261 1.377 . S
C246 C244 1.389 . S
C246 C247 1.524 . S
C246 C260 1.377 . S
C247 C246 1.524 . S
C247 C248 1.397 . S
C247 C252 1.363 . S
C248 H225 0.950 . S
C248 C247 1.397 . S
C248 C249 1.334 . S
C249 H226 0.950 . S
C249 C248 1.334 . S
C249 C250 1.287 . S
C250 C249 1.287 . S
C250 C251 1.524 . S
C250 H269 0.913 . S
C251 H227 0.950 . S
C251 C250 1.524 . S
C251 C252 1.415 . S
C252 H228 0.950 . S
C252 C247 1.363 . S
C252 C251 1.415 . S
C253 H229 0.951 . S
C253 C254 1.366 . S
C253 C255 1.388 . S
C254 C253 1.366 . S
C254 C258 1.385 . S
C255 H230 0.951 . S
C255 C253 1.388 . S
C255 C256 1.366 . S
C256 C255 1.366 . S
C256 C257 1.414 . S
C256 C259 1.499 . S
C257 H231 0.950 . S
C257 C256 1.414 . S
C257 C258 1.374 . S
C258 H232 0.950 . S
C258 C254 1.385 . S
C258 C257 1.374 . S
C259 C256 1.499 . S
C259 C260 1.373 . S
C259 C261 1.389 . S
C260 H233 0.950 . S
C260 C246 1.377 . S
C260 C259 1.373 . S
C261 C245 1.377 . S
C261 C259 1.389 . S
C261 C262 1.524 . S
C262 C261 1.524 . S
C262 C263 1.397 . S
C262 C267 1.363 . S
C263 H234 0.950 . S
C263 C262 1.397 . S
C263 C264 1.334 . S
C264 H235 0.950 . S
C264 C263 1.334 . S
C264 C265 1.287 . S
C265 C264 1.287 . S
C265 C266 1.524 . S
C265 H268 0.999 . S
C266 H236 0.950 . S
C266 C265 1.524 . S
C266 C267 1.415 . S
C267 H237 0.950 . S
C267 C262 1.363 . S
C267 C266 1.415 . S
H268 C265 0.999 . S
H269 C250 0.913 . S
H270 C288 0.951 . S
H271 C290 0.951 . S
H272 C292 0.950 . S
H273 C293 0.950 . S
H274 C295 0.950 . S
H275 C298 0.950 . S
H276 C299 0.950 . S
H277 C301 0.950 . S
H278 C302 0.950 . S
H279 C303 0.951 . S
H280 C305 0.951 . S
H281 C307 0.950 . S
H282 C308 0.950 . S
H283 C310 0.950 . S
H284 C313 0.950 . S
H285 C314 0.950 . S
H286 C316 0.950 . S
H287 C317 0.950 . S
C288 H270 0.951 . S
C288 C289 1.366 . S
C288 C290 1.388 . S
C289 C288 1.366 . S
C289 C293 1.385 . S
C290 H271 0.951 . S
C290 C288 1.388 . S
C290 C291 1.366 . S
C291 C290 1.366 . S
C291 C292 1.414 . S
C291 C294 1.499 . S
C292 H272 0.950 . S
C292 C291 1.414 . S
C292 C293 1.374 . S
C293 H273 0.950 . S
C293 C289 1.385 . S
C293 C292 1.374 . S
C294 C291 1.499 . S
C294 C295 1.373 . S
C294 C296 1.389 1_556 S
C295 H274 0.950 . S
C295 C294 1.373 . S
C295 C311 1.377 . S
C296 C294 1.389 1_554 S
C296 C297 1.524 . S
C296 C310 1.377 . S
C297 C296 1.524 . S
C297 C298 1.397 . S
C297 C302 1.363 . S
C298 H275 0.950 . S
C298 C297 1.397 . S
C298 C299 1.334 . S
C299 H276 0.950 . S
C299 C298 1.334 . S
C299 C300 1.287 . S
C300 C299 1.287 . S
C300 C301 1.524 . S
C300 H319 0.913 . S
C301 H277 0.950 . S
C301 C300 1.524 . S
C301 C302 1.415 . S
C302 H278 0.950 . S
C302 C297 1.363 . S
C302 C301 1.415 . S
C303 H279 0.951 . S
C303 C304 1.366 . S
C303 C305 1.388 . S
C304 C303 1.366 . S
C304 C308 1.385 . S
C305 H280 0.951 . S
C305 C303 1.388 . S
C305 C306 1.366 . S
C306 C305 1.366 . S
C306 C307 1.414 . S
C306 C309 1.499 . S
C307 H281 0.950 . S
C307 C306 1.414 . S
C307 C308 1.374 . S
C308 H282 0.950 . S
C308 C304 1.385 . S
C308 C307 1.374 . S
C309 C306 1.499 . S
C309 C310 1.373 1_556 S
C309 C311 1.389 . S
C310 H283 0.950 . S
C310 C296 1.377 . S
C310 C309 1.373 1_554 S
C311 C295 1.377 . S
C311 C309 1.389 . S
C311 C312 1.524 . S
C312 C311 1.524 . S
C312 C313 1.397 . S
C312 C317 1.363 . S
C313 H284 0.950 . S
C313 C312 1.397 . S
C313 C314 1.334 . S
C314 H285 0.950 . S
C314 C313 1.334 . S
C314 C315 1.287 . S
C315 C314 1.287 . S
C315 C316 1.524 . S
C315 H318 0.999 . S
C316 H286 0.950 . S
C316 C315 1.524 . S
C316 C317 1.415 . S
C317 H287 0.950 . S
C317 C312 1.363 . S
C317 C316 1.415 . S
H318 C315 0.999 . S
H319 C300 0.913 . S
H320 C338 0.951 . S
H321 C340 0.951 . S
H322 C342 0.950 . S
H323 C343 0.950 . S
H324 C345 0.950 . S
H325 C348 0.950 . S
H326 C349 0.950 . S
H327 C351 0.950 . S
H328 C352 0.950 . S
H329 C353 0.951 . S
H330 C355 0.951 . S
H331 C357 0.950 . S
H332 C358 0.950 . S
H333 C360 0.950 . S
H334 C363 0.950 . S
H335 C364 0.950 . S
H336 C366 0.950 . S
H337 C367 0.950 . S
C338 H320 0.951 . S
C338 C339 1.363 1_556 S
C338 C340 1.388 . S
C339 C338 1.363 1_554 S
C339 C343 1.387 . S
C340 H321 0.951 . S
C340 C338 1.388 . S
C340 C341 1.366 . S
C341 C340 1.366 . S
C341 C342 1.414 1_556 S
C341 C344 1.498 . S
C342 H322 0.950 . S
C342 C341 1.414 1_554 S
C342 C343 1.374 . S
C343 H323 0.950 . S
C343 C339 1.387 . S
C343 C342 1.374 . S
C344 C341 1.498 . S
C344 C345 1.366 1_556 S
C344 C346 1.398 . S
C345 H324 0.950 . S
C345 C344 1.366 1_554 S
C345 C361 1.377 . S
C346 C344 1.398 . S
C346 C347 1.524 . S
C346 C360 1.377 . S
C347 C346 1.524 . S
C347 C348 1.397 . S
C347 C352 1.363 . S
C348 H325 0.950 . S
C348 C347 1.397 . S
C348 C349 1.334 . S
C349 H326 0.950 . S
C349 C348 1.334 . S
C349 C350 1.287 . S
C350 C349 1.287 . S
C350 C351 1.524 . S
C350 H369 0.913 . S
C351 H327 0.950 . S
C351 C350 1.524 . S
C351 C352 1.415 . S
C352 H328 0.950 . S
C352 C347 1.363 . S
C352 C351 1.415 . S
C353 H329 0.951 . S
C353 C354 1.366 1_554 S
C353 C355 1.388 . S
C354 C353 1.366 1_556 S
C354 C358 1.385 . S
C355 H330 0.951 . S
C355 C353 1.388 . S
C355 C356 1.373 . S
C356 C355 1.373 . S
C356 C357 1.405 1_554 S
C356 C359 1.501 1_554 S
C357 H331 0.950 . S
C357 C356 1.405 1_556 S
C357 C358 1.374 . S
C358 H332 0.950 . S
C358 C354 1.385 . S
C358 C357 1.374 . S
C359 C356 1.501 1_556 S
C359 C360 1.383 . S
C359 C361 1.379 1_556 S
C360 H333 0.950 . S
C360 C346 1.377 . S
C360 C359 1.383 . S
C361 C345 1.377 . S
C361 C359 1.379 1_554 S
C361 C362 1.524 . S
C362 C361 1.524 . S
C362 C363 1.397 . S
C362 C367 1.363 . S
C363 H334 0.950 . S
C363 C362 1.397 . S
C363 C364 1.334 . S
C364 H335 0.950 . S
C364 C363 1.334 . S
C364 C365 1.287 . S
C365 C364 1.287 . S
C365 C366 1.524 . S
C365 H368 0.999 . S
C366 H336 0.950 . S
C366 C365 1.524 . S
C366 C367 1.415 . S
C367 H337 0.950 . S
C367 C362 1.363 . S
C367 C366 1.415 . S
H368 C365 0.999 . S
H369 C350 0.913 . S
H370 C388 0.951 . S
H371 C390 0.951 . S
H372 C392 0.950 . S
H373 C393 0.950 . S
H374 C395 0.950 . S
H375 C398 0.950 . S
H376 C399 0.950 . S
H377 C401 0.950 . S
H378 C402 0.950 . S
H379 C403 0.951 . S
H380 C405 0.951 . S
H381 C407 0.950 . S
H382 C408 0.950 . S
H383 C410 0.950 . S
H384 C413 0.950 . S
H385 C414 0.950 . S
H386 C416 0.950 . S
H387 C417 0.950 . S
C388 H370 0.951 . S
C388 C389 1.366 . S
C388 C390 1.388 . S
C389 C388 1.366 . S
C389 C393 1.385 1_556 S
C390 H371 0.951 . S
C390 C388 1.388 . S
C390 C391 1.366 . S
C391 C390 1.366 . S
C391 C392 1.414 1_556 S
C391 C394 1.499 . S
C392 H372 0.950 . S
C392 C391 1.414 1_554 S
C392 C393 1.374 . S
C393 H373 0.950 . S
C393 C389 1.385 1_554 S
C393 C392 1.374 . S
C394 C391 1.499 . S
C394 C395 1.373 1_556 S
C394 C396 1.389 . S
C395 H374 0.950 . S
C395 C394 1.373 1_554 S
C395 C411 1.377 . S
C396 C394 1.389 . S
C396 C397 1.524 . S
C396 C410 1.377 . S
C397 C396 1.524 . S
C397 C398 1.397 . S
C397 C402 1.363 . S
C398 H375 0.950 . S
C398 C397 1.397 . S
C398 C399 1.334 . S
C399 H376 0.950 . S
C399 C398 1.334 . S
C399 C400 1.287 . S
C400 C399 1.287 . S
C400 C401 1.524 . S
C400 H419 0.913 . S
C401 H377 0.950 . S
C401 C400 1.524 . S
C401 C402 1.415 . S
C402 H378 0.950 . S
C402 C397 1.363 . S
C402 C401 1.415 . S
C403 H379 0.951 . S
C403 C404 1.366 . S
C403 C405 1.388 . S
C404 C403 1.366 . S
C404 C408 1.385 1_554 S
C405 H380 0.951 . S
C405 C403 1.388 . S
C405 C406 1.366 . S
C406 C405 1.366 . S
C406 C407 1.414 1_554 S
C406 C409 1.499 . S
C407 H381 0.950 . S
C407 C406 1.414 1_556 S
C407 C408 1.374 . S
C408 H382 0.950 . S
C408 C404 1.385 1_556 S
C408 C407 1.374 . S
C409 C406 1.499 . S
C409 C410 1.373 1_554 S
C409 C411 1.389 . S
C410 H383 0.950 . S
C410 C396 1.377 . S
C410 C409 1.373 1_556 S
C411 C395 1.377 . S
C411 C409 1.389 . S
C411 C412 1.524 . S
C412 C411 1.524 . S
C412 C413 1.397 . S
C412 C417 1.363 . S
C413 H384 0.950 . S
C413 C412 1.397 . S
C413 C414 1.334 . S
C414 H385 0.950 . S
C414 C413 1.334 . S
C414 C415 1.287 . S
C415 C414 1.287 . S
C415 C416 1.524 . S
C415 H418 0.999 . S
C416 H386 0.950 . S
C416 C415 1.524 . S
C416 C417 1.415 . S
C417 H387 0.950 . S
C417 C412 1.363 . S
C417 C416 1.415 . S
H418 C415 0.999 . S
H419 C400 0.913 . S
H420 C438 0.951 . S
H421 C440 0.951 . S
H422 C442 0.950 . S
H423 C443 0.950 . S
H424 C445 0.950 . S
H425 C448 0.950 . S
H426 C449 0.950 . S
H427 C451 0.950 . S
H428 C452 0.950 . S
H429 C453 0.951 . S
H430 C455 0.951 . S
H431 C457 0.950 . S
H432 C458 0.950 . S
H433 C460 0.950 . S
H434 C463 0.950 . S
H435 C464 0.950 . S
H436 C466 0.950 . S
H437 C467 0.950 . S
C438 H420 0.951 . S
C438 C439 1.366 1_556 S
C438 C440 1.388 . S
C439 C438 1.366 1_554 S
C439 C443 1.385 . S
C440 H421 0.951 . S
C440 C438 1.388 . S
C440 C441 1.366 1_556 S
C441 C440 1.366 1_554 S
C441 C442 1.414 . S
C441 C444 1.499 . S
C442 H422 0.950 . S
C442 C441 1.414 . S
C442 C443 1.374 . S
C443 H423 0.950 . S
C443 C439 1.385 . S
C443 C442 1.374 . S
C444 C441 1.499 . S
C444 C445 1.373 . S
C444 C446 1.389 . S
C445 H424 0.950 . S
C445 C444 1.373 . S
C445 C461 1.377 . S
C446 C444 1.389 . S
C446 C447 1.524 . S
C446 C460 1.377 . S
C447 C446 1.524 . S
C447 C448 1.397 . S
C447 C452 1.363 1_554 S
C448 H425 0.950 . S
C448 C447 1.397 . S
C448 C449 1.334 . S
C449 H426 0.950 . S
C449 C448 1.334 . S
C449 C450 1.287 . S
C450 C449 1.287 . S
C450 C451 1.524 1_554 S
C450 H469 0.913 . S
C451 H427 0.950 . S
C451 C450 1.524 1_556 S
C451 C452 1.415 . S
C452 H428 0.950 . S
C452 C447 1.363 1_556 S
C452 C451 1.415 . S
C453 H429 0.951 . S
C453 C454 1.366 . S
C453 C455 1.388 . S
C454 C453 1.366 . S
C454 C458 1.385 1_554 S
C455 H430 0.951 . S
C455 C453 1.388 . S
C455 C456 1.366 . S
C456 C455 1.366 . S
C456 C457 1.414 1_554 S
C456 C459 1.499 . S
C457 H431 0.950 . S
C457 C456 1.414 1_556 S
C457 C458 1.374 . S
C458 H432 0.950 . S
C458 C454 1.385 1_556 S
C458 C457 1.374 . S
C459 C456 1.499 . S
C459 C460 1.373 . S
C459 C461 1.389 . S
C460 H433 0.950 . S
C460 C446 1.377 . S
C460 C459 1.373 . S
C461 C445 1.377 . S
C461 C459 1.389 . S
C461 C462 1.524 . S
C462 C461 1.524 . S
C462 C463 1.397 1_554 S
C462 C467 1.363 . S
C463 H434 0.950 . S
C463 C462 1.397 1_556 S
C463 C464 1.334 . S
C464 H435 0.950 . S
C464 C463 1.334 . S
C464 C465 1.290 . S
C465 C464 1.290 . S
C465 C466 1.520 1_556 S
C465 H468 0.999 . S
C466 H436 0.950 . S
C466 C465 1.520 1_554 S
C466 C467 1.415 . S
C467 H437 0.950 . S
C467 C462 1.363 . S
C467 C466 1.415 . S
H468 C465 0.999 . S
H469 C450 0.913 . S
H470 C488 0.951 . S
H471 C490 0.951 . S
H472 C492 0.950 . S
H473 C493 0.950 . S
H474 C495 0.950 . S
H475 C498 0.950 . S
H476 C499 0.950 . S
H477 C501 0.950 . S
H478 C502 0.950 . S
H479 C503 0.951 . S
H480 C505 0.951 . S
H481 C507 0.950 . S
H482 C508 0.950 . S
H483 C510 0.950 . S
H484 C513 0.950 . S
H485 C514 0.950 . S
H486 C516 0.950 . S
H487 C517 0.950 . S
C488 H470 0.951 . S
C488 C489 1.366 . S
C488 C490 1.388 . S
C489 C488 1.366 . S
C489 C493 1.385 1_554 S
C490 H471 0.951 . S
C490 C488 1.388 . S
C490 C491 1.366 1_554 S
C491 C490 1.366 1_556 S
C491 C492 1.414 . S
C491 C494 1.499 . S
C492 H472 0.950 . S
C492 C491 1.414 . S
C492 C493 1.374 . S
C493 H473 0.950 . S
C493 C489 1.385 1_556 S
C493 C492 1.374 . S
C494 C491 1.499 . S
C494 C495 1.373 1_556 S
C494 C496 1.389 . S
C495 H474 0.950 . S
C495 C494 1.373 1_554 S
C495 C511 1.377 . S
C496 C494 1.389 . S
C496 C497 1.524 . S
C496 C510 1.377 . S
C497 C496 1.524 . S
C497 C498 1.397 . S
C497 C502 1.363 . S
C498 H475 0.950 . S
C498 C497 1.397 . S
C498 C499 1.334 . S
C499 H476 0.950 . S
C499 C498 1.334 . S
C499 C500 1.287 . S
C500 C499 1.287 . S
C500 C501 1.524 . S
C500 H519 0.913 . S
C501 H477 0.950 . S
C501 C500 1.524 . S
C501 C502 1.415 . S
C502 H478 0.950 . S
C502 C497 1.363 . S
C502 C501 1.415 . S
C503 H479 0.951 . S
C503 C504 1.366 . S
C503 C505 1.388 . S
C504 C503 1.366 . S
C504 C508 1.385 1_556 S
C505 H480 0.951 . S
C505 C503 1.388 . S
C505 C506 1.366 1_556 S
C506 C505 1.366 1_554 S
C506 C507 1.414 . S
C506 C509 1.499 . S
C507 H481 0.950 . S
C507 C506 1.414 . S
C507 C508 1.374 . S
C508 H482 0.950 . S
C508 C504 1.385 1_554 S
C508 C507 1.374 . S
C509 C506 1.499 . S
C509 C510 1.373 1_554 S
C509 C511 1.389 . S
C510 H483 0.950 . S
C510 C496 1.377 . S
C510 C509 1.373 1_556 S
C511 C495 1.377 . S
C511 C509 1.389 . S
C511 C512 1.524 . S
C512 C511 1.524 . S
C512 C513 1.397 . S
C512 C517 1.363 . S
C513 H484 0.950 . S
C513 C512 1.397 . S
C513 C514 1.334 . S
C514 H485 0.950 . S
C514 C513 1.334 . S
C514 C515 1.287 . S
C515 C514 1.287 . S
C515 C516 1.524 . S
C515 H518 0.999 . S
C516 H486 0.950 . S
C516 C515 1.524 . S
C516 C517 1.415 . S
C517 H487 0.950 . S
C517 C512 1.363 . S
C517 C516 1.415 . S
H518 C515 0.999 . S
H519 C500 0.913 . S
H520 C538 0.951 . S
H521 C540 0.951 . S
H522 C542 0.950 . S
H523 C543 0.950 . S
H524 C545 0.950 . S
H525 C548 0.950 . S
H526 C549 0.950 . S
H527 C551 0.950 1_556 S
H528 C552 0.950 . S
H529 C553 0.951 . S
H530 C555 0.951 . S
H531 C557 0.950 . S
H532 C558 0.950 . S
H533 C560 0.950 . S
H534 C563 0.950 . S
H535 C564 0.950 . S
H536 C566 0.950 1_554 S
H537 C567 0.950 . S
C538 H520 0.951 . S
C538 C539 1.366 . S
C538 C540 1.388 . S
C539 C538 1.366 . S
C539 C543 1.385 1_556 S
C540 H521 0.951 . S
C540 C538 1.388 . S
C540 C541 1.366 1_556 S
C541 C540 1.366 1_554 S
C541 C542 1.414 . S
C541 C544 1.499 . S
C542 H522 0.950 . S
C542 C541 1.414 . S
C542 C543 1.374 . S
C543 H523 0.950 . S
C543 C539 1.385 1_554 S
C543 C542 1.374 . S
C544 C541 1.499 . S
C544 C545 1.373 1_554 S
C544 C546 1.389 . S
C545 H524 0.950 . S
C545 C544 1.373 1_556 S
C545 C561 1.377 . S
C546 C544 1.389 . S
C546 C547 1.524 . S
C546 C560 1.377 . S
C547 C546 1.524 . S
C547 C548 1.397 . S
C547 C552 1.363 1_554 S
C548 H525 0.950 . S
C548 C547 1.397 . S
C548 C549 1.334 . S
C549 H526 0.950 . S
C549 C548 1.334 . S
C549 C550 1.287 . S
C550 C549 1.287 . S
C550 C551 1.524 . S
C550 H569 0.913 . S
C551 H527 0.950 1_554 S
C551 C550 1.524 . S
C551 C552 1.415 1_554 S
C552 H528 0.950 . S
C552 C547 1.363 1_556 S
C552 C551 1.415 1_556 S
C553 H529 0.951 . S
C553 C554 1.366 . S
C553 C555 1.388 . S
C554 C553 1.366 . S
C554 C558 1.385 1_554 S
C555 H530 0.951 . S
C555 C553 1.388 . S
C555 C556 1.366 . S
C556 C555 1.366 . S
C556 C557 1.414 1_554 S
C556 C559 1.499 1_554 S
C557 H531 0.950 . S
C557 C556 1.414 1_556 S
C557 C558 1.374 . S
C558 H532 0.950 . S
C558 C554 1.385 1_556 S
C558 C557 1.374 . S
C559 C556 1.499 1_556 S
C559 C560 1.373 1_556 S
C559 C561 1.389 . S
C560 H533 0.950 . S
C560 C546 1.377 . S
C560 C559 1.373 1_554 S
C561 C545 1.377 . S
C561 C559 1.389 . S
C561 C562 1.524 . S
C562 C561 1.524 . S
C562 C563 1.397 . S
C562 C567 1.363 1_556 S
C563 H534 0.950 . S
C563 C562 1.397 . S
C563 C564 1.334 . S
C564 H535 0.950 . S
C564 C563 1.334 . S
C564 C565 1.287 . S
C565 C564 1.287 . S
C565 C566 1.524 . S
C565 H568 0.999 . S
C566 H536 0.950 1_556 S
C566 C565 1.524 . S
C566 C567 1.415 1_556 S
C567 H537 0.950 . S
C567 C562 1.363 1_554 S
C567 C566 1.415 1_554 S
H568 C565 0.999 . S
H569 C550 0.913 . S
C139 C9 1.445 . S
C154 C18 1.437 1_655 S
C189 C49 1.456 . S
C204 C58 1.451 1_545 S
C239 C98 1.444 . S
C254 C89 1.444 . S
C289 C15 0.907 . S
C304 C86 0.909 . S
C339 C50 2.589 . S
C354 C10 2.621 . S
C389 C55 1.915 . S
C404 C90 1.954 . S
C439 C6 0.907 . S
C454 C95 0.910 . S
C489 C19 2.621 . S
C504 C59 2.588 . S
C539 C99 1.954 . S
C554 C46 1.915 . S
