# Generated by pormake.
# Topology yfw, (5)-cn, num edge types: 1
# Building blocks:
#     Node 0, Type 0, BuildingBlock: XOMCOT_clean_sbu_1, # of connection points: 5
#     Node 1, Type 0, BuildingBlock: XOMCOT_clean_sbu_1, # of connection points: 5
#     Node 2, Type 0, BuildingBlock: XOMCOT_clean_sbu_1, # of connection points: 5
#     Node 3, Type 0, BuildingBlock: XOMCOT_clean_sbu_1, # of connection points: 5
#     Node 4, Type 0, BuildingBlock: XOMCOT_clean_sbu_1, # of connection points: 5
#     Node 5, Type 0, BuildingBlock: XOMCOT_clean_sbu_1, # of connection points: 5
#     Node 6, Type 0, BuildingBlock: XOMCOT_clean_sbu_1, # of connection points: 5
#     Node 7, Type 0, BuildingBlock: XOMCOT_clean_sbu_1, # of connection points: 5
#     Node 8, Type 0, BuildingBlock: XOMCOT_clean_sbu_1, # of connection points: 5
#     Node 9, Type 0, BuildingBlock: XOMCOT_clean_sbu_1, # of connection points: 5
#     Node 10, Type 0, BuildingBlock: XOMCOT_clean_sbu_1, # of connection points: 5
#     Node 11, Type 0, BuildingBlock: XOMCOT_clean_sbu_1, # of connection points: 5
#     Node 12, Type 0, BuildingBlock: XOMCOT_clean_sbu_1, # of connection points: 5
#     Node 13, Type 0, BuildingBlock: XOMCOT_clean_sbu_1, # of connection points: 5
#     Node 14, Type 0, BuildingBlock: XOMCOT_clean_sbu_1, # of connection points: 5
#     Node 15, Type 0, BuildingBlock: XOMCOT_clean_sbu_1, # of connection points: 5
#     Edge 16, Type (0, 0), BuildingBlock: UVAHIK_clean_linker_0, # of connection points: 2
#     Edge 17, Type (0, 0), BuildingBlock: UVAHIK_clean_linker_0, # of connection points: 2
#     Edge 18, Type (0, 0), BuildingBlock: UVAHIK_clean_linker_0, # of connection points: 2
#     Edge 19, Type (0, 0), BuildingBlock: UVAHIK_clean_linker_0, # of connection points: 2
#     Edge 20, Type (0, 0), BuildingBlock: UVAHIK_clean_linker_0, # of connection points: 2
#     Edge 21, Type (0, 0), BuildingBlock: UVAHIK_clean_linker_0, # of connection points: 2
#     Edge 22, Type (0, 0), BuildingBlock: UVAHIK_clean_linker_0, # of connection points: 2
#     Edge 23, Type (0, 0), BuildingBlock: UVAHIK_clean_linker_0, # of connection points: 2
#     Edge 24, Type (0, 0), BuildingBlock: UVAHIK_clean_linker_0, # of connection points: 2
#     Edge 25, Type (0, 0), BuildingBlock: UVAHIK_clean_linker_0, # of connection points: 2
#     Edge 26, Type (0, 0), BuildingBlock: UVAHIK_clean_linker_0, # of connection points: 2
#     Edge 27, Type (0, 0), BuildingBlock: UVAHIK_clean_linker_0, # of connection points: 2
#     Edge 28, Type (0, 0), BuildingBlock: UVAHIK_clean_linker_0, # of connection points: 2
#     Edge 29, Type (0, 0), BuildingBlock: UVAHIK_clean_linker_0, # of connection points: 2
#     Edge 30, Type (0, 0), BuildingBlock: UVAHIK_clean_linker_0, # of connection points: 2
#     Edge 31, Type (0, 0), BuildingBlock: UVAHIK_clean_linker_0, # of connection points: 2
#     Edge 32, Type (0, 0), BuildingBlock: UVAHIK_clean_linker_0, # of connection points: 2
#     Edge 33, Type (0, 0), BuildingBlock: UVAHIK_clean_linker_0, # of connection points: 2
#     Edge 34, Type (0, 0), BuildingBlock: UVAHIK_clean_linker_0, # of connection points: 2
#     Edge 35, Type (0, 0), BuildingBlock: UVAHIK_clean_linker_0, # of connection points: 2
#     Edge 36, Type (0, 0), BuildingBlock: UVAHIK_clean_linker_0, # of connection points: 2
#     Edge 37, Type (0, 0), BuildingBlock: UVAHIK_clean_linker_0, # of connection points: 2
#     Edge 38, Type (0, 0), BuildingBlock: UVAHIK_clean_linker_0, # of connection points: 2
#     Edge 39, Type (0, 0), BuildingBlock: UVAHIK_clean_linker_0, # of connection points: 2
#     Edge 40, Type (0, 0), BuildingBlock: UVAHIK_clean_linker_0, # of connection points: 2
#     Edge 41, Type (0, 0), BuildingBlock: UVAHIK_clean_linker_0, # of connection points: 2
#     Edge 42, Type (0, 0), BuildingBlock: UVAHIK_clean_linker_0, # of connection points: 2
#     Edge 43, Type (0, 0), BuildingBlock: UVAHIK_clean_linker_0, # of connection points: 2
#     Edge 44, Type (0, 0), BuildingBlock: UVAHIK_clean_linker_0, # of connection points: 2
#     Edge 45, Type (0, 0), BuildingBlock: UVAHIK_clean_linker_0, # of connection points: 2
#     Edge 46, Type (0, 0), BuildingBlock: UVAHIK_clean_linker_0, # of connection points: 2
#     Edge 47, Type (0, 0), BuildingBlock: UVAHIK_clean_linker_0, # of connection points: 2
#     Edge 48, Type (0, 0), BuildingBlock: UVAHIK_clean_linker_0, # of connection points: 2
#     Edge 49, Type (0, 0), BuildingBlock: UVAHIK_clean_linker_0, # of connection points: 2
#     Edge 50, Type (0, 0), BuildingBlock: UVAHIK_clean_linker_0, # of connection points: 2
#     Edge 51, Type (0, 0), BuildingBlock: UVAHIK_clean_linker_0, # of connection points: 2
#     Edge 52, Type (0, 0), BuildingBlock: UVAHIK_clean_linker_0, # of connection points: 2
#     Edge 53, Type (0, 0), BuildingBlock: UVAHIK_clean_linker_0, # of connection points: 2
#     Edge 54, Type (0, 0), BuildingBlock: UVAHIK_clean_linker_0, # of connection points: 2
#     Edge 55, Type (0, 0), BuildingBlock: UVAHIK_clean_linker_0, # of connection points: 2
# Relax obj value: 0.123
# Max RMSD: 0.163
# Mean RMSD: 0.163
data_MOF--net-yfw--node1-XOMCOT_clean_sbu_1--edge1-UVAHIK_clean_linker_0
_symmetry_space_group_name_H-M    P1
_symmetry_Int_Tables_number       1
_symmetry_cell_setting            triclinic
loop_
_symmetry_equiv_pos_as_xyz
'x, y, z'
_cell_length_a     71.421981
_cell_length_b     71.403639
_cell_length_c     32.142673
_cell_angle_alpha  90.001691
_cell_angle_beta   90.02131
_cell_angle_gamma 90.110924
loop_
_atom_site_label
_atom_site_type_symbol
_atom_site_fract_x
_atom_site_fract_y
_atom_site_fract_z
_atom_type_partial_charge
C0 C 0.08828 0.08163 0.96204 0.0
C1 C 0.07052 0.07484 0.96807 0.0
N2 N 0.07161 0.05984 0.99332 0.0
N3 N 0.10052 0.07103 0.98353 0.0
C4 C 0.08998 0.05769 1.00201 0.0
H5 H 0.09204 0.09387 0.94405 0.0
Co6 Co 0.12565 0.07718 0.98732 0.0
C7 C 0.13578 0.0635 0.07308 0.0
O8 O 0.14321 0.07976 0.08216 0.0
N9 N 0.15151 0.08415 0.98966 0.0
C10 C 0.17768 0.10039 1.00205 0.0
C11 C 0.15962 0.09731 0.01426 0.0
C12 C 0.16529 0.07964 0.96233 0.0
N13 N 0.18122 0.08943 0.96911 0.0
O14 O 0.13146 0.05626 0.95179 0.0
H15 H 0.15271 0.1053 0.03823 0.0
H16 H 0.16345 0.07032 0.93617 0.0
O17 O 0.12841 0.06088 0.03717 0.0
C18 C 0.12817 0.06012 0.9137 0.0
O19 O 0.12297 0.07727 0.90438 0.0
N20 N 0.11868 0.0983 0.01822 0.0
C21 C 0.10559 0.13184 0.05166 0.0
C22 C 0.10218 0.11476 0.07197 0.0
C23 C 0.10857 0.09805 0.0543 0.0
C24 C 0.12119 0.11464 0.99702 0.0
C25 C 0.11507 0.13158 0.01347 0.0
H26 H 0.10495 0.08495 0.06902 0.0
H27 H 0.12797 0.11443 0.96693 0.0
H28 H 0.09552 0.04706 0.02259 0.0
H29 H 0.05776 0.08051 0.95498 0.0
H30 H 0.18722 0.11057 0.0153 0.0
H31 H 0.09459 0.11428 0.10111 0.0
H32 H 0.11738 0.14433 0.99592 0.0
C33 C 0.91609 0.5926 0.19582 0.0
C34 C 0.92411 0.57522 0.19934 0.0
N35 N 0.93893 0.57661 0.22512 0.0
N36 N 0.92574 0.60488 0.21938 0.0
C37 C 0.93968 0.59478 0.23667 0.0
H38 H 0.90394 0.59611 0.17735 0.0
Co39 Co 0.91928 0.6298 0.22488 0.0
C40 C 0.9327 0.64108 0.30883 0.0
O41 O 0.91695 0.65007 0.31505 0.0
N42 N 0.91236 0.65557 0.22942 0.0
C43 C 0.89727 0.68225 0.24278 0.0
C44 C 0.89665 0.66315 0.24604 0.0
C45 C 0.92222 0.67069 0.21613 0.0
N46 N 0.91334 0.68701 0.22391 0.0
O47 O 0.94 0.63631 0.1897 0.0
H48 H 0.88544 0.65561 0.26104 0.0
H49 H 0.93577 0.6699 0.20129 0.0
O50 O 0.93526 0.63222 0.27466 0.0
C51 C 0.93519 0.635 0.15159 0.0
O52 O 0.91765 0.6309 0.1431 0.0
N53 N 0.89826 0.62209 0.2551 0.0
C54 C 0.86445 0.60864 0.28642 0.0
C55 C 0.88101 0.60692 0.30966 0.0
C56 C 0.89793 0.61347 0.29306 0.0
C57 C 0.88258 0.62252 0.23101 0.0
C58 C 0.86548 0.61624 0.2463 0.0
H59 H 0.91069 0.61119 0.3103 0.0
H60 H 0.88338 0.62813 0.19978 0.0
H61 H 0.95 0.60055 0.25772 0.0
H62 H 0.91956 0.56261 0.18359 0.0
H63 H 0.88649 0.69187 0.25287 0.0
H64 H 0.88089 0.60065 0.34034 0.0
H65 H 0.85318 0.61716 0.22667 0.0
C66 C 0.40648 0.42256 0.44905 0.0
C67 C 0.42386 0.43029 0.45473 0.0
N68 N 0.42314 0.44153 0.4883 0.0
N69 N 0.39483 0.42884 0.47887 0.0
C70 C 0.40535 0.44052 0.50239 0.0
H71 H 0.4027 0.41244 0.42547 0.0
Co72 Co 0.37103 0.41906 0.48406 0.0
C73 C 0.3534 0.436 0.55994 0.0
O74 O 0.34162 0.42195 0.56261 0.0
N75 N 0.3467 0.40812 0.4873 0.0
C76 C 0.3235 0.38769 0.49762 0.0
C77 C 0.34202 0.39141 0.50451 0.0
C78 C 0.33042 0.41423 0.47027 0.0
N79 N 0.31621 0.40195 0.47583 0.0
O80 O 0.36231 0.43732 0.44499 0.0
H81 H 0.35119 0.38225 0.52163 0.0
H82 H 0.32901 0.42716 0.45309 0.0
O83 O 0.36554 0.4364 0.53056 0.0
C84 C 0.36274 0.43181 0.40727 0.0
O85 O 0.36708 0.41425 0.39971 0.0
N86 N 0.38092 0.40077 0.51923 0.0
C87 C 0.39483 0.3697 0.56124 0.0
C88 C 0.39088 0.38633 0.58276 0.0
C89 C 0.38419 0.40189 0.56102 0.0
C90 C 0.38597 0.3852 0.49747 0.0
C91 C 0.39277 0.36942 0.51788 0.0
H92 H 0.38173 0.41462 0.57804 0.0
H93 H 0.38386 0.38481 0.46415 0.0
H94 H 0.40039 0.44746 0.53019 0.0
H95 H 0.43615 0.42775 0.43587 0.0
H96 H 0.31597 0.37536 0.50792 0.0
H97 H 0.39288 0.38729 0.6161 0.0
H98 H 0.39566 0.3569 0.5 0.0
C99 C 0.58238 0.90423 0.71845 0.0
C100 C 0.57649 0.92238 0.71255 0.0
N101 N 0.55874 0.92374 0.72644 0.0
N102 N 0.56847 0.89437 0.73646 0.0
C103 C 0.55427 0.90657 0.74085 0.0
H104 H 0.59572 0.89844 0.7091 0.0
Co105 Co 0.56787 0.86894 0.74672 0.0
C106 C 0.55554 0.86613 0.83395 0.0
O107 O 0.56997 0.85505 0.84006 0.0
N108 N 0.56656 0.84284 0.75535 0.0
C109 C 0.55414 0.81487 0.76906 0.0
C110 C 0.55185 0.83381 0.77274 0.0
C111 C 0.57697 0.82888 0.73886 0.0
N112 N 0.56996 0.81171 0.74751 0.0
O113 O 0.54587 0.86695 0.71285 0.0
H114 H 0.53954 0.84047 0.78542 0.0
H115 H 0.58849 0.83115 0.71783 0.0
O116 O 0.55262 0.87304 0.79763 0.0
C117 C 0.55052 0.86617 0.67459 0.0
O118 O 0.56845 0.86621 0.66534 0.0
N119 N 0.59065 0.87146 0.77676 0.0
C120 C 0.62615 0.87844 0.81028 0.0
C121 C 0.61036 0.88771 0.82578 0.0
C122 C 0.59281 0.88431 0.80806 0.0
C123 C 0.60607 0.86321 0.75989 0.0
C124 C 0.62384 0.8661 0.77677 0.0
H125 H 0.58107 0.89255 0.81864 0.0
H126 H 0.60494 0.85538 0.73147 0.0
H127 H 0.54075 0.90276 0.75349 0.0
H128 H 0.58435 0.93346 0.69756 0.0
H129 H 0.54447 0.80435 0.78023 0.0
H130 H 0.61157 0.89774 0.85092 0.0
H131 H 0.63581 0.85944 0.76233 0.0
C132 C 0.91133 0.07475 0.47494 0.0
C133 C 0.92756 0.06512 0.48284 0.0
N134 N 0.92345 0.05075 0.50841 0.0
N135 N 0.89711 0.06653 0.49557 0.0
C136 C 0.90487 0.05183 0.51545 0.0
H137 H 0.90998 0.08713 0.45579 0.0
Co138 Co 0.87309 0.07585 0.496 0.0
C139 C 0.85632 0.06269 0.57582 0.0
O140 O 0.84813 0.07896 0.58077 0.0
N141 N 0.84837 0.08587 0.49513 0.0
C142 C 0.82367 0.10484 0.50037 0.0
C143 C 0.84203 0.10225 0.51118 0.0
C144 C 0.83322 0.07874 0.47513 0.0
N145 N 0.8182 0.09008 0.47755 0.0
O146 O 0.86582 0.0563 0.45822 0.0
H147 H 0.84994 0.11186 0.5302 0.0
H148 H 0.83322 0.0658 0.45771 0.0
O149 O 0.8666 0.05983 0.54382 0.0
C150 C 0.86918 0.06075 0.42051 0.0
O151 O 0.8759 0.07755 0.41289 0.0
N152 N 0.88182 0.09547 0.52944 0.0
C153 C 0.89937 0.12624 0.56614 0.0
C154 C 0.89715 0.10942 0.58825 0.0
C155 C 0.88864 0.09402 0.56902 0.0
C156 C 0.88459 0.11142 0.50701 0.0
C157 C 0.89298 0.12707 0.52493 0.0
H158 H 0.88831 0.08084 0.58541 0.0
H159 H 0.88012 0.11195 0.47486 0.0
H160 H 0.89719 0.04233 0.53538 0.0
H161 H 0.94127 0.06834 0.47038 0.0
H162 H 0.81503 0.11674 0.50844 0.0
H163 H 0.90248 0.10797 0.61964 0.0
H164 H 0.89437 0.13972 0.50661 0.0
C165 C 0.91069 0.39979 0.71292 0.0
C166 C 0.91684 0.41778 0.71964 0.0
N167 N 0.93182 0.41704 0.74503 0.0
N168 N 0.92165 0.38781 0.7342 0.0
C169 C 0.93456 0.3987 0.75317 0.0
H170 H 0.89874 0.39569 0.69433 0.0
Co171 Co 0.91709 0.36233 0.73705 0.0
C172 C 0.93199 0.35024 0.8191 0.0
O173 O 0.917 0.33987 0.82444 0.0
N174 N 0.91211 0.336 0.73893 0.0
C175 C 0.89917 0.30799 0.75029 0.0
C176 C 0.89708 0.32689 0.755 0.0
C177 C 0.9231 0.32195 0.72442 0.0
N178 N 0.91554 0.30485 0.73108 0.0
O179 O 0.93785 0.35822 0.70044 0.0
H180 H 0.88541 0.33318 0.77094 0.0
H181 H 0.93655 0.32406 0.70972 0.0
O182 O 0.93371 0.36004 0.78594 0.0
C183 C 0.93288 0.35978 0.66249 0.0
O184 O 0.9151 0.36279 0.65437 0.0
N185 N 0.89593 0.36772 0.76913 0.0
C186 C 0.86189 0.37784 0.80514 0.0
C187 C 0.87883 0.38056 0.8266 0.0
C188 C 0.89577 0.3757 0.80773 0.0
C189 C 0.87981 0.36639 0.74665 0.0
C190 C 0.86261 0.37083 0.76439 0.0
H191 H 0.90868 0.37891 0.82369 0.0
H192 H 0.88033 0.36128 0.71498 0.0
H193 H 0.94542 0.39341 0.77345 0.0
H194 H 0.91082 0.43041 0.70672 0.0
H195 H 0.88924 0.29736 0.75988 0.0
H196 H 0.87907 0.3868 0.8573 0.0
H197 H 0.85001 0.36852 0.74635 0.0
C198 C 0.59066 0.40967 0.96514 0.0
C199 C 0.57242 0.41579 0.96306 0.0
N200 N 0.57142 0.43266 0.98179 0.0
N201 N 0.60102 0.42254 0.98544 0.0
C202 C 0.58898 0.43641 0.99497 0.0
H203 H 0.59612 0.39678 0.95229 0.0
Co204 Co 0.62662 0.42178 0.99473 0.0
C205 C 0.6294 0.43285 0.08317 0.0
O206 O 0.63936 0.41764 0.08946 0.0
N207 N 0.65289 0.42162 1.00216 0.0
C208 C 0.68197 0.43055 0.0182 0.0
C209 C 0.66331 0.43378 0.02482 0.0
C210 C 0.66576 0.41218 0.97944 0.0
N211 N 0.68347 0.41696 0.98962 0.0
O212 O 0.62945 0.4439 0.96191 0.0
H213 H 0.65796 0.44534 0.04284 0.0
H214 H 0.66232 0.40273 0.9543 0.0
O215 O 0.62351 0.43665 0.0464 0.0
C216 C 0.62949 0.43924 0.92364 0.0
O217 O 0.6282 0.42136 0.91429 0.0
N218 N 0.62328 0.39886 0.02388 0.0
C219 C 0.61554 0.36356 0.05743 0.0
C220 C 0.60578 0.37939 0.07115 0.0
C221 C 0.60966 0.39685 0.05357 0.0
C222 C 0.63222 0.3834 0.00898 0.0
C223 C 0.62888 0.36573 0.02587 0.0
H224 H 0.60138 0.40872 0.06325 0.0
H225 H 0.64127 0.38441 0.98243 0.0
H226 H 0.5931 0.44905 0.01112 0.0
H227 H 0.56094 0.4086 0.94791 0.0
H228 H 0.69353 0.43846 0.03116 0.0
H229 H 0.59512 0.37828 0.09497 0.0
H230 H 0.63613 0.35373 0.01307 0.0
C231 C 0.58479 0.08889 0.21111 0.0
C232 C 0.57641 0.07158 0.21254 0.0
N233 N 0.56127 0.07275 0.23738 0.0
N234 N 0.57504 0.10087 0.23512 0.0
C235 C 0.56069 0.09071 0.25049 0.0
H236 H 0.59725 0.09257 0.19379 0.0
Co237 Co 0.58164 0.12563 0.24298 0.0
C238 C 0.57066 0.13195 0.33217 0.0
O239 O 0.58767 0.13756 0.34095 0.0
N240 N 0.58882 0.15134 0.24981 0.0
C241 C 0.60499 0.17708 0.26646 0.0
C242 C 0.60244 0.15847 0.27464 0.0
C243 C 0.58336 0.16631 0.22678 0.0
N244 N 0.5931 0.18199 0.23609 0.0
O245 O 0.56015 0.13272 0.21077 0.0
H246 H 0.61107 0.15063 0.29595 0.0
H247 H 0.57326 0.16567 0.20182 0.0
O248 O 0.56657 0.12678 0.29505 0.0
C249 C 0.56434 0.13208 0.17218 0.0
O250 O 0.58187 0.12889 0.16199 0.0
N251 N 0.60336 0.11738 0.26974 0.0
C252 C 0.6379 0.10481 0.29815 0.0
C253 C 0.62135 0.0994 0.31843 0.0
C254 C 0.60409 0.10555 0.30311 0.0
C255 C 0.61915 0.12128 0.2476 0.0
C256 C 0.63659 0.11548 0.26168 0.0
H257 H 0.59137 0.10077 0.31791 0.0
H258 H 0.61815 0.12929 0.21911 0.0
H259 H 0.55016 0.0963 0.27123 0.0
H260 H 0.58094 0.05919 0.19599 0.0
H261 H 0.61539 0.18613 0.28055 0.0
H262 H 0.62175 0.09072 0.34605 0.0
H263 H 0.64896 0.11927 0.24406 0.0
C264 C 0.59236 0.58776 0.48553 0.0
C265 C 0.5751 0.57985 0.49238 0.0
N266 N 0.57761 0.56309 0.51083 0.0
N267 N 0.60572 0.57612 0.49982 0.0
C268 C 0.59635 0.56113 0.51478 0.0
H269 H 0.59506 0.60109 0.47071 0.0
Co270 Co 0.63112 0.58111 0.4968 0.0
C271 C 0.64677 0.5653 0.57539 0.0
O272 O 0.65789 0.57981 0.57946 0.0
N273 N 0.65733 0.58663 0.49226 0.0
C274 C 0.685 0.60126 0.49528 0.0
C275 C 0.66711 0.60077 0.51041 0.0
C276 C 0.67004 0.57861 0.4664 0.0
N277 N 0.68679 0.58733 0.46769 0.0
O278 O 0.63373 0.56056 0.45919 0.0
H279 H 0.66189 0.61034 0.53361 0.0
H280 H 0.66704 0.56714 0.4455 0.0
O281 O 0.6357 0.56424 0.54415 0.0
C282 C 0.62935 0.56495 0.42202 0.0
O283 O 0.62468 0.5824 0.41419 0.0
N284 N 0.62717 0.60189 0.53095 0.0
C285 C 0.62011 0.63507 0.57322 0.0
C286 C 0.61746 0.61776 0.59295 0.0
C287 C 0.62079 0.60124 0.57098 0.0
C288 C 0.62829 0.61855 0.51037 0.0
C289 C 0.62529 0.63536 0.5312 0.0
H290 H 0.61785 0.58803 0.58593 0.0
H291 H 0.63205 0.61871 0.47776 0.0
H292 H 0.60313 0.54903 0.52824 0.0
H293 H 0.56176 0.58576 0.48333 0.0
H294 H 0.69582 0.61127 0.50334 0.0
H295 H 0.61291 0.61699 0.62505 0.0
H296 H 0.62678 0.64845 0.51449 0.0
C297 C 0.41071 0.09932 0.70195 0.0
C298 C 0.41778 0.08181 0.69343 0.0
N299 N 0.43459 0.08031 0.71219 0.0
N300 N 0.42291 0.1086 0.72649 0.0
C301 C 0.43734 0.09675 0.73192 0.0
H302 H 0.39769 0.10508 0.69049 0.0
Co303 Co 0.42147 0.13328 0.74401 0.0
C304 C 0.4322 0.12618 0.83366 0.0
O305 O 0.41517 0.13022 0.84611 0.0
N306 N 0.42051 0.15873 0.75994 0.0
C307 C 0.42292 0.18649 0.79115 0.0
C308 C 0.42382 0.16748 0.79657 0.0
C309 C 0.41769 0.17293 0.73279 0.0
N310 N 0.41916 0.18993 0.75093 0.0
O311 O 0.444 0.13829 0.71299 0.0
H312 H 0.42733 0.16101 0.8256 0.0
H313 H 0.41512 0.17084 0.69998 0.0
O314 O 0.43639 0.12723 0.79486 0.0
C315 C 0.43989 0.13981 0.67446 0.0
O316 O 0.42212 0.13916 0.66389 0.0
N317 N 0.39815 0.12804 0.77009 0.0
C318 C 0.36171 0.11886 0.79518 0.0
C319 C 0.37665 0.10666 0.803 0.0
C320 C 0.39465 0.11134 0.78962 0.0
C321 C 0.38366 0.13985 0.76142 0.0
C322 C 0.36544 0.13567 0.77412 0.0
H323 H 0.40586 0.10148 0.79505 0.0
H324 H 0.38595 0.15227 0.74301 0.0
H325 H 0.44976 0.10023 0.7496 0.0
H326 H 0.41134 0.07125 0.67393 0.0
H327 H 0.42508 0.19696 0.81502 0.0
H328 H 0.37448 0.09353 0.81917 0.0
H329 H 0.35426 0.14523 0.76608 0.0
C330 C 0.90148 0.91789 0.96414 0.0
C331 C 0.91852 0.92648 0.96906 0.0
N332 N 0.9166 0.94029 0.99724 0.0
N333 N 0.88884 0.92622 0.98909 0.0
C334 C 0.89841 0.93994 0.00877 0.0
H335 H 0.89851 0.90604 0.94424 0.0
Co336 Co 0.86466 0.91731 0.99409 0.0
C337 C 0.85064 0.93209 0.07563 0.0
O338 O 0.84165 0.91639 0.08259 0.0
N339 N 0.83978 0.90737 0.9975 0.0
C340 C 0.81577 0.88795 0.00888 0.0
C341 C 0.83399 0.89195 0.01857 0.0
C342 C 0.82444 0.91241 0.97518 0.0
N343 N 0.8098 0.90073 0.98132 0.0
O344 O 0.85649 0.93665 0.95673 0.0
H345 H 0.8423 0.88386 0.04007 0.0
H346 H 0.82412 0.92388 0.95326 0.0
O347 O 0.86016 0.93404 0.04213 0.0
C348 C 0.85859 0.9319 0.91875 0.0
O349 O 0.86398 0.91469 0.91068 0.0
N350 N 0.87414 0.89795 0.0271 0.0
C351 C 0.8917 0.86721 0.06345 0.0
C352 C 0.89046 0.8843 0.08484 0.0
C353 C 0.88193 0.89968 0.06573 0.0
C354 C 0.87582 0.88166 0.00538 0.0
C355 C 0.8843 0.86605 0.02313 0.0
H356 H 0.88227 0.91302 0.08146 0.0
H357 H 0.87045 0.88085 0.97395 0.0
H358 H 0.89239 0.9491 0.03194 0.0
H359 H 0.93134 0.92287 0.95299 0.0
H360 H 0.8076 0.87636 0.02082 0.0
H361 H 0.89653 0.88592 0.11552 0.0
H362 H 0.88494 0.85315 0.00547 0.0
C363 C 0.08512 0.4048 0.21189 0.0
C364 C 0.07814 0.42263 0.21501 0.0
N365 N 0.06206 0.42188 0.23681 0.0
N366 N 0.07357 0.39288 0.23186 0.0
C367 C 0.0595 0.40364 0.24644 0.0
H368 H 0.0979 0.40073 0.1963 0.0
Co369 Co 0.07833 0.36755 0.2367 0.0
C370 C 0.06428 0.35748 0.32084 0.0
O371 O 0.08022 0.34904 0.32815 0.0
N372 N 0.08355 0.34125 0.24033 0.0
C373 C 0.09634 0.31346 0.25463 0.0
C374 C 0.09746 0.33235 0.26117 0.0
C375 C 0.07431 0.32708 0.22098 0.0
N376 N 0.08179 0.31012 0.22928 0.0
O377 O 0.05751 0.36267 0.2005 0.0
H378 H 0.10779 0.33886 0.28095 0.0
H379 H 0.06227 0.32897 0.20108 0.0
O380 O 0.06168 0.36572 0.28589 0.0
C381 C 0.06195 0.36482 0.16236 0.0
O382 O 0.07943 0.36899 0.1534 0.0
N383 N 0.0995 0.3737 0.26853 0.0
C384 C 0.13298 0.38458 0.30573 0.0
C385 C 0.11581 0.38917 0.32412 0.0
C386 C 0.09914 0.38384 0.3046 0.0
C387 C 0.11604 0.37068 0.24849 0.0
C388 C 0.13299 0.37551 0.26709 0.0
H389 H 0.08599 0.38815 0.31812 0.0
H390 H 0.11602 0.36405 0.21822 0.0
H391 H 0.04781 0.39829 0.26427 0.0
H392 H 0.08429 0.43515 0.20176 0.0
H393 H 0.10585 0.30302 0.26679 0.0
H394 H 0.11527 0.39664 0.35342 0.0
H395 H 0.14599 0.37231 0.25126 0.0
C396 C 0.40239 0.58566 0.96294 0.0
C397 C 0.41967 0.57725 0.96366 0.0
N398 N 0.41776 0.5601 0.98072 0.0
N399 N 0.38968 0.57394 0.97978 0.0
C400 C 0.3994 0.55843 0.99008 0.0
H401 H 0.39921 0.59936 0.95048 0.0
Co402 Co 0.36429 0.57871 0.98427 0.0
C403 C 0.35497 0.56442 0.06906 0.0
O404 O 0.34675 0.58034 0.07775 0.0
N405 N 0.33797 0.58367 0.98793 0.0
C406 C 0.30993 0.59509 0.00546 0.0
C407 C 0.32886 0.59668 0.01111 0.0
C408 C 0.32391 0.57469 0.96758 0.0
N409 N 0.30687 0.58128 0.97806 0.0
O410 O 0.3596 0.55783 0.94802 0.0
H411 H 0.33529 0.60665 0.03194 0.0
H412 H 0.32591 0.56337 0.94574 0.0
O413 O 0.36266 0.56208 0.03344 0.0
C414 C 0.36253 0.56251 0.91027 0.0
O415 O 0.36704 0.58001 0.90234 0.0
N416 N 0.37012 0.60004 0.01581 0.0
C417 C 0.37975 0.63422 0.05179 0.0
C418 C 0.38498 0.61733 0.0708 0.0
C419 C 0.38028 0.6003 0.05186 0.0
C420 C 0.3664 0.61632 0.9953 0.0
C421 C 0.37067 0.63356 0.01316 0.0
H422 H 0.38502 0.58739 0.06583 0.0
H423 H 0.35971 0.61584 0.96511 0.0
H424 H 0.3931 0.54616 1.00406 0.0
H425 H 0.43254 0.58312 0.95151 0.0
H426 H 0.29922 0.60363 0.01983 0.0
H427 H 0.39248 0.61728 0.10009 0.0
H428 H 0.36705 0.64628 0.99668 0.0
C429 C 0.4067 0.90806 0.21682 0.0
C430 C 0.41542 0.92513 0.21946 0.0
N431 N 0.43061 0.92323 0.2439 0.0
N432 N 0.41624 0.89549 0.23975 0.0
C433 C 0.43092 0.90507 0.25561 0.0
H434 H 0.39404 0.90498 0.19964 0.0
Co435 Co 0.40796 0.87118 0.24587 0.0
C436 C 0.42157 0.85879 0.32876 0.0
O437 O 0.40526 0.85089 0.33541 0.0
N438 N 0.39882 0.84601 0.25025 0.0
C439 C 0.38033 0.8212 0.26092 0.0
C440 C 0.38304 0.83979 0.26935 0.0
C441 C 0.40543 0.83052 0.23064 0.0
N442 N 0.39434 0.8154 0.23635 0.0
O443 O 0.42756 0.86333 0.20938 0.0
H444 H 0.37385 0.84802 0.28866 0.0
H445 H 0.41764 0.83037 0.21082 0.0
O446 O 0.42454 0.86743 0.29445 0.0
C447 C 0.42284 0.86492 0.17129 0.0
O448 O 0.40544 0.86948 0.1627 0.0
N449 N 0.3883 0.88052 0.27826 0.0
C450 C 0.35804 0.89956 0.31283 0.0
C451 C 0.37537 0.89914 0.33332 0.0
C452 C 0.39047 0.8899 0.31503 0.0
C453 C 0.37174 0.88139 0.25725 0.0
C454 C 0.35634 0.89055 0.27426 0.0
H455 H 0.40404 0.89116 0.3295 0.0
H456 H 0.3706 0.87501 0.22682 0.0
H457 H 0.44136 0.89902 0.27594 0.0
H458 H 0.41106 0.93792 0.20426 0.0
H459 H 0.36874 0.81264 0.2715 0.0
H460 H 0.37743 0.90652 0.36241 0.0
H461 H 0.34324 0.89062 0.25727 0.0
C462 C 0.08945 0.90867 0.46399 0.0
C463 C 0.07138 0.91407 0.47212 0.0
N464 N 0.07191 0.92796 0.50045 0.0
N465 N 0.10127 0.91905 0.48719 0.0
C466 C 0.0902 0.9308 0.50892 0.0
H467 H 0.09374 0.89766 0.44297 0.0
Co468 Co 0.12674 0.91514 0.48858 0.0
C469 C 0.14015 0.93047 0.5692 0.0
O470 O 0.15133 0.91599 0.57281 0.0
N471 N 0.15299 0.91083 0.48878 0.0
C472 C 0.1815 0.89856 0.49589 0.0
C473 C 0.16269 0.89538 0.50035 0.0
C474 C 0.16648 0.92315 0.4772 0.0
N475 N 0.18385 0.91601 0.48128 0.0
O476 O 0.13005 0.93603 0.45156 0.0
H477 H 0.15688 0.88257 0.51243 0.0
H478 H 0.16375 0.93722 0.4664 0.0
O479 O 0.1294 0.93179 0.53741 0.0
C480 C 0.12884 0.93113 0.41348 0.0
O481 O 0.12637 0.91328 0.40506 0.0
N482 N 0.12215 0.89384 0.52106 0.0
C483 C 0.11254 0.85947 0.55624 0.0
C484 C 0.11095 0.87605 0.57941 0.0
C485 C 0.11552 0.89322 0.56093 0.0
C486 C 0.12236 0.87804 0.49734 0.0
C487 C 0.11802 0.86068 0.51447 0.0
H488 H 0.11317 0.9059 0.57838 0.0
H489 H 0.12627 0.87897 0.46488 0.0
H490 H 0.09535 0.94091 0.53122 0.0
H491 H 0.05885 0.90837 0.458 0.0
H492 H 0.19258 0.88862 0.50209 0.0
H493 H 0.10622 0.87577 0.61141 0.0
H494 H 0.11871 0.84833 0.49496 0.0
C495 C 0.06938 0.58393 0.69685 0.0
C496 C 0.06025 0.56751 0.70564 0.0
N497 N 0.05036 0.56995 0.74083 0.0
N498 N 0.06536 0.59667 0.72644 0.0
C499 C 0.05358 0.58779 0.75284 0.0
H500 H 0.07869 0.58636 0.6709 0.0
Co501 Co 0.07669 0.61993 0.72724 0.0
C502 C 0.0621 0.64048 0.80207 0.0
O503 O 0.07676 0.6516 0.80262 0.0
N504 N 0.08885 0.64347 0.72598 0.0
C505 C 0.11108 0.66539 0.7246 0.0
C506 C 0.1072 0.647 0.73323 0.0
C507 C 0.08193 0.66016 0.71304 0.0
N508 N 0.09521 0.67362 0.71172 0.0
O509 O 0.05809 0.62875 0.6889 0.0
H510 H 0.1175 0.63693 0.74312 0.0
H511 H 0.0676 0.66228 0.70319 0.0
O512 O 0.06082 0.6276 0.77445 0.0
C513 C 0.06318 0.62755 0.65099 0.0
O514 O 0.08038 0.62211 0.64297 0.0
N515 N 0.0954 0.60993 0.76166 0.0
C516 C 0.12699 0.59449 0.79967 0.0
C517 C 0.11272 0.60272 0.82358 0.0
C518 C 0.09686 0.61009 0.80403 0.0
C519 C 0.10863 0.60116 0.7382 0.0
C520 C 0.12444 0.59329 0.75647 0.0
H521 H 0.08608 0.61596 0.82328 0.0
H522 H 0.10711 0.6008 0.70474 0.0
H523 H 0.04792 0.594 0.78082 0.0
H524 H 0.06072 0.55476 0.68743 0.0
H525 H 0.12465 0.6721 0.72674 0.0
H526 H 0.11394 0.60393 0.85704 0.0
H527 H 0.13467 0.58656 0.73666 0.0
C528 C 0.94979 0.94656 0.01281 0.0
C529 C 0.93112 0.95268 0.01161 0.0
C530 C 0.96421 0.95898 0.02267 0.0
C531 C 0.97526 0.00844 0.01371 0.0
H532 H 0.02013 0.99472 0.07447 0.0
C533 C 0.03876 0.05735 0.01575 0.0
C534 C 0.05613 0.04884 0.00816 0.0
C535 C 0.02316 0.04657 0.02615 0.0
C536 C 0.00772 -0.00127 0.0573 0.0
H537 H 0.91279 0.97637 0.02178 0.0
H538 H 0.93808 -0.00178 0.03905 0.0
H539 H 0.99287 0.97396 0.07571 0.0
H540 H 0.07107 0.02252 0.00725 0.0
H541 H 0.04368 0.00346 0.02439 0.0
H542 H 0.99019 0.03271 0.99368 0.0
C543 C 0.94152 0.98379 0.03208 0.0
C544 C 0.99211 0.98689 0.05814 0.0
C545 C 0.92705 0.97129 0.02246 0.0
C546 C 0.05783 0.02939 0.01308 0.0
C547 C 0.04215 0.01853 0.02306 0.0
C548 C 0.99086 0.02021 0.0127 0.0
C549 C 0.96029 0.97783 0.03141 0.0
C550 C 0.97586 0.99145 0.03565 0.0
C551 C 0.02453 0.02697 0.02874 0.0
C552 C 0.0074 0.01534 0.03381 0.0
H553 H 0.9533 0.93221 0.00532 0.0
H554 H 0.97852 0.95398 0.02156 0.0
H555 H 0.96307 0.01221 0.9955 0.0
H556 H 0.0372 0.07238 0.01309 0.0
H557 H 0.00993 0.05357 0.03133 0.0
C558 C 0.94517 0.5431 0.23758 0.0
C559 C 0.95147 0.56176 0.23683 0.0
C560 C 0.95756 0.52851 0.246 0.0
C561 C 0.00715 0.51707 0.23683 0.0
H562 H 0.99351 0.47303 0.30073 0.0
C563 C 0.05781 0.45536 0.25259 0.0
C564 C 0.05011 0.43745 0.24668 0.0
C565 C 0.04624 0.47083 0.25863 0.0
C566 C -0.00253 0.48519 0.28262 0.0
H567 H 0.97561 0.57977 0.24564 0.0
H568 H 0.9973 0.55424 0.26063 0.0
H569 H 0.97237 0.49989 0.29873 0.0
H570 H 0.02429 0.42155 0.24386 0.0
H571 H 0.00395 0.44864 0.2537 0.0
H572 H 0.03191 0.50231 0.21957 0.0
C573 C 0.98276 0.55094 0.25437 0.0
C574 C 0.98539 0.50057 0.28155 0.0
C575 C 0.97032 0.56556 0.24612 0.0
C576 C 0.0306 0.43518 0.24858 0.0
C577 C 0.01897 0.4507 0.25432 0.0
C578 C 0.01917 0.50171 0.23777 0.0
C579 C 0.97656 0.53224 0.25374 0.0
C580 C 0.99002 0.51658 0.25822 0.0
C581 C 0.02667 0.46876 0.25859 0.0
C582 C 0.01439 0.4855 0.26027 0.0
H583 H 0.93066 0.53975 0.23123 0.0
H584 H 0.95238 0.51425 0.24496 0.0
H585 H 0.01096 0.52906 0.21798 0.0
H586 H 0.07283 0.45744 0.25218 0.0
H587 H 0.05264 0.48446 0.26277 0.0
C588 C 0.54489 0.55582 0.52989 0.0
C589 C 0.56321 0.54975 0.52138 0.0
C590 C 0.53047 0.54289 0.53613 0.0
C591 C 0.51774 0.49527 0.50598 0.0
H592 H 0.47635 0.50223 0.58252 0.0
C593 C 0.45657 0.44393 0.50529 0.0
C594 C 0.43862 0.45185 0.50535 0.0
C595 C 0.47216 0.45463 0.51611 0.0
C596 C 0.48777 0.50015 0.56088 0.0
H597 H 0.58089 0.52528 0.51466 0.0
H598 H 0.55575 0.50269 0.52604 0.0
H599 H 0.50339 0.52329 0.58566 0.0
H600 H 0.42261 0.47677 0.51895 0.0
H601 H 0.45 0.49588 0.53689 0.0
H602 H 0.50207 0.47266 0.48012 0.0
C603 C 0.55253 0.51749 0.52737 0.0
C604 C 0.50326 0.51218 0.56272 0.0
C605 C 0.56696 0.53044 0.52121 0.0
C606 C 0.43636 0.4704 0.51878 0.0
C607 C 0.45203 0.48127 0.52912 0.0
C608 C 0.5023 0.48334 0.50404 0.0
C609 C 0.53405 0.52358 0.53397 0.0
C610 C 0.51832 0.50996 0.53498 0.0
C611 C 0.47017 0.47363 0.52662 0.0
C612 C 0.48704 0.4857 0.53119 0.0
H613 H 0.54161 0.5706 0.53099 0.0
H614 H 0.51639 0.54805 0.54089 0.0
H615 H 0.52891 0.49341 0.48358 0.0
H616 H 0.45858 0.42951 0.49586 0.0
H617 H 0.48585 0.44815 0.51501 0.0
C618 C 0.55396 0.95797 0.72425 0.0
C619 C 0.54658 0.93973 0.72351 0.0
C620 C 0.54213 0.97346 0.7213 0.0
C621 C 0.49512 0.98754 0.68617 0.0
H622 H 0.50255 0.02953 0.7609 0.0
C623 C 0.44055 0.04637 0.70623 0.0
C624 C 0.44732 0.06475 0.71054 0.0
C625 C 0.45292 0.03124 0.70602 0.0
C626 C 0.50044 0.01803 0.73943 0.0
H627 H 0.52102 0.92342 0.71815 0.0
H628 H 0.50037 0.95042 0.7137 0.0
H629 H 0.52386 0.00295 0.7638 0.0
H630 H 0.47239 0.08174 0.71626 0.0
H631 H 0.49395 0.0554 0.71574 0.0
H632 H 0.47166 0.0026 0.66186 0.0
C633 C 0.51532 0.95275 0.71635 0.0
C634 C 0.51264 0.00281 0.74112 0.0
C635 C 0.52713 0.93729 0.71946 0.0
C636 C 0.46671 0.06772 0.71382 0.0
C637 C 0.47907 0.05263 0.71348 0.0
C638 C 0.48293 0.00278 0.68442 0.0
C639 C 0.52268 0.97099 0.71731 0.0
C640 C 0.51005 0.98737 0.71465 0.0
C641 C 0.4723 0.03421 0.70995 0.0
C642 C 0.48542 0.01816 0.71115 0.0
H643 H 0.56887 0.96027 0.72758 0.0
H644 H 0.54821 0.98737 0.72178 0.0
H645 H 0.49294 0.97594 0.66498 0.0
H646 H 0.42567 0.04366 0.70406 0.0
H647 H 0.44725 0.0172 0.70375 0.0
C648 C 0.03877 0.92892 0.52158 0.0
C649 C 0.05617 0.9379 0.51725 0.0
C650 C 0.02304 0.93898 0.53423 0.0
C651 C 0.00739 0.98489 0.57683 0.0
H652 H 0.96448 0.97631 0.50531 0.0
C653 C 0.95518 0.04176 0.53056 0.0
C654 C 0.93632 0.03702 0.52414 0.0
C655 C 0.96813 0.02811 0.54187 0.0
C656 C 0.97613 0.97864 0.52629 0.0
H657 H 0.07096 0.96421 0.52434 0.0
H658 H 0.04347 0.98192 0.54549 0.0
H659 H 0.99072 0.95481 0.50299 0.0
H660 H 0.916 0.01447 0.52653 0.0
H661 H 0.93871 0.99047 0.54627 0.0
H662 H 0.99305 0.00938 0.59833 0.0
C663 C 0.04198 0.96703 0.53997 0.0
C664 C 0.99121 0.96629 0.52499 0.0
C665 C 0.05774 0.95693 0.52765 0.0
C666 C 0.93045 0.01851 0.5313 0.0
C667 C 0.94345 0.00478 0.54237 0.0
C668 C 0.99231 0.99731 0.57798 0.0
C669 C 0.02436 0.95826 0.54246 0.0
C670 C 0.00726 0.9696 0.54928 0.0
C671 C 0.96248 0.00939 0.54683 0.0
C672 C 0.97679 0.99459 0.55176 0.0
H673 H 0.03727 0.91416 0.51464 0.0
H674 H 0.00974 0.93173 0.53661 0.0
H675 H 0.0194 0.98761 0.59651 0.0
H676 H 0.96001 0.05599 0.52598 0.0
H677 H 0.98272 0.03207 0.54468 0.0
C678 C 0.93373 0.44993 0.76795 0.0
C679 C 0.94252 0.43271 0.7601 0.0
C680 C 0.94425 0.46559 0.77946 0.0
C681 C 0.99206 0.481 0.81242 0.0
H682 H 0.97841 0.52644 0.7538 0.0
C683 C 0.04408 0.53729 0.76029 0.0
C684 C 0.03863 0.55616 0.7603 0.0
C685 C 0.0317 0.52338 0.77331 0.0
C686 C 0.9822 0.51402 0.77121 0.0
H687 H 0.96907 0.41818 0.75939 0.0
H688 H 0.98761 0.44561 0.77816 0.0
H689 H 0.95767 0.4995 0.75128 0.0
H690 H 0.01645 0.5755 0.77605 0.0
H691 H 0.99445 0.55099 0.79835 0.0
H692 H 0.01722 0.49538 0.83005 0.0
C693 C 0.97254 0.447 0.77648 0.0
C694 C 0.9703 0.49852 0.7698 0.0
C695 C 0.96196 0.43127 0.76549 0.0
C696 C 0.02093 0.56102 0.77586 0.0
C697 C 0.00838 0.54703 0.78837 0.0
C698 C 0.00406 0.49649 0.81349 0.0
C699 C 0.96385 0.46445 0.78284 0.0
C700 C 0.9753 0.48163 0.78943 0.0
C701 C 0.01351 0.52804 0.78617 0.0
C702 C -0.00054 0.51297 0.79196 0.0
H703 H 0.9187 0.4513 0.76486 0.0
H704 H 0.93703 0.47867 0.78503 0.0
H705 H 0.99617 0.46838 0.82866 0.0
H706 H 0.05775 0.53327 0.74883 0.0
H707 H 0.036 0.50888 0.7709 0.0
C708 C 0.55725 0.46402 0.98966 0.0
C709 C 0.5552 0.44452 0.9856 0.0
C710 C 0.54158 0.47556 0.99293 0.0
C711 C 0.49138 0.47742 0.96831 0.0
H712 H 0.49189 0.51969 0.04409 0.0
C713 C 0.42802 0.52709 0.98602 0.0
C714 C 0.43226 0.54633 0.98628 0.0
C715 C 0.44227 0.51378 0.98957 0.0
C716 C 0.49158 0.50801 0.0226 0.0
H717 H 0.53497 0.42187 0.9825 0.0
H718 H 0.50755 0.44206 0.988 0.0
H719 H 0.51821 0.49801 0.04334 0.0
H720 H 0.45473 0.56664 0.99187 0.0
H721 H 0.47956 0.54351 0.99732 0.0
H722 H 0.46488 0.48761 0.94708 0.0
C723 C 0.52134 0.4484 0.98821 0.0
C724 C 0.50665 0.4956 0.02217 0.0
C725 C 0.53705 0.43684 0.985 0.0
C726 C 0.45101 0.55195 0.99101 0.0
C727 C 0.46522 0.53867 0.99466 0.0
C728 C 0.47629 0.48986 0.96873 0.0
C729 C 0.52345 0.46789 0.99218 0.0
C730 C 0.50685 0.48032 0.9946 0.0
C731 C 0.46104 0.51944 0.99365 0.0
C732 C 0.47636 0.50544 0.99546 0.0
H733 H 0.57097 0.47048 0.98945 0.0
H734 H 0.54366 0.49056 0.99517 0.0
H735 H 0.49121 0.4659 0.9464 0.0
H736 H 0.41375 0.52229 0.9821 0.0
H737 H 0.43859 0.49906 0.98904 0.0
C738 C 0.43725 0.95622 0.25979 0.0
C739 C 0.44364 0.93781 0.25447 0.0
C740 C 0.44991 0.97086 0.26547 0.0
C741 C 0.49957 0.98233 0.28841 0.0
H742 H 0.48833 0.02654 0.22292 0.0
C743 C 0.55414 0.03917 0.24652 0.0
C744 C 0.54826 0.05794 0.2469 0.0
C745 C 0.54133 0.0247 0.25333 0.0
C746 C 0.49154 0.01443 0.24191 0.0
H747 H 0.46813 0.92005 0.25266 0.0
H748 H 0.49048 0.94577 0.26169 0.0
H749 H 0.46615 0.00074 0.22455 0.0
H750 H 0.52444 0.07628 0.25568 0.0
H751 H 0.50207 0.051 0.26789 0.0
H752 H 0.5253 0.996 0.30469 0.0
C753 C 0.47565 0.94886 0.26212 0.0
C754 C 0.47881 -0.00037 0.24292 0.0
C755 C 0.4629 0.93414 0.25687 0.0
C756 C 0.52941 0.06197 0.25541 0.0
C757 C 0.51658 0.0475 0.26203 0.0
C758 C 0.51238 0.99716 0.28724 0.0
C759 C 0.46928 0.96745 0.26545 0.0
C760 C 0.48267 0.98337 0.26607 0.0
C761 C 0.52237 0.02871 0.2605 0.0
C762 C 0.5085 0.01332 0.26382 0.0
H763 H 0.42243 0.95932 0.25894 0.0
H764 H 0.44451 0.98494 0.26907 0.0
H765 H 0.50287 0.97008 0.30687 0.0
H766 H 0.56863 0.03563 0.24067 0.0
H767 H 0.54618 0.01035 0.25166 0.0
C768 C 0.12515 0.93903 0.3382 0.0
C769 C 0.12955 0.94488 0.37885 0.0
C770 C 0.12553 0.95165 0.30501 0.0
C771 C 0.12482 0.00249 0.28043 0.0
H772 H 0.14202 0.98562 0.17226 0.0
C773 C 0.14086 0.05366 0.14681 0.0
C774 C 0.13465 0.04912 0.10646 0.0
C775 C 0.13966 0.0407 0.17916 0.0
C776 C 0.13696 0.99048 0.20213 0.0
H777 H 0.13794 0.96865 0.41637 0.0
H778 H 0.13901 0.99073 0.35813 0.0
H779 H 0.14185 0.96391 0.23084 0.0
H780 H 0.12241 0.02716 0.06861 0.0
H781 H 0.12047 0.00426 0.12552 0.0
H782 H 0.1203 0.02917 0.25174 0.0
C783 C 0.13491 0.97638 0.35207 0.0
C784 C 0.13686 0.97803 0.23582 0.0
C785 C 0.1344 0.96372 0.38548 0.0
C786 C 0.12733 0.03111 0.09926 0.0
C787 C 0.12627 0.018 0.13181 0.0
C788 C 0.12506 0.01495 0.24683 0.0
C789 C 0.13046 0.9705 0.31133 0.0
C790 C 0.1308 0.98386 0.2755 0.0
C791 C 0.13232 0.02273 0.17222 0.0
C792 C 0.1312 0.00913 0.2073 0.0
H793 H 0.12119 0.92466 0.3319 0.0
H794 H 0.12164 0.94662 0.27442 0.0
H795 H 0.11971 0.00743 0.31018 0.0
H796 H 0.14663 0.06735 0.15371 0.0
H797 H 0.14472 0.04472 0.20967 0.0
C798 C 0.0315 0.63684 0.62312 0.0
C799 C 0.04992 0.63066 0.61615 0.0
C800 C 0.01893 0.63866 0.5898 0.0
C801 C 0.01019 0.62074 0.48403 0.0
H802 H 0.97849 0.66436 0.47167 0.0
C803 C 0.96434 0.63207 0.33728 0.0
C804 C 0.94659 0.6401 0.34312 0.0
C805 C 0.9772 0.63127 0.37022 0.0
C806 C 0.98705 0.65194 0.47487 0.0
H807 H 0.0696 0.62185 0.56856 0.0
H808 H 0.04776 0.62495 0.51099 0.0
H809 H -0.00011 0.66232 0.53066 0.0
H810 H 0.92839 0.65337 0.38844 0.0
H811 H 0.95044 0.65154 0.44561 0.0
H812 H 0.9972 0.61013 0.42885 0.0
C813 C 0.04297 0.62826 0.5421 0.0
C814 C -0.00066 0.65082 0.50872 0.0
C815 C 0.05553 0.62661 0.57518 0.0
C816 C 0.94199 0.64721 0.38262 0.0
C817 C 0.95473 0.64628 0.4155 0.0
C818 C -0.00221 0.62177 0.45041 0.0
C819 C 0.02449 0.63414 0.549 0.0
C820 C 0.0111 0.63523 0.5136 0.0
C821 C 0.97255 0.63836 0.40983 0.0
C822 C 0.98605 0.63739 0.4453 0.0
H823 H 0.02675 0.64006 0.6543 0.0
H824 H 0.00474 0.64316 0.5961 0.0
H825 H 0.01891 0.60842 0.48723 0.0
H826 H 0.96835 0.62651 0.30723 0.0
H827 H 0.99087 0.62527 0.36446 0.0
C828 C 0.36593 0.46549 0.59334 0.0
C829 C 0.35416 0.44969 0.5947 0.0
C830 C 0.36691 0.47777 0.62737 0.0
C831 C 0.35913 0.47968 0.74063 0.0
H832 H 0.35578 0.53334 0.72456 0.0
C833 C 0.35274 0.53145 0.87956 0.0
C834 C 0.36172 0.54887 0.87555 0.0
C835 C 0.35176 0.51914 0.84556 0.0
C836 C 0.35703 0.51841 0.72971 0.0
H837 H 0.33413 0.43454 0.63296 0.0
H838 H 0.33601 0.45577 0.69184 0.0
H839 H 0.35496 0.51259 0.66442 0.0
H840 H 0.37727 0.56674 0.83321 0.0
H841 H 0.37613 0.54526 0.77501 0.0
H842 H 0.36155 0.48542 0.80578 0.0
C843 C 0.34451 0.45865 0.66468 0.0
C844 C 0.35652 0.50653 0.69512 0.0
C845 C 0.34337 0.44655 0.63067 0.0
C846 C 0.37 0.55354 0.83726 0.0
C847 C 0.36923 0.54122 0.80363 0.0
C848 C 0.35986 0.49157 0.77523 0.0
C849 C 0.35634 0.47435 0.66356 0.0
C850 C 0.3575 0.48703 0.70018 0.0
C851 C 0.35992 0.52393 0.80701 0.0
C852 C 0.35882 0.51112 0.77029 0.0
H853 H 0.37443 0.46832 0.56616 0.0
H854 H 0.3762 0.48975 0.62569 0.0
H855 H 0.36009 0.4647 0.74548 0.0
H856 H 0.34618 0.5275 0.90866 0.0
H857 H 0.3443 0.50603 0.84931 0.0
C858 C 0.45587 0.86101 0.14525 0.0
C859 C 0.43672 0.86367 0.13714 0.0
C860 C 0.46893 0.86153 0.1127 0.0
C861 C 0.47512 0.88024 0.0064 0.0
H862 H 0.5155 0.84426 0.99916 0.0
C863 C 0.52348 0.87384 0.86156 0.0
C864 C 0.54225 0.86901 0.86866 0.0
C865 C 0.51066 0.87415 0.89464 0.0
C866 C 0.50448 0.85461 1.00098 0.0
H867 H 0.41625 0.86839 0.0883 0.0
H868 H 0.43891 0.8692 0.03197 0.0
H869 H 0.49334 0.84237 0.05659 0.0
H870 H 0.56259 0.86186 0.91619 0.0
H871 H 0.54055 0.86292 0.97359 0.0
H872 H 0.4863 0.89258 0.95096 0.0
C873 C 0.4439 0.86699 0.06342 0.0
C874 C 0.49175 0.85348 0.03393 0.0
C875 C 0.4309 0.86639 0.09577 0.0
C876 C 0.54815 0.86538 0.90959 0.0
C877 C 0.53546 0.86585 0.94252 0.0
C878 C 0.48791 0.88145 0.97355 0.0
C879 C 0.46309 0.86483 0.0715 0.0
C880 C 0.47688 0.86623 0.03696 0.0
C881 C 0.51645 0.86976 0.93544 0.0
C882 C 0.50277 0.86864 0.97039 0.0
H883 H 0.46082 0.85895 0.17677 0.0
H884 H 0.48365 0.85988 0.11995 0.0
H885 H 0.46395 0.89045 0.00817 0.0
H886 H 0.51853 0.87663 0.83031 0.0
H887 H 0.49611 0.87714 0.88796 0.0
C888 C 0.84694 0.0535 0.64806 0.0
C889 C 0.85534 0.0487 0.60995 0.0
C890 C 0.84658 0.04083 0.68118 0.0
C891 C 0.86986 -0.00223 0.72028 0.0
H892 H 0.82739 0.99619 0.79547 0.0
C893 C 0.8613 0.93994 0.8434 0.0
C894 C 0.85642 0.94542 0.88402 0.0
C895 C 0.86056 0.95265 0.81048 0.0
C896 C 0.83942 0.99661 0.77497 0.0
H897 H 0.86962 0.02656 0.57661 0.0
H898 H 0.86861 0.00421 0.63408 0.0
H899 H 0.82699 0.01747 0.73604 0.0
H900 H 0.84647 0.96856 0.92158 0.0
H901 H 0.84496 0.99086 0.86352 0.0
H902 H 0.8821 0.97663 0.75888 0.0
C903 C 0.86265 0.01798 0.63871 0.0
C904 C 0.83923 0.00882 0.74086 0.0
C905 C 0.86313 0.03075 0.60558 0.0
C906 C 0.85032 0.9639 0.89069 0.0
C907 C 0.84941 0.97663 0.85746 0.0
C908 C 0.86996 0.98545 0.75411 0.0
C909 C 0.85448 0.0229 0.6771 0.0
C910 C 0.85446 0.00959 0.71303 0.0
C911 C 0.85479 0.97118 0.81709 0.0
C912 C 0.85474 0.9847 0.78182 0.0
H913 H 0.84088 0.06723 0.65273 0.0
H914 H 0.84046 0.0453 0.71034 0.0
H915 H 0.88202 -0.0018 0.7002 0.0
H916 H 0.86602 0.92583 0.83697 0.0
H917 H 0.86452 0.94792 0.77968 0.0
C918 C 0.96255 0.36177 0.8492 0.0
C919 C 0.94569 0.35179 0.85367 0.0
C920 C 0.97515 0.36319 0.88259 0.0
C921 C 0.98663 0.34124 0.98505 0.0
H922 H 0.01399 0.38742 1.00341 0.0
C923 C 0.03008 0.3558 0.13489 0.0
C924 C 0.04803 0.36332 0.12827 0.0
C925 C 0.01728 0.35441 0.10185 0.0
C926 C 0.00651 0.37439 0.99857 0.0
H927 H 0.9288 0.33566 0.89701 0.0
H928 H 0.95032 0.33853 0.95489 0.0
H929 H 0.99272 0.38493 0.94429 0.0
H930 H 0.06653 0.37544 0.08187 0.0
H931 H 0.0443 0.37315 0.02486 0.0
H932 H 0.00029 0.33086 0.03979 0.0
C933 C 0.95417 0.34488 0.92551 0.0
C934 C 0.99438 0.37291 0.9645 0.0
C935 C 0.94172 0.34334 0.89221 0.0
C936 C 0.05283 0.36954 0.08814 0.0
C937 C 0.04004 0.36835 0.05541 0.0
C938 C -0.00137 0.34279 0.01932 0.0
C939 C 0.9711 0.35476 0.92124 0.0
C940 C 0.98429 0.3563 0.9572 0.0
C941 C 0.02213 0.36076 0.06178 0.0
C942 C 0.00876 0.35935 0.02638 0.0
H943 H 0.96606 0.36841 0.81992 0.0
H944 H 0.98814 0.37072 0.87791 0.0
H945 H 0.97939 0.32809 0.98012 0.0
H946 H 0.02597 0.35087 0.16543 0.0
H947 H 0.00353 0.34858 0.10774 0.0
C948 C 0.63372 0.53212 0.39522 0.0
C949 C 0.62904 0.55095 0.38803 0.0
C950 C 0.63298 0.51906 0.36273 0.0
C951 C 0.61194 0.51123 0.25866 0.0
H952 H 0.65182 0.47495 0.24622 0.0
C953 C 0.62067 0.46452 0.11168 0.0
C954 C 0.6268 0.44607 0.11818 0.0
C955 C 0.61994 0.47721 0.14495 0.0
C956 C 0.64043 0.48483 0.24951 0.0
H957 H 0.62 0.57082 0.341 0.0
H958 H 0.6189 0.54817 0.28466 0.0
H959 H 0.65263 0.49693 0.30411 0.0
H960 H 0.63603 0.4262 0.16499 0.0
H961 H 0.63444 0.44808 0.22261 0.0
H962 H 0.59977 0.49912 0.20393 0.0
C963 C 0.62288 0.5434 0.3154 0.0
C964 C 0.6409 0.49743 0.28275 0.0
C965 C 0.62366 0.55642 0.34772 0.0
C966 C 0.63149 0.44039 0.15874 0.0
C967 C 0.63069 0.45298 0.19183 0.0
C968 C 0.61145 0.49859 0.2254 0.0
C969 C 0.62748 0.52455 0.32246 0.0
C970 C 0.62669 0.51081 0.2877 0.0
C971 C 0.62526 0.47164 0.1853 0.0
C972 C 0.62569 0.48522 0.22044 0.0
H973 H 0.63786 0.52746 0.42593 0.0
H974 H 0.63646 0.5046 0.36927 0.0
H975 H 0.60064 0.52121 0.26188 0.0
H976 H 0.61698 0.46931 0.08078 0.0
H977 H 0.61576 0.49152 0.13881 0.0
C978 C 0.53748 0.13071 0.35943 0.0
C979 C 0.55688 0.13095 0.36664 0.0
C980 C 0.52488 0.13126 0.39298 0.0
C981 C 0.52306 0.1441 0.5057 0.0
H982 H 0.47568 0.11765 0.50323 0.0
C983 C 0.4734 0.13771 0.64933 0.0
C984 C 0.45425 0.14029 0.64107 0.0
C985 C 0.48633 0.1366 0.61646 0.0
C986 C 0.48883 0.12521 0.50429 0.0
H987 H 0.57822 0.13092 0.41476 0.0
H988 H 0.5565 0.13128 0.47255 0.0
H989 H 0.49697 0.11517 0.44419 0.0
H990 H 0.43382 0.14432 0.59177 0.0
H991 H 0.45618 0.14241 0.53522 0.0
H992 H 0.51493 0.15395 0.56608 0.0
C993 C 0.55086 0.13139 0.44128 0.0
C994 C 0.50102 0.12385 0.47032 0.0
C995 C 0.56336 0.13105 0.40796 0.0
C996 C 0.44843 0.14218 0.59944 0.0
C997 C 0.46124 0.14096 0.56683 0.0
C998 C 0.51094 0.14532 0.5398 0.0
C999 C 0.53145 0.13188 0.4344 0.0
C1000 C 0.5183 0.13331 0.47047 0.0
C1001 C 0.4803 0.13791 0.57479 0.0
C1002 C 0.49363 0.13599 0.53941 0.0
H1003 H 0.53206 0.13065 0.32795 0.0
H1004 H 0.51002 0.13173 0.38639 0.0
H1005 H 0.53607 0.1519 0.50676 0.0
H1006 H 0.47833 0.13612 0.681 0.0
H1007 H 0.50095 0.13422 0.62358 0.0
C1008 C 0.63732 0.47131 0.89582 0.0
C1009 C 0.63029 0.45315 0.88962 0.0
C1010 C 0.63892 0.48375 0.86219 0.0
C1011 C 0.64024 0.48386 0.74606 0.0
H1012 H 0.63194 0.53717 0.75891 0.0
C1013 C 0.6346 0.53534 0.60673 0.0
C1014 C 0.64519 0.55187 0.61036 0.0
C1015 C 0.63268 0.52322 0.64078 0.0
C1016 C 0.63437 0.5223 0.75495 0.0
H1017 H 0.6186 0.43407 0.84389 0.0
H1018 H 0.62071 0.45575 0.78616 0.0
H1019 H 0.62861 0.51653 0.81903 0.0
H1020 H 0.66207 0.5686 0.65265 0.0
H1021 H 0.65855 0.54761 0.71172 0.0
H1022 H 0.64563 0.48968 0.68175 0.0
C1023 C 0.6257 0.46031 0.81633 0.0
C1024 C 0.63257 0.51048 0.78944 0.0
C1025 C 0.62436 0.44788 0.84961 0.0
C1026 C 0.65384 0.55597 0.64864 0.0
C1027 C 0.65173 0.54402 0.68267 0.0
C1028 C 0.64181 0.49565 0.71153 0.0
C1029 C 0.6333 0.4783 0.82188 0.0
C1030 C 0.63546 0.49108 0.78546 0.0
C1031 C 0.6411 0.52756 0.67918 0.0
C1032 C 0.63893 0.51499 0.71563 0.0
H1033 H 0.64204 0.47572 0.92633 0.0
H1034 H 0.64498 0.49744 0.86765 0.0
H1035 H 0.64301 0.46908 0.74185 0.0
H1036 H 0.62774 0.53179 0.57771 0.0
H1037 H 0.62435 0.51063 0.63731 0.0
C1038 C 0.53102 0.13065 0.14639 0.0
C1039 C 0.55015 0.13369 0.13874 0.0
C1040 C 0.51824 0.12989 0.11323 0.0
C1041 C 0.51686 0.12133 0.99908 0.0
H1042 H 0.46668 0.14148 0.00729 0.0
C1043 C 0.4658 0.12724 0.85799 0.0
C1044 C 0.44677 0.12377 0.86609 0.0
C1045 C 0.47882 0.12766 0.89076 0.0
C1046 C 0.48059 0.13559 1.00461 0.0
H1047 H 0.5707 0.13932 0.09062 0.0
H1048 H 0.54853 0.13845 0.03339 0.0
H1049 H 0.48808 0.14462 0.06596 0.0
H1050 H 0.42672 0.1168 0.91442 0.0
H1051 H 0.44929 0.11725 0.9709 0.0
H1052 H 0.50935 0.11239 0.9376 0.0
C1053 C 0.54337 0.13609 0.06464 0.0
C1054 C 0.49286 0.13739 0.03833 0.0
C1055 C 0.55608 0.13674 0.09759 0.0
C1056 C 0.44124 0.11978 0.90713 0.0
C1057 C 0.45416 0.12017 0.93965 0.0
C1058 C 0.50459 0.11957 0.96531 0.0
C1059 C 0.52435 0.13224 0.07182 0.0
C1060 C 0.51117 0.13029 0.03604 0.0
C1061 C 0.47302 0.1246 0.93213 0.0
C1062 C 0.48628 0.12662 0.9677 0.0
H1063 H 0.52605 0.12813 0.17774 0.0
H1064 H 0.5037 0.12681 0.11993 0.0
H1065 H 0.53074 0.1154 0.9964 0.0
H1066 H 0.47049 0.13043 0.82674 0.0
H1067 H 0.49325 0.13113 0.88389 0.0
C1068 C 0.85761 0.02999 0.39125 0.0
C1069 C 0.86632 0.04748 0.38552 0.0
C1070 C 0.85535 0.01766 0.35758 0.0
C1071 C 0.87482 0.00689 0.25368 0.0
H1072 H 0.82777 0.98109 0.23528 0.0
C1073 C 0.86128 0.96327 0.10442 0.0
C1074 C 0.85145 0.94633 0.10932 0.0
C1075 C 0.86259 0.97605 0.13747 0.0
C1076 C 0.84109 0.988 0.24016 0.0
H1077 H 0.87941 0.06568 0.33982 0.0
H1078 H 0.87551 0.0443 0.28173 0.0
H1079 H 0.83124 0.00173 0.29529 0.0
H1080 H 0.83516 0.92972 0.15289 0.0
H1081 H 0.83776 0.95163 0.21012 0.0
H1082 H 0.88483 0.99302 0.19904 0.0
C1083 C 0.87053 0.04001 0.31211 0.0
C1084 C 0.84306 -0.00016 0.27463 0.0
C1085 C 0.87265 0.05233 0.3455 0.0
C1086 C 0.8428 0.94263 0.14778 0.0
C1087 C 0.84418 0.95531 0.18071 0.0
C1088 C 0.87291 0.99496 0.21939 0.0
C1089 C 0.86193 0.0225 0.31767 0.0
C1090 C 0.85993 0.00946 0.28175 0.0
C1091 C 0.85415 0.97217 0.17619 0.0
C1092 C 0.85602 0.98534 0.2121 0.0
H1093 H 0.85257 0.02584 0.42166 0.0
H1094 H 0.84874 0.00421 0.36291 0.0
H1095 H 0.88809 0.01391 0.25856 0.0
H1096 H 0.86803 0.96662 0.0752 0.0
H1097 H 0.87017 0.98901 0.13259 0.0
C1098 C 0.0321 0.36538 0.34844 0.0
C1099 C 0.05023 0.35831 0.3548 0.0
C1100 C 0.01908 0.36559 0.38118 0.0
C1101 C 0.01014 0.34393 0.48509 0.0
H1102 H 0.976 0.38553 0.49941 0.0
C1103 C 0.96535 0.35424 0.63421 0.0
C1104 C 0.94654 0.3592 0.62777 0.0
C1105 C 0.978 0.35407 0.6008 0.0
C1106 C 0.98537 0.37375 0.49566 0.0
H1107 H 0.06898 0.34639 0.40095 0.0
H1108 H 0.0467 0.3472 0.45748 0.0
H1109 H -0.0024 0.38541 0.44057 0.0
H1110 H 0.92631 0.36787 0.58116 0.0
H1111 H 0.94826 0.36761 0.52346 0.0
H1112 H -0.00194 0.33243 0.54053 0.0
C1113 C 0.04221 0.35208 0.42719 0.0
C1114 C -0.0023 0.37363 0.4618 0.0
C1115 C 0.05509 0.35175 0.39463 0.0
C1116 C 0.94069 0.36397 0.58734 0.0
C1117 C 0.95331 0.36396 0.55419 0.0
C1118 C -0.00208 0.34413 0.51908 0.0
C1119 C 0.02397 0.35882 0.42096 0.0
C1120 C 0.01031 0.35875 0.45612 0.0
C1121 C 0.97211 0.35905 0.56046 0.0
C1122 C 0.9854 0.35903 0.52479 0.0
H1123 H 0.02791 0.37053 0.31815 0.0
H1124 H 0.0051 0.37077 0.37513 0.0
H1125 H 0.01935 0.33203 0.48135 0.0
H1126 H 0.9703 0.3505 0.66496 0.0
H1127 H 0.99245 0.35032 0.60665 0.0
C1128 C 0.36279 0.53183 0.09416 0.0
C1129 C 0.35625 0.55003 0.10221 0.0
C1130 C 0.36358 0.5185 0.12624 0.0
C1131 C 0.36583 0.51463 0.24066 0.0
H1132 H 0.34549 0.4648 0.22465 0.0
C1133 C 0.35584 0.46393 0.37894 0.0
C1134 C 0.36018 0.445 0.37212 0.0
C1135 C 0.35487 0.47647 0.34547 0.0
C1136 C 0.35145 0.47857 0.22957 0.0
H1137 H 0.34557 0.56849 0.15042 0.0
H1138 H 0.34707 0.54547 0.20571 0.0
H1139 H 0.34603 0.48681 0.16651 0.0
H1140 H 0.36658 0.42436 0.32465 0.0
H1141 H 0.36528 0.44615 0.26684 0.0
H1142 H 0.3715 0.50647 0.30341 0.0
C1143 C 0.35165 0.54144 0.17485 0.0
C1144 C 0.35176 0.49117 0.19619 0.0
C1145 C 0.35068 0.55462 0.14294 0.0
C1146 C 0.36313 0.43883 0.33109 0.0
C1147 C 0.36228 0.45135 0.29777 0.0
C1148 C 0.36566 0.50202 0.27392 0.0
C1149 C 0.35808 0.52324 0.16698 0.0
C1150 C 0.35881 0.50939 0.20148 0.0
C1151 C 0.35832 0.47039 0.30447 0.0
C1152 C 0.35835 0.48385 0.26896 0.0
H1153 H 0.36718 0.52786 0.06314 0.0
H1154 H 0.36869 0.50457 0.11933 0.0
H1155 H 0.37159 0.5285 0.24557 0.0
H1156 H 0.35342 0.46912 0.41014 0.0
H1157 H 0.35145 0.49097 0.35179 0.0
C1158 C 0.4299 0.85322 0.4032 0.0
C1159 C 0.43526 0.85955 0.36349 0.0
C1160 C 0.44222 0.85428 0.4368 0.0
C1161 C 0.48578 0.87775 0.47285 0.0
H1162 H 0.48476 0.83853 0.55639 0.0
C1163 C 0.54242 0.86982 0.59958 0.0
C1164 C 0.53653 0.86611 0.64053 0.0
C1165 C 0.52968 0.86964 0.56668 0.0
C1166 C 0.48504 0.84969 0.53358 0.0
H1167 H 0.45794 0.87185 0.328 0.0
H1168 H 0.4798 0.8732 0.38661 0.0
H1169 H 0.4642 0.8364 0.49606 0.0
H1170 H 0.51257 0.85937 0.67905 0.0
H1171 H 0.49017 0.85874 0.62101 0.0
H1172 H 0.50706 0.89072 0.51011 0.0
C1173 C 0.46584 0.86776 0.3919 0.0
C1174 C 0.47325 0.84851 0.49892 0.0
C1175 C 0.45337 0.86687 0.35817 0.0
C1176 C 0.51751 0.86227 0.64785 0.0
C1177 C 0.50474 0.86184 0.61466 0.0
C1178 C 0.49772 0.87882 0.50731 0.0
C1179 C 0.46039 0.8615 0.43173 0.0
C1180 C 0.47339 0.86256 0.46809 0.0
C1181 C 0.51072 0.86555 0.57372 0.0
C1182 C 0.49747 0.86481 0.53806 0.0
H1183 H 0.416 0.84766 0.40869 0.0
H1184 H 0.4373 0.84971 0.467 0.0
H1185 H 0.48609 0.88901 0.45029 0.0
H1186 H 0.55696 0.8729 0.59278 0.0
H1187 H 0.53476 0.87234 0.5355 0.0
C1188 C 0.14863 0.94037 0.64146 0.0
C1189 C 0.13888 0.94396 0.60428 0.0
C1190 C 0.14736 0.95259 0.67525 0.0
C1191 C 0.11825 0.99097 0.71894 0.0
H1192 H 0.16189 -0.00069 0.78851 0.0
C1193 C 0.12201 0.0501 0.84062 0.0
C1194 C 0.12953 0.04597 0.88003 0.0
C1195 C 0.12296 0.03713 0.80823 0.0
C1196 C 0.14953 0.99695 0.76968 0.0
H1197 H 0.12022 0.96343 0.57347 0.0
H1198 H 0.11834 0.98512 0.63221 0.0
H1199 H 0.16413 0.97855 0.72848 0.0
H1200 H 0.14404 0.0249 0.91619 0.0
H1201 H 0.14594 0.00214 0.85896 0.0
H1202 H 0.10382 0.00977 0.75976 0.0
C1203 C 0.12671 0.97258 0.63551 0.0
C1204 C 0.15078 0.98503 0.7352 0.0
C1205 C 0.12787 0.96021 0.60167 0.0
C1206 C 0.13811 0.02849 0.88622 0.0
C1207 C 0.13926 0.01552 0.85344 0.0
C1208 C 0.11707 0.00302 0.75319 0.0
C1209 C 0.13643 0.96891 0.67284 0.0
C1210 C 0.13515 0.98186 0.7093 0.0
C1211 C 0.1316 0.0197 0.81412 0.0
C1212 C 0.1327 0.00618 0.77892 0.0
H1213 H 0.15714 0.92793 0.64484 0.0
H1214 H 0.15475 0.94903 0.70358 0.0
H1215 H 0.10582 0.98864 0.70035 0.0
H1216 H 0.11526 0.0634 0.83467 0.0
H1217 H 0.11715 0.0409 0.77824 0.0
C1218 C 0.96678 0.64439 0.12285 0.0
C1219 C 0.94881 0.6368 0.11699 0.0
C1220 C 0.97927 0.64587 0.08923 0.0
C1221 C 0.98029 0.64446 0.97266 0.0
H1222 H 0.03335 0.6357 0.98842 0.0
C1223 C 0.03178 0.63105 0.83625 0.0
C1224 C 0.04872 0.64109 0.83739 0.0
C1225 C 0.0196 0.6313 0.87044 0.0
C1226 C 0.01857 0.6383 0.98362 0.0
H1227 H 0.93004 0.62442 0.07147 0.0
H1228 H 0.95174 0.6264 0.01394 0.0
H1229 H 0.01237 0.63493 0.04837 0.0
H1230 H 0.06612 0.65924 0.87552 0.0
H1231 H 0.04501 0.65942 0.93504 0.0
H1232 H 0.98651 0.64727 0.90771 0.0
C1233 C 0.95615 0.63184 0.04382 0.0
C1234 C 0.00653 0.63797 0.01802 0.0
C1235 C 0.94369 0.63058 0.07708 0.0
C1236 C 0.05317 0.65138 0.87344 0.0
C1237 C 0.04114 0.6514 0.90774 0.0
C1238 C 0.99228 0.64453 0.93827 0.0
C1239 C 0.97408 0.63962 0.04918 0.0
C1240 C 0.98718 0.64091 0.013 0.0
C1241 C 0.02424 0.64136 0.90667 0.0
C1242 C 0.01154 0.64138 0.94332 0.0
H1243 H 0.97111 0.64934 0.15322 0.0
H1244 H 0.99288 0.65212 0.09456 0.0
H1245 H 0.96558 0.64725 0.9675 0.0
H1246 H 0.02793 0.62299 0.809 0.0
H1247 H 0.00669 0.62333 0.86883 0.0
C1248 C 0.0695 0.29072 0.17159 0.0
C1249 C 0.07665 0.29219 0.21219 0.0
C1250 C 0.06727 0.27314 0.15297 0.0
C1251 C 0.08066 0.23706 0.11314 0.0
H1252 H 0.0684 0.19173 0.17389 0.0
C1253 C 0.1106 0.16582 0.06718 0.0
C1254 C 0.09909 0.14988 0.06945 0.0
C1255 C 0.10443 0.183 0.08251 0.0
C1256 C 0.07161 0.20425 0.15625 0.0
H1257 H 0.08551 0.27644 0.2663 0.0
H1258 H 0.08202 0.24591 0.23381 0.0
H1259 H 0.06169 0.22222 0.20478 0.0
H1260 H 0.07203 0.13948 0.08973 0.0
H1261 H 0.06129 0.1696 0.11697 0.0
H1262 H 0.0908 0.21914 0.06489 0.0
C1263 C 0.07806 0.25822 0.21621 0.0
C1264 C 0.06791 0.22172 0.17407 0.0
C1265 C 0.0803 0.27574 0.23471 0.0
C1266 C 0.08132 0.15147 0.08795 0.0
C1267 C 0.07514 0.16871 0.1034 0.0
C1268 C 0.08434 0.21962 0.09535 0.0
C1269 C 0.07207 0.25672 0.1747 0.0
C1270 C 0.07289 0.23832 0.15321 0.0
C1271 C 0.0866 0.18468 0.10056 0.0
C1272 C 0.08038 0.20304 0.11722 0.0
H1273 H 0.06658 0.30315 0.15345 0.0
H1274 H 0.06239 0.27243 0.12111 0.0
H1275 H 0.08482 0.24953 0.09631 0.0
H1276 H 0.1245 0.165 0.05386 0.0
H1277 H 0.11379 0.19493 0.08078 0.0
C1278 C 0.84395 0.5855 0.32428 0.0
C1279 C 0.84608 0.60266 0.30333 0.0
C1280 C 0.82626 0.5797 0.33814 0.0
C1281 C 0.77568 0.58911 0.3213 0.0
H1282 H 0.7693 0.56923 0.43266 0.0
C1283 C 0.70989 0.59941 0.41842 0.0
C1284 C 0.70268 0.58438 0.4414 0.0
C1285 C 0.72653 0.59748 0.3963 0.0
C1286 C 0.77091 0.57438 0.40117 0.0
H1287 H 0.83157 0.62753 0.2821 0.0
H1288 H 0.80097 0.61763 0.30658 0.0
H1289 H 0.80086 0.57407 0.40507 0.0
H1290 H 0.7067 0.55548 0.4591 0.0
H1291 H 0.7365 0.55211 0.42095 0.0
H1292 H 0.74577 0.59043 0.31837 0.0
C1293 C 0.81274 0.60832 0.31124 0.0
C1294 C 0.78896 0.57718 0.38537 0.0
C1295 C 0.83031 0.61405 0.29737 0.0
C1296 C 0.71208 0.56715 0.44118 0.0
C1297 C 0.72905 0.56529 0.41967 0.0
C1298 C 0.75771 0.58647 0.3372 0.0
C1299 C 0.81043 0.59099 0.33133 0.0
C1300 C 0.79152 0.58521 0.34581 0.0
C1301 C 0.73647 0.58054 0.39738 0.0
C1302 C 0.75517 0.57965 0.37774 0.0
H1303 H 0.85585 0.57637 0.32905 0.0
H1304 H 0.82493 0.56626 0.35348 0.0
H1305 H 0.77717 0.59484 0.29027 0.0
H1306 H 0.70279 0.6128 0.4184 0.0
H1307 H 0.73204 0.60951 0.3798 0.0
C1308 C 0.41382 0.34033 0.56788 0.0
C1309 C 0.40005 0.35239 0.58384 0.0
C1310 C 0.41735 0.32312 0.58693 0.0
C1311 C 0.41 0.29639 0.68418 0.0
H1312 H 0.41523 0.25321 0.61188 0.0
C1313 C 0.4279 0.22335 0.74798 0.0
C1314 C 0.41804 0.20802 0.73134 0.0
C1315 C 0.4266 0.241 0.72973 0.0
C1316 C 0.41368 0.26512 0.63246 0.0
H1317 H 0.37945 0.35604 0.63269 0.0
H1318 H 0.38558 0.32602 0.66592 0.0
H1319 H 0.41158 0.28429 0.58157 0.0
H1320 H 0.39914 0.19922 0.68232 0.0
H1321 H 0.39676 0.23017 0.65039 0.0
H1322 H 0.41155 0.27717 0.73505 0.0
C1323 C 0.39383 0.32994 0.63901 0.0
C1324 C 0.41184 0.28295 0.61513 0.0
C1325 C 0.39032 0.34716 0.62001 0.0
C1326 C 0.40704 0.21071 0.69562 0.0
C1327 C 0.4057 0.22842 0.67734 0.0
C1328 C 0.41183 0.27856 0.70151 0.0
C1329 C 0.40717 0.31761 0.6223 0.0
C1330 C 0.4099 0.29878 0.6408 0.0
C1331 C 0.41538 0.24379 0.69439 0.0
C1332 C 0.41363 0.26272 0.67584 0.0
H1333 H 0.42172 0.34411 0.54038 0.0
H1334 H 0.42796 0.31407 0.57379 0.0
H1335 H 0.40869 0.30831 0.70479 0.0
H1336 H 0.43683 0.22168 0.77492 0.0
H1337 H 0.43453 0.25246 0.74312 0.0
C1338 C 0.65086 0.90077 0.83582 0.0
C1339 C 0.64512 0.88233 0.82714 0.0
C1340 C 0.66904 0.90443 0.84989 0.0
C1341 C 0.71634 0.88322 0.8534 0.0
H1342 H 0.72548 0.91923 0.94149 0.0
C1343 C 0.78347 0.8833 0.95054 0.0
C1344 C 0.79209 0.90048 0.95993 0.0
C1345 C 0.76609 0.88277 0.9309 0.0
C1346 C 0.72316 0.90935 0.91643 0.0
H1347 H 0.65372 0.85325 0.82758 0.0
H1348 H 0.68529 0.85955 0.85266 0.0
H1349 H 0.6937 0.91487 0.91483 0.0
H1350 H 0.78939 0.93061 0.95578 0.0
H1351 H 0.75862 0.92973 0.92147 0.0
H1352 H 0.74568 0.87732 0.85584 0.0
C1353 C 0.67594 0.87126 0.84765 0.0
C1354 C 0.70497 0.90683 0.90116 0.0
C1355 C 0.65783 0.86762 0.83343 0.0
C1356 C 0.78304 0.9172 0.94875 0.0
C1357 C 0.76545 0.91668 0.92943 0.0
C1358 C 0.73445 0.88566 0.86879 0.0
C1359 C 0.68185 0.88972 0.85568 0.0
C1360 C 0.7013 0.89347 0.87001 0.0
C1361 C 0.75682 0.89943 0.92035 0.0
C1362 C 0.73799 0.89849 0.90099 0.0
H1363 H 0.64146 0.91243 0.83072 0.0
H1364 H 0.67319 0.91882 0.85537 0.0
H1365 H 0.7141 0.87316 0.82867 0.0
H1366 H 0.79022 0.87019 0.95824 0.0
H1367 H 0.75972 0.86927 0.92469 0.0
C1368 C 0.93254 0.2847 0.68122 0.0
C1369 C 0.92254 0.28683 0.71853 0.0
C1370 C 0.9366 0.26679 0.66597 0.0
C1371 C 0.93535 0.21588 0.69354 0.0
H1372 H 0.92055 0.20988 0.57826 0.0
C1373 C 0.90399 0.14794 0.62678 0.0
C1374 C 0.90825 0.14291 0.5856 0.0
C1375 C 0.9109 0.16462 0.64365 0.0
C1376 C 0.9251 0.2113 0.61026 0.0
H1377 H 0.91046 0.27204 0.77092 0.0
H1378 H 0.91707 0.24099 0.74418 0.0
H1379 H 0.92431 0.24115 0.60688 0.0
H1380 H 0.9242 0.15081 0.53085 0.0
H1381 H 0.93603 0.18003 0.56018 0.0
H1382 H 0.93514 0.18591 0.69726 0.0
C1383 C 0.92191 0.25299 0.72656 0.0
C1384 C 0.92733 0.22926 0.62668 0.0
C1385 C 0.91787 0.27081 0.74168 0.0
C1386 C 0.92028 0.1545 0.56235 0.0
C1387 C 0.92713 0.1712 0.57916 0.0
C1388 C 0.93301 0.19789 0.67715 0.0
C1389 C 0.93079 0.25072 0.68789 0.0
C1390 C 0.93193 0.23178 0.66884 0.0
C1391 C 0.92219 0.17663 0.61968 0.0
C1392 C 0.92736 0.19544 0.63565 0.0
H1393 H 0.93632 0.29681 0.66275 0.0
H1394 H 0.9437 0.26552 0.63634 0.0
H1395 H 0.93924 0.21733 0.72595 0.0
H1396 H 0.89465 0.1394 0.6454 0.0
H1397 H 0.90665 0.16853 0.67481 0.0
C1398 C 0.82865 0.3893 0.80089 0.0
C1399 C 0.84358 0.38228 0.82485 0.0
C1400 C 0.81115 0.39245 0.81887 0.0
C1401 C 0.78797 0.40287 0.91647 0.0
H1402 H 0.74387 0.38085 0.86557 0.0
C1403 C 0.71639 0.40774 0.99632 0.0
C1404 C 0.7006 0.4106 0.97121 0.0
C1405 C 0.73358 0.40312 0.97857 0.0
C1406 C 0.75598 0.38733 0.87989 0.0
H1407 H 0.85171 0.37334 0.88687 0.0
H1408 H 0.82129 0.37957 0.91845 0.0
H1409 H 0.77457 0.37595 0.83408 0.0
H1410 H 0.69016 0.41072 0.90807 0.0
H1411 H 0.72037 0.40329 0.87649 0.0
H1412 H 0.76957 0.41485 0.96139 0.0
C1413 C 0.82323 0.38244 0.88563 0.0
C1414 C 0.77355 0.38444 0.86192 0.0
C1415 C 0.84067 0.379 0.86754 0.0
C1416 C 0.70214 0.40835 0.92801 0.0
C1417 C 0.71945 0.40407 0.91006 0.0
C1418 C 0.7704 0.40602 0.93407 0.0
C1419 C 0.80828 0.38898 0.86133 0.0
C1420 C 0.78968 0.39213 0.88018 0.0
C1421 C 0.73546 0.40164 0.93512 0.0
C1422 C 0.75416 0.39821 0.91617 0.0
H1423 H 0.83044 0.39245 0.76819 0.0
H1424 H 0.79989 0.39778 0.79965 0.0
H1425 H 0.80021 0.40912 0.93081 0.0
H1426 H 0.7154 0.4092 0.02978 0.0
H1427 H 0.74541 0.40084 0.99899 0.0
C1428 C 0.57654 0.20732 0.19862 0.0
C1429 C 0.5932 0.19947 0.21391 0.0
C1430 C 0.57687 0.22461 0.178 0.0
C1431 C 0.60834 0.25591 0.12018 0.0
H1432 H 0.57675 0.29645 0.15882 0.0
C1433 C 0.626 0.33234 0.08385 0.0
C1434 C 0.61135 0.34472 0.07444 0.0
C1435 C 0.62216 0.31432 0.09826 0.0
C1436 C 0.58546 0.28521 0.14716 0.0
H1437 H 0.62327 0.20313 0.21835 0.0
H1438 H 0.62387 0.23308 0.18245 0.0
H1439 H 0.57241 0.26492 0.18703 0.0
H1440 H 0.58118 0.34795 0.07274 0.0
H1441 H 0.57444 0.31632 0.09771 0.0
H1442 H 0.62151 0.27603 0.08062 0.0
C1443 C 0.61056 0.22602 0.18649 0.0
C1444 C 0.58295 0.26718 0.16331 0.0
C1445 C 0.61019 0.20897 0.20746 0.0
C1446 C 0.59276 0.33877 0.08023 0.0
C1447 C 0.58891 0.32066 0.09448 0.0
C1448 C 0.61076 0.27385 0.10388 0.0
C1449 C 0.59393 0.23406 0.1717 0.0
C1450 C 0.59469 0.25249 0.15069 0.0
C1451 C 0.60358 0.30818 0.10334 0.0
C1452 C 0.59969 0.28882 0.11795 0.0
H1453 H 0.56329 0.20024 0.20331 0.0
H1454 H 0.56387 0.23054 0.16677 0.0
H1455 H 0.61739 0.24475 0.10947 0.0
H1456 H 0.64046 0.33664 0.08028 0.0
H1457 H 0.63381 0.30523 0.10575 0.0
C1458 C 0.66036 0.0817 0.32981 0.0
C1459 C 0.65655 0.0998 0.31487 0.0
C1460 C 0.6783 0.07714 0.34419 0.0
C1461 C 0.72744 0.09345 0.33778 0.0
H1462 H 0.73415 0.06767 0.44294 0.0
C1463 C 0.79166 0.1038 0.4398 0.0
C1464 C 0.8006 0.088 0.45641 0.0
C1465 C 0.77467 0.102 0.41897 0.0
C1466 C 0.73247 0.07457 0.41316 0.0
H1467 H 0.66823 0.1275 0.30493 0.0
H1468 H 0.69926 0.11967 0.3301 0.0
H1469 H 0.70272 0.07052 0.41305 0.0
H1470 H 0.79884 0.05795 0.46458 0.0
H1471 H 0.76858 0.05481 0.42853 0.0
H1472 H 0.75699 0.09831 0.33889 0.0
C1473 C 0.68866 0.1088 0.32967 0.0
C1474 C 0.71452 0.0762 0.39605 0.0
C1475 C 0.67085 0.11331 0.31535 0.0
C1476 C 0.7922 0.0703 0.45184 0.0
C1477 C 0.77495 0.06853 0.43148 0.0
C1478 C 0.74527 0.09194 0.35498 0.0
C1479 C 0.69267 0.09063 0.34383 0.0
C1480 C 0.71178 0.08622 0.35889 0.0
C1481 C 0.76614 0.08439 0.41468 0.0
C1482 C 0.74785 0.08302 0.39342 0.0
H1483 H 0.64961 0.07098 0.32958 0.0
H1484 H 0.68101 0.06302 0.35491 0.0
H1485 H 0.72583 0.10083 0.30856 0.0
H1486 H 0.79795 0.11755 0.44247 0.0
H1487 H 0.76805 0.11447 0.40667 0.0
C1488 C 0.56515 0.77803 0.73272 0.0
C1489 C 0.57694 0.79384 0.73352 0.0
C1490 C 0.57181 0.76077 0.71908 0.0
C1491 C 0.60628 0.73972 0.65109 0.0
H1492 H 0.59491 0.69426 0.71224 0.0
C1493 C 0.63016 0.66744 0.59255 0.0
C1494 C 0.61708 0.6528 0.59586 0.0
C1495 C 0.62704 0.68446 0.61266 0.0
C1496 C 0.59806 0.7068 0.69461 0.0
H1497 H 0.60521 0.80361 0.72109 0.0
H1498 H 0.61666 0.77346 0.69608 0.0
H1499 H 0.58618 0.72458 0.74127 0.0
H1500 H 0.59057 0.64437 0.62272 0.0
H1501 H 0.58484 0.67423 0.65711 0.0
H1502 H 0.61749 0.72204 0.60367 0.0
C1503 C 0.60223 0.7746 0.70617 0.0
C1504 C 0.59313 0.72413 0.71134 0.0
C1505 C 0.59562 0.79188 0.7203 0.0
C1506 C 0.60096 0.65538 0.62007 0.0
C1507 C 0.59774 0.67246 0.63987 0.0
C1508 C 0.61104 0.72238 0.63414 0.0
C1509 C 0.59037 0.75891 0.70552 0.0
C1510 C 0.597 0.74072 0.68948 0.0
C1511 C 0.61068 0.68725 0.63616 0.0
C1512 C 0.60677 0.7057 0.65548 0.0
H1513 H 0.55062 0.77893 0.74186 0.0
H1514 H 0.5623 0.74894 0.71822 0.0
H1515 H 0.60922 0.75231 0.63343 0.0
H1516 H 0.64284 0.66568 0.57448 0.0
H1517 H 0.63744 0.69543 0.60977 0.0
C1518 C 0.33017 0.12778 0.82317 0.0
C1519 C 0.34229 0.11393 0.80782 0.0
C1520 C 0.31182 0.1233 0.83439 0.0
C1521 C 0.28179 0.08435 0.86758 0.0
H1522 H 0.242 0.11918 0.84066 0.0
C1523 C 0.20503 0.07429 0.92432 0.0
C1524 C 0.19765 0.09039 0.9433 0.0
C1525 C 0.22172 0.07536 0.90142 0.0
C1526 C 0.25296 0.1093 0.84838 0.0
H1527 H 0.34449 0.08447 0.79191 0.0
H1528 H 0.31246 0.07662 0.81215 0.0
H1529 H 0.27339 0.12452 0.81336 0.0
H1530 H 0.20132 0.12031 0.95142 0.0
H1531 H 0.23023 0.12217 0.91206 0.0
H1532 H 0.26139 0.06944 0.90368 0.0
C1533 C 0.31726 0.09093 0.81565 0.0
C1534 C 0.27093 0.11239 0.83285 0.0
C1535 C 0.33562 0.09543 0.80422 0.0
C1536 C 0.20684 0.10761 0.93776 0.0
C1537 C 0.22329 0.10871 0.91471 0.0
C1538 C 0.26376 0.08126 0.88321 0.0
C1539 C 0.30514 0.10484 0.83066 0.0
C1540 C 0.28567 0.10025 0.84322 0.0
C1541 C 0.23105 0.09261 0.89661 0.0
C1542 C 0.24929 0.09402 0.87473 0.0
H1543 H 0.33492 0.14209 0.82705 0.0
H1544 H 0.30295 0.13427 0.84667 0.0
H1545 H 0.29288 0.07478 0.87622 0.0
H1546 H 0.19818 0.06087 0.92819 0.0
H1547 H 0.22736 0.06273 0.88765 0.0
C1548 C 0.89661 0.84568 0.12414 0.0
C1549 C 0.90059 0.85058 0.08276 0.0
C1550 C 0.90347 0.82898 0.1409 0.0
C1551 C 0.9179 0.78225 0.10678 0.0
H1552 H 0.93149 0.77596 0.22272 0.0
C1553 C 0.92899 0.70884 0.17528 0.0
C1554 C 0.91887 0.70566 0.21209 0.0
C1555 C 0.93188 0.72711 0.16086 0.0
C1556 C 0.92775 0.7775 0.19024 0.0
H1557 H 0.91597 0.84251 0.02743 0.0
H1558 H 0.92795 0.81338 0.05668 0.0
H1559 H 0.92688 0.80743 0.19471 0.0
H1560 H 0.90524 0.71909 0.26435 0.0
H1561 H 0.90993 0.75081 0.23901 0.0
H1562 H 0.91802 0.75239 0.10254 0.0
C1563 C 0.91921 0.82224 0.0759 0.0
C1564 C 0.92509 0.79551 0.17424 0.0
C1565 C 0.91232 0.8389 0.05915 0.0
C1566 C 0.91279 0.72111 0.2355 0.0
C1567 C 0.9157 0.73932 0.2212 0.0
C1568 C 0.92053 0.76427 0.12276 0.0
C1569 C 0.9145 0.81687 0.11664 0.0
C1570 C 0.9197 0.79805 0.13257 0.0
C1571 C 0.9248 0.74253 0.18311 0.0
C1572 C 0.92503 0.76166 0.16493 0.0
H1573 H 0.88751 0.85433 0.143 0.0
H1574 H 0.89939 0.82515 0.17222 0.0
H1575 H 0.9135 0.78367 0.07469 0.0
H1576 H 0.93383 0.69722 0.15656 0.0
H1577 H 0.93916 0.72915 0.13164 0.0
C1578 C 0.28808 0.38626 0.44883 0.0
C1579 C 0.29744 0.40285 0.45974 0.0
C1580 C 0.26959 0.38667 0.43535 0.0
C1581 C 0.23305 0.41672 0.39071 0.0
H1582 H 0.20111 0.37612 0.42851 0.0
C1583 C 0.15461 0.40678 0.34288 0.0
C1584 C 0.15088 0.38883 0.32686 0.0
C1585 C 0.17176 0.4106 0.36229 0.0
C1586 C 0.20985 0.38756 0.41781 0.0
H1587 H 0.29491 0.43301 0.46398 0.0
H1588 H 0.26219 0.43378 0.4404 0.0
H1589 H 0.23255 0.37936 0.45691 0.0
H1590 H 0.16185 0.36078 0.31909 0.0
H1591 H 0.1916 0.36735 0.35347 0.0
H1592 H 0.21013 0.42474 0.35127 0.0
C1593 C 0.26933 0.42044 0.44226 0.0
C1594 C 0.22787 0.38939 0.43389 0.0
C1595 C 0.28801 0.42002 0.45568 0.0
C1596 C 0.16444 0.37475 0.33095 0.0
C1597 C 0.18137 0.37847 0.35084 0.0
C1598 C 0.21486 0.41497 0.37482 0.0
C1599 C 0.25985 0.4037 0.4326 0.0
C1600 C 0.23991 0.4036 0.41953 0.0
C1601 C 0.18521 0.39641 0.36666 0.0
C1602 C 0.20335 0.40003 0.38737 0.0
H1603 H 0.29512 0.37287 0.45053 0.0
H1604 H 0.26292 0.37358 0.42689 0.0
H1605 H 0.24199 0.42779 0.37898 0.0
H1606 H 0.14438 0.41788 0.33986 0.0
H1607 H 0.17442 0.42452 0.3743 0.0
C1608 C 0.413 0.78879 0.2097 0.0
C1609 C 0.39561 0.79748 0.21614 0.0
C1610 C 0.41393 0.77117 0.19051 0.0
C1611 C 0.38822 0.74106 0.11865 0.0
H1612 H 0.41129 0.69874 0.17411 0.0
C1613 C 0.36947 0.66623 0.07266 0.0
C1614 C 0.38355 0.65256 0.07171 0.0
C1615 C 0.37303 0.6839 0.08932 0.0
C1616 C 0.40507 0.71046 0.15783 0.0
H1617 H 0.36568 0.79492 0.2067 0.0
H1618 H 0.36729 0.76446 0.17281 0.0
H1619 H 0.41443 0.73019 0.20389 0.0
H1620 H 0.41234 0.64651 0.08814 0.0
H1621 H 0.4187 0.67765 0.117 0.0
H1622 H 0.37881 0.72163 0.07269 0.0
C1623 C 0.38018 0.7711 0.18286 0.0
C1624 C 0.40687 0.72843 0.17491 0.0
C1625 C 0.37924 0.78844 0.20257 0.0
C1626 C 0.4012 0.65679 0.08868 0.0
C1627 C 0.40483 0.6746 0.10518 0.0
C1628 C 0.38658 0.72322 0.1014 0.0
C1629 C 0.39749 0.76227 0.1767 0.0
C1630 C 0.39801 0.74377 0.15601 0.0
C1631 C 0.39082 0.68844 0.10517 0.0
C1632 C 0.39449 0.70761 0.12141 0.0
H1633 H 0.42579 0.79549 0.22006 0.0
H1634 H 0.42744 0.76462 0.18602 0.0
H1635 H 0.3815 0.75273 0.10316 0.0
H1636 H 0.35563 0.66324 0.06054 0.0
H1637 H 0.36174 0.694 0.0899 0.0
C1638 C 0.21779 0.91974 0.4908 0.0
C1639 C 0.20135 0.92433 0.46921 0.0
C1640 C 0.23523 0.92502 0.47525 0.0
C1641 C 0.25688 0.93171 0.37482 0.0
H1642 H 0.30123 0.9407 0.44159 0.0
C1643 C 0.3301 0.92055 0.30635 0.0
C1644 C 0.34184 0.90945 0.33128 0.0
C1645 C 0.31398 0.92863 0.32304 0.0
C1646 C 0.28897 0.93824 0.42249 0.0
H1647 H 0.19008 0.93918 0.41608 0.0
H1648 H 0.2207 0.94845 0.38861 0.0
H1649 H 0.27025 0.94479 0.47246 0.0
H1650 H 0.34631 0.89869 0.39352 0.0
H1651 H 0.31805 0.9125 0.42256 0.0
H1652 H 0.27543 0.92413 0.32561 0.0
C1653 C 0.22007 0.94067 0.41751 0.0
C1654 C 0.27126 0.94065 0.44011 0.0
C1655 C 0.20257 0.93548 0.43332 0.0
C1656 C 0.33758 0.90727 0.37364 0.0
C1657 C 0.32143 0.91528 0.3903 0.0
C1658 C 0.27456 0.92927 0.35725 0.0
C1659 C 0.23659 0.93493 0.4376 0.0
C1660 C 0.25504 0.93671 0.41689 0.0
C1661 C 0.30923 0.92573 0.36498 0.0
C1662 C 0.2908 0.93182 0.38135 0.0
H1663 H 0.21718 0.91139 0.51887 0.0
H1664 H 0.24766 0.92023 0.49133 0.0
H1665 H 0.24468 0.92833 0.35622 0.0
H1666 H 0.33325 0.92279 0.27376 0.0
H1667 H 0.30502 0.93684 0.30289 0.0
C1668 C 0.09243 0.83799 0.59953 0.0
C1669 C 0.10841 0.84091 0.57479 0.0
C1670 C 0.08811 0.82005 0.61439 0.0
C1671 C 0.09799 0.77025 0.5919 0.0
H1672 H 0.08253 0.76118 0.7058 0.0
C1673 C 0.10836 0.69993 0.67203 0.0
C1674 C 0.09358 0.69227 0.69525 0.0
C1675 C 0.10718 0.71805 0.65629 0.0
C1676 C 0.08653 0.76356 0.67372 0.0
H1677 H 0.13287 0.8276 0.54811 0.0
H1678 H 0.12549 0.79652 0.57419 0.0
H1679 H 0.08643 0.79343 0.68103 0.0
H1680 H 0.06595 0.69747 0.7203 0.0
H1681 H 0.06396 0.72966 0.6931 0.0
H1682 H 0.09879 0.74047 0.58498 0.0
C1683 C 0.11598 0.80788 0.58118 0.0
C1684 C 0.08877 0.78198 0.65955 0.0
C1685 C 0.12025 0.82571 0.56634 0.0
C1686 C 0.07748 0.70309 0.70233 0.0
C1687 C 0.0764 0.72145 0.68703 0.0
C1688 C 0.09586 0.75193 0.60608 0.0
C1689 C 0.0997 0.80475 0.60476 0.0
C1690 C 0.09507 0.78548 0.61881 0.0
C1691 C 0.09124 0.72902 0.66371 0.0
C1692 C 0.09061 0.7484 0.64741 0.0
H1693 H 0.08299 0.84945 0.60634 0.0
H1694 H 0.07546 0.81806 0.63245 0.0
H1695 H 0.10236 0.77247 0.56 0.0
H1696 H 0.12083 0.69182 0.66569 0.0
H1697 H 0.1189 0.7236 0.63878 0.0
C1698 C 0.27364 0.574 0.98912 0.0
C1699 C 0.28894 0.57572 0.96209 0.0
C1700 C 0.25564 0.57114 0.97344 0.0
C1701 C 0.22874 0.56147 0.8755 0.0
H1702 H 0.19053 0.59039 0.93214 0.0
C1703 C 0.16187 0.58993 0.79775 0.0
C1704 C 0.14477 0.58796 0.81914 0.0
C1705 C 0.1787 0.58463 0.81631 0.0
C1706 C 0.20097 0.58201 0.91636 0.0
H1707 H 0.29778 0.57516 0.89785 0.0
H1708 H 0.26625 0.57103 0.86988 0.0
H1709 H 0.22156 0.58792 0.96252 0.0
H1710 H 0.13214 0.57831 0.87678 0.0
H1711 H 0.16177 0.56983 0.9098 0.0
H1712 H 0.20818 0.5567 0.82797 0.0
C1713 C 0.26805 0.57128 0.90331 0.0
C1714 C 0.21879 0.58048 0.93382 0.0
C1715 C 0.28613 0.57372 0.91918 0.0
C1716 C 0.14501 0.58035 0.85956 0.0
C1717 C 0.16193 0.57535 0.87841 0.0
C1718 C 0.21096 0.56329 0.85769 0.0
C1719 C 0.25249 0.57043 0.93023 0.0
C1720 C 0.23303 0.57041 0.91337 0.0
C1721 C 0.17892 0.57754 0.85698 0.0
C1722 C 0.19702 0.57378 0.87773 0.0
H1723 H 0.2756 0.57527 0.02241 0.0
H1724 H 0.24415 0.56998 0.99524 0.0
H1725 H 0.23917 0.5533 0.85921 0.0
H1726 H 0.16242 0.59613 0.76705 0.0
H1727 H 0.19166 0.58677 0.79941 0.0
loop_
_geom_bond_atom_site_label_1
_geom_bond_atom_site_label_2
_geom_bond_distance
_geom_bond_site_symmetry_2
_ccdc_geom_bond_type
C0 C1 1.351 . S
C0 N3 1.368 . S
C0 H5 0.931 . S
C1 C0 1.351 . S
C1 N2 1.373 1_556 S
C1 H29 0.930 . S
N2 C1 1.373 1_554 S
N2 C4 1.340 . S
N3 C0 1.368 . S
N3 C4 1.321 1_556 S
N3 Co6 2.135 . S
C4 N2 1.340 . S
C4 N3 1.321 1_554 S
C4 H28 0.930 . S
H5 C0 0.931 . S
Co6 N3 2.135 . S
Co6 N9 2.121 . S
Co6 O14 2.055 . S
Co6 O17 2.039 1_556 S
Co6 N20 2.140 1_556 S
C7 O8 1.227 . S
C7 O17 1.265 . S
O8 C7 1.227 . S
N9 Co6 2.121 . S
N9 C11 1.375 1_556 S
N9 C12 1.313 . S
C10 C11 1.338 . S
C10 N13 1.377 1_554 S
C10 H30 0.930 . S
C11 N9 1.375 1_554 S
C11 C10 1.338 . S
C11 H15 0.931 . S
C12 N9 1.313 . S
C12 N13 1.344 . S
C12 H16 0.930 . S
N13 C10 1.377 1_556 S
N13 C12 1.344 . S
O14 Co6 2.055 . S
O14 C18 1.253 . S
H15 C11 0.931 . S
H16 C12 0.930 . S
O17 Co6 2.039 1_554 S
O17 C7 1.265 . S
C18 O14 1.253 . S
C18 O19 1.227 . S
O19 C18 1.227 . S
N20 Co6 2.140 1_554 S
N20 C23 1.346 . S
N20 C24 1.345 1_554 S
C21 C22 1.387 . S
C21 C25 1.391 1_554 S
C22 C21 1.387 . S
C22 C23 1.369 . S
C22 H31 0.929 . S
C23 N20 1.346 . S
C23 C22 1.369 . S
C23 H26 0.928 . S
C24 N20 1.345 1_556 S
C24 C25 1.371 . S
C24 H27 0.931 . S
C25 C21 1.391 1_556 S
C25 C24 1.371 . S
C25 H32 0.930 . S
H26 C23 0.928 . S
H27 C24 0.931 . S
H28 C4 0.930 . S
H29 C1 0.930 . S
H30 C10 0.930 . S
H31 C22 0.929 . S
H32 C25 0.930 . S
C33 C34 1.351 . S
C33 N36 1.368 . S
C33 H38 0.931 . S
C34 C33 1.351 . S
C34 N35 1.373 . S
C34 H62 0.930 . S
N35 C34 1.373 . S
N35 C37 1.340 . S
N36 C33 1.368 . S
N36 C37 1.321 . S
N36 Co39 2.135 . S
C37 N35 1.340 . S
C37 N36 1.321 . S
C37 H61 0.930 . S
H38 C33 0.931 . S
Co39 N36 2.135 . S
Co39 N42 2.121 . S
Co39 O47 2.055 . S
Co39 O50 2.039 . S
Co39 N53 2.140 . S
C40 O41 1.227 . S
C40 O50 1.265 . S
O41 C40 1.227 . S
N42 Co39 2.121 . S
N42 C44 1.375 . S
N42 C45 1.313 . S
C43 C44 1.338 . S
C43 N46 1.377 . S
C43 H63 0.930 . S
C44 N42 1.375 . S
C44 C43 1.338 . S
C44 H48 0.931 . S
C45 N42 1.313 . S
C45 N46 1.344 . S
C45 H49 0.930 . S
N46 C43 1.377 . S
N46 C45 1.344 . S
O47 Co39 2.055 . S
O47 C51 1.253 . S
H48 C44 0.931 . S
H49 C45 0.930 . S
O50 Co39 2.039 . S
O50 C40 1.265 . S
C51 O47 1.253 . S
C51 O52 1.227 . S
O52 C51 1.227 . S
N53 Co39 2.140 . S
N53 C56 1.346 . S
N53 C57 1.345 . S
C54 C55 1.387 . S
C54 C58 1.391 . S
C55 C54 1.387 . S
C55 C56 1.369 . S
C55 H64 0.929 . S
C56 N53 1.346 . S
C56 C55 1.369 . S
C56 H59 0.928 . S
C57 N53 1.345 . S
C57 C58 1.371 . S
C57 H60 0.931 . S
C58 C54 1.391 . S
C58 C57 1.371 . S
C58 H65 0.930 . S
H59 C56 0.928 . S
H60 C57 0.931 . S
H61 C37 0.930 . S
H62 C34 0.930 . S
H63 C43 0.930 . S
H64 C55 0.929 . S
H65 C58 0.930 . S
C66 C67 1.351 . S
C66 N69 1.368 . S
C66 H71 0.931 . S
C67 C66 1.351 . S
C67 N68 1.373 . S
C67 H95 0.930 . S
N68 C67 1.373 . S
N68 C70 1.340 . S
N69 C66 1.368 . S
N69 C70 1.321 . S
N69 Co72 2.135 . S
C70 N68 1.340 . S
C70 N69 1.321 . S
C70 H94 0.930 . S
H71 C66 0.931 . S
Co72 N69 2.135 . S
Co72 N75 2.121 . S
Co72 O80 2.055 . S
Co72 O83 2.039 . S
Co72 N86 2.140 . S
C73 O74 1.227 . S
C73 O83 1.265 . S
O74 C73 1.227 . S
N75 Co72 2.121 . S
N75 C77 1.375 . S
N75 C78 1.313 . S
C76 C77 1.338 . S
C76 N79 1.377 . S
C76 H96 0.930 . S
C77 N75 1.375 . S
C77 C76 1.338 . S
C77 H81 0.931 . S
C78 N75 1.313 . S
C78 N79 1.344 . S
C78 H82 0.930 . S
N79 C76 1.377 . S
N79 C78 1.344 . S
O80 Co72 2.055 . S
O80 C84 1.253 . S
H81 C77 0.931 . S
H82 C78 0.930 . S
O83 Co72 2.039 . S
O83 C73 1.265 . S
C84 O80 1.253 . S
C84 O85 1.227 . S
O85 C84 1.227 . S
N86 Co72 2.140 . S
N86 C89 1.346 . S
N86 C90 1.345 . S
C87 C88 1.387 . S
C87 C91 1.391 . S
C88 C87 1.387 . S
C88 C89 1.369 . S
C88 H97 0.929 . S
C89 N86 1.346 . S
C89 C88 1.369 . S
C89 H92 0.928 . S
C90 N86 1.345 . S
C90 C91 1.371 . S
C90 H93 0.931 . S
C91 C87 1.391 . S
C91 C90 1.371 . S
C91 H98 0.930 . S
H92 C89 0.928 . S
H93 C90 0.931 . S
H94 C70 0.930 . S
H95 C67 0.930 . S
H96 C76 0.930 . S
H97 C88 0.929 . S
H98 C91 0.930 . S
C99 C100 1.351 . S
C99 N102 1.368 . S
C99 H104 0.931 . S
C100 C99 1.351 . S
C100 N101 1.373 . S
C100 H128 0.930 . S
N101 C100 1.373 . S
N101 C103 1.340 . S
N102 C99 1.368 . S
N102 C103 1.321 . S
N102 Co105 2.135 . S
C103 N101 1.340 . S
C103 N102 1.321 . S
C103 H127 0.930 . S
H104 C99 0.931 . S
Co105 N102 2.135 . S
Co105 N108 2.121 . S
Co105 O113 2.055 . S
Co105 O116 2.039 . S
Co105 N119 2.140 . S
C106 O107 1.227 . S
C106 O116 1.265 . S
O107 C106 1.227 . S
N108 Co105 2.121 . S
N108 C110 1.375 . S
N108 C111 1.313 . S
C109 C110 1.338 . S
C109 N112 1.377 . S
C109 H129 0.930 . S
C110 N108 1.375 . S
C110 C109 1.338 . S
C110 H114 0.931 . S
C111 N108 1.313 . S
C111 N112 1.344 . S
C111 H115 0.930 . S
N112 C109 1.377 . S
N112 C111 1.344 . S
O113 Co105 2.055 . S
O113 C117 1.253 . S
H114 C110 0.931 . S
H115 C111 0.930 . S
O116 Co105 2.039 . S
O116 C106 1.265 . S
C117 O113 1.253 . S
C117 O118 1.227 . S
O118 C117 1.227 . S
N119 Co105 2.140 . S
N119 C122 1.346 . S
N119 C123 1.345 . S
C120 C121 1.387 . S
C120 C124 1.391 . S
C121 C120 1.387 . S
C121 C122 1.369 . S
C121 H130 0.929 . S
C122 N119 1.346 . S
C122 C121 1.369 . S
C122 H125 0.928 . S
C123 N119 1.345 . S
C123 C124 1.371 . S
C123 H126 0.931 . S
C124 C120 1.391 . S
C124 C123 1.371 . S
C124 H131 0.930 . S
H125 C122 0.928 . S
H126 C123 0.931 . S
H127 C103 0.930 . S
H128 C100 0.930 . S
H129 C109 0.930 . S
H130 C121 0.929 . S
H131 C124 0.930 . S
C132 C133 1.351 . S
C132 N135 1.368 . S
C132 H137 0.931 . S
C133 C132 1.351 . S
C133 N134 1.373 . S
C133 H161 0.930 . S
N134 C133 1.373 . S
N134 C136 1.340 . S
N135 C132 1.368 . S
N135 C136 1.321 . S
N135 Co138 2.135 . S
C136 N134 1.340 . S
C136 N135 1.321 . S
C136 H160 0.930 . S
H137 C132 0.931 . S
Co138 N135 2.135 . S
Co138 N141 2.121 . S
Co138 O146 2.055 . S
Co138 O149 2.039 . S
Co138 N152 2.140 . S
C139 O140 1.227 . S
C139 O149 1.265 . S
O140 C139 1.227 . S
N141 Co138 2.121 . S
N141 C143 1.375 . S
N141 C144 1.313 . S
C142 C143 1.338 . S
C142 N145 1.377 . S
C142 H162 0.930 . S
C143 N141 1.375 . S
C143 C142 1.338 . S
C143 H147 0.931 . S
C144 N141 1.313 . S
C144 N145 1.344 . S
C144 H148 0.930 . S
N145 C142 1.377 . S
N145 C144 1.344 . S
O146 Co138 2.055 . S
O146 C150 1.253 . S
H147 C143 0.931 . S
H148 C144 0.930 . S
O149 Co138 2.039 . S
O149 C139 1.265 . S
C150 O146 1.253 . S
C150 O151 1.227 . S
O151 C150 1.227 . S
N152 Co138 2.140 . S
N152 C155 1.346 . S
N152 C156 1.345 . S
C153 C154 1.387 . S
C153 C157 1.391 . S
C154 C153 1.387 . S
C154 C155 1.369 . S
C154 H163 0.929 . S
C155 N152 1.346 . S
C155 C154 1.369 . S
C155 H158 0.928 . S
C156 N152 1.345 . S
C156 C157 1.371 . S
C156 H159 0.931 . S
C157 C153 1.391 . S
C157 C156 1.371 . S
C157 H164 0.930 . S
H158 C155 0.928 . S
H159 C156 0.931 . S
H160 C136 0.930 . S
H161 C133 0.930 . S
H162 C142 0.930 . S
H163 C154 0.929 . S
H164 C157 0.930 . S
C165 C166 1.351 . S
C165 N168 1.368 . S
C165 H170 0.931 . S
C166 C165 1.351 . S
C166 N167 1.373 . S
C166 H194 0.930 . S
N167 C166 1.373 . S
N167 C169 1.340 . S
N168 C165 1.368 . S
N168 C169 1.321 . S
N168 Co171 2.135 . S
C169 N167 1.340 . S
C169 N168 1.321 . S
C169 H193 0.930 . S
H170 C165 0.931 . S
Co171 N168 2.135 . S
Co171 N174 2.121 . S
Co171 O179 2.055 . S
Co171 O182 2.039 . S
Co171 N185 2.140 . S
C172 O173 1.227 . S
C172 O182 1.265 . S
O173 C172 1.227 . S
N174 Co171 2.121 . S
N174 C176 1.375 . S
N174 C177 1.313 . S
C175 C176 1.338 . S
C175 N178 1.377 . S
C175 H195 0.930 . S
C176 N174 1.375 . S
C176 C175 1.338 . S
C176 H180 0.931 . S
C177 N174 1.313 . S
C177 N178 1.344 . S
C177 H181 0.930 . S
N178 C175 1.377 . S
N178 C177 1.344 . S
O179 Co171 2.055 . S
O179 C183 1.253 . S
H180 C176 0.931 . S
H181 C177 0.930 . S
O182 Co171 2.039 . S
O182 C172 1.265 . S
C183 O179 1.253 . S
C183 O184 1.227 . S
O184 C183 1.227 . S
N185 Co171 2.140 . S
N185 C188 1.346 . S
N185 C189 1.345 . S
C186 C187 1.387 . S
C186 C190 1.391 . S
C187 C186 1.387 . S
C187 C188 1.369 . S
C187 H196 0.929 . S
C188 N185 1.346 . S
C188 C187 1.369 . S
C188 H191 0.928 . S
C189 N185 1.345 . S
C189 C190 1.371 . S
C189 H192 0.931 . S
C190 C186 1.391 . S
C190 C189 1.371 . S
C190 H197 0.930 . S
H191 C188 0.928 . S
H192 C189 0.931 . S
H193 C169 0.930 . S
H194 C166 0.930 . S
H195 C175 0.930 . S
H196 C187 0.929 . S
H197 C190 0.930 . S
C198 C199 1.351 . S
C198 N201 1.368 . S
C198 H203 0.931 . S
C199 C198 1.351 . S
C199 N200 1.373 1_556 S
C199 H227 0.930 . S
N200 C199 1.373 1_554 S
N200 C202 1.340 . S
N201 C198 1.368 . S
N201 C202 1.321 1_556 S
N201 Co204 2.135 . S
C202 N200 1.340 . S
C202 N201 1.321 1_554 S
C202 H226 0.930 . S
H203 C198 0.931 . S
Co204 N201 2.135 . S
Co204 N207 2.121 . S
Co204 O212 2.055 . S
Co204 O215 2.039 1_556 S
Co204 N218 2.140 1_556 S
C205 O206 1.227 . S
C205 O215 1.265 . S
O206 C205 1.227 . S
N207 Co204 2.121 . S
N207 C209 1.375 1_556 S
N207 C210 1.313 . S
C208 C209 1.338 . S
C208 N211 1.377 1_554 S
C208 H228 0.930 . S
C209 N207 1.375 1_554 S
C209 C208 1.338 . S
C209 H213 0.931 . S
C210 N207 1.313 . S
C210 N211 1.344 . S
C210 H214 0.930 . S
N211 C208 1.377 1_556 S
N211 C210 1.344 . S
O212 Co204 2.055 . S
O212 C216 1.253 . S
H213 C209 0.931 . S
H214 C210 0.930 . S
O215 Co204 2.039 1_554 S
O215 C205 1.265 . S
C216 O212 1.253 . S
C216 O217 1.227 . S
O217 C216 1.227 . S
N218 Co204 2.140 1_554 S
N218 C221 1.346 . S
N218 C222 1.345 1_554 S
C219 C220 1.387 . S
C219 C223 1.391 1_554 S
C220 C219 1.387 . S
C220 C221 1.369 . S
C220 H229 0.929 . S
C221 N218 1.346 . S
C221 C220 1.369 . S
C221 H224 0.928 . S
C222 N218 1.345 1_556 S
C222 C223 1.371 . S
C222 H225 0.931 . S
C223 C219 1.391 1_556 S
C223 C222 1.371 . S
C223 H230 0.930 . S
H224 C221 0.928 . S
H225 C222 0.931 . S
H226 C202 0.930 . S
H227 C199 0.930 . S
H228 C208 0.930 . S
H229 C220 0.929 . S
H230 C223 0.930 . S
C231 C232 1.351 . S
C231 N234 1.368 . S
C231 H236 0.931 . S
C232 C231 1.351 . S
C232 N233 1.373 . S
C232 H260 0.930 . S
N233 C232 1.373 . S
N233 C235 1.340 . S
N234 C231 1.368 . S
N234 C235 1.321 . S
N234 Co237 2.135 . S
C235 N233 1.340 . S
C235 N234 1.321 . S
C235 H259 0.930 . S
H236 C231 0.931 . S
Co237 N234 2.135 . S
Co237 N240 2.121 . S
Co237 O245 2.055 . S
Co237 O248 2.039 . S
Co237 N251 2.140 . S
C238 O239 1.227 . S
C238 O248 1.265 . S
O239 C238 1.227 . S
N240 Co237 2.121 . S
N240 C242 1.375 . S
N240 C243 1.313 . S
C241 C242 1.338 . S
C241 N244 1.377 . S
C241 H261 0.930 . S
C242 N240 1.375 . S
C242 C241 1.338 . S
C242 H246 0.931 . S
C243 N240 1.313 . S
C243 N244 1.344 . S
C243 H247 0.930 . S
N244 C241 1.377 . S
N244 C243 1.344 . S
O245 Co237 2.055 . S
O245 C249 1.253 . S
H246 C242 0.931 . S
H247 C243 0.930 . S
O248 Co237 2.039 . S
O248 C238 1.265 . S
C249 O245 1.253 . S
C249 O250 1.227 . S
O250 C249 1.227 . S
N251 Co237 2.140 . S
N251 C254 1.346 . S
N251 C255 1.345 . S
C252 C253 1.387 . S
C252 C256 1.391 . S
C253 C252 1.387 . S
C253 C254 1.369 . S
C253 H262 0.929 . S
C254 N251 1.346 . S
C254 C253 1.369 . S
C254 H257 0.928 . S
C255 N251 1.345 . S
C255 C256 1.371 . S
C255 H258 0.931 . S
C256 C252 1.391 . S
C256 C255 1.371 . S
C256 H263 0.930 . S
H257 C254 0.928 . S
H258 C255 0.931 . S
H259 C235 0.930 . S
H260 C232 0.930 . S
H261 C241 0.930 . S
H262 C253 0.929 . S
H263 C256 0.930 . S
C264 C265 1.351 . S
C264 N267 1.368 . S
C264 H269 0.931 . S
C265 C264 1.351 . S
C265 N266 1.373 . S
C265 H293 0.930 . S
N266 C265 1.373 . S
N266 C268 1.340 . S
N267 C264 1.368 . S
N267 C268 1.321 . S
N267 Co270 2.135 . S
C268 N266 1.340 . S
C268 N267 1.321 . S
C268 H292 0.930 . S
H269 C264 0.931 . S
Co270 N267 2.135 . S
Co270 N273 2.121 . S
Co270 O278 2.055 . S
Co270 O281 2.039 . S
Co270 N284 2.140 . S
C271 O272 1.227 . S
C271 O281 1.265 . S
O272 C271 1.227 . S
N273 Co270 2.121 . S
N273 C275 1.375 . S
N273 C276 1.313 . S
C274 C275 1.338 . S
C274 N277 1.377 . S
C274 H294 0.930 . S
C275 N273 1.375 . S
C275 C274 1.338 . S
C275 H279 0.931 . S
C276 N273 1.313 . S
C276 N277 1.344 . S
C276 H280 0.930 . S
N277 C274 1.377 . S
N277 C276 1.344 . S
O278 Co270 2.055 . S
O278 C282 1.253 . S
H279 C275 0.931 . S
H280 C276 0.930 . S
O281 Co270 2.039 . S
O281 C271 1.265 . S
C282 O278 1.253 . S
C282 O283 1.227 . S
O283 C282 1.227 . S
N284 Co270 2.140 . S
N284 C287 1.346 . S
N284 C288 1.345 . S
C285 C286 1.387 . S
C285 C289 1.391 . S
C286 C285 1.387 . S
C286 C287 1.369 . S
C286 H295 0.929 . S
C287 N284 1.346 . S
C287 C286 1.369 . S
C287 H290 0.928 . S
C288 N284 1.345 . S
C288 C289 1.371 . S
C288 H291 0.931 . S
C289 C285 1.391 . S
C289 C288 1.371 . S
C289 H296 0.930 . S
H290 C287 0.928 . S
H291 C288 0.931 . S
H292 C268 0.930 . S
H293 C265 0.930 . S
H294 C274 0.930 . S
H295 C286 0.929 . S
H296 C289 0.930 . S
C297 C298 1.351 . S
C297 N300 1.368 . S
C297 H302 0.931 . S
C298 C297 1.351 . S
C298 N299 1.373 . S
C298 H326 0.930 . S
N299 C298 1.373 . S
N299 C301 1.340 . S
N300 C297 1.368 . S
N300 C301 1.321 . S
N300 Co303 2.135 . S
C301 N299 1.340 . S
C301 N300 1.321 . S
C301 H325 0.930 . S
H302 C297 0.931 . S
Co303 N300 2.135 . S
Co303 N306 2.121 . S
Co303 O311 2.055 . S
Co303 O314 2.039 . S
Co303 N317 2.140 . S
C304 O305 1.227 . S
C304 O314 1.265 . S
O305 C304 1.227 . S
N306 Co303 2.121 . S
N306 C308 1.375 . S
N306 C309 1.313 . S
C307 C308 1.338 . S
C307 N310 1.377 . S
C307 H327 0.930 . S
C308 N306 1.375 . S
C308 C307 1.338 . S
C308 H312 0.931 . S
C309 N306 1.313 . S
C309 N310 1.344 . S
C309 H313 0.930 . S
N310 C307 1.377 . S
N310 C309 1.344 . S
O311 Co303 2.055 . S
O311 C315 1.253 . S
H312 C308 0.931 . S
H313 C309 0.930 . S
O314 Co303 2.039 . S
O314 C304 1.265 . S
C315 O311 1.253 . S
C315 O316 1.227 . S
O316 C315 1.227 . S
N317 Co303 2.140 . S
N317 C320 1.346 . S
N317 C321 1.345 . S
C318 C319 1.387 . S
C318 C322 1.391 . S
C319 C318 1.387 . S
C319 C320 1.369 . S
C319 H328 0.929 . S
C320 N317 1.346 . S
C320 C319 1.369 . S
C320 H323 0.928 . S
C321 N317 1.345 . S
C321 C322 1.371 . S
C321 H324 0.931 . S
C322 C318 1.391 . S
C322 C321 1.371 . S
C322 H329 0.930 . S
H323 C320 0.928 . S
H324 C321 0.931 . S
H325 C301 0.930 . S
H326 C298 0.930 . S
H327 C307 0.930 . S
H328 C319 0.929 . S
H329 C322 0.930 . S
C330 C331 1.351 . S
C330 N333 1.368 . S
C330 H335 0.931 . S
C331 C330 1.351 . S
C331 N332 1.373 1_556 S
C331 H359 0.930 . S
N332 C331 1.373 1_554 S
N332 C334 1.340 . S
N333 C330 1.368 . S
N333 C334 1.321 1_556 S
N333 Co336 2.135 . S
C334 N332 1.340 . S
C334 N333 1.321 1_554 S
C334 H358 0.930 . S
H335 C330 0.931 . S
Co336 N333 2.135 . S
Co336 N339 2.121 . S
Co336 O344 2.055 . S
Co336 O347 2.039 1_556 S
Co336 N350 2.140 1_556 S
C337 O338 1.227 . S
C337 O347 1.265 . S
O338 C337 1.227 . S
N339 Co336 2.121 . S
N339 C341 1.375 1_556 S
N339 C342 1.313 . S
C340 C341 1.338 . S
C340 N343 1.377 1_554 S
C340 H360 0.930 . S
C341 N339 1.375 1_554 S
C341 C340 1.338 . S
C341 H345 0.931 . S
C342 N339 1.313 . S
C342 N343 1.344 . S
C342 H346 0.930 . S
N343 C340 1.377 1_556 S
N343 C342 1.344 . S
O344 Co336 2.055 . S
O344 C348 1.253 . S
H345 C341 0.931 . S
H346 C342 0.930 . S
O347 Co336 2.039 1_554 S
O347 C337 1.265 . S
C348 O344 1.253 . S
C348 O349 1.227 . S
O349 C348 1.227 . S
N350 Co336 2.140 1_554 S
N350 C353 1.346 . S
N350 C354 1.345 1_554 S
C351 C352 1.387 . S
C351 C355 1.391 1_554 S
C352 C351 1.387 . S
C352 C353 1.369 . S
C352 H361 0.929 . S
C353 N350 1.346 . S
C353 C352 1.369 . S
C353 H356 0.928 . S
C354 N350 1.345 1_556 S
C354 C355 1.371 . S
C354 H357 0.931 . S
C355 C351 1.391 1_556 S
C355 C354 1.371 . S
C355 H362 0.930 . S
H356 C353 0.928 . S
H357 C354 0.931 . S
H358 C334 0.930 . S
H359 C331 0.930 . S
H360 C340 0.930 . S
H361 C352 0.929 . S
H362 C355 0.930 . S
C363 C364 1.351 . S
C363 N366 1.368 . S
C363 H368 0.931 . S
C364 C363 1.351 . S
C364 N365 1.373 . S
C364 H392 0.930 . S
N365 C364 1.373 . S
N365 C367 1.340 . S
N366 C363 1.368 . S
N366 C367 1.321 . S
N366 Co369 2.135 . S
C367 N365 1.340 . S
C367 N366 1.321 . S
C367 H391 0.930 . S
H368 C363 0.931 . S
Co369 N366 2.135 . S
Co369 N372 2.121 . S
Co369 O377 2.055 . S
Co369 O380 2.039 . S
Co369 N383 2.140 . S
C370 O371 1.227 . S
C370 O380 1.265 . S
O371 C370 1.227 . S
N372 Co369 2.121 . S
N372 C374 1.375 . S
N372 C375 1.313 . S
C373 C374 1.338 . S
C373 N376 1.377 . S
C373 H393 0.930 . S
C374 N372 1.375 . S
C374 C373 1.338 . S
C374 H378 0.931 . S
C375 N372 1.313 . S
C375 N376 1.344 . S
C375 H379 0.930 . S
N376 C373 1.377 . S
N376 C375 1.344 . S
O377 Co369 2.055 . S
O377 C381 1.253 . S
H378 C374 0.931 . S
H379 C375 0.930 . S
O380 Co369 2.039 . S
O380 C370 1.265 . S
C381 O377 1.253 . S
C381 O382 1.227 . S
O382 C381 1.227 . S
N383 Co369 2.140 . S
N383 C386 1.346 . S
N383 C387 1.345 . S
C384 C385 1.387 . S
C384 C388 1.391 . S
C385 C384 1.387 . S
C385 C386 1.369 . S
C385 H394 0.929 . S
C386 N383 1.346 . S
C386 C385 1.369 . S
C386 H389 0.928 . S
C387 N383 1.345 . S
C387 C388 1.371 . S
C387 H390 0.931 . S
C388 C384 1.391 . S
C388 C387 1.371 . S
C388 H395 0.930 . S
H389 C386 0.928 . S
H390 C387 0.931 . S
H391 C367 0.930 . S
H392 C364 0.930 . S
H393 C373 0.930 . S
H394 C385 0.929 . S
H395 C388 0.930 . S
C396 C397 1.351 . S
C396 N399 1.368 . S
C396 H401 0.931 . S
C397 C396 1.351 . S
C397 N398 1.373 1_556 S
C397 H425 0.930 . S
N398 C397 1.373 1_554 S
N398 C400 1.340 . S
N399 C396 1.368 . S
N399 C400 1.321 1_556 S
N399 Co402 2.135 . S
C400 N398 1.340 . S
C400 N399 1.321 1_554 S
C400 H424 0.930 . S
H401 C396 0.931 . S
Co402 N399 2.135 . S
Co402 N405 2.121 . S
Co402 O410 2.055 . S
Co402 O413 2.039 1_556 S
Co402 N416 2.140 1_556 S
C403 O404 1.227 . S
C403 O413 1.265 . S
O404 C403 1.227 . S
N405 Co402 2.121 . S
N405 C407 1.375 1_556 S
N405 C408 1.313 . S
C406 C407 1.338 . S
C406 N409 1.377 1_554 S
C406 H426 0.930 . S
C407 N405 1.375 1_554 S
C407 C406 1.338 . S
C407 H411 0.931 . S
C408 N405 1.313 . S
C408 N409 1.344 . S
C408 H412 0.930 . S
N409 C406 1.377 1_556 S
N409 C408 1.344 . S
O410 Co402 2.055 . S
O410 C414 1.253 . S
H411 C407 0.931 . S
H412 C408 0.930 . S
O413 Co402 2.039 1_554 S
O413 C403 1.265 . S
C414 O410 1.253 . S
C414 O415 1.227 . S
O415 C414 1.227 . S
N416 Co402 2.140 1_554 S
N416 C419 1.346 . S
N416 C420 1.345 1_554 S
C417 C418 1.387 . S
C417 C421 1.391 1_554 S
C418 C417 1.387 . S
C418 C419 1.369 . S
C418 H427 0.929 . S
C419 N416 1.346 . S
C419 C418 1.369 . S
C419 H422 0.928 . S
C420 N416 1.345 1_556 S
C420 C421 1.371 . S
C420 H423 0.931 . S
C421 C417 1.391 1_556 S
C421 C420 1.371 . S
C421 H428 0.930 . S
H422 C419 0.928 . S
H423 C420 0.931 . S
H424 C400 0.930 . S
H425 C397 0.930 . S
H426 C406 0.930 . S
H427 C418 0.929 . S
H428 C421 0.930 . S
C429 C430 1.351 . S
C429 N432 1.368 . S
C429 H434 0.931 . S
C430 C429 1.351 . S
C430 N431 1.373 . S
C430 H458 0.930 . S
N431 C430 1.373 . S
N431 C433 1.340 . S
N432 C429 1.368 . S
N432 C433 1.321 . S
N432 Co435 2.135 . S
C433 N431 1.340 . S
C433 N432 1.321 . S
C433 H457 0.930 . S
H434 C429 0.931 . S
Co435 N432 2.135 . S
Co435 N438 2.121 . S
Co435 O443 2.055 . S
Co435 O446 2.039 . S
Co435 N449 2.140 . S
C436 O437 1.227 . S
C436 O446 1.265 . S
O437 C436 1.227 . S
N438 Co435 2.121 . S
N438 C440 1.375 . S
N438 C441 1.313 . S
C439 C440 1.338 . S
C439 N442 1.377 . S
C439 H459 0.930 . S
C440 N438 1.375 . S
C440 C439 1.338 . S
C440 H444 0.931 . S
C441 N438 1.313 . S
C441 N442 1.344 . S
C441 H445 0.930 . S
N442 C439 1.377 . S
N442 C441 1.344 . S
O443 Co435 2.055 . S
O443 C447 1.253 . S
H444 C440 0.931 . S
H445 C441 0.930 . S
O446 Co435 2.039 . S
O446 C436 1.265 . S
C447 O443 1.253 . S
C447 O448 1.227 . S
O448 C447 1.227 . S
N449 Co435 2.140 . S
N449 C452 1.346 . S
N449 C453 1.345 . S
C450 C451 1.387 . S
C450 C454 1.391 . S
C451 C450 1.387 . S
C451 C452 1.369 . S
C451 H460 0.929 . S
C452 N449 1.346 . S
C452 C451 1.369 . S
C452 H455 0.928 . S
C453 N449 1.345 . S
C453 C454 1.371 . S
C453 H456 0.931 . S
C454 C450 1.391 . S
C454 C453 1.371 . S
C454 H461 0.930 . S
H455 C452 0.928 . S
H456 C453 0.931 . S
H457 C433 0.930 . S
H458 C430 0.930 . S
H459 C439 0.930 . S
H460 C451 0.929 . S
H461 C454 0.930 . S
C462 C463 1.351 . S
C462 N465 1.368 . S
C462 H467 0.931 . S
C463 C462 1.351 . S
C463 N464 1.373 . S
C463 H491 0.930 . S
N464 C463 1.373 . S
N464 C466 1.340 . S
N465 C462 1.368 . S
N465 C466 1.321 . S
N465 Co468 2.135 . S
C466 N464 1.340 . S
C466 N465 1.321 . S
C466 H490 0.930 . S
H467 C462 0.931 . S
Co468 N465 2.135 . S
Co468 N471 2.121 . S
Co468 O476 2.055 . S
Co468 O479 2.039 . S
Co468 N482 2.140 . S
C469 O470 1.227 . S
C469 O479 1.265 . S
O470 C469 1.227 . S
N471 Co468 2.121 . S
N471 C473 1.375 . S
N471 C474 1.313 . S
C472 C473 1.338 . S
C472 N475 1.377 . S
C472 H492 0.930 . S
C473 N471 1.375 . S
C473 C472 1.338 . S
C473 H477 0.931 . S
C474 N471 1.313 . S
C474 N475 1.344 . S
C474 H478 0.930 . S
N475 C472 1.377 . S
N475 C474 1.344 . S
O476 Co468 2.055 . S
O476 C480 1.253 . S
H477 C473 0.931 . S
H478 C474 0.930 . S
O479 Co468 2.039 . S
O479 C469 1.265 . S
C480 O476 1.253 . S
C480 O481 1.227 . S
O481 C480 1.227 . S
N482 Co468 2.140 . S
N482 C485 1.346 . S
N482 C486 1.345 . S
C483 C484 1.387 . S
C483 C487 1.391 . S
C484 C483 1.387 . S
C484 C485 1.369 . S
C484 H493 0.929 . S
C485 N482 1.346 . S
C485 C484 1.369 . S
C485 H488 0.928 . S
C486 N482 1.345 . S
C486 C487 1.371 . S
C486 H489 0.931 . S
C487 C483 1.391 . S
C487 C486 1.371 . S
C487 H494 0.930 . S
H488 C485 0.928 . S
H489 C486 0.931 . S
H490 C466 0.930 . S
H491 C463 0.930 . S
H492 C472 0.930 . S
H493 C484 0.929 . S
H494 C487 0.930 . S
C495 C496 1.351 . S
C495 N498 1.368 . S
C495 H500 0.931 . S
C496 C495 1.351 . S
C496 N497 1.373 . S
C496 H524 0.930 . S
N497 C496 1.373 . S
N497 C499 1.340 . S
N498 C495 1.368 . S
N498 C499 1.321 . S
N498 Co501 2.135 . S
C499 N497 1.340 . S
C499 N498 1.321 . S
C499 H523 0.930 . S
H500 C495 0.931 . S
Co501 N498 2.135 . S
Co501 N504 2.121 . S
Co501 O509 2.055 . S
Co501 O512 2.039 . S
Co501 N515 2.140 . S
C502 O503 1.227 . S
C502 O512 1.265 . S
O503 C502 1.227 . S
N504 Co501 2.121 . S
N504 C506 1.375 . S
N504 C507 1.313 . S
C505 C506 1.338 . S
C505 N508 1.377 . S
C505 H525 0.930 . S
C506 N504 1.375 . S
C506 C505 1.338 . S
C506 H510 0.931 . S
C507 N504 1.313 . S
C507 N508 1.344 . S
C507 H511 0.930 . S
N508 C505 1.377 . S
N508 C507 1.344 . S
O509 Co501 2.055 . S
O509 C513 1.253 . S
H510 C506 0.931 . S
H511 C507 0.930 . S
O512 Co501 2.039 . S
O512 C502 1.265 . S
C513 O509 1.253 . S
C513 O514 1.227 . S
O514 C513 1.227 . S
N515 Co501 2.140 . S
N515 C518 1.346 . S
N515 C519 1.345 . S
C516 C517 1.387 . S
C516 C520 1.391 . S
C517 C516 1.387 . S
C517 C518 1.369 . S
C517 H526 0.929 . S
C518 N515 1.346 . S
C518 C517 1.369 . S
C518 H521 0.928 . S
C519 N515 1.345 . S
C519 C520 1.371 . S
C519 H522 0.931 . S
C520 C516 1.391 . S
C520 C519 1.371 . S
C520 H527 0.930 . S
H521 C518 0.928 . S
H522 C519 0.931 . S
H523 C499 0.930 . S
H524 C496 0.930 . S
H525 C505 0.930 . S
H526 C517 0.929 . S
H527 C520 0.930 . S
C528 C529 1.349 . S
C528 C530 1.327 . S
C528 H553 0.950 . S
C529 C528 1.349 . S
C529 C545 1.349 1_554 S
C530 C528 1.327 . S
C530 C549 1.429 . S
C530 H554 0.950 . S
C531 C548 1.574 1_655 S
C531 C550 1.368 1_546 S
C531 H555 0.949 . S
H532 C536 0.949 . S
C533 C534 1.349 1_556 S
C533 C535 1.327 . S
C533 H556 0.950 . S
C534 C533 1.349 1_554 S
C534 C546 1.349 . S
C535 C533 1.327 . S
C535 C551 1.429 1_556 S
C535 H557 0.950 . S
C536 H532 0.949 . S
C536 C544 1.574 1_455 S
C536 C552 1.368 1_565 S
H537 C545 0.950 . S
H538 C543 0.950 . S
H539 C544 0.949 . S
H540 C546 0.950 . S
H541 C547 0.950 . S
H542 C548 0.949 . S
C543 H538 0.950 . S
C543 C545 1.327 . S
C543 C549 1.429 1_556 S
C544 C536 1.574 1_655 S
C544 H539 0.949 . S
C544 C550 1.368 . S
C545 C529 1.349 1_556 S
C545 H537 0.950 . S
C545 C543 1.327 . S
C546 C534 1.349 . S
C546 H540 0.950 . S
C546 C547 1.327 . S
C547 H541 0.950 . S
C547 C546 1.327 . S
C547 C551 1.429 . S
C548 C531 1.574 1_455 S
C548 H542 0.949 . S
C548 C552 1.368 1_556 S
C549 C530 1.429 . S
C549 C543 1.429 1_554 S
C549 C550 1.523 . S
C550 C531 1.368 1_564 S
C550 C544 1.368 . S
C550 C549 1.523 . S
C551 C535 1.429 1_554 S
C551 C547 1.429 . S
C551 C552 1.523 . S
C552 C536 1.368 1_545 S
C552 C548 1.368 1_554 S
C552 C551 1.523 . S
H553 C528 0.950 . S
H554 C530 0.950 . S
H555 C531 0.949 . S
H556 C533 0.950 . S
H557 C535 0.950 . S
C558 C559 1.349 . S
C558 C560 1.327 . S
C558 H583 0.950 . S
C559 C558 1.349 . S
C559 C575 1.349 . S
C560 C558 1.327 . S
C560 C579 1.429 . S
C560 H584 0.950 . S
C561 C578 1.574 . S
C561 C580 1.368 1_455 S
C561 H585 0.949 . S
H562 C566 0.949 . S
C563 C564 1.349 . S
C563 C565 1.327 . S
C563 H586 0.950 . S
C564 C563 1.349 . S
C564 C576 1.349 . S
C565 C563 1.327 . S
C565 C581 1.429 . S
C565 H587 0.950 . S
C566 H562 0.949 . S
C566 C574 1.574 . S
C566 C582 1.368 1_655 S
H567 C575 0.950 . S
H568 C573 0.950 . S
H569 C574 0.949 . S
H570 C576 0.950 . S
H571 C577 0.950 . S
H572 C578 0.949 . S
C573 H568 0.950 . S
C573 C575 1.327 . S
C573 C579 1.429 . S
C574 C566 1.574 . S
C574 H569 0.949 . S
C574 C580 1.368 . S
C575 C559 1.349 . S
C575 H567 0.950 . S
C575 C573 1.327 . S
C576 C564 1.349 . S
C576 H570 0.950 . S
C576 C577 1.327 . S
C577 H571 0.950 . S
C577 C576 1.327 . S
C577 C581 1.429 . S
C578 C561 1.574 . S
C578 H572 0.949 . S
C578 C582 1.368 . S
C579 C560 1.429 . S
C579 C573 1.429 . S
C579 C580 1.523 . S
C580 C561 1.368 1_655 S
C580 C574 1.368 . S
C580 C579 1.523 . S
C581 C565 1.429 . S
C581 C577 1.429 . S
C581 C582 1.523 . S
C582 C566 1.368 1_455 S
C582 C578 1.368 . S
C582 C581 1.523 . S
H583 C558 0.950 . S
H584 C560 0.950 . S
H585 C561 0.949 . S
H586 C563 0.950 . S
H587 C565 0.950 . S
C588 C589 1.349 . S
C588 C590 1.327 . S
C588 H613 0.950 . S
C589 C588 1.349 . S
C589 C605 1.349 . S
C590 C588 1.327 . S
C590 C609 1.429 . S
C590 H614 0.950 . S
C591 C608 1.574 . S
C591 C610 1.368 . S
C591 H615 0.949 . S
H592 C596 0.949 . S
C593 C594 1.349 . S
C593 C595 1.327 . S
C593 H616 0.950 . S
C594 C593 1.349 . S
C594 C606 1.349 . S
C595 C593 1.327 . S
C595 C611 1.429 . S
C595 H617 0.950 . S
C596 H592 0.949 . S
C596 C604 1.574 . S
C596 C612 1.368 . S
H597 C605 0.950 . S
H598 C603 0.950 . S
H599 C604 0.949 . S
H600 C606 0.950 . S
H601 C607 0.950 . S
H602 C608 0.949 . S
C603 H598 0.950 . S
C603 C605 1.327 . S
C603 C609 1.429 . S
C604 C596 1.574 . S
C604 H599 0.949 . S
C604 C610 1.368 . S
C605 C589 1.349 . S
C605 H597 0.950 . S
C605 C603 1.327 . S
C606 C594 1.349 . S
C606 H600 0.950 . S
C606 C607 1.327 . S
C607 H601 0.950 . S
C607 C606 1.327 . S
C607 C611 1.429 . S
C608 C591 1.574 . S
C608 H602 0.949 . S
C608 C612 1.368 . S
C609 C590 1.429 . S
C609 C603 1.429 . S
C609 C610 1.523 . S
C610 C591 1.368 . S
C610 C604 1.368 . S
C610 C609 1.523 . S
C611 C595 1.429 . S
C611 C607 1.429 . S
C611 C612 1.523 . S
C612 C596 1.368 . S
C612 C608 1.368 . S
C612 C611 1.523 . S
H613 C588 0.950 . S
H614 C590 0.950 . S
H615 C591 0.949 . S
H616 C593 0.950 . S
H617 C595 0.950 . S
C618 C619 1.349 . S
C618 C620 1.327 . S
C618 H643 0.950 . S
C619 C618 1.349 . S
C619 C635 1.349 . S
C620 C618 1.327 . S
C620 C639 1.429 . S
C620 H644 0.950 . S
C621 C638 1.574 1_565 S
C621 C640 1.368 . S
C621 H645 0.949 . S
H622 C626 0.949 . S
C623 C624 1.349 . S
C623 C625 1.327 . S
C623 H646 0.950 . S
C624 C623 1.349 . S
C624 C636 1.349 . S
C625 C623 1.327 . S
C625 C641 1.429 . S
C625 H647 0.950 . S
C626 H622 0.949 . S
C626 C634 1.574 1_545 S
C626 C642 1.368 . S
H627 C635 0.950 . S
H628 C633 0.950 . S
H629 C634 0.949 . S
H630 C636 0.950 . S
H631 C637 0.950 . S
H632 C638 0.949 . S
C633 H628 0.950 . S
C633 C635 1.327 . S
C633 C639 1.429 . S
C634 C626 1.574 1_565 S
C634 H629 0.949 . S
C634 C640 1.368 . S
C635 C619 1.349 . S
C635 H627 0.950 . S
C635 C633 1.327 . S
C636 C624 1.349 . S
C636 H630 0.950 . S
C636 C637 1.327 . S
C637 H631 0.950 . S
C637 C636 1.327 . S
C637 C641 1.429 . S
C638 C621 1.574 1_545 S
C638 H632 0.949 . S
C638 C642 1.368 . S
C639 C620 1.429 . S
C639 C633 1.429 . S
C639 C640 1.523 . S
C640 C621 1.368 . S
C640 C634 1.368 . S
C640 C639 1.523 . S
C641 C625 1.429 . S
C641 C637 1.429 . S
C641 C642 1.523 . S
C642 C626 1.368 . S
C642 C638 1.368 . S
C642 C641 1.523 . S
H643 C618 0.950 . S
H644 C620 0.950 . S
H645 C621 0.949 . S
H646 C623 0.950 . S
H647 C625 0.950 . S
C648 C649 1.349 . S
C648 C650 1.327 . S
C648 H673 0.950 . S
C649 C648 1.349 . S
C649 C665 1.349 . S
C650 C648 1.327 . S
C650 C669 1.429 . S
C650 H674 0.950 . S
C651 C668 1.574 1_455 S
C651 C670 1.368 1_545 S
C651 H675 0.949 . S
H652 C656 0.949 . S
C653 C654 1.349 . S
C653 C655 1.327 . S
C653 H676 0.950 . S
C654 C653 1.349 . S
C654 C666 1.349 . S
C655 C653 1.327 . S
C655 C671 1.429 . S
C655 H677 0.950 . S
C656 H652 0.949 . S
C656 C664 1.574 1_655 S
C656 C672 1.368 1_565 S
H657 C665 0.950 . S
H658 C663 0.950 . S
H659 C664 0.949 . S
H660 C666 0.950 . S
H661 C667 0.950 . S
H662 C668 0.949 . S
C663 H658 0.950 . S
C663 C665 1.327 . S
C663 C669 1.429 . S
C664 C656 1.574 1_455 S
C664 H659 0.949 . S
C664 C670 1.368 . S
C665 C649 1.349 . S
C665 H657 0.950 . S
C665 C663 1.327 . S
C666 C654 1.349 . S
C666 H660 0.950 . S
C666 C667 1.327 . S
C667 H661 0.950 . S
C667 C666 1.327 . S
C667 C671 1.429 . S
C668 C651 1.574 1_655 S
C668 H662 0.949 . S
C668 C672 1.368 . S
C669 C650 1.429 . S
C669 C663 1.429 . S
C669 C670 1.523 . S
C670 C651 1.368 1_565 S
C670 C664 1.368 . S
C670 C669 1.523 . S
C671 C655 1.429 . S
C671 C667 1.429 . S
C671 C672 1.523 . S
C672 C656 1.368 1_545 S
C672 C668 1.368 . S
C672 C671 1.523 . S
H673 C648 0.950 . S
H674 C650 0.950 . S
H675 C651 0.949 . S
H676 C653 0.950 . S
H677 C655 0.950 . S
C678 C679 1.349 . S
C678 C680 1.327 . S
C678 H703 0.950 . S
C679 C678 1.349 . S
C679 C695 1.349 . S
C680 C678 1.327 . S
C680 C699 1.429 . S
C680 H704 0.950 . S
C681 C698 1.574 . S
C681 C700 1.368 1_455 S
C681 H705 0.949 . S
H682 C686 0.949 . S
C683 C684 1.349 . S
C683 C685 1.327 . S
C683 H706 0.950 . S
C684 C683 1.349 . S
C684 C696 1.349 . S
C685 C683 1.327 . S
C685 C701 1.429 . S
C685 H707 0.950 . S
C686 H682 0.949 . S
C686 C694 1.574 . S
C686 C702 1.368 1_655 S
H687 C695 0.950 . S
H688 C693 0.950 . S
H689 C694 0.949 . S
H690 C696 0.950 . S
H691 C697 0.950 . S
H692 C698 0.949 . S
C693 H688 0.950 . S
C693 C695 1.327 . S
C693 C699 1.429 . S
C694 C686 1.574 . S
C694 H689 0.949 . S
C694 C700 1.368 . S
C695 C679 1.349 . S
C695 H687 0.950 . S
C695 C693 1.327 . S
C696 C684 1.349 . S
C696 H690 0.950 . S
C696 C697 1.327 . S
C697 H691 0.950 . S
C697 C696 1.327 . S
C697 C701 1.429 . S
C698 C681 1.574 . S
C698 H692 0.949 . S
C698 C702 1.368 . S
C699 C680 1.429 . S
C699 C693 1.429 . S
C699 C700 1.523 . S
C700 C681 1.368 1_655 S
C700 C694 1.368 . S
C700 C699 1.523 . S
C701 C685 1.429 . S
C701 C697 1.429 . S
C701 C702 1.523 . S
C702 C686 1.368 1_455 S
C702 C698 1.368 . S
C702 C701 1.523 . S
H703 C678 0.950 . S
H704 C680 0.950 . S
H705 C681 0.949 . S
H706 C683 0.950 . S
H707 C685 0.950 . S
C708 C709 1.349 . S
C708 C710 1.327 . S
C708 H733 0.950 . S
C709 C708 1.349 . S
C709 C725 1.349 1_554 S
C710 C708 1.327 . S
C710 C729 1.429 . S
C710 H734 0.950 . S
C711 C728 1.574 . S
C711 C730 1.368 1_556 S
C711 H735 0.949 . S
H712 C716 0.949 . S
C713 C714 1.349 1_556 S
C713 C715 1.327 . S
C713 H736 0.950 . S
C714 C713 1.349 1_554 S
C714 C726 1.349 . S
C715 C713 1.327 . S
C715 C731 1.429 1_556 S
C715 H737 0.950 . S
C716 H712 0.949 . S
C716 C724 1.574 . S
C716 C732 1.368 . S
H717 C725 0.950 . S
H718 C723 0.950 . S
H719 C724 0.949 . S
H720 C726 0.950 . S
H721 C727 0.950 . S
H722 C728 0.949 . S
C723 H718 0.950 . S
C723 C725 1.327 . S
C723 C729 1.429 1_556 S
C724 C716 1.574 . S
C724 H719 0.949 . S
C724 C730 1.368 . S
C725 C709 1.349 1_556 S
C725 H717 0.950 . S
C725 C723 1.327 . S
C726 C714 1.349 . S
C726 H720 0.950 . S
C726 C727 1.327 . S
C727 H721 0.950 . S
C727 C726 1.327 . S
C727 C731 1.429 . S
C728 C711 1.574 . S
C728 H722 0.949 . S
C728 C732 1.368 1_556 S
C729 C710 1.429 . S
C729 C723 1.429 1_554 S
C729 C730 1.523 . S
C730 C711 1.368 1_554 S
C730 C724 1.368 . S
C730 C729 1.523 . S
C731 C715 1.429 1_554 S
C731 C727 1.429 . S
C731 C732 1.523 . S
C732 C716 1.368 . S
C732 C728 1.368 1_554 S
C732 C731 1.523 . S
H733 C708 0.950 . S
H734 C710 0.950 . S
H735 C711 0.949 . S
H736 C713 0.950 . S
H737 C715 0.950 . S
C738 C739 1.349 . S
C738 C740 1.327 . S
C738 H763 0.950 . S
C739 C738 1.349 . S
C739 C755 1.349 . S
C740 C738 1.327 . S
C740 C759 1.429 . S
C740 H764 0.950 . S
C741 C758 1.574 1_565 S
C741 C760 1.368 . S
C741 H765 0.949 . S
H742 C746 0.949 . S
C743 C744 1.349 . S
C743 C745 1.327 . S
C743 H766 0.950 . S
C744 C743 1.349 . S
C744 C756 1.349 . S
C745 C743 1.327 . S
C745 C761 1.429 . S
C745 H767 0.950 . S
C746 H742 0.949 . S
C746 C754 1.574 1_545 S
C746 C762 1.368 . S
H747 C755 0.950 . S
H748 C753 0.950 . S
H749 C754 0.949 . S
H750 C756 0.950 . S
H751 C757 0.950 . S
H752 C758 0.949 . S
C753 H748 0.950 . S
C753 C755 1.327 . S
C753 C759 1.429 . S
C754 C746 1.574 1_565 S
C754 H749 0.949 . S
C754 C760 1.368 . S
C755 C739 1.349 . S
C755 H747 0.950 . S
C755 C753 1.327 . S
C756 C744 1.349 . S
C756 H750 0.950 . S
C756 C757 1.327 . S
C757 H751 0.950 . S
C757 C756 1.327 . S
C757 C761 1.429 . S
C758 C741 1.574 1_545 S
C758 H752 0.949 . S
C758 C762 1.368 . S
C759 C740 1.429 . S
C759 C753 1.429 . S
C759 C760 1.523 . S
C760 C741 1.368 . S
C760 C754 1.368 . S
C760 C759 1.523 . S
C761 C745 1.429 . S
C761 C757 1.429 . S
C761 C762 1.523 . S
C762 C746 1.368 . S
C762 C758 1.368 . S
C762 C761 1.523 . S
H763 C738 0.950 . S
H764 C740 0.950 . S
H765 C741 0.949 . S
H766 C743 0.950 . S
H767 C745 0.950 . S
C768 C769 1.349 . S
C768 C770 1.327 . S
C768 H793 0.950 . S
C769 C768 1.349 . S
C769 C785 1.349 . S
C770 C768 1.327 . S
C770 C789 1.429 . S
C770 H794 0.950 . S
C771 C788 1.574 . S
C771 C790 1.368 1_545 S
C771 H795 0.949 . S
H772 C776 0.949 . S
C773 C774 1.349 . S
C773 C775 1.327 . S
C773 H796 0.950 . S
C774 C773 1.349 . S
C774 C786 1.349 . S
C775 C773 1.327 . S
C775 C791 1.429 . S
C775 H797 0.950 . S
C776 H772 0.949 . S
C776 C784 1.574 . S
C776 C792 1.368 1_565 S
H777 C785 0.950 . S
H778 C783 0.950 . S
H779 C784 0.949 . S
H780 C786 0.950 . S
H781 C787 0.950 1_565 S
H782 C788 0.949 . S
C783 H778 0.950 . S
C783 C785 1.327 . S
C783 C789 1.429 . S
C784 C776 1.574 . S
C784 H779 0.949 . S
C784 C790 1.368 . S
C785 C769 1.349 . S
C785 H777 0.950 . S
C785 C783 1.327 . S
C786 C774 1.349 . S
C786 H780 0.950 . S
C786 C787 1.327 . S
C787 H781 0.950 1_545 S
C787 C786 1.327 . S
C787 C791 1.429 . S
C788 C771 1.574 . S
C788 H782 0.949 . S
C788 C792 1.368 . S
C789 C770 1.429 . S
C789 C783 1.429 . S
C789 C790 1.523 . S
C790 C771 1.368 1_565 S
C790 C784 1.368 . S
C790 C789 1.523 . S
C791 C775 1.429 . S
C791 C787 1.429 . S
C791 C792 1.523 . S
C792 C776 1.368 1_545 S
C792 C788 1.368 . S
C792 C791 1.523 . S
H793 C768 0.950 . S
H794 C770 0.950 . S
H795 C771 0.949 . S
H796 C773 0.950 . S
H797 C775 0.950 . S
C798 C799 1.349 . S
C798 C800 1.327 . S
C798 H823 0.950 . S
C799 C798 1.349 . S
C799 C815 1.349 . S
C800 C798 1.327 . S
C800 C819 1.429 . S
C800 H824 0.950 . S
C801 C818 1.574 . S
C801 C820 1.368 . S
C801 H825 0.949 . S
H802 C806 0.949 . S
C803 C804 1.349 . S
C803 C805 1.327 . S
C803 H826 0.950 . S
C804 C803 1.349 . S
C804 C816 1.349 . S
C805 C803 1.327 . S
C805 C821 1.429 . S
C805 H827 0.950 . S
C806 H802 0.949 . S
C806 C814 1.574 1_655 S
C806 C822 1.368 . S
H807 C815 0.950 . S
H808 C813 0.950 . S
H809 C814 0.947 1_655 S
H810 C816 0.950 . S
H811 C817 0.950 . S
H812 C818 0.949 . S
C813 H808 0.950 . S
C813 C815 1.327 . S
C813 C819 1.429 . S
C814 C806 1.574 1_455 S
C814 H809 0.947 1_455 S
C814 C820 1.368 . S
C815 C799 1.349 . S
C815 H807 0.950 . S
C815 C813 1.327 . S
C816 C804 1.349 . S
C816 H810 0.950 . S
C816 C817 1.327 . S
C817 H811 0.950 . S
C817 C816 1.327 . S
C817 C821 1.429 . S
C818 C801 1.574 . S
C818 H812 0.949 . S
C818 C822 1.368 1_455 S
C819 C800 1.429 . S
C819 C813 1.429 . S
C819 C820 1.523 . S
C820 C801 1.368 . S
C820 C814 1.368 . S
C820 C819 1.523 . S
C821 C805 1.429 . S
C821 C817 1.429 . S
C821 C822 1.523 . S
C822 C806 1.368 . S
C822 C818 1.368 1_655 S
C822 C821 1.523 . S
H823 C798 0.950 . S
H824 C800 0.950 . S
H825 C801 0.949 . S
H826 C803 0.950 . S
H827 C805 0.950 . S
C828 C829 1.349 . S
C828 C830 1.327 . S
C828 H853 0.950 . S
C829 C828 1.349 . S
C829 C845 1.349 . S
C830 C828 1.327 . S
C830 C849 1.429 . S
C830 H854 0.950 . S
C831 C848 1.574 . S
C831 C850 1.368 . S
C831 H855 0.949 . S
H832 C836 0.949 . S
C833 C834 1.349 . S
C833 C835 1.327 . S
C833 H856 0.950 . S
C834 C833 1.349 . S
C834 C846 1.349 . S
C835 C833 1.327 . S
C835 C851 1.429 . S
C835 H857 0.950 . S
C836 H832 0.949 . S
C836 C844 1.574 . S
C836 C852 1.368 . S
H837 C845 0.950 . S
H838 C843 0.950 . S
H839 C844 0.949 . S
H840 C846 0.950 . S
H841 C847 0.950 . S
H842 C848 0.949 . S
C843 H838 0.950 . S
C843 C845 1.327 . S
C843 C849 1.429 . S
C844 C836 1.574 . S
C844 H839 0.949 . S
C844 C850 1.368 . S
C845 C829 1.349 . S
C845 H837 0.950 . S
C845 C843 1.327 . S
C846 C834 1.349 . S
C846 H840 0.950 . S
C846 C847 1.327 . S
C847 H841 0.950 . S
C847 C846 1.327 . S
C847 C851 1.429 . S
C848 C831 1.574 . S
C848 H842 0.949 . S
C848 C852 1.368 . S
C849 C830 1.429 . S
C849 C843 1.429 . S
C849 C850 1.523 . S
C850 C831 1.368 . S
C850 C844 1.368 . S
C850 C849 1.523 . S
C851 C835 1.429 . S
C851 C847 1.429 . S
C851 C852 1.523 . S
C852 C836 1.368 . S
C852 C848 1.368 . S
C852 C851 1.523 . S
H853 C828 0.950 . S
H854 C830 0.950 . S
H855 C831 0.949 . S
H856 C833 0.950 . S
H857 C835 0.950 . S
C858 C859 1.349 . S
C858 C860 1.327 . S
C858 H883 0.950 . S
C859 C858 1.349 . S
C859 C875 1.349 . S
C860 C858 1.327 . S
C860 C879 1.429 . S
C860 H884 0.950 . S
C861 C878 1.574 1_554 S
C861 C880 1.368 . S
C861 H885 0.949 . S
H862 C866 0.949 . S
C863 C864 1.349 . S
C863 C865 1.327 . S
C863 H886 0.950 . S
C864 C863 1.349 . S
C864 C876 1.349 . S
C865 C863 1.327 . S
C865 C881 1.429 . S
C865 H887 0.950 . S
C866 H862 0.949 . S
C866 C874 1.574 1_556 S
C866 C882 1.368 . S
H867 C875 0.950 . S
H868 C873 0.950 . S
H869 C874 0.949 . S
H870 C876 0.950 . S
H871 C877 0.950 . S
H872 C878 0.949 . S
C873 H868 0.950 . S
C873 C875 1.327 . S
C873 C879 1.429 . S
C874 C866 1.574 1_554 S
C874 H869 0.949 . S
C874 C880 1.368 . S
C875 C859 1.349 . S
C875 H867 0.950 . S
C875 C873 1.327 . S
C876 C864 1.349 . S
C876 H870 0.950 . S
C876 C877 1.327 . S
C877 H871 0.950 . S
C877 C876 1.327 . S
C877 C881 1.429 . S
C878 C861 1.574 1_556 S
C878 H872 0.949 . S
C878 C882 1.368 . S
C879 C860 1.429 . S
C879 C873 1.429 . S
C879 C880 1.523 . S
C880 C861 1.368 . S
C880 C874 1.368 . S
C880 C879 1.523 . S
C881 C865 1.429 . S
C881 C877 1.429 . S
C881 C882 1.523 . S
C882 C866 1.368 . S
C882 C878 1.368 . S
C882 C881 1.523 . S
H883 C858 0.950 . S
H884 C860 0.950 . S
H885 C861 0.949 . S
H886 C863 0.950 . S
H887 C865 0.950 . S
C888 C889 1.349 . S
C888 C890 1.327 . S
C888 H913 0.950 . S
C889 C888 1.349 . S
C889 C905 1.349 . S
C890 C888 1.327 . S
C890 C909 1.429 . S
C890 H914 0.950 . S
C891 C908 1.574 . S
C891 C910 1.368 1_565 S
C891 H915 0.949 . S
H892 C896 0.943 1_545 S
C893 C894 1.349 . S
C893 C895 1.327 . S
C893 H916 0.950 . S
C894 C893 1.349 . S
C894 C906 1.349 . S
C895 C893 1.327 . S
C895 C911 1.429 . S
C895 H917 0.950 . S
C896 H892 0.943 1_565 S
C896 C904 1.574 1_565 S
C896 C912 1.368 . S
H897 C905 0.950 . S
H898 C903 0.950 . S
H899 C904 0.949 . S
H900 C906 0.950 . S
H901 C907 0.950 . S
H902 C908 0.949 . S
C903 H898 0.950 . S
C903 C905 1.327 . S
C903 C909 1.429 . S
C904 C896 1.574 1_545 S
C904 H899 0.949 . S
C904 C910 1.368 . S
C905 C889 1.349 . S
C905 H897 0.950 . S
C905 C903 1.327 . S
C906 C894 1.349 . S
C906 H900 0.950 . S
C906 C907 1.327 . S
C907 H901 0.950 . S
C907 C906 1.327 . S
C907 C911 1.429 . S
C908 C891 1.574 . S
C908 H902 0.949 . S
C908 C912 1.368 . S
C909 C890 1.429 . S
C909 C903 1.429 . S
C909 C910 1.523 . S
C910 C891 1.368 1_545 S
C910 C904 1.368 . S
C910 C909 1.523 . S
C911 C895 1.429 . S
C911 C907 1.429 . S
C911 C912 1.523 . S
C912 C896 1.368 . S
C912 C908 1.368 . S
C912 C911 1.523 . S
H913 C888 0.950 . S
H914 C890 0.950 . S
H915 C891 0.949 . S
H916 C893 0.950 . S
H917 C895 0.950 . S
C918 C919 1.349 . S
C918 C920 1.327 . S
C918 H943 0.950 . S
C919 C918 1.349 . S
C919 C935 1.349 . S
C920 C918 1.327 . S
C920 C939 1.429 . S
C920 H944 0.947 . S
C921 C938 1.576 1_656 S
C921 C940 1.368 . S
C921 H945 0.949 . S
H922 C926 0.948 1_554 S
C923 C924 1.349 . S
C923 C925 1.327 . S
C923 H946 0.950 . S
C924 C923 1.349 . S
C924 C936 1.349 . S
C925 C923 1.327 . S
C925 C941 1.429 . S
C925 H947 0.950 . S
C926 H922 0.948 1_556 S
C926 C934 1.579 . S
C926 C942 1.365 1_556 S
H927 C935 0.950 . S
H928 C933 0.950 . S
H929 C934 0.949 . S
H930 C936 0.950 . S
H931 C937 0.950 . S
H932 C938 0.950 1_655 S
C933 H928 0.950 . S
C933 C935 1.327 . S
C933 C939 1.429 . S
C934 C926 1.579 . S
C934 H929 0.949 . S
C934 C940 1.368 1_455 S
C935 C919 1.349 . S
C935 H927 0.950 . S
C935 C933 1.327 . S
C936 C924 1.349 . S
C936 H930 0.950 . S
C936 C937 1.327 . S
C937 H931 0.950 . S
C937 C936 1.327 . S
C937 C941 1.429 . S
C938 C921 1.576 1_454 S
C938 H932 0.950 1_455 S
C938 C942 1.366 . S
C939 C920 1.429 . S
C939 C933 1.429 . S
C939 C940 1.523 . S
C940 C921 1.368 . S
C940 C934 1.368 1_655 S
C940 C939 1.523 . S
C941 C925 1.429 . S
C941 C937 1.429 . S
C941 C942 1.523 . S
C942 C926 1.365 1_554 S
C942 C938 1.366 . S
C942 C941 1.523 . S
H943 C918 0.950 . S
H944 C920 0.947 . S
H945 C921 0.949 . S
H946 C923 0.950 . S
H947 C925 0.950 . S
C948 C949 1.349 . S
C948 C950 1.327 . S
C948 H973 0.950 . S
C949 C948 1.349 . S
C949 C965 1.349 . S
C950 C948 1.327 . S
C950 C969 1.429 . S
C950 H974 0.950 . S
C951 C968 1.574 . S
C951 C970 1.368 . S
C951 H975 0.949 . S
H952 C956 0.949 . S
C953 C954 1.349 . S
C953 C955 1.327 . S
C953 H976 0.950 . S
C954 C953 1.349 . S
C954 C966 1.349 . S
C955 C953 1.327 . S
C955 C971 1.429 . S
C955 H977 0.950 . S
C956 H952 0.949 . S
C956 C964 1.574 . S
C956 C972 1.368 . S
H957 C965 0.950 . S
H958 C963 0.950 . S
H959 C964 0.949 . S
H960 C966 0.950 . S
H961 C967 0.950 . S
H962 C968 0.949 . S
C963 H958 0.950 . S
C963 C965 1.327 . S
C963 C969 1.429 . S
C964 C956 1.574 . S
C964 H959 0.949 . S
C964 C970 1.368 . S
C965 C949 1.349 . S
C965 H957 0.950 . S
C965 C963 1.327 . S
C966 C954 1.349 . S
C966 H960 0.950 . S
C966 C967 1.327 . S
C967 H961 0.950 . S
C967 C966 1.327 . S
C967 C971 1.429 . S
C968 C951 1.574 . S
C968 H962 0.949 . S
C968 C972 1.368 . S
C969 C950 1.429 . S
C969 C963 1.429 . S
C969 C970 1.523 . S
C970 C951 1.368 . S
C970 C964 1.368 . S
C970 C969 1.523 . S
C971 C955 1.429 . S
C971 C967 1.429 . S
C971 C972 1.523 . S
C972 C956 1.368 . S
C972 C968 1.368 . S
C972 C971 1.523 . S
H973 C948 0.950 . S
H974 C950 0.950 . S
H975 C951 0.949 . S
H976 C953 0.950 . S
H977 C955 0.950 . S
C978 C979 1.349 . S
C978 C980 1.327 . S
C978 H1003 0.950 . S
C979 C978 1.349 . S
C979 C995 1.349 . S
C980 C978 1.327 . S
C980 C999 1.429 . S
C980 H1004 0.950 . S
C981 C998 1.574 . S
C981 C1000 1.368 . S
C981 H1005 0.949 . S
H982 C986 0.949 . S
C983 C984 1.349 . S
C983 C985 1.327 . S
C983 H1006 0.950 . S
C984 C983 1.349 . S
C984 C996 1.349 . S
C985 C983 1.327 . S
C985 C1001 1.429 . S
C985 H1007 0.950 . S
C986 H982 0.949 . S
C986 C994 1.574 . S
C986 C1002 1.368 . S
H987 C995 0.950 . S
H988 C993 0.950 . S
H989 C994 0.949 . S
H990 C996 0.950 . S
H991 C997 0.950 . S
H992 C998 0.949 . S
C993 H988 0.950 . S
C993 C995 1.327 . S
C993 C999 1.429 . S
C994 C986 1.574 . S
C994 H989 0.949 . S
C994 C1000 1.368 . S
C995 C979 1.349 . S
C995 H987 0.950 . S
C995 C993 1.327 . S
C996 C984 1.349 . S
C996 H990 0.950 . S
C996 C997 1.327 . S
C997 H991 0.950 . S
C997 C996 1.327 . S
C997 C1001 1.429 . S
C998 C981 1.574 . S
C998 H992 0.949 . S
C998 C1002 1.368 . S
C999 C980 1.429 . S
C999 C993 1.429 . S
C999 C1000 1.523 . S
C1000 C981 1.368 . S
C1000 C994 1.368 . S
C1000 C999 1.523 . S
C1001 C985 1.429 . S
C1001 C997 1.429 . S
C1001 C1002 1.523 . S
C1002 C986 1.368 . S
C1002 C998 1.368 . S
C1002 C1001 1.523 . S
H1003 C978 0.950 . S
H1004 C980 0.950 . S
H1005 C981 0.949 . S
H1006 C983 0.950 . S
H1007 C985 0.950 . S
C1008 C1009 1.349 . S
C1008 C1010 1.327 . S
C1008 H1033 0.950 . S
C1009 C1008 1.349 . S
C1009 C1025 1.349 . S
C1010 C1008 1.327 . S
C1010 C1029 1.429 . S
C1010 H1034 0.950 . S
C1011 C1028 1.574 . S
C1011 C1030 1.368 . S
C1011 H1035 0.949 . S
H1012 C1016 0.949 . S
C1013 C1014 1.349 . S
C1013 C1015 1.327 . S
C1013 H1036 0.950 . S
C1014 C1013 1.349 . S
C1014 C1026 1.349 . S
C1015 C1013 1.327 . S
C1015 C1031 1.429 . S
C1015 H1037 0.950 . S
C1016 H1012 0.949 . S
C1016 C1024 1.574 . S
C1016 C1032 1.368 . S
H1017 C1025 0.950 . S
H1018 C1023 0.950 . S
H1019 C1024 0.949 . S
H1020 C1026 0.950 . S
H1021 C1027 0.950 . S
H1022 C1028 0.949 . S
C1023 H1018 0.950 . S
C1023 C1025 1.327 . S
C1023 C1029 1.429 . S
C1024 C1016 1.574 . S
C1024 H1019 0.949 . S
C1024 C1030 1.368 . S
C1025 C1009 1.349 . S
C1025 H1017 0.950 . S
C1025 C1023 1.327 . S
C1026 C1014 1.349 . S
C1026 H1020 0.950 . S
C1026 C1027 1.327 . S
C1027 H1021 0.950 . S
C1027 C1026 1.327 . S
C1027 C1031 1.429 . S
C1028 C1011 1.574 . S
C1028 H1022 0.949 . S
C1028 C1032 1.368 . S
C1029 C1010 1.429 . S
C1029 C1023 1.429 . S
C1029 C1030 1.523 . S
C1030 C1011 1.368 . S
C1030 C1024 1.368 . S
C1030 C1029 1.523 . S
C1031 C1015 1.429 . S
C1031 C1027 1.429 . S
C1031 C1032 1.523 . S
C1032 C1016 1.368 . S
C1032 C1028 1.368 . S
C1032 C1031 1.523 . S
H1033 C1008 0.950 . S
H1034 C1010 0.950 . S
H1035 C1011 0.949 . S
H1036 C1013 0.950 . S
H1037 C1015 0.950 . S
C1038 C1039 1.349 . S
C1038 C1040 1.327 . S
C1038 H1063 0.950 . S
C1039 C1038 1.349 . S
C1039 C1055 1.349 . S
C1040 C1038 1.327 . S
C1040 C1059 1.429 . S
C1040 H1064 0.950 . S
C1041 C1058 1.574 1_554 S
C1041 C1060 1.368 . S
C1041 H1065 0.949 . S
H1042 C1046 0.949 . S
C1043 C1044 1.349 . S
C1043 C1045 1.327 . S
C1043 H1066 0.950 . S
C1044 C1043 1.349 . S
C1044 C1056 1.349 . S
C1045 C1043 1.327 . S
C1045 C1061 1.429 . S
C1045 H1067 0.950 . S
C1046 H1042 0.949 . S
C1046 C1054 1.574 1_556 S
C1046 C1062 1.368 . S
H1047 C1055 0.950 . S
H1048 C1053 0.950 . S
H1049 C1054 0.949 . S
H1050 C1056 0.950 . S
H1051 C1057 0.950 . S
H1052 C1058 0.949 . S
C1053 H1048 0.950 . S
C1053 C1055 1.327 . S
C1053 C1059 1.429 . S
C1054 C1046 1.574 1_554 S
C1054 H1049 0.949 . S
C1054 C1060 1.368 . S
C1055 C1039 1.349 . S
C1055 H1047 0.950 . S
C1055 C1053 1.327 . S
C1056 C1044 1.349 . S
C1056 H1050 0.950 . S
C1056 C1057 1.327 . S
C1057 H1051 0.950 . S
C1057 C1056 1.327 . S
C1057 C1061 1.429 . S
C1058 C1041 1.574 1_556 S
C1058 H1052 0.949 . S
C1058 C1062 1.368 . S
C1059 C1040 1.429 . S
C1059 C1053 1.429 . S
C1059 C1060 1.523 . S
C1060 C1041 1.368 . S
C1060 C1054 1.368 . S
C1060 C1059 1.523 . S
C1061 C1045 1.429 . S
C1061 C1057 1.429 . S
C1061 C1062 1.523 . S
C1062 C1046 1.368 . S
C1062 C1058 1.368 . S
C1062 C1061 1.523 . S
H1063 C1038 0.950 . S
H1064 C1040 0.950 . S
H1065 C1041 0.949 . S
H1066 C1043 0.950 . S
H1067 C1045 0.950 . S
C1068 C1069 1.349 . S
C1068 C1070 1.327 . S
C1068 H1093 0.950 . S
C1069 C1068 1.349 . S
C1069 C1085 1.349 . S
C1070 C1068 1.327 . S
C1070 C1089 1.429 . S
C1070 H1094 0.950 . S
C1071 C1088 1.574 . S
C1071 C1090 1.368 . S
C1071 H1095 0.949 . S
H1072 C1076 0.949 . S
C1073 C1074 1.349 . S
C1073 C1075 1.327 . S
C1073 H1096 0.950 . S
C1074 C1073 1.349 . S
C1074 C1086 1.349 . S
C1075 C1073 1.327 . S
C1075 C1091 1.429 . S
C1075 H1097 0.950 . S
C1076 H1072 0.949 . S
C1076 C1084 1.574 1_565 S
C1076 C1092 1.368 . S
H1077 C1085 0.950 . S
H1078 C1083 0.950 . S
H1079 C1084 0.949 . S
H1080 C1086 0.950 . S
H1081 C1087 0.950 . S
H1082 C1088 0.949 . S
C1083 H1078 0.950 . S
C1083 C1085 1.327 . S
C1083 C1089 1.429 . S
C1084 C1076 1.574 1_545 S
C1084 H1079 0.949 . S
C1084 C1090 1.368 . S
C1085 C1069 1.349 . S
C1085 H1077 0.950 . S
C1085 C1083 1.327 . S
C1086 C1074 1.349 . S
C1086 H1080 0.950 . S
C1086 C1087 1.327 . S
C1087 H1081 0.950 . S
C1087 C1086 1.327 . S
C1087 C1091 1.429 . S
C1088 C1071 1.574 . S
C1088 H1082 0.949 . S
C1088 C1092 1.368 1_545 S
C1089 C1070 1.429 . S
C1089 C1083 1.429 . S
C1089 C1090 1.523 . S
C1090 C1071 1.368 . S
C1090 C1084 1.368 . S
C1090 C1089 1.523 . S
C1091 C1075 1.429 . S
C1091 C1087 1.429 . S
C1091 C1092 1.523 . S
C1092 C1076 1.368 . S
C1092 C1088 1.368 1_565 S
C1092 C1091 1.523 . S
H1093 C1068 0.950 . S
H1094 C1070 0.950 . S
H1095 C1071 0.949 . S
H1096 C1073 0.950 . S
H1097 C1075 0.950 . S
C1098 C1099 1.349 . S
C1098 C1100 1.327 . S
C1098 H1123 0.950 . S
C1099 C1098 1.349 . S
C1099 C1115 1.349 . S
C1100 C1098 1.327 . S
C1100 C1119 1.429 . S
C1100 H1124 0.950 . S
C1101 C1118 1.574 1_455 S
C1101 C1120 1.368 . S
C1101 H1125 0.949 . S
H1102 C1106 0.949 . S
C1103 C1104 1.349 . S
C1103 C1105 1.327 . S
C1103 H1126 0.950 . S
C1104 C1103 1.349 . S
C1104 C1116 1.349 . S
C1105 C1103 1.327 . S
C1105 C1121 1.429 . S
C1105 H1127 0.950 . S
C1106 H1102 0.949 . S
C1106 C1114 1.574 . S
C1106 C1122 1.368 . S
H1107 C1115 0.950 . S
H1108 C1113 0.950 . S
H1109 C1114 0.949 . S
H1110 C1116 0.950 . S
H1111 C1117 0.950 . S
H1112 C1118 0.949 . S
C1113 H1108 0.950 . S
C1113 C1115 1.327 . S
C1113 C1119 1.429 . S
C1114 C1106 1.574 . S
C1114 H1109 0.949 . S
C1114 C1120 1.368 1_655 S
C1115 C1099 1.349 . S
C1115 H1107 0.950 . S
C1115 C1113 1.327 . S
C1116 C1104 1.349 . S
C1116 H1110 0.950 . S
C1116 C1117 1.327 . S
C1117 H1111 0.950 . S
C1117 C1116 1.327 . S
C1117 C1121 1.429 . S
C1118 C1101 1.574 1_655 S
C1118 H1112 0.949 . S
C1118 C1122 1.368 . S
C1119 C1100 1.429 . S
C1119 C1113 1.429 . S
C1119 C1120 1.523 . S
C1120 C1101 1.368 . S
C1120 C1114 1.368 1_455 S
C1120 C1119 1.523 . S
C1121 C1105 1.429 . S
C1121 C1117 1.429 . S
C1121 C1122 1.523 . S
C1122 C1106 1.368 . S
C1122 C1118 1.368 . S
C1122 C1121 1.523 . S
H1123 C1098 0.950 . S
H1124 C1100 0.950 . S
H1125 C1101 0.949 . S
H1126 C1103 0.950 . S
H1127 C1105 0.950 . S
C1128 C1129 1.349 . S
C1128 C1130 1.327 . S
C1128 H1153 0.950 . S
C1129 C1128 1.349 . S
C1129 C1145 1.349 . S
C1130 C1128 1.327 . S
C1130 C1149 1.429 . S
C1130 H1154 0.950 . S
C1131 C1148 1.574 . S
C1131 C1150 1.368 . S
C1131 H1155 0.949 . S
H1132 C1136 0.949 . S
C1133 C1134 1.349 . S
C1133 C1135 1.327 . S
C1133 H1156 0.950 . S
C1134 C1133 1.349 . S
C1134 C1146 1.349 . S
C1135 C1133 1.327 . S
C1135 C1151 1.429 . S
C1135 H1157 0.950 . S
C1136 H1132 0.949 . S
C1136 C1144 1.574 . S
C1136 C1152 1.368 . S
H1137 C1145 0.950 . S
H1138 C1143 0.950 . S
H1139 C1144 0.949 . S
H1140 C1146 0.950 . S
H1141 C1147 0.950 . S
H1142 C1148 0.949 . S
C1143 H1138 0.950 . S
C1143 C1145 1.327 . S
C1143 C1149 1.429 . S
C1144 C1136 1.574 . S
C1144 H1139 0.949 . S
C1144 C1150 1.368 . S
C1145 C1129 1.349 . S
C1145 H1137 0.950 . S
C1145 C1143 1.327 . S
C1146 C1134 1.349 . S
C1146 H1140 0.950 . S
C1146 C1147 1.327 . S
C1147 H1141 0.950 . S
C1147 C1146 1.327 . S
C1147 C1151 1.429 . S
C1148 C1131 1.574 . S
C1148 H1142 0.949 . S
C1148 C1152 1.368 . S
C1149 C1130 1.429 . S
C1149 C1143 1.429 . S
C1149 C1150 1.523 . S
C1150 C1131 1.368 . S
C1150 C1144 1.368 . S
C1150 C1149 1.523 . S
C1151 C1135 1.429 . S
C1151 C1147 1.429 . S
C1151 C1152 1.523 . S
C1152 C1136 1.368 . S
C1152 C1148 1.368 . S
C1152 C1151 1.523 . S
H1153 C1128 0.950 . S
H1154 C1130 0.950 . S
H1155 C1131 0.949 . S
H1156 C1133 0.950 . S
H1157 C1135 0.950 . S
C1158 C1159 1.349 . S
C1158 C1160 1.327 . S
C1158 H1183 0.950 . S
C1159 C1158 1.349 . S
C1159 C1175 1.349 . S
C1160 C1158 1.327 . S
C1160 C1179 1.429 . S
C1160 H1184 0.950 . S
C1161 C1178 1.574 . S
C1161 C1180 1.368 . S
C1161 H1185 0.949 . S
H1162 C1166 0.949 . S
C1163 C1164 1.349 . S
C1163 C1165 1.327 . S
C1163 H1186 0.950 . S
C1164 C1163 1.349 . S
C1164 C1176 1.349 . S
C1165 C1163 1.327 . S
C1165 C1181 1.429 . S
C1165 H1187 0.950 . S
C1166 H1162 0.949 . S
C1166 C1174 1.574 . S
C1166 C1182 1.368 . S
H1167 C1175 0.950 . S
H1168 C1173 0.950 . S
H1169 C1174 0.949 . S
H1170 C1176 0.950 . S
H1171 C1177 0.950 . S
H1172 C1178 0.949 . S
C1173 H1168 0.950 . S
C1173 C1175 1.327 . S
C1173 C1179 1.429 . S
C1174 C1166 1.574 . S
C1174 H1169 0.949 . S
C1174 C1180 1.368 . S
C1175 C1159 1.349 . S
C1175 H1167 0.950 . S
C1175 C1173 1.327 . S
C1176 C1164 1.349 . S
C1176 H1170 0.950 . S
C1176 C1177 1.327 . S
C1177 H1171 0.950 . S
C1177 C1176 1.327 . S
C1177 C1181 1.429 . S
C1178 C1161 1.574 . S
C1178 H1172 0.949 . S
C1178 C1182 1.368 . S
C1179 C1160 1.429 . S
C1179 C1173 1.429 . S
C1179 C1180 1.523 . S
C1180 C1161 1.368 . S
C1180 C1174 1.368 . S
C1180 C1179 1.523 . S
C1181 C1165 1.429 . S
C1181 C1177 1.429 . S
C1181 C1182 1.523 . S
C1182 C1166 1.368 . S
C1182 C1178 1.368 . S
C1182 C1181 1.523 . S
H1183 C1158 0.950 . S
H1184 C1160 0.950 . S
H1185 C1161 0.949 . S
H1186 C1163 0.950 . S
H1187 C1165 0.950 . S
C1188 C1189 1.349 . S
C1188 C1190 1.327 . S
C1188 H1213 0.950 . S
C1189 C1188 1.349 . S
C1189 C1205 1.349 . S
C1190 C1188 1.327 . S
C1190 C1209 1.429 . S
C1190 H1214 0.950 . S
C1191 C1208 1.574 . S
C1191 C1210 1.368 1_545 S
C1191 H1215 0.949 . S
H1192 C1196 0.949 . S
C1193 C1194 1.349 . S
C1193 C1195 1.327 . S
C1193 H1216 0.950 . S
C1194 C1193 1.349 . S
C1194 C1206 1.349 . S
C1195 C1193 1.327 . S
C1195 C1211 1.429 . S
C1195 H1217 0.950 . S
C1196 H1192 0.949 . S
C1196 C1204 1.574 1_545 S
C1196 C1212 1.368 . S
H1197 C1205 0.950 . S
H1198 C1203 0.950 . S
H1199 C1204 0.949 . S
H1200 C1206 0.950 . S
H1201 C1207 0.950 . S
H1202 C1208 0.949 . S
C1203 H1198 0.950 . S
C1203 C1205 1.327 . S
C1203 C1209 1.429 . S
C1204 C1196 1.574 1_565 S
C1204 H1199 0.949 . S
C1204 C1210 1.368 . S
C1205 C1189 1.349 . S
C1205 H1197 0.950 . S
C1205 C1203 1.327 . S
C1206 C1194 1.349 . S
C1206 H1200 0.950 . S
C1206 C1207 1.327 . S
C1207 H1201 0.950 . S
C1207 C1206 1.327 . S
C1207 C1211 1.429 . S
C1208 C1191 1.574 . S
C1208 H1202 0.949 . S
C1208 C1212 1.368 . S
C1209 C1190 1.429 . S
C1209 C1203 1.429 . S
C1209 C1210 1.523 . S
C1210 C1191 1.368 1_565 S
C1210 C1204 1.368 . S
C1210 C1209 1.523 . S
C1211 C1195 1.429 . S
C1211 C1207 1.429 . S
C1211 C1212 1.523 . S
C1212 C1196 1.368 . S
C1212 C1208 1.368 . S
C1212 C1211 1.523 . S
H1213 C1188 0.950 . S
H1214 C1190 0.950 . S
H1215 C1191 0.949 . S
H1216 C1193 0.950 . S
H1217 C1195 0.950 . S
C1218 C1219 1.349 . S
C1218 C1220 1.327 . S
C1218 H1243 0.950 . S
C1219 C1218 1.349 . S
C1219 C1235 1.349 . S
C1220 C1218 1.327 . S
C1220 C1239 1.429 . S
C1220 H1244 0.950 . S
C1221 C1238 1.574 1_554 S
C1221 C1240 1.368 . S
C1221 H1245 0.949 . S
H1222 C1226 0.949 . S
C1223 C1224 1.349 . S
C1223 C1225 1.327 . S
C1223 H1246 0.950 . S
C1224 C1223 1.349 . S
C1224 C1236 1.349 . S
C1225 C1223 1.327 . S
C1225 C1241 1.429 . S
C1225 H1247 0.950 . S
C1226 H1222 0.949 . S
C1226 C1234 1.574 1_456 S
C1226 C1242 1.368 . S
H1227 C1235 0.950 . S
H1228 C1233 0.950 . S
H1229 C1234 0.953 . S
H1230 C1236 0.950 . S
H1231 C1237 0.950 . S
H1232 C1238 0.949 . S
C1233 H1228 0.950 . S
C1233 C1235 1.327 . S
C1233 C1239 1.429 . S
C1234 C1226 1.574 1_654 S
C1234 H1229 0.953 . S
C1234 C1240 1.368 . S
C1235 C1219 1.349 . S
C1235 H1227 0.950 . S
C1235 C1233 1.327 . S
C1236 C1224 1.349 . S
C1236 H1230 0.950 . S
C1236 C1237 1.327 . S
C1237 H1231 0.950 . S
C1237 C1236 1.327 . S
C1237 C1241 1.429 . S
C1238 C1221 1.574 1_556 S
C1238 H1232 0.949 . S
C1238 C1242 1.368 1_655 S
C1239 C1220 1.429 . S
C1239 C1233 1.429 . S
C1239 C1240 1.523 . S
C1240 C1221 1.368 . S
C1240 C1234 1.368 . S
C1240 C1239 1.523 . S
C1241 C1225 1.429 . S
C1241 C1237 1.429 . S
C1241 C1242 1.523 . S
C1242 C1226 1.368 . S
C1242 C1238 1.368 1_455 S
C1242 C1241 1.523 . S
H1243 C1218 0.950 . S
H1244 C1220 0.950 . S
H1245 C1221 0.949 . S
H1246 C1223 0.950 . S
H1247 C1225 0.950 . S
C1248 C1249 1.349 . S
C1248 C1250 1.327 . S
C1248 H1273 0.950 . S
C1249 C1248 1.349 . S
C1249 C1265 1.349 . S
C1250 C1248 1.327 . S
C1250 C1269 1.429 . S
C1250 H1274 0.950 . S
C1251 C1268 1.574 . S
C1251 C1270 1.368 . S
C1251 H1275 0.949 . S
H1252 C1256 0.949 . S
C1253 C1254 1.349 . S
C1253 C1255 1.327 . S
C1253 H1276 0.950 . S
C1254 C1253 1.349 . S
C1254 C1266 1.349 . S
C1255 C1253 1.327 . S
C1255 C1271 1.429 . S
C1255 H1277 0.950 . S
C1256 H1252 0.949 . S
C1256 C1264 1.574 . S
C1256 C1272 1.368 . S
H1257 C1265 0.950 . S
H1258 C1263 0.950 . S
H1259 C1264 0.949 . S
H1260 C1266 0.950 . S
H1261 C1267 0.950 . S
H1262 C1268 0.949 . S
C1263 H1258 0.950 . S
C1263 C1265 1.327 . S
C1263 C1269 1.429 . S
C1264 C1256 1.574 . S
C1264 H1259 0.949 . S
C1264 C1270 1.368 . S
C1265 C1249 1.349 . S
C1265 H1257 0.950 . S
C1265 C1263 1.327 . S
C1266 C1254 1.349 . S
C1266 H1260 0.950 . S
C1266 C1267 1.327 . S
C1267 H1261 0.950 . S
C1267 C1266 1.327 . S
C1267 C1271 1.429 . S
C1268 C1251 1.574 . S
C1268 H1262 0.949 . S
C1268 C1272 1.368 . S
C1269 C1250 1.429 . S
C1269 C1263 1.429 . S
C1269 C1270 1.523 . S
C1270 C1251 1.368 . S
C1270 C1264 1.368 . S
C1270 C1269 1.523 . S
C1271 C1255 1.429 . S
C1271 C1267 1.429 . S
C1271 C1272 1.523 . S
C1272 C1256 1.368 . S
C1272 C1268 1.368 . S
C1272 C1271 1.523 . S
H1273 C1248 0.950 . S
H1274 C1250 0.950 . S
H1275 C1251 0.949 . S
H1276 C1253 0.950 . S
H1277 C1255 0.950 . S
C1278 C1279 1.349 . S
C1278 C1280 1.327 . S
C1278 H1303 0.950 . S
C1279 C1278 1.349 . S
C1279 C1295 1.349 . S
C1280 C1278 1.327 . S
C1280 C1299 1.429 . S
C1280 H1304 0.950 . S
C1281 C1298 1.574 . S
C1281 C1300 1.368 . S
C1281 H1305 0.949 . S
H1282 C1286 0.949 . S
C1283 C1284 1.349 . S
C1283 C1285 1.327 . S
C1283 H1306 0.950 . S
C1284 C1283 1.349 . S
C1284 C1296 1.349 . S
C1285 C1283 1.327 . S
C1285 C1301 1.429 . S
C1285 H1307 0.950 . S
C1286 H1282 0.949 . S
C1286 C1294 1.574 . S
C1286 C1302 1.368 . S
H1287 C1295 0.950 . S
H1288 C1293 0.950 . S
H1289 C1294 0.949 . S
H1290 C1296 0.950 . S
H1291 C1297 0.950 . S
H1292 C1298 0.949 . S
C1293 H1288 0.950 . S
C1293 C1295 1.327 . S
C1293 C1299 1.429 . S
C1294 C1286 1.574 . S
C1294 H1289 0.949 . S
C1294 C1300 1.368 . S
C1295 C1279 1.349 . S
C1295 H1287 0.950 . S
C1295 C1293 1.327 . S
C1296 C1284 1.349 . S
C1296 H1290 0.950 . S
C1296 C1297 1.327 . S
C1297 H1291 0.950 . S
C1297 C1296 1.327 . S
C1297 C1301 1.429 . S
C1298 C1281 1.574 . S
C1298 H1292 0.949 . S
C1298 C1302 1.368 . S
C1299 C1280 1.429 . S
C1299 C1293 1.429 . S
C1299 C1300 1.523 . S
C1300 C1281 1.368 . S
C1300 C1294 1.368 . S
C1300 C1299 1.523 . S
C1301 C1285 1.429 . S
C1301 C1297 1.429 . S
C1301 C1302 1.523 . S
C1302 C1286 1.368 . S
C1302 C1298 1.368 . S
C1302 C1301 1.523 . S
H1303 C1278 0.950 . S
H1304 C1280 0.950 . S
H1305 C1281 0.949 . S
H1306 C1283 0.950 . S
H1307 C1285 0.950 . S
C1308 C1309 1.349 . S
C1308 C1310 1.327 . S
C1308 H1333 0.950 . S
C1309 C1308 1.349 . S
C1309 C1325 1.349 . S
C1310 C1308 1.327 . S
C1310 C1329 1.429 . S
C1310 H1334 0.950 . S
C1311 C1328 1.574 . S
C1311 C1330 1.368 . S
C1311 H1335 0.949 . S
H1312 C1316 0.949 . S
C1313 C1314 1.349 . S
C1313 C1315 1.327 . S
C1313 H1336 0.950 . S
C1314 C1313 1.349 . S
C1314 C1326 1.349 . S
C1315 C1313 1.327 . S
C1315 C1331 1.429 . S
C1315 H1337 0.950 . S
C1316 H1312 0.949 . S
C1316 C1324 1.574 . S
C1316 C1332 1.368 . S
H1317 C1325 0.950 . S
H1318 C1323 0.950 . S
H1319 C1324 0.949 . S
H1320 C1326 0.950 . S
H1321 C1327 0.950 . S
H1322 C1328 0.949 . S
C1323 H1318 0.950 . S
C1323 C1325 1.327 . S
C1323 C1329 1.429 . S
C1324 C1316 1.574 . S
C1324 H1319 0.949 . S
C1324 C1330 1.368 . S
C1325 C1309 1.349 . S
C1325 H1317 0.950 . S
C1325 C1323 1.327 . S
C1326 C1314 1.349 . S
C1326 H1320 0.950 . S
C1326 C1327 1.327 . S
C1327 H1321 0.950 . S
C1327 C1326 1.327 . S
C1327 C1331 1.429 . S
C1328 C1311 1.574 . S
C1328 H1322 0.949 . S
C1328 C1332 1.368 . S
C1329 C1310 1.429 . S
C1329 C1323 1.429 . S
C1329 C1330 1.523 . S
C1330 C1311 1.368 . S
C1330 C1324 1.368 . S
C1330 C1329 1.523 . S
C1331 C1315 1.429 . S
C1331 C1327 1.429 . S
C1331 C1332 1.523 . S
C1332 C1316 1.368 . S
C1332 C1328 1.368 . S
C1332 C1331 1.523 . S
H1333 C1308 0.950 . S
H1334 C1310 0.950 . S
H1335 C1311 0.949 . S
H1336 C1313 0.950 . S
H1337 C1315 0.950 . S
C1338 C1339 1.349 . S
C1338 C1340 1.327 . S
C1338 H1363 0.950 . S
C1339 C1338 1.349 . S
C1339 C1355 1.349 . S
C1340 C1338 1.327 . S
C1340 C1359 1.429 . S
C1340 H1364 0.950 . S
C1341 C1358 1.574 . S
C1341 C1360 1.368 . S
C1341 H1365 0.949 . S
H1342 C1346 0.949 . S
C1343 C1344 1.349 . S
C1343 C1345 1.327 . S
C1343 H1366 0.950 . S
C1344 C1343 1.349 . S
C1344 C1356 1.349 . S
C1345 C1343 1.327 . S
C1345 C1361 1.429 . S
C1345 H1367 0.950 . S
C1346 H1342 0.949 . S
C1346 C1354 1.574 . S
C1346 C1362 1.368 . S
H1347 C1355 0.950 . S
H1348 C1353 0.950 . S
H1349 C1354 0.949 . S
H1350 C1356 0.950 . S
H1351 C1357 0.950 . S
H1352 C1358 0.949 . S
C1353 H1348 0.950 . S
C1353 C1355 1.327 . S
C1353 C1359 1.429 . S
C1354 C1346 1.574 . S
C1354 H1349 0.949 . S
C1354 C1360 1.368 . S
C1355 C1339 1.349 . S
C1355 H1347 0.950 . S
C1355 C1353 1.327 . S
C1356 C1344 1.349 . S
C1356 H1350 0.950 . S
C1356 C1357 1.327 . S
C1357 H1351 0.950 . S
C1357 C1356 1.327 . S
C1357 C1361 1.429 . S
C1358 C1341 1.574 . S
C1358 H1352 0.949 . S
C1358 C1362 1.368 . S
C1359 C1340 1.429 . S
C1359 C1353 1.429 . S
C1359 C1360 1.523 . S
C1360 C1341 1.368 . S
C1360 C1354 1.368 . S
C1360 C1359 1.523 . S
C1361 C1345 1.429 . S
C1361 C1357 1.429 . S
C1361 C1362 1.523 . S
C1362 C1346 1.368 . S
C1362 C1358 1.368 . S
C1362 C1361 1.523 . S
H1363 C1338 0.950 . S
H1364 C1340 0.950 . S
H1365 C1341 0.949 . S
H1366 C1343 0.950 . S
H1367 C1345 0.950 . S
C1368 C1369 1.349 . S
C1368 C1370 1.327 . S
C1368 H1393 0.950 . S
C1369 C1368 1.349 . S
C1369 C1385 1.349 . S
C1370 C1368 1.327 . S
C1370 C1389 1.429 . S
C1370 H1394 0.950 . S
C1371 C1388 1.574 . S
C1371 C1390 1.368 . S
C1371 H1395 0.949 . S
H1372 C1376 0.949 . S
C1373 C1374 1.349 . S
C1373 C1375 1.327 . S
C1373 H1396 0.950 . S
C1374 C1373 1.349 . S
C1374 C1386 1.349 . S
C1375 C1373 1.327 . S
C1375 C1391 1.429 . S
C1375 H1397 0.950 . S
C1376 H1372 0.949 . S
C1376 C1384 1.574 . S
C1376 C1392 1.368 . S
H1377 C1385 0.950 . S
H1378 C1383 0.950 . S
H1379 C1384 0.949 . S
H1380 C1386 0.950 . S
H1381 C1387 0.950 . S
H1382 C1388 0.949 . S
C1383 H1378 0.950 . S
C1383 C1385 1.327 . S
C1383 C1389 1.429 . S
C1384 C1376 1.574 . S
C1384 H1379 0.949 . S
C1384 C1390 1.368 . S
C1385 C1369 1.349 . S
C1385 H1377 0.950 . S
C1385 C1383 1.327 . S
C1386 C1374 1.349 . S
C1386 H1380 0.950 . S
C1386 C1387 1.327 . S
C1387 H1381 0.950 . S
C1387 C1386 1.327 . S
C1387 C1391 1.429 . S
C1388 C1371 1.574 . S
C1388 H1382 0.949 . S
C1388 C1392 1.368 . S
C1389 C1370 1.429 . S
C1389 C1383 1.429 . S
C1389 C1390 1.523 . S
C1390 C1371 1.368 . S
C1390 C1384 1.368 . S
C1390 C1389 1.523 . S
C1391 C1375 1.429 . S
C1391 C1387 1.429 . S
C1391 C1392 1.523 . S
C1392 C1376 1.368 . S
C1392 C1388 1.368 . S
C1392 C1391 1.523 . S
H1393 C1368 0.950 . S
H1394 C1370 0.950 . S
H1395 C1371 0.949 . S
H1396 C1373 0.950 . S
H1397 C1375 0.950 . S
C1398 C1399 1.349 . S
C1398 C1400 1.327 . S
C1398 H1423 0.950 . S
C1399 C1398 1.349 . S
C1399 C1415 1.349 . S
C1400 C1398 1.327 . S
C1400 C1419 1.429 . S
C1400 H1424 0.950 . S
C1401 C1418 1.574 . S
C1401 C1420 1.368 . S
C1401 H1425 0.949 . S
H1402 C1406 0.949 . S
C1403 C1404 1.349 . S
C1403 C1405 1.327 . S
C1403 H1426 0.950 1_556 S
C1404 C1403 1.349 . S
C1404 C1416 1.349 . S
C1405 C1403 1.327 . S
C1405 C1421 1.429 . S
C1405 H1427 0.950 . S
C1406 H1402 0.949 . S
C1406 C1414 1.574 . S
C1406 C1422 1.368 . S
H1407 C1415 0.950 . S
H1408 C1413 0.950 . S
H1409 C1414 0.949 . S
H1410 C1416 0.950 . S
H1411 C1417 0.950 . S
H1412 C1418 0.949 . S
C1413 H1408 0.950 . S
C1413 C1415 1.327 . S
C1413 C1419 1.429 . S
C1414 C1406 1.574 . S
C1414 H1409 0.949 . S
C1414 C1420 1.368 . S
C1415 C1399 1.349 . S
C1415 H1407 0.950 . S
C1415 C1413 1.327 . S
C1416 C1404 1.349 . S
C1416 H1410 0.950 . S
C1416 C1417 1.327 . S
C1417 H1411 0.950 . S
C1417 C1416 1.327 . S
C1417 C1421 1.429 . S
C1418 C1401 1.574 . S
C1418 H1412 0.949 . S
C1418 C1422 1.368 . S
C1419 C1400 1.429 . S
C1419 C1413 1.429 . S
C1419 C1420 1.523 . S
C1420 C1401 1.368 . S
C1420 C1414 1.368 . S
C1420 C1419 1.523 . S
C1421 C1405 1.429 . S
C1421 C1417 1.429 . S
C1421 C1422 1.523 . S
C1422 C1406 1.368 . S
C1422 C1418 1.368 . S
C1422 C1421 1.523 . S
H1423 C1398 0.950 . S
H1424 C1400 0.950 . S
H1425 C1401 0.949 . S
H1426 C1403 0.950 1_554 S
H1427 C1405 0.950 . S
C1428 C1429 1.349 . S
C1428 C1430 1.327 . S
C1428 H1453 0.950 . S
C1429 C1428 1.349 . S
C1429 C1445 1.349 . S
C1430 C1428 1.327 . S
C1430 C1449 1.429 . S
C1430 H1454 0.950 . S
C1431 C1448 1.574 . S
C1431 C1450 1.368 . S
C1431 H1455 0.949 . S
H1432 C1436 0.949 . S
C1433 C1434 1.349 . S
C1433 C1435 1.327 . S
C1433 H1456 0.950 . S
C1434 C1433 1.349 . S
C1434 C1446 1.349 . S
C1435 C1433 1.327 . S
C1435 C1451 1.429 . S
C1435 H1457 0.950 . S
C1436 H1432 0.949 . S
C1436 C1444 1.574 . S
C1436 C1452 1.368 . S
H1437 C1445 0.950 . S
H1438 C1443 0.950 . S
H1439 C1444 0.949 . S
H1440 C1446 0.950 . S
H1441 C1447 0.950 . S
H1442 C1448 0.949 . S
C1443 H1438 0.950 . S
C1443 C1445 1.327 . S
C1443 C1449 1.429 . S
C1444 C1436 1.574 . S
C1444 H1439 0.949 . S
C1444 C1450 1.368 . S
C1445 C1429 1.349 . S
C1445 H1437 0.950 . S
C1445 C1443 1.327 . S
C1446 C1434 1.349 . S
C1446 H1440 0.950 . S
C1446 C1447 1.327 . S
C1447 H1441 0.950 . S
C1447 C1446 1.327 . S
C1447 C1451 1.429 . S
C1448 C1431 1.574 . S
C1448 H1442 0.949 . S
C1448 C1452 1.368 . S
C1449 C1430 1.429 . S
C1449 C1443 1.429 . S
C1449 C1450 1.523 . S
C1450 C1431 1.368 . S
C1450 C1444 1.368 . S
C1450 C1449 1.523 . S
C1451 C1435 1.429 . S
C1451 C1447 1.429 . S
C1451 C1452 1.523 . S
C1452 C1436 1.368 . S
C1452 C1448 1.368 . S
C1452 C1451 1.523 . S
H1453 C1428 0.950 . S
H1454 C1430 0.950 . S
H1455 C1431 0.949 . S
H1456 C1433 0.950 . S
H1457 C1435 0.950 . S
C1458 C1459 1.349 . S
C1458 C1460 1.327 . S
C1458 H1483 0.950 . S
C1459 C1458 1.349 . S
C1459 C1475 1.349 . S
C1460 C1458 1.327 . S
C1460 C1479 1.429 . S
C1460 H1484 0.950 . S
C1461 C1478 1.574 . S
C1461 C1480 1.368 . S
C1461 H1485 0.949 . S
H1462 C1466 0.949 . S
C1463 C1464 1.349 . S
C1463 C1465 1.327 . S
C1463 H1486 0.950 . S
C1464 C1463 1.349 . S
C1464 C1476 1.349 . S
C1465 C1463 1.327 . S
C1465 C1481 1.429 . S
C1465 H1487 0.950 . S
C1466 H1462 0.949 . S
C1466 C1474 1.574 . S
C1466 C1482 1.368 . S
H1467 C1475 0.950 . S
H1468 C1473 0.950 . S
H1469 C1474 0.949 . S
H1470 C1476 0.950 . S
H1471 C1477 0.950 . S
H1472 C1478 0.949 . S
C1473 H1468 0.950 . S
C1473 C1475 1.327 . S
C1473 C1479 1.429 . S
C1474 C1466 1.574 . S
C1474 H1469 0.949 . S
C1474 C1480 1.368 . S
C1475 C1459 1.349 . S
C1475 H1467 0.950 . S
C1475 C1473 1.327 . S
C1476 C1464 1.349 . S
C1476 H1470 0.950 . S
C1476 C1477 1.327 . S
C1477 H1471 0.950 . S
C1477 C1476 1.327 . S
C1477 C1481 1.429 . S
C1478 C1461 1.574 . S
C1478 H1472 0.949 . S
C1478 C1482 1.368 . S
C1479 C1460 1.429 . S
C1479 C1473 1.429 . S
C1479 C1480 1.523 . S
C1480 C1461 1.368 . S
C1480 C1474 1.368 . S
C1480 C1479 1.523 . S
C1481 C1465 1.429 . S
C1481 C1477 1.429 . S
C1481 C1482 1.523 . S
C1482 C1466 1.368 . S
C1482 C1478 1.368 . S
C1482 C1481 1.523 . S
H1483 C1458 0.950 . S
H1484 C1460 0.950 . S
H1485 C1461 0.949 . S
H1486 C1463 0.950 . S
H1487 C1465 0.950 . S
C1488 C1489 1.349 . S
C1488 C1490 1.327 . S
C1488 H1513 0.950 . S
C1489 C1488 1.349 . S
C1489 C1505 1.349 . S
C1490 C1488 1.327 . S
C1490 C1509 1.429 . S
C1490 H1514 0.950 . S
C1491 C1508 1.574 . S
C1491 C1510 1.368 . S
C1491 H1515 0.949 . S
H1492 C1496 0.949 . S
C1493 C1494 1.349 . S
C1493 C1495 1.327 . S
C1493 H1516 0.950 . S
C1494 C1493 1.349 . S
C1494 C1506 1.349 . S
C1495 C1493 1.327 . S
C1495 C1511 1.429 . S
C1495 H1517 0.950 . S
C1496 H1492 0.949 . S
C1496 C1504 1.574 . S
C1496 C1512 1.368 . S
H1497 C1505 0.950 . S
H1498 C1503 0.950 . S
H1499 C1504 0.949 . S
H1500 C1506 0.950 . S
H1501 C1507 0.950 . S
H1502 C1508 0.949 . S
C1503 H1498 0.950 . S
C1503 C1505 1.327 . S
C1503 C1509 1.429 . S
C1504 C1496 1.574 . S
C1504 H1499 0.949 . S
C1504 C1510 1.368 . S
C1505 C1489 1.349 . S
C1505 H1497 0.950 . S
C1505 C1503 1.327 . S
C1506 C1494 1.349 . S
C1506 H1500 0.950 . S
C1506 C1507 1.327 . S
C1507 H1501 0.950 . S
C1507 C1506 1.327 . S
C1507 C1511 1.429 . S
C1508 C1491 1.574 . S
C1508 H1502 0.949 . S
C1508 C1512 1.368 . S
C1509 C1490 1.429 . S
C1509 C1503 1.429 . S
C1509 C1510 1.523 . S
C1510 C1491 1.368 . S
C1510 C1504 1.368 . S
C1510 C1509 1.523 . S
C1511 C1495 1.429 . S
C1511 C1507 1.429 . S
C1511 C1512 1.523 . S
C1512 C1496 1.368 . S
C1512 C1508 1.368 . S
C1512 C1511 1.523 . S
H1513 C1488 0.950 . S
H1514 C1490 0.950 . S
H1515 C1491 0.949 . S
H1516 C1493 0.950 . S
H1517 C1495 0.950 . S
C1518 C1519 1.349 . S
C1518 C1520 1.327 . S
C1518 H1543 0.950 . S
C1519 C1518 1.349 . S
C1519 C1535 1.349 . S
C1520 C1518 1.327 . S
C1520 C1539 1.429 . S
C1520 H1544 0.950 . S
C1521 C1538 1.574 . S
C1521 C1540 1.368 . S
C1521 H1545 0.949 . S
H1522 C1526 0.949 . S
C1523 C1524 1.349 . S
C1523 C1525 1.327 . S
C1523 H1546 0.950 . S
C1524 C1523 1.349 . S
C1524 C1536 1.349 . S
C1525 C1523 1.327 . S
C1525 C1541 1.429 . S
C1525 H1547 0.950 . S
C1526 H1522 0.949 . S
C1526 C1534 1.574 . S
C1526 C1542 1.368 . S
H1527 C1535 0.950 . S
H1528 C1533 0.950 . S
H1529 C1534 0.949 . S
H1530 C1536 0.950 . S
H1531 C1537 0.950 . S
H1532 C1538 0.949 . S
C1533 H1528 0.950 . S
C1533 C1535 1.327 . S
C1533 C1539 1.429 . S
C1534 C1526 1.574 . S
C1534 H1529 0.949 . S
C1534 C1540 1.368 . S
C1535 C1519 1.349 . S
C1535 H1527 0.950 . S
C1535 C1533 1.327 . S
C1536 C1524 1.349 . S
C1536 H1530 0.950 . S
C1536 C1537 1.327 . S
C1537 H1531 0.950 . S
C1537 C1536 1.327 . S
C1537 C1541 1.429 . S
C1538 C1521 1.574 . S
C1538 H1532 0.949 . S
C1538 C1542 1.368 . S
C1539 C1520 1.429 . S
C1539 C1533 1.429 . S
C1539 C1540 1.523 . S
C1540 C1521 1.368 . S
C1540 C1534 1.368 . S
C1540 C1539 1.523 . S
C1541 C1525 1.429 . S
C1541 C1537 1.429 . S
C1541 C1542 1.523 . S
C1542 C1526 1.368 . S
C1542 C1538 1.368 . S
C1542 C1541 1.523 . S
H1543 C1518 0.950 . S
H1544 C1520 0.950 . S
H1545 C1521 0.949 . S
H1546 C1523 0.950 . S
H1547 C1525 0.950 . S
C1548 C1549 1.349 . S
C1548 C1550 1.327 . S
C1548 H1573 0.950 . S
C1549 C1548 1.349 . S
C1549 C1565 1.349 . S
C1550 C1548 1.327 . S
C1550 C1569 1.429 . S
C1550 H1574 0.950 . S
C1551 C1568 1.574 . S
C1551 C1570 1.368 . S
C1551 H1575 0.949 . S
H1552 C1556 0.949 . S
C1553 C1554 1.349 . S
C1553 C1555 1.327 . S
C1553 H1576 0.950 . S
C1554 C1553 1.349 . S
C1554 C1566 1.349 . S
C1555 C1553 1.327 . S
C1555 C1571 1.429 . S
C1555 H1577 0.950 . S
C1556 H1552 0.949 . S
C1556 C1564 1.574 . S
C1556 C1572 1.368 . S
H1557 C1565 0.950 1_556 S
H1558 C1563 0.950 . S
H1559 C1564 0.949 . S
H1560 C1566 0.950 . S
H1561 C1567 0.950 . S
H1562 C1568 0.949 . S
C1563 H1558 0.950 . S
C1563 C1565 1.327 . S
C1563 C1569 1.429 . S
C1564 C1556 1.574 . S
C1564 H1559 0.949 . S
C1564 C1570 1.368 . S
C1565 C1549 1.349 . S
C1565 H1557 0.950 1_554 S
C1565 C1563 1.327 . S
C1566 C1554 1.349 . S
C1566 H1560 0.950 . S
C1566 C1567 1.327 . S
C1567 H1561 0.950 . S
C1567 C1566 1.327 . S
C1567 C1571 1.429 . S
C1568 C1551 1.574 . S
C1568 H1562 0.949 . S
C1568 C1572 1.368 . S
C1569 C1550 1.429 . S
C1569 C1563 1.429 . S
C1569 C1570 1.523 . S
C1570 C1551 1.368 . S
C1570 C1564 1.368 . S
C1570 C1569 1.523 . S
C1571 C1555 1.429 . S
C1571 C1567 1.429 . S
C1571 C1572 1.523 . S
C1572 C1556 1.368 . S
C1572 C1568 1.368 . S
C1572 C1571 1.523 . S
H1573 C1548 0.950 . S
H1574 C1550 0.950 . S
H1575 C1551 0.949 . S
H1576 C1553 0.950 . S
H1577 C1555 0.950 . S
C1578 C1579 1.349 . S
C1578 C1580 1.327 . S
C1578 H1603 0.950 . S
C1579 C1578 1.349 . S
C1579 C1595 1.349 . S
C1580 C1578 1.327 . S
C1580 C1599 1.429 . S
C1580 H1604 0.950 . S
C1581 C1598 1.574 . S
C1581 C1600 1.368 . S
C1581 H1605 0.949 . S
H1582 C1586 0.949 . S
C1583 C1584 1.349 . S
C1583 C1585 1.327 . S
C1583 H1606 0.950 . S
C1584 C1583 1.349 . S
C1584 C1596 1.349 . S
C1585 C1583 1.327 . S
C1585 C1601 1.429 . S
C1585 H1607 0.950 . S
C1586 H1582 0.949 . S
C1586 C1594 1.574 . S
C1586 C1602 1.368 . S
H1587 C1595 0.950 . S
H1588 C1593 0.950 . S
H1589 C1594 0.949 . S
H1590 C1596 0.950 . S
H1591 C1597 0.950 . S
H1592 C1598 0.949 . S
C1593 H1588 0.950 . S
C1593 C1595 1.327 . S
C1593 C1599 1.429 . S
C1594 C1586 1.574 . S
C1594 H1589 0.949 . S
C1594 C1600 1.368 . S
C1595 C1579 1.349 . S
C1595 H1587 0.950 . S
C1595 C1593 1.327 . S
C1596 C1584 1.349 . S
C1596 H1590 0.950 . S
C1596 C1597 1.327 . S
C1597 H1591 0.950 . S
C1597 C1596 1.327 . S
C1597 C1601 1.429 . S
C1598 C1581 1.574 . S
C1598 H1592 0.949 . S
C1598 C1602 1.368 . S
C1599 C1580 1.429 . S
C1599 C1593 1.429 . S
C1599 C1600 1.523 . S
C1600 C1581 1.368 . S
C1600 C1594 1.368 . S
C1600 C1599 1.523 . S
C1601 C1585 1.429 . S
C1601 C1597 1.429 . S
C1601 C1602 1.523 . S
C1602 C1586 1.368 . S
C1602 C1598 1.368 . S
C1602 C1601 1.523 . S
H1603 C1578 0.950 . S
H1604 C1580 0.950 . S
H1605 C1581 0.949 . S
H1606 C1583 0.950 . S
H1607 C1585 0.950 . S
C1608 C1609 1.349 . S
C1608 C1610 1.327 . S
C1608 H1633 0.950 . S
C1609 C1608 1.349 . S
C1609 C1625 1.349 . S
C1610 C1608 1.327 . S
C1610 C1629 1.429 . S
C1610 H1634 0.950 . S
C1611 C1628 1.574 . S
C1611 C1630 1.368 . S
C1611 H1635 0.949 . S
H1612 C1616 0.949 . S
C1613 C1614 1.349 . S
C1613 C1615 1.327 . S
C1613 H1636 0.950 . S
C1614 C1613 1.349 . S
C1614 C1626 1.349 . S
C1615 C1613 1.327 . S
C1615 C1631 1.429 . S
C1615 H1637 0.950 . S
C1616 H1612 0.949 . S
C1616 C1624 1.574 . S
C1616 C1632 1.368 . S
H1617 C1625 0.950 . S
H1618 C1623 0.950 . S
H1619 C1624 0.949 . S
H1620 C1626 0.950 . S
H1621 C1627 0.950 . S
H1622 C1628 0.949 . S
C1623 H1618 0.950 . S
C1623 C1625 1.327 . S
C1623 C1629 1.429 . S
C1624 C1616 1.574 . S
C1624 H1619 0.949 . S
C1624 C1630 1.368 . S
C1625 C1609 1.349 . S
C1625 H1617 0.950 . S
C1625 C1623 1.327 . S
C1626 C1614 1.349 . S
C1626 H1620 0.950 . S
C1626 C1627 1.327 . S
C1627 H1621 0.950 . S
C1627 C1626 1.327 . S
C1627 C1631 1.429 . S
C1628 C1611 1.574 . S
C1628 H1622 0.949 . S
C1628 C1632 1.368 . S
C1629 C1610 1.429 . S
C1629 C1623 1.429 . S
C1629 C1630 1.523 . S
C1630 C1611 1.368 . S
C1630 C1624 1.368 . S
C1630 C1629 1.523 . S
C1631 C1615 1.429 . S
C1631 C1627 1.429 . S
C1631 C1632 1.523 . S
C1632 C1616 1.368 . S
C1632 C1628 1.368 . S
C1632 C1631 1.523 . S
H1633 C1608 0.950 . S
H1634 C1610 0.950 . S
H1635 C1611 0.949 . S
H1636 C1613 0.950 . S
H1637 C1615 0.950 . S
C1638 C1639 1.349 . S
C1638 C1640 1.327 . S
C1638 H1663 0.950 . S
C1639 C1638 1.349 . S
C1639 C1655 1.349 . S
C1640 C1638 1.327 . S
C1640 C1659 1.429 . S
C1640 H1664 0.950 . S
C1641 C1658 1.574 . S
C1641 C1660 1.368 . S
C1641 H1665 0.949 . S
H1642 C1646 0.949 . S
C1643 C1644 1.349 . S
C1643 C1645 1.327 . S
C1643 H1666 0.950 . S
C1644 C1643 1.349 . S
C1644 C1656 1.349 . S
C1645 C1643 1.327 . S
C1645 C1661 1.429 . S
C1645 H1667 0.950 . S
C1646 H1642 0.949 . S
C1646 C1654 1.574 . S
C1646 C1662 1.368 . S
H1647 C1655 0.950 . S
H1648 C1653 0.950 . S
H1649 C1654 0.949 . S
H1650 C1656 0.950 . S
H1651 C1657 0.950 . S
H1652 C1658 0.949 . S
C1653 H1648 0.950 . S
C1653 C1655 1.327 . S
C1653 C1659 1.429 . S
C1654 C1646 1.574 . S
C1654 H1649 0.949 . S
C1654 C1660 1.368 . S
C1655 C1639 1.349 . S
C1655 H1647 0.950 . S
C1655 C1653 1.327 . S
C1656 C1644 1.349 . S
C1656 H1650 0.950 . S
C1656 C1657 1.327 . S
C1657 H1651 0.950 . S
C1657 C1656 1.327 . S
C1657 C1661 1.429 . S
C1658 C1641 1.574 . S
C1658 H1652 0.949 . S
C1658 C1662 1.368 . S
C1659 C1640 1.429 . S
C1659 C1653 1.429 . S
C1659 C1660 1.523 . S
C1660 C1641 1.368 . S
C1660 C1654 1.368 . S
C1660 C1659 1.523 . S
C1661 C1645 1.429 . S
C1661 C1657 1.429 . S
C1661 C1662 1.523 . S
C1662 C1646 1.368 . S
C1662 C1658 1.368 . S
C1662 C1661 1.523 . S
H1663 C1638 0.950 . S
H1664 C1640 0.950 . S
H1665 C1641 0.949 . S
H1666 C1643 0.950 . S
H1667 C1645 0.950 . S
C1668 C1669 1.349 . S
C1668 C1670 1.327 . S
C1668 H1693 0.950 . S
C1669 C1668 1.349 . S
C1669 C1685 1.349 . S
C1670 C1668 1.327 . S
C1670 C1689 1.429 . S
C1670 H1694 0.950 . S
C1671 C1688 1.574 . S
C1671 C1690 1.368 . S
C1671 H1695 0.949 . S
H1672 C1676 0.949 . S
C1673 C1674 1.349 . S
C1673 C1675 1.327 . S
C1673 H1696 0.950 . S
C1674 C1673 1.349 . S
C1674 C1686 1.349 . S
C1675 C1673 1.327 . S
C1675 C1691 1.429 . S
C1675 H1697 0.950 . S
C1676 H1672 0.949 . S
C1676 C1684 1.574 . S
C1676 C1692 1.368 . S
H1677 C1685 0.950 . S
H1678 C1683 0.950 . S
H1679 C1684 0.949 . S
H1680 C1686 0.950 . S
H1681 C1687 0.950 . S
H1682 C1688 0.949 . S
C1683 H1678 0.950 . S
C1683 C1685 1.327 . S
C1683 C1689 1.429 . S
C1684 C1676 1.574 . S
C1684 H1679 0.949 . S
C1684 C1690 1.368 . S
C1685 C1669 1.349 . S
C1685 H1677 0.950 . S
C1685 C1683 1.327 . S
C1686 C1674 1.349 . S
C1686 H1680 0.950 . S
C1686 C1687 1.327 . S
C1687 H1681 0.950 . S
C1687 C1686 1.327 . S
C1687 C1691 1.429 . S
C1688 C1671 1.574 . S
C1688 H1682 0.949 . S
C1688 C1692 1.368 . S
C1689 C1670 1.429 . S
C1689 C1683 1.429 . S
C1689 C1690 1.523 . S
C1690 C1671 1.368 . S
C1690 C1684 1.368 . S
C1690 C1689 1.523 . S
C1691 C1675 1.429 . S
C1691 C1687 1.429 . S
C1691 C1692 1.523 . S
C1692 C1676 1.368 . S
C1692 C1688 1.368 . S
C1692 C1691 1.523 . S
H1693 C1668 0.950 . S
H1694 C1670 0.950 . S
H1695 C1671 0.949 . S
H1696 C1673 0.950 . S
H1697 C1675 0.950 . S
C1698 C1699 1.349 . S
C1698 C1700 1.327 . S
C1698 H1723 0.950 . S
C1699 C1698 1.349 . S
C1699 C1715 1.349 . S
C1700 C1698 1.327 . S
C1700 C1719 1.429 . S
C1700 H1724 0.950 . S
C1701 C1718 1.574 . S
C1701 C1720 1.368 . S
C1701 H1725 0.949 . S
H1702 C1706 0.949 . S
C1703 C1704 1.349 . S
C1703 C1705 1.327 . S
C1703 H1726 0.950 . S
C1704 C1703 1.349 . S
C1704 C1716 1.349 . S
C1705 C1703 1.327 . S
C1705 C1721 1.429 . S
C1705 H1727 0.950 . S
C1706 H1702 0.949 . S
C1706 C1714 1.574 . S
C1706 C1722 1.368 . S
H1707 C1715 0.950 . S
H1708 C1713 0.950 . S
H1709 C1714 0.949 . S
H1710 C1716 0.950 . S
H1711 C1717 0.950 . S
H1712 C1718 0.949 . S
C1713 H1708 0.950 . S
C1713 C1715 1.327 . S
C1713 C1719 1.429 . S
C1714 C1706 1.574 . S
C1714 H1709 0.949 . S
C1714 C1720 1.368 . S
C1715 C1699 1.349 . S
C1715 H1707 0.950 . S
C1715 C1713 1.327 . S
C1716 C1704 1.349 . S
C1716 H1710 0.950 . S
C1716 C1717 1.327 . S
C1717 H1711 0.950 . S
C1717 C1716 1.327 . S
C1717 C1721 1.429 . S
C1718 C1701 1.574 . S
C1718 H1712 0.949 . S
C1718 C1722 1.368 . S
C1719 C1700 1.429 . S
C1719 C1713 1.429 . S
C1719 C1720 1.523 . S
C1720 C1701 1.368 . S
C1720 C1714 1.368 . S
C1720 C1719 1.523 . S
C1721 C1705 1.429 . S
C1721 C1717 1.429 . S
C1721 C1722 1.523 . S
C1722 C1706 1.368 . S
C1722 C1718 1.368 . S
C1722 C1721 1.523 . S
H1723 C1698 0.950 . S
H1724 C1700 0.950 . S
H1725 C1701 0.949 . S
H1726 C1703 0.950 . S
H1727 C1705 0.950 . S
C529 N332 1.429 . S
C534 N2 1.429 . S
C559 N35 1.429 . S
C564 N365 1.429 . S
C589 N266 1.429 . S
C594 N68 1.429 . S
C619 N101 1.429 . S
C624 N299 1.429 . S
C649 N464 1.429 . S
C654 N134 1.429 . S
C679 N167 1.429 . S
C684 N497 1.429 . S
C709 N200 1.429 . S
C714 N398 1.429 . S
C739 N431 1.429 . S
C744 N233 1.429 . S
C769 C480 0.767 . S
C774 C7 0.766 . S
C799 C513 0.767 . S
C804 C40 0.766 . S
C829 C73 0.766 . S
C834 C414 0.767 . S
C859 C447 0.767 . S
C864 C106 0.766 . S
C889 C139 0.766 . S
C894 C348 0.767 . S
C919 C172 0.766 . S
C924 C381 0.767 . S
C949 C282 0.767 . S
C954 C205 0.766 . S
C979 C238 0.766 . S
C984 C315 0.767 . S
C1009 C216 0.767 . S
C1014 C271 0.766 . S
C1039 C249 0.767 . S
C1044 C304 0.766 . S
C1069 C150 0.767 . S
C1074 C337 0.766 . S
C1099 C370 0.766 . S
C1104 C183 0.767 . S
C1129 C403 0.766 . S
C1134 C84 0.767 . S
C1159 C436 0.766 . S
C1164 C117 0.767 . S
C1189 C469 0.766 . S
C1194 C18 0.767 . S
C1219 C51 0.767 . S
C1224 C502 0.766 . S
C1249 N376 1.747 . S
C1254 C21 1.728 . S
C1279 C54 1.728 . S
C1284 N277 1.746 . S
C1309 C87 1.729 . S
C1314 N310 1.747 . S
C1339 C120 1.728 . S
C1344 N343 1.746 . S
C1369 N178 1.747 . S
C1374 C153 1.728 . S
C1399 C186 1.728 . S
C1404 N211 1.747 . S
C1429 N244 1.747 . S
C1434 C219 1.728 . S
C1459 C252 1.728 . S
C1464 N145 1.746 . S
C1489 N112 1.747 . S
C1494 C285 1.729 . S
C1519 C318 1.728 . S
C1524 N13 1.746 . S
C1549 C351 1.728 . S
C1554 N46 1.747 . S
C1579 N79 1.746 . S
C1584 C384 1.728 . S
C1609 N442 1.747 . S
C1614 C417 1.728 . S
C1639 N475 1.746 . S
C1644 C450 1.728 . S
C1669 C483 1.728 . S
C1674 N508 1.747 . S
C1699 N409 1.747 . S
C1704 C516 1.728 . S
