# Generated by pormake.
# Topology sne, (6)-cn, num edge types: 1
# Building blocks:
#     Node 0, Type 0, BuildingBlock: IZENUY_clean_sbu_0, # of connection points: 6
#     Node 1, Type 0, BuildingBlock: IZENUY_clean_sbu_0, # of connection points: 6
#     Node 2, Type 0, BuildingBlock: IZENUY_clean_sbu_0, # of connection points: 6
#     Node 3, Type 0, BuildingBlock: IZENUY_clean_sbu_0, # of connection points: 6
#     Node 4, Type 0, BuildingBlock: IZENUY_clean_sbu_0, # of connection points: 6
#     Node 5, Type 0, BuildingBlock: IZENUY_clean_sbu_0, # of connection points: 6
#     Node 6, Type 0, BuildingBlock: IZENUY_clean_sbu_0, # of connection points: 6
#     Node 7, Type 0, BuildingBlock: IZENUY_clean_sbu_0, # of connection points: 6
#     Edge 8, Type (0, 0), BuildingBlock: XIVTED_clean_linker_0, # of connection points: 2
#     Edge 9, Type (0, 0), BuildingBlock: XIVTED_clean_linker_0, # of connection points: 2
#     Edge 10, Type (0, 0), BuildingBlock: XIVTED_clean_linker_0, # of connection points: 2
#     Edge 11, Type (0, 0), BuildingBlock: XIVTED_clean_linker_0, # of connection points: 2
#     Edge 12, Type (0, 0), BuildingBlock: XIVTED_clean_linker_0, # of connection points: 2
#     Edge 13, Type (0, 0), BuildingBlock: XIVTED_clean_linker_0, # of connection points: 2
#     Edge 14, Type (0, 0), BuildingBlock: XIVTED_clean_linker_0, # of connection points: 2
#     Edge 15, Type (0, 0), BuildingBlock: XIVTED_clean_linker_0, # of connection points: 2
#     Edge 16, Type (0, 0), BuildingBlock: XIVTED_clean_linker_0, # of connection points: 2
#     Edge 17, Type (0, 0), BuildingBlock: XIVTED_clean_linker_0, # of connection points: 2
#     Edge 18, Type (0, 0), BuildingBlock: XIVTED_clean_linker_0, # of connection points: 2
#     Edge 19, Type (0, 0), BuildingBlock: XIVTED_clean_linker_0, # of connection points: 2
#     Edge 20, Type (0, 0), BuildingBlock: XIVTED_clean_linker_0, # of connection points: 2
#     Edge 21, Type (0, 0), BuildingBlock: XIVTED_clean_linker_0, # of connection points: 2
#     Edge 22, Type (0, 0), BuildingBlock: XIVTED_clean_linker_0, # of connection points: 2
#     Edge 23, Type (0, 0), BuildingBlock: XIVTED_clean_linker_0, # of connection points: 2
#     Edge 24, Type (0, 0), BuildingBlock: XIVTED_clean_linker_0, # of connection points: 2
#     Edge 25, Type (0, 0), BuildingBlock: XIVTED_clean_linker_0, # of connection points: 2
#     Edge 26, Type (0, 0), BuildingBlock: XIVTED_clean_linker_0, # of connection points: 2
#     Edge 27, Type (0, 0), BuildingBlock: XIVTED_clean_linker_0, # of connection points: 2
#     Edge 28, Type (0, 0), BuildingBlock: XIVTED_clean_linker_0, # of connection points: 2
#     Edge 29, Type (0, 0), BuildingBlock: XIVTED_clean_linker_0, # of connection points: 2
#     Edge 30, Type (0, 0), BuildingBlock: XIVTED_clean_linker_0, # of connection points: 2
#     Edge 31, Type (0, 0), BuildingBlock: XIVTED_clean_linker_0, # of connection points: 2
# Relax obj value: 0.265
# Max RMSD: 0.254
# Mean RMSD: 0.252
data_MOF--net-sne--node1-IZENUY_clean_sbu_0--edge1-XIVTED_clean_linker_0
_symmetry_space_group_name_H-M    P1
_symmetry_Int_Tables_number       1
_symmetry_cell_setting            triclinic
loop_
_symmetry_equiv_pos_as_xyz
'x, y, z'
_cell_length_a     35.408646
_cell_length_b     34.89399
_cell_length_c     26.653947
_cell_angle_alpha  89.705785
_cell_angle_beta   90.335281
_cell_angle_gamma 89.769982
loop_
_atom_site_label
_atom_site_type_symbol
_atom_site_fract_x
_atom_site_fract_y
_atom_site_fract_z
_atom_type_partial_charge
Fe0 Fe 0.26031 0.20201 0.37207 0.0
Fe1 Fe 0.221 0.12888 0.33667 0.0
O2 O 0.26002 0.15124 0.36623 0.0
Fe3 Fe 0.29876 0.1244 0.39028 0.0
O4 O 0.29301 0.14478 0.45296 0.0
O5 O 0.29137 0.2038 0.42622 0.0
O6 O 0.21966 0.19996 0.41393 0.0
C7 C 0.18912 0.18305 0.40231 0.0
C8 C 0.33093 0.18596 0.33735 0.0
O9 O 0.18683 0.16226 0.36348 0.0
C10 C 0.28365 0.08535 0.30243 0.0
O11 O 0.22949 0.21177 0.31917 0.0
O12 O 0.22684 0.15764 0.27933 0.0
O13 O 0.33328 0.16039 0.37126 0.0
O14 O 0.30076 0.20503 0.33022 0.0
C15 C 0.23588 0.07789 0.41472 0.0
O16 O 0.24872 0.09177 0.30642 0.0
O17 O 0.30769 0.10092 0.33083 0.0
C18 C 0.22647 0.19379 0.27881 0.0
O19 O 0.21196 0.09782 0.39055 0.0
O20 O 0.27081 0.08419 0.41153 0.0
C21 C 0.29555 0.18014 0.46136 0.0
Fe22 Fe 0.18589 0.75059 0.59019 0.0
Fe23 Fe 0.11332 0.78778 0.62793 0.0
O24 O 0.13618 0.75171 0.59278 0.0
Fe25 Fe 0.10913 0.71693 0.56058 0.0
O26 O 0.1302 0.6789 0.59649 0.0
O27 O 0.18924 0.69755 0.58965 0.0
O28 O 0.18995 0.74652 0.65695 0.0
C29 C 0.17872 0.77149 0.68693 0.0
C30 C 0.17086 0.73046 0.49448 0.0
O31 O 0.15179 0.79376 0.6747 0.0
C32 C 0.06521 0.77885 0.5428 0.0
O33 O 0.19091 0.80359 0.59014 0.0
O34 O 0.13218 0.82446 0.5883 0.0
O35 O 0.14309 0.71024 0.50844 0.0
O36 O 0.18549 0.75439 0.52341 0.0
C37 C 0.0699 0.72745 0.65281 0.0
O38 O 0.07097 0.78921 0.58772 0.0
O39 O 0.08553 0.7533 0.52313 0.0
C40 C 0.16664 0.82948 0.57957 0.0
O41 O 0.09249 0.75249 0.66893 0.0
O42 O 0.07086 0.71672 0.60732 0.0
C43 C 0.16494 0.67245 0.60166 0.0
Fe44 Fe 0.73663 0.81462 0.37174 0.0
Fe45 Fe 0.70014 0.89272 0.39067 0.0
O46 O 0.73902 0.86543 0.36894 0.0
Fe47 Fe 0.77977 0.88789 0.34448 0.0
O48 O 0.77626 0.86173 0.28525 0.0
O49 O 0.76795 0.8056 0.31967 0.0
O50 O 0.69691 0.81491 0.32767 0.0
C51 C 0.66656 0.83287 0.33654 0.0
C52 C 0.80769 0.82881 0.40754 0.0
O53 O 0.6649 0.85765 0.37095 0.0
C54 C 0.76269 0.93833 0.42021 0.0
O55 O 0.70489 0.8127 0.42505 0.0
O56 O 0.70446 0.87126 0.4536 0.0
O57 O 0.81202 0.8527 0.3721 0.0
O58 O 0.77634 0.81252 0.41547 0.0
C59 C 0.71943 0.93302 0.30503 0.0
O60 O 0.72795 0.93278 0.41303 0.0
O61 O 0.78715 0.91671 0.40062 0.0
C62 C 0.70188 0.83555 0.46116 0.0
O63 O 0.69367 0.91641 0.32976 0.0
O64 O 0.75396 0.92663 0.31401 0.0
C65 C 0.77589 0.82569 0.28206 0.0
Fe66 Fe 0.8898 0.30521 0.57616 0.0
Fe67 Fe 0.88699 0.22521 0.62555 0.0
O68 O 0.8638 0.26552 0.59885 0.0
Fe69 Fe 0.81363 0.26654 0.59477 0.0
O70 O 0.81129 0.29783 0.53991 0.0
O71 O 0.86956 0.29957 0.51327 0.0
O72 O 0.93008 0.27747 0.55543 0.0
C73 C 0.93663 0.24226 0.54963 0.0
C74 C 0.82993 0.33847 0.62888 0.0
O75 O 0.91602 0.2172 0.57006 0.0
C76 C 0.82514 0.22901 0.68682 0.0
O77 O 0.91248 0.31332 0.63681 0.0
O78 O 0.92432 0.25273 0.65497 0.0
O79 O 0.81185 0.30775 0.63692 0.0
O80 O 0.85415 0.34032 0.59425 0.0
C81 C 0.83054 0.19389 0.56287 0.0
O82 O 0.86068 0.22978 0.68411 0.0
O83 O 0.80526 0.23545 0.64847 0.0
C84 C 0.92983 0.28801 0.66226 0.0
O85 O 0.85344 0.19107 0.59943 0.0
O86 O 0.81368 0.22523 0.55284 0.0
C87 C 0.83452 0.30171 0.50473 0.0
Fe88 Fe 0.2887 0.38987 0.83649 0.0
Fe89 Fe 0.24343 0.31952 0.87018 0.0
O90 O 0.24811 0.37018 0.86551 0.0
Fe91 Fe 0.21184 0.39968 0.88994 0.0
O92 O 0.20439 0.42416 0.83015 0.0
O93 O 0.26377 0.42954 0.80658 0.0
O94 O 0.28071 0.36267 0.77892 0.0
C95 C 0.27879 0.32666 0.77756 0.0
C96 C 0.27846 0.4408 0.91438 0.0
O97 O 0.27274 0.30801 0.81697 0.0
C98 C 0.21169 0.34261 0.96036 0.0
O99 O 0.32019 0.35342 0.86327 0.0
O100 O 0.28439 0.31687 0.91181 0.0
O101 O 0.2431 0.43731 0.91163 0.0
O102 O 0.30059 0.4195 0.89013 0.0
C103 C 0.17372 0.34176 0.83688 0.0
O104 O 0.21296 0.31951 0.92455 0.0
O105 O 0.21667 0.37789 0.95252 0.0
C106 C 0.3161 0.33147 0.90094 0.0
O107 O 0.20244 0.32092 0.82858 0.0
O108 O 0.17414 0.36705 0.87089 0.0
C109 C 0.22933 0.43851 0.80206 0.0
Fe110 Fe 0.3109 0.76975 0.08606 0.0
Fe111 Fe 0.38558 0.81086 0.06719 0.0
O112 O 0.36071 0.77129 0.09256 0.0
Fe113 Fe 0.38443 0.73353 0.12426 0.0
O114 O 0.35271 0.69654 0.09997 0.0
O115 O 0.3142 0.72687 0.04735 0.0
O116 O 0.3086 0.7985 0.02893 0.0
C117 C 0.33244 0.80189 -0.00556 0.0
C118 C 0.32091 0.73753 0.1816 0.0
O119 O 0.36727 0.8012 0.00429 0.0
C120 C 0.42363 0.8001 0.1564 0.0
O121 O 0.30654 0.8123 0.12497 0.0
O122 O 0.3478 0.84539 0.08085 0.0
O123 O 0.35637 0.74019 0.18079 0.0
O124 O 0.30215 0.74073 0.14164 0.0
C125 C 0.43554 0.7484 0.04943 0.0
O126 O 0.40651 0.82317 0.1274 0.0
O127 O 0.41979 0.76424 0.15284 0.0
C128 C 0.32255 0.84367 0.11431 0.0
O129 O 0.42749 0.78362 0.05079 0.0
O130 O 0.41516 0.72381 0.07118 0.0
C131 C 0.33068 0.69649 0.06224 0.0
Fe132 Fe 0.79805 0.62629 0.89308 0.0
Fe133 Fe 0.75973 0.70402 0.87419 0.0
O134 O 0.75845 0.65309 0.87177 0.0
Fe135 Fe 0.71749 0.6302 0.84838 0.0
O136 O 0.71113 0.60233 0.90589 0.0
O137 O 0.77082 0.5872 0.9193 0.0
O138 O 0.79602 0.6487 0.95506 0.0
C139 C 0.79844 0.68434 0.96181 0.0
C140 C 0.77679 0.58316 0.81128 0.0
O141 O 0.79323 0.70705 0.92577 0.0
C142 C 0.72057 0.69208 0.78469 0.0
O143 O 0.83201 0.661 0.86911 0.0
O144 O 0.79815 0.70504 0.82902 0.0
O145 O 0.74252 0.59065 0.81955 0.0
O146 O 0.80294 0.60093 0.8337 0.0
C147 C 0.6899 0.68793 0.9117 0.0
O148 O 0.7267 0.71204 0.82293 0.0
O149 O 0.72071 0.65593 0.78821 0.0
C150 C 0.82846 0.68601 0.83473 0.0
O151 O 0.72118 0.70457 0.91951 0.0
O152 O 0.68544 0.66569 0.87475 0.0
C153 C 0.73618 0.5823 0.92784 0.0
Fe154 Fe 0.69041 0.25108 0.09769 0.0
Fe155 Fe 0.61762 0.28909 0.13369 0.0
O156 O 0.64065 0.25275 0.0992 0.0
Fe157 Fe 0.61348 0.21828 0.0666 0.0
O158 O 0.63337 0.18021 0.10314 0.0
O159 O 0.69298 0.19777 0.09893 0.0
O160 O 0.69384 0.24803 0.16461 0.0
C161 C 0.68265 0.27346 0.19391 0.0
C162 C 0.67652 0.22992 0.0018 0.0
O163 O 0.65566 0.29544 0.18109 0.0
C164 C 0.57053 0.28049 0.04748 0.0
O165 O 0.69572 0.30431 0.09606 0.0
O166 O 0.63691 0.32521 0.09409 0.0
O167 O 0.64798 0.21061 0.01522 0.0
O168 O 0.69112 0.25381 0.03081 0.0
C169 C 0.57345 0.2295 0.15819 0.0
O170 O 0.57556 0.29063 0.09267 0.0
O171 O 0.59108 0.25489 0.02838 0.0
C172 C 0.67134 0.33013 0.08516 0.0
O173 O 0.5964 0.25407 0.17459 0.0
O174 O 0.57457 0.21884 0.11262 0.0
C175 C 0.66782 0.17309 0.10982 0.0
H176 H 0.26224 0.07342 0.2058 0.0
H177 H 0.30811 0.85263 0.21384 0.0
H178 H 0.32813 0.0244 0.32673 0.0
H179 H 0.31625 0.91524 0.0744 0.0
H180 H 0.30189 0.91384 0.25858 0.0
H181 H 0.2708 0.01403 0.15793 0.0
C182 C 0.27917 0.05038 0.22167 0.0
C183 C 0.29505 0.05374 0.26972 0.0
C184 C 0.30475 0.91397 0.21814 0.0
C185 C 0.30319 0.98568 0.21676 0.0
C186 C 0.30774 0.87923 0.19266 0.0
C187 C 0.31248 0.87915 0.14053 0.0
C188 C 0.30562 0.94853 0.19097 0.0
C189 C 0.31257 0.91428 0.11469 0.0
C190 C 0.2838 0.0166 0.19464 0.0
C191 C 0.31613 0.023 0.28933 0.0
N192 N 0.30895 0.94767 0.14016 0.0
N193 N 0.31908 0.98985 0.26306 0.0
H194 H 0.02529 0.66401 0.64748 0.0
H195 H 0.85626 0.75518 0.80203 0.0
H196 H 0.03638 0.77249 0.72318 0.0
H197 H 0.87598 0.63318 0.79739 0.0
H198 H 0.91635 0.76507 0.75751 0.0
H199 H 0.9644 0.65446 0.6891 0.0
C200 C 0.01509 0.68554 0.67328 0.0
C201 C 0.03597 0.71884 0.68238 0.0
C202 C 0.90722 0.7362 0.76612 0.0
C203 C 0.96621 0.70881 0.72838 0.0
C204 C 0.87298 0.73061 0.79096 0.0
C205 C 0.86158 0.6934 0.8034 0.0
C206 C 0.92932 0.70428 0.75289 0.0
C207 C 0.88414 0.66234 0.78871 0.0
C208 C 0.9804 0.68019 0.69674 0.0
C209 C 0.02139 0.74613 0.71573 0.0
N210 N 0.91693 0.66845 0.76405 0.0
N211 N 0.98713 0.74071 0.73717 0.0
H212 H 0.64971 0.96291 0.27827 0.0
H213 H 0.73789 0.14398 0.13721 0.0
H214 H 0.7691 0.97499 0.24981 0.0
H215 H 0.61937 0.11509 0.13175 0.0
H216 H 0.7504 0.08244 0.17949 0.0
H217 H 0.63785 0.0193 0.22511 0.0
C218 C 0.67333 0.9771 0.26057 0.0
C219 C 0.71041 0.96429 0.26899 0.0
C220 C 0.72173 0.0896 0.16852 0.0
C221 C 0.69721 0.02898 0.20872 0.0
C222 C 0.71464 0.12467 0.14436 0.0
C223 C 0.67758 0.13495 0.13108 0.0
C224 C 0.69148 0.06495 0.17979 0.0
C225 C 0.64845 0.10872 0.14146 0.0
C226 C 0.66661 0.00931 0.23028 0.0
C227 C 0.73999 0.98389 0.2449 0.0
N228 N 0.65599 0.07523 0.16549 0.0
N229 N 0.73278 0.01539 0.21637 0.0
H230 H 0.11839 0.39389 0.81801 0.0
H231 H 0.97157 0.23999 0.72134 0.0
H232 H 0.14731 0.27494 0.79575 0.0
H233 H 0.96231 0.35904 0.67721 0.0
H234 H 0.03088 0.25384 0.76345 0.0
H235 H 0.05693 0.38269 0.77842 0.0
C236 C 0.11175 0.36538 0.80475 0.0
C237 C 0.13778 0.33515 0.81036 0.0
C238 C 0.0158 0.27695 0.74472 0.0
C239 C 0.06758 0.32225 0.76582 0.0
C240 C 0.98173 0.26923 0.72089 0.0
C241 C 0.96205 0.29835 0.69497 0.0
C242 C 0.03026 0.31417 0.74342 0.0
C243 C 0.97659 0.3357 0.69647 0.0
C244 C 0.07679 0.35914 0.78208 0.0
C245 C 0.12803 0.29896 0.79208 0.0
N246 N 0.01003 0.34256 0.72019 0.0
N247 N 0.09344 0.2934 0.77103 0.0
H248 H 0.31963 0.67931 0.96285 0.0
H249 H 0.26254 0.46351 0.00895 0.0
H250 H 0.32235 0.62889 0.11094 0.0
H251 H 0.32412 0.49623 0.8766 0.0
H252 H 0.27583 0.52649 0.04535 0.0
H253 H 0.31107 0.61477 0.92723 0.0
C254 C 0.31791 0.65474 -0.01226 0.0
C255 C 0.32161 0.6592 0.03975 0.0
C256 C 0.28692 0.51964 0.00867 0.0
C257 C 0.31192 0.58613 -0.00023 0.0
C258 C 0.27961 0.48376 -0.01183 0.0
C259 C 0.29294 0.47471 0.94032 0.0
C260 C 0.30654 0.547 0.9803 0.0
C261 C 0.31415 0.50205 0.91414 0.0
C262 C 0.31351 0.61807 0.9675 0.0
C263 C 0.31971 0.62654 0.07057 0.0
N264 N 0.31986 0.53736 0.93417 0.0
N265 N 0.31471 0.59141 0.05016 0.0
H266 H 0.66892 0.75602 0.95577 0.0
H267 H 0.46605 0.67613 0.0377 0.0
H268 H 0.634 0.63886 0.93476 0.0
H269 H 0.49112 0.7963 0.01736 0.0
H270 H 0.53062 0.66066 0.0115 0.0
H271 H 0.60703 0.77004 -0.00685 0.0
C272 C 0.6485 0.7332 0.95989 0.0
C273 C 0.65618 0.69644 0.94172 0.0
C274 C 0.52179 0.69039 0.01274 0.0
C275 C 0.58583 0.71206 -0.01627 0.0
C276 C 0.48492 0.69919 0.02739 0.0
C277 C 0.47296 0.73751 0.0294 0.0
C278 C 0.5469 0.72014 0.00062 0.0
C279 C 0.49884 0.76628 0.01604 0.0
C280 C 0.61316 0.7412 0.98071 0.0
C281 C 0.62882 0.66778 0.94771 0.0
N282 N 0.53454 0.75701 0.00244 0.0
N283 N 0.5948 0.67621 0.96795 0.0
H284 H 0.62403 0.38296 0.044 0.0
H285 H 0.78292 0.53772 -0.01442 0.0
H286 H 0.74213 0.36368 0.07759 0.0
H287 H 0.66617 0.5495 0.93999 0.0
H288 H 0.768 0.47699 0.02616 0.0
H289 H 0.639 0.4458 0.01141 0.0
C290 C 0.65328 0.39195 0.04472 0.0
C291 C 0.68192 0.36788 0.06399 0.0
C292 C 0.74561 0.49294 0.00758 0.0
C293 C 0.69921 0.44059 0.02609 0.0
C294 C 0.75399 0.52776 -0.01551 0.0
C295 C 0.72576 0.54867 0.95878 0.0
C296 C 0.70871 0.4788 0.00516 0.0
C297 C 0.68883 0.5344 0.95917 0.0
C298 C 0.66175 0.42802 0.02591 0.0
C299 C 0.71921 0.38121 0.06313 0.0
N300 N 0.68145 0.5002 0.98167 0.0
N301 N 0.72681 0.41683 0.04453 0.0
H302 H 0.5279 0.34471 0.06103 0.0
H303 H 0.34518 0.26068 0.92512 0.0
H304 H 0.52997 0.23758 0.98084 0.0
H305 H 0.36481 0.38191 0.94037 0.0
H306 H 0.4084 0.24818 0.96121 0.0
H307 H 0.46358 0.3562 0.02992 0.0
C308 C 0.51496 0.32389 0.03636 0.0
C309 C 0.53434 0.29039 0.02305 0.0
C310 C 0.39854 0.27745 0.95706 0.0
C311 C 0.46064 0.30265 -0.01111 0.0
C312 C 0.3625 0.28449 0.93717 0.0
C313 C 0.35014 0.32229 0.93013 0.0
C314 C 0.42164 0.30849 0.97055 0.0
C315 C 0.37359 0.35236 0.94537 0.0
C316 C 0.47829 0.33033 0.01891 0.0
C317 C 0.5162 0.26408 -0.00861 0.0
N318 N 0.40824 0.34484 0.96496 0.0
N319 N 0.48014 0.27058 0.97575 0.0
H320 H 0.72619 0.53323 0.7708 0.0
H321 H 0.87783 0.39778 0.64292 0.0
H322 H 0.84614 0.55395 0.78282 0.0
H323 H 0.7655 0.35971 0.67992 0.0
H324 H 0.86576 0.45786 0.68626 0.0
H325 H 0.73919 0.47326 0.72835 0.0
C326 C 0.75537 0.52544 0.76416 0.0
C327 C 0.78519 0.54885 0.78067 0.0
C328 C 0.84378 0.43637 0.68507 0.0
C329 C 0.80006 0.47964 0.7319 0.0
C330 C 0.85051 0.40211 0.66016 0.0
C331 C 0.82241 0.37382 0.65743 0.0
C332 C 0.80851 0.44279 0.70696 0.0
C333 C 0.78785 0.38077 0.68107 0.0
C334 C 0.76267 0.49091 0.7402 0.0
C335 C 0.82229 0.5369 0.77085 0.0
N336 N 0.78171 0.41481 0.70451 0.0
N337 N 0.82869 0.50309 0.74699 0.0
H338 H 0.54181 0.27429 0.23041 0.0
H339 H 0.37798 0.13247 0.30075 0.0
H340 H 0.52633 0.16793 0.15097 0.0
H341 H 0.36088 0.25482 0.30644 0.0
H342 H 0.43729 0.14256 0.25645 0.0
H343 H 0.48076 0.26489 0.2711 0.0
C344 C 0.52587 0.24863 0.22215 0.0
C345 C 0.5392 0.22163 0.1875 0.0
C346 C 0.42045 0.16718 0.26706 0.0
C347 C 0.46954 0.21107 0.23363 0.0
C348 C 0.38675 0.16151 0.29238 0.0
C349 C 0.36476 0.19295 0.30719 0.0
C350 C 0.43273 0.20457 0.25761 0.0
C351 C 0.37712 0.22995 0.29535 0.0
C352 C 0.49088 0.24364 0.24486 0.0
C353 C 0.51708 0.1893 0.17757 0.0
N354 N 0.41077 0.23484 0.27174 0.0
N355 N 0.48336 0.18475 0.20084 0.0
H356 H 0.23646 0.64671 0.62652 0.0
H357 H 0.15859 0.46407 0.77428 0.0
H358 H 0.11929 0.61259 0.62611 0.0
H359 H 0.27727 0.48353 0.74788 0.0
H360 H 0.14369 0.51846 0.71927 0.0
H361 H 0.25255 0.58667 0.67001 0.0
C362 C 0.21423 0.62649 0.63499 0.0
C363 C 0.17649 0.63489 0.6229 0.0
C364 C 0.17299 0.51059 0.72525 0.0
C365 C 0.19453 0.56655 0.67303 0.0
C366 C 0.18148 0.47958 0.75672 0.0
C367 C 0.21921 0.46931 0.76601 0.0
C368 C 0.20244 0.53171 0.70335 0.0
C369 C 0.24773 0.49039 0.74198 0.0
C370 C 0.22338 0.59227 0.65988 0.0
C371 C 0.14879 0.6076 0.63493 0.0
N372 N 0.23877 0.52076 0.71216 0.0
N373 N 0.15832 0.57491 0.65966 0.0
H374 H 0.59973 0.81675 0.37969 0.0
H375 H 0.48058 0.84774 0.12909 0.0
H376 H 0.65293 0.83045 0.23572 0.0
H377 H 0.43951 0.77943 0.25229 0.0
H378 H 0.54126 0.85463 0.17336 0.0
H379 H 0.53815 0.81301 0.33784 0.0
C380 C 0.59835 0.81822 0.33909 0.0
C381 C 0.6312 0.82328 0.31082 0.0
C382 C 0.51867 0.8387 0.19094 0.0
C383 C 0.5611 0.82071 0.26312 0.0
C384 C 0.48395 0.83542 0.16625 0.0
C385 C 0.4551 0.81343 0.1876 0.0
C386 C 0.52409 0.82034 0.23743 0.0
C387 C 0.46109 0.79694 0.23502 0.0
C388 C 0.56332 0.81639 0.31536 0.0
C389 C 0.62813 0.82577 0.25851 0.0
N390 N 0.49498 0.80071 0.25844 0.0
N391 N 0.59348 0.8249 0.23619 0.0
H392 H 0.87824 0.13488 0.54515 0.0
H393 H 0.71605 0.99314 0.45841 0.0
H394 H 0.76325 0.17165 0.51956 0.0
H395 H 0.83426 0.96745 0.43635 0.0
H396 H 0.73298 0.05645 0.48829 0.0
H397 H 0.8629 0.0723 0.5102 0.0
C398 C 0.84975 0.12981 0.53173 0.0
C399 C 0.82183 0.15834 0.53553 0.0
C400 C 0.75524 0.037 0.47695 0.0
C401 C 0.80403 0.08655 0.4962 0.0
C402 C 0.7457 1.00058 0.46025 0.0
C403 C 0.77381 0.97473 0.44457 0.0
C404 C 0.79324 0.04782 0.47873 0.0
C405 C 0.81165 0.98631 0.44803 0.0
C406 C 0.84109 0.0941 0.51177 0.0
C407 C 0.78556 0.15045 0.5172 0.0
N408 N 0.82027 0.02206 0.46479 0.0
N409 N 0.77754 0.11502 0.49887 0.0
H410 H 0.13159 0.13318 0.41476 0.0
H411 H 0.98972 0.29093 0.51293 0.0
H412 H 0.16656 0.24772 0.45299 0.0
H413 H 0.96714 0.17018 0.53284 0.0
H414 H 0.05227 0.27539 0.48267 0.0
H415 H 0.06993 0.14576 0.4521 0.0
C416 C 0.12631 0.16095 0.4314 0.0
C417 C 0.15401 0.18967 0.43042 0.0
C418 C 0.03371 0.25226 0.49367 0.0
C419 C 0.08343 0.20426 0.47251 0.0
C420 C 0.99769 0.261 0.5106 0.0
C421 C 0.97289 0.23176 0.52571 0.0
C422 C 0.04522 0.21395 0.49091 0.0
C423 C 0.9852 0.19362 0.52159 0.0
C424 C 0.09118 0.168 0.45278 0.0
C425 C 0.14595 0.22488 0.45296 0.0
N426 N 0.02057 0.18577 0.5044 0.0
N427 N 0.11111 0.2314 0.47251 0.0
H428 H 0.23839 0.85751 0.56378 0.0
H429 H 0.16411 0.04922 0.42823 0.0
H430 H 0.12036 0.88707 0.54706 0.0
H431 H 0.28102 0.02852 0.46761 0.0
H432 H 0.14732 0.98946 0.47114 0.0
H433 H 0.25486 0.91977 0.52702 0.0
C434 C 0.21601 0.87705 0.55259 0.0
C435 C 0.17801 0.86703 0.55866 0.0
C436 C 0.17662 0.99821 0.47056 0.0
C437 C 0.1965 0.93804 0.51646 0.0
C438 C 0.18617 0.03235 0.44614 0.0
C439 C 0.22402 0.04387 0.44395 0.0
C440 C 0.20515 0.97541 0.49264 0.0
C441 C 0.25144 0.0208 0.46796 0.0
C442 C 0.22537 0.91259 0.5317 0.0
C443 C 0.1501 0.89352 0.54336 0.0
N444 N 0.2415 0.98763 0.49094 0.0
N445 N 0.1599 0.92765 0.52286 0.0
H446 H 0.02199 0.84204 0.55983 0.0
H447 H 0.83912 0.75786 0.42325 0.0
H448 H 0.0241 0.73668 0.47572 0.0
H449 H 0.85367 0.87794 0.45475 0.0
H450 H 0.90313 0.74544 0.45657 0.0
H451 H 0.95673 0.85264 0.53253 0.0
C452 C 0.00886 0.82145 0.53501 0.0
C453 C 0.02852 0.78863 0.51967 0.0
C454 C 0.89199 0.77439 0.45673 0.0
C455 C 0.95368 0.79993 0.48963 0.0
C456 C 0.85545 0.78131 0.4385 0.0
C457 C 0.84145 0.81885 0.43677 0.0
C458 C 0.91402 0.80526 0.47364 0.0
C459 C 0.8637 0.84857 0.45579 0.0
C460 C 0.97161 0.82736 0.51974 0.0
C461 C 0.0101 0.76264 0.48786 0.0
N462 N 0.89895 0.84117 0.47341 0.0
N463 N 0.97351 0.76866 0.47422 0.0
H464 H 0.17277 0.278 0.98135 0.0
H465 H 0.23838 0.26997 0.2674 0.0
H466 H 0.23499 0.36894 0.05281 0.0
H467 H 0.20171 0.17043 0.18497 0.0
H468 H 0.22864 0.30925 0.19307 0.0
H469 H 0.17287 0.24236 0.06007 0.0
C470 C 0.18593 0.2908 0.01399 0.0
C471 C 0.20431 0.32635 0.01049 0.0
C472 C 0.2226 0.27889 0.19115 0.0
C473 C 0.20486 0.28528 0.10062 0.0
C474 C 0.22807 0.25627 0.23363 0.0
C475 C 0.2207 0.21667 0.23253 0.0
C476 C 0.20947 0.26204 0.14693 0.0
C477 C 0.20778 0.20074 0.18749 0.0
C478 C 0.18616 0.27025 0.05879 0.0
C479 C 0.22048 0.3417 0.05397 0.0
N480 N 0.20249 0.22356 0.14639 0.0
N481 N 0.22076 0.32081 0.09728 0.0
H482 H 0.27494 0.84849 0.96648 0.0
H483 H 0.23974 0.73006 0.71866 0.0
H484 H 0.35513 0.76719 0.908 0.0
H485 H 0.17273 0.82943 0.75661 0.0
H486 H 0.28248 0.74437 0.78738 0.0
H487 H 0.23917 0.84529 0.88803 0.0
C488 C 0.28551 0.83073 0.93637 0.0
C489 C 0.31787 0.80797 0.94341 0.0
C490 C 0.25857 0.76319 0.78066 0.0
C491 C 0.27653 0.80317 0.85448 0.0
C492 C 0.23382 0.75489 0.7416 0.0
C493 C 0.20239 0.77859 0.73178 0.0
C494 C 0.25182 0.79521 0.81081 0.0
C495 C 0.19642 0.81027 0.76296 0.0
C496 C 0.26499 0.82875 0.89179 0.0
C497 C 0.33044 0.78534 0.90368 0.0
N498 N 0.22087 0.81759 0.80128 0.0
N499 N 0.30929 0.78294 0.86107 0.0
H500 H 0.79598 0.8558 0.1898 0.0
H501 H 0.78971 0.65177 0.05541 0.0
H502 H 0.77984 0.74861 0.26855 0.0
H503 H 0.82373 0.75615 0.981 0.0
H504 H 0.7907 0.68597 0.13559 0.0
H505 H 0.80976 0.81949 0.11336 0.0
C506 C 0.79556 0.82477 0.19114 0.0
C507 C 0.78644 0.80535 0.23556 0.0
C508 C 0.79846 0.70121 0.10172 0.0
C509 C 0.80203 0.76367 0.14863 0.0
C510 C 0.79814 0.68157 0.05609 0.0
C511 C 0.80612 0.70125 0.01149 0.0
C512 C 0.80662 0.74071 0.10245 0.0
C513 C 0.81674 0.73998 0.01443 0.0
C514 C 0.8035 0.80402 0.14761 0.0
C515 C 0.78643 0.76499 0.23516 0.0
N516 N 0.81619 0.75854 0.05896 0.0
N517 N 0.79379 0.7456 0.19242 0.0
H518 H 0.85405 0.22682 0.78296 0.0
H519 H 0.65028 0.2027 0.91047 0.0
H520 H 0.75094 0.21059 0.69852 0.0
H521 H 0.75171 0.23689 -0.01139 0.0
H522 H 0.68793 0.19451 0.83365 0.0
H523 H 0.81814 0.21909 0.86064 0.0
C524 C 0.82403 0.22117 0.78073 0.0
C525 C 0.80546 0.2199 0.73423 0.0
C526 C 0.70183 0.20353 0.86787 0.0
C527 C 0.76411 0.21126 0.82272 0.0
C528 C 0.68037 0.2081 0.91156 0.0
C529 C 0.69772 0.22121 0.95559 0.0
C530 C 0.74082 0.21164 0.8688 0.0
C531 C 0.73692 0.22758 0.95518 0.0
C532 C 0.80346 0.2169 0.82502 0.0
C533 C 0.76641 0.21238 0.73358 0.0
N534 N 0.757 0.22292 0.91258 0.0
N535 N 0.747 0.20867 0.77709 0.0
H536 H 0.7148 0.867 0.5546 0.0
H537 H 0.70131 0.66277 0.6915 0.0
H538 H 0.67484 0.76456 0.48167 0.0
H539 H 0.72001 0.7692 0.7698 0.0
H540 H 0.69013 0.69972 0.61404 0.0
H541 H 0.71434 0.83229 0.63504 0.0
C542 C 0.70524 0.83755 0.55564 0.0
C543 C 0.69527 0.81859 0.51134 0.0
C544 C 0.6964 0.71488 0.64841 0.0
C545 C 0.69538 0.7785 0.60258 0.0
C546 C 0.70284 0.69375 0.69253 0.0
C547 C 0.71171 0.71274 0.73725 0.0
C548 C 0.6992 0.75517 0.64908 0.0
C549 C 0.71333 0.75309 0.73633 0.0
C550 C 0.70523 0.81761 0.60141 0.0
C551 C 0.68333 0.78023 0.5148 0.0
N552 N 0.7074 0.77283 0.69306 0.0
N553 N 0.68415 0.76138 0.55939 0.0
H554 H 0.77315 0.3445 0.48003 0.0
H555 H 0.74632 0.23528 0.22337 0.0
H556 H 0.85914 0.27254 0.41545 0.0
H557 H 0.67353 0.329 0.26662 0.0
H558 H 0.78777 0.24947 0.29344 0.0
H559 H 0.73771 0.34228 0.40124 0.0
C560 C 0.78498 0.32897 0.44868 0.0
C561 C 0.81899 0.30849 0.45412 0.0
C562 C 0.76288 0.26711 0.28761 0.0
C563 C 0.77808 0.30492 0.36448 0.0
C564 C 0.73885 0.25885 0.24773 0.0
C565 C 0.7061 0.28093 0.23902 0.0
C566 C 0.75412 0.29741 0.31981 0.0
C567 C 0.69828 0.3111 0.27201 0.0
C568 C 0.76466 0.32759 0.40384 0.0
C569 C 0.83313 0.28884 0.41259 0.0
N570 N 0.72204 0.31833 0.31121 0.0
N571 N 0.81222 0.28695 0.36969 0.0
H572 H 0.30544 0.35248 0.68628 0.0
H573 H 0.27797 0.14959 0.55365 0.0
H574 H 0.26942 0.25023 0.76427 0.0
H575 H 0.33033 0.24701 0.48241 0.0
H576 H 0.27905 0.18435 0.6335 0.0
H577 H 0.31729 0.3135 0.61162 0.0
C578 C 0.30009 0.32196 0.68772 0.0
C579 C 0.28638 0.30469 0.73148 0.0
C580 C 0.29083 0.19784 0.60047 0.0
C581 C 0.29988 0.25996 0.64675 0.0
C582 C 0.2905 0.17783 0.55514 0.0
C583 C 0.30356 0.1957 0.51148 0.0
C584 C 0.30416 0.23584 0.60166 0.0
C585 C 0.31935 0.23247 0.51519 0.0
C586 C 0.30704 0.29965 0.64531 0.0
C587 C 0.28006 0.26489 0.73139 0.0
N588 N 0.31874 0.25152 0.55929 0.0
N589 N 0.28666 0.24398 0.68969 0.0
H590 H 0.34878 0.73303 0.27802 0.0
H591 H 0.14376 0.70927 0.40108 0.0
H592 H 0.24599 0.72152 0.1914 0.0
H593 H 0.24632 0.73231 0.48361 0.0
H594 H 0.18149 0.70351 0.32397 0.0
H595 H 0.31232 0.72287 0.35459 0.0
C596 C 0.31866 0.72808 0.27507 0.0
C597 C 0.30041 0.72859 0.22833 0.0
C598 C 0.19564 0.70947 0.35918 0.0
C599 C 0.25843 0.71708 0.31558 0.0
C600 C 0.17413 0.71259 0.40299 0.0
C601 C 0.1919 0.72203 0.44831 0.0
C602 C 0.23498 0.71544 0.36133 0.0
C603 C 0.23138 0.72589 0.44911 0.0
C604 C 0.2978 0.7223 0.31874 0.0
C605 C 0.26125 0.72182 0.22671 0.0
N606 N 0.25148 0.72285 0.40633 0.0
N607 N 0.24154 0.71665 0.26968 0.0
loop_
_geom_bond_atom_site_label_1
_geom_bond_atom_site_label_2
_geom_bond_distance
_geom_bond_site_symmetry_2
_ccdc_geom_bond_type
Fe0 O2 1.918 . S
Fe0 O5 1.997 . S
Fe0 O6 2.002 . S
Fe0 O11 1.976 . S
Fe0 O14 1.996 . S
Fe1 O2 1.918 . S
Fe1 O9 1.997 . S
Fe1 O12 1.996 . S
Fe1 O16 1.976 . S
Fe1 O19 2.002 . S
O2 Fe0 1.918 . S
O2 Fe1 1.918 . S
O2 Fe3 1.918 . S
Fe3 O2 1.918 . S
Fe3 O4 2.002 . S
Fe3 O13 1.976 . S
Fe3 O17 1.996 . S
Fe3 O20 1.997 . S
O4 Fe3 2.002 . S
O4 C21 1.295 . S
O5 Fe0 1.997 . S
O5 C21 1.235 . S
O6 Fe0 2.002 . S
O6 C7 1.295 . S
C7 O6 1.295 . S
C7 O9 1.235 . S
C8 O13 1.287 . S
C8 O14 1.255 . S
O9 Fe1 1.997 . S
O9 C7 1.235 . S
C10 O16 1.287 . S
C10 O17 1.255 . S
O11 Fe0 1.976 . S
O11 C18 1.287 . S
O12 Fe1 1.996 . S
O12 C18 1.255 . S
O13 Fe3 1.976 . S
O13 C8 1.287 . S
O14 Fe0 1.996 . S
O14 C8 1.255 . S
C15 O19 1.295 . S
C15 O20 1.235 . S
O16 Fe1 1.976 . S
O16 C10 1.287 . S
O17 Fe3 1.996 . S
O17 C10 1.255 . S
C18 O11 1.287 . S
C18 O12 1.255 . S
O19 Fe1 2.002 . S
O19 C15 1.295 . S
O20 Fe3 1.997 . S
O20 C15 1.235 . S
C21 O4 1.295 . S
C21 O5 1.235 . S
Fe22 O24 1.918 . S
Fe22 O27 1.997 . S
Fe22 O28 2.002 . S
Fe22 O33 1.976 . S
Fe22 O36 1.996 . S
Fe23 O24 1.918 . S
Fe23 O31 1.997 . S
Fe23 O34 1.996 . S
Fe23 O38 1.976 . S
Fe23 O41 2.002 . S
O24 Fe22 1.918 . S
O24 Fe23 1.918 . S
O24 Fe25 1.918 . S
Fe25 O24 1.918 . S
Fe25 O26 2.002 . S
Fe25 O35 1.976 . S
Fe25 O39 1.996 . S
Fe25 O42 1.997 . S
O26 Fe25 2.002 . S
O26 C43 1.295 . S
O27 Fe22 1.997 . S
O27 C43 1.235 . S
O28 Fe22 2.002 . S
O28 C29 1.295 . S
C29 O28 1.295 . S
C29 O31 1.235 . S
C30 O35 1.287 . S
C30 O36 1.255 . S
O31 Fe23 1.997 . S
O31 C29 1.235 . S
C32 O38 1.287 . S
C32 O39 1.255 . S
O33 Fe22 1.976 . S
O33 C40 1.287 . S
O34 Fe23 1.996 . S
O34 C40 1.255 . S
O35 Fe25 1.976 . S
O35 C30 1.287 . S
O36 Fe22 1.996 . S
O36 C30 1.255 . S
C37 O41 1.295 . S
C37 O42 1.235 . S
O38 Fe23 1.976 . S
O38 C32 1.287 . S
O39 Fe25 1.996 . S
O39 C32 1.255 . S
C40 O33 1.287 . S
C40 O34 1.255 . S
O41 Fe23 2.002 . S
O41 C37 1.295 . S
O42 Fe25 1.997 . S
O42 C37 1.235 . S
C43 O26 1.295 . S
C43 O27 1.235 . S
Fe44 O46 1.918 . S
Fe44 O49 1.997 . S
Fe44 O50 2.002 . S
Fe44 O55 1.976 . S
Fe44 O58 1.996 . S
Fe45 O46 1.918 . S
Fe45 O53 1.997 . S
Fe45 O56 1.996 . S
Fe45 O60 1.976 . S
Fe45 O63 2.002 . S
O46 Fe44 1.918 . S
O46 Fe45 1.918 . S
O46 Fe47 1.918 . S
Fe47 O46 1.918 . S
Fe47 O48 2.002 . S
Fe47 O57 1.976 . S
Fe47 O61 1.996 . S
Fe47 O64 1.997 . S
O48 Fe47 2.002 . S
O48 C65 1.295 . S
O49 Fe44 1.997 . S
O49 C65 1.235 . S
O50 Fe44 2.002 . S
O50 C51 1.295 . S
C51 O50 1.295 . S
C51 O53 1.235 . S
C52 O57 1.287 . S
C52 O58 1.255 . S
O53 Fe45 1.997 . S
O53 C51 1.235 . S
C54 O60 1.287 . S
C54 O61 1.255 . S
O55 Fe44 1.976 . S
O55 C62 1.287 . S
O56 Fe45 1.996 . S
O56 C62 1.255 . S
O57 Fe47 1.976 . S
O57 C52 1.287 . S
O58 Fe44 1.996 . S
O58 C52 1.255 . S
C59 O63 1.295 . S
C59 O64 1.235 . S
O60 Fe45 1.976 . S
O60 C54 1.287 . S
O61 Fe47 1.996 . S
O61 C54 1.255 . S
C62 O55 1.287 . S
C62 O56 1.255 . S
O63 Fe45 2.002 . S
O63 C59 1.295 . S
O64 Fe47 1.997 . S
O64 C59 1.235 . S
C65 O48 1.295 . S
C65 O49 1.235 . S
Fe66 O68 1.918 . S
Fe66 O71 1.997 . S
Fe66 O72 2.002 . S
Fe66 O77 1.976 . S
Fe66 O80 1.996 . S
Fe67 O68 1.918 . S
Fe67 O75 1.997 . S
Fe67 O78 1.996 . S
Fe67 O82 1.976 . S
Fe67 O85 2.002 . S
O68 Fe66 1.918 . S
O68 Fe67 1.918 . S
O68 Fe69 1.918 . S
Fe69 O68 1.918 . S
Fe69 O70 2.002 . S
Fe69 O79 1.976 . S
Fe69 O83 1.996 . S
Fe69 O86 1.997 . S
O70 Fe69 2.002 . S
O70 C87 1.295 . S
O71 Fe66 1.997 . S
O71 C87 1.235 . S
O72 Fe66 2.002 . S
O72 C73 1.295 . S
C73 O72 1.295 . S
C73 O75 1.235 . S
C74 O79 1.287 . S
C74 O80 1.255 . S
O75 Fe67 1.997 . S
O75 C73 1.235 . S
C76 O82 1.287 . S
C76 O83 1.255 . S
O77 Fe66 1.976 . S
O77 C84 1.287 . S
O78 Fe67 1.996 . S
O78 C84 1.255 . S
O79 Fe69 1.976 . S
O79 C74 1.287 . S
O80 Fe66 1.996 . S
O80 C74 1.255 . S
C81 O85 1.295 . S
C81 O86 1.235 . S
O82 Fe67 1.976 . S
O82 C76 1.287 . S
O83 Fe69 1.996 . S
O83 C76 1.255 . S
C84 O77 1.287 . S
C84 O78 1.255 . S
O85 Fe67 2.002 . S
O85 C81 1.295 . S
O86 Fe69 1.997 . S
O86 C81 1.235 . S
C87 O70 1.295 . S
C87 O71 1.235 . S
Fe88 O90 1.918 . S
Fe88 O93 1.997 . S
Fe88 O94 2.002 . S
Fe88 O99 1.976 . S
Fe88 O102 1.996 . S
Fe89 O90 1.918 . S
Fe89 O97 1.997 . S
Fe89 O100 1.996 . S
Fe89 O104 1.976 . S
Fe89 O107 2.002 . S
O90 Fe88 1.918 . S
O90 Fe89 1.918 . S
O90 Fe91 1.918 . S
Fe91 O90 1.918 . S
Fe91 O92 2.002 . S
Fe91 O101 1.976 . S
Fe91 O105 1.996 . S
Fe91 O108 1.997 . S
O92 Fe91 2.002 . S
O92 C109 1.295 . S
O93 Fe88 1.997 . S
O93 C109 1.235 . S
O94 Fe88 2.002 . S
O94 C95 1.295 . S
C95 O94 1.295 . S
C95 O97 1.235 . S
C96 O101 1.287 . S
C96 O102 1.255 . S
O97 Fe89 1.997 . S
O97 C95 1.235 . S
C98 O104 1.287 . S
C98 O105 1.255 . S
O99 Fe88 1.976 . S
O99 C106 1.287 . S
O100 Fe89 1.996 . S
O100 C106 1.255 . S
O101 Fe91 1.976 . S
O101 C96 1.287 . S
O102 Fe88 1.996 . S
O102 C96 1.255 . S
C103 O107 1.295 . S
C103 O108 1.235 . S
O104 Fe89 1.976 . S
O104 C98 1.287 . S
O105 Fe91 1.996 . S
O105 C98 1.255 . S
C106 O99 1.287 . S
C106 O100 1.255 . S
O107 Fe89 2.002 . S
O107 C103 1.295 . S
O108 Fe91 1.997 . S
O108 C103 1.235 . S
C109 O92 1.295 . S
C109 O93 1.235 . S
Fe110 O112 1.918 . S
Fe110 O115 1.997 . S
Fe110 O116 2.002 . S
Fe110 O121 1.976 . S
Fe110 O124 1.996 . S
Fe111 O112 1.918 . S
Fe111 O119 1.997 . S
Fe111 O122 1.996 . S
Fe111 O126 1.976 . S
Fe111 O129 2.002 . S
O112 Fe110 1.918 . S
O112 Fe111 1.918 . S
O112 Fe113 1.918 . S
Fe113 O112 1.918 . S
Fe113 O114 2.002 . S
Fe113 O123 1.976 . S
Fe113 O127 1.996 . S
Fe113 O130 1.997 . S
O114 Fe113 2.002 . S
O114 C131 1.295 . S
O115 Fe110 1.997 . S
O115 C131 1.235 . S
O116 Fe110 2.002 . S
O116 C117 1.295 . S
C117 O116 1.295 . S
C117 O119 1.235 . S
C118 O123 1.287 . S
C118 O124 1.255 . S
O119 Fe111 1.997 . S
O119 C117 1.235 . S
C120 O126 1.287 . S
C120 O127 1.255 . S
O121 Fe110 1.976 . S
O121 C128 1.287 . S
O122 Fe111 1.996 . S
O122 C128 1.255 . S
O123 Fe113 1.976 . S
O123 C118 1.287 . S
O124 Fe110 1.996 . S
O124 C118 1.255 . S
C125 O129 1.295 . S
C125 O130 1.235 . S
O126 Fe111 1.976 . S
O126 C120 1.287 . S
O127 Fe113 1.996 . S
O127 C120 1.255 . S
C128 O121 1.287 . S
C128 O122 1.255 . S
O129 Fe111 2.002 . S
O129 C125 1.295 . S
O130 Fe113 1.997 . S
O130 C125 1.235 . S
C131 O114 1.295 . S
C131 O115 1.235 . S
Fe132 O134 1.918 . S
Fe132 O137 1.997 . S
Fe132 O138 2.002 . S
Fe132 O143 1.976 . S
Fe132 O146 1.996 . S
Fe133 O134 1.918 . S
Fe133 O141 1.997 . S
Fe133 O144 1.996 . S
Fe133 O148 1.976 . S
Fe133 O151 2.002 . S
O134 Fe132 1.918 . S
O134 Fe133 1.918 . S
O134 Fe135 1.918 . S
Fe135 O134 1.918 . S
Fe135 O136 2.002 . S
Fe135 O145 1.976 . S
Fe135 O149 1.996 . S
Fe135 O152 1.997 . S
O136 Fe135 2.002 . S
O136 C153 1.295 . S
O137 Fe132 1.997 . S
O137 C153 1.235 . S
O138 Fe132 2.002 . S
O138 C139 1.295 . S
C139 O138 1.295 . S
C139 O141 1.235 . S
C140 O145 1.287 . S
C140 O146 1.255 . S
O141 Fe133 1.997 . S
O141 C139 1.235 . S
C142 O148 1.287 . S
C142 O149 1.255 . S
O143 Fe132 1.976 . S
O143 C150 1.287 . S
O144 Fe133 1.996 . S
O144 C150 1.255 . S
O145 Fe135 1.976 . S
O145 C140 1.287 . S
O146 Fe132 1.996 . S
O146 C140 1.255 . S
C147 O151 1.295 . S
C147 O152 1.235 . S
O148 Fe133 1.976 . S
O148 C142 1.287 . S
O149 Fe135 1.996 . S
O149 C142 1.255 . S
C150 O143 1.287 . S
C150 O144 1.255 . S
O151 Fe133 2.002 . S
O151 C147 1.295 . S
O152 Fe135 1.997 . S
O152 C147 1.235 . S
C153 O136 1.295 . S
C153 O137 1.235 . S
Fe154 O156 1.918 . S
Fe154 O159 1.997 . S
Fe154 O160 2.002 . S
Fe154 O165 1.976 . S
Fe154 O168 1.996 . S
Fe155 O156 1.918 . S
Fe155 O163 1.997 . S
Fe155 O166 1.996 . S
Fe155 O170 1.976 . S
Fe155 O173 2.002 . S
O156 Fe154 1.918 . S
O156 Fe155 1.918 . S
O156 Fe157 1.918 . S
Fe157 O156 1.918 . S
Fe157 O158 2.002 . S
Fe157 O167 1.976 . S
Fe157 O171 1.996 . S
Fe157 O174 1.997 . S
O158 Fe157 2.002 . S
O158 C175 1.295 . S
O159 Fe154 1.997 . S
O159 C175 1.235 . S
O160 Fe154 2.002 . S
O160 C161 1.295 . S
C161 O160 1.295 . S
C161 O163 1.235 . S
C162 O167 1.287 . S
C162 O168 1.255 . S
O163 Fe155 1.997 . S
O163 C161 1.235 . S
C164 O170 1.287 . S
C164 O171 1.255 . S
O165 Fe154 1.976 . S
O165 C172 1.287 . S
O166 Fe155 1.996 . S
O166 C172 1.255 . S
O167 Fe157 1.976 . S
O167 C162 1.287 . S
O168 Fe154 1.996 . S
O168 C162 1.255 . S
C169 O173 1.295 . S
C169 O174 1.235 . S
O170 Fe155 1.976 . S
O170 C164 1.287 . S
O171 Fe157 1.996 . S
O171 C164 1.255 . S
C172 O165 1.287 . S
C172 O166 1.255 . S
O173 Fe155 2.002 . S
O173 C169 1.295 . S
O174 Fe157 1.997 . S
O174 C169 1.235 . S
C175 O158 1.295 . S
C175 O159 1.235 . S
H176 C182 0.930 . S
H177 C186 0.930 . S
H178 C191 0.929 . S
H179 C189 0.929 . S
H180 C184 0.929 . S
H181 C190 0.930 . S
C182 H176 0.930 . S
C182 C183 1.367 . S
C182 C190 1.378 . S
C183 C182 1.367 . S
C183 C191 1.433 . S
C184 H180 0.929 . S
C184 C186 1.378 . S
C184 C188 1.350 . S
C185 C188 1.463 . S
C185 C190 1.350 1_565 S
C185 N193 1.427 . S
C186 H177 0.930 . S
C186 C184 1.378 . S
C186 C187 1.367 . S
C187 C186 1.367 . S
C187 C189 1.433 . S
C188 C184 1.350 . S
C188 C185 1.463 . S
C188 N192 1.427 . S
C189 H179 0.929 . S
C189 C187 1.433 . S
C189 N192 1.384 . S
C190 H181 0.930 . S
C190 C182 1.378 . S
C190 C185 1.350 1_545 S
C191 H178 0.929 . S
C191 C183 1.433 . S
C191 N193 1.384 1_545 S
N192 C188 1.427 . S
N192 C189 1.384 . S
N193 C185 1.427 . S
N193 C191 1.384 1_565 S
H194 C200 0.930 . S
H195 C204 0.930 . S
H196 C209 0.929 . S
H197 C207 0.929 . S
H198 C202 0.929 . S
H199 C208 0.929 . S
C200 H194 0.930 . S
C200 C201 1.367 . S
C200 C208 1.378 1_455 S
C201 C200 1.367 . S
C201 C209 1.433 . S
C202 H198 0.929 . S
C202 C204 1.378 . S
C202 C206 1.350 . S
C203 C206 1.463 . S
C203 C208 1.350 . S
C203 N211 1.427 . S
C204 H195 0.930 . S
C204 C202 1.378 . S
C204 C205 1.367 . S
C205 C204 1.367 . S
C205 C207 1.433 . S
C206 C202 1.350 . S
C206 C203 1.463 . S
C206 N210 1.427 . S
C207 H197 0.929 . S
C207 C205 1.433 . S
C207 N210 1.384 . S
C208 H199 0.929 . S
C208 C200 1.378 1_655 S
C208 C203 1.350 . S
C209 H196 0.929 . S
C209 C201 1.433 . S
C209 N211 1.384 1_455 S
N210 C206 1.427 . S
N210 C207 1.384 . S
N211 C203 1.427 . S
N211 C209 1.384 1_655 S
H212 C218 0.930 . S
H213 C222 0.930 . S
H214 C227 0.929 . S
H215 C225 0.929 . S
H216 C220 0.929 . S
H217 C226 0.929 . S
C218 H212 0.930 . S
C218 C219 1.367 . S
C218 C226 1.378 1_565 S
C219 C218 1.367 . S
C219 C227 1.433 1_565 S
C220 H216 0.929 . S
C220 C222 1.378 . S
C220 C224 1.350 . S
C221 C224 1.463 . S
C221 C226 1.350 . S
C221 N229 1.427 . S
C222 H213 0.930 . S
C222 C220 1.378 . S
C222 C223 1.367 . S
C223 C222 1.367 . S
C223 C225 1.433 . S
C224 C220 1.350 . S
C224 C221 1.463 . S
C224 N228 1.427 . S
C225 H215 0.929 . S
C225 C223 1.433 . S
C225 N228 1.384 . S
C226 H217 0.929 . S
C226 C218 1.378 1_545 S
C226 C221 1.350 . S
C227 H214 0.929 . S
C227 C219 1.433 1_545 S
C227 N229 1.384 . S
N228 C224 1.427 . S
N228 C225 1.384 . S
N229 C221 1.427 . S
N229 C227 1.384 . S
H230 C236 0.930 . S
H231 C240 0.930 . S
H232 C245 0.929 . S
H233 C243 0.929 . S
H234 C238 0.929 . S
H235 C244 0.929 . S
C236 H230 0.930 . S
C236 C237 1.367 . S
C236 C244 1.378 . S
C237 C236 1.367 . S
C237 C245 1.433 . S
C238 H234 0.929 . S
C238 C240 1.378 . S
C238 C242 1.350 . S
C239 C242 1.463 . S
C239 C244 1.350 . S
C239 N247 1.427 . S
C240 H231 0.930 . S
C240 C238 1.378 . S
C240 C241 1.367 1_455 S
C241 C240 1.367 1_655 S
C241 C243 1.433 . S
C242 C238 1.350 . S
C242 C239 1.463 . S
C242 N246 1.427 . S
C243 H233 0.929 . S
C243 C241 1.433 . S
C243 N246 1.384 1_655 S
C244 H235 0.929 . S
C244 C236 1.378 . S
C244 C239 1.350 . S
C245 H232 0.929 . S
C245 C237 1.433 . S
C245 N247 1.384 . S
N246 C242 1.427 . S
N246 C243 1.384 1_455 S
N247 C239 1.427 . S
N247 C245 1.384 . S
H248 C254 0.930 . S
H249 C258 0.930 . S
H250 C263 0.929 . S
H251 C261 0.929 . S
H252 C256 0.929 . S
H253 C262 0.929 1_556 S
C254 H248 0.930 . S
C254 C255 1.367 . S
C254 C262 1.378 . S
C255 C254 1.367 . S
C255 C263 1.433 . S
C256 H252 0.929 . S
C256 C258 1.378 . S
C256 C260 1.350 . S
C257 C260 1.463 . S
C257 C262 1.350 . S
C257 N265 1.427 . S
C258 H249 0.930 . S
C258 C256 1.378 . S
C258 C259 1.367 1_554 S
C259 C258 1.367 1_556 S
C259 C261 1.433 . S
C260 C256 1.350 . S
C260 C257 1.463 . S
C260 N264 1.427 1_554 S
C261 H251 0.929 . S
C261 C259 1.433 . S
C261 N264 1.384 . S
C262 H253 0.929 1_554 S
C262 C254 1.378 . S
C262 C257 1.350 . S
C263 H250 0.929 . S
C263 C255 1.433 . S
C263 N265 1.384 . S
N264 C260 1.427 1_556 S
N264 C261 1.384 . S
N265 C257 1.427 . S
N265 C263 1.384 . S
H266 C272 0.930 . S
H267 C276 0.930 . S
H268 C281 0.929 . S
H269 C279 0.929 . S
H270 C274 0.929 . S
H271 C280 0.929 . S
C272 H266 0.930 . S
C272 C273 1.367 . S
C272 C280 1.378 . S
C273 C272 1.367 . S
C273 C281 1.433 . S
C274 H270 0.929 . S
C274 C276 1.378 . S
C274 C278 1.350 1_554 S
C275 C278 1.463 . S
C275 C280 1.350 . S
C275 N283 1.427 . S
C276 H267 0.930 . S
C276 C274 1.378 . S
C276 C277 1.367 . S
C277 C276 1.367 . S
C277 C279 1.433 1_554 S
C278 C274 1.350 1_556 S
C278 C275 1.463 . S
C278 N282 1.427 . S
C279 H269 0.929 . S
C279 C277 1.433 1_556 S
C279 N282 1.384 . S
C280 H271 0.929 . S
C280 C272 1.378 . S
C280 C275 1.350 . S
C281 H268 0.929 . S
C281 C273 1.433 . S
C281 N283 1.384 . S
N282 C278 1.427 . S
N282 C279 1.384 . S
N283 C275 1.427 . S
N283 C281 1.384 . S
H284 C290 0.930 . S
H285 C294 0.930 . S
H286 C299 0.929 . S
H287 C297 0.929 . S
H288 C292 0.929 . S
H289 C298 0.929 1_556 S
C290 H284 0.930 . S
C290 C291 1.367 . S
C290 C298 1.378 . S
C291 C290 1.367 . S
C291 C299 1.433 . S
C292 H288 0.929 . S
C292 C294 1.378 . S
C292 C296 1.350 . S
C293 C296 1.463 . S
C293 C298 1.350 . S
C293 N301 1.427 . S
C294 H285 0.930 . S
C294 C292 1.378 . S
C294 C295 1.367 1_554 S
C295 C294 1.367 1_556 S
C295 C297 1.433 . S
C296 C292 1.350 . S
C296 C293 1.463 . S
C296 N300 1.427 1_554 S
C297 H287 0.929 . S
C297 C295 1.433 . S
C297 N300 1.384 . S
C298 H289 0.929 1_554 S
C298 C290 1.378 . S
C298 C293 1.350 . S
C299 H286 0.929 . S
C299 C291 1.433 . S
C299 N301 1.384 . S
N300 C296 1.427 1_556 S
N300 C297 1.384 . S
N301 C293 1.427 . S
N301 C299 1.384 . S
H302 C308 0.930 . S
H303 C312 0.930 . S
H304 C317 0.929 . S
H305 C315 0.929 . S
H306 C310 0.929 . S
H307 C316 0.929 . S
C308 H302 0.930 . S
C308 C309 1.367 . S
C308 C316 1.378 . S
C309 C308 1.367 . S
C309 C317 1.433 . S
C310 H306 0.929 . S
C310 C312 1.378 . S
C310 C314 1.350 . S
C311 C314 1.463 . S
C311 C316 1.350 1_556 S
C311 N319 1.427 . S
C312 H303 0.930 . S
C312 C310 1.378 . S
C312 C313 1.367 . S
C313 C312 1.367 . S
C313 C315 1.433 . S
C314 C310 1.350 . S
C314 C311 1.463 . S
C314 N318 1.427 . S
C315 H305 0.929 . S
C315 C313 1.433 . S
C315 N318 1.384 . S
C316 H307 0.929 . S
C316 C308 1.378 . S
C316 C311 1.350 1_554 S
C317 H304 0.929 . S
C317 C309 1.433 . S
C317 N319 1.384 1_554 S
N318 C314 1.427 . S
N318 C315 1.384 . S
N319 C311 1.427 . S
N319 C317 1.384 1_556 S
H320 C326 0.930 . S
H321 C330 0.930 . S
H322 C335 0.929 . S
H323 C333 0.929 . S
H324 C328 0.929 . S
H325 C334 0.929 . S
C326 H320 0.930 . S
C326 C327 1.367 . S
C326 C334 1.378 . S
C327 C326 1.367 . S
C327 C335 1.433 . S
C328 H324 0.929 . S
C328 C330 1.378 . S
C328 C332 1.350 . S
C329 C332 1.463 . S
C329 C334 1.350 . S
C329 N337 1.427 . S
C330 H321 0.930 . S
C330 C328 1.378 . S
C330 C331 1.367 . S
C331 C330 1.367 . S
C331 C333 1.433 . S
C332 C328 1.350 . S
C332 C329 1.463 . S
C332 N336 1.427 . S
C333 H323 0.929 . S
C333 C331 1.433 . S
C333 N336 1.384 . S
C334 H325 0.929 . S
C334 C326 1.378 . S
C334 C329 1.350 . S
C335 H322 0.929 . S
C335 C327 1.433 . S
C335 N337 1.384 . S
N336 C332 1.427 . S
N336 C333 1.384 . S
N337 C329 1.427 . S
N337 C335 1.384 . S
H338 C344 0.930 . S
H339 C348 0.930 . S
H340 C353 0.929 . S
H341 C351 0.929 . S
H342 C346 0.929 . S
H343 C352 0.929 . S
C344 H338 0.930 . S
C344 C345 1.367 . S
C344 C352 1.378 . S
C345 C344 1.367 . S
C345 C353 1.433 . S
C346 H342 0.929 . S
C346 C348 1.378 . S
C346 C350 1.350 . S
C347 C350 1.463 . S
C347 C352 1.350 . S
C347 N355 1.427 . S
C348 H339 0.930 . S
C348 C346 1.378 . S
C348 C349 1.367 . S
C349 C348 1.367 . S
C349 C351 1.433 . S
C350 C346 1.350 . S
C350 C347 1.463 . S
C350 N354 1.427 . S
C351 H341 0.929 . S
C351 C349 1.433 . S
C351 N354 1.384 . S
C352 H343 0.929 . S
C352 C344 1.378 . S
C352 C347 1.350 . S
C353 H340 0.929 . S
C353 C345 1.433 . S
C353 N355 1.384 . S
N354 C350 1.427 . S
N354 C351 1.384 . S
N355 C347 1.427 . S
N355 C353 1.384 . S
H356 C362 0.930 . S
H357 C366 0.930 . S
H358 C371 0.929 . S
H359 C369 0.929 . S
H360 C364 0.929 . S
H361 C370 0.929 . S
C362 H356 0.930 . S
C362 C363 1.367 . S
C362 C370 1.378 . S
C363 C362 1.367 . S
C363 C371 1.433 . S
C364 H360 0.929 . S
C364 C366 1.378 . S
C364 C368 1.350 . S
C365 C368 1.463 . S
C365 C370 1.350 . S
C365 N373 1.427 . S
C366 H357 0.930 . S
C366 C364 1.378 . S
C366 C367 1.367 . S
C367 C366 1.367 . S
C367 C369 1.433 . S
C368 C364 1.350 . S
C368 C365 1.463 . S
C368 N372 1.427 . S
C369 H359 0.929 . S
C369 C367 1.433 . S
C369 N372 1.384 . S
C370 H361 0.929 . S
C370 C362 1.378 . S
C370 C365 1.350 . S
C371 H358 0.929 . S
C371 C363 1.433 . S
C371 N373 1.384 . S
N372 C368 1.427 . S
N372 C369 1.384 . S
N373 C365 1.427 . S
N373 C371 1.384 . S
H374 C380 0.930 . S
H375 C384 0.930 . S
H376 C389 0.929 . S
H377 C387 0.929 . S
H378 C382 0.929 . S
H379 C388 0.929 . S
C380 H374 0.930 . S
C380 C381 1.367 . S
C380 C388 1.378 . S
C381 C380 1.367 . S
C381 C389 1.433 . S
C382 H378 0.929 . S
C382 C384 1.378 . S
C382 C386 1.350 . S
C383 C386 1.463 . S
C383 C388 1.350 . S
C383 N391 1.427 . S
C384 H375 0.930 . S
C384 C382 1.378 . S
C384 C385 1.367 . S
C385 C384 1.367 . S
C385 C387 1.433 . S
C386 C382 1.350 . S
C386 C383 1.463 . S
C386 N390 1.427 . S
C387 H377 0.929 . S
C387 C385 1.433 . S
C387 N390 1.384 . S
C388 H379 0.929 . S
C388 C380 1.378 . S
C388 C383 1.350 . S
C389 H376 0.929 . S
C389 C381 1.433 . S
C389 N391 1.384 . S
N390 C386 1.427 . S
N390 C387 1.384 . S
N391 C383 1.427 . S
N391 C389 1.384 . S
H392 C398 0.930 . S
H393 C402 0.930 . S
H394 C407 0.929 . S
H395 C405 0.929 . S
H396 C400 0.929 . S
H397 C406 0.929 . S
C398 H392 0.930 . S
C398 C399 1.367 . S
C398 C406 1.378 . S
C399 C398 1.367 . S
C399 C407 1.433 . S
C400 H396 0.929 . S
C400 C402 1.378 1_545 S
C400 C404 1.350 . S
C401 C404 1.463 . S
C401 C406 1.350 . S
C401 N409 1.427 . S
C402 H393 0.930 . S
C402 C400 1.378 1_565 S
C402 C403 1.367 . S
C403 C402 1.367 . S
C403 C405 1.433 . S
C404 C400 1.350 . S
C404 C401 1.463 . S
C404 N408 1.427 . S
C405 H395 0.929 . S
C405 C403 1.433 . S
C405 N408 1.384 1_565 S
C406 H397 0.929 . S
C406 C398 1.378 . S
C406 C401 1.350 . S
C407 H394 0.929 . S
C407 C399 1.433 . S
C407 N409 1.384 . S
N408 C404 1.427 . S
N408 C405 1.384 1_545 S
N409 C401 1.427 . S
N409 C407 1.384 . S
H410 C416 0.930 . S
H411 C420 0.930 . S
H412 C425 0.929 . S
H413 C423 0.929 . S
H414 C418 0.929 . S
H415 C424 0.929 . S
C416 H410 0.930 . S
C416 C417 1.367 . S
C416 C424 1.378 . S
C417 C416 1.367 . S
C417 C425 1.433 . S
C418 H414 0.929 . S
C418 C420 1.378 1_455 S
C418 C422 1.350 . S
C419 C422 1.463 . S
C419 C424 1.350 . S
C419 N427 1.427 . S
C420 H411 0.930 . S
C420 C418 1.378 1_655 S
C420 C421 1.367 . S
C421 C420 1.367 . S
C421 C423 1.433 . S
C422 C418 1.350 . S
C422 C419 1.463 . S
C422 N426 1.427 . S
C423 H413 0.929 . S
C423 C421 1.433 . S
C423 N426 1.384 1_655 S
C424 H415 0.929 . S
C424 C416 1.378 . S
C424 C419 1.350 . S
C425 H412 0.929 . S
C425 C417 1.433 . S
C425 N427 1.384 . S
N426 C422 1.427 . S
N426 C423 1.384 1_455 S
N427 C419 1.427 . S
N427 C425 1.384 . S
H428 C434 0.930 . S
H429 C438 0.930 . S
H430 C443 0.929 . S
H431 C441 0.929 . S
H432 C436 0.929 . S
H433 C442 0.929 . S
C434 H428 0.930 . S
C434 C435 1.367 . S
C434 C442 1.378 . S
C435 C434 1.367 . S
C435 C443 1.433 . S
C436 H432 0.929 . S
C436 C438 1.378 1_565 S
C436 C440 1.350 . S
C437 C440 1.463 . S
C437 C442 1.350 . S
C437 N445 1.427 . S
C438 H429 0.930 . S
C438 C436 1.378 1_545 S
C438 C439 1.367 . S
C439 C438 1.367 . S
C439 C441 1.433 . S
C440 C436 1.350 . S
C440 C437 1.463 . S
C440 N444 1.427 1_565 S
C441 H431 0.929 . S
C441 C439 1.433 . S
C441 N444 1.384 . S
C442 H433 0.929 . S
C442 C434 1.378 . S
C442 C437 1.350 . S
C443 H430 0.929 . S
C443 C435 1.433 . S
C443 N445 1.384 . S
N444 C440 1.427 1_545 S
N444 C441 1.384 . S
N445 C437 1.427 . S
N445 C443 1.384 . S
H446 C452 0.930 . S
H447 C456 0.930 . S
H448 C461 0.929 . S
H449 C459 0.929 . S
H450 C454 0.929 . S
H451 C460 0.929 . S
C452 H446 0.930 . S
C452 C453 1.367 . S
C452 C460 1.378 1_455 S
C453 C452 1.367 . S
C453 C461 1.433 . S
C454 H450 0.929 . S
C454 C456 1.378 . S
C454 C458 1.350 . S
C455 C458 1.463 . S
C455 C460 1.350 . S
C455 N463 1.427 . S
C456 H447 0.930 . S
C456 C454 1.378 . S
C456 C457 1.367 . S
C457 C456 1.367 . S
C457 C459 1.433 . S
C458 C454 1.350 . S
C458 C455 1.463 . S
C458 N462 1.427 . S
C459 H449 0.929 . S
C459 C457 1.433 . S
C459 N462 1.384 . S
C460 H451 0.929 . S
C460 C452 1.378 1_655 S
C460 C455 1.350 . S
C461 H448 0.929 . S
C461 C453 1.433 . S
C461 N463 1.384 1_455 S
N462 C458 1.427 . S
N462 C459 1.384 . S
N463 C455 1.427 . S
N463 C461 1.384 1_655 S
H464 C470 0.930 1_556 S
H465 C474 0.930 . S
H466 C479 0.929 . S
H467 C477 0.929 . S
H468 C472 0.929 . S
H469 C478 0.929 . S
C470 H464 0.930 1_554 S
C470 C471 1.367 . S
C470 C478 1.378 . S
C471 C470 1.367 . S
C471 C479 1.433 . S
C472 H468 0.929 . S
C472 C474 1.378 . S
C472 C476 1.350 . S
C473 C476 1.463 . S
C473 C478 1.350 . S
C473 N481 1.427 . S
C474 H465 0.930 . S
C474 C472 1.378 . S
C474 C475 1.367 . S
C475 C474 1.367 . S
C475 C477 1.433 . S
C476 C472 1.350 . S
C476 C473 1.463 . S
C476 N480 1.427 . S
C477 H467 0.929 . S
C477 C475 1.433 . S
C477 N480 1.384 . S
C478 H469 0.929 . S
C478 C470 1.378 . S
C478 C473 1.350 . S
C479 H466 0.929 . S
C479 C471 1.433 . S
C479 N481 1.384 . S
N480 C476 1.427 . S
N480 C477 1.384 . S
N481 C473 1.427 . S
N481 C479 1.384 . S
H482 C488 0.930 . S
H483 C492 0.930 . S
H484 C497 0.929 . S
H485 C495 0.929 . S
H486 C490 0.929 . S
H487 C496 0.929 . S
C488 H482 0.930 . S
C488 C489 1.367 . S
C488 C496 1.378 . S
C489 C488 1.367 . S
C489 C497 1.433 . S
C490 H486 0.929 . S
C490 C492 1.378 . S
C490 C494 1.350 . S
C491 C494 1.463 . S
C491 C496 1.350 . S
C491 N499 1.427 . S
C492 H483 0.930 . S
C492 C490 1.378 . S
C492 C493 1.367 . S
C493 C492 1.367 . S
C493 C495 1.433 . S
C494 C490 1.350 . S
C494 C491 1.463 . S
C494 N498 1.427 . S
C495 H485 0.929 . S
C495 C493 1.433 . S
C495 N498 1.384 . S
C496 H487 0.929 . S
C496 C488 1.378 . S
C496 C491 1.350 . S
C497 H484 0.929 . S
C497 C489 1.433 . S
C497 N499 1.384 . S
N498 C494 1.427 . S
N498 C495 1.384 . S
N499 C491 1.427 . S
N499 C497 1.384 . S
H500 C506 0.930 . S
H501 C510 0.930 . S
H502 C515 0.929 . S
H503 C513 0.929 1_556 S
H504 C508 0.929 . S
H505 C514 0.929 . S
C506 H500 0.930 . S
C506 C507 1.367 . S
C506 C514 1.378 . S
C507 C506 1.367 . S
C507 C515 1.433 . S
C508 H504 0.929 . S
C508 C510 1.378 . S
C508 C512 1.350 . S
C509 C512 1.463 . S
C509 C514 1.350 . S
C509 N517 1.427 . S
C510 H501 0.930 . S
C510 C508 1.378 . S
C510 C511 1.367 . S
C511 C510 1.367 . S
C511 C513 1.433 . S
C512 C508 1.350 . S
C512 C509 1.463 . S
C512 N516 1.427 . S
C513 H503 0.929 1_554 S
C513 C511 1.433 . S
C513 N516 1.384 . S
C514 H505 0.929 . S
C514 C506 1.378 . S
C514 C509 1.350 . S
C515 H502 0.929 . S
C515 C507 1.433 . S
C515 N517 1.384 . S
N516 C512 1.427 . S
N516 C513 1.384 . S
N517 C509 1.427 . S
N517 C515 1.384 . S
H518 C524 0.930 . S
H519 C528 0.930 . S
H520 C533 0.929 . S
H521 C531 0.929 1_554 S
H522 C526 0.929 . S
H523 C532 0.929 . S
C524 H518 0.930 . S
C524 C525 1.367 . S
C524 C532 1.378 . S
C525 C524 1.367 . S
C525 C533 1.433 . S
C526 H522 0.929 . S
C526 C528 1.378 . S
C526 C530 1.350 . S
C527 C530 1.463 . S
C527 C532 1.350 . S
C527 N535 1.427 . S
C528 H519 0.930 . S
C528 C526 1.378 . S
C528 C529 1.367 . S
C529 C528 1.367 . S
C529 C531 1.433 . S
C530 C526 1.350 . S
C530 C527 1.463 . S
C530 N534 1.427 . S
C531 H521 0.929 1_556 S
C531 C529 1.433 . S
C531 N534 1.384 . S
C532 H523 0.929 . S
C532 C524 1.378 . S
C532 C527 1.350 . S
C533 H520 0.929 . S
C533 C525 1.433 . S
C533 N535 1.384 . S
N534 C530 1.427 . S
N534 C531 1.384 . S
N535 C527 1.427 . S
N535 C533 1.384 . S
H536 C542 0.930 . S
H537 C546 0.930 . S
H538 C551 0.929 . S
H539 C549 0.929 . S
H540 C544 0.929 . S
H541 C550 0.929 . S
C542 H536 0.930 . S
C542 C543 1.367 . S
C542 C550 1.378 . S
C543 C542 1.367 . S
C543 C551 1.433 . S
C544 H540 0.929 . S
C544 C546 1.378 . S
C544 C548 1.350 . S
C545 C548 1.463 . S
C545 C550 1.350 . S
C545 N553 1.427 . S
C546 H537 0.930 . S
C546 C544 1.378 . S
C546 C547 1.367 . S
C547 C546 1.367 . S
C547 C549 1.433 . S
C548 C544 1.350 . S
C548 C545 1.463 . S
C548 N552 1.427 . S
C549 H539 0.929 . S
C549 C547 1.433 . S
C549 N552 1.384 . S
C550 H541 0.929 . S
C550 C542 1.378 . S
C550 C545 1.350 . S
C551 H538 0.929 . S
C551 C543 1.433 . S
C551 N553 1.384 . S
N552 C548 1.427 . S
N552 C549 1.384 . S
N553 C545 1.427 . S
N553 C551 1.384 . S
H554 C560 0.930 . S
H555 C564 0.930 . S
H556 C569 0.929 . S
H557 C567 0.929 . S
H558 C562 0.929 . S
H559 C568 0.929 . S
C560 H554 0.930 . S
C560 C561 1.367 . S
C560 C568 1.378 . S
C561 C560 1.367 . S
C561 C569 1.433 . S
C562 H558 0.929 . S
C562 C564 1.378 . S
C562 C566 1.350 . S
C563 C566 1.463 . S
C563 C568 1.350 . S
C563 N571 1.427 . S
C564 H555 0.930 . S
C564 C562 1.378 . S
C564 C565 1.367 . S
C565 C564 1.367 . S
C565 C567 1.433 . S
C566 C562 1.350 . S
C566 C563 1.463 . S
C566 N570 1.427 . S
C567 H557 0.929 . S
C567 C565 1.433 . S
C567 N570 1.384 . S
C568 H559 0.929 . S
C568 C560 1.378 . S
C568 C563 1.350 . S
C569 H556 0.929 . S
C569 C561 1.433 . S
C569 N571 1.384 . S
N570 C566 1.427 . S
N570 C567 1.384 . S
N571 C563 1.427 . S
N571 C569 1.384 . S
H572 C578 0.930 . S
H573 C582 0.930 . S
H574 C587 0.929 . S
H575 C585 0.929 . S
H576 C580 0.929 . S
H577 C586 0.929 . S
C578 H572 0.930 . S
C578 C579 1.367 . S
C578 C586 1.378 . S
C579 C578 1.367 . S
C579 C587 1.433 . S
C580 H576 0.929 . S
C580 C582 1.378 . S
C580 C584 1.350 . S
C581 C584 1.463 . S
C581 C586 1.350 . S
C581 N589 1.427 . S
C582 H573 0.930 . S
C582 C580 1.378 . S
C582 C583 1.367 . S
C583 C582 1.367 . S
C583 C585 1.433 . S
C584 C580 1.350 . S
C584 C581 1.463 . S
C584 N588 1.427 . S
C585 H575 0.929 . S
C585 C583 1.433 . S
C585 N588 1.384 . S
C586 H577 0.929 . S
C586 C578 1.378 . S
C586 C581 1.350 . S
C587 H574 0.929 . S
C587 C579 1.433 . S
C587 N589 1.384 . S
N588 C584 1.427 . S
N588 C585 1.384 . S
N589 C581 1.427 . S
N589 C587 1.384 . S
H590 C596 0.930 . S
H591 C600 0.930 . S
H592 C605 0.929 . S
H593 C603 0.929 . S
H594 C598 0.929 . S
H595 C604 0.929 . S
C596 H590 0.930 . S
C596 C597 1.367 . S
C596 C604 1.378 . S
C597 C596 1.367 . S
C597 C605 1.433 . S
C598 H594 0.929 . S
C598 C600 1.378 . S
C598 C602 1.350 . S
C599 C602 1.463 . S
C599 C604 1.350 . S
C599 N607 1.427 . S
C600 H591 0.930 . S
C600 C598 1.378 . S
C600 C601 1.367 . S
C601 C600 1.367 . S
C601 C603 1.433 . S
C602 C598 1.350 . S
C602 C599 1.463 . S
C602 N606 1.427 . S
C603 H593 0.929 . S
C603 C601 1.433 . S
C603 N606 1.384 . S
C604 H595 0.929 . S
C604 C596 1.378 . S
C604 C599 1.350 . S
C605 H592 0.929 . S
C605 C597 1.433 . S
C605 N607 1.384 . S
N606 C602 1.427 . S
N606 C603 1.384 . S
N607 C599 1.427 . S
N607 C605 1.384 . S
C183 C10 1.196 . S
C187 C128 1.184 . S
C201 C37 1.249 . S
C205 C150 1.260 . S
C219 C59 1.269 . S
C223 C175 1.283 . S
C237 C103 1.205 . S
C241 C84 1.193 . S
C255 C131 1.208 . S
C259 C96 1.208 . S
C273 C147 1.282 . S
C277 C125 1.253 . S
C291 C172 1.255 . S
C295 C153 1.252 . S
C309 C164 1.189 . S
C313 C106 1.188 . S
C327 C140 1.190 . S
C331 C74 1.189 . S
C345 C169 1.238 . S
C349 C8 1.254 . S
C363 C43 1.286 . S
C367 C109 1.268 . S
C381 C51 1.208 . S
C385 C120 1.199 . S
C399 C81 1.208 . S
C403 C54 1.207 . S
C417 C7 1.278 . S
C421 C73 1.249 . S
C435 C40 1.265 . S
C439 C15 1.248 . S
C453 C32 1.190 . S
C457 C52 1.187 . S
C471 C98 1.141 1_554 S
C475 C18 1.145 . S
C489 C117 1.220 1_556 S
C493 C29 1.218 . S
C507 C65 1.225 . S
C511 C139 1.224 1_554 S
C525 C76 1.153 . S
C529 C162 1.148 1_556 S
C543 C62 1.153 . S
C547 C142 1.149 . S
C561 C87 1.219 . S
C565 C161 1.217 . S
C579 C95 1.223 . S
C583 C21 1.222 . S
C597 C118 1.141 . S
C601 C30 1.148 . S
