# Generated by pormake.
# Topology wgu, (5)-cn, num edge types: 1
# Building blocks:
#     Node 0, Type 0, BuildingBlock: BEQFEK_clean_sbu_0, # of connection points: 5
#     Node 1, Type 0, BuildingBlock: BEQFEK_clean_sbu_0, # of connection points: 5
#     Node 2, Type 0, BuildingBlock: BEQFEK_clean_sbu_0, # of connection points: 5
#     Node 3, Type 0, BuildingBlock: BEQFEK_clean_sbu_0, # of connection points: 5
#     Node 4, Type 0, BuildingBlock: BEQFEK_clean_sbu_0, # of connection points: 5
#     Node 5, Type 0, BuildingBlock: BEQFEK_clean_sbu_0, # of connection points: 5
#     Node 6, Type 0, BuildingBlock: BEQFEK_clean_sbu_0, # of connection points: 5
#     Node 7, Type 0, BuildingBlock: BEQFEK_clean_sbu_0, # of connection points: 5
#     Edge 8, Type (0, 0), BuildingBlock: UVAHIK_clean_linker_0, # of connection points: 2
#     Edge 9, Type (0, 0), BuildingBlock: UVAHIK_clean_linker_0, # of connection points: 2
#     Edge 10, Type (0, 0), BuildingBlock: UVAHIK_clean_linker_0, # of connection points: 2
#     Edge 11, Type (0, 0), BuildingBlock: UVAHIK_clean_linker_0, # of connection points: 2
#     Edge 12, Type (0, 0), BuildingBlock: UVAHIK_clean_linker_0, # of connection points: 2
#     Edge 13, Type (0, 0), BuildingBlock: UVAHIK_clean_linker_0, # of connection points: 2
#     Edge 14, Type (0, 0), BuildingBlock: UVAHIK_clean_linker_0, # of connection points: 2
#     Edge 15, Type (0, 0), BuildingBlock: UVAHIK_clean_linker_0, # of connection points: 2
#     Edge 16, Type (0, 0), BuildingBlock: UVAHIK_clean_linker_0, # of connection points: 2
#     Edge 17, Type (0, 0), BuildingBlock: UVAHIK_clean_linker_0, # of connection points: 2
#     Edge 18, Type (0, 0), BuildingBlock: UVAHIK_clean_linker_0, # of connection points: 2
#     Edge 19, Type (0, 0), BuildingBlock: UVAHIK_clean_linker_0, # of connection points: 2
#     Edge 20, Type (0, 0), BuildingBlock: UVAHIK_clean_linker_0, # of connection points: 2
#     Edge 21, Type (0, 0), BuildingBlock: UVAHIK_clean_linker_0, # of connection points: 2
#     Edge 22, Type (0, 0), BuildingBlock: UVAHIK_clean_linker_0, # of connection points: 2
#     Edge 23, Type (0, 0), BuildingBlock: UVAHIK_clean_linker_0, # of connection points: 2
#     Edge 24, Type (0, 0), BuildingBlock: UVAHIK_clean_linker_0, # of connection points: 2
#     Edge 25, Type (0, 0), BuildingBlock: UVAHIK_clean_linker_0, # of connection points: 2
#     Edge 26, Type (0, 0), BuildingBlock: UVAHIK_clean_linker_0, # of connection points: 2
#     Edge 27, Type (0, 0), BuildingBlock: UVAHIK_clean_linker_0, # of connection points: 2
# Relax obj value: 0.411
# Max RMSD: 0.220
# Mean RMSD: 0.220
data_MOF--net-wgu--node1-BEQFEK_clean_sbu_0--edge1-UVAHIK_clean_linker_0
_symmetry_space_group_name_H-M    P1
_symmetry_Int_Tables_number       1
_symmetry_cell_setting            triclinic
loop_
_symmetry_equiv_pos_as_xyz
'x, y, z'
_cell_length_a     40.943968
_cell_length_b     40.9357
_cell_length_c     37.049872
_cell_angle_alpha  89.966776
_cell_angle_beta   89.979939
_cell_angle_gamma 90.006148
loop_
_atom_site_label
_atom_site_type_symbol
_atom_site_fract_x
_atom_site_fract_y
_atom_site_fract_z
_atom_type_partial_charge
Co0 Co 0.30048 0.36994 0.0208 0.0
Co1 Co 0.35086 0.31229 0.02165 0.0
C2 C 0.30361 0.32173 0.96025 0.0
O3 O 0.2911 0.34699 0.97471 0.0
O4 O 0.32678 0.30619 0.97544 0.0
C5 C 0.24893 0.41532 1.00325 0.0
O6 O 0.25325 0.40505 0.97001 0.0
C7 C 0.37119 0.24418 1.01908 0.0
C8 C 0.41777 0.24418 0.04913 0.0
C9 C 0.39584 0.22395 0.0315 0.0
N10 N 0.37824 0.27503 0.02855 0.0
N11 N 0.40637 0.27498 0.04608 0.0
C12 C 0.33935 0.23385 1.00283 0.0
H13 H 0.32003 0.25209 1.00867 0.0
H14 H 0.33161 0.20971 1.01348 0.0
H15 H 0.34241 0.2317 0.97319 0.0
C16 C 0.28272 0.34049 0.09128 0.0
N17 N 0.30023 0.34064 0.06048 0.0
N18 N 0.32109 0.31619 0.06099 0.0
C19 C 0.31726 0.29945 0.0921 0.0
C20 C 0.29287 0.31435 0.11244 0.0
C21 C 0.25884 0.36666 0.1013 0.0
H22 H 0.23733 0.36516 0.08317 0.0
H23 H 0.25072 0.36458 0.12975 0.0
H24 H 0.27033 0.39094 0.09732 0.0
O25 O 0.34321 0.39248 1.01803 0.0
O26 O 0.37921 0.35189 1.01895 0.0
H27 H 0.36218 0.27526 0.10447 0.0
H28 H 0.32699 0.25777 0.12686 0.0
C29 C 0.33592 0.26919 0.1016 0.0
H30 H 0.3333 0.25112 0.0796 0.0
H31 H 0.41717 0.2958 0.05711 0.0
O32 O 0.26646 0.40359 0.02842 0.0
C33 C 0.37263 0.38233 1.01769 0.0
Co34 Co 0.63459 0.29907 0.52077 0.0
Co35 Co 0.69194 0.34975 0.52172 0.0
C36 C 0.6833 0.30218 0.46056 0.0
O37 O 0.65797 0.28964 0.47487 0.0
O38 O 0.69862 0.32549 0.47575 0.0
C39 C 0.5883 0.24887 0.50241 0.0
O40 O 0.59735 0.25509 0.46909 0.0
C41 C 0.75975 0.37115 0.5194 0.0
C42 C 0.75888 0.41759 0.54972 0.0
C43 C 0.77952 0.39609 0.53202 0.0
N44 N 0.72877 0.37764 0.52881 0.0
N45 N 0.72829 0.40569 0.54649 0.0
C46 C 0.77065 0.33956 0.50299 0.0
H47 H 0.75283 0.31987 0.50891 0.0
H48 H 0.79498 0.33228 0.51345 0.0
H49 H 0.77257 0.34272 0.47334 0.0
C50 C 0.66373 0.28181 0.59163 0.0
N51 N 0.66362 0.29919 0.56072 0.0
N52 N 0.68797 0.32016 0.5612 0.0
C53 C 0.70463 0.31651 0.59238 0.0
C54 C 0.68977 0.29216 0.61282 0.0
C55 C 0.63769 0.25778 0.60164 0.0
H56 H 0.61335 0.26897 0.59722 0.0
H57 H 0.6396 0.23609 0.58381 0.0
H58 H 0.63957 0.24996 0.63022 0.0
O59 O 0.61172 0.34165 0.51756 0.0
O60 O 0.65221 0.37774 0.51841 0.0
H61 H 0.72869 0.36147 0.60492 0.0
H62 H 0.74645 0.32621 0.6269 0.0
C63 C 0.73486 0.33525 0.60179 0.0
H64 H 0.75282 0.33287 0.57964 0.0
H65 H 0.70727 0.41609 0.55752 0.0
O66 O 0.60114 0.26481 0.52818 0.0
C67 C 0.62181 0.3711 0.51701 0.0
Co68 Co 0.7044 0.6348 0.02282 0.0
Co69 Co 0.65292 0.69125 0.02429 0.0
C70 C 0.70043 0.68268 0.96247 0.0
O71 O 0.71349 0.65757 0.97664 0.0
O72 O 0.6771 0.69768 0.97802 0.0
C73 C 0.75491 0.58879 1.00496 0.0
O74 O 0.74943 0.59844 0.97168 0.0
C75 C 0.63585 0.75964 0.02405 0.0
C76 C 0.58527 0.76089 0.04473 0.0
C77 C 0.61049 0.78057 0.03252 0.0
N78 N 0.62615 0.72891 0.03041 0.0
N79 N 0.59576 0.72968 0.04254 0.0
C80 C 0.66993 0.76888 1.01357 0.0
H81 H 0.67057 0.77422 0.98425 0.0
H82 H 0.6872 0.74871 0.01952 0.0
H83 H 0.6777 0.79124 0.02817 0.0
C84 C 0.72338 0.66576 0.09222 0.0
N85 N 0.70482 0.66442 0.06222 0.0
N86 N 0.68254 0.68754 0.06365 0.0
C87 C 0.6859 0.70404 0.09496 0.0
C88 C 0.71201 0.6909 0.11408 0.0
C89 C 0.75196 0.64383 0.0991 0.0
H90 H 0.7669 0.64174 0.07423 0.0
H91 H 0.76754 0.65316 0.12131 0.0
H92 H 0.74294 0.61908 0.10619 0.0
O93 O 0.66158 0.61191 0.02036 0.0
O94 O 0.62479 0.65178 0.02149 0.0
H95 H 0.66453 0.73361 0.1373 0.0
H96 H 0.66882 0.75334 0.09404 0.0
C97 C 0.66286 0.72998 0.1077 0.0
H98 H 0.63744 0.72316 0.10079 0.0
H99 H 0.58245 0.709 0.05 0.0
O100 O 0.73834 0.60111 0.03057 0.0
C101 C 0.63195 0.62149 0.02012 0.0
Co102 Co 0.36852 0.70251 0.51856 0.0
Co103 Co 0.31262 0.65056 0.51913 0.0
C104 C 0.32146 0.69841 0.45757 0.0
O105 O 0.34572 0.71223 0.47263 0.0
O106 O 0.30713 0.6743 0.47247 0.0
C107 C 0.41322 0.75495 0.50242 0.0
O108 O 0.40213 0.75202 0.46932 0.0
C109 C 0.24432 0.63374 0.51735 0.0
C110 C 0.24232 0.58378 0.53981 0.0
C111 C 0.22302 0.60882 0.52643 0.0
N112 N 0.27485 0.62391 0.52455 0.0
N113 N 0.27365 0.59387 0.53763 0.0
C114 C 0.23572 0.66771 0.50572 0.0
H115 H 0.2553 0.68508 0.51348 0.0
H116 H 0.21227 0.67558 0.518 0.0
H117 H 0.233 0.66822 0.47594 0.0
C118 C 0.33707 0.72097 0.58773 0.0
N119 N 0.33873 0.70254 0.55767 0.0
N120 N 0.31558 0.68028 0.55861 0.0
C121 C 0.29866 0.68358 0.58968 0.0
C122 C 0.31164 0.70957 0.60915 0.0
C123 C 0.35895 0.74949 0.59508 0.0
H124 H 0.3611 0.76472 0.57042 0.0
H125 H 0.34957 0.76482 0.61747 0.0
H126 H 0.38369 0.74042 0.60208 0.0
O127 O 0.39154 0.65966 0.51575 0.0
O128 O 0.35203 0.62249 0.51723 0.0
H129 H 0.26785 0.66268 0.63129 0.0
H130 H 0.24946 0.66636 0.58725 0.0
C131 C 0.27239 0.66065 0.60186 0.0
H132 H 0.27948 0.63517 0.59558 0.0
H133 H 0.29408 0.58065 0.54602 0.0
O134 O 0.40221 0.73631 0.52701 0.0
C135 C 0.38224 0.62992 0.51576 0.0
Co136 Co 0.80236 0.13502 0.05819 0.0
Co137 Co 0.85269 0.19268 0.05728 0.0
C138 C 0.80567 0.18308 0.1189 0.0
O139 O 0.79322 0.1578 0.10444 0.0
O140 O 0.82873 0.19874 0.10362 0.0
C141 C 0.74588 0.0942 0.07266 0.0
O142 O 0.74398 0.10997 0.10345 0.0
C143 C 0.87324 0.26071 0.05991 0.0
C144 C 0.91972 0.26061 0.02964 0.0
C145 C 0.89794 0.28087 0.04744 0.0
N146 N 0.88013 0.22987 0.05032 0.0
N147 N 0.90821 0.22984 0.03265 0.0
C148 C 0.84148 0.27111 0.07634 0.0
H149 H 0.82209 0.25295 0.07054 0.0
H150 H 0.8338 0.2953 0.06579 0.0
H151 H 0.84464 0.27318 0.10597 0.0
C152 C 0.78432 0.16463 0.98787 0.0
N153 N 0.80194 0.16443 1.01859 0.0
N154 N 0.82281 0.18887 1.01804 0.0
C155 C 0.81887 0.20567 0.98698 0.0
C156 C 0.79441 0.19082 0.96672 0.0
C157 C 0.76042 0.13847 0.97792 0.0
H158 H 0.77196 0.11419 0.98169 0.0
H159 H 0.739 0.13986 0.99621 0.0
H160 H 0.75214 0.14063 0.94953 0.0
O161 O 0.84514 0.11252 0.06068 0.0
O162 O 0.88109 0.15314 0.0598 0.0
H163 H 0.86377 0.22983 0.97438 0.0
H164 H 0.82849 0.24742 0.95228 0.0
C165 C 0.83753 0.23593 0.97745 0.0
H166 H 0.83506 0.25394 0.99953 0.0
H167 H 0.91889 0.20901 0.02152 0.0
O168 O 0.76854 0.10116 0.05049 0.0
C169 C 0.87455 0.12269 0.06097 0.0
Co170 Co 0.86869 0.80149 0.56059 0.0
Co171 Co 0.81203 0.85273 0.55933 0.0
C172 C 0.82116 0.80538 0.62124 0.0
O173 O 0.84631 0.79245 0.607 0.0
O174 O 0.80591 0.82857 0.60569 0.0
C175 C 0.91135 0.74653 0.57507 0.0
O176 O 0.89743 0.74585 0.60701 0.0
C177 C 0.74364 0.87022 0.55969 0.0
C178 C 0.74277 0.92022 0.53725 0.0
C179 C 0.72291 0.89546 0.55023 0.0
N180 N 0.77445 0.87957 0.55314 0.0
N181 N 0.7739 0.90964 0.54003 0.0
C182 C 0.73414 0.83646 0.57113 0.0
H183 H 0.75414 0.81889 0.56555 0.0
H184 H 0.71166 0.82854 0.55686 0.0
H185 H 0.72894 0.83653 0.6005 0.0
C186 C 0.83746 0.78218 0.49152 0.0
N187 N 0.83882 0.80083 0.52144 0.0
N188 N 0.8156 0.82299 0.52004 0.0
C189 C 0.79898 0.81944 0.48882 0.0
C190 C 0.8122 0.79336 0.46972 0.0
C191 C 0.85951 0.75369 0.48462 0.0
H192 H 0.86165 0.73874 0.50948 0.0
H193 H 0.85024 0.73806 0.46242 0.0
H194 H 0.88421 0.76281 0.47753 0.0
O195 O 0.89138 0.8444 0.56273 0.0
O196 O 0.85139 0.88103 0.56178 0.0
H197 H 0.77975 0.8678 0.4825 0.0
H198 H 0.76875 0.84021 0.44665 0.0
C199 C 0.77283 0.84228 0.47615 0.0
H200 H 0.74969 0.83651 0.49035 0.0
H201 H 0.79466 0.92257 0.5321 0.0
O202 O 0.90268 0.768 0.55221 0.0
C203 C 0.88171 0.87399 0.56294 0.0
Co204 Co 0.20522 0.86823 0.05589 0.0
Co205 Co 0.15291 0.81252 0.05565 0.0
C206 C 0.20076 0.82076 0.11692 0.0
O207 O 0.21478 0.84487 0.10171 0.0
O208 O 0.17646 0.80666 0.10221 0.0
C209 C 0.25571 0.91417 0.07369 0.0
O210 O 0.24927 0.90535 0.10704 0.0
C211 C 0.13273 0.74478 0.0592 0.0
C212 C 0.08515 0.74436 0.0311 0.0
C213 C 0.10779 0.72434 0.04795 0.0
N214 N 0.12516 0.77551 0.04981 0.0
N215 N 0.09646 0.77525 0.03345 0.0
C216 C 0.16524 0.73486 0.07417 0.0
H217 H 0.18424 0.75296 0.06671 0.0
H218 H 0.17256 0.71043 0.06401 0.0
H219 H 0.16355 0.73365 0.10402 0.0
C220 C 0.22203 0.83779 0.98565 0.0
N221 N 0.2045 0.8388 1.01643 0.0
N222 N 0.1826 0.81529 1.01604 0.0
C223 C 0.18549 0.79851 0.98484 0.0
C224 C 0.21058 0.81221 0.9645 0.0
C225 C 0.24736 0.86259 0.97574 0.0
H226 H 0.2681 0.8608 0.99491 0.0
H227 H 0.25643 0.85923 0.94778 0.0
H228 H 0.23679 0.88743 0.97829 0.0
O229 O 0.16282 0.8919 0.0591 0.0
O230 O 0.12552 0.85249 0.05779 0.0
H231 H 0.13895 0.77689 0.97407 0.0
H232 H 0.17215 0.75887 0.94871 0.0
C233 C 0.165 0.76956 0.97502 0.0
H234 H 0.16781 0.75047 0.99596 0.0
H235 H 0.08518 0.79596 0.02275 0.0
O236 O 0.23981 0.90125 0.04793 0.0
C237 C 0.13306 0.88268 0.05925 0.0
Co238 Co 0.13406 0.2051 0.55828 0.0
Co239 Co 0.1913 0.15429 0.55734 0.0
C240 C 0.18252 0.20175 0.61861 0.0
O241 O 0.15729 0.2144 0.60422 0.0
O242 O 0.19782 0.17843 0.60343 0.0
C243 C 0.0881 0.25566 0.57655 0.0
O244 O 0.09723 0.24964 0.60988 0.0
C245 C 0.2592 0.13324 0.55961 0.0
C246 C 0.25859 0.08675 0.5294 0.0
C247 C 0.27912 0.10843 0.54699 0.0
N248 N 0.22824 0.12652 0.55031 0.0
N249 N 0.22792 0.09843 0.53269 0.0
C250 C 0.26991 0.16496 0.57587 0.0
H251 H 0.25189 0.18449 0.57007 0.0
H252 H 0.29412 0.17244 0.5652 0.0
H253 H 0.27206 0.16186 0.60551 0.0
C254 C 0.16337 0.22247 0.48759 0.0
N255 N 0.16318 0.20501 0.51845 0.0
N256 N 0.18748 0.18399 0.51793 0.0
C257 C 0.20418 0.18766 0.48676 0.0
C258 C 0.18939 0.21211 0.4664 0.0
C259 C 0.13737 0.24655 0.47762 0.0
H260 H 0.13921 0.26816 0.49557 0.0
H261 H 0.13935 0.25449 0.44909 0.0
H262 H 0.11301 0.23533 0.48188 0.0
O263 O 0.11115 0.16256 0.56133 0.0
O264 O 0.1515 0.12629 0.56038 0.0
H265 H 0.2281 0.1426 0.47436 0.0
H266 H 0.2458 0.17771 0.45201 0.0
C267 C 0.23432 0.16883 0.47726 0.0
H268 H 0.2524 0.17132 0.49927 0.0
H269 H 0.20696 0.08787 0.52174 0.0
O270 O 0.10073 0.23944 0.55086 0.0
C271 C 0.12111 0.13307 0.56176 0.0
C272 C 0.28603 0.95022 0.03056 0.0
C273 C 0.27958 0.94045 0.06624 0.0
C274 C 0.30633 0.9769 0.02361 0.0
C275 C 0.36711 0.03315 0.06435 0.0
H276 H 0.32944 0.09574 0.99778 0.0
C277 C 0.39862 0.17066 0.0639 0.0
C278 C 0.39558 0.18797 0.03141 0.0
C279 C 0.39173 0.13721 0.06504 0.0
C280 C 0.34085 0.07833 1.01582 0.0
H281 H 0.29068 0.95004 0.12251 0.0
H282 H 0.32578 0.99687 0.11034 0.0
H283 H 0.30378 0.04287 1.00552 0.0
H284 H 0.38635 0.18388 0.9741 0.0
H285 H 0.37529 0.1253 0.97571 0.0
H286 H 0.4038 0.06917 0.07523 0.0
C287 C 0.31536 0.98373 0.08774 0.0
C288 C 0.32602 0.04795 0.02032 0.0
C289 C 0.29503 0.95703 0.09472 0.0
C290 C 0.3883 0.171 0.99957 0.0
C291 C 0.3818 0.13755 1.00058 0.0
C292 C 0.38209 0.06361 0.05973 0.0
C293 C 0.32064 0.99439 0.05215 0.0
C294 C 0.33864 0.02521 0.04503 0.0
C295 C 0.38205 0.12053 0.03358 0.0
C296 C 0.3688 0.08676 0.03581 0.0
H297 H 0.2748 0.93775 1.00797 0.0
H298 H 0.31034 0.98423 0.99586 0.0
H299 H 0.37759 0.01596 0.08332 0.0
H300 H 0.40412 0.18336 0.08881 0.0
H301 H 0.39198 0.12498 0.09096 0.0
C302 C 0.05261 0.28632 0.53325 0.0
C303 C 0.06198 0.27965 0.56899 0.0
C304 C 0.02618 0.30687 0.5261 0.0
C305 C 0.9699 0.3678 0.56656 0.0
H306 H 0.90792 0.33089 0.49886 0.0
C307 C 0.83249 0.39921 0.5649 0.0
C308 C 0.81548 0.39634 0.53222 0.0
C309 C 0.86596 0.39255 0.56628 0.0
C310 C 0.92518 0.3421 0.51721 0.0
H311 H 0.05195 0.29057 0.62521 0.0
H312 H 0.00548 0.32606 0.61272 0.0
H313 H 0.96053 0.3049 0.50711 0.0
H314 H 0.82011 0.38773 0.47484 0.0
H315 H 0.87875 0.37708 0.47687 0.0
H316 H 0.93394 0.40459 0.57727 0.0
C317 C 0.01877 0.31565 0.59021 0.0
C318 C 0.9554 0.32708 0.522 0.0
C319 C 0.04525 0.2951 0.59738 0.0
C320 C 0.83277 0.38956 0.50044 0.0
C321 C 0.86624 0.38329 0.5017 0.0
C322 C 0.93959 0.38297 0.56165 0.0
C323 C 0.00851 0.32117 0.55452 0.0
C324 C 0.97791 0.33941 0.54713 0.0
C325 C 0.88295 0.38327 0.53487 0.0
C326 C 0.91666 0.36995 0.53732 0.0
H327 H 0.06522 0.27513 0.51073 0.0
H328 H 0.01918 0.31107 0.4983 0.0
H329 H 0.98692 0.37806 0.58584 0.0
H330 H 0.81952 0.40433 0.58976 0.0
H331 H 0.87795 0.39259 0.59232 0.0
C332 C 0.72287 0.05293 0.03004 0.0
C333 C 0.72322 0.06707 0.06457 0.0
C334 C 0.70378 0.02542 0.02309 0.0
C335 C 0.63717 0.97289 0.05892 0.0
H336 H 0.68415 0.90528 1.00725 0.0
C337 C 0.60454 0.83489 0.06238 0.0
C338 C 0.61153 0.81649 0.03141 0.0
C339 C 0.61182 0.86829 0.06328 0.0
C340 C 0.67032 0.92404 0.02109 0.0
H341 H 0.70257 0.06446 0.11842 0.0
H342 H 0.66976 0.01588 0.10649 0.0
H343 H 0.70884 0.9586 1.01463 0.0
H344 H 0.62818 0.8186 0.97602 0.0
H345 H 0.64024 0.87692 0.97717 0.0
H346 H 0.59897 0.93757 0.06616 0.0
C347 C 0.68394 0.02631 0.08466 0.0
C348 C 0.68453 0.95469 0.02534 0.0
C349 C 0.70292 0.05403 0.09157 0.0
C350 C 0.62325 0.83229 1.00044 0.0
C351 C 0.63022 0.86559 1.00118 0.0
C352 C 0.62288 0.94204 0.05466 0.0
C353 C 0.6848 0.01125 0.05058 0.0
C354 C 0.66827 0.97945 0.04446 0.0
C355 C 0.62591 0.88369 0.03307 0.0
C356 C 0.63943 0.91724 0.03582 0.0
H357 H 0.73785 0.0627 1.00848 0.0
H358 H 0.70445 0.01482 0.99632 0.0
H359 H 0.62393 0.99156 0.07356 0.0
H360 H 0.5955 0.82307 0.08657 0.0
H361 H 0.6083 0.88152 0.08828 0.0
C362 C 0.95099 0.72276 0.53105 0.0
C363 C 0.93826 0.72383 0.56625 0.0
C364 C 0.9782 0.70354 0.52321 0.0
C365 C 0.03165 0.63726 0.55766 0.0
H366 H 0.09786 0.68334 0.5028 0.0
C367 C 0.16911 0.60353 0.55726 0.0
C368 C 0.1871 0.61043 0.52596 0.0
C369 C 0.13581 0.6111 0.55884 0.0
C370 C 0.07947 0.66973 0.5175 0.0
H371 H 0.9431 0.70432 0.62043 0.0
H372 H 0.9911 0.67118 0.60685 0.0
H373 H 0.04489 0.70834 0.51181 0.0
H374 H 0.18433 0.62726 0.47068 0.0
H375 H 0.12611 0.63972 0.47296 0.0
H376 H 0.06691 0.59892 0.56402 0.0
C377 C 0.9798 0.68495 0.58524 0.0
C378 C 0.04903 0.68414 0.52272 0.0
C379 C 0.95243 0.70412 0.59308 0.0
C380 C 0.17095 0.62237 0.49533 0.0
C381 C 0.13771 0.6296 0.49674 0.0
C382 C 0.06225 0.62274 0.55238 0.0
C383 C 0.99342 0.68507 0.5504 0.0
C384 C 0.02484 0.66825 0.54309 0.0
C385 C 0.12005 0.62535 0.52897 0.0
C386 C 0.08658 0.63898 0.53245 0.0
H387 H 0.94035 0.73729 0.50962 0.0
H388 H 0.98774 0.70365 0.49593 0.0
H389 H 0.01339 0.6243 0.57324 0.0
H390 H 0.18118 0.59432 0.58121 0.0
H391 H 0.12298 0.60764 0.58412 0.0
C392 C 0.7947 0.54632 0.98406 0.0
C393 C 0.77884 0.56262 1.01248 0.0
C394 C 0.81535 0.51989 0.99112 0.0
C395 C 0.82678 0.45585 0.05867 0.0
H396 H 0.90496 0.43582 1.00384 0.0
C397 C 0.89063 0.33378 0.07947 0.0
C398 C 0.89777 0.31684 0.04757 0.0
C399 C 0.88396 0.36719 0.07849 0.0
C400 C 0.88315 0.44107 0.01934 0.0
H401 H 0.77362 0.56512 0.07072 0.0
H402 H 0.80974 0.51915 0.08297 0.0
H403 H 0.87793 0.48861 0.99568 0.0
H404 H 0.90599 0.32146 0.99011 0.0
H405 H 0.89356 0.37979 0.98803 0.0
H406 H 0.83096 0.40815 0.0813 0.0
C407 C 0.80579 0.52645 0.05521 0.0
C408 C 0.8677 0.47127 1.01467 0.0
C409 C 0.78514 0.55283 0.04817 0.0
C410 C 0.90059 0.33415 1.01506 0.0
C411 C 0.89354 0.36756 1.01396 0.0
C412 C 0.8421 0.42573 0.06324 0.0
C413 C 0.82057 0.50925 0.02673 0.0
C414 C 0.83906 0.47876 0.03392 0.0
C415 C 0.8839 0.38417 0.04547 0.0
C416 C 0.8702 0.41774 0.04328 0.0
H417 H 0.79046 0.55334 0.95627 0.0
H418 H 0.82611 0.50696 0.96857 0.0
H419 H 0.80443 0.46056 0.07343 0.0
H420 H 0.88885 0.32089 0.10495 0.0
H421 H 0.87747 0.37941 0.1034 0.0
C422 C 0.45074 0.78208 0.5464 0.0
C423 C 0.43971 0.77831 0.51074 0.0
C424 C 0.47756 0.80196 0.55399 0.0
C425 C 0.53225 0.8659 0.51677 0.0
H426 H 0.59673 0.8236 0.57746 0.0
C427 C 0.6695 0.89971 0.51831 0.0
C428 C 0.687 0.89435 0.55027 0.0
C429 C 0.6362 0.8922 0.51666 0.0
C430 C 0.5788 0.83624 0.56112 0.0
H431 H 0.44713 0.79373 0.4553 0.0
H432 H 0.49433 0.82807 0.46852 0.0
H433 H 0.54397 0.79808 0.56873 0.0
H434 H 0.68345 0.88023 0.60641 0.0
H435 H 0.62515 0.86817 0.60406 0.0
H436 H 0.56768 0.90378 0.5086 0.0
C437 C 0.48204 0.81588 0.49064 0.0
C438 C 0.54849 0.8215 0.55605 0.0
C439 C 0.45514 0.79601 0.48304 0.0
C440 C 0.6704 0.88402 0.58132 0.0
C441 C 0.63712 0.87696 0.57985 0.0
C442 C 0.56267 0.88079 0.52198 0.0
C443 C 0.49398 0.81846 0.52609 0.0
C444 C 0.525 0.83593 0.53351 0.0
C445 C 0.61992 0.8796 0.54712 0.0
C446 C 0.58644 0.8659 0.54391 0.0
H447 H 0.43913 0.76913 0.56845 0.0
H448 H 0.48587 0.8039 0.58166 0.0
H449 H 0.51449 0.87773 0.49949 0.0
H450 H 0.68199 0.90757 0.49402 0.0
H451 H 0.62378 0.89437 0.49097 0.0
C452 C 0.2086 0.45764 0.98314 0.0
C453 C 0.22529 0.44166 1.0112 0.0
C454 C 0.18835 0.4843 0.99053 0.0
C455 C 0.17965 0.54934 0.05736 0.0
H456 H 0.09962 0.56917 1.00587 0.0
C457 C 0.11674 0.67164 0.07993 0.0
C458 C 0.10826 0.68838 0.04829 0.0
C459 C 0.12347 0.63825 0.07888 0.0
C460 C 0.12196 0.56399 0.02041 0.0
H461 H 0.23234 0.43994 0.06923 0.0
H462 H 0.19691 0.48627 0.08207 0.0
H463 H 0.12612 0.51618 0.99719 0.0
H464 H 0.09778 0.68342 0.99133 0.0
H465 H 0.11031 0.62511 0.98909 0.0
H466 H 0.1765 0.59726 0.07952 0.0
C467 C 0.19992 0.47856 0.05431 0.0
C468 C 0.13711 0.53367 1.01544 0.0
C469 C 0.22017 0.45197 0.04693 0.0
C470 C 0.10423 0.67088 1.01608 0.0
C471 C 0.11135 0.63749 1.01489 0.0
C472 C 0.16464 0.57957 0.06221 0.0
C473 C 0.18436 0.49548 0.02613 0.0
C474 C 0.16637 0.52623 0.03353 0.0
C475 C 0.12225 0.62107 0.04603 0.0
C476 C 0.13584 0.58748 0.04348 0.0
H477 H 0.21192 0.45021 0.95532 0.0
H478 H 0.17694 0.497 0.96819 0.0
H479 H 0.20249 0.54466 0.07117 0.0
H480 H 0.11949 0.68467 0.1052 0.0
H481 H 0.13096 0.62617 0.10355 0.0
C482 C 0.33205 0.10561 0.51395 0.0
C483 C 0.31509 0.10845 0.54667 0.0
C484 C 0.36549 0.11247 0.51245 0.0
C485 C 0.42473 0.16312 0.56132 0.0
H486 H 0.48649 0.12703 0.49274 0.0
C487 C 0.55249 0.21836 0.54558 0.0
C488 C 0.562 0.22503 0.50987 0.0
C489 C 0.52591 0.19798 0.55263 0.0
C490 C 0.46946 0.13733 0.51201 0.0
H491 H 0.31977 0.11724 0.604 0.0
H492 H 0.37835 0.12821 0.60178 0.0
H493 H 0.43345 0.10058 0.5013 0.0
H494 H 0.55202 0.21427 0.45361 0.0
H495 H 0.50529 0.17904 0.46594 0.0
H496 H 0.46016 0.20024 0.57145 0.0
C497 C 0.36583 0.12189 0.577 0.0
C498 C 0.43912 0.12221 0.5169 0.0
C499 C 0.33239 0.11543 0.57838 0.0
C500 C 0.54523 0.20974 0.48142 0.0
C501 C 0.51859 0.18934 0.48849 0.0
C502 C 0.455 0.17808 0.55655 0.0
C503 C 0.38249 0.12189 0.54378 0.0
C504 C 0.41619 0.13526 0.54123 0.0
C505 C 0.50822 0.18382 0.52415 0.0
C506 C 0.47752 0.1657 0.53144 0.0
H507 H 0.31908 0.10035 0.48914 0.0
H508 H 0.37744 0.11241 0.48638 0.0
H509 H 0.40748 0.17435 0.57967 0.0
H510 H 0.56513 0.22944 0.56815 0.0
H511 H 0.51881 0.19378 0.58042 0.0
C512 C 0.61266 0.56327 1.01818 0.0
C513 C 0.60536 0.59685 1.01866 0.0
C514 C 0.58766 0.54001 1.01737 0.0
C515 C 0.49985 0.5294 0.03764 0.0
H516 H 0.50841 0.45186 0.9783 0.0
C517 C 0.39268 0.44023 1.01552 0.0
C518 C 0.3996 0.40657 1.01647 0.0
C519 C 0.41791 0.4632 1.01525 0.0
C520 C 0.5058 0.47321 0.99531 0.0
H521 H 0.56587 0.63221 1.01835 0.0
H522 H 0.52234 0.59165 1.01652 0.0
H523 H 0.55201 0.49249 0.97863 0.0
H524 H 0.43869 0.37078 1.01761 0.0
H525 H 0.48273 0.41096 1.01734 0.0
H526 H 0.45365 0.51016 0.05431 0.0
C527 C 0.54742 0.58329 1.01728 0.0
C528 C 0.53079 0.49651 0.99551 0.0
C529 C 0.57242 0.60658 1.01811 0.0
C530 C 0.43244 0.39648 1.0168 0.0
C531 C 0.45771 0.41952 1.01646 0.0
C532 C 0.47486 0.50613 0.03742 0.0
C533 C 0.55473 0.54972 1.017 0.0
C534 C 0.52811 0.52492 1.01665 0.0
C535 C 0.45073 0.45316 1.01588 0.0
C536 C 0.4775 0.47777 1.01622 0.0
H537 H 0.63773 0.55484 1.01869 0.0
H538 H 0.59418 0.51437 1.01764 0.0
H539 H 0.49722 0.55069 0.05474 0.0
H540 H 0.36771 0.44894 1.01511 0.0
H541 H 0.41167 0.4889 1.01424 0.0
C542 C 0.56393 0.39123 0.51466 0.0
C543 C 0.5976 0.39806 0.51527 0.0
C544 C 0.54104 0.41654 0.51367 0.0
C545 C 0.53131 0.50445 0.53373 0.0
H546 H 0.45364 0.49614 0.47458 0.0
C547 C 0.4406 0.6111 0.51349 0.0
C548 C 0.40709 0.60354 0.51448 0.0
C549 C 0.46404 0.58628 0.51281 0.0
C550 C 0.47503 0.49871 0.49152 0.0
H551 H 0.63351 0.43707 0.51503 0.0
H552 H 0.59354 0.48119 0.5129 0.0
H553 H 0.49425 0.45259 0.47453 0.0
H554 H 0.37206 0.56373 0.51543 0.0
H555 H 0.41297 0.5205 0.51449 0.0
H556 H 0.51205 0.55056 0.55075 0.0
C557 C 0.58486 0.4562 0.51367 0.0
C558 C 0.49833 0.47373 0.4915 0.0
C559 C 0.60779 0.43088 0.51467 0.0
C560 C 0.39763 0.5705 0.51457 0.0
C561 C 0.42109 0.54568 0.51384 0.0
C562 C 0.50803 0.52945 0.53372 0.0
C563 C 0.5512 0.44934 0.51324 0.0
C564 C 0.52672 0.47624 0.5127 0.0
C565 C 0.45459 0.55326 0.51304 0.0
C566 C 0.47956 0.52684 0.5127 0.0
H567 H 0.55515 0.36628 0.51522 0.0
H568 H 0.51532 0.41036 0.51387 0.0
H569 H 0.55262 0.50697 0.55081 0.0
H570 H 0.44882 0.63625 0.51329 0.0
H571 H 0.48962 0.59297 0.51174 0.0
C572 C 0.07371 0.89817 0.06109 0.0
C573 C 0.10674 0.9076 0.06064 0.0
C574 C 0.04892 0.92165 0.06174 0.0
C575 C 0.03276 0.00858 0.0831 0.0
H576 H 0.95577 0.99506 0.02406 0.0
C577 C 0.93439 0.10864 0.06179 0.0
C578 C 0.90155 0.0985 0.06209 0.0
C579 C 0.95969 0.08564 0.06208 0.0
C580 C 0.97694 0.99906 0.04102 0.0
H581 H 0.13948 0.94932 0.06067 0.0
H582 H 0.09625 0.99019 0.06141 0.0
H583 H 0.99923 0.95444 0.02381 0.0
H584 H 0.86973 0.05607 0.06334 0.0
H585 H 0.91374 0.01619 0.06414 0.0
H586 H 0.01042 0.05329 0.10021 0.0
C587 C 0.08952 0.9646 0.06173 0.0
C588 C 1.00187 0.97574 0.04089 0.0
C589 C 0.11433 0.94112 0.0611 0.0
C590 C 0.89469 0.06483 0.06295 0.0
C591 C 0.91995 0.0419 0.06319 0.0
C592 C 0.00782 0.03195 0.0832 0.0
C593 C 0.0565 0.95517 0.06192 0.0
C594 C 0.03006 0.98014 0.06201 0.0
C595 C 0.95276 0.05199 0.06259 0.0
C596 C 0.97955 0.02741 0.06224 0.0
H597 H 0.06692 0.8726 0.06089 0.0
H598 H 0.02376 0.91351 0.06241 0.0
H599 H 0.05393 0.01255 0.10005 0.0
H600 H 0.9406 0.13435 0.06105 0.0
H601 H 0.9847 0.09424 0.06125 0.0
C602 C 0.93986 0.89344 0.56439 0.0
C603 C 0.90627 0.90066 0.56409 0.0
C604 C 0.96306 0.9185 0.5649 0.0
C605 C 0.97342 0.00623 0.544 0.0
H606 H 0.05132 0.99795 0.60282 0.0
C607 C 0.06313 0.11333 0.5644 0.0
C608 C 0.09674 0.10624 0.56329 0.0
C609 C 0.04004 0.0882 0.56506 0.0
C610 C 0.02987 1.00049 0.58595 0.0
H611 H 0.87082 0.94008 0.5644 0.0
H612 H 0.91129 0.98373 0.56569 0.0
H613 H 0.01065 0.9544 0.60317 0.0
H614 H 0.13233 0.06697 0.56224 0.0
H615 H 0.09197 0.02312 0.56318 0.0
H616 H 0.99262 0.0523 0.5268 0.0
C617 C 0.91969 0.95865 0.56503 0.0
C618 C 0.00654 0.97552 0.58615 0.0
C619 C 0.89647 0.93359 0.56451 0.0
C620 C 0.10667 0.07335 0.56317 0.0
C621 C 0.08353 0.04819 0.56389 0.0
C622 C 0.99672 0.03119 0.54384 0.0
C623 C 0.95328 0.95142 0.56513 0.0
C624 C 0.97802 0.97808 0.56517 0.0
C625 C 0.04993 0.05532 0.56467 0.0
C626 C 0.02522 0.02865 0.56482 0.0
H627 H 0.94835 0.86839 0.56397 0.0
H628 H 0.98871 0.91204 0.56448 0.0
H629 H 0.95203 0.00876 0.52704 0.0
H630 H 0.05454 0.13835 0.56465 0.0
H631 H 0.01438 0.09456 0.56619 0.0
C632 C 0.24803 0.30162 0.15631 0.0
C633 C 0.28149 0.30535 0.14908 0.0
C634 C 0.23739 0.2926 0.1908 0.0
C635 C 0.26457 0.25003 0.27245 0.0
H636 H 0.19228 0.29433 0.31921 0.0
C637 C 0.20341 0.20071 0.40187 0.0
C638 C 0.19842 0.22339 0.42973 0.0
C639 C 0.21292 0.21117 0.36753 0.0
C640 C 0.21256 0.28182 0.3065 0.0
H641 H 0.32999 0.30355 0.17224 0.0
H642 H 0.31151 0.28704 0.23234 0.0
H643 H 0.21042 0.3122 0.25936 0.0
H644 H 0.19883 0.27475 0.44356 0.0
H645 H 0.21486 0.29324 0.38315 0.0
H646 H 0.26669 0.21959 0.31942 0.0
C647 C 0.29351 0.29087 0.21133 0.0
C648 C 0.22276 0.29187 0.27218 0.0
C649 C 0.30409 0.30025 0.17699 0.0
C650 C 0.20236 0.25682 0.42243 0.0
C651 C 0.21151 0.26735 0.38793 0.0
C652 C 0.25412 0.23973 0.30651 0.0
C653 C 0.26006 0.28684 0.21858 0.0
C654 C 0.24896 0.27615 0.25487 0.0
C655 C 0.21719 0.24459 0.36022 0.0
C656 C 0.22806 0.25555 0.32394 0.0
H657 H 0.23016 0.30524 0.13513 0.0
H658 H 0.21147 0.28942 0.19553 0.0
H659 H 0.28465 0.23729 0.25964 0.0
H660 H 0.19996 0.17483 0.40668 0.0
H661 H 0.21668 0.19311 0.34658 0.0
C662 C 0.80541 0.20499 0.90211 0.0
C663 C 0.7829 0.19986 0.93013 0.0
C664 C 0.79471 0.2143 0.86779 0.0
C665 C 0.72371 0.21298 0.80728 0.0
H666 H 0.76744 0.28509 0.75945 0.0
C667 C 0.7026 0.24754 0.65698 0.0
C668 C 0.69877 0.28095 0.64953 0.0
C669 C 0.71185 0.23711 0.69148 0.0
C670 C 0.75491 0.26499 0.77253 0.0
H671 H 0.73161 0.19989 0.9443 0.0
H672 H 0.71271 0.21558 0.88396 0.0
H673 H 0.78565 0.26762 0.81921 0.0
H674 H 0.70057 0.3296 0.67235 0.0
H675 H 0.71744 0.31149 0.73245 0.0
H676 H 0.69303 0.21035 0.76045 0.0
C677 C 0.73865 0.21247 0.88858 0.0
C678 C 0.76551 0.25482 0.80658 0.0
C679 C 0.74942 0.20353 0.92304 0.0
C680 C 0.70394 0.30372 0.67726 0.0
C681 C 0.71354 0.29336 0.7116 0.0
C682 C 0.71336 0.22291 0.77298 0.0
C683 C 0.76122 0.21823 0.86067 0.0
C684 C 0.74998 0.22877 0.82438 0.0
C685 C 0.71774 0.25996 0.71905 0.0
C686 C 0.72877 0.24911 0.75532 0.0
H687 H 0.83133 0.20175 0.90675 0.0
H688 H 0.81263 0.21812 0.8467 0.0
H689 H 0.71141 0.1927 0.82026 0.0
H690 H 0.69894 0.22954 0.63595 0.0
H691 H 0.71514 0.21123 0.69636 0.0
C692 C 0.82621 0.77724 0.40638 0.0
C693 C 0.80263 0.78144 0.43348 0.0
C694 C 0.8171 0.76668 0.37193 0.0
C695 C 0.7505 0.72506 0.32223 0.0
H696 H 0.79081 0.76518 0.23849 0.0
C697 C 0.72835 0.67715 0.17747 0.0
C698 C 0.72389 0.70063 0.15029 0.0
C699 C 0.73869 0.68649 0.21193 0.0
C700 C 0.77916 0.75385 0.26157 0.0
H701 H 0.75117 0.77772 0.44613 0.0
H702 H 0.73501 0.75974 0.38579 0.0
H703 H 0.80683 0.78267 0.29882 0.0
H704 H 0.72698 0.75212 0.13751 0.0
H705 H 0.74458 0.76864 0.19784 0.0
H706 H 0.72231 0.69678 0.28497 0.0
C707 C 0.76062 0.76419 0.39116 0.0
C708 C 0.78863 0.76361 0.29619 0.0
C709 C 0.76978 0.77476 0.42561 0.0
C710 C 0.73014 0.73358 0.15809 0.0
C711 C 0.74049 0.74296 0.19253 0.0
C712 C 0.74107 0.71527 0.2876 0.0
C713 C 0.78416 0.76012 0.36384 0.0
C714 C 0.77437 0.7494 0.32697 0.0
C715 C 0.74478 0.71954 0.21995 0.0
C716 C 0.75521 0.7296 0.25682 0.0
H717 H 0.85168 0.78251 0.41171 0.0
H718 H 0.83591 0.76347 0.35168 0.0
H719 H 0.73925 0.71336 0.34532 0.0
H720 H 0.72341 0.6516 0.17219 0.0
H721 H 0.74209 0.66777 0.23226 0.0
C722 C 0.25429 0.79581 0.92083 0.0
C723 C 0.22135 0.80286 0.92778 0.0
C724 C 0.26433 0.78649 0.88622 0.0
C725 C 0.23279 0.7516 0.80108 0.0
H726 H 0.31336 0.7851 0.76034 0.0
C727 C 0.26864 0.72829 0.6525 0.0
C728 C 0.30155 0.72136 0.64527 0.0
C729 C 0.25899 0.73885 0.68678 0.0
C730 C 0.29098 0.77521 0.77146 0.0
H731 H 0.17318 0.80662 0.90413 0.0
H732 H 0.19056 0.79027 0.84363 0.0
H733 H 0.29642 0.80233 0.82054 0.0
H734 H 0.35019 0.71966 0.66804 0.0
H735 H 0.33346 0.73794 0.72806 0.0
H736 H 0.22739 0.72433 0.7522 0.0
C737 C 0.20863 0.79141 0.86494 0.0
C738 C 0.28126 0.78512 0.80599 0.0
C739 C 0.19866 0.80082 0.8995 0.0
C740 C 0.3247 0.72527 0.67286 0.0
C741 C 0.31509 0.73579 0.70717 0.0
C742 C 0.24253 0.74165 0.76662 0.0
C743 C 0.24157 0.784 0.85789 0.0
C744 C 0.25203 0.77346 0.8212 0.0
C745 C 0.28208 0.74263 0.71462 0.0
C746 C 0.27173 0.75335 0.75133 0.0
H747 H 0.27218 0.79709 0.94232 0.0
H748 H 0.28982 0.78063 0.88182 0.0
H749 H 0.21041 0.74172 0.81222 0.0
H750 H 0.25039 0.72573 0.63153 0.0
H751 H 0.23346 0.74438 0.69136 0.0
C752 C 0.72768 0.67366 0.90269 0.0
C753 C 0.71284 0.69494 0.92746 0.0
C754 C 0.73919 0.68531 0.86952 0.0
C755 C 0.73435 0.75815 0.80824 0.0
H756 H 0.80856 0.71625 0.76286 0.0
C757 C 0.77586 0.79513 0.66517 0.0
C758 C 0.80911 0.79289 0.6563 0.0
C759 C 0.76424 0.78275 0.69791 0.0
C760 C 0.78812 0.72868 0.77528 0.0
H761 H 0.69924 0.74524 0.93735 0.0
H762 H 0.72076 0.76597 0.88075 0.0
H763 H 0.78933 0.69665 0.82076 0.0
H764 H 0.85644 0.77646 0.67503 0.0
H765 H 0.83669 0.75654 0.73299 0.0
H766 H 0.73445 0.79153 0.76403 0.0
C767 C 0.72237 0.73999 0.88589 0.0
C768 C 0.7766 0.71694 0.80839 0.0
C769 C 0.71017 0.72817 0.91863 0.0
C770 C 0.83061 0.77832 0.68104 0.0
C771 C 0.81914 0.76663 0.71422 0.0
C772 C 0.74633 0.77035 0.77557 0.0
C773 C 0.73687 0.71873 0.86064 0.0
C774 C 0.74941 0.73138 0.82534 0.0
C775 C 0.78572 0.76849 0.72312 0.0
C776 C 0.77328 0.7557 0.75841 0.0
H777 H 0.72987 0.64784 0.90866 0.0
H778 H 0.7495 0.66792 0.85071 0.0
H779 H 0.71303 0.76971 0.81983 0.0
H780 H 0.75864 0.80583 0.64644 0.0
H781 H 0.73826 0.784 0.70308 0.0
C782 C 0.28218 0.69644 0.40552 0.0
C783 C 0.30943 0.7108 0.42231 0.0
C784 C 0.27062 0.70835 0.37252 0.0
C785 C 0.27235 0.78151 0.31374 0.0
H786 H 0.24337 0.7209 0.24002 0.0
C787 C 0.24054 0.82297 0.16855 0.0
C788 C 0.2131 0.8086 0.15214 0.0
C789 C 0.25235 0.81119 0.20152 0.0
C790 C 0.25103 0.73818 0.26046 0.0
H791 H 0.34597 0.74896 0.41727 0.0
H792 H 0.32603 0.76943 0.3596 0.0
H793 H 0.26391 0.7 0.29729 0.0
H794 H 0.1764 0.77068 0.15794 0.0
H795 H 0.19686 0.75036 0.2154 0.0
H796 H 0.25947 0.81969 0.27687 0.0
C797 C 0.31331 0.74923 0.37221 0.0
C798 C 0.26281 0.72619 0.29332 0.0
C799 C 0.32488 0.73732 0.40521 0.0
C800 C 0.1977 0.78225 0.16962 0.0
C801 C 0.20954 0.77046 0.20253 0.0
C802 C 0.26058 0.79351 0.28086 0.0
C803 C 0.28601 0.73492 0.35546 0.0
C804 C 0.2736 0.7477 0.3204 0.0
C805 C 0.23705 0.78473 0.21887 0.0
C806 C 0.24973 0.77199 0.25382 0.0
H807 H 0.2696 0.67604 0.41791 0.0
H808 H 0.24928 0.69702 0.36063 0.0
H809 H 0.27998 0.7988 0.33419 0.0
H810 H 0.25309 0.84325 0.15585 0.0
H811 H 0.27381 0.82252 0.21314 0.0
C812 C 0.22781 0.21276 0.66219 0.0
C813 C 0.19452 0.21461 0.65347 0.0
C814 C 0.23935 0.22509 0.69495 0.0
C815 C 0.2154 0.2784 0.7727 0.0
H816 H 0.28979 0.23618 0.81738 0.0
C817 C 0.27659 0.3317 0.90055 0.0
C818 C 0.29074 0.30992 0.92531 0.0
C819 C 0.26484 0.32047 0.86733 0.0
C820 C 0.26868 0.24808 0.80572 0.0
H821 H 0.14705 0.23055 0.67233 0.0
H822 H 0.16673 0.25056 0.73031 0.0
H823 H 0.26851 0.21511 0.76118 0.0
H824 H 0.30261 0.2592 0.93528 0.0
H825 H 0.28085 0.23928 0.87845 0.0
H826 H 0.21436 0.31012 0.81845 0.0
C827 C 0.18431 0.24066 0.71144 0.0
C828 C 0.25679 0.2363 0.77287 0.0
C829 C 0.17291 0.22896 0.67827 0.0
C830 C 0.29236 0.27663 0.91649 0.0
C831 C 0.27999 0.26527 0.88368 0.0
C832 C 0.22689 0.28978 0.80597 0.0
C833 C 0.21775 0.23896 0.72028 0.0
C834 C 0.23009 0.25138 0.7557 0.0
C835 C 0.2663 0.28703 0.85839 0.0
C836 C 0.2538 0.27487 0.82294 0.0
H837 H 0.24512 0.20235 0.64337 0.0
H838 H 0.26534 0.22404 0.70011 0.0
H839 H 0.19513 0.29109 0.76026 0.0
H840 H 0.27517 0.35756 0.90656 0.0
H841 H 0.25509 0.33817 0.84849 0.0
C842 C 0.79458 0.22803 0.16295 0.0
C843 C 0.7928 0.19479 0.15391 0.0
C844 C 0.78209 0.2393 0.19576 0.0
C845 C 0.72835 0.21468 0.27297 0.0
H846 H 0.76998 0.28898 0.31848 0.0
C847 C 0.6739 0.27506 0.40079 0.0
C848 C 0.69543 0.28927 0.42575 0.0
C849 C 0.68543 0.26344 0.36762 0.0
C850 C 0.75825 0.26788 0.30659 0.0
H851 H 0.77685 0.14716 0.1723 0.0
H852 H 0.75657 0.16637 0.23035 0.0
H853 H 0.79152 0.2681 0.26229 0.0
H854 H 0.74603 0.30132 0.43617 0.0
H855 H 0.76645 0.27977 0.37945 0.0
H856 H 0.69631 0.21326 0.31847 0.0
C857 C 0.76653 0.18412 0.21169 0.0
C858 C 0.77029 0.25622 0.27374 0.0
C859 C 0.7784 0.17298 0.17847 0.0
C860 C 0.72877 0.29102 0.41722 0.0
C861 C 0.74043 0.27877 0.38446 0.0
C862 C 0.7167 0.22594 0.30623 0.0
C863 C 0.76812 0.2175 0.22083 0.0
C864 C 0.75543 0.22957 0.25626 0.0
C865 C 0.71891 0.26508 0.35895 0.0
C866 C 0.73139 0.25281 0.32351 0.0
H867 H 0.80504 0.2455 0.14433 0.0
H868 H 0.78308 0.26527 0.20115 0.0
H869 H 0.71582 0.19444 0.26029 0.0
H870 H 0.648 0.27355 0.40658 0.0
H871 H 0.6679 0.25367 0.34862 0.0
loop_
_geom_bond_atom_site_label_1
_geom_bond_atom_site_label_2
_geom_bond_distance
_geom_bond_site_symmetry_2
_ccdc_geom_bond_type
Co0 O3 1.970 1_554 S
Co0 N17 1.989 . S
Co0 O25 1.967 1_554 S
Co0 O32 1.920 . S
Co1 O4 1.966 1_554 S
Co1 N10 2.022 . S
Co1 N18 1.993 . S
Co1 O26 1.941 . S
C2 O3 1.258 . S
C2 O4 1.263 . S
O3 Co0 1.970 1_556 S
O3 C2 1.258 . S
O4 Co1 1.966 1_556 S
O4 C2 1.263 . S
C5 O6 1.235 . S
C5 O32 1.289 . S
O6 C5 1.235 . S
C7 C9 1.400 1_556 S
C7 N10 1.351 1_556 S
C7 C12 1.501 . S
C8 C9 1.387 . S
C8 N11 1.341 . S
C9 C7 1.400 1_554 S
C9 C8 1.387 . S
N10 Co1 2.022 . S
N10 C7 1.351 1_554 S
N10 N11 1.365 . S
N11 C8 1.341 . S
N11 N10 1.365 . S
N11 H31 0.862 . S
C12 C7 1.501 . S
C12 H13 0.961 . S
C12 H14 0.961 . S
C12 H15 0.960 . S
H13 C12 0.961 . S
H14 C12 0.961 . S
H15 C12 0.960 . S
C16 N17 1.342 . S
C16 C20 1.401 . S
C16 C21 1.499 . S
N17 Co0 1.989 . S
N17 C16 1.342 . S
N17 N18 1.388 . S
N18 Co1 1.993 . S
N18 N17 1.388 . S
N18 C19 1.346 . S
C19 N18 1.346 . S
C19 C20 1.396 . S
C19 C29 1.510 . S
C20 C16 1.401 . S
C20 C19 1.396 . S
C21 C16 1.499 . S
C21 H22 0.959 . S
C21 H23 0.960 . S
C21 H24 0.961 . S
H22 C21 0.959 . S
H23 C21 0.960 . S
H24 C21 0.961 . S
O25 Co0 1.967 1_556 S
O25 C33 1.258 . S
O26 Co1 1.941 . S
O26 C33 1.266 1_554 S
H27 C29 0.959 . S
H28 C29 0.961 . S
C29 C19 1.510 . S
C29 H27 0.959 . S
C29 H28 0.961 . S
C29 H30 0.960 . S
H30 C29 0.960 . S
H31 N11 0.862 . S
O32 Co0 1.920 . S
O32 C5 1.289 . S
C33 O25 1.258 . S
C33 O26 1.266 1_556 S
Co34 O37 1.970 . S
Co34 N51 1.989 . S
Co34 O59 1.967 . S
Co34 O66 1.920 . S
Co35 O38 1.966 . S
Co35 N44 2.022 . S
Co35 N52 1.993 . S
Co35 O60 1.941 . S
C36 O37 1.258 . S
C36 O38 1.263 . S
O37 Co34 1.970 . S
O37 C36 1.258 . S
O38 Co35 1.966 . S
O38 C36 1.263 . S
C39 O40 1.235 . S
C39 O66 1.289 . S
O40 C39 1.235 . S
C41 C43 1.400 . S
C41 N44 1.351 . S
C41 C46 1.501 . S
C42 C43 1.387 . S
C42 N45 1.341 . S
C43 C41 1.400 . S
C43 C42 1.387 . S
N44 Co35 2.022 . S
N44 C41 1.351 . S
N44 N45 1.365 . S
N45 C42 1.341 . S
N45 N44 1.365 . S
N45 H65 0.862 . S
C46 C41 1.501 . S
C46 H47 0.961 . S
C46 H48 0.961 . S
C46 H49 0.960 . S
H47 C46 0.961 . S
H48 C46 0.961 . S
H49 C46 0.960 . S
C50 N51 1.342 . S
C50 C54 1.401 . S
C50 C55 1.499 . S
N51 Co34 1.989 . S
N51 C50 1.342 . S
N51 N52 1.388 . S
N52 Co35 1.993 . S
N52 N51 1.388 . S
N52 C53 1.346 . S
C53 N52 1.346 . S
C53 C54 1.396 . S
C53 C63 1.510 . S
C54 C50 1.401 . S
C54 C53 1.396 . S
C55 C50 1.499 . S
C55 H56 0.959 . S
C55 H57 0.960 . S
C55 H58 0.961 . S
H56 C55 0.959 . S
H57 C55 0.960 . S
H58 C55 0.961 . S
O59 Co34 1.967 . S
O59 C67 1.258 . S
O60 Co35 1.941 . S
O60 C67 1.266 . S
H61 C63 0.959 . S
H62 C63 0.961 . S
C63 C53 1.510 . S
C63 H61 0.959 . S
C63 H62 0.961 . S
C63 H64 0.960 . S
H64 C63 0.960 . S
H65 N45 0.862 . S
O66 Co34 1.920 . S
O66 C39 1.289 . S
C67 O59 1.258 . S
C67 O60 1.266 . S
Co68 O71 1.970 1_554 S
Co68 N85 1.989 . S
Co68 O93 1.967 1_554 S
Co68 O100 1.920 . S
Co69 O72 1.966 1_554 S
Co69 N78 2.022 . S
Co69 N86 1.993 . S
Co69 O94 1.941 . S
C70 O71 1.258 . S
C70 O72 1.263 . S
O71 Co68 1.970 1_556 S
O71 C70 1.258 . S
O72 Co69 1.966 1_556 S
O72 C70 1.263 . S
C73 O74 1.235 . S
C73 O100 1.289 . S
O74 C73 1.235 . S
C75 C77 1.400 1_556 S
C75 N78 1.351 1_556 S
C75 C80 1.501 . S
C76 C77 1.387 . S
C76 N79 1.341 . S
C77 C75 1.400 1_554 S
C77 C76 1.387 . S
N78 Co69 2.022 . S
N78 C75 1.351 1_554 S
N78 N79 1.365 . S
N79 C76 1.341 . S
N79 N78 1.365 . S
N79 H99 0.862 . S
C80 C75 1.501 . S
C80 H81 0.961 . S
C80 H82 0.961 . S
C80 H83 0.960 . S
H81 C80 0.961 . S
H82 C80 0.961 . S
H83 C80 0.960 . S
C84 N85 1.342 . S
C84 C88 1.401 . S
C84 C89 1.499 . S
N85 Co68 1.989 . S
N85 C84 1.342 . S
N85 N86 1.388 . S
N86 Co69 1.993 . S
N86 N85 1.388 . S
N86 C87 1.346 . S
C87 N86 1.346 . S
C87 C88 1.396 . S
C87 C97 1.510 . S
C88 C84 1.401 . S
C88 C87 1.396 . S
C89 C84 1.499 . S
C89 H90 0.959 . S
C89 H91 0.960 . S
C89 H92 0.961 . S
H90 C89 0.959 . S
H91 C89 0.960 . S
H92 C89 0.961 . S
O93 Co68 1.967 1_556 S
O93 C101 1.258 . S
O94 Co69 1.941 . S
O94 C101 1.266 1_554 S
H95 C97 0.959 . S
H96 C97 0.961 . S
C97 C87 1.510 . S
C97 H95 0.959 . S
C97 H96 0.961 . S
C97 H98 0.960 . S
H98 C97 0.960 . S
H99 N79 0.862 . S
O100 Co68 1.920 . S
O100 C73 1.289 . S
C101 O93 1.258 . S
C101 O94 1.266 1_556 S
Co102 O105 1.970 . S
Co102 N119 1.989 . S
Co102 O127 1.967 . S
Co102 O134 1.920 . S
Co103 O106 1.966 . S
Co103 N112 2.022 . S
Co103 N120 1.993 . S
Co103 O128 1.941 . S
C104 O105 1.258 . S
C104 O106 1.263 . S
O105 Co102 1.970 . S
O105 C104 1.258 . S
O106 Co103 1.966 . S
O106 C104 1.263 . S
C107 O108 1.235 . S
C107 O134 1.289 . S
O108 C107 1.235 . S
C109 C111 1.400 . S
C109 N112 1.351 . S
C109 C114 1.501 . S
C110 C111 1.387 . S
C110 N113 1.341 . S
C111 C109 1.400 . S
C111 C110 1.387 . S
N112 Co103 2.022 . S
N112 C109 1.351 . S
N112 N113 1.365 . S
N113 C110 1.341 . S
N113 N112 1.365 . S
N113 H133 0.862 . S
C114 C109 1.501 . S
C114 H115 0.961 . S
C114 H116 0.961 . S
C114 H117 0.960 . S
H115 C114 0.961 . S
H116 C114 0.961 . S
H117 C114 0.960 . S
C118 N119 1.342 . S
C118 C122 1.401 . S
C118 C123 1.499 . S
N119 Co102 1.989 . S
N119 C118 1.342 . S
N119 N120 1.388 . S
N120 Co103 1.993 . S
N120 N119 1.388 . S
N120 C121 1.346 . S
C121 N120 1.346 . S
C121 C122 1.396 . S
C121 C131 1.510 . S
C122 C118 1.401 . S
C122 C121 1.396 . S
C123 C118 1.499 . S
C123 H124 0.959 . S
C123 H125 0.960 . S
C123 H126 0.961 . S
H124 C123 0.959 . S
H125 C123 0.960 . S
H126 C123 0.961 . S
O127 Co102 1.967 . S
O127 C135 1.258 . S
O128 Co103 1.941 . S
O128 C135 1.266 . S
H129 C131 0.959 . S
H130 C131 0.961 . S
C131 C121 1.510 . S
C131 H129 0.959 . S
C131 H130 0.961 . S
C131 H132 0.960 . S
H132 C131 0.960 . S
H133 N113 0.862 . S
O134 Co102 1.920 . S
O134 C107 1.289 . S
C135 O127 1.258 . S
C135 O128 1.266 . S
Co136 O139 1.970 . S
Co136 N153 1.989 1_554 S
Co136 O161 1.967 . S
Co136 O168 1.920 . S
Co137 O140 1.966 . S
Co137 N146 2.022 . S
Co137 N154 1.993 1_554 S
Co137 O162 1.941 . S
C138 O139 1.258 . S
C138 O140 1.263 . S
O139 Co136 1.970 . S
O139 C138 1.258 . S
O140 Co137 1.966 . S
O140 C138 1.263 . S
C141 O142 1.235 . S
C141 O168 1.289 . S
O142 C141 1.235 . S
C143 C145 1.400 . S
C143 N146 1.351 . S
C143 C148 1.501 . S
C144 C145 1.387 . S
C144 N147 1.341 . S
C145 C143 1.400 . S
C145 C144 1.387 . S
N146 Co137 2.022 . S
N146 C143 1.351 . S
N146 N147 1.365 . S
N147 C144 1.341 . S
N147 N146 1.365 . S
N147 H167 0.862 1_554 S
C148 C143 1.501 . S
C148 H149 0.961 . S
C148 H150 0.961 . S
C148 H151 0.960 . S
H149 C148 0.961 . S
H150 C148 0.961 . S
H151 C148 0.960 . S
C152 N153 1.342 . S
C152 C156 1.401 . S
C152 C157 1.499 . S
N153 Co136 1.989 1_556 S
N153 C152 1.342 . S
N153 N154 1.388 . S
N154 Co137 1.993 1_556 S
N154 N153 1.388 . S
N154 C155 1.346 . S
C155 N154 1.346 . S
C155 C156 1.396 . S
C155 C165 1.510 . S
C156 C152 1.401 . S
C156 C155 1.396 . S
C157 C152 1.499 . S
C157 H158 0.959 . S
C157 H159 0.960 . S
C157 H160 0.961 . S
H158 C157 0.959 . S
H159 C157 0.960 . S
H160 C157 0.961 . S
O161 Co136 1.967 . S
O161 C169 1.258 . S
O162 Co137 1.941 . S
O162 C169 1.266 . S
H163 C165 0.959 . S
H164 C165 0.961 . S
C165 C155 1.510 . S
C165 H163 0.959 . S
C165 H164 0.961 . S
C165 H166 0.960 . S
H166 C165 0.960 . S
H167 N147 0.862 1_556 S
O168 Co136 1.920 . S
O168 C141 1.289 . S
C169 O161 1.258 . S
C169 O162 1.266 . S
Co170 O173 1.970 . S
Co170 N187 1.989 . S
Co170 O195 1.967 . S
Co170 O202 1.920 . S
Co171 O174 1.966 . S
Co171 N180 2.022 . S
Co171 N188 1.993 . S
Co171 O196 1.941 . S
C172 O173 1.258 . S
C172 O174 1.263 . S
O173 Co170 1.970 . S
O173 C172 1.258 . S
O174 Co171 1.966 . S
O174 C172 1.263 . S
C175 O176 1.235 . S
C175 O202 1.289 . S
O176 C175 1.235 . S
C177 C179 1.400 . S
C177 N180 1.351 . S
C177 C182 1.501 . S
C178 C179 1.387 . S
C178 N181 1.341 . S
C179 C177 1.400 . S
C179 C178 1.387 . S
N180 Co171 2.022 . S
N180 C177 1.351 . S
N180 N181 1.365 . S
N181 C178 1.341 . S
N181 N180 1.365 . S
N181 H201 0.862 . S
C182 C177 1.501 . S
C182 H183 0.961 . S
C182 H184 0.961 . S
C182 H185 0.960 . S
H183 C182 0.961 . S
H184 C182 0.961 . S
H185 C182 0.960 . S
C186 N187 1.342 . S
C186 C190 1.401 . S
C186 C191 1.499 . S
N187 Co170 1.989 . S
N187 C186 1.342 . S
N187 N188 1.388 . S
N188 Co171 1.993 . S
N188 N187 1.388 . S
N188 C189 1.346 . S
C189 N188 1.346 . S
C189 C190 1.396 . S
C189 C199 1.510 . S
C190 C186 1.401 . S
C190 C189 1.396 . S
C191 C186 1.499 . S
C191 H192 0.959 . S
C191 H193 0.960 . S
C191 H194 0.961 . S
H192 C191 0.959 . S
H193 C191 0.960 . S
H194 C191 0.961 . S
O195 Co170 1.967 . S
O195 C203 1.258 . S
O196 Co171 1.941 . S
O196 C203 1.266 . S
H197 C199 0.959 . S
H198 C199 0.961 . S
C199 C189 1.510 . S
C199 H197 0.959 . S
C199 H198 0.961 . S
C199 H200 0.960 . S
H200 C199 0.960 . S
H201 N181 0.862 . S
O202 Co170 1.920 . S
O202 C175 1.289 . S
C203 O195 1.258 . S
C203 O196 1.266 . S
Co204 O207 1.970 . S
Co204 N221 1.989 1_554 S
Co204 O229 1.967 . S
Co204 O236 1.920 . S
Co205 O208 1.966 . S
Co205 N214 2.022 . S
Co205 N222 1.993 1_554 S
Co205 O230 1.941 . S
C206 O207 1.258 . S
C206 O208 1.263 . S
O207 Co204 1.970 . S
O207 C206 1.258 . S
O208 Co205 1.966 . S
O208 C206 1.263 . S
C209 O210 1.235 . S
C209 O236 1.289 . S
O210 C209 1.235 . S
C211 C213 1.400 . S
C211 N214 1.351 . S
C211 C216 1.501 . S
C212 C213 1.387 . S
C212 N215 1.341 . S
C213 C211 1.400 . S
C213 C212 1.387 . S
N214 Co205 2.022 . S
N214 C211 1.351 . S
N214 N215 1.365 . S
N215 C212 1.341 . S
N215 N214 1.365 . S
N215 H235 0.862 1_554 S
C216 C211 1.501 . S
C216 H217 0.961 . S
C216 H218 0.961 . S
C216 H219 0.960 . S
H217 C216 0.961 . S
H218 C216 0.961 . S
H219 C216 0.960 . S
C220 N221 1.342 . S
C220 C224 1.401 . S
C220 C225 1.499 . S
N221 Co204 1.989 1_556 S
N221 C220 1.342 . S
N221 N222 1.388 . S
N222 Co205 1.993 1_556 S
N222 N221 1.388 . S
N222 C223 1.346 . S
C223 N222 1.346 . S
C223 C224 1.396 . S
C223 C233 1.510 . S
C224 C220 1.401 . S
C224 C223 1.396 . S
C225 C220 1.499 . S
C225 H226 0.959 . S
C225 H227 0.960 . S
C225 H228 0.961 . S
H226 C225 0.959 . S
H227 C225 0.960 . S
H228 C225 0.961 . S
O229 Co204 1.967 . S
O229 C237 1.258 . S
O230 Co205 1.941 . S
O230 C237 1.266 . S
H231 C233 0.959 . S
H232 C233 0.961 . S
C233 C223 1.510 . S
C233 H231 0.959 . S
C233 H232 0.961 . S
C233 H234 0.960 . S
H234 C233 0.960 . S
H235 N215 0.862 1_556 S
O236 Co204 1.920 . S
O236 C209 1.289 . S
C237 O229 1.258 . S
C237 O230 1.266 . S
Co238 O241 1.970 . S
Co238 N255 1.989 . S
Co238 O263 1.967 . S
Co238 O270 1.920 . S
Co239 O242 1.966 . S
Co239 N248 2.022 . S
Co239 N256 1.993 . S
Co239 O264 1.941 . S
C240 O241 1.258 . S
C240 O242 1.263 . S
O241 Co238 1.970 . S
O241 C240 1.258 . S
O242 Co239 1.966 . S
O242 C240 1.263 . S
C243 O244 1.235 . S
C243 O270 1.289 . S
O244 C243 1.235 . S
C245 C247 1.400 . S
C245 N248 1.351 . S
C245 C250 1.501 . S
C246 C247 1.387 . S
C246 N249 1.341 . S
C247 C245 1.400 . S
C247 C246 1.387 . S
N248 Co239 2.022 . S
N248 C245 1.351 . S
N248 N249 1.365 . S
N249 C246 1.341 . S
N249 N248 1.365 . S
N249 H269 0.862 . S
C250 C245 1.501 . S
C250 H251 0.961 . S
C250 H252 0.961 . S
C250 H253 0.960 . S
H251 C250 0.961 . S
H252 C250 0.961 . S
H253 C250 0.960 . S
C254 N255 1.342 . S
C254 C258 1.401 . S
C254 C259 1.499 . S
N255 Co238 1.989 . S
N255 C254 1.342 . S
N255 N256 1.388 . S
N256 Co239 1.993 . S
N256 N255 1.388 . S
N256 C257 1.346 . S
C257 N256 1.346 . S
C257 C258 1.396 . S
C257 C267 1.510 . S
C258 C254 1.401 . S
C258 C257 1.396 . S
C259 C254 1.499 . S
C259 H260 0.959 . S
C259 H261 0.960 . S
C259 H262 0.961 . S
H260 C259 0.959 . S
H261 C259 0.960 . S
H262 C259 0.961 . S
O263 Co238 1.967 . S
O263 C271 1.258 . S
O264 Co239 1.941 . S
O264 C271 1.266 . S
H265 C267 0.959 . S
H266 C267 0.961 . S
C267 C257 1.510 . S
C267 H265 0.959 . S
C267 H266 0.961 . S
C267 H268 0.960 . S
H268 C267 0.960 . S
H269 N249 0.862 . S
O270 Co238 1.920 . S
O270 C243 1.289 . S
C271 O263 1.258 . S
C271 O264 1.266 . S
C272 C273 1.349 . S
C272 C274 1.327 1_565 S
C272 H297 0.950 1_554 S
C273 C272 1.349 . S
C273 C289 1.349 1_565 S
C274 C272 1.327 1_545 S
C274 C293 1.429 . S
C274 H298 0.950 1_554 S
C275 C292 1.574 . S
C275 C294 1.368 . S
C275 H299 0.949 . S
H276 C280 0.949 . S
C277 C278 1.349 . S
C277 C279 1.327 . S
C277 H300 0.950 . S
C278 C277 1.349 . S
C278 C290 1.349 1_554 S
C279 C277 1.327 . S
C279 C295 1.429 . S
C279 H301 0.950 . S
C280 H276 0.949 . S
C280 C288 1.574 . S
C280 C296 1.368 1_556 S
H281 C289 0.945 1_565 S
H282 C287 0.950 . S
H283 C288 0.949 . S
H284 C290 0.950 . S
H285 C291 0.950 . S
H286 C292 0.949 . S
C287 H282 0.950 . S
C287 C289 1.327 . S
C287 C293 1.429 . S
C288 C280 1.574 . S
C288 H283 0.949 . S
C288 C294 1.368 1_556 S
C289 C273 1.349 1_545 S
C289 H281 0.945 1_545 S
C289 C287 1.327 . S
C290 C278 1.349 1_556 S
C290 H284 0.950 . S
C290 C291 1.327 . S
C291 H285 0.950 . S
C291 C290 1.327 . S
C291 C295 1.429 1_556 S
C292 C275 1.574 . S
C292 H286 0.949 . S
C292 C296 1.368 . S
C293 C274 1.429 . S
C293 C287 1.429 . S
C293 C294 1.523 . S
C294 C275 1.368 . S
C294 C288 1.368 1_554 S
C294 C293 1.523 . S
C295 C279 1.429 . S
C295 C291 1.429 1_554 S
C295 C296 1.523 . S
C296 C280 1.368 1_554 S
C296 C292 1.368 . S
C296 C295 1.523 . S
H297 C272 0.950 1_556 S
H298 C274 0.950 1_556 S
H299 C275 0.949 . S
H300 C277 0.950 . S
H301 C279 0.950 . S
C302 C303 1.345 1_655 S
C302 C304 1.338 . S
C302 H327 0.943 1_655 S
C303 C302 1.345 1_455 S
C303 C319 1.349 1_455 S
C304 C302 1.338 . S
C304 C323 1.429 . S
C304 H328 0.950 . S
C305 C322 1.574 . S
C305 C324 1.368 . S
C305 H329 0.949 . S
H306 C310 0.949 . S
C307 C308 1.349 . S
C307 C309 1.327 . S
C307 H330 0.950 . S
C308 C307 1.349 . S
C308 C320 1.349 . S
C309 C307 1.327 . S
C309 C325 1.429 . S
C309 H331 0.950 . S
C310 H306 0.949 . S
C310 C318 1.574 . S
C310 C326 1.368 . S
H311 C319 0.950 1_455 S
H312 C317 0.950 . S
H313 C318 0.949 . S
H314 C320 0.950 . S
H315 C321 0.950 . S
H316 C322 0.949 . S
C317 H312 0.950 . S
C317 C319 1.327 . S
C317 C323 1.429 . S
C318 C310 1.574 . S
C318 H313 0.949 . S
C318 C324 1.368 . S
C319 C303 1.349 1_655 S
C319 H311 0.950 1_655 S
C319 C317 1.327 . S
C320 C308 1.349 . S
C320 H314 0.950 . S
C320 C321 1.327 . S
C321 H315 0.950 . S
C321 C320 1.327 . S
C321 C325 1.429 . S
C322 C305 1.574 . S
C322 H316 0.949 . S
C322 C326 1.368 . S
C323 C304 1.429 . S
C323 C317 1.429 . S
C323 C324 1.523 . S
C324 C305 1.368 . S
C324 C318 1.368 . S
C324 C323 1.523 . S
C325 C309 1.429 . S
C325 C321 1.429 . S
C325 C326 1.523 . S
C326 C310 1.368 . S
C326 C322 1.368 . S
C326 C325 1.523 . S
H327 C302 0.943 1_455 S
H328 C304 0.950 . S
H329 C305 0.949 . S
H330 C307 0.950 . S
H331 C309 0.950 . S
C332 C333 1.350 . S
C332 C334 1.323 1_545 S
C332 H357 0.952 1_554 S
C333 C332 1.350 . S
C333 C349 1.349 1_545 S
C334 C332 1.323 1_565 S
C334 C353 1.429 . S
C334 H358 0.950 1_554 S
C335 C352 1.574 . S
C335 C354 1.368 . S
C335 H359 0.949 . S
H336 C340 0.949 . S
C337 C338 1.349 . S
C337 C339 1.327 . S
C337 H360 0.950 . S
C338 C337 1.349 . S
C338 C350 1.349 1_554 S
C339 C337 1.327 . S
C339 C355 1.429 . S
C339 H361 0.950 . S
C340 H336 0.949 . S
C340 C348 1.574 . S
C340 C356 1.368 1_556 S
H341 C349 0.947 1_545 S
H342 C347 0.950 . S
H343 C348 0.949 . S
H344 C350 0.950 . S
H345 C351 0.950 . S
H346 C352 0.949 . S
C347 H342 0.950 . S
C347 C349 1.327 . S
C347 C353 1.429 . S
C348 C340 1.574 . S
C348 H343 0.949 . S
C348 C354 1.368 1_556 S
C349 C333 1.349 1_565 S
C349 H341 0.947 1_565 S
C349 C347 1.327 . S
C350 C338 1.349 1_556 S
C350 H344 0.950 . S
C350 C351 1.327 . S
C351 H345 0.950 . S
C351 C350 1.327 . S
C351 C355 1.429 1_556 S
C352 C335 1.574 . S
C352 H346 0.949 . S
C352 C356 1.368 . S
C353 C334 1.429 . S
C353 C347 1.429 . S
C353 C354 1.523 . S
C354 C335 1.368 . S
C354 C348 1.368 1_554 S
C354 C353 1.523 . S
C355 C339 1.429 . S
C355 C351 1.429 1_554 S
C355 C356 1.523 . S
C356 C340 1.368 1_554 S
C356 C352 1.368 . S
C356 C355 1.523 . S
H357 C332 0.952 1_556 S
H358 C334 0.950 1_556 S
H359 C335 0.949 . S
H360 C337 0.950 . S
H361 C339 0.950 . S
C362 C363 1.349 . S
C362 C364 1.327 1_655 S
C362 H387 0.950 . S
C363 C362 1.349 . S
C363 C379 1.349 1_655 S
C364 C362 1.327 1_455 S
C364 C383 1.429 . S
C364 H388 0.950 . S
C365 C382 1.574 . S
C365 C384 1.368 . S
C365 H389 0.949 . S
H366 C370 0.949 . S
C367 C368 1.349 . S
C367 C369 1.327 . S
C367 H390 0.950 . S
C368 C367 1.349 . S
C368 C380 1.349 . S
C369 C367 1.327 . S
C369 C385 1.429 . S
C369 H391 0.950 . S
C370 H366 0.949 . S
C370 C378 1.574 . S
C370 C386 1.368 . S
H371 C379 0.945 1_655 S
H372 C377 0.950 . S
H373 C378 0.949 . S
H374 C380 0.950 . S
H375 C381 0.950 . S
H376 C382 0.949 . S
C377 H372 0.950 . S
C377 C379 1.327 . S
C377 C383 1.429 . S
C378 C370 1.574 . S
C378 H373 0.949 . S
C378 C384 1.368 . S
C379 C363 1.349 1_455 S
C379 H371 0.945 1_455 S
C379 C377 1.327 . S
C380 C368 1.349 . S
C380 H374 0.950 . S
C380 C381 1.327 . S
C381 H375 0.950 . S
C381 C380 1.327 . S
C381 C385 1.429 . S
C382 C365 1.574 . S
C382 H376 0.949 . S
C382 C386 1.368 . S
C383 C364 1.429 . S
C383 C377 1.429 . S
C383 C384 1.523 . S
C384 C365 1.368 . S
C384 C378 1.368 . S
C384 C383 1.523 . S
C385 C369 1.429 . S
C385 C381 1.429 . S
C385 C386 1.523 . S
C386 C370 1.368 . S
C386 C382 1.368 . S
C386 C385 1.523 . S
H387 C362 0.950 . S
H388 C364 0.950 . S
H389 C365 0.949 . S
H390 C367 0.950 . S
H391 C369 0.950 . S
C392 C393 1.349 1_556 S
C392 C394 1.327 . S
C392 H417 0.950 . S
C393 C392 1.349 1_554 S
C393 C409 1.349 . S
C394 C392 1.327 . S
C394 C413 1.429 1_556 S
C394 H418 0.950 . S
C395 C412 1.574 . S
C395 C414 1.368 . S
C395 H419 0.949 . S
H396 C400 0.949 . S
C397 C398 1.349 . S
C397 C399 1.327 . S
C397 H420 0.950 . S
C398 C397 1.349 . S
C398 C410 1.349 . S
C399 C397 1.327 . S
C399 C415 1.429 . S
C399 H421 0.950 . S
C400 H396 0.949 . S
C400 C408 1.574 . S
C400 C416 1.368 1_556 S
H401 C409 0.950 . S
H402 C407 0.950 . S
H403 C408 0.949 . S
H404 C410 0.950 1_556 S
H405 C411 0.964 . S
H406 C412 0.949 . S
C407 H402 0.950 . S
C407 C409 1.327 . S
C407 C413 1.429 . S
C408 C400 1.574 . S
C408 H403 0.949 . S
C408 C414 1.368 1_556 S
C409 C393 1.349 . S
C409 H401 0.950 . S
C409 C407 1.327 . S
C410 C398 1.349 . S
C410 H404 0.950 1_554 S
C410 C411 1.325 1_554 S
C411 H405 0.964 . S
C411 C410 1.325 1_556 S
C411 C415 1.416 1_556 S
C412 C395 1.574 . S
C412 H406 0.949 . S
C412 C416 1.368 . S
C413 C394 1.429 1_554 S
C413 C407 1.429 . S
C413 C414 1.523 . S
C414 C395 1.368 . S
C414 C408 1.368 1_554 S
C414 C413 1.523 . S
C415 C399 1.429 . S
C415 C411 1.416 1_554 S
C415 C416 1.523 . S
C416 C400 1.368 1_554 S
C416 C412 1.368 . S
C416 C415 1.523 . S
H417 C392 0.950 . S
H418 C394 0.950 . S
H419 C395 0.949 . S
H420 C397 0.950 . S
H421 C399 0.950 . S
C422 C423 1.349 . S
C422 C424 1.327 . S
C422 H447 0.950 . S
C423 C422 1.349 . S
C423 C439 1.349 . S
C424 C422 1.327 . S
C424 C443 1.429 . S
C424 H448 0.950 . S
C425 C442 1.574 . S
C425 C444 1.368 . S
C425 H449 0.949 . S
H426 C430 0.949 . S
C427 C428 1.349 . S
C427 C429 1.327 . S
C427 H450 0.950 . S
C428 C427 1.349 . S
C428 C440 1.349 . S
C429 C427 1.327 . S
C429 C445 1.429 . S
C429 H451 0.950 . S
C430 H426 0.949 . S
C430 C438 1.574 . S
C430 C446 1.368 . S
H431 C439 0.950 . S
H432 C437 0.950 . S
H433 C438 0.949 . S
H434 C440 0.950 . S
H435 C441 0.950 . S
H436 C442 0.949 . S
C437 H432 0.950 . S
C437 C439 1.327 . S
C437 C443 1.429 . S
C438 C430 1.574 . S
C438 H433 0.949 . S
C438 C444 1.368 . S
C439 C423 1.349 . S
C439 H431 0.950 . S
C439 C437 1.327 . S
C440 C428 1.349 . S
C440 H434 0.950 . S
C440 C441 1.327 . S
C441 H435 0.950 . S
C441 C440 1.327 . S
C441 C445 1.429 . S
C442 C425 1.574 . S
C442 H436 0.949 . S
C442 C446 1.368 . S
C443 C424 1.429 . S
C443 C437 1.429 . S
C443 C444 1.523 . S
C444 C425 1.368 . S
C444 C438 1.368 . S
C444 C443 1.523 . S
C445 C429 1.429 . S
C445 C441 1.429 . S
C445 C446 1.523 . S
C446 C430 1.368 . S
C446 C442 1.368 . S
C446 C445 1.523 . S
H447 C422 0.950 . S
H448 C424 0.950 . S
H449 C425 0.949 . S
H450 C427 0.950 . S
H451 C429 0.950 . S
C452 C453 1.349 1_556 S
C452 C454 1.327 . S
C452 H477 0.950 . S
C453 C452 1.349 1_554 S
C453 C469 1.349 . S
C454 C452 1.327 . S
C454 C473 1.429 1_556 S
C454 H478 0.950 . S
C455 C472 1.574 . S
C455 C474 1.368 . S
C455 H479 0.949 . S
H456 C460 0.949 . S
C457 C458 1.349 . S
C457 C459 1.327 . S
C457 H480 0.950 . S
C458 C457 1.349 . S
C458 C470 1.349 . S
C459 C457 1.327 . S
C459 C475 1.429 . S
C459 H481 0.950 . S
C460 H456 0.949 . S
C460 C468 1.574 . S
C460 C476 1.368 1_556 S
H461 C469 0.950 . S
H462 C467 0.950 . S
H463 C468 0.949 . S
H464 C470 0.950 1_556 S
H465 C471 0.950 1_556 S
H466 C472 0.949 . S
C467 H462 0.950 . S
C467 C469 1.327 . S
C467 C473 1.429 . S
C468 C460 1.574 . S
C468 H463 0.949 . S
C468 C474 1.368 1_556 S
C469 C453 1.349 . S
C469 H461 0.950 . S
C469 C467 1.327 . S
C470 C458 1.349 . S
C470 H464 0.950 1_554 S
C470 C471 1.327 . S
C471 H465 0.950 1_554 S
C471 C470 1.327 . S
C471 C475 1.429 . S
C472 C455 1.574 . S
C472 H466 0.949 . S
C472 C476 1.368 . S
C473 C454 1.429 1_554 S
C473 C467 1.429 . S
C473 C474 1.523 . S
C474 C455 1.368 . S
C474 C468 1.368 1_554 S
C474 C473 1.523 . S
C475 C459 1.429 . S
C475 C471 1.429 . S
C475 C476 1.523 . S
C476 C460 1.368 1_554 S
C476 C472 1.368 . S
C476 C475 1.523 . S
H477 C452 0.950 . S
H478 C454 0.950 . S
H479 C455 0.949 . S
H480 C457 0.950 . S
H481 C459 0.950 . S
C482 C483 1.349 . S
C482 C484 1.327 . S
C482 H507 0.950 . S
C483 C482 1.349 . S
C483 C499 1.349 . S
C484 C482 1.327 . S
C484 C503 1.429 . S
C484 H508 0.950 . S
C485 C502 1.574 . S
C485 C504 1.368 . S
C485 H509 0.949 . S
H486 C490 0.949 . S
C487 C488 1.349 . S
C487 C489 1.327 . S
C487 H510 0.950 . S
C488 C487 1.349 . S
C488 C500 1.349 . S
C489 C487 1.327 . S
C489 C505 1.429 . S
C489 H511 0.950 . S
C490 H486 0.949 . S
C490 C498 1.574 . S
C490 C506 1.368 . S
H491 C499 0.950 . S
H492 C497 0.950 . S
H493 C498 0.949 . S
H494 C500 0.950 . S
H495 C501 0.950 . S
H496 C502 0.949 . S
C497 H492 0.950 . S
C497 C499 1.327 . S
C497 C503 1.429 . S
C498 C490 1.574 . S
C498 H493 0.949 . S
C498 C504 1.368 . S
C499 C483 1.349 . S
C499 H491 0.950 . S
C499 C497 1.327 . S
C500 C488 1.349 . S
C500 H494 0.950 . S
C500 C501 1.327 . S
C501 H495 0.950 . S
C501 C500 1.327 . S
C501 C505 1.429 . S
C502 C485 1.574 . S
C502 H496 0.949 . S
C502 C506 1.368 . S
C503 C484 1.429 . S
C503 C497 1.429 . S
C503 C504 1.523 . S
C504 C485 1.368 . S
C504 C498 1.368 . S
C504 C503 1.523 . S
C505 C489 1.429 . S
C505 C501 1.429 . S
C505 C506 1.523 . S
C506 C490 1.368 . S
C506 C502 1.368 . S
C506 C505 1.523 . S
H507 C482 0.950 . S
H508 C484 0.950 . S
H509 C485 0.949 . S
H510 C487 0.950 . S
H511 C489 0.950 . S
C512 C513 1.349 . S
C512 C514 1.327 . S
C512 H537 0.950 . S
C513 C512 1.349 . S
C513 C529 1.349 1_556 S
C514 C512 1.327 . S
C514 C533 1.429 . S
C514 H538 0.950 . S
C515 C532 1.574 . S
C515 C534 1.368 1_554 S
C515 H539 0.949 . S
H516 C520 0.949 . S
C517 C518 1.349 1_554 S
C517 C519 1.327 . S
C517 H540 0.950 . S
C518 C517 1.349 1_556 S
C518 C530 1.349 . S
C519 C517 1.327 . S
C519 C535 1.429 1_554 S
C519 H541 0.950 . S
C520 H516 0.949 . S
C520 C528 1.574 . S
C520 C536 1.368 . S
H521 C529 0.950 . S
H522 C527 0.950 . S
H523 C528 0.949 . S
H524 C530 0.950 . S
H525 C531 0.950 . S
H526 C532 0.949 . S
C527 H522 0.950 . S
C527 C529 1.327 . S
C527 C533 1.429 1_554 S
C528 C520 1.574 . S
C528 H523 0.949 . S
C528 C534 1.368 . S
C529 C513 1.349 1_554 S
C529 H521 0.950 . S
C529 C527 1.327 . S
C530 C518 1.349 . S
C530 H524 0.950 . S
C530 C531 1.327 . S
C531 H525 0.950 . S
C531 C530 1.327 . S
C531 C535 1.429 . S
C532 C515 1.574 . S
C532 H526 0.949 . S
C532 C536 1.368 1_554 S
C533 C514 1.429 . S
C533 C527 1.429 1_556 S
C533 C534 1.523 . S
C534 C515 1.368 1_556 S
C534 C528 1.368 . S
C534 C533 1.523 . S
C535 C519 1.429 1_556 S
C535 C531 1.429 . S
C535 C536 1.523 . S
C536 C520 1.368 . S
C536 C532 1.368 1_556 S
C536 C535 1.523 . S
H537 C512 0.950 . S
H538 C514 0.950 . S
H539 C515 0.949 . S
H540 C517 0.950 . S
H541 C519 0.950 . S
C542 C543 1.349 . S
C542 C544 1.327 . S
C542 H567 0.950 . S
C543 C542 1.349 . S
C543 C559 1.349 . S
C544 C542 1.327 . S
C544 C563 1.429 . S
C544 H568 0.950 . S
C545 C562 1.574 . S
C545 C564 1.368 . S
C545 H569 0.949 . S
H546 C550 0.949 . S
C547 C548 1.349 . S
C547 C549 1.327 . S
C547 H570 0.950 . S
C548 C547 1.349 . S
C548 C560 1.349 . S
C549 C547 1.327 . S
C549 C565 1.429 . S
C549 H571 0.950 . S
C550 H546 0.949 . S
C550 C558 1.574 . S
C550 C566 1.368 . S
H551 C559 0.950 . S
H552 C557 0.950 . S
H553 C558 0.949 . S
H554 C560 0.950 . S
H555 C561 0.950 . S
H556 C562 0.949 . S
C557 H552 0.950 . S
C557 C559 1.327 . S
C557 C563 1.429 . S
C558 C550 1.574 . S
C558 H553 0.949 . S
C558 C564 1.368 . S
C559 C543 1.349 . S
C559 H551 0.950 . S
C559 C557 1.327 . S
C560 C548 1.349 . S
C560 H554 0.950 . S
C560 C561 1.327 . S
C561 H555 0.950 . S
C561 C560 1.327 . S
C561 C565 1.429 . S
C562 C545 1.574 . S
C562 H556 0.949 . S
C562 C566 1.368 . S
C563 C544 1.429 . S
C563 C557 1.429 . S
C563 C564 1.523 . S
C564 C545 1.368 . S
C564 C558 1.368 . S
C564 C563 1.523 . S
C565 C549 1.429 . S
C565 C561 1.429 . S
C565 C566 1.523 . S
C566 C550 1.368 . S
C566 C562 1.368 . S
C566 C565 1.523 . S
H567 C542 0.950 . S
H568 C544 0.950 . S
H569 C545 0.949 . S
H570 C547 0.950 . S
H571 C549 0.950 . S
C572 C573 1.349 . S
C572 C574 1.327 . S
C572 H597 0.950 . S
C573 C572 1.349 . S
C573 C589 1.349 . S
C574 C572 1.327 . S
C574 C593 1.429 . S
C574 H598 0.950 . S
C575 C592 1.574 1_455 S
C575 C594 1.368 1_545 S
C575 H599 0.949 . S
H576 C580 0.949 . S
C577 C578 1.349 . S
C577 C579 1.327 . S
C577 H600 0.950 . S
C578 C577 1.349 . S
C578 C590 1.349 . S
C579 C577 1.327 . S
C579 C595 1.429 . S
C579 H601 0.950 . S
C580 H576 0.949 . S
C580 C588 1.574 1_655 S
C580 C596 1.368 1_565 S
H581 C589 0.950 . S
H582 C587 0.950 . S
H583 C588 0.949 . S
H584 C590 0.950 . S
H585 C591 0.950 . S
H586 C592 0.949 . S
C587 H582 0.950 . S
C587 C589 1.327 . S
C587 C593 1.429 . S
C588 C580 1.574 1_455 S
C588 H583 0.949 . S
C588 C594 1.368 . S
C589 C573 1.349 . S
C589 H581 0.950 . S
C589 C587 1.327 . S
C590 C578 1.349 . S
C590 H584 0.950 . S
C590 C591 1.327 . S
C591 H585 0.950 . S
C591 C590 1.327 . S
C591 C595 1.429 . S
C592 C575 1.574 1_655 S
C592 H586 0.949 . S
C592 C596 1.368 . S
C593 C574 1.429 . S
C593 C587 1.429 . S
C593 C594 1.523 . S
C594 C575 1.368 1_565 S
C594 C588 1.368 . S
C594 C593 1.523 . S
C595 C579 1.429 . S
C595 C591 1.429 . S
C595 C596 1.523 . S
C596 C580 1.368 1_545 S
C596 C592 1.368 . S
C596 C595 1.523 . S
H597 C572 0.950 . S
H598 C574 0.950 . S
H599 C575 0.949 . S
H600 C577 0.950 . S
H601 C579 0.950 . S
C602 C603 1.349 . S
C602 C604 1.327 . S
C602 H627 0.950 . S
C603 C602 1.349 . S
C603 C619 1.349 . S
C604 C602 1.327 . S
C604 C623 1.429 . S
C604 H628 0.950 . S
C605 C622 1.574 1_565 S
C605 C624 1.368 . S
C605 H629 0.949 . S
H606 C610 0.949 . S
C607 C608 1.349 . S
C607 C609 1.327 . S
C607 H630 0.950 . S
C608 C607 1.349 . S
C608 C620 1.349 . S
C609 C607 1.327 . S
C609 C625 1.429 . S
C609 H631 0.950 . S
C610 H606 0.949 . S
C610 C618 1.574 1_545 S
C610 C626 1.368 . S
H611 C619 0.950 . S
H612 C617 0.950 . S
H613 C618 0.949 . S
H614 C620 0.950 . S
H615 C621 0.950 . S
H616 C622 0.949 . S
C617 H612 0.950 . S
C617 C619 1.327 . S
C617 C623 1.429 . S
C618 C610 1.574 1_565 S
C618 H613 0.949 . S
C618 C624 1.368 1_455 S
C619 C603 1.349 . S
C619 H611 0.950 . S
C619 C617 1.327 . S
C620 C608 1.349 . S
C620 H614 0.950 . S
C620 C621 1.327 . S
C621 H615 0.950 . S
C621 C620 1.327 . S
C621 C625 1.429 . S
C622 C605 1.574 1_545 S
C622 H616 0.949 . S
C622 C626 1.368 1_655 S
C623 C604 1.429 . S
C623 C617 1.429 . S
C623 C624 1.523 . S
C624 C605 1.368 . S
C624 C618 1.368 1_655 S
C624 C623 1.523 . S
C625 C609 1.429 . S
C625 C621 1.429 . S
C625 C626 1.523 . S
C626 C610 1.368 . S
C626 C622 1.368 1_455 S
C626 C625 1.523 . S
H627 C602 0.950 . S
H628 C604 0.950 . S
H629 C605 0.949 . S
H630 C607 0.950 . S
H631 C609 0.950 . S
C632 C633 1.349 . S
C632 C634 1.327 . S
C632 H657 0.950 . S
C633 C632 1.349 . S
C633 C649 1.349 . S
C634 C632 1.327 . S
C634 C653 1.429 . S
C634 H658 0.950 . S
C635 C652 1.574 . S
C635 C654 1.368 . S
C635 H659 0.949 . S
H636 C640 0.949 . S
C637 C638 1.349 . S
C637 C639 1.327 . S
C637 H660 0.950 . S
C638 C637 1.349 . S
C638 C650 1.349 . S
C639 C637 1.327 . S
C639 C655 1.429 . S
C639 H661 0.950 . S
C640 H636 0.949 . S
C640 C648 1.574 . S
C640 C656 1.368 . S
H641 C649 0.950 . S
H642 C647 0.950 . S
H643 C648 0.949 . S
H644 C650 0.950 . S
H645 C651 0.950 . S
H646 C652 0.949 . S
C647 H642 0.950 . S
C647 C649 1.327 . S
C647 C653 1.429 . S
C648 C640 1.574 . S
C648 H643 0.949 . S
C648 C654 1.368 . S
C649 C633 1.349 . S
C649 H641 0.950 . S
C649 C647 1.327 . S
C650 C638 1.349 . S
C650 H644 0.950 . S
C650 C651 1.327 . S
C651 H645 0.950 . S
C651 C650 1.327 . S
C651 C655 1.429 . S
C652 C635 1.574 . S
C652 H646 0.949 . S
C652 C656 1.368 . S
C653 C634 1.429 . S
C653 C647 1.429 . S
C653 C654 1.523 . S
C654 C635 1.368 . S
C654 C648 1.368 . S
C654 C653 1.523 . S
C655 C639 1.429 . S
C655 C651 1.429 . S
C655 C656 1.523 . S
C656 C640 1.368 . S
C656 C652 1.368 . S
C656 C655 1.523 . S
H657 C632 0.950 . S
H658 C634 0.950 . S
H659 C635 0.949 . S
H660 C637 0.950 . S
H661 C639 0.950 . S
C662 C663 1.349 . S
C662 C664 1.327 . S
C662 H687 0.950 . S
C663 C662 1.349 . S
C663 C679 1.349 . S
C664 C662 1.327 . S
C664 C683 1.429 . S
C664 H688 0.950 . S
C665 C682 1.574 . S
C665 C684 1.368 . S
C665 H689 0.949 . S
H666 C670 0.949 . S
C667 C668 1.349 . S
C667 C669 1.327 . S
C667 H690 0.950 . S
C668 C667 1.349 . S
C668 C680 1.349 . S
C669 C667 1.327 . S
C669 C685 1.429 . S
C669 H691 0.950 . S
C670 H666 0.949 . S
C670 C678 1.574 . S
C670 C686 1.368 . S
H671 C679 0.950 . S
H672 C677 0.950 . S
H673 C678 0.949 . S
H674 C680 0.950 . S
H675 C681 0.950 . S
H676 C682 0.949 . S
C677 H672 0.950 . S
C677 C679 1.327 . S
C677 C683 1.429 . S
C678 C670 1.574 . S
C678 H673 0.949 . S
C678 C684 1.368 . S
C679 C663 1.349 . S
C679 H671 0.950 . S
C679 C677 1.327 . S
C680 C668 1.349 . S
C680 H674 0.950 . S
C680 C681 1.327 . S
C681 H675 0.950 . S
C681 C680 1.327 . S
C681 C685 1.429 . S
C682 C665 1.574 . S
C682 H676 0.949 . S
C682 C686 1.368 . S
C683 C664 1.429 . S
C683 C677 1.429 . S
C683 C684 1.523 . S
C684 C665 1.368 . S
C684 C678 1.368 . S
C684 C683 1.523 . S
C685 C669 1.429 . S
C685 C681 1.429 . S
C685 C686 1.523 . S
C686 C670 1.368 . S
C686 C682 1.368 . S
C686 C685 1.523 . S
H687 C662 0.950 . S
H688 C664 0.950 . S
H689 C665 0.949 . S
H690 C667 0.950 . S
H691 C669 0.950 . S
C692 C693 1.349 . S
C692 C694 1.327 . S
C692 H717 0.950 . S
C693 C692 1.349 . S
C693 C709 1.349 . S
C694 C692 1.327 . S
C694 C713 1.429 . S
C694 H718 0.950 . S
C695 C712 1.574 . S
C695 C714 1.368 . S
C695 H719 0.949 . S
H696 C700 0.949 . S
C697 C698 1.349 . S
C697 C699 1.327 . S
C697 H720 0.950 . S
C698 C697 1.349 . S
C698 C710 1.349 . S
C699 C697 1.327 . S
C699 C715 1.429 . S
C699 H721 0.950 . S
C700 H696 0.949 . S
C700 C708 1.574 . S
C700 C716 1.368 . S
H701 C709 0.950 . S
H702 C707 0.950 . S
H703 C708 0.949 . S
H704 C710 0.950 . S
H705 C711 0.950 . S
H706 C712 0.949 . S
C707 H702 0.950 . S
C707 C709 1.327 . S
C707 C713 1.429 . S
C708 C700 1.574 . S
C708 H703 0.949 . S
C708 C714 1.368 . S
C709 C693 1.349 . S
C709 H701 0.950 . S
C709 C707 1.327 . S
C710 C698 1.349 . S
C710 H704 0.950 . S
C710 C711 1.327 . S
C711 H705 0.950 . S
C711 C710 1.327 . S
C711 C715 1.429 . S
C712 C695 1.574 . S
C712 H706 0.949 . S
C712 C716 1.368 . S
C713 C694 1.429 . S
C713 C707 1.429 . S
C713 C714 1.523 . S
C714 C695 1.368 . S
C714 C708 1.368 . S
C714 C713 1.523 . S
C715 C699 1.429 . S
C715 C711 1.429 . S
C715 C716 1.523 . S
C716 C700 1.368 . S
C716 C712 1.368 . S
C716 C715 1.523 . S
H717 C692 0.950 . S
H718 C694 0.950 . S
H719 C695 0.949 . S
H720 C697 0.950 . S
H721 C699 0.950 . S
C722 C723 1.349 . S
C722 C724 1.327 . S
C722 H747 0.950 . S
C723 C722 1.349 . S
C723 C739 1.349 . S
C724 C722 1.327 . S
C724 C743 1.429 . S
C724 H748 0.950 . S
C725 C742 1.574 . S
C725 C744 1.368 . S
C725 H749 0.949 . S
H726 C730 0.949 . S
C727 C728 1.349 . S
C727 C729 1.327 . S
C727 H750 0.950 . S
C728 C727 1.349 . S
C728 C740 1.349 . S
C729 C727 1.327 . S
C729 C745 1.429 . S
C729 H751 0.950 . S
C730 H726 0.949 . S
C730 C738 1.574 . S
C730 C746 1.368 . S
H731 C739 0.950 . S
H732 C737 0.950 . S
H733 C738 0.949 . S
H734 C740 0.950 . S
H735 C741 0.950 . S
H736 C742 0.949 . S
C737 H732 0.950 . S
C737 C739 1.327 . S
C737 C743 1.429 . S
C738 C730 1.574 . S
C738 H733 0.949 . S
C738 C744 1.368 . S
C739 C723 1.349 . S
C739 H731 0.950 . S
C739 C737 1.327 . S
C740 C728 1.349 . S
C740 H734 0.950 . S
C740 C741 1.327 . S
C741 H735 0.950 . S
C741 C740 1.327 . S
C741 C745 1.429 . S
C742 C725 1.574 . S
C742 H736 0.949 . S
C742 C746 1.368 . S
C743 C724 1.429 . S
C743 C737 1.429 . S
C743 C744 1.523 . S
C744 C725 1.368 . S
C744 C738 1.368 . S
C744 C743 1.523 . S
C745 C729 1.429 . S
C745 C741 1.429 . S
C745 C746 1.523 . S
C746 C730 1.368 . S
C746 C742 1.368 . S
C746 C745 1.523 . S
H747 C722 0.950 . S
H748 C724 0.950 . S
H749 C725 0.949 . S
H750 C727 0.950 . S
H751 C729 0.950 . S
C752 C753 1.349 . S
C752 C754 1.327 . S
C752 H777 0.950 . S
C753 C752 1.349 . S
C753 C769 1.349 . S
C754 C752 1.327 . S
C754 C773 1.429 . S
C754 H778 0.950 . S
C755 C772 1.574 . S
C755 C774 1.368 . S
C755 H779 0.949 . S
H756 C760 0.949 . S
C757 C758 1.349 . S
C757 C759 1.327 . S
C757 H780 0.950 . S
C758 C757 1.349 . S
C758 C770 1.349 . S
C759 C757 1.327 . S
C759 C775 1.429 . S
C759 H781 0.950 . S
C760 H756 0.949 . S
C760 C768 1.574 . S
C760 C776 1.368 . S
H761 C769 0.950 . S
H762 C767 0.950 . S
H763 C768 0.949 . S
H764 C770 0.950 . S
H765 C771 0.950 . S
H766 C772 0.949 . S
C767 H762 0.950 . S
C767 C769 1.327 . S
C767 C773 1.429 . S
C768 C760 1.574 . S
C768 H763 0.949 . S
C768 C774 1.368 . S
C769 C753 1.349 . S
C769 H761 0.950 . S
C769 C767 1.327 . S
C770 C758 1.349 . S
C770 H764 0.950 . S
C770 C771 1.327 . S
C771 H765 0.950 . S
C771 C770 1.327 . S
C771 C775 1.429 . S
C772 C755 1.574 . S
C772 H766 0.949 . S
C772 C776 1.368 . S
C773 C754 1.429 . S
C773 C767 1.429 . S
C773 C774 1.523 . S
C774 C755 1.368 . S
C774 C768 1.368 . S
C774 C773 1.523 . S
C775 C759 1.429 . S
C775 C771 1.429 . S
C775 C776 1.523 . S
C776 C760 1.368 . S
C776 C772 1.368 . S
C776 C775 1.523 . S
H777 C752 0.950 . S
H778 C754 0.950 . S
H779 C755 0.949 . S
H780 C757 0.950 . S
H781 C759 0.950 . S
C782 C783 1.349 . S
C782 C784 1.327 . S
C782 H807 0.950 . S
C783 C782 1.349 . S
C783 C799 1.349 . S
C784 C782 1.327 . S
C784 C803 1.429 . S
C784 H808 0.950 . S
C785 C802 1.574 . S
C785 C804 1.368 . S
C785 H809 0.949 . S
H786 C790 0.949 . S
C787 C788 1.349 . S
C787 C789 1.327 . S
C787 H810 0.950 . S
C788 C787 1.349 . S
C788 C800 1.349 . S
C789 C787 1.327 . S
C789 C805 1.429 . S
C789 H811 0.950 . S
C790 H786 0.949 . S
C790 C798 1.574 . S
C790 C806 1.368 . S
H791 C799 0.950 . S
H792 C797 0.950 . S
H793 C798 0.949 . S
H794 C800 0.950 . S
H795 C801 0.950 . S
H796 C802 0.949 . S
C797 H792 0.950 . S
C797 C799 1.327 . S
C797 C803 1.429 . S
C798 C790 1.574 . S
C798 H793 0.949 . S
C798 C804 1.368 . S
C799 C783 1.349 . S
C799 H791 0.950 . S
C799 C797 1.327 . S
C800 C788 1.349 . S
C800 H794 0.950 . S
C800 C801 1.327 . S
C801 H795 0.950 . S
C801 C800 1.327 . S
C801 C805 1.429 . S
C802 C785 1.574 . S
C802 H796 0.949 . S
C802 C806 1.368 . S
C803 C784 1.429 . S
C803 C797 1.429 . S
C803 C804 1.523 . S
C804 C785 1.368 . S
C804 C798 1.368 . S
C804 C803 1.523 . S
C805 C789 1.429 . S
C805 C801 1.429 . S
C805 C806 1.523 . S
C806 C790 1.368 . S
C806 C802 1.368 . S
C806 C805 1.523 . S
H807 C782 0.950 . S
H808 C784 0.950 . S
H809 C785 0.949 . S
H810 C787 0.950 . S
H811 C789 0.950 . S
C812 C813 1.349 . S
C812 C814 1.327 . S
C812 H837 0.950 . S
C813 C812 1.349 . S
C813 C829 1.349 . S
C814 C812 1.327 . S
C814 C833 1.429 . S
C814 H838 0.950 . S
C815 C832 1.574 . S
C815 C834 1.368 . S
C815 H839 0.949 . S
H816 C820 0.949 . S
C817 C818 1.349 . S
C817 C819 1.327 . S
C817 H840 0.950 . S
C818 C817 1.349 . S
C818 C830 1.349 . S
C819 C817 1.327 . S
C819 C835 1.429 . S
C819 H841 0.950 . S
C820 H816 0.949 . S
C820 C828 1.574 . S
C820 C836 1.368 . S
H821 C829 0.950 . S
H822 C827 0.950 . S
H823 C828 0.949 . S
H824 C830 0.950 . S
H825 C831 0.950 . S
H826 C832 0.949 . S
C827 H822 0.950 . S
C827 C829 1.327 . S
C827 C833 1.429 . S
C828 C820 1.574 . S
C828 H823 0.949 . S
C828 C834 1.368 . S
C829 C813 1.349 . S
C829 H821 0.950 . S
C829 C827 1.327 . S
C830 C818 1.349 . S
C830 H824 0.950 . S
C830 C831 1.327 . S
C831 H825 0.950 . S
C831 C830 1.327 . S
C831 C835 1.429 . S
C832 C815 1.574 . S
C832 H826 0.949 . S
C832 C836 1.368 . S
C833 C814 1.429 . S
C833 C827 1.429 . S
C833 C834 1.523 . S
C834 C815 1.368 . S
C834 C828 1.368 . S
C834 C833 1.523 . S
C835 C819 1.429 . S
C835 C831 1.429 . S
C835 C836 1.523 . S
C836 C820 1.368 . S
C836 C832 1.368 . S
C836 C835 1.523 . S
H837 C812 0.950 . S
H838 C814 0.950 . S
H839 C815 0.949 . S
H840 C817 0.950 . S
H841 C819 0.950 . S
C842 C843 1.349 . S
C842 C844 1.327 . S
C842 H867 0.950 . S
C843 C842 1.349 . S
C843 C859 1.349 . S
C844 C842 1.327 . S
C844 C863 1.429 . S
C844 H868 0.950 . S
C845 C862 1.574 . S
C845 C864 1.368 . S
C845 H869 0.949 . S
H846 C850 0.949 . S
C847 C848 1.349 . S
C847 C849 1.327 . S
C847 H870 0.950 . S
C848 C847 1.349 . S
C848 C860 1.349 . S
C849 C847 1.327 . S
C849 C865 1.429 . S
C849 H871 0.950 . S
C850 H846 0.949 . S
C850 C858 1.574 . S
C850 C866 1.368 . S
H851 C859 0.950 . S
H852 C857 0.950 . S
H853 C858 0.949 . S
H854 C860 0.950 . S
H855 C861 0.950 . S
H856 C862 0.949 . S
C857 H852 0.950 . S
C857 C859 1.327 . S
C857 C863 1.429 . S
C858 C850 1.574 . S
C858 H853 0.949 . S
C858 C864 1.368 . S
C859 C843 1.349 . S
C859 H851 0.950 . S
C859 C857 1.327 . S
C860 C848 1.349 . S
C860 H854 0.950 . S
C860 C861 1.327 . S
C861 H855 0.950 . S
C861 C860 1.327 . S
C861 C865 1.429 . S
C862 C845 1.574 . S
C862 H856 0.949 . S
C862 C866 1.368 . S
C863 C844 1.429 . S
C863 C857 1.429 . S
C863 C864 1.523 . S
C864 C845 1.368 . S
C864 C858 1.368 . S
C864 C863 1.523 . S
C865 C849 1.429 . S
C865 C861 1.429 . S
C865 C866 1.523 . S
C866 C850 1.368 . S
C866 C862 1.368 . S
C866 C865 1.523 . S
H867 C842 0.950 . S
H868 C844 0.950 . S
H869 C845 0.949 . S
H870 C847 0.950 . S
H871 C849 0.950 . S
C273 C209 0.138 . S
C278 C9 0.528 . S
C303 C243 0.138 . S
C308 C43 0.528 . S
C333 C141 0.138 . S
C338 C77 0.528 . S
C363 C175 0.138 . S
C368 C111 0.528 . S
C393 C73 0.138 . S
C398 C145 0.528 . S
C423 C107 0.138 . S
C428 C179 0.528 . S
C453 C5 0.138 . S
C458 C213 0.528 . S
C483 C247 0.528 . S
C488 C39 0.138 . S
C513 C101 2.851 . S
C518 C33 2.851 . S
C543 C67 2.851 . S
C548 C135 2.851 . S
C573 C237 2.851 . S
C578 C169 2.851 . S
C603 C203 2.851 . S
C608 C271 2.851 . S
C633 C20 1.716 . S
C638 C258 1.716 . S
C663 C156 1.716 . S
C668 C54 1.716 . S
C693 C190 1.716 . S
C698 C88 1.716 . S
C723 C224 1.716 . S
C728 C122 1.716 . S
C753 C70 2.067 . S
C758 C172 2.067 . S
C783 C104 2.067 . S
C788 C206 2.067 . S
C813 C240 2.067 . S
C818 C2 2.067 . S
C843 C138 2.067 . S
C848 C36 2.067 . S
