# Generated by pormake.
# Topology unw, (4)-cn, num edge types: 1
# Building blocks:
#     Node 0, Type 0, BuildingBlock: NAWXER_clean_sbu_0, # of connection points: 4
#     Node 1, Type 0, BuildingBlock: NAWXER_clean_sbu_0, # of connection points: 4
#     Node 2, Type 0, BuildingBlock: NAWXER_clean_sbu_0, # of connection points: 4
#     Node 3, Type 0, BuildingBlock: NAWXER_clean_sbu_0, # of connection points: 4
#     Node 4, Type 0, BuildingBlock: NAWXER_clean_sbu_0, # of connection points: 4
#     Node 5, Type 0, BuildingBlock: NAWXER_clean_sbu_0, # of connection points: 4
#     Node 6, Type 0, BuildingBlock: NAWXER_clean_sbu_0, # of connection points: 4
#     Node 7, Type 0, BuildingBlock: NAWXER_clean_sbu_0, # of connection points: 4
#     Node 8, Type 0, BuildingBlock: NAWXER_clean_sbu_0, # of connection points: 4
#     Node 9, Type 0, BuildingBlock: NAWXER_clean_sbu_0, # of connection points: 4
#     Node 10, Type 0, BuildingBlock: NAWXER_clean_sbu_0, # of connection points: 4
#     Node 11, Type 0, BuildingBlock: NAWXER_clean_sbu_0, # of connection points: 4
#     Node 12, Type 0, BuildingBlock: NAWXER_clean_sbu_0, # of connection points: 4
#     Node 13, Type 0, BuildingBlock: NAWXER_clean_sbu_0, # of connection points: 4
#     Node 14, Type 0, BuildingBlock: NAWXER_clean_sbu_0, # of connection points: 4
#     Node 15, Type 0, BuildingBlock: NAWXER_clean_sbu_0, # of connection points: 4
#     Node 16, Type 0, BuildingBlock: NAWXER_clean_sbu_0, # of connection points: 4
#     Node 17, Type 0, BuildingBlock: NAWXER_clean_sbu_0, # of connection points: 4
#     Node 18, Type 0, BuildingBlock: NAWXER_clean_sbu_0, # of connection points: 4
#     Node 19, Type 0, BuildingBlock: NAWXER_clean_sbu_0, # of connection points: 4
#     Node 20, Type 0, BuildingBlock: NAWXER_clean_sbu_0, # of connection points: 4
#     Node 21, Type 0, BuildingBlock: NAWXER_clean_sbu_0, # of connection points: 4
#     Node 22, Type 0, BuildingBlock: NAWXER_clean_sbu_0, # of connection points: 4
#     Node 23, Type 0, BuildingBlock: NAWXER_clean_sbu_0, # of connection points: 4
#     Edge 24, Type (0, 0), BuildingBlock: XIVTED_clean_linker_0, # of connection points: 2
#     Edge 25, Type (0, 0), BuildingBlock: XIVTED_clean_linker_0, # of connection points: 2
#     Edge 26, Type (0, 0), BuildingBlock: XIVTED_clean_linker_0, # of connection points: 2
#     Edge 27, Type (0, 0), BuildingBlock: XIVTED_clean_linker_0, # of connection points: 2
#     Edge 28, Type (0, 0), BuildingBlock: XIVTED_clean_linker_0, # of connection points: 2
#     Edge 29, Type (0, 0), BuildingBlock: XIVTED_clean_linker_0, # of connection points: 2
#     Edge 30, Type (0, 0), BuildingBlock: XIVTED_clean_linker_0, # of connection points: 2
#     Edge 31, Type (0, 0), BuildingBlock: XIVTED_clean_linker_0, # of connection points: 2
#     Edge 32, Type (0, 0), BuildingBlock: XIVTED_clean_linker_0, # of connection points: 2
#     Edge 33, Type (0, 0), BuildingBlock: XIVTED_clean_linker_0, # of connection points: 2
#     Edge 34, Type (0, 0), BuildingBlock: XIVTED_clean_linker_0, # of connection points: 2
#     Edge 35, Type (0, 0), BuildingBlock: XIVTED_clean_linker_0, # of connection points: 2
#     Edge 36, Type (0, 0), BuildingBlock: XIVTED_clean_linker_0, # of connection points: 2
#     Edge 37, Type (0, 0), BuildingBlock: XIVTED_clean_linker_0, # of connection points: 2
#     Edge 38, Type (0, 0), BuildingBlock: XIVTED_clean_linker_0, # of connection points: 2
#     Edge 39, Type (0, 0), BuildingBlock: XIVTED_clean_linker_0, # of connection points: 2
#     Edge 40, Type (0, 0), BuildingBlock: XIVTED_clean_linker_0, # of connection points: 2
#     Edge 41, Type (0, 0), BuildingBlock: XIVTED_clean_linker_0, # of connection points: 2
#     Edge 42, Type (0, 0), BuildingBlock: XIVTED_clean_linker_0, # of connection points: 2
#     Edge 43, Type (0, 0), BuildingBlock: XIVTED_clean_linker_0, # of connection points: 2
#     Edge 44, Type (0, 0), BuildingBlock: XIVTED_clean_linker_0, # of connection points: 2
#     Edge 45, Type (0, 0), BuildingBlock: XIVTED_clean_linker_0, # of connection points: 2
#     Edge 46, Type (0, 0), BuildingBlock: XIVTED_clean_linker_0, # of connection points: 2
#     Edge 47, Type (0, 0), BuildingBlock: XIVTED_clean_linker_0, # of connection points: 2
#     Edge 48, Type (0, 0), BuildingBlock: XIVTED_clean_linker_0, # of connection points: 2
#     Edge 49, Type (0, 0), BuildingBlock: XIVTED_clean_linker_0, # of connection points: 2
#     Edge 50, Type (0, 0), BuildingBlock: XIVTED_clean_linker_0, # of connection points: 2
#     Edge 51, Type (0, 0), BuildingBlock: XIVTED_clean_linker_0, # of connection points: 2
#     Edge 52, Type (0, 0), BuildingBlock: XIVTED_clean_linker_0, # of connection points: 2
#     Edge 53, Type (0, 0), BuildingBlock: XIVTED_clean_linker_0, # of connection points: 2
#     Edge 54, Type (0, 0), BuildingBlock: XIVTED_clean_linker_0, # of connection points: 2
#     Edge 55, Type (0, 0), BuildingBlock: XIVTED_clean_linker_0, # of connection points: 2
#     Edge 56, Type (0, 0), BuildingBlock: XIVTED_clean_linker_0, # of connection points: 2
#     Edge 57, Type (0, 0), BuildingBlock: XIVTED_clean_linker_0, # of connection points: 2
#     Edge 58, Type (0, 0), BuildingBlock: XIVTED_clean_linker_0, # of connection points: 2
#     Edge 59, Type (0, 0), BuildingBlock: XIVTED_clean_linker_0, # of connection points: 2
#     Edge 60, Type (0, 0), BuildingBlock: XIVTED_clean_linker_0, # of connection points: 2
#     Edge 61, Type (0, 0), BuildingBlock: XIVTED_clean_linker_0, # of connection points: 2
#     Edge 62, Type (0, 0), BuildingBlock: XIVTED_clean_linker_0, # of connection points: 2
#     Edge 63, Type (0, 0), BuildingBlock: XIVTED_clean_linker_0, # of connection points: 2
#     Edge 64, Type (0, 0), BuildingBlock: XIVTED_clean_linker_0, # of connection points: 2
#     Edge 65, Type (0, 0), BuildingBlock: XIVTED_clean_linker_0, # of connection points: 2
#     Edge 66, Type (0, 0), BuildingBlock: XIVTED_clean_linker_0, # of connection points: 2
#     Edge 67, Type (0, 0), BuildingBlock: XIVTED_clean_linker_0, # of connection points: 2
#     Edge 68, Type (0, 0), BuildingBlock: XIVTED_clean_linker_0, # of connection points: 2
#     Edge 69, Type (0, 0), BuildingBlock: XIVTED_clean_linker_0, # of connection points: 2
#     Edge 70, Type (0, 0), BuildingBlock: XIVTED_clean_linker_0, # of connection points: 2
#     Edge 71, Type (0, 0), BuildingBlock: XIVTED_clean_linker_0, # of connection points: 2
# Relax obj value: 0.404
# Max RMSD: 0.268
# Mean RMSD: 0.268
data_MOF--net-unw--node1-NAWXER_clean_sbu_0--edge1-XIVTED_clean_linker_0
_symmetry_space_group_name_H-M    P1
_symmetry_Int_Tables_number       1
_symmetry_cell_setting            triclinic
loop_
_symmetry_equiv_pos_as_xyz
'x, y, z'
_cell_length_a     45.836607
_cell_length_b     46.003514
_cell_length_c     45.910274
_cell_angle_alpha  90.044221
_cell_angle_beta   90.204502
_cell_angle_gamma 89.649458
loop_
_atom_site_label
_atom_site_type_symbol
_atom_site_fract_x
_atom_site_fract_y
_atom_site_fract_z
_atom_type_partial_charge
C0 C 0.19219 0.37354 0.24349 0.0
C1 C 0.10663 0.39691 0.30486 0.0
O2 O 0.16785 0.37641 0.23015 0.0
Zn3 Zn 0.12328 0.38565 0.23785 0.0
O4 O 0.19392 0.37944 0.27064 0.0
Zn5 Zn 0.15252 0.39086 0.27576 0.0
O6 O 0.13715 0.34929 0.26835 0.0
O7 O 0.10994 0.3453 0.22871 0.0
O8 O 0.13314 0.39818 0.31322 0.0
O9 O 0.10093 0.39336 0.27775 0.0
O10 O 0.11771 0.42066 0.21342 0.0
O11 O 0.14868 0.42844 0.2494 0.0
C12 C 0.12238 0.33375 0.25087 0.0
C13 C 0.13561 0.43744 0.22636 0.0
C14 C 0.68368 0.20339 0.23734 0.0
C15 C 0.65505 0.12479 0.30481 0.0
O16 O 0.67955 0.17851 0.22574 0.0
Zn17 Zn 0.66752 0.13557 0.23672 0.0
O18 O 0.6773 0.20744 0.26411 0.0
Zn19 Zn 0.66366 0.16754 0.27225 0.0
O20 O 0.70448 0.14881 0.26675 0.0
O21 O 0.70711 0.11854 0.22942 0.0
O22 O 0.65546 0.15178 0.31111 0.0
O23 O 0.6582 0.11684 0.27823 0.0
O24 O 0.63225 0.13048 0.21232 0.0
O25 O 0.62547 0.16358 0.24641 0.0
C26 C 0.71925 0.13165 0.25079 0.0
C27 C 0.61587 0.14951 0.22429 0.0
C28 C 0.92811 0.65459 0.31212 0.0
C29 C 0.83002 0.66218 0.26731 0.0
O30 O 0.92726 0.66328 0.28561 0.0
Zn31 Zn 0.89726 0.66994 0.25091 0.0
O32 O 0.90486 0.6451 0.32383 0.0
Zn33 Zn 0.87758 0.65267 0.29119 0.0
O34 O 0.88582 0.62088 0.25875 0.0
O35 O 0.90623 0.64092 0.22034 0.0
O36 O 0.83425 0.65286 0.29321 0.0
O37 O 0.85168 0.66781 0.25099 0.0
O38 O 0.8984 0.71302 0.24673 0.0
O39 O 0.8808 0.69791 0.28883 0.0
C40 C 0.89603 0.61847 0.2329 0.0
C41 C 0.88789 0.71858 0.27189 0.0
C42 C 0.33388 0.88706 0.28725 0.0
C43 C 0.42178 0.90884 0.22916 0.0
O44 O 0.35803 0.88777 0.30112 0.0
Zn45 Zn 0.40301 0.89472 0.29499 0.0
O46 O 0.33295 0.89438 0.26042 0.0
Zn47 Zn 0.37503 0.90359 0.25689 0.0
O48 O 0.38822 0.86068 0.26221 0.0
O49 O 0.41394 0.85323 0.30233 0.0
O50 O 0.39554 0.9118 0.22034 0.0
O51 O 0.42677 0.9035 0.25613 0.0
O52 O 0.40914 0.9278 0.32177 0.0
O53 O 0.37982 0.93963 0.28545 0.0
C54 C 0.40166 0.84345 0.27931 0.0
C55 C 0.39253 0.94643 0.30941 0.0
C56 C 0.18107 0.69997 0.75263 0.0
C57 C 0.15444 0.61414 0.81039 0.0
O58 O 0.17802 0.67664 0.73771 0.0
Zn59 Zn 0.16648 0.63184 0.74371 0.0
O60 O 0.17468 0.69999 0.77965 0.0
Zn61 Zn 0.16294 0.65915 0.78156 0.0
O62 O 0.20478 0.64129 0.77325 0.0
O63 O 0.2047 0.61549 0.73257 0.0
O64 O 0.15406 0.64056 0.81857 0.0
O65 O 0.15798 0.60826 0.78329 0.0
O66 O 0.13199 0.62862 0.71853 0.0
O67 O 0.12467 0.65923 0.75471 0.0
C68 C 0.2183 0.62577 0.75453 0.0
C69 C 0.11569 0.64722 0.73111 0.0
C70 C 0.33342 0.14677 0.779 0.0
C71 C 0.43584 0.15211 0.81286 0.0
O72 O 0.35107 0.16166 0.76392 0.0
Zn73 Zn 0.3941 0.17488 0.76116 0.0
O74 O 0.34259 0.1325 0.80113 0.0
Zn75 Zn 0.38429 0.14408 0.79658 0.0
O76 O 0.37706 0.1883 0.80638 0.0
O77 O 0.38503 0.21641 0.76824 0.0
O78 O 0.41675 0.13524 0.82367 0.0
O79 O 0.4295 0.16674 0.78991 0.0
O80 O 0.4035 0.15757 0.7232 0.0
O81 O 0.39485 0.12382 0.7562 0.0
C82 C 0.3769 0.21343 0.79464 0.0
C83 C 0.4009 0.13084 0.7299 0.0
C84 C 0.92485 0.33372 0.80248 0.0
C85 C 0.90158 0.43498 0.8302 0.0
O86 O 0.90797 0.34812 0.78578 0.0
Zn87 Zn 0.88809 0.38836 0.77989 0.0
O88 O 0.93654 0.3459 0.82463 0.0
Zn89 Zn 0.91865 0.38481 0.81676 0.0
O90 O 0.87543 0.37131 0.82527 0.0
O91 O 0.84816 0.37321 0.78551 0.0
O92 O 0.92131 0.41933 0.84212 0.0
O93 O 0.8888 0.42565 0.80716 0.0
O94 O 0.90546 0.39807 0.74207 0.0
O95 O 0.93913 0.39529 0.77644 0.0
C96 C 0.85116 0.36666 0.8124 0.0
C97 C 0.93225 0.39881 0.74958 0.0
C98 C 0.66493 0.95246 0.74945 0.0
C99 C 0.68915 0.87166 0.81257 0.0
O100 O 0.67609 0.95163 0.77463 0.0
Zn101 Zn 0.67221 0.91069 0.78307 0.0
O102 O 0.65306 0.92942 0.73925 0.0
Zn103 Zn 0.64592 0.8863 0.75714 0.0
O104 O 0.60508 0.88287 0.76675 0.0
O105 O 0.62957 0.90336 0.80225 0.0
O106 O 0.67111 0.86323 0.79264 0.0
O107 O 0.69559 0.89837 0.81479 0.0
O108 O 0.69353 0.88559 0.7469 0.0
O109 O 0.65686 0.86354 0.72458 0.0
C110 C 0.60578 0.89244 0.79254 0.0
C111 C 0.68398 0.86847 0.72674 0.0
C112 C 0.23393 0.20611 0.37144 0.0
C113 C 0.29192 0.1178 0.39407 0.0
O114 O 0.21982 0.18234 0.37291 0.0
Zn115 Zn 0.22576 0.13759 0.38081 0.0
O116 O 0.2609 0.20665 0.37859 0.0
Zn117 Zn 0.26436 0.16489 0.38886 0.0
O118 O 0.25822 0.15116 0.3461 0.0
O119 O 0.21774 0.12603 0.3396 0.0
O120 O 0.30106 0.14372 0.39739 0.0
O121 O 0.26476 0.11364 0.38894 0.0
O122 O 0.19969 0.13198 0.41458 0.0
O123 O 0.23619 0.16114 0.42523 0.0
C124 C 0.24075 0.13772 0.32932 0.0
C125 C 0.21236 0.14877 0.43267 0.0
C126 C 0.93864 0.30064 0.39072 0.0
C127 C 0.85394 0.23819 0.368 0.0
O128 O 0.94483 0.27378 0.38629 0.0
Zn129 Zn 0.92319 0.23367 0.37764 0.0
O130 O 0.91199 0.30855 0.39234 0.0
Zn131 Zn 0.89347 0.27092 0.38454 0.0
O132 O 0.89978 0.24444 0.42172 0.0
O133 O 0.93021 0.20847 0.4119 0.0
O134 O 0.85183 0.26508 0.37469 0.0
O135 O 0.87863 0.22532 0.36962 0.0
O136 O 0.93583 0.22594 0.33671 0.0
O137 O 0.90786 0.26484 0.34225 0.0
C138 C 0.91344 0.22144 0.42987 0.0
C139 C 0.92263 0.24802 0.32592 0.0
C140 C 0.81629 0.9189 0.4309 0.0
C141 C 0.76807 0.9131 0.33459 0.0
O142 O 0.78995 0.90971 0.43141 0.0
Zn143 Zn 0.75474 0.90219 0.40194 0.0
O144 O 0.82686 0.92844 0.40714 0.0
Zn145 Zn 0.79334 0.92155 0.38136 0.0
O146 O 0.76014 0.95239 0.39201 0.0
O147 O 0.72301 0.92937 0.41178 0.0
O148 O 0.79374 0.92323 0.33804 0.0
O149 O 0.75298 0.90596 0.35664 0.0
O150 O 0.75226 0.85894 0.40175 0.0
O151 O 0.79302 0.87616 0.38313 0.0
C152 C 0.7343 0.9529 0.40262 0.0
C153 C 0.7772 0.85464 0.39012 0.0
C154 C 0.20843 0.76805 0.40532 0.0
C155 C 0.10493 0.73839 0.40557 0.0
O156 O 0.18984 0.78617 0.39535 0.0
Zn157 Zn 0.14533 0.79231 0.38753 0.0
O158 O 0.19995 0.74418 0.41662 0.0
Zn159 Zn 0.1575 0.75225 0.41111 0.0
O160 O 0.15936 0.7497 0.36554 0.0
O161 O 0.14979 0.79194 0.34455 0.0
O162 O 0.12537 0.72496 0.41891 0.0
O163 O 0.11019 0.76322 0.39412 0.0
O164 O 0.13869 0.82716 0.41172 0.0
O165 O 0.15171 0.78929 0.43825 0.0
C166 C 0.15725 0.7652 0.34262 0.0
C167 C 0.14546 0.81643 0.43645 0.0
C168 C 0.28108 0.86211 0.65079 0.0
C169 C 0.32015 0.95986 0.63362 0.0
O170 O 0.26263 0.88273 0.6545 0.0
Zn171 Zn 0.25985 0.92906 0.65109 0.0
O172 O 0.30647 0.86752 0.64101 0.0
Zn173 Zn 0.30042 0.90958 0.63705 0.0
O174 O 0.29692 0.91841 0.68208 0.0
O175 O 0.25335 0.93606 0.69303 0.0
O176 O 0.33203 0.93578 0.62664 0.0
O177 O 0.2935 0.96009 0.6421 0.0
O178 O 0.22905 0.93374 0.62142 0.0
O179 O 0.26772 0.91116 0.60396 0.0
C180 C 0.27874 0.92764 0.70101 0.0
C181 C 0.24143 0.92026 0.60058 0.0
C182 C 0.1321 0.23616 0.61608 0.0
C183 C 0.13406 0.26907 0.71891 0.0
O184 O 0.14408 0.26078 0.62102 0.0
Zn185 Zn 0.15216 0.2903 0.65549 0.0
O186 O 0.11894 0.22327 0.63677 0.0
Zn187 Zn 0.12734 0.25137 0.66842 0.0
O188 O 0.10083 0.28891 0.66086 0.0
O189 O 0.12884 0.3256 0.64816 0.0
O190 O 0.12185 0.24535 0.71119 0.0
O191 O 0.14449 0.28602 0.6998 0.0
O192 O 0.19527 0.28818 0.65968 0.0
O193 O 0.17293 0.24712 0.67033 0.0
C194 C 0.10358 0.31579 0.65408 0.0
C195 C 0.19639 0.2616 0.66772 0.0
C196 C 0.80818 0.13603 0.72259 0.0
C197 C 0.83565 0.14475 0.61885 0.0
O198 O 0.7917 0.15111 0.7061 0.0
Zn199 Zn 0.78617 0.16562 0.66366 0.0
O200 O 0.83021 0.12254 0.71205 0.0
Zn201 Zn 0.82278 0.13528 0.67102 0.0
O202 O 0.83198 0.17949 0.67922 0.0
O203 O 0.79254 0.20683 0.6737 0.0
O204 O 0.84796 0.12759 0.63695 0.0
O205 O 0.81287 0.15898 0.62673 0.0
O206 O 0.74807 0.14812 0.65588 0.0
O207 O 0.78203 0.11456 0.66276 0.0
C208 C 0.81939 0.20426 0.68083 0.0
C209 C 0.75524 0.12141 0.65823 0.0
C210 C 0.87938 0.76883 0.69505 0.0
C211 C 0.89885 0.81996 0.60321 0.0
O212 O 0.88064 0.75228 0.67266 0.0
Zn213 Zn 0.88817 0.75499 0.62666 0.0
O214 O 0.88537 0.79576 0.69269 0.0
Zn215 Zn 0.89404 0.79457 0.65091 0.0
O216 O 0.85088 0.78549 0.63749 0.0
O217 O 0.8486 0.74312 0.61484 0.0
O218 O 0.90152 0.82993 0.62891 0.0
O219 O 0.89472 0.79262 0.59959 0.0
O220 O 0.92208 0.72917 0.62251 0.0
O221 O 0.93201 0.76719 0.6499 0.0
C222 C 0.836 0.76583 0.62477 0.0
C223 C 0.93983 0.74269 0.63896 0.0
C224 C 0.36298 0.24708 0.20043 0.0
C225 C 0.38729 0.30939 0.11625 0.0
O226 O 0.36562 0.23406 0.17601 0.0
Zn227 Zn 0.37503 0.24235 0.13173 0.0
O228 O 0.36971 0.27392 0.20254 0.0
Zn229 Zn 0.3811 0.27939 0.16137 0.0
O230 O 0.33906 0.27336 0.14569 0.0
O231 O 0.33441 0.23426 0.1181 0.0
O232 O 0.38884 0.31703 0.1429 0.0
O233 O 0.38329 0.28254 0.10995 0.0
O234 O 0.4096 0.21712 0.12595 0.0
O235 O 0.41866 0.25259 0.15693 0.0
C236 C 0.32315 0.25644 0.13067 0.0
C237 C 0.42711 0.22957 0.14354 0.0
C238 C 0.36924 0.72466 0.85614 0.0
C239 C 0.44196 0.79378 0.88638 0.0
O240 O 0.39673 0.72361 0.85328 0.0
Zn241 Zn 0.40465 0.75661 0.87728 0.0
O242 O 0.3576 0.74422 0.87257 0.0
Zn243 Zn 0.37463 0.78053 0.89927 0.0
O244 O 0.34975 0.81002 0.88562 0.0
O245 O 0.38035 0.79222 0.85277 0.0
O246 O 0.41683 0.80217 0.89546 0.0
O247 O 0.44495 0.7681 0.87696 0.0
O248 O 0.39581 0.73855 0.92038 0.0
O249 O 0.3671 0.77172 0.93905 0.0
C250 C 0.35963 0.81007 0.85985 0.0
C251 C 0.38039 0.74777 0.94178 0.0
C252 C 0.22072 0.43838 0.91448 0.0
C253 C 0.25648 0.3369 0.91561 0.0
O254 O 0.24589 0.43461 0.90294 0.0
Zn255 Zn 0.27646 0.40027 0.89582 0.0
O256 O 0.20843 0.41727 0.92743 0.0
Zn257 Zn 0.23778 0.38688 0.92044 0.0
O258 O 0.27491 0.39583 0.94719 0.0
O259 O 0.3116 0.40845 0.91896 0.0
O260 O 0.23238 0.34453 0.92734 0.0
O261 O 0.27321 0.35595 0.9047 0.0
O262 O 0.2751 0.395 0.8528 0.0
O263 O 0.23404 0.38367 0.87498 0.0
C264 C 0.30176 0.40292 0.94428 0.0
C265 C 0.24876 0.38612 0.85164 0.0
C266 C 0.72341 0.2482 0.92384 0.0
C267 C 0.61951 0.22586 0.90659 0.0
O268 O 0.70838 0.26674 0.90965 0.0
Zn269 Zn 0.66686 0.2752 0.89324 0.0
O270 O 0.7112 0.22577 0.93465 0.0
Zn271 Zn 0.67128 0.23633 0.92062 0.0
O272 O 0.68184 0.23045 0.87618 0.0
O273 O 0.67933 0.27196 0.85213 0.0
O274 O 0.63622 0.21186 0.9239 0.0
O275 O 0.62875 0.24935 0.89489 0.0
O276 O 0.65904 0.31192 0.91353 0.0
O277 O 0.66318 0.2755 0.94456 0.0
C278 C 0.68552 0.24485 0.85273 0.0
C279 C 0.65972 0.30276 0.93972 0.0
C280 C 0.7808 0.71603 0.92368 0.0
C281 C 0.80493 0.61216 0.91639 0.0
O282 O 0.76081 0.70032 0.91252 0.0
Zn283 Zn 0.75197 0.65631 0.90235 0.0
O284 O 0.80377 0.70419 0.93416 0.0
Zn285 Zn 0.792 0.66406 0.92541 0.0
O286 O 0.79371 0.66875 0.87898 0.0
O287 O 0.74974 0.66228 0.86013 0.0
O288 O 0.81857 0.63104 0.93134 0.0
O289 O 0.78003 0.61892 0.90535 0.0
O290 O 0.71704 0.64959 0.92532 0.0
O291 O 0.75491 0.65858 0.95355 0.0
C292 C 0.77662 0.66849 0.85689 0.0
C293 C 0.72749 0.65375 0.95066 0.0
C294 C 0.6968 0.78067 0.15293 0.0
C295 C 0.59839 0.82471 0.14279 0.0
O296 O 0.67532 0.76631 0.16267 0.0
Zn297 Zn 0.63013 0.7673 0.16744 0.0
O298 O 0.69244 0.80476 0.13971 0.0
Zn299 Zn 0.64902 0.80373 0.14283 0.0
O300 O 0.64838 0.80897 0.18803 0.0
O301 O 0.63154 0.77022 0.21065 0.0
O302 O 0.62169 0.83495 0.13184 0.0
O303 O 0.59911 0.79992 0.15551 0.0
O304 O 0.62131 0.73213 0.14486 0.0
O305 O 0.639 0.76677 0.1168 0.0
C306 C 0.64249 0.79567 0.21158 0.0
C307 C 0.62955 0.7408 0.11985 0.0
C308 C 0.27878 0.64672 0.22045 0.0
C309 C 0.31242 0.64522 0.11839 0.0
O310 O 0.26158 0.65686 0.20112 0.0
Zn311 Zn 0.25725 0.6648 0.15685 0.0
O312 O 0.30312 0.63524 0.21309 0.0
Zn313 Zn 0.29738 0.64093 0.1704 0.0
O314 O 0.30014 0.68619 0.17218 0.0
O315 O 0.25848 0.7079 0.16098 0.0
O316 O 0.32604 0.633 0.13937 0.0
O317 O 0.2873 0.65668 0.12297 0.0
O318 O 0.2226 0.64077 0.14861 0.0
O319 O 0.26071 0.61424 0.16173 0.0
C320 C 0.28507 0.70936 0.16931 0.0
C321 C 0.23374 0.61594 0.15436 0.0
C322 C 0.74716 0.39253 0.11168 0.0
C323 C 0.80909 0.36735 0.19651 0.0
O324 O 0.77438 0.38955 0.10598 0.0
Zn325 Zn 0.8146 0.38179 0.12832 0.0
O326 O 0.73883 0.39285 0.13814 0.0
Zn327 Zn 0.77656 0.38559 0.15727 0.0
O328 O 0.80192 0.42383 0.15468 0.0
O329 O 0.83837 0.4173 0.12412 0.0
O330 O 0.78183 0.37304 0.19819 0.0
O331 O 0.82248 0.37122 0.1725 0.0
O332 O 0.82467 0.34204 0.11362 0.0
O333 O 0.7848 0.34454 0.14046 0.0
C334 C 0.82481 0.43356 0.14211 0.0
C335 C 0.80271 0.32973 0.12536 0.0
H336 H 0.25347 0.56041 0.1595 0.0
H337 H 0.11086 0.46965 0.18091 0.0
H338 H 0.17327 0.61001 0.15569 0.0
H339 H 0.18258 0.46942 0.24218 0.0
H340 H 0.13142 0.51398 0.15838 0.0
H341 H 0.22595 0.51787 0.17418 0.0
C342 C 0.22997 0.56232 0.16118 0.0
C343 C 0.2158 0.58913 0.15676 0.0
C344 C 0.14226 0.50416 0.17695 0.0
C345 C 0.18409 0.53997 0.17348 0.0
C346 C 0.13063 0.47895 0.18979 0.0
C347 C 0.14495 0.46566 0.21354 0.0
C348 C 0.16871 0.51542 0.18749 0.0
C349 C 0.17059 0.47869 0.22404 0.0
C350 C 0.21432 0.53795 0.16965 0.0
C351 C 0.18514 0.58986 0.159 0.0
N352 N 0.18177 0.50241 0.21073 0.0
N353 N 0.17022 0.56564 0.16755 0.0
H354 H 0.57725 0.18855 0.24668 0.0
H355 H 0.4529 0.17776 0.125 0.0
H356 H 0.58804 0.1302 0.17376 0.0
H357 H 0.46749 0.25191 0.18076 0.0
H358 H 0.49872 0.15592 0.14359 0.0
H359 H 0.53239 0.20668 0.22519 0.0
C360 C 0.57015 0.17932 0.22616 0.0
C361 C 0.58681 0.15785 0.21199 0.0
C362 C 0.49184 0.17707 0.15147 0.0
C363 C 0.53476 0.17899 0.18688 0.0
C364 C 0.46577 0.18958 0.14083 0.0
C365 C 0.45609 0.21673 0.15136 0.0
C366 C 0.50803 0.19164 0.17303 0.0
C367 C 0.47372 0.23093 0.17198 0.0
C368 C 0.54444 0.18988 0.21376 0.0
C369 C 0.576 0.14678 0.18546 0.0
N370 N 0.49847 0.21817 0.1822 0.0
N371 N 0.55065 0.15751 0.17369 0.0
H372 H 0.80333 0.46827 0.18495 0.0
H373 H 0.90598 0.60445 0.17462 0.0
H374 H 0.87272 0.46463 0.12162 0.0
H375 H 0.87575 0.568 0.25565 0.0
H376 H 0.89063 0.55941 0.1495 0.0
H377 H 0.82408 0.51238 0.20484 0.0
C378 C 0.82283 0.47683 0.17492 0.0
C379 C 0.83635 0.46235 0.15158 0.0
C380 C 0.88784 0.56135 0.17283 0.0
C381 C 0.86035 0.51352 0.17466 0.0
C382 C 0.89664 0.58695 0.1872 0.0
C383 C 0.89194 0.59028 0.21733 0.0
C384 C 0.87382 0.53938 0.18869 0.0
C385 C 0.87961 0.56681 0.23243 0.0
C386 C 0.83477 0.50204 0.18651 0.0
C387 C 0.86161 0.47494 0.13968 0.0
N388 N 0.87064 0.54275 0.21794 0.0
N389 N 0.87285 0.49991 0.15134 0.0
H390 H 0.5422 0.80637 0.13698 0.0
H391 H 0.47798 0.92699 0.23639 0.0
H392 H 0.59301 0.88259 0.15599 0.0
H393 H 0.42214 0.88171 0.17608 0.0
H394 H 0.52056 0.91138 0.20801 0.0
H395 H 0.49791 0.83286 0.15133 0.0
C396 C 0.54391 0.82894 0.14349 0.0
C397 C 0.57128 0.84239 0.14504 0.0
C398 C 0.49895 0.90546 0.20056 0.0
C399 C 0.52082 0.87248 0.16262 0.0
C400 C 0.47464 0.91444 0.21669 0.0
C401 C 0.44644 0.90588 0.20843 0.0
C402 C 0.49518 0.8869 0.17655 0.0
C403 C 0.44343 0.88916 0.18298 0.0
C404 C 0.51864 0.84403 0.15173 0.0
C405 C 0.5723 0.87155 0.15407 0.0
N406 N 0.46752 0.87965 0.16834 0.0
N407 N 0.54754 0.88542 0.16316 0.0
H408 H 0.16426 0.44527 0.89624 0.0
H409 H 0.17727 0.61582 0.86551 0.0
H410 H 0.24198 0.49366 0.91633 0.0
H411 H 0.13701 0.55749 0.80399 0.0
H412 H 0.18921 0.57406 0.89676 0.0
H413 H 0.14249 0.48955 0.87495 0.0
C414 C 0.17632 0.46544 0.89709 0.0
C415 C 0.20488 0.4659 0.90824 0.0
C416 C 0.17721 0.57056 0.8767 0.0
C417 C 0.18015 0.51641 0.88408 0.0
C418 C 0.17015 0.59437 0.85897 0.0
C419 C 0.15611 0.59016 0.83205 0.0
C420 C 0.16954 0.5424 0.86785 0.0
C421 C 0.14788 0.56173 0.82452 0.0
C422 C 0.16403 0.49054 0.88468 0.0
C423 C 0.21985 0.49245 0.9081 0.0
N424 N 0.15472 0.53893 0.84229 0.0
N425 N 0.20732 0.51663 0.89623 0.0
H426 H 0.58051 0.25188 0.87012 0.0
H427 H 0.45721 0.13124 0.86588 0.0
H428 H 0.59269 0.17342 0.92041 0.0
H429 H 0.4791 0.18751 0.79405 0.0
H430 H 0.50167 0.1478 0.89152 0.0
H431 H 0.53668 0.23149 0.84889 0.0
C432 C 0.57389 0.23039 0.87699 0.0
C433 C 0.59069 0.2143 0.89699 0.0
C434 C 0.49668 0.15618 0.87002 0.0
C435 C 0.53994 0.19059 0.8723 0.0
C436 C 0.47142 0.14671 0.85534 0.0
C437 C 0.46416 0.15809 0.82776 0.0
C438 C 0.51436 0.17749 0.85719 0.0
C439 C 0.48342 0.17817 0.81528 0.0
C440 C 0.54882 0.21867 0.86464 0.0
C441 C 0.58053 0.18659 0.90502 0.0
N442 N 0.50725 0.18737 0.83016 0.0
N443 N 0.55578 0.17552 0.89258 0.0
H444 H 0.7822 0.56944 0.88207 0.0
H445 H 0.92104 0.46337 0.88012 0.0
H446 H 0.85986 0.59077 0.93088 0.0
H447 H 0.85591 0.46858 0.81213 0.0
H448 H 0.898 0.5058 0.90391 0.0
H449 H 0.807 0.52688 0.86253 0.0
C450 C 0.8044 0.56504 0.88903 0.0
C451 C 0.81893 0.584 0.9081 0.0
C452 C 0.88899 0.49762 0.88369 0.0
C453 C 0.84778 0.53491 0.88535 0.0
C454 C 0.90216 0.47349 0.87005 0.0
C455 C 0.89048 0.46224 0.84401 0.0
C456 C 0.86372 0.5102 0.87144 0.0
C457 C 0.86584 0.47626 0.83211 0.0
C458 C 0.81867 0.54074 0.87764 0.0
C459 C 0.84777 0.57685 0.91621 0.0
N460 N 0.85327 0.49917 0.84597 0.0
N461 N 0.86132 0.55292 0.90473 0.0
H462 H 0.54774 0.8956 0.7792 0.0
H463 H 0.50027 0.78461 0.89496 0.0
H464 H 0.607 0.87496 0.84939 0.0
H465 H 0.43839 0.84932 0.86583 0.0
H466 H 0.54018 0.81532 0.87746 0.0
H467 H 0.50715 0.87737 0.80863 0.0
C468 C 0.55207 0.8878 0.80106 0.0
C469 C 0.5807 0.88694 0.81198 0.0
C470 C 0.5179 0.8231 0.87554 0.0
C471 C 0.53463 0.8651 0.84524 0.0
C472 C 0.49517 0.80563 0.88554 0.0
C473 C 0.46605 0.81459 0.88205 0.0
C474 C 0.5114 0.84917 0.86095 0.0
C475 C 0.46057 0.84182 0.86929 0.0
C476 C 0.52895 0.87743 0.81782 0.0
C477 C 0.58519 0.8763 0.84032 0.0
N478 N 0.483 0.85785 0.85854 0.0
N479 N 0.5625 0.86515 0.85574 0.0
H480 H 0.155 0.26133 0.56788 0.0
H481 H 0.1627 0.127 0.4599 0.0
H482 H 0.12225 0.179 0.5983 0.0
H483 H 0.23039 0.19117 0.46969 0.0
H484 H 0.13915 0.14656 0.50432 0.0
H485 H 0.17226 0.23774 0.52385 0.0
C486 C 0.15103 0.23829 0.56522 0.0
C487 C 0.1374 0.22214 0.58723 0.0
C488 C 0.15928 0.15603 0.49667 0.0
C489 C 0.15742 0.19481 0.53624 0.0
C490 C 0.17275 0.14491 0.4714 0.0
C491 C 0.19863 0.15741 0.46086 0.0
C492 C 0.17145 0.1802 0.51089 0.0
C493 C 0.21055 0.18068 0.47671 0.0
C494 C 0.16108 0.22481 0.54002 0.0
C495 C 0.13272 0.19232 0.58202 0.0
N496 N 0.19675 0.19142 0.50052 0.0
N497 N 0.14289 0.1795 0.55707 0.0
H498 H 0.88723 0.12435 0.59377 0.0
H499 H 0.8811 0.247 0.47229 0.0
H500 H 0.8134 0.18086 0.57748 0.0
H501 H 0.9298 0.16834 0.45459 0.0
H502 H 0.86393 0.2259 0.51734 0.0
H503 H 0.90929 0.14152 0.54782 0.0
C504 C 0.87551 0.14002 0.58051 0.0
C505 C 0.84845 0.15129 0.58976 0.0
C506 C 0.87845 0.21318 0.50373 0.0
C507 C 0.8738 0.17133 0.53785 0.0
C508 C 0.88847 0.22529 0.47793 0.0
C509 C 0.90675 0.20936 0.45923 0.0
C510 C 0.88677 0.18483 0.51145 0.0
C511 C 0.91566 0.18139 0.46824 0.0
C512 C 0.88815 0.14981 0.55438 0.0
C513 C 0.83435 0.17161 0.57162 0.0
N514 N 0.90548 0.1699 0.49374 0.0
N515 N 0.84728 0.18111 0.54693 0.0
H516 H 0.80227 0.92721 0.488 0.0
H517 H 0.9097 0.8087 0.54552 0.0
H518 H 0.87147 0.89593 0.43275 0.0
H519 H 0.87849 0.87606 0.60308 0.0
H520 H 0.89512 0.83867 0.50362 0.0
H521 H 0.82845 0.90784 0.53054 0.0
C522 C 0.82337 0.91693 0.48494 0.0
C523 C 0.8349 0.91351 0.45686 0.0
C524 C 0.89202 0.84712 0.52543 0.0
C525 C 0.86435 0.89014 0.50528 0.0
C526 C 0.90033 0.83003 0.54935 0.0
C527 C 0.89542 0.8399 0.5779 0.0
C528 C 0.87783 0.87388 0.53003 0.0
C529 C 0.88294 0.86766 0.58151 0.0
C530 C 0.83825 0.90579 0.5092 0.0
C531 C 0.86206 0.89947 0.45407 0.0
N532 N 0.87402 0.88339 0.55791 0.0
N533 N 0.87557 0.88773 0.47789 0.0
H534 H 0.16029 0.79861 0.49108 0.0
H535 H 0.1874 0.93923 0.57994 0.0
H536 H 0.14558 0.87679 0.44097 0.0
H537 H 0.25711 0.87836 0.56185 0.0
H538 H 0.15889 0.91735 0.53967 0.0
H539 H 0.18098 0.82787 0.53015 0.0
C540 C 0.16073 0.822 0.48844 0.0
C541 C 0.15143 0.83513 0.46233 0.0
C542 C 0.18061 0.90926 0.54448 0.0
C543 C 0.17494 0.86875 0.50757 0.0
C544 C 0.19687 0.92165 0.56737 0.0
C545 C 0.22479 0.9107 0.57435 0.0
C546 C 0.19212 0.88536 0.52924 0.0
C547 C 0.23585 0.88772 0.55736 0.0
C548 C 0.17265 0.83862 0.51081 0.0
C549 C 0.15254 0.86569 0.46059 0.0
N550 N 0.21933 0.87556 0.53606 0.0
N551 N 0.1644 0.88156 0.48286 0.0
H552 H 0.66316 1.0089 0.76749 0.0
H553 H 0.70059 0.1266 0.68184 0.0
H554 H 0.67663 0.95618 0.69102 0.0
H555 H 0.76008 0.06356 0.64527 0.0
H556 H 0.67074 0.08666 0.7006 0.0
H557 H 0.67748 0.05191 0.73975 0.0
C558 C 0.6685 1.00652 0.74463 0.0
C559 C 0.66852 0.97898 0.73147 0.0
C560 C 0.69007 0.08162 0.68803 0.0
C561 C 0.68544 0.02808 0.69965 0.0
C562 C 0.70688 0.1044 0.67693 0.0
C563 C 0.73298 0.09841 0.66211 0.0
C564 C 0.69928 0.05268 0.68399 0.0
C565 C 0.74021 0.06915 0.65674 0.0
C566 C 0.67653 0.0311 0.72875 0.0
C567 C 0.67599 0.97707 0.70188 0.0
N568 N 0.72358 0.04739 0.66782 0.0
N569 N 0.68485 1.00119 0.68714 0.0
H570 H 0.97954 0.76472 0.67735 0.0
H571 H 0.08844 0.62829 0.68054 0.0
H572 H 0.96338 0.68892 0.62434 0.0
H573 H 0.08072 0.6918 0.74939 0.0
H574 H 0.04623 0.65104 0.65594 0.0
H575 H 1.0214 0.74016 0.69903 0.0
C576 C 0.98494 0.743 0.66995 0.0
C577 C 0.96766 0.72892 0.64896 0.0
C578 C 0.05375 0.65977 0.67655 0.0
C579 C 1.01594 0.70033 0.67418 0.0
C580 C 0.07776 0.64675 0.69065 0.0
C581 C 0.08827 0.65807 0.71716 0.0
C582 C 0.04047 0.68454 0.68879 0.0
C583 C 0.07356 0.68217 0.72908 0.0
C584 C 1.00882 0.72885 0.68256 0.0
C585 C 0.97601 0.70067 0.64042 0.0
N586 N 0.05073 0.69465 0.71475 0.0
N587 N 0.99952 0.68726 0.65308 0.0
H588 H 0.42274 0.07571 0.73285 0.0
H589 H 0.37947 0.96419 0.64097 0.0
H590 H 0.37267 0.13282 0.67736 0.0
H591 H 0.30117 1.01646 0.63611 0.0
H592 H 0.40631 1.00693 0.65808 0.0
H593 H 0.40869 0.03453 0.70219 0.0
C594 C 0.40961 0.07969 0.71357 0.0
C595 C 0.39923 0.10778 0.70738 0.0
C596 C 0.38333 1.00909 0.65294 0.0
C597 C 0.38226 0.06057 0.67258 0.0
C598 C 0.36804 0.98478 0.64281 0.0
C599 C 0.3379 0.98661 0.63735 0.0
C600 C 0.36843 0.03553 0.65741 0.0
C601 C 0.3243 1.01394 0.6403 0.0
C602 C 0.40157 0.05616 0.69604 0.0
C603 C 0.38163 0.11161 0.68255 0.0
N604 N 0.3396 0.03724 0.65027 0.0
N605 N 0.37308 0.08817 0.66649 0.0
H606 H 0.10284 0.37413 0.66768 0.0
H607 H 0.98784 0.41919 0.75504 0.0
H608 H 0.04579 0.30181 0.65087 0.0
H609 H 0.9316 0.37333 0.69553 0.0
H610 H 0.02984 0.40556 0.72529 0.0
H611 H 0.06071 0.40241 0.68499 0.0
C612 C 0.08138 0.36442 0.66698 0.0
C613 C 0.07794 0.33542 0.65806 0.0
C614 C 1.00828 0.3993 0.71804 0.0
C615 C 0.02968 0.36741 0.67854 0.0
C616 C 0.98422 0.40707 0.73512 0.0
C617 C 0.95608 0.39761 0.72768 0.0
C618 C 1.00435 0.38131 0.69358 0.0
C619 C 0.95281 0.38147 0.70189 0.0
C620 C 0.05737 0.38044 0.67729 0.0
C621 C 0.04955 0.32397 0.65782 0.0
N622 N 0.9767 0.37324 0.68619 0.0
N623 N 0.02663 0.33988 0.66808 0.0
H624 H 0.75296 1.00891 0.40766 0.0
H625 H 0.63314 0.06971 0.30309 0.0
H626 H 0.67652 0.95849 0.38774 0.0
H627 H 0.68339 0.1273 0.35741 0.0
H628 H 0.64724 0.02894 0.33458 0.0
H629 H 0.72743 0.05276 0.3908 0.0
C630 C 0.73051 1.00721 0.40044 0.0
C631 C 0.71681 0.98001 0.39928 0.0
C632 C 0.6546 0.0506 0.34007 0.0
C633 C 0.68777 0.03003 0.37887 0.0
C634 C 0.64647 0.07391 0.32215 0.0
C635 C 0.65694 0.10202 0.32771 0.0
C636 C 0.67415 0.05517 0.36325 0.0
C637 C 0.67452 0.10609 0.3525 0.0
C638 C 0.71596 0.03225 0.39074 0.0
C639 C 0.6878 0.97905 0.38935 0.0
N640 N 0.68311 0.08285 0.36895 0.0
N641 N 0.67447 1.00355 0.37892 0.0
H642 H 0.93993 0.64377 0.3708 0.0
H643 H 0.05851 0.76264 0.37737 0.0
H644 H 0.9781 0.67945 0.29283 0.0
H645 H 0.08598 0.68229 0.41795 0.0
H646 H 1.0157 0.73815 0.35807 0.0
H647 H 0.98251 0.66162 0.39881 0.0
C648 C 0.95733 0.65481 0.35948 0.0
C649 C 0.95518 0.66023 0.32935 0.0
C650 C 0.03087 0.72604 0.37163 0.0
C651 C 1.00312 0.68111 0.36126 0.0
C652 C 0.05537 0.73996 0.38277 0.0
C653 C 0.07629 0.72448 0.3991 0.0
C654 C 0.02669 0.69644 0.37708 0.0
C655 C 0.07055 0.69507 0.40538 0.0
C656 C 0.98151 0.66497 0.37548 0.0
C657 C 0.97844 0.67482 0.31594 0.0
N658 N 0.04632 0.68184 0.39415 0.0
N659 N 1.00099 0.68517 0.33201 0.0
H660 H 0.35436 0.98737 0.28922 0.0
H661 H 0.35231 0.11742 0.38872 0.0
H662 H 0.4108 0.96931 0.36264 0.0
H663 H 0.27777 0.06052 0.38974 0.0
H664 H 0.38248 0.07636 0.37106 0.0
H665 H 0.33455 0.02922 0.31518 0.0
C666 C 0.36308 0.9924 0.31058 0.0
C667 C 0.38428 0.97444 0.32376 0.0
C668 C 0.35967 0.07293 0.37597 0.0
C669 C 0.36162 0.02293 0.35337 0.0
C670 C 0.34244 0.09625 0.3861 0.0
C671 C 0.3123 0.09261 0.39053 0.0
C672 C 0.34651 0.04608 0.37004 0.0
C673 C 0.30075 0.06462 0.38641 0.0
C674 C 0.35164 1.01633 0.32533 0.0
C675 C 0.39449 0.98243 0.35162 0.0
N676 N 0.31766 0.04272 0.37579 0.0
N677 N 0.38292 1.00607 0.36567 0.0
H678 H 0.04953 0.41266 0.29761 0.0
H679 H 0.99576 0.29316 0.40626 0.0
H680 H 0.1079 0.37141 0.3589 0.0
H681 H 0.93665 0.35627 0.36897 0.0
H682 H 0.03691 0.32367 0.39223 0.0
H683 H 1.00796 0.39535 0.32589 0.0
C684 C 0.05361 0.40064 0.31751 0.0
C685 C 0.08229 0.39353 0.3259 0.0
C686 C 1.01495 0.33123 0.38767 0.0
C687 C 0.03463 0.37271 0.35793 0.0
C688 C 0.9914 0.31382 0.39575 0.0
C689 C 0.96266 0.32214 0.38879 0.0
C690 C 1.0099 0.35688 0.3718 0.0
C691 C 0.95839 0.34908 0.37497 0.0
C692 C 0.02983 0.39065 0.33361 0.0
C693 C 0.08622 0.37764 0.35175 0.0
N694 N 0.98174 0.36517 0.36639 0.0
N695 N 0.06269 0.36723 0.36647 0.0
H696 H 0.74062 0.64679 1.00862 0.0
H697 H 0.61665 0.74956 0.06251 0.0
H698 H 0.67014 0.67095 0.9509 0.0
H699 H 0.65514 0.68705 0.12117 0.0
H700 H 0.63587 0.72174 1.02113 0.0
H701 H 0.71063 0.66165 0.0503 0.0
C702 C 0.71864 0.6547 1.00474 0.0
C703 C 0.7079 0.65759 0.97618 0.0
C704 C 0.63949 0.71367 0.04301 0.0
C705 C 0.67377 0.67541 0.02377 0.0
C706 C 0.62839 0.72945 0.06661 0.0
C707 C 0.63394 0.72035 0.09527 0.0
C708 C 0.65724 0.68918 0.04811 0.0
C709 C 0.64989 0.6945 0.0994 0.0
C710 C 0.70153 0.66315 0.02854 0.0
C711 C 0.67927 0.66816 0.9725 0.0
N712 N 0.66157 0.68018 0.07612 0.0
N713 N 0.66346 0.67724 0.99592 0.0
H714 H 0.37111 0.64539 0.10338 0.0
H715 H 0.34029 0.75835 0.9838 0.0
H716 H 0.28473 0.65837 0.06783 0.0
H717 H 0.40728 0.69633 0.96012 0.0
H718 H 0.3269 0.72766 0.0245 0.0
H719 H 0.39164 0.66695 0.05861 0.0
C720 C 0.35654 0.6519 0.08593 0.0
C721 C 0.3261 0.65046 0.08957 0.0
C722 C 0.34466 0.72084 1.01049 0.0
C723 C 0.34932 0.67549 0.03914 0.0
C724 C 0.35251 0.73842 0.98726 0.0
C725 C 0.37491 0.72991 0.96821 0.0
C726 C 0.3595 0.69462 1.01537 0.0
C727 C 0.3898 0.70367 0.97416 0.0
C728 C 0.36827 0.66427 0.06052 0.0
C729 C 0.30827 0.65947 0.06629 0.0
N730 N 0.38188 0.68685 0.99739 0.0
N731 N 0.32007 0.67214 0.04248 0.0
H732 H 0.35849 0.38353 0.94508 0.0
H733 H 0.36263 0.36381 0.11877 0.0
H734 H 0.28925 0.41217 1.00176 0.0
H735 H 0.40331 0.30366 0.05917 0.0
H736 H 0.34684 0.39358 0.07709 0.0
H737 H 0.38589 0.36635 0.98795 0.0
C738 C 0.34947 0.38711 0.96658 0.0
C739 C 0.32151 0.39932 0.96983 0.0
C740 C 0.35982 0.37422 0.07324 0.0
C741 C 0.35272 0.37965 1.01891 0.0
C742 C 0.36912 0.35738 0.09702 0.0
C743 C 0.38434 0.33118 0.09247 0.0
C744 C 0.36622 0.3651 0.04471 0.0
C745 C 0.3916 0.32367 0.06368 0.0
C746 C 0.365 0.37702 0.99099 0.0
C747 C 0.31071 0.40286 0.99824 0.0
N748 N 0.38239 0.34042 0.04094 0.0
N749 N 0.32623 0.39297 1.02162 0.0
H750 H 0.75407 0.40993 0.05528 0.0
H751 H 0.64493 0.29291 0.99649 0.0
H752 H 0.69323 0.36689 0.11187 0.0
H753 H 0.68139 0.35832 0.9404 0.0
H754 H 0.65944 0.32166 0.03895 0.0
H755 H 0.72545 0.39413 1.01311 0.0
C756 C 0.73422 0.3978 0.05887 0.0
C757 C 0.72604 0.38977 0.08719 0.0
C758 C 0.66371 0.33009 1.01737 0.0
C759 C 0.69361 0.37069 0.03881 0.0
C760 C 0.65536 0.31369 0.99308 0.0
C761 C 0.66196 0.32316 0.96478 0.0
C762 C 0.67948 0.35589 1.01349 0.0
C763 C 0.67569 0.35022 0.96176 0.0
C764 C 0.71791 0.38869 0.03475 0.0
C765 C 0.70023 0.3738 0.09048 0.0
N766 N 0.68453 0.36531 0.98578 0.0
N767 N 0.6853 0.36426 0.06659 0.0
H768 H 0.0941 0.29981 0.28955 0.0
H769 H 0.25269 0.23427 0.32266 0.0
H770 H 0.16324 0.29914 0.22649 0.0
H771 H 0.17999 0.22781 0.38143 0.0
H772 H 0.22055 0.2581 0.28684 0.0
H773 H 0.12341 0.26841 0.32106 0.0
C774 C 0.11471 0.29149 0.28145 0.0
C775 C 0.12632 0.30245 0.25547 0.0
C776 C 0.21174 0.25193 0.30778 0.0
C777 C 0.16097 0.26797 0.29225 0.0
C778 C 0.2303 0.23908 0.32853 0.0
C779 C 0.21914 0.22974 0.35535 0.0
C780 C 0.18183 0.25541 0.31395 0.0
C781 C 0.18959 0.23525 0.36126 0.0
C782 C 0.13196 0.27436 0.29995 0.0
C783 C 0.15342 0.29125 0.24638 0.0
N784 N 0.17199 0.24754 0.34075 0.0
N785 N 0.17034 0.27557 0.26518 0.0
H786 H 0.83535 0.18374 0.37966 0.0
H787 H 0.75695 0.16767 0.22458 0.0
H788 H 0.8233 0.25467 0.31955 0.0
H789 H 0.75071 0.10338 0.29222 0.0
H790 H 0.7906 0.19545 0.25502 0.0
H791 H 0.80963 0.15157 0.34588 0.0
C792 C 0.82633 0.19274 0.35974 0.0
C793 C 0.83066 0.2221 0.35279 0.0
C794 C 0.78267 0.17476 0.26287 0.0
C795 C 0.80276 0.18498 0.31312 0.0
C796 C 0.76425 0.1583 0.24503 0.0
C797 C 0.75078 0.13321 0.25593 0.0
C798 C 0.78832 0.16554 0.29151 0.0
C799 C 0.7606 0.12256 0.2829 0.0
C800 C 0.81216 0.17425 0.34021 0.0
C801 C 0.81953 0.23242 0.32619 0.0
N802 N 0.77811 0.13915 0.30013 0.0
N803 N 0.80632 0.21383 0.30719 0.0
H804 H 0.91042 0.7509 0.31542 0.0
H805 H 0.75417 0.82413 0.34504 0.0
H806 H 0.84 0.74801 0.25329 0.0
H807 H 0.82572 0.82513 0.40598 0.0
H808 H 0.7839 0.79476 0.31163 0.0
H809 H 0.88036 0.78113 0.34728 0.0
C810 C 0.88915 0.75803 0.30778 0.0
C811 C 0.87796 0.74747 0.28138 0.0
C812 C 0.79286 0.80071 0.33265 0.0
C813 C 0.84241 0.78036 0.31871 0.0
C814 C 0.77555 0.81675 0.3521 0.0
C815 C 0.78726 0.82648 0.37864 0.0
C816 C 0.82211 0.7945 0.33984 0.0
C817 C 0.81563 0.81748 0.38605 0.0
C818 C 0.8716 0.77458 0.32637 0.0
C819 C 0.84973 0.75633 0.27313 0.0
N820 N 0.83217 0.80238 0.36665 0.0
N821 N 0.8327 0.7718 0.29195 0.0
H822 H 0.31152 0.90049 0.33981 0.0
H823 H 0.23868 0.74428 0.36074 0.0
H824 H 0.30579 0.83748 0.27067 0.0
H825 H 0.24351 0.80943 0.42781 0.0
H826 H 0.26865 0.77489 0.32922 0.0
H827 H 0.28754 0.86648 0.37257 0.0
C828 C 0.30406 0.87986 0.33123 0.0
C829 C 0.30991 0.87211 0.30229 0.0
C830 C 0.26394 0.78214 0.35117 0.0
C831 C 0.28399 0.83213 0.3402 0.0
C832 C 0.24761 0.76421 0.36954 0.0
C833 C 0.23865 0.77427 0.39702 0.0
C834 C 0.2715 0.81021 0.36053 0.0
C835 C 0.25014 0.80069 0.40692 0.0
C836 C 0.29098 0.86014 0.35012 0.0
C837 C 0.30082 0.84465 0.29258 0.0
N838 N 0.26532 0.81804 0.38849 0.0
N839 N 0.28855 0.8255 0.31157 0.0
H840 H 0.2141 0.74347 0.77724 0.0
H841 H 0.24372 0.82384 0.62604 0.0
H842 H 0.18039 0.71299 0.69494 0.0
H843 H 0.29682 0.83783 0.70224 0.0
H844 H 0.21919 0.78388 0.65114 0.0
H845 H 0.24213 0.78061 0.75107 0.0
C846 C 0.21219 0.74493 0.75377 0.0
C847 C 0.19477 0.72524 0.73826 0.0
C848 C 0.23667 0.79519 0.6622 0.0
C849 C 0.22701 0.7672 0.70821 0.0
C850 C 0.25091 0.81768 0.6477 0.0
C851 C 0.27291 0.83334 0.6618 0.0
C852 C 0.24387 0.78897 0.69136 0.0
C853 C 0.28059 0.82552 0.69036 0.0
C854 C 0.22848 0.76583 0.73881 0.0
C855 C 0.19353 0.72774 0.70778 0.0
N856 N 0.26587 0.80407 0.70436 0.0
N857 N 0.20934 0.7483 0.69381 0.0
H858 H 0.30183 0.1228 0.73545 0.0
H859 H 0.22794 0.2794 0.71468 0.0
H860 H 0.29843 0.18717 0.80338 0.0
H861 H 0.22038 0.21019 0.65199 0.0
H862 H 0.25571 0.24665 0.74679 0.0
H863 H 0.26933 0.15298 0.70577 0.0
C864 C 0.29274 0.14246 0.74487 0.0
C865 C 0.30263 0.15229 0.77207 0.0
C866 C 0.24852 0.23878 0.72573 0.0
C867 C 0.26712 0.18812 0.73739 0.0
C868 C 0.23342 0.25775 0.70706 0.0
C869 C 0.22258 0.24771 0.68029 0.0
C870 C 0.25278 0.20956 0.71752 0.0
C871 C 0.22901 0.21897 0.67213 0.0
C872 C 0.27491 0.1602 0.72753 0.0
C873 C 0.29095 0.17852 0.78273 0.0
N874 N 0.24349 0.20089 0.69069 0.0
N875 N 0.27452 0.19594 0.76508 0.0
H876 H 0.80072 0.23485 0.72823 0.0
H877 H 0.95576 0.30325 0.76248 0.0
H878 H 0.87529 0.22118 0.67293 0.0
H879 H 0.88847 0.29514 0.82695 0.0
H880 H 0.92887 0.27024 0.7307 0.0
H881 H 0.83247 0.25875 0.76408 0.0
C882 C 0.82355 0.23798 0.72312 0.0
C883 C 0.8353 0.22677 0.69724 0.0
C884 C 0.92036 0.27487 0.75219 0.0
C885 C 0.87201 0.2527 0.73866 0.0
C886 C 0.93627 0.29298 0.77079 0.0
C887 C 0.92419 0.30232 0.79727 0.0
C888 C 0.89223 0.26601 0.76029 0.0
C889 C 0.89857 0.28859 0.80666 0.0
C890 C 0.84182 0.25088 0.7439 0.0
C891 C 0.8653 0.23014 0.69233 0.0
N892 N 0.88278 0.27212 0.78774 0.0
N893 N 0.8826 0.24278 0.71279 0.0
H894 H 0.80524 0.7398 0.66667 0.0
H895 H 0.67818 0.85765 0.6686 0.0
H896 H 0.79744 0.80057 0.59577 0.0
H897 H 0.7344 0.84085 0.74224 0.0
H898 H 0.7094 0.82592 0.63847 0.0
H899 H 0.76405 0.76377 0.69083 0.0
C900 C 0.79358 0.75694 0.65526 0.0
C901 C 0.80442 0.76799 0.62899 0.0
C902 C 0.71477 0.82927 0.66122 0.0
C903 C 0.75804 0.79591 0.6568 0.0
C904 C 0.69722 0.84743 0.6783 0.0
C905 C 0.70414 0.85218 0.70774 0.0
C906 C 0.73862 0.81494 0.67405 0.0
C907 C 0.72872 0.83817 0.71948 0.0
C908 C 0.77061 0.77105 0.6694 0.0
C909 C 0.78932 0.79111 0.61574 0.0
N910 N 0.74494 0.8199 0.70266 0.0
N911 N 0.76704 0.80464 0.62997 0.0
H912 H 0.28009 0.10959 0.29556 0.0
H913 H 0.31576 0.26647 0.23138 0.0
H914 H 0.21805 0.18011 0.29553 0.0
H915 H 0.37014 0.19111 0.21721 0.0
H916 H 0.27982 0.23541 0.25571 0.0
H917 H 0.3114 0.13749 0.26316 0.0
C918 C 0.27216 0.13022 0.28722 0.0
C919 C 0.24638 0.14247 0.29826 0.0
C920 C 0.29982 0.22574 0.24763 0.0
C921 C 0.28307 0.17558 0.26282 0.0
C922 C 0.32066 0.2436 0.23444 0.0
C923 C 0.3463 0.23144 0.22293 0.0
C924 C 0.30475 0.19553 0.24937 0.0
C925 C 0.35091 0.20142 0.2263 0.0
C926 C 0.29052 0.14662 0.26944 0.0
C927 C 0.23765 0.16972 0.28733 0.0
N928 N 0.3304 0.18455 0.23913 0.0
N929 N 0.25637 0.1858 0.27105 0.0
H930 H 0.94982 0.28753 0.29207 0.0
H931 H 0.79137 0.31895 0.22615 0.0
H932 H 0.88132 0.22405 0.29182 0.0
H933 H 0.86462 0.37597 0.21454 0.0
H934 H 0.82382 0.28372 0.25047 0.0
H935 H 0.92076 0.31801 0.25939 0.0
C936 C 0.92944 0.27912 0.28361 0.0
C937 C 0.91803 0.25319 0.29473 0.0
C938 C 0.83271 0.30412 0.24295 0.0
C939 C 0.88357 0.28889 0.25892 0.0
C940 C 0.81402 0.32453 0.22976 0.0
C941 C 0.8252 0.35072 0.21898 0.0
C942 C 0.86275 0.31003 0.2454 0.0
C943 C 0.85503 0.35627 0.22305 0.0
C944 C 0.91235 0.297 0.26568 0.0
C945 C 0.89107 0.2438 0.28359 0.0
N946 N 0.87271 0.33615 0.23585 0.0
N947 N 0.87428 0.26205 0.26715 0.0
H948 H 0.68829 0.77533 0.24322 0.0
H949 H 0.72136 0.93449 0.30549 0.0
H950 H 0.62864 0.84757 0.23555 0.0
H951 H 0.78522 0.86556 0.30439 0.0
H952 H 0.68768 0.90354 0.27838 0.0
H953 H 0.72292 0.80693 0.26877 0.0
C954 C 0.68181 0.79743 0.24838 0.0
C955 C 0.65523 0.80867 0.23795 0.0
C956 C 0.70933 0.89535 0.28332 0.0
C957 C 0.69538 0.84545 0.26552 0.0
C958 C 0.72888 0.91337 0.29806 0.0
C959 C 0.75637 0.90284 0.30662 0.0
C960 C 0.71715 0.86633 0.27747 0.0
C961 C 0.76451 0.87479 0.29754 0.0
C962 C 0.70194 0.81572 0.26218 0.0
C963 C 0.64858 0.83788 0.24391 0.0
N964 N 0.74479 0.85727 0.28399 0.0
N965 N 0.66859 0.8553 0.257 0.0
H966 H 0.30142 0.69141 0.25103 0.0
H967 H 0.14129 0.71563 0.31572 0.0
H968 H 0.23559 0.62524 0.25388 0.0
H969 H 0.20607 0.78295 0.31444 0.0
H970 H 0.1756 0.68272 0.2918 0.0
H971 H 0.26914 0.72401 0.27836 0.0
C972 C 0.28091 0.68305 0.25905 0.0
C973 C 0.27122 0.65549 0.25021 0.0
C974 C 0.18224 0.70486 0.29611 0.0
C975 C 0.23341 0.69323 0.27989 0.0
C976 C 0.16231 0.72391 0.30903 0.0
C977 C 0.17063 0.75223 0.31657 0.0
C978 C 0.21093 0.71405 0.29089 0.0
C979 C 0.19854 0.76151 0.30835 0.0
C980 C 0.26204 0.70206 0.27379 0.0
C981 C 0.24404 0.64619 0.26046 0.0
N982 N 0.21789 0.74234 0.29637 0.0
N983 N 0.2258 0.66523 0.27405 0.0
H984 H 0.30456 0.83237 0.86019 0.0
H985 H 0.33152 0.93728 0.72513 0.0
H986 H 0.385 0.83485 0.81176 0.0
H987 H 0.24603 0.90448 0.74512 0.0
H988 H 0.35139 0.91105 0.76702 0.0
H989 H 0.28318 0.86778 0.82641 0.0
C990 C 0.31776 0.84043 0.84245 0.0
C991 C 0.3466 0.83058 0.83865 0.0
C992 C 0.32817 0.91016 0.76269 0.0
C993 C 0.3224 0.87157 0.80047 0.0
C994 C 0.31671 0.9255 0.73912 0.0
C995 C 0.2871 0.92295 0.73165 0.0
C996 C 0.30986 0.89227 0.77906 0.0
C997 C 0.26891 0.90722 0.75031 0.0
C998 C 0.30551 0.86063 0.82327 0.0
C999 C 0.36264 0.84167 0.81529 0.0
N1000 N 0.28069 0.89201 0.77299 0.0
N1001 N 0.35036 0.86174 0.79715 0.0
H1002 H 0.1979 0.40157 0.82618 0.0
H1003 H 0.17922 0.24638 0.74938 0.0
H1004 H 0.26712 0.33807 0.822 0.0
H1005 H 0.11178 0.31173 0.75284 0.0
H1006 H 0.21026 0.27708 0.77999 0.0
H1007 H 0.16621 0.36865 0.79908 0.0
C1008 C 0.20682 0.38116 0.81833 0.0
C1009 C 0.23543 0.3729 0.82561 0.0
C1010 C 0.18833 0.28436 0.77486 0.0
C1011 C 0.19863 0.33407 0.79619 0.0
C1012 C 0.17021 0.26638 0.75814 0.0
C1013 C 0.14264 0.2763 0.74889 0.0
C1014 C 0.17869 0.31241 0.78246 0.0
C1015 C 0.13263 0.30298 0.75991 0.0
C1016 C 0.1885 0.36202 0.80349 0.0
C1017 C 0.24551 0.34566 0.81599 0.0
N1018 N 0.1508 0.32033 0.77558 0.0
N1019 N 0.22703 0.32705 0.80208 0.0
H1020 H 0.8346 0.17465 0.75802 0.0
H1021 H 0.73204 0.26607 0.82207 0.0
H1022 H 0.76593 0.11141 0.75518 0.0
H1023 H 0.68033 0.18919 0.83445 0.0
H1024 H 0.76876 0.23661 0.79683 0.0
H1025 H 0.80509 0.20469 0.79046 0.0
C1026 C 0.81395 0.16623 0.76565 0.0
C1027 C 0.80269 0.14048 0.75372 0.0
C1028 C 0.74948 0.22603 0.80504 0.0
C1029 C 0.76758 0.17583 0.78913 0.0
C1030 C 0.72802 0.24313 0.81864 0.0
C1031 C 0.70286 0.23014 0.82991 0.0
C1032 C 0.74574 0.19568 0.80288 0.0
C1033 C 0.69925 0.20013 0.82575 0.0
C1034 C 0.79647 0.18407 0.78323 0.0
C1035 C 0.77554 0.13103 0.76394 0.0
N1036 N 0.72041 0.18399 0.81269 0.0
N1037 N 0.75862 0.149 0.78039 0.0
H1038 H 0.89399 0.71716 0.71915 0.0
H1039 H 0.75338 0.71031 0.82122 0.0
H1040 H 0.83622 0.79054 0.73019 0.0
H1041 H 0.82791 0.65373 0.8318 0.0
H1042 H 0.77963 0.73663 0.78275 0.0
H1043 H 0.86739 0.6911 0.75696 0.0
C1044 C 0.87608 0.72801 0.73012 0.0
C1045 C 0.86762 0.75621 0.72204 0.0
C1046 C 0.79001 0.71816 0.79322 0.0
C1047 C 0.8362 0.72607 0.76442 0.0
C1048 C 0.77485 0.70284 0.81471 0.0
C1049 C 0.78837 0.67952 0.82921 0.0
C1050 C 0.81868 0.7098 0.78609 0.0
C1051 C 0.81662 0.67134 0.8208 0.0
C1052 C 0.86073 0.71305 0.75148 0.0
C1053 C 0.84383 0.76909 0.73637 0.0
N1054 N 0.83081 0.68641 0.7998 0.0
N1055 N 0.82869 0.75377 0.7567 0.0
H1056 H 0.21175 0.38579 0.18948 0.0
H1057 H 0.28875 0.23047 0.17016 0.0
H1058 H 0.22145 0.32396 0.25928 0.0
H1059 H 0.28909 0.29711 0.1045 0.0
H1060 H 0.25633 0.26062 0.19986 0.0
H1061 H 0.23644 0.35194 0.15661 0.0
C1062 C 0.22008 0.36543 0.19811 0.0
C1063 C 0.2153 0.35801 0.22733 0.0
C1064 C 0.26268 0.2683 0.17853 0.0
C1065 C 0.24213 0.31828 0.18937 0.0
C1066 C 0.28039 0.25061 0.16103 0.0
C1067 C 0.2918 0.26132 0.13479 0.0
C1068 C 0.25583 0.29665 0.16931 0.0
C1069 C 0.28076 0.28792 0.1245 0.0
C1070 C 0.23364 0.34585 0.1792 0.0
C1071 C 0.22557 0.33091 0.23715 0.0
N1072 N 0.26408 0.30503 0.1421 0.0
N1073 N 0.23829 0.3119 0.21815 0.0
H1074 H 0.37767 0.66673 0.84499 0.0
H1075 H 0.2536 0.66106 0.72474 0.0
H1076 H 0.31987 0.73867 0.82631 0.0
H1077 H 0.2534 0.59629 0.79235 0.0
H1078 H 0.29636 0.68341 0.74747 0.0
H1079 H 0.34759 0.63547 0.81321 0.0
C1080 C 0.35869 0.67588 0.83418 0.0
C1081 C 0.35086 0.70513 0.83851 0.0
C1082 C 0.28776 0.66347 0.75649 0.0
C1083 C 0.31776 0.67022 0.80133 0.0
C1084 C 0.26381 0.65031 0.74318 0.0
C1085 C 0.25018 0.62664 0.75657 0.0
C1086 C 0.29847 0.65237 0.78289 0.0
C1087 C 0.2636 0.61427 0.78118 0.0
C1088 C 0.34177 0.65815 0.81605 0.0
C1089 C 0.32629 0.71611 0.82389 0.0
N1090 N 0.28681 0.62759 0.79395 0.0
N1091 N 0.31074 0.6987 0.80571 0.0
H1092 H 0.29911 0.30334 0.939 0.0
H1093 H 0.32942 0.24538 0.77778 0.0
H1094 H 0.23455 0.30597 0.87081 0.0
H1095 H 0.38744 0.22985 0.85017 0.0
H1096 H 0.29479 0.26906 0.81113 0.0
H1097 H 0.3303 0.2733 0.90803 0.0
C1098 C 0.29073 0.29607 0.91815 0.0
C1099 C 0.26406 0.30694 0.90761 0.0
C1100 C 0.31533 0.26092 0.81964 0.0
C1101 C 0.30053 0.27434 0.87106 0.0
C1102 C 0.33541 0.24813 0.80046 0.0
C1103 C 0.36166 0.23639 0.81115 0.0
C1104 C 0.32162 0.26193 0.84967 0.0
C1105 C 0.36773 0.23924 0.841 0.0
C1106 C 0.30893 0.27964 0.90005 0.0
C1107 C 0.25475 0.29766 0.87995 0.0
N1108 N 0.34788 0.2516 0.85918 0.0
N1109 N 0.27329 0.28262 0.86228 0.0
H1110 H 0.75938 0.28493 0.95259 0.0
H1111 H 0.82176 0.31808 0.79417 0.0
H1112 H 0.7566 0.22276 0.88263 0.0
H1113 H 0.83526 0.37357 0.86859 0.0
H1114 H 0.7984 0.28222 0.82614 0.0
H1115 H 0.79242 0.3148 0.924 0.0
C1116 C 0.76724 0.27659 0.93195 0.0
C1117 C 0.75494 0.25144 0.91992 0.0
C1118 C 0.8062 0.3024 0.83541 0.0
C1119 C 0.79125 0.28646 0.88607 0.0
C1120 C 0.81885 0.32315 0.81703 0.0
C1121 C 0.8298 0.34912 0.82867 0.0
C1122 C 0.80452 0.30775 0.86559 0.0
C1123 C 0.82663 0.35404 0.85868 0.0
C1124 C 0.78538 0.29418 0.91513 0.0
C1125 C 0.76558 0.24202 0.89278 0.0
N1126 N 0.81435 0.33362 0.87603 0.0
N1127 N 0.78218 0.26005 0.87624 0.0
H1128 H 0.8074 0.74213 0.87905 0.0
H1129 H 0.69957 0.87742 0.87069 0.0
H1130 H 0.74651 0.75767 0.94862 0.0
H1131 H 0.7133 0.81915 0.79838 0.0
H1132 H 0.72792 0.84427 0.90212 0.0
H1133 H 0.78617 0.78319 0.85222 0.0
C1134 C 0.7908 0.75536 0.88948 0.0
C1135 C 0.77909 0.74699 0.91636 0.0
C1136 C 0.72467 0.83886 0.87938 0.0
C1137 C 0.75425 0.79324 0.88553 0.0
C1138 C 0.70846 0.85756 0.86153 0.0
C1139 C 0.70383 0.85069 0.83207 0.0
C1140 C 0.7372 0.81374 0.86736 0.0
C1141 C 0.716 0.82492 0.8211 0.0
C1142 C 0.77826 0.77829 0.87386 0.0
C1143 C 0.75657 0.76396 0.92829 0.0
N1144 N 0.73243 0.80748 0.8387 0.0
N1145 N 0.74467 0.78625 0.91268 0.0
H1146 H 0.72925 0.80136 0.19755 0.0
H1147 H 0.79992 0.64327 0.22042 0.0
H1148 H 0.72535 0.73291 0.13376 0.0
H1149 H 0.80019 0.70931 0.28685 0.0
H1150 H 0.77107 0.67536 0.18906 0.0
H1151 H 0.75826 0.76953 0.22936 0.0
C1152 C 0.73601 0.78022 0.1895 0.0
C1153 C 0.72547 0.77001 0.16265 0.0
C1154 C 0.77675 0.68268 0.21076 0.0
C1155 C 0.75704 0.73274 0.19964 0.0
C1156 C 0.79252 0.66399 0.22899 0.0
C1157 C 0.80188 0.67335 0.25654 0.0
C1158 C 0.7706 0.71121 0.21996 0.0
C1159 C 0.79273 0.70094 0.26608 0.0
C1160 C 0.75179 0.76171 0.20805 0.0
C1161 C 0.73368 0.74189 0.15394 0.0
N1162 N 0.77805 0.71912 0.24764 0.0
N1163 N 0.74857 0.72413 0.1725 0.0
H1164 H 0.42565 0.80951 0.23758 0.0
H1165 H 0.26712 0.74026 0.21663 0.0
H1166 H 0.36033 0.81059 0.30462 0.0
H1167 H 0.33572 0.73404 0.1531 0.0
H1168 H 0.30024 0.76707 0.249 0.0
H1169 H 0.39459 0.77794 0.20826 0.0
C1170 C 0.40553 0.80159 0.24694 0.0
C1171 C 0.39567 0.81267 0.27365 0.0
C1172 C 0.30787 0.7604 0.22771 0.0
C1173 C 0.35889 0.77813 0.23933 0.0
C1174 C 0.28867 0.74586 0.20889 0.0
C1175 C 0.29847 0.73559 0.18182 0.0
C1176 C 0.33707 0.7646 0.21935 0.0
C1177 C 0.3271 0.74221 0.17348 0.0
C1178 C 0.38729 0.78433 0.22975 0.0
C1179 C 0.36895 0.80231 0.28427 0.0
N1180 N 0.34541 0.75602 0.19221 0.0
N1181 N 0.35107 0.78638 0.26675 0.0
H1182 H 0.765 0.29506 0.0962 0.0
H1183 H 0.73136 0.23472 0.25476 0.0
H1184 H 0.8284 0.29529 0.16546 0.0
H1185 H 0.67739 0.21616 0.18008 0.0
H1186 H 0.76718 0.25753 0.22235 0.0
H1187 H 0.73474 0.26218 0.12463 0.0
C1188 C 0.77351 0.28666 0.1166 0.0
C1189 C 0.79914 0.29825 0.12855 0.0
C1190 C 0.74734 0.24873 0.2131 0.0
C1191 C 0.76373 0.26211 0.16221 0.0
C1192 C 0.72658 0.23639 0.23169 0.0
C1193 C 0.70103 0.22421 0.22014 0.0
C1194 C 0.74241 0.24899 0.18279 0.0
C1195 C 0.69655 0.2258 0.1899 0.0
C1196 C 0.75571 0.26861 0.13333 0.0
C1197 C 0.80876 0.28691 0.15539 0.0
N1198 N 0.71694 0.23794 0.17233 0.0
N1199 N 0.79054 0.27047 0.17187 0.0
loop_
_geom_bond_atom_site_label_1
_geom_bond_atom_site_label_2
_geom_bond_distance
_geom_bond_site_symmetry_2
_ccdc_geom_bond_type
C0 O2 1.247 . S
C0 O4 1.258 . S
C1 O8 1.247 . S
C1 O9 1.258 . S
O2 C0 1.247 . S
O2 Zn3 2.028 . S
Zn3 O2 2.028 . S
Zn3 O7 2.035 . S
Zn3 O9 2.035 . S
Zn3 O10 2.028 . S
O4 C0 1.258 . S
O4 Zn5 2.035 . S
Zn5 O4 2.035 . S
Zn5 O6 2.028 . S
Zn5 O8 2.028 . S
Zn5 O11 2.035 . S
O6 Zn5 2.028 . S
O6 C12 1.247 . S
O7 Zn3 2.035 . S
O7 C12 1.258 . S
O8 C1 1.247 . S
O8 Zn5 2.028 . S
O9 C1 1.258 . S
O9 Zn3 2.035 . S
O10 Zn3 2.028 . S
O10 C13 1.247 . S
O11 Zn5 2.035 . S
O11 C13 1.258 . S
C12 O6 1.247 . S
C12 O7 1.258 . S
C13 O10 1.247 . S
C13 O11 1.258 . S
C14 O16 1.247 . S
C14 O18 1.258 . S
C15 O22 1.247 . S
C15 O23 1.258 . S
O16 C14 1.247 . S
O16 Zn17 2.028 . S
Zn17 O16 2.028 . S
Zn17 O21 2.035 . S
Zn17 O23 2.035 . S
Zn17 O24 2.028 . S
O18 C14 1.258 . S
O18 Zn19 2.035 . S
Zn19 O18 2.035 . S
Zn19 O20 2.028 . S
Zn19 O22 2.028 . S
Zn19 O25 2.035 . S
O20 Zn19 2.028 . S
O20 C26 1.247 . S
O21 Zn17 2.035 . S
O21 C26 1.258 . S
O22 C15 1.247 . S
O22 Zn19 2.028 . S
O23 C15 1.258 . S
O23 Zn17 2.035 . S
O24 Zn17 2.028 . S
O24 C27 1.247 . S
O25 Zn19 2.035 . S
O25 C27 1.258 . S
C26 O20 1.247 . S
C26 O21 1.258 . S
C27 O24 1.247 . S
C27 O25 1.258 . S
C28 O30 1.247 . S
C28 O32 1.258 . S
C29 O36 1.247 . S
C29 O37 1.258 . S
O30 C28 1.247 . S
O30 Zn31 2.028 . S
Zn31 O30 2.028 . S
Zn31 O35 2.035 . S
Zn31 O37 2.035 . S
Zn31 O38 2.028 . S
O32 C28 1.258 . S
O32 Zn33 2.035 . S
Zn33 O32 2.035 . S
Zn33 O34 2.028 . S
Zn33 O36 2.028 . S
Zn33 O39 2.035 . S
O34 Zn33 2.028 . S
O34 C40 1.247 . S
O35 Zn31 2.035 . S
O35 C40 1.258 . S
O36 C29 1.247 . S
O36 Zn33 2.028 . S
O37 C29 1.258 . S
O37 Zn31 2.035 . S
O38 Zn31 2.028 . S
O38 C41 1.247 . S
O39 Zn33 2.035 . S
O39 C41 1.258 . S
C40 O34 1.247 . S
C40 O35 1.258 . S
C41 O38 1.247 . S
C41 O39 1.258 . S
C42 O44 1.247 . S
C42 O46 1.258 . S
C43 O50 1.247 . S
C43 O51 1.258 . S
O44 C42 1.247 . S
O44 Zn45 2.028 . S
Zn45 O44 2.028 . S
Zn45 O49 2.035 . S
Zn45 O51 2.035 . S
Zn45 O52 2.028 . S
O46 C42 1.258 . S
O46 Zn47 2.035 . S
Zn47 O46 2.035 . S
Zn47 O48 2.028 . S
Zn47 O50 2.028 . S
Zn47 O53 2.035 . S
O48 Zn47 2.028 . S
O48 C54 1.247 . S
O49 Zn45 2.035 . S
O49 C54 1.258 . S
O50 C43 1.247 . S
O50 Zn47 2.028 . S
O51 C43 1.258 . S
O51 Zn45 2.035 . S
O52 Zn45 2.028 . S
O52 C55 1.247 . S
O53 Zn47 2.035 . S
O53 C55 1.258 . S
C54 O48 1.247 . S
C54 O49 1.258 . S
C55 O52 1.247 . S
C55 O53 1.258 . S
C56 O58 1.247 . S
C56 O60 1.258 . S
C57 O64 1.247 . S
C57 O65 1.258 . S
O58 C56 1.247 . S
O58 Zn59 2.028 . S
Zn59 O58 2.028 . S
Zn59 O63 2.035 . S
Zn59 O65 2.035 . S
Zn59 O66 2.028 . S
O60 C56 1.258 . S
O60 Zn61 2.035 . S
Zn61 O60 2.035 . S
Zn61 O62 2.028 . S
Zn61 O64 2.028 . S
Zn61 O67 2.035 . S
O62 Zn61 2.028 . S
O62 C68 1.247 . S
O63 Zn59 2.035 . S
O63 C68 1.258 . S
O64 C57 1.247 . S
O64 Zn61 2.028 . S
O65 C57 1.258 . S
O65 Zn59 2.035 . S
O66 Zn59 2.028 . S
O66 C69 1.247 . S
O67 Zn61 2.035 . S
O67 C69 1.258 . S
C68 O62 1.247 . S
C68 O63 1.258 . S
C69 O66 1.247 . S
C69 O67 1.258 . S
C70 O72 1.247 . S
C70 O74 1.258 . S
C71 O78 1.247 . S
C71 O79 1.258 . S
O72 C70 1.247 . S
O72 Zn73 2.028 . S
Zn73 O72 2.028 . S
Zn73 O77 2.035 . S
Zn73 O79 2.035 . S
Zn73 O80 2.028 . S
O74 C70 1.258 . S
O74 Zn75 2.035 . S
Zn75 O74 2.035 . S
Zn75 O76 2.028 . S
Zn75 O78 2.028 . S
Zn75 O81 2.035 . S
O76 Zn75 2.028 . S
O76 C82 1.247 . S
O77 Zn73 2.035 . S
O77 C82 1.258 . S
O78 C71 1.247 . S
O78 Zn75 2.028 . S
O79 C71 1.258 . S
O79 Zn73 2.035 . S
O80 Zn73 2.028 . S
O80 C83 1.247 . S
O81 Zn75 2.035 . S
O81 C83 1.258 . S
C82 O76 1.247 . S
C82 O77 1.258 . S
C83 O80 1.247 . S
C83 O81 1.258 . S
C84 O86 1.247 . S
C84 O88 1.258 . S
C85 O92 1.247 . S
C85 O93 1.258 . S
O86 C84 1.247 . S
O86 Zn87 2.028 . S
Zn87 O86 2.028 . S
Zn87 O91 2.035 . S
Zn87 O93 2.035 . S
Zn87 O94 2.028 . S
O88 C84 1.258 . S
O88 Zn89 2.035 . S
Zn89 O88 2.035 . S
Zn89 O90 2.028 . S
Zn89 O92 2.028 . S
Zn89 O95 2.035 . S
O90 Zn89 2.028 . S
O90 C96 1.247 . S
O91 Zn87 2.035 . S
O91 C96 1.258 . S
O92 C85 1.247 . S
O92 Zn89 2.028 . S
O93 C85 1.258 . S
O93 Zn87 2.035 . S
O94 Zn87 2.028 . S
O94 C97 1.247 . S
O95 Zn89 2.035 . S
O95 C97 1.258 . S
C96 O90 1.247 . S
C96 O91 1.258 . S
C97 O94 1.247 . S
C97 O95 1.258 . S
C98 O100 1.247 . S
C98 O102 1.258 . S
C99 O106 1.247 . S
C99 O107 1.258 . S
O100 C98 1.247 . S
O100 Zn101 2.028 . S
Zn101 O100 2.028 . S
Zn101 O105 2.035 . S
Zn101 O107 2.035 . S
Zn101 O108 2.028 . S
O102 C98 1.258 . S
O102 Zn103 2.035 . S
Zn103 O102 2.035 . S
Zn103 O104 2.028 . S
Zn103 O106 2.028 . S
Zn103 O109 2.035 . S
O104 Zn103 2.028 . S
O104 C110 1.247 . S
O105 Zn101 2.035 . S
O105 C110 1.258 . S
O106 C99 1.247 . S
O106 Zn103 2.028 . S
O107 C99 1.258 . S
O107 Zn101 2.035 . S
O108 Zn101 2.028 . S
O108 C111 1.247 . S
O109 Zn103 2.035 . S
O109 C111 1.258 . S
C110 O104 1.247 . S
C110 O105 1.258 . S
C111 O108 1.247 . S
C111 O109 1.258 . S
C112 O114 1.247 . S
C112 O116 1.258 . S
C113 O120 1.247 . S
C113 O121 1.258 . S
O114 C112 1.247 . S
O114 Zn115 2.028 . S
Zn115 O114 2.028 . S
Zn115 O119 2.035 . S
Zn115 O121 2.035 . S
Zn115 O122 2.028 . S
O116 C112 1.258 . S
O116 Zn117 2.035 . S
Zn117 O116 2.035 . S
Zn117 O118 2.028 . S
Zn117 O120 2.028 . S
Zn117 O123 2.035 . S
O118 Zn117 2.028 . S
O118 C124 1.247 . S
O119 Zn115 2.035 . S
O119 C124 1.258 . S
O120 C113 1.247 . S
O120 Zn117 2.028 . S
O121 C113 1.258 . S
O121 Zn115 2.035 . S
O122 Zn115 2.028 . S
O122 C125 1.247 . S
O123 Zn117 2.035 . S
O123 C125 1.258 . S
C124 O118 1.247 . S
C124 O119 1.258 . S
C125 O122 1.247 . S
C125 O123 1.258 . S
C126 O128 1.247 . S
C126 O130 1.258 . S
C127 O134 1.247 . S
C127 O135 1.258 . S
O128 C126 1.247 . S
O128 Zn129 2.028 . S
Zn129 O128 2.028 . S
Zn129 O133 2.035 . S
Zn129 O135 2.035 . S
Zn129 O136 2.028 . S
O130 C126 1.258 . S
O130 Zn131 2.035 . S
Zn131 O130 2.035 . S
Zn131 O132 2.028 . S
Zn131 O134 2.028 . S
Zn131 O137 2.035 . S
O132 Zn131 2.028 . S
O132 C138 1.247 . S
O133 Zn129 2.035 . S
O133 C138 1.258 . S
O134 C127 1.247 . S
O134 Zn131 2.028 . S
O135 C127 1.258 . S
O135 Zn129 2.035 . S
O136 Zn129 2.028 . S
O136 C139 1.247 . S
O137 Zn131 2.035 . S
O137 C139 1.258 . S
C138 O132 1.247 . S
C138 O133 1.258 . S
C139 O136 1.247 . S
C139 O137 1.258 . S
C140 O142 1.247 . S
C140 O144 1.258 . S
C141 O148 1.247 . S
C141 O149 1.258 . S
O142 C140 1.247 . S
O142 Zn143 2.028 . S
Zn143 O142 2.028 . S
Zn143 O147 2.035 . S
Zn143 O149 2.035 . S
Zn143 O150 2.028 . S
O144 C140 1.258 . S
O144 Zn145 2.035 . S
Zn145 O144 2.035 . S
Zn145 O146 2.028 . S
Zn145 O148 2.028 . S
Zn145 O151 2.035 . S
O146 Zn145 2.028 . S
O146 C152 1.247 . S
O147 Zn143 2.035 . S
O147 C152 1.258 . S
O148 C141 1.247 . S
O148 Zn145 2.028 . S
O149 C141 1.258 . S
O149 Zn143 2.035 . S
O150 Zn143 2.028 . S
O150 C153 1.247 . S
O151 Zn145 2.035 . S
O151 C153 1.258 . S
C152 O146 1.247 . S
C152 O147 1.258 . S
C153 O150 1.247 . S
C153 O151 1.258 . S
C154 O156 1.247 . S
C154 O158 1.258 . S
C155 O162 1.247 . S
C155 O163 1.258 . S
O156 C154 1.247 . S
O156 Zn157 2.028 . S
Zn157 O156 2.028 . S
Zn157 O161 2.035 . S
Zn157 O163 2.035 . S
Zn157 O164 2.028 . S
O158 C154 1.258 . S
O158 Zn159 2.035 . S
Zn159 O158 2.035 . S
Zn159 O160 2.028 . S
Zn159 O162 2.028 . S
Zn159 O165 2.035 . S
O160 Zn159 2.028 . S
O160 C166 1.247 . S
O161 Zn157 2.035 . S
O161 C166 1.258 . S
O162 C155 1.247 . S
O162 Zn159 2.028 . S
O163 C155 1.258 . S
O163 Zn157 2.035 . S
O164 Zn157 2.028 . S
O164 C167 1.247 . S
O165 Zn159 2.035 . S
O165 C167 1.258 . S
C166 O160 1.247 . S
C166 O161 1.258 . S
C167 O164 1.247 . S
C167 O165 1.258 . S
C168 O170 1.247 . S
C168 O172 1.258 . S
C169 O176 1.247 . S
C169 O177 1.258 . S
O170 C168 1.247 . S
O170 Zn171 2.028 . S
Zn171 O170 2.028 . S
Zn171 O175 2.035 . S
Zn171 O177 2.035 . S
Zn171 O178 2.028 . S
O172 C168 1.258 . S
O172 Zn173 2.035 . S
Zn173 O172 2.035 . S
Zn173 O174 2.028 . S
Zn173 O176 2.028 . S
Zn173 O179 2.035 . S
O174 Zn173 2.028 . S
O174 C180 1.247 . S
O175 Zn171 2.035 . S
O175 C180 1.258 . S
O176 C169 1.247 . S
O176 Zn173 2.028 . S
O177 C169 1.258 . S
O177 Zn171 2.035 . S
O178 Zn171 2.028 . S
O178 C181 1.247 . S
O179 Zn173 2.035 . S
O179 C181 1.258 . S
C180 O174 1.247 . S
C180 O175 1.258 . S
C181 O178 1.247 . S
C181 O179 1.258 . S
C182 O184 1.247 . S
C182 O186 1.258 . S
C183 O190 1.247 . S
C183 O191 1.258 . S
O184 C182 1.247 . S
O184 Zn185 2.028 . S
Zn185 O184 2.028 . S
Zn185 O189 2.035 . S
Zn185 O191 2.035 . S
Zn185 O192 2.028 . S
O186 C182 1.258 . S
O186 Zn187 2.035 . S
Zn187 O186 2.035 . S
Zn187 O188 2.028 . S
Zn187 O190 2.028 . S
Zn187 O193 2.035 . S
O188 Zn187 2.028 . S
O188 C194 1.247 . S
O189 Zn185 2.035 . S
O189 C194 1.258 . S
O190 C183 1.247 . S
O190 Zn187 2.028 . S
O191 C183 1.258 . S
O191 Zn185 2.035 . S
O192 Zn185 2.028 . S
O192 C195 1.247 . S
O193 Zn187 2.035 . S
O193 C195 1.258 . S
C194 O188 1.247 . S
C194 O189 1.258 . S
C195 O192 1.247 . S
C195 O193 1.258 . S
C196 O198 1.247 . S
C196 O200 1.258 . S
C197 O204 1.247 . S
C197 O205 1.258 . S
O198 C196 1.247 . S
O198 Zn199 2.028 . S
Zn199 O198 2.028 . S
Zn199 O203 2.035 . S
Zn199 O205 2.035 . S
Zn199 O206 2.028 . S
O200 C196 1.258 . S
O200 Zn201 2.035 . S
Zn201 O200 2.035 . S
Zn201 O202 2.028 . S
Zn201 O204 2.028 . S
Zn201 O207 2.035 . S
O202 Zn201 2.028 . S
O202 C208 1.247 . S
O203 Zn199 2.035 . S
O203 C208 1.258 . S
O204 C197 1.247 . S
O204 Zn201 2.028 . S
O205 C197 1.258 . S
O205 Zn199 2.035 . S
O206 Zn199 2.028 . S
O206 C209 1.247 . S
O207 Zn201 2.035 . S
O207 C209 1.258 . S
C208 O202 1.247 . S
C208 O203 1.258 . S
C209 O206 1.247 . S
C209 O207 1.258 . S
C210 O212 1.247 . S
C210 O214 1.258 . S
C211 O218 1.247 . S
C211 O219 1.258 . S
O212 C210 1.247 . S
O212 Zn213 2.028 . S
Zn213 O212 2.028 . S
Zn213 O217 2.035 . S
Zn213 O219 2.035 . S
Zn213 O220 2.028 . S
O214 C210 1.258 . S
O214 Zn215 2.035 . S
Zn215 O214 2.035 . S
Zn215 O216 2.028 . S
Zn215 O218 2.028 . S
Zn215 O221 2.035 . S
O216 Zn215 2.028 . S
O216 C222 1.247 . S
O217 Zn213 2.035 . S
O217 C222 1.258 . S
O218 C211 1.247 . S
O218 Zn215 2.028 . S
O219 C211 1.258 . S
O219 Zn213 2.035 . S
O220 Zn213 2.028 . S
O220 C223 1.247 . S
O221 Zn215 2.035 . S
O221 C223 1.258 . S
C222 O216 1.247 . S
C222 O217 1.258 . S
C223 O220 1.247 . S
C223 O221 1.258 . S
C224 O226 1.247 . S
C224 O228 1.258 . S
C225 O232 1.247 . S
C225 O233 1.258 . S
O226 C224 1.247 . S
O226 Zn227 2.028 . S
Zn227 O226 2.028 . S
Zn227 O231 2.035 . S
Zn227 O233 2.035 . S
Zn227 O234 2.028 . S
O228 C224 1.258 . S
O228 Zn229 2.035 . S
Zn229 O228 2.035 . S
Zn229 O230 2.028 . S
Zn229 O232 2.028 . S
Zn229 O235 2.035 . S
O230 Zn229 2.028 . S
O230 C236 1.247 . S
O231 Zn227 2.035 . S
O231 C236 1.258 . S
O232 C225 1.247 . S
O232 Zn229 2.028 . S
O233 C225 1.258 . S
O233 Zn227 2.035 . S
O234 Zn227 2.028 . S
O234 C237 1.247 . S
O235 Zn229 2.035 . S
O235 C237 1.258 . S
C236 O230 1.247 . S
C236 O231 1.258 . S
C237 O234 1.247 . S
C237 O235 1.258 . S
C238 O240 1.247 . S
C238 O242 1.258 . S
C239 O246 1.247 . S
C239 O247 1.258 . S
O240 C238 1.247 . S
O240 Zn241 2.028 . S
Zn241 O240 2.028 . S
Zn241 O245 2.035 . S
Zn241 O247 2.035 . S
Zn241 O248 2.028 . S
O242 C238 1.258 . S
O242 Zn243 2.035 . S
Zn243 O242 2.035 . S
Zn243 O244 2.028 . S
Zn243 O246 2.028 . S
Zn243 O249 2.035 . S
O244 Zn243 2.028 . S
O244 C250 1.247 . S
O245 Zn241 2.035 . S
O245 C250 1.258 . S
O246 C239 1.247 . S
O246 Zn243 2.028 . S
O247 C239 1.258 . S
O247 Zn241 2.035 . S
O248 Zn241 2.028 . S
O248 C251 1.247 . S
O249 Zn243 2.035 . S
O249 C251 1.258 . S
C250 O244 1.247 . S
C250 O245 1.258 . S
C251 O248 1.247 . S
C251 O249 1.258 . S
C252 O254 1.247 . S
C252 O256 1.258 . S
C253 O260 1.247 . S
C253 O261 1.258 . S
O254 C252 1.247 . S
O254 Zn255 2.028 . S
Zn255 O254 2.028 . S
Zn255 O259 2.035 . S
Zn255 O261 2.035 . S
Zn255 O262 2.028 . S
O256 C252 1.258 . S
O256 Zn257 2.035 . S
Zn257 O256 2.035 . S
Zn257 O258 2.028 . S
Zn257 O260 2.028 . S
Zn257 O263 2.035 . S
O258 Zn257 2.028 . S
O258 C264 1.247 . S
O259 Zn255 2.035 . S
O259 C264 1.258 . S
O260 C253 1.247 . S
O260 Zn257 2.028 . S
O261 C253 1.258 . S
O261 Zn255 2.035 . S
O262 Zn255 2.028 . S
O262 C265 1.247 . S
O263 Zn257 2.035 . S
O263 C265 1.258 . S
C264 O258 1.247 . S
C264 O259 1.258 . S
C265 O262 1.247 . S
C265 O263 1.258 . S
C266 O268 1.247 . S
C266 O270 1.258 . S
C267 O274 1.247 . S
C267 O275 1.258 . S
O268 C266 1.247 . S
O268 Zn269 2.028 . S
Zn269 O268 2.028 . S
Zn269 O273 2.035 . S
Zn269 O275 2.035 . S
Zn269 O276 2.028 . S
O270 C266 1.258 . S
O270 Zn271 2.035 . S
Zn271 O270 2.035 . S
Zn271 O272 2.028 . S
Zn271 O274 2.028 . S
Zn271 O277 2.035 . S
O272 Zn271 2.028 . S
O272 C278 1.247 . S
O273 Zn269 2.035 . S
O273 C278 1.258 . S
O274 C267 1.247 . S
O274 Zn271 2.028 . S
O275 C267 1.258 . S
O275 Zn269 2.035 . S
O276 Zn269 2.028 . S
O276 C279 1.247 . S
O277 Zn271 2.035 . S
O277 C279 1.258 . S
C278 O272 1.247 . S
C278 O273 1.258 . S
C279 O276 1.247 . S
C279 O277 1.258 . S
C280 O282 1.247 . S
C280 O284 1.258 . S
C281 O288 1.247 . S
C281 O289 1.258 . S
O282 C280 1.247 . S
O282 Zn283 2.028 . S
Zn283 O282 2.028 . S
Zn283 O287 2.035 . S
Zn283 O289 2.035 . S
Zn283 O290 2.028 . S
O284 C280 1.258 . S
O284 Zn285 2.035 . S
Zn285 O284 2.035 . S
Zn285 O286 2.028 . S
Zn285 O288 2.028 . S
Zn285 O291 2.035 . S
O286 Zn285 2.028 . S
O286 C292 1.247 . S
O287 Zn283 2.035 . S
O287 C292 1.258 . S
O288 C281 1.247 . S
O288 Zn285 2.028 . S
O289 C281 1.258 . S
O289 Zn283 2.035 . S
O290 Zn283 2.028 . S
O290 C293 1.247 . S
O291 Zn285 2.035 . S
O291 C293 1.258 . S
C292 O286 1.247 . S
C292 O287 1.258 . S
C293 O290 1.247 . S
C293 O291 1.258 . S
C294 O296 1.247 . S
C294 O298 1.258 . S
C295 O302 1.247 . S
C295 O303 1.258 . S
O296 C294 1.247 . S
O296 Zn297 2.028 . S
Zn297 O296 2.028 . S
Zn297 O301 2.035 . S
Zn297 O303 2.035 . S
Zn297 O304 2.028 . S
O298 C294 1.258 . S
O298 Zn299 2.035 . S
Zn299 O298 2.035 . S
Zn299 O300 2.028 . S
Zn299 O302 2.028 . S
Zn299 O305 2.035 . S
O300 Zn299 2.028 . S
O300 C306 1.247 . S
O301 Zn297 2.035 . S
O301 C306 1.258 . S
O302 C295 1.247 . S
O302 Zn299 2.028 . S
O303 C295 1.258 . S
O303 Zn297 2.035 . S
O304 Zn297 2.028 . S
O304 C307 1.247 . S
O305 Zn299 2.035 . S
O305 C307 1.258 . S
C306 O300 1.247 . S
C306 O301 1.258 . S
C307 O304 1.247 . S
C307 O305 1.258 . S
C308 O310 1.247 . S
C308 O312 1.258 . S
C309 O316 1.247 . S
C309 O317 1.258 . S
O310 C308 1.247 . S
O310 Zn311 2.028 . S
Zn311 O310 2.028 . S
Zn311 O315 2.035 . S
Zn311 O317 2.035 . S
Zn311 O318 2.028 . S
O312 C308 1.258 . S
O312 Zn313 2.035 . S
Zn313 O312 2.035 . S
Zn313 O314 2.028 . S
Zn313 O316 2.028 . S
Zn313 O319 2.035 . S
O314 Zn313 2.028 . S
O314 C320 1.247 . S
O315 Zn311 2.035 . S
O315 C320 1.258 . S
O316 C309 1.247 . S
O316 Zn313 2.028 . S
O317 C309 1.258 . S
O317 Zn311 2.035 . S
O318 Zn311 2.028 . S
O318 C321 1.247 . S
O319 Zn313 2.035 . S
O319 C321 1.258 . S
C320 O314 1.247 . S
C320 O315 1.258 . S
C321 O318 1.247 . S
C321 O319 1.258 . S
C322 O324 1.247 . S
C322 O326 1.258 . S
C323 O330 1.247 . S
C323 O331 1.258 . S
O324 C322 1.247 . S
O324 Zn325 2.028 . S
Zn325 O324 2.028 . S
Zn325 O329 2.035 . S
Zn325 O331 2.035 . S
Zn325 O332 2.028 . S
O326 C322 1.258 . S
O326 Zn327 2.035 . S
Zn327 O326 2.035 . S
Zn327 O328 2.028 . S
Zn327 O330 2.028 . S
Zn327 O333 2.035 . S
O328 Zn327 2.028 . S
O328 C334 1.247 . S
O329 Zn325 2.035 . S
O329 C334 1.258 . S
O330 C323 1.247 . S
O330 Zn327 2.028 . S
O331 C323 1.258 . S
O331 Zn325 2.035 . S
O332 Zn325 2.028 . S
O332 C335 1.247 . S
O333 Zn327 2.035 . S
O333 C335 1.258 . S
C334 O328 1.247 . S
C334 O329 1.258 . S
C335 O332 1.247 . S
C335 O333 1.258 . S
H336 C342 0.930 . S
H337 C346 0.930 . S
H338 C351 0.929 . S
H339 C349 0.929 . S
H340 C344 0.929 . S
H341 C350 0.929 . S
C342 H336 0.930 . S
C342 C343 1.367 . S
C342 C350 1.378 . S
C343 C342 1.367 . S
C343 C351 1.433 . S
C344 H340 0.929 . S
C344 C346 1.378 . S
C344 C348 1.350 . S
C345 C348 1.463 . S
C345 C350 1.350 . S
C345 N353 1.427 . S
C346 H337 0.930 . S
C346 C344 1.378 . S
C346 C347 1.367 . S
C347 C346 1.367 . S
C347 C349 1.433 . S
C348 C344 1.350 . S
C348 C345 1.463 . S
C348 N352 1.427 . S
C349 H339 0.929 . S
C349 C347 1.433 . S
C349 N352 1.384 . S
C350 H341 0.929 . S
C350 C342 1.378 . S
C350 C345 1.350 . S
C351 H338 0.929 . S
C351 C343 1.433 . S
C351 N353 1.384 . S
N352 C348 1.427 . S
N352 C349 1.384 . S
N353 C345 1.427 . S
N353 C351 1.384 . S
H354 C360 0.930 . S
H355 C364 0.930 . S
H356 C369 0.929 . S
H357 C367 0.929 . S
H358 C362 0.929 . S
H359 C368 0.929 . S
C360 H354 0.930 . S
C360 C361 1.367 . S
C360 C368 1.378 . S
C361 C360 1.367 . S
C361 C369 1.433 . S
C362 H358 0.929 . S
C362 C364 1.378 . S
C362 C366 1.350 . S
C363 C366 1.463 . S
C363 C368 1.350 . S
C363 N371 1.427 . S
C364 H355 0.930 . S
C364 C362 1.378 . S
C364 C365 1.367 . S
C365 C364 1.367 . S
C365 C367 1.433 . S
C366 C362 1.350 . S
C366 C363 1.463 . S
C366 N370 1.427 . S
C367 H357 0.929 . S
C367 C365 1.433 . S
C367 N370 1.384 . S
C368 H359 0.929 . S
C368 C360 1.378 . S
C368 C363 1.350 . S
C369 H356 0.929 . S
C369 C361 1.433 . S
C369 N371 1.384 . S
N370 C366 1.427 . S
N370 C367 1.384 . S
N371 C363 1.427 . S
N371 C369 1.384 . S
H372 C378 0.930 . S
H373 C382 0.930 . S
H374 C387 0.929 . S
H375 C385 0.929 . S
H376 C380 0.929 . S
H377 C386 0.929 . S
C378 H372 0.930 . S
C378 C379 1.367 . S
C378 C386 1.378 . S
C379 C378 1.367 . S
C379 C387 1.433 . S
C380 H376 0.929 . S
C380 C382 1.378 . S
C380 C384 1.350 . S
C381 C384 1.463 . S
C381 C386 1.350 . S
C381 N389 1.427 . S
C382 H373 0.930 . S
C382 C380 1.378 . S
C382 C383 1.367 . S
C383 C382 1.367 . S
C383 C385 1.433 . S
C384 C380 1.350 . S
C384 C381 1.463 . S
C384 N388 1.427 . S
C385 H375 0.929 . S
C385 C383 1.433 . S
C385 N388 1.384 . S
C386 H377 0.929 . S
C386 C378 1.378 . S
C386 C381 1.350 . S
C387 H374 0.929 . S
C387 C379 1.433 . S
C387 N389 1.384 . S
N388 C384 1.427 . S
N388 C385 1.384 . S
N389 C381 1.427 . S
N389 C387 1.384 . S
H390 C396 0.930 . S
H391 C400 0.930 . S
H392 C405 0.929 . S
H393 C403 0.929 . S
H394 C398 0.929 . S
H395 C404 0.929 . S
C396 H390 0.930 . S
C396 C397 1.367 . S
C396 C404 1.378 . S
C397 C396 1.367 . S
C397 C405 1.433 . S
C398 H394 0.929 . S
C398 C400 1.378 . S
C398 C402 1.350 . S
C399 C402 1.463 . S
C399 C404 1.350 . S
C399 N407 1.427 . S
C400 H391 0.930 . S
C400 C398 1.378 . S
C400 C401 1.367 . S
C401 C400 1.367 . S
C401 C403 1.433 . S
C402 C398 1.350 . S
C402 C399 1.463 . S
C402 N406 1.427 . S
C403 H393 0.929 . S
C403 C401 1.433 . S
C403 N406 1.384 . S
C404 H395 0.929 . S
C404 C396 1.378 . S
C404 C399 1.350 . S
C405 H392 0.929 . S
C405 C397 1.433 . S
C405 N407 1.384 . S
N406 C402 1.427 . S
N406 C403 1.384 . S
N407 C399 1.427 . S
N407 C405 1.384 . S
H408 C414 0.930 . S
H409 C418 0.930 . S
H410 C423 0.929 . S
H411 C421 0.929 . S
H412 C416 0.929 . S
H413 C422 0.929 . S
C414 H408 0.930 . S
C414 C415 1.367 . S
C414 C422 1.378 . S
C415 C414 1.367 . S
C415 C423 1.433 . S
C416 H412 0.929 . S
C416 C418 1.378 . S
C416 C420 1.350 . S
C417 C420 1.463 . S
C417 C422 1.350 . S
C417 N425 1.427 . S
C418 H409 0.930 . S
C418 C416 1.378 . S
C418 C419 1.367 . S
C419 C418 1.367 . S
C419 C421 1.433 . S
C420 C416 1.350 . S
C420 C417 1.463 . S
C420 N424 1.427 . S
C421 H411 0.929 . S
C421 C419 1.433 . S
C421 N424 1.384 . S
C422 H413 0.929 . S
C422 C414 1.378 . S
C422 C417 1.350 . S
C423 H410 0.929 . S
C423 C415 1.433 . S
C423 N425 1.384 . S
N424 C420 1.427 . S
N424 C421 1.384 . S
N425 C417 1.427 . S
N425 C423 1.384 . S
H426 C432 0.930 . S
H427 C436 0.930 . S
H428 C441 0.929 . S
H429 C439 0.929 . S
H430 C434 0.929 . S
H431 C440 0.929 . S
C432 H426 0.930 . S
C432 C433 1.367 . S
C432 C440 1.378 . S
C433 C432 1.367 . S
C433 C441 1.433 . S
C434 H430 0.929 . S
C434 C436 1.378 . S
C434 C438 1.350 . S
C435 C438 1.463 . S
C435 C440 1.350 . S
C435 N443 1.427 . S
C436 H427 0.930 . S
C436 C434 1.378 . S
C436 C437 1.367 . S
C437 C436 1.367 . S
C437 C439 1.433 . S
C438 C434 1.350 . S
C438 C435 1.463 . S
C438 N442 1.427 . S
C439 H429 0.929 . S
C439 C437 1.433 . S
C439 N442 1.384 . S
C440 H431 0.929 . S
C440 C432 1.378 . S
C440 C435 1.350 . S
C441 H428 0.929 . S
C441 C433 1.433 . S
C441 N443 1.384 . S
N442 C438 1.427 . S
N442 C439 1.384 . S
N443 C435 1.427 . S
N443 C441 1.384 . S
H444 C450 0.930 . S
H445 C454 0.930 . S
H446 C459 0.929 . S
H447 C457 0.929 . S
H448 C452 0.929 . S
H449 C458 0.929 . S
C450 H444 0.930 . S
C450 C451 1.367 . S
C450 C458 1.378 . S
C451 C450 1.367 . S
C451 C459 1.433 . S
C452 H448 0.929 . S
C452 C454 1.378 . S
C452 C456 1.350 . S
C453 C456 1.463 . S
C453 C458 1.350 . S
C453 N461 1.427 . S
C454 H445 0.930 . S
C454 C452 1.378 . S
C454 C455 1.367 . S
C455 C454 1.367 . S
C455 C457 1.433 . S
C456 C452 1.350 . S
C456 C453 1.463 . S
C456 N460 1.427 . S
C457 H447 0.929 . S
C457 C455 1.433 . S
C457 N460 1.384 . S
C458 H449 0.929 . S
C458 C450 1.378 . S
C458 C453 1.350 . S
C459 H446 0.929 . S
C459 C451 1.433 . S
C459 N461 1.384 . S
N460 C456 1.427 . S
N460 C457 1.384 . S
N461 C453 1.427 . S
N461 C459 1.384 . S
H462 C468 0.930 . S
H463 C472 0.930 . S
H464 C477 0.929 . S
H465 C475 0.929 . S
H466 C470 0.929 . S
H467 C476 0.929 . S
C468 H462 0.930 . S
C468 C469 1.367 . S
C468 C476 1.378 . S
C469 C468 1.367 . S
C469 C477 1.433 . S
C470 H466 0.929 . S
C470 C472 1.378 . S
C470 C474 1.350 . S
C471 C474 1.463 . S
C471 C476 1.350 . S
C471 N479 1.427 . S
C472 H463 0.930 . S
C472 C470 1.378 . S
C472 C473 1.367 . S
C473 C472 1.367 . S
C473 C475 1.433 . S
C474 C470 1.350 . S
C474 C471 1.463 . S
C474 N478 1.427 . S
C475 H465 0.929 . S
C475 C473 1.433 . S
C475 N478 1.384 . S
C476 H467 0.929 . S
C476 C468 1.378 . S
C476 C471 1.350 . S
C477 H464 0.929 . S
C477 C469 1.433 . S
C477 N479 1.384 . S
N478 C474 1.427 . S
N478 C475 1.384 . S
N479 C471 1.427 . S
N479 C477 1.384 . S
H480 C486 0.930 . S
H481 C490 0.930 . S
H482 C495 0.929 . S
H483 C493 0.929 . S
H484 C488 0.929 . S
H485 C494 0.929 . S
C486 H480 0.930 . S
C486 C487 1.367 . S
C486 C494 1.378 . S
C487 C486 1.367 . S
C487 C495 1.433 . S
C488 H484 0.929 . S
C488 C490 1.378 . S
C488 C492 1.350 . S
C489 C492 1.463 . S
C489 C494 1.350 . S
C489 N497 1.427 . S
C490 H481 0.930 . S
C490 C488 1.378 . S
C490 C491 1.367 . S
C491 C490 1.367 . S
C491 C493 1.433 . S
C492 C488 1.350 . S
C492 C489 1.463 . S
C492 N496 1.427 . S
C493 H483 0.929 . S
C493 C491 1.433 . S
C493 N496 1.384 . S
C494 H485 0.929 . S
C494 C486 1.378 . S
C494 C489 1.350 . S
C495 H482 0.929 . S
C495 C487 1.433 . S
C495 N497 1.384 . S
N496 C492 1.427 . S
N496 C493 1.384 . S
N497 C489 1.427 . S
N497 C495 1.384 . S
H498 C504 0.930 . S
H499 C508 0.930 . S
H500 C513 0.929 . S
H501 C511 0.929 . S
H502 C506 0.929 . S
H503 C512 0.929 . S
C504 H498 0.930 . S
C504 C505 1.367 . S
C504 C512 1.378 . S
C505 C504 1.367 . S
C505 C513 1.433 . S
C506 H502 0.929 . S
C506 C508 1.378 . S
C506 C510 1.350 . S
C507 C510 1.463 . S
C507 C512 1.350 . S
C507 N515 1.427 . S
C508 H499 0.930 . S
C508 C506 1.378 . S
C508 C509 1.367 . S
C509 C508 1.367 . S
C509 C511 1.433 . S
C510 C506 1.350 . S
C510 C507 1.463 . S
C510 N514 1.427 . S
C511 H501 0.929 . S
C511 C509 1.433 . S
C511 N514 1.384 . S
C512 H503 0.929 . S
C512 C504 1.378 . S
C512 C507 1.350 . S
C513 H500 0.929 . S
C513 C505 1.433 . S
C513 N515 1.384 . S
N514 C510 1.427 . S
N514 C511 1.384 . S
N515 C507 1.427 . S
N515 C513 1.384 . S
H516 C522 0.930 . S
H517 C526 0.930 . S
H518 C531 0.929 . S
H519 C529 0.929 . S
H520 C524 0.929 . S
H521 C530 0.929 . S
C522 H516 0.930 . S
C522 C523 1.367 . S
C522 C530 1.378 . S
C523 C522 1.367 . S
C523 C531 1.433 . S
C524 H520 0.929 . S
C524 C526 1.378 . S
C524 C528 1.350 . S
C525 C528 1.463 . S
C525 C530 1.350 . S
C525 N533 1.427 . S
C526 H517 0.930 . S
C526 C524 1.378 . S
C526 C527 1.367 . S
C527 C526 1.367 . S
C527 C529 1.433 . S
C528 C524 1.350 . S
C528 C525 1.463 . S
C528 N532 1.427 . S
C529 H519 0.929 . S
C529 C527 1.433 . S
C529 N532 1.384 . S
C530 H521 0.929 . S
C530 C522 1.378 . S
C530 C525 1.350 . S
C531 H518 0.929 . S
C531 C523 1.433 . S
C531 N533 1.384 . S
N532 C528 1.427 . S
N532 C529 1.384 . S
N533 C525 1.427 . S
N533 C531 1.384 . S
H534 C540 0.930 . S
H535 C544 0.930 . S
H536 C549 0.929 . S
H537 C547 0.929 . S
H538 C542 0.929 . S
H539 C548 0.929 . S
C540 H534 0.930 . S
C540 C541 1.367 . S
C540 C548 1.378 . S
C541 C540 1.367 . S
C541 C549 1.433 . S
C542 H538 0.929 . S
C542 C544 1.378 . S
C542 C546 1.350 . S
C543 C546 1.463 . S
C543 C548 1.350 . S
C543 N551 1.427 . S
C544 H535 0.930 . S
C544 C542 1.378 . S
C544 C545 1.367 . S
C545 C544 1.367 . S
C545 C547 1.433 . S
C546 C542 1.350 . S
C546 C543 1.463 . S
C546 N550 1.427 . S
C547 H537 0.929 . S
C547 C545 1.433 . S
C547 N550 1.384 . S
C548 H539 0.929 . S
C548 C540 1.378 . S
C548 C543 1.350 . S
C549 H536 0.929 . S
C549 C541 1.433 . S
C549 N551 1.384 . S
N550 C546 1.427 . S
N550 C547 1.384 . S
N551 C543 1.427 . S
N551 C549 1.384 . S
H552 C558 0.930 . S
H553 C562 0.930 . S
H554 C567 0.929 . S
H555 C565 0.929 . S
H556 C560 0.929 . S
H557 C566 0.929 . S
C558 H552 0.930 . S
C558 C559 1.367 . S
C558 C566 1.378 . S
C559 C558 1.367 . S
C559 C567 1.433 . S
C560 H556 0.929 . S
C560 C562 1.378 . S
C560 C564 1.350 . S
C561 C564 1.463 1_565 S
C561 C566 1.350 . S
C561 N569 1.427 . S
C562 H553 0.930 . S
C562 C560 1.378 . S
C562 C563 1.367 . S
C563 C562 1.367 . S
C563 C565 1.433 . S
C564 C560 1.350 . S
C564 C561 1.463 1_545 S
C564 N568 1.427 . S
C565 H555 0.929 . S
C565 C563 1.433 . S
C565 N568 1.384 . S
C566 H557 0.929 . S
C566 C558 1.378 . S
C566 C561 1.350 . S
C567 H554 0.929 . S
C567 C559 1.433 . S
C567 N569 1.384 . S
N568 C564 1.427 . S
N568 C565 1.384 . S
N569 C561 1.427 . S
N569 C567 1.384 . S
H570 C576 0.930 . S
H571 C580 0.930 . S
H572 C585 0.929 . S
H573 C583 0.929 . S
H574 C578 0.929 1_655 S
H575 C584 0.929 1_455 S
C576 H570 0.930 . S
C576 C577 1.367 . S
C576 C584 1.378 . S
C577 C576 1.367 . S
C577 C585 1.433 . S
C578 H574 0.929 1_455 S
C578 C580 1.378 . S
C578 C582 1.350 . S
C579 C582 1.463 1_655 S
C579 C584 1.350 . S
C579 N587 1.427 . S
C580 H571 0.930 . S
C580 C578 1.378 . S
C580 C581 1.367 . S
C581 C580 1.367 . S
C581 C583 1.433 . S
C582 C578 1.350 . S
C582 C579 1.463 1_455 S
C582 N586 1.427 . S
C583 H573 0.929 . S
C583 C581 1.433 . S
C583 N586 1.384 . S
C584 H575 0.929 1_655 S
C584 C576 1.378 . S
C584 C579 1.350 . S
C585 H572 0.929 . S
C585 C577 1.433 . S
C585 N587 1.384 . S
N586 C582 1.427 . S
N586 C583 1.384 . S
N587 C579 1.427 . S
N587 C585 1.384 . S
H588 C594 0.930 . S
H589 C598 0.930 . S
H590 C603 0.929 . S
H591 C601 0.929 . S
H592 C596 0.929 . S
H593 C602 0.929 . S
C594 H588 0.930 . S
C594 C595 1.367 . S
C594 C602 1.378 . S
C595 C594 1.367 . S
C595 C603 1.433 . S
C596 H592 0.929 . S
C596 C598 1.378 . S
C596 C600 1.350 . S
C597 C600 1.463 1_545 S
C597 C602 1.350 . S
C597 N605 1.427 . S
C598 H589 0.930 . S
C598 C596 1.378 . S
C598 C599 1.367 . S
C599 C598 1.367 . S
C599 C601 1.433 . S
C600 C596 1.350 . S
C600 C597 1.463 1_565 S
C600 N604 1.427 . S
C601 H591 0.929 . S
C601 C599 1.433 . S
C601 N604 1.384 . S
C602 H593 0.929 . S
C602 C594 1.378 . S
C602 C597 1.350 . S
C603 H590 0.929 . S
C603 C595 1.433 . S
C603 N605 1.384 . S
N604 C600 1.427 . S
N604 C601 1.384 . S
N605 C597 1.427 . S
N605 C603 1.384 . S
H606 C612 0.930 . S
H607 C616 0.930 . S
H608 C621 0.929 . S
H609 C619 0.929 . S
H610 C614 0.929 . S
H611 C620 0.929 . S
C612 H606 0.930 . S
C612 C613 1.367 . S
C612 C620 1.378 . S
C613 C612 1.367 . S
C613 C621 1.433 . S
C614 H610 0.929 . S
C614 C616 1.378 . S
C614 C618 1.350 . S
C615 C618 1.463 1_455 S
C615 C620 1.350 . S
C615 N623 1.427 . S
C616 H607 0.930 . S
C616 C614 1.378 . S
C616 C617 1.367 . S
C617 C616 1.367 . S
C617 C619 1.433 . S
C618 C614 1.350 . S
C618 C615 1.463 1_655 S
C618 N622 1.427 . S
C619 H609 0.929 . S
C619 C617 1.433 . S
C619 N622 1.384 . S
C620 H611 0.929 . S
C620 C612 1.378 . S
C620 C615 1.350 . S
C621 H608 0.929 . S
C621 C613 1.433 . S
C621 N623 1.384 . S
N622 C618 1.427 . S
N622 C619 1.384 . S
N623 C615 1.427 . S
N623 C621 1.384 . S
H624 C630 0.930 . S
H625 C634 0.930 . S
H626 C639 0.929 . S
H627 C637 0.929 . S
H628 C632 0.929 1_565 S
H629 C638 0.929 1_545 S
C630 H624 0.930 . S
C630 C631 1.367 . S
C630 C638 1.378 . S
C631 C630 1.367 . S
C631 C639 1.433 . S
C632 H628 0.929 1_545 S
C632 C634 1.378 . S
C632 C636 1.350 . S
C633 C636 1.463 1_565 S
C633 C638 1.350 . S
C633 N641 1.427 . S
C634 H625 0.930 . S
C634 C632 1.378 . S
C634 C635 1.367 . S
C635 C634 1.367 . S
C635 C637 1.433 . S
C636 C632 1.350 . S
C636 C633 1.463 1_545 S
C636 N640 1.427 . S
C637 H627 0.929 . S
C637 C635 1.433 . S
C637 N640 1.384 . S
C638 H629 0.929 1_565 S
C638 C630 1.378 . S
C638 C633 1.350 . S
C639 H626 0.929 . S
C639 C631 1.433 . S
C639 N641 1.384 . S
N640 C636 1.427 . S
N640 C637 1.384 . S
N641 C633 1.427 . S
N641 C639 1.384 . S
H642 C648 0.930 . S
H643 C652 0.930 . S
H644 C657 0.929 . S
H645 C655 0.929 . S
H646 C650 0.929 . S
H647 C656 0.929 . S
C648 H642 0.930 . S
C648 C649 1.367 . S
C648 C656 1.378 . S
C649 C648 1.367 . S
C649 C657 1.433 . S
C650 H646 0.929 . S
C650 C652 1.378 . S
C650 C654 1.350 . S
C651 C654 1.463 1_655 S
C651 C656 1.350 . S
C651 N659 1.427 . S
C652 H643 0.930 . S
C652 C650 1.378 . S
C652 C653 1.367 . S
C653 C652 1.367 . S
C653 C655 1.433 . S
C654 C650 1.350 . S
C654 C651 1.463 1_455 S
C654 N658 1.427 . S
C655 H645 0.929 . S
C655 C653 1.433 . S
C655 N658 1.384 . S
C656 H647 0.929 . S
C656 C648 1.378 . S
C656 C651 1.350 . S
C657 H644 0.929 . S
C657 C649 1.433 . S
C657 N659 1.384 . S
N658 C654 1.427 . S
N658 C655 1.384 . S
N659 C651 1.427 . S
N659 C657 1.384 . S
H660 C666 0.930 . S
H661 C670 0.930 . S
H662 C675 0.929 . S
H663 C673 0.929 . S
H664 C668 0.929 . S
H665 C674 0.929 . S
C666 H660 0.930 . S
C666 C667 1.367 . S
C666 C674 1.378 . S
C667 C666 1.367 . S
C667 C675 1.433 . S
C668 H664 0.929 . S
C668 C670 1.378 . S
C668 C672 1.350 . S
C669 C672 1.463 1_565 S
C669 C674 1.350 . S
C669 N677 1.427 . S
C670 H661 0.930 . S
C670 C668 1.378 . S
C670 C671 1.367 . S
C671 C670 1.367 . S
C671 C673 1.433 . S
C672 C668 1.350 . S
C672 C669 1.463 1_545 S
C672 N676 1.427 . S
C673 H663 0.929 . S
C673 C671 1.433 . S
C673 N676 1.384 . S
C674 H665 0.929 . S
C674 C666 1.378 . S
C674 C669 1.350 . S
C675 H662 0.929 . S
C675 C667 1.433 . S
C675 N677 1.384 . S
N676 C672 1.427 . S
N676 C673 1.384 . S
N677 C669 1.427 . S
N677 C675 1.384 . S
H678 C684 0.930 . S
H679 C688 0.930 . S
H680 C693 0.929 . S
H681 C691 0.929 . S
H682 C686 0.929 1_455 S
H683 C692 0.929 1_655 S
C684 H678 0.930 . S
C684 C685 1.367 . S
C684 C692 1.378 . S
C685 C684 1.367 . S
C685 C693 1.433 . S
C686 H682 0.929 1_655 S
C686 C688 1.378 . S
C686 C690 1.350 . S
C687 C690 1.463 1_455 S
C687 C692 1.350 . S
C687 N695 1.427 . S
C688 H679 0.930 . S
C688 C686 1.378 . S
C688 C689 1.367 . S
C689 C688 1.367 . S
C689 C691 1.433 . S
C690 C686 1.350 . S
C690 C687 1.463 1_655 S
C690 N694 1.427 . S
C691 H681 0.929 . S
C691 C689 1.433 . S
C691 N694 1.384 . S
C692 H683 0.929 1_455 S
C692 C684 1.378 . S
C692 C687 1.350 . S
C693 H680 0.929 . S
C693 C685 1.433 . S
C693 N695 1.384 . S
N694 C690 1.427 . S
N694 C691 1.384 . S
N695 C687 1.427 . S
N695 C693 1.384 . S
H696 C702 0.930 . S
H697 C706 0.930 . S
H698 C711 0.929 . S
H699 C709 0.929 . S
H700 C704 0.923 1_556 S
H701 C710 0.923 1_554 S
C702 H696 0.930 . S
C702 C703 1.367 . S
C702 C710 1.378 . S
C703 C702 1.367 . S
C703 C711 1.433 . S
C704 H700 0.923 1_554 S
C704 C706 1.378 . S
C704 C708 1.350 . S
C705 C708 1.463 1_556 S
C705 C710 1.350 . S
C705 N713 1.427 . S
C706 H697 0.930 . S
C706 C704 1.378 . S
C706 C707 1.367 . S
C707 C706 1.367 . S
C707 C709 1.433 . S
C708 C704 1.350 . S
C708 C705 1.463 1_554 S
C708 N712 1.427 . S
C709 H699 0.929 . S
C709 C707 1.433 . S
C709 N712 1.384 . S
C710 H701 0.923 1_556 S
C710 C702 1.378 . S
C710 C705 1.350 . S
C711 H698 0.929 . S
C711 C703 1.433 . S
C711 N713 1.384 . S
N712 C708 1.427 . S
N712 C709 1.384 . S
N713 C705 1.427 . S
N713 C711 1.384 . S
H714 C720 0.930 . S
H715 C724 0.930 . S
H716 C729 0.929 . S
H717 C727 0.929 . S
H718 C722 0.929 . S
H719 C728 0.929 . S
C720 H714 0.930 . S
C720 C721 1.367 . S
C720 C728 1.378 . S
C721 C720 1.367 . S
C721 C729 1.433 . S
C722 H718 0.929 . S
C722 C724 1.378 . S
C722 C726 1.350 . S
C723 C726 1.463 1_554 S
C723 C728 1.350 . S
C723 N731 1.427 . S
C724 H715 0.930 . S
C724 C722 1.378 . S
C724 C725 1.367 . S
C725 C724 1.367 . S
C725 C727 1.433 . S
C726 C722 1.350 . S
C726 C723 1.463 1_556 S
C726 N730 1.427 . S
C727 H717 0.929 . S
C727 C725 1.433 . S
C727 N730 1.384 . S
C728 H719 0.929 . S
C728 C720 1.378 . S
C728 C723 1.350 . S
C729 H716 0.929 . S
C729 C721 1.433 . S
C729 N731 1.384 . S
N730 C726 1.427 . S
N730 C727 1.384 . S
N731 C723 1.427 . S
N731 C729 1.384 . S
H732 C738 0.930 . S
H733 C742 0.930 . S
H734 C747 0.929 . S
H735 C745 0.929 . S
H736 C740 0.929 . S
H737 C746 0.929 . S
C738 H732 0.930 . S
C738 C739 1.367 . S
C738 C746 1.378 . S
C739 C738 1.367 . S
C739 C747 1.433 . S
C740 H736 0.929 . S
C740 C742 1.378 . S
C740 C744 1.350 . S
C741 C744 1.463 1_556 S
C741 C746 1.350 . S
C741 N749 1.427 . S
C742 H733 0.930 . S
C742 C740 1.378 . S
C742 C743 1.367 . S
C743 C742 1.367 . S
C743 C745 1.433 . S
C744 C740 1.350 . S
C744 C741 1.463 1_554 S
C744 N748 1.427 . S
C745 H735 0.929 . S
C745 C743 1.433 . S
C745 N748 1.384 . S
C746 H737 0.929 . S
C746 C738 1.378 . S
C746 C741 1.350 . S
C747 H734 0.929 . S
C747 C739 1.433 . S
C747 N749 1.384 . S
N748 C744 1.427 . S
N748 C745 1.384 . S
N749 C741 1.427 . S
N749 C747 1.384 . S
H750 C756 0.930 . S
H751 C760 0.930 . S
H752 C765 0.929 . S
H753 C763 0.929 . S
H754 C758 0.929 1_554 S
H755 C764 0.929 1_556 S
C756 H750 0.930 . S
C756 C757 1.367 . S
C756 C764 1.378 . S
C757 C756 1.367 . S
C757 C765 1.433 . S
C758 H754 0.929 1_556 S
C758 C760 1.378 . S
C758 C762 1.350 . S
C759 C762 1.463 1_554 S
C759 C764 1.350 . S
C759 N767 1.427 . S
C760 H751 0.930 . S
C760 C758 1.378 . S
C760 C761 1.367 . S
C761 C760 1.367 . S
C761 C763 1.433 . S
C762 C758 1.350 . S
C762 C759 1.463 1_556 S
C762 N766 1.427 . S
C763 H753 0.929 . S
C763 C761 1.433 . S
C763 N766 1.384 . S
C764 H755 0.929 1_554 S
C764 C756 1.378 . S
C764 C759 1.350 . S
C765 H752 0.929 . S
C765 C757 1.433 . S
C765 N767 1.384 . S
N766 C762 1.427 . S
N766 C763 1.384 . S
N767 C759 1.427 . S
N767 C765 1.384 . S
H768 C774 0.930 . S
H769 C778 0.930 . S
H770 C783 0.929 . S
H771 C781 0.929 . S
H772 C776 0.929 . S
H773 C782 0.929 . S
C774 H768 0.930 . S
C774 C775 1.367 . S
C774 C782 1.378 . S
C775 C774 1.367 . S
C775 C783 1.433 . S
C776 H772 0.929 . S
C776 C778 1.378 . S
C776 C780 1.350 . S
C777 C780 1.463 . S
C777 C782 1.350 . S
C777 N785 1.427 . S
C778 H769 0.930 . S
C778 C776 1.378 . S
C778 C779 1.367 . S
C779 C778 1.367 . S
C779 C781 1.433 . S
C780 C776 1.350 . S
C780 C777 1.463 . S
C780 N784 1.427 . S
C781 H771 0.929 . S
C781 C779 1.433 . S
C781 N784 1.384 . S
C782 H773 0.929 . S
C782 C774 1.378 . S
C782 C777 1.350 . S
C783 H770 0.929 . S
C783 C775 1.433 . S
C783 N785 1.384 . S
N784 C780 1.427 . S
N784 C781 1.384 . S
N785 C777 1.427 . S
N785 C783 1.384 . S
H786 C792 0.930 . S
H787 C796 0.930 . S
H788 C801 0.929 . S
H789 C799 0.929 . S
H790 C794 0.929 . S
H791 C800 0.929 . S
C792 H786 0.930 . S
C792 C793 1.367 . S
C792 C800 1.378 . S
C793 C792 1.367 . S
C793 C801 1.433 . S
C794 H790 0.929 . S
C794 C796 1.378 . S
C794 C798 1.350 . S
C795 C798 1.463 . S
C795 C800 1.350 . S
C795 N803 1.427 . S
C796 H787 0.930 . S
C796 C794 1.378 . S
C796 C797 1.367 . S
C797 C796 1.367 . S
C797 C799 1.433 . S
C798 C794 1.350 . S
C798 C795 1.463 . S
C798 N802 1.427 . S
C799 H789 0.929 . S
C799 C797 1.433 . S
C799 N802 1.384 . S
C800 H791 0.929 . S
C800 C792 1.378 . S
C800 C795 1.350 . S
C801 H788 0.929 . S
C801 C793 1.433 . S
C801 N803 1.384 . S
N802 C798 1.427 . S
N802 C799 1.384 . S
N803 C795 1.427 . S
N803 C801 1.384 . S
H804 C810 0.930 . S
H805 C814 0.930 . S
H806 C819 0.929 . S
H807 C817 0.929 . S
H808 C812 0.929 . S
H809 C818 0.929 . S
C810 H804 0.930 . S
C810 C811 1.367 . S
C810 C818 1.378 . S
C811 C810 1.367 . S
C811 C819 1.433 . S
C812 H808 0.929 . S
C812 C814 1.378 . S
C812 C816 1.350 . S
C813 C816 1.463 . S
C813 C818 1.350 . S
C813 N821 1.427 . S
C814 H805 0.930 . S
C814 C812 1.378 . S
C814 C815 1.367 . S
C815 C814 1.367 . S
C815 C817 1.433 . S
C816 C812 1.350 . S
C816 C813 1.463 . S
C816 N820 1.427 . S
C817 H807 0.929 . S
C817 C815 1.433 . S
C817 N820 1.384 . S
C818 H809 0.929 . S
C818 C810 1.378 . S
C818 C813 1.350 . S
C819 H806 0.929 . S
C819 C811 1.433 . S
C819 N821 1.384 . S
N820 C816 1.427 . S
N820 C817 1.384 . S
N821 C813 1.427 . S
N821 C819 1.384 . S
H822 C828 0.930 . S
H823 C832 0.930 . S
H824 C837 0.929 . S
H825 C835 0.929 . S
H826 C830 0.929 . S
H827 C836 0.929 . S
C828 H822 0.930 . S
C828 C829 1.367 . S
C828 C836 1.378 . S
C829 C828 1.367 . S
C829 C837 1.433 . S
C830 H826 0.929 . S
C830 C832 1.378 . S
C830 C834 1.350 . S
C831 C834 1.463 . S
C831 C836 1.350 . S
C831 N839 1.427 . S
C832 H823 0.930 . S
C832 C830 1.378 . S
C832 C833 1.367 . S
C833 C832 1.367 . S
C833 C835 1.433 . S
C834 C830 1.350 . S
C834 C831 1.463 . S
C834 N838 1.427 . S
C835 H825 0.929 . S
C835 C833 1.433 . S
C835 N838 1.384 . S
C836 H827 0.929 . S
C836 C828 1.378 . S
C836 C831 1.350 . S
C837 H824 0.929 . S
C837 C829 1.433 . S
C837 N839 1.384 . S
N838 C834 1.427 . S
N838 C835 1.384 . S
N839 C831 1.427 . S
N839 C837 1.384 . S
H840 C846 0.930 . S
H841 C850 0.930 . S
H842 C855 0.929 . S
H843 C853 0.929 . S
H844 C848 0.929 . S
H845 C854 0.929 . S
C846 H840 0.930 . S
C846 C847 1.367 . S
C846 C854 1.378 . S
C847 C846 1.367 . S
C847 C855 1.433 . S
C848 H844 0.929 . S
C848 C850 1.378 . S
C848 C852 1.350 . S
C849 C852 1.463 . S
C849 C854 1.350 . S
C849 N857 1.427 . S
C850 H841 0.930 . S
C850 C848 1.378 . S
C850 C851 1.367 . S
C851 C850 1.367 . S
C851 C853 1.433 . S
C852 C848 1.350 . S
C852 C849 1.463 . S
C852 N856 1.427 . S
C853 H843 0.929 . S
C853 C851 1.433 . S
C853 N856 1.384 . S
C854 H845 0.929 . S
C854 C846 1.378 . S
C854 C849 1.350 . S
C855 H842 0.929 . S
C855 C847 1.433 . S
C855 N857 1.384 . S
N856 C852 1.427 . S
N856 C853 1.384 . S
N857 C849 1.427 . S
N857 C855 1.384 . S
H858 C864 0.930 . S
H859 C868 0.930 . S
H860 C873 0.929 . S
H861 C871 0.929 . S
H862 C866 0.929 . S
H863 C872 0.929 . S
C864 H858 0.930 . S
C864 C865 1.367 . S
C864 C872 1.378 . S
C865 C864 1.367 . S
C865 C873 1.433 . S
C866 H862 0.929 . S
C866 C868 1.378 . S
C866 C870 1.350 . S
C867 C870 1.463 . S
C867 C872 1.350 . S
C867 N875 1.427 . S
C868 H859 0.930 . S
C868 C866 1.378 . S
C868 C869 1.367 . S
C869 C868 1.367 . S
C869 C871 1.433 . S
C870 C866 1.350 . S
C870 C867 1.463 . S
C870 N874 1.427 . S
C871 H861 0.929 . S
C871 C869 1.433 . S
C871 N874 1.384 . S
C872 H863 0.929 . S
C872 C864 1.378 . S
C872 C867 1.350 . S
C873 H860 0.929 . S
C873 C865 1.433 . S
C873 N875 1.384 . S
N874 C870 1.427 . S
N874 C871 1.384 . S
N875 C867 1.427 . S
N875 C873 1.384 . S
H876 C882 0.930 . S
H877 C886 0.930 . S
H878 C891 0.929 . S
H879 C889 0.929 . S
H880 C884 0.929 . S
H881 C890 0.929 . S
C882 H876 0.930 . S
C882 C883 1.367 . S
C882 C890 1.378 . S
C883 C882 1.367 . S
C883 C891 1.433 . S
C884 H880 0.929 . S
C884 C886 1.378 . S
C884 C888 1.350 . S
C885 C888 1.463 . S
C885 C890 1.350 . S
C885 N893 1.427 . S
C886 H877 0.930 . S
C886 C884 1.378 . S
C886 C887 1.367 . S
C887 C886 1.367 . S
C887 C889 1.433 . S
C888 C884 1.350 . S
C888 C885 1.463 . S
C888 N892 1.427 . S
C889 H879 0.929 . S
C889 C887 1.433 . S
C889 N892 1.384 . S
C890 H881 0.929 . S
C890 C882 1.378 . S
C890 C885 1.350 . S
C891 H878 0.929 . S
C891 C883 1.433 . S
C891 N893 1.384 . S
N892 C888 1.427 . S
N892 C889 1.384 . S
N893 C885 1.427 . S
N893 C891 1.384 . S
H894 C900 0.930 . S
H895 C904 0.930 . S
H896 C909 0.929 . S
H897 C907 0.929 . S
H898 C902 0.929 . S
H899 C908 0.929 . S
C900 H894 0.930 . S
C900 C901 1.367 . S
C900 C908 1.378 . S
C901 C900 1.367 . S
C901 C909 1.433 . S
C902 H898 0.929 . S
C902 C904 1.378 . S
C902 C906 1.350 . S
C903 C906 1.463 . S
C903 C908 1.350 . S
C903 N911 1.427 . S
C904 H895 0.930 . S
C904 C902 1.378 . S
C904 C905 1.367 . S
C905 C904 1.367 . S
C905 C907 1.433 . S
C906 C902 1.350 . S
C906 C903 1.463 . S
C906 N910 1.427 . S
C907 H897 0.929 . S
C907 C905 1.433 . S
C907 N910 1.384 . S
C908 H899 0.929 . S
C908 C900 1.378 . S
C908 C903 1.350 . S
C909 H896 0.929 . S
C909 C901 1.433 . S
C909 N911 1.384 . S
N910 C906 1.427 . S
N910 C907 1.384 . S
N911 C903 1.427 . S
N911 C909 1.384 . S
H912 C918 0.930 . S
H913 C922 0.930 . S
H914 C927 0.929 . S
H915 C925 0.929 . S
H916 C920 0.929 . S
H917 C926 0.929 . S
C918 H912 0.930 . S
C918 C919 1.367 . S
C918 C926 1.378 . S
C919 C918 1.367 . S
C919 C927 1.433 . S
C920 H916 0.929 . S
C920 C922 1.378 . S
C920 C924 1.350 . S
C921 C924 1.463 . S
C921 C926 1.350 . S
C921 N929 1.427 . S
C922 H913 0.930 . S
C922 C920 1.378 . S
C922 C923 1.367 . S
C923 C922 1.367 . S
C923 C925 1.433 . S
C924 C920 1.350 . S
C924 C921 1.463 . S
C924 N928 1.427 . S
C925 H915 0.929 . S
C925 C923 1.433 . S
C925 N928 1.384 . S
C926 H917 0.929 . S
C926 C918 1.378 . S
C926 C921 1.350 . S
C927 H914 0.929 . S
C927 C919 1.433 . S
C927 N929 1.384 . S
N928 C924 1.427 . S
N928 C925 1.384 . S
N929 C921 1.427 . S
N929 C927 1.384 . S
H930 C936 0.930 . S
H931 C940 0.930 . S
H932 C945 0.929 . S
H933 C943 0.929 . S
H934 C938 0.929 . S
H935 C944 0.929 . S
C936 H930 0.930 . S
C936 C937 1.367 . S
C936 C944 1.378 . S
C937 C936 1.367 . S
C937 C945 1.433 . S
C938 H934 0.929 . S
C938 C940 1.378 . S
C938 C942 1.350 . S
C939 C942 1.463 . S
C939 C944 1.350 . S
C939 N947 1.427 . S
C940 H931 0.930 . S
C940 C938 1.378 . S
C940 C941 1.367 . S
C941 C940 1.367 . S
C941 C943 1.433 . S
C942 C938 1.350 . S
C942 C939 1.463 . S
C942 N946 1.427 . S
C943 H933 0.929 . S
C943 C941 1.433 . S
C943 N946 1.384 . S
C944 H935 0.929 . S
C944 C936 1.378 . S
C944 C939 1.350 . S
C945 H932 0.929 . S
C945 C937 1.433 . S
C945 N947 1.384 . S
N946 C942 1.427 . S
N946 C943 1.384 . S
N947 C939 1.427 . S
N947 C945 1.384 . S
H948 C954 0.930 . S
H949 C958 0.930 . S
H950 C963 0.929 . S
H951 C961 0.929 . S
H952 C956 0.929 . S
H953 C962 0.929 . S
C954 H948 0.930 . S
C954 C955 1.367 . S
C954 C962 1.378 . S
C955 C954 1.367 . S
C955 C963 1.433 . S
C956 H952 0.929 . S
C956 C958 1.378 . S
C956 C960 1.350 . S
C957 C960 1.463 . S
C957 C962 1.350 . S
C957 N965 1.427 . S
C958 H949 0.930 . S
C958 C956 1.378 . S
C958 C959 1.367 . S
C959 C958 1.367 . S
C959 C961 1.433 . S
C960 C956 1.350 . S
C960 C957 1.463 . S
C960 N964 1.427 . S
C961 H951 0.929 . S
C961 C959 1.433 . S
C961 N964 1.384 . S
C962 H953 0.929 . S
C962 C954 1.378 . S
C962 C957 1.350 . S
C963 H950 0.929 . S
C963 C955 1.433 . S
C963 N965 1.384 . S
N964 C960 1.427 . S
N964 C961 1.384 . S
N965 C957 1.427 . S
N965 C963 1.384 . S
H966 C972 0.930 . S
H967 C976 0.930 . S
H968 C981 0.929 . S
H969 C979 0.929 . S
H970 C974 0.929 . S
H971 C980 0.929 . S
C972 H966 0.930 . S
C972 C973 1.367 . S
C972 C980 1.378 . S
C973 C972 1.367 . S
C973 C981 1.433 . S
C974 H970 0.929 . S
C974 C976 1.378 . S
C974 C978 1.350 . S
C975 C978 1.463 . S
C975 C980 1.350 . S
C975 N983 1.427 . S
C976 H967 0.930 . S
C976 C974 1.378 . S
C976 C977 1.367 . S
C977 C976 1.367 . S
C977 C979 1.433 . S
C978 C974 1.350 . S
C978 C975 1.463 . S
C978 N982 1.427 . S
C979 H969 0.929 . S
C979 C977 1.433 . S
C979 N982 1.384 . S
C980 H971 0.929 . S
C980 C972 1.378 . S
C980 C975 1.350 . S
C981 H968 0.929 . S
C981 C973 1.433 . S
C981 N983 1.384 . S
N982 C978 1.427 . S
N982 C979 1.384 . S
N983 C975 1.427 . S
N983 C981 1.384 . S
H984 C990 0.930 . S
H985 C994 0.930 . S
H986 C999 0.929 . S
H987 C997 0.929 . S
H988 C992 0.929 . S
H989 C998 0.929 . S
C990 H984 0.930 . S
C990 C991 1.367 . S
C990 C998 1.378 . S
C991 C990 1.367 . S
C991 C999 1.433 . S
C992 H988 0.929 . S
C992 C994 1.378 . S
C992 C996 1.350 . S
C993 C996 1.463 . S
C993 C998 1.350 . S
C993 N1001 1.427 . S
C994 H985 0.930 . S
C994 C992 1.378 . S
C994 C995 1.367 . S
C995 C994 1.367 . S
C995 C997 1.433 . S
C996 C992 1.350 . S
C996 C993 1.463 . S
C996 N1000 1.427 . S
C997 H987 0.929 . S
C997 C995 1.433 . S
C997 N1000 1.384 . S
C998 H989 0.929 . S
C998 C990 1.378 . S
C998 C993 1.350 . S
C999 H986 0.929 . S
C999 C991 1.433 . S
C999 N1001 1.384 . S
N1000 C996 1.427 . S
N1000 C997 1.384 . S
N1001 C993 1.427 . S
N1001 C999 1.384 . S
H1002 C1008 0.930 . S
H1003 C1012 0.930 . S
H1004 C1017 0.929 . S
H1005 C1015 0.929 . S
H1006 C1010 0.929 . S
H1007 C1016 0.929 . S
C1008 H1002 0.930 . S
C1008 C1009 1.367 . S
C1008 C1016 1.378 . S
C1009 C1008 1.367 . S
C1009 C1017 1.433 . S
C1010 H1006 0.929 . S
C1010 C1012 1.378 . S
C1010 C1014 1.350 . S
C1011 C1014 1.463 . S
C1011 C1016 1.350 . S
C1011 N1019 1.427 . S
C1012 H1003 0.930 . S
C1012 C1010 1.378 . S
C1012 C1013 1.367 . S
C1013 C1012 1.367 . S
C1013 C1015 1.433 . S
C1014 C1010 1.350 . S
C1014 C1011 1.463 . S
C1014 N1018 1.427 . S
C1015 H1005 0.929 . S
C1015 C1013 1.433 . S
C1015 N1018 1.384 . S
C1016 H1007 0.929 . S
C1016 C1008 1.378 . S
C1016 C1011 1.350 . S
C1017 H1004 0.929 . S
C1017 C1009 1.433 . S
C1017 N1019 1.384 . S
N1018 C1014 1.427 . S
N1018 C1015 1.384 . S
N1019 C1011 1.427 . S
N1019 C1017 1.384 . S
H1020 C1026 0.930 . S
H1021 C1030 0.930 . S
H1022 C1035 0.929 . S
H1023 C1033 0.929 . S
H1024 C1028 0.929 . S
H1025 C1034 0.929 . S
C1026 H1020 0.930 . S
C1026 C1027 1.367 . S
C1026 C1034 1.378 . S
C1027 C1026 1.367 . S
C1027 C1035 1.433 . S
C1028 H1024 0.929 . S
C1028 C1030 1.378 . S
C1028 C1032 1.350 . S
C1029 C1032 1.463 . S
C1029 C1034 1.350 . S
C1029 N1037 1.427 . S
C1030 H1021 0.930 . S
C1030 C1028 1.378 . S
C1030 C1031 1.367 . S
C1031 C1030 1.367 . S
C1031 C1033 1.433 . S
C1032 C1028 1.350 . S
C1032 C1029 1.463 . S
C1032 N1036 1.427 . S
C1033 H1023 0.929 . S
C1033 C1031 1.433 . S
C1033 N1036 1.384 . S
C1034 H1025 0.929 . S
C1034 C1026 1.378 . S
C1034 C1029 1.350 . S
C1035 H1022 0.929 . S
C1035 C1027 1.433 . S
C1035 N1037 1.384 . S
N1036 C1032 1.427 . S
N1036 C1033 1.384 . S
N1037 C1029 1.427 . S
N1037 C1035 1.384 . S
H1038 C1044 0.930 . S
H1039 C1048 0.930 . S
H1040 C1053 0.929 . S
H1041 C1051 0.929 . S
H1042 C1046 0.929 . S
H1043 C1052 0.929 . S
C1044 H1038 0.930 . S
C1044 C1045 1.367 . S
C1044 C1052 1.378 . S
C1045 C1044 1.367 . S
C1045 C1053 1.433 . S
C1046 H1042 0.929 . S
C1046 C1048 1.378 . S
C1046 C1050 1.350 . S
C1047 C1050 1.463 . S
C1047 C1052 1.350 . S
C1047 N1055 1.427 . S
C1048 H1039 0.930 . S
C1048 C1046 1.378 . S
C1048 C1049 1.367 . S
C1049 C1048 1.367 . S
C1049 C1051 1.433 . S
C1050 C1046 1.350 . S
C1050 C1047 1.463 . S
C1050 N1054 1.427 . S
C1051 H1041 0.929 . S
C1051 C1049 1.433 . S
C1051 N1054 1.384 . S
C1052 H1043 0.929 . S
C1052 C1044 1.378 . S
C1052 C1047 1.350 . S
C1053 H1040 0.929 . S
C1053 C1045 1.433 . S
C1053 N1055 1.384 . S
N1054 C1050 1.427 . S
N1054 C1051 1.384 . S
N1055 C1047 1.427 . S
N1055 C1053 1.384 . S
H1056 C1062 0.930 . S
H1057 C1066 0.930 . S
H1058 C1071 0.929 . S
H1059 C1069 0.929 . S
H1060 C1064 0.929 . S
H1061 C1070 0.929 . S
C1062 H1056 0.930 . S
C1062 C1063 1.367 . S
C1062 C1070 1.378 . S
C1063 C1062 1.367 . S
C1063 C1071 1.433 . S
C1064 H1060 0.929 . S
C1064 C1066 1.378 . S
C1064 C1068 1.350 . S
C1065 C1068 1.463 . S
C1065 C1070 1.350 . S
C1065 N1073 1.427 . S
C1066 H1057 0.930 . S
C1066 C1064 1.378 . S
C1066 C1067 1.367 . S
C1067 C1066 1.367 . S
C1067 C1069 1.433 . S
C1068 C1064 1.350 . S
C1068 C1065 1.463 . S
C1068 N1072 1.427 . S
C1069 H1059 0.929 . S
C1069 C1067 1.433 . S
C1069 N1072 1.384 . S
C1070 H1061 0.929 . S
C1070 C1062 1.378 . S
C1070 C1065 1.350 . S
C1071 H1058 0.929 . S
C1071 C1063 1.433 . S
C1071 N1073 1.384 . S
N1072 C1068 1.427 . S
N1072 C1069 1.384 . S
N1073 C1065 1.427 . S
N1073 C1071 1.384 . S
H1074 C1080 0.930 . S
H1075 C1084 0.930 . S
H1076 C1089 0.929 . S
H1077 C1087 0.929 . S
H1078 C1082 0.929 . S
H1079 C1088 0.929 . S
C1080 H1074 0.930 . S
C1080 C1081 1.367 . S
C1080 C1088 1.378 . S
C1081 C1080 1.367 . S
C1081 C1089 1.433 . S
C1082 H1078 0.929 . S
C1082 C1084 1.378 . S
C1082 C1086 1.350 . S
C1083 C1086 1.463 . S
C1083 C1088 1.350 . S
C1083 N1091 1.427 . S
C1084 H1075 0.930 . S
C1084 C1082 1.378 . S
C1084 C1085 1.367 . S
C1085 C1084 1.367 . S
C1085 C1087 1.433 . S
C1086 C1082 1.350 . S
C1086 C1083 1.463 . S
C1086 N1090 1.427 . S
C1087 H1077 0.929 . S
C1087 C1085 1.433 . S
C1087 N1090 1.384 . S
C1088 H1079 0.929 . S
C1088 C1080 1.378 . S
C1088 C1083 1.350 . S
C1089 H1076 0.929 . S
C1089 C1081 1.433 . S
C1089 N1091 1.384 . S
N1090 C1086 1.427 . S
N1090 C1087 1.384 . S
N1091 C1083 1.427 . S
N1091 C1089 1.384 . S
H1092 C1098 0.930 . S
H1093 C1102 0.930 . S
H1094 C1107 0.929 . S
H1095 C1105 0.929 . S
H1096 C1100 0.929 . S
H1097 C1106 0.929 . S
C1098 H1092 0.930 . S
C1098 C1099 1.367 . S
C1098 C1106 1.378 . S
C1099 C1098 1.367 . S
C1099 C1107 1.433 . S
C1100 H1096 0.929 . S
C1100 C1102 1.378 . S
C1100 C1104 1.350 . S
C1101 C1104 1.463 . S
C1101 C1106 1.350 . S
C1101 N1109 1.427 . S
C1102 H1093 0.930 . S
C1102 C1100 1.378 . S
C1102 C1103 1.367 . S
C1103 C1102 1.367 . S
C1103 C1105 1.433 . S
C1104 C1100 1.350 . S
C1104 C1101 1.463 . S
C1104 N1108 1.427 . S
C1105 H1095 0.929 . S
C1105 C1103 1.433 . S
C1105 N1108 1.384 . S
C1106 H1097 0.929 . S
C1106 C1098 1.378 . S
C1106 C1101 1.350 . S
C1107 H1094 0.929 . S
C1107 C1099 1.433 . S
C1107 N1109 1.384 . S
N1108 C1104 1.427 . S
N1108 C1105 1.384 . S
N1109 C1101 1.427 . S
N1109 C1107 1.384 . S
H1110 C1116 0.930 . S
H1111 C1120 0.930 . S
H1112 C1125 0.929 . S
H1113 C1123 0.929 . S
H1114 C1118 0.929 . S
H1115 C1124 0.929 . S
C1116 H1110 0.930 . S
C1116 C1117 1.367 . S
C1116 C1124 1.378 . S
C1117 C1116 1.367 . S
C1117 C1125 1.433 . S
C1118 H1114 0.929 . S
C1118 C1120 1.378 . S
C1118 C1122 1.350 . S
C1119 C1122 1.463 . S
C1119 C1124 1.350 . S
C1119 N1127 1.427 . S
C1120 H1111 0.930 . S
C1120 C1118 1.378 . S
C1120 C1121 1.367 . S
C1121 C1120 1.367 . S
C1121 C1123 1.433 . S
C1122 C1118 1.350 . S
C1122 C1119 1.463 . S
C1122 N1126 1.427 . S
C1123 H1113 0.929 . S
C1123 C1121 1.433 . S
C1123 N1126 1.384 . S
C1124 H1115 0.929 . S
C1124 C1116 1.378 . S
C1124 C1119 1.350 . S
C1125 H1112 0.929 . S
C1125 C1117 1.433 . S
C1125 N1127 1.384 . S
N1126 C1122 1.427 . S
N1126 C1123 1.384 . S
N1127 C1119 1.427 . S
N1127 C1125 1.384 . S
H1128 C1134 0.930 . S
H1129 C1138 0.930 . S
H1130 C1143 0.929 . S
H1131 C1141 0.929 . S
H1132 C1136 0.929 . S
H1133 C1142 0.929 . S
C1134 H1128 0.930 . S
C1134 C1135 1.367 . S
C1134 C1142 1.378 . S
C1135 C1134 1.367 . S
C1135 C1143 1.433 . S
C1136 H1132 0.929 . S
C1136 C1138 1.378 . S
C1136 C1140 1.350 . S
C1137 C1140 1.463 . S
C1137 C1142 1.350 . S
C1137 N1145 1.427 . S
C1138 H1129 0.930 . S
C1138 C1136 1.378 . S
C1138 C1139 1.367 . S
C1139 C1138 1.367 . S
C1139 C1141 1.433 . S
C1140 C1136 1.350 . S
C1140 C1137 1.463 . S
C1140 N1144 1.427 . S
C1141 H1131 0.929 . S
C1141 C1139 1.433 . S
C1141 N1144 1.384 . S
C1142 H1133 0.929 . S
C1142 C1134 1.378 . S
C1142 C1137 1.350 . S
C1143 H1130 0.929 . S
C1143 C1135 1.433 . S
C1143 N1145 1.384 . S
N1144 C1140 1.427 . S
N1144 C1141 1.384 . S
N1145 C1137 1.427 . S
N1145 C1143 1.384 . S
H1146 C1152 0.930 . S
H1147 C1156 0.930 . S
H1148 C1161 0.929 . S
H1149 C1159 0.929 . S
H1150 C1154 0.929 . S
H1151 C1160 0.929 . S
C1152 H1146 0.930 . S
C1152 C1153 1.367 . S
C1152 C1160 1.378 . S
C1153 C1152 1.367 . S
C1153 C1161 1.433 . S
C1154 H1150 0.929 . S
C1154 C1156 1.378 . S
C1154 C1158 1.350 . S
C1155 C1158 1.463 . S
C1155 C1160 1.350 . S
C1155 N1163 1.427 . S
C1156 H1147 0.930 . S
C1156 C1154 1.378 . S
C1156 C1157 1.367 . S
C1157 C1156 1.367 . S
C1157 C1159 1.433 . S
C1158 C1154 1.350 . S
C1158 C1155 1.463 . S
C1158 N1162 1.427 . S
C1159 H1149 0.929 . S
C1159 C1157 1.433 . S
C1159 N1162 1.384 . S
C1160 H1151 0.929 . S
C1160 C1152 1.378 . S
C1160 C1155 1.350 . S
C1161 H1148 0.929 . S
C1161 C1153 1.433 . S
C1161 N1163 1.384 . S
N1162 C1158 1.427 . S
N1162 C1159 1.384 . S
N1163 C1155 1.427 . S
N1163 C1161 1.384 . S
H1164 C1170 0.930 . S
H1165 C1174 0.930 . S
H1166 C1179 0.929 . S
H1167 C1177 0.929 . S
H1168 C1172 0.929 . S
H1169 C1178 0.929 . S
C1170 H1164 0.930 . S
C1170 C1171 1.367 . S
C1170 C1178 1.378 . S
C1171 C1170 1.367 . S
C1171 C1179 1.433 . S
C1172 H1168 0.929 . S
C1172 C1174 1.378 . S
C1172 C1176 1.350 . S
C1173 C1176 1.463 . S
C1173 C1178 1.350 . S
C1173 N1181 1.427 . S
C1174 H1165 0.930 . S
C1174 C1172 1.378 . S
C1174 C1175 1.367 . S
C1175 C1174 1.367 . S
C1175 C1177 1.433 . S
C1176 C1172 1.350 . S
C1176 C1173 1.463 . S
C1176 N1180 1.427 . S
C1177 H1167 0.929 . S
C1177 C1175 1.433 . S
C1177 N1180 1.384 . S
C1178 H1169 0.929 . S
C1178 C1170 1.378 . S
C1178 C1173 1.350 . S
C1179 H1166 0.929 . S
C1179 C1171 1.433 . S
C1179 N1181 1.384 . S
N1180 C1176 1.427 . S
N1180 C1177 1.384 . S
N1181 C1173 1.427 . S
N1181 C1179 1.384 . S
H1182 C1188 0.930 . S
H1183 C1192 0.930 . S
H1184 C1197 0.929 . S
H1185 C1195 0.929 . S
H1186 C1190 0.929 . S
H1187 C1196 0.929 . S
C1188 H1182 0.930 . S
C1188 C1189 1.367 . S
C1188 C1196 1.378 . S
C1189 C1188 1.367 . S
C1189 C1197 1.433 . S
C1190 H1186 0.929 . S
C1190 C1192 1.378 . S
C1190 C1194 1.350 . S
C1191 C1194 1.463 . S
C1191 C1196 1.350 . S
C1191 N1199 1.427 . S
C1192 H1183 0.930 . S
C1192 C1190 1.378 . S
C1192 C1193 1.367 . S
C1193 C1192 1.367 . S
C1193 C1195 1.433 . S
C1194 C1190 1.350 . S
C1194 C1191 1.463 . S
C1194 N1198 1.427 . S
C1195 H1185 0.929 . S
C1195 C1193 1.433 . S
C1195 N1198 1.384 . S
C1196 H1187 0.929 . S
C1196 C1188 1.378 . S
C1196 C1191 1.350 . S
C1197 H1184 0.929 . S
C1197 C1189 1.433 . S
C1197 N1199 1.384 . S
N1198 C1194 1.427 . S
N1198 C1195 1.384 . S
N1199 C1191 1.427 . S
N1199 C1197 1.384 . S
C343 C321 1.839 . S
C347 C13 1.846 . S
C361 C27 1.840 . S
C365 C237 1.846 . S
C379 C334 1.841 . S
C383 C40 1.846 . S
C397 C295 1.846 . S
C401 C43 1.844 . S
C415 C252 1.839 . S
C419 C57 1.838 . S
C433 C267 1.837 . S
C437 C71 1.843 . S
C451 C281 1.837 . S
C455 C85 1.842 . S
C469 C110 1.845 . S
C473 C239 1.844 . S
C487 C182 1.842 . S
C491 C125 1.847 . S
C505 C197 1.844 . S
C509 C138 1.837 . S
C523 C140 1.846 . S
C527 C211 1.842 . S
C541 C167 1.838 . S
C545 C181 1.845 . S
C559 C98 1.837 . S
C563 C209 1.845 . S
C577 C223 1.843 . S
C581 C69 1.847 . S
C595 C83 1.840 . S
C599 C169 1.847 . S
C613 C194 1.845 . S
C617 C97 1.839 . S
C631 C152 1.845 . S
C635 C15 1.845 . S
C649 C28 1.845 . S
C653 C155 1.839 . S
C667 C55 1.837 . S
C671 C113 1.843 . S
C685 C1 1.846 . S
C689 C126 1.844 . S
C703 C293 1.841 . S
C707 C307 1.847 . S
C721 C309 1.841 . S
C725 C251 1.837 . S
C739 C264 1.838 . S
C743 C225 1.838 . S
C757 C322 1.844 . S
C761 C279 1.846 . S
C775 C12 1.107 . S
C779 C112 1.104 . S
C793 C127 1.124 . S
C797 C26 1.110 . S
C811 C41 1.125 . S
C815 C153 1.116 . S
C829 C42 1.121 . S
C833 C154 1.107 . S
C847 C56 1.118 . S
C851 C168 1.124 . S
C865 C70 1.122 . S
C869 C195 1.110 . S
C883 C208 1.109 . S
C887 C84 1.122 . S
C901 C222 1.103 . S
C905 C111 1.115 . S
C919 C124 1.124 . S
C923 C224 1.115 . S
C937 C139 1.118 . S
C941 C323 1.105 . S
C955 C306 1.103 . S
C959 C141 1.113 . S
C973 C308 1.104 . S
C977 C166 1.106 . S
C991 C250 1.103 . S
C995 C180 1.115 . S
C1009 C265 1.125 . S
C1013 C183 1.119 . S
C1027 C196 1.114 . S
C1031 C278 1.124 . S
C1045 C210 1.106 . S
C1049 C292 1.104 . S
C1063 C0 1.124 . S
C1067 C236 1.117 . S
C1081 C238 1.121 . S
C1085 C68 1.107 . S
C1099 C253 1.125 . S
C1103 C82 1.112 . S
C1117 C266 1.123 . S
C1121 C96 1.109 . S
C1135 C280 1.106 . S
C1139 C99 1.121 . S
C1153 C294 1.103 . S
C1157 C29 1.117 . S
C1171 C54 1.123 . S
C1175 C320 1.119 . S
C1189 C335 1.108 . S
C1193 C14 1.104 . S
