# Generated by pormake.
# Topology vbj, (5)-cn, num edge types: 1
# Building blocks:
#     Node 0, Type 0, BuildingBlock: BEQFEK_clean_sbu_0, # of connection points: 5
#     Node 1, Type 0, BuildingBlock: BEQFEK_clean_sbu_0, # of connection points: 5
#     Node 2, Type 0, BuildingBlock: BEQFEK_clean_sbu_0, # of connection points: 5
#     Node 3, Type 0, BuildingBlock: BEQFEK_clean_sbu_0, # of connection points: 5
#     Node 4, Type 0, BuildingBlock: BEQFEK_clean_sbu_0, # of connection points: 5
#     Node 5, Type 0, BuildingBlock: BEQFEK_clean_sbu_0, # of connection points: 5
#     Node 6, Type 0, BuildingBlock: BEQFEK_clean_sbu_0, # of connection points: 5
#     Node 7, Type 0, BuildingBlock: BEQFEK_clean_sbu_0, # of connection points: 5
#     Node 8, Type 0, BuildingBlock: BEQFEK_clean_sbu_0, # of connection points: 5
#     Node 9, Type 0, BuildingBlock: BEQFEK_clean_sbu_0, # of connection points: 5
#     Node 10, Type 0, BuildingBlock: BEQFEK_clean_sbu_0, # of connection points: 5
#     Node 11, Type 0, BuildingBlock: BEQFEK_clean_sbu_0, # of connection points: 5
#     Node 12, Type 0, BuildingBlock: BEQFEK_clean_sbu_0, # of connection points: 5
#     Node 13, Type 0, BuildingBlock: BEQFEK_clean_sbu_0, # of connection points: 5
#     Node 14, Type 0, BuildingBlock: BEQFEK_clean_sbu_0, # of connection points: 5
#     Node 15, Type 0, BuildingBlock: BEQFEK_clean_sbu_0, # of connection points: 5
#     Edge 16, Type (0, 0), BuildingBlock: OJICUG_clean_linker_0, # of connection points: 2
#     Edge 17, Type (0, 0), BuildingBlock: OJICUG_clean_linker_0, # of connection points: 2
#     Edge 18, Type (0, 0), BuildingBlock: OJICUG_clean_linker_0, # of connection points: 2
#     Edge 19, Type (0, 0), BuildingBlock: OJICUG_clean_linker_0, # of connection points: 2
#     Edge 20, Type (0, 0), BuildingBlock: OJICUG_clean_linker_0, # of connection points: 2
#     Edge 21, Type (0, 0), BuildingBlock: OJICUG_clean_linker_0, # of connection points: 2
#     Edge 22, Type (0, 0), BuildingBlock: OJICUG_clean_linker_0, # of connection points: 2
#     Edge 23, Type (0, 0), BuildingBlock: OJICUG_clean_linker_0, # of connection points: 2
#     Edge 24, Type (0, 0), BuildingBlock: OJICUG_clean_linker_0, # of connection points: 2
#     Edge 25, Type (0, 0), BuildingBlock: OJICUG_clean_linker_0, # of connection points: 2
#     Edge 26, Type (0, 0), BuildingBlock: OJICUG_clean_linker_0, # of connection points: 2
#     Edge 27, Type (0, 0), BuildingBlock: OJICUG_clean_linker_0, # of connection points: 2
#     Edge 28, Type (0, 0), BuildingBlock: OJICUG_clean_linker_0, # of connection points: 2
#     Edge 29, Type (0, 0), BuildingBlock: OJICUG_clean_linker_0, # of connection points: 2
#     Edge 30, Type (0, 0), BuildingBlock: OJICUG_clean_linker_0, # of connection points: 2
#     Edge 31, Type (0, 0), BuildingBlock: OJICUG_clean_linker_0, # of connection points: 2
#     Edge 32, Type (0, 0), BuildingBlock: OJICUG_clean_linker_0, # of connection points: 2
#     Edge 33, Type (0, 0), BuildingBlock: OJICUG_clean_linker_0, # of connection points: 2
#     Edge 34, Type (0, 0), BuildingBlock: OJICUG_clean_linker_0, # of connection points: 2
#     Edge 35, Type (0, 0), BuildingBlock: OJICUG_clean_linker_0, # of connection points: 2
#     Edge 36, Type (0, 0), BuildingBlock: OJICUG_clean_linker_0, # of connection points: 2
#     Edge 37, Type (0, 0), BuildingBlock: OJICUG_clean_linker_0, # of connection points: 2
#     Edge 38, Type (0, 0), BuildingBlock: OJICUG_clean_linker_0, # of connection points: 2
#     Edge 39, Type (0, 0), BuildingBlock: OJICUG_clean_linker_0, # of connection points: 2
#     Edge 40, Type (0, 0), BuildingBlock: OJICUG_clean_linker_0, # of connection points: 2
#     Edge 41, Type (0, 0), BuildingBlock: OJICUG_clean_linker_0, # of connection points: 2
#     Edge 42, Type (0, 0), BuildingBlock: OJICUG_clean_linker_0, # of connection points: 2
#     Edge 43, Type (0, 0), BuildingBlock: OJICUG_clean_linker_0, # of connection points: 2
#     Edge 44, Type (0, 0), BuildingBlock: OJICUG_clean_linker_0, # of connection points: 2
#     Edge 45, Type (0, 0), BuildingBlock: OJICUG_clean_linker_0, # of connection points: 2
#     Edge 46, Type (0, 0), BuildingBlock: OJICUG_clean_linker_0, # of connection points: 2
#     Edge 47, Type (0, 0), BuildingBlock: OJICUG_clean_linker_0, # of connection points: 2
#     Edge 48, Type (0, 0), BuildingBlock: OJICUG_clean_linker_0, # of connection points: 2
#     Edge 49, Type (0, 0), BuildingBlock: OJICUG_clean_linker_0, # of connection points: 2
#     Edge 50, Type (0, 0), BuildingBlock: OJICUG_clean_linker_0, # of connection points: 2
#     Edge 51, Type (0, 0), BuildingBlock: OJICUG_clean_linker_0, # of connection points: 2
#     Edge 52, Type (0, 0), BuildingBlock: OJICUG_clean_linker_0, # of connection points: 2
#     Edge 53, Type (0, 0), BuildingBlock: OJICUG_clean_linker_0, # of connection points: 2
#     Edge 54, Type (0, 0), BuildingBlock: OJICUG_clean_linker_0, # of connection points: 2
#     Edge 55, Type (0, 0), BuildingBlock: OJICUG_clean_linker_0, # of connection points: 2
# Relax obj value: 0.102
# Max RMSD: 0.129
# Mean RMSD: 0.129
data_MOF--net-vbj--node1-BEQFEK_clean_sbu_0--edge1-OJICUG_clean_linker_0
_symmetry_space_group_name_H-M    P1
_symmetry_Int_Tables_number       1
_symmetry_cell_setting            triclinic
loop_
_symmetry_equiv_pos_as_xyz
'x, y, z'
_cell_length_a     19.488674
_cell_length_b     57.276041
_cell_length_c     33.685325
_cell_angle_alpha  90.225711
_cell_angle_beta   89.934246
_cell_angle_gamma 90.006219
loop_
_atom_site_label
_atom_site_type_symbol
_atom_site_fract_x
_atom_site_fract_y
_atom_site_fract_z
_atom_type_partial_charge
Co0 Co 0.05047 0.178 0.09465 0.0
Co1 Co 0.0655 0.12346 0.07813 0.0
C2 C 0.00471 0.14235 0.15337 0.0
O3 O 0.01341 0.16332 0.14221 0.0
O4 O 0.02297 0.12511 0.13181 0.0
C5 C 0.98628 0.21983 0.11335 0.0
O6 O 0.94043 0.20427 0.12411 0.0
C7 C 0.13673 0.07816 0.08814 0.0
C8 C 0.10824 0.05995 0.03269 0.0
C9 C 0.14934 0.058 0.06609 0.0
N10 N 0.09139 0.09148 0.06822 0.0
N11 N 0.07339 0.08017 0.03558 0.0
C12 C 0.17287 0.08595 0.12504 0.0
H13 H 0.16454 0.10487 0.13037 0.0
H14 H 0.22862 0.08217 0.12279 0.0
H15 H 0.1522 0.0761 0.15071 0.0
C16 C 0.19936 0.17623 0.07729 0.0
N17 N 0.13853 0.1658 0.08378 0.0
N18 N 0.14356 0.14343 0.07484 0.0
C19 C 0.2069 0.13916 0.06072 0.0
C20 C 0.245 0.15959 0.06287 0.0
C21 C 0.21132 0.20187 0.08203 0.0
H22 H 0.18436 0.20835 0.10894 0.0
H23 H 0.26696 0.20583 0.0842 0.0
H24 H 0.18964 0.2111 0.056 0.0
O25 O 0.99016 0.17118 0.05002 0.0
O26 O -0.00141 0.13323 0.03699 0.0
H27 H 0.26303 0.12172 0.01349 0.0
H28 H 0.24907 0.10465 0.05731 0.0
C29 C 0.2256 0.11772 0.03733 0.0
H30 H 0.17961 0.11022 0.02296 0.0
H31 H 0.04021 0.08686 0.01416 0.0
O32 O 0.0442 0.21275 0.10037 0.0
C33 C 0.97391 0.15336 0.0296 0.0
Co34 Co 0.41712 0.86434 0.09631 0.0
Co35 Co 0.42517 0.91981 0.09298 0.0
C36 C 0.4188 0.8938 0.16961 0.0
O37 O 0.41539 0.87433 0.1516 0.0
O38 O 0.42335 0.91295 0.15075 0.0
C39 C 0.45346 0.81992 0.12055 0.0
O40 O 0.48626 0.83344 0.14574 0.0
C41 C 0.3569 0.96559 0.09867 0.0
C42 C 0.4225 0.9875 0.06053 0.0
C43 C 0.36162 0.98771 0.08193 0.0
N44 N 0.41171 0.95292 0.08709 0.0
N45 N 0.45154 0.96634 0.06509 0.0
C46 C 0.29739 0.95565 0.12104 0.0
H47 H 0.30058 0.93632 0.12206 0.0
H48 H 0.2483 0.96106 0.10716 0.0
H49 H 0.29815 0.96251 0.15188 0.0
C50 C 0.29643 0.87306 0.04523 0.0
N51 N 0.34887 0.88044 0.06796 0.0
N52 N 0.35547 0.90325 0.06436 0.0
C53 C 0.30951 0.91089 0.03759 0.0
C54 C 0.26958 0.8922 0.0253 0.0
C55 C 0.27337 0.84819 0.04288 0.0
H56 H 0.285 0.83906 0.07107 0.0
H57 H 0.21754 0.84714 0.03665 0.0
H58 H 0.30158 0.83926 0.01855 0.0
O59 O 0.50536 0.87189 0.07182 0.0
O60 O 0.51558 0.91061 0.0707 0.0
H61 H 0.29112 0.934 0.9881 0.0
H62 H 0.27891 0.94681 0.03629 0.0
C63 C 0.31128 0.93459 0.01889 0.0
H64 H 0.36456 0.94124 0.01782 0.0
H65 H 0.49654 0.96065 0.05131 0.0
O66 O 0.4143 0.82932 0.09481 0.0
C67 C 0.53892 0.89023 0.06343 0.0
Co68 Co 0.54474 0.85059 0.39136 0.0
Co69 Co 0.55431 0.90514 0.4071 0.0
C70 C 0.49379 0.88511 0.33265 0.0
O71 O 0.50413 0.86422 0.3438 0.0
O72 O 0.51143 0.9025 0.35396 0.0
C73 C 0.53108 0.80497 0.35497 0.0
O74 O 0.52751 0.81672 0.32163 0.0
C75 C 0.62449 0.9501 0.39512 0.0
C76 C 0.59085 0.96998 0.4479 0.0
C77 C 0.63515 0.97091 0.41565 0.0
N78 N 0.57751 0.93739 0.41495 0.0
N79 N 0.55634 0.94967 0.44588 0.0
C80 C 0.66359 0.94116 0.35995 0.0
H81 H 0.65406 0.92224 0.35538 0.0
H82 H 0.71934 0.9444 0.3638 0.0
H83 H 0.64647 0.95061 0.33305 0.0
C84 C 0.69368 0.8543 0.40791 0.0
N85 N 0.63177 0.86394 0.40137 0.0
N86 N 0.6342 0.88629 0.41067 0.0
C87 C 0.69663 0.8913 0.42533 0.0
C88 C 0.73714 0.87144 0.42295 0.0
C89 C 0.70862 0.82887 0.4027 0.0
H90 H 0.68313 0.82227 0.37543 0.0
H91 H 0.7647 0.82565 0.40084 0.0
H92 H 0.68728 0.81915 0.42834 0.0
O93 O 0.48413 0.857 0.43638 0.0
O94 O 0.48927 0.8951 0.44887 0.0
H95 H 0.74684 0.9085 0.47481 0.0
H96 H 0.7374 0.92594 0.43107 0.0
C97 C 0.71195 0.91264 0.44981 0.0
H98 H 0.66426 0.91992 0.46267 0.0
H99 H 0.52132 0.9436 0.46691 0.0
O100 O 0.54366 0.81581 0.38718 0.0
C101 C 0.46656 0.87476 0.45667 0.0
Co102 Co 0.92132 0.16182 0.39087 0.0
Co103 Co 0.91921 0.10636 0.39154 0.0
C104 C 0.92558 0.13292 0.31617 0.0
O105 O 0.92449 0.1522 0.33503 0.0
O106 O 0.92401 0.11341 0.3341 0.0
C107 C 0.90698 0.20977 0.36497 0.0
O108 O 0.88072 0.20054 0.33262 0.0
C109 C 0.85698 0.05943 0.38228 0.0
C110 C 0.90711 0.0407 0.4315 0.0
C111 C 0.85557 0.03854 0.40334 0.0
N112 N 0.90519 0.07342 0.39843 0.0
N113 N 0.93645 0.06176 0.42691 0.0
C114 C 0.80797 0.0672 0.35078 0.0
H115 H 0.80975 0.08646 0.34734 0.0
H116 H 0.75488 0.06162 0.35801 0.0
H117 H 0.82267 0.05896 0.32215 0.0
C118 C 0.80127 0.15518 0.44241 0.0
N119 N 0.8497 0.14673 0.41783 0.0
N120 N 0.84781 0.1237 0.41802 0.0
C121 C 0.79704 0.11683 0.44262 0.0
C122 C 0.76646 0.13649 0.45909 0.0
C123 C 0.79385 0.18053 0.45247 0.0
H124 H 0.84529 0.18839 0.45688 0.0
H125 H 0.76907 0.18961 0.42723 0.0
H126 H 0.76271 0.18322 0.47969 0.0
O127 O 0.0054 0.15327 0.41729 0.0
O128 O 0.00863 0.11445 0.41707 0.0
H129 H 0.82097 0.08212 0.46164 0.0
H130 H 0.73236 0.09006 0.46951 0.0
C131 C 0.77687 0.09193 0.4494 0.0
H132 H 0.7615 0.0841 0.42082 0.0
H133 H 0.97462 0.06879 0.44508 0.0
O134 O 0.92171 0.1966 0.39404 0.0
C135 C 0.03467 0.13421 0.42592 0.0
Co136 Co 0.92719 0.86517 0.88746 0.0
Co137 Co 0.91297 0.92036 0.89058 0.0
C138 C 0.9177 0.89502 0.81409 0.0
O139 O 0.92076 0.87573 0.83246 0.0
O140 O 0.9158 0.91444 0.83256 0.0
C141 C 0.96907 0.82155 0.85963 0.0
O142 O -0.00152 0.83557 0.83397 0.0
C143 C 0.84791 0.96725 0.88499 0.0
C144 C 0.89447 0.98446 0.93717 0.0
C145 C 0.84499 0.98747 0.90808 0.0
N146 N 0.89514 0.95281 0.90078 0.0
N147 N 0.92413 0.96357 0.93118 0.0
C148 C 0.80138 0.9605 0.85151 0.0
H149 H 0.80395 0.94142 0.84585 0.0
H150 H 0.74769 0.96565 0.85823 0.0
H151 H 0.81773 0.9698 0.82426 0.0
C152 C 0.81081 0.86889 0.94373 0.0
N153 N 0.85539 0.87832 0.91779 0.0
N154 N 0.84688 0.90117 0.9171 0.0
C155 C 0.79542 0.90688 0.94203 0.0
C156 C 0.77175 0.88674 0.96023 0.0
C157 C 0.80992 0.84359 0.95455 0.0
H158 H 0.86287 0.8365 0.95416 0.0
H159 H 0.77931 0.83386 0.93219 0.0
H160 H 0.78682 0.8409 0.98431 0.0
O161 O 0.01403 0.87503 0.91042 0.0
O162 O 0.00378 0.9136 0.91482 0.0
H163 H 0.80485 0.94223 0.96226 0.0
H164 H 0.71786 0.93131 0.96331 0.0
C165 C 0.76697 0.93101 0.94677 0.0
H166 H 0.75639 0.93826 0.91715 0.0
H167 H 0.96129 0.95605 0.94938 0.0
O168 O 0.93112 0.83029 0.88673 0.0
C169 C 0.0374 0.89484 0.92063 0.0
Co170 Co 0.55364 0.17877 0.89368 0.0
Co171 Co 0.5587 0.12446 0.91041 0.0
C172 C 0.49958 0.1442 0.83564 0.0
O173 O 0.51176 0.1651 0.84634 0.0
O174 O 0.51571 0.12691 0.85733 0.0
C175 C 0.5461 0.22405 0.8562 0.0
O176 O 0.5434 0.21204 0.82294 0.0
C177 C 0.62396 0.07861 0.89918 0.0
C178 C 0.58741 0.05955 0.95195 0.0
C179 C 0.6318 0.05778 0.91982 0.0
N180 N 0.57849 0.09209 0.91884 0.0
N181 N 0.55557 0.08034 0.94978 0.0
C182 C 0.66409 0.08677 0.86395 0.0
H183 H 0.657 0.10578 0.85934 0.0
H184 H 0.71938 0.08273 0.86776 0.0
H185 H 0.64564 0.07745 0.83708 0.0
C186 C 0.7021 0.1739 0.9103 0.0
N187 N 0.63956 0.16471 0.90382 0.0
N188 N 0.64033 0.14244 0.91346 0.0
C189 C 0.70234 0.13705 0.92827 0.0
C190 C 0.74423 0.15657 0.92573 0.0
C191 C 0.71887 0.19915 0.90469 0.0
H192 H 0.69451 0.20559 0.87708 0.0
H193 H 0.77519 0.20193 0.90322 0.0
H194 H 0.69753 0.20933 0.92993 0.0
O195 O 0.49257 0.17363 0.93898 0.0
O196 O 0.49526 0.13564 0.95218 0.0
H197 H 0.75136 0.11977 0.97784 0.0
H198 H 0.74045 0.10211 0.93422 0.0
C199 C 0.7161 0.11576 0.9529 0.0
H200 H 0.66789 0.10898 0.96581 0.0
H201 H 0.52108 0.08702 0.97064 0.0
O202 O 0.55588 0.2134 0.88876 0.0
C203 C 0.47414 0.15625 0.9597 0.0
Co204 Co 0.42138 0.1626 0.59867 0.0
Co205 Co 0.41818 0.10707 0.59764 0.0
C206 C 0.42136 0.13348 0.67312 0.0
O207 O 0.42098 0.15257 0.65408 0.0
O208 O 0.42103 0.11385 0.6553 0.0
C209 C 0.46222 0.20672 0.62336 0.0
O210 O 0.49481 0.19308 0.64827 0.0
C211 C 0.35671 0.05986 0.60549 0.0
C212 C 0.40612 0.0418 0.55501 0.0
C213 C 0.3552 0.03921 0.58347 0.0
N214 N 0.40431 0.07414 0.58958 0.0
N215 N 0.43518 0.06287 0.56032 0.0
C216 C 0.3083 0.06714 0.63781 0.0
H217 H 0.30983 0.08634 0.6422 0.0
H218 H 0.25514 0.06156 0.63077 0.0
H219 H 0.32376 0.05856 0.66588 0.0
C220 C 0.30263 0.15602 0.54588 0.0
N221 N 0.35049 0.14765 0.57073 0.0
N222 N 0.34776 0.12462 0.57091 0.0
C223 C 0.29689 0.11771 0.54642 0.0
C224 C 0.26732 0.13731 0.52949 0.0
C225 C 0.29553 0.18131 0.53566 0.0
H226 H 0.34693 0.18957 0.53413 0.0
H227 H 0.26585 0.19022 0.55941 0.0
H228 H 0.2687 0.18366 0.50691 0.0
O229 O 0.50625 0.15401 0.57273 0.0
O230 O 0.50834 0.11516 0.57285 0.0
H231 H 0.31762 0.08267 0.52741 0.0
H232 H 0.22896 0.09108 0.52165 0.0
C233 C 0.27497 0.09287 0.5406 0.0
H234 H 0.26121 0.08546 0.56966 0.0
H235 H 0.47283 0.07018 0.54216 0.0
O236 O 0.42173 0.19754 0.598 0.0
C237 C 0.53512 0.13481 0.56419 0.0
Co238 Co 0.04425 0.8512 0.59175 0.0
Co239 Co 0.05384 0.90568 0.57658 0.0
C240 C -0.00696 0.88561 0.65095 0.0
O241 O 0.00369 0.8647 0.63965 0.0
O242 O 0.01049 0.90297 0.62972 0.0
C243 C 0.02924 0.80527 0.62618 0.0
O244 O 0.02365 0.81663 0.65997 0.0
C245 C 0.12446 0.95052 0.58944 0.0
C246 C 0.09109 0.97062 0.53715 0.0
C247 C 0.13534 0.9714 0.56939 0.0
N248 N 0.0774 0.93793 0.56936 0.0
N249 N 0.05642 0.95033 0.53871 0.0
C250 C 0.16335 0.94143 0.6244 0.0
H251 H 0.15365 0.92251 0.62853 0.0
H252 H 0.21915 0.94463 0.62062 0.0
H253 H 0.1462 0.9508 0.65153 0.0
C254 C 0.19301 0.85478 0.57519 0.0
N255 N 0.13121 0.8645 0.58188 0.0
N256 N 0.13378 0.88682 0.57274 0.0
C257 C 0.19627 0.89174 0.55805 0.0
C258 C 0.23659 0.87182 0.56019 0.0
C259 C 0.20773 0.82935 0.58028 0.0
H260 H 0.18216 0.82286 0.60754 0.0
H261 H 0.26378 0.82608 0.58208 0.0
H262 H 0.18635 0.81957 0.55462 0.0
O263 O 0.98378 0.85768 0.54696 0.0
O264 O 0.98899 0.89572 0.53451 0.0
H265 H 0.16429 0.92044 0.5212 0.0
H266 H 0.24678 0.90889 0.5088 0.0
C267 C 0.21188 0.91307 0.53388 0.0
H268 H 0.23745 0.92632 0.55281 0.0
H269 H 0.02139 0.94437 0.51757 0.0
O270 O 0.04337 0.81646 0.59469 0.0
C271 C 0.96627 0.87534 0.52669 0.0
Co272 Co 0.54474 0.67628 0.08698 0.0
Co273 Co 0.55782 0.62163 0.07118 0.0
C274 C 0.49542 0.64128 0.14562 0.0
O275 O 0.50468 0.66221 0.13431 0.0
O276 O 0.51423 0.62392 0.12447 0.0
C277 C 0.52567 0.7219 0.12276 0.0
O278 O 0.51959 0.71012 0.15595 0.0
C279 C 0.62878 0.57651 0.08261 0.0
C280 C 0.60035 0.55765 0.02779 0.0
C281 C 0.64169 0.55616 0.06117 0.0
N282 N 0.58307 0.5895 0.06237 0.0
N283 N 0.56504 0.5778 0.03014 0.0
C284 C 0.66519 0.5848 0.11911 0.0
H285 H 0.6556 0.60368 0.12425 0.0
H286 H 0.72113 0.58149 0.11647 0.0
H287 H 0.64592 0.57491 0.14508 0.0
C288 C 0.69373 0.67367 0.07096 0.0
N289 N 0.63244 0.66351 0.07719 0.0
N290 N 0.63664 0.64115 0.06809 0.0
C291 C 0.69986 0.63663 0.05401 0.0
C292 C 0.73877 0.65688 0.0564 0.0
C293 C 0.70667 0.69924 0.07604 0.0
H294 H 0.68057 0.70564 0.10328 0.0
H295 H 0.76247 0.70298 0.07788 0.0
H296 H 0.68464 0.70871 0.05036 0.0
O297 O 0.48518 0.66944 0.04199 0.0
O298 O 0.49215 0.63139 0.02943 0.0
H299 H 0.67119 0.60779 0.01631 0.0
H300 H 0.75441 0.61928 0.00611 0.0
C301 C 0.71766 0.61523 0.03027 0.0
H302 H 0.74166 0.60208 0.04991 0.0
H303 H 0.53172 0.58421 0.00854 0.0
O304 O 0.54154 0.71112 0.09096 0.0
C305 C 0.46847 0.65161 0.02168 0.0
Co306 Co 0.91937 0.36497 0.08809 0.0
Co307 Co 0.92645 0.42044 0.0868 0.0
C308 C 0.9263 0.39315 0.16246 0.0
O309 O 0.92287 0.37382 0.14394 0.0
O310 O 0.92802 0.41256 0.14416 0.0
C311 C 0.90306 0.3169 0.11254 0.0
O312 O 0.87859 0.32611 0.14539 0.0
C313 C 0.85616 0.46576 0.09428 0.0
C314 C 0.92054 0.48841 0.0567 0.0
C315 C 0.85956 0.48801 0.07798 0.0
N316 N 0.91177 0.45357 0.0825 0.0
N317 N 0.9509 0.46744 0.0609 0.0
C318 C 0.79707 0.45524 0.11626 0.0
H319 H 0.8021 0.43596 0.11758 0.0
H320 H 0.74786 0.46004 0.10188 0.0
H321 H 0.79629 0.46226 0.147 0.0
C322 C 0.79616 0.37412 0.03969 0.0
N323 N 0.84912 0.38138 0.06209 0.0
N324 N 0.85563 0.4042 0.05879 0.0
C325 C 0.80909 0.41199 0.03248 0.0
C326 C 0.76892 0.39334 0.0202 0.0
C327 C 0.77351 0.34922 0.03688 0.0
H328 H 0.78412 0.34008 0.06519 0.0
H329 H 0.71795 0.34807 0.02994 0.0
H330 H 0.80289 0.34036 0.01294 0.0
O331 O 0.00575 0.37313 0.06218 0.0
O332 O 0.01581 0.41185 0.06259 0.0
H333 H 0.79138 0.43506 0.98288 0.0
H334 H 0.77808 0.44786 0.03094 0.0
C335 C 0.81097 0.43569 0.01378 0.0
H336 H 0.86418 0.44243 0.01304 0.0
H337 H -0.00382 0.46215 0.04696 0.0
O338 O 0.91707 0.33016 0.08341 0.0
C339 C 0.03879 0.3916 0.05402 0.0
Co340 Co 0.05128 0.34874 0.38409 0.0
Co341 Co 0.06283 0.4032 0.40057 0.0
C342 C 0.00411 0.38399 0.32526 0.0
O343 O 0.01396 0.36308 0.33631 0.0
O344 O 0.02106 0.40128 0.34697 0.0
C345 C 0.98943 0.30684 0.36468 0.0
O346 O 0.9432 0.3223 0.3541 0.0
C347 C 0.1334 0.44835 0.39029 0.0
C348 C 0.09897 0.46761 0.44358 0.0
C349 C 0.1434 0.46901 0.41145 0.0
N350 N 0.08663 0.43531 0.40964 0.0
N351 N 0.06508 0.4472 0.44093 0.0
C352 C 0.17261 0.43991 0.35481 0.0
H353 H 0.16449 0.42092 0.35012 0.0
H354 H 0.22816 0.44364 0.35838 0.0
H355 H 0.15423 0.44929 0.3281 0.0
C356 C 0.20015 0.35158 0.402 0.0
N357 N 0.13869 0.3615 0.39523 0.0
N358 N 0.14197 0.38388 0.40438 0.0
C359 C 0.20453 0.38863 0.4191 0.0
C360 C 0.24423 0.36857 0.41691 0.0
C361 C 0.21411 0.32607 0.39707 0.0
H362 H 0.18753 0.31939 0.37021 0.0
H363 H 0.27004 0.32265 0.39472 0.0
H364 H 0.19335 0.3166 0.42313 0.0
O365 O 0.98988 0.35513 0.42871 0.0
O366 O -0.00354 0.39314 0.44167 0.0
H367 H 0.25609 0.40583 0.46812 0.0
H368 H 0.24599 0.42319 0.42435 0.0
C369 C 0.22074 0.40998 0.44335 0.0
H370 H 0.17346 0.41736 0.45651 0.0
H371 H 0.02996 0.44085 0.46165 0.0
O372 O 0.04691 0.31404 0.37804 0.0
C373 C 0.97274 0.37288 0.44911 0.0
Co374 Co 0.41808 0.66305 0.38206 0.0
Co375 Co 0.41635 0.60755 0.38505 0.0
C376 C 0.41821 0.63267 0.3086 0.0
O377 O 0.41723 0.65212 0.32686 0.0
O378 O 0.41876 0.61338 0.3272 0.0
C379 C 0.45691 0.70713 0.35595 0.0
O380 O 0.48904 0.69338 0.33076 0.0
C381 C 0.35708 0.55994 0.37806 0.0
C382 C 0.40647 0.54267 0.42905 0.0
C383 C 0.3565 0.53944 0.40024 0.0
N384 N 0.40338 0.57471 0.39411 0.0
N385 N 0.43417 0.56393 0.42375 0.0
C386 C 0.30892 0.56661 0.3454 0.0
H387 H 0.30919 0.58579 0.34091 0.0
H388 H 0.25601 0.56066 0.3522 0.0
H389 H 0.32561 0.55798 0.31747 0.0
C390 C 0.3003 0.65691 0.43599 0.0
N391 N 0.34802 0.64832 0.41107 0.0
N392 N 0.34562 0.62529 0.41143 0.0
C393 C 0.29495 0.61859 0.43621 0.0
C394 C 0.26525 0.63834 0.45292 0.0
C395 C 0.29313 0.6823 0.44578 0.0
H396 H 0.34439 0.69071 0.44629 0.0
H397 H 0.26212 0.69085 0.42237 0.0
H398 H 0.26761 0.68493 0.47492 0.0
O399 O 0.50375 0.65516 0.40758 0.0
O400 O 0.50658 0.61633 0.40906 0.0
H401 H 0.31538 0.58387 0.45645 0.0
H402 H 0.22625 0.59219 0.4606 0.0
C403 C 0.2732 0.59379 0.44233 0.0
H404 H 0.26118 0.58592 0.41326 0.0
H405 H 0.47101 0.57166 0.44201 0.0
O406 O 0.41748 0.69801 0.38187 0.0
C407 C 0.53318 0.63619 0.41668 0.0
Co408 Co 0.42974 0.36597 0.88057 0.0
Co409 Co 0.41579 0.42117 0.8823 0.0
C410 C 0.42206 0.39507 0.80643 0.0
O411 O 0.42457 0.37589 0.8252 0.0
O412 O 0.41989 0.41462 0.8245 0.0
C413 C 0.47314 0.32196 0.85532 0.0
O414 O 0.50299 0.33555 0.82915 0.0
C415 C 0.34991 0.46781 0.8753 0.0
C416 C 0.39622 0.48565 0.92695 0.0
C417 C 0.34637 0.48819 0.89794 0.0
N418 N 0.39774 0.4537 0.89134 0.0
N419 N 0.42665 0.46485 0.92136 0.0
C420 C 0.3034 0.46059 0.8421 0.0
H421 H 0.30673 0.44149 0.83683 0.0
H422 H 0.24954 0.46553 0.84882 0.0
H423 H 0.31914 0.46978 0.81462 0.0
C424 C 0.31177 0.37014 0.93548 0.0
N425 N 0.35725 0.3794 0.90992 0.0
N426 N 0.34911 0.40226 0.9089 0.0
C427 C 0.29716 0.40815 0.93338 0.0
C428 C 0.27261 0.38811 0.95146 0.0
C429 C 0.3101 0.34487 0.94649 0.0
H430 H 0.36309 0.33785 0.94775 0.0
H431 H 0.28175 0.33504 0.92328 0.0
H432 H 0.28441 0.3422 0.97554 0.0
O433 O 0.516 0.37612 0.90384 0.0
O434 O 0.50595 0.41472 0.90743 0.0
H435 H 0.30791 0.44364 0.95268 0.0
H436 H 0.22079 0.43295 0.95503 0.0
C437 C 0.26929 0.43238 0.93793 0.0
H438 H 0.2577 0.4394 0.90829 0.0
H439 H 0.46413 0.45763 0.93969 0.0
O440 O 0.43406 0.33113 0.88145 0.0
C441 C 0.5393 0.39598 0.91382 0.0
Co442 Co 0.04701 0.67726 0.88734 0.0
Co443 Co 0.05257 0.62284 0.90261 0.0
C444 C -0.00648 0.6433 0.82823 0.0
O445 O 0.00548 0.66414 0.83942 0.0
O446 O 0.00967 0.62586 0.84958 0.0
C447 C 0.03748 0.72333 0.85264 0.0
O448 O 0.03209 0.71206 0.81876 0.0
C449 C 0.11909 0.57738 0.89005 0.0
C450 C 0.08293 0.55763 0.94217 0.0
C451 C 0.12766 0.55639 0.91012 0.0
N452 N 0.07292 0.59044 0.90995 0.0
N453 N 0.05019 0.57827 0.94047 0.0
C454 C 0.15929 0.58608 0.85523 0.0
H455 H 0.15107 0.60506 0.85095 0.0
H456 H 0.21476 0.58242 0.85929 0.0
H457 H 0.14195 0.5768 0.82807 0.0
C458 C 0.19558 0.67238 0.90348 0.0
N459 N 0.13303 0.6632 0.89705 0.0
N460 N 0.13396 0.64088 0.9063 0.0
C461 C 0.19607 0.63544 0.92092 0.0
C462 C 0.23789 0.655 0.91857 0.0
C463 C 0.21226 0.69765 0.89801 0.0
H464 H 0.18728 0.7042 0.87065 0.0
H465 H 0.26854 0.70042 0.89613 0.0
H466 H 0.19153 0.70775 0.92352 0.0
O467 O 0.98586 0.67146 0.93236 0.0
O468 O 0.98894 0.63339 0.9447 0.0
H469 H 0.24486 0.61802 0.97038 0.0
H470 H 0.23502 0.60058 0.92642 0.0
C471 C 0.21003 0.61404 0.94522 0.0
H472 H 0.16183 0.60702 0.95778 0.0
H473 H 0.01533 0.58459 0.96145 0.0
O474 O 0.04929 0.71196 0.88424 0.0
C475 C 0.96754 0.6539 0.95266 0.0
Co476 Co 0.91806 0.66364 0.59171 0.0
Co477 Co 0.91497 0.60813 0.58905 0.0
C478 C 0.91683 0.63365 0.66529 0.0
O479 O 0.91666 0.6529 0.64672 0.0
O480 O 0.91694 0.61418 0.64698 0.0
C481 C 0.95742 0.70737 0.61896 0.0
O482 O 0.98993 0.69332 0.64325 0.0
C483 C 0.85492 0.56055 0.59547 0.0
C484 C 0.90415 0.5433 0.54412 0.0
C485 C 0.85401 0.54011 0.57286 0.0
N486 N 0.90152 0.57527 0.57968 0.0
N487 N 0.93221 0.56449 0.54983 0.0
C488 C 0.80687 0.56722 0.62833 0.0
H489 H 0.80757 0.58638 0.6333 0.0
H490 H 0.75384 0.56143 0.62144 0.0
H491 H 0.82332 0.55844 0.65604 0.0
C492 C 0.80055 0.65754 0.53772 0.0
N493 N 0.84781 0.64897 0.56277 0.0
N494 N 0.84476 0.62595 0.56261 0.0
C495 C 0.79405 0.61924 0.53785 0.0
C496 C 0.76513 0.63896 0.52091 0.0
C497 C 0.79417 0.68288 0.52771 0.0
H498 H 0.84555 0.69121 0.52777 0.0
H499 H 0.76233 0.69163 0.55068 0.0
H500 H 0.76979 0.68534 0.49827 0.0
O501 O 0.00357 0.6555 0.56606 0.0
O502 O 0.00559 0.61665 0.56503 0.0
H503 H 0.81308 0.58431 0.51771 0.0
H504 H 0.72418 0.59295 0.514 0.0
C505 C 0.77141 0.59448 0.532 0.0
H506 H 0.75947 0.58687 0.56119 0.0
H507 H 0.96921 0.57219 0.53169 0.0
O508 O 0.9178 0.69859 0.59274 0.0
C509 C 0.03261 0.63638 0.55714 0.0
Co510 Co 0.55174 0.34954 0.58582 0.0
Co511 Co 0.5609 0.40392 0.56914 0.0
C512 C 0.49985 0.38461 0.64386 0.0
O513 O 0.51072 0.36364 0.63307 0.0
O514 O 0.51739 0.40181 0.62229 0.0
C515 C 0.53837 0.30435 0.623 0.0
O516 O 0.53511 0.31642 0.65618 0.0
C517 C 0.63023 0.44921 0.5805 0.0
C518 C 0.59619 0.46855 0.52752 0.0
C519 C 0.64024 0.46993 0.55981 0.0
N520 N 0.58384 0.43615 0.56075 0.0
N521 N 0.56251 0.44808 0.52966 0.0
C522 C 0.66918 0.44072 0.61588 0.0
H523 H 0.66073 0.42176 0.6204 0.0
H524 H 0.7248 0.44434 0.61231 0.0
H525 H 0.6509 0.45016 0.64269 0.0
C526 C 0.70041 0.3531 0.56884 0.0
N527 N 0.63863 0.36284 0.57555 0.0
N528 N 0.64106 0.38511 0.56601 0.0
C529 C 0.70346 0.38998 0.55112 0.0
C530 C 0.74383 0.37008 0.55347 0.0
C531 C 0.71518 0.32768 0.57406 0.0
H532 H 0.69019 0.3213 0.60157 0.0
H533 H 0.77126 0.3244 0.57547 0.0
H534 H 0.6932 0.31783 0.54865 0.0
O535 O 0.49143 0.35534 0.54068 0.0
O536 O 0.49626 0.39329 0.52738 0.0
H537 H 0.75416 0.40694 0.50172 0.0
H538 H 0.74383 0.42463 0.54536 0.0
C539 C 0.71886 0.41117 0.52658 0.0
H540 H 0.67125 0.4183 0.51354 0.0
H541 H 0.52777 0.44172 0.50869 0.0
O542 O 0.5508 0.31486 0.59059 0.0
C543 C 0.47384 0.37282 0.51999 0.0
C544 C 0.37581 0.17839 0.98817 0.0
C545 C 0.42331 0.16002 -0.0087 0.0
H546 H 0.28073 0.19261 0.0087 0.0
C547 C 0.41849 0.14447 0.0232 0.0
H548 H 0.37869 0.19072 0.9639 0.0
C549 C 0.36388 0.1462 0.0498 0.0
C550 C 0.31237 0.16299 0.04401 0.0
H551 H 0.45525 0.13043 0.02664 0.0
H552 H 0.35878 0.1332 0.07291 0.0
C553 C 0.32021 0.17972 0.01414 0.0
C554 C 0.14854 0.87714 0.94138 0.0
C555 C 0.10074 0.89546 0.94421 0.0
H556 H 0.24078 0.86204 0.9643 0.0
C557 C 0.10984 0.91287 0.97308 0.0
H558 H 0.14253 0.86348 0.91932 0.0
C559 C 0.16443 0.91154 -0.0004 0.0
C560 C 0.21182 0.89312 -0.00289 0.0
H561 H 0.07307 0.92694 0.97638 0.0
H562 H 0.16873 0.92471 0.02262 0.0
C563 C 0.20408 0.87611 0.96743 0.0
C564 C 0.81374 0.85162 0.47125 0.0
C565 C 0.80435 0.86881 0.44231 0.0
H566 H 0.87315 0.84023 0.52068 0.0
C567 C 0.8539 0.88643 0.43776 0.0
H568 H 0.77573 0.83812 0.47585 0.0
C569 C 0.90832 0.88824 0.46443 0.0
C570 C 0.91489 0.87202 0.49525 0.0
H571 H 0.84761 0.89979 0.41538 0.0
H572 H 0.94371 0.90274 0.46181 0.0
C573 C 0.86906 0.85308 0.49729 0.0
C574 C 0.71067 0.12283 0.52181 0.0
C575 C 0.70984 0.13721 0.48806 0.0
H576 H 0.65408 0.11007 0.57203 0.0
C577 C 0.65304 0.15154 0.48098 0.0
H578 H 0.75497 0.11211 0.5284 0.0
C579 C 0.59705 0.15104 0.50662 0.0
C580 C 0.59636 0.13577 0.53913 0.0
H581 H 0.65119 0.16269 0.45509 0.0
H582 H 0.55319 0.16204 0.50026 0.0
C583 C 0.65348 0.1217 0.54675 0.0
C584 C 0.66416 0.86902 0.98637 0.0
C585 C 0.71748 0.88522 -0.00938 0.0
H586 H 0.56566 0.85786 0.00683 0.0
C587 C 0.71532 0.90148 0.02199 0.0
H588 H 0.66464 0.85637 0.96239 0.0
C589 C 0.6576 0.903 0.04638 0.0
C590 C 0.60278 0.88754 0.04081 0.0
H591 H 0.75698 0.91373 0.02647 0.0
H592 H 0.65537 0.9164 0.06913 0.0
C593 C 0.6075 0.87001 0.01161 0.0
C594 C 0.82102 0.17648 0.97405 0.0
C595 C 0.8112 0.15898 0.94549 0.0
H596 H 0.88085 0.18842 0.02306 0.0
C597 C 0.86013 0.14111 0.94145 0.0
H598 H 0.78342 0.19017 0.97832 0.0
C599 C 0.91471 0.13954 0.96806 0.0
C600 C 0.92192 0.1562 -0.00162 0.0
H601 H 0.85345 0.12747 0.9194 0.0
H602 H 0.94979 0.12493 0.96572 0.0
C603 C 0.87637 0.17523 5e-05 0.0
C604 C 0.0979 0.15156 0.48225 0.0
C605 C 0.09622 0.13554 0.45059 0.0
H606 H 0.15327 0.16422 0.53273 0.0
C607 C 0.15297 0.12121 0.44319 0.0
H608 H 0.0544 0.1628 0.48839 0.0
C609 C 0.21063 0.12276 0.4676 0.0
C610 C 0.2107 0.13786 0.50064 0.0
H611 H 0.15288 0.10903 0.4185 0.0
H612 H 0.25452 0.11175 0.46128 0.0
C613 C 0.15443 0.15252 0.50738 0.0
C614 C 0.35361 0.88655 0.54536 0.0
C615 C 0.30377 0.86903 0.54074 0.0
H616 H 0.44405 0.90249 0.5215 0.0
C617 C 0.31308 0.85166 0.51184 0.0
H618 H 0.34741 0.90004 0.56771 0.0
C619 C 0.36873 0.85283 0.48594 0.0
C620 C 0.41495 0.87165 0.48806 0.0
H621 H 0.27483 0.83823 0.50718 0.0
H622 H 0.37279 0.83986 0.46256 0.0
C623 C 0.40839 0.88806 0.51882 0.0
C624 C 0.81406 0.67711 0.00782 0.0
C625 C 0.80599 0.66012 0.03728 0.0
H626 H 0.87257 0.68845 0.95786 0.0
C627 C 0.85705 0.64311 0.04245 0.0
H628 H 0.77489 0.69016 0.0028 0.0
C629 C 0.91153 0.6415 0.01574 0.0
C630 C 0.91664 0.65738 0.98431 0.0
H631 H 0.85177 0.62992 0.06523 0.0
H632 H 0.948 0.62734 0.01874 0.0
C633 C 0.86951 0.67589 0.98175 0.0
C634 C 0.66417 0.41266 -0.00609 0.0
C635 C 0.71178 0.39429 -0.00836 0.0
H636 H 0.57318 0.428 0.97008 0.0
C637 C 0.70505 0.3774 0.96167 0.0
H638 H 0.66782 0.42575 0.01709 0.0
C639 C 0.65018 0.37845 0.93519 0.0
C640 C 0.60208 0.39667 0.93783 0.0
H641 H 0.74205 0.36341 0.95865 0.0
H642 H 0.64488 0.36486 0.91293 0.0
C643 C 0.61023 0.414 0.96694 0.0
C644 C 0.36161 0.38322 0.4308 0.0
C645 C 0.31166 0.36579 0.43594 0.0
H646 H 0.45182 0.39955 0.45429 0.0
C647 C 0.32093 0.34881 0.46524 0.0
H648 H 0.35543 0.39641 0.40812 0.0
C649 C 0.37643 0.35037 0.49115 0.0
C650 C 0.42254 0.36921 0.48858 0.0
H651 H 0.28264 0.33544 0.47024 0.0
H652 H 0.3804 0.33774 0.51488 0.0
C653 C 0.4162 0.38514 0.45733 0.0
C654 C 0.15303 0.65413 0.47567 0.0
C655 C 0.20873 0.63918 0.482 0.0
H656 H 0.05363 0.66497 0.49517 0.0
C657 C 0.20824 0.62417 0.51496 0.0
H658 H 0.15206 0.66576 0.45039 0.0
C659 C 0.15071 0.62297 0.53962 0.0
C660 C 0.09453 0.63759 0.53262 0.0
H661 H 0.25168 0.61295 0.52105 0.0
H662 H 0.15022 0.6108 0.56417 0.0
C663 C 0.09672 0.65354 0.50108 0.0
C664 C 0.21544 0.40281 0.01296 0.0
C665 C 0.21748 0.38676 0.9813 0.0
H666 H 0.15549 0.41755 0.06026 0.0
C667 C 0.1635 0.37091 0.97627 0.0
H668 H 0.25756 0.41481 0.01796 0.0
C669 C 0.10649 0.37196 0.00121 0.0
C670 C 0.10216 0.38921 0.03091 0.0
H671 H 0.16395 0.35843 0.95202 0.0
H672 H 0.0643 0.36001 -0.004 0.0
C673 C 0.15742 0.4044 0.03709 0.0
C674 C 0.35384 0.6394 0.9339 0.0
C675 C 0.30512 0.65733 0.93806 0.0
H676 H 0.4436 0.62314 0.95792 0.0
C677 C 0.31556 0.6749 0.96644 0.0
H678 H 0.34676 0.62573 0.91195 0.0
C679 C 0.37127 0.67365 -0.00783 0.0
C680 C 0.41654 0.65454 -0.00955 0.0
H681 H 0.27817 0.68864 0.97082 0.0
H682 H 0.37616 0.68687 0.01507 0.0
C683 C 0.40875 0.63782 0.96028 0.0
C684 C 0.65121 0.62297 0.43429 0.0
C685 C 0.59517 0.63774 0.441 0.0
H686 H 0.75188 0.61298 0.45313 0.0
C687 C 0.59747 0.6541 0.47216 0.0
H688 H 0.65065 0.61049 0.41003 0.0
C689 C 0.65366 0.65489 0.49758 0.0
C690 C 0.70909 0.63974 0.49162 0.0
H691 H 0.5545 0.66565 0.47784 0.0
H692 H 0.65271 0.6668 0.52264 0.0
C693 C 0.70862 0.62437 0.45893 0.0
C694 C 0.91517 0.38618 0.51144 0.0
C695 C 0.9211 0.36986 0.48051 0.0
H696 H 0.85503 0.39812 0.5607 0.0
C697 C 0.87461 0.35111 0.47844 0.0
H698 H 0.95107 0.40055 0.51409 0.0
C699 C 0.81938 0.34992 0.50465 0.0
C700 C 0.81073 0.36721 0.53375 0.0
H701 H 0.87823 0.33819 0.45495 0.0
H702 H 0.7809 0.33655 0.5001 0.0
C703 C 0.86079 0.38466 0.53824 0.0
C704 C 0.21752 0.03005 0.10849 0.0
C705 C 0.20413 0.04028 0.07142 0.0
H706 H 0.2779 1.00523 0.14108 0.0
C707 C 0.24327 0.03326 0.03844 0.0
H708 H 0.18772 0.03496 0.13434 0.0
C709 C 0.29491 0.01653 0.04233 0.0
C710 C 0.30778 1.00597 0.07913 0.0
H711 H 0.2344 0.04089 0.00952 0.0
H712 H 0.324 1.01151 0.01623 0.0
C713 C 0.26861 1.01289 0.11226 0.0
C714 C 0.72412 0.99682 0.4452 0.0
C715 C 0.69164 0.9881 0.41105 0.0
H716 H 0.8012 0.01919 0.4693 0.0
C717 C 0.714 0.99589 0.37364 0.0
H718 H 0.7085 0.99111 0.47447 0.0
C719 C 0.7677 1.01217 0.37063 0.0
C720 C 0.80004 0.02081 0.40498 0.0
H721 H 0.68941 0.98975 0.34679 0.0
H722 H 0.78409 0.01784 0.34151 0.0
C723 C 0.77783 1.01279 0.4422 0.0
C724 C 0.71565 0.03021 0.94962 0.0
C725 C 0.68586 0.03969 0.91536 0.0
H726 H 0.78898 1.00665 0.97397 0.0
C727 C 0.70883 0.03186 0.87799 0.0
H728 H 0.69949 0.03589 0.97889 0.0
C729 C 0.76084 0.01496 0.87512 0.0
C730 C 0.79066 1.00562 0.90958 0.0
H731 H 0.68618 0.03851 0.85101 0.0
H732 H 0.77806 1.00943 0.84602 0.0
C733 C 0.76755 1.01356 0.94678 0.0
C734 C 0.21433 0.9961 0.61207 0.0
C735 C 0.19175 0.9886 0.57444 0.0
H736 H 0.28449 0.01783 0.64477 0.0
C737 C 0.22389 0.99767 0.54052 0.0
H738 H 0.18999 0.98972 0.63878 0.0
C739 C 0.27744 1.01368 0.54393 0.0
C740 C 0.29988 0.0214 0.58137 0.0
H741 H 0.2081 0.9922 0.51109 0.0
H742 H 0.30049 0.02035 0.51698 0.0
C743 C 0.26792 1.0124 0.6155 0.0
C744 C 0.79037 0.51591 0.03796 0.0
C745 C 0.80416 0.50569 0.07493 0.0
H746 H 0.72783 0.5395 0.00479 0.0
C747 C 0.76435 0.51235 0.10794 0.0
H748 H 0.8199 0.51106 0.01194 0.0
C749 C 0.71181 0.52898 0.10392 0.0
C750 C 0.6976 0.53889 0.0667 0.0
H751 H 0.77426 0.50492 0.13686 0.0
H752 H 0.68162 0.53374 0.1297 0.0
C753 C 0.7373 0.53209 0.03381 0.0
C754 C 0.27277 0.51169 0.36708 0.0
C755 C 0.30318 0.52091 0.4016 0.0
H756 H 0.19756 0.48824 0.34281 0.0
C757 C 0.28112 0.51266 0.43871 0.0
H758 H 0.28921 0.51744 0.33803 0.0
C759 C 0.22927 0.49598 0.44142 0.0
C760 C 0.19851 0.48675 0.40711 0.0
H761 H 0.30306 0.51945 0.46594 0.0
H762 H 0.21363 0.49015 0.47063 0.0
C763 C 0.22087 0.49473 0.36981 0.0
C764 C 0.2669 0.51343 0.93681 0.0
C765 C 0.29068 0.50583 0.89955 0.0
H766 H 0.19694 0.535 0.96906 0.0
C767 C 0.26008 0.51493 0.86515 0.0
H768 H 0.28888 0.50666 0.96395 0.0
C769 C 0.20668 0.53132 0.86812 0.0
C770 C 0.18304 0.53881 0.90555 0.0
H771 H 0.27774 0.50961 0.83602 0.0
H772 H 0.18349 0.53783 0.8412 0.0
C773 C 0.21359 0.52954 0.93976 0.0
C774 C 0.76945 0.51243 0.60531 0.0
C775 C 0.80028 0.52171 0.57104 0.0
H776 H 0.69382 0.48901 0.62895 0.0
C777 C 0.77835 0.51362 0.53372 0.0
H778 H 0.78574 0.51808 0.6345 0.0
C779 C 0.72635 0.49701 0.53056 0.0
C780 C 0.69526 0.48769 0.56462 0.0
H781 H 0.80058 0.52046 0.50666 0.0
H782 H 0.7109 0.49129 0.5012 0.0
C783 C 0.71739 0.49555 0.60212 0.0
C784 C 0.97513 0.28397 0.08589 0.0
C785 C 0.92302 0.29192 0.11159 0.0
H786 H 0.03762 0.25506 0.06706 0.0
C787 C 0.89354 0.27611 0.13839 0.0
H788 H -0.0005 0.29582 0.06523 0.0
C789 C 0.91489 0.25281 0.13914 0.0
C790 C 0.96736 0.24488 0.11375 0.0
H791 H 0.85365 0.28172 0.15873 0.0
H792 H 0.89046 0.24098 0.15983 0.0
C793 C -0.00239 0.26073 0.08726 0.0
C794 C 0.48931 0.78388 0.15633 0.0
C795 C 0.46743 0.79451 0.12098 0.0
H796 H 0.52445 0.75267 0.18463 0.0
C797 C 0.46494 0.7811 0.08602 0.0
H798 H 0.4919 0.7938 0.18375 0.0
C799 C 0.48545 0.75762 0.08633 0.0
C800 C 0.50736 0.74702 0.12178 0.0
H801 H 0.44901 0.7889 0.05828 0.0
H802 H 0.48338 0.7477 0.05891 0.0
C803 C 0.50826 0.76035 0.15683 0.0
C804 C 0.4886 0.76931 0.39059 0.0
C805 C 0.51286 0.77985 0.35558 0.0
H806 H 0.44982 0.73817 0.41795 0.0
C807 C 0.51593 0.76649 0.3206 0.0
H808 H 0.48484 0.77925 0.41793 0.0
C809 C 0.49656 0.74298 0.32075 0.0
C810 C 0.47217 0.73244 0.35567 0.0
H811 H 0.53394 0.77413 0.29312 0.0
H812 H 0.50065 0.73304 0.29343 0.0
C813 C 0.46775 0.74589 0.39053 0.0
C814 C 0.00153 0.2659 0.39019 0.0
C815 C 0.97123 0.28176 0.36381 0.0
H816 H 0.00353 0.23079 0.41206 0.0
C817 C 0.91918 0.27382 0.33821 0.0
H818 H 0.04123 0.27158 0.41053 0.0
C819 C 0.89805 0.2505 0.33877 0.0
C820 C 0.92738 0.23469 0.36559 0.0
H821 H 0.89478 0.28567 0.31758 0.0
H822 H 0.85831 0.24489 0.3184 0.0
C823 C 0.9793 0.24264 0.39137 0.0
C824 C 0.00708 0.78608 0.8222 0.0
C825 C 0.98429 0.79626 0.85792 0.0
H826 H 0.04141 0.75506 0.79247 0.0
C827 C 0.98009 0.78236 0.89207 0.0
H828 H 0.01088 0.79638 0.79538 0.0
C829 C -0.00073 0.7588 0.89061 0.0
C830 C 0.0216 0.74859 0.85477 0.0
H831 H 0.96328 0.78978 0.92007 0.0
H832 H -0.00451 0.7485 0.91742 0.0
C833 C 0.0248 0.76244 0.82054 0.0
C834 C 0.5044 0.26016 0.89104 0.0
C835 C 0.52918 0.24926 0.85636 0.0
H836 H 0.46539 0.29158 0.9177 0.0
C837 C 0.53371 0.26233 0.82128 0.0
H838 H 0.49955 0.25047 0.91845 0.0
C839 C 0.51481 0.28588 0.821 0.0
C840 C 0.48955 0.29674 0.85557 0.0
H841 H 0.5522 0.2544 0.79405 0.0
H842 H 0.51965 0.29556 0.79358 0.0
C843 C 0.4841 0.28362 0.89055 0.0
C844 C 0.5033 0.24272 0.65797 0.0
C845 C 0.47801 0.23199 0.62332 0.0
H846 H 0.54186 0.27397 0.68508 0.0
C847 C 0.47317 0.24519 0.5884 0.0
H848 H 0.50772 0.23295 0.68533 0.0
C849 C 0.49452 0.26856 0.58801 0.0
C850 C 0.51967 0.27928 0.62275 0.0
H851 H 0.45453 0.23732 0.56119 0.0
H852 H 0.4904 0.27831 0.56063 0.0
C853 C 0.52315 0.26617 0.65781 0.0
C854 C 0.96809 0.74666 0.58676 0.0
C855 C 0.97201 0.73269 0.62083 0.0
H856 H 0.98508 0.78047 0.56147 0.0
C857 C -0.00477 0.74273 0.65654 0.0
H858 H 0.95104 0.73932 0.55877 0.0
C859 C 0.01396 0.76627 0.65824 0.0
C860 C 0.01148 0.78016 0.62404 0.0
H861 H -0.00112 0.73236 0.68329 0.0
H862 H 0.03111 0.77353 0.68628 0.0
C863 C 0.98838 0.77012 0.58824 0.0
C864 C 0.94424 0.15711 0.21332 0.0
C865 C 0.97518 0.13839 0.19306 0.0
H866 H 0.90305 0.16983 0.26782 0.0
C867 C 0.98144 0.11673 0.21217 0.0
H868 H 0.93736 0.17391 0.1992 0.0
C869 C 0.96141 0.11437 0.25186 0.0
C870 C 0.93503 0.13366 0.27281 0.0
H871 H 0.00471 0.10196 0.19714 0.0
H872 H 0.96995 0.09786 0.26662 0.0
C873 C 0.92439 0.15476 0.25271 0.0
C874 C 0.4134 0.87252 0.23358 0.0
C875 C 0.42545 0.89346 0.21315 0.0
H876 H 0.42518 0.85357 0.28744 0.0
C877 C 0.45185 0.91277 0.23396 0.0
H878 H 0.39209 0.85741 0.21855 0.0
C879 C 0.47096 0.91053 0.27376 0.0
C880 C 0.46394 0.88896 0.2931 0.0
H881 H 0.46145 0.92915 0.21899 0.0
H882 H 0.49456 0.92529 0.28864 0.0
C883 C 0.43257 0.87028 0.27308 0.0
C884 C 0.94822 0.91378 0.74935 0.0
C885 C 0.92412 0.89436 0.77055 0.0
H886 H 0.98946 0.92626 0.69436 0.0
C887 C 0.9145 0.87306 0.75053 0.0
H888 H 0.95598 0.93043 0.76405 0.0
C889 C 0.93377 0.87065 0.71102 0.0
C890 C 0.96299 0.8895 0.69058 0.0
H891 H 0.89498 0.85785 0.7659 0.0
H892 H 0.92819 0.8537 0.69699 0.0
C893 C 0.96759 0.91137 0.70954 0.0
C894 C 0.4726 0.11807 0.77785 0.0
C895 C 0.46935 0.14015 0.79617 0.0
H896 H 0.45924 0.09849 0.72406 0.0
C897 C 0.44125 0.15899 0.77525 0.0
H898 H 0.49364 0.10319 0.79341 0.0
C899 C 0.42141 0.15629 0.73591 0.0
C900 C 0.42945 0.1347 0.71654 0.0
H901 H 0.43681 0.17612 0.78878 0.0
H902 H 0.40254 0.17146 0.7202 0.0
C903 C 0.45276 0.11536 0.73822 0.0
C904 C 0.41472 0.65403 0.24471 0.0
C905 C 0.42597 0.63306 0.26512 0.0
H906 H 0.42715 0.67293 0.19088 0.0
C907 C 0.45219 0.61368 0.24435 0.0
H908 H 0.39357 0.66918 0.25972 0.0
C909 C 0.4718 0.61587 0.20458 0.0
C910 C 0.46533 0.63745 0.1852 0.0
H911 H 0.46119 0.59727 0.25935 0.0
H912 H 0.49521 0.60106 0.18973 0.0
C913 C 0.43419 0.6562 0.20522 0.0
C914 C 0.94343 0.36921 0.26552 0.0
C915 C 0.97473 0.38789 0.28561 0.0
H916 H 0.90214 0.35645 0.21114 0.0
C917 C 0.98155 0.40949 0.26637 0.0
H918 H 0.93616 0.35247 0.27979 0.0
C919 C 0.96185 0.4118 0.22667 0.0
C920 C 0.93512 0.39252 0.20585 0.0
H921 H 0.00511 0.42423 0.28129 0.0
H922 H 0.97093 0.42825 0.21179 0.0
C923 C 0.92375 0.37151 0.22613 0.0
C924 C 0.45379 0.4134 0.74154 0.0
C925 C 0.42929 0.39412 0.76296 0.0
H926 H 0.49587 0.42553 0.68654 0.0
C927 C 0.41992 0.3727 0.74328 0.0
H928 H 0.46136 0.43014 0.75599 0.0
C929 C 0.43976 0.37005 0.70391 0.0
C930 C 0.46932 0.38877 0.68328 0.0
H931 H 0.40012 0.35759 0.75882 0.0
H932 H 0.43432 0.35302 0.69016 0.0
C933 C 0.47374 0.41074 0.70188 0.0
C934 C 0.9353 0.65843 0.76803 0.0
C935 C 0.96358 0.63949 0.78862 0.0
H936 H 0.89678 0.67122 0.71316 0.0
C937 C 0.9673 0.61755 0.76984 0.0
H938 H 0.93051 0.67545 0.78191 0.0
C939 C 0.9478 0.61509 0.7301 0.0
C940 C 0.92434 0.63454 0.70877 0.0
H941 H 0.98848 0.6026 0.78514 0.0
H942 H 0.95469 0.59834 0.7156 0.0
C943 C 0.91577 0.65597 0.72859 0.0
loop_
_geom_bond_atom_site_label_1
_geom_bond_atom_site_label_2
_geom_bond_distance
_geom_bond_site_symmetry_2
_ccdc_geom_bond_type
Co0 O3 1.970 . S
Co0 N17 1.989 . S
Co0 O25 1.967 1_455 S
Co0 O32 1.920 . S
Co1 O4 1.966 . S
Co1 N10 2.022 . S
Co1 N18 1.993 . S
Co1 O26 1.935 1_455 S
C2 O3 1.258 . S
C2 O4 1.263 . S
O3 Co0 1.970 . S
O3 C2 1.258 . S
O4 Co1 1.966 . S
O4 C2 1.263 . S
C5 O6 1.235 . S
C5 O32 1.289 . S
O6 C5 1.235 . S
C7 C9 1.400 . S
C7 N10 1.351 . S
C7 C12 1.501 . S
C8 C9 1.387 . S
C8 N11 1.341 . S
C9 C7 1.400 . S
C9 C8 1.387 . S
N10 Co1 2.022 . S
N10 C7 1.351 . S
N10 N11 1.365 . S
N11 C8 1.341 . S
N11 N10 1.365 . S
N11 H31 0.862 . S
C12 C7 1.501 . S
C12 H13 0.961 . S
C12 H14 0.961 . S
C12 H15 0.960 . S
H13 C12 0.961 . S
H14 C12 0.961 . S
H15 C12 0.960 . S
C16 N17 1.342 . S
C16 C20 1.401 . S
C16 C21 1.499 . S
N17 Co0 1.989 . S
N17 C16 1.342 . S
N17 N18 1.388 . S
N18 Co1 1.993 . S
N18 N17 1.388 . S
N18 C19 1.346 . S
C19 N18 1.346 . S
C19 C20 1.396 . S
C19 C29 1.510 . S
C20 C16 1.401 . S
C20 C19 1.396 . S
C21 C16 1.499 . S
C21 H22 0.959 . S
C21 H23 0.960 . S
C21 H24 0.961 . S
H22 C21 0.959 . S
H23 C21 0.960 . S
H24 C21 0.961 . S
O25 Co0 1.967 1_655 S
O25 C33 1.258 . S
O26 Co1 1.935 1_655 S
O26 C33 1.270 . S
H27 C29 0.959 . S
H28 C29 0.961 . S
C29 C19 1.510 . S
C29 H27 0.959 . S
C29 H28 0.961 . S
C29 H30 0.960 . S
H30 C29 0.960 . S
H31 N11 0.862 . S
O32 Co0 1.920 . S
O32 C5 1.289 . S
C33 O25 1.258 . S
C33 O26 1.270 . S
Co34 O37 1.970 . S
Co34 N51 1.989 . S
Co34 O59 1.967 . S
Co34 O66 1.920 . S
Co35 O38 1.966 . S
Co35 N44 2.022 . S
Co35 N52 1.993 . S
Co35 O60 1.941 . S
C36 O37 1.258 . S
C36 O38 1.263 . S
O37 Co34 1.970 . S
O37 C36 1.258 . S
O38 Co35 1.966 . S
O38 C36 1.263 . S
C39 O40 1.235 . S
C39 O66 1.289 . S
O40 C39 1.235 . S
C41 C43 1.400 . S
C41 N44 1.351 . S
C41 C46 1.501 . S
C42 C43 1.387 . S
C42 N45 1.341 . S
C43 C41 1.400 . S
C43 C42 1.387 . S
N44 Co35 2.022 . S
N44 C41 1.351 . S
N44 N45 1.365 . S
N45 C42 1.341 . S
N45 N44 1.365 . S
N45 H65 0.862 . S
C46 C41 1.501 . S
C46 H47 0.961 . S
C46 H48 0.961 . S
C46 H49 0.960 . S
H47 C46 0.961 . S
H48 C46 0.961 . S
H49 C46 0.960 . S
C50 N51 1.342 . S
C50 C54 1.401 . S
C50 C55 1.499 . S
N51 Co34 1.989 . S
N51 C50 1.342 . S
N51 N52 1.388 . S
N52 Co35 1.993 . S
N52 N51 1.388 . S
N52 C53 1.346 . S
C53 N52 1.346 . S
C53 C54 1.396 . S
C53 C63 1.510 . S
C54 C50 1.401 . S
C54 C53 1.396 . S
C55 C50 1.499 . S
C55 H56 0.959 . S
C55 H57 0.960 . S
C55 H58 0.961 . S
H56 C55 0.959 . S
H57 C55 0.960 . S
H58 C55 0.961 . S
O59 Co34 1.967 . S
O59 C67 1.258 . S
O60 Co35 1.941 . S
O60 C67 1.266 . S
H61 C63 0.959 . S
H62 C63 0.961 . S
C63 C53 1.510 . S
C63 H61 0.959 . S
C63 H62 0.961 . S
C63 H64 0.960 . S
H64 C63 0.960 . S
H65 N45 0.862 . S
O66 Co34 1.920 . S
O66 C39 1.289 . S
C67 O59 1.258 . S
C67 O60 1.266 . S
Co68 O71 1.970 . S
Co68 N85 1.989 . S
Co68 O93 1.967 . S
Co68 O100 1.920 . S
Co69 O72 1.966 . S
Co69 N78 2.022 . S
Co69 N86 1.993 . S
Co69 O94 1.941 . S
C70 O71 1.258 . S
C70 O72 1.263 . S
O71 Co68 1.970 . S
O71 C70 1.258 . S
O72 Co69 1.966 . S
O72 C70 1.263 . S
C73 O74 1.235 . S
C73 O100 1.289 . S
O74 C73 1.235 . S
C75 C77 1.400 . S
C75 N78 1.351 . S
C75 C80 1.501 . S
C76 C77 1.387 . S
C76 N79 1.341 . S
C77 C75 1.400 . S
C77 C76 1.387 . S
N78 Co69 2.022 . S
N78 C75 1.351 . S
N78 N79 1.365 . S
N79 C76 1.341 . S
N79 N78 1.365 . S
N79 H99 0.862 . S
C80 C75 1.501 . S
C80 H81 0.961 . S
C80 H82 0.961 . S
C80 H83 0.960 . S
H81 C80 0.961 . S
H82 C80 0.961 . S
H83 C80 0.960 . S
C84 N85 1.342 . S
C84 C88 1.401 . S
C84 C89 1.499 . S
N85 Co68 1.989 . S
N85 C84 1.342 . S
N85 N86 1.388 . S
N86 Co69 1.993 . S
N86 N85 1.388 . S
N86 C87 1.346 . S
C87 N86 1.346 . S
C87 C88 1.396 . S
C87 C97 1.510 . S
C88 C84 1.401 . S
C88 C87 1.396 . S
C89 C84 1.499 . S
C89 H90 0.959 . S
C89 H91 0.960 . S
C89 H92 0.961 . S
H90 C89 0.959 . S
H91 C89 0.960 . S
H92 C89 0.961 . S
O93 Co68 1.967 . S
O93 C101 1.258 . S
O94 Co69 1.941 . S
O94 C101 1.266 . S
H95 C97 0.959 . S
H96 C97 0.961 . S
C97 C87 1.510 . S
C97 H95 0.959 . S
C97 H96 0.961 . S
C97 H98 0.960 . S
H98 C97 0.960 . S
H99 N79 0.862 . S
O100 Co68 1.920 . S
O100 C73 1.289 . S
C101 O93 1.258 . S
C101 O94 1.266 . S
Co102 O105 1.970 . S
Co102 N119 1.989 . S
Co102 O127 1.967 1_655 S
Co102 O134 1.920 . S
Co103 O106 1.966 . S
Co103 N112 2.022 . S
Co103 N120 1.993 . S
Co103 O128 1.936 1_655 S
C104 O105 1.258 . S
C104 O106 1.263 . S
O105 Co102 1.970 . S
O105 C104 1.258 . S
O106 Co103 1.966 . S
O106 C104 1.263 . S
C107 O108 1.235 . S
C107 O134 1.289 . S
O108 C107 1.235 . S
C109 C111 1.400 . S
C109 N112 1.351 . S
C109 C114 1.501 . S
C110 C111 1.387 . S
C110 N113 1.341 . S
C111 C109 1.400 . S
C111 C110 1.387 . S
N112 Co103 2.022 . S
N112 C109 1.351 . S
N112 N113 1.365 . S
N113 C110 1.341 . S
N113 N112 1.365 . S
N113 H133 0.862 . S
C114 C109 1.501 . S
C114 H115 0.961 . S
C114 H116 0.961 . S
C114 H117 0.960 . S
H115 C114 0.961 . S
H116 C114 0.961 . S
H117 C114 0.960 . S
C118 N119 1.342 . S
C118 C122 1.401 . S
C118 C123 1.499 . S
N119 Co102 1.989 . S
N119 C118 1.342 . S
N119 N120 1.388 . S
N120 Co103 1.993 . S
N120 N119 1.388 . S
N120 C121 1.346 . S
C121 N120 1.346 . S
C121 C122 1.396 . S
C121 C131 1.510 . S
C122 C118 1.401 . S
C122 C121 1.396 . S
C123 C118 1.499 . S
C123 H124 0.959 . S
C123 H125 0.960 . S
C123 H126 0.961 . S
H124 C123 0.959 . S
H125 C123 0.960 . S
H126 C123 0.961 . S
O127 Co102 1.967 1_455 S
O127 C135 1.258 . S
O128 Co103 1.936 1_455 S
O128 C135 1.270 . S
H129 C131 0.959 . S
H130 C131 0.961 . S
C131 C121 1.510 . S
C131 H129 0.959 . S
C131 H130 0.961 . S
C131 H132 0.960 . S
H132 C131 0.960 . S
H133 N113 0.862 . S
O134 Co102 1.920 . S
O134 C107 1.289 . S
C135 O127 1.258 . S
C135 O128 1.270 . S
Co136 O139 1.970 . S
Co136 N153 1.989 . S
Co136 O161 1.967 1_655 S
Co136 O168 1.920 . S
Co137 O140 1.966 . S
Co137 N146 2.022 . S
Co137 N154 1.993 . S
Co137 O162 1.935 1_655 S
C138 O139 1.258 . S
C138 O140 1.263 . S
O139 Co136 1.970 . S
O139 C138 1.258 . S
O140 Co137 1.966 . S
O140 C138 1.263 . S
C141 O142 1.235 . S
C141 O168 1.289 . S
O142 C141 1.235 . S
C143 C145 1.400 . S
C143 N146 1.351 . S
C143 C148 1.501 . S
C144 C145 1.387 . S
C144 N147 1.341 . S
C145 C143 1.400 . S
C145 C144 1.387 . S
N146 Co137 2.022 . S
N146 C143 1.351 . S
N146 N147 1.365 . S
N147 C144 1.341 . S
N147 N146 1.365 . S
N147 H167 0.862 . S
C148 C143 1.501 . S
C148 H149 0.961 . S
C148 H150 0.961 . S
C148 H151 0.960 . S
H149 C148 0.961 . S
H150 C148 0.961 . S
H151 C148 0.960 . S
C152 N153 1.342 . S
C152 C156 1.401 . S
C152 C157 1.499 . S
N153 Co136 1.989 . S
N153 C152 1.342 . S
N153 N154 1.388 . S
N154 Co137 1.993 . S
N154 N153 1.388 . S
N154 C155 1.346 . S
C155 N154 1.346 . S
C155 C156 1.396 . S
C155 C165 1.510 . S
C156 C152 1.401 . S
C156 C155 1.396 . S
C157 C152 1.499 . S
C157 H158 0.959 . S
C157 H159 0.960 . S
C157 H160 0.961 . S
H158 C157 0.959 . S
H159 C157 0.960 . S
H160 C157 0.961 . S
O161 Co136 1.967 1_455 S
O161 C169 1.258 . S
O162 Co137 1.935 1_455 S
O162 C169 1.270 . S
H163 C165 0.959 . S
H164 C165 0.961 . S
C165 C155 1.510 . S
C165 H163 0.959 . S
C165 H164 0.961 . S
C165 H166 0.960 . S
H166 C165 0.960 . S
H167 N147 0.862 . S
O168 Co136 1.920 . S
O168 C141 1.289 . S
C169 O161 1.258 . S
C169 O162 1.270 . S
Co170 O173 1.970 . S
Co170 N187 1.989 . S
Co170 O195 1.967 . S
Co170 O202 1.920 . S
Co171 O174 1.966 . S
Co171 N180 2.022 . S
Co171 N188 1.993 . S
Co171 O196 1.941 . S
C172 O173 1.258 . S
C172 O174 1.263 . S
O173 Co170 1.970 . S
O173 C172 1.258 . S
O174 Co171 1.966 . S
O174 C172 1.263 . S
C175 O176 1.235 . S
C175 O202 1.289 . S
O176 C175 1.235 . S
C177 C179 1.400 . S
C177 N180 1.351 . S
C177 C182 1.501 . S
C178 C179 1.387 . S
C178 N181 1.341 . S
C179 C177 1.400 . S
C179 C178 1.387 . S
N180 Co171 2.022 . S
N180 C177 1.351 . S
N180 N181 1.365 . S
N181 C178 1.341 . S
N181 N180 1.365 . S
N181 H201 0.862 . S
C182 C177 1.501 . S
C182 H183 0.961 . S
C182 H184 0.961 . S
C182 H185 0.960 . S
H183 C182 0.961 . S
H184 C182 0.961 . S
H185 C182 0.960 . S
C186 N187 1.342 . S
C186 C190 1.401 . S
C186 C191 1.499 . S
N187 Co170 1.989 . S
N187 C186 1.342 . S
N187 N188 1.388 . S
N188 Co171 1.993 . S
N188 N187 1.388 . S
N188 C189 1.346 . S
C189 N188 1.346 . S
C189 C190 1.396 . S
C189 C199 1.510 . S
C190 C186 1.401 . S
C190 C189 1.396 . S
C191 C186 1.499 . S
C191 H192 0.959 . S
C191 H193 0.960 . S
C191 H194 0.961 . S
H192 C191 0.959 . S
H193 C191 0.960 . S
H194 C191 0.961 . S
O195 Co170 1.967 . S
O195 C203 1.258 . S
O196 Co171 1.941 . S
O196 C203 1.266 . S
H197 C199 0.959 . S
H198 C199 0.961 . S
C199 C189 1.510 . S
C199 H197 0.959 . S
C199 H198 0.961 . S
C199 H200 0.960 . S
H200 C199 0.960 . S
H201 N181 0.862 . S
O202 Co170 1.920 . S
O202 C175 1.289 . S
C203 O195 1.258 . S
C203 O196 1.266 . S
Co204 O207 1.970 . S
Co204 N221 1.989 . S
Co204 O229 1.967 . S
Co204 O236 1.920 . S
Co205 O208 1.966 . S
Co205 N214 2.022 . S
Co205 N222 1.993 . S
Co205 O230 1.941 . S
C206 O207 1.258 . S
C206 O208 1.263 . S
O207 Co204 1.970 . S
O207 C206 1.258 . S
O208 Co205 1.966 . S
O208 C206 1.263 . S
C209 O210 1.235 . S
C209 O236 1.289 . S
O210 C209 1.235 . S
C211 C213 1.400 . S
C211 N214 1.351 . S
C211 C216 1.501 . S
C212 C213 1.387 . S
C212 N215 1.341 . S
C213 C211 1.400 . S
C213 C212 1.387 . S
N214 Co205 2.022 . S
N214 C211 1.351 . S
N214 N215 1.365 . S
N215 C212 1.341 . S
N215 N214 1.365 . S
N215 H235 0.862 . S
C216 C211 1.501 . S
C216 H217 0.961 . S
C216 H218 0.961 . S
C216 H219 0.960 . S
H217 C216 0.961 . S
H218 C216 0.961 . S
H219 C216 0.960 . S
C220 N221 1.342 . S
C220 C224 1.401 . S
C220 C225 1.499 . S
N221 Co204 1.989 . S
N221 C220 1.342 . S
N221 N222 1.388 . S
N222 Co205 1.993 . S
N222 N221 1.388 . S
N222 C223 1.346 . S
C223 N222 1.346 . S
C223 C224 1.396 . S
C223 C233 1.510 . S
C224 C220 1.401 . S
C224 C223 1.396 . S
C225 C220 1.499 . S
C225 H226 0.959 . S
C225 H227 0.960 . S
C225 H228 0.961 . S
H226 C225 0.959 . S
H227 C225 0.960 . S
H228 C225 0.961 . S
O229 Co204 1.967 . S
O229 C237 1.258 . S
O230 Co205 1.941 . S
O230 C237 1.266 . S
H231 C233 0.959 . S
H232 C233 0.961 . S
C233 C223 1.510 . S
C233 H231 0.959 . S
C233 H232 0.961 . S
C233 H234 0.960 . S
H234 C233 0.960 . S
H235 N215 0.862 . S
O236 Co204 1.920 . S
O236 C209 1.289 . S
C237 O229 1.258 . S
C237 O230 1.266 . S
Co238 O241 1.970 . S
Co238 N255 1.989 . S
Co238 O263 1.967 1_455 S
Co238 O270 1.920 . S
Co239 O242 1.966 . S
Co239 N248 2.022 . S
Co239 N256 1.993 . S
Co239 O264 1.936 1_455 S
C240 O241 1.258 . S
C240 O242 1.263 . S
O241 Co238 1.970 . S
O241 C240 1.258 . S
O242 Co239 1.966 . S
O242 C240 1.263 . S
C243 O244 1.235 . S
C243 O270 1.289 . S
O244 C243 1.235 . S
C245 C247 1.400 . S
C245 N248 1.351 . S
C245 C250 1.501 . S
C246 C247 1.387 . S
C246 N249 1.341 . S
C247 C245 1.400 . S
C247 C246 1.387 . S
N248 Co239 2.022 . S
N248 C245 1.351 . S
N248 N249 1.365 . S
N249 C246 1.341 . S
N249 N248 1.365 . S
N249 H269 0.862 . S
C250 C245 1.501 . S
C250 H251 0.961 . S
C250 H252 0.961 . S
C250 H253 0.960 . S
H251 C250 0.961 . S
H252 C250 0.961 . S
H253 C250 0.960 . S
C254 N255 1.342 . S
C254 C258 1.401 . S
C254 C259 1.499 . S
N255 Co238 1.989 . S
N255 C254 1.342 . S
N255 N256 1.388 . S
N256 Co239 1.993 . S
N256 N255 1.388 . S
N256 C257 1.346 . S
C257 N256 1.346 . S
C257 C258 1.396 . S
C257 C267 1.510 . S
C258 C254 1.401 . S
C258 C257 1.396 . S
C259 C254 1.499 . S
C259 H260 0.959 . S
C259 H261 0.960 . S
C259 H262 0.961 . S
H260 C259 0.959 . S
H261 C259 0.960 . S
H262 C259 0.961 . S
O263 Co238 1.967 1_655 S
O263 C271 1.258 . S
O264 Co239 1.936 1_655 S
O264 C271 1.270 . S
H265 C267 0.959 . S
H266 C267 0.961 . S
C267 C257 1.510 . S
C267 H265 0.959 . S
C267 H266 0.961 . S
C267 H268 0.960 . S
H268 C267 0.960 . S
H269 N249 0.862 . S
O270 Co238 1.920 . S
O270 C243 1.289 . S
C271 O263 1.258 . S
C271 O264 1.270 . S
Co272 O275 1.970 . S
Co272 N289 1.989 . S
Co272 O297 1.967 . S
Co272 O304 1.920 . S
Co273 O276 1.966 . S
Co273 N282 2.022 . S
Co273 N290 1.993 . S
Co273 O298 1.941 . S
C274 O275 1.258 . S
C274 O276 1.263 . S
O275 Co272 1.970 . S
O275 C274 1.258 . S
O276 Co273 1.966 . S
O276 C274 1.263 . S
C277 O278 1.235 . S
C277 O304 1.289 . S
O278 C277 1.235 . S
C279 C281 1.400 . S
C279 N282 1.351 . S
C279 C284 1.501 . S
C280 C281 1.387 . S
C280 N283 1.341 . S
C281 C279 1.400 . S
C281 C280 1.387 . S
N282 Co273 2.022 . S
N282 C279 1.351 . S
N282 N283 1.365 . S
N283 C280 1.341 . S
N283 N282 1.365 . S
N283 H303 0.862 . S
C284 C279 1.501 . S
C284 H285 0.961 . S
C284 H286 0.961 . S
C284 H287 0.960 . S
H285 C284 0.961 . S
H286 C284 0.961 . S
H287 C284 0.960 . S
C288 N289 1.342 . S
C288 C292 1.401 . S
C288 C293 1.499 . S
N289 Co272 1.989 . S
N289 C288 1.342 . S
N289 N290 1.388 . S
N290 Co273 1.993 . S
N290 N289 1.388 . S
N290 C291 1.346 . S
C291 N290 1.346 . S
C291 C292 1.396 . S
C291 C301 1.510 . S
C292 C288 1.401 . S
C292 C291 1.396 . S
C293 C288 1.499 . S
C293 H294 0.959 . S
C293 H295 0.960 . S
C293 H296 0.961 . S
H294 C293 0.959 . S
H295 C293 0.960 . S
H296 C293 0.961 . S
O297 Co272 1.967 . S
O297 C305 1.258 . S
O298 Co273 1.941 . S
O298 C305 1.266 . S
H299 C301 0.959 . S
H300 C301 0.961 . S
C301 C291 1.510 . S
C301 H299 0.959 . S
C301 H300 0.961 . S
C301 H302 0.960 . S
H302 C301 0.960 . S
H303 N283 0.862 . S
O304 Co272 1.920 . S
O304 C277 1.289 . S
C305 O297 1.258 . S
C305 O298 1.266 . S
Co306 O309 1.970 . S
Co306 N323 1.989 . S
Co306 O331 1.967 1_655 S
Co306 O338 1.920 . S
Co307 O310 1.966 . S
Co307 N316 2.022 . S
Co307 N324 1.993 . S
Co307 O332 1.935 1_655 S
C308 O309 1.258 . S
C308 O310 1.263 . S
O309 Co306 1.970 . S
O309 C308 1.258 . S
O310 Co307 1.966 . S
O310 C308 1.263 . S
C311 O312 1.235 . S
C311 O338 1.289 . S
O312 C311 1.235 . S
C313 C315 1.400 . S
C313 N316 1.351 . S
C313 C318 1.501 . S
C314 C315 1.387 . S
C314 N317 1.341 . S
C315 C313 1.400 . S
C315 C314 1.387 . S
N316 Co307 2.022 . S
N316 C313 1.351 . S
N316 N317 1.365 . S
N317 C314 1.341 . S
N317 N316 1.365 . S
N317 H337 0.862 . S
C318 C313 1.501 . S
C318 H319 0.961 . S
C318 H320 0.961 . S
C318 H321 0.960 . S
H319 C318 0.961 . S
H320 C318 0.961 . S
H321 C318 0.960 . S
C322 N323 1.342 . S
C322 C326 1.401 . S
C322 C327 1.499 . S
N323 Co306 1.989 . S
N323 C322 1.342 . S
N323 N324 1.388 . S
N324 Co307 1.993 . S
N324 N323 1.388 . S
N324 C325 1.346 . S
C325 N324 1.346 . S
C325 C326 1.396 . S
C325 C335 1.510 . S
C326 C322 1.401 . S
C326 C325 1.396 . S
C327 C322 1.499 . S
C327 H328 0.959 . S
C327 H329 0.960 . S
C327 H330 0.961 . S
H328 C327 0.959 . S
H329 C327 0.960 . S
H330 C327 0.961 . S
O331 Co306 1.967 1_455 S
O331 C339 1.258 . S
O332 Co307 1.935 1_455 S
O332 C339 1.270 . S
H333 C335 0.959 . S
H334 C335 0.961 . S
C335 C325 1.510 . S
C335 H333 0.959 . S
C335 H334 0.961 . S
C335 H336 0.960 . S
H336 C335 0.960 . S
H337 N317 0.862 . S
O338 Co306 1.920 . S
O338 C311 1.289 . S
C339 O331 1.258 . S
C339 O332 1.270 . S
Co340 O343 1.970 . S
Co340 N357 1.989 . S
Co340 O365 1.967 1_455 S
Co340 O372 1.920 . S
Co341 O344 1.966 . S
Co341 N350 2.022 . S
Co341 N358 1.993 . S
Co341 O366 1.936 1_455 S
C342 O343 1.258 . S
C342 O344 1.263 . S
O343 Co340 1.970 . S
O343 C342 1.258 . S
O344 Co341 1.966 . S
O344 C342 1.263 . S
C345 O346 1.235 . S
C345 O372 1.289 . S
O346 C345 1.235 . S
C347 C349 1.400 . S
C347 N350 1.351 . S
C347 C352 1.501 . S
C348 C349 1.387 . S
C348 N351 1.341 . S
C349 C347 1.400 . S
C349 C348 1.387 . S
N350 Co341 2.022 . S
N350 C347 1.351 . S
N350 N351 1.365 . S
N351 C348 1.341 . S
N351 N350 1.365 . S
N351 H371 0.862 . S
C352 C347 1.501 . S
C352 H353 0.961 . S
C352 H354 0.961 . S
C352 H355 0.960 . S
H353 C352 0.961 . S
H354 C352 0.961 . S
H355 C352 0.960 . S
C356 N357 1.342 . S
C356 C360 1.401 . S
C356 C361 1.499 . S
N357 Co340 1.989 . S
N357 C356 1.342 . S
N357 N358 1.388 . S
N358 Co341 1.993 . S
N358 N357 1.388 . S
N358 C359 1.346 . S
C359 N358 1.346 . S
C359 C360 1.396 . S
C359 C369 1.510 . S
C360 C356 1.401 . S
C360 C359 1.396 . S
C361 C356 1.499 . S
C361 H362 0.959 . S
C361 H363 0.960 . S
C361 H364 0.961 . S
H362 C361 0.959 . S
H363 C361 0.960 . S
H364 C361 0.961 . S
O365 Co340 1.967 1_655 S
O365 C373 1.258 . S
O366 Co341 1.936 1_655 S
O366 C373 1.270 . S
H367 C369 0.959 . S
H368 C369 0.961 . S
C369 C359 1.510 . S
C369 H367 0.959 . S
C369 H368 0.961 . S
C369 H370 0.960 . S
H370 C369 0.960 . S
H371 N351 0.862 . S
O372 Co340 1.920 . S
O372 C345 1.289 . S
C373 O365 1.258 . S
C373 O366 1.270 . S
Co374 O377 1.970 . S
Co374 N391 1.989 . S
Co374 O399 1.967 . S
Co374 O406 1.920 . S
Co375 O378 1.966 . S
Co375 N384 2.022 . S
Co375 N392 1.993 . S
Co375 O400 1.941 . S
C376 O377 1.258 . S
C376 O378 1.263 . S
O377 Co374 1.970 . S
O377 C376 1.258 . S
O378 Co375 1.966 . S
O378 C376 1.263 . S
C379 O380 1.235 . S
C379 O406 1.289 . S
O380 C379 1.235 . S
C381 C383 1.400 . S
C381 N384 1.351 . S
C381 C386 1.501 . S
C382 C383 1.387 . S
C382 N385 1.341 . S
C383 C381 1.400 . S
C383 C382 1.387 . S
N384 Co375 2.022 . S
N384 C381 1.351 . S
N384 N385 1.365 . S
N385 C382 1.341 . S
N385 N384 1.365 . S
N385 H405 0.862 . S
C386 C381 1.501 . S
C386 H387 0.961 . S
C386 H388 0.961 . S
C386 H389 0.960 . S
H387 C386 0.961 . S
H388 C386 0.961 . S
H389 C386 0.960 . S
C390 N391 1.342 . S
C390 C394 1.401 . S
C390 C395 1.499 . S
N391 Co374 1.989 . S
N391 C390 1.342 . S
N391 N392 1.388 . S
N392 Co375 1.993 . S
N392 N391 1.388 . S
N392 C393 1.346 . S
C393 N392 1.346 . S
C393 C394 1.396 . S
C393 C403 1.510 . S
C394 C390 1.401 . S
C394 C393 1.396 . S
C395 C390 1.499 . S
C395 H396 0.959 . S
C395 H397 0.960 . S
C395 H398 0.961 . S
H396 C395 0.959 . S
H397 C395 0.960 . S
H398 C395 0.961 . S
O399 Co374 1.967 . S
O399 C407 1.258 . S
O400 Co375 1.941 . S
O400 C407 1.266 . S
H401 C403 0.959 . S
H402 C403 0.961 . S
C403 C393 1.510 . S
C403 H401 0.959 . S
C403 H402 0.961 . S
C403 H404 0.960 . S
H404 C403 0.960 . S
H405 N385 0.862 . S
O406 Co374 1.920 . S
O406 C379 1.289 . S
C407 O399 1.258 . S
C407 O400 1.266 . S
Co408 O411 1.970 . S
Co408 N425 1.989 . S
Co408 O433 1.967 . S
Co408 O440 1.920 . S
Co409 O412 1.966 . S
Co409 N418 2.022 . S
Co409 N426 1.993 . S
Co409 O434 1.941 . S
C410 O411 1.258 . S
C410 O412 1.263 . S
O411 Co408 1.970 . S
O411 C410 1.258 . S
O412 Co409 1.966 . S
O412 C410 1.263 . S
C413 O414 1.235 . S
C413 O440 1.289 . S
O414 C413 1.235 . S
C415 C417 1.400 . S
C415 N418 1.351 . S
C415 C420 1.501 . S
C416 C417 1.387 . S
C416 N419 1.341 . S
C417 C415 1.400 . S
C417 C416 1.387 . S
N418 Co409 2.022 . S
N418 C415 1.351 . S
N418 N419 1.365 . S
N419 C416 1.341 . S
N419 N418 1.365 . S
N419 H439 0.862 . S
C420 C415 1.501 . S
C420 H421 0.961 . S
C420 H422 0.961 . S
C420 H423 0.960 . S
H421 C420 0.961 . S
H422 C420 0.961 . S
H423 C420 0.960 . S
C424 N425 1.342 . S
C424 C428 1.401 . S
C424 C429 1.499 . S
N425 Co408 1.989 . S
N425 C424 1.342 . S
N425 N426 1.388 . S
N426 Co409 1.993 . S
N426 N425 1.388 . S
N426 C427 1.346 . S
C427 N426 1.346 . S
C427 C428 1.396 . S
C427 C437 1.510 . S
C428 C424 1.401 . S
C428 C427 1.396 . S
C429 C424 1.499 . S
C429 H430 0.959 . S
C429 H431 0.960 . S
C429 H432 0.961 . S
H430 C429 0.959 . S
H431 C429 0.960 . S
H432 C429 0.961 . S
O433 Co408 1.967 . S
O433 C441 1.258 . S
O434 Co409 1.941 . S
O434 C441 1.266 . S
H435 C437 0.959 . S
H436 C437 0.961 . S
C437 C427 1.510 . S
C437 H435 0.959 . S
C437 H436 0.961 . S
C437 H438 0.960 . S
H438 C437 0.960 . S
H439 N419 0.862 . S
O440 Co408 1.920 . S
O440 C413 1.289 . S
C441 O433 1.258 . S
C441 O434 1.266 . S
Co442 O445 1.970 . S
Co442 N459 1.989 . S
Co442 O467 1.967 1_455 S
Co442 O474 1.920 . S
Co443 O446 1.966 . S
Co443 N452 2.022 . S
Co443 N460 1.993 . S
Co443 O468 1.935 1_455 S
C444 O445 1.258 . S
C444 O446 1.263 . S
O445 Co442 1.970 . S
O445 C444 1.258 . S
O446 Co443 1.966 . S
O446 C444 1.263 . S
C447 O448 1.235 . S
C447 O474 1.289 . S
O448 C447 1.235 . S
C449 C451 1.400 . S
C449 N452 1.351 . S
C449 C454 1.501 . S
C450 C451 1.387 . S
C450 N453 1.341 . S
C451 C449 1.400 . S
C451 C450 1.387 . S
N452 Co443 2.022 . S
N452 C449 1.351 . S
N452 N453 1.365 . S
N453 C450 1.341 . S
N453 N452 1.365 . S
N453 H473 0.862 . S
C454 C449 1.501 . S
C454 H455 0.961 . S
C454 H456 0.961 . S
C454 H457 0.960 . S
H455 C454 0.961 . S
H456 C454 0.961 . S
H457 C454 0.960 . S
C458 N459 1.342 . S
C458 C462 1.401 . S
C458 C463 1.499 . S
N459 Co442 1.989 . S
N459 C458 1.342 . S
N459 N460 1.388 . S
N460 Co443 1.993 . S
N460 N459 1.388 . S
N460 C461 1.346 . S
C461 N460 1.346 . S
C461 C462 1.396 . S
C461 C471 1.510 . S
C462 C458 1.401 . S
C462 C461 1.396 . S
C463 C458 1.499 . S
C463 H464 0.959 . S
C463 H465 0.960 . S
C463 H466 0.961 . S
H464 C463 0.959 . S
H465 C463 0.960 . S
H466 C463 0.961 . S
O467 Co442 1.967 1_655 S
O467 C475 1.258 . S
O468 Co443 1.935 1_655 S
O468 C475 1.270 . S
H469 C471 0.959 . S
H470 C471 0.961 . S
C471 C461 1.510 . S
C471 H469 0.959 . S
C471 H470 0.961 . S
C471 H472 0.960 . S
H472 C471 0.960 . S
H473 N453 0.862 . S
O474 Co442 1.920 . S
O474 C447 1.289 . S
C475 O467 1.258 . S
C475 O468 1.270 . S
Co476 O479 1.970 . S
Co476 N493 1.989 . S
Co476 O501 1.967 1_655 S
Co476 O508 1.920 . S
Co477 O480 1.966 . S
Co477 N486 2.022 . S
Co477 N494 1.993 . S
Co477 O502 1.936 1_655 S
C478 O479 1.258 . S
C478 O480 1.263 . S
O479 Co476 1.970 . S
O479 C478 1.258 . S
O480 Co477 1.966 . S
O480 C478 1.263 . S
C481 O482 1.235 . S
C481 O508 1.289 . S
O482 C481 1.235 . S
C483 C485 1.400 . S
C483 N486 1.351 . S
C483 C488 1.501 . S
C484 C485 1.387 . S
C484 N487 1.341 . S
C485 C483 1.400 . S
C485 C484 1.387 . S
N486 Co477 2.022 . S
N486 C483 1.351 . S
N486 N487 1.365 . S
N487 C484 1.341 . S
N487 N486 1.365 . S
N487 H507 0.862 . S
C488 C483 1.501 . S
C488 H489 0.961 . S
C488 H490 0.961 . S
C488 H491 0.960 . S
H489 C488 0.961 . S
H490 C488 0.961 . S
H491 C488 0.960 . S
C492 N493 1.342 . S
C492 C496 1.401 . S
C492 C497 1.499 . S
N493 Co476 1.989 . S
N493 C492 1.342 . S
N493 N494 1.388 . S
N494 Co477 1.993 . S
N494 N493 1.388 . S
N494 C495 1.346 . S
C495 N494 1.346 . S
C495 C496 1.396 . S
C495 C505 1.510 . S
C496 C492 1.401 . S
C496 C495 1.396 . S
C497 C492 1.499 . S
C497 H498 0.959 . S
C497 H499 0.960 . S
C497 H500 0.961 . S
H498 C497 0.959 . S
H499 C497 0.960 . S
H500 C497 0.961 . S
O501 Co476 1.967 1_455 S
O501 C509 1.258 . S
O502 Co477 1.936 1_455 S
O502 C509 1.270 . S
H503 C505 0.959 . S
H504 C505 0.961 . S
C505 C495 1.510 . S
C505 H503 0.959 . S
C505 H504 0.961 . S
C505 H506 0.960 . S
H506 C505 0.960 . S
H507 N487 0.862 . S
O508 Co476 1.920 . S
O508 C481 1.289 . S
C509 O501 1.258 . S
C509 O502 1.270 . S
Co510 O513 1.970 . S
Co510 N527 1.989 . S
Co510 O535 1.967 . S
Co510 O542 1.920 . S
Co511 O514 1.966 . S
Co511 N520 2.022 . S
Co511 N528 1.993 . S
Co511 O536 1.941 . S
C512 O513 1.258 . S
C512 O514 1.263 . S
O513 Co510 1.970 . S
O513 C512 1.258 . S
O514 Co511 1.966 . S
O514 C512 1.263 . S
C515 O516 1.235 . S
C515 O542 1.289 . S
O516 C515 1.235 . S
C517 C519 1.400 . S
C517 N520 1.351 . S
C517 C522 1.501 . S
C518 C519 1.387 . S
C518 N521 1.341 . S
C519 C517 1.400 . S
C519 C518 1.387 . S
N520 Co511 2.022 . S
N520 C517 1.351 . S
N520 N521 1.365 . S
N521 C518 1.341 . S
N521 N520 1.365 . S
N521 H541 0.862 . S
C522 C517 1.501 . S
C522 H523 0.961 . S
C522 H524 0.961 . S
C522 H525 0.960 . S
H523 C522 0.961 . S
H524 C522 0.961 . S
H525 C522 0.960 . S
C526 N527 1.342 . S
C526 C530 1.401 . S
C526 C531 1.499 . S
N527 Co510 1.989 . S
N527 C526 1.342 . S
N527 N528 1.388 . S
N528 Co511 1.993 . S
N528 N527 1.388 . S
N528 C529 1.346 . S
C529 N528 1.346 . S
C529 C530 1.396 . S
C529 C539 1.510 . S
C530 C526 1.401 . S
C530 C529 1.396 . S
C531 C526 1.499 . S
C531 H532 0.959 . S
C531 H533 0.960 . S
C531 H534 0.961 . S
H532 C531 0.959 . S
H533 C531 0.960 . S
H534 C531 0.961 . S
O535 Co510 1.967 . S
O535 C543 1.258 . S
O536 Co511 1.941 . S
O536 C543 1.266 . S
H537 C539 0.959 . S
H538 C539 0.961 . S
C539 C529 1.510 . S
C539 H537 0.959 . S
C539 H538 0.961 . S
C539 H540 0.960 . S
H540 C539 0.960 . S
H541 N521 0.862 . S
O542 Co510 1.920 . S
O542 C515 1.289 . S
C543 O535 1.258 . S
C543 O536 1.266 . S
C544 C545 1.387 . S
C544 H548 0.950 . S
C544 C553 1.390 . S
C545 C544 1.387 . S
C545 C547 1.387 . S
H546 C553 0.950 . S
C547 C545 1.387 . S
C547 C549 1.390 1_556 S
C547 H551 0.950 . S
H548 C544 0.950 . S
C549 C547 1.390 1_554 S
C549 C550 1.387 . S
C549 H552 0.950 . S
C550 C549 1.387 . S
C550 C553 1.387 1_554 S
H551 C547 0.950 . S
H552 C549 0.950 . S
C553 C544 1.390 . S
C553 H546 0.950 . S
C553 C550 1.387 1_556 S
C554 C555 1.387 . S
C554 H558 0.950 . S
C554 C563 1.390 . S
C555 C554 1.387 . S
C555 C557 1.387 . S
H556 C563 0.950 . S
C557 C555 1.387 . S
C557 C559 1.390 1_556 S
C557 H561 0.950 . S
H558 C554 0.950 . S
C559 C557 1.390 1_554 S
C559 C560 1.387 . S
C559 H562 0.950 . S
C560 C559 1.387 . S
C560 C563 1.387 1_554 S
H561 C557 0.950 . S
H562 C559 0.950 . S
C563 C554 1.390 . S
C563 H556 0.950 . S
C563 C560 1.387 1_556 S
C564 C565 1.387 . S
C564 H568 0.950 . S
C564 C573 1.390 . S
C565 C564 1.387 . S
C565 C567 1.387 . S
H566 C573 0.950 . S
C567 C565 1.387 . S
C567 C569 1.390 . S
C567 H571 0.950 . S
H568 C564 0.950 . S
C569 C567 1.390 . S
C569 C570 1.387 . S
C569 H572 0.950 . S
C570 C569 1.387 . S
C570 C573 1.387 . S
H571 C567 0.950 . S
H572 C569 0.950 . S
C573 C564 1.390 . S
C573 H566 0.950 . S
C573 C570 1.387 . S
C574 C575 1.387 . S
C574 H578 0.950 . S
C574 C583 1.390 . S
C575 C574 1.387 . S
C575 C577 1.387 . S
H576 C583 0.950 . S
C577 C575 1.387 . S
C577 C579 1.390 . S
C577 H581 0.950 . S
H578 C574 0.950 . S
C579 C577 1.390 . S
C579 C580 1.387 . S
C579 H582 0.950 . S
C580 C579 1.387 . S
C580 C583 1.387 . S
H581 C577 0.950 . S
H582 C579 0.950 . S
C583 C574 1.390 . S
C583 H576 0.950 . S
C583 C580 1.387 . S
C584 C585 1.387 1_554 S
C584 H588 0.950 1_554 S
C584 C593 1.390 . S
C585 C584 1.387 1_556 S
C585 C587 1.387 . S
H586 C593 0.950 . S
C587 C585 1.387 . S
C587 C589 1.390 1_556 S
C587 H591 0.950 . S
H588 C584 0.950 1_556 S
C589 C587 1.390 1_554 S
C589 C590 1.387 . S
C589 H592 0.950 . S
C590 C589 1.387 . S
C590 C593 1.387 . S
H591 C587 0.950 . S
H592 C589 0.950 . S
C593 C584 1.390 . S
C593 H586 0.950 . S
C593 C590 1.387 . S
C594 C595 1.387 1_554 S
C594 H598 0.950 . S
C594 C603 1.390 . S
C595 C594 1.387 1_556 S
C595 C597 1.387 . S
H596 C603 0.950 . S
C597 C595 1.387 . S
C597 C599 1.390 1_556 S
C597 H601 0.950 . S
H598 C594 0.950 . S
C599 C597 1.390 1_554 S
C599 C600 1.387 . S
C599 H602 0.950 . S
C600 C599 1.387 . S
C600 C603 1.387 . S
H601 C597 0.950 . S
H602 C599 0.950 . S
C603 C594 1.390 . S
C603 H596 0.950 . S
C603 C600 1.387 . S
C604 C605 1.387 . S
C604 H608 0.950 . S
C604 C613 1.390 . S
C605 C604 1.387 . S
C605 C607 1.387 . S
H606 C613 0.950 . S
C607 C605 1.387 . S
C607 C609 1.390 . S
C607 H611 0.950 . S
H608 C604 0.950 . S
C609 C607 1.390 . S
C609 C610 1.387 . S
C609 H612 0.950 . S
C610 C609 1.387 . S
C610 C613 1.387 . S
H611 C607 0.950 . S
H612 C609 0.950 . S
C613 C604 1.390 . S
C613 H606 0.950 . S
C613 C610 1.387 . S
C614 C615 1.387 . S
C614 H618 0.950 . S
C614 C623 1.390 . S
C615 C614 1.387 . S
C615 C617 1.387 . S
H616 C623 0.950 . S
C617 C615 1.387 . S
C617 C619 1.390 . S
C617 H621 0.950 . S
H618 C614 0.950 . S
C619 C617 1.390 . S
C619 C620 1.387 . S
C619 H622 0.950 . S
C620 C619 1.387 . S
C620 C623 1.387 . S
H621 C617 0.950 . S
H622 C619 0.950 . S
C623 C614 1.390 . S
C623 H616 0.950 . S
C623 C620 1.387 . S
C624 C625 1.387 1_556 S
C624 H628 0.950 . S
C624 C633 1.390 . S
C625 C624 1.387 1_554 S
C625 C627 1.387 . S
H626 C633 0.950 . S
C627 C625 1.387 . S
C627 C629 1.390 . S
C627 H631 0.950 . S
H628 C624 0.950 . S
C629 C627 1.390 . S
C629 C630 1.387 1_554 S
C629 H632 0.950 . S
C630 C629 1.387 1_556 S
C630 C633 1.387 . S
H631 C627 0.950 . S
H632 C629 0.950 . S
C633 C624 1.390 . S
C633 H626 0.950 . S
C633 C630 1.387 . S
C634 C635 1.387 . S
C634 H638 0.950 . S
C634 C643 1.390 1_554 S
C635 C634 1.387 . S
C635 C637 1.387 1_554 S
H636 C643 0.950 1_554 S
C637 C635 1.387 1_556 S
C637 C639 1.390 . S
C637 H641 0.950 . S
H638 C634 0.950 . S
C639 C637 1.390 . S
C639 C640 1.387 . S
C639 H642 0.950 . S
C640 C639 1.387 . S
C640 C643 1.387 . S
H641 C637 0.950 . S
H642 C639 0.950 . S
C643 C634 1.390 1_556 S
C643 H636 0.950 1_556 S
C643 C640 1.387 . S
C644 C645 1.387 . S
C644 H648 0.950 . S
C644 C653 1.390 . S
C645 C644 1.387 . S
C645 C647 1.387 . S
H646 C653 0.950 . S
C647 C645 1.387 . S
C647 C649 1.390 . S
C647 H651 0.950 . S
H648 C644 0.950 . S
C649 C647 1.390 . S
C649 C650 1.387 . S
C649 H652 0.950 . S
C650 C649 1.387 . S
C650 C653 1.387 . S
H651 C647 0.950 . S
H652 C649 0.950 . S
C653 C644 1.390 . S
C653 H646 0.950 . S
C653 C650 1.387 . S
C654 C655 1.387 . S
C654 H658 0.950 . S
C654 C663 1.390 . S
C655 C654 1.387 . S
C655 C657 1.387 . S
H656 C663 0.950 . S
C657 C655 1.387 . S
C657 C659 1.390 . S
C657 H661 0.950 . S
H658 C654 0.950 . S
C659 C657 1.390 . S
C659 C660 1.387 . S
C659 H662 0.950 . S
C660 C659 1.387 . S
C660 C663 1.387 . S
H661 C657 0.950 . S
H662 C659 0.950 . S
C663 C654 1.390 . S
C663 H656 0.950 . S
C663 C660 1.387 . S
C664 C665 1.387 1_554 S
C664 H668 0.950 . S
C664 C673 1.390 . S
C665 C664 1.387 1_556 S
C665 C667 1.387 . S
H666 C673 0.950 . S
C667 C665 1.387 . S
C667 C669 1.390 1_556 S
C667 H671 0.950 . S
H668 C664 0.950 . S
C669 C667 1.390 1_554 S
C669 C670 1.387 . S
C669 H672 0.950 . S
C670 C669 1.387 . S
C670 C673 1.387 . S
H671 C667 0.950 . S
H672 C669 0.950 . S
C673 C664 1.390 . S
C673 H666 0.950 . S
C673 C670 1.387 . S
C674 C675 1.387 . S
C674 H678 0.950 . S
C674 C683 1.390 1_556 S
C675 C674 1.387 . S
C675 C677 1.387 1_556 S
H676 C683 0.950 . S
C677 C675 1.387 1_554 S
C677 C679 1.390 . S
C677 H681 0.950 . S
H678 C674 0.950 . S
C679 C677 1.390 . S
C679 C680 1.387 . S
C679 H682 0.950 . S
C680 C679 1.387 . S
C680 C683 1.387 . S
H681 C677 0.950 . S
H682 C679 0.950 . S
C683 C674 1.390 1_554 S
C683 H676 0.950 . S
C683 C680 1.387 . S
C684 C685 1.387 . S
C684 H688 0.950 . S
C684 C693 1.390 . S
C685 C684 1.387 . S
C685 C687 1.387 . S
H686 C693 0.950 . S
C687 C685 1.387 . S
C687 C689 1.390 . S
C687 H691 0.950 . S
H688 C684 0.950 . S
C689 C687 1.390 . S
C689 C690 1.387 . S
C689 H692 0.950 . S
C690 C689 1.387 . S
C690 C693 1.387 . S
H691 C687 0.950 . S
H692 C689 0.950 . S
C693 C684 1.390 . S
C693 H686 0.950 . S
C693 C690 1.387 . S
C694 C695 1.387 . S
C694 H698 0.950 . S
C694 C703 1.390 . S
C695 C694 1.387 . S
C695 C697 1.387 . S
H696 C703 0.950 . S
C697 C695 1.387 . S
C697 C699 1.390 . S
C697 H701 0.950 . S
H698 C694 0.950 . S
C699 C697 1.390 . S
C699 C700 1.387 . S
C699 H702 0.950 . S
C700 C699 1.387 . S
C700 C703 1.387 . S
H701 C697 0.950 . S
H702 C699 0.950 . S
C703 C694 1.390 . S
C703 H696 0.950 . S
C703 C700 1.387 . S
C704 C705 1.387 . S
C704 H708 0.950 . S
C704 C713 1.390 1_545 S
C705 C704 1.387 . S
C705 C707 1.387 . S
H706 C713 0.950 . S
C707 C705 1.387 . S
C707 C709 1.390 1_545 S
C707 H711 0.950 . S
H708 C704 0.950 . S
C709 C707 1.390 1_565 S
C709 C710 1.387 . S
C709 H712 0.950 . S
C710 C709 1.387 . S
C710 C713 1.387 . S
H711 C707 0.950 . S
H712 C709 0.950 . S
C713 C704 1.390 1_565 S
C713 H706 0.950 . S
C713 C710 1.387 . S
C714 C715 1.387 . S
C714 H718 0.950 . S
C714 C723 1.390 1_565 S
C715 C714 1.387 . S
C715 C717 1.387 . S
H716 C723 0.950 . S
C717 C715 1.387 . S
C717 C719 1.390 1_565 S
C717 H721 0.950 . S
H718 C714 0.950 . S
C719 C717 1.390 1_545 S
C719 C720 1.387 . S
C719 H722 0.950 . S
C720 C719 1.387 . S
C720 C723 1.387 . S
H721 C717 0.950 . S
H722 C719 0.950 . S
C723 C714 1.390 1_545 S
C723 H716 0.950 . S
C723 C720 1.387 . S
C724 C725 1.387 . S
C724 H728 0.950 . S
C724 C733 1.390 1_545 S
C725 C724 1.387 . S
C725 C727 1.387 . S
H726 C733 0.950 . S
C727 C725 1.387 . S
C727 C729 1.390 1_545 S
C727 H731 0.950 . S
H728 C724 0.950 . S
C729 C727 1.390 1_565 S
C729 C730 1.387 . S
C729 H732 0.950 . S
C730 C729 1.387 . S
C730 C733 1.387 . S
H731 C727 0.950 . S
H732 C729 0.950 . S
C733 C724 1.390 1_565 S
C733 H726 0.950 . S
C733 C730 1.387 . S
C734 C735 1.387 . S
C734 H738 0.950 . S
C734 C743 1.390 1_565 S
C735 C734 1.387 . S
C735 C737 1.387 . S
H736 C743 0.950 . S
C737 C735 1.387 . S
C737 C739 1.390 1_565 S
C737 H741 0.950 . S
H738 C734 0.950 . S
C739 C737 1.390 1_545 S
C739 C740 1.387 . S
C739 H742 0.950 . S
C740 C739 1.387 . S
C740 C743 1.387 . S
H741 C737 0.950 . S
H742 C739 0.950 . S
C743 C734 1.390 1_545 S
C743 H736 0.950 . S
C743 C740 1.387 . S
C744 C745 1.387 . S
C744 H748 0.950 . S
C744 C753 1.390 . S
C745 C744 1.387 . S
C745 C747 1.387 . S
H746 C753 0.950 . S
C747 C745 1.387 . S
C747 C749 1.390 . S
C747 H751 0.950 . S
H748 C744 0.950 . S
C749 C747 1.390 . S
C749 C750 1.387 . S
C749 H752 0.950 . S
C750 C749 1.387 . S
C750 C753 1.387 . S
H751 C747 0.950 . S
H752 C749 0.950 . S
C753 C744 1.390 . S
C753 H746 0.950 . S
C753 C750 1.387 . S
C754 C755 1.387 . S
C754 H758 0.950 . S
C754 C763 1.390 . S
C755 C754 1.387 . S
C755 C757 1.387 . S
H756 C763 0.950 . S
C757 C755 1.387 . S
C757 C759 1.390 . S
C757 H761 0.950 . S
H758 C754 0.950 . S
C759 C757 1.390 . S
C759 C760 1.387 . S
C759 H762 0.950 . S
C760 C759 1.387 . S
C760 C763 1.387 . S
H761 C757 0.950 . S
H762 C759 0.950 . S
C763 C754 1.390 . S
C763 H756 0.950 . S
C763 C760 1.387 . S
C764 C765 1.387 . S
C764 H768 0.950 . S
C764 C773 1.390 . S
C765 C764 1.387 . S
C765 C767 1.387 . S
H766 C773 0.950 . S
C767 C765 1.387 . S
C767 C769 1.390 . S
C767 H771 0.950 . S
H768 C764 0.950 . S
C769 C767 1.390 . S
C769 C770 1.387 . S
C769 H772 0.950 . S
C770 C769 1.387 . S
C770 C773 1.387 . S
H771 C767 0.950 . S
H772 C769 0.950 . S
C773 C764 1.390 . S
C773 H766 0.950 . S
C773 C770 1.387 . S
C774 C775 1.387 . S
C774 H778 0.950 . S
C774 C783 1.390 . S
C775 C774 1.387 . S
C775 C777 1.387 . S
H776 C783 0.950 . S
C777 C775 1.387 . S
C777 C779 1.390 . S
C777 H781 0.950 . S
H778 C774 0.950 . S
C779 C777 1.390 . S
C779 C780 1.387 . S
C779 H782 0.950 . S
C780 C779 1.387 . S
C780 C783 1.387 . S
H781 C777 0.950 . S
H782 C779 0.950 . S
C783 C774 1.390 . S
C783 H776 0.950 . S
C783 C780 1.387 . S
C784 C785 1.387 . S
C784 H788 0.950 . S
C784 C793 1.390 1_655 S
C785 C784 1.387 . S
C785 C787 1.387 . S
H786 C793 0.950 . S
C787 C785 1.387 . S
C787 C789 1.390 1_655 S
C787 H791 0.950 . S
H788 C784 0.950 . S
C789 C787 1.390 1_455 S
C789 C790 1.387 . S
C789 H792 0.950 . S
C790 C789 1.387 . S
C790 C793 1.387 . S
H791 C787 0.950 . S
H792 C789 0.950 . S
C793 C784 1.390 1_455 S
C793 H786 0.950 . S
C793 C790 1.387 . S
C794 C795 1.387 . S
C794 H798 0.950 . S
C794 C803 1.390 . S
C795 C794 1.387 . S
C795 C797 1.387 . S
H796 C803 0.950 . S
C797 C795 1.387 . S
C797 C799 1.390 . S
C797 H801 0.950 . S
H798 C794 0.950 . S
C799 C797 1.390 . S
C799 C800 1.387 . S
C799 H802 0.950 . S
C800 C799 1.387 . S
C800 C803 1.387 . S
H801 C797 0.950 . S
H802 C799 0.950 . S
C803 C794 1.390 . S
C803 H796 0.950 . S
C803 C800 1.387 . S
C804 C805 1.387 . S
C804 H808 0.950 . S
C804 C813 1.390 . S
C805 C804 1.387 . S
C805 C807 1.387 . S
H806 C813 0.950 . S
C807 C805 1.387 . S
C807 C809 1.390 . S
C807 H811 0.950 . S
H808 C804 0.950 . S
C809 C807 1.390 . S
C809 C810 1.387 . S
C809 H812 0.950 . S
C810 C809 1.387 . S
C810 C813 1.387 . S
H811 C807 0.950 . S
H812 C809 0.950 . S
C813 C804 1.390 . S
C813 H806 0.950 . S
C813 C810 1.387 . S
C814 C815 1.387 . S
C814 H818 0.950 . S
C814 C823 1.390 1_455 S
C815 C814 1.387 . S
C815 C817 1.387 . S
H816 C823 0.950 . S
C817 C815 1.387 . S
C817 C819 1.390 1_455 S
C817 H821 0.950 . S
H818 C814 0.950 . S
C819 C817 1.390 1_655 S
C819 C820 1.387 . S
C819 H822 0.950 . S
C820 C819 1.387 . S
C820 C823 1.387 . S
H821 C817 0.950 . S
H822 C819 0.950 . S
C823 C814 1.390 1_655 S
C823 H816 0.950 . S
C823 C820 1.387 . S
C824 C825 1.387 . S
C824 H828 0.950 . S
C824 C833 1.390 1_655 S
C825 C824 1.387 . S
C825 C827 1.387 . S
H826 C833 0.950 . S
C827 C825 1.387 . S
C827 C829 1.390 1_655 S
C827 H831 0.950 . S
H828 C824 0.950 . S
C829 C827 1.390 1_455 S
C829 C830 1.387 . S
C829 H832 0.950 . S
C830 C829 1.387 . S
C830 C833 1.387 . S
H831 C827 0.950 . S
H832 C829 0.950 . S
C833 C824 1.390 1_455 S
C833 H826 0.950 . S
C833 C830 1.387 . S
C834 C835 1.387 . S
C834 H838 0.950 . S
C834 C843 1.390 . S
C835 C834 1.387 . S
C835 C837 1.387 . S
H836 C843 0.950 . S
C837 C835 1.387 . S
C837 C839 1.390 . S
C837 H841 0.950 . S
H838 C834 0.950 . S
C839 C837 1.390 . S
C839 C840 1.387 . S
C839 H842 0.950 . S
C840 C839 1.387 . S
C840 C843 1.387 . S
H841 C837 0.950 . S
H842 C839 0.950 . S
C843 C834 1.390 . S
C843 H836 0.950 . S
C843 C840 1.387 . S
C844 C845 1.387 . S
C844 H848 0.950 . S
C844 C853 1.390 . S
C845 C844 1.387 . S
C845 C847 1.387 . S
H846 C853 0.950 . S
C847 C845 1.387 . S
C847 C849 1.390 . S
C847 H851 0.950 . S
H848 C844 0.950 . S
C849 C847 1.390 . S
C849 C850 1.387 . S
C849 H852 0.950 . S
C850 C849 1.387 . S
C850 C853 1.387 . S
H851 C847 0.950 . S
H852 C849 0.950 . S
C853 C844 1.390 . S
C853 H846 0.950 . S
C853 C850 1.387 . S
C854 C855 1.387 . S
C854 H858 0.950 . S
C854 C863 1.390 1_655 S
C855 C854 1.387 . S
C855 C857 1.387 . S
H856 C863 0.950 . S
C857 C855 1.387 . S
C857 C859 1.390 1_655 S
C857 H861 0.950 . S
H858 C854 0.950 . S
C859 C857 1.390 1_455 S
C859 C860 1.387 . S
C859 H862 0.950 . S
C860 C859 1.387 . S
C860 C863 1.387 . S
H861 C857 0.950 . S
H862 C859 0.950 . S
C863 C854 1.390 1_455 S
C863 H856 0.950 . S
C863 C860 1.387 . S
C864 C865 1.387 . S
C864 H868 0.950 . S
C864 C873 1.390 1_455 S
C865 C864 1.387 . S
C865 C867 1.387 . S
H866 C873 0.950 . S
C867 C865 1.387 . S
C867 C869 1.390 1_455 S
C867 H871 0.950 . S
H868 C864 0.950 . S
C869 C867 1.390 1_655 S
C869 C870 1.387 . S
C869 H872 0.950 . S
C870 C869 1.387 . S
C870 C873 1.387 . S
H871 C867 0.950 . S
H872 C869 0.950 . S
C873 C864 1.390 1_655 S
C873 H866 0.950 . S
C873 C870 1.387 . S
C874 C875 1.387 . S
C874 H878 0.950 . S
C874 C883 1.390 . S
C875 C874 1.387 . S
C875 C877 1.387 . S
H876 C883 0.950 . S
C877 C875 1.387 . S
C877 C879 1.390 . S
C877 H881 0.950 . S
H878 C874 0.950 . S
C879 C877 1.390 . S
C879 C880 1.387 . S
C879 H882 0.950 . S
C880 C879 1.387 . S
C880 C883 1.387 . S
H881 C877 0.950 . S
H882 C879 0.950 . S
C883 C874 1.390 . S
C883 H876 0.950 . S
C883 C880 1.387 . S
C884 C885 1.387 . S
C884 H888 0.950 . S
C884 C893 1.390 1_655 S
C885 C884 1.387 . S
C885 C887 1.387 . S
H886 C893 0.950 . S
C887 C885 1.387 . S
C887 C889 1.390 1_655 S
C887 H891 0.950 . S
H888 C884 0.950 . S
C889 C887 1.390 1_455 S
C889 C890 1.387 . S
C889 H892 0.950 . S
C890 C889 1.387 . S
C890 C893 1.387 . S
H891 C887 0.950 . S
H892 C889 0.950 . S
C893 C884 1.390 1_455 S
C893 H886 0.950 . S
C893 C890 1.387 . S
C894 C895 1.387 . S
C894 H898 0.950 . S
C894 C903 1.390 . S
C895 C894 1.387 . S
C895 C897 1.387 . S
H896 C903 0.950 . S
C897 C895 1.387 . S
C897 C899 1.390 . S
C897 H901 0.950 . S
H898 C894 0.950 . S
C899 C897 1.390 . S
C899 C900 1.387 . S
C899 H902 0.950 . S
C900 C899 1.387 . S
C900 C903 1.387 . S
H901 C897 0.950 . S
H902 C899 0.950 . S
C903 C894 1.390 . S
C903 H896 0.950 . S
C903 C900 1.387 . S
C904 C905 1.387 . S
C904 H908 0.950 . S
C904 C913 1.390 . S
C905 C904 1.387 . S
C905 C907 1.387 . S
H906 C913 0.950 . S
C907 C905 1.387 . S
C907 C909 1.390 . S
C907 H911 0.950 . S
H908 C904 0.950 . S
C909 C907 1.390 . S
C909 C910 1.387 . S
C909 H912 0.950 . S
C910 C909 1.387 . S
C910 C913 1.387 . S
H911 C907 0.950 . S
H912 C909 0.950 . S
C913 C904 1.390 . S
C913 H906 0.950 . S
C913 C910 1.387 . S
C914 C915 1.387 . S
C914 H918 0.950 . S
C914 C923 1.390 1_455 S
C915 C914 1.387 . S
C915 C917 1.387 . S
H916 C923 0.950 . S
C917 C915 1.387 . S
C917 C919 1.390 1_455 S
C917 H921 0.950 . S
H918 C914 0.950 . S
C919 C917 1.390 1_655 S
C919 C920 1.387 . S
C919 H922 0.950 . S
C920 C919 1.387 . S
C920 C923 1.387 . S
H921 C917 0.950 . S
H922 C919 0.950 . S
C923 C914 1.390 1_655 S
C923 H916 0.950 . S
C923 C920 1.387 . S
C924 C925 1.387 . S
C924 H928 0.950 . S
C924 C933 1.390 . S
C925 C924 1.387 . S
C925 C927 1.387 . S
H926 C933 0.950 . S
C927 C925 1.387 . S
C927 C929 1.390 . S
C927 H931 0.950 . S
H928 C924 0.950 . S
C929 C927 1.390 . S
C929 C930 1.387 . S
C929 H932 0.950 . S
C930 C929 1.387 . S
C930 C933 1.387 . S
H931 C927 0.950 . S
H932 C929 0.950 . S
C933 C924 1.390 . S
C933 H926 0.950 . S
C933 C930 1.387 . S
C934 C935 1.387 . S
C934 H938 0.950 . S
C934 C943 1.390 1_455 S
C935 C934 1.387 . S
C935 C937 1.387 . S
H936 C943 0.950 . S
C937 C935 1.387 . S
C937 C939 1.390 1_455 S
C937 H941 0.950 . S
H938 C934 0.950 . S
C939 C937 1.390 1_655 S
C939 C940 1.387 . S
C939 H942 0.950 . S
C940 C939 1.387 . S
C940 C943 1.387 . S
H941 C937 0.950 . S
H942 C939 0.950 . S
C943 C934 1.390 1_655 S
C943 H936 0.950 . S
C943 C940 1.387 . S
C545 C203 1.270 . S
C550 C20 1.268 . S
C555 C169 1.270 . S
C560 C54 1.268 . S
C565 C88 1.267 . S
C570 C271 1.270 . S
C575 C122 1.269 . S
C580 C237 1.272 . S
C585 C156 1.269 . S
C590 C67 1.272 . S
C595 C190 1.269 . S
C600 C33 1.272 . S
C605 C135 1.271 . S
C610 C224 1.268 . S
C615 C258 1.267 . S
C620 C101 1.270 . S
C625 C292 1.267 . S
C630 C475 1.270 . S
C635 C326 1.269 . S
C640 C441 1.272 . S
C645 C360 1.270 . S
C650 C543 1.272 . S
C655 C394 1.268 . S
C660 C509 1.271 . S
C665 C428 1.269 . S
C670 C339 1.271 . S
C675 C462 1.268 . S
C680 C305 1.270 . S
C685 C407 1.271 . S
C690 C496 1.268 . S
C695 C373 1.270 . S
C700 C530 1.268 . S
C705 C9 1.467 . S
C710 C43 1.467 . S
C715 C77 1.466 . S
C720 C111 1.466 . S
C725 C179 1.467 . S
C730 C145 1.467 . S
C735 C247 1.466 . S
C740 C213 1.466 . S
C745 C315 1.466 . S
C750 C281 1.466 . S
C755 C383 1.467 . S
C760 C349 1.467 . S
C765 C417 1.467 . S
C770 C451 1.467 . S
C775 C485 1.466 . S
C780 C519 1.466 . S
C785 C311 1.653 . S
C790 C5 1.653 . S
C795 C39 1.651 . S
C800 C277 1.651 . S
C805 C73 1.654 . S
C810 C379 1.654 . S
C815 C345 1.654 . S
C820 C107 1.654 . S
C825 C141 1.653 . S
C830 C447 1.653 . S
C835 C175 1.651 . S
C840 C413 1.651 . S
C845 C209 1.654 . S
C850 C515 1.654 . S
C855 C481 1.652 . S
C860 C243 1.652 . S
C865 C2 1.430 . S
C870 C104 1.430 . S
C875 C36 1.430 . S
C880 C70 1.430 . S
C885 C138 1.430 . S
C890 C240 1.430 . S
C895 C172 1.430 . S
C900 C206 1.430 . S
C905 C376 1.430 . S
C910 C274 1.430 . S
C915 C342 1.430 . S
C920 C308 1.430 . S
C925 C410 1.430 . S
C930 C512 1.430 . S
C935 C444 1.431 . S
C940 C478 1.431 . S
