# Generated by pormake.
# Topology dia, (4)-cn, num edge types: 1
# Building blocks:
#     Node 0, Type 0, BuildingBlock: QUQFOY_clean_sbu_1, # of connection points: 4
#     Node 1, Type 0, BuildingBlock: QUQFOY_clean_sbu_1, # of connection points: 4
#     Node 2, Type 0, BuildingBlock: QUQFOY_clean_sbu_1, # of connection points: 4
#     Node 3, Type 0, BuildingBlock: QUQFOY_clean_sbu_1, # of connection points: 4
#     Node 4, Type 0, BuildingBlock: QUQFOY_clean_sbu_1, # of connection points: 4
#     Node 5, Type 0, BuildingBlock: QUQFOY_clean_sbu_1, # of connection points: 4
#     Node 6, Type 0, BuildingBlock: QUQFOY_clean_sbu_1, # of connection points: 4
#     Node 7, Type 0, BuildingBlock: QUQFOY_clean_sbu_1, # of connection points: 4
#     Edge 8, Type (0, 0), BuildingBlock: XUDNAN_clean_linker_2, # of connection points: 2
#     Edge 9, Type (0, 0), BuildingBlock: XUDNAN_clean_linker_2, # of connection points: 2
#     Edge 10, Type (0, 0), BuildingBlock: XUDNAN_clean_linker_2, # of connection points: 2
#     Edge 11, Type (0, 0), BuildingBlock: XUDNAN_clean_linker_2, # of connection points: 2
#     Edge 12, Type (0, 0), BuildingBlock: XUDNAN_clean_linker_2, # of connection points: 2
#     Edge 13, Type (0, 0), BuildingBlock: XUDNAN_clean_linker_2, # of connection points: 2
#     Edge 14, Type (0, 0), BuildingBlock: XUDNAN_clean_linker_2, # of connection points: 2
#     Edge 15, Type (0, 0), BuildingBlock: XUDNAN_clean_linker_2, # of connection points: 2
#     Edge 16, Type (0, 0), BuildingBlock: XUDNAN_clean_linker_2, # of connection points: 2
#     Edge 17, Type (0, 0), BuildingBlock: XUDNAN_clean_linker_2, # of connection points: 2
#     Edge 18, Type (0, 0), BuildingBlock: XUDNAN_clean_linker_2, # of connection points: 2
#     Edge 19, Type (0, 0), BuildingBlock: XUDNAN_clean_linker_2, # of connection points: 2
#     Edge 20, Type (0, 0), BuildingBlock: XUDNAN_clean_linker_2, # of connection points: 2
#     Edge 21, Type (0, 0), BuildingBlock: XUDNAN_clean_linker_2, # of connection points: 2
#     Edge 22, Type (0, 0), BuildingBlock: XUDNAN_clean_linker_2, # of connection points: 2
#     Edge 23, Type (0, 0), BuildingBlock: XUDNAN_clean_linker_2, # of connection points: 2
# Relax obj value: 0.200
# Max RMSD: 0.231
# Mean RMSD: 0.231
data_MOF--net-dia--node1-QUQFOY_clean_sbu_1--edge1-XUDNAN_clean_linker_2
_symmetry_space_group_name_H-M    P1
_symmetry_Int_Tables_number       1
_symmetry_cell_setting            triclinic
loop_
_symmetry_equiv_pos_as_xyz
'x, y, z'
_cell_length_a     35.073226
_cell_length_b     34.890492
_cell_length_c     39.287553
_cell_angle_alpha  90.043749
_cell_angle_beta   89.941829
_cell_angle_gamma 101.36286
loop_
_atom_site_label
_atom_site_type_symbol
_atom_site_fract_x
_atom_site_fract_y
_atom_site_fract_z
_atom_type_partial_charge
O0 O 0.13248 0.17377 0.61044 0.0
Cd1 Cd 0.08411 0.14205 0.63424 0.0
Cd2 Cd 0.13999 0.09032 0.65042 0.0
O3 O 0.17359 0.1359 0.62451 0.0
O4 O 0.04571 0.17722 0.63331 0.0
O5 O 0.06732 0.15577 0.68106 0.0
C6 C 0.04544 0.17635 0.66608 0.0
C7 C 0.1781 0.05523 0.68318 0.0
C8 C 0.16625 0.16576 0.60935 0.0
C9 C 0.06788 0.06015 0.60664 0.0
O10 O 0.09816 0.05459 0.62205 0.0
O11 O 0.05688 0.09265 0.60881 0.0
O12 O 0.17893 0.05564 0.65057 0.0
O13 O 0.15516 0.07475 0.69795 0.0
O14 O 0.79208 0.3282 0.91948 0.0
Cd15 Cd 0.82534 0.37591 0.89571 0.0
Cd16 Cd 0.87297 0.32649 0.8803 0.0
O17 O 0.83041 0.28771 0.90516 0.0
O18 O 0.79224 0.41238 0.8793 0.0
O19 O 0.82558 0.38027 0.84519 0.0
C20 C 0.80235 0.40456 0.84883 0.0
C21 C 0.90077 0.3034 0.83204 0.0
C22 C 0.80043 0.29438 0.92043 0.0
C23 C 0.90329 0.39408 0.92748 0.0
O24 O 0.90951 0.36406 0.91176 0.0
O25 O 0.87132 0.40551 0.92377 0.0
O26 O 0.90763 0.29217 0.86221 0.0
O27 O 0.8779 0.32801 0.82906 0.0
O28 O 0.62354 0.15636 0.11098 0.0
Cd29 Cd 0.57632 0.12844 0.13858 0.0
Cd30 Cd 0.62995 0.07343 0.15261 0.0
O31 O 0.66191 0.11436 0.1208 0.0
O32 O 0.53979 0.16552 0.13665 0.0
O33 O 0.5629 0.14712 0.18492 0.0
C34 C 0.54121 0.16744 0.16936 0.0
C35 C 0.66961 0.03952 0.1848 0.0
C36 C 0.65531 0.14487 0.10622 0.0
C37 C 0.55264 0.04428 0.11639 0.0
O38 O 0.58302 0.0373 0.1307 0.0
O39 O 0.54502 0.07839 0.11673 0.0
O40 O 0.66628 0.03602 0.1524 0.0
O41 O 0.65003 0.06235 0.19969 0.0
O42 O 0.81774 0.83745 0.41469 0.0
Cd43 Cd 0.84951 0.88429 0.38885 0.0
Cd44 Cd 0.90186 0.83324 0.37776 0.0
O45 O 0.85796 0.79757 0.40402 0.0
O46 O 0.81366 0.9189 0.3744 0.0
O47 O 0.84582 0.88809 0.33824 0.0
C48 C 0.82161 0.91111 0.34336 0.0
C49 C 0.93881 0.79892 0.34315 0.0
C50 C 0.82721 0.80433 0.41789 0.0
C51 C 0.92778 0.90754 0.41986 0.0
O52 O 0.93526 0.87695 0.40601 0.0
O53 O 0.89492 0.91696 0.41564 0.0
O54 O 0.93945 0.79721 0.37575 0.0
O55 O 0.91687 0.8203 0.32953 0.0
O56 O 0.13135 0.65712 0.09646 0.0
Cd57 Cd 0.08842 0.6279 0.1279 0.0
Cd58 Cd 0.1386 0.57608 0.13805 0.0
O59 O 0.16961 0.61455 0.10368 0.0
O60 O 0.05604 0.66486 0.14458 0.0
O61 O 0.09147 0.63481 0.17836 0.0
C62 C 0.06769 0.65857 0.17487 0.0
C63 C 0.17735 0.5448 0.17336 0.0
C64 C 0.16222 0.6449 0.08936 0.0
C65 C 0.05996 0.54584 0.1055 0.0
O66 O 0.09114 0.53886 0.11825 0.0
O67 O 0.05267 0.58008 0.10654 0.0
O68 O 0.17477 0.53877 0.14115 0.0
O69 O 0.15784 0.56905 0.18614 0.0
O70 O 0.30514 0.34488 0.42025 0.0
Cd71 Cd 0.33701 0.39078 0.39321 0.0
Cd72 Cd 0.38425 0.34089 0.3782 0.0
O73 O 0.34462 0.30471 0.40819 0.0
O74 O 0.30316 0.42606 0.37591 0.0
O75 O 0.33491 0.39152 0.34259 0.0
C76 C 0.31189 0.41609 0.34563 0.0
C77 C 0.40853 0.31256 0.33074 0.0
C78 C 0.31497 0.31192 0.42363 0.0
C79 C 0.41728 0.41214 0.42021 0.0
O80 O 0.42309 0.38179 0.40476 0.0
O81 O 0.38442 0.42219 0.41846 0.0
O82 O 0.41784 0.30488 0.36129 0.0
O83 O 0.38513 0.33651 0.32691 0.0
O84 O 0.30349 0.83355 0.9086 0.0
Cd85 Cd 0.33908 0.88205 0.88824 0.0
Cd86 Cd 0.3899 0.82937 0.87734 0.0
O87 O 0.34134 0.79213 0.89543 0.0
O88 O 0.3059 0.91931 0.87388 0.0
O89 O 0.34089 0.89125 0.838 0.0
C90 C 0.31679 0.91441 0.84305 0.0
C91 C 0.43039 0.79788 0.84378 0.0
C92 C 0.31023 0.7991 0.90844 0.0
C93 C 0.41257 0.89764 0.92729 0.0
O94 O 0.41985 0.86739 0.91265 0.0
O95 O 0.382 0.91033 0.92011 0.0
O96 O 0.42596 0.79177 0.87586 0.0
O97 O 0.41166 0.82222 0.83007 0.0
O98 O 0.64256 0.66868 0.60484 0.0
Cd99 Cd 0.59597 0.63819 0.63168 0.0
Cd100 Cd 0.64503 0.58514 0.64456 0.0
O101 O 0.68087 0.62728 0.61656 0.0
O102 O 0.56272 0.67465 0.6477 0.0
O103 O 0.5941 0.64135 0.68237 0.0
C104 C 0.57127 0.66597 0.67835 0.0
C105 C 0.67917 0.54855 0.67961 0.0
C106 C 0.67494 0.65792 0.60173 0.0
C107 C 0.57081 0.55857 0.6032 0.0
O108 O 0.60082 0.55091 0.61764 0.0
O109 O 0.56243 0.59224 0.60598 0.0
O110 O 0.68035 0.54695 0.64703 0.0
O111 O 0.65837 0.57126 0.693 0.0
H112 H 0.24573 0.31161 0.45713 0.0
H113 H 0.34144 0.24964 0.44946 0.0
H114 H 0.3156 0.20897 0.49848 0.0
H115 H 0.23951 0.31326 0.54734 0.0
H116 H 0.18714 0.30416 0.54908 0.0
H117 H 0.21227 0.32854 0.51272 0.0
H118 H 0.17314 0.27637 0.47244 0.0
H119 H 0.14731 0.25232 0.50861 0.0
H120 H 0.17264 0.22535 0.48018 0.0
H121 H 0.28287 0.17833 0.55019 0.0
H122 H 0.23818 0.15056 0.59598 0.0
H123 H 0.16121 0.22944 0.5692 0.0
C124 C 0.26093 0.28913 0.46549 0.0
C125 C 0.2957 0.28395 0.4495 0.0
C126 C 0.31469 0.25413 0.46115 0.0
C127 C 0.30045 0.23105 0.48919 0.0
C128 C 0.26692 0.23776 0.50504 0.0
C129 C 0.24679 0.26533 0.49322 0.0
C130 C 0.21067 0.26546 0.51442 0.0
C131 C 0.21254 0.30522 0.53193 0.0
C132 C 0.17376 0.25419 0.49261 0.0
C133 C 0.21396 0.23387 0.54009 0.0
C134 C 0.24697 0.21878 0.53441 0.0
C135 C 0.2567 0.18959 0.55477 0.0
C136 C 0.23116 0.17418 0.58088 0.0
C137 C 0.19599 0.18763 0.58615 0.0
C138 C 0.18784 0.21856 0.56591 0.0
H139 H 0.68174 0.54205 0.74968 0.0
H140 H 0.72613 0.50094 0.65604 0.0
H141 H 0.76244 0.46029 0.68915 0.0
H142 H 0.76966 0.54675 0.79904 0.0
H143 H 0.74425 0.52987 0.83777 0.0
H144 H 0.72173 0.55631 0.80682 0.0
H145 H 0.66212 0.49916 0.80419 0.0
H146 H 0.68448 0.47254 0.83511 0.0
H147 H 0.6693 0.45054 0.79457 0.0
H148 H 0.79364 0.42368 0.73173 0.0
H149 H 0.81795 0.39325 0.78178 0.0
H150 H 0.75368 0.45743 0.84819 0.0
C151 C 0.69918 0.52457 0.7362 0.0
C152 C 0.70106 0.52474 0.70025 0.0
C153 C 0.72416 0.50135 0.68355 0.0
C154 C 0.74496 0.47811 0.70211 0.0
C155 C 0.74244 0.47849 0.73742 0.0
C156 C 0.72021 0.50105 0.75438 0.0
C157 C 0.72248 0.49573 0.79258 0.0
C158 C 0.74062 0.53447 0.81008 0.0
C159 C 0.68219 0.47845 0.80748 0.0
C160 C 0.74934 0.46663 0.79428 0.0
C161 C 0.76052 0.45716 0.76215 0.0
C162 C 0.78516 0.43086 0.75708 0.0
C163 C 0.7988 0.41371 0.78567 0.0
C164 C 0.78774 0.42292 0.8189 0.0
C165 C 0.76268 0.44978 0.82313 0.0
H166 H 0.49084 0.05037 0.075 0.0
H167 H 0.56345 0.9695 0.10722 0.0
H168 H 0.53465 0.92336 0.06259 0.0
H169 H 0.40449 0.97403 0.05218 0.0
H170 H 0.39285 0.00181 0.01633 0.0
H171 H 0.41618 0.02671 0.05324 0.0
H172 H 0.47129 0.06369 0.01467 0.0
H173 H 0.44868 0.03828 0.97777 0.0
H174 H 0.49829 0.03625 0.98817 0.0
H175 H 0.50516 0.89021 1.0105 0.0
H176 H 0.46847 0.86638 0.95889 0.0
H177 H 0.41271 0.96712 0.96096 0.0
C178 C 0.49992 0.02251 0.07333 0.0
C179 C 0.52954 0.01368 0.09461 0.0
C180 C 0.54083 0.97701 0.09129 0.0
C181 C 0.52476 0.95061 0.0659 0.0
C182 C 0.49706 0.96105 0.04435 0.0
C183 C 0.48398 -0.00437 0.04822 0.0
C184 C 0.45472 0.00011 0.02086 0.0
C185 C 0.41468 0.00068 0.0366 0.0
C186 C 0.46913 0.03676 0.99909 0.0
C187 C 0.45421 0.96308 1.00057 0.0
C188 C 0.47904 0.94116 0.01455 0.0
C189 C 0.4851 0.90673 0.9996 0.0
C190 C 0.46434 0.89366 0.97007 0.0
C191 C 0.43756 0.9148 0.9559 0.0
C192 C 0.4328 0.95021 0.97126 0.0
H193 H 0.94133 0.79131 0.27321 0.0
H194 H -0.00992 0.75607 0.36702 0.0
H195 H 0.02925 0.71782 0.33415 0.0
H196 H 0.93382 0.69959 0.23022 0.0
H197 H 0.94704 0.72098 0.18908 0.0
H198 H 0.92352 0.74683 0.21982 0.0
H199 H 0.98031 0.80664 0.21532 0.0
H200 H 0.00401 0.78096 0.18454 0.0
H201 H 0.02943 0.80029 0.22259 0.0
H202 H 0.06225 0.68224 0.29167 0.0
H203 H 0.08671 0.65131 0.24181 0.0
H204 H 0.01678 0.70912 0.17539 0.0
C205 C 0.96039 0.7757 0.28678 0.0
C206 C 0.96261 0.77675 0.3227 0.0
C207 C -0.0122 0.75575 0.33952 0.0
C208 C 0.01027 0.73393 0.3211 0.0
C209 C 0.0073 0.73333 0.2858 0.0
C210 C 0.98306 0.75362 0.26874 0.0
C211 C 0.98491 0.74736 0.23064 0.0
C212 C 0.94495 0.7275 0.21663 0.0
C213 C 0.00061 0.78612 0.21219 0.0
C214 C 0.01372 0.72021 0.22909 0.0
C215 C 0.02636 0.71262 0.2612 0.0
C216 C 0.05268 0.68802 0.26635 0.0
C217 C 0.06639 0.67057 0.23788 0.0
C218 C 0.05371 0.67778 0.20471 0.0
C219 C 0.02712 0.70307 0.2004 0.0
H220 H 0.26348 0.96239 0.84569 0.0
H221 H 0.33504 0.91104 0.77549 0.0
H222 H 0.308 0.94261 0.72743 0.0
H223 H 0.17937 0.95114 0.79268 0.0
H224 H 0.16688 -0.00314 0.80513 0.0
H225 H 0.19271 0.97134 0.83424 0.0
H226 H 0.24731 0.03297 0.83965 0.0
H227 H 0.22161 0.05873 0.8106 0.0
H228 H 0.2712 0.05501 0.8018 0.0
H229 H 0.27237 0.97805 0.68713 0.0
H230 H 0.23076 0.01565 0.65663 0.0
H231 H 0.18188 0.04447 0.75275 0.0
C232 C 0.27366 0.95794 0.82023 0.0
C233 C 0.30145 0.93425 0.81434 0.0
C234 C 0.31383 0.92906 0.78063 0.0
C235 C 0.29865 0.94688 0.75318 0.0
C236 C 0.27116 0.96981 0.75987 0.0
C237 C 0.25879 0.97548 0.79253 0.0
C238 C 0.22844 0.00104 0.79263 0.0
C239 C 0.18955 -0.02125 0.80702 0.0
C240 C 0.24302 0.0392 0.81233 0.0
C241 C 0.2255 0.00866 0.75485 0.0
C242 C 0.25048 -0.00962 0.7365 0.0
C243 C 0.25278 -0.00741 0.70121 0.0
C244 C 0.22893 0.01403 0.68413 0.0
C245 C 0.20301 0.03307 0.70228 0.0
C246 C 0.20142 0.03035 0.73817 0.0
H247 H 0.90689 0.46476 0.95992 0.0
H248 H 0.96261 0.36415 0.95463 0.0
H249 H 0.00445 0.38983 1.00296 0.0
H250 H -0.00502 0.53475 0.97979 0.0
H251 H 0.97061 0.56316 1.00774 0.0
H252 H 0.94451 0.53643 0.97294 0.0
H253 H 0.8926 0.5013 0.01542 0.0
H254 H 0.919 0.52739 0.05044 0.0
H255 H 0.90745 0.47471 0.05074 0.0
H256 H 0.03823 0.42423 0.05279 0.0
H257 H 0.07027 0.47113 0.09556 0.0
H258 H -0.00482 0.55138 0.0676 0.0
C259 C 0.9281 0.44831 0.96878 0.0
C260 C 0.93136 0.41237 0.95356 0.0
C261 C 0.95964 0.39182 0.96575 0.0
C262 C 0.98332 0.40596 0.99342 0.0
C263 C 0.97868 0.44087 1.00839 0.0
C264 C 0.95243 0.46227 0.99615 0.0
C265 C 0.95478 0.49991 0.01602 0.0
C266 C 0.96696 0.53567 0.99274 0.0
C267 C 0.91615 0.50086 0.03423 0.0
C268 C 0.98651 0.49623 0.04126 0.0
C269 C -0.00067 0.4616 0.03669 0.0
C270 C 0.02863 0.45157 0.05657 0.0
C271 C 0.04652 0.4784 0.08093 0.0
C272 C 0.0354 0.51508 0.08489 0.0
C273 C 0.00423 0.52355 0.06536 0.0
H274 H 0.45859 0.26153 0.33217 0.0
H275 H 0.39463 0.32239 0.26286 0.0
H276 H 0.42177 0.29185 0.214 0.0
H277 H 0.54492 0.27008 0.28139 0.0
H278 H 0.55317 0.22227 0.29253 0.0
H279 H 0.52854 0.24874 0.32192 0.0
H280 H 0.47007 0.19035 0.32405 0.0
H281 H 0.49452 0.16367 0.29469 0.0
H282 H 0.4465 0.17173 0.28499 0.0
H283 H 0.45595 0.25467 0.17289 0.0
H284 H 0.49447 0.21363 0.14228 0.0
H285 H 0.53622 0.17715 0.23867 0.0
C286 C 0.45022 0.26848 0.30673 0.0
C287 C 0.42446 0.29437 0.30131 0.0
C288 C 0.4143 0.30265 0.26761 0.0
C289 C 0.42957 0.28545 0.23973 0.0
C290 C 0.45492 0.26009 0.24602 0.0
C291 C 0.46516 0.25162 0.27869 0.0
C292 C 0.49296 0.22343 0.27858 0.0
C293 C 0.53222 0.24227 0.29455 0.0
C294 C 0.47492 0.18502 0.29664 0.0
C295 C 0.49683 0.21733 0.24069 0.0
C296 C 0.47463 0.23873 0.22237 0.0
C297 C 0.47343 0.2378 0.18697 0.0
C298 C 0.49545 0.21437 0.16982 0.0
C299 C 0.51841 0.19215 0.18806 0.0
C300 C 0.51903 0.19379 0.22399 0.0
H301 H 0.76046 0.80788 0.45393 0.0
H302 H 0.84605 0.73515 0.43674 0.0
H303 H 0.81741 0.69173 0.48319 0.0
H304 H 0.75844 0.80192 0.54339 0.0
H305 H 0.70674 0.79873 0.54771 0.0
H306 H 0.73215 0.82359 0.51169 0.0
H307 H 0.68596 0.77876 0.47032 0.0
H308 H 0.65987 0.75432 0.50622 0.0
H309 H 0.67969 0.72643 0.47446 0.0
H310 H 0.78428 0.65987 0.53425 0.0
H311 H 0.74098 0.63413 0.58159 0.0
H312 H 0.6744 0.72518 0.56492 0.0
C313 C 0.77273 0.78243 0.45951 0.0
C314 C 0.80566 0.7751 0.44174 0.0
C315 C 0.82086 0.74148 0.44991 0.0
C316 C 0.80496 0.7167 0.47642 0.0
C317 C 0.77356 0.72561 0.49424 0.0
C318 C 0.75695 0.75706 0.48574 0.0
C319 C 0.72307 0.75967 0.50904 0.0
C320 C 0.73057 0.79827 0.52914 0.0
C321 C 0.68488 0.75447 0.4888 0.0
C322 C 0.72369 0.72507 0.53218 0.0
C323 C 0.75337 0.7062 0.52332 0.0
C324 C 0.7606 0.67405 0.54124 0.0
C325 C 0.73594 0.65985 0.56829 0.0
C326 C 0.70411 0.67751 0.57695 0.0
C327 C 0.69842 0.71102 0.55896 0.0
H328 H 0.18447 0.5444 0.24339 0.0
H329 H 0.22516 0.49755 0.1507 0.0
H330 H 0.26455 0.46068 0.18464 0.0
H331 H 0.27536 0.55444 0.29013 0.0
H332 H 0.25187 0.5399 0.33021 0.0
H333 H 0.22749 0.56375 0.29864 0.0
H334 H 0.16858 0.50579 0.30025 0.0
H335 H 0.19282 0.48173 0.33174 0.0
H336 H 0.17617 0.45687 0.29267 0.0
H337 H 0.29846 0.42768 0.22807 0.0
H338 H 0.3251 0.40076 0.27885 0.0
H339 H 0.26264 0.46835 0.34372 0.0
C340 C 0.20187 0.52658 0.23028 0.0
C341 C 0.20172 0.52392 0.19438 0.0
C342 C 0.22472 0.50008 0.17817 0.0
C343 C 0.24728 0.479 0.19721 0.0
C344 C 0.24659 0.48199 0.23249 0.0
C345 C 0.22458 0.50517 0.24895 0.0
C346 C 0.22864 0.50251 0.28724 0.0
C347 C 0.24694 0.54253 0.30244 0.0
C348 C 0.18921 0.48572 0.30395 0.0
C349 C 0.25614 0.47409 0.2896 0.0
C350 C 0.26618 0.46273 0.25769 0.0
C351 C 0.29092 0.43641 0.25324 0.0
C352 C 0.30588 0.42125 0.28224 0.0
C353 C 0.29599 0.43242 0.31525 0.0
C354 C 0.2708 0.45925 0.31884 0.0
H355 H 0.73626 0.29833 0.95978 0.0
H356 H 0.81685 0.22268 0.9342 0.0
H357 H 0.78913 0.17746 0.97982 0.0
H358 H 0.73953 0.28789 0.04835 0.0
H359 H 0.68857 0.28665 0.0557 0.0
H360 H 0.71241 0.31231 0.01937 0.0
H361 H 0.66204 0.27108 0.97893 0.0
H362 H 0.63751 0.24588 0.0152 0.0
H363 H 0.65376 0.21848 0.98106 0.0
H364 H 0.75803 0.14416 0.03132 0.0
H365 H 0.71756 0.11831 0.08042 0.0
H366 H 0.65488 0.21366 0.07183 0.0
C367 C 0.74752 0.27184 0.96327 0.0
C368 C 0.77885 0.26419 0.94343 0.0
C369 C 0.79285 0.22925 0.94897 0.0
C370 C 0.77745 0.20343 0.97497 0.0
C371 C 0.74775 0.21267 0.99492 0.0
C372 C 0.73224 0.24548 0.98896 0.0
C373 C 0.70041 0.24847 0.01438 0.0
C374 C 0.71088 0.28606 0.03571 0.0
C375 C 0.6611 0.2458 0.99631 0.0
C376 C 0.70099 0.21252 0.03582 0.0
C377 C 0.7288 0.19258 0.02427 0.0
C378 C 0.73577 0.15917 0.04039 0.0
C379 C 0.71278 0.14493 0.06846 0.0
C380 C 0.68287 0.16384 0.07995 0.0
C381 C 0.67741 0.19847 0.06364 0.0
H382 H 0.76995 0.96082 0.34642 0.0
H383 H 0.83105 0.89895 0.27529 0.0
H384 H 0.79909 0.9257 0.22735 0.0
H385 H 0.67983 0.94662 0.30086 0.0
H386 H 0.67042 -0.00566 0.3108 0.0
H387 H 0.69856 0.97094 0.33962 0.0
H388 H 0.75508 0.03111 0.3365 0.0
H389 H 0.7271 0.05474 0.30771 0.0
H390 H 0.77494 0.04801 0.29562 0.0
H391 H 0.75996 0.95788 0.18742 0.0
H392 H 0.71675 -0.00578 0.15749 0.0
H393 H 0.68093 0.03599 0.2543 0.0
C394 C 0.77673 0.95297 0.32076 0.0
C395 C 0.80304 0.92776 0.31459 0.0
C396 C 0.81105 0.9182 0.28064 0.0
C397 C 0.79303 0.93324 0.25325 0.0
C398 C 0.76715 0.95785 0.26024 0.0
C399 C 0.75904 0.96776 0.29312 0.0
C400 C 0.72989 -0.00537 0.29358 0.0
C401 C 0.69246 0.97547 0.31233 0.0
C402 C 0.74784 0.03449 0.30928 0.0
C403 C 0.72277 -0.00183 0.25578 0.0
C404 C 0.74459 0.97667 0.23709 0.0
C405 C 0.7428 0.9749 0.20176 0.0
C406 C 0.71808 -0.00434 0.18501 0.0
C407 C 0.69542 0.01802 0.20353 0.0
C408 C 0.69792 0.01926 0.23943 0.0
H409 H 0.92234 0.97369 0.45662 0.0
H410 H -0.00402 0.8886 0.44047 0.0
H411 H 0.03734 0.91671 0.48827 0.0
H412 H 0.0018 0.05477 0.47929 0.0
H413 H 0.97305 0.0741 0.51061 0.0
H414 H 0.94982 0.04802 0.47421 0.0
H415 H 0.90461 0.00084 0.51463 0.0
H416 H 0.92825 0.02626 0.55116 0.0
H417 H 0.92568 0.9744 0.54663 0.0
H418 H 0.06764 0.94985 0.54003 0.0
H419 H 0.09228 -0.00626 0.58744 0.0
H420 H 0.00124 0.05968 0.56929 0.0
C421 C 0.94753 0.96139 0.46276 0.0
C422 C 0.95573 0.92879 0.44481 0.0
C423 C -0.01101 0.91355 0.45374 0.0
C424 C 0.01259 0.92913 0.48103 0.0
C425 C 0.00287 0.96024 0.49892 0.0
C426 C 0.97173 0.97685 0.48979 0.0
C427 C 0.96826 0.01061 0.51314 0.0
C428 C 0.97357 0.04916 0.49312 0.0
C429 C 0.92939 0.00252 0.53253 0.0
C430 C 0.00218 0.01007 0.53689 0.0
C431 C 0.02134 -0.01959 0.52841 0.0
C432 C 0.05317 0.97347 0.54678 0.0
C433 C 0.06676 -0.00154 0.57385 0.0
C434 C 0.04883 0.03034 0.58207 0.0
C435 C 0.01559 0.03562 0.56368 0.0
H436 H 0.95212 0.25366 0.83173 0.0
H437 H 0.8901 0.31898 0.76461 0.0
H438 H 0.92027 0.29332 0.71479 0.0
H439 H 0.04097 0.26831 0.78383 0.0
H440 H 0.04982 0.22006 0.79234 0.0
H441 H 0.02311 0.24335 0.82255 0.0
H442 H 0.96571 0.18395 0.81974 0.0
H443 H -0.00777 0.16047 0.78951 0.0
H444 H 0.94431 0.16831 0.7791 0.0
H445 H 0.95714 0.26034 0.67246 0.0
H446 H -0.00167 0.22312 0.64053 0.0
H447 H 0.03656 0.17966 0.73557 0.0
C448 C 0.94481 0.26261 0.80657 0.0
C449 C 0.91871 0.28833 0.80204 0.0
C450 C 0.91001 0.29933 0.76868 0.0
C451 C 0.92699 0.28488 0.74026 0.0
C452 C 0.95259 0.25956 0.74567 0.0
C453 C 0.9615 0.24856 0.778 0.0
C454 C -0.00996 0.22115 0.77695 0.0
C455 C 0.02825 0.23932 0.79498 0.0
C456 C 0.97198 0.1811 0.79223 0.0
C457 C -0.00416 0.2184 0.73891 0.0
C458 C 0.97394 0.24073 0.72134 0.0
C459 C 0.97442 0.24279 0.68596 0.0
C460 C -0.00206 0.2215 0.66806 0.0
C461 C 0.02073 0.19847 0.68554 0.0
C462 C 0.01954 0.197 0.72146 0.0
H463 H 0.52207 0.71824 0.67778 0.0
H464 H 0.58359 0.65343 0.74586 0.0
H465 H 0.55558 0.68185 0.79527 0.0
H466 H 0.53278 0.80608 0.72929 0.0
H467 H 0.48502 0.81454 0.71914 0.0
H468 H 0.51067 0.78995 0.68902 0.0
H469 H 0.45244 0.73132 0.68742 0.0
H470 H 0.42661 0.7557 0.71751 0.0
H471 H 0.43476 0.70733 0.7266 0.0
H472 H 0.51975 0.71546 0.837 0.0
H473 H 0.4784 0.75227 0.8689 0.0
H474 H 0.44006 0.79603 0.77401 0.0
C475 C 0.52983 0.71014 0.70308 0.0
C476 C 0.55507 0.68359 0.70796 0.0
C477 C 0.56436 0.6737 0.74148 0.0
C478 C 0.54863 0.68972 0.7697 0.0
C479 C 0.52375 0.71565 0.76397 0.0
C480 C 0.51441 0.72588 0.73154 0.0
C481 C 0.48638 0.7539 0.73248 0.0
C482 C 0.50483 0.79346 0.71654 0.0
C483 C 0.44776 0.73598 0.71497 0.0
C484 C 0.48115 0.75754 0.77055 0.0
C485 C 0.50308 0.73527 0.78817 0.0
C486 C 0.50258 0.73313 0.82351 0.0
C487 C 0.4789 0.75415 0.84139 0.0
C488 C 0.45599 0.7771 0.82397 0.0
C489 C 0.45739 0.77895 0.78804 0.0
H490 H 0.16538 0.71691 0.05933 0.0
H491 H 0.21562 0.61267 0.05514 0.0
H492 H 0.2532 0.63837 1.00444 0.0
H493 H 0.15838 0.73125 0.96857 0.0
H494 H 0.17261 0.78373 0.97081 0.0
H495 H 0.14792 0.75685 1.00626 0.0
H496 H 0.20428 0.78741 0.04654 0.0
H497 H 0.22871 0.81489 0.01136 0.0
H498 H 0.25339 0.78354 0.03587 0.0
H499 H 0.28457 0.67399 0.95429 0.0
H500 H 0.31647 0.72249 0.91267 0.0
H501 H 0.24848 0.80534 0.94997 0.0
C502 C 0.18437 0.69959 0.04777 0.0
C503 C 0.18744 0.66273 0.06115 0.0
C504 C 0.21287 0.64107 0.04548 0.0
C505 C 0.23407 0.6552 0.01644 0.0
C506 C 0.22982 0.69119 1.0035 0.0
C507 C 0.20626 0.71352 0.01893 0.0
C508 C 0.20908 0.75239 1.00095 0.0
C509 C 0.16964 0.75626 0.98575 0.0
C510 C 0.22482 0.78657 0.02511 0.0
C511 C 0.23817 0.74842 0.97326 0.0
C512 C 0.2491 0.71255 0.97489 0.0
C513 C 0.27633 0.70224 0.9527 0.0
C514 C 0.29419 0.73 0.92906 0.0
C515 C 0.28511 0.76782 0.92809 0.0
C516 C 0.25582 0.77662 0.94984 0.0
H517 H 0.41777 0.48012 0.45621 0.0
H518 H 0.48352 0.38836 0.4396 0.0
H519 H 0.52745 0.41448 0.4864 0.0
H520 H 0.50269 0.55661 0.47672 0.0
H521 H 0.47665 0.57891 0.50823 0.0
H522 H 0.45103 0.55374 0.47245 0.0
H523 H 0.40392 0.51017 0.51401 0.0
H524 H 0.42992 0.53462 0.54993 0.0
H525 H 0.4233 0.48226 0.54597 0.0
H526 H 0.56055 0.44617 0.53752 0.0
H527 H 0.58905 0.48919 0.58423 0.0
H528 H 0.50454 0.56302 0.56676 0.0
C529 C 0.44179 0.46593 0.46204 0.0
C530 C 0.44704 0.43207 0.44427 0.0
C531 C 0.47887 0.41437 0.45271 0.0
C532 C 0.50387 0.42879 0.47945 0.0
C533 C 0.49702 0.46124 0.49722 0.0
C534 C 0.46744 0.48025 0.48845 0.0
C535 C 0.46713 0.51506 0.5115 0.0
C536 C 0.47485 0.55335 0.491 0.0
C537 C 0.42878 0.51021 0.53154 0.0
C538 C 0.50093 0.51227 0.53475 0.0
C539 C 0.51731 0.48065 0.52624 0.0
C540 C 0.54834 0.47133 0.54424 0.0
C541 C 0.56413 0.49587 0.57093 0.0
C542 C 0.5492 0.52969 0.57911 0.0
C543 C 0.51663 0.53745 0.56115 0.0
loop_
_geom_bond_atom_site_label_1
_geom_bond_atom_site_label_2
_geom_bond_distance
_geom_bond_site_symmetry_2
_ccdc_geom_bond_type
O0 Cd1 2.223 . S
O0 C8 1.315 . S
Cd1 O0 2.223 . S
Cd1 O4 2.297 . S
Cd1 O5 2.439 . S
Cd1 O11 2.240 . S
Cd2 O3 2.240 . S
Cd2 O10 2.223 . S
Cd2 O12 2.297 . S
Cd2 O13 2.439 . S
O3 Cd2 2.240 . S
O3 C8 1.279 . S
O4 Cd1 2.297 . S
O4 C6 1.247 . S
O5 Cd1 2.439 . S
O5 C6 1.208 . S
C6 O4 1.247 . S
C6 O5 1.208 . S
C7 O12 1.247 . S
C7 O13 1.208 . S
C8 O0 1.315 . S
C8 O3 1.279 . S
C9 O10 1.315 . S
C9 O11 1.279 . S
O10 Cd2 2.223 . S
O10 C9 1.315 . S
O11 Cd1 2.240 . S
O11 C9 1.279 . S
O12 Cd2 2.297 . S
O12 C7 1.247 . S
O13 Cd2 2.439 . S
O13 C7 1.208 . S
O14 Cd15 2.223 . S
O14 C22 1.315 . S
Cd15 O14 2.223 . S
Cd15 O18 2.297 . S
Cd15 O19 2.439 . S
Cd15 O25 2.240 . S
Cd16 O17 2.240 . S
Cd16 O24 2.223 . S
Cd16 O26 2.297 . S
Cd16 O27 2.439 . S
O17 Cd16 2.240 . S
O17 C22 1.279 . S
O18 Cd15 2.297 . S
O18 C20 1.247 . S
O19 Cd15 2.439 . S
O19 C20 1.208 . S
C20 O18 1.247 . S
C20 O19 1.208 . S
C21 O26 1.247 . S
C21 O27 1.208 . S
C22 O14 1.315 . S
C22 O17 1.279 . S
C23 O24 1.315 . S
C23 O25 1.279 . S
O24 Cd16 2.223 . S
O24 C23 1.315 . S
O25 Cd15 2.240 . S
O25 C23 1.279 . S
O26 Cd16 2.297 . S
O26 C21 1.247 . S
O27 Cd16 2.439 . S
O27 C21 1.208 . S
O28 Cd29 2.223 . S
O28 C36 1.315 . S
Cd29 O28 2.223 . S
Cd29 O32 2.297 . S
Cd29 O33 2.439 . S
Cd29 O39 2.240 . S
Cd30 O31 2.240 . S
Cd30 O38 2.223 . S
Cd30 O40 2.297 . S
Cd30 O41 2.439 . S
O31 Cd30 2.240 . S
O31 C36 1.279 . S
O32 Cd29 2.297 . S
O32 C34 1.247 . S
O33 Cd29 2.439 . S
O33 C34 1.208 . S
C34 O32 1.247 . S
C34 O33 1.208 . S
C35 O40 1.247 . S
C35 O41 1.208 . S
C36 O28 1.315 . S
C36 O31 1.279 . S
C37 O38 1.315 . S
C37 O39 1.279 . S
O38 Cd30 2.223 . S
O38 C37 1.315 . S
O39 Cd29 2.240 . S
O39 C37 1.279 . S
O40 Cd30 2.297 . S
O40 C35 1.247 . S
O41 Cd30 2.439 . S
O41 C35 1.208 . S
O42 Cd43 2.223 . S
O42 C50 1.315 . S
Cd43 O42 2.223 . S
Cd43 O46 2.297 . S
Cd43 O47 2.439 . S
Cd43 O53 2.240 . S
Cd44 O45 2.240 . S
Cd44 O52 2.223 . S
Cd44 O54 2.297 . S
Cd44 O55 2.439 . S
O45 Cd44 2.240 . S
O45 C50 1.279 . S
O46 Cd43 2.297 . S
O46 C48 1.247 . S
O47 Cd43 2.439 . S
O47 C48 1.208 . S
C48 O46 1.247 . S
C48 O47 1.208 . S
C49 O54 1.247 . S
C49 O55 1.208 . S
C50 O42 1.315 . S
C50 O45 1.279 . S
C51 O52 1.315 . S
C51 O53 1.279 . S
O52 Cd44 2.223 . S
O52 C51 1.315 . S
O53 Cd43 2.240 . S
O53 C51 1.279 . S
O54 Cd44 2.297 . S
O54 C49 1.247 . S
O55 Cd44 2.439 . S
O55 C49 1.208 . S
O56 Cd57 2.223 . S
O56 C64 1.315 . S
Cd57 O56 2.223 . S
Cd57 O60 2.297 . S
Cd57 O61 2.439 . S
Cd57 O67 2.240 . S
Cd58 O59 2.240 . S
Cd58 O66 2.223 . S
Cd58 O68 2.297 . S
Cd58 O69 2.439 . S
O59 Cd58 2.240 . S
O59 C64 1.279 . S
O60 Cd57 2.297 . S
O60 C62 1.247 . S
O61 Cd57 2.439 . S
O61 C62 1.208 . S
C62 O60 1.247 . S
C62 O61 1.208 . S
C63 O68 1.247 . S
C63 O69 1.208 . S
C64 O56 1.315 . S
C64 O59 1.279 . S
C65 O66 1.315 . S
C65 O67 1.279 . S
O66 Cd58 2.223 . S
O66 C65 1.315 . S
O67 Cd57 2.240 . S
O67 C65 1.279 . S
O68 Cd58 2.297 . S
O68 C63 1.247 . S
O69 Cd58 2.439 . S
O69 C63 1.208 . S
O70 Cd71 2.223 . S
O70 C78 1.315 . S
Cd71 O70 2.223 . S
Cd71 O74 2.297 . S
Cd71 O75 2.439 . S
Cd71 O81 2.240 . S
Cd72 O73 2.240 . S
Cd72 O80 2.223 . S
Cd72 O82 2.297 . S
Cd72 O83 2.439 . S
O73 Cd72 2.240 . S
O73 C78 1.279 . S
O74 Cd71 2.297 . S
O74 C76 1.247 . S
O75 Cd71 2.439 . S
O75 C76 1.208 . S
C76 O74 1.247 . S
C76 O75 1.208 . S
C77 O82 1.247 . S
C77 O83 1.208 . S
C78 O70 1.315 . S
C78 O73 1.279 . S
C79 O80 1.315 . S
C79 O81 1.279 . S
O80 Cd72 2.223 . S
O80 C79 1.315 . S
O81 Cd71 2.240 . S
O81 C79 1.279 . S
O82 Cd72 2.297 . S
O82 C77 1.247 . S
O83 Cd72 2.439 . S
O83 C77 1.208 . S
O84 Cd85 2.223 . S
O84 C92 1.315 . S
Cd85 O84 2.223 . S
Cd85 O88 2.297 . S
Cd85 O89 2.439 . S
Cd85 O95 2.240 . S
Cd86 O87 2.240 . S
Cd86 O94 2.223 . S
Cd86 O96 2.297 . S
Cd86 O97 2.439 . S
O87 Cd86 2.240 . S
O87 C92 1.279 . S
O88 Cd85 2.297 . S
O88 C90 1.247 . S
O89 Cd85 2.439 . S
O89 C90 1.208 . S
C90 O88 1.247 . S
C90 O89 1.208 . S
C91 O96 1.247 . S
C91 O97 1.208 . S
C92 O84 1.315 . S
C92 O87 1.279 . S
C93 O94 1.315 . S
C93 O95 1.279 . S
O94 Cd86 2.223 . S
O94 C93 1.315 . S
O95 Cd85 2.240 . S
O95 C93 1.279 . S
O96 Cd86 2.297 . S
O96 C91 1.247 . S
O97 Cd86 2.439 . S
O97 C91 1.208 . S
O98 Cd99 2.223 . S
O98 C106 1.315 . S
Cd99 O98 2.223 . S
Cd99 O102 2.297 . S
Cd99 O103 2.439 . S
Cd99 O109 2.240 . S
Cd100 O101 2.240 . S
Cd100 O108 2.223 . S
Cd100 O110 2.297 . S
Cd100 O111 2.439 . S
O101 Cd100 2.240 . S
O101 C106 1.279 . S
O102 Cd99 2.297 . S
O102 C104 1.247 . S
O103 Cd99 2.439 . S
O103 C104 1.208 . S
C104 O102 1.247 . S
C104 O103 1.208 . S
C105 O110 1.247 . S
C105 O111 1.208 . S
C106 O98 1.315 . S
C106 O101 1.279 . S
C107 O108 1.315 . S
C107 O109 1.279 . S
O108 Cd100 2.223 . S
O108 C107 1.315 . S
O109 Cd99 2.240 . S
O109 C107 1.279 . S
O110 Cd100 2.297 . S
O110 C105 1.247 . S
O111 Cd100 2.439 . S
O111 C105 1.208 . S
H112 C124 0.930 . S
H113 C126 0.930 . S
H114 C127 0.930 . S
H115 C131 0.959 . S
H116 C131 0.959 . S
H117 C131 0.961 . S
H118 C132 0.960 . S
H119 C132 0.961 . S
H120 C132 0.959 . S
H121 C135 0.929 . S
H122 C136 0.931 . S
H123 C138 0.930 . S
C124 H112 0.930 . S
C124 C125 1.399 . S
C124 C129 1.399 . S
C125 C124 1.399 . S
C125 C126 1.376 . S
C126 H113 0.930 . S
C126 C125 1.376 . S
C126 C127 1.388 . S
C127 H114 0.930 . S
C127 C126 1.388 . S
C127 C128 1.390 . S
C128 C127 1.390 . S
C128 C129 1.394 . S
C128 C134 1.465 . S
C129 C124 1.399 . S
C129 C128 1.394 . S
C129 C130 1.516 . S
C130 C129 1.516 . S
C130 C131 1.502 . S
C130 C132 1.561 . S
C130 C133 1.526 . S
C131 H115 0.959 . S
C131 H116 0.959 . S
C131 H117 0.961 . S
C131 C130 1.502 . S
C132 H118 0.960 . S
C132 H119 0.961 . S
C132 H120 0.959 . S
C132 C130 1.561 . S
C133 C130 1.526 . S
C133 C134 1.396 . S
C133 C138 1.390 . S
C134 C128 1.465 . S
C134 C133 1.396 . S
C134 C135 1.399 . S
C135 H121 0.929 . S
C135 C134 1.399 . S
C135 C136 1.385 . S
C136 H122 0.931 . S
C136 C135 1.385 . S
C136 C137 1.389 . S
C137 C136 1.389 . S
C137 C138 1.387 . S
C138 H123 0.930 . S
C138 C133 1.390 . S
C138 C137 1.387 . S
H139 C151 0.930 . S
H140 C153 0.930 . S
H141 C154 0.930 . S
H142 C158 0.959 . S
H143 C158 0.959 . S
H144 C158 0.961 . S
H145 C159 0.960 . S
H146 C159 0.961 . S
H147 C159 0.959 . S
H148 C162 0.929 . S
H149 C163 0.931 . S
H150 C165 0.930 . S
C151 H139 0.930 . S
C151 C152 1.399 . S
C151 C156 1.399 . S
C152 C151 1.399 . S
C152 C153 1.376 . S
C153 H140 0.930 . S
C153 C152 1.376 . S
C153 C154 1.388 . S
C154 H141 0.930 . S
C154 C153 1.388 . S
C154 C155 1.390 . S
C155 C154 1.390 . S
C155 C156 1.394 . S
C155 C161 1.465 . S
C156 C151 1.399 . S
C156 C155 1.394 . S
C156 C157 1.516 . S
C157 C156 1.516 . S
C157 C158 1.502 . S
C157 C159 1.561 . S
C157 C160 1.526 . S
C158 H142 0.959 . S
C158 H143 0.959 . S
C158 H144 0.961 . S
C158 C157 1.502 . S
C159 H145 0.960 . S
C159 H146 0.961 . S
C159 H147 0.959 . S
C159 C157 1.561 . S
C160 C157 1.526 . S
C160 C161 1.396 . S
C160 C165 1.390 . S
C161 C155 1.465 . S
C161 C160 1.396 . S
C161 C162 1.399 . S
C162 H148 0.929 . S
C162 C161 1.399 . S
C162 C163 1.385 . S
C163 H149 0.931 . S
C163 C162 1.385 . S
C163 C164 1.389 . S
C164 C163 1.389 . S
C164 C165 1.387 . S
C165 H150 0.930 . S
C165 C160 1.390 . S
C165 C164 1.387 . S
H166 C178 0.930 . S
H167 C180 0.930 1_565 S
H168 C181 0.930 . S
H169 C185 0.959 . S
H170 C185 0.959 . S
H171 C185 0.961 . S
H172 C186 0.960 . S
H173 C186 0.961 . S
H174 C186 0.959 . S
H175 C189 0.929 1_554 S
H176 C190 0.931 . S
H177 C192 0.930 . S
C178 H166 0.930 . S
C178 C179 1.399 . S
C178 C183 1.399 . S
C179 C178 1.399 . S
C179 C180 1.376 . S
C180 H167 0.930 1_545 S
C180 C179 1.376 . S
C180 C181 1.388 1_545 S
C181 H168 0.930 . S
C181 C180 1.388 1_565 S
C181 C182 1.390 . S
C182 C181 1.390 . S
C182 C183 1.394 1_565 S
C182 C188 1.465 1_554 S
C183 C178 1.399 . S
C183 C182 1.394 1_545 S
C183 C184 1.516 1_554 S
C184 C183 1.516 1_556 S
C184 C185 1.502 . S
C184 C186 1.561 . S
C184 C187 1.526 1_545 S
C185 H169 0.959 . S
C185 H170 0.959 . S
C185 H171 0.961 . S
C185 C184 1.502 . S
C186 H172 0.960 . S
C186 H173 0.961 . S
C186 H174 0.959 . S
C186 C184 1.561 . S
C187 C184 1.526 1_565 S
C187 C188 1.396 . S
C187 C192 1.390 . S
C188 C182 1.465 1_556 S
C188 C187 1.396 . S
C188 C189 1.399 . S
C189 H175 0.929 1_556 S
C189 C188 1.399 . S
C189 C190 1.385 . S
C190 H176 0.931 . S
C190 C189 1.385 . S
C190 C191 1.389 . S
C191 C190 1.389 . S
C191 C192 1.387 . S
C192 H177 0.930 . S
C192 C187 1.390 . S
C192 C191 1.387 . S
H193 C205 0.930 . S
H194 C207 0.930 . S
H195 C208 0.930 . S
H196 C212 0.959 1_655 S
H197 C212 0.959 . S
H198 C212 0.961 1_655 S
H199 C213 0.960 . S
H200 C213 0.961 . S
H201 C213 0.959 . S
H202 C216 0.929 . S
H203 C217 0.931 . S
H204 C219 0.930 . S
C205 H193 0.930 . S
C205 C206 1.399 . S
C205 C210 1.399 1_655 S
C206 C205 1.399 . S
C206 C207 1.376 . S
C207 H194 0.930 . S
C207 C206 1.376 . S
C207 C208 1.388 . S
C208 H195 0.930 . S
C208 C207 1.388 . S
C208 C209 1.390 1_655 S
C209 C208 1.390 1_455 S
C209 C210 1.394 . S
C209 C215 1.465 . S
C210 C205 1.399 1_455 S
C210 C209 1.394 . S
C210 C211 1.516 . S
C211 C210 1.516 . S
C211 C212 1.502 . S
C211 C213 1.561 . S
C211 C214 1.526 . S
C212 H196 0.959 1_455 S
C212 H197 0.959 . S
C212 H198 0.961 1_455 S
C212 C211 1.502 . S
C213 H199 0.960 . S
C213 H200 0.961 . S
C213 H201 0.959 . S
C213 C211 1.561 . S
C214 C211 1.526 . S
C214 C215 1.396 . S
C214 C219 1.390 . S
C215 C209 1.465 . S
C215 C214 1.396 . S
C215 C216 1.399 . S
C216 H202 0.929 . S
C216 C215 1.399 . S
C216 C217 1.385 . S
C217 H203 0.931 . S
C217 C216 1.385 . S
C217 C218 1.389 . S
C218 C217 1.389 . S
C218 C219 1.387 . S
C219 H204 0.930 . S
C219 C214 1.390 . S
C219 C218 1.387 . S
H220 C232 0.930 . S
H221 C234 0.930 . S
H222 C235 0.930 . S
H223 C239 0.959 . S
H224 C239 0.959 1_545 S
H225 C239 0.961 . S
H226 C240 0.960 . S
H227 C240 0.961 . S
H228 C240 0.959 . S
H229 C243 0.929 . S
H230 C244 0.931 . S
H231 C246 0.930 . S
C232 H220 0.930 . S
C232 C233 1.399 . S
C232 C237 1.399 . S
C233 C232 1.399 . S
C233 C234 1.376 . S
C234 H221 0.930 . S
C234 C233 1.376 . S
C234 C235 1.388 . S
C235 H222 0.930 . S
C235 C234 1.388 . S
C235 C236 1.390 . S
C236 C235 1.390 . S
C236 C237 1.394 . S
C236 C242 1.465 . S
C237 C232 1.399 . S
C237 C236 1.394 . S
C237 C238 1.516 1_565 S
C238 C237 1.516 1_545 S
C238 C239 1.502 1_545 S
C238 C240 1.561 . S
C238 C241 1.526 . S
C239 H223 0.959 . S
C239 H224 0.959 1_565 S
C239 H225 0.961 . S
C239 C238 1.502 1_565 S
C240 H226 0.960 . S
C240 H227 0.961 . S
C240 H228 0.959 . S
C240 C238 1.561 . S
C241 C238 1.526 . S
C241 C242 1.396 1_545 S
C241 C246 1.390 . S
C242 C236 1.465 . S
C242 C241 1.396 1_565 S
C242 C243 1.399 . S
C243 H229 0.929 . S
C243 C242 1.399 . S
C243 C244 1.385 1_565 S
C244 H230 0.931 . S
C244 C243 1.385 1_545 S
C244 C245 1.389 . S
C245 C244 1.389 . S
C245 C246 1.387 . S
C246 H231 0.930 . S
C246 C241 1.390 . S
C246 C245 1.387 . S
H247 C259 0.930 . S
H248 C261 0.930 . S
H249 C262 0.933 1_554 S
H250 C266 0.959 . S
H251 C266 0.959 . S
H252 C266 0.961 . S
H253 C267 0.949 1_655 S
H254 C267 0.971 . S
H255 C267 0.939 1_655 S
H256 C270 0.929 . S
H257 C271 0.931 . S
H258 C273 0.930 . S
C259 H247 0.930 . S
C259 C260 1.399 . S
C259 C264 1.399 . S
C260 C259 1.399 . S
C260 C261 1.376 . S
C261 H248 0.930 . S
C261 C260 1.376 . S
C261 C262 1.386 . S
C262 H249 0.933 1_556 S
C262 C261 1.386 . S
C262 C263 1.389 . S
C263 C262 1.389 . S
C263 C264 1.424 . S
C263 C269 1.440 1_656 S
C264 C259 1.399 . S
C264 C263 1.424 . S
C264 C265 1.516 1_655 S
C265 C264 1.516 1_455 S
C265 C266 1.502 . S
C265 C267 1.583 . S
C265 C268 1.526 1_556 S
C266 H250 0.959 . S
C266 H251 0.959 . S
C266 H252 0.961 . S
C266 C265 1.502 . S
C267 H253 0.949 1_455 S
C267 H254 0.971 . S
C267 H255 0.939 1_455 S
C267 C265 1.583 . S
C268 C265 1.526 1_554 S
C268 C269 1.396 . S
C268 C273 1.390 . S
C269 C263 1.440 1_454 S
C269 C268 1.396 . S
C269 C270 1.399 . S
C270 H256 0.929 . S
C270 C269 1.399 . S
C270 C271 1.385 . S
C271 H257 0.931 . S
C271 C270 1.385 . S
C271 C272 1.389 . S
C272 C271 1.389 . S
C272 C273 1.387 . S
C273 H258 0.930 . S
C273 C268 1.390 . S
C273 C272 1.387 . S
H274 C286 0.930 . S
H275 C288 0.930 . S
H276 C289 0.930 . S
H277 C293 0.959 . S
H278 C293 0.959 . S
H279 C293 0.961 . S
H280 C294 0.960 . S
H281 C294 0.961 . S
H282 C294 0.959 . S
H283 C297 0.929 . S
H284 C298 0.931 . S
H285 C300 0.930 . S
C286 H274 0.930 . S
C286 C287 1.399 . S
C286 C291 1.399 . S
C287 C286 1.399 . S
C287 C288 1.376 . S
C288 H275 0.930 . S
C288 C287 1.376 . S
C288 C289 1.388 . S
C289 H276 0.930 . S
C289 C288 1.388 . S
C289 C290 1.390 . S
C290 C289 1.390 . S
C290 C291 1.394 . S
C290 C296 1.465 . S
C291 C286 1.399 . S
C291 C290 1.394 . S
C291 C292 1.516 . S
C292 C291 1.516 . S
C292 C293 1.502 . S
C292 C294 1.561 . S
C292 C295 1.526 . S
C293 H277 0.959 . S
C293 H278 0.959 . S
C293 H279 0.961 . S
C293 C292 1.502 . S
C294 H280 0.960 . S
C294 H281 0.961 . S
C294 H282 0.959 . S
C294 C292 1.561 . S
C295 C292 1.526 . S
C295 C296 1.396 . S
C295 C300 1.390 . S
C296 C290 1.465 . S
C296 C295 1.396 . S
C296 C297 1.399 . S
C297 H283 0.929 . S
C297 C296 1.399 . S
C297 C298 1.385 . S
C298 H284 0.931 . S
C298 C297 1.385 . S
C298 C299 1.389 . S
C299 C298 1.389 . S
C299 C300 1.387 . S
C300 H285 0.930 . S
C300 C295 1.390 . S
C300 C299 1.387 . S
H301 C313 0.930 . S
H302 C315 0.930 . S
H303 C316 0.930 . S
H304 C320 0.959 . S
H305 C320 0.959 . S
H306 C320 0.961 . S
H307 C321 0.960 . S
H308 C321 0.961 . S
H309 C321 0.959 . S
H310 C324 0.929 . S
H311 C325 0.931 . S
H312 C327 0.930 . S
C313 H301 0.930 . S
C313 C314 1.399 . S
C313 C318 1.399 . S
C314 C313 1.399 . S
C314 C315 1.376 . S
C315 H302 0.930 . S
C315 C314 1.376 . S
C315 C316 1.388 . S
C316 H303 0.930 . S
C316 C315 1.388 . S
C316 C317 1.390 . S
C317 C316 1.390 . S
C317 C318 1.394 . S
C317 C323 1.465 . S
C318 C313 1.399 . S
C318 C317 1.394 . S
C318 C319 1.516 . S
C319 C318 1.516 . S
C319 C320 1.502 . S
C319 C321 1.561 . S
C319 C322 1.526 . S
C320 H304 0.959 . S
C320 H305 0.959 . S
C320 H306 0.961 . S
C320 C319 1.502 . S
C321 H307 0.960 . S
C321 H308 0.961 . S
C321 H309 0.959 . S
C321 C319 1.561 . S
C322 C319 1.526 . S
C322 C323 1.396 . S
C322 C327 1.390 . S
C323 C317 1.465 . S
C323 C322 1.396 . S
C323 C324 1.399 . S
C324 H310 0.929 . S
C324 C323 1.399 . S
C324 C325 1.385 . S
C325 H311 0.931 . S
C325 C324 1.385 . S
C325 C326 1.389 . S
C326 C325 1.389 . S
C326 C327 1.387 . S
C327 H312 0.930 . S
C327 C322 1.390 . S
C327 C326 1.387 . S
H328 C340 0.930 . S
H329 C342 0.930 . S
H330 C343 0.930 . S
H331 C347 0.959 . S
H332 C347 0.959 . S
H333 C347 0.961 . S
H334 C348 0.960 . S
H335 C348 0.961 . S
H336 C348 0.959 . S
H337 C351 0.929 . S
H338 C352 0.931 . S
H339 C354 0.930 . S
C340 H328 0.930 . S
C340 C341 1.399 . S
C340 C345 1.399 . S
C341 C340 1.399 . S
C341 C342 1.376 . S
C342 H329 0.930 . S
C342 C341 1.376 . S
C342 C343 1.388 . S
C343 H330 0.930 . S
C343 C342 1.388 . S
C343 C344 1.390 . S
C344 C343 1.390 . S
C344 C345 1.394 . S
C344 C350 1.465 . S
C345 C340 1.399 . S
C345 C344 1.394 . S
C345 C346 1.516 . S
C346 C345 1.516 . S
C346 C347 1.502 . S
C346 C348 1.561 . S
C346 C349 1.526 . S
C347 H331 0.959 . S
C347 H332 0.959 . S
C347 H333 0.961 . S
C347 C346 1.502 . S
C348 H334 0.960 . S
C348 H335 0.961 . S
C348 H336 0.959 . S
C348 C346 1.561 . S
C349 C346 1.526 . S
C349 C350 1.396 . S
C349 C354 1.390 . S
C350 C344 1.465 . S
C350 C349 1.396 . S
C350 C351 1.399 . S
C351 H337 0.929 . S
C351 C350 1.399 . S
C351 C352 1.385 . S
C352 H338 0.931 . S
C352 C351 1.385 . S
C352 C353 1.389 . S
C353 C352 1.389 . S
C353 C354 1.387 . S
C354 H339 0.930 . S
C354 C349 1.390 . S
C354 C353 1.387 . S
H355 C367 0.930 . S
H356 C369 0.930 . S
H357 C370 0.930 . S
H358 C374 0.959 . S
H359 C374 0.959 . S
H360 C374 0.961 . S
H361 C375 0.960 1_556 S
H362 C375 0.961 . S
H363 C375 0.959 1_556 S
H364 C378 0.929 1_556 S
H365 C379 0.931 . S
H366 C381 0.930 . S
C367 H355 0.930 . S
C367 C368 1.399 . S
C367 C372 1.399 . S
C368 C367 1.399 . S
C368 C369 1.376 . S
C369 H356 0.930 . S
C369 C368 1.376 . S
C369 C370 1.388 . S
C370 H357 0.930 . S
C370 C369 1.388 . S
C370 C371 1.390 . S
C371 C370 1.390 . S
C371 C372 1.394 . S
C371 C377 1.465 1_556 S
C372 C367 1.399 . S
C372 C371 1.394 . S
C372 C373 1.516 1_556 S
C373 C372 1.516 1_554 S
C373 C374 1.502 . S
C373 C375 1.561 . S
C373 C376 1.526 . S
C374 H358 0.959 . S
C374 H359 0.959 . S
C374 H360 0.961 . S
C374 C373 1.502 . S
C375 H361 0.960 1_554 S
C375 H362 0.961 . S
C375 H363 0.959 1_554 S
C375 C373 1.561 . S
C376 C373 1.526 . S
C376 C377 1.396 . S
C376 C381 1.390 . S
C377 C371 1.465 1_554 S
C377 C376 1.396 . S
C377 C378 1.399 . S
C378 H364 0.929 1_554 S
C378 C377 1.399 . S
C378 C379 1.385 . S
C379 H365 0.931 . S
C379 C378 1.385 . S
C379 C380 1.389 . S
C380 C379 1.389 . S
C380 C381 1.387 . S
C381 H366 0.930 . S
C381 C376 1.390 . S
C381 C380 1.387 . S
H382 C394 0.930 . S
H383 C396 0.930 . S
H384 C397 0.924 1_545 S
H385 C401 0.959 . S
H386 C401 0.959 . S
H387 C401 0.961 . S
H388 C402 0.960 . S
H389 C402 0.961 . S
H390 C402 0.959 1_545 S
H391 C405 0.929 . S
H392 C406 0.931 . S
H393 C408 0.930 1_565 S
C394 H382 0.930 . S
C394 C395 1.399 . S
C394 C399 1.399 . S
C395 C394 1.399 . S
C395 C396 1.376 . S
C396 H383 0.930 . S
C396 C395 1.376 . S
C396 C397 1.388 . S
C397 H384 0.924 1_565 S
C397 C396 1.388 . S
C397 C398 1.390 . S
C398 C397 1.390 . S
C398 C399 1.394 . S
C398 C404 1.465 1_565 S
C399 C394 1.399 . S
C399 C398 1.394 . S
C399 C400 1.516 . S
C400 C399 1.516 . S
C400 C401 1.502 . S
C400 C402 1.561 . S
C400 C403 1.526 . S
C401 H385 0.959 . S
C401 H386 0.959 . S
C401 H387 0.961 . S
C401 C400 1.502 . S
C402 H388 0.960 . S
C402 H389 0.961 . S
C402 H390 0.959 1_565 S
C402 C400 1.561 . S
C403 C400 1.526 . S
C403 C404 1.396 1_565 S
C403 C408 1.390 1_565 S
C404 C398 1.465 1_545 S
C404 C403 1.396 1_545 S
C404 C405 1.399 . S
C405 H391 0.929 . S
C405 C404 1.399 . S
C405 C406 1.385 . S
C406 H392 0.931 . S
C406 C405 1.385 . S
C406 C407 1.389 . S
C407 C406 1.389 . S
C407 C408 1.387 . S
C408 H393 0.930 1_545 S
C408 C403 1.390 1_545 S
C408 C407 1.387 . S
H409 C421 0.930 . S
H410 C423 0.930 . S
H411 C424 0.930 . S
H412 C428 0.959 . S
H413 C428 0.959 . S
H414 C428 0.961 . S
H415 C429 0.960 . S
H416 C429 0.961 . S
H417 C429 0.959 . S
H418 C432 0.929 . S
H419 C433 0.931 1_565 S
H420 C435 0.930 . S
C421 H409 0.930 . S
C421 C422 1.399 . S
C421 C426 1.399 . S
C422 C421 1.399 . S
C422 C423 1.376 . S
C423 H410 0.930 . S
C423 C422 1.376 . S
C423 C424 1.388 . S
C424 H411 0.930 . S
C424 C423 1.388 . S
C424 C425 1.390 . S
C425 C424 1.390 . S
C425 C426 1.393 . S
C425 C431 1.466 1_655 S
C426 C421 1.399 . S
C426 C425 1.393 . S
C426 C427 1.516 1_665 S
C427 C426 1.516 1_445 S
C427 C428 1.502 . S
C427 C429 1.561 1_455 S
C427 C430 1.526 . S
C428 H412 0.959 . S
C428 H413 0.959 . S
C428 H414 0.961 . S
C428 C427 1.502 . S
C429 H415 0.960 . S
C429 H416 0.961 . S
C429 H417 0.959 . S
C429 C427 1.561 1_655 S
C430 C427 1.526 . S
C430 C431 1.396 1_545 S
C430 C435 1.390 . S
C431 C425 1.466 1_455 S
C431 C430 1.396 1_565 S
C431 C432 1.399 . S
C432 H418 0.929 . S
C432 C431 1.399 . S
C432 C433 1.385 1_565 S
C433 H419 0.931 1_545 S
C433 C432 1.385 1_545 S
C433 C434 1.389 . S
C434 C433 1.389 . S
C434 C435 1.387 . S
C435 H420 0.930 . S
C435 C430 1.390 . S
C435 C434 1.387 . S
H436 C448 0.930 . S
H437 C450 0.930 . S
H438 C451 0.930 . S
H439 C455 0.959 . S
H440 C455 0.959 . S
H441 C455 0.961 . S
H442 C456 0.960 . S
H443 C456 0.961 . S
H444 C456 0.959 . S
H445 C459 0.929 1_655 S
H446 C460 0.931 . S
H447 C462 0.930 . S
C448 H436 0.930 . S
C448 C449 1.399 1_455 S
C448 C453 1.399 . S
C449 C448 1.399 1_655 S
C449 C450 1.376 . S
C450 H437 0.930 . S
C450 C449 1.376 . S
C450 C451 1.388 . S
C451 H438 0.930 . S
C451 C450 1.388 . S
C451 C452 1.390 . S
C452 C451 1.390 . S
C452 C453 1.394 1_655 S
C452 C458 1.465 1_655 S
C453 C448 1.399 . S
C453 C452 1.394 1_455 S
C453 C454 1.516 . S
C454 C453 1.516 . S
C454 C455 1.502 . S
C454 C456 1.561 . S
C454 C457 1.526 . S
C455 H439 0.959 . S
C455 H440 0.959 . S
C455 H441 0.961 . S
C455 C454 1.502 . S
C456 H442 0.960 . S
C456 H443 0.961 . S
C456 H444 0.959 . S
C456 C454 1.561 . S
C457 C454 1.526 . S
C457 C458 1.396 . S
C457 C462 1.390 . S
C458 C452 1.465 1_455 S
C458 C457 1.396 . S
C458 C459 1.399 . S
C459 H445 0.929 1_455 S
C459 C458 1.399 . S
C459 C460 1.385 . S
C460 H446 0.931 . S
C460 C459 1.385 . S
C460 C461 1.389 . S
C461 C460 1.389 . S
C461 C462 1.387 . S
C462 H447 0.930 . S
C462 C457 1.390 . S
C462 C461 1.387 . S
H463 C475 0.930 . S
H464 C477 0.930 . S
H465 C478 0.930 . S
H466 C482 0.959 . S
H467 C482 0.959 . S
H468 C482 0.961 . S
H469 C483 0.960 . S
H470 C483 0.961 . S
H471 C483 0.959 . S
H472 C486 0.929 . S
H473 C487 0.931 . S
H474 C489 0.930 . S
C475 H463 0.930 . S
C475 C476 1.399 . S
C475 C480 1.399 . S
C476 C475 1.399 . S
C476 C477 1.376 . S
C477 H464 0.930 . S
C477 C476 1.376 . S
C477 C478 1.388 . S
C478 H465 0.930 . S
C478 C477 1.388 . S
C478 C479 1.390 . S
C479 C478 1.390 . S
C479 C480 1.394 . S
C479 C485 1.465 . S
C480 C475 1.399 . S
C480 C479 1.394 . S
C480 C481 1.516 . S
C481 C480 1.516 . S
C481 C482 1.502 . S
C481 C483 1.561 . S
C481 C484 1.526 . S
C482 H466 0.959 . S
C482 H467 0.959 . S
C482 H468 0.961 . S
C482 C481 1.502 . S
C483 H469 0.960 . S
C483 H470 0.961 . S
C483 H471 0.959 . S
C483 C481 1.561 . S
C484 C481 1.526 . S
C484 C485 1.396 . S
C484 C489 1.390 . S
C485 C479 1.465 . S
C485 C484 1.396 . S
C485 C486 1.399 . S
C486 H472 0.929 . S
C486 C485 1.399 . S
C486 C487 1.385 . S
C487 H473 0.931 . S
C487 C486 1.385 . S
C487 C488 1.389 . S
C488 C487 1.389 . S
C488 C489 1.387 . S
C489 H474 0.930 . S
C489 C484 1.390 . S
C489 C488 1.387 . S
H490 C502 0.930 . S
H491 C504 0.930 . S
H492 C505 0.927 . S
H493 C509 0.959 . S
H494 C509 0.959 . S
H495 C509 0.961 . S
H496 C510 0.960 . S
H497 C510 0.961 . S
H498 C510 0.959 . S
H499 C513 0.929 . S
H500 C514 0.931 . S
H501 C516 0.930 . S
C502 H490 0.930 . S
C502 C503 1.399 . S
C502 C507 1.399 . S
C503 C502 1.399 . S
C503 C504 1.376 . S
C504 H491 0.930 . S
C504 C503 1.376 . S
C504 C505 1.392 1_554 S
C505 H492 0.927 . S
C505 C504 1.392 1_556 S
C505 C506 1.390 1_556 S
C506 C505 1.390 1_554 S
C506 C507 1.394 . S
C506 C512 1.465 1_554 S
C507 C502 1.399 . S
C507 C506 1.394 . S
C507 C508 1.516 . S
C508 C507 1.516 . S
C508 C509 1.502 . S
C508 C510 1.561 . S
C508 C511 1.526 1_554 S
C509 H493 0.959 . S
C509 H494 0.959 . S
C509 H495 0.961 . S
C509 C508 1.502 . S
C510 H496 0.960 . S
C510 H497 0.961 . S
C510 H498 0.959 . S
C510 C508 1.561 . S
C511 C508 1.526 1_556 S
C511 C512 1.396 . S
C511 C516 1.390 . S
C512 C506 1.465 1_556 S
C512 C511 1.396 . S
C512 C513 1.399 . S
C513 H499 0.929 . S
C513 C512 1.399 . S
C513 C514 1.385 . S
C514 H500 0.931 . S
C514 C513 1.385 . S
C514 C515 1.389 . S
C515 C514 1.389 . S
C515 C516 1.387 . S
C516 H501 0.930 . S
C516 C511 1.390 . S
C516 C515 1.387 . S
H517 C529 0.930 . S
H518 C531 0.930 . S
H519 C532 0.930 . S
H520 C536 0.959 . S
H521 C536 0.959 . S
H522 C536 0.961 . S
H523 C537 0.960 . S
H524 C537 0.961 . S
H525 C537 0.959 . S
H526 C540 0.929 . S
H527 C541 0.931 . S
H528 C543 0.930 . S
C529 H517 0.930 . S
C529 C530 1.399 . S
C529 C534 1.399 . S
C530 C529 1.399 . S
C530 C531 1.376 . S
C531 H518 0.930 . S
C531 C530 1.376 . S
C531 C532 1.388 . S
C532 H519 0.930 . S
C532 C531 1.388 . S
C532 C533 1.390 . S
C533 C532 1.390 . S
C533 C534 1.394 . S
C533 C539 1.465 . S
C534 C529 1.399 . S
C534 C533 1.394 . S
C534 C535 1.516 . S
C535 C534 1.516 . S
C535 C536 1.502 . S
C535 C537 1.561 . S
C535 C538 1.526 . S
C536 H520 0.959 . S
C536 H521 0.959 . S
C536 H522 0.961 . S
C536 C535 1.502 . S
C537 H523 0.960 . S
C537 H524 0.961 . S
C537 H525 0.959 . S
C537 C535 1.561 . S
C538 C535 1.526 . S
C538 C539 1.396 . S
C538 C543 1.390 . S
C539 C533 1.465 . S
C539 C538 1.396 . S
C539 C540 1.399 . S
C540 H526 0.929 . S
C540 C539 1.399 . S
C540 C541 1.385 . S
C541 H527 0.931 . S
C541 C540 1.385 . S
C541 C542 1.389 . S
C542 C541 1.389 . S
C542 C543 1.387 . S
C543 H528 0.930 . S
C543 C538 1.390 . S
C543 C542 1.387 . S
C125 C78 1.587 . S
C137 C8 1.588 . S
C152 C105 1.559 . S
C164 C20 1.559 . S
C179 C37 1.578 . S
C191 C93 1.578 . S
C206 C49 1.503 . S
C218 C62 1.544 . S
C233 C90 1.547 . S
C245 C7 1.506 . S
C260 C23 1.583 . S
C272 C65 1.585 . S
C287 C77 1.544 . S
C299 C34 1.504 . S
C314 C50 1.587 . S
C326 C106 1.586 . S
C341 C63 1.514 . S
C353 C76 1.554 . S
C368 C22 1.590 . S
C380 C36 1.589 . S
C395 C48 1.507 . S
C407 C35 1.495 . S
C422 C51 1.579 . S
C434 C9 1.580 . S
C449 C21 1.495 . S
C461 C6 1.504 . S
C476 C104 1.501 . S
C488 C91 1.498 . S
C503 C64 1.588 . S
C515 C92 1.589 . S
C530 C79 1.579 . S
C542 C107 1.581 . S
