# Generated by pormake.
# Topology vba, (4)-cn, num edge types: 1
# Building blocks:
#     Node 0, Type 0, BuildingBlock: MUDLON_clean_sbu_0, # of connection points: 4
#     Node 1, Type 0, BuildingBlock: MUDLON_clean_sbu_0, # of connection points: 4
#     Node 2, Type 0, BuildingBlock: MUDLON_clean_sbu_0, # of connection points: 4
#     Node 3, Type 0, BuildingBlock: MUDLON_clean_sbu_0, # of connection points: 4
#     Node 4, Type 0, BuildingBlock: MUDLON_clean_sbu_0, # of connection points: 4
#     Node 5, Type 0, BuildingBlock: MUDLON_clean_sbu_0, # of connection points: 4
#     Node 6, Type 0, BuildingBlock: MUDLON_clean_sbu_0, # of connection points: 4
#     Node 7, Type 0, BuildingBlock: MUDLON_clean_sbu_0, # of connection points: 4
#     Node 8, Type 0, BuildingBlock: MUDLON_clean_sbu_0, # of connection points: 4
#     Node 9, Type 0, BuildingBlock: MUDLON_clean_sbu_0, # of connection points: 4
#     Node 10, Type 0, BuildingBlock: MUDLON_clean_sbu_0, # of connection points: 4
#     Node 11, Type 0, BuildingBlock: MUDLON_clean_sbu_0, # of connection points: 4
#     Node 12, Type 0, BuildingBlock: MUDLON_clean_sbu_0, # of connection points: 4
#     Node 13, Type 0, BuildingBlock: MUDLON_clean_sbu_0, # of connection points: 4
#     Node 14, Type 0, BuildingBlock: MUDLON_clean_sbu_0, # of connection points: 4
#     Node 15, Type 0, BuildingBlock: MUDLON_clean_sbu_0, # of connection points: 4
#     Node 16, Type 0, BuildingBlock: MUDLON_clean_sbu_0, # of connection points: 4
#     Node 17, Type 0, BuildingBlock: MUDLON_clean_sbu_0, # of connection points: 4
#     Node 18, Type 0, BuildingBlock: MUDLON_clean_sbu_0, # of connection points: 4
#     Node 19, Type 0, BuildingBlock: MUDLON_clean_sbu_0, # of connection points: 4
#     Node 20, Type 0, BuildingBlock: MUDLON_clean_sbu_0, # of connection points: 4
#     Node 21, Type 0, BuildingBlock: MUDLON_clean_sbu_0, # of connection points: 4
#     Node 22, Type 0, BuildingBlock: MUDLON_clean_sbu_0, # of connection points: 4
#     Node 23, Type 0, BuildingBlock: MUDLON_clean_sbu_0, # of connection points: 4
#     Node 24, Type 0, BuildingBlock: MUDLON_clean_sbu_0, # of connection points: 4
#     Node 25, Type 0, BuildingBlock: MUDLON_clean_sbu_0, # of connection points: 4
#     Node 26, Type 0, BuildingBlock: MUDLON_clean_sbu_0, # of connection points: 4
#     Node 27, Type 0, BuildingBlock: MUDLON_clean_sbu_0, # of connection points: 4
#     Node 28, Type 0, BuildingBlock: MUDLON_clean_sbu_0, # of connection points: 4
#     Node 29, Type 0, BuildingBlock: MUDLON_clean_sbu_0, # of connection points: 4
#     Node 30, Type 0, BuildingBlock: MUDLON_clean_sbu_0, # of connection points: 4
#     Node 31, Type 0, BuildingBlock: MUDLON_clean_sbu_0, # of connection points: 4
#     Edge 32, Type (0, 0), BuildingBlock: KIFKEQ_clean_linker_1, # of connection points: 2
#     Edge 33, Type (0, 0), BuildingBlock: KIFKEQ_clean_linker_1, # of connection points: 2
#     Edge 34, Type (0, 0), BuildingBlock: KIFKEQ_clean_linker_1, # of connection points: 2
#     Edge 35, Type (0, 0), BuildingBlock: KIFKEQ_clean_linker_1, # of connection points: 2
#     Edge 36, Type (0, 0), BuildingBlock: KIFKEQ_clean_linker_1, # of connection points: 2
#     Edge 37, Type (0, 0), BuildingBlock: KIFKEQ_clean_linker_1, # of connection points: 2
#     Edge 38, Type (0, 0), BuildingBlock: KIFKEQ_clean_linker_1, # of connection points: 2
#     Edge 39, Type (0, 0), BuildingBlock: KIFKEQ_clean_linker_1, # of connection points: 2
#     Edge 40, Type (0, 0), BuildingBlock: KIFKEQ_clean_linker_1, # of connection points: 2
#     Edge 41, Type (0, 0), BuildingBlock: KIFKEQ_clean_linker_1, # of connection points: 2
#     Edge 42, Type (0, 0), BuildingBlock: KIFKEQ_clean_linker_1, # of connection points: 2
#     Edge 43, Type (0, 0), BuildingBlock: KIFKEQ_clean_linker_1, # of connection points: 2
#     Edge 44, Type (0, 0), BuildingBlock: KIFKEQ_clean_linker_1, # of connection points: 2
#     Edge 45, Type (0, 0), BuildingBlock: KIFKEQ_clean_linker_1, # of connection points: 2
#     Edge 46, Type (0, 0), BuildingBlock: KIFKEQ_clean_linker_1, # of connection points: 2
#     Edge 47, Type (0, 0), BuildingBlock: KIFKEQ_clean_linker_1, # of connection points: 2
#     Edge 48, Type (0, 0), BuildingBlock: KIFKEQ_clean_linker_1, # of connection points: 2
#     Edge 49, Type (0, 0), BuildingBlock: KIFKEQ_clean_linker_1, # of connection points: 2
#     Edge 50, Type (0, 0), BuildingBlock: KIFKEQ_clean_linker_1, # of connection points: 2
#     Edge 51, Type (0, 0), BuildingBlock: KIFKEQ_clean_linker_1, # of connection points: 2
#     Edge 52, Type (0, 0), BuildingBlock: KIFKEQ_clean_linker_1, # of connection points: 2
#     Edge 53, Type (0, 0), BuildingBlock: KIFKEQ_clean_linker_1, # of connection points: 2
#     Edge 54, Type (0, 0), BuildingBlock: KIFKEQ_clean_linker_1, # of connection points: 2
#     Edge 55, Type (0, 0), BuildingBlock: KIFKEQ_clean_linker_1, # of connection points: 2
#     Edge 56, Type (0, 0), BuildingBlock: KIFKEQ_clean_linker_1, # of connection points: 2
#     Edge 57, Type (0, 0), BuildingBlock: KIFKEQ_clean_linker_1, # of connection points: 2
#     Edge 58, Type (0, 0), BuildingBlock: KIFKEQ_clean_linker_1, # of connection points: 2
#     Edge 59, Type (0, 0), BuildingBlock: KIFKEQ_clean_linker_1, # of connection points: 2
#     Edge 60, Type (0, 0), BuildingBlock: KIFKEQ_clean_linker_1, # of connection points: 2
#     Edge 61, Type (0, 0), BuildingBlock: KIFKEQ_clean_linker_1, # of connection points: 2
#     Edge 62, Type (0, 0), BuildingBlock: KIFKEQ_clean_linker_1, # of connection points: 2
#     Edge 63, Type (0, 0), BuildingBlock: KIFKEQ_clean_linker_1, # of connection points: 2
#     Edge 64, Type (0, 0), BuildingBlock: KIFKEQ_clean_linker_1, # of connection points: 2
#     Edge 65, Type (0, 0), BuildingBlock: KIFKEQ_clean_linker_1, # of connection points: 2
#     Edge 66, Type (0, 0), BuildingBlock: KIFKEQ_clean_linker_1, # of connection points: 2
#     Edge 67, Type (0, 0), BuildingBlock: KIFKEQ_clean_linker_1, # of connection points: 2
#     Edge 68, Type (0, 0), BuildingBlock: KIFKEQ_clean_linker_1, # of connection points: 2
#     Edge 69, Type (0, 0), BuildingBlock: KIFKEQ_clean_linker_1, # of connection points: 2
#     Edge 70, Type (0, 0), BuildingBlock: KIFKEQ_clean_linker_1, # of connection points: 2
#     Edge 71, Type (0, 0), BuildingBlock: KIFKEQ_clean_linker_1, # of connection points: 2
#     Edge 72, Type (0, 0), BuildingBlock: KIFKEQ_clean_linker_1, # of connection points: 2
#     Edge 73, Type (0, 0), BuildingBlock: KIFKEQ_clean_linker_1, # of connection points: 2
#     Edge 74, Type (0, 0), BuildingBlock: KIFKEQ_clean_linker_1, # of connection points: 2
#     Edge 75, Type (0, 0), BuildingBlock: KIFKEQ_clean_linker_1, # of connection points: 2
#     Edge 76, Type (0, 0), BuildingBlock: KIFKEQ_clean_linker_1, # of connection points: 2
#     Edge 77, Type (0, 0), BuildingBlock: KIFKEQ_clean_linker_1, # of connection points: 2
#     Edge 78, Type (0, 0), BuildingBlock: KIFKEQ_clean_linker_1, # of connection points: 2
#     Edge 79, Type (0, 0), BuildingBlock: KIFKEQ_clean_linker_1, # of connection points: 2
#     Edge 80, Type (0, 0), BuildingBlock: KIFKEQ_clean_linker_1, # of connection points: 2
#     Edge 81, Type (0, 0), BuildingBlock: KIFKEQ_clean_linker_1, # of connection points: 2
#     Edge 82, Type (0, 0), BuildingBlock: KIFKEQ_clean_linker_1, # of connection points: 2
#     Edge 83, Type (0, 0), BuildingBlock: KIFKEQ_clean_linker_1, # of connection points: 2
#     Edge 84, Type (0, 0), BuildingBlock: KIFKEQ_clean_linker_1, # of connection points: 2
#     Edge 85, Type (0, 0), BuildingBlock: KIFKEQ_clean_linker_1, # of connection points: 2
#     Edge 86, Type (0, 0), BuildingBlock: KIFKEQ_clean_linker_1, # of connection points: 2
#     Edge 87, Type (0, 0), BuildingBlock: KIFKEQ_clean_linker_1, # of connection points: 2
#     Edge 88, Type (0, 0), BuildingBlock: KIFKEQ_clean_linker_1, # of connection points: 2
#     Edge 89, Type (0, 0), BuildingBlock: KIFKEQ_clean_linker_1, # of connection points: 2
#     Edge 90, Type (0, 0), BuildingBlock: KIFKEQ_clean_linker_1, # of connection points: 2
#     Edge 91, Type (0, 0), BuildingBlock: KIFKEQ_clean_linker_1, # of connection points: 2
#     Edge 92, Type (0, 0), BuildingBlock: KIFKEQ_clean_linker_1, # of connection points: 2
#     Edge 93, Type (0, 0), BuildingBlock: KIFKEQ_clean_linker_1, # of connection points: 2
#     Edge 94, Type (0, 0), BuildingBlock: KIFKEQ_clean_linker_1, # of connection points: 2
#     Edge 95, Type (0, 0), BuildingBlock: KIFKEQ_clean_linker_1, # of connection points: 2
# Relax obj value: 0.001
# Max RMSD: 0.035
# Mean RMSD: 0.033
data_MOF--net-vba--node1-MUDLON_clean_sbu_0--edge1-KIFKEQ_clean_linker_1
_symmetry_space_group_name_H-M    P1
_symmetry_Int_Tables_number       1
_symmetry_cell_setting            triclinic
loop_
_symmetry_equiv_pos_as_xyz
'x, y, z'
_cell_length_a     8.3850686
_cell_length_b     122.10872
_cell_length_c     61.87756
_cell_angle_alpha  89.934109
_cell_angle_beta   90.005724
_cell_angle_gamma 90.034824
loop_
_atom_site_label
_atom_site_type_symbol
_atom_site_fract_x
_atom_site_fract_y
_atom_site_fract_z
_atom_type_partial_charge
Mg0 Mg 0.26021 0.07383 0.01099 0.0
C1 C 0.3213 0.07324 0.96653 0.0
O2 O 0.45514 0.074 0.97749 0.0
C3 C 0.23101 0.07204 0.05575 0.0
O4 O 0.3792 0.07412 0.05013 0.0
C5 C 0.31709 0.0515 1.00868 0.0
O6 O 0.16592 0.05369 1.00507 0.0
O7 O 0.41142 0.05946 0.01255 0.0
O8 O 0.1904 0.07305 0.97707 0.0
O9 O 0.32641 0.09094 0.01438 0.0
C10 C 0.19699 0.09618 0.01752 0.0
O11 O 0.0629 0.09062 0.01844 0.0
O12 O 0.12703 0.07111 0.04079 0.0
Mg13 Mg 0.99273 0.2006 0.01138 0.0
C14 C 0.92971 0.20111 0.96724 0.0
O15 O 0.8003 0.19873 0.97829 0.0
C16 C 0.03879 0.19937 0.05605 0.0
O17 O 0.89742 0.19554 0.05085 0.0
C18 C 0.92249 0.22263 0.01579 0.0
O19 O 0.07739 0.22107 0.01477 0.0
O20 O 0.83092 0.2143 0.01489 0.0
O21 O 0.05906 0.20267 0.97767 0.0
O22 O 0.94033 0.18318 0.01284 0.0
C23 C 0.07503 0.17834 0.01316 0.0
O24 O 0.20487 0.18436 0.01218 0.0
O25 O 0.13056 0.2027 0.04097 0.0
Mg26 Mg 0.30179 0.20187 0.25998 0.0
C27 C 0.306 0.19712 0.30527 0.0
O28 O 0.41456 0.191 0.29591 0.0
C29 C 0.25721 0.20197 0.21546 0.0
O30 O 0.39797 0.19798 0.22045 0.0
C31 C 0.52972 0.21993 0.27329 0.0
O32 O 0.49999 0.21606 0.29267 0.0
O33 O 0.48557 0.21444 0.25687 0.0
O34 O 0.21837 0.20315 0.29331 0.0
O35 O 0.33565 0.18421 0.25599 0.0
C36 C 0.19918 0.17967 0.25434 0.0
O37 O 0.07182 0.18593 0.25479 0.0
O38 O 0.16686 0.2053 0.23068 0.0
Mg39 Mg 0.95745 0.07534 0.2604 0.0
C40 C 0.90749 0.07616 0.30496 0.0
O41 O 0.7775 0.07897 0.29445 0.0
C42 C 0.98652 0.07416 0.21542 0.0
O43 O 0.84082 0.07698 0.22094 0.0
C44 C 0.89365 0.05303 0.25895 0.0
O45 O 0.04794 0.05489 0.25989 0.0
O46 O 0.79943 0.06123 0.25889 0.0
O47 O 0.03204 0.07392 0.29397 0.0
O48 O 0.90368 0.09276 0.25745 0.0
C49 C 0.03706 0.09763 0.25494 0.0
O50 O 0.16747 0.09167 0.25461 0.0
O51 O 0.08821 0.07256 0.23044 0.0
Mg52 Mg 0.72741 0.95036 1.00967 0.0
C53 C 0.67317 0.94966 0.054 0.0
O54 O 0.54611 0.94648 0.04324 0.0
C55 C 0.75876 0.95085 0.96494 0.0
O56 O 0.61312 0.94808 0.97062 0.0
C57 C 0.65976 0.97241 1.00693 0.0
O58 O 0.81422 0.97067 1.00811 0.0
O59 O 0.56646 0.96416 1.00713 0.0
O60 O 0.79775 0.95221 0.04328 0.0
O61 O 0.6776 0.93295 1.0078 0.0
C62 C 0.81237 0.9283 1.01039 0.0
O63 O 0.93822 0.93452 0.0136 0.0
O64 O 0.86058 0.95265 0.97985 0.0
Mg65 Mg 0.04021 0.82422 1.00963 0.0
C66 C 0.09437 0.82202 0.05418 0.0
O67 O 0.23107 0.82283 0.04391 0.0
C68 C 0.00797 0.82201 0.96488 0.0
O69 O 0.15896 0.82313 0.97015 0.0
C70 C 0.09466 0.80184 1.00707 0.0
O71 O 0.94122 0.80394 1.00841 0.0
O72 O 0.19192 0.80988 1.00703 0.0
O73 O 0.96587 0.82237 0.04315 0.0
O74 O 0.09953 0.84147 1.00806 0.0
C75 C 0.96825 0.84636 0.01192 0.0
O76 O 0.84148 0.84036 0.016 0.0
O77 O 0.90393 0.82228 0.97992 0.0
Mg78 Mg 0.75085 0.82639 0.76058 0.0
C79 C 0.71112 0.82858 0.71598 0.0
O80 O 0.58395 0.83213 0.72623 0.0
C81 C 0.77583 0.82206 0.80521 0.0
O82 O 0.62477 0.82309 0.79993 0.0
C83 C 0.6853 0.80409 0.75917 0.0
O84 O 0.83956 0.80595 0.75808 0.0
O85 O 0.59167 0.81231 0.76034 0.0
O86 O 0.8302 0.82542 0.72721 0.0
O87 O 0.6977 0.84375 0.7643 0.0
C88 C 0.83013 0.84865 0.76741 0.0
O89 O 0.96075 0.84273 0.76839 0.0
O90 O 0.88052 0.82299 0.79036 0.0
Mg91 Mg 0.03369 0.95318 0.76056 0.0
C92 C 0.10116 0.95375 0.71655 0.0
O93 O 0.23281 0.95312 0.72803 0.0
C94 C 0.99847 0.95317 0.80517 0.0
O95 O 0.14783 0.9516 0.7995 0.0
C96 C 0.05438 0.97573 0.76454 0.0
O97 O 0.90579 0.97249 0.76229 0.0
O98 O 0.16444 0.96852 0.76409 0.0
O99 O 0.96843 0.95412 0.72662 0.0
O100 O 0.1007 0.93597 0.76322 0.0
C101 C 0.96789 0.93084 0.76336 0.0
O102 O 0.83598 0.93658 0.76144 0.0
O103 O 0.89484 0.95436 0.79024 0.0
Mg104 Mg 0.30499 0.57595 0.51422 0.0
C105 C 0.32501 0.5783 0.46934 0.0
O106 O 0.45827 0.58155 0.4785 0.0
C107 C 0.28319 0.57053 0.55891 0.0
O108 O 0.43401 0.57032 0.55316 0.0
C109 C 0.35555 0.55339 0.51122 0.0
O110 O 0.20224 0.55564 0.51122 0.0
O111 O 0.45396 0.56136 0.51222 0.0
O112 O 0.21068 0.57518 0.4815 0.0
O113 O 0.37764 0.59318 0.51587 0.0
C114 C 0.33765 0.59909 0.53193 0.0
O115 O 0.29014 0.5943 0.54979 0.0
O116 O 0.17918 0.57268 0.54445 0.0
Mg117 Mg 0.94751 0.70045 0.51096 0.0
C118 C 0.97632 0.69655 0.46467 0.0
O119 O 0.90027 0.68803 0.47246 0.0
C120 C 0.98889 0.70147 0.55552 0.0
O121 O 0.85705 0.6962 0.55062 0.0
C122 C 0.69118 0.71648 0.49832 0.0
O123 O 0.72368 0.71288 0.47884 0.0
O124 O 0.7404 0.71105 0.51456 0.0
O125 O 0.03114 0.70358 0.47796 0.0
O126 O 0.95616 0.68272 0.51628 0.0
C127 C 0.86848 0.67442 0.51267 0.0
O128 O 0.72771 0.67567 0.50368 0.0
O129 O 0.07318 0.70539 0.54017 0.0
Mg130 Mg 0.26829 0.70271 0.75927 0.0
C131 C 0.33368 0.70251 0.80357 0.0
O132 O 0.4633 0.70047 0.79232 0.0
C133 C 0.22148 0.7019 0.71481 0.0
O134 O 0.36532 0.6985 0.71995 0.0
C135 C 0.33265 0.725 0.76026 0.0
O136 O 0.18188 0.72305 0.76465 0.0
O137 O 0.42353 0.71686 0.75632 0.0
O138 O 0.20382 0.70412 0.79329 0.0
O139 O 0.32457 0.68531 0.75743 0.0
C140 C 0.19362 0.6803 0.761 0.0
O141 O 0.06582 0.68619 0.76496 0.0
O142 O 0.12774 0.70483 0.72998 0.0
Mg143 Mg 0.98924 0.57556 0.7626 0.0
C144 C 0.92665 0.57587 0.807 0.0
O145 O 0.79705 0.57824 0.79599 0.0
C146 C 0.0396 0.57585 0.7181 0.0
O147 O 0.89597 0.57944 0.72278 0.0
C148 C 0.92636 0.55328 0.76378 0.0
O149 O 0.07728 0.55531 0.76792 0.0
O150 O 0.83429 0.56137 0.75991 0.0
O151 O 0.05508 0.57411 0.79651 0.0
O152 O 0.93411 0.59295 0.76012 0.0
C153 C 0.0659 0.59795 0.76308 0.0
O154 O 0.19383 0.59206 0.76702 0.0
O155 O 0.13154 0.57313 0.73363 0.0
Mg156 Mg 0.73335 0.45122 0.50838 0.0
C157 C 0.67407 0.451 0.55262 0.0
O158 O 0.54438 0.44862 0.54164 0.0
C159 C 0.76597 0.45198 0.46388 0.0
O160 O 0.61974 0.44935 0.46954 0.0
C161 C 0.67367 0.47357 0.50977 0.0
O162 O 0.82483 0.47144 0.51351 0.0
O163 O 0.57979 0.46554 0.50615 0.0
O164 O 0.80258 0.45273 0.54211 0.0
O165 O 0.68036 0.43376 0.50639 0.0
C166 C 0.81315 0.4289 0.50949 0.0
O167 O 0.94023 0.43496 0.51299 0.0
O168 O 0.86829 0.4536 0.47881 0.0
Mg169 Mg 0.02936 0.32422 0.50892 0.0
C170 C 0.08268 0.32128 0.55315 0.0
O171 O 0.21903 0.32236 0.5429 0.0
C172 C 0.99781 0.32473 0.4642 0.0
O173 O 0.1447 0.32706 0.47005 0.0
C174 C 0.08833 0.30175 0.50417 0.0
O175 O 0.93399 0.30363 0.5044 0.0
O176 O 0.18279 0.30993 0.50538 0.0
O177 O 0.95391 0.32176 0.5422 0.0
O178 O 0.08659 0.34163 0.50845 0.0
C179 C 0.95546 0.3466 0.51208 0.0
O180 O 0.82752 0.34065 0.51576 0.0
O181 O 0.89527 0.32287 0.47899 0.0
Mg182 Mg 0.72043 0.32415 0.25986 0.0
C183 C 0.65697 0.32385 0.21573 0.0
O184 O 0.52638 0.32574 0.22688 0.0
C185 C 0.75787 0.32469 0.30434 0.0
O186 O 0.60914 0.32656 0.29872 0.0
C187 C 0.69247 0.3016 0.26423 0.0
O188 O 0.84215 0.30464 0.26216 0.0
O189 O 0.58487 0.309 0.26372 0.0
O190 O 0.78719 0.32254 0.22608 0.0
O191 O 0.65842 0.34152 0.26133 0.0
C192 C 0.78821 0.34659 0.25723 0.0
O193 O 0.91548 0.34073 0.25275 0.0
O194 O 0.86024 0.32314 0.28939 0.0
Mg195 Mg 0.02749 0.45109 0.25961 0.0
C196 C 0.08448 0.44993 0.21543 0.0
O197 O 0.21374 0.44759 0.22653 0.0
C198 C -4e-05 0.45278 0.30406 0.0
O199 O 0.14674 0.4504 0.29827 0.0
C200 C 0.09122 0.47343 0.25608 0.0
O201 O 0.94014 0.47133 0.25218 0.0
O202 O 0.18298 0.4654 0.26062 0.0
O203 O 0.95678 0.45203 0.22585 0.0
O204 O 0.07636 0.43359 0.26265 0.0
C205 C 0.94145 0.42884 0.26065 0.0
O206 O 0.81486 0.435 0.2576 0.0
O207 O 0.89538 0.45394 0.28925 0.0
Mg208 Mg 0.77078 0.0726 0.51234 0.0
C209 C 0.82946 0.0734 0.46793 0.0
O210 O 0.96018 0.0755 0.47891 0.0
C211 C 0.73141 0.06896 0.55691 0.0
O212 O 0.88387 0.06987 0.55231 0.0
C213 C 0.82867 0.05003 0.51268 0.0
O214 O 0.67524 0.05205 0.5109 0.0
O215 O 0.92413 0.05817 0.51371 0.0
O216 O 0.70143 0.07157 0.47849 0.0
O217 O 0.82358 0.09005 0.51541 0.0
C218 C 0.6904 0.09494 0.51285 0.0
O219 O 0.563 0.08893 0.50932 0.0
O220 O 0.63078 0.06984 0.54152 0.0
Mg221 Mg 0.47231 0.19976 0.51142 0.0
C222 C 0.40898 0.20159 0.46716 0.0
O223 O 0.27547 0.20052 0.47809 0.0
C224 C 0.50983 0.20022 0.55595 0.0
O225 O 0.36314 0.19756 0.55057 0.0
C226 C 0.41827 0.22224 0.51113 0.0
O227 O 0.56985 0.21998 0.50804 0.0
O228 O 0.32214 0.21427 0.51416 0.0
O229 O 0.5402 0.20151 0.47761 0.0
O230 O 0.41719 0.18231 0.51346 0.0
C231 C 0.54802 0.17731 0.50978 0.0
O232 O 0.675 0.18322 0.50536 0.0
O233 O 0.61025 0.20194 0.54082 0.0
Mg234 Mg 0.78604 0.20077 0.76004 0.0
C235 C 0.83918 0.1996 0.80452 0.0
O236 O 0.9689 0.19698 0.79377 0.0
C237 C 0.75626 0.2023 0.71548 0.0
O238 O 0.90446 0.20028 0.72116 0.0
C239 C 0.84141 0.22308 0.76255 0.0
O240 O 0.68981 0.22076 0.7655 0.0
O241 O 0.93754 0.21519 0.75893 0.0
O242 O 0.71351 0.20183 0.79376 0.0
O243 O 0.84359 0.18345 0.75703 0.0
C244 C 0.71362 0.17842 0.76111 0.0
O245 O 0.58773 0.18428 0.76624 0.0
O246 O 0.65208 0.20327 0.73039 0.0
Mg247 Mg 0.42306 0.07492 0.75938 0.0
C248 C 0.42783 0.08027 0.80475 0.0
O249 O 0.32463 0.08689 0.79554 0.0
C250 C 0.45868 0.06968 0.71515 0.0
O251 O 0.30831 0.07197 0.71902 0.0
C252 C 0.19148 0.05745 0.77471 0.0
O253 O 0.23036 0.06118 0.79387 0.0
O254 O 0.2298 0.06296 0.75804 0.0
O255 O 0.50873 0.07389 0.79267 0.0
O256 O 0.39789 0.09243 0.75364 0.0
C257 C 0.53683 0.09668 0.75401 0.0
O258 O 0.65977 0.09015 0.7568 0.0
O259 O 0.5574 0.07005 0.73083 0.0
Mg260 Mg 0.24167 0.94839 0.50995 0.0
C261 C 0.20403 0.94627 0.55466 0.0
O262 O 0.07732 0.94253 0.54457 0.0
C263 C 0.25927 0.95084 0.4654 0.0
O264 O 0.1135 0.94837 0.47154 0.0
C265 C 0.17013 0.97061 0.51399 0.0
O266 O 0.32279 0.96881 0.51726 0.0
O267 O 0.08061 0.96241 0.50981 0.0
O268 O 0.32177 0.94955 0.54331 0.0
O269 O 0.19592 0.93083 0.50676 0.0
C270 C 0.33119 0.92607 0.50794 0.0
O271 O 0.45873 0.93221 0.51042 0.0
O272 O 0.36664 0.95172 0.47992 0.0
Mg273 Mg 0.52955 0.82116 0.51011 0.0
C274 C 0.60063 0.82109 0.55411 0.0
O275 O 0.73131 0.82178 0.54244 0.0
C276 C 0.48712 0.81913 0.46567 0.0
O277 O 0.63948 0.81928 0.47067 0.0
C278 C 0.54409 0.79833 0.50762 0.0
O279 O 0.39626 0.80173 0.5098 0.0
O280 O 0.65518 0.80549 0.50739 0.0
O281 O 0.46731 0.82048 0.54423 0.0
O282 O 0.59789 0.83839 0.50728 0.0
C283 C 0.47022 0.84368 0.51153 0.0
O284 O 0.34187 0.83803 0.51651 0.0
O285 O 0.38543 0.81996 0.48093 0.0
Mg286 Mg 0.21362 0.82413 0.26151 0.0
C287 C 0.16183 0.82311 0.21696 0.0
O288 O 0.02587 0.82417 0.22732 0.0
C289 C 0.2421 0.82106 0.30614 0.0
O290 O 0.09118 0.82201 0.30071 0.0
C291 C 0.16314 0.8016 0.25895 0.0
O292 O 0.31493 0.80402 0.25656 0.0
O293 O 0.06542 0.80943 0.26228 0.0
O294 O 0.29056 0.823 0.22796 0.0
O295 O 0.15696 0.84149 0.2639 0.0
C296 C 0.29058 0.84639 0.26177 0.0
O297 O 0.41889 0.84038 0.25893 0.0
O298 O 0.34699 0.82163 0.29124 0.0
Mg299 Mg 0.50561 0.95109 0.26061 0.0
C300 C 0.57052 0.95156 0.2165 0.0
O301 O 0.70063 0.94965 0.22775 0.0
C302 C 0.4731 0.95122 0.30508 0.0
O303 O 0.61899 0.94864 0.2992 0.0
C304 C 0.5612 0.9735 0.26027 0.0
O305 O 0.40986 0.97129 0.25683 0.0
O306 O 0.65667 0.96551 0.26332 0.0
O307 O 0.4395 0.95272 0.22675 0.0
O308 O 0.56211 0.93369 0.26251 0.0
C309 C 0.43184 0.92868 0.2585 0.0
O310 O 0.30508 0.93458 0.25394 0.0
O311 O 0.37046 0.95309 0.29029 0.0
Mg312 Mg 0.78534 0.57412 0.01426 0.0
C313 C 0.83911 0.57511 0.96988 0.0
O314 O 0.96934 0.57752 0.98072 0.0
C315 C 0.75226 0.571 0.05907 0.0
O316 O 0.90421 0.57166 0.05402 0.0
C317 C 0.84242 0.55181 0.01477 0.0
O318 O 0.68882 0.55389 0.01368 0.0
O319 O 0.93922 0.55987 0.01538 0.0
O320 O 0.71256 0.573 0.98057 0.0
O321 O 0.84116 0.5914 0.01693 0.0
C322 C 0.7069 0.59616 0.01463 0.0
O323 O 0.57981 0.59005 0.01152 0.0
O324 O 0.64961 0.57171 0.0439 0.0
Mg325 Mg 0.48177 0.70031 1.01091 0.0
C326 C 0.42848 0.69928 0.96632 0.0
O327 O 0.29909 0.69652 0.97702 0.0
C328 C 0.50844 0.70181 0.05564 0.0
O329 O 0.36019 0.69992 0.0498 0.0
C330 C 0.4201 0.72243 1.00827 0.0
O331 O 0.57194 0.72031 1.00504 0.0
O332 O 0.32625 0.71444 0.01214 0.0
O333 O 0.55389 0.70153 0.97713 0.0
O334 O 0.42547 0.68303 0.01365 0.0
C335 C 0.55735 0.67813 1.01024 0.0
O336 O 0.68381 0.6841 1.00586 0.0
O337 O 0.61352 0.70275 0.04082 0.0
Mg338 Mg 0.79947 0.69928 0.25991 0.0
C339 C 0.84663 0.70536 0.30426 0.0
O340 O 0.98414 0.70631 0.29428 0.0
C341 C 0.75375 0.69816 0.21526 0.0
O342 O 0.9014 0.69562 0.22035 0.0
C343 C 0.85065 0.72179 0.25243 0.0
O344 O 0.69681 0.71982 0.25366 0.0
O345 O 0.9467 0.71372 0.25391 0.0
O346 O 0.72517 0.70239 0.29327 0.0
O347 O 0.86934 0.68201 0.25847 0.0
C348 C 0.8514 0.67595 0.27507 0.0
O349 O 0.83173 0.68062 0.29398 0.0
O350 O 0.65643 0.70026 0.23057 0.0
Mg351 Mg 0.44933 0.57619 0.26239 0.0
C352 C 0.38666 0.57246 0.30691 0.0
O353 O 0.25165 0.57215 0.29614 0.0
C354 C 0.49533 0.57401 0.21805 0.0
O355 O 0.34351 0.57535 0.22262 0.0
C356 C 0.40446 0.55338 0.25891 0.0
O357 O 0.55653 0.55563 0.26157 0.0
O358 O 0.30599 0.56135 0.25823 0.0
O359 O 0.51517 0.57412 0.29632 0.0
O360 O 0.38224 0.59345 0.25851 0.0
C361 C 0.38576 0.59992 0.27465 0.0
O362 O 0.38845 0.59575 0.2942 0.0
O363 O 0.59573 0.57421 0.23356 0.0
Mg364 Mg 0.23428 0.45034 1.00847 0.0
C365 C 0.17957 0.44909 0.05276 0.0
O366 O 0.05007 0.44662 0.04181 0.0
C367 C 0.26105 0.45216 0.96399 0.0
O368 O 0.11393 0.44987 0.9698 0.0
C369 C 0.17154 0.47245 0.0117 0.0
O370 O 0.32333 0.47035 0.01502 0.0
O371 O 0.07824 0.46447 1.00758 0.0
O372 O 0.30641 0.45126 0.04219 0.0
O373 O 0.17844 0.43307 1.00534 0.0
C374 C 0.31159 0.42817 1.00772 0.0
O375 O 0.43946 0.43415 0.01122 0.0
O376 O 0.36608 0.45318 0.97878 0.0
Mg377 Mg 0.51449 0.32376 1.00863 0.0
C378 C 0.56674 0.32488 0.05298 0.0
O379 O 0.69687 0.32736 0.04218 0.0
C380 C 0.48963 0.32216 0.96407 0.0
O381 O 0.63788 0.32391 0.97008 0.0
C382 C 0.5731 0.30153 0.01101 0.0
O383 O 0.42071 0.30367 0.01365 0.0
O384 O 0.66813 0.30952 1.0077 0.0
O385 O 0.44055 0.32272 0.04228 0.0
O386 O 0.57393 0.341 1.00589 0.0
C387 C 0.44234 0.34601 1.0089 0.0
O388 O 0.31411 0.34013 0.01281 0.0
O389 O 0.38328 0.32138 0.97875 0.0
Mg390 Mg 0.21715 0.32503 0.75972 0.0
C391 C 0.15881 0.32155 0.7156 0.0
O392 O 0.02291 0.32253 0.72601 0.0
C393 C 0.25882 0.3262 0.8043 0.0
O394 O 0.11358 0.32918 0.79888 0.0
C395 C 0.16001 0.30275 0.76551 0.0
O396 O 0.3139 0.3047 0.76424 0.0
O397 O 0.06418 0.31084 0.76445 0.0
O398 O 0.28818 0.32228 0.72637 0.0
O399 O 0.1598 0.3424 0.75984 0.0
C400 C 0.28965 0.34734 0.75529 0.0
O401 O 0.41616 0.34137 0.75097 0.0
O402 O 0.35637 0.32376 0.78924 0.0
Mg403 Mg 0.52354 0.45167 0.75943 0.0
C404 C 0.58085 0.45146 0.71527 0.0
O405 O 0.70972 0.44884 0.72622 0.0
C406 C 0.4918 0.45185 0.80407 0.0
O407 O 0.63752 0.44916 0.7983 0.0
C408 C 0.58572 0.47395 0.76211 0.0
O409 O 0.43169 0.47206 0.76075 0.0
O410 O 0.68039 0.46577 0.76209 0.0
O411 O 0.45347 0.45348 0.72582 0.0
O412 O 0.57531 0.43422 0.761 0.0
C413 C 0.44113 0.42947 0.75839 0.0
O414 O 0.31432 0.43562 0.75544 0.0
O415 O 0.38972 0.45372 0.78923 0.0
H416 H 0.9434 0.06683 0.07489 0.0
H417 H 0.43185 0.07542 0.08944 0.0
H418 H 0.88553 0.06601 0.11366 0.0
H419 H 0.37354 0.07499 0.12767 0.0
H420 H 0.25916 0.06584 0.19671 0.0
H421 H 0.31431 0.06389 0.15805 0.0
H422 H 0.85541 0.07818 0.14326 0.0
H423 H 0.79899 0.07976 0.18146 0.0
C424 C 0.03806 0.06855 0.08631 0.0
C425 C 0.19175 0.07122 0.07904 0.0
C426 C 0.00513 0.06813 0.10853 0.0
C427 C 0.12504 0.07044 0.12388 0.0
C428 C 0.27889 0.07296 0.11646 0.0
C429 C 0.31181 0.07331 0.0944 0.0
C430 C 0.17038 0.06852 0.18515 0.0
C431 C 0.02517 0.07297 0.19218 0.0
C432 C 0.20175 0.06744 0.16299 0.0
C433 C 0.08897 0.07086 0.14745 0.0
C434 C 0.94376 0.07525 0.15464 0.0
C435 C 0.91219 0.07626 0.17666 0.0
H436 H 0.0949 0.21767 0.1922 0.0
H437 H 0.31561 0.18584 0.18721 0.0
H438 H 0.04862 0.21763 0.15277 0.0
H439 H 0.26689 0.18571 0.1484 0.0
H440 H 0.94803 0.18513 0.08686 0.0
H441 H 0.99129 0.18635 0.12571 0.0
H442 H 0.26199 0.21606 0.1167 0.0
H443 H 0.22082 0.21475 0.07729 0.0
C444 C 0.13074 0.21063 0.18274 0.0
C445 C 0.20797 0.20174 0.19263 0.0
C446 C 0.10636 0.21066 0.16028 0.0
C447 C 0.15575 0.2017 0.14768 0.0
C448 C 0.22836 0.19272 0.15777 0.0
C449 C 0.25554 0.19279 0.17995 0.0
C450 C 0.01806 0.19188 0.0931 0.0
C451 C 0.08228 0.1998 0.07911 0.0
C452 C 0.04199 0.19259 0.11532 0.0
C453 C 0.12822 0.20135 0.1241 0.0
C454 C 0.19347 0.2093 0.11021 0.0
C455 C 0.172 0.20847 0.08776 0.0
H456 H 0.19592 0.94845 0.83856 0.0
H457 H 0.71299 0.95858 0.82456 0.0
H458 H 0.13882 0.94869 0.87685 0.0
H459 H 0.6564 0.95915 0.86338 0.0
H460 H 0.56707 0.94546 0.9313 0.0
H461 H 0.62198 0.94682 0.893 0.0
H462 H 0.08767 0.96024 0.90709 0.0
H463 H 0.03381 0.95856 0.94584 0.0
C464 C 0.07733 0.95083 0.84366 0.0
C465 C 0.95855 0.95347 0.82845 0.0
C466 C 0.04521 0.95107 0.86574 0.0
C467 C 0.89349 0.954 0.87329 0.0
C468 C 0.77438 0.95674 0.8581 0.0
C469 C 0.80651 0.95644 0.83587 0.0
C470 C 0.68148 0.94872 0.92632 0.0
C471 C 0.79668 0.95185 0.94167 0.0
C472 C 0.71219 0.9496 0.90426 0.0
C473 C 0.85879 0.95368 0.89688 0.0
C474 C 0.97392 0.95694 0.91222 0.0
C475 C 0.94331 0.956 0.93442 0.0
H476 H 0.58212 0.81449 0.8369 0.0
H477 H 0.06058 0.82628 0.82557 0.0
H478 H 0.63503 0.81348 0.87542 0.0
H479 H 0.11266 0.82565 0.86442 0.0
H480 H 0.20415 0.81512 0.933 0.0
H481 H 0.15075 0.81404 0.89456 0.0
H482 H 0.66792 0.8251 0.90576 0.0
H483 H 0.72074 0.82578 0.94464 0.0
C484 C 0.69912 0.81686 0.84267 0.0
C485 C 0.81728 0.8205 0.82822 0.0
C486 C 0.7289 0.81636 0.86482 0.0
C487 C 0.87732 0.8196 0.87315 0.0
C488 C 0.99729 0.82297 0.85859 0.0
C489 C 0.9678 0.82336 0.83632 0.0
C490 C 0.08602 0.81726 0.9273 0.0
C491 C 0.96665 0.82061 0.94183 0.0
C492 C 0.05586 0.81672 0.90518 0.0
C493 C 0.90582 0.81961 0.89692 0.0
C494 C 0.78467 0.8227 0.91154 0.0
C495 C 0.8146 0.82313 0.93382 0.0
H496 H 0.49027 0.56849 0.59242 0.0
H497 H 0.98693 0.57089 0.57815 0.0
H498 H 0.43379 0.56918 0.63072 0.0
H499 H 0.92908 0.57109 0.61688 0.0
H500 H 0.90051 0.5859 0.68403 0.0
H501 H 0.95526 0.58348 0.64593 0.0
H502 H 0.32843 0.56036 0.66158 0.0
H503 H 0.27634 0.56314 0.70014 0.0
C504 C 0.36678 0.56898 0.59746 0.0
C505 C 0.24294 0.56975 0.58217 0.0
C506 C 0.33442 0.56929 0.61955 0.0
C507 C 0.17706 0.57027 0.62701 0.0
C508 C 0.05224 0.57057 0.61171 0.0
C509 C 0.08492 0.57037 0.58951 0.0
C510 C 0.99485 0.58032 0.67939 0.0
C511 C 0.08437 0.57471 0.6951 0.0
C512 C 0.02499 0.57883 0.65746 0.0
C513 C 0.14467 0.57161 0.65054 0.0
C514 C 0.23593 0.56606 0.66629 0.0
C515 C 0.20656 0.56765 0.68839 0.0
H516 H 0.13605 0.71835 0.57752 0.0
H517 H 0.94261 0.6858 0.58529 0.0
H518 H 0.18453 0.71923 0.61688 0.0
H519 H 0.99341 0.68662 0.62399 0.0
H520 H 0.32924 0.6883 0.68393 0.0
H521 H 0.27982 0.68905 0.64519 0.0
H522 H 0.97065 0.7169 0.65421 0.0
H523 H 0.01823 0.71606 0.69357 0.0
C524 C 0.1061 0.71138 0.58756 0.0
C525 C 0.03622 0.702 0.57844 0.0
C526 C 0.13175 0.71193 0.60999 0.0
C527 C 0.09097 0.70302 0.62333 0.0
C528 C 0.02492 0.6936 0.61403 0.0
C529 C 0.99655 0.69313 0.5919 0.0
C530 C 0.24989 0.69457 0.67773 0.0
C531 C 0.17666 0.70209 0.69175 0.0
C532 C 0.22241 0.69501 0.65557 0.0
C533 C 0.12321 0.7031 0.64681 0.0
C534 C 0.04923 0.71067 0.66068 0.0
C535 C 0.07457 0.7101 0.68311 0.0
H536 H 0.20112 0.44895 0.33752 0.0
H537 H 0.71742 0.45888 0.32344 0.0
H538 H 0.14616 0.44975 0.37583 0.0
H539 H 0.66319 0.46006 0.36225 0.0
H540 H 0.57407 0.44663 0.43028 0.0
H541 H 0.62884 0.44793 0.39201 0.0
H542 H 0.09518 0.46129 0.40598 0.0
H543 H 0.04146 0.45964 0.44475 0.0
C544 C 0.08293 0.45143 0.3426 0.0
C545 C 0.96303 0.45378 0.32737 0.0
C546 C 0.05205 0.45199 0.36468 0.0
C547 C 0.90052 0.45499 0.37222 0.0
C548 C 0.78093 0.45757 0.357 0.0
C549 C 0.81176 0.45694 0.33477 0.0
C550 C 0.68857 0.44987 0.42529 0.0
C551 C 0.80399 0.45298 0.44062 0.0
C552 C 0.7192 0.45072 0.40323 0.0
C553 C 0.86591 0.45477 0.39581 0.0
C554 C 0.98129 0.45802 0.41114 0.0
C555 C 0.95078 0.4571 0.43334 0.0
H556 H 0.56437 0.32997 0.3378 0.0
H557 H 0.03992 0.31839 0.32362 0.0
H558 H 0.62101 0.32928 0.37611 0.0
H559 H 0.09592 0.3174 0.36243 0.0
H560 H 0.19275 0.33009 0.43086 0.0
H561 H 0.13749 0.32941 0.39249 0.0
H562 H 0.66406 0.31712 0.40587 0.0
H563 H 0.7185 0.3181 0.4447 0.0
C564 C 0.68124 0.3272 0.34287 0.0
C565 C 0.79809 0.32426 0.32761 0.0
C566 C 0.71301 0.3267 0.36494 0.0
C567 C 0.86245 0.32321 0.37243 0.0
C568 C 0.97978 0.32023 0.35719 0.0
C569 C 0.948 0.32077 0.33497 0.0
C570 C 0.07653 0.32723 0.42571 0.0
C571 C 0.95947 0.32419 0.44088 0.0
C572 C 0.04558 0.32674 0.40361 0.0
C573 C 0.89679 0.32317 0.39602 0.0
C574 C 0.7796 0.32003 0.41118 0.0
C575 C 0.81054 0.32057 0.43342 0.0
H576 H 0.91713 0.06131 0.58937 0.0
H577 H 0.44162 0.0731 0.57608 0.0
H578 H 0.85481 0.06009 0.62758 0.0
H579 H 0.38001 0.07226 0.61468 0.0
H580 H 0.2714 0.06212 0.68287 0.0
H581 H 0.33448 0.06067 0.64469 0.0
H582 H 0.81557 0.07158 0.65784 0.0
H583 H 0.75286 0.07262 0.69639 0.0
C584 C 0.79875 0.06365 0.59465 0.0
C585 C 0.68426 0.06736 0.57972 0.0
C586 C 0.7635 0.06302 0.61664 0.0
C587 C 0.6131 0.06619 0.62437 0.0
C588 C 0.49676 0.06963 0.60932 0.0
C589 C 0.53175 0.07015 0.58719 0.0
C590 C 0.3914 0.06408 0.67764 0.0
C591 C 0.50723 0.06753 0.6926 0.0
C592 C 0.4271 0.06335 0.65568 0.0
C593 C 0.5793 0.06616 0.64803 0.0
C594 C 0.69726 0.06924 0.66314 0.0
C595 C 0.66176 0.06986 0.68524 0.0
H596 H 0.32439 0.19439 0.58993 0.0
H597 H 0.78385 0.20843 0.57453 0.0
H598 H 0.38172 0.19595 0.62811 0.0
H599 H 0.84005 0.21033 0.61318 0.0
H600 H 0.95711 0.19877 0.68187 0.0
H601 H 0.89907 0.19915 0.64362 0.0
H602 H 0.41181 0.20832 0.6575 0.0
H603 H 0.46935 0.20756 0.69628 0.0
C604 C 0.4377 0.19791 0.5947 0.0
C605 C 0.55011 0.20125 0.57914 0.0
C606 C 0.46976 0.1989 0.6167 0.0
C607 C 0.61493 0.20333 0.62382 0.0
C608 C 0.72745 0.20676 0.60827 0.0
C609 C 0.69554 0.2057 0.58612 0.0
C610 C 0.8373 0.20091 0.67687 0.0
C611 C 0.71729 0.20306 0.69219 0.0
C612 C 0.80458 0.20123 0.65481 0.0
C613 C 0.651 0.20378 0.64737 0.0
C614 C 0.53118 0.20617 0.66268 0.0
C615 C 0.5639 0.20578 0.68489 0.0
H616 H 0.54201 0.95638 0.44541 0.0
H617 H 0.04913 0.94834 0.43244 0.0
H618 H 0.59087 0.95782 0.40651 0.0
H619 H 0.0986 0.9494 0.394 0.0
H620 H 0.20409 0.95947 0.32491 0.0
H621 H 0.15502 0.9609 0.36385 0.0
H622 H 0.6114 0.94574 0.37653 0.0
H623 H 0.66166 0.94463 0.33813 0.0
C624 C 0.44442 0.95493 0.43431 0.0
C625 C 0.29229 0.95218 0.44205 0.0
C626 C 0.47219 0.95571 0.41202 0.0
C627 C 0.34856 0.95369 0.39706 0.0
C628 C 0.196 0.95118 0.40494 0.0
C629 C 0.16822 0.95047 0.4271 0.0
C630 C 0.29345 0.95647 0.33608 0.0
C631 C 0.4364 0.95194 0.32842 0.0
C632 C 0.26566 0.95727 0.35838 0.0
C633 C 0.37993 0.95349 0.37338 0.0
C634 C 0.52233 0.94897 0.36556 0.0
C635 C 0.5503 0.94823 0.34344 0.0
H636 H 0.67149 0.81162 0.43306 0.0
H637 H 0.20355 0.82479 0.44618 0.0
H638 H 0.61378 0.81141 0.39469 0.0
H639 H 0.14671 0.82495 0.40737 0.0
H640 H 0.04281 0.81488 0.33837 0.0
H641 H 0.09762 0.81372 0.37678 0.0
H642 H 0.58557 0.82353 0.36501 0.0
H643 H 0.53118 0.82432 0.3262 0.0
C644 C 0.55584 0.8145 0.42771 0.0
C645 C 0.44206 0.81827 0.44264 0.0
C646 C 0.52336 0.81446 0.40563 0.0
C647 C 0.37654 0.81829 0.39781 0.0
C648 C 0.26078 0.82184 0.41281 0.0
C649 C 0.29298 0.82178 0.43505 0.0
C650 C 0.1623 0.81673 0.34393 0.0
C651 C 0.28284 0.81972 0.32924 0.0
C652 C 0.19325 0.81615 0.36604 0.0
C653 C 0.34543 0.81863 0.37411 0.0
C654 C 0.46717 0.82144 0.35936 0.0
C655 C 0.43635 0.82193 0.33711 0.0
H656 H 0.46568 0.57587 0.07837 0.0
H657 H 0.94112 0.56413 0.09189 0.0
H658 H 0.40832 0.57609 0.1171 0.0
H659 H 0.88292 0.56396 0.13032 0.0
H660 H 0.78695 0.57735 0.19854 0.0
H661 H 0.84636 0.57604 0.15987 0.0
H662 H 0.36428 0.56502 0.14782 0.0
H663 H 0.3045 0.56672 0.18597 0.0
C664 C 0.5567 0.57315 0.08959 0.0
C665 C 0.70784 0.57004 0.08211 0.0
C666 C 0.5242 0.57325 0.1118 0.0
C667 C 0.64166 0.57012 0.12694 0.0
C668 C 0.79088 0.56667 0.11926 0.0
C669 C 0.82368 0.56667 0.09717 0.0
C670 C 0.69469 0.57457 0.18758 0.0
C671 C 0.54097 0.57225 0.19524 0.0
C672 C 0.72835 0.57379 0.16543 0.0
C673 C 0.60933 0.57054 0.15061 0.0
C674 C 0.45765 0.56783 0.15856 0.0
C675 C 0.42381 0.56873 0.18053 0.0
H676 H 0.92763 0.69103 0.18118 0.0
H677 H 0.4853 0.70731 0.19689 0.0
H678 H 0.87061 0.6929 0.14301 0.0
H679 H 0.42939 0.70948 0.15825 0.0
H680 H 0.30243 0.69915 0.08904 0.0
H681 H 0.3591 0.6989 0.12735 0.0
H682 H 0.85529 0.70578 0.11406 0.0
H683 H 0.7988 0.70567 0.07523 0.0
C684 C 0.81799 0.69507 0.17648 0.0
C685 C 0.71058 0.699 0.19212 0.0
C686 C 0.78623 0.69625 0.15449 0.0
C687 C 0.64634 0.70144 0.14745 0.0
C688 C 0.53792 0.70535 0.1631 0.0
C689 C 0.56955 0.70411 0.18523 0.0
C690 C 0.42396 0.70066 0.09418 0.0
C691 C 0.54661 0.70235 0.07899 0.0
C692 C 0.45599 0.70061 0.11628 0.0
C693 C 0.6116 0.70231 0.1239 0.0
C694 C 0.73418 0.70428 0.10874 0.0
C695 C 0.70206 0.70428 0.0865 0.0
H696 H 0.21957 0.45982 0.82345 0.0
H697 H 0.6816 0.44585 0.83749 0.0
H698 H 0.16717 0.46133 0.86226 0.0
H699 H 0.62804 0.44702 0.87582 0.0
H700 H 0.54537 0.45787 0.94458 0.0
H701 H 0.59928 0.45911 0.90576 0.0
H702 H 0.11222 0.44971 0.89226 0.0
H703 H 0.05772 0.44884 0.93057 0.0
C704 C 0.30929 0.45703 0.83477 0.0
C705 C 0.45426 0.4527 0.82737 0.0
C706 C 0.27955 0.45787 0.85701 0.0
C707 C 0.39386 0.45433 0.87222 0.0
C708 C 0.53867 0.45004 0.86468 0.0
C709 C 0.56856 0.44927 0.84259 0.0
C710 C 0.45008 0.45615 0.93327 0.0
C711 C 0.2978 0.45322 0.94069 0.0
C712 C 0.48073 0.45682 0.91103 0.0
C713 C 0.35987 0.4545 0.89583 0.0
C714 C 0.20738 0.45174 0.90339 0.0
C715 C 0.17673 0.45114 0.92548 0.0
H716 H 0.08497 0.3337 0.83807 0.0
H717 H 0.52036 0.3164 0.82305 0.0
H718 H 0.13781 0.33168 0.87634 0.0
H719 H 0.57183 0.31409 0.86175 0.0
H720 H 0.6989 0.32437 0.93094 0.0
H721 H 0.64478 0.32468 0.89258 0.0
H722 H 0.14531 0.3187 0.9053 0.0
H723 H 0.19933 0.31875 0.9442 0.0
C724 C 0.19211 0.32941 0.84295 0.0
C725 C 0.29896 0.32523 0.82749 0.0
C726 C 0.22139 0.32815 0.86497 0.0
C727 C 0.35811 0.32263 0.8722 0.0
C728 C 0.4658 0.31847 0.85674 0.0
C729 C 0.4367 0.31979 0.83458 0.0
C730 C 0.57718 0.32307 0.92567 0.0
C731 C 0.45292 0.32162 0.9407 0.0
C732 C 0.5466 0.32315 0.90354 0.0
C733 C 0.39088 0.32172 0.89577 0.0
C734 C 0.26659 0.31998 0.91076 0.0
C735 C 0.29728 0.31995 0.93304 0.0
H736 H 0.60427 0.0429 0.02183 0.0
H737 H 0.1481 0.03402 0.99441 0.0
H738 H 0.68225 0.0236 0.02178 0.0
H739 H 0.22707 0.01495 0.99372 0.0
H740 H 0.35855 0.98028 0.01528 0.0
H741 H 0.27659 0.99952 0.01645 0.0
H742 H 0.75142 1.00935 0.99722 0.0
H743 H 0.83341 0.99035 0.99673 0.0
C744 C 0.52144 0.03686 0.01565 0.0
C745 C 0.37031 0.03998 1.00817 0.0
C746 C 0.5659 0.02581 0.01555 0.0
C747 C 0.46048 0.01771 1.00778 0.0
C748 C 0.30997 0.02091 1.00019 0.0
C749 C 0.26533 0.03189 1.00044 0.0
C750 C 0.44452 0.98658 0.0112 0.0
C751 C 0.60225 0.98382 1.00603 0.0
C752 C 0.39798 0.99759 0.01184 0.0
C753 C 0.50815 1.006 1.00713 0.0
C754 C 0.66461 1.00314 1.00146 0.0
C755 C 0.71112 0.99221 1.001 0.0
H756 H 0.8669 0.293 1.00061 0.0
H757 H 0.39883 0.28401 0.02393 0.0
H758 H 0.94637 0.27373 1.00178 0.0
H759 H 0.47892 0.26499 0.02576 0.0
H760 H 0.62403 0.23035 1.00543 0.0
H761 H 0.5406 0.24954 1.00374 0.0
H762 H 0.00425 0.25954 0.02715 0.0
H763 H 0.08799 0.24055 0.02817 0.0
C764 C 0.78166 0.28694 1.00612 0.0
C765 C 0.62686 0.29003 0.01212 0.0
C766 C 0.82697 0.27591 1.00688 0.0
C767 C 0.71863 0.2678 0.01383 0.0
C768 C 0.56437 0.27096 0.01995 0.0
C769 C 0.51899 0.28191 0.01904 0.0
C770 C 0.70701 0.23667 1.01038 0.0
C771 C 0.86244 0.23397 0.01681 0.0
C772 C 0.65968 0.24766 1.00942 0.0
C773 C 0.76663 0.2561 0.01508 0.0
C774 C 0.92024 0.2533 0.02215 0.0
C775 C 0.96765 0.24238 0.02292 0.0
H776 H 0.48191 0.23329 0.23822 0.0
H777 H 0.66414 0.23322 0.30354 0.0
H778 H 0.51035 0.25323 0.23686 0.0
H779 H 0.69252 0.25308 0.30211 0.0
H780 H 0.89207 0.28643 0.28056 0.0
H781 H 0.85717 0.26672 0.28213 0.0
H782 H 0.38366 0.27005 0.25549 0.0
H783 H 0.41906 0.29007 0.25386 0.0
C784 C 0.53077 0.23749 0.25214 0.0
C785 C 0.57185 0.23166 0.27097 0.0
C786 C 0.54455 0.24892 0.25146 0.0
C787 C 0.60184 0.25472 0.26946 0.0
C788 C 0.64807 0.24884 0.28797 0.0
C789 C 0.63251 0.23746 0.28876 0.0
C790 C 0.77964 0.28301 0.27517 0.0
C791 C 0.65819 0.2898 0.26704 0.0
C792 C 0.75969 0.2717 0.27615 0.0
C793 C 0.61816 0.26683 0.26886 0.0
C794 C 0.49478 0.2736 0.26103 0.0
C795 C 0.51413 0.28503 0.2603 0.0
H796 H 0.85097 0.98218 0.27255 0.0
H797 H 0.38661 0.99109 0.24788 0.0
H798 H 0.92671 1.00154 0.27294 0.0
H799 H 0.46313 1.0102 0.24755 0.0
H800 H 0.59509 0.04486 0.26832 0.0
H801 H 0.51628 0.02556 0.26976 0.0
H802 H 0.98927 0.01613 0.2491 0.0
H803 H 0.06826 0.0352 0.24842 0.0
C804 C 0.76574 0.98824 0.26709 0.0
C805 C 0.61306 0.98509 0.26023 0.0
C806 C 0.80893 0.99933 0.26722 0.0
C807 C 0.70069 1.00747 0.2603 0.0
C808 C 0.5485 1.00424 0.25338 0.0
C809 C 0.50519 0.99322 0.25342 0.0
C810 C 0.68136 0.03864 0.26401 0.0
C811 C 0.83772 0.04155 0.25836 0.0
C812 C 0.63661 0.02758 0.2648 0.0
C813 C 0.74705 0.01924 0.25973 0.0
C814 C 0.90219 0.02225 0.25364 0.0
C815 C 0.94699 0.03324 0.25305 0.0
H816 H 0.13587 0.73116 0.02229 0.0
H817 H 0.58488 0.73971 0.99238 0.0
H818 H 0.06018 0.75053 0.02232 0.0
H819 H 0.50821 0.75881 0.99179 0.0
H820 H 0.3943 0.79347 0.01421 0.0
H821 H 0.47007 0.77413 0.01505 0.0
H822 H 0.98705 0.76502 0.99836 0.0
H823 H 0.91119 0.78417 0.99821 0.0
C824 C 0.2174 0.73715 0.01555 0.0
C825 C 0.36626 0.73392 1.00743 0.0
C826 C 0.17431 0.74823 0.0155 0.0
C827 C 0.27887 0.75624 1.00717 0.0
C828 C 0.42636 0.75292 0.99876 0.0
C829 C 0.46965 0.74192 0.99896 0.0
C830 C 0.30506 0.78731 1.01063 0.0
C831 C 0.14705 0.79033 1.00622 0.0
C832 C 0.34808 0.77624 0.01107 0.0
C833 C 0.23409 0.76801 1.00691 0.0
C834 C 0.07695 0.7711 1.00212 0.0
C835 C 0.03392 0.78211 1.00186 0.0
H836 H 0.38039 0.79626 0.75296 0.0
H837 H 0.86423 0.78595 0.76573 0.0
H838 H 0.29666 0.77705 0.75202 0.0
H839 H 0.78083 0.76698 0.76558 0.0
H840 H 0.61473 0.73327 0.74427 0.0
H841 H 0.6956 0.75252 0.74289 0.0
H842 H 0.25762 0.76173 0.77495 0.0
H843 H 0.17551 0.74273 0.77562 0.0
C844 C 0.4683 0.78991 0.75573 0.0
C845 C 0.62866 0.79263 0.75934 0.0
C846 C 0.42069 0.77891 0.75526 0.0
C847 C 0.53236 0.77043 0.75861 0.0
C848 C 0.69217 0.77323 0.76244 0.0
C849 C 0.73968 0.78416 0.7627 0.0
C850 C 0.53636 0.73943 0.75102 0.0
C851 C 0.38891 0.73647 0.76 0.0
C852 C 0.58247 0.75046 0.7503 0.0
C853 C 0.48262 0.75872 0.75873 0.0
C854 C 0.33605 0.75567 0.76787 0.0
C855 C 0.28965 0.74472 0.76842 0.0
H856 H 0.32094 0.98781 0.75362 0.0
H857 H 0.85274 0.99032 0.78229 0.0
H858 H 0.34878 1.00787 0.75573 0.0
H859 H 0.88047 1.01008 0.7844 0.0
H860 H 0.07069 0.04387 0.80561 0.0
H861 H 0.04788 0.02396 0.80404 0.0
H862 H 0.2062 0.02441 0.73767 0.0
H863 H 0.22845 0.04436 0.73912 0.0
C864 C 0.22548 0.99262 0.76062 0.0
C865 C 0.08473 0.98753 0.76773 0.0
C866 C 0.24048 1.00406 0.76163 0.0
C867 C 0.11617 1.01052 0.77013 0.0
C868 C 0.97837 1.00534 0.77787 0.0
C869 C 0.96255 0.99401 0.77658 0.0
C870 C 0.09794 0.03975 0.79056 0.0
C871 C 0.15037 0.04571 0.77248 0.0
C872 C 0.08574 0.02834 0.7897 0.0
C873 C 0.12748 0.02264 0.77082 0.0
C874 C 0.17585 0.0286 0.75253 0.0
C875 C 0.18601 0.04003 0.75329 0.0
H876 H 0.83813 0.49098 0.52515 0.0
H877 H 0.39233 0.48237 0.49453 0.0
H878 H 0.76354 0.51011 0.52481 0.0
H879 H 0.31883 0.50177 0.49348 0.0
H880 H 0.16774 0.53557 0.51708 0.0
H881 H 0.24179 0.51643 0.5162 0.0
H882 H 0.72936 0.52554 0.50217 0.0
H883 H 0.65525 0.54491 0.50387 0.0
C884 C 0.72408 0.49319 0.51818 0.0
C885 C 0.62092 0.48513 0.50985 0.0
C886 C 0.682 0.50422 0.51782 0.0
C887 C 0.5359 0.50756 0.50895 0.0
C888 C 0.43186 0.4995 0.50066 0.0
C889 C 0.47369 0.48838 0.5012 0.0
C890 C 0.29104 0.53353 0.51378 0.0
C891 C 0.40593 0.54178 0.51058 0.0
C892 C 0.33315 0.5225 0.51309 0.0
C893 C 0.49127 0.51937 0.50899 0.0
C894 C 0.60655 0.52764 0.50565 0.0
C895 C 0.56441 0.53874 0.50655 0.0
H896 H 0.81644 0.78641 0.51669 0.0
H897 H 0.33285 0.7833 0.49341 0.0
H898 H 0.84527 0.76634 0.51519 0.0
H899 H 0.3617 0.76354 0.49188 0.0
H900 H 0.5468 0.72983 0.4689 0.0
H901 H 0.51879 0.74972 0.47064 0.0
H902 H 0.71892 0.74965 0.53491 0.0
H903 H 0.74603 0.72973 0.5333 0.0
C904 C 0.7174 0.78147 0.51107 0.0
C905 C 0.5725 0.78642 0.50522 0.0
C906 C 0.73316 0.77002 0.51039 0.0
C907 C 0.60527 0.76338 0.50348 0.0
C908 C 0.46248 0.76841 0.49715 0.0
C909 C 0.44608 0.77975 0.49811 0.0
C910 C 0.58204 0.73403 0.48356 0.0
C911 C 0.64754 0.72817 0.50099 0.0
C912 C 0.56681 0.74542 0.48452 0.0
C913 C 0.61869 0.75125 0.50281 0.0
C914 C 0.68028 0.74539 0.52048 0.0
C915 C 0.69334 0.73396 0.51966 0.0
H916 H 0.08915 0.53564 0.77852 0.0
H917 H 0.64178 0.54483 0.74896 0.0
H918 H 0.0098 0.51658 0.77814 0.0
H919 H 0.56339 0.52551 0.74794 0.0
H920 H 0.40638 0.49182 0.77092 0.0
H921 H 0.48649 0.51087 0.77112 0.0
H922 H 0.96843 0.50136 0.75489 0.0
H923 H 0.8882 0.48208 0.75538 0.0
C924 C 0.97373 0.53358 0.77179 0.0
C925 C 0.87152 0.54176 0.76375 0.0
C926 C 0.92889 0.52259 0.77142 0.0
C927 C 0.78085 0.51946 0.76288 0.0
C928 C 0.67783 0.52765 0.75487 0.0
C929 C 0.72252 0.53871 0.75539 0.0
C930 C 0.52981 0.49376 0.76744 0.0
C931 C 0.6412 0.48543 0.76311 0.0
C932 C 0.57533 0.50473 0.76736 0.0
C933 C 0.73342 0.50771 0.76282 0.0
C934 C 0.84572 0.49936 0.75867 0.0
C935 C 0.80013 0.48832 0.75892 0.0
H936 H 0.91694 0.28384 0.49289 0.0
H937 H 0.3834 0.29366 0.51533 0.0
H938 H 0.9947 0.26475 0.49492 0.0
H939 H 0.4607 0.27438 0.51805 0.0
H940 H 0.59679 0.23969 0.49893 0.0
H941 H 0.52045 0.25875 0.49693 0.0
H942 H 0.04895 0.25044 0.52 0.0
H943 H 0.12482 0.23108 0.52131 0.0
C944 C 0.03654 0.28191 0.4983 0.0
C945 C 0.14428 0.29027 0.50394 0.0
C946 C 0.08052 0.27092 0.49967 0.0
C947 C 0.23327 0.26797 0.50688 0.0
C948 C 0.34231 0.27635 0.51222 0.0
C949 C 0.29844 0.2874 0.51067 0.0
C950 C 0.47655 0.24188 0.50363 0.0
C951 C 0.36664 0.23383 0.51029 0.0
C952 C 0.43324 0.25288 0.50262 0.0
C953 C 0.27893 0.2562 0.5084 0.0
C954 C 0.16854 0.24816 0.51516 0.0
C955 C 0.21183 0.23707 0.51602 0.0
H956 H 0.36986 0.48234 0.27203 0.0
H957 H 0.93304 0.49068 0.23886 0.0
H958 H 0.4429 0.50176 0.27288 0.0
H959 H 0.00714 0.50984 0.2391 0.0
H960 H 0.1033 0.54457 0.26283 0.0
H961 H 0.03155 0.52514 0.26248 0.0
H962 H 0.52429 0.51665 0.2506 0.0
H963 H 0.59573 0.53588 0.25164 0.0
C964 C 0.2906 0.48829 0.26472 0.0
C965 C 0.1456 0.48497 0.25549 0.0
C966 C 0.33219 0.49942 0.26515 0.0
C967 C 0.23008 0.50742 0.2562 0.0
C968 C 0.08697 0.50399 0.24659 0.0
C969 C 0.04519 0.49295 0.24631 0.0
C970 C 0.19566 0.53853 0.26005 0.0
C971 C 0.35494 0.54177 0.25733 0.0
C972 C 0.15491 0.52739 0.2598 0.0
C973 C 0.27249 0.51928 0.25663 0.0
C974 C 0.43113 0.5226 0.25355 0.0
C975 C 0.47177 0.53368 0.25397 0.0
H976 H 0.32293 0.98809 0.53115 0.0
H977 H 0.88767 0.97906 0.49833 0.0
H978 H 0.24251 1.00713 0.53095 0.0
H979 H 0.80824 0.99835 0.49748 0.0
H980 H 0.64395 0.03211 0.51911 0.0
H981 H 0.72234 0.01303 0.51969 0.0
H982 H 0.21167 0.02248 0.50786 0.0
H983 H 0.13286 0.04178 0.50802 0.0
C984 C 0.20975 0.99018 0.5238 0.0
C985 C 0.11159 0.98204 0.51471 0.0
C986 C 0.16435 1.00116 0.52352 0.0
C987 C 0.01976 1.00436 0.514 0.0
C988 C 0.91999 0.99619 0.50515 0.0
C989 C 0.96519 0.98513 0.50559 0.0
C990 C 0.76861 0.03015 0.51665 0.0
C991 C 0.8824 0.03849 0.5135 0.0
C992 C 0.81328 0.01916 0.51681 0.0
C993 C 0.97305 0.01614 0.51366 0.0
C994 C 0.08753 0.02449 0.51059 0.0
C995 C 0.04272 0.03556 0.51062 0.0
H996 H 0.13029 0.23212 0.75094 0.0
H997 H 0.66579 0.24028 0.77653 0.0
H998 H 0.20317 0.25153 0.75171 0.0
H999 H 0.73936 0.25943 0.7779 0.0
H1000 H 0.86291 0.2943 0.75659 0.0
H1001 H 0.78812 0.27493 0.75542 0.0
H1002 H 0.26236 0.266 0.77643 0.0
H1003 H 0.33737 0.28517 0.77698 0.0
C1004 C 0.04453 0.23802 0.75687 0.0
C1005 C 0.89243 0.23466 0.76359 0.0
C1006 C 0.08606 0.24914 0.75739 0.0
C1007 C 0.9766 0.25707 0.76479 0.0
C1008 C 0.82543 0.25362 0.7717 0.0
C1009 C 0.78383 0.24258 0.77105 0.0
C1010 C 0.95019 0.28818 0.76113 0.0
C1011 C 0.10585 0.29125 0.76679 0.0
C1012 C 0.90777 0.27709 0.76046 0.0
C1013 C 0.01996 0.26888 0.76563 0.0
C1014 C 0.17413 0.27204 0.77185 0.0
C1015 C 0.21657 0.28307 0.77236 0.0
H1016 H 0.34461 0.78453 0.24568 0.0
H1017 H 0.87128 0.79236 0.26854 0.0
H1018 H 0.27273 0.76538 0.24314 0.0
H1019 H 0.79989 0.77293 0.26664 0.0
H1020 H 0.67569 0.73936 0.24012 0.0
H1021 H 0.74921 0.75857 0.24141 0.0
H1022 H 0.21816 0.74966 0.26454 0.0
H1023 H 0.14509 0.73029 0.26261 0.0
C1024 C 0.22494 0.78215 0.25032 0.0
C1025 C 0.11347 0.78999 0.25736 0.0
C1026 C 0.18421 0.77111 0.249 0.0
C1027 C 0.03099 0.76755 0.2548 0.0
C1028 C 0.91871 0.77539 0.26179 0.0
C1029 C 0.95942 0.78652 0.26298 0.0
C1030 C 0.79514 0.74148 0.24532 0.0
C1031 C 0.9048 0.7333 0.25128 0.0
C1032 C 0.83668 0.75253 0.24627 0.0
C1033 C 0.98882 0.75572 0.25333 0.0
C1034 C 0.10015 0.74751 0.25883 0.0
C1035 C 0.05871 0.7364 0.25772 0.0
H1036 H 0.88819 0.48122 0.99741 0.0
H1037 H 0.3345 0.48967 0.02811 0.0
H1038 H 0.81188 0.50057 0.99757 0.0
H1039 H 0.25714 0.50876 0.02892 0.0
H1040 H 0.143 0.54358 1.00758 0.0
H1041 H 0.21989 0.52426 1.00611 0.0
H1042 H 0.73591 0.51487 0.02164 0.0
H1043 H 0.65901 0.53398 0.02239 0.0
C1044 C 0.96898 0.48718 1.00437 0.0
C1045 C 0.11724 0.48393 0.01266 0.0
C1046 C 0.92554 0.49825 1.00452 0.0
C1047 C 0.02911 0.50624 0.01315 0.0
C1048 C 0.17607 0.5029 0.02171 0.0
C1049 C 0.21973 0.4919 0.0214 0.0
C1050 C 0.05374 0.53736 1.01074 0.0
C1051 C 0.89523 0.54029 0.01502 0.0
C1052 C 0.09742 0.5263 1.00994 0.0
C1053 C 0.98356 0.51799 0.01364 0.0
C1054 C 0.82581 0.521 0.01824 0.0
C1055 C 0.78215 0.53199 0.01885 0.0
H1056 H 0.07907 0.07611 0.93685 0.0
H1057 H 0.58429 0.06967 0.94211 0.0
H1058 H 0.10609 0.07708 0.8974 0.0
H1059 H 0.61122 0.07079 0.90316 0.0
H1060 H 0.57671 0.06475 0.83004 0.0
H1061 H 0.54217 0.06187 0.86895 0.0
H1062 H 0.23166 0.09004 0.87194 0.0
H1063 H 0.2651 0.09287 0.83338 0.0
C1064 C 0.19514 0.07481 0.92962 0.0
C1065 C 0.32947 0.07292 0.94262 0.0
C1066 C 0.21105 0.07543 0.90707 0.0
C1067 C 0.36126 0.07407 0.89716 0.0
C1068 C 0.49382 0.07177 0.9102 0.0
C1069 C 0.47819 0.07122 0.9326 0.0
C1070 C 0.50261 0.07038 0.83907 0.0
C1071 C 0.42393 0.07903 0.82858 0.0
C1072 C 0.48217 0.06871 0.86133 0.0
C1073 C 0.38217 0.07564 0.87348 0.0
C1074 C 0.30638 0.0844 0.863 0.0
C1075 C 0.32729 0.08609 0.84089 0.0
H1076 H 0.66787 0.19736 0.94257 0.0
H1077 H 0.16548 0.20631 0.93785 0.0
H1078 H 0.64456 0.19769 0.90361 0.0
H1079 H 0.14072 0.20694 0.89842 0.0
H1080 H 0.08419 0.19314 0.83012 0.0
H1081 H 0.10731 0.1944 0.86903 0.0
H1082 H 0.63949 0.20915 0.87225 0.0
H1083 H 0.61453 0.20762 0.83293 0.0
C1084 C 0.77252 0.1995 0.93321 0.0
C1085 C 0.91919 0.20175 0.94337 0.0
C1086 C 0.75837 0.19979 0.91078 0.0
C1087 C 0.89034 0.20236 0.8978 0.0
C1088 C 0.03692 0.20479 0.90793 0.0
C1089 C 0.05127 0.20448 0.93051 0.0
C1090 C 0.98571 0.19666 0.83905 0.0
C1091 C 0.84698 0.20025 0.82839 0.0
C1092 C -3e-05 0.19748 0.86143 0.0
C1093 C 0.87612 0.20195 0.87383 0.0
C1094 C 0.73683 0.20557 0.8632 0.0
C1095 C 0.72227 0.2047 0.84068 0.0
H1096 H 0.6519 0.19979 0.43736 0.0
H1097 H 0.14481 0.20541 0.44305 0.0
H1098 H 0.62532 0.19963 0.3979 0.0
H1099 H 0.1183 0.20507 0.40403 0.0
H1100 H 0.15125 0.21213 0.33111 0.0
H1101 H 0.18426 0.21456 0.37019 0.0
H1102 H 0.50384 0.18685 0.37199 0.0
H1103 H 0.47199 0.18446 0.33335 0.0
C1104 C 0.53548 0.20109 0.43022 0.0
C1105 C 0.40052 0.20249 0.44333 0.0
C1106 C 0.51985 0.20093 0.40767 0.0
C1107 C 0.36924 0.20226 0.39785 0.0
C1108 C 0.23595 0.20411 0.41101 0.0
C1109 C 0.25136 0.20421 0.43344 0.0
C1110 C 0.22706 0.20651 0.33993 0.0
C1111 C 0.30893 0.19812 0.32911 0.0
C1112 C 0.24665 0.20792 0.36227 0.0
C1113 C 0.34886 0.20099 0.37412 0.0
C1114 C 0.42756 0.19249 0.36329 0.0
C1115 C 0.40762 0.19106 0.34112 0.0
H1116 H 0.59221 0.06833 0.43867 0.0
H1117 H 0.08737 0.07793 0.44297 0.0
H1118 H 0.61396 0.06808 0.3992 0.0
H1119 H 0.10773 0.07796 0.40396 0.0
H1120 H 0.13583 0.06827 0.33308 0.0
H1121 H 0.11394 0.0666 0.37242 0.0
H1122 H 0.64212 0.08077 0.36987 0.0
H1123 H 0.66228 0.08218 0.33095 0.0
C1124 C 0.70518 0.07041 0.43123 0.0
C1125 C 0.83756 0.07317 0.444 0.0
C1126 C 0.71783 0.0703 0.40863 0.0
C1127 C 0.86299 0.07299 0.39836 0.0
C1128 C 0.99507 0.07566 0.41123 0.0
C1129 C 0.9826 0.07574 0.43369 0.0
C1130 C 0.02783 0.07102 0.34098 0.0
C1131 C 0.90122 0.07536 0.32885 0.0
C1132 C 0.01505 0.07009 0.36351 0.0
C1133 C 0.87562 0.0735 0.37435 0.0
C1134 C 0.74977 0.07785 0.36212 0.0
C1135 C 0.7623 0.07875 0.33973 0.0
H1136 H 0.4348 0.9421 0.07956 0.0
H1137 H 0.88729 0.959 0.08237 0.0
H1138 H 0.40818 0.94351 0.1184 0.0
H1139 H 0.85847 0.96068 0.12163 0.0
H1140 H 0.83779 0.94915 0.19227 0.0
H1141 H 0.86367 0.94943 0.15334 0.0
H1142 H 0.35933 0.95608 0.14733 0.0
H1143 H 0.3323 0.95549 0.18673 0.0
C1144 C 0.52864 0.94619 0.08848 0.0
C1145 C 0.66365 0.95043 0.07784 0.0
C1146 C 0.51228 0.94709 0.11081 0.0
C1147 C 0.63015 0.95229 0.12319 0.0
C1148 C 0.7658 0.95654 0.11259 0.0
C1149 C 0.78258 0.95559 0.09012 0.0
C1150 C 0.73185 0.95071 0.18274 0.0
C1151 C 0.58235 0.95222 0.19265 0.0
C1152 C 0.74739 0.95097 0.16032 0.0
C1153 C 0.61396 0.95279 0.14713 0.0
C1154 C 0.46444 0.95452 0.15702 0.0
C1155 C 0.44874 0.95422 0.17958 0.0
H1156 H 0.85606 0.82691 0.08314 0.0
H1157 H 0.33999 0.81503 0.07896 0.0
H1158 H 0.87618 0.82694 0.12257 0.0
H1159 H 0.35854 0.81462 0.11807 0.0
H1160 H 0.40309 0.82686 0.18767 0.0
H1161 H 0.38286 0.82628 0.14823 0.0
H1162 H 0.8916 0.8158 0.15354 0.0
H1163 H 0.91046 0.81682 0.19256 0.0
C1164 C 0.96549 0.82413 0.09066 0.0
C1165 C 0.09646 0.82104 0.07798 0.0
C1166 C 0.97741 0.82412 0.11325 0.0
C1167 C 0.11987 0.82087 0.12359 0.0
C1168 C 0.24856 0.81744 0.11077 0.0
C1169 C 0.23725 0.81758 0.08829 0.0
C1170 C 0.2915 0.82438 0.18032 0.0
C1171 C 0.15833 0.82197 0.19318 0.0
C1172 C 0.27956 0.82401 0.15773 0.0
C1173 C 0.13479 0.82107 0.1476 0.0
C1174 C 0.00359 0.81836 0.16064 0.0
C1175 C 0.01499 0.81887 0.18309 0.0
H1176 H 0.48919 0.83731 0.68918 0.0
H1177 H 0.91486 0.81739 0.68894 0.0
H1178 H 0.46054 0.83479 0.65054 0.0
H1179 H 0.88407 0.81463 0.64996 0.0
H1180 H 0.87263 0.8229 0.57761 0.0
H1181 H 0.90191 0.82438 0.6164 0.0
H1182 H 0.39147 0.82126 0.62395 0.0
H1183 H 0.36138 0.82008 0.58465 0.0
C1184 C 0.57699 0.83236 0.68086 0.0
C1185 C 0.70466 0.82755 0.69216 0.0
C1186 C 0.55933 0.83083 0.65867 0.0
C1187 C 0.6686 0.8244 0.64712 0.0
C1188 C 0.7981 0.8197 0.65834 0.0
C1189 C 0.81615 0.82128 0.68065 0.0
C1190 C 0.76603 0.82248 0.58746 0.0
C1191 C 0.61417 0.82143 0.57797 0.0
C1192 C 0.78338 0.82325 0.60981 0.0
C1193 C 0.64941 0.82294 0.62337 0.0
C1194 C 0.49724 0.82167 0.61395 0.0
C1195 C 0.47975 0.82094 0.59145 0.0
H1196 H 0.9878 0.93716 0.58182 0.0
H1197 H 0.404 0.95804 0.58128 0.0
H1198 H 0.96035 0.93978 0.62047 0.0
H1199 H 0.37429 0.9609 0.62023 0.0
H1200 H 0.37213 0.95274 0.69268 0.0
H1201 H 0.39918 0.95132 0.65385 0.0
H1202 H 0.88695 0.95322 0.64699 0.0
H1203 H 0.85928 0.95432 0.68634 0.0
C1204 C 0.07373 0.94234 0.58998 0.0
C1205 C 0.19847 0.94739 0.57846 0.0
C1206 C 0.05672 0.94393 0.61216 0.0
C1207 C 0.16367 0.95065 0.62348 0.0
C1208 C 0.29021 0.9556 0.61204 0.0
C1209 C 0.30766 0.95396 0.58973 0.0
C1210 C 0.26465 0.9529 0.68297 0.0
C1211 C 0.11307 0.95357 0.69267 0.0
C1212 C 0.28066 0.95218 0.6606 0.0
C1213 C 0.14559 0.95214 0.64723 0.0
C1214 C 0.99362 0.95307 0.65686 0.0
C1215 C 0.97748 0.95376 0.67937 0.0
H1216 H 0.51192 0.58927 0.44108 0.0
H1217 H 0.13071 0.56552 0.44383 0.0
H1218 H 0.52941 0.58702 0.40224 0.0
H1219 H 0.15124 0.56296 0.40467 0.0
H1220 H 0.12305 0.57052 0.33209 0.0
H1221 H 0.10364 0.57168 0.37102 0.0
H1222 H 0.61665 0.57448 0.37537 0.0
H1223 H 0.6356 0.57375 0.33594 0.0
C1224 C 0.43144 0.58355 0.43333 0.0
C1225 C 0.31971 0.57757 0.44551 0.0
C1226 C 0.44292 0.58216 0.41104 0.0
C1227 C 0.34381 0.57467 0.40027 0.0
C1228 C 0.22907 0.56885 0.4124 0.0
C1229 C 0.21668 0.57032 0.43482 0.0
C1230 C 0.2324 0.57133 0.34128 0.0
C1231 C 0.38116 0.57214 0.33084 0.0
C1232 C 0.22098 0.57191 0.36372 0.0
C1233 C 0.35815 0.57324 0.37643 0.0
C1234 C 0.50796 0.57367 0.36606 0.0
C1235 C 0.51932 0.57317 0.34347 0.0
H1236 H 0.624 0.69741 0.333 0.0
H1237 H 0.06813 0.71527 0.32944 0.0
H1238 H 0.65165 0.69639 0.37238 0.0
H1239 H 0.0973 0.71405 0.36842 0.0
H1240 H 0.04646 0.71556 0.44247 0.0
H1241 H 0.99688 0.71925 0.40409 0.0
H1242 H 0.83323 0.68599 0.39562 0.0
H1243 H 0.88134 0.68233 0.43359 0.0
C1244 C 0.72565 0.70129 0.34063 0.0
C1245 C 0.84454 0.70631 0.32811 0.0
C1246 C 0.74255 0.70062 0.36314 0.0
C1247 C 0.87812 0.705 0.37351 0.0
C1248 C 0.99135 0.71062 0.36103 0.0
C1249 C 0.97482 0.71126 0.33863 0.0
C1250 C 0.00188 0.70902 0.43231 0.0
C1251 C 0.96797 0.69866 0.44111 0.0
C1252 C 0.9725 0.71114 0.41038 0.0
C1253 C 0.90816 0.70296 0.39688 0.0
C1254 C 0.87854 0.69256 0.40564 0.0
C1255 C 0.90823 0.69043 0.42741 0.0
H1256 H 0.6526 0.70751 0.93797 0.0
H1257 H 0.18313 0.69296 0.94063 0.0
H1258 H 0.62663 0.70934 0.8987 0.0
H1259 H 0.15896 0.69451 0.90176 0.0
H1260 H 0.09846 0.70721 0.83335 0.0
H1261 H 0.12433 0.70732 0.87278 0.0
H1262 H 0.62039 0.6982 0.86691 0.0
H1263 H 0.59592 0.69838 0.82795 0.0
C1264 C 0.5447 0.70464 0.93019 0.0
C1265 C 0.42032 0.70009 0.94245 0.0
C1266 C 0.52956 0.70567 0.9077 0.0
C1267 C 0.38997 0.70213 0.89704 0.0
C1268 C 0.26653 0.69754 0.90939 0.0
C1269 C 0.28139 0.69655 0.93174 0.0
C1270 C 0.21285 0.70528 0.84054 0.0
C1271 C 0.34463 0.70276 0.82748 0.0
C1272 C 0.22786 0.7053 0.86312 0.0
C1273 C 0.3748 0.70277 0.87307 0.0
C1274 C 0.50633 0.70037 0.8599 0.0
C1275 C 0.49153 0.70038 0.83746 0.0
H1276 H 0.15851 0.5695 0.836 0.0
H1277 H 0.67022 0.58063 0.83204 0.0
H1278 H 0.13375 0.56834 0.87537 0.0
H1279 H 0.64702 0.57977 0.87101 0.0
H1280 H 0.60813 0.56847 0.94092 0.0
H1281 H 0.63153 0.56766 0.90148 0.0
H1282 H 0.11175 0.58036 0.90573 0.0
H1283 H 0.09004 0.58089 0.94469 0.0
C1284 C 0.04647 0.57173 0.8435 0.0
C1285 C 0.91684 0.57518 0.83087 0.0
C1286 C 0.03209 0.5711 0.86605 0.0
C1287 C 0.88799 0.57395 0.87639 0.0
C1288 C 0.75865 0.57732 0.86365 0.0
C1289 C 0.7728 0.57792 0.84123 0.0
C1290 C 0.71837 0.57107 0.93337 0.0
C1291 C 0.84682 0.57475 0.94597 0.0
C1292 C 0.73198 0.57063 0.91078 0.0
C1293 C 0.87412 0.5739 0.9004 0.0
C1294 C 0.00187 0.57757 0.91311 0.0
C1295 C 0.98851 0.57797 0.93554 0.0
H1296 H 0.90668 0.45724 0.58162 0.0
H1297 H 0.41635 0.44649 0.57759 0.0
H1298 H 0.88133 0.45846 0.62097 0.0
H1299 H 0.39257 0.44741 0.61651 0.0
H1300 H 0.35327 0.45855 0.68626 0.0
H1301 H 0.3788 0.45954 0.64686 0.0
H1302 H 0.85626 0.44641 0.65134 0.0
H1303 H 0.83259 0.44571 0.69027 0.0
C1304 C 0.79407 0.4551 0.5891 0.0
C1305 C 0.66404 0.45174 0.57646 0.0
C1306 C 0.77934 0.45577 0.61163 0.0
C1307 C 0.63449 0.45305 0.62193 0.0
C1308 C 0.50477 0.44977 0.60918 0.0
C1309 C 0.51927 0.44914 0.58678 0.0
C1310 C 0.46343 0.45591 0.67876 0.0
C1311 C 0.59047 0.45204 0.69141 0.0
C1312 C 0.47825 0.45645 0.65621 0.0
C1313 C 0.62012 0.45309 0.64591 0.0
C1314 C 0.74667 0.44927 0.65867 0.0
C1315 C 0.73216 0.44877 0.68107 0.0
H1316 H 0.84382 0.32537 0.58255 0.0
H1317 H 0.33058 0.31415 0.57732 0.0
H1318 H 0.8659 0.32486 0.62197 0.0
H1319 H 0.35127 0.31325 0.61637 0.0
H1320 H 0.39641 0.32563 0.68603 0.0
H1321 H 0.37354 0.32498 0.64665 0.0
H1322 H 0.88855 0.3133 0.65261 0.0
H1323 H 0.91002 0.31433 0.69166 0.0
C1324 C 0.95428 0.32262 0.58982 0.0
C1325 C 0.08557 0.31988 0.57687 0.0
C1326 C 0.9673 0.3223 0.6124 0.0
C1327 C 0.11129 0.31911 0.62242 0.0
C1328 C 0.24009 0.316 0.60931 0.0
C1329 C 0.2276 0.31644 0.58687 0.0
C1330 C 0.28583 0.32283 0.67886 0.0
C1331 C 0.15497 0.3201 0.6919 0.0
C1332 C 0.27237 0.32243 0.6563 0.0
C1333 C 0.12834 0.31917 0.64638 0.0
C1334 C -0.00021 0.31609 0.65959 0.0
C1335 C 0.01274 0.3166 0.68202 0.0
H1336 H 0.8145 0.33108 0.07833 0.0
H1337 H 0.33924 0.31747 0.08168 0.0
H1338 H 0.8373 0.33011 0.11726 0.0
H1339 H 0.36384 0.31622 0.12106 0.0
H1340 H 0.3974 0.32824 0.19104 0.0
H1341 H 0.37389 0.32789 0.15207 0.0
H1342 H 0.86622 0.31774 0.147 0.0
H1343 H 0.89126 0.31841 0.1864 0.0
C1344 C 0.71469 0.32781 0.08738 0.0
C1345 C 0.57453 0.32437 0.07687 0.0
C1346 C 0.72872 0.32716 0.10978 0.0
C1347 C 0.60321 0.32301 0.12235 0.0
C1348 C 0.46249 0.31956 0.11187 0.0
C1349 C 0.44816 0.32025 0.08933 0.0
C1350 C 0.50112 0.32591 0.18169 0.0
C1351 C 0.64676 0.32339 0.19186 0.0
C1352 C 0.48686 0.32561 0.15926 0.0
C1353 C 0.61765 0.32275 0.14633 0.0
C1354 C 0.76337 0.32011 0.15648 0.0
C1355 C 0.7779 0.32045 0.17904 0.0
H1356 H 0.34031 0.44465 0.19075 0.0
H1357 H 0.85377 0.45609 0.18606 0.0
H1358 H 0.36483 0.44511 0.15179 0.0
H1359 H 0.87987 0.4568 0.14666 0.0
H1360 H 0.92728 0.44343 0.07781 0.0
H1361 H 0.90296 0.44433 0.11674 0.0
H1362 H 0.38248 0.45715 0.12109 0.0
H1363 H 0.40843 0.45599 0.08172 0.0
C1364 C 0.23835 0.44734 0.1814 0.0
C1365 C 0.09448 0.45029 0.19155 0.0
C1366 C 0.25331 0.4477 0.15898 0.0
C1367 C 0.12493 0.45104 0.14604 0.0
C1368 C 0.9808 0.45407 0.15616 0.0
C1369 C 0.96565 0.45369 0.17872 0.0
C1370 C 0.0281 0.44645 0.08699 0.0
C1371 C 0.17037 0.44961 0.07663 0.0
C1372 C 0.01321 0.44707 0.10938 0.0
C1373 C 0.14006 0.45088 0.12209 0.0
C1374 C 0.28276 0.45407 0.11177 0.0
C1375 C 0.29785 0.45343 0.08924 0.0
H1376 H 0.34432 0.16689 0.02198 0.0
H1377 H 0.84319 0.1626 1.00807 0.0
H1378 H 0.37833 0.14721 0.0242 0.0
H1379 H 0.87832 0.14274 1.00953 0.0
H1380 H 0.95721 0.10835 0.03421 0.0
H1381 H 0.92807 0.12811 0.03389 0.0
H1382 H 0.38741 0.13116 1.00269 0.0
H1383 H 0.41865 0.11125 1.00373 0.0
C1384 C 0.24117 0.16172 0.01925 0.0
C1385 C 0.09079 0.16631 0.01481 0.0
C1386 C 0.26121 0.1504 0.02038 0.0
C1387 C 0.13162 0.14334 0.01693 0.0
C1388 C 0.98058 0.14793 0.01257 0.0
C1389 C 0.9602 0.15931 0.01162 0.0
C1390 C 0.05277 0.11324 0.02742 0.0
C1391 C 0.1902 0.10825 0.01892 0.0
C1392 C 0.03524 0.12458 0.02705 0.0
C1393 C 0.15411 0.13126 0.018 0.0
C1394 C 0.29383 0.12628 1.00996 0.0
C1395 C 0.31207 0.11488 1.01052 0.0
H1396 H 0.93 0.16862 0.24331 0.0
H1397 H 0.42033 0.16353 0.2622 0.0
H1398 H 0.8869 0.14896 0.24241 0.0
H1399 H 0.37594 0.14375 0.26203 0.0
H1400 H 0.29245 0.10897 0.24015 0.0
H1401 H 0.33137 0.12863 0.23898 0.0
H1402 H 0.85828 0.13338 0.26511 0.0
H1403 H 0.81745 0.11353 0.26558 0.0
C1404 C 0.02885 0.16328 0.24734 0.0
C1405 C 0.17886 0.16764 0.25283 0.0
C1406 C 0.00352 0.15198 0.24699 0.0
C1407 C 0.12725 0.14471 0.25228 0.0
C1408 C 0.27815 0.14908 0.25757 0.0
C1409 C 0.30387 0.16042 0.25774 0.0
C1410 C 0.19604 0.11419 0.24557 0.0
C1411 C 0.05184 0.10968 0.25305 0.0
C1412 C 0.2191 0.1255 0.24505 0.0
C1413 C 0.09911 0.13265 0.25219 0.0
C1414 C 0.95309 0.12814 0.25929 0.0
C1415 C 0.92942 0.11677 0.25962 0.0
H1416 H 0.71282 0.85817 0.02507 0.0
H1417 H 0.18362 0.86178 0.99754 0.0
H1418 H 0.67482 0.87781 0.02367 0.0
H1419 H 0.14358 0.88162 0.99556 0.0
H1420 H 0.08249 0.9169 0.01913 0.0
H1421 H 0.12237 0.89726 0.01868 0.0
H1422 H 0.63175 0.89268 0.9992 0.0
H1423 H 0.59027 0.91251 1.00028 0.0
C1424 C 0.80833 0.86317 0.01858 0.0
C1425 C 0.95159 0.85841 0.01141 0.0
C1426 C 0.78564 0.87445 0.0176 0.0
C1427 C 0.90525 0.88131 1.00933 0.0
C1428 C 0.04934 0.87657 1.00221 0.0
C1429 C 0.07247 0.86522 1.0033 0.0
C1430 C 0.98265 0.91174 0.01472 0.0
C1431 C 0.83269 0.91628 1.00982 0.0
C1432 C 0.00626 0.90045 0.01428 0.0
C1433 C 0.88074 0.89337 1.00883 0.0
C1434 C 0.73067 0.8979 1.00373 0.0
C1435 C 0.70675 0.90925 1.00427 0.0
H1436 H 0.08341 0.86034 0.78199 0.0
H1437 H 0.61053 0.86424 0.7554 0.0
H1438 H 0.11985 0.88006 0.78197 0.0
H1439 H 0.64877 0.88408 0.75467 0.0
H1440 H 0.70494 0.91938 0.77479 0.0
H1441 H 0.67032 0.89973 0.77689 0.0
H1442 H 0.16327 0.89519 0.75848 0.0
H1443 H 0.19927 0.91509 0.75711 0.0
C1444 C 0.98691 0.86543 0.7761 0.0
C1445 C 0.84383 0.86072 0.76868 0.0
C1446 C 0.00861 0.87676 0.77591 0.0
C1447 C 0.88819 0.88371 0.76815 0.0
C1448 C 0.7437 0.879 0.76102 0.0
C1449 C 0.72146 0.86763 0.76138 0.0
C1450 C 0.80658 0.91421 0.77124 0.0
C1451 C 0.95497 0.91881 0.76567 0.0
C1452 C 0.78609 0.9029 0.77229 0.0
C1453 C 0.91305 0.89581 0.76761 0.0
C1454 C 0.0629 0.90039 0.76239 0.0
C1455 C 0.08386 0.91179 0.76154 0.0
H1456 H 0.77406 0.65476 0.49528 0.0
H1457 H 0.12017 0.66916 0.53849 0.0
H1458 H 0.90464 0.63693 0.49948 0.0
H1459 H 0.24959 0.65141 0.54266 0.0
H1460 H 0.29729 0.61462 0.56307 0.0
H1461 H 0.18542 0.63294 0.55862 0.0
H1462 H 0.17379 0.62837 0.48947 0.0
H1463 H 0.28691 0.61004 0.49386 0.0
C1464 C 0.87677 0.65411 0.50581 0.0
C1465 C 0.93663 0.66338 0.51653 0.0
C1466 C 0.95258 0.64394 0.50803 0.0
C1467 C 0.0882 0.64281 0.52126 0.0
C1468 C 0.14526 0.65202 0.53239 0.0
C1469 C 0.07102 0.66219 0.52996 0.0
C1470 C 0.27414 0.61761 0.54688 0.0
C1471 C 0.30129 0.61087 0.52884 0.0
C1472 C 0.20965 0.62809 0.54434 0.0
C1473 C 0.16874 0.63203 0.52372 0.0
C1474 C 0.20193 0.62548 0.50559 0.0
C1475 C 0.26876 0.61505 0.5081 0.0
H1476 H 0.41659 0.665 0.74837 0.0
H1477 H 0.93581 0.66822 0.77267 0.0
H1478 H 0.38298 0.64509 0.74721 0.0
H1479 H 0.90402 0.64852 0.77212 0.0
H1480 H 0.83981 0.61318 0.7511 0.0
H1481 H 0.87355 0.63306 0.74896 0.0
H1482 H 0.36047 0.62976 0.77097 0.0
H1483 H 0.32835 0.61007 0.77248 0.0
C1484 C 0.30442 0.66147 0.75356 0.0
C1485 C 0.17922 0.6682 0.7606 0.0
C1486 C 0.28497 0.65006 0.75296 0.0
C1487 C 0.14023 0.64517 0.7595 0.0
C1488 C 0.01578 0.65196 0.76655 0.0
C1489 C 0.03486 0.6633 0.76704 0.0
C1490 C 0.95379 0.61673 0.75544 0.0
C1491 C 0.08099 0.61003 0.76198 0.0
C1492 C 0.97332 0.62812 0.75428 0.0
C1493 C 0.12018 0.63304 0.75975 0.0
C1494 C 0.24684 0.62629 0.76624 0.0
C1495 C 0.22761 0.61496 0.76729 0.0
H1496 H 0.58953 0.41323 0.49874 0.0
H1497 H 0.07779 0.4172 0.51967 0.0
H1498 H 0.62712 0.39335 0.49809 0.0
H1499 H 0.1137 0.39753 0.51964 0.0
H1500 H 0.17656 0.36199 0.49906 0.0
H1501 H 0.13933 0.38185 0.49698 0.0
H1502 H 0.66141 0.37826 0.52219 0.0
H1503 H 0.69691 0.35859 0.52369 0.0
C1504 C 0.70427 0.40987 0.50329 0.0
C1505 C 0.8303 0.41681 0.50925 0.0
C1506 C 0.72598 0.39848 0.503 0.0
C1507 C 0.87393 0.3938 0.50877 0.0
C1508 C 0.99928 0.4008 0.5147 0.0
C1509 C 0.9779 0.41212 0.51489 0.0
C1510 C 0.06397 0.36547 0.50418 0.0
C1511 C 0.94004 0.35869 0.51153 0.0
C1512 C 0.0424 0.37686 0.50303 0.0
C1513 C 0.89672 0.38169 0.50931 0.0
C1514 C 0.77381 0.37486 0.51679 0.0
C1515 C 0.79504 0.36354 0.51784 0.0
H1516 H 0.57358 0.36187 0.2726 0.0
H1517 H 0.0406 0.35871 0.24381 0.0
H1518 H 0.6132 0.38171 0.27522 0.0
H1519 H 0.0782 0.37833 0.24584 0.0
H1520 H 0.16655 0.41294 0.2694 0.0
H1521 H 0.12588 0.39309 0.27008 0.0
H1522 H 0.63 0.39773 0.25336 0.0
H1523 H 0.66921 0.41737 0.25334 0.0
C1524 C 0.68376 0.3654 0.26668 0.0
C1525 C 0.80364 0.35869 0.25803 0.0
C1526 C 0.70676 0.37677 0.26814 0.0
C1527 C 0.84979 0.38165 0.26088 0.0
C1528 C 0.96828 0.37489 0.25206 0.0
C1529 C 0.9457 0.3636 0.2507 0.0
C1530 C 0.04903 0.4097 0.26597 0.0
C1531 C 0.92161 0.41676 0.26129 0.0
C1532 C 0.02549 0.39831 0.26626 0.0
C1533 C 0.87424 0.39376 0.26176 0.0
C1534 C 0.74722 0.40089 0.25727 0.0
C1535 C 0.77046 0.4122 0.25708 0.0
H1536 H 0.91679 0.11061 0.52274 0.0
H1537 H 0.42289 0.1067 0.50436 0.0
H1538 H 0.87978 0.1305 0.52358 0.0
H1539 H 0.38745 0.12636 0.50455 0.0
H1540 H 0.32992 0.16201 0.52418 0.0
H1541 H 0.36755 0.14216 0.52672 0.0
H1542 H 0.84046 0.14556 0.49974 0.0
H1543 H 0.80474 0.16522 0.49782 0.0
C1544 C 0.80084 0.11398 0.51882 0.0
C1545 C 0.67322 0.10704 0.51348 0.0
C1546 C 0.77944 0.12538 0.51921 0.0
C1547 C 0.63016 0.13009 0.51416 0.0
C1548 C 0.50308 0.12309 0.50893 0.0
C1549 C 0.52418 0.11176 0.50864 0.0
C1550 C 0.44156 0.15849 0.5188 0.0
C1551 C 0.56396 0.16521 0.51081 0.0
C1552 C 0.46336 0.14711 0.5202 0.0
C1553 C 0.60771 0.14222 0.51352 0.0
C1554 C 0.72919 0.149 0.50546 0.0
C1555 C 0.70778 0.16031 0.50417 0.0
H1556 H 0.81885 0.10749 0.75817 0.0
H1557 H 0.31612 0.113 0.74733 0.0
H1558 H 0.8653 0.12708 0.7589 0.0
H1559 H 0.36368 0.13275 0.74728 0.0
H1560 H 0.46803 0.16617 0.77606 0.0
H1561 H 0.42673 0.14663 0.77267 0.0
H1562 H 0.87498 0.1437 0.73866 0.0
H1563 H 0.91875 0.16344 0.74268 0.0
C1564 C 0.71812 0.11289 0.75566 0.0
C1565 C 0.56325 0.10866 0.75285 0.0
C1566 C 0.7453 0.12416 0.75592 0.0
C1567 C 0.61849 0.13154 0.75325 0.0
C1568 C 0.46396 0.12731 0.74979 0.0
C1569 C 0.43653 0.11599 0.74968 0.0
C1570 C 0.55839 0.16139 0.76786 0.0
C1571 C 0.69686 0.16637 0.7596 0.0
C1572 C 0.53367 0.15016 0.76573 0.0
C1573 C 0.64617 0.14356 0.75514 0.0
C1574 C 0.78608 0.14852 0.74705 0.0
C1575 C 0.81143 0.15982 0.74932 0.0
H1576 H 0.60491 0.91448 0.51343 0.0
H1577 H 0.10218 0.91027 0.50054 0.0
H1578 H 0.64171 0.89481 0.51339 0.0
H1579 H 0.1401 0.89041 0.4998 0.0
H1580 H 0.22583 0.85614 0.52614 0.0
H1581 H 0.1925 0.87577 0.524 0.0
H1582 H 0.64914 0.87858 0.49206 0.0
H1583 H 0.68467 0.85869 0.49479 0.0
C1584 C 0.50194 0.90935 0.51037 0.0
C1585 C 0.35001 0.91399 0.5071 0.0
C1586 C 0.52369 0.89802 0.51017 0.0
C1587 C 0.39432 0.89095 0.50659 0.0
C1588 C 0.24238 0.89558 0.50294 0.0
C1589 C 0.22039 0.90698 0.50326 0.0
C1590 C 0.31982 0.8609 0.51864 0.0
C1591 C 0.45824 0.8558 0.51061 0.0
C1592 C 0.29965 0.87221 0.51723 0.0
C1593 C 0.41687 0.87882 0.50763 0.0
C1594 C 0.55658 0.87376 0.49972 0.0
C1595 C 0.57723 0.86236 0.50124 0.0
H1596 H 0.64741 0.91346 0.27371 0.0
H1597 H 0.17846 0.91655 0.24542 0.0
H1598 H 0.6097 0.89362 0.27619 0.0
H1599 H 0.14278 0.89689 0.24729 0.0
H1600 H 0.06228 0.86204 0.27068 0.0
H1601 H 0.09891 0.88194 0.27137 0.0
H1602 H 0.59429 0.8778 0.25388 0.0
H1603 H 0.55916 0.85813 0.25385 0.0
C1604 C 0.53712 0.90991 0.26788 0.0
C1605 C 0.41625 0.91659 0.25938 0.0
C1606 C 0.51527 0.89854 0.26925 0.0
C1607 C 0.37249 0.89362 0.26203 0.0
C1608 C 0.25267 0.90036 0.25343 0.0
C1609 C 0.27409 0.91167 0.25217 0.0
C1610 C 0.17877 0.86541 0.26706 0.0
C1611 C 0.30738 0.85848 0.26221 0.0
C1612 C 0.19997 0.87681 0.26736 0.0
C1613 C 0.35002 0.88151 0.26272 0.0
C1614 C 0.47804 0.87452 0.25795 0.0
C1615 C 0.45713 0.86319 0.25775 0.0
H1616 H 0.34252 0.66293 0.02553 0.0
H1617 H 0.81337 0.66615 0.99784 0.0
H1618 H 0.38212 0.64313 0.02849 0.0
H1619 H 0.85086 0.64652 1.00015 0.0
H1620 H 0.93207 0.61188 0.02419 0.0
H1621 H 0.89329 0.63175 0.02481 0.0
H1622 H 0.40079 0.62733 1.00604 0.0
H1623 H 0.43789 0.60769 1.00609 0.0
C1624 C 0.45364 0.65941 0.01995 0.0
C1625 C 0.57454 0.6661 0.01148 0.0
C1626 C 0.47653 0.64807 0.02159 0.0
C1627 C 0.6203 0.64322 0.01465 0.0
C1628 C 0.74023 0.64996 1.00609 0.0
C1629 C 0.71783 0.66124 1.00458 0.0
C1630 C 0.81573 0.61519 0.02029 0.0
C1631 C 0.68844 0.60821 0.01509 0.0
C1632 C 0.79336 0.62656 0.02055 0.0
C1633 C 0.64354 0.63115 0.0155 0.0
C1634 C 0.51676 0.62412 1.01041 0.0
C1635 C 0.53877 0.61281 1.01026 0.0
H1636 H 0.85197 0.6602 0.30623 0.0
H1637 H 0.7476 0.66528 0.23864 0.0
H1638 H 0.73397 0.64202 0.30436 0.0
H1639 H 0.62368 0.6472 0.23689 0.0
H1640 H 0.35434 0.61643 0.30382 0.0
H1641 H 0.47427 0.63456 0.30231 0.0
H1642 H 0.65122 0.62773 0.23813 0.0
H1643 H 0.52555 0.60969 0.2394 0.0
C1644 C 0.8054 0.65737 0.29089 0.0
C1645 C 0.80888 0.66421 0.27263 0.0
C1646 C 0.73546 0.64699 0.28986 0.0
C1647 C 0.66497 0.6432 0.2706 0.0
C1648 C 0.67646 0.64981 0.252 0.0
C1649 C 0.74818 0.66018 0.25298 0.0
C1650 C 0.41609 0.61888 0.28921 0.0
C1651 C 0.43058 0.61159 0.27178 0.0
C1652 C 0.4871 0.62923 0.28844 0.0
C1653 C 0.5766 0.63255 0.27032 0.0
C1654 C 0.58352 0.62549 0.25236 0.0
C1655 C 0.51078 0.61514 0.25305 0.0
H1656 H 0.57582 0.41627 0.01703 0.0
H1657 H 0.08584 0.41282 0.99643 0.0
H1658 H 0.60881 0.39658 0.01625 0.0
H1659 H 0.12056 0.39294 0.99496 0.0
H1660 H 0.18525 0.35812 0.02036 0.0
H1661 H 0.15293 0.3778 0.01889 0.0
H1662 H 0.6301 0.38104 0.99319 0.0
H1663 H 0.66438 0.36116 0.99533 0.0
C1664 C 0.47506 0.4113 0.01213 0.0
C1665 C 0.3277 0.41612 1.00685 0.0
C1666 C 0.49473 0.39997 0.01151 0.0
C1667 C 0.36787 0.39314 1.00546 0.0
C1668 C 0.22042 0.39795 0.99996 0.0
C1669 C 0.20038 0.40934 1.00072 0.0
C1670 C 0.28374 0.363 0.01437 0.0
C1671 C 0.42781 0.35807 1.00799 0.0
C1672 C 0.26437 0.37432 0.01334 0.0
C1673 C 0.38819 0.38103 1.00578 0.0
C1674 C 0.53267 0.37611 0.99932 0.0
C1675 C 0.55248 0.36473 1.00049 0.0
H1676 H 0.66637 0.41364 0.76727 0.0
H1677 H 0.17098 0.41798 0.75 0.0
H1678 H 0.62666 0.39377 0.7677 0.0
H1679 H 0.13275 0.39833 0.74984 0.0
H1680 H 0.07571 0.36267 0.77029 0.0
H1681 H 0.11543 0.3825 0.77249 0.0
H1682 H 0.58032 0.37897 0.74314 0.0
H1683 H 0.54253 0.35931 0.74148 0.0
C1684 C 0.54957 0.41037 0.76349 0.0
C1685 C 0.42224 0.4174 0.75859 0.0
C1686 C 0.52662 0.39899 0.76366 0.0
C1687 C 0.37609 0.39443 0.75884 0.0
C1688 C 0.24932 0.40152 0.75401 0.0
C1689 C 0.27199 0.41283 0.75393 0.0
C1690 C 0.18585 0.36616 0.76426 0.0
C1691 C 0.30569 0.35941 0.75573 0.0
C1692 C 0.20887 0.37752 0.76549 0.0
C1693 C 0.35183 0.38235 0.75811 0.0
C1694 C 0.47038 0.37555 0.7494 0.0
C1695 C 0.44775 0.36426 0.74827 0.0
loop_
_geom_bond_atom_site_label_1
_geom_bond_atom_site_label_2
_geom_bond_distance
_geom_bond_site_symmetry_2
_ccdc_geom_bond_type
Mg0 O7 2.141 . S
Mg0 O8 2.104 . S
Mg0 O9 2.047 . S
Mg0 O12 2.086 1_556 S
C1 O2 1.313 . S
C1 O8 1.195 . S
O2 C1 1.313 . S
C3 O4 1.245 . S
C3 O12 1.289 . S
O4 C3 1.245 . S
C5 O6 1.245 . S
C5 O7 1.289 1_554 S
O6 C5 1.245 . S
O7 Mg0 2.141 . S
O7 C5 1.289 1_556 S
O8 Mg0 2.104 . S
O8 C1 1.195 . S
O9 Mg0 2.047 . S
O9 C10 1.196 . S
C10 O9 1.196 . S
C10 O11 1.313 . S
O11 C10 1.313 . S
O12 Mg0 2.086 1_554 S
O12 C3 1.289 . S
Mg13 O20 2.140 1_455 S
Mg13 O21 2.104 . S
Mg13 O22 2.047 . S
Mg13 O25 2.086 1_556 S
C14 O15 1.313 . S
C14 O21 1.195 1_655 S
O15 C14 1.313 . S
C16 O17 1.245 . S
C16 O25 1.289 1_655 S
O17 C16 1.245 . S
C18 O19 1.245 . S
C18 O20 1.293 1_554 S
O19 C18 1.245 . S
O20 Mg13 2.140 1_655 S
O20 C18 1.293 1_556 S
O21 Mg13 2.104 . S
O21 C14 1.195 1_455 S
O22 Mg13 2.047 . S
O22 C23 1.196 . S
C23 O22 1.196 . S
C23 O24 1.313 1_455 S
O24 C23 1.313 1_655 S
O25 Mg13 2.086 1_554 S
O25 C16 1.289 1_455 S
Mg26 O33 2.141 . S
Mg26 O34 2.048 . S
Mg26 O35 2.048 . S
Mg26 O38 2.141 . S
C27 O28 1.313 . S
C27 O34 1.195 . S
O28 C27 1.313 . S
C29 O30 1.245 . S
C29 O38 1.289 . S
O30 C29 1.245 . S
C31 O32 1.245 . S
C31 O33 1.289 . S
O32 C31 1.245 . S
O33 Mg26 2.141 . S
O33 C31 1.289 . S
O34 Mg26 2.048 . S
O34 C27 1.195 . S
O35 Mg26 2.048 . S
O35 C36 1.195 . S
C36 O35 1.195 . S
C36 O37 1.313 . S
O37 C36 1.313 . S
O38 Mg26 2.141 . S
O38 C29 1.289 . S
Mg39 O46 2.141 1_455 S
Mg39 O47 2.048 1_455 S
Mg39 O48 2.048 . S
Mg39 O51 2.141 . S
C40 O41 1.313 . S
C40 O47 1.195 . S
O41 C40 1.313 . S
C42 O43 1.245 . S
C42 O51 1.289 1_655 S
O43 C42 1.245 . S
C44 O45 1.245 . S
C44 O46 1.289 . S
O45 C44 1.245 . S
O46 Mg39 2.141 1_655 S
O46 C44 1.289 . S
O47 Mg39 2.048 1_655 S
O47 C40 1.195 . S
O48 Mg39 2.048 . S
O48 C49 1.191 1_455 S
C49 O48 1.191 1_655 S
C49 O50 1.319 . S
O50 C49 1.319 . S
O51 Mg39 2.141 . S
O51 C42 1.289 1_455 S
Mg52 O59 2.141 . S
Mg52 O60 2.048 1_556 S
Mg52 O61 2.048 . S
Mg52 O64 2.141 . S
C53 O54 1.313 . S
C53 O60 1.195 . S
O54 C53 1.313 . S
C55 O56 1.245 . S
C55 O64 1.289 . S
O56 C55 1.245 . S
C57 O58 1.252 . S
C57 O59 1.284 1_554 S
O58 C57 1.252 . S
O59 Mg52 2.141 . S
O59 C57 1.284 1_556 S
O60 Mg52 2.048 1_554 S
O60 C53 1.195 . S
O61 Mg52 2.048 . S
O61 C62 1.195 1_556 S
C62 O61 1.195 1_554 S
C62 O63 1.313 . S
O63 C62 1.313 . S
O64 Mg52 2.141 . S
O64 C55 1.289 . S
Mg65 O72 2.141 . S
Mg65 O73 2.048 1_556 S
Mg65 O74 2.048 . S
Mg65 O77 2.141 . S
C66 O67 1.313 1_455 S
C66 O73 1.195 . S
O67 C66 1.313 1_655 S
C68 O69 1.245 . S
C68 O77 1.289 1_655 S
O69 C68 1.245 . S
C70 O71 1.252 1_455 S
C70 O72 1.284 1_554 S
O71 C70 1.252 1_655 S
O72 Mg65 2.141 . S
O72 C70 1.284 1_556 S
O73 Mg65 2.048 1_554 S
O73 C66 1.195 . S
O74 Mg65 2.048 . S
O74 C75 1.195 1_456 S
C75 O74 1.195 1_654 S
C75 O76 1.313 . S
O76 C75 1.313 . S
O77 Mg65 2.141 . S
O77 C68 1.289 1_455 S
Mg78 O85 2.141 . S
Mg78 O86 2.048 . S
Mg78 O87 2.048 . S
Mg78 O90 2.141 . S
C79 O80 1.313 . S
C79 O86 1.195 . S
O80 C79 1.313 . S
C81 O82 1.245 . S
C81 O90 1.289 . S
O82 C81 1.245 . S
C83 O84 1.245 . S
C83 O85 1.289 . S
O84 C83 1.245 . S
O85 Mg78 2.141 . S
O85 C83 1.289 . S
O86 Mg78 2.048 . S
O86 C79 1.195 . S
O87 Mg78 2.048 . S
O87 C88 1.195 . S
C88 O87 1.195 . S
C88 O89 1.313 . S
O89 C88 1.313 . S
O90 Mg78 2.141 . S
O90 C81 1.289 . S
Mg91 O98 2.141 . S
Mg91 O99 2.048 . S
Mg91 O100 2.048 . S
Mg91 O103 2.141 . S
C92 O93 1.313 1_455 S
C92 O99 1.195 . S
O93 C92 1.313 1_655 S
C94 O95 1.245 . S
C94 O103 1.289 1_655 S
O95 C94 1.245 . S
C96 O97 1.245 1_455 S
C96 O98 1.289 . S
O97 C96 1.245 1_655 S
O98 Mg91 2.141 . S
O98 C96 1.289 . S
O99 Mg91 2.048 . S
O99 C92 1.195 . S
O100 Mg91 2.048 . S
O100 C101 1.195 1_455 S
C101 O100 1.195 1_655 S
C101 O102 1.313 . S
O102 C101 1.313 . S
O103 Mg91 2.141 . S
O103 C94 1.289 1_455 S
Mg104 O111 2.141 . S
Mg104 O112 2.048 . S
Mg104 O113 2.048 . S
Mg104 O116 2.141 . S
C105 O106 1.313 . S
C105 O112 1.195 . S
O106 C105 1.313 . S
C107 O108 1.245 . S
C107 O116 1.289 . S
O108 C107 1.245 . S
C109 O110 1.245 . S
C109 O111 1.289 . S
O110 C109 1.245 . S
O111 Mg104 2.141 . S
O111 C109 1.289 . S
O112 Mg104 2.048 . S
O112 C105 1.195 . S
O113 Mg104 2.048 . S
O113 C114 1.195 . S
C114 O113 1.195 . S
C114 O115 1.313 . S
O115 C114 1.313 . S
O116 Mg104 2.141 . S
O116 C107 1.289 . S
Mg117 O124 2.141 1_455 S
Mg117 O125 2.048 1_455 S
Mg117 O126 2.048 . S
Mg117 O129 2.141 . S
C118 O119 1.313 . S
C118 O125 1.195 . S
O119 C118 1.313 . S
C120 O121 1.245 . S
C120 O129 1.289 1_655 S
O121 C120 1.245 . S
C122 O123 1.245 . S
C122 O124 1.289 . S
O123 C122 1.245 . S
O124 Mg117 2.141 1_655 S
O124 C122 1.289 . S
O125 Mg117 2.048 1_655 S
O125 C118 1.195 . S
O126 Mg117 2.048 . S
O126 C127 1.192 1_455 S
C127 O126 1.192 1_655 S
C127 O128 1.318 . S
O128 C127 1.318 . S
O129 Mg117 2.141 . S
O129 C120 1.289 1_455 S
Mg130 O137 2.141 . S
Mg130 O138 2.048 . S
Mg130 O139 2.048 . S
Mg130 O142 2.141 . S
C131 O132 1.313 . S
C131 O138 1.195 . S
O132 C131 1.313 . S
C133 O134 1.245 . S
C133 O142 1.289 . S
O134 C133 1.245 . S
C135 O136 1.245 . S
C135 O137 1.289 . S
O136 C135 1.245 . S
O137 Mg130 2.141 . S
O137 C135 1.289 . S
O138 Mg130 2.048 . S
O138 C131 1.195 . S
O139 Mg130 2.048 . S
O139 C140 1.195 . S
C140 O139 1.195 . S
C140 O141 1.313 . S
O141 C140 1.313 . S
O142 Mg130 2.141 . S
O142 C133 1.289 . S
Mg143 O150 2.141 1_455 S
Mg143 O151 2.048 . S
Mg143 O152 2.048 . S
Mg143 O155 2.141 . S
C144 O145 1.313 . S
C144 O151 1.195 1_655 S
O145 C144 1.313 . S
C146 O147 1.245 . S
C146 O155 1.289 1_655 S
O147 C146 1.245 . S
C148 O149 1.245 . S
C148 O150 1.289 . S
O149 C148 1.245 . S
O150 Mg143 2.141 1_655 S
O150 C148 1.289 . S
O151 Mg143 2.048 . S
O151 C144 1.195 1_455 S
O152 Mg143 2.048 . S
O152 C153 1.195 . S
C153 O152 1.195 . S
C153 O154 1.313 1_455 S
O154 C153 1.313 1_655 S
O155 Mg143 2.141 . S
O155 C146 1.289 1_455 S
Mg156 O163 2.141 . S
Mg156 O164 2.048 . S
Mg156 O165 2.048 . S
Mg156 O168 2.141 . S
C157 O158 1.313 . S
C157 O164 1.195 . S
O158 C157 1.313 . S
C159 O160 1.245 . S
C159 O168 1.289 . S
O160 C159 1.245 . S
C161 O162 1.245 . S
C161 O163 1.289 . S
O162 C161 1.245 . S
O163 Mg156 2.141 . S
O163 C161 1.289 . S
O164 Mg156 2.048 . S
O164 C157 1.195 . S
O165 Mg156 2.048 . S
O165 C166 1.195 . S
C166 O165 1.195 . S
C166 O167 1.313 . S
O167 C166 1.313 . S
O168 Mg156 2.141 . S
O168 C159 1.289 . S
Mg169 O176 2.141 . S
Mg169 O177 2.048 . S
Mg169 O178 2.048 . S
Mg169 O181 2.141 . S
C170 O171 1.313 1_455 S
C170 O177 1.195 . S
O171 C170 1.313 1_655 S
C172 O173 1.245 . S
C172 O181 1.289 1_655 S
O173 C172 1.245 . S
C174 O175 1.245 1_455 S
C174 O176 1.289 . S
O175 C174 1.245 1_655 S
O176 Mg169 2.141 . S
O176 C174 1.289 . S
O177 Mg169 2.048 . S
O177 C170 1.195 . S
O178 Mg169 2.048 . S
O178 C179 1.195 1_455 S
C179 O178 1.195 1_655 S
C179 O180 1.313 . S
O180 C179 1.313 . S
O181 Mg169 2.141 . S
O181 C172 1.289 1_455 S
Mg182 O189 2.141 . S
Mg182 O190 2.048 . S
Mg182 O191 2.048 . S
Mg182 O194 2.141 . S
C183 O184 1.313 . S
C183 O190 1.195 . S
O184 C183 1.313 . S
C185 O186 1.245 . S
C185 O194 1.289 . S
O186 C185 1.245 . S
C187 O188 1.245 . S
C187 O189 1.289 . S
O188 C187 1.245 . S
O189 Mg182 2.141 . S
O189 C187 1.289 . S
O190 Mg182 2.048 . S
O190 C183 1.195 . S
O191 Mg182 2.048 . S
O191 C192 1.195 . S
C192 O191 1.195 . S
C192 O193 1.313 . S
O193 C192 1.313 . S
O194 Mg182 2.141 . S
O194 C185 1.289 . S
Mg195 O202 2.141 . S
Mg195 O203 2.048 . S
Mg195 O204 2.048 . S
Mg195 O207 2.141 . S
C196 O197 1.313 1_455 S
C196 O203 1.195 . S
O197 C196 1.313 1_655 S
C198 O199 1.245 . S
C198 O207 1.289 1_655 S
O199 C198 1.245 . S
C200 O201 1.245 1_455 S
C200 O202 1.289 . S
O201 C200 1.245 1_655 S
O202 Mg195 2.141 . S
O202 C200 1.289 . S
O203 Mg195 2.048 . S
O203 C196 1.195 . S
O204 Mg195 2.048 . S
O204 C205 1.195 1_455 S
C205 O204 1.195 1_655 S
C205 O206 1.313 . S
O206 C205 1.313 . S
O207 Mg195 2.141 . S
O207 C198 1.289 1_455 S
Mg208 O215 2.141 . S
Mg208 O216 2.048 . S
Mg208 O217 2.048 . S
Mg208 O220 2.141 . S
C209 O210 1.313 . S
C209 O216 1.195 . S
O210 C209 1.313 . S
C211 O212 1.245 . S
C211 O220 1.289 . S
O212 C211 1.245 . S
C213 O214 1.245 1_655 S
C213 O215 1.289 . S
O214 C213 1.245 1_455 S
O215 Mg208 2.141 . S
O215 C213 1.289 . S
O216 Mg208 2.048 . S
O216 C209 1.195 . S
O217 Mg208 2.048 . S
O217 C218 1.195 . S
C218 O217 1.195 . S
C218 O219 1.313 . S
O219 C218 1.313 . S
O220 Mg208 2.141 . S
O220 C211 1.289 . S
Mg221 O228 2.141 . S
Mg221 O229 2.048 . S
Mg221 O230 2.048 . S
Mg221 O233 2.141 . S
C222 O223 1.313 . S
C222 O229 1.195 . S
O223 C222 1.313 . S
C224 O225 1.245 . S
C224 O233 1.289 . S
O225 C224 1.245 . S
C226 O227 1.245 . S
C226 O228 1.289 . S
O227 C226 1.245 . S
O228 Mg221 2.141 . S
O228 C226 1.289 . S
O229 Mg221 2.048 . S
O229 C222 1.195 . S
O230 Mg221 2.048 . S
O230 C231 1.195 . S
C231 O230 1.195 . S
C231 O232 1.313 . S
O232 C231 1.313 . S
O233 Mg221 2.141 . S
O233 C224 1.289 . S
Mg234 O241 2.141 . S
Mg234 O242 2.048 . S
Mg234 O243 2.048 . S
Mg234 O246 2.141 . S
C235 O236 1.313 . S
C235 O242 1.195 . S
O236 C235 1.313 . S
C237 O238 1.245 . S
C237 O246 1.289 . S
O238 C237 1.245 . S
C239 O240 1.245 1_655 S
C239 O241 1.289 . S
O240 C239 1.245 1_455 S
O241 Mg234 2.141 . S
O241 C239 1.289 . S
O242 Mg234 2.048 . S
O242 C235 1.195 . S
O243 Mg234 2.048 . S
O243 C244 1.195 . S
C244 O243 1.195 . S
C244 O245 1.313 . S
O245 C244 1.313 . S
O246 Mg234 2.141 . S
O246 C237 1.289 . S
Mg247 O254 2.141 . S
Mg247 O255 2.048 . S
Mg247 O256 2.048 . S
Mg247 O259 2.141 . S
C248 O249 1.313 . S
C248 O255 1.195 . S
O249 C248 1.313 . S
C250 O251 1.245 . S
C250 O259 1.289 . S
O251 C250 1.245 . S
C252 O253 1.245 . S
C252 O254 1.289 . S
O253 C252 1.245 . S
O254 Mg247 2.141 . S
O254 C252 1.289 . S
O255 Mg247 2.048 . S
O255 C248 1.195 . S
O256 Mg247 2.048 . S
O256 C257 1.195 . S
C257 O256 1.195 . S
C257 O258 1.313 . S
O258 C257 1.313 . S
O259 Mg247 2.141 . S
O259 C250 1.289 . S
Mg260 O267 2.141 . S
Mg260 O268 2.048 . S
Mg260 O269 2.048 . S
Mg260 O272 2.141 . S
C261 O262 1.313 . S
C261 O268 1.195 . S
O262 C261 1.313 . S
C263 O264 1.245 . S
C263 O272 1.289 . S
O264 C263 1.245 . S
C265 O266 1.245 . S
C265 O267 1.289 . S
O266 C265 1.245 . S
O267 Mg260 2.141 . S
O267 C265 1.289 . S
O268 Mg260 2.048 . S
O268 C261 1.195 . S
O269 Mg260 2.048 . S
O269 C270 1.195 . S
C270 O269 1.195 . S
C270 O271 1.313 . S
O271 C270 1.313 . S
O272 Mg260 2.141 . S
O272 C263 1.289 . S
Mg273 O280 2.141 . S
Mg273 O281 2.048 . S
Mg273 O282 2.048 . S
Mg273 O285 2.141 . S
C274 O275 1.313 . S
C274 O281 1.195 . S
O275 C274 1.313 . S
C276 O277 1.245 . S
C276 O285 1.289 . S
O277 C276 1.245 . S
C278 O279 1.245 . S
C278 O280 1.289 . S
O279 C278 1.245 . S
O280 Mg273 2.141 . S
O280 C278 1.289 . S
O281 Mg273 2.048 . S
O281 C274 1.195 . S
O282 Mg273 2.048 . S
O282 C283 1.195 . S
C283 O282 1.195 . S
C283 O284 1.313 . S
O284 C283 1.313 . S
O285 Mg273 2.141 . S
O285 C276 1.289 . S
Mg286 O293 2.141 . S
Mg286 O294 2.048 . S
Mg286 O295 2.048 . S
Mg286 O298 2.141 . S
C287 O288 1.313 . S
C287 O294 1.195 . S
O288 C287 1.313 . S
C289 O290 1.245 . S
C289 O298 1.289 . S
O290 C289 1.245 . S
C291 O292 1.245 . S
C291 O293 1.289 . S
O292 C291 1.245 . S
O293 Mg286 2.141 . S
O293 C291 1.289 . S
O294 Mg286 2.048 . S
O294 C287 1.195 . S
O295 Mg286 2.048 . S
O295 C296 1.195 . S
C296 O295 1.195 . S
C296 O297 1.313 . S
O297 C296 1.313 . S
O298 Mg286 2.141 . S
O298 C289 1.289 . S
Mg299 O306 2.141 . S
Mg299 O307 2.048 . S
Mg299 O308 2.048 . S
Mg299 O311 2.141 . S
C300 O301 1.313 . S
C300 O307 1.195 . S
O301 C300 1.313 . S
C302 O303 1.245 . S
C302 O311 1.289 . S
O303 C302 1.245 . S
C304 O305 1.245 . S
C304 O306 1.289 . S
O305 C304 1.245 . S
O306 Mg299 2.141 . S
O306 C304 1.289 . S
O307 Mg299 2.048 . S
O307 C300 1.195 . S
O308 Mg299 2.048 . S
O308 C309 1.195 . S
C309 O308 1.195 . S
C309 O310 1.313 . S
O310 C309 1.313 . S
O311 Mg299 2.141 . S
O311 C302 1.289 . S
Mg312 O319 2.141 . S
Mg312 O320 2.103 . S
Mg312 O321 2.047 . S
Mg312 O324 2.086 1_556 S
C313 O314 1.313 . S
C313 O320 1.195 . S
O314 C313 1.313 . S
C315 O316 1.245 . S
C315 O324 1.289 . S
O316 C315 1.245 . S
C317 O318 1.245 1_655 S
C317 O319 1.289 1_554 S
O318 C317 1.245 1_455 S
O319 Mg312 2.141 . S
O319 C317 1.289 1_556 S
O320 Mg312 2.103 . S
O320 C313 1.195 . S
O321 Mg312 2.047 . S
O321 C322 1.196 . S
C322 O321 1.196 . S
C322 O323 1.313 . S
O323 C322 1.313 . S
O324 Mg312 2.086 1_554 S
O324 C315 1.289 . S
Mg325 O332 2.141 . S
Mg325 O333 2.103 . S
Mg325 O334 2.047 . S
Mg325 O337 2.086 1_556 S
C326 O327 1.313 . S
C326 O333 1.195 . S
O327 C326 1.313 . S
C328 O329 1.245 . S
C328 O337 1.289 . S
O329 C328 1.245 . S
C330 O331 1.245 . S
C330 O332 1.289 1_554 S
O331 C330 1.245 . S
O332 Mg325 2.141 . S
O332 C330 1.289 1_556 S
O333 Mg325 2.103 . S
O333 C326 1.195 . S
O334 Mg325 2.047 . S
O334 C335 1.196 . S
C335 O334 1.196 . S
C335 O336 1.313 . S
O336 C335 1.313 . S
O337 Mg325 2.086 1_554 S
O337 C328 1.289 . S
Mg338 O345 2.141 . S
Mg338 O346 2.048 . S
Mg338 O347 2.048 . S
Mg338 O350 2.141 . S
C339 O340 1.313 . S
C339 O346 1.195 . S
O340 C339 1.313 . S
C341 O342 1.245 . S
C341 O350 1.289 . S
O342 C341 1.245 . S
C343 O344 1.245 1_655 S
C343 O345 1.289 . S
O344 C343 1.245 1_455 S
O345 Mg338 2.141 . S
O345 C343 1.289 . S
O346 Mg338 2.048 . S
O346 C339 1.195 . S
O347 Mg338 2.048 . S
O347 C348 1.195 . S
C348 O347 1.195 . S
C348 O349 1.313 . S
O349 C348 1.313 . S
O350 Mg338 2.141 . S
O350 C341 1.289 . S
Mg351 O358 2.141 . S
Mg351 O359 2.048 . S
Mg351 O360 2.048 . S
Mg351 O363 2.141 . S
C352 O353 1.313 . S
C352 O359 1.195 . S
O353 C352 1.313 . S
C354 O355 1.245 . S
C354 O363 1.289 . S
O355 C354 1.245 . S
C356 O357 1.245 . S
C356 O358 1.289 . S
O357 C356 1.245 . S
O358 Mg351 2.141 . S
O358 C356 1.289 . S
O359 Mg351 2.048 . S
O359 C352 1.195 . S
O360 Mg351 2.048 . S
O360 C361 1.195 . S
C361 O360 1.195 . S
C361 O362 1.313 . S
O362 C361 1.313 . S
O363 Mg351 2.141 . S
O363 C354 1.289 . S
Mg364 O371 2.141 . S
Mg364 O372 2.048 1_556 S
Mg364 O373 2.048 . S
Mg364 O376 2.141 . S
C365 O366 1.313 . S
C365 O372 1.195 . S
O366 C365 1.313 . S
C367 O368 1.245 . S
C367 O376 1.289 . S
O368 C367 1.245 . S
C369 O370 1.252 . S
C369 O371 1.284 1_554 S
O370 C369 1.252 . S
O371 Mg364 2.141 . S
O371 C369 1.284 1_556 S
O372 Mg364 2.048 1_554 S
O372 C365 1.195 . S
O373 Mg364 2.048 . S
O373 C374 1.195 1_556 S
C374 O373 1.195 1_554 S
C374 O375 1.313 . S
O375 C374 1.313 . S
O376 Mg364 2.141 . S
O376 C367 1.289 . S
Mg377 O384 2.141 . S
Mg377 O385 2.048 1_556 S
Mg377 O386 2.048 . S
Mg377 O389 2.141 . S
C378 O379 1.313 . S
C378 O385 1.195 . S
O379 C378 1.313 . S
C380 O381 1.245 . S
C380 O389 1.289 . S
O381 C380 1.245 . S
C382 O383 1.252 . S
C382 O384 1.284 1_554 S
O383 C382 1.252 . S
O384 Mg377 2.141 . S
O384 C382 1.284 1_556 S
O385 Mg377 2.048 1_554 S
O385 C378 1.195 . S
O386 Mg377 2.048 . S
O386 C387 1.195 1_556 S
C387 O386 1.195 1_554 S
C387 O388 1.313 . S
O388 C387 1.313 . S
O389 Mg377 2.141 . S
O389 C380 1.289 . S
Mg390 O397 2.141 . S
Mg390 O398 2.048 . S
Mg390 O399 2.048 . S
Mg390 O402 2.141 . S
C391 O392 1.313 . S
C391 O398 1.195 . S
O392 C391 1.313 . S
C393 O394 1.245 . S
C393 O402 1.289 . S
O394 C393 1.245 . S
C395 O396 1.245 . S
C395 O397 1.289 . S
O396 C395 1.245 . S
O397 Mg390 2.141 . S
O397 C395 1.289 . S
O398 Mg390 2.048 . S
O398 C391 1.195 . S
O399 Mg390 2.048 . S
O399 C400 1.195 . S
C400 O399 1.195 . S
C400 O401 1.313 . S
O401 C400 1.313 . S
O402 Mg390 2.141 . S
O402 C393 1.289 . S
Mg403 O410 2.141 . S
Mg403 O411 2.048 . S
Mg403 O412 2.048 . S
Mg403 O415 2.141 . S
C404 O405 1.313 . S
C404 O411 1.195 . S
O405 C404 1.313 . S
C406 O407 1.245 . S
C406 O415 1.289 . S
O407 C406 1.245 . S
C408 O409 1.245 . S
C408 O410 1.289 . S
O409 C408 1.245 . S
O410 Mg403 2.141 . S
O410 C408 1.289 . S
O411 Mg403 2.048 . S
O411 C404 1.195 . S
O412 Mg403 2.048 . S
O412 C413 1.195 . S
C413 O412 1.195 . S
C413 O414 1.313 . S
O414 C413 1.313 . S
O415 Mg403 2.141 . S
O415 C406 1.289 . S
H416 C424 0.950 1_655 S
H417 C429 0.950 . S
H418 C426 0.950 1_655 S
H419 C428 0.950 . S
H420 C430 0.950 . S
H421 C432 0.950 . S
H422 C434 0.950 . S
H423 C435 0.950 . S
C424 H416 0.950 1_455 S
C424 C425 1.386 . S
C424 C426 1.391 . S
C425 C424 1.386 . S
C425 C429 1.393 . S
C426 H418 0.950 1_455 S
C426 C424 1.391 . S
C426 C427 1.400 . S
C427 C426 1.400 . S
C427 C428 1.398 . S
C427 C433 1.491 . S
C428 H419 0.950 . S
C428 C427 1.398 . S
C428 C429 1.391 . S
C429 H417 0.950 . S
C429 C425 1.393 . S
C429 C428 1.391 . S
C430 H420 0.950 . S
C430 C431 1.386 . S
C430 C432 1.391 . S
C431 C430 1.386 . S
C431 C435 1.393 1_455 S
C432 H421 0.950 . S
C432 C430 1.391 . S
C432 C433 1.400 . S
C433 C427 1.491 . S
C433 C432 1.400 . S
C433 C434 1.398 1_455 S
C434 H422 0.950 . S
C434 C433 1.398 1_655 S
C434 C435 1.391 . S
C435 H423 0.950 . S
C435 C431 1.393 1_655 S
C435 C434 1.391 . S
H436 C444 0.950 . S
H437 C449 0.950 . S
H438 C446 0.950 . S
H439 C448 0.950 . S
H440 C450 0.950 . S
H441 C452 0.950 . S
H442 C454 0.950 . S
H443 C455 0.950 . S
C444 H436 0.950 . S
C444 C445 1.386 . S
C444 C446 1.391 . S
C445 C444 1.386 . S
C445 C449 1.393 . S
C446 H438 0.950 . S
C446 C444 1.391 . S
C446 C447 1.400 . S
C447 C446 1.400 . S
C447 C448 1.398 . S
C447 C453 1.491 . S
C448 H439 0.950 . S
C448 C447 1.398 . S
C448 C449 1.391 . S
C449 H437 0.950 . S
C449 C445 1.393 . S
C449 C448 1.391 . S
C450 H440 0.950 . S
C450 C451 1.386 . S
C450 C452 1.391 . S
C451 C450 1.386 . S
C451 C455 1.393 . S
C452 H441 0.950 . S
C452 C450 1.391 . S
C452 C453 1.400 . S
C453 C447 1.491 . S
C453 C452 1.400 . S
C453 C454 1.398 . S
C454 H442 0.950 . S
C454 C453 1.398 . S
C454 C455 1.391 . S
C455 H443 0.950 . S
C455 C451 1.393 . S
C455 C454 1.391 . S
H456 C464 0.950 . S
H457 C469 0.950 . S
H458 C466 0.950 . S
H459 C468 0.950 . S
H460 C470 0.950 . S
H461 C472 0.950 1_455 S
H462 C474 0.950 . S
H463 C475 0.950 . S
C464 H456 0.950 . S
C464 C465 1.386 . S
C464 C466 1.391 . S
C465 C464 1.386 . S
C465 C469 1.393 1_655 S
C466 H458 0.950 . S
C466 C464 1.391 . S
C466 C467 1.400 . S
C467 C466 1.400 . S
C467 C468 1.398 1_655 S
C467 C473 1.491 . S
C468 H459 0.950 . S
C468 C467 1.398 1_455 S
C468 C469 1.391 . S
C469 H457 0.950 . S
C469 C465 1.393 1_455 S
C469 C468 1.391 . S
C470 H460 0.950 . S
C470 C471 1.386 . S
C470 C472 1.391 . S
C471 C470 1.386 . S
C471 C475 1.393 . S
C472 H461 0.950 1_655 S
C472 C470 1.391 . S
C472 C473 1.400 . S
C473 C467 1.491 . S
C473 C472 1.400 . S
C473 C474 1.398 . S
C474 H462 0.950 . S
C474 C473 1.398 . S
C474 C475 1.391 . S
C475 H463 0.950 . S
C475 C471 1.393 . S
C475 C474 1.391 . S
H476 C484 0.950 . S
H477 C489 0.950 . S
H478 C486 0.950 . S
H479 C488 0.950 . S
H480 C490 0.950 . S
H481 C492 0.950 . S
H482 C494 0.950 . S
H483 C495 0.950 . S
C484 H476 0.950 . S
C484 C485 1.386 . S
C484 C486 1.391 . S
C485 C484 1.386 . S
C485 C489 1.393 . S
C486 H478 0.950 . S
C486 C484 1.391 . S
C486 C487 1.400 . S
C487 C486 1.400 . S
C487 C488 1.398 . S
C487 C493 1.491 . S
C488 H479 0.950 . S
C488 C487 1.398 . S
C488 C489 1.391 . S
C489 H477 0.950 . S
C489 C485 1.393 . S
C489 C488 1.391 . S
C490 H480 0.950 . S
C490 C491 1.386 . S
C490 C492 1.391 . S
C491 C490 1.386 . S
C491 C495 1.393 . S
C492 H481 0.950 . S
C492 C490 1.391 . S
C492 C493 1.400 . S
C493 C487 1.491 . S
C493 C492 1.400 . S
C493 C494 1.398 . S
C494 H482 0.950 . S
C494 C493 1.398 . S
C494 C495 1.391 . S
C495 H483 0.950 . S
C495 C491 1.393 . S
C495 C494 1.391 . S
H496 C504 0.950 . S
H497 C509 0.950 . S
H498 C506 0.950 . S
H499 C508 0.950 1_655 S
H500 C510 0.950 . S
H501 C512 0.950 . S
H502 C514 0.950 . S
H503 C515 0.950 . S
C504 H496 0.950 . S
C504 C505 1.386 . S
C504 C506 1.391 . S
C505 C504 1.386 . S
C505 C509 1.393 . S
C506 H498 0.950 . S
C506 C504 1.391 . S
C506 C507 1.400 . S
C507 C506 1.400 . S
C507 C508 1.398 . S
C507 C513 1.491 . S
C508 H499 0.950 1_455 S
C508 C507 1.398 . S
C508 C509 1.391 . S
C509 H497 0.950 . S
C509 C505 1.393 . S
C509 C508 1.391 . S
C510 H500 0.950 . S
C510 C511 1.386 1_655 S
C510 C512 1.391 . S
C511 C510 1.386 1_455 S
C511 C515 1.393 . S
C512 H501 0.950 . S
C512 C510 1.391 . S
C512 C513 1.400 1_655 S
C513 C507 1.491 . S
C513 C512 1.400 1_455 S
C513 C514 1.398 . S
C514 H502 0.950 . S
C514 C513 1.398 . S
C514 C515 1.391 . S
C515 H503 0.950 . S
C515 C511 1.393 . S
C515 C514 1.391 . S
H516 C524 0.950 . S
H517 C529 0.950 . S
H518 C526 0.950 . S
H519 C528 0.950 . S
H520 C530 0.950 . S
H521 C532 0.950 . S
H522 C534 0.950 . S
H523 C535 0.950 . S
C524 H516 0.950 . S
C524 C525 1.386 1_655 S
C524 C526 1.391 1_655 S
C525 C524 1.386 1_455 S
C525 C529 1.393 . S
C526 H518 0.950 . S
C526 C524 1.391 1_455 S
C526 C527 1.400 . S
C527 C526 1.400 . S
C527 C528 1.398 . S
C527 C533 1.491 . S
C528 H519 0.950 . S
C528 C527 1.398 . S
C528 C529 1.391 . S
C529 H517 0.950 . S
C529 C525 1.393 . S
C529 C528 1.391 . S
C530 H520 0.950 . S
C530 C531 1.386 . S
C530 C532 1.391 . S
C531 C530 1.386 . S
C531 C535 1.393 . S
C532 H521 0.950 . S
C532 C530 1.391 . S
C532 C533 1.400 . S
C533 C527 1.491 . S
C533 C532 1.400 . S
C533 C534 1.398 . S
C534 H522 0.950 . S
C534 C533 1.398 . S
C534 C535 1.391 . S
C535 H523 0.950 . S
C535 C531 1.393 . S
C535 C534 1.391 . S
H536 C544 0.950 . S
H537 C549 0.950 . S
H538 C546 0.950 . S
H539 C548 0.950 1_455 S
H540 C550 0.950 . S
H541 C552 0.950 . S
H542 C554 0.950 . S
H543 C555 0.950 . S
C544 H536 0.950 . S
C544 C545 1.386 . S
C544 C546 1.391 . S
C545 C544 1.386 . S
C545 C549 1.393 1_655 S
C546 H538 0.950 . S
C546 C544 1.391 . S
C546 C547 1.400 . S
C547 C546 1.400 . S
C547 C548 1.398 . S
C547 C553 1.491 . S
C548 H539 0.950 1_655 S
C548 C547 1.398 . S
C548 C549 1.391 1_655 S
C549 H537 0.950 . S
C549 C545 1.393 1_455 S
C549 C548 1.391 1_455 S
C550 H540 0.950 . S
C550 C551 1.386 . S
C550 C552 1.391 . S
C551 C550 1.386 . S
C551 C555 1.393 . S
C552 H541 0.950 . S
C552 C550 1.391 . S
C552 C553 1.400 . S
C553 C547 1.491 . S
C553 C552 1.400 . S
C553 C554 1.398 . S
C554 H542 0.950 . S
C554 C553 1.398 . S
C554 C555 1.391 . S
C555 H543 0.950 . S
C555 C551 1.393 . S
C555 C554 1.391 . S
H556 C564 0.950 1_455 S
H557 C569 0.950 . S
H558 C566 0.950 1_455 S
H559 C568 0.950 . S
H560 C570 0.950 . S
H561 C572 0.950 . S
H562 C574 0.950 . S
H563 C575 0.950 . S
C564 H556 0.950 1_655 S
C564 C565 1.386 . S
C564 C566 1.391 . S
C565 C564 1.386 . S
C565 C569 1.393 . S
C566 H558 0.950 1_655 S
C566 C564 1.391 . S
C566 C567 1.400 . S
C567 C566 1.400 . S
C567 C568 1.398 . S
C567 C573 1.491 . S
C568 H559 0.950 . S
C568 C567 1.398 . S
C568 C569 1.391 . S
C569 H557 0.950 . S
C569 C565 1.393 . S
C569 C568 1.391 . S
C570 H560 0.950 . S
C570 C571 1.386 . S
C570 C572 1.391 . S
C571 C570 1.386 . S
C571 C575 1.393 1_655 S
C572 H561 0.950 . S
C572 C570 1.391 . S
C572 C573 1.400 . S
C573 C567 1.491 . S
C573 C572 1.400 . S
C573 C574 1.398 1_655 S
C574 H562 0.950 . S
C574 C573 1.398 1_455 S
C574 C575 1.391 . S
C575 H563 0.950 . S
C575 C571 1.393 1_455 S
C575 C574 1.391 . S
H576 C584 0.950 . S
H577 C589 0.950 . S
H578 C586 0.950 . S
H579 C588 0.950 . S
H580 C590 0.950 . S
H581 C592 0.950 . S
H582 C594 0.950 . S
H583 C595 0.950 . S
C584 H576 0.950 . S
C584 C585 1.386 . S
C584 C586 1.391 . S
C585 C584 1.386 . S
C585 C589 1.393 . S
C586 H578 0.950 . S
C586 C584 1.391 . S
C586 C587 1.400 . S
C587 C586 1.400 . S
C587 C588 1.398 . S
C587 C593 1.491 . S
C588 H579 0.950 . S
C588 C587 1.398 . S
C588 C589 1.391 . S
C589 H577 0.950 . S
C589 C585 1.393 . S
C589 C588 1.391 . S
C590 H580 0.950 . S
C590 C591 1.386 . S
C590 C592 1.391 . S
C591 C590 1.386 . S
C591 C595 1.393 . S
C592 H581 0.950 . S
C592 C590 1.391 . S
C592 C593 1.400 . S
C593 C587 1.491 . S
C593 C592 1.400 . S
C593 C594 1.398 . S
C594 H582 0.950 . S
C594 C593 1.398 . S
C594 C595 1.391 . S
C595 H583 0.950 . S
C595 C591 1.393 . S
C595 C594 1.391 . S
H596 C604 0.950 . S
H597 C609 0.950 . S
H598 C606 0.950 . S
H599 C608 0.950 . S
H600 C610 0.950 . S
H601 C612 0.950 . S
H602 C614 0.950 . S
H603 C615 0.950 . S
C604 H596 0.950 . S
C604 C605 1.386 . S
C604 C606 1.391 . S
C605 C604 1.386 . S
C605 C609 1.393 . S
C606 H598 0.950 . S
C606 C604 1.391 . S
C606 C607 1.400 . S
C607 C606 1.400 . S
C607 C608 1.398 . S
C607 C613 1.491 . S
C608 H599 0.950 . S
C608 C607 1.398 . S
C608 C609 1.391 . S
C609 H597 0.950 . S
C609 C605 1.393 . S
C609 C608 1.391 . S
C610 H600 0.950 . S
C610 C611 1.386 . S
C610 C612 1.391 . S
C611 C610 1.386 . S
C611 C615 1.393 . S
C612 H601 0.950 . S
C612 C610 1.391 . S
C612 C613 1.400 . S
C613 C607 1.491 . S
C613 C612 1.400 . S
C613 C614 1.398 . S
C614 H602 0.950 . S
C614 C613 1.398 . S
C614 C615 1.391 . S
C615 H603 0.950 . S
C615 C611 1.393 . S
C615 C614 1.391 . S
H616 C624 0.950 . S
H617 C629 0.950 . S
H618 C626 0.950 . S
H619 C628 0.950 . S
H620 C630 0.950 . S
H621 C632 0.950 . S
H622 C634 0.950 . S
H623 C635 0.950 . S
C624 H616 0.950 . S
C624 C625 1.386 . S
C624 C626 1.391 . S
C625 C624 1.386 . S
C625 C629 1.393 . S
C626 H618 0.950 . S
C626 C624 1.391 . S
C626 C627 1.400 . S
C627 C626 1.400 . S
C627 C628 1.398 . S
C627 C633 1.491 . S
C628 H619 0.950 . S
C628 C627 1.398 . S
C628 C629 1.391 . S
C629 H617 0.950 . S
C629 C625 1.393 . S
C629 C628 1.391 . S
C630 H620 0.950 . S
C630 C631 1.386 . S
C630 C632 1.391 . S
C631 C630 1.386 . S
C631 C635 1.393 . S
C632 H621 0.950 . S
C632 C630 1.391 . S
C632 C633 1.400 . S
C633 C627 1.491 . S
C633 C632 1.400 . S
C633 C634 1.398 . S
C634 H622 0.950 . S
C634 C633 1.398 . S
C634 C635 1.391 . S
C635 H623 0.950 . S
C635 C631 1.393 . S
C635 C634 1.391 . S
H636 C644 0.950 . S
H637 C649 0.950 . S
H638 C646 0.950 . S
H639 C648 0.950 . S
H640 C650 0.950 . S
H641 C652 0.950 . S
H642 C654 0.950 . S
H643 C655 0.950 . S
C644 H636 0.950 . S
C644 C645 1.386 . S
C644 C646 1.391 . S
C645 C644 1.386 . S
C645 C649 1.393 . S
C646 H638 0.950 . S
C646 C644 1.391 . S
C646 C647 1.400 . S
C647 C646 1.400 . S
C647 C648 1.398 . S
C647 C653 1.491 . S
C648 H639 0.950 . S
C648 C647 1.398 . S
C648 C649 1.391 . S
C649 H637 0.950 . S
C649 C645 1.393 . S
C649 C648 1.391 . S
C650 H640 0.950 . S
C650 C651 1.386 . S
C650 C652 1.391 . S
C651 C650 1.386 . S
C651 C655 1.393 . S
C652 H641 0.950 . S
C652 C650 1.391 . S
C652 C653 1.400 . S
C653 C647 1.491 . S
C653 C652 1.400 . S
C653 C654 1.398 . S
C654 H642 0.950 . S
C654 C653 1.398 . S
C654 C655 1.391 . S
C655 H643 0.950 . S
C655 C651 1.393 . S
C655 C654 1.391 . S
H656 C664 0.950 . S
H657 C669 0.950 . S
H658 C666 0.950 . S
H659 C668 0.950 . S
H660 C670 0.950 . S
H661 C672 0.950 . S
H662 C674 0.950 . S
H663 C675 0.950 . S
C664 H656 0.950 . S
C664 C665 1.386 . S
C664 C666 1.391 . S
C665 C664 1.386 . S
C665 C669 1.393 . S
C666 H658 0.950 . S
C666 C664 1.391 . S
C666 C667 1.400 . S
C667 C666 1.400 . S
C667 C668 1.398 . S
C667 C673 1.491 . S
C668 H659 0.950 . S
C668 C667 1.398 . S
C668 C669 1.391 . S
C669 H657 0.950 . S
C669 C665 1.393 . S
C669 C668 1.391 . S
C670 H660 0.950 . S
C670 C671 1.386 . S
C670 C672 1.391 . S
C671 C670 1.386 . S
C671 C675 1.393 . S
C672 H661 0.950 . S
C672 C670 1.391 . S
C672 C673 1.400 . S
C673 C667 1.491 . S
C673 C672 1.400 . S
C673 C674 1.398 . S
C674 H662 0.950 . S
C674 C673 1.398 . S
C674 C675 1.391 . S
C675 H663 0.950 . S
C675 C671 1.393 . S
C675 C674 1.391 . S
H676 C684 0.950 . S
H677 C689 0.950 . S
H678 C686 0.950 . S
H679 C688 0.950 . S
H680 C690 0.950 . S
H681 C692 0.950 . S
H682 C694 0.950 . S
H683 C695 0.950 . S
C684 H676 0.950 . S
C684 C685 1.386 . S
C684 C686 1.391 . S
C685 C684 1.386 . S
C685 C689 1.393 . S
C686 H678 0.950 . S
C686 C684 1.391 . S
C686 C687 1.400 . S
C687 C686 1.400 . S
C687 C688 1.398 . S
C687 C693 1.491 . S
C688 H679 0.950 . S
C688 C687 1.398 . S
C688 C689 1.391 . S
C689 H677 0.950 . S
C689 C685 1.393 . S
C689 C688 1.391 . S
C690 H680 0.950 . S
C690 C691 1.386 . S
C690 C692 1.391 . S
C691 C690 1.386 . S
C691 C695 1.393 . S
C692 H681 0.950 . S
C692 C690 1.391 . S
C692 C693 1.400 . S
C693 C687 1.491 . S
C693 C692 1.400 . S
C693 C694 1.398 . S
C694 H682 0.950 . S
C694 C693 1.398 . S
C694 C695 1.391 . S
C695 H683 0.950 . S
C695 C691 1.393 . S
C695 C694 1.391 . S
H696 C704 0.950 . S
H697 C709 0.950 . S
H698 C706 0.950 . S
H699 C708 0.950 . S
H700 C710 0.950 . S
H701 C712 0.950 . S
H702 C714 0.950 . S
H703 C715 0.950 . S
C704 H696 0.950 . S
C704 C705 1.386 . S
C704 C706 1.391 . S
C705 C704 1.386 . S
C705 C709 1.393 . S
C706 H698 0.950 . S
C706 C704 1.391 . S
C706 C707 1.400 . S
C707 C706 1.400 . S
C707 C708 1.398 . S
C707 C713 1.491 . S
C708 H699 0.950 . S
C708 C707 1.398 . S
C708 C709 1.391 . S
C709 H697 0.950 . S
C709 C705 1.393 . S
C709 C708 1.391 . S
C710 H700 0.950 . S
C710 C711 1.386 . S
C710 C712 1.391 . S
C711 C710 1.386 . S
C711 C715 1.393 . S
C712 H701 0.950 . S
C712 C710 1.391 . S
C712 C713 1.400 . S
C713 C707 1.491 . S
C713 C712 1.400 . S
C713 C714 1.398 . S
C714 H702 0.950 . S
C714 C713 1.398 . S
C714 C715 1.391 . S
C715 H703 0.950 . S
C715 C711 1.393 . S
C715 C714 1.391 . S
H716 C724 0.950 . S
H717 C729 0.950 . S
H718 C726 0.950 . S
H719 C728 0.950 . S
H720 C730 0.950 . S
H721 C732 0.950 . S
H722 C734 0.950 . S
H723 C735 0.950 . S
C724 H716 0.950 . S
C724 C725 1.386 . S
C724 C726 1.391 . S
C725 C724 1.386 . S
C725 C729 1.393 . S
C726 H718 0.950 . S
C726 C724 1.391 . S
C726 C727 1.400 . S
C727 C726 1.400 . S
C727 C728 1.398 . S
C727 C733 1.491 . S
C728 H719 0.950 . S
C728 C727 1.398 . S
C728 C729 1.391 . S
C729 H717 0.950 . S
C729 C725 1.393 . S
C729 C728 1.391 . S
C730 H720 0.950 . S
C730 C731 1.386 . S
C730 C732 1.391 . S
C731 C730 1.386 . S
C731 C735 1.393 . S
C732 H721 0.950 . S
C732 C730 1.391 . S
C732 C733 1.400 . S
C733 C727 1.491 . S
C733 C732 1.400 . S
C733 C734 1.398 . S
C734 H722 0.950 . S
C734 C733 1.398 . S
C734 C735 1.391 . S
C735 H723 0.950 . S
C735 C731 1.393 . S
C735 C734 1.391 . S
H736 C744 0.950 . S
H737 C749 0.950 . S
H738 C746 0.950 . S
H739 C748 0.950 . S
H740 C750 0.950 . S
H741 C752 0.950 . S
H742 C754 0.950 . S
H743 C755 0.950 . S
C744 H736 0.950 . S
C744 C745 1.386 . S
C744 C746 1.391 . S
C745 C744 1.386 . S
C745 C749 1.393 1_554 S
C746 H738 0.950 . S
C746 C744 1.391 . S
C746 C747 1.403 . S
C747 C746 1.403 . S
C747 C748 1.396 1_554 S
C747 C753 1.490 1_544 S
C748 H739 0.950 . S
C748 C747 1.396 1_556 S
C748 C749 1.391 . S
C749 H737 0.950 . S
C749 C745 1.393 1_556 S
C749 C748 1.391 . S
C750 H740 0.950 . S
C750 C751 1.387 1_556 S
C750 C752 1.391 . S
C751 C750 1.387 1_554 S
C751 C755 1.392 . S
C752 H741 0.950 . S
C752 C750 1.391 . S
C752 C753 1.401 . S
C753 C747 1.490 1_566 S
C753 C752 1.401 . S
C753 C754 1.398 1_556 S
C754 H742 0.950 . S
C754 C753 1.398 1_554 S
C754 C755 1.391 . S
C755 H743 0.950 . S
C755 C751 1.392 . S
C755 C754 1.391 . S
H756 C764 0.950 . S
H757 C769 0.950 . S
H758 C766 0.950 . S
H759 C768 0.950 . S
H760 C770 0.950 . S
H761 C772 0.950 . S
H762 C774 0.950 . S
H763 C775 0.950 1_455 S
C764 H756 0.950 . S
C764 C765 1.386 . S
C764 C766 1.391 . S
C765 C764 1.386 . S
C765 C769 1.393 1_554 S
C766 H758 0.950 . S
C766 C764 1.391 . S
C766 C767 1.410 . S
C767 C766 1.410 . S
C767 C768 1.390 1_554 S
C767 C773 1.490 1_554 S
C768 H759 0.950 . S
C768 C767 1.390 1_556 S
C768 C769 1.391 . S
C769 H757 0.950 . S
C769 C765 1.393 1_556 S
C769 C768 1.391 . S
C770 H760 0.950 . S
C770 C771 1.386 . S
C770 C772 1.391 . S
C771 C770 1.386 . S
C771 C775 1.393 1_556 S
C772 H761 0.950 . S
C772 C770 1.391 . S
C772 C773 1.414 . S
C773 C767 1.490 1_556 S
C773 C772 1.414 . S
C773 C774 1.386 1_556 S
C774 H762 0.950 . S
C774 C773 1.386 1_554 S
C774 C775 1.391 . S
C775 H763 0.950 1_655 S
C775 C771 1.393 1_554 S
C775 C774 1.391 . S
H776 C784 0.950 . S
H777 C789 0.950 . S
H778 C786 0.950 . S
H779 C788 0.950 . S
H780 C790 0.950 . S
H781 C792 0.950 . S
H782 C794 0.950 . S
H783 C795 0.950 . S
C784 H776 0.950 . S
C784 C785 1.386 . S
C784 C786 1.391 . S
C785 C784 1.386 . S
C785 C789 1.393 . S
C786 H778 0.950 . S
C786 C784 1.391 . S
C786 C787 1.400 . S
C787 C786 1.400 . S
C787 C788 1.398 . S
C787 C793 1.491 . S
C788 H779 0.950 . S
C788 C787 1.398 . S
C788 C789 1.391 . S
C789 H777 0.950 . S
C789 C785 1.393 . S
C789 C788 1.391 . S
C790 H780 0.950 . S
C790 C791 1.386 . S
C790 C792 1.391 . S
C791 C790 1.386 . S
C791 C795 1.393 . S
C792 H781 0.950 . S
C792 C790 1.391 . S
C792 C793 1.400 . S
C793 C787 1.491 . S
C793 C792 1.400 . S
C793 C794 1.398 . S
C794 H782 0.950 . S
C794 C793 1.398 . S
C794 C795 1.391 . S
C795 H783 0.950 . S
C795 C791 1.393 . S
C795 C794 1.391 . S
H796 C804 0.950 . S
H797 C809 0.950 . S
H798 C806 0.950 . S
H799 C808 0.950 . S
H800 C810 0.950 . S
H801 C812 0.950 . S
H802 C814 0.950 . S
H803 C815 0.950 1_455 S
C804 H796 0.950 . S
C804 C805 1.386 . S
C804 C806 1.391 . S
C805 C804 1.386 . S
C805 C809 1.393 . S
C806 H798 0.950 . S
C806 C804 1.391 . S
C806 C807 1.400 . S
C807 C806 1.400 . S
C807 C808 1.398 . S
C807 C813 1.491 1_565 S
C808 H799 0.950 . S
C808 C807 1.398 . S
C808 C809 1.391 . S
C809 H797 0.950 . S
C809 C805 1.393 . S
C809 C808 1.391 . S
C810 H800 0.950 . S
C810 C811 1.386 . S
C810 C812 1.391 . S
C811 C810 1.386 . S
C811 C815 1.393 . S
C812 H801 0.950 . S
C812 C810 1.391 . S
C812 C813 1.400 . S
C813 C807 1.491 1_545 S
C813 C812 1.400 . S
C813 C814 1.398 . S
C814 H802 0.950 . S
C814 C813 1.398 . S
C814 C815 1.391 . S
C815 H803 0.950 1_655 S
C815 C811 1.393 . S
C815 C814 1.391 . S
H816 C824 0.950 . S
H817 C829 0.950 . S
H818 C826 0.950 . S
H819 C828 0.950 . S
H820 C830 0.950 . S
H821 C832 0.950 . S
H822 C834 0.950 . S
H823 C835 0.950 1_655 S
C824 H816 0.950 . S
C824 C825 1.386 1_554 S
C824 C826 1.391 . S
C825 C824 1.386 1_556 S
C825 C829 1.392 . S
C826 H818 0.950 . S
C826 C824 1.391 . S
C826 C827 1.404 . S
C827 C826 1.404 . S
C827 C828 1.395 1_554 S
C827 C833 1.491 1_554 S
C828 H819 0.950 . S
C828 C827 1.395 1_556 S
C828 C829 1.391 . S
C829 H817 0.950 . S
C829 C825 1.392 . S
C829 C828 1.391 . S
C830 H820 0.950 . S
C830 C831 1.382 1_556 S
C830 C832 1.391 . S
C831 C830 1.382 1_554 S
C831 C835 1.396 . S
C832 H821 0.950 . S
C832 C830 1.391 . S
C832 C833 1.400 . S
C833 C827 1.491 1_556 S
C833 C832 1.400 . S
C833 C834 1.399 1_556 S
C834 H822 0.950 . S
C834 C833 1.399 1_554 S
C834 C835 1.391 . S
C835 H823 0.950 1_455 S
C835 C831 1.396 . S
C835 C834 1.391 . S
H836 C844 0.950 . S
H837 C849 0.950 . S
H838 C846 0.950 . S
H839 C848 0.950 . S
H840 C850 0.950 . S
H841 C852 0.950 . S
H842 C854 0.950 . S
H843 C855 0.950 . S
C844 H836 0.950 . S
C844 C845 1.386 . S
C844 C846 1.391 . S
C845 C844 1.386 . S
C845 C849 1.393 . S
C846 H838 0.950 . S
C846 C844 1.391 . S
C846 C847 1.400 . S
C847 C846 1.400 . S
C847 C848 1.398 . S
C847 C853 1.491 . S
C848 H839 0.950 . S
C848 C847 1.398 . S
C848 C849 1.391 . S
C849 H837 0.950 . S
C849 C845 1.393 . S
C849 C848 1.391 . S
C850 H840 0.950 . S
C850 C851 1.386 . S
C850 C852 1.391 . S
C851 C850 1.386 . S
C851 C855 1.393 . S
C852 H841 0.950 . S
C852 C850 1.391 . S
C852 C853 1.400 . S
C853 C847 1.491 . S
C853 C852 1.400 . S
C853 C854 1.398 . S
C854 H842 0.950 . S
C854 C853 1.398 . S
C854 C855 1.391 . S
C855 H843 0.950 . S
C855 C851 1.393 . S
C855 C854 1.391 . S
H856 C864 0.950 . S
H857 C869 0.950 1_655 S
H858 C866 0.950 . S
H859 C868 0.950 . S
H860 C870 0.950 . S
H861 C872 0.950 . S
H862 C874 0.950 . S
H863 C875 0.950 . S
C864 H856 0.950 . S
C864 C865 1.386 . S
C864 C866 1.391 . S
C865 C864 1.386 . S
C865 C869 1.393 . S
C866 H858 0.950 . S
C866 C864 1.391 . S
C866 C867 1.400 . S
C867 C866 1.400 . S
C867 C868 1.398 . S
C867 C873 1.491 1_565 S
C868 H859 0.950 . S
C868 C867 1.398 . S
C868 C869 1.391 . S
C869 H857 0.950 1_455 S
C869 C865 1.393 . S
C869 C868 1.391 . S
C870 H860 0.950 . S
C870 C871 1.386 . S
C870 C872 1.391 . S
C871 C870 1.386 . S
C871 C875 1.393 . S
C872 H861 0.950 . S
C872 C870 1.391 . S
C872 C873 1.400 . S
C873 C867 1.491 1_545 S
C873 C872 1.400 . S
C873 C874 1.398 . S
C874 H862 0.950 . S
C874 C873 1.398 . S
C874 C875 1.391 . S
C875 H863 0.950 . S
C875 C871 1.393 . S
C875 C874 1.391 . S
H876 C884 0.950 . S
H877 C889 0.950 . S
H878 C886 0.950 . S
H879 C888 0.950 . S
H880 C890 0.950 . S
H881 C892 0.950 . S
H882 C894 0.950 . S
H883 C895 0.950 . S
C884 H876 0.950 . S
C884 C885 1.386 . S
C884 C886 1.391 . S
C885 C884 1.386 . S
C885 C889 1.393 . S
C886 H878 0.950 . S
C886 C884 1.391 . S
C886 C887 1.400 . S
C887 C886 1.400 . S
C887 C888 1.398 . S
C887 C893 1.491 . S
C888 H879 0.950 . S
C888 C887 1.398 . S
C888 C889 1.391 . S
C889 H877 0.950 . S
C889 C885 1.393 . S
C889 C888 1.391 . S
C890 H880 0.950 . S
C890 C891 1.386 . S
C890 C892 1.391 . S
C891 C890 1.386 . S
C891 C895 1.393 . S
C892 H881 0.950 . S
C892 C890 1.391 . S
C892 C893 1.400 . S
C893 C887 1.491 . S
C893 C892 1.400 . S
C893 C894 1.398 . S
C894 H882 0.950 . S
C894 C893 1.398 . S
C894 C895 1.391 . S
C895 H883 0.950 . S
C895 C891 1.393 . S
C895 C894 1.391 . S
H896 C904 0.950 . S
H897 C909 0.950 . S
H898 C906 0.950 . S
H899 C908 0.950 . S
H900 C910 0.950 . S
H901 C912 0.950 . S
H902 C914 0.950 . S
H903 C915 0.950 1_455 S
C904 H896 0.950 . S
C904 C905 1.386 . S
C904 C906 1.391 . S
C905 C904 1.386 . S
C905 C909 1.393 . S
C906 H898 0.950 . S
C906 C904 1.391 . S
C906 C907 1.400 . S
C907 C906 1.400 . S
C907 C908 1.398 . S
C907 C913 1.491 . S
C908 H899 0.950 . S
C908 C907 1.398 . S
C908 C909 1.391 . S
C909 H897 0.950 . S
C909 C905 1.393 . S
C909 C908 1.391 . S
C910 H900 0.950 . S
C910 C911 1.386 . S
C910 C912 1.391 . S
C911 C910 1.386 . S
C911 C915 1.393 . S
C912 H901 0.950 . S
C912 C910 1.391 . S
C912 C913 1.400 . S
C913 C907 1.491 . S
C913 C912 1.400 . S
C913 C914 1.398 . S
C914 H902 0.950 . S
C914 C913 1.398 . S
C914 C915 1.391 . S
C915 H903 0.950 1_655 S
C915 C911 1.393 . S
C915 C914 1.391 . S
H916 C924 0.950 . S
H917 C929 0.950 . S
H918 C926 0.950 . S
H919 C928 0.950 . S
H920 C930 0.950 . S
H921 C932 0.950 . S
H922 C934 0.950 . S
H923 C935 0.950 . S
C924 H916 0.950 . S
C924 C925 1.386 . S
C924 C926 1.391 . S
C925 C924 1.386 . S
C925 C929 1.393 . S
C926 H918 0.950 . S
C926 C924 1.391 . S
C926 C927 1.400 . S
C927 C926 1.400 . S
C927 C928 1.398 . S
C927 C933 1.491 . S
C928 H919 0.950 . S
C928 C927 1.398 . S
C928 C929 1.391 . S
C929 H917 0.950 . S
C929 C925 1.393 . S
C929 C928 1.391 . S
C930 H920 0.950 . S
C930 C931 1.386 . S
C930 C932 1.391 . S
C931 C930 1.386 . S
C931 C935 1.393 . S
C932 H921 0.950 . S
C932 C930 1.391 . S
C932 C933 1.400 . S
C933 C927 1.491 . S
C933 C932 1.400 . S
C933 C934 1.398 . S
C934 H922 0.950 . S
C934 C933 1.398 . S
C934 C935 1.391 . S
C935 H923 0.950 . S
C935 C931 1.393 . S
C935 C934 1.391 . S
H936 C944 0.950 . S
H937 C949 0.950 . S
H938 C946 0.950 . S
H939 C948 0.950 . S
H940 C950 0.950 . S
H941 C952 0.950 . S
H942 C954 0.950 . S
H943 C955 0.950 . S
C944 H936 0.950 . S
C944 C945 1.386 . S
C944 C946 1.391 . S
C945 C944 1.386 . S
C945 C949 1.393 . S
C946 H938 0.950 . S
C946 C944 1.391 . S
C946 C947 1.400 . S
C947 C946 1.400 . S
C947 C948 1.398 . S
C947 C953 1.491 . S
C948 H939 0.950 . S
C948 C947 1.398 . S
C948 C949 1.391 . S
C949 H937 0.950 . S
C949 C945 1.393 . S
C949 C948 1.391 . S
C950 H940 0.950 . S
C950 C951 1.386 . S
C950 C952 1.391 . S
C951 C950 1.386 . S
C951 C955 1.393 . S
C952 H941 0.950 . S
C952 C950 1.391 . S
C952 C953 1.400 . S
C953 C947 1.491 . S
C953 C952 1.400 . S
C953 C954 1.398 . S
C954 H942 0.950 . S
C954 C953 1.398 . S
C954 C955 1.391 . S
C955 H943 0.950 . S
C955 C951 1.393 . S
C955 C954 1.391 . S
H956 C964 0.950 . S
H957 C969 0.950 1_655 S
H958 C966 0.950 . S
H959 C968 0.950 . S
H960 C970 0.950 . S
H961 C972 0.950 . S
H962 C974 0.950 . S
H963 C975 0.950 . S
C964 H956 0.950 . S
C964 C965 1.386 . S
C964 C966 1.391 . S
C965 C964 1.386 . S
C965 C969 1.393 . S
C966 H958 0.950 . S
C966 C964 1.391 . S
C966 C967 1.400 . S
C967 C966 1.400 . S
C967 C968 1.398 . S
C967 C973 1.491 . S
C968 H959 0.950 . S
C968 C967 1.398 . S
C968 C969 1.391 . S
C969 H957 0.950 1_455 S
C969 C965 1.393 . S
C969 C968 1.391 . S
C970 H960 0.950 . S
C970 C971 1.386 . S
C970 C972 1.391 . S
C971 C970 1.386 . S
C971 C975 1.393 . S
C972 H961 0.950 . S
C972 C970 1.391 . S
C972 C973 1.400 . S
C973 C967 1.491 . S
C973 C972 1.400 . S
C973 C974 1.398 . S
C974 H962 0.950 . S
C974 C973 1.398 . S
C974 C975 1.391 . S
C975 H963 0.950 . S
C975 C971 1.393 . S
C975 C974 1.391 . S
H976 C984 0.950 . S
H977 C989 0.950 . S
H978 C986 0.950 . S
H979 C988 0.950 . S
H980 C990 0.950 . S
H981 C992 0.950 . S
H982 C994 0.950 . S
H983 C995 0.950 . S
C984 H976 0.950 . S
C984 C985 1.386 . S
C984 C986 1.391 . S
C985 C984 1.386 . S
C985 C989 1.393 1_455 S
C986 H978 0.950 . S
C986 C984 1.391 . S
C986 C987 1.400 . S
C987 C986 1.400 . S
C987 C988 1.398 1_455 S
C987 C993 1.491 1_465 S
C988 H979 0.950 . S
C988 C987 1.398 1_655 S
C988 C989 1.391 . S
C989 H977 0.950 . S
C989 C985 1.393 1_655 S
C989 C988 1.391 . S
C990 H980 0.950 . S
C990 C991 1.386 . S
C990 C992 1.391 . S
C991 C990 1.386 . S
C991 C995 1.393 1_655 S
C992 H981 0.950 . S
C992 C990 1.391 . S
C992 C993 1.400 . S
C993 C987 1.491 1_645 S
C993 C992 1.400 . S
C993 C994 1.398 1_655 S
C994 H982 0.950 . S
C994 C993 1.398 1_455 S
C994 C995 1.391 . S
C995 H983 0.950 . S
C995 C991 1.393 1_455 S
C995 C994 1.391 . S
H996 C1004 0.950 . S
H997 C1009 0.950 . S
H998 C1006 0.950 . S
H999 C1008 0.950 . S
H1000 C1010 0.950 . S
H1001 C1012 0.950 . S
H1002 C1014 0.950 . S
H1003 C1015 0.950 . S
C1004 H996 0.950 . S
C1004 C1005 1.386 1_455 S
C1004 C1006 1.391 . S
C1005 C1004 1.386 1_655 S
C1005 C1009 1.393 . S
C1006 H998 0.950 . S
C1006 C1004 1.391 . S
C1006 C1007 1.400 1_455 S
C1007 C1006 1.400 1_655 S
C1007 C1008 1.398 . S
C1007 C1013 1.491 1_655 S
C1008 H999 0.950 . S
C1008 C1007 1.398 . S
C1008 C1009 1.391 . S
C1009 H997 0.950 . S
C1009 C1005 1.393 . S
C1009 C1008 1.391 . S
C1010 H1000 0.950 . S
C1010 C1011 1.386 1_655 S
C1010 C1012 1.391 . S
C1011 C1010 1.386 1_455 S
C1011 C1015 1.393 . S
C1012 H1001 0.950 . S
C1012 C1010 1.391 . S
C1012 C1013 1.400 1_655 S
C1013 C1007 1.491 1_455 S
C1013 C1012 1.400 1_455 S
C1013 C1014 1.398 . S
C1014 H1002 0.950 . S
C1014 C1013 1.398 . S
C1014 C1015 1.391 . S
C1015 H1003 0.950 . S
C1015 C1011 1.393 . S
C1015 C1014 1.391 . S
H1016 C1024 0.950 . S
H1017 C1029 0.950 . S
H1018 C1026 0.950 . S
H1019 C1028 0.950 . S
H1020 C1030 0.950 . S
H1021 C1032 0.950 . S
H1022 C1034 0.950 . S
H1023 C1035 0.950 . S
C1024 H1016 0.950 . S
C1024 C1025 1.386 . S
C1024 C1026 1.391 . S
C1025 C1024 1.386 . S
C1025 C1029 1.393 1_455 S
C1026 H1018 0.950 . S
C1026 C1024 1.391 . S
C1026 C1027 1.400 . S
C1027 C1026 1.400 . S
C1027 C1028 1.398 1_455 S
C1027 C1033 1.491 1_455 S
C1028 H1019 0.950 . S
C1028 C1027 1.398 1_655 S
C1028 C1029 1.391 . S
C1029 H1017 0.950 . S
C1029 C1025 1.393 1_655 S
C1029 C1028 1.391 . S
C1030 H1020 0.950 . S
C1030 C1031 1.386 . S
C1030 C1032 1.391 . S
C1031 C1030 1.386 . S
C1031 C1035 1.393 1_655 S
C1032 H1021 0.950 . S
C1032 C1030 1.391 . S
C1032 C1033 1.400 . S
C1033 C1027 1.491 1_655 S
C1033 C1032 1.400 . S
C1033 C1034 1.398 1_655 S
C1034 H1022 0.950 . S
C1034 C1033 1.398 1_455 S
C1034 C1035 1.391 . S
C1035 H1023 0.950 . S
C1035 C1031 1.393 1_455 S
C1035 C1034 1.391 . S
H1036 C1044 0.950 1_655 S
H1037 C1049 0.950 . S
H1038 C1046 0.950 . S
H1039 C1048 0.950 . S
H1040 C1050 0.950 1_455 S
H1041 C1052 0.950 . S
H1042 C1054 0.950 . S
H1043 C1055 0.950 . S
C1044 H1036 0.950 1_455 S
C1044 C1045 1.424 . S
C1044 C1046 1.391 1_455 S
C1045 C1044 1.424 . S
C1045 C1049 1.355 1_554 S
C1046 H1038 0.950 . S
C1046 C1044 1.391 1_655 S
C1046 C1047 1.407 1_655 S
C1047 C1046 1.407 1_455 S
C1047 C1048 1.392 1_554 S
C1047 C1053 1.490 1_454 S
C1048 H1039 0.950 . S
C1048 C1047 1.392 1_556 S
C1048 C1049 1.391 . S
C1049 H1037 0.950 . S
C1049 C1045 1.355 1_556 S
C1049 C1048 1.391 . S
C1050 H1040 0.950 1_655 S
C1050 C1051 1.429 . S
C1050 C1052 1.391 1_655 S
C1051 C1050 1.429 . S
C1051 C1055 1.350 1_556 S
C1052 H1041 0.950 . S
C1052 C1050 1.391 1_455 S
C1052 C1053 1.412 1_455 S
C1053 C1047 1.490 1_656 S
C1053 C1052 1.412 1_655 S
C1053 C1054 1.387 1_556 S
C1054 H1042 0.950 . S
C1054 C1053 1.387 1_554 S
C1054 C1055 1.391 . S
C1055 H1043 0.950 . S
C1055 C1051 1.350 1_554 S
C1055 C1054 1.391 . S
H1056 C1064 0.950 . S
H1057 C1069 0.950 . S
H1058 C1066 0.950 . S
H1059 C1068 0.950 . S
H1060 C1070 0.950 . S
H1061 C1072 0.950 . S
H1062 C1074 0.950 . S
H1063 C1075 0.950 . S
C1064 H1056 0.950 . S
C1064 C1065 1.386 . S
C1064 C1066 1.391 . S
C1065 C1064 1.386 . S
C1065 C1069 1.393 . S
C1066 H1058 0.950 . S
C1066 C1064 1.391 . S
C1066 C1067 1.400 . S
C1067 C1066 1.400 . S
C1067 C1068 1.398 . S
C1067 C1073 1.491 . S
C1068 H1059 0.950 . S
C1068 C1067 1.398 . S
C1068 C1069 1.391 . S
C1069 H1057 0.950 . S
C1069 C1065 1.393 . S
C1069 C1068 1.391 . S
C1070 H1060 0.950 . S
C1070 C1071 1.386 . S
C1070 C1072 1.391 . S
C1071 C1070 1.386 . S
C1071 C1075 1.393 . S
C1072 H1061 0.950 . S
C1072 C1070 1.391 . S
C1072 C1073 1.400 . S
C1073 C1067 1.491 . S
C1073 C1072 1.400 . S
C1073 C1074 1.398 . S
C1074 H1062 0.950 . S
C1074 C1073 1.398 . S
C1074 C1075 1.391 . S
C1075 H1063 0.950 . S
C1075 C1071 1.393 . S
C1075 C1074 1.391 . S
H1076 C1084 0.950 . S
H1077 C1089 0.950 . S
H1078 C1086 0.950 . S
H1079 C1088 0.950 . S
H1080 C1090 0.950 1_455 S
H1081 C1092 0.950 1_455 S
H1082 C1094 0.950 . S
H1083 C1095 0.950 . S
C1084 H1076 0.950 . S
C1084 C1085 1.386 . S
C1084 C1086 1.391 . S
C1085 C1084 1.386 . S
C1085 C1089 1.393 1_655 S
C1086 H1078 0.950 . S
C1086 C1084 1.391 . S
C1086 C1087 1.400 . S
C1087 C1086 1.400 . S
C1087 C1088 1.398 1_655 S
C1087 C1093 1.491 . S
C1088 H1079 0.950 . S
C1088 C1087 1.398 1_455 S
C1088 C1089 1.391 . S
C1089 H1077 0.950 . S
C1089 C1085 1.393 1_455 S
C1089 C1088 1.391 . S
C1090 H1080 0.950 1_655 S
C1090 C1091 1.386 . S
C1090 C1092 1.391 . S
C1091 C1090 1.386 . S
C1091 C1095 1.393 . S
C1092 H1081 0.950 1_655 S
C1092 C1090 1.391 . S
C1092 C1093 1.400 . S
C1093 C1087 1.491 . S
C1093 C1092 1.400 . S
C1093 C1094 1.398 . S
C1094 H1082 0.950 . S
C1094 C1093 1.398 . S
C1094 C1095 1.391 . S
C1095 H1083 0.950 . S
C1095 C1091 1.393 . S
C1095 C1094 1.391 . S
H1096 C1104 0.950 . S
H1097 C1109 0.950 . S
H1098 C1106 0.950 . S
H1099 C1108 0.950 . S
H1100 C1110 0.950 . S
H1101 C1112 0.950 . S
H1102 C1114 0.950 . S
H1103 C1115 0.950 . S
C1104 H1096 0.950 . S
C1104 C1105 1.386 . S
C1104 C1106 1.391 . S
C1105 C1104 1.386 . S
C1105 C1109 1.393 . S
C1106 H1098 0.950 . S
C1106 C1104 1.391 . S
C1106 C1107 1.400 . S
C1107 C1106 1.400 . S
C1107 C1108 1.398 . S
C1107 C1113 1.491 . S
C1108 H1099 0.950 . S
C1108 C1107 1.398 . S
C1108 C1109 1.391 . S
C1109 H1097 0.950 . S
C1109 C1105 1.393 . S
C1109 C1108 1.391 . S
C1110 H1100 0.950 . S
C1110 C1111 1.386 . S
C1110 C1112 1.391 . S
C1111 C1110 1.386 . S
C1111 C1115 1.393 . S
C1112 H1101 0.950 . S
C1112 C1110 1.391 . S
C1112 C1113 1.400 . S
C1113 C1107 1.491 . S
C1113 C1112 1.400 . S
C1113 C1114 1.398 . S
C1114 H1102 0.950 . S
C1114 C1113 1.398 . S
C1114 C1115 1.391 . S
C1115 H1103 0.950 . S
C1115 C1111 1.393 . S
C1115 C1114 1.391 . S
H1116 C1124 0.950 . S
H1117 C1129 0.950 1_455 S
H1118 C1126 0.950 . S
H1119 C1128 0.950 1_455 S
H1120 C1130 0.950 . S
H1121 C1132 0.950 . S
H1122 C1134 0.950 . S
H1123 C1135 0.950 . S
C1124 H1116 0.950 . S
C1124 C1125 1.386 . S
C1124 C1126 1.391 . S
C1125 C1124 1.386 . S
C1125 C1129 1.393 . S
C1126 H1118 0.950 . S
C1126 C1124 1.391 . S
C1126 C1127 1.400 . S
C1127 C1126 1.400 . S
C1127 C1128 1.398 . S
C1127 C1133 1.491 . S
C1128 H1119 0.950 1_655 S
C1128 C1127 1.398 . S
C1128 C1129 1.391 . S
C1129 H1117 0.950 1_655 S
C1129 C1125 1.393 . S
C1129 C1128 1.391 . S
C1130 H1120 0.950 . S
C1130 C1131 1.386 1_455 S
C1130 C1132 1.391 . S
C1131 C1130 1.386 1_655 S
C1131 C1135 1.393 . S
C1132 H1121 0.950 . S
C1132 C1130 1.391 . S
C1132 C1133 1.400 1_455 S
C1133 C1127 1.491 . S
C1133 C1132 1.400 1_655 S
C1133 C1134 1.398 . S
C1134 H1122 0.950 . S
C1134 C1133 1.398 . S
C1134 C1135 1.391 . S
C1135 H1123 0.950 . S
C1135 C1131 1.393 . S
C1135 C1134 1.391 . S
H1136 C1144 0.950 . S
H1137 C1149 0.950 . S
H1138 C1146 0.950 . S
H1139 C1148 0.950 . S
H1140 C1150 0.950 . S
H1141 C1152 0.950 . S
H1142 C1154 0.950 . S
H1143 C1155 0.950 . S
C1144 H1136 0.950 . S
C1144 C1145 1.386 . S
C1144 C1146 1.391 . S
C1145 C1144 1.386 . S
C1145 C1149 1.393 . S
C1146 H1138 0.950 . S
C1146 C1144 1.391 . S
C1146 C1147 1.400 . S
C1147 C1146 1.400 . S
C1147 C1148 1.398 . S
C1147 C1153 1.491 . S
C1148 H1139 0.950 . S
C1148 C1147 1.398 . S
C1148 C1149 1.391 . S
C1149 H1137 0.950 . S
C1149 C1145 1.393 . S
C1149 C1148 1.391 . S
C1150 H1140 0.950 . S
C1150 C1151 1.386 . S
C1150 C1152 1.391 . S
C1151 C1150 1.386 . S
C1151 C1155 1.393 . S
C1152 H1141 0.950 . S
C1152 C1150 1.391 . S
C1152 C1153 1.400 . S
C1153 C1147 1.491 . S
C1153 C1152 1.400 . S
C1153 C1154 1.398 . S
C1154 H1142 0.950 . S
C1154 C1153 1.398 . S
C1154 C1155 1.391 . S
C1155 H1143 0.950 . S
C1155 C1151 1.393 . S
C1155 C1154 1.391 . S
H1156 C1164 0.950 . S
H1157 C1169 0.950 . S
H1158 C1166 0.950 . S
H1159 C1168 0.950 . S
H1160 C1170 0.950 . S
H1161 C1172 0.950 . S
H1162 C1174 0.950 . S
H1163 C1175 0.950 . S
C1164 H1156 0.950 . S
C1164 C1165 1.386 . S
C1164 C1166 1.391 . S
C1165 C1164 1.386 . S
C1165 C1169 1.393 . S
C1166 H1158 0.950 . S
C1166 C1164 1.391 . S
C1166 C1167 1.400 . S
C1167 C1166 1.400 . S
C1167 C1168 1.398 . S
C1167 C1173 1.491 . S
C1168 H1159 0.950 . S
C1168 C1167 1.398 . S
C1168 C1169 1.391 . S
C1169 H1157 0.950 . S
C1169 C1165 1.393 . S
C1169 C1168 1.391 . S
C1170 H1160 0.950 . S
C1170 C1171 1.386 . S
C1170 C1172 1.391 . S
C1171 C1170 1.386 . S
C1171 C1175 1.393 . S
C1172 H1161 0.950 . S
C1172 C1170 1.391 . S
C1172 C1173 1.400 . S
C1173 C1167 1.491 . S
C1173 C1172 1.400 . S
C1173 C1174 1.398 . S
C1174 H1162 0.950 . S
C1174 C1173 1.398 . S
C1174 C1175 1.391 . S
C1175 H1163 0.950 . S
C1175 C1171 1.393 . S
C1175 C1174 1.391 . S
H1176 C1184 0.950 . S
H1177 C1189 0.950 . S
H1178 C1186 0.950 . S
H1179 C1188 0.950 . S
H1180 C1190 0.950 . S
H1181 C1192 0.950 . S
H1182 C1194 0.950 . S
H1183 C1195 0.950 . S
C1184 H1176 0.950 . S
C1184 C1185 1.386 . S
C1184 C1186 1.391 . S
C1185 C1184 1.386 . S
C1185 C1189 1.393 . S
C1186 H1178 0.950 . S
C1186 C1184 1.391 . S
C1186 C1187 1.400 . S
C1187 C1186 1.400 . S
C1187 C1188 1.398 . S
C1187 C1193 1.491 . S
C1188 H1179 0.950 . S
C1188 C1187 1.398 . S
C1188 C1189 1.391 . S
C1189 H1177 0.950 . S
C1189 C1185 1.393 . S
C1189 C1188 1.391 . S
C1190 H1180 0.950 . S
C1190 C1191 1.386 . S
C1190 C1192 1.391 . S
C1191 C1190 1.386 . S
C1191 C1195 1.393 . S
C1192 H1181 0.950 . S
C1192 C1190 1.391 . S
C1192 C1193 1.400 . S
C1193 C1187 1.491 . S
C1193 C1192 1.400 . S
C1193 C1194 1.398 . S
C1194 H1182 0.950 . S
C1194 C1193 1.398 . S
C1194 C1195 1.391 . S
C1195 H1183 0.950 . S
C1195 C1191 1.393 . S
C1195 C1194 1.391 . S
H1196 C1204 0.950 . S
H1197 C1209 0.950 . S
H1198 C1206 0.950 . S
H1199 C1208 0.950 . S
H1200 C1210 0.950 . S
H1201 C1212 0.950 . S
H1202 C1214 0.950 . S
H1203 C1215 0.950 . S
C1204 H1196 0.950 . S
C1204 C1205 1.386 . S
C1204 C1206 1.391 . S
C1205 C1204 1.386 . S
C1205 C1209 1.393 1_455 S
C1206 H1198 0.950 . S
C1206 C1204 1.391 . S
C1206 C1207 1.400 . S
C1207 C1206 1.400 . S
C1207 C1208 1.398 1_455 S
C1207 C1213 1.491 . S
C1208 H1199 0.950 . S
C1208 C1207 1.398 1_655 S
C1208 C1209 1.391 . S
C1209 H1197 0.950 . S
C1209 C1205 1.393 1_655 S
C1209 C1208 1.391 . S
C1210 H1200 0.950 . S
C1210 C1211 1.386 1_655 S
C1210 C1212 1.391 . S
C1211 C1210 1.386 1_455 S
C1211 C1215 1.393 . S
C1212 H1201 0.950 . S
C1212 C1210 1.391 . S
C1212 C1213 1.400 1_655 S
C1213 C1207 1.491 . S
C1213 C1212 1.400 1_455 S
C1213 C1214 1.398 . S
C1214 H1202 0.950 . S
C1214 C1213 1.398 . S
C1214 C1215 1.391 . S
C1215 H1203 0.950 . S
C1215 C1211 1.393 . S
C1215 C1214 1.391 . S
H1216 C1224 0.950 . S
H1217 C1229 0.950 . S
H1218 C1226 0.950 . S
H1219 C1228 0.950 . S
H1220 C1230 0.950 . S
H1221 C1232 0.950 . S
H1222 C1234 0.950 . S
H1223 C1235 0.950 . S
C1224 H1216 0.950 . S
C1224 C1225 1.386 . S
C1224 C1226 1.391 . S
C1225 C1224 1.386 . S
C1225 C1229 1.393 . S
C1226 H1218 0.950 . S
C1226 C1224 1.391 . S
C1226 C1227 1.400 . S
C1227 C1226 1.400 . S
C1227 C1228 1.398 . S
C1227 C1233 1.491 . S
C1228 H1219 0.950 . S
C1228 C1227 1.398 . S
C1228 C1229 1.391 . S
C1229 H1217 0.950 . S
C1229 C1225 1.393 . S
C1229 C1228 1.391 . S
C1230 H1220 0.950 . S
C1230 C1231 1.386 . S
C1230 C1232 1.391 . S
C1231 C1230 1.386 . S
C1231 C1235 1.393 . S
C1232 H1221 0.950 . S
C1232 C1230 1.391 . S
C1232 C1233 1.400 . S
C1233 C1227 1.491 . S
C1233 C1232 1.400 . S
C1233 C1234 1.398 . S
C1234 H1222 0.950 . S
C1234 C1233 1.398 . S
C1234 C1235 1.391 . S
C1235 H1223 0.950 . S
C1235 C1231 1.393 . S
C1235 C1234 1.391 . S
H1236 C1244 0.950 . S
H1237 C1249 0.950 1_455 S
H1238 C1246 0.950 . S
H1239 C1248 0.950 1_455 S
H1240 C1250 0.950 1_455 S
H1241 C1252 0.950 1_455 S
H1242 C1254 0.950 . S
H1243 C1255 0.950 . S
C1244 H1236 0.950 . S
C1244 C1245 1.386 . S
C1244 C1246 1.391 . S
C1245 C1244 1.386 . S
C1245 C1249 1.393 . S
C1246 H1238 0.950 . S
C1246 C1244 1.391 . S
C1246 C1247 1.400 . S
C1247 C1246 1.400 . S
C1247 C1248 1.398 . S
C1247 C1253 1.491 . S
C1248 H1239 0.950 1_655 S
C1248 C1247 1.398 . S
C1248 C1249 1.391 . S
C1249 H1237 0.950 1_655 S
C1249 C1245 1.393 . S
C1249 C1248 1.391 . S
C1250 H1240 0.950 1_655 S
C1250 C1251 1.386 . S
C1250 C1252 1.391 . S
C1251 C1250 1.386 . S
C1251 C1255 1.393 . S
C1252 H1241 0.950 1_655 S
C1252 C1250 1.391 . S
C1252 C1253 1.400 . S
C1253 C1247 1.491 . S
C1253 C1252 1.400 . S
C1253 C1254 1.398 . S
C1254 H1242 0.950 . S
C1254 C1253 1.398 . S
C1254 C1255 1.391 . S
C1255 H1243 0.950 . S
C1255 C1251 1.393 . S
C1255 C1254 1.391 . S
H1256 C1264 0.950 . S
H1257 C1269 0.950 . S
H1258 C1266 0.950 . S
H1259 C1268 0.950 . S
H1260 C1270 0.950 . S
H1261 C1272 0.950 . S
H1262 C1274 0.950 . S
H1263 C1275 0.950 . S
C1264 H1256 0.950 . S
C1264 C1265 1.386 . S
C1264 C1266 1.391 . S
C1265 C1264 1.386 . S
C1265 C1269 1.393 . S
C1266 H1258 0.950 . S
C1266 C1264 1.391 . S
C1266 C1267 1.400 . S
C1267 C1266 1.400 . S
C1267 C1268 1.398 . S
C1267 C1273 1.491 . S
C1268 H1259 0.950 . S
C1268 C1267 1.398 . S
C1268 C1269 1.391 . S
C1269 H1257 0.950 . S
C1269 C1265 1.393 . S
C1269 C1268 1.391 . S
C1270 H1260 0.950 . S
C1270 C1271 1.386 . S
C1270 C1272 1.391 . S
C1271 C1270 1.386 . S
C1271 C1275 1.393 . S
C1272 H1261 0.950 . S
C1272 C1270 1.391 . S
C1272 C1273 1.400 . S
C1273 C1267 1.491 . S
C1273 C1272 1.400 . S
C1273 C1274 1.398 . S
C1274 H1262 0.950 . S
C1274 C1273 1.398 . S
C1274 C1275 1.391 . S
C1275 H1263 0.950 . S
C1275 C1271 1.393 . S
C1275 C1274 1.391 . S
H1276 C1284 0.950 . S
H1277 C1289 0.950 . S
H1278 C1286 0.950 . S
H1279 C1288 0.950 . S
H1280 C1290 0.950 . S
H1281 C1292 0.950 . S
H1282 C1294 0.950 . S
H1283 C1295 0.950 1_455 S
C1284 H1276 0.950 . S
C1284 C1285 1.386 1_455 S
C1284 C1286 1.391 . S
C1285 C1284 1.386 1_655 S
C1285 C1289 1.393 . S
C1286 H1278 0.950 . S
C1286 C1284 1.391 . S
C1286 C1287 1.400 1_455 S
C1287 C1286 1.400 1_655 S
C1287 C1288 1.398 . S
C1287 C1293 1.491 . S
C1288 H1279 0.950 . S
C1288 C1287 1.398 . S
C1288 C1289 1.391 . S
C1289 H1277 0.950 . S
C1289 C1285 1.393 . S
C1289 C1288 1.391 . S
C1290 H1280 0.950 . S
C1290 C1291 1.386 . S
C1290 C1292 1.391 . S
C1291 C1290 1.386 . S
C1291 C1295 1.393 . S
C1292 H1281 0.950 . S
C1292 C1290 1.391 . S
C1292 C1293 1.400 . S
C1293 C1287 1.491 . S
C1293 C1292 1.400 . S
C1293 C1294 1.398 1_655 S
C1294 H1282 0.950 . S
C1294 C1293 1.398 1_455 S
C1294 C1295 1.391 1_455 S
C1295 H1283 0.950 1_655 S
C1295 C1291 1.393 . S
C1295 C1294 1.391 1_655 S
H1296 C1304 0.950 . S
H1297 C1309 0.950 . S
H1298 C1306 0.950 . S
H1299 C1308 0.950 . S
H1300 C1310 0.950 . S
H1301 C1312 0.950 . S
H1302 C1314 0.950 . S
H1303 C1315 0.950 . S
C1304 H1296 0.950 . S
C1304 C1305 1.386 . S
C1304 C1306 1.391 . S
C1305 C1304 1.386 . S
C1305 C1309 1.393 . S
C1306 H1298 0.950 . S
C1306 C1304 1.391 . S
C1306 C1307 1.400 . S
C1307 C1306 1.400 . S
C1307 C1308 1.398 . S
C1307 C1313 1.491 . S
C1308 H1299 0.950 . S
C1308 C1307 1.398 . S
C1308 C1309 1.391 . S
C1309 H1297 0.950 . S
C1309 C1305 1.393 . S
C1309 C1308 1.391 . S
C1310 H1300 0.950 . S
C1310 C1311 1.386 . S
C1310 C1312 1.391 . S
C1311 C1310 1.386 . S
C1311 C1315 1.393 . S
C1312 H1301 0.950 . S
C1312 C1310 1.391 . S
C1312 C1313 1.400 . S
C1313 C1307 1.491 . S
C1313 C1312 1.400 . S
C1313 C1314 1.398 . S
C1314 H1302 0.950 . S
C1314 C1313 1.398 . S
C1314 C1315 1.391 . S
C1315 H1303 0.950 . S
C1315 C1311 1.393 . S
C1315 C1314 1.391 . S
H1316 C1324 0.950 . S
H1317 C1329 0.950 1_655 S
H1318 C1326 0.950 . S
H1319 C1328 0.950 . S
H1320 C1330 0.950 . S
H1321 C1332 0.950 1_655 S
H1322 C1334 0.950 . S
H1323 C1335 0.950 . S
C1324 H1316 0.950 . S
C1324 C1325 1.386 . S
C1324 C1326 1.391 . S
C1325 C1324 1.386 . S
C1325 C1329 1.393 . S
C1326 H1318 0.950 . S
C1326 C1324 1.391 . S
C1326 C1327 1.400 . S
C1327 C1326 1.400 . S
C1327 C1328 1.398 . S
C1327 C1333 1.491 . S
C1328 H1319 0.950 . S
C1328 C1327 1.398 . S
C1328 C1329 1.391 . S
C1329 H1317 0.950 1_455 S
C1329 C1325 1.393 . S
C1329 C1328 1.391 . S
C1330 H1320 0.950 . S
C1330 C1331 1.386 . S
C1330 C1332 1.391 . S
C1331 C1330 1.386 . S
C1331 C1335 1.393 . S
C1332 H1321 0.950 1_455 S
C1332 C1330 1.391 . S
C1332 C1333 1.400 . S
C1333 C1327 1.491 . S
C1333 C1332 1.400 . S
C1333 C1334 1.398 . S
C1334 H1322 0.950 . S
C1334 C1333 1.398 . S
C1334 C1335 1.391 . S
C1335 H1323 0.950 . S
C1335 C1331 1.393 . S
C1335 C1334 1.391 . S
H1336 C1344 0.950 . S
H1337 C1349 0.950 . S
H1338 C1346 0.950 . S
H1339 C1348 0.950 . S
H1340 C1350 0.950 . S
H1341 C1352 0.950 . S
H1342 C1354 0.950 . S
H1343 C1355 0.950 . S
C1344 H1336 0.950 . S
C1344 C1345 1.386 . S
C1344 C1346 1.391 . S
C1345 C1344 1.386 . S
C1345 C1349 1.393 . S
C1346 H1338 0.950 . S
C1346 C1344 1.391 . S
C1346 C1347 1.400 . S
C1347 C1346 1.400 . S
C1347 C1348 1.398 . S
C1347 C1353 1.491 . S
C1348 H1339 0.950 . S
C1348 C1347 1.398 . S
C1348 C1349 1.391 . S
C1349 H1337 0.950 . S
C1349 C1345 1.393 . S
C1349 C1348 1.391 . S
C1350 H1340 0.950 . S
C1350 C1351 1.386 . S
C1350 C1352 1.391 . S
C1351 C1350 1.386 . S
C1351 C1355 1.393 . S
C1352 H1341 0.950 . S
C1352 C1350 1.391 . S
C1352 C1353 1.400 . S
C1353 C1347 1.491 . S
C1353 C1352 1.400 . S
C1353 C1354 1.398 . S
C1354 H1342 0.950 . S
C1354 C1353 1.398 . S
C1354 C1355 1.391 . S
C1355 H1343 0.950 . S
C1355 C1351 1.393 . S
C1355 C1354 1.391 . S
H1356 C1364 0.950 . S
H1357 C1369 0.950 . S
H1358 C1366 0.950 . S
H1359 C1368 0.950 . S
H1360 C1370 0.950 . S
H1361 C1372 0.950 . S
H1362 C1374 0.950 . S
H1363 C1375 0.950 . S
C1364 H1356 0.950 . S
C1364 C1365 1.386 . S
C1364 C1366 1.391 . S
C1365 C1364 1.386 . S
C1365 C1369 1.393 . S
C1366 H1358 0.950 . S
C1366 C1364 1.391 . S
C1366 C1367 1.400 . S
C1367 C1366 1.400 . S
C1367 C1368 1.398 . S
C1367 C1373 1.491 . S
C1368 H1359 0.950 . S
C1368 C1367 1.398 . S
C1368 C1369 1.391 . S
C1369 H1357 0.950 . S
C1369 C1365 1.393 . S
C1369 C1368 1.391 . S
C1370 H1360 0.950 . S
C1370 C1371 1.386 . S
C1370 C1372 1.391 . S
C1371 C1370 1.386 . S
C1371 C1375 1.393 . S
C1372 H1361 0.950 . S
C1372 C1370 1.391 . S
C1372 C1373 1.400 . S
C1373 C1367 1.491 . S
C1373 C1372 1.400 . S
C1373 C1374 1.398 . S
C1374 H1362 0.950 . S
C1374 C1373 1.398 . S
C1374 C1375 1.391 . S
C1375 H1363 0.950 . S
C1375 C1371 1.393 . S
C1375 C1374 1.391 . S
H1376 C1384 0.950 . S
H1377 C1389 0.950 . S
H1378 C1386 0.950 . S
H1379 C1388 0.950 . S
H1380 C1390 0.950 . S
H1381 C1392 0.950 . S
H1382 C1394 0.950 1_655 S
H1383 C1395 0.950 1_655 S
C1384 H1376 0.950 . S
C1384 C1385 1.386 1_655 S
C1384 C1386 1.391 . S
C1385 C1384 1.386 1_455 S
C1385 C1389 1.393 1_556 S
C1386 H1378 0.950 . S
C1386 C1384 1.391 . S
C1386 C1387 1.400 1_655 S
C1387 C1386 1.400 1_455 S
C1387 C1388 1.398 1_556 S
C1387 C1393 1.492 . S
C1388 H1379 0.950 . S
C1388 C1387 1.398 1_554 S
C1388 C1389 1.391 . S
C1389 H1377 0.950 . S
C1389 C1385 1.393 1_554 S
C1389 C1388 1.391 . S
C1390 H1380 0.950 . S
C1390 C1391 1.383 1_554 S
C1390 C1392 1.391 . S
C1391 C1390 1.383 1_556 S
C1391 C1395 1.395 . S
C1392 H1381 0.950 . S
C1392 C1390 1.391 . S
C1392 C1393 1.394 1_554 S
C1393 C1387 1.492 . S
C1393 C1392 1.394 1_556 S
C1393 C1394 1.404 . S
C1394 H1382 0.950 1_455 S
C1394 C1393 1.404 . S
C1394 C1395 1.391 . S
C1395 H1383 0.950 1_455 S
C1395 C1391 1.395 . S
C1395 C1394 1.391 . S
H1396 C1404 0.950 . S
H1397 C1409 0.950 . S
H1398 C1406 0.950 . S
H1399 C1408 0.950 . S
H1400 C1410 0.947 1_655 S
H1401 C1412 0.950 1_655 S
H1402 C1414 0.950 . S
H1403 C1415 0.950 . S
C1404 H1396 0.950 . S
C1404 C1405 1.386 . S
C1404 C1406 1.391 . S
C1405 C1404 1.386 . S
C1405 C1409 1.393 . S
C1406 H1398 0.950 . S
C1406 C1404 1.391 . S
C1406 C1407 1.400 . S
C1407 C1406 1.400 . S
C1407 C1408 1.398 . S
C1407 C1413 1.491 . S
C1408 H1399 0.950 . S
C1408 C1407 1.398 . S
C1408 C1409 1.391 . S
C1409 H1397 0.950 . S
C1409 C1405 1.393 . S
C1409 C1408 1.391 . S
C1410 H1400 0.947 1_455 S
C1410 C1411 1.388 . S
C1410 C1412 1.392 . S
C1411 C1410 1.388 . S
C1411 C1415 1.393 . S
C1412 H1401 0.950 1_455 S
C1412 C1410 1.392 . S
C1412 C1413 1.400 . S
C1413 C1407 1.491 . S
C1413 C1412 1.400 . S
C1413 C1414 1.398 . S
C1414 H1402 0.950 . S
C1414 C1413 1.398 . S
C1414 C1415 1.391 . S
C1415 H1403 0.950 . S
C1415 C1411 1.393 . S
C1415 C1414 1.391 . S
H1416 C1424 0.950 . S
H1417 C1429 0.950 . S
H1418 C1426 0.950 . S
H1419 C1428 0.950 . S
H1420 C1430 0.950 1_455 S
H1421 C1432 0.950 1_455 S
H1422 C1434 0.950 . S
H1423 C1435 0.950 . S
C1424 H1416 0.950 . S
C1424 C1425 1.386 1_556 S
C1424 C1426 1.391 . S
C1425 C1424 1.386 1_554 S
C1425 C1429 1.393 1_655 S
C1426 H1418 0.950 . S
C1426 C1424 1.391 . S
C1426 C1427 1.400 1_556 S
C1427 C1426 1.400 1_554 S
C1427 C1428 1.398 1_655 S
C1427 C1433 1.492 . S
C1428 H1419 0.950 . S
C1428 C1427 1.398 1_455 S
C1428 C1429 1.391 . S
C1429 H1417 0.950 . S
C1429 C1425 1.393 1_455 S
C1429 C1428 1.391 . S
C1430 H1420 0.950 1_655 S
C1430 C1431 1.395 . S
C1430 C1432 1.391 . S
C1431 C1430 1.395 . S
C1431 C1435 1.384 1_554 S
C1432 H1421 0.950 1_655 S
C1432 C1430 1.391 . S
C1432 C1433 1.420 . S
C1433 C1427 1.492 . S
C1433 C1432 1.420 . S
C1433 C1434 1.378 1_554 S
C1434 H1422 0.950 . S
C1434 C1433 1.378 1_556 S
C1434 C1435 1.391 . S
C1435 H1423 0.950 . S
C1435 C1431 1.384 1_556 S
C1435 C1434 1.391 . S
H1436 C1444 0.950 . S
H1437 C1449 0.950 . S
H1438 C1446 0.950 . S
H1439 C1448 0.950 . S
H1440 C1450 0.950 . S
H1441 C1452 0.950 . S
H1442 C1454 0.950 . S
H1443 C1455 0.950 1_455 S
C1444 H1436 0.950 . S
C1444 C1445 1.386 . S
C1444 C1446 1.391 . S
C1445 C1444 1.386 . S
C1445 C1449 1.393 . S
C1446 H1438 0.950 . S
C1446 C1444 1.391 . S
C1446 C1447 1.400 . S
C1447 C1446 1.400 . S
C1447 C1448 1.398 . S
C1447 C1453 1.491 . S
C1448 H1439 0.950 . S
C1448 C1447 1.398 . S
C1448 C1449 1.391 . S
C1449 H1437 0.950 . S
C1449 C1445 1.393 . S
C1449 C1448 1.391 . S
C1450 H1440 0.950 . S
C1450 C1451 1.386 . S
C1450 C1452 1.391 . S
C1451 C1450 1.386 . S
C1451 C1455 1.393 . S
C1452 H1441 0.950 . S
C1452 C1450 1.391 . S
C1452 C1453 1.400 . S
C1453 C1447 1.491 . S
C1453 C1452 1.400 . S
C1453 C1454 1.398 . S
C1454 H1442 0.950 . S
C1454 C1453 1.398 . S
C1454 C1455 1.391 . S
C1455 H1443 0.950 1_655 S
C1455 C1451 1.393 . S
C1455 C1454 1.391 . S
H1456 C1464 0.950 . S
H1457 C1469 0.950 . S
H1458 C1466 0.950 . S
H1459 C1468 0.950 . S
H1460 C1470 0.950 . S
H1461 C1472 0.950 . S
H1462 C1474 0.950 1_655 S
H1463 C1475 0.950 1_655 S
C1464 H1456 0.950 . S
C1464 C1465 1.386 1_655 S
C1464 C1466 1.391 . S
C1465 C1464 1.386 1_455 S
C1465 C1469 1.393 . S
C1466 H1458 0.950 . S
C1466 C1464 1.391 . S
C1466 C1467 1.400 1_655 S
C1467 C1466 1.400 1_455 S
C1467 C1468 1.398 . S
C1467 C1473 1.491 . S
C1468 H1459 0.950 . S
C1468 C1467 1.398 . S
C1468 C1469 1.391 . S
C1469 H1457 0.950 . S
C1469 C1465 1.393 . S
C1469 C1468 1.391 . S
C1470 H1460 0.950 . S
C1470 C1471 1.386 . S
C1470 C1472 1.391 . S
C1471 C1470 1.386 . S
C1471 C1475 1.393 . S
C1472 H1461 0.950 . S
C1472 C1470 1.391 . S
C1472 C1473 1.400 . S
C1473 C1467 1.491 . S
C1473 C1472 1.400 . S
C1473 C1474 1.398 . S
C1474 H1462 0.950 1_455 S
C1474 C1473 1.398 . S
C1474 C1475 1.391 . S
C1475 H1463 0.950 1_455 S
C1475 C1471 1.393 . S
C1475 C1474 1.391 . S
H1476 C1484 0.950 1_655 S
H1477 C1489 0.950 . S
H1478 C1486 0.950 1_655 S
H1479 C1488 0.950 . S
H1480 C1490 0.950 . S
H1481 C1492 0.950 . S
H1482 C1494 0.950 . S
H1483 C1495 0.950 . S
C1484 H1476 0.950 1_455 S
C1484 C1485 1.386 . S
C1484 C1486 1.391 . S
C1485 C1484 1.386 . S
C1485 C1489 1.393 . S
C1486 H1478 0.950 1_455 S
C1486 C1484 1.391 . S
C1486 C1487 1.400 . S
C1487 C1486 1.400 . S
C1487 C1488 1.398 . S
C1487 C1493 1.491 . S
C1488 H1479 0.950 . S
C1488 C1487 1.398 . S
C1488 C1489 1.391 . S
C1489 H1477 0.950 . S
C1489 C1485 1.393 . S
C1489 C1488 1.391 . S
C1490 H1480 0.950 . S
C1490 C1491 1.386 . S
C1490 C1492 1.391 . S
C1491 C1490 1.386 . S
C1491 C1495 1.393 1_455 S
C1492 H1481 0.950 . S
C1492 C1490 1.391 . S
C1492 C1493 1.400 . S
C1493 C1487 1.491 . S
C1493 C1492 1.400 . S
C1493 C1494 1.398 1_455 S
C1494 H1482 0.950 . S
C1494 C1493 1.398 1_655 S
C1494 C1495 1.391 . S
C1495 H1483 0.950 . S
C1495 C1491 1.393 1_655 S
C1495 C1494 1.391 . S
H1496 C1504 0.950 . S
H1497 C1509 0.950 . S
H1498 C1506 0.950 . S
H1499 C1508 0.950 1_455 S
H1500 C1510 0.950 . S
H1501 C1512 0.950 1_455 S
H1502 C1514 0.950 . S
H1503 C1515 0.950 . S
C1504 H1496 0.950 . S
C1504 C1505 1.386 . S
C1504 C1506 1.391 . S
C1505 C1504 1.386 . S
C1505 C1509 1.393 . S
C1506 H1498 0.950 . S
C1506 C1504 1.391 . S
C1506 C1507 1.400 . S
C1507 C1506 1.400 . S
C1507 C1508 1.398 . S
C1507 C1513 1.491 . S
C1508 H1499 0.950 1_655 S
C1508 C1507 1.398 . S
C1508 C1509 1.391 . S
C1509 H1497 0.950 . S
C1509 C1505 1.393 . S
C1509 C1508 1.391 . S
C1510 H1500 0.950 . S
C1510 C1511 1.386 1_455 S
C1510 C1512 1.391 1_455 S
C1511 C1510 1.386 1_655 S
C1511 C1515 1.393 . S
C1512 H1501 0.950 1_655 S
C1512 C1510 1.391 1_655 S
C1512 C1513 1.400 . S
C1513 C1507 1.491 . S
C1513 C1512 1.400 . S
C1513 C1514 1.398 . S
C1514 H1502 0.950 . S
C1514 C1513 1.398 . S
C1514 C1515 1.391 . S
C1515 H1503 0.950 . S
C1515 C1511 1.393 . S
C1515 C1514 1.391 . S
H1516 C1524 0.950 . S
H1517 C1529 0.950 1_455 S
H1518 C1526 0.950 . S
H1519 C1528 0.950 1_455 S
H1520 C1530 0.950 . S
H1521 C1532 0.950 . S
H1522 C1534 0.950 . S
H1523 C1535 0.950 . S
C1524 H1516 0.950 . S
C1524 C1525 1.386 . S
C1524 C1526 1.391 . S
C1525 C1524 1.386 . S
C1525 C1529 1.393 . S
C1526 H1518 0.950 . S
C1526 C1524 1.391 . S
C1526 C1527 1.400 . S
C1527 C1526 1.400 . S
C1527 C1528 1.398 . S
C1527 C1533 1.491 . S
C1528 H1519 0.950 1_655 S
C1528 C1527 1.398 . S
C1528 C1529 1.391 . S
C1529 H1517 0.950 1_655 S
C1529 C1525 1.393 . S
C1529 C1528 1.391 . S
C1530 H1520 0.950 . S
C1530 C1531 1.386 1_455 S
C1530 C1532 1.391 . S
C1531 C1530 1.386 1_655 S
C1531 C1535 1.393 . S
C1532 H1521 0.950 . S
C1532 C1530 1.391 . S
C1532 C1533 1.400 1_455 S
C1533 C1527 1.491 . S
C1533 C1532 1.400 1_655 S
C1533 C1534 1.398 . S
C1534 H1522 0.950 . S
C1534 C1533 1.398 . S
C1534 C1535 1.391 . S
C1535 H1523 0.950 . S
C1535 C1531 1.393 . S
C1535 C1534 1.391 . S
H1536 C1544 0.950 . S
H1537 C1549 0.950 . S
H1538 C1546 0.950 . S
H1539 C1548 0.950 . S
H1540 C1550 0.950 . S
H1541 C1552 0.950 . S
H1542 C1554 0.950 . S
H1543 C1555 0.950 . S
C1544 H1536 0.950 . S
C1544 C1545 1.386 . S
C1544 C1546 1.391 . S
C1545 C1544 1.386 . S
C1545 C1549 1.393 . S
C1546 H1538 0.950 . S
C1546 C1544 1.391 . S
C1546 C1547 1.400 . S
C1547 C1546 1.400 . S
C1547 C1548 1.398 . S
C1547 C1553 1.491 . S
C1548 H1539 0.950 . S
C1548 C1547 1.398 . S
C1548 C1549 1.391 . S
C1549 H1537 0.950 . S
C1549 C1545 1.393 . S
C1549 C1548 1.391 . S
C1550 H1540 0.950 . S
C1550 C1551 1.386 . S
C1550 C1552 1.391 . S
C1551 C1550 1.386 . S
C1551 C1555 1.393 . S
C1552 H1541 0.950 . S
C1552 C1550 1.391 . S
C1552 C1553 1.400 . S
C1553 C1547 1.491 . S
C1553 C1552 1.400 . S
C1553 C1554 1.398 . S
C1554 H1542 0.950 . S
C1554 C1553 1.398 . S
C1554 C1555 1.391 . S
C1555 H1543 0.950 . S
C1555 C1551 1.393 . S
C1555 C1554 1.391 . S
H1556 C1564 0.950 . S
H1557 C1569 0.950 . S
H1558 C1566 0.950 . S
H1559 C1568 0.950 . S
H1560 C1570 0.950 . S
H1561 C1572 0.950 . S
H1562 C1574 0.950 . S
H1563 C1575 0.950 . S
C1564 H1556 0.950 . S
C1564 C1565 1.386 . S
C1564 C1566 1.391 . S
C1565 C1564 1.386 . S
C1565 C1569 1.393 . S
C1566 H1558 0.950 . S
C1566 C1564 1.391 . S
C1566 C1567 1.400 . S
C1567 C1566 1.400 . S
C1567 C1568 1.398 . S
C1567 C1573 1.491 . S
C1568 H1559 0.950 . S
C1568 C1567 1.398 . S
C1568 C1569 1.391 . S
C1569 H1557 0.950 . S
C1569 C1565 1.393 . S
C1569 C1568 1.391 . S
C1570 H1560 0.950 . S
C1570 C1571 1.386 . S
C1570 C1572 1.391 . S
C1571 C1570 1.386 . S
C1571 C1575 1.393 . S
C1572 H1561 0.950 . S
C1572 C1570 1.391 . S
C1572 C1573 1.400 . S
C1573 C1567 1.491 . S
C1573 C1572 1.400 . S
C1573 C1574 1.398 . S
C1574 H1562 0.950 . S
C1574 C1573 1.398 . S
C1574 C1575 1.391 . S
C1575 H1563 0.950 . S
C1575 C1571 1.393 . S
C1575 C1574 1.391 . S
H1576 C1584 0.950 . S
H1577 C1589 0.950 . S
H1578 C1586 0.950 . S
H1579 C1588 0.950 . S
H1580 C1590 0.950 . S
H1581 C1592 0.950 . S
H1582 C1594 0.950 . S
H1583 C1595 0.950 . S
C1584 H1576 0.950 . S
C1584 C1585 1.386 . S
C1584 C1586 1.391 . S
C1585 C1584 1.386 . S
C1585 C1589 1.393 . S
C1586 H1578 0.950 . S
C1586 C1584 1.391 . S
C1586 C1587 1.400 . S
C1587 C1586 1.400 . S
C1587 C1588 1.398 . S
C1587 C1593 1.491 . S
C1588 H1579 0.950 . S
C1588 C1587 1.398 . S
C1588 C1589 1.391 . S
C1589 H1577 0.950 . S
C1589 C1585 1.393 . S
C1589 C1588 1.391 . S
C1590 H1580 0.950 . S
C1590 C1591 1.386 . S
C1590 C1592 1.391 . S
C1591 C1590 1.386 . S
C1591 C1595 1.393 . S
C1592 H1581 0.950 . S
C1592 C1590 1.391 . S
C1592 C1593 1.400 . S
C1593 C1587 1.491 . S
C1593 C1592 1.400 . S
C1593 C1594 1.398 . S
C1594 H1582 0.950 . S
C1594 C1593 1.398 . S
C1594 C1595 1.391 . S
C1595 H1583 0.950 . S
C1595 C1591 1.393 . S
C1595 C1594 1.391 . S
H1596 C1604 0.950 . S
H1597 C1609 0.950 . S
H1598 C1606 0.950 . S
H1599 C1608 0.950 . S
H1600 C1610 0.950 . S
H1601 C1612 0.950 . S
H1602 C1614 0.950 . S
H1603 C1615 0.950 . S
C1604 H1596 0.950 . S
C1604 C1605 1.386 . S
C1604 C1606 1.391 . S
C1605 C1604 1.386 . S
C1605 C1609 1.393 . S
C1606 H1598 0.950 . S
C1606 C1604 1.391 . S
C1606 C1607 1.400 . S
C1607 C1606 1.400 . S
C1607 C1608 1.398 . S
C1607 C1613 1.491 . S
C1608 H1599 0.950 . S
C1608 C1607 1.398 . S
C1608 C1609 1.391 . S
C1609 H1597 0.950 . S
C1609 C1605 1.393 . S
C1609 C1608 1.391 . S
C1610 H1600 0.950 . S
C1610 C1611 1.386 . S
C1610 C1612 1.391 . S
C1611 C1610 1.386 . S
C1611 C1615 1.393 . S
C1612 H1601 0.950 . S
C1612 C1610 1.391 . S
C1612 C1613 1.400 . S
C1613 C1607 1.491 . S
C1613 C1612 1.400 . S
C1613 C1614 1.398 . S
C1614 H1602 0.950 . S
C1614 C1613 1.398 . S
C1614 C1615 1.391 . S
C1615 H1603 0.950 . S
C1615 C1611 1.393 . S
C1615 C1614 1.391 . S
H1616 C1624 0.950 . S
H1617 C1629 0.950 . S
H1618 C1626 0.950 . S
H1619 C1628 0.950 . S
H1620 C1630 0.950 . S
H1621 C1632 0.950 . S
H1622 C1634 0.950 . S
H1623 C1635 0.950 . S
C1624 H1616 0.950 . S
C1624 C1625 1.382 1_554 S
C1624 C1626 1.391 . S
C1625 C1624 1.382 1_556 S
C1625 C1629 1.396 . S
C1626 H1618 0.950 . S
C1626 C1624 1.391 . S
C1626 C1627 1.392 1_554 S
C1627 C1626 1.392 1_556 S
C1627 C1628 1.406 . S
C1627 C1633 1.492 . S
C1628 H1619 0.950 . S
C1628 C1627 1.406 . S
C1628 C1629 1.391 . S
C1629 H1617 0.950 . S
C1629 C1625 1.396 . S
C1629 C1628 1.391 . S
C1630 H1620 0.950 . S
C1630 C1631 1.386 . S
C1630 C1632 1.391 . S
C1631 C1630 1.386 . S
C1631 C1635 1.393 1_556 S
C1632 H1621 0.950 . S
C1632 C1630 1.391 . S
C1632 C1633 1.400 . S
C1633 C1627 1.492 . S
C1633 C1632 1.400 . S
C1633 C1634 1.398 1_556 S
C1634 H1622 0.950 . S
C1634 C1633 1.398 1_554 S
C1634 C1635 1.391 . S
C1635 H1623 0.950 . S
C1635 C1631 1.393 1_554 S
C1635 C1634 1.391 . S
H1636 C1644 0.950 . S
H1637 C1649 0.950 . S
H1638 C1646 0.950 . S
H1639 C1648 0.950 . S
H1640 C1650 0.950 . S
H1641 C1652 0.950 . S
H1642 C1654 0.950 . S
H1643 C1655 0.950 . S
C1644 H1636 0.950 . S
C1644 C1645 1.386 . S
C1644 C1646 1.391 . S
C1645 C1644 1.386 . S
C1645 C1649 1.393 . S
C1646 H1638 0.950 . S
C1646 C1644 1.391 . S
C1646 C1647 1.400 . S
C1647 C1646 1.400 . S
C1647 C1648 1.398 . S
C1647 C1653 1.491 . S
C1648 H1639 0.950 . S
C1648 C1647 1.398 . S
C1648 C1649 1.391 . S
C1649 H1637 0.950 . S
C1649 C1645 1.393 . S
C1649 C1648 1.391 . S
C1650 H1640 0.950 . S
C1650 C1651 1.386 . S
C1650 C1652 1.391 . S
C1651 C1650 1.386 . S
C1651 C1655 1.393 . S
C1652 H1641 0.950 . S
C1652 C1650 1.391 . S
C1652 C1653 1.400 . S
C1653 C1647 1.491 . S
C1653 C1652 1.400 . S
C1653 C1654 1.398 . S
C1654 H1642 0.950 . S
C1654 C1653 1.398 . S
C1654 C1655 1.391 . S
C1655 H1643 0.950 . S
C1655 C1651 1.393 . S
C1655 C1654 1.391 . S
H1656 C1664 0.950 . S
H1657 C1669 0.950 . S
H1658 C1666 0.950 . S
H1659 C1668 0.950 . S
H1660 C1670 0.950 . S
H1661 C1672 0.950 . S
H1662 C1674 0.950 . S
H1663 C1675 0.950 . S
C1664 H1656 0.950 . S
C1664 C1665 1.386 1_556 S
C1664 C1666 1.391 . S
C1665 C1664 1.386 1_554 S
C1665 C1669 1.393 . S
C1666 H1658 0.950 . S
C1666 C1664 1.391 . S
C1666 C1667 1.400 1_556 S
C1667 C1666 1.400 1_554 S
C1667 C1668 1.398 . S
C1667 C1673 1.492 . S
C1668 H1659 0.950 . S
C1668 C1667 1.398 . S
C1668 C1669 1.391 . S
C1669 H1657 0.950 . S
C1669 C1665 1.393 . S
C1669 C1668 1.391 . S
C1670 H1660 0.950 . S
C1670 C1671 1.387 . S
C1670 C1672 1.391 . S
C1671 C1670 1.387 . S
C1671 C1675 1.391 1_554 S
C1672 H1661 0.950 . S
C1672 C1670 1.391 . S
C1672 C1673 1.406 . S
C1673 C1667 1.492 . S
C1673 C1672 1.406 . S
C1673 C1674 1.392 1_554 S
C1674 H1662 0.950 . S
C1674 C1673 1.392 1_556 S
C1674 C1675 1.391 . S
C1675 H1663 0.950 . S
C1675 C1671 1.391 1_556 S
C1675 C1674 1.391 . S
H1676 C1684 0.950 . S
H1677 C1689 0.950 . S
H1678 C1686 0.950 . S
H1679 C1688 0.950 . S
H1680 C1690 0.950 . S
H1681 C1692 0.950 . S
H1682 C1694 0.950 . S
H1683 C1695 0.950 . S
C1684 H1676 0.950 . S
C1684 C1685 1.386 . S
C1684 C1686 1.391 . S
C1685 C1684 1.386 . S
C1685 C1689 1.393 . S
C1686 H1678 0.950 . S
C1686 C1684 1.391 . S
C1686 C1687 1.400 . S
C1687 C1686 1.400 . S
C1687 C1688 1.398 . S
C1687 C1693 1.491 . S
C1688 H1679 0.950 . S
C1688 C1687 1.398 . S
C1688 C1689 1.391 . S
C1689 H1677 0.950 . S
C1689 C1685 1.393 . S
C1689 C1688 1.391 . S
C1690 H1680 0.950 . S
C1690 C1691 1.386 . S
C1690 C1692 1.391 . S
C1691 C1690 1.386 . S
C1691 C1695 1.393 . S
C1692 H1681 0.950 . S
C1692 C1690 1.391 . S
C1692 C1693 1.400 . S
C1693 C1687 1.491 . S
C1693 C1692 1.400 . S
C1693 C1694 1.398 . S
C1694 H1682 0.950 . S
C1694 C1693 1.398 . S
C1694 C1695 1.391 . S
C1695 H1683 0.950 . S
C1695 C1691 1.393 . S
C1695 C1694 1.391 . S
C425 C3 1.491 . S
C431 C42 1.487 1_455 S
C445 C29 1.486 . S
C451 C16 1.483 1_455 S
C465 C94 1.472 . S
C471 C55 1.464 . S
C485 C81 1.468 . S
C491 C68 1.464 . S
C505 C107 1.492 . S
C511 C146 1.492 1_455 S
C525 C120 1.484 1_455 S
C531 C133 1.484 . S
C545 C198 1.481 . S
C551 C159 1.479 . S
C565 C185 1.478 . S
C571 C172 1.473 . S
C585 C211 1.484 . S
C591 C250 1.484 . S
C605 C224 1.489 . S
C611 C237 1.489 . S
C625 C263 1.473 . S
C631 C302 1.477 . S
C645 C276 1.472 . S
C651 C289 1.469 . S
C665 C315 1.494 . S
C671 C354 1.490 . S
C685 C341 1.492 . S
C691 C328 1.488 . S
C705 C406 1.468 . S
C711 C367 1.469 . S
C725 C393 1.482 . S
C731 C380 1.477 . S
C745 C5 1.488 . S
C751 C57 1.491 . S
C765 C382 1.490 . S
C771 C18 1.494 1_556 S
C785 C31 1.485 . S
C791 C187 1.495 . S
C805 C304 1.493 . S
C811 C44 1.488 . S
C825 C330 1.491 1_556 S
C831 C70 1.488 . S
C845 C83 1.497 . S
C851 C135 1.481 . S
C865 C96 1.493 . S
C871 C252 1.487 . S
C885 C161 1.493 . S
C891 C109 1.480 . S
C905 C278 1.487 . S
C911 C122 1.491 . S
C925 C148 1.480 . S
C931 C408 1.496 . S
C945 C174 1.484 . S
C951 C226 1.492 . S
C965 C200 1.487 . S
C971 C356 1.493 . S
C985 C265 1.493 . S
C991 C213 1.481 . S
C1005 C239 1.490 . S
C1011 C395 1.488 . S
C1025 C291 1.494 . S
C1031 C343 1.483 . S
C1045 C369 1.489 . S
C1051 C317 1.494 1_556 S
C1065 C1 1.525 . S
C1071 C248 1.530 . S
C1085 C14 1.530 . S
C1091 C235 1.530 . S
C1105 C222 1.531 . S
C1111 C27 1.535 . S
C1125 C209 1.531 . S
C1131 C40 1.535 . S
C1145 C53 1.516 . S
C1151 C300 1.520 . S
C1165 C66 1.522 . S
C1171 C287 1.526 . S
C1185 C79 1.519 . S
C1191 C274 1.518 . S
C1205 C261 1.520 . S
C1211 C92 1.519 . S
C1225 C105 1.535 . S
C1231 C352 1.531 . S
C1245 C339 1.529 . S
C1251 C118 1.532 . S
C1265 C326 1.525 . S
C1271 C131 1.533 . S
C1285 C144 1.527 . S
C1291 C313 1.535 . S
C1305 C157 1.519 . S
C1311 C404 1.520 . S
C1325 C170 1.525 . S
C1331 C391 1.525 . S
C1345 C378 1.518 . S
C1351 C183 1.520 . S
C1365 C196 1.511 . S
C1371 C365 1.514 . S
C1385 C23 1.492 . S
C1391 C10 1.494 . S
C1405 C36 1.498 . S
C1411 C49 1.496 1_455 S
C1425 C75 1.492 . S
C1431 C62 1.497 . S
C1445 C88 1.492 . S
C1451 C101 1.494 . S
C1465 C127 1.491 1_455 S
C1471 C114 1.494 . S
C1485 C140 1.491 . S
C1491 C153 1.489 . S
C1505 C166 1.493 . S
C1511 C179 1.491 . S
C1525 C192 1.494 . S
C1531 C205 1.491 . S
C1545 C218 1.497 . S
C1551 C231 1.497 . S
C1565 C257 1.486 . S
C1571 C244 1.487 . S
C1585 C270 1.494 . S
C1591 C283 1.498 . S
C1605 C309 1.499 . S
C1611 C296 1.496 . S
C1625 C335 1.491 . S
C1631 C322 1.489 . S
C1645 C348 1.493 . S
C1651 C361 1.494 . S
C1665 C374 1.493 . S
C1671 C387 1.498 . S
C1685 C413 1.499 . S
C1691 C400 1.497 . S
