# Generated by pormake.
# Topology uks, (4)-cn, num edge types: 1
# Building blocks:
#     Node 0, Type 0, BuildingBlock: MUDLON_clean_sbu_0, # of connection points: 4
#     Node 1, Type 0, BuildingBlock: MUDLON_clean_sbu_0, # of connection points: 4
#     Node 2, Type 0, BuildingBlock: MUDLON_clean_sbu_0, # of connection points: 4
#     Node 3, Type 0, BuildingBlock: MUDLON_clean_sbu_0, # of connection points: 4
#     Node 4, Type 0, BuildingBlock: MUDLON_clean_sbu_0, # of connection points: 4
#     Node 5, Type 0, BuildingBlock: MUDLON_clean_sbu_0, # of connection points: 4
#     Node 6, Type 0, BuildingBlock: MUDLON_clean_sbu_0, # of connection points: 4
#     Node 7, Type 0, BuildingBlock: MUDLON_clean_sbu_0, # of connection points: 4
#     Node 8, Type 0, BuildingBlock: MUDLON_clean_sbu_0, # of connection points: 4
#     Node 9, Type 0, BuildingBlock: MUDLON_clean_sbu_0, # of connection points: 4
#     Node 10, Type 0, BuildingBlock: MUDLON_clean_sbu_0, # of connection points: 4
#     Node 11, Type 0, BuildingBlock: MUDLON_clean_sbu_0, # of connection points: 4
#     Node 12, Type 0, BuildingBlock: MUDLON_clean_sbu_0, # of connection points: 4
#     Node 13, Type 0, BuildingBlock: MUDLON_clean_sbu_0, # of connection points: 4
#     Node 14, Type 0, BuildingBlock: MUDLON_clean_sbu_0, # of connection points: 4
#     Node 15, Type 0, BuildingBlock: MUDLON_clean_sbu_0, # of connection points: 4
#     Node 16, Type 0, BuildingBlock: MUDLON_clean_sbu_0, # of connection points: 4
#     Node 17, Type 0, BuildingBlock: MUDLON_clean_sbu_0, # of connection points: 4
#     Node 18, Type 0, BuildingBlock: MUDLON_clean_sbu_0, # of connection points: 4
#     Node 19, Type 0, BuildingBlock: MUDLON_clean_sbu_0, # of connection points: 4
#     Node 20, Type 0, BuildingBlock: MUDLON_clean_sbu_0, # of connection points: 4
#     Node 21, Type 0, BuildingBlock: MUDLON_clean_sbu_0, # of connection points: 4
#     Node 22, Type 0, BuildingBlock: MUDLON_clean_sbu_0, # of connection points: 4
#     Node 23, Type 0, BuildingBlock: MUDLON_clean_sbu_0, # of connection points: 4
#     Edge 24, Type (0, 0), BuildingBlock: XUDNAN_clean_linker_2, # of connection points: 2
#     Edge 25, Type (0, 0), BuildingBlock: XUDNAN_clean_linker_2, # of connection points: 2
#     Edge 26, Type (0, 0), BuildingBlock: XUDNAN_clean_linker_2, # of connection points: 2
#     Edge 27, Type (0, 0), BuildingBlock: XUDNAN_clean_linker_2, # of connection points: 2
#     Edge 28, Type (0, 0), BuildingBlock: XUDNAN_clean_linker_2, # of connection points: 2
#     Edge 29, Type (0, 0), BuildingBlock: XUDNAN_clean_linker_2, # of connection points: 2
#     Edge 30, Type (0, 0), BuildingBlock: XUDNAN_clean_linker_2, # of connection points: 2
#     Edge 31, Type (0, 0), BuildingBlock: XUDNAN_clean_linker_2, # of connection points: 2
#     Edge 32, Type (0, 0), BuildingBlock: XUDNAN_clean_linker_2, # of connection points: 2
#     Edge 33, Type (0, 0), BuildingBlock: XUDNAN_clean_linker_2, # of connection points: 2
#     Edge 34, Type (0, 0), BuildingBlock: XUDNAN_clean_linker_2, # of connection points: 2
#     Edge 35, Type (0, 0), BuildingBlock: XUDNAN_clean_linker_2, # of connection points: 2
#     Edge 36, Type (0, 0), BuildingBlock: XUDNAN_clean_linker_2, # of connection points: 2
#     Edge 37, Type (0, 0), BuildingBlock: XUDNAN_clean_linker_2, # of connection points: 2
#     Edge 38, Type (0, 0), BuildingBlock: XUDNAN_clean_linker_2, # of connection points: 2
#     Edge 39, Type (0, 0), BuildingBlock: XUDNAN_clean_linker_2, # of connection points: 2
#     Edge 40, Type (0, 0), BuildingBlock: XUDNAN_clean_linker_2, # of connection points: 2
#     Edge 41, Type (0, 0), BuildingBlock: XUDNAN_clean_linker_2, # of connection points: 2
#     Edge 42, Type (0, 0), BuildingBlock: XUDNAN_clean_linker_2, # of connection points: 2
#     Edge 43, Type (0, 0), BuildingBlock: XUDNAN_clean_linker_2, # of connection points: 2
#     Edge 44, Type (0, 0), BuildingBlock: XUDNAN_clean_linker_2, # of connection points: 2
#     Edge 45, Type (0, 0), BuildingBlock: XUDNAN_clean_linker_2, # of connection points: 2
#     Edge 46, Type (0, 0), BuildingBlock: XUDNAN_clean_linker_2, # of connection points: 2
#     Edge 47, Type (0, 0), BuildingBlock: XUDNAN_clean_linker_2, # of connection points: 2
#     Edge 48, Type (0, 0), BuildingBlock: XUDNAN_clean_linker_2, # of connection points: 2
#     Edge 49, Type (0, 0), BuildingBlock: XUDNAN_clean_linker_2, # of connection points: 2
#     Edge 50, Type (0, 0), BuildingBlock: XUDNAN_clean_linker_2, # of connection points: 2
#     Edge 51, Type (0, 0), BuildingBlock: XUDNAN_clean_linker_2, # of connection points: 2
#     Edge 52, Type (0, 0), BuildingBlock: XUDNAN_clean_linker_2, # of connection points: 2
#     Edge 53, Type (0, 0), BuildingBlock: XUDNAN_clean_linker_2, # of connection points: 2
#     Edge 54, Type (0, 0), BuildingBlock: XUDNAN_clean_linker_2, # of connection points: 2
#     Edge 55, Type (0, 0), BuildingBlock: XUDNAN_clean_linker_2, # of connection points: 2
#     Edge 56, Type (0, 0), BuildingBlock: XUDNAN_clean_linker_2, # of connection points: 2
#     Edge 57, Type (0, 0), BuildingBlock: XUDNAN_clean_linker_2, # of connection points: 2
#     Edge 58, Type (0, 0), BuildingBlock: XUDNAN_clean_linker_2, # of connection points: 2
#     Edge 59, Type (0, 0), BuildingBlock: XUDNAN_clean_linker_2, # of connection points: 2
#     Edge 60, Type (0, 0), BuildingBlock: XUDNAN_clean_linker_2, # of connection points: 2
#     Edge 61, Type (0, 0), BuildingBlock: XUDNAN_clean_linker_2, # of connection points: 2
#     Edge 62, Type (0, 0), BuildingBlock: XUDNAN_clean_linker_2, # of connection points: 2
#     Edge 63, Type (0, 0), BuildingBlock: XUDNAN_clean_linker_2, # of connection points: 2
#     Edge 64, Type (0, 0), BuildingBlock: XUDNAN_clean_linker_2, # of connection points: 2
#     Edge 65, Type (0, 0), BuildingBlock: XUDNAN_clean_linker_2, # of connection points: 2
#     Edge 66, Type (0, 0), BuildingBlock: XUDNAN_clean_linker_2, # of connection points: 2
#     Edge 67, Type (0, 0), BuildingBlock: XUDNAN_clean_linker_2, # of connection points: 2
#     Edge 68, Type (0, 0), BuildingBlock: XUDNAN_clean_linker_2, # of connection points: 2
#     Edge 69, Type (0, 0), BuildingBlock: XUDNAN_clean_linker_2, # of connection points: 2
#     Edge 70, Type (0, 0), BuildingBlock: XUDNAN_clean_linker_2, # of connection points: 2
#     Edge 71, Type (0, 0), BuildingBlock: XUDNAN_clean_linker_2, # of connection points: 2
# Relax obj value: 0.065
# Max RMSD: 0.060
# Mean RMSD: 0.060
data_MOF--net-uks--node1-MUDLON_clean_sbu_0--edge1-XUDNAN_clean_linker_2
_symmetry_space_group_name_H-M    P1
_symmetry_Int_Tables_number       1
_symmetry_cell_setting            triclinic
loop_
_symmetry_equiv_pos_as_xyz
'x, y, z'
_cell_length_a     55.344626
_cell_length_b     55.566518
_cell_length_c     55.383241
_cell_angle_alpha  89.980005
_cell_angle_beta   90.231802
_cell_angle_gamma 89.707241
loop_
_atom_site_label
_atom_site_type_symbol
_atom_site_fract_x
_atom_site_fract_y
_atom_site_fract_z
_atom_type_partial_charge
Mg0 Mg 0.13352 0.38738 0.70638 0.0
C1 C 0.18505 0.36695 0.71653 0.0
O2 O 0.17494 0.34568 0.71752 0.0
C3 C 0.09515 0.38497 0.66929 0.0
O4 O 0.08922 0.40413 0.68187 0.0
C5 C 0.13891 0.4369 0.69128 0.0
O6 O 0.1485 0.42319 0.67448 0.0
O7 O 0.12868 0.42658 0.70908 0.0
O8 O 0.17272 0.38503 0.70942 0.0
O9 O 0.12071 0.3627 0.7344 0.0
C10 C 0.12102 0.34106 0.72672 0.0
O11 O 0.12655 0.33714 0.70402 0.0
O12 O 0.11529 0.37472 0.67376 0.0
Mg13 Mg 0.65609 0.64585 0.2247 0.0
C14 C 0.6439 0.69732 0.22348 0.0
O15 O 0.62691 0.6873 0.23651 0.0
C16 C 0.69272 0.61338 0.19644 0.0
O17 O 0.70918 0.62832 0.20456 0.0
C18 C 0.60598 0.62242 0.21817 0.0
O19 O 0.61857 0.60489 0.20838 0.0
O20 O 0.61705 0.64014 0.22759 0.0
O21 O 0.65969 0.68368 0.21372 0.0
O22 O 0.67598 0.64624 0.25885 0.0
C23 C 0.69131 0.63033 0.26531 0.0
O24 O 0.693 0.61031 0.25282 0.0
O25 O 0.67055 0.6175 0.20105 0.0
Mg26 Mg 0.3922 0.14729 0.72132 0.0
C27 C 0.40439 0.19812 0.71985 0.0
O28 O 0.41952 0.18826 0.73533 0.0
C29 C 0.38299 0.09819 0.70177 0.0
O30 O 0.40056 0.0945 0.71739 0.0
C31 C 0.44241 0.14465 0.7039 0.0
O32 O 0.42974 0.14991 0.68446 0.0
O33 O 0.43116 0.14084 0.72353 0.0
O34 O 0.38925 0.18459 0.70911 0.0
O35 O 0.37314 0.14811 0.75589 0.0
C36 C 0.35315 0.13699 0.75738 0.0
O37 O 0.34628 0.12349 0.73918 0.0
O38 O 0.37567 0.1197 0.69831 0.0
Mg39 Mg 0.88007 0.87527 0.20697 0.0
C40 C 0.84224 0.85993 0.2414 0.0
O41 O 0.83736 0.84729 0.22198 0.0
C42 C 0.93116 0.87268 0.19207 0.0
O43 O 0.91942 0.87305 0.1714 0.0
C44 C 0.84487 0.91138 0.18393 0.0
O45 O 0.82911 0.89612 0.19268 0.0
O46 O 0.86732 0.90659 0.1861 0.0
O47 O 0.86016 0.87423 0.24098 0.0
O48 O 0.87526 0.83921 0.19181 0.0
C49 C 0.88832 0.82409 0.2033 0.0
O50 O 0.90192 0.83168 0.22117 0.0
O51 O 0.91928 0.87608 0.21142 0.0
Mg52 Mg 0.15726 0.16931 0.86796 0.0
C53 C 0.1519 0.19518 0.82009 0.0
O54 O 0.1755 0.19617 0.8222 0.0
C55 C 0.15163 0.11297 0.86487 0.0
O56 O 0.14595 0.11611 0.84202 0.0
C57 C 0.11314 0.18518 0.88873 0.0
O58 O 0.10866 0.16782 0.87326 0.0
O59 O 0.13517 0.19018 0.89322 0.0
O60 O 0.14006 0.1821 0.83469 0.0
O61 O 0.19632 0.17504 0.86413 0.0
C62 C 0.20483 0.15936 0.84962 0.0
O63 O 0.18975 0.14388 0.84002 0.0
O64 O 0.15504 0.13127 0.87826 0.0
Mg65 Mg 0.90037 0.64079 0.31352 0.0
C66 C 0.88312 0.66716 0.26825 0.0
O67 O 0.8619 0.66189 0.27729 0.0
C68 C 0.88903 0.58833 0.30902 0.0
O69 O 0.86819 0.59807 0.30296 0.0
C70 C 0.93374 0.67895 0.3346 0.0
O71 O 0.92022 0.69291 0.3209 0.0
O72 O 0.92855 0.65671 0.33621 0.0
O73 O 0.9021 0.65907 0.27857 0.0
O74 O 0.86316 0.64315 0.32616 0.0
C75 C 0.85028 0.66171 0.33022 0.0
O76 O 0.8604 0.68305 0.32999 0.0
O77 O 0.90706 0.60206 0.31249 0.0
Mg78 Mg 0.38631 0.3921 0.8081 0.0
C79 C 0.33928 0.36533 0.80392 0.0
O80 O 0.35296 0.34973 0.79246 0.0
C81 C 0.41791 0.35584 0.83578 0.0
O82 O 0.4032 0.34028 0.82568 0.0
C83 C 0.38809 0.44204 0.82913 0.0
O84 O 0.39585 0.42934 0.84765 0.0
O85 O 0.38429 0.43139 0.80912 0.0
O86 O 0.34931 0.38224 0.8157 0.0
O87 O 0.3919 0.37605 0.77266 0.0
C88 C 0.41088 0.364 0.76797 0.0
O89 O 0.42956 0.36579 0.78256 0.0
O90 O 0.41407 0.37824 0.83265 0.0
Mg91 Mg 0.65443 0.89215 0.32506 0.0
C92 C 0.63683 0.85944 0.28567 0.0
O93 O 0.61934 0.85743 0.30148 0.0
C94 C 0.67145 0.93563 0.3484 0.0
O95 O 0.67244 0.91851 0.36475 0.0
C96 C 0.60441 0.90279 0.34151 0.0
O97 O 0.61003 0.92224 0.3293 0.0
O98 O 0.62029 0.88627 0.34385 0.0
O99 O 0.65303 0.87525 0.2893 0.0
O100 O 0.68677 0.87576 0.34049 0.0
C101 C 0.69504 0.85637 0.33149 0.0
O102 O 0.6805 0.84295 0.31847 0.0
O103 O 0.66327 0.93044 0.3275 0.0
Mg104 Mg 0.72468 0.15704 0.38375 0.0
C105 C 0.7418 0.15369 0.33483 0.0
O106 O 0.75453 0.13806 0.34743 0.0
C107 C 0.69183 0.16129 0.42559 0.0
O108 O 0.70206 0.14013 0.42877 0.0
C109 C 0.70994 0.10698 0.37179 0.0
O110 O 0.69715 0.11985 0.35643 0.0
O111 O 0.72392 0.11781 0.38651 0.0
O112 O 0.72466 0.1649 0.34527 0.0
O113 O 0.75774 0.17519 0.39496 0.0
C114 C 0.75855 0.19595 0.38524 0.0
O115 O 0.74032 0.20288 0.37161 0.0
O116 O 0.69658 0.17294 0.4064 0.0
Mg117 Mg 0.90048 0.24418 0.90418 0.0
C118 C 0.90959 0.24574 0.85038 0.0
O119 O 0.93197 0.24802 0.85798 0.0
C120 C 0.8971 0.21347 0.94726 0.0
O121 O 0.90867 0.23254 0.95507 0.0
C122 C 0.95414 0.2568 0.92297 0.0
O123 O 0.94546 0.2686 0.94159 0.0
O124 O 0.93978 0.24781 0.90744 0.0
O125 O 0.89308 0.24131 0.86565 0.0
O126 O 0.87452 0.27278 0.9127 0.0
C127 C 0.85623 0.26845 0.92593 0.0
O128 O 0.85648 0.24926 0.93974 0.0
O129 O 0.89099 0.21254 0.92511 0.0
Mg130 Mg 0.81277 0.39723 0.39289 0.0
C131 C 0.83585 0.34807 0.40549 0.0
O132 O 0.83904 0.35763 0.42693 0.0
C133 C 0.85662 0.42846 0.37605 0.0
O134 O 0.87053 0.4106 0.38326 0.0
C135 C 0.82325 0.4061 0.44534 0.0
O136 O 0.84428 0.41114 0.4357 0.0
O137 O 0.80561 0.40119 0.4314 0.0
O138 O 0.82809 0.36125 0.3883 0.0
O139 O 0.78037 0.39666 0.37009 0.0
C140 C 0.78354 0.38497 0.35057 0.0
O141 O 0.80467 0.37478 0.3469 0.0
O142 O 0.83385 0.42695 0.37853 0.0
Mg143 Mg 0.63909 0.33124 0.88488 0.0
C144 C 0.63196 0.32468 0.83381 0.0
O145 O 0.62315 0.30574 0.84483 0.0
C146 C 0.62933 0.35369 0.93216 0.0
O147 O 0.61443 0.3354 0.93131 0.0
C148 C 0.58729 0.33611 0.88277 0.0
O149 O 0.59668 0.35759 0.87977 0.0
O150 O 0.60163 0.31849 0.88668 0.0
O151 O 0.64138 0.34129 0.84661 0.0
O152 O 0.67053 0.30757 0.88895 0.0
C153 C 0.68374 0.30738 0.90785 0.0
O154 O 0.67579 0.31777 0.9276 0.0
O155 O 0.64258 0.35793 0.91388 0.0
Mg156 Mg 0.71005 0.39337 0.13974 0.0
C157 C 0.71697 0.3832 0.19022 0.0
O158 O 0.73779 0.37973 0.17944 0.0
C159 C 0.69057 0.39875 0.09066 0.0
O160 O 0.71302 0.40615 0.08897 0.0
C161 C 0.70636 0.4451 0.14353 0.0
O162 O 0.68439 0.43635 0.14486 0.0
O163 O 0.72377 0.43036 0.14006 0.0
O164 O 0.69882 0.38947 0.17741 0.0
O165 O 0.73338 0.36145 0.13481 0.0
C166 C 0.73159 0.34624 0.11765 0.0
O167 O 0.71808 0.35142 0.09881 0.0
O168 O 0.6828 0.3922 0.11125 0.0
Mg169 Mg 0.63945 0.22241 0.63671 0.0
C170 C 0.68965 0.21399 0.65692 0.0
O171 O 0.68051 0.22646 0.67488 0.0
C172 C 0.60969 0.19099 0.67124 0.0
O173 O 0.62744 0.19573 0.68629 0.0
C174 C 0.63756 0.20621 0.58685 0.0
O175 O 0.63951 0.18663 0.60006 0.0
O176 O 0.63565 0.22635 0.59766 0.0
O177 O 0.67578 0.20761 0.63978 0.0
O178 O 0.63949 0.25565 0.65805 0.0
C179 C 0.62199 0.26041 0.67213 0.0
O180 O 0.60263 0.24686 0.6712 0.0
O181 O 0.61077 0.19892 0.64971 0.0
Mg182 Mg 0.80667 0.13261 0.13195 0.0
C183 C 0.77853 0.17526 0.11129 0.0
O184 O 0.79532 0.17387 0.09466 0.0
C185 C 0.81854 0.08108 0.13867 0.0
O186 O 0.83939 0.0921 0.14076 0.0
C187 C 0.83064 0.12654 0.08467 0.0
O188 O 0.81432 0.10946 0.08424 0.0
O189 O 0.83287 0.13916 0.10371 0.0
O190 O 0.7768 0.15828 0.12669 0.0
O191 O 0.81741 0.14256 0.16822 0.0
C192 C 0.81444 0.16435 0.17464 0.0
O193 O 0.8118 0.18085 0.15784 0.0
O194 O 0.79976 0.09376 0.13415 0.0
Mg195 Mg 0.88883 0.30907 0.63247 0.0
C196 C 0.85034 0.27528 0.64477 0.0
O197 O 0.84892 0.29253 0.66088 0.0
C198 C 0.9365 0.32852 0.62393 0.0
O199 O 0.92213 0.34704 0.62763 0.0
C200 C 0.85008 0.33824 0.60532 0.0
O201 O 0.83537 0.32429 0.61744 0.0
O202 O 0.8727 0.33662 0.60922 0.0
O203 O 0.86679 0.27651 0.62876 0.0
O204 O 0.88841 0.31616 0.6712 0.0
C205 C 0.90397 0.30439 0.68348 0.0
O206 O 0.92084 0.29233 0.67198 0.0
O207 O 0.92719 0.30761 0.62345 0.0
Mg208 Mg 0.39566 0.68846 0.15471 0.0
C209 C 0.34447 0.69447 0.14289 0.0
O210 O 0.35591 0.71072 0.13012 0.0
C211 C 0.442 0.67215 0.17394 0.0
O212 O 0.44356 0.69564 0.17189 0.0
C213 C 0.39654 0.67769 0.10296 0.0
O214 O 0.38666 0.65895 0.11343 0.0
O215 O 0.40357 0.695 0.11634 0.0
O216 O 0.35697 0.68001 0.1558 0.0
O217 O 0.39967 0.7177 0.181 0.0
C218 C 0.38706 0.71509 0.20003 0.0
O219 O 0.37162 0.69724 0.20095 0.0
O220 O 0.42235 0.66204 0.16753 0.0
Mg221 Mg 0.39424 0.82992 0.39622 0.0
C222 C 0.38844 0.78799 0.36163 0.0
O223 O 0.36576 0.79044 0.3681 0.0
C224 C 0.39382 0.84387 0.44776 0.0
O225 O 0.39831 0.86406 0.4363 0.0
C226 C 0.44379 0.84697 0.39116 0.0
O227 O 0.44584 0.82455 0.39847 0.0
O228 O 0.42266 0.8559 0.38872 0.0
O229 O 0.40454 0.79986 0.37292 0.0
O230 O 0.35769 0.83844 0.3838 0.0
C231 C 0.34127 0.84733 0.39715 0.0
O232 O 0.34716 0.85596 0.41843 0.0
O233 O 0.39222 0.82457 0.43543 0.0
Mg234 Mg 0.21156 0.89374 0.90692 0.0
C235 C 0.21395 0.86421 0.86029 0.0
O236 O 0.21878 0.84645 0.87519 0.0
C237 C 0.19429 0.8883 0.95584 0.0
O238 O 0.21389 0.90151 0.95704 0.0
C239 C 0.19893 0.94385 0.89173 0.0
O240 O 0.1883 0.93081 0.87505 0.0
O241 O 0.21142 0.9332 0.90796 0.0
O242 O 0.20678 0.88427 0.86884 0.0
O243 O 0.24526 0.8748 0.91533 0.0
C244 C 0.24251 0.85332 0.92295 0.0
O245 O 0.2206 0.846 0.92809 0.0
O246 O 0.18663 0.88201 0.93505 0.0
Mg247 Mg 0.15366 0.72267 0.38991 0.0
C248 C 0.17213 0.70015 0.34039 0.0
O249 O 0.18055 0.68136 0.32868 0.0
C250 C 0.18151 0.69541 0.42839 0.0
O251 O 0.19634 0.69322 0.41004 0.0
C252 C 0.10172 0.70783 0.38438 0.0
O253 O 0.11259 0.68686 0.38658 0.0
O254 O 0.11444 0.72685 0.38558 0.0
O255 O 0.16634 0.69743 0.36249 0.0
O256 O 0.17427 0.75608 0.38737 0.0
C257 C 0.19564 0.75482 0.379 0.0
O258 O 0.20395 0.73386 0.37177 0.0
O259 O 0.16173 0.70684 0.42532 0.0
Mg260 Mg 0.35374 0.66147 0.87927 0.0
C261 C 0.36557 0.6527 0.82632 0.0
O262 O 0.37277 0.63176 0.83476 0.0
C263 C 0.37058 0.65843 0.92871 0.0
O264 O 0.34914 0.64839 0.92786 0.0
C265 C 0.35754 0.60787 0.88282 0.0
O266 O 0.37804 0.61463 0.89268 0.0
O267 O 0.34192 0.62394 0.87739 0.0
O268 O 0.36075 0.66951 0.8412 0.0
O269 O 0.32882 0.69048 0.88869 0.0
C270 C 0.34065 0.71009 0.88762 0.0
O271 O 0.36342 0.709 0.88102 0.0
O272 O 0.37992 0.66551 0.90893 0.0
Mg273 Mg 0.14444 0.79235 0.16021 0.0
C274 C 0.14915 0.8126 0.21052 0.0
O275 O 0.12696 0.81988 0.20604 0.0
C276 C 0.16202 0.82852 0.11955 0.0
O277 O 0.17914 0.83557 0.13441 0.0
C278 C 0.09117 0.8039 0.15737 0.0
O279 O 0.0987 0.81424 0.13748 0.0
O280 O 0.10603 0.79121 0.16963 0.0
O281 O 0.162 0.80516 0.193 0.0
O282 O 0.16388 0.75814 0.15566 0.0
C283 C 0.18138 0.7585 0.14078 0.0
O284 O 0.18394 0.77755 0.12702 0.0
O285 O 0.14708 0.81262 0.12637 0.0
Mg286 Mg 0.21872 0.64828 0.65003 0.0
C287 C 0.21679 0.69918 0.63646 0.0
O288 O 0.23244 0.6894 0.62161 0.0
C289 C 0.19612 0.60004 0.65482 0.0
O290 O 0.21112 0.59742 0.63667 0.0
C291 C 0.20243 0.64891 0.59889 0.0
O292 O 0.18318 0.65595 0.61083 0.0
O293 O 0.22117 0.64267 0.61088 0.0
O294 O 0.20699 0.68599 0.65248 0.0
O295 O 0.25322 0.64561 0.66967 0.0
C296 C 0.25637 0.65951 0.68772 0.0
O297 O 0.23928 0.67509 0.69308 0.0
O298 O 0.19445 0.62069 0.66473 0.0
Mg299 Mg 0.29727 0.89153 0.64957 0.0
C300 C 0.24838 0.86707 0.65091 0.0
O301 O 0.25004 0.87282 0.67382 0.0
C302 C 0.32092 0.93834 0.65805 0.0
O303 O 0.33645 0.92236 0.66636 0.0
C304 C 0.33029 0.88688 0.60695 0.0
O305 O 0.3218 0.90883 0.60414 0.0
O306 O 0.32434 0.87516 0.62577 0.0
O307 O 0.26362 0.87578 0.63614 0.0
O308 O 0.29857 0.87988 0.68729 0.0
C309 C 0.28894 0.89392 0.70272 0.0
O310 O 0.28203 0.91546 0.69564 0.0
O311 O 0.30122 0.93081 0.64884 0.0
H312 H 0.16745 0.21595 0.77845 0.0
H313 H 0.10923 0.21805 0.83054 0.0
H314 H 0.09373 0.25562 0.81191 0.0
H315 H 0.17954 0.27683 0.77706 0.0
H316 H 0.1853 0.27863 0.74511 0.0
H317 H 0.19039 0.25077 0.76094 0.0
H318 H 0.16158 0.22851 0.73155 0.0
H319 H 0.15679 0.25621 0.71527 0.0
H320 H 0.13133 0.23985 0.72692 0.0
H321 H 0.08869 0.29675 0.79106 0.0
H322 H 0.09044 0.33344 0.76529 0.0
H323 H 0.14982 0.30182 0.72539 0.0
C324 C 0.15102 0.22394 0.78547 0.0
C325 C 0.13947 0.21405 0.8058 0.0
C326 C 0.11816 0.22514 0.8147 0.0
C327 C 0.10936 0.24661 0.80439 0.0
C328 C 0.12177 0.25644 0.78488 0.0
C329 C 0.14176 0.24503 0.7751 0.0
C330 C 0.15216 0.2593 0.7544 0.0
C331 C 0.17839 0.26682 0.75971 0.0
C332 C 0.15034 0.24513 0.73062 0.0
C333 C 0.13532 0.28081 0.75438 0.0
C334 C 0.11805 0.27913 0.77223 0.0
C335 C 0.1018 0.29797 0.77667 0.0
C336 C 0.103 0.31878 0.76214 0.0
C337 C 0.12002 0.32023 0.74323 0.0
C338 C 0.1363 0.30099 0.73945 0.0
H339 H 0.73118 0.60363 0.27823 0.0
H340 H 0.69508 0.67172 0.29208 0.0
H341 H 0.7303 0.68521 0.31582 0.0
H342 H 0.76433 0.59952 0.33773 0.0
H343 H 0.79063 0.58674 0.32341 0.0
H344 H 0.76094 0.58084 0.31134 0.0
H345 H 0.77456 0.59691 0.26963 0.0
H346 H 0.80412 0.60296 0.28161 0.0
H347 H 0.78693 0.62679 0.26749 0.0
H348 H 0.77205 0.69397 0.33181 0.0
H349 H 0.81597 0.69635 0.33996 0.0
H350 H 0.82422 0.62215 0.31691 0.0
C351 C 0.7303 0.62106 0.28693 0.0
C352 C 0.71026 0.63655 0.28332 0.0
C353 C 0.71012 0.65943 0.29465 0.0
C354 C 0.73007 0.66727 0.30823 0.0
C355 C 0.74994 0.65192 0.31062 0.0
C356 C 0.75004 0.62913 0.30058 0.0
C357 C 0.77444 0.61702 0.30376 0.0
C358 C 0.77246 0.59471 0.32004 0.0
C359 C 0.78566 0.61056 0.27917 0.0
C360 C 0.78833 0.63692 0.31621 0.0
C361 C 0.77387 0.65684 0.32026 0.0
C362 C 0.78341 0.67827 0.32927 0.0
C363 C 0.80839 0.67949 0.33382 0.0
C364 C 0.82357 0.65939 0.32936 0.0
C365 C 0.81313 0.63771 0.32104 0.0
H366 H 0.44327 0.32717 0.76262 0.0
H367 H 0.37427 0.35362 0.73595 0.0
H368 H 0.36783 0.31512 0.71466 0.0
H369 H 0.45899 0.28795 0.7092 0.0
H370 H 0.47175 0.26528 0.72881 0.0
H371 H 0.47332 0.2966 0.73716 0.0
H372 H 0.45255 0.28681 0.77783 0.0
H373 H 0.45068 0.25564 0.76957 0.0
H374 H 0.42367 0.27196 0.77765 0.0
H375 H 0.36587 0.2713 0.70207 0.0
H376 H 0.36873 0.22682 0.69979 0.0
H377 H 0.43856 0.22947 0.73548 0.0
C378 C 0.42725 0.3253 0.7515 0.0
C379 C 0.4094 0.34355 0.7508 0.0
C380 C 0.38835 0.34002 0.73658 0.0
C381 C 0.38453 0.31818 0.72439 0.0
C382 C 0.40199 0.3001 0.72644 0.0
C383 C 0.42308 0.30359 0.73946 0.0
C384 C 0.43758 0.28052 0.74158 0.0
C385 C 0.46185 0.28273 0.72839 0.0
C386 C 0.44131 0.27332 0.76823 0.0
C387 C 0.42089 0.26326 0.72867 0.0
C388 C 0.40067 0.27487 0.7196 0.0
C389 C 0.38187 0.26211 0.70868 0.0
C390 C 0.38362 0.23686 0.70745 0.0
C391 C 0.40386 0.22468 0.71741 0.0
C392 C 0.42291 0.23823 0.72755 0.0
H393 H 0.7189 0.8251 0.30183 0.0
H394 H 0.73091 0.88294 0.35302 0.0
H395 H 0.77325 0.88585 0.33956 0.0
H396 H 0.78259 0.79886 0.3034 0.0
H397 H 0.78133 0.79296 0.27142 0.0
H398 H 0.75422 0.79128 0.28928 0.0
H399 H 0.73338 0.82188 0.26059 0.0
H400 H 0.76039 0.82401 0.24289 0.0
H401 H 0.74715 0.8508 0.25568 0.0
H402 H 0.81143 0.888 0.31491 0.0
H403 H 0.84215 0.88792 0.28253 0.0
H404 H 0.80461 0.82912 0.24735 0.0
C405 C 0.73068 0.83765 0.31102 0.0
C406 C 0.72155 0.8537 0.32858 0.0
C407 C 0.7375 0.8703 0.33967 0.0
C408 C 0.76162 0.8721 0.33211 0.0
C409 C 0.76961 0.857 0.31365 0.0
C410 C 0.75469 0.83979 0.30355 0.0
C411 C 0.76639 0.82797 0.28189 0.0
C412 C 0.77144 0.80118 0.2868 0.0
C413 C 0.75091 0.83139 0.25893 0.0
C414 C 0.78964 0.8421 0.28058 0.0
C415 C 0.79147 0.85844 0.29929 0.0
C416 C 0.81044 0.87489 0.30051 0.0
C417 C 0.82778 0.87477 0.282 0.0
C418 C 0.82582 0.85851 0.26242 0.0
C419 C 0.80675 0.84169 0.26213 0.0
H420 H 0.81591 0.13412 0.21375 0.0
H421 H 0.79365 0.20588 0.19162 0.0
H422 H 0.77251 0.21128 0.2304 0.0
H423 H 0.76221 0.1179 0.24112 0.0
H424 H 0.77581 0.10146 0.26577 0.0
H425 H 0.79151 0.10406 0.23751 0.0
H426 H 0.8286 0.1225 0.25928 0.0
H427 H 0.81325 0.11942 0.28773 0.0
H428 H 0.82451 0.14837 0.27851 0.0
H429 H 0.74981 0.20692 0.26991 0.0
H430 H 0.7322 0.19509 0.30923 0.0
H431 H 0.76998 0.12662 0.30517 0.0
C432 C 0.80715 0.15123 0.21728 0.0
C433 C 0.80648 0.16955 0.19961 0.0
C434 C 0.7946 0.1916 0.20491 0.0
C435 C 0.78237 0.1948 0.22685 0.0
C436 C 0.78246 0.17591 0.2434 0.0
C437 C 0.79498 0.15476 0.23908 0.0
C438 C 0.7917 0.13694 0.25943 0.0
C439 C 0.77958 0.11373 0.25041 0.0
C440 C 0.81596 0.1315 0.27198 0.0
C441 C 0.775 0.15116 0.27567 0.0
C442 C 0.76976 0.17357 0.26614 0.0
C443 C 0.75402 0.18951 0.27767 0.0
C444 C 0.74391 0.18257 0.29985 0.0
C445 C 0.74974 0.15997 0.31021 0.0
C446 C 0.76527 0.14407 0.29774 0.0
H447 H 0.93744 0.28783 0.71584 0.0
H448 H 0.86234 0.30986 0.70974 0.0
H449 H 0.85513 0.29585 0.75148 0.0
H450 H 0.92815 0.23468 0.74898 0.0
H451 H 0.95448 0.23795 0.76794 0.0
H452 H 0.95412 0.2508 0.73809 0.0
H453 H 0.96387 0.29287 0.75571 0.0
H454 H 0.96477 0.28005 0.78557 0.0
H455 H 0.94502 0.30517 0.77918 0.0
H456 H 0.85559 0.27632 0.79288 0.0
H457 H 0.86492 0.25843 0.83272 0.0
H458 H 0.94007 0.25049 0.81188 0.0
C459 C 0.91956 0.29008 0.72342 0.0
C460 C 0.90045 0.29995 0.70956 0.0
C461 C 0.87731 0.30256 0.7201 0.0
C462 C 0.873 0.29446 0.74372 0.0
C463 C 0.89209 0.28409 0.75661 0.0
C464 C 0.91504 0.28237 0.74699 0.0
C465 C 0.93251 0.27069 0.76459 0.0
C466 C 0.94292 0.24713 0.75428 0.0
C467 C 0.95273 0.28825 0.77169 0.0
C468 C 0.91578 0.26585 0.78556 0.0
C469 C 0.89249 0.27348 0.78054 0.0
C470 C 0.87381 0.27048 0.79707 0.0
C471 C 0.87925 0.26009 0.81958 0.0
C472 C 0.90323 0.25306 0.82543 0.0
C473 C 0.92157 0.25569 0.80797 0.0
H474 H 0.78362 0.3555 0.31163 0.0
H475 H 0.74225 0.41284 0.3451 0.0
H476 H 0.71531 0.41429 0.30917 0.0
H477 H 0.78504 0.37976 0.25534 0.0
H478 H 0.78303 0.35161 0.23932 0.0
H479 H 0.79569 0.3523 0.2692 0.0
H480 H 0.76458 0.32054 0.28327 0.0
H481 H 0.75178 0.31975 0.2533 0.0
H482 H 0.73276 0.32615 0.27887 0.0
H483 H 0.69665 0.41299 0.26647 0.0
H484 H 0.68974 0.41004 0.22219 0.0
H485 H 0.74408 0.35386 0.21807 0.0
C486 C 0.76856 0.36802 0.31174 0.0
C487 C 0.76502 0.38404 0.33118 0.0
C488 C 0.74518 0.40024 0.33048 0.0
C489 C 0.72979 0.40116 0.31014 0.0
C490 C 0.73433 0.38554 0.29088 0.0
C491 C 0.75319 0.36913 0.29174 0.0
C492 C 0.75616 0.356 0.26806 0.0
C493 C 0.78146 0.36019 0.25736 0.0
C494 C 0.751 0.32901 0.27106 0.0
C495 C 0.7367 0.36823 0.25325 0.0
C496 C 0.72387 0.3849 0.26668 0.0
C497 C 0.7063 0.39966 0.25596 0.0
C498 C 0.70237 0.39781 0.23085 0.0
C499 C 0.71629 0.38162 0.21684 0.0
C500 C 0.73302 0.36623 0.22841 0.0
H501 H 0.59196 0.26735 0.71048 0.0
H502 H 0.65926 0.29236 0.67972 0.0
H503 H 0.6664 0.31728 0.7161 0.0
H504 H 0.57547 0.32333 0.74375 0.0
H505 H 0.56396 0.30632 0.76889 0.0
H506 H 0.56219 0.29419 0.73875 0.0
H507 H 0.58499 0.25583 0.75299 0.0
H508 H 0.58683 0.2678 0.78305 0.0
H509 H 0.614 0.25878 0.76759 0.0
H510 H 0.66826 0.33587 0.75848 0.0
H511 H 0.66571 0.34366 0.8026 0.0
H512 H 0.598 0.30498 0.80498 0.0
C513 C 0.60786 0.27861 0.71099 0.0
C514 C 0.6249 0.27808 0.69207 0.0
C515 C 0.6458 0.29264 0.69386 0.0
C516 C 0.64998 0.30691 0.71446 0.0
C517 C 0.63308 0.30647 0.73311 0.0
C518 C 0.6124 0.29268 0.73144 0.0
C519 C 0.59839 0.29292 0.75482 0.0
C520 C 0.57353 0.30491 0.75134 0.0
C521 C 0.59593 0.26732 0.76521 0.0
C522 C 0.61478 0.30831 0.77026 0.0
C523 C 0.63446 0.31648 0.7574 0.0
C524 C 0.65272 0.32984 0.76858 0.0
C525 C 0.65111 0.3343 0.79359 0.0
C526 C 0.63162 0.325 0.8071 0.0
C527 C 0.61303 0.31245 0.79505 0.0
H528 H 0.31451 0.71771 0.11163 0.0
H529 H 0.31395 0.67402 0.17649 0.0
H530 H 0.26983 0.68118 0.18038 0.0
H531 H 0.27675 0.76213 0.13221 0.0
H532 H 0.26174 0.76745 0.10375 0.0
H533 H 0.29203 0.75568 0.10425 0.0
H534 H 0.27841 0.71914 0.07856 0.0
H535 H 0.248 0.73088 0.07792 0.0
H536 H 0.25371 0.70079 0.08879 0.0
H537 H 0.22648 0.6982 0.17979 0.0
H538 H 0.1893 0.72279 0.17475 0.0
H539 H 0.21929 0.75442 0.10991 0.0
C540 C 0.30507 0.70914 0.12637 0.0
C541 C 0.31767 0.69524 0.14372 0.0
C542 C 0.30462 0.68453 0.16284 0.0
C543 C 0.27956 0.68854 0.16518 0.0
C544 C 0.26782 0.70301 0.14808 0.0
C545 C 0.28023 0.71288 0.12889 0.0
C546 C 0.26425 0.72936 0.11399 0.0
C547 C 0.27429 0.75517 0.11355 0.0
C548 C 0.26089 0.71944 0.08829 0.0
C549 C 0.24103 0.72798 0.12819 0.0
C550 C 0.2432 0.71251 0.14766 0.0
C551 C 0.2245 0.70997 0.16433 0.0
C552 C 0.20338 0.72397 0.16129 0.0
C553 C 0.20125 0.74043 0.14183 0.0
C554 C 0.22015 0.74184 0.12483 0.0
H555 H 0.32329 0.8155 0.36403 0.0
H556 H 0.30116 0.86706 0.41849 0.0
H557 H 0.25905 0.85292 0.41473 0.0
H558 H 0.26551 0.81522 0.32763 0.0
H559 H 0.26785 0.78322 0.3228 0.0
H560 H 0.29483 0.80109 0.32553 0.0
H561 H 0.30995 0.77352 0.36012 0.0
H562 H 0.28308 0.75568 0.35774 0.0
H563 H 0.29115 0.76909 0.38626 0.0
H564 H 0.22073 0.82908 0.40951 0.0
H565 H 0.19033 0.79696 0.40444 0.0
H566 H 0.23833 0.75976 0.35505 0.0
C567 C 0.30947 0.82448 0.37452 0.0
C568 C 0.31552 0.84257 0.39141 0.0
C569 C 0.29694 0.85333 0.40528 0.0
C570 C 0.27294 0.84543 0.40322 0.0
C571 C 0.2678 0.82675 0.3872 0.0
C572 C 0.28557 0.81651 0.37298 0.0
C573 C 0.27624 0.79456 0.35972 0.0
C574 C 0.2761 0.79879 0.33229 0.0
C575 C 0.29097 0.77189 0.36638 0.0
C576 C 0.25078 0.79341 0.36955 0.0
C577 C 0.246 0.81246 0.38487 0.0
C578 C 0.22415 0.81431 0.39725 0.0
C579 C 0.20698 0.79597 0.39427 0.0
C580 C 0.21198 0.77585 0.3794 0.0
C581 C 0.23395 0.77495 0.36651 0.0
H582 H 0.23863 0.80447 0.92711 0.0
H583 H 0.29051 0.86108 0.91301 0.0
H584 H 0.32169 0.8302 0.90447 0.0
H585 H 0.28082 0.76091 0.95454 0.0
H586 H 0.26622 0.7356 0.94042 0.0
H587 H 0.24891 0.76208 0.94799 0.0
H588 H 0.23443 0.76537 0.90356 0.0
H589 H 0.25189 0.73911 0.89577 0.0
H590 H 0.25647 0.76695 0.87974 0.0
H591 H 0.34611 0.79347 0.89471 0.0
H592 H 0.36274 0.75362 0.88489 0.0
H593 H 0.29452 0.72055 0.9042 0.0
C594 C 0.25669 0.81047 0.92277 0.0
C595 C 0.26219 0.83527 0.92094 0.0
C596 C 0.28593 0.84223 0.91471 0.0
C597 C 0.30372 0.82481 0.90981 0.0
C598 C 0.29745 0.80055 0.91116 0.0
C599 C 0.27454 0.79336 0.9176 0.0
C600 C 0.27201 0.76621 0.91625 0.0
C601 C 0.26668 0.75558 0.94129 0.0
C602 C 0.25255 0.759 0.89773 0.0
C603 C 0.29703 0.7592 0.90772 0.0
C604 C 0.31143 0.77931 0.90508 0.0
C605 C 0.33507 0.77761 0.89688 0.0
C606 C 0.34431 0.7548 0.89129 0.0
C607 C 0.32995 0.73384 0.89377 0.0
C608 C 0.30597 0.73616 0.90214 0.0
H609 H 0.21162 0.73246 0.6728 0.0
H610 H 0.21257 0.72444 0.59501 0.0
H611 H 0.21254 0.76854 0.59023 0.0
H612 H 0.17569 0.79148 0.67457 0.0
H613 H 0.19399 0.8026 0.6991 0.0
H614 H 0.18809 0.77082 0.69652 0.0
H615 H 0.23412 0.76211 0.69704 0.0
H616 H 0.24013 0.79374 0.69954 0.0
H617 H 0.2532 0.77664 0.67517 0.0
H618 H 0.2207 0.81219 0.59364 0.0
H619 H 0.23642 0.8521 0.60521 0.0
H620 H 0.22987 0.83272 0.68078 0.0
C621 C 0.21068 0.74011 0.65483 0.0
C622 C 0.21171 0.72518 0.63426 0.0
C623 C 0.21156 0.73567 0.61097 0.0
C624 C 0.21144 0.7607 0.60808 0.0
C625 C 0.21146 0.77507 0.62867 0.0
C626 C 0.21087 0.7652 0.65164 0.0
C627 C 0.21451 0.78447 0.67068 0.0
C628 C 0.19171 0.78752 0.68613 0.0
C629 C 0.23681 0.77891 0.68652 0.0
C630 C 0.21854 0.80634 0.65481 0.0
C631 C 0.21622 0.80063 0.63064 0.0
C632 C 0.22192 0.81709 0.61252 0.0
C633 C 0.23087 0.83973 0.61923 0.0
C634 C 0.23408 0.84569 0.64387 0.0
C635 C 0.22701 0.829 0.6618 0.0
H636 H 0.85136 0.79467 0.2152 0.0
H637 H 0.92377 0.79543 0.18624 0.0
H638 H 0.92732 0.75161 0.19292 0.0
H639 H 0.86418 0.76025 0.26224 0.0
H640 H 0.83666 0.7431 0.26345 0.0
H641 H 0.83652 0.7724 0.24983 0.0
H642 H 0.81946 0.75478 0.21008 0.0
H643 H 0.81905 0.7253 0.22371 0.0
H644 H 0.8348 0.72998 0.19568 0.0
H645 H 0.92692 0.71105 0.21159 0.0
H646 H 0.9217 0.67621 0.23879 0.0
H647 H 0.84937 0.70107 0.2559 0.0
C648 C 0.86725 0.78519 0.20882 0.0
C649 C 0.88694 0.79803 0.1993 0.0
C650 C 0.90822 0.78559 0.19269 0.0
C651 C 0.91041 0.76074 0.19656 0.0
C652 C 0.89115 0.74864 0.20717 0.0
C653 C 0.86977 0.76037 0.21287 0.0
C654 C 0.85341 0.74425 0.2276 0.0
C655 C 0.84737 0.75568 0.25222 0.0
C656 C 0.83031 0.73821 0.21341 0.0
C657 C 0.86947 0.72223 0.23047 0.0
C658 C 0.89099 0.72495 0.21821 0.0
C659 C 0.90985 0.70835 0.22064 0.0
C660 C 0.90679 0.68867 0.23622 0.0
C661 C 0.88501 0.68572 0.24916 0.0
C662 C 0.86596 0.70245 0.24571 0.0
H663 H 0.22135 0.33422 0.72653 0.0
H664 H 0.20043 0.409 0.73648 0.0
H665 H 0.23552 0.41507 0.76317 0.0
H666 H 0.2439 0.32317 0.78628 0.0
H667 H 0.26936 0.30525 0.77672 0.0
H668 H 0.24224 0.30618 0.7586 0.0
H669 H 0.2669 0.3201 0.72148 0.0
H670 H 0.29411 0.31872 0.73936 0.0
H671 H 0.28595 0.34621 0.72402 0.0
H672 H 0.27108 0.4127 0.7906 0.0
H673 H 0.3102 0.40468 0.81029 0.0
H674 H 0.31055 0.33238 0.78044 0.0
C675 C 0.22434 0.35192 0.73414 0.0
C676 C 0.2081 0.37111 0.72946 0.0
C677 C 0.21266 0.39404 0.73965 0.0
C678 C 0.23241 0.39763 0.75507 0.0
C679 C 0.24768 0.37822 0.75985 0.0
C680 C 0.24434 0.356 0.7492 0.0
C681 C 0.26442 0.33866 0.75629 0.0
C682 C 0.25437 0.31704 0.7703 0.0
C683 C 0.27869 0.33045 0.73396 0.0
C684 C 0.27952 0.35469 0.77254 0.0
C685 C 0.26915 0.37723 0.77475 0.0
C686 C 0.27952 0.39517 0.78887 0.0
C687 C 0.3017 0.39035 0.80016 0.0
C688 C 0.31356 0.36792 0.79685 0.0
C689 C 0.30193 0.34967 0.78336 0.0
H690 H 0.60492 0.82436 0.2731 0.0
H691 H 0.67759 0.84934 0.25888 0.0
H692 H 0.68585 0.8122 0.23564 0.0
H693 H 0.62031 0.76635 0.28539 0.0
H694 H 0.59397 0.75281 0.27193 0.0
H695 H 0.59239 0.78309 0.28315 0.0
H696 H 0.57779 0.79815 0.24124 0.0
H697 H 0.57918 0.76778 0.22988 0.0
H698 H 0.59545 0.79139 0.21478 0.0
H699 H 0.68783 0.76914 0.21909 0.0
H700 H 0.68323 0.72539 0.21151 0.0
H701 H 0.60936 0.72944 0.23702 0.0
C702 C 0.62233 0.82244 0.26444 0.0
C703 C 0.6405 0.83993 0.26766 0.0
C704 C 0.66321 0.83643 0.25637 0.0
C705 C 0.66809 0.81531 0.24317 0.0
C706 C 0.64999 0.79798 0.24114 0.0
C707 C 0.62745 0.80155 0.25128 0.0
C708 C 0.61186 0.77938 0.24886 0.0
C709 C 0.60421 0.76986 0.27381 0.0
C710 C 0.58977 0.78449 0.23272 0.0
C711 C 0.62939 0.76239 0.23663 0.0
C712 C 0.65119 0.77343 0.2319 0.0
C713 C 0.67066 0.7605 0.22232 0.0
C714 C 0.66789 0.73565 0.218 0.0
C715 C 0.64592 0.72397 0.22357 0.0
C716 C 0.62635 0.73781 0.23238 0.0
H717 H 0.31155 0.11295 0.76699 0.0
H718 H 0.35545 0.17228 0.7924 0.0
H719 H 0.32347 0.18323 0.8217 0.0
H720 H 0.25683 0.14318 0.76768 0.0
H721 H 0.23927 0.11772 0.77731 0.0
H722 H 0.26676 0.11301 0.76076 0.0
H723 H 0.2834 0.08584 0.79515 0.0
H724 H 0.25582 0.0903 0.81176 0.0
H725 H 0.28448 0.09726 0.8256 0.0
H726 H 0.28382 0.19005 0.84532 0.0
H727 H 0.24191 0.19082 0.86132 0.0
H728 H 0.22569 0.12663 0.81985 0.0
C729 C 0.31475 0.12795 0.77904 0.0
C730 C 0.33605 0.14171 0.77742 0.0
C731 C 0.33936 0.16133 0.79344 0.0
C732 C 0.32125 0.16773 0.8101 0.0
C733 C 0.30009 0.15416 0.81067 0.0
C734 C 0.297 0.13448 0.79569 0.0
C735 C 0.27225 0.12356 0.79858 0.0
C736 C 0.25795 0.12444 0.77467 0.0
C737 C 0.27411 0.09771 0.80836 0.0
C738 C 0.26157 0.14043 0.81711 0.0
C739 C 0.27779 0.15794 0.82409 0.0
C740 C 0.27114 0.17619 0.84018 0.0
C741 C 0.24731 0.17653 0.84917 0.0
C742 C 0.23049 0.15879 0.84192 0.0
C743 C 0.23803 0.14045 0.82592 0.0
H744 H 0.26565 0.91906 0.73826 0.0
H745 H 0.29258 0.84774 0.72049 0.0
H746 H 0.27421 0.83178 0.75783 0.0
H747 H 0.27468 0.91493 0.80281 0.0
H748 H 0.24755 0.93168 0.80954 0.0
H749 H 0.26349 0.9372 0.78183 0.0
H750 H 0.2242 0.92878 0.7577 0.0
H751 H 0.20826 0.92279 0.78534 0.0
H752 H 0.2089 0.9005 0.7617 0.0
H753 H 0.25205 0.82362 0.79704 0.0
H754 H 0.231 0.8245 0.83627 0.0
H755 H 0.21797 0.90114 0.82752 0.0
C756 C 0.26797 0.90012 0.74229 0.0
C757 C 0.28068 0.88468 0.72643 0.0
C758 C 0.28311 0.85998 0.73242 0.0
C759 C 0.27258 0.85072 0.75351 0.0
C760 C 0.25966 0.86637 0.76841 0.0
C761 C 0.25754 0.89059 0.76316 0.0
C762 C 0.2428 0.90367 0.7821 0.0
C763 C 0.25804 0.923 0.79482 0.0
C764 C 0.21967 0.91457 0.77104 0.0
C765 C 0.23699 0.88306 0.79894 0.0
C766 C 0.24677 0.86165 0.7907 0.0
C767 C 0.24429 0.84027 0.80361 0.0
C768 C 0.23217 0.84094 0.82584 0.0
C769 C 0.22266 0.86285 0.83499 0.0
C770 C 0.22471 0.88402 0.82098 0.0
H771 H 0.19696 0.71429 0.30056 0.0
H772 H 0.14141 0.73817 0.35003 0.0
H773 H 0.1351 0.77476 0.32548 0.0
H774 H 0.22013 0.77566 0.2841 0.0
H775 H 0.22477 0.76676 0.25315 0.0
H776 H 0.22809 0.74496 0.27709 0.0
H777 H 0.19671 0.7174 0.25611 0.0
H778 H 0.19344 0.73895 0.23214 0.0
H779 H 0.16724 0.72936 0.24874 0.0
H780 H 0.13031 0.80511 0.29201 0.0
H781 H 0.12642 0.82537 0.2525 0.0
H782 H 0.18541 0.78184 0.22482 0.0
C783 C 0.18387 0.72751 0.30658 0.0
C784 C 0.16992 0.72352 0.32752 0.0
C785 C 0.15273 0.74107 0.33452 0.0
C786 C 0.14901 0.76193 0.32058 0.0
C787 C 0.16278 0.76507 0.29976 0.0
C788 C 0.18001 0.74836 0.29289 0.0
C789 C 0.19059 0.75448 0.26847 0.0
C790 C 0.21749 0.76085 0.27085 0.0
C791 C 0.18675 0.73383 0.25031 0.0
C792 C 0.17563 0.77646 0.26196 0.0
C793 C 0.16006 0.78262 0.28046 0.0
C794 C 0.14277 0.80077 0.27763 0.0
C795 C 0.1407 0.81221 0.25508 0.0
C796 C 0.1557 0.80536 0.23554 0.0
C797 C 0.174 0.78792 0.23947 0.0
H798 H 0.33262 0.68464 0.80722 0.0
H799 H 0.37741 0.6232 0.78853 0.0
H800 H 0.35701 0.62071 0.74884 0.0
H801 H 0.27978 0.66186 0.78408 0.0
H802 H 0.26776 0.69001 0.77304 0.0
H803 H 0.2886 0.6898 0.79802 0.0
H804 H 0.317 0.71869 0.77502 0.0
H805 H 0.29606 0.71924 0.75 0.0
H806 H 0.32716 0.71082 0.74515 0.0
H807 H 0.32818 0.62185 0.71313 0.0
H808 H 0.29397 0.62694 0.68462 0.0
H809 H 0.26755 0.68698 0.72728 0.0
C810 C 0.33879 0.67122 0.79445 0.0
C811 C 0.35691 0.65432 0.80091 0.0
C812 C 0.3638 0.63652 0.78392 0.0
C813 C 0.35227 0.63494 0.76131 0.0
C814 C 0.33384 0.6513 0.75588 0.0
C815 C 0.32728 0.66924 0.77192 0.0
C816 C 0.30539 0.68308 0.76281 0.0
C817 C 0.28414 0.68105 0.78054 0.0
C818 C 0.31179 0.70953 0.75795 0.0
C819 C 0.30025 0.66975 0.73949 0.0
C820 C 0.31701 0.65167 0.73561 0.0
C821 C 0.31516 0.63619 0.71584 0.0
C822 C 0.29563 0.63918 0.69974 0.0
C823 C 0.27805 0.65739 0.7036 0.0
C824 C 0.28071 0.67297 0.72364 0.0
H825 H 0.35861 0.76035 0.33351 0.0
H826 H 0.43115 0.78957 0.3365 0.0
H827 H 0.4385 0.7752 0.29493 0.0
H828 H 0.37409 0.70667 0.29855 0.0
H829 H 0.34608 0.70747 0.28185 0.0
H830 H 0.34727 0.71914 0.31216 0.0
H831 H 0.33031 0.75991 0.29674 0.0
H832 H 0.32948 0.74853 0.26632 0.0
H833 H 0.34591 0.77565 0.27303 0.0
H834 H 0.43672 0.76006 0.25149 0.0
H835 H 0.4277 0.74084 0.21211 0.0
H836 H 0.35681 0.72095 0.23836 0.0
C837 C 0.37621 0.76339 0.32562 0.0
C838 C 0.3943 0.77609 0.33835 0.0
C839 C 0.41703 0.77975 0.32723 0.0
C840 C 0.42133 0.77181 0.30353 0.0
C841 C 0.40281 0.76003 0.29122 0.0
C842 C 0.38085 0.75546 0.30208 0.0
C843 C 0.36391 0.74244 0.28505 0.0
C844 C 0.35747 0.71745 0.295 0.0
C845 C 0.34105 0.75754 0.27999 0.0
C846 C 0.37966 0.74056 0.26282 0.0
C847 C 0.40197 0.75097 0.26661 0.0
C848 C 0.41936 0.75171 0.24842 0.0
C849 C 0.41402 0.74094 0.22603 0.0
C850 C 0.39157 0.72941 0.22216 0.0
C851 C 0.37416 0.72957 0.24077 0.0
H852 H 0.71479 0.29266 0.94406 0.0
H853 H 0.71164 0.30861 0.86739 0.0
H854 H 0.7559 0.30391 0.8648 0.0
H855 H 0.77077 0.32177 0.95739 0.0
H856 H 0.78155 0.29885 0.97786 0.0
H857 H 0.74956 0.30383 0.97412 0.0
H858 H 0.7436 0.25903 0.96271 0.0
H859 H 0.77548 0.25384 0.9669 0.0
H860 H 0.76126 0.24616 0.93862 0.0
H861 H 0.80075 0.30017 0.87096 0.0
H862 H 0.84223 0.28928 0.8834 0.0
H863 H 0.8164 0.2722 0.95525 0.0
C864 C 0.72342 0.29489 0.92669 0.0
C865 C 0.70974 0.30103 0.90593 0.0
C866 C 0.72168 0.30372 0.88351 0.0
C867 C 0.74687 0.30134 0.8819 0.0
C868 C 0.75989 0.29586 0.90278 0.0
C869 C 0.74856 0.292 0.92463 0.0
C870 C 0.76673 0.28486 0.94399 0.0
C871 C 0.76717 0.30344 0.96455 0.0
C872 C 0.76145 0.25946 0.95361 0.0
C873 C 0.79002 0.2854 0.9296 0.0
C874 C 0.78569 0.29234 0.90602 0.0
C875 C 0.80435 0.29454 0.88934 0.0
C876 C 0.82793 0.28855 0.89666 0.0
C877 C 0.83261 0.27996 0.92032 0.0
C878 C 0.8134 0.27883 0.93709 0.0
H879 H 0.81893 0.26539 0.68072 0.0
H880 H 0.8376 0.24443 0.60771 0.0
H881 H 0.80066 0.21941 0.60567 0.0
H882 H 0.78854 0.20786 0.69915 0.0
H883 H 0.76612 0.22433 0.71604 0.0
H884 H 0.79637 0.23592 0.71344 0.0
H885 H 0.77916 0.27596 0.69638 0.0
H886 H 0.74901 0.26453 0.69881 0.0
H887 H 0.75981 0.27528 0.67012 0.0
H888 H 0.75827 0.2026 0.60943 0.0
H889 H 0.71494 0.19662 0.61792 0.0
H890 H 0.72442 0.2294 0.68838 0.0
C891 C 0.81569 0.25499 0.6645 0.0
C892 C 0.83116 0.2568 0.64437 0.0
C893 C 0.82613 0.24309 0.62343 0.0
C894 C 0.80518 0.22884 0.62216 0.0
C895 C 0.78975 0.22829 0.64208 0.0
C896 C 0.79498 0.24086 0.66296 0.0
C897 C 0.77433 0.23995 0.68076 0.0
C898 C 0.78179 0.22619 0.7037 0.0
C899 C 0.76504 0.26543 0.68684 0.0
C900 C 0.75603 0.22595 0.6662 0.0
C901 C 0.76537 0.21886 0.64416 0.0
C902 C 0.75097 0.20765 0.62682 0.0
C903 C 0.72634 0.20432 0.63183 0.0
C904 C 0.71624 0.21251 0.65387 0.0
C905 C 0.73159 0.22267 0.6715 0.0
H906 H 0.74506 0.31301 0.08325 0.0
H907 H 0.73603 0.32233 0.16047 0.0
H908 H 0.74406 0.27901 0.1667 0.0
H909 H 0.71873 0.2549 0.07773 0.0
H910 H 0.74045 0.2436 0.05633 0.0
H911 H 0.73384 0.27535 0.05761 0.0
H912 H 0.77917 0.28467 0.06437 0.0
H913 H 0.78597 0.25299 0.06264 0.0
H914 H 0.79525 0.27006 0.08872 0.0
H915 H 0.7499 0.23401 0.16424 0.0
H916 H 0.76135 0.19219 0.1544 0.0
H917 H 0.77057 0.21241 0.0793 0.0
C918 C 0.74506 0.30594 0.10148 0.0
C919 C 0.73988 0.32106 0.12138 0.0
C920 C 0.74015 0.31117 0.14497 0.0
C921 C 0.74444 0.28652 0.14867 0.0
C922 C 0.74893 0.272 0.12865 0.0
C923 C 0.74997 0.28144 0.10558 0.0
C924 C 0.75649 0.26207 0.08736 0.0
C925 C 0.73616 0.2588 0.06865 0.0
C926 C 0.78066 0.26779 0.07505 0.0
C927 C 0.75869 0.24026 0.10375 0.0
C928 C 0.75377 0.24631 0.12743 0.0
C929 C 0.75404 0.22913 0.14579 0.0
C930 C 0.76037 0.20533 0.13997 0.0
C931 C 0.76694 0.19897 0.11608 0.0
C932 C 0.76563 0.21668 0.09772 0.0
H933 H 0.81771 0.32244 0.36755 0.0
H934 H 0.85039 0.31383 0.43836 0.0
H935 H 0.84004 0.27063 0.4378 0.0
H936 H 0.76825 0.29039 0.3793 0.0
H937 H 0.76486 0.27685 0.34991 0.0
H938 H 0.78018 0.30507 0.3529 0.0
H939 H 0.81803 0.28725 0.33203 0.0
H940 H 0.8027 0.25889 0.32865 0.0
H941 H 0.83165 0.26004 0.34363 0.0
H942 H 0.81957 0.23021 0.43262 0.0
H943 H 0.79079 0.19733 0.42339 0.0
H944 H 0.77084 0.23347 0.3568 0.0
C945 C 0.82363 0.31132 0.38253 0.0
C946 C 0.83501 0.32153 0.40293 0.0
C947 C 0.84182 0.30639 0.42243 0.0
C948 C 0.83604 0.28179 0.42226 0.0
C949 C 0.82361 0.27256 0.40238 0.0
C950 C 0.81773 0.28689 0.38274 0.0
C951 C 0.80143 0.27382 0.36518 0.0
C952 C 0.77727 0.28733 0.36165 0.0
C953 C 0.81423 0.26975 0.34094 0.0
C954 C 0.79803 0.25037 0.37856 0.0
C955 C 0.81138 0.24962 0.39968 0.0
C956 C 0.80943 0.23041 0.41587 0.0
C957 C 0.79307 0.21182 0.41052 0.0
C958 C 0.77861 0.21291 0.38943 0.0
C959 C 0.7817 0.23212 0.37306 0.0
H960 H 0.19371 0.55561 0.63412 0.0
H961 H 0.16847 0.59595 0.69621 0.0
H962 H 0.14877 0.55911 0.71192 0.0
H963 H 0.14073 0.51783 0.62699 0.0
H964 H 0.15845 0.49201 0.61818 0.0
H965 H 0.16906 0.52189 0.6116 0.0
H966 H 0.20919 0.51254 0.63412 0.0
H967 H 0.19871 0.48269 0.64079 0.0
H968 H 0.20827 0.5022 0.66496 0.0
H969 H 0.13382 0.51592 0.72176 0.0
H970 H 0.12524 0.47212 0.72415 0.0
H971 H 0.16038 0.46187 0.65501 0.0
C972 C 0.18387 0.55689 0.65093 0.0
C973 C 0.18267 0.57876 0.66391 0.0
C974 C 0.16958 0.57946 0.68586 0.0
C975 C 0.15835 0.55859 0.69493 0.0
C976 C 0.16022 0.53721 0.68175 0.0
C977 C 0.17258 0.5364 0.66012 0.0
C978 C 0.17278 0.51131 0.64956 0.0
C979 C 0.15946 0.51074 0.62514 0.0
C980 C 0.19877 0.50162 0.64724 0.0
C981 C 0.15891 0.49789 0.66874 0.0
C982 C 0.15166 0.51298 0.6872 0.0
C983 C 0.13928 0.50406 0.70725 0.0
C984 C 0.13444 0.47916 0.70846 0.0
C985 C 0.14203 0.46347 0.68976 0.0
C986 C 0.15416 0.47324 0.66962 0.0
H987 H 0.48121 0.6902 0.19735 0.0
H988 H 0.45132 0.62334 0.17039 0.0
H989 H 0.4891 0.60206 0.18225 0.0
H990 H 0.53987 0.68164 0.17663 0.0
H991 H 0.55431 0.69524 0.20244 0.0
H992 H 0.52422 0.70431 0.19393 0.0
H993 H 0.50894 0.69391 0.23685 0.0
H994 H 0.53906 0.68481 0.2455 0.0
H995 H 0.51425 0.66422 0.24895 0.0
H996 H 0.53227 0.58934 0.19335 0.0
H997 H 0.57575 0.5861 0.20351 0.0
H998 H 0.57609 0.6614 0.22421 0.0
C999 C 0.48239 0.671 0.19419 0.0
C1000 C 0.4633 0.65841 0.18288 0.0
C1001 C 0.46566 0.63331 0.17913 0.0
C1002 C 0.48706 0.62111 0.1858 0.0
C1003 C 0.50573 0.63425 0.1965 0.0
C1004 C 0.50341 0.65862 0.20088 0.0
C1005 C 0.52632 0.669 0.21158 0.0
C1006 C 0.53679 0.6887 0.19516 0.0
C1007 C 0.52187 0.67854 0.23725 0.0
C1008 C 0.54227 0.64682 0.21196 0.0
C1009 C 0.53011 0.62689 0.20332 0.0
C1010 C 0.54179 0.60476 0.20049 0.0
C1011 C 0.56652 0.6031 0.2063 0.0
C1012 C 0.57933 0.62342 0.2149 0.0
C1013 C 0.56679 0.64539 0.21813 0.0
H1014 H 0.3601 0.95862 0.68 0.0
H1015 H 0.29406 0.97717 0.64168 0.0
H1016 H 0.30344 0.02049 0.64678 0.0
H1017 H 0.35656 1.00495 0.72381 0.0
H1018 H 0.38872 1.00986 0.72477 0.0
H1019 H 0.37714 0.98067 0.71694 0.0
H1020 H 0.40123 0.98163 0.6769 0.0
H1021 H 0.41285 1.01087 0.68459 0.0
H1022 H 0.39709 1.00653 0.65639 0.0
H1023 H 0.3202 0.06234 0.65745 0.0
H1024 H 0.34178 0.09796 0.67348 0.0
H1025 H 0.39627 0.05085 0.70476 0.0
C1026 C 0.34762 0.97171 0.67248 0.0
C1027 C 0.32635 0.96443 0.66035 0.0
C1028 C 0.31049 0.98228 0.651 0.0
C1029 C 0.3157 1.00693 0.65378 0.0
C1030 C 0.33684 1.01343 0.66596 0.0
C1031 C 0.35249 0.99624 0.67516 0.0
C1032 C 0.37361 1.00764 0.6882 0.0
C1033 C 0.37402 1.00035 0.71501 0.0
C1034 C 0.39761 1.00129 0.67577 0.0
C1035 C 0.36741 0.034 0.68513 0.0
C1036 C 0.34624 0.03711 0.67215 0.0
C1037 C 0.33684 0.06004 0.66754 0.0
C1038 C 0.34925 0.08019 0.67667 0.0
C1039 C 0.37077 0.07728 0.69036 0.0
C1040 C 0.37993 0.05381 0.69434 0.0
H1041 H 0.054 0.82624 0.13349 0.0
H1042 H 0.07416 0.79724 0.20353 0.0
H1043 H 0.03605 0.81311 0.22071 0.0
H1044 H 0.02757 0.88048 0.15441 0.0
H1045 H 1.00351 0.88075 0.13237 0.0
H1046 H 0.03187 0.86637 0.12543 0.0
H1047 H 1.00975 0.82647 0.11582 0.0
H1048 H 0.98128 0.84085 0.12232 0.0
H1049 H 0.98982 0.81366 0.138 0.0
H1050 H 0.99625 0.83433 0.23054 0.0
H1051 H 0.95641 0.85479 0.23107 0.0
H1052 H 0.96263 0.86907 0.15433 0.0
C1053 C 0.05032 0.82294 0.15239 0.0
C1054 C 0.06709 0.81046 0.16715 0.0
C1055 C 0.06152 0.80658 0.19181 0.0
C1056 C 0.03999 0.81569 0.20176 0.0
C1057 C 0.02415 0.82848 0.1868 0.0
C1058 C 0.02892 0.83176 0.16255 0.0
C1059 C 1.00897 0.84595 0.15021 0.0
C1060 C 1.01856 0.8698 0.14001 0.0
C1061 C 0.99673 0.83082 0.13043 0.0
C1062 C 0.99221 0.85027 0.1713 0.0
C1063 C 1.00132 0.84027 0.19232 0.0
C1064 C 0.98894 0.84214 0.21415 0.0
C1065 C 0.9664 0.85397 0.21432 0.0
C1066 C 0.9564 0.8636 0.19276 0.0
C1067 C 0.96976 0.86196 0.17113 0.0
H1068 H 0.17935 0.97187 0.85593 0.0
H1069 H 0.20833 0.97551 0.92877 0.0
H1070 H 0.19804 0.0189 0.93034 0.0
H1071 H 0.20079 0.03019 0.83664 0.0
H1072 H 0.17443 0.03627 0.81837 0.0
H1073 H 0.18428 1.0057 0.82317 0.0
H1074 H 0.14186 0.995 0.8395 0.0
H1075 H 0.13196 0.02561 0.83503 0.0
H1076 H 0.12954 1.01189 0.86441 0.0
H1077 H 0.18324 0.0617 0.92425 0.0
H1078 H 0.16851 0.1012 0.90999 0.0
H1079 H 0.14994 0.06961 0.84069 0.0
C1080 C 0.18365 0.98178 0.87222 0.0
C1081 C 0.1946 0.97024 0.89229 0.0
C1082 C 0.20004 0.98394 0.91316 0.0
C1083 C 0.19414 1.00857 0.91424 0.0
C1084 C 0.18299 0.01926 0.89425 0.0
C1085 C 0.17808 1.00634 0.87353 0.0
C1086 C 0.16639 0.02212 0.85437 0.0
C1087 C 0.18244 0.02366 0.83181 0.0
C1088 C 0.14093 1.01311 0.84796 0.0
C1089 C 0.16534 0.04597 0.86758 0.0
C1090 C 0.17487 0.0439 0.8906 0.0
C1091 C 0.17583 0.06352 0.90623 0.0
C1092 C 0.1673 0.0859 0.89795 0.0
C1093 C 0.15801 0.08862 0.87418 0.0
C1094 C 0.15681 0.06821 0.85897 0.0
H1095 H 0.97206 0.6532 0.35337 0.0
H1096 H 0.94727 0.72608 0.33922 0.0
H1097 H 0.9867 0.74175 0.35295 0.0
H1098 H 1.0093 0.66696 0.40691 0.0
H1099 H 0.03242 0.6456 0.39857 0.0
H1100 H 1.00144 0.64039 0.38999 0.0
H1101 H 1.01435 0.63684 0.3452 0.0
H1102 H 0.0453 0.64218 0.35361 0.0
H1103 H 0.03079 0.66114 0.33141 0.0
H1104 H 0.03008 0.7493 0.36556 0.0
H1105 H 0.07359 0.74796 0.37592 0.0
H1106 H 0.07006 0.67011 0.38115 0.0
C1107 C 0.9747 0.67249 0.35365 0.0
C1108 C 0.95644 0.68841 0.34537 0.0
C1109 C 0.9609 0.71351 0.34557 0.0
C1110 C 0.98326 0.7226 0.35336 0.0
C1111 C 1.00105 0.70638 0.36091 0.0
C1112 C 0.99698 0.68185 0.3612 0.0
C1113 C 0.01955 0.66816 0.36871 0.0
C1114 C 1.01543 0.65447 0.39246 0.0
C1115 C 0.02799 0.65108 0.34853 0.0
C1116 C 0.03706 0.68877 0.37223 0.0
C1117 C 0.02602 0.7107 0.36785 0.0
C1118 C 0.03884 0.73223 0.36923 0.0
C1119 C 0.06357 0.73129 0.37511 0.0
C1120 C 0.07531 0.70896 0.37942 0.0
C1121 C 0.06168 0.68751 0.37809 0.0
H1122 H 0.38221 0.56799 0.89832 0.0
H1123 H 0.32916 0.59172 0.84546 0.0
H1124 H 0.3313 0.55187 0.82561 0.0
H1125 H 0.41897 0.53488 0.85906 0.0
H1126 H 0.42547 0.51086 0.88002 0.0
H1127 H 0.41855 0.54054 0.89111 0.0
H1128 H 0.38365 0.52348 0.91692 0.0
H1129 H 0.39075 0.49365 0.90627 0.0
H1130 H 0.36059 0.50555 0.90266 0.0
H1131 H 0.34249 0.51049 0.80924 0.0
H1132 H 0.35752 0.4693 0.80097 0.0
H1133 H 0.40198 0.47237 0.86559 0.0
C1134 C 0.37067 0.56466 0.88286 0.0
C1135 C 0.35544 0.58295 0.8735 0.0
C1136 C 0.34073 0.5779 0.85315 0.0
C1137 C 0.34198 0.55537 0.84163 0.0
C1138 C 0.35778 0.53799 0.85089 0.0
C1139 C 0.37147 0.54222 0.87136 0.0
C1140 C 0.38715 0.52066 0.87764 0.0
C1141 C 0.41413 0.52713 0.87691 0.0
C1142 C 0.3801 0.51022 0.90234 0.0
C1143 C 0.38047 0.50372 0.85728 0.0
C1144 C 0.36365 0.51408 0.84191 0.0
C1145 C 0.35545 0.50213 0.82133 0.0
C1146 C 0.36424 0.4788 0.81667 0.0
C1147 C 0.38089 0.46757 0.83265 0.0
C1148 C 0.38917 0.48039 0.85309 0.0
H1149 H 0.4903 0.83017 0.38988 0.0
H1150 H 0.44719 0.89456 0.37771 0.0
H1151 H 0.48412 0.91649 0.3658 0.0
H1152 H 0.54369 0.85973 0.4138 0.0
H1153 H 0.56424 0.83928 0.39903 0.0
H1154 H 0.53467 0.82917 0.40781 0.0
H1155 H 0.52594 0.81597 0.36377 0.0
H1156 H 0.55545 0.82601 0.35486 0.0
H1157 H 0.52896 0.83753 0.33965 0.0
H1158 H 0.52564 0.93077 0.35371 0.0
H1159 H 0.56807 0.93628 0.34158 0.0
H1160 H 0.58391 0.86225 0.36143 0.0
C1161 C 0.48857 0.84897 0.38496 0.0
C1162 C 0.4658 0.86069 0.38484 0.0
C1163 C 0.46441 0.88522 0.378 0.0
C1164 C 0.4853 0.89781 0.37126 0.0
C1165 C 0.50742 0.88561 0.37144 0.0
C1166 C 0.50916 0.86172 0.37811 0.0
C1167 C 0.53486 0.85244 0.37587 0.0
C1168 C 0.54496 0.84471 0.4006 0.0
C1169 C 0.53638 0.83177 0.35744 0.0
C1170 C 0.54737 0.87479 0.36667 0.0
C1171 C 0.53124 0.89376 0.36437 0.0
C1172 C 0.53842 0.91607 0.35557 0.0
C1173 C 0.5626 0.919 0.3487 0.0
C1174 C 0.57941 0.89972 0.35059 0.0
C1175 C 0.57162 0.87741 0.35995 0.0
H1176 H 0.64569 0.16561 0.5605 0.0
H1177 H 0.63656 0.24286 0.55305 0.0
H1178 H 0.64525 0.23943 0.50928 0.0
H1179 H 0.69549 0.16059 0.52299 0.0
H1180 H 0.68718 0.13178 0.51063 0.0
H1181 H 0.67724 0.14016 0.54034 0.0
H1182 H 0.63274 0.13291 0.52761 0.0
H1183 H 0.64256 0.12447 0.49779 0.0
H1184 H 0.62061 0.14824 0.50151 0.0
H1185 H 0.65863 0.22739 0.46659 0.0
H1186 H 0.67642 0.20839 0.43024 0.0
H1187 H 0.67692 0.13941 0.46695 0.0
C1188 C 0.64501 0.18183 0.54967 0.0
C1189 C 0.64029 0.20451 0.56023 0.0
C1190 C 0.63998 0.22526 0.54535 0.0
C1191 C 0.64486 0.22347 0.52046 0.0
C1192 C 0.64993 0.2008 0.51075 0.0
C1193 C 0.64994 0.18037 0.52499 0.0
C1194 C 0.65774 0.15836 0.51091 0.0
C1195 C 0.68078 0.14708 0.52187 0.0
C1196 C 0.63718 0.13991 0.50936 0.0
C1197 C 0.66265 0.16958 0.48657 0.0
C1198 C 0.65779 0.19401 0.48662 0.0
C1199 C 0.66221 0.20823 0.46633 0.0
C1200 C 0.67227 0.19727 0.44573 0.0
C1201 C 0.67802 0.17238 0.44569 0.0
C1202 C 0.67262 0.15843 0.46628 0.0
H1203 H 0.85972 0.16565 0.07688 0.0
H1204 H 0.82976 0.10277 0.04145 0.0
H1205 H 0.84651 0.11646 1.00262 0.0
H1206 H 0.84612 0.20631 0.03127 0.0
H1207 H 0.87323 0.22388 0.03443 0.0
H1208 H 0.86157 0.20771 0.05995 0.0
H1209 H 0.90264 0.18564 0.06521 0.0
H1210 H 0.91452 0.2019 0.03977 0.0
H1211 H 0.91543 0.16947 0.04007 0.0
H1212 H 0.86234 0.13942 0.96685 0.0
H1213 H 0.87776 0.16907 0.93739 0.0
H1214 H 0.89796 0.2163 0.99643 0.0
C1215 C 0.85719 0.15444 0.06109 0.0
C1216 C 0.84348 0.1331 0.06224 0.0
C1217 C 0.84025 0.11916 0.04105 0.0
C1218 C 0.84971 0.12677 1.01889 0.0
C1219 C 0.86254 0.14826 1.01824 0.0
C1220 C 0.86652 0.16176 0.03884 0.0
C1221 C 0.87954 0.18492 0.03303 0.0
C1222 C 0.86419 0.207 0.04008 0.0
C1223 C 0.90452 0.1855 0.04524 0.0
C1224 C 0.88172 0.18261 1.0059 0.0
C1225 C 0.87192 0.1613 0.99768 0.0
C1226 C 0.87045 0.15598 0.9731 0.0
C1227 C 0.87916 0.17294 0.9565 0.0
C1228 C 0.88923 0.19488 0.96461 0.0
C1229 C 0.89072 0.19953 0.98965 0.0
H1230 H 0.8763 0.36268 0.57128 0.0
H1231 H 0.8028 0.3466 0.59278 0.0
H1232 H 0.78745 0.36683 0.55605 0.0
H1233 H 0.86323 0.42181 0.54225 0.0
H1234 H 0.88474 0.41631 0.51851 0.0
H1235 H 0.88969 0.40363 0.54809 0.0
H1236 H 0.89295 0.36106 0.52924 0.0
H1237 H 0.88796 0.37356 0.49969 0.0
H1238 H 0.86856 0.35005 0.51067 0.0
H1239 H 0.78041 0.38423 0.51454 0.0
H1240 H 0.78239 0.39761 0.472 0.0
H1241 H 0.86041 0.4027 0.47795 0.0
C1242 C 0.85694 0.36396 0.56863 0.0
C1243 C 0.84076 0.35314 0.58503 0.0
C1244 C 0.81557 0.35483 0.58057 0.0
C1245 C 0.80666 0.36634 0.55975 0.0
C1246 C 0.82314 0.37623 0.54362 0.0
C1247 C 0.84775 0.37531 0.54792 0.0
C1248 C 0.86175 0.38549 0.52684 0.0
C1249 C 0.87567 0.40816 0.53438 0.0
C1250 C 0.8788 0.3664 0.51598 0.0
C1251 C 0.84123 0.39162 0.5097 0.0
C1252 C 0.81907 0.38638 0.51977 0.0
C1253 C 0.79764 0.38881 0.50663 0.0
C1254 C 0.79893 0.3964 0.48246 0.0
C1255 C 0.82151 0.40144 0.47166 0.0
C1256 C 0.84281 0.39946 0.48574 0.0
H1257 H 0.67039 0.37504 0.95023 0.0
H1258 H 0.59566 0.35943 0.96713 0.0
H1259 H 0.60215 0.37328 1.00892 0.0
H1260 H 0.69427 0.35293 1.00332 0.0
H1261 H 0.71762 0.37515 1.00687 0.0
H1262 H 0.70635 0.36803 0.97724 0.0
H1263 H 0.69569 0.41291 0.96989 0.0
H1264 H 0.70721 0.42025 0.99946 0.0
H1265 H 0.67679 0.42865 0.99118 0.0
H1266 H 0.61798 0.38312 0.05009 0.0
H1267 H 0.6418 0.39034 0.08727 0.0
H1268 H 0.70617 0.39992 0.04387 0.0
C1269 C 0.65521 0.37544 0.9625 0.0
C1270 C 0.63245 0.36643 0.95539 0.0
C1271 C 0.61321 0.36641 0.97218 0.0
C1272 C 0.61671 0.37426 0.99597 0.0
C1273 C 0.63957 0.38216 1.00274 0.0
C1274 C 0.65846 0.38308 0.98646 0.0
C1275 C 0.68176 0.39023 0.99896 0.0
C1276 C 0.70113 0.3704 0.99644 0.0
C1277 C 0.6909 0.41445 0.9893 0.0
C1278 C 0.67313 0.39249 0.02482 0.0
C1279 C 0.64871 0.38792 0.02661 0.0
C1280 C 0.63704 0.38719 0.04889 0.0
C1281 C 0.65071 0.39121 0.06992 0.0
C1282 C 0.67577 0.39592 0.06849 0.0
C1283 C 0.68696 0.39679 0.04557 0.0
H1284 H 0.85132 0.55705 0.31287 0.0
H1285 H 0.92915 0.56144 0.32144 0.0
H1286 H 0.92988 0.51981 0.33739 0.0
H1287 H 0.8404 0.52705 0.36689 0.0
H1288 H 0.81625 0.50868 0.35528 0.0
H1289 H 0.82224 0.53753 0.34188 0.0
H1290 H 0.82718 0.5175 0.29994 0.0
H1291 H 0.82097 0.48855 0.31315 0.0
H1292 H 0.8484 0.49304 0.29633 0.0
H1293 H 0.92139 0.47835 0.35517 0.0
H1294 H 0.90454 0.44121 0.37303 0.0
H1295 H 0.83228 0.46529 0.35369 0.0
C1296 C 0.86863 0.54914 0.31757 0.0
C1297 C 0.89022 0.56249 0.31571 0.0
C1298 C 0.91239 0.55152 0.32254 0.0
C1299 C 0.91298 0.52789 0.33164 0.0
C1300 C 0.89124 0.51547 0.33381 0.0
C1301 C 0.8695 0.52574 0.32684 0.0
C1302 C 0.84847 0.50937 0.3324 0.0
C1303 C 0.83081 0.52138 0.35017 0.0
C1304 C 0.8355 0.50166 0.30907 0.0
C1305 C 0.86167 0.48841 0.34399 0.0
C1306 C 0.88634 0.49208 0.34443 0.0
C1307 C 0.90211 0.47527 0.35476 0.0
C1308 C 0.89237 0.45423 0.36489 0.0
C1309 C 0.86709 0.45031 0.36484 0.0
C1310 C 0.85168 0.46769 0.35411 0.0
H1311 H 0.45519 0.3835 0.85264 0.0
H1312 H 0.43286 0.30925 0.84393 0.0
H1313 H 0.47291 0.29555 0.85856 0.0
H1314 H 0.51338 0.37565 0.83059 0.0
H1315 H 0.52739 0.3966 0.85109 0.0
H1316 H 0.49614 0.40036 0.84287 0.0
H1317 H 0.48408 0.39963 0.88805 0.0
H1318 H 0.51538 0.39598 0.89644 0.0
H1319 H 0.49329 0.3746 0.90671 0.0
H1320 H 0.51725 0.29016 0.87093 0.0
H1321 H 0.56115 0.29395 0.87939 0.0
H1322 H 0.55351 0.3717 0.87935 0.0
C1323 C 0.45846 0.36434 0.85431 0.0
C1324 C 0.44075 0.34748 0.84728 0.0
C1325 C 0.44604 0.32256 0.84937 0.0
C1326 C 0.46876 0.31458 0.85767 0.0
C1327 C 0.48601 0.33173 0.86392 0.0
C1328 C 0.481 0.35611 0.86243 0.0
C1329 C 0.50301 0.37097 0.86851 0.0
C1330 C 0.51041 0.38682 0.84698 0.0
C1331 C 0.49868 0.38619 0.89129 0.0
C1332 C 0.52135 0.35122 0.87318 0.0
C1333 C 0.51127 0.32867 0.87071 0.0
C1334 C 0.52523 0.30776 0.87317 0.0
C1335 C 0.55014 0.31006 0.878 0.0
C1336 C 0.56079 0.33309 0.88009 0.0
C1337 C 0.54599 0.3538 0.87796 0.0
H1338 H 0.68561 0.07882 0.33914 0.0
H1339 H 0.72943 0.07492 0.40426 0.0
H1340 H 0.72499 0.03068 0.40452 0.0
H1341 H 0.64387 0.03269 0.35486 0.0
H1342 H 0.64138 0.02086 0.32465 0.0
H1343 H 0.64842 0.05214 0.32923 0.0
H1344 H 0.68709 0.04721 0.30346 0.0
H1345 H 0.68017 1.0159 0.29878 0.0
H1346 H 0.70896 0.02437 0.31142 0.0
H1347 H 0.71453 0.98734 0.39867 0.0
H1348 H 0.69983 0.94738 0.3867 0.0
H1349 H 0.66349 0.97887 0.32455 0.0
C1350 C 0.69435 0.06869 0.35345 0.0
C1351 C 0.70786 0.08038 0.37175 0.0
C1352 C 0.71904 0.0664 0.39006 0.0
C1353 C 0.7166 0.04126 0.39035 0.0
C1354 C 0.70307 0.03037 0.37212 0.0
C1355 C 0.69223 0.04359 0.35392 0.0
C1356 C 0.67857 0.02743 0.33655 0.0
C1357 C 0.65145 0.03366 0.33632 0.0
C1358 C 0.68935 0.02881 0.31104 0.0
C1359 C 0.68321 1.00302 0.34795 0.0
C1360 C 0.69737 1.00521 0.36847 0.0
C1361 C 0.70356 0.9854 0.38257 0.0
C1362 C 0.69503 0.96275 0.37561 0.0
C1363 C 0.68053 0.95993 0.35464 0.0
C1364 C 0.6747 0.9804 0.34054 0.0
H1365 H 0.06711 0.18509 0.87183 0.0
H1366 H 0.11248 0.2183 0.92635 0.0
H1367 H 0.077 0.24184 0.94081 0.0
H1368 H 0.03199 0.23774 0.85761 0.0
H1369 H 1.00468 0.22085 0.85272 0.0
H1370 H 0.03364 0.20707 0.84712 0.0
H1371 H 0.02312 0.17228 0.87641 0.0
H1372 H 0.99411 0.18587 0.88202 0.0
H1373 H 1.01415 0.1792 0.9069 0.0
H1374 H 0.03479 0.26057 0.94989 0.0
H1375 H 0.99163 0.27273 0.95201 0.0
H1376 H 0.97614 0.22759 0.88999 0.0
C1377 C 0.06974 0.19722 0.88691 0.0
C1378 C 0.09258 0.19967 0.89812 0.0
C1379 C 0.09513 0.21606 0.91754 0.0
C1380 C 0.07508 0.2295 0.92583 0.0
C1381 C 0.05276 0.22652 0.91428 0.0
C1382 C 0.05019 0.21083 0.8951 0.0
C1383 C 0.02461 0.21067 0.88546 0.0
C1384 C 0.02369 0.21962 0.85918 0.0
C1385 C 1.01334 0.18552 0.88786 0.0
C1386 C 1.01287 0.22849 0.90238 0.0
C1387 C 0.02923 0.23753 0.91894 0.0
C1388 C 0.02196 0.2537 0.93685 0.0
C1389 C 0.9974 0.26052 0.93791 0.0
C1390 C 0.98042 0.25126 0.9211 0.0
C1391 C 0.98855 0.23525 0.90302 0.0
H1392 H 0.85616 0.05023 0.1482 0.0
H1393 H 0.77834 0.05188 0.1383 0.0
H1394 H 0.77684 1.0081 0.14663 0.0
H1395 H 0.86671 0.99149 0.12107 0.0
H1396 H 0.89011 0.98356 0.14241 0.0
H1397 H 0.88504 1.01465 0.13454 0.0
H1398 H 0.87941 0.02521 0.17974 0.0
H1399 H 0.88446 0.99419 0.18774 0.0
H1400 H 0.85718 1.00928 0.19718 0.0
H1401 H 0.78387 0.9643 0.15824 0.0
H1402 H 0.79858 0.92452 0.17192 0.0
H1403 H 0.87196 0.95165 0.17367 0.0
C1404 C 0.83877 0.04143 0.14755 0.0
C1405 C 0.81733 0.05459 0.14253 0.0
C1406 C 0.795 0.04224 0.14202 0.0
C1407 C 0.79399 1.01736 0.14673 0.0
C1408 C 0.81548 1.00502 0.1518 0.0
C1409 C 0.83745 1.01667 0.15215 0.0
C1410 C 0.85786 0.99954 0.15879 0.0
C1411 C 0.876 0.99717 0.13796 0.0
C1412 C 0.87046 1.00754 0.18225 0.0
C1413 C 0.84396 0.97641 0.16242 0.0
C1414 C 0.81954 0.97991 0.15825 0.0
C1415 C 0.80298 0.96136 0.16136 0.0
C1416 C 0.81153 0.93879 0.16916 0.0
C1417 C 0.83647 0.93481 0.17376 0.0
C1418 C 0.85284 0.95392 0.17004 0.0
H1419 H 0.05289 0.40448 0.65313 0.0
H1420 H 0.09433 0.33805 0.65325 0.0
H1421 H 0.05911 0.31652 0.63623 0.0
H1422 H 1.00055 0.38074 0.67381 0.0
H1423 H 0.98045 0.3992 0.65594 0.0
H1424 H 1.01002 0.41002 0.66363 0.0
H1425 H 0.01964 0.41648 0.61833 0.0
H1426 H 0.9899 0.40589 0.61045 0.0
H1427 H 1.01624 0.39183 0.59745 0.0
H1428 H 1.01689 0.30123 0.62567 0.0
H1429 H 0.97288 0.29436 0.62094 0.0
H1430 H 0.96016 0.37119 0.62732 0.0
C1431 C 0.05486 0.38556 0.64885 0.0
C1432 C 0.0764 0.37299 0.65441 0.0
C1433 C 0.07811 0.34814 0.64886 0.0
C1434 C 0.05815 0.33574 0.63925 0.0
C1435 C 0.03677 0.34853 0.63496 0.0
C1436 C 0.03522 0.37302 0.63924 0.0
C1437 C 1.00979 0.38235 0.63532 0.0
C1438 C 0.99962 0.39373 0.65856 0.0
C1439 C 1.00885 0.40019 0.61412 0.0
C1440 C 0.99698 0.35918 0.62913 0.0
C1441 C 1.01277 0.33984 0.62872 0.0
C1442 C 1.00448 0.31635 0.62543 0.0
C1443 C 0.97945 0.31259 0.62279 0.0
C1444 C 0.96304 0.33222 0.6236 0.0
C1445 C 0.97216 0.35578 0.6263 0.0
H1446 H 0.67161 0.47917 0.15123 0.0
H1447 H 0.74937 0.47028 0.14623 0.0
H1448 H 0.75453 0.51345 0.15648 0.0
H1449 H 0.66803 0.53999 0.12663 0.0
H1450 H 0.64427 0.54876 0.14703 0.0
H1451 H 0.64698 0.51787 0.1375 0.0
H1452 H 0.64908 0.50425 0.18223 0.0
H1453 H 0.6464 0.53506 0.19188 0.0
H1454 H 0.67166 0.517 0.20191 0.0
H1455 H 0.75073 0.55752 0.17006 0.0
H1456 H 0.73863 0.59748 0.18572 0.0
H1457 H 0.6633 0.57651 0.18159 0.0
C1458 C 0.68979 0.48625 0.15195 0.0
C1459 C 0.71012 0.47126 0.14782 0.0
C1460 C 0.73352 0.48139 0.14918 0.0
C1461 C 0.7366 0.5059 0.155 0.0
C1462 C 0.71609 0.52004 0.1593 0.0
C1463 C 0.69314 0.51051 0.15773 0.0
C1464 C 0.674 0.52896 0.16423 0.0
C1465 C 0.65734 0.5342 0.14255 0.0
C1466 C 0.65944 0.52083 0.18638 0.0
C1467 C 0.6897 0.5504 0.1701 0.0
C1468 C 0.71392 0.54504 0.16703 0.0
C1469 C 0.73179 0.56189 0.1723 0.0
C1470 C 0.72473 0.58459 0.18118 0.0
C1471 C 0.69999 0.59029 0.18482 0.0
C1472 C 0.68235 0.57293 0.17885 0.0
H1473 H 0.47051 0.15643 0.66524 0.0
H1474 H 0.47485 0.13733 0.74112 0.0
H1475 H 0.51905 0.14398 0.74032 0.0
H1476 H 0.52857 0.13014 0.64682 0.0
H1477 H 0.53461 0.15432 0.62603 0.0
H1478 H 0.5039 0.14571 0.63217 0.0
H1479 H 0.49379 0.18961 0.6445 0.0
H1480 H 0.52444 0.19833 0.63849 0.0
H1481 H 0.51146 0.20398 0.66776 0.0
H1482 H 0.56248 0.15605 0.73173 0.0
H1483 H 0.60093 0.17234 0.7163 0.0
H1484 H 0.56754 0.18352 0.64612 0.0
C1485 C 0.48075 0.15319 0.68163 0.0
C1486 C 0.46918 0.14621 0.70323 0.0
C1487 C 0.4833 0.14252 0.72432 0.0
C1488 C 0.50842 0.14626 0.72403 0.0
C1489 C 0.51916 0.15359 0.70249 0.0
C1490 C 0.50572 0.15689 0.68166 0.0
C1491 C 0.52118 0.1662 0.66121 0.0
C1492 C 0.52212 0.148 0.64033 0.0
C1493 C 0.51218 0.191 0.65249 0.0
C1494 C 0.54539 0.16805 0.67385 0.0
C1495 C 0.54395 0.16054 0.6976 0.0
C1496 C 0.56384 0.16171 0.71309 0.0
C1497 C 0.58562 0.17101 0.70415 0.0
C1498 C 0.58736 0.17912 0.67995 0.0
C1499 C 0.56696 0.17726 0.66462 0.0
H1500 H 0.38706 0.8838 0.4756 0.0
H1501 H 0.38618 0.80581 0.47895 0.0
H1502 H 0.37333 0.80807 0.52177 0.0
H1503 H 0.4078 0.89504 0.53735 0.0
H1504 H 0.38851 0.92106 0.54065 0.0
H1505 H 0.39999 0.91301 0.51132 0.0
H1506 H 0.35629 0.9118 0.49438 0.0
H1507 H 0.34468 0.91983 0.52358 0.0
H1508 H 0.33423 0.89291 0.5088 0.0
H1509 H 0.35818 0.8195 0.56409 0.0
H1510 H 0.34025 0.83865 0.60029 0.0
H1511 H 0.35025 0.90889 0.56774 0.0
C1512 C 0.38462 0.86711 0.48537 0.0
C1513 C 0.38787 0.84459 0.47392 0.0
C1514 C 0.38397 0.82327 0.48736 0.0
C1515 C 0.37672 0.8244 0.51171 0.0
C1516 C 0.37338 0.84698 0.52232 0.0
C1517 C 0.3772 0.86793 0.50947 0.0
C1518 C 0.37074 0.88997 0.52419 0.0
C1519 C 0.3931 0.90569 0.52864 0.0
C1520 C 0.35027 0.90446 0.51201 0.0
C1521 C 0.3623 0.87825 0.5473 0.0
C1522 C 0.36423 0.85346 0.54611 0.0
C1523 C 0.35676 0.8389 0.5652 0.0
C1524 C 0.34667 0.84994 0.58575 0.0
C1525 C 0.34385 0.87529 0.58692 0.0
C1526 C 0.35219 0.88949 0.56751 0.0
H1527 H 0.19296 0.86001 0.09696 0.0
H1528 H 0.12911 0.81658 0.0845 0.0
H1529 H 0.12889 0.82878 0.04169 0.0
H1530 H 0.17617 0.9091 0.05584 0.0
H1531 H 0.20681 0.91348 0.04591 0.0
H1532 H 0.20103 0.90248 0.07594 0.0
H1533 H 0.22825 0.86532 0.06766 0.0
H1534 H 0.23406 0.87617 0.03764 0.0
H1535 H 0.2219 0.84646 0.04195 0.0
H1536 H 0.13728 0.84364 0.99923 0.0
H1537 H 0.15335 0.86067 0.96121 0.0
H1538 H 0.211 0.89479 1.00184 0.0
C1539 C 0.17874 0.85329 0.08534 0.0
C1540 C 0.16106 0.83733 0.09421 0.0
C1541 C 0.14288 0.82885 0.07823 0.0
C1542 C 0.14256 0.83569 0.05383 0.0
C1543 C 0.16044 0.85117 0.04559 0.0
C1544 C 0.1781 0.85999 0.06091 0.0
C1545 C 0.19573 0.87573 0.04738 0.0
C1546 C 0.19487 0.90174 0.05683 0.0
C1547 C 0.2215 0.86529 0.04874 0.0
C1548 C 0.18547 0.87406 0.02203 0.0
C1549 C 0.16507 0.85989 0.02132 0.0
C1550 C 0.1531 0.85499 0.99963 0.0
C1551 C 0.16235 0.86472 0.97811 0.0
C1552 C 0.18334 0.87919 0.97848 0.0
C1553 C 0.19478 0.88401 1.00086 0.0
H1554 H 0.16794 0.66939 0.56974 0.0
H1555 H 0.23835 0.63471 0.56763 0.0
H1556 H 0.23998 0.64155 0.52349 0.0
H1557 H 0.14564 0.64732 0.51198 0.0
H1558 H 0.13034 0.67515 0.50483 0.0
H1559 H 0.1342 0.66617 0.53587 0.0
H1560 H 0.15523 0.70669 0.54517 0.0
H1561 H 0.15155 0.71576 0.51416 0.0
H1562 H 0.1812 0.71546 0.52776 0.0
H1563 H 0.23445 0.65371 0.47973 0.0
H1564 H 0.22251 0.67012 0.44003 0.0
H1565 H 0.15585 0.69743 0.47101 0.0
C1566 C 0.18359 0.6629 0.56001 0.0
C1567 C 0.20297 0.65133 0.57218 0.0
C1568 C 0.22324 0.64349 0.55872 0.0
C1569 C 0.22432 0.64731 0.53364 0.0
C1570 C 0.20501 0.65904 0.52229 0.0
C1571 C 0.18501 0.66669 0.53506 0.0
C1572 C 0.16709 0.67971 0.51882 0.0
C1573 C 0.14289 0.66628 0.51782 0.0
C1574 C 0.16357 0.70596 0.52697 0.0
C1575 C 0.18015 0.67833 0.49487 0.0
C1576 C 0.20195 0.66626 0.49724 0.0
C1577 C 0.21738 0.66309 0.47768 0.0
C1578 C 0.21041 0.67253 0.45517 0.0
C1579 C 0.1882 0.68508 0.4523 0.0
C1580 C 0.1729 0.68788 0.47251 0.0
H1581 H 0.37486 0.64724 0.0712 0.0
H1582 H 0.42111 0.70996 0.07388 0.0
H1583 H 0.42254 0.71036 0.02903 0.0
H1584 H 0.40219 0.61812 0.01976 0.0
H1585 H 0.37363 0.60776 1.00811 0.0
H1586 H 0.37768 0.61188 0.04012 0.0
H1587 H 0.34058 0.64055 0.04116 0.0
H1588 H 0.33632 0.63639 1.00922 0.0
H1589 H 0.33968 0.66629 0.02134 0.0
H1590 H 0.41766 0.70367 0.98275 0.0
H1591 H 0.40448 0.69276 0.94122 0.0
H1592 H 0.36093 0.63525 0.97067 0.0
C1593 C 0.38554 0.66099 0.06249 0.0
C1594 C 0.39805 0.67847 0.07614 0.0
C1595 C 0.41144 0.69633 0.06383 0.0
C1596 C 0.41241 0.69662 0.03836 0.0
C1597 C 0.39981 0.679 0.02548 0.0
C1598 C 0.38652 0.66164 0.03729 0.0
C1599 C 0.37343 0.64544 0.0197 0.0
C1600 C 0.38227 0.61925 0.02207 0.0
C1601 C 0.34588 0.6473 0.02306 0.0
C1602 C 0.38122 0.65637 0.99601 0.0
C1603 C 0.39665 0.67555 0.9995 0.0
C1604 C 0.40566 0.68861 0.97993 0.0
C1605 C 0.39821 0.68221 0.95638 0.0
C1606 C 0.38172 0.66313 0.95269 0.0
C1607 C 0.37358 0.64991 0.97284 0.0
loop_
_geom_bond_atom_site_label_1
_geom_bond_atom_site_label_2
_geom_bond_distance
_geom_bond_site_symmetry_2
_ccdc_geom_bond_type
Mg0 O7 2.141 . S
Mg0 O8 2.048 . S
Mg0 O9 2.048 . S
Mg0 O12 2.141 . S
C1 O2 1.313 . S
C1 O8 1.195 . S
O2 C1 1.313 . S
C3 O4 1.245 . S
C3 O12 1.289 . S
O4 C3 1.245 . S
C5 O6 1.245 . S
C5 O7 1.289 . S
O6 C5 1.245 . S
O7 Mg0 2.141 . S
O7 C5 1.289 . S
O8 Mg0 2.048 . S
O8 C1 1.195 . S
O9 Mg0 2.048 . S
O9 C10 1.195 . S
C10 O9 1.195 . S
C10 O11 1.313 . S
O11 C10 1.313 . S
O12 Mg0 2.141 . S
O12 C3 1.289 . S
Mg13 O20 2.141 . S
Mg13 O21 2.048 . S
Mg13 O22 2.048 . S
Mg13 O25 2.141 . S
C14 O15 1.313 . S
C14 O21 1.195 . S
O15 C14 1.313 . S
C16 O17 1.245 . S
C16 O25 1.289 . S
O17 C16 1.245 . S
C18 O19 1.245 . S
C18 O20 1.289 . S
O19 C18 1.245 . S
O20 Mg13 2.141 . S
O20 C18 1.289 . S
O21 Mg13 2.048 . S
O21 C14 1.195 . S
O22 Mg13 2.048 . S
O22 C23 1.195 . S
C23 O22 1.195 . S
C23 O24 1.313 . S
O24 C23 1.313 . S
O25 Mg13 2.141 . S
O25 C16 1.289 . S
Mg26 O33 2.141 . S
Mg26 O34 2.048 . S
Mg26 O35 2.048 . S
Mg26 O38 2.141 . S
C27 O28 1.313 . S
C27 O34 1.195 . S
O28 C27 1.313 . S
C29 O30 1.245 . S
C29 O38 1.289 . S
O30 C29 1.245 . S
C31 O32 1.245 . S
C31 O33 1.289 . S
O32 C31 1.245 . S
O33 Mg26 2.141 . S
O33 C31 1.289 . S
O34 Mg26 2.048 . S
O34 C27 1.195 . S
O35 Mg26 2.048 . S
O35 C36 1.195 . S
C36 O35 1.195 . S
C36 O37 1.313 . S
O37 C36 1.313 . S
O38 Mg26 2.141 . S
O38 C29 1.289 . S
Mg39 O46 2.141 . S
Mg39 O47 2.048 . S
Mg39 O48 2.048 . S
Mg39 O51 2.141 . S
C40 O41 1.313 . S
C40 O47 1.195 . S
O41 C40 1.313 . S
C42 O43 1.245 . S
C42 O51 1.289 . S
O43 C42 1.245 . S
C44 O45 1.245 . S
C44 O46 1.289 . S
O45 C44 1.245 . S
O46 Mg39 2.141 . S
O46 C44 1.289 . S
O47 Mg39 2.048 . S
O47 C40 1.195 . S
O48 Mg39 2.048 . S
O48 C49 1.195 . S
C49 O48 1.195 . S
C49 O50 1.313 . S
O50 C49 1.313 . S
O51 Mg39 2.141 . S
O51 C42 1.289 . S
Mg52 O59 2.141 . S
Mg52 O60 2.048 . S
Mg52 O61 2.048 . S
Mg52 O64 2.141 . S
C53 O54 1.313 . S
C53 O60 1.195 . S
O54 C53 1.313 . S
C55 O56 1.245 . S
C55 O64 1.289 . S
O56 C55 1.245 . S
C57 O58 1.245 . S
C57 O59 1.289 . S
O58 C57 1.245 . S
O59 Mg52 2.141 . S
O59 C57 1.289 . S
O60 Mg52 2.048 . S
O60 C53 1.195 . S
O61 Mg52 2.048 . S
O61 C62 1.195 . S
C62 O61 1.195 . S
C62 O63 1.313 . S
O63 C62 1.313 . S
O64 Mg52 2.141 . S
O64 C55 1.289 . S
Mg65 O72 2.141 . S
Mg65 O73 2.048 . S
Mg65 O74 2.048 . S
Mg65 O77 2.141 . S
C66 O67 1.313 . S
C66 O73 1.195 . S
O67 C66 1.313 . S
C68 O69 1.245 . S
C68 O77 1.289 . S
O69 C68 1.245 . S
C70 O71 1.245 . S
C70 O72 1.289 . S
O71 C70 1.245 . S
O72 Mg65 2.141 . S
O72 C70 1.289 . S
O73 Mg65 2.048 . S
O73 C66 1.195 . S
O74 Mg65 2.048 . S
O74 C75 1.195 . S
C75 O74 1.195 . S
C75 O76 1.313 . S
O76 C75 1.313 . S
O77 Mg65 2.141 . S
O77 C68 1.289 . S
Mg78 O85 2.141 . S
Mg78 O86 2.048 . S
Mg78 O87 2.048 . S
Mg78 O90 2.141 . S
C79 O80 1.313 . S
C79 O86 1.195 . S
O80 C79 1.313 . S
C81 O82 1.245 . S
C81 O90 1.289 . S
O82 C81 1.245 . S
C83 O84 1.245 . S
C83 O85 1.289 . S
O84 C83 1.245 . S
O85 Mg78 2.141 . S
O85 C83 1.289 . S
O86 Mg78 2.048 . S
O86 C79 1.195 . S
O87 Mg78 2.048 . S
O87 C88 1.195 . S
C88 O87 1.195 . S
C88 O89 1.313 . S
O89 C88 1.313 . S
O90 Mg78 2.141 . S
O90 C81 1.289 . S
Mg91 O98 2.141 . S
Mg91 O99 2.048 . S
Mg91 O100 2.048 . S
Mg91 O103 2.141 . S
C92 O93 1.313 . S
C92 O99 1.195 . S
O93 C92 1.313 . S
C94 O95 1.245 . S
C94 O103 1.289 . S
O95 C94 1.245 . S
C96 O97 1.245 . S
C96 O98 1.289 . S
O97 C96 1.245 . S
O98 Mg91 2.141 . S
O98 C96 1.289 . S
O99 Mg91 2.048 . S
O99 C92 1.195 . S
O100 Mg91 2.048 . S
O100 C101 1.195 . S
C101 O100 1.195 . S
C101 O102 1.313 . S
O102 C101 1.313 . S
O103 Mg91 2.141 . S
O103 C94 1.289 . S
Mg104 O111 2.141 . S
Mg104 O112 2.048 . S
Mg104 O113 2.048 . S
Mg104 O116 2.141 . S
C105 O106 1.313 . S
C105 O112 1.195 . S
O106 C105 1.313 . S
C107 O108 1.245 . S
C107 O116 1.289 . S
O108 C107 1.245 . S
C109 O110 1.245 . S
C109 O111 1.289 . S
O110 C109 1.245 . S
O111 Mg104 2.141 . S
O111 C109 1.289 . S
O112 Mg104 2.048 . S
O112 C105 1.195 . S
O113 Mg104 2.048 . S
O113 C114 1.195 . S
C114 O113 1.195 . S
C114 O115 1.313 . S
O115 C114 1.313 . S
O116 Mg104 2.141 . S
O116 C107 1.289 . S
Mg117 O124 2.141 . S
Mg117 O125 2.048 . S
Mg117 O126 2.048 . S
Mg117 O129 2.141 . S
C118 O119 1.313 . S
C118 O125 1.195 . S
O119 C118 1.313 . S
C120 O121 1.245 . S
C120 O129 1.289 . S
O121 C120 1.245 . S
C122 O123 1.245 . S
C122 O124 1.289 . S
O123 C122 1.245 . S
O124 Mg117 2.141 . S
O124 C122 1.289 . S
O125 Mg117 2.048 . S
O125 C118 1.195 . S
O126 Mg117 2.048 . S
O126 C127 1.195 . S
C127 O126 1.195 . S
C127 O128 1.313 . S
O128 C127 1.313 . S
O129 Mg117 2.141 . S
O129 C120 1.289 . S
Mg130 O137 2.141 . S
Mg130 O138 2.048 . S
Mg130 O139 2.048 . S
Mg130 O142 2.141 . S
C131 O132 1.313 . S
C131 O138 1.195 . S
O132 C131 1.313 . S
C133 O134 1.245 . S
C133 O142 1.289 . S
O134 C133 1.245 . S
C135 O136 1.245 . S
C135 O137 1.289 . S
O136 C135 1.245 . S
O137 Mg130 2.141 . S
O137 C135 1.289 . S
O138 Mg130 2.048 . S
O138 C131 1.195 . S
O139 Mg130 2.048 . S
O139 C140 1.195 . S
C140 O139 1.195 . S
C140 O141 1.313 . S
O141 C140 1.313 . S
O142 Mg130 2.141 . S
O142 C133 1.289 . S
Mg143 O150 2.141 . S
Mg143 O151 2.048 . S
Mg143 O152 2.048 . S
Mg143 O155 2.141 . S
C144 O145 1.313 . S
C144 O151 1.195 . S
O145 C144 1.313 . S
C146 O147 1.245 . S
C146 O155 1.289 . S
O147 C146 1.245 . S
C148 O149 1.245 . S
C148 O150 1.289 . S
O149 C148 1.245 . S
O150 Mg143 2.141 . S
O150 C148 1.289 . S
O151 Mg143 2.048 . S
O151 C144 1.195 . S
O152 Mg143 2.048 . S
O152 C153 1.195 . S
C153 O152 1.195 . S
C153 O154 1.313 . S
O154 C153 1.313 . S
O155 Mg143 2.141 . S
O155 C146 1.289 . S
Mg156 O163 2.141 . S
Mg156 O164 2.048 . S
Mg156 O165 2.048 . S
Mg156 O168 2.141 . S
C157 O158 1.313 . S
C157 O164 1.195 . S
O158 C157 1.313 . S
C159 O160 1.245 . S
C159 O168 1.289 . S
O160 C159 1.245 . S
C161 O162 1.245 . S
C161 O163 1.289 . S
O162 C161 1.245 . S
O163 Mg156 2.141 . S
O163 C161 1.289 . S
O164 Mg156 2.048 . S
O164 C157 1.195 . S
O165 Mg156 2.048 . S
O165 C166 1.195 . S
C166 O165 1.195 . S
C166 O167 1.313 . S
O167 C166 1.313 . S
O168 Mg156 2.141 . S
O168 C159 1.289 . S
Mg169 O176 2.141 . S
Mg169 O177 2.048 . S
Mg169 O178 2.048 . S
Mg169 O181 2.141 . S
C170 O171 1.313 . S
C170 O177 1.195 . S
O171 C170 1.313 . S
C172 O173 1.245 . S
C172 O181 1.289 . S
O173 C172 1.245 . S
C174 O175 1.245 . S
C174 O176 1.289 . S
O175 C174 1.245 . S
O176 Mg169 2.141 . S
O176 C174 1.289 . S
O177 Mg169 2.048 . S
O177 C170 1.195 . S
O178 Mg169 2.048 . S
O178 C179 1.195 . S
C179 O178 1.195 . S
C179 O180 1.313 . S
O180 C179 1.313 . S
O181 Mg169 2.141 . S
O181 C172 1.289 . S
Mg182 O189 2.141 . S
Mg182 O190 2.048 . S
Mg182 O191 2.048 . S
Mg182 O194 2.141 . S
C183 O184 1.313 . S
C183 O190 1.195 . S
O184 C183 1.313 . S
C185 O186 1.245 . S
C185 O194 1.289 . S
O186 C185 1.245 . S
C187 O188 1.245 . S
C187 O189 1.289 . S
O188 C187 1.245 . S
O189 Mg182 2.141 . S
O189 C187 1.289 . S
O190 Mg182 2.048 . S
O190 C183 1.195 . S
O191 Mg182 2.048 . S
O191 C192 1.195 . S
C192 O191 1.195 . S
C192 O193 1.313 . S
O193 C192 1.313 . S
O194 Mg182 2.141 . S
O194 C185 1.289 . S
Mg195 O202 2.141 . S
Mg195 O203 2.048 . S
Mg195 O204 2.048 . S
Mg195 O207 2.141 . S
C196 O197 1.313 . S
C196 O203 1.195 . S
O197 C196 1.313 . S
C198 O199 1.245 . S
C198 O207 1.289 . S
O199 C198 1.245 . S
C200 O201 1.245 . S
C200 O202 1.289 . S
O201 C200 1.245 . S
O202 Mg195 2.141 . S
O202 C200 1.289 . S
O203 Mg195 2.048 . S
O203 C196 1.195 . S
O204 Mg195 2.048 . S
O204 C205 1.195 . S
C205 O204 1.195 . S
C205 O206 1.313 . S
O206 C205 1.313 . S
O207 Mg195 2.141 . S
O207 C198 1.289 . S
Mg208 O215 2.141 . S
Mg208 O216 2.048 . S
Mg208 O217 2.048 . S
Mg208 O220 2.141 . S
C209 O210 1.313 . S
C209 O216 1.195 . S
O210 C209 1.313 . S
C211 O212 1.245 . S
C211 O220 1.289 . S
O212 C211 1.245 . S
C213 O214 1.245 . S
C213 O215 1.289 . S
O214 C213 1.245 . S
O215 Mg208 2.141 . S
O215 C213 1.289 . S
O216 Mg208 2.048 . S
O216 C209 1.195 . S
O217 Mg208 2.048 . S
O217 C218 1.195 . S
C218 O217 1.195 . S
C218 O219 1.313 . S
O219 C218 1.313 . S
O220 Mg208 2.141 . S
O220 C211 1.289 . S
Mg221 O228 2.141 . S
Mg221 O229 2.048 . S
Mg221 O230 2.048 . S
Mg221 O233 2.141 . S
C222 O223 1.313 . S
C222 O229 1.195 . S
O223 C222 1.313 . S
C224 O225 1.245 . S
C224 O233 1.289 . S
O225 C224 1.245 . S
C226 O227 1.245 . S
C226 O228 1.289 . S
O227 C226 1.245 . S
O228 Mg221 2.141 . S
O228 C226 1.289 . S
O229 Mg221 2.048 . S
O229 C222 1.195 . S
O230 Mg221 2.048 . S
O230 C231 1.195 . S
C231 O230 1.195 . S
C231 O232 1.313 . S
O232 C231 1.313 . S
O233 Mg221 2.141 . S
O233 C224 1.289 . S
Mg234 O241 2.141 . S
Mg234 O242 2.048 . S
Mg234 O243 2.048 . S
Mg234 O246 2.141 . S
C235 O236 1.313 . S
C235 O242 1.195 . S
O236 C235 1.313 . S
C237 O238 1.245 . S
C237 O246 1.289 . S
O238 C237 1.245 . S
C239 O240 1.245 . S
C239 O241 1.289 . S
O240 C239 1.245 . S
O241 Mg234 2.141 . S
O241 C239 1.289 . S
O242 Mg234 2.048 . S
O242 C235 1.195 . S
O243 Mg234 2.048 . S
O243 C244 1.195 . S
C244 O243 1.195 . S
C244 O245 1.313 . S
O245 C244 1.313 . S
O246 Mg234 2.141 . S
O246 C237 1.289 . S
Mg247 O254 2.141 . S
Mg247 O255 2.048 . S
Mg247 O256 2.048 . S
Mg247 O259 2.141 . S
C248 O249 1.313 . S
C248 O255 1.195 . S
O249 C248 1.313 . S
C250 O251 1.245 . S
C250 O259 1.289 . S
O251 C250 1.245 . S
C252 O253 1.245 . S
C252 O254 1.289 . S
O253 C252 1.245 . S
O254 Mg247 2.141 . S
O254 C252 1.289 . S
O255 Mg247 2.048 . S
O255 C248 1.195 . S
O256 Mg247 2.048 . S
O256 C257 1.195 . S
C257 O256 1.195 . S
C257 O258 1.313 . S
O258 C257 1.313 . S
O259 Mg247 2.141 . S
O259 C250 1.289 . S
Mg260 O267 2.141 . S
Mg260 O268 2.048 . S
Mg260 O269 2.048 . S
Mg260 O272 2.141 . S
C261 O262 1.313 . S
C261 O268 1.195 . S
O262 C261 1.313 . S
C263 O264 1.245 . S
C263 O272 1.289 . S
O264 C263 1.245 . S
C265 O266 1.245 . S
C265 O267 1.289 . S
O266 C265 1.245 . S
O267 Mg260 2.141 . S
O267 C265 1.289 . S
O268 Mg260 2.048 . S
O268 C261 1.195 . S
O269 Mg260 2.048 . S
O269 C270 1.195 . S
C270 O269 1.195 . S
C270 O271 1.313 . S
O271 C270 1.313 . S
O272 Mg260 2.141 . S
O272 C263 1.289 . S
Mg273 O280 2.141 . S
Mg273 O281 2.048 . S
Mg273 O282 2.048 . S
Mg273 O285 2.141 . S
C274 O275 1.313 . S
C274 O281 1.195 . S
O275 C274 1.313 . S
C276 O277 1.245 . S
C276 O285 1.289 . S
O277 C276 1.245 . S
C278 O279 1.245 . S
C278 O280 1.289 . S
O279 C278 1.245 . S
O280 Mg273 2.141 . S
O280 C278 1.289 . S
O281 Mg273 2.048 . S
O281 C274 1.195 . S
O282 Mg273 2.048 . S
O282 C283 1.195 . S
C283 O282 1.195 . S
C283 O284 1.313 . S
O284 C283 1.313 . S
O285 Mg273 2.141 . S
O285 C276 1.289 . S
Mg286 O293 2.141 . S
Mg286 O294 2.048 . S
Mg286 O295 2.048 . S
Mg286 O298 2.141 . S
C287 O288 1.313 . S
C287 O294 1.195 . S
O288 C287 1.313 . S
C289 O290 1.245 . S
C289 O298 1.289 . S
O290 C289 1.245 . S
C291 O292 1.245 . S
C291 O293 1.289 . S
O292 C291 1.245 . S
O293 Mg286 2.141 . S
O293 C291 1.289 . S
O294 Mg286 2.048 . S
O294 C287 1.195 . S
O295 Mg286 2.048 . S
O295 C296 1.195 . S
C296 O295 1.195 . S
C296 O297 1.313 . S
O297 C296 1.313 . S
O298 Mg286 2.141 . S
O298 C289 1.289 . S
Mg299 O306 2.141 . S
Mg299 O307 2.048 . S
Mg299 O308 2.048 . S
Mg299 O311 2.141 . S
C300 O301 1.313 . S
C300 O307 1.195 . S
O301 C300 1.313 . S
C302 O303 1.245 . S
C302 O311 1.289 . S
O303 C302 1.245 . S
C304 O305 1.245 . S
C304 O306 1.289 . S
O305 C304 1.245 . S
O306 Mg299 2.141 . S
O306 C304 1.289 . S
O307 Mg299 2.048 . S
O307 C300 1.195 . S
O308 Mg299 2.048 . S
O308 C309 1.195 . S
C309 O308 1.195 . S
C309 O310 1.313 . S
O310 C309 1.313 . S
O311 Mg299 2.141 . S
O311 C302 1.289 . S
H312 C324 0.930 . S
H313 C326 0.930 . S
H314 C327 0.930 . S
H315 C331 0.959 . S
H316 C331 0.959 . S
H317 C331 0.961 . S
H318 C332 0.960 . S
H319 C332 0.961 . S
H320 C332 0.959 . S
H321 C335 0.929 . S
H322 C336 0.931 . S
H323 C338 0.930 . S
C324 H312 0.930 . S
C324 C325 1.399 . S
C324 C329 1.399 . S
C325 C324 1.399 . S
C325 C326 1.376 . S
C326 H313 0.930 . S
C326 C325 1.376 . S
C326 C327 1.388 . S
C327 H314 0.930 . S
C327 C326 1.388 . S
C327 C328 1.390 . S
C328 C327 1.390 . S
C328 C329 1.394 . S
C328 C334 1.465 . S
C329 C324 1.399 . S
C329 C328 1.394 . S
C329 C330 1.516 . S
C330 C329 1.516 . S
C330 C331 1.502 . S
C330 C332 1.561 . S
C330 C333 1.526 . S
C331 H315 0.959 . S
C331 H316 0.959 . S
C331 H317 0.961 . S
C331 C330 1.502 . S
C332 H318 0.960 . S
C332 H319 0.961 . S
C332 H320 0.959 . S
C332 C330 1.561 . S
C333 C330 1.526 . S
C333 C334 1.396 . S
C333 C338 1.390 . S
C334 C328 1.465 . S
C334 C333 1.396 . S
C334 C335 1.399 . S
C335 H321 0.929 . S
C335 C334 1.399 . S
C335 C336 1.385 . S
C336 H322 0.931 . S
C336 C335 1.385 . S
C336 C337 1.389 . S
C337 C336 1.389 . S
C337 C338 1.387 . S
C338 H323 0.930 . S
C338 C333 1.390 . S
C338 C337 1.387 . S
H339 C351 0.930 . S
H340 C353 0.930 . S
H341 C354 0.930 . S
H342 C358 0.959 . S
H343 C358 0.959 . S
H344 C358 0.961 . S
H345 C359 0.960 . S
H346 C359 0.961 . S
H347 C359 0.959 . S
H348 C362 0.929 . S
H349 C363 0.931 . S
H350 C365 0.930 . S
C351 H339 0.930 . S
C351 C352 1.399 . S
C351 C356 1.399 . S
C352 C351 1.399 . S
C352 C353 1.376 . S
C353 H340 0.930 . S
C353 C352 1.376 . S
C353 C354 1.388 . S
C354 H341 0.930 . S
C354 C353 1.388 . S
C354 C355 1.390 . S
C355 C354 1.390 . S
C355 C356 1.394 . S
C355 C361 1.465 . S
C356 C351 1.399 . S
C356 C355 1.394 . S
C356 C357 1.516 . S
C357 C356 1.516 . S
C357 C358 1.502 . S
C357 C359 1.561 . S
C357 C360 1.526 . S
C358 H342 0.959 . S
C358 H343 0.959 . S
C358 H344 0.961 . S
C358 C357 1.502 . S
C359 H345 0.960 . S
C359 H346 0.961 . S
C359 H347 0.959 . S
C359 C357 1.561 . S
C360 C357 1.526 . S
C360 C361 1.396 . S
C360 C365 1.390 . S
C361 C355 1.465 . S
C361 C360 1.396 . S
C361 C362 1.399 . S
C362 H348 0.929 . S
C362 C361 1.399 . S
C362 C363 1.385 . S
C363 H349 0.931 . S
C363 C362 1.385 . S
C363 C364 1.389 . S
C364 C363 1.389 . S
C364 C365 1.387 . S
C365 H350 0.930 . S
C365 C360 1.390 . S
C365 C364 1.387 . S
H366 C378 0.930 . S
H367 C380 0.930 . S
H368 C381 0.930 . S
H369 C385 0.959 . S
H370 C385 0.959 . S
H371 C385 0.961 . S
H372 C386 0.960 . S
H373 C386 0.961 . S
H374 C386 0.959 . S
H375 C389 0.929 . S
H376 C390 0.931 . S
H377 C392 0.930 . S
C378 H366 0.930 . S
C378 C379 1.399 . S
C378 C383 1.399 . S
C379 C378 1.399 . S
C379 C380 1.376 . S
C380 H367 0.930 . S
C380 C379 1.376 . S
C380 C381 1.388 . S
C381 H368 0.930 . S
C381 C380 1.388 . S
C381 C382 1.390 . S
C382 C381 1.390 . S
C382 C383 1.394 . S
C382 C388 1.465 . S
C383 C378 1.399 . S
C383 C382 1.394 . S
C383 C384 1.516 . S
C384 C383 1.516 . S
C384 C385 1.502 . S
C384 C386 1.561 . S
C384 C387 1.526 . S
C385 H369 0.959 . S
C385 H370 0.959 . S
C385 H371 0.961 . S
C385 C384 1.502 . S
C386 H372 0.960 . S
C386 H373 0.961 . S
C386 H374 0.959 . S
C386 C384 1.561 . S
C387 C384 1.526 . S
C387 C388 1.396 . S
C387 C392 1.390 . S
C388 C382 1.465 . S
C388 C387 1.396 . S
C388 C389 1.399 . S
C389 H375 0.929 . S
C389 C388 1.399 . S
C389 C390 1.385 . S
C390 H376 0.931 . S
C390 C389 1.385 . S
C390 C391 1.389 . S
C391 C390 1.389 . S
C391 C392 1.387 . S
C392 H377 0.930 . S
C392 C387 1.390 . S
C392 C391 1.387 . S
H393 C405 0.930 . S
H394 C407 0.930 . S
H395 C408 0.930 . S
H396 C412 0.959 . S
H397 C412 0.959 . S
H398 C412 0.961 . S
H399 C413 0.960 . S
H400 C413 0.961 . S
H401 C413 0.959 . S
H402 C416 0.929 . S
H403 C417 0.931 . S
H404 C419 0.930 . S
C405 H393 0.930 . S
C405 C406 1.399 . S
C405 C410 1.399 . S
C406 C405 1.399 . S
C406 C407 1.376 . S
C407 H394 0.930 . S
C407 C406 1.376 . S
C407 C408 1.388 . S
C408 H395 0.930 . S
C408 C407 1.388 . S
C408 C409 1.390 . S
C409 C408 1.390 . S
C409 C410 1.394 . S
C409 C415 1.465 . S
C410 C405 1.399 . S
C410 C409 1.394 . S
C410 C411 1.516 . S
C411 C410 1.516 . S
C411 C412 1.502 . S
C411 C413 1.561 . S
C411 C414 1.526 . S
C412 H396 0.959 . S
C412 H397 0.959 . S
C412 H398 0.961 . S
C412 C411 1.502 . S
C413 H399 0.960 . S
C413 H400 0.961 . S
C413 H401 0.959 . S
C413 C411 1.561 . S
C414 C411 1.526 . S
C414 C415 1.396 . S
C414 C419 1.390 . S
C415 C409 1.465 . S
C415 C414 1.396 . S
C415 C416 1.399 . S
C416 H402 0.929 . S
C416 C415 1.399 . S
C416 C417 1.385 . S
C417 H403 0.931 . S
C417 C416 1.385 . S
C417 C418 1.389 . S
C418 C417 1.389 . S
C418 C419 1.387 . S
C419 H404 0.930 . S
C419 C414 1.390 . S
C419 C418 1.387 . S
H420 C432 0.930 . S
H421 C434 0.930 . S
H422 C435 0.930 . S
H423 C439 0.959 . S
H424 C439 0.959 . S
H425 C439 0.961 . S
H426 C440 0.960 . S
H427 C440 0.961 . S
H428 C440 0.959 . S
H429 C443 0.929 . S
H430 C444 0.931 . S
H431 C446 0.930 . S
C432 H420 0.930 . S
C432 C433 1.399 . S
C432 C437 1.399 . S
C433 C432 1.399 . S
C433 C434 1.376 . S
C434 H421 0.930 . S
C434 C433 1.376 . S
C434 C435 1.388 . S
C435 H422 0.930 . S
C435 C434 1.388 . S
C435 C436 1.390 . S
C436 C435 1.390 . S
C436 C437 1.394 . S
C436 C442 1.465 . S
C437 C432 1.399 . S
C437 C436 1.394 . S
C437 C438 1.516 . S
C438 C437 1.516 . S
C438 C439 1.502 . S
C438 C440 1.561 . S
C438 C441 1.526 . S
C439 H423 0.959 . S
C439 H424 0.959 . S
C439 H425 0.961 . S
C439 C438 1.502 . S
C440 H426 0.960 . S
C440 H427 0.961 . S
C440 H428 0.959 . S
C440 C438 1.561 . S
C441 C438 1.526 . S
C441 C442 1.396 . S
C441 C446 1.390 . S
C442 C436 1.465 . S
C442 C441 1.396 . S
C442 C443 1.399 . S
C443 H429 0.929 . S
C443 C442 1.399 . S
C443 C444 1.385 . S
C444 H430 0.931 . S
C444 C443 1.385 . S
C444 C445 1.389 . S
C445 C444 1.389 . S
C445 C446 1.387 . S
C446 H431 0.930 . S
C446 C441 1.390 . S
C446 C445 1.387 . S
H447 C459 0.930 . S
H448 C461 0.930 . S
H449 C462 0.930 . S
H450 C466 0.959 . S
H451 C466 0.959 . S
H452 C466 0.961 . S
H453 C467 0.960 . S
H454 C467 0.961 . S
H455 C467 0.959 . S
H456 C470 0.929 . S
H457 C471 0.931 . S
H458 C473 0.930 . S
C459 H447 0.930 . S
C459 C460 1.399 . S
C459 C464 1.399 . S
C460 C459 1.399 . S
C460 C461 1.376 . S
C461 H448 0.930 . S
C461 C460 1.376 . S
C461 C462 1.388 . S
C462 H449 0.930 . S
C462 C461 1.388 . S
C462 C463 1.390 . S
C463 C462 1.390 . S
C463 C464 1.394 . S
C463 C469 1.465 . S
C464 C459 1.399 . S
C464 C463 1.394 . S
C464 C465 1.516 . S
C465 C464 1.516 . S
C465 C466 1.502 . S
C465 C467 1.561 . S
C465 C468 1.526 . S
C466 H450 0.959 . S
C466 H451 0.959 . S
C466 H452 0.961 . S
C466 C465 1.502 . S
C467 H453 0.960 . S
C467 H454 0.961 . S
C467 H455 0.959 . S
C467 C465 1.561 . S
C468 C465 1.526 . S
C468 C469 1.396 . S
C468 C473 1.390 . S
C469 C463 1.465 . S
C469 C468 1.396 . S
C469 C470 1.399 . S
C470 H456 0.929 . S
C470 C469 1.399 . S
C470 C471 1.385 . S
C471 H457 0.931 . S
C471 C470 1.385 . S
C471 C472 1.389 . S
C472 C471 1.389 . S
C472 C473 1.387 . S
C473 H458 0.930 . S
C473 C468 1.390 . S
C473 C472 1.387 . S
H474 C486 0.930 . S
H475 C488 0.930 . S
H476 C489 0.930 . S
H477 C493 0.959 . S
H478 C493 0.959 . S
H479 C493 0.961 . S
H480 C494 0.960 . S
H481 C494 0.961 . S
H482 C494 0.959 . S
H483 C497 0.929 . S
H484 C498 0.931 . S
H485 C500 0.930 . S
C486 H474 0.930 . S
C486 C487 1.399 . S
C486 C491 1.399 . S
C487 C486 1.399 . S
C487 C488 1.376 . S
C488 H475 0.930 . S
C488 C487 1.376 . S
C488 C489 1.388 . S
C489 H476 0.930 . S
C489 C488 1.388 . S
C489 C490 1.390 . S
C490 C489 1.390 . S
C490 C491 1.394 . S
C490 C496 1.465 . S
C491 C486 1.399 . S
C491 C490 1.394 . S
C491 C492 1.516 . S
C492 C491 1.516 . S
C492 C493 1.502 . S
C492 C494 1.561 . S
C492 C495 1.526 . S
C493 H477 0.959 . S
C493 H478 0.959 . S
C493 H479 0.961 . S
C493 C492 1.502 . S
C494 H480 0.960 . S
C494 H481 0.961 . S
C494 H482 0.959 . S
C494 C492 1.561 . S
C495 C492 1.526 . S
C495 C496 1.396 . S
C495 C500 1.390 . S
C496 C490 1.465 . S
C496 C495 1.396 . S
C496 C497 1.399 . S
C497 H483 0.929 . S
C497 C496 1.399 . S
C497 C498 1.385 . S
C498 H484 0.931 . S
C498 C497 1.385 . S
C498 C499 1.389 . S
C499 C498 1.389 . S
C499 C500 1.387 . S
C500 H485 0.930 . S
C500 C495 1.390 . S
C500 C499 1.387 . S
H501 C513 0.930 . S
H502 C515 0.930 . S
H503 C516 0.930 . S
H504 C520 0.959 . S
H505 C520 0.959 . S
H506 C520 0.961 . S
H507 C521 0.960 . S
H508 C521 0.961 . S
H509 C521 0.959 . S
H510 C524 0.929 . S
H511 C525 0.931 . S
H512 C527 0.930 . S
C513 H501 0.930 . S
C513 C514 1.399 . S
C513 C518 1.399 . S
C514 C513 1.399 . S
C514 C515 1.376 . S
C515 H502 0.930 . S
C515 C514 1.376 . S
C515 C516 1.388 . S
C516 H503 0.930 . S
C516 C515 1.388 . S
C516 C517 1.390 . S
C517 C516 1.390 . S
C517 C518 1.394 . S
C517 C523 1.465 . S
C518 C513 1.399 . S
C518 C517 1.394 . S
C518 C519 1.516 . S
C519 C518 1.516 . S
C519 C520 1.502 . S
C519 C521 1.561 . S
C519 C522 1.526 . S
C520 H504 0.959 . S
C520 H505 0.959 . S
C520 H506 0.961 . S
C520 C519 1.502 . S
C521 H507 0.960 . S
C521 H508 0.961 . S
C521 H509 0.959 . S
C521 C519 1.561 . S
C522 C519 1.526 . S
C522 C523 1.396 . S
C522 C527 1.390 . S
C523 C517 1.465 . S
C523 C522 1.396 . S
C523 C524 1.399 . S
C524 H510 0.929 . S
C524 C523 1.399 . S
C524 C525 1.385 . S
C525 H511 0.931 . S
C525 C524 1.385 . S
C525 C526 1.389 . S
C526 C525 1.389 . S
C526 C527 1.387 . S
C527 H512 0.930 . S
C527 C522 1.390 . S
C527 C526 1.387 . S
H528 C540 0.930 . S
H529 C542 0.930 . S
H530 C543 0.930 . S
H531 C547 0.959 . S
H532 C547 0.959 . S
H533 C547 0.961 . S
H534 C548 0.960 . S
H535 C548 0.961 . S
H536 C548 0.959 . S
H537 C551 0.929 . S
H538 C552 0.931 . S
H539 C554 0.930 . S
C540 H528 0.930 . S
C540 C541 1.399 . S
C540 C545 1.399 . S
C541 C540 1.399 . S
C541 C542 1.376 . S
C542 H529 0.930 . S
C542 C541 1.376 . S
C542 C543 1.388 . S
C543 H530 0.930 . S
C543 C542 1.388 . S
C543 C544 1.390 . S
C544 C543 1.390 . S
C544 C545 1.394 . S
C544 C550 1.465 . S
C545 C540 1.399 . S
C545 C544 1.394 . S
C545 C546 1.516 . S
C546 C545 1.516 . S
C546 C547 1.502 . S
C546 C548 1.561 . S
C546 C549 1.526 . S
C547 H531 0.959 . S
C547 H532 0.959 . S
C547 H533 0.961 . S
C547 C546 1.502 . S
C548 H534 0.960 . S
C548 H535 0.961 . S
C548 H536 0.959 . S
C548 C546 1.561 . S
C549 C546 1.526 . S
C549 C550 1.396 . S
C549 C554 1.390 . S
C550 C544 1.465 . S
C550 C549 1.396 . S
C550 C551 1.399 . S
C551 H537 0.929 . S
C551 C550 1.399 . S
C551 C552 1.385 . S
C552 H538 0.931 . S
C552 C551 1.385 . S
C552 C553 1.389 . S
C553 C552 1.389 . S
C553 C554 1.387 . S
C554 H539 0.930 . S
C554 C549 1.390 . S
C554 C553 1.387 . S
H555 C567 0.930 . S
H556 C569 0.930 . S
H557 C570 0.930 . S
H558 C574 0.959 . S
H559 C574 0.959 . S
H560 C574 0.961 . S
H561 C575 0.960 . S
H562 C575 0.961 . S
H563 C575 0.959 . S
H564 C578 0.929 . S
H565 C579 0.931 . S
H566 C581 0.930 . S
C567 H555 0.930 . S
C567 C568 1.399 . S
C567 C572 1.399 . S
C568 C567 1.399 . S
C568 C569 1.376 . S
C569 H556 0.930 . S
C569 C568 1.376 . S
C569 C570 1.388 . S
C570 H557 0.930 . S
C570 C569 1.388 . S
C570 C571 1.390 . S
C571 C570 1.390 . S
C571 C572 1.394 . S
C571 C577 1.465 . S
C572 C567 1.399 . S
C572 C571 1.394 . S
C572 C573 1.516 . S
C573 C572 1.516 . S
C573 C574 1.502 . S
C573 C575 1.561 . S
C573 C576 1.526 . S
C574 H558 0.959 . S
C574 H559 0.959 . S
C574 H560 0.961 . S
C574 C573 1.502 . S
C575 H561 0.960 . S
C575 H562 0.961 . S
C575 H563 0.959 . S
C575 C573 1.561 . S
C576 C573 1.526 . S
C576 C577 1.396 . S
C576 C581 1.390 . S
C577 C571 1.465 . S
C577 C576 1.396 . S
C577 C578 1.399 . S
C578 H564 0.929 . S
C578 C577 1.399 . S
C578 C579 1.385 . S
C579 H565 0.931 . S
C579 C578 1.385 . S
C579 C580 1.389 . S
C580 C579 1.389 . S
C580 C581 1.387 . S
C581 H566 0.930 . S
C581 C576 1.390 . S
C581 C580 1.387 . S
H582 C594 0.930 . S
H583 C596 0.930 . S
H584 C597 0.930 . S
H585 C601 0.959 . S
H586 C601 0.959 . S
H587 C601 0.961 . S
H588 C602 0.960 . S
H589 C602 0.961 . S
H590 C602 0.959 . S
H591 C605 0.929 . S
H592 C606 0.931 . S
H593 C608 0.930 . S
C594 H582 0.930 . S
C594 C595 1.399 . S
C594 C599 1.399 . S
C595 C594 1.399 . S
C595 C596 1.376 . S
C596 H583 0.930 . S
C596 C595 1.376 . S
C596 C597 1.388 . S
C597 H584 0.930 . S
C597 C596 1.388 . S
C597 C598 1.390 . S
C598 C597 1.390 . S
C598 C599 1.394 . S
C598 C604 1.465 . S
C599 C594 1.399 . S
C599 C598 1.394 . S
C599 C600 1.516 . S
C600 C599 1.516 . S
C600 C601 1.502 . S
C600 C602 1.561 . S
C600 C603 1.526 . S
C601 H585 0.959 . S
C601 H586 0.959 . S
C601 H587 0.961 . S
C601 C600 1.502 . S
C602 H588 0.960 . S
C602 H589 0.961 . S
C602 H590 0.959 . S
C602 C600 1.561 . S
C603 C600 1.526 . S
C603 C604 1.396 . S
C603 C608 1.390 . S
C604 C598 1.465 . S
C604 C603 1.396 . S
C604 C605 1.399 . S
C605 H591 0.929 . S
C605 C604 1.399 . S
C605 C606 1.385 . S
C606 H592 0.931 . S
C606 C605 1.385 . S
C606 C607 1.389 . S
C607 C606 1.389 . S
C607 C608 1.387 . S
C608 H593 0.930 . S
C608 C603 1.390 . S
C608 C607 1.387 . S
H609 C621 0.930 . S
H610 C623 0.930 . S
H611 C624 0.930 . S
H612 C628 0.959 . S
H613 C628 0.959 . S
H614 C628 0.961 . S
H615 C629 0.960 . S
H616 C629 0.961 . S
H617 C629 0.959 . S
H618 C632 0.929 . S
H619 C633 0.931 . S
H620 C635 0.930 . S
C621 H609 0.930 . S
C621 C622 1.399 . S
C621 C626 1.399 . S
C622 C621 1.399 . S
C622 C623 1.376 . S
C623 H610 0.930 . S
C623 C622 1.376 . S
C623 C624 1.388 . S
C624 H611 0.930 . S
C624 C623 1.388 . S
C624 C625 1.390 . S
C625 C624 1.390 . S
C625 C626 1.394 . S
C625 C631 1.465 . S
C626 C621 1.399 . S
C626 C625 1.394 . S
C626 C627 1.516 . S
C627 C626 1.516 . S
C627 C628 1.502 . S
C627 C629 1.561 . S
C627 C630 1.526 . S
C628 H612 0.959 . S
C628 H613 0.959 . S
C628 H614 0.961 . S
C628 C627 1.502 . S
C629 H615 0.960 . S
C629 H616 0.961 . S
C629 H617 0.959 . S
C629 C627 1.561 . S
C630 C627 1.526 . S
C630 C631 1.396 . S
C630 C635 1.390 . S
C631 C625 1.465 . S
C631 C630 1.396 . S
C631 C632 1.399 . S
C632 H618 0.929 . S
C632 C631 1.399 . S
C632 C633 1.385 . S
C633 H619 0.931 . S
C633 C632 1.385 . S
C633 C634 1.389 . S
C634 C633 1.389 . S
C634 C635 1.387 . S
C635 H620 0.930 . S
C635 C630 1.390 . S
C635 C634 1.387 . S
H636 C648 0.930 . S
H637 C650 0.930 . S
H638 C651 0.930 . S
H639 C655 0.959 . S
H640 C655 0.959 . S
H641 C655 0.961 . S
H642 C656 0.960 . S
H643 C656 0.961 . S
H644 C656 0.959 . S
H645 C659 0.929 . S
H646 C660 0.931 . S
H647 C662 0.930 . S
C648 H636 0.930 . S
C648 C649 1.399 . S
C648 C653 1.399 . S
C649 C648 1.399 . S
C649 C650 1.376 . S
C650 H637 0.930 . S
C650 C649 1.376 . S
C650 C651 1.388 . S
C651 H638 0.930 . S
C651 C650 1.388 . S
C651 C652 1.390 . S
C652 C651 1.390 . S
C652 C653 1.394 . S
C652 C658 1.465 . S
C653 C648 1.399 . S
C653 C652 1.394 . S
C653 C654 1.516 . S
C654 C653 1.516 . S
C654 C655 1.502 . S
C654 C656 1.561 . S
C654 C657 1.526 . S
C655 H639 0.959 . S
C655 H640 0.959 . S
C655 H641 0.961 . S
C655 C654 1.502 . S
C656 H642 0.960 . S
C656 H643 0.961 . S
C656 H644 0.959 . S
C656 C654 1.561 . S
C657 C654 1.526 . S
C657 C658 1.396 . S
C657 C662 1.390 . S
C658 C652 1.465 . S
C658 C657 1.396 . S
C658 C659 1.399 . S
C659 H645 0.929 . S
C659 C658 1.399 . S
C659 C660 1.385 . S
C660 H646 0.931 . S
C660 C659 1.385 . S
C660 C661 1.389 . S
C661 C660 1.389 . S
C661 C662 1.387 . S
C662 H647 0.930 . S
C662 C657 1.390 . S
C662 C661 1.387 . S
H663 C675 0.930 . S
H664 C677 0.930 . S
H665 C678 0.930 . S
H666 C682 0.959 . S
H667 C682 0.959 . S
H668 C682 0.961 . S
H669 C683 0.960 . S
H670 C683 0.961 . S
H671 C683 0.959 . S
H672 C686 0.929 . S
H673 C687 0.931 . S
H674 C689 0.930 . S
C675 H663 0.930 . S
C675 C676 1.399 . S
C675 C680 1.399 . S
C676 C675 1.399 . S
C676 C677 1.376 . S
C677 H664 0.930 . S
C677 C676 1.376 . S
C677 C678 1.388 . S
C678 H665 0.930 . S
C678 C677 1.388 . S
C678 C679 1.390 . S
C679 C678 1.390 . S
C679 C680 1.394 . S
C679 C685 1.465 . S
C680 C675 1.399 . S
C680 C679 1.394 . S
C680 C681 1.516 . S
C681 C680 1.516 . S
C681 C682 1.502 . S
C681 C683 1.561 . S
C681 C684 1.526 . S
C682 H666 0.959 . S
C682 H667 0.959 . S
C682 H668 0.961 . S
C682 C681 1.502 . S
C683 H669 0.960 . S
C683 H670 0.961 . S
C683 H671 0.959 . S
C683 C681 1.561 . S
C684 C681 1.526 . S
C684 C685 1.396 . S
C684 C689 1.390 . S
C685 C679 1.465 . S
C685 C684 1.396 . S
C685 C686 1.399 . S
C686 H672 0.929 . S
C686 C685 1.399 . S
C686 C687 1.385 . S
C687 H673 0.931 . S
C687 C686 1.385 . S
C687 C688 1.389 . S
C688 C687 1.389 . S
C688 C689 1.387 . S
C689 H674 0.930 . S
C689 C684 1.390 . S
C689 C688 1.387 . S
H690 C702 0.930 . S
H691 C704 0.930 . S
H692 C705 0.930 . S
H693 C709 0.959 . S
H694 C709 0.959 . S
H695 C709 0.961 . S
H696 C710 0.960 . S
H697 C710 0.961 . S
H698 C710 0.959 . S
H699 C713 0.929 . S
H700 C714 0.931 . S
H701 C716 0.930 . S
C702 H690 0.930 . S
C702 C703 1.399 . S
C702 C707 1.399 . S
C703 C702 1.399 . S
C703 C704 1.376 . S
C704 H691 0.930 . S
C704 C703 1.376 . S
C704 C705 1.388 . S
C705 H692 0.930 . S
C705 C704 1.388 . S
C705 C706 1.390 . S
C706 C705 1.390 . S
C706 C707 1.394 . S
C706 C712 1.465 . S
C707 C702 1.399 . S
C707 C706 1.394 . S
C707 C708 1.516 . S
C708 C707 1.516 . S
C708 C709 1.502 . S
C708 C710 1.561 . S
C708 C711 1.526 . S
C709 H693 0.959 . S
C709 H694 0.959 . S
C709 H695 0.961 . S
C709 C708 1.502 . S
C710 H696 0.960 . S
C710 H697 0.961 . S
C710 H698 0.959 . S
C710 C708 1.561 . S
C711 C708 1.526 . S
C711 C712 1.396 . S
C711 C716 1.390 . S
C712 C706 1.465 . S
C712 C711 1.396 . S
C712 C713 1.399 . S
C713 H699 0.929 . S
C713 C712 1.399 . S
C713 C714 1.385 . S
C714 H700 0.931 . S
C714 C713 1.385 . S
C714 C715 1.389 . S
C715 C714 1.389 . S
C715 C716 1.387 . S
C716 H701 0.930 . S
C716 C711 1.390 . S
C716 C715 1.387 . S
H717 C729 0.930 . S
H718 C731 0.930 . S
H719 C732 0.930 . S
H720 C736 0.959 . S
H721 C736 0.959 . S
H722 C736 0.961 . S
H723 C737 0.960 . S
H724 C737 0.961 . S
H725 C737 0.959 . S
H726 C740 0.929 . S
H727 C741 0.931 . S
H728 C743 0.930 . S
C729 H717 0.930 . S
C729 C730 1.399 . S
C729 C734 1.399 . S
C730 C729 1.399 . S
C730 C731 1.376 . S
C731 H718 0.930 . S
C731 C730 1.376 . S
C731 C732 1.388 . S
C732 H719 0.930 . S
C732 C731 1.388 . S
C732 C733 1.390 . S
C733 C732 1.390 . S
C733 C734 1.394 . S
C733 C739 1.465 . S
C734 C729 1.399 . S
C734 C733 1.394 . S
C734 C735 1.516 . S
C735 C734 1.516 . S
C735 C736 1.502 . S
C735 C737 1.561 . S
C735 C738 1.526 . S
C736 H720 0.959 . S
C736 H721 0.959 . S
C736 H722 0.961 . S
C736 C735 1.502 . S
C737 H723 0.960 . S
C737 H724 0.961 . S
C737 H725 0.959 . S
C737 C735 1.561 . S
C738 C735 1.526 . S
C738 C739 1.396 . S
C738 C743 1.390 . S
C739 C733 1.465 . S
C739 C738 1.396 . S
C739 C740 1.399 . S
C740 H726 0.929 . S
C740 C739 1.399 . S
C740 C741 1.385 . S
C741 H727 0.931 . S
C741 C740 1.385 . S
C741 C742 1.389 . S
C742 C741 1.389 . S
C742 C743 1.387 . S
C743 H728 0.930 . S
C743 C738 1.390 . S
C743 C742 1.387 . S
H744 C756 0.930 . S
H745 C758 0.930 . S
H746 C759 0.930 . S
H747 C763 0.959 . S
H748 C763 0.959 . S
H749 C763 0.961 . S
H750 C764 0.960 . S
H751 C764 0.961 . S
H752 C764 0.959 . S
H753 C767 0.929 . S
H754 C768 0.931 . S
H755 C770 0.930 . S
C756 H744 0.930 . S
C756 C757 1.399 . S
C756 C761 1.399 . S
C757 C756 1.399 . S
C757 C758 1.376 . S
C758 H745 0.930 . S
C758 C757 1.376 . S
C758 C759 1.388 . S
C759 H746 0.930 . S
C759 C758 1.388 . S
C759 C760 1.390 . S
C760 C759 1.390 . S
C760 C761 1.394 . S
C760 C766 1.465 . S
C761 C756 1.399 . S
C761 C760 1.394 . S
C761 C762 1.516 . S
C762 C761 1.516 . S
C762 C763 1.502 . S
C762 C764 1.561 . S
C762 C765 1.526 . S
C763 H747 0.959 . S
C763 H748 0.959 . S
C763 H749 0.961 . S
C763 C762 1.502 . S
C764 H750 0.960 . S
C764 H751 0.961 . S
C764 H752 0.959 . S
C764 C762 1.561 . S
C765 C762 1.526 . S
C765 C766 1.396 . S
C765 C770 1.390 . S
C766 C760 1.465 . S
C766 C765 1.396 . S
C766 C767 1.399 . S
C767 H753 0.929 . S
C767 C766 1.399 . S
C767 C768 1.385 . S
C768 H754 0.931 . S
C768 C767 1.385 . S
C768 C769 1.389 . S
C769 C768 1.389 . S
C769 C770 1.387 . S
C770 H755 0.930 . S
C770 C765 1.390 . S
C770 C769 1.387 . S
H771 C783 0.930 . S
H772 C785 0.930 . S
H773 C786 0.930 . S
H774 C790 0.959 . S
H775 C790 0.959 . S
H776 C790 0.961 . S
H777 C791 0.960 . S
H778 C791 0.961 . S
H779 C791 0.959 . S
H780 C794 0.929 . S
H781 C795 0.931 . S
H782 C797 0.930 . S
C783 H771 0.930 . S
C783 C784 1.399 . S
C783 C788 1.399 . S
C784 C783 1.399 . S
C784 C785 1.376 . S
C785 H772 0.930 . S
C785 C784 1.376 . S
C785 C786 1.388 . S
C786 H773 0.930 . S
C786 C785 1.388 . S
C786 C787 1.390 . S
C787 C786 1.390 . S
C787 C788 1.394 . S
C787 C793 1.465 . S
C788 C783 1.399 . S
C788 C787 1.394 . S
C788 C789 1.516 . S
C789 C788 1.516 . S
C789 C790 1.502 . S
C789 C791 1.561 . S
C789 C792 1.526 . S
C790 H774 0.959 . S
C790 H775 0.959 . S
C790 H776 0.961 . S
C790 C789 1.502 . S
C791 H777 0.960 . S
C791 H778 0.961 . S
C791 H779 0.959 . S
C791 C789 1.561 . S
C792 C789 1.526 . S
C792 C793 1.396 . S
C792 C797 1.390 . S
C793 C787 1.465 . S
C793 C792 1.396 . S
C793 C794 1.399 . S
C794 H780 0.929 . S
C794 C793 1.399 . S
C794 C795 1.385 . S
C795 H781 0.931 . S
C795 C794 1.385 . S
C795 C796 1.389 . S
C796 C795 1.389 . S
C796 C797 1.387 . S
C797 H782 0.930 . S
C797 C792 1.390 . S
C797 C796 1.387 . S
H798 C810 0.930 . S
H799 C812 0.930 . S
H800 C813 0.930 . S
H801 C817 0.959 . S
H802 C817 0.959 . S
H803 C817 0.961 . S
H804 C818 0.960 . S
H805 C818 0.961 . S
H806 C818 0.959 . S
H807 C821 0.929 . S
H808 C822 0.931 . S
H809 C824 0.930 . S
C810 H798 0.930 . S
C810 C811 1.399 . S
C810 C815 1.399 . S
C811 C810 1.399 . S
C811 C812 1.376 . S
C812 H799 0.930 . S
C812 C811 1.376 . S
C812 C813 1.388 . S
C813 H800 0.930 . S
C813 C812 1.388 . S
C813 C814 1.390 . S
C814 C813 1.390 . S
C814 C815 1.394 . S
C814 C820 1.465 . S
C815 C810 1.399 . S
C815 C814 1.394 . S
C815 C816 1.516 . S
C816 C815 1.516 . S
C816 C817 1.502 . S
C816 C818 1.561 . S
C816 C819 1.526 . S
C817 H801 0.959 . S
C817 H802 0.959 . S
C817 H803 0.961 . S
C817 C816 1.502 . S
C818 H804 0.960 . S
C818 H805 0.961 . S
C818 H806 0.959 . S
C818 C816 1.561 . S
C819 C816 1.526 . S
C819 C820 1.396 . S
C819 C824 1.390 . S
C820 C814 1.465 . S
C820 C819 1.396 . S
C820 C821 1.399 . S
C821 H807 0.929 . S
C821 C820 1.399 . S
C821 C822 1.385 . S
C822 H808 0.931 . S
C822 C821 1.385 . S
C822 C823 1.389 . S
C823 C822 1.389 . S
C823 C824 1.387 . S
C824 H809 0.930 . S
C824 C819 1.390 . S
C824 C823 1.387 . S
H825 C837 0.930 . S
H826 C839 0.930 . S
H827 C840 0.930 . S
H828 C844 0.959 . S
H829 C844 0.959 . S
H830 C844 0.961 . S
H831 C845 0.960 . S
H832 C845 0.961 . S
H833 C845 0.959 . S
H834 C848 0.929 . S
H835 C849 0.931 . S
H836 C851 0.930 . S
C837 H825 0.930 . S
C837 C838 1.399 . S
C837 C842 1.399 . S
C838 C837 1.399 . S
C838 C839 1.376 . S
C839 H826 0.930 . S
C839 C838 1.376 . S
C839 C840 1.388 . S
C840 H827 0.930 . S
C840 C839 1.388 . S
C840 C841 1.390 . S
C841 C840 1.390 . S
C841 C842 1.394 . S
C841 C847 1.465 . S
C842 C837 1.399 . S
C842 C841 1.394 . S
C842 C843 1.516 . S
C843 C842 1.516 . S
C843 C844 1.502 . S
C843 C845 1.561 . S
C843 C846 1.526 . S
C844 H828 0.959 . S
C844 H829 0.959 . S
C844 H830 0.961 . S
C844 C843 1.502 . S
C845 H831 0.960 . S
C845 H832 0.961 . S
C845 H833 0.959 . S
C845 C843 1.561 . S
C846 C843 1.526 . S
C846 C847 1.396 . S
C846 C851 1.390 . S
C847 C841 1.465 . S
C847 C846 1.396 . S
C847 C848 1.399 . S
C848 H834 0.929 . S
C848 C847 1.399 . S
C848 C849 1.385 . S
C849 H835 0.931 . S
C849 C848 1.385 . S
C849 C850 1.389 . S
C850 C849 1.389 . S
C850 C851 1.387 . S
C851 H836 0.930 . S
C851 C846 1.390 . S
C851 C850 1.387 . S
H852 C864 0.930 . S
H853 C866 0.930 . S
H854 C867 0.930 . S
H855 C871 0.959 . S
H856 C871 0.959 . S
H857 C871 0.961 . S
H858 C872 0.960 . S
H859 C872 0.961 . S
H860 C872 0.959 . S
H861 C875 0.929 . S
H862 C876 0.931 . S
H863 C878 0.930 . S
C864 H852 0.930 . S
C864 C865 1.399 . S
C864 C869 1.399 . S
C865 C864 1.399 . S
C865 C866 1.376 . S
C866 H853 0.930 . S
C866 C865 1.376 . S
C866 C867 1.388 . S
C867 H854 0.930 . S
C867 C866 1.388 . S
C867 C868 1.390 . S
C868 C867 1.390 . S
C868 C869 1.394 . S
C868 C874 1.465 . S
C869 C864 1.399 . S
C869 C868 1.394 . S
C869 C870 1.516 . S
C870 C869 1.516 . S
C870 C871 1.502 . S
C870 C872 1.561 . S
C870 C873 1.526 . S
C871 H855 0.959 . S
C871 H856 0.959 . S
C871 H857 0.961 . S
C871 C870 1.502 . S
C872 H858 0.960 . S
C872 H859 0.961 . S
C872 H860 0.959 . S
C872 C870 1.561 . S
C873 C870 1.526 . S
C873 C874 1.396 . S
C873 C878 1.390 . S
C874 C868 1.465 . S
C874 C873 1.396 . S
C874 C875 1.399 . S
C875 H861 0.929 . S
C875 C874 1.399 . S
C875 C876 1.385 . S
C876 H862 0.931 . S
C876 C875 1.385 . S
C876 C877 1.389 . S
C877 C876 1.389 . S
C877 C878 1.387 . S
C878 H863 0.930 . S
C878 C873 1.390 . S
C878 C877 1.387 . S
H879 C891 0.930 . S
H880 C893 0.930 . S
H881 C894 0.930 . S
H882 C898 0.959 . S
H883 C898 0.959 . S
H884 C898 0.961 . S
H885 C899 0.960 . S
H886 C899 0.961 . S
H887 C899 0.959 . S
H888 C902 0.929 . S
H889 C903 0.931 . S
H890 C905 0.930 . S
C891 H879 0.930 . S
C891 C892 1.399 . S
C891 C896 1.399 . S
C892 C891 1.399 . S
C892 C893 1.376 . S
C893 H880 0.930 . S
C893 C892 1.376 . S
C893 C894 1.388 . S
C894 H881 0.930 . S
C894 C893 1.388 . S
C894 C895 1.390 . S
C895 C894 1.390 . S
C895 C896 1.394 . S
C895 C901 1.465 . S
C896 C891 1.399 . S
C896 C895 1.394 . S
C896 C897 1.516 . S
C897 C896 1.516 . S
C897 C898 1.502 . S
C897 C899 1.561 . S
C897 C900 1.526 . S
C898 H882 0.959 . S
C898 H883 0.959 . S
C898 H884 0.961 . S
C898 C897 1.502 . S
C899 H885 0.960 . S
C899 H886 0.961 . S
C899 H887 0.959 . S
C899 C897 1.561 . S
C900 C897 1.526 . S
C900 C901 1.396 . S
C900 C905 1.390 . S
C901 C895 1.465 . S
C901 C900 1.396 . S
C901 C902 1.399 . S
C902 H888 0.929 . S
C902 C901 1.399 . S
C902 C903 1.385 . S
C903 H889 0.931 . S
C903 C902 1.385 . S
C903 C904 1.389 . S
C904 C903 1.389 . S
C904 C905 1.387 . S
C905 H890 0.930 . S
C905 C900 1.390 . S
C905 C904 1.387 . S
H906 C918 0.930 . S
H907 C920 0.930 . S
H908 C921 0.930 . S
H909 C925 0.959 . S
H910 C925 0.959 . S
H911 C925 0.961 . S
H912 C926 0.960 . S
H913 C926 0.961 . S
H914 C926 0.959 . S
H915 C929 0.929 . S
H916 C930 0.931 . S
H917 C932 0.930 . S
C918 H906 0.930 . S
C918 C919 1.399 . S
C918 C923 1.399 . S
C919 C918 1.399 . S
C919 C920 1.376 . S
C920 H907 0.930 . S
C920 C919 1.376 . S
C920 C921 1.388 . S
C921 H908 0.930 . S
C921 C920 1.388 . S
C921 C922 1.390 . S
C922 C921 1.390 . S
C922 C923 1.394 . S
C922 C928 1.465 . S
C923 C918 1.399 . S
C923 C922 1.394 . S
C923 C924 1.516 . S
C924 C923 1.516 . S
C924 C925 1.502 . S
C924 C926 1.561 . S
C924 C927 1.526 . S
C925 H909 0.959 . S
C925 H910 0.959 . S
C925 H911 0.961 . S
C925 C924 1.502 . S
C926 H912 0.960 . S
C926 H913 0.961 . S
C926 H914 0.959 . S
C926 C924 1.561 . S
C927 C924 1.526 . S
C927 C928 1.396 . S
C927 C932 1.390 . S
C928 C922 1.465 . S
C928 C927 1.396 . S
C928 C929 1.399 . S
C929 H915 0.929 . S
C929 C928 1.399 . S
C929 C930 1.385 . S
C930 H916 0.931 . S
C930 C929 1.385 . S
C930 C931 1.389 . S
C931 C930 1.389 . S
C931 C932 1.387 . S
C932 H917 0.930 . S
C932 C927 1.390 . S
C932 C931 1.387 . S
H933 C945 0.930 . S
H934 C947 0.930 . S
H935 C948 0.930 . S
H936 C952 0.959 . S
H937 C952 0.959 . S
H938 C952 0.961 . S
H939 C953 0.960 . S
H940 C953 0.961 . S
H941 C953 0.959 . S
H942 C956 0.929 . S
H943 C957 0.931 . S
H944 C959 0.930 . S
C945 H933 0.930 . S
C945 C946 1.399 . S
C945 C950 1.399 . S
C946 C945 1.399 . S
C946 C947 1.376 . S
C947 H934 0.930 . S
C947 C946 1.376 . S
C947 C948 1.388 . S
C948 H935 0.930 . S
C948 C947 1.388 . S
C948 C949 1.390 . S
C949 C948 1.390 . S
C949 C950 1.394 . S
C949 C955 1.465 . S
C950 C945 1.399 . S
C950 C949 1.394 . S
C950 C951 1.516 . S
C951 C950 1.516 . S
C951 C952 1.502 . S
C951 C953 1.561 . S
C951 C954 1.526 . S
C952 H936 0.959 . S
C952 H937 0.959 . S
C952 H938 0.961 . S
C952 C951 1.502 . S
C953 H939 0.960 . S
C953 H940 0.961 . S
C953 H941 0.959 . S
C953 C951 1.561 . S
C954 C951 1.526 . S
C954 C955 1.396 . S
C954 C959 1.390 . S
C955 C949 1.465 . S
C955 C954 1.396 . S
C955 C956 1.399 . S
C956 H942 0.929 . S
C956 C955 1.399 . S
C956 C957 1.385 . S
C957 H943 0.931 . S
C957 C956 1.385 . S
C957 C958 1.389 . S
C958 C957 1.389 . S
C958 C959 1.387 . S
C959 H944 0.930 . S
C959 C954 1.390 . S
C959 C958 1.387 . S
H960 C972 0.930 . S
H961 C974 0.930 . S
H962 C975 0.930 . S
H963 C979 0.959 . S
H964 C979 0.959 . S
H965 C979 0.961 . S
H966 C980 0.960 . S
H967 C980 0.961 . S
H968 C980 0.959 . S
H969 C983 0.929 . S
H970 C984 0.931 . S
H971 C986 0.930 . S
C972 H960 0.930 . S
C972 C973 1.399 . S
C972 C977 1.399 . S
C973 C972 1.399 . S
C973 C974 1.376 . S
C974 H961 0.930 . S
C974 C973 1.376 . S
C974 C975 1.388 . S
C975 H962 0.930 . S
C975 C974 1.388 . S
C975 C976 1.390 . S
C976 C975 1.390 . S
C976 C977 1.394 . S
C976 C982 1.465 . S
C977 C972 1.399 . S
C977 C976 1.394 . S
C977 C978 1.516 . S
C978 C977 1.516 . S
C978 C979 1.502 . S
C978 C980 1.561 . S
C978 C981 1.526 . S
C979 H963 0.959 . S
C979 H964 0.959 . S
C979 H965 0.961 . S
C979 C978 1.502 . S
C980 H966 0.960 . S
C980 H967 0.961 . S
C980 H968 0.959 . S
C980 C978 1.561 . S
C981 C978 1.526 . S
C981 C982 1.396 . S
C981 C986 1.390 . S
C982 C976 1.465 . S
C982 C981 1.396 . S
C982 C983 1.399 . S
C983 H969 0.929 . S
C983 C982 1.399 . S
C983 C984 1.385 . S
C984 H970 0.931 . S
C984 C983 1.385 . S
C984 C985 1.389 . S
C985 C984 1.389 . S
C985 C986 1.387 . S
C986 H971 0.930 . S
C986 C981 1.390 . S
C986 C985 1.387 . S
H987 C999 0.930 . S
H988 C1001 0.930 . S
H989 C1002 0.930 . S
H990 C1006 0.959 . S
H991 C1006 0.959 . S
H992 C1006 0.961 . S
H993 C1007 0.960 . S
H994 C1007 0.961 . S
H995 C1007 0.959 . S
H996 C1010 0.929 . S
H997 C1011 0.931 . S
H998 C1013 0.930 . S
C999 H987 0.930 . S
C999 C1000 1.399 . S
C999 C1004 1.399 . S
C1000 C999 1.399 . S
C1000 C1001 1.376 . S
C1001 H988 0.930 . S
C1001 C1000 1.376 . S
C1001 C1002 1.388 . S
C1002 H989 0.930 . S
C1002 C1001 1.388 . S
C1002 C1003 1.390 . S
C1003 C1002 1.390 . S
C1003 C1004 1.394 . S
C1003 C1009 1.465 . S
C1004 C999 1.399 . S
C1004 C1003 1.394 . S
C1004 C1005 1.516 . S
C1005 C1004 1.516 . S
C1005 C1006 1.502 . S
C1005 C1007 1.561 . S
C1005 C1008 1.526 . S
C1006 H990 0.959 . S
C1006 H991 0.959 . S
C1006 H992 0.961 . S
C1006 C1005 1.502 . S
C1007 H993 0.960 . S
C1007 H994 0.961 . S
C1007 H995 0.959 . S
C1007 C1005 1.561 . S
C1008 C1005 1.526 . S
C1008 C1009 1.396 . S
C1008 C1013 1.390 . S
C1009 C1003 1.465 . S
C1009 C1008 1.396 . S
C1009 C1010 1.399 . S
C1010 H996 0.929 . S
C1010 C1009 1.399 . S
C1010 C1011 1.385 . S
C1011 H997 0.931 . S
C1011 C1010 1.385 . S
C1011 C1012 1.389 . S
C1012 C1011 1.389 . S
C1012 C1013 1.387 . S
C1013 H998 0.930 . S
C1013 C1008 1.390 . S
C1013 C1012 1.387 . S
H1014 C1026 0.930 . S
H1015 C1028 0.930 . S
H1016 C1029 0.930 . S
H1017 C1033 0.958 1_565 S
H1018 C1033 0.959 . S
H1019 C1033 0.961 1_565 S
H1020 C1034 0.960 1_565 S
H1021 C1034 0.961 . S
H1022 C1034 0.959 . S
H1023 C1037 0.929 . S
H1024 C1038 0.931 . S
H1025 C1040 0.930 . S
C1026 H1014 0.930 . S
C1026 C1027 1.399 . S
C1026 C1031 1.399 . S
C1027 C1026 1.399 . S
C1027 C1028 1.376 . S
C1028 H1015 0.930 . S
C1028 C1027 1.376 . S
C1028 C1029 1.388 . S
C1029 H1016 0.930 . S
C1029 C1028 1.388 . S
C1029 C1030 1.390 . S
C1030 C1029 1.390 . S
C1030 C1031 1.394 . S
C1030 C1036 1.465 1_565 S
C1031 C1026 1.399 . S
C1031 C1030 1.394 . S
C1031 C1032 1.516 1_565 S
C1032 C1031 1.516 1_545 S
C1032 C1033 1.502 . S
C1032 C1034 1.561 . S
C1032 C1035 1.526 . S
C1033 H1017 0.958 1_545 S
C1033 H1018 0.959 . S
C1033 H1019 0.961 1_545 S
C1033 C1032 1.502 . S
C1034 H1020 0.960 1_545 S
C1034 H1021 0.961 . S
C1034 H1022 0.959 . S
C1034 C1032 1.561 . S
C1035 C1032 1.526 . S
C1035 C1036 1.396 . S
C1035 C1040 1.390 . S
C1036 C1030 1.465 1_545 S
C1036 C1035 1.396 . S
C1036 C1037 1.399 . S
C1037 H1023 0.929 . S
C1037 C1036 1.399 . S
C1037 C1038 1.385 . S
C1038 H1024 0.931 . S
C1038 C1037 1.385 . S
C1038 C1039 1.389 . S
C1039 C1038 1.389 . S
C1039 C1040 1.387 . S
C1040 H1025 0.930 . S
C1040 C1035 1.390 . S
C1040 C1039 1.387 . S
H1041 C1053 0.930 . S
H1042 C1055 0.930 . S
H1043 C1056 0.930 . S
H1044 C1060 0.959 . S
H1045 C1060 0.959 1_655 S
H1046 C1060 0.961 . S
H1047 C1061 0.958 . S
H1048 C1061 0.962 1_655 S
H1049 C1061 0.959 1_655 S
H1050 C1064 0.929 . S
H1051 C1065 0.931 . S
H1052 C1067 0.930 . S
C1053 H1041 0.930 . S
C1053 C1054 1.399 . S
C1053 C1058 1.399 . S
C1054 C1053 1.399 . S
C1054 C1055 1.376 . S
C1055 H1042 0.930 . S
C1055 C1054 1.376 . S
C1055 C1056 1.388 . S
C1056 H1043 0.930 . S
C1056 C1055 1.388 . S
C1056 C1057 1.390 . S
C1057 C1056 1.390 . S
C1057 C1058 1.394 . S
C1057 C1063 1.465 1_455 S
C1058 C1053 1.399 . S
C1058 C1057 1.394 . S
C1058 C1059 1.516 . S
C1059 C1058 1.516 . S
C1059 C1060 1.502 . S
C1059 C1061 1.561 . S
C1059 C1062 1.526 1_455 S
C1060 H1044 0.959 . S
C1060 H1045 0.959 1_455 S
C1060 H1046 0.961 . S
C1060 C1059 1.502 . S
C1061 H1047 0.958 . S
C1061 H1048 0.962 1_455 S
C1061 H1049 0.959 1_455 S
C1061 C1059 1.561 . S
C1062 C1059 1.526 1_655 S
C1062 C1063 1.396 . S
C1062 C1067 1.390 . S
C1063 C1057 1.465 1_655 S
C1063 C1062 1.396 . S
C1063 C1064 1.399 . S
C1064 H1050 0.929 . S
C1064 C1063 1.399 . S
C1064 C1065 1.385 . S
C1065 H1051 0.931 . S
C1065 C1064 1.385 . S
C1065 C1066 1.389 . S
C1066 C1065 1.389 . S
C1066 C1067 1.387 . S
C1067 H1052 0.930 . S
C1067 C1062 1.390 . S
C1067 C1066 1.387 . S
H1068 C1080 0.930 . S
H1069 C1082 0.930 . S
H1070 C1083 0.930 . S
H1071 C1087 0.959 1_545 S
H1072 C1087 0.959 1_545 S
H1073 C1087 0.961 . S
H1074 C1088 0.960 . S
H1075 C1088 0.961 1_545 S
H1076 C1088 0.959 . S
H1077 C1091 0.929 . S
H1078 C1092 0.931 . S
H1079 C1094 0.930 . S
C1080 H1068 0.930 . S
C1080 C1081 1.399 . S
C1080 C1085 1.399 . S
C1081 C1080 1.399 . S
C1081 C1082 1.376 . S
C1082 H1069 0.930 . S
C1082 C1081 1.376 . S
C1082 C1083 1.388 . S
C1083 H1070 0.930 . S
C1083 C1082 1.388 . S
C1083 C1084 1.390 . S
C1084 C1083 1.390 . S
C1084 C1085 1.394 . S
C1084 C1090 1.465 1_565 S
C1085 C1080 1.399 . S
C1085 C1084 1.394 . S
C1085 C1086 1.516 . S
C1086 C1085 1.516 . S
C1086 C1087 1.502 . S
C1086 C1088 1.561 . S
C1086 C1089 1.526 1_565 S
C1087 H1071 0.959 1_565 S
C1087 H1072 0.959 1_565 S
C1087 H1073 0.961 . S
C1087 C1086 1.502 . S
C1088 H1074 0.960 . S
C1088 H1075 0.961 1_565 S
C1088 H1076 0.959 . S
C1088 C1086 1.561 . S
C1089 C1086 1.526 1_545 S
C1089 C1090 1.396 . S
C1089 C1094 1.390 . S
C1090 C1084 1.465 1_545 S
C1090 C1089 1.396 . S
C1090 C1091 1.399 . S
C1091 H1077 0.929 . S
C1091 C1090 1.399 . S
C1091 C1092 1.385 . S
C1092 H1078 0.931 . S
C1092 C1091 1.385 . S
C1092 C1093 1.389 . S
C1093 C1092 1.389 . S
C1093 C1094 1.387 . S
C1094 H1079 0.930 . S
C1094 C1089 1.390 . S
C1094 C1093 1.387 . S
H1095 C1107 0.930 . S
H1096 C1109 0.930 . S
H1097 C1110 0.930 . S
H1098 C1114 0.959 . S
H1099 C1114 0.959 . S
H1100 C1114 0.961 1_655 S
H1101 C1115 0.957 . S
H1102 C1115 0.964 1_455 S
H1103 C1115 0.959 . S
H1104 C1118 0.929 . S
H1105 C1119 0.931 . S
H1106 C1121 0.930 . S
C1107 H1095 0.930 . S
C1107 C1108 1.399 . S
C1107 C1112 1.399 . S
C1108 C1107 1.399 . S
C1108 C1109 1.376 . S
C1109 H1096 0.930 . S
C1109 C1108 1.376 . S
C1109 C1110 1.388 . S
C1110 H1097 0.930 . S
C1110 C1109 1.388 . S
C1110 C1111 1.390 . S
C1111 C1110 1.390 . S
C1111 C1112 1.394 . S
C1111 C1117 1.465 1_655 S
C1112 C1107 1.399 . S
C1112 C1111 1.394 . S
C1112 C1113 1.516 1_655 S
C1113 C1112 1.516 1_455 S
C1113 C1114 1.502 . S
C1113 C1115 1.562 1_455 S
C1113 C1116 1.526 . S
C1114 H1098 0.959 . S
C1114 H1099 0.959 . S
C1114 H1100 0.961 1_455 S
C1114 C1113 1.502 . S
C1115 H1101 0.957 . S
C1115 H1102 0.964 1_655 S
C1115 H1103 0.959 . S
C1115 C1113 1.562 1_655 S
C1116 C1113 1.526 . S
C1116 C1117 1.396 . S
C1116 C1121 1.390 . S
C1117 C1111 1.465 1_455 S
C1117 C1116 1.396 . S
C1117 C1118 1.399 . S
C1118 H1104 0.929 . S
C1118 C1117 1.399 . S
C1118 C1119 1.385 . S
C1119 H1105 0.931 . S
C1119 C1118 1.385 . S
C1119 C1120 1.389 . S
C1120 C1119 1.389 . S
C1120 C1121 1.387 . S
C1121 H1106 0.930 . S
C1121 C1116 1.390 . S
C1121 C1120 1.387 . S
H1122 C1134 0.930 . S
H1123 C1136 0.930 . S
H1124 C1137 0.930 . S
H1125 C1141 0.959 . S
H1126 C1141 0.959 . S
H1127 C1141 0.961 . S
H1128 C1142 0.960 . S
H1129 C1142 0.961 . S
H1130 C1142 0.959 . S
H1131 C1145 0.929 . S
H1132 C1146 0.931 . S
H1133 C1148 0.930 . S
C1134 H1122 0.930 . S
C1134 C1135 1.399 . S
C1134 C1139 1.399 . S
C1135 C1134 1.399 . S
C1135 C1136 1.376 . S
C1136 H1123 0.930 . S
C1136 C1135 1.376 . S
C1136 C1137 1.388 . S
C1137 H1124 0.930 . S
C1137 C1136 1.388 . S
C1137 C1138 1.390 . S
C1138 C1137 1.390 . S
C1138 C1139 1.394 . S
C1138 C1144 1.465 . S
C1139 C1134 1.399 . S
C1139 C1138 1.394 . S
C1139 C1140 1.516 . S
C1140 C1139 1.516 . S
C1140 C1141 1.502 . S
C1140 C1142 1.561 . S
C1140 C1143 1.526 . S
C1141 H1125 0.959 . S
C1141 H1126 0.959 . S
C1141 H1127 0.961 . S
C1141 C1140 1.502 . S
C1142 H1128 0.960 . S
C1142 H1129 0.961 . S
C1142 H1130 0.959 . S
C1142 C1140 1.561 . S
C1143 C1140 1.526 . S
C1143 C1144 1.396 . S
C1143 C1148 1.390 . S
C1144 C1138 1.465 . S
C1144 C1143 1.396 . S
C1144 C1145 1.399 . S
C1145 H1131 0.929 . S
C1145 C1144 1.399 . S
C1145 C1146 1.385 . S
C1146 H1132 0.931 . S
C1146 C1145 1.385 . S
C1146 C1147 1.389 . S
C1147 C1146 1.389 . S
C1147 C1148 1.387 . S
C1148 H1133 0.930 . S
C1148 C1143 1.390 . S
C1148 C1147 1.387 . S
H1149 C1161 0.930 . S
H1150 C1163 0.930 . S
H1151 C1164 0.930 . S
H1152 C1168 0.959 . S
H1153 C1168 0.959 . S
H1154 C1168 0.961 . S
H1155 C1169 0.960 . S
H1156 C1169 0.961 . S
H1157 C1169 0.959 . S
H1158 C1172 0.929 . S
H1159 C1173 0.931 . S
H1160 C1175 0.930 . S
C1161 H1149 0.930 . S
C1161 C1162 1.399 . S
C1161 C1166 1.399 . S
C1162 C1161 1.399 . S
C1162 C1163 1.376 . S
C1163 H1150 0.930 . S
C1163 C1162 1.376 . S
C1163 C1164 1.388 . S
C1164 H1151 0.930 . S
C1164 C1163 1.388 . S
C1164 C1165 1.390 . S
C1165 C1164 1.390 . S
C1165 C1166 1.394 . S
C1165 C1171 1.465 . S
C1166 C1161 1.399 . S
C1166 C1165 1.394 . S
C1166 C1167 1.516 . S
C1167 C1166 1.516 . S
C1167 C1168 1.502 . S
C1167 C1169 1.561 . S
C1167 C1170 1.526 . S
C1168 H1152 0.959 . S
C1168 H1153 0.959 . S
C1168 H1154 0.961 . S
C1168 C1167 1.502 . S
C1169 H1155 0.960 . S
C1169 H1156 0.961 . S
C1169 H1157 0.959 . S
C1169 C1167 1.561 . S
C1170 C1167 1.526 . S
C1170 C1171 1.396 . S
C1170 C1175 1.390 . S
C1171 C1165 1.465 . S
C1171 C1170 1.396 . S
C1171 C1172 1.399 . S
C1172 H1158 0.929 . S
C1172 C1171 1.399 . S
C1172 C1173 1.385 . S
C1173 H1159 0.931 . S
C1173 C1172 1.385 . S
C1173 C1174 1.389 . S
C1174 C1173 1.389 . S
C1174 C1175 1.387 . S
C1175 H1160 0.930 . S
C1175 C1170 1.390 . S
C1175 C1174 1.387 . S
H1176 C1188 0.930 . S
H1177 C1190 0.930 . S
H1178 C1191 0.930 . S
H1179 C1195 0.959 . S
H1180 C1195 0.959 . S
H1181 C1195 0.961 . S
H1182 C1196 0.960 . S
H1183 C1196 0.961 . S
H1184 C1196 0.959 . S
H1185 C1199 0.929 . S
H1186 C1200 0.931 . S
H1187 C1202 0.930 . S
C1188 H1176 0.930 . S
C1188 C1189 1.399 . S
C1188 C1193 1.399 . S
C1189 C1188 1.399 . S
C1189 C1190 1.376 . S
C1190 H1177 0.930 . S
C1190 C1189 1.376 . S
C1190 C1191 1.388 . S
C1191 H1178 0.930 . S
C1191 C1190 1.388 . S
C1191 C1192 1.390 . S
C1192 C1191 1.390 . S
C1192 C1193 1.394 . S
C1192 C1198 1.465 . S
C1193 C1188 1.399 . S
C1193 C1192 1.394 . S
C1193 C1194 1.516 . S
C1194 C1193 1.516 . S
C1194 C1195 1.502 . S
C1194 C1196 1.561 . S
C1194 C1197 1.526 . S
C1195 H1179 0.959 . S
C1195 H1180 0.959 . S
C1195 H1181 0.961 . S
C1195 C1194 1.502 . S
C1196 H1182 0.960 . S
C1196 H1183 0.961 . S
C1196 H1184 0.959 . S
C1196 C1194 1.561 . S
C1197 C1194 1.526 . S
C1197 C1198 1.396 . S
C1197 C1202 1.390 . S
C1198 C1192 1.465 . S
C1198 C1197 1.396 . S
C1198 C1199 1.399 . S
C1199 H1185 0.929 . S
C1199 C1198 1.399 . S
C1199 C1200 1.385 . S
C1200 H1186 0.931 . S
C1200 C1199 1.385 . S
C1200 C1201 1.389 . S
C1201 C1200 1.389 . S
C1201 C1202 1.387 . S
C1202 H1187 0.930 . S
C1202 C1197 1.390 . S
C1202 C1201 1.387 . S
H1203 C1215 0.930 . S
H1204 C1217 0.930 . S
H1205 C1218 0.930 . S
H1206 C1222 0.959 . S
H1207 C1222 0.959 . S
H1208 C1222 0.961 1_554 S
H1209 C1223 0.960 . S
H1210 C1223 0.961 1_556 S
H1211 C1223 0.959 . S
H1212 C1226 0.929 . S
H1213 C1227 0.931 . S
H1214 C1229 0.930 . S
C1215 H1203 0.930 . S
C1215 C1216 1.399 . S
C1215 C1220 1.399 . S
C1216 C1215 1.399 . S
C1216 C1217 1.376 . S
C1217 H1204 0.930 . S
C1217 C1216 1.376 . S
C1217 C1218 1.388 . S
C1218 H1205 0.930 . S
C1218 C1217 1.388 . S
C1218 C1219 1.390 . S
C1219 C1218 1.390 . S
C1219 C1220 1.394 . S
C1219 C1225 1.465 1_554 S
C1220 C1215 1.399 . S
C1220 C1219 1.394 . S
C1220 C1221 1.552 . S
C1221 C1220 1.552 . S
C1221 C1222 1.496 1_554 S
C1221 C1223 1.569 . S
C1221 C1224 1.489 1_554 S
C1222 H1206 0.959 . S
C1222 H1207 0.959 . S
C1222 H1208 0.961 1_556 S
C1222 C1221 1.496 1_556 S
C1223 H1209 0.960 . S
C1223 H1210 0.961 1_554 S
C1223 H1211 0.959 . S
C1223 C1221 1.569 . S
C1224 C1221 1.489 1_556 S
C1224 C1225 1.396 . S
C1224 C1229 1.390 . S
C1225 C1219 1.465 1_556 S
C1225 C1224 1.396 . S
C1225 C1226 1.399 . S
C1226 H1212 0.929 . S
C1226 C1225 1.399 . S
C1226 C1227 1.385 . S
C1227 H1213 0.931 . S
C1227 C1226 1.385 . S
C1227 C1228 1.389 . S
C1228 C1227 1.389 . S
C1228 C1229 1.387 . S
C1229 H1214 0.930 . S
C1229 C1224 1.390 . S
C1229 C1228 1.387 . S
H1230 C1242 0.930 . S
H1231 C1244 0.930 . S
H1232 C1245 0.930 . S
H1233 C1249 0.959 . S
H1234 C1249 0.959 . S
H1235 C1249 0.961 . S
H1236 C1250 0.960 . S
H1237 C1250 0.961 . S
H1238 C1250 0.959 . S
H1239 C1253 0.929 . S
H1240 C1254 0.931 . S
H1241 C1256 0.930 . S
C1242 H1230 0.930 . S
C1242 C1243 1.399 . S
C1242 C1247 1.399 . S
C1243 C1242 1.399 . S
C1243 C1244 1.376 . S
C1244 H1231 0.930 . S
C1244 C1243 1.376 . S
C1244 C1245 1.388 . S
C1245 H1232 0.930 . S
C1245 C1244 1.388 . S
C1245 C1246 1.390 . S
C1246 C1245 1.390 . S
C1246 C1247 1.394 . S
C1246 C1252 1.465 . S
C1247 C1242 1.399 . S
C1247 C1246 1.394 . S
C1247 C1248 1.516 . S
C1248 C1247 1.516 . S
C1248 C1249 1.502 . S
C1248 C1250 1.561 . S
C1248 C1251 1.526 . S
C1249 H1233 0.959 . S
C1249 H1234 0.959 . S
C1249 H1235 0.961 . S
C1249 C1248 1.502 . S
C1250 H1236 0.960 . S
C1250 H1237 0.961 . S
C1250 H1238 0.959 . S
C1250 C1248 1.561 . S
C1251 C1248 1.526 . S
C1251 C1252 1.396 . S
C1251 C1256 1.390 . S
C1252 C1246 1.465 . S
C1252 C1251 1.396 . S
C1252 C1253 1.399 . S
C1253 H1239 0.929 . S
C1253 C1252 1.399 . S
C1253 C1254 1.385 . S
C1254 H1240 0.931 . S
C1254 C1253 1.385 . S
C1254 C1255 1.389 . S
C1255 C1254 1.389 . S
C1255 C1256 1.387 . S
C1256 H1241 0.930 . S
C1256 C1251 1.390 . S
C1256 C1255 1.387 . S
H1257 C1269 0.930 . S
H1258 C1271 0.930 . S
H1259 C1272 0.930 . S
H1260 C1276 0.959 . S
H1261 C1276 0.959 1_554 S
H1262 C1276 0.961 . S
H1263 C1277 0.960 . S
H1264 C1277 0.961 1_554 S
H1265 C1277 0.959 1_554 S
H1266 C1280 0.929 . S
H1267 C1281 0.931 . S
H1268 C1283 0.930 . S
C1269 H1257 0.930 . S
C1269 C1270 1.399 . S
C1269 C1274 1.399 . S
C1270 C1269 1.399 . S
C1270 C1271 1.376 . S
C1271 H1258 0.930 . S
C1271 C1270 1.376 . S
C1271 C1272 1.388 . S
C1272 H1259 0.930 . S
C1272 C1271 1.388 . S
C1272 C1273 1.390 . S
C1273 C1272 1.390 . S
C1273 C1274 1.394 . S
C1273 C1279 1.465 1_556 S
C1274 C1269 1.399 . S
C1274 C1273 1.394 . S
C1274 C1275 1.516 . S
C1275 C1274 1.516 . S
C1275 C1276 1.502 . S
C1275 C1277 1.561 . S
C1275 C1278 1.526 1_556 S
C1276 H1260 0.959 . S
C1276 H1261 0.959 1_556 S
C1276 H1262 0.961 . S
C1276 C1275 1.502 . S
C1277 H1263 0.960 . S
C1277 H1264 0.961 1_556 S
C1277 H1265 0.959 1_556 S
C1277 C1275 1.561 . S
C1278 C1275 1.526 1_554 S
C1278 C1279 1.396 . S
C1278 C1283 1.390 . S
C1279 C1273 1.465 1_554 S
C1279 C1278 1.396 . S
C1279 C1280 1.399 . S
C1280 H1266 0.929 . S
C1280 C1279 1.399 . S
C1280 C1281 1.385 . S
C1281 H1267 0.931 . S
C1281 C1280 1.385 . S
C1281 C1282 1.389 . S
C1282 C1281 1.389 . S
C1282 C1283 1.387 . S
C1283 H1268 0.930 . S
C1283 C1278 1.390 . S
C1283 C1282 1.387 . S
H1284 C1296 0.930 . S
H1285 C1298 0.930 . S
H1286 C1299 0.930 . S
H1287 C1303 0.959 . S
H1288 C1303 0.959 . S
H1289 C1303 0.961 . S
H1290 C1304 0.960 . S
H1291 C1304 0.961 . S
H1292 C1304 0.959 . S
H1293 C1307 0.929 . S
H1294 C1308 0.931 . S
H1295 C1310 0.930 . S
C1296 H1284 0.930 . S
C1296 C1297 1.399 . S
C1296 C1301 1.399 . S
C1297 C1296 1.399 . S
C1297 C1298 1.376 . S
C1298 H1285 0.930 . S
C1298 C1297 1.376 . S
C1298 C1299 1.388 . S
C1299 H1286 0.930 . S
C1299 C1298 1.388 . S
C1299 C1300 1.390 . S
C1300 C1299 1.390 . S
C1300 C1301 1.394 . S
C1300 C1306 1.465 . S
C1301 C1296 1.399 . S
C1301 C1300 1.394 . S
C1301 C1302 1.516 . S
C1302 C1301 1.516 . S
C1302 C1303 1.502 . S
C1302 C1304 1.561 . S
C1302 C1305 1.526 . S
C1303 H1287 0.959 . S
C1303 H1288 0.959 . S
C1303 H1289 0.961 . S
C1303 C1302 1.502 . S
C1304 H1290 0.960 . S
C1304 H1291 0.961 . S
C1304 H1292 0.959 . S
C1304 C1302 1.561 . S
C1305 C1302 1.526 . S
C1305 C1306 1.396 . S
C1305 C1310 1.390 . S
C1306 C1300 1.465 . S
C1306 C1305 1.396 . S
C1306 C1307 1.399 . S
C1307 H1293 0.929 . S
C1307 C1306 1.399 . S
C1307 C1308 1.385 . S
C1308 H1294 0.931 . S
C1308 C1307 1.385 . S
C1308 C1309 1.389 . S
C1309 C1308 1.389 . S
C1309 C1310 1.387 . S
C1310 H1295 0.930 . S
C1310 C1305 1.390 . S
C1310 C1309 1.387 . S
H1311 C1323 0.930 . S
H1312 C1325 0.930 . S
H1313 C1326 0.930 . S
H1314 C1330 0.959 . S
H1315 C1330 0.959 . S
H1316 C1330 0.961 . S
H1317 C1331 0.960 . S
H1318 C1331 0.961 . S
H1319 C1331 0.959 . S
H1320 C1334 0.929 . S
H1321 C1335 0.931 . S
H1322 C1337 0.930 . S
C1323 H1311 0.930 . S
C1323 C1324 1.399 . S
C1323 C1328 1.399 . S
C1324 C1323 1.399 . S
C1324 C1325 1.376 . S
C1325 H1312 0.930 . S
C1325 C1324 1.376 . S
C1325 C1326 1.388 . S
C1326 H1313 0.930 . S
C1326 C1325 1.388 . S
C1326 C1327 1.390 . S
C1327 C1326 1.390 . S
C1327 C1328 1.394 . S
C1327 C1333 1.465 . S
C1328 C1323 1.399 . S
C1328 C1327 1.394 . S
C1328 C1329 1.516 . S
C1329 C1328 1.516 . S
C1329 C1330 1.502 . S
C1329 C1331 1.561 . S
C1329 C1332 1.526 . S
C1330 H1314 0.959 . S
C1330 H1315 0.959 . S
C1330 H1316 0.961 . S
C1330 C1329 1.502 . S
C1331 H1317 0.960 . S
C1331 H1318 0.961 . S
C1331 H1319 0.959 . S
C1331 C1329 1.561 . S
C1332 C1329 1.526 . S
C1332 C1333 1.396 . S
C1332 C1337 1.390 . S
C1333 C1327 1.465 . S
C1333 C1332 1.396 . S
C1333 C1334 1.399 . S
C1334 H1320 0.929 . S
C1334 C1333 1.399 . S
C1334 C1335 1.385 . S
C1335 H1321 0.931 . S
C1335 C1334 1.385 . S
C1335 C1336 1.389 . S
C1336 C1335 1.389 . S
C1336 C1337 1.387 . S
C1337 H1322 0.930 . S
C1337 C1332 1.390 . S
C1337 C1336 1.387 . S
H1338 C1350 0.930 . S
H1339 C1352 0.930 . S
H1340 C1353 0.930 . S
H1341 C1357 0.959 . S
H1342 C1357 0.959 1_565 S
H1343 C1357 0.961 . S
H1344 C1358 0.960 . S
H1345 C1358 0.961 1_565 S
H1346 C1358 0.959 1_565 S
H1347 C1361 0.929 . S
H1348 C1362 0.931 . S
H1349 C1364 0.930 . S
C1350 H1338 0.930 . S
C1350 C1351 1.399 . S
C1350 C1355 1.399 . S
C1351 C1350 1.399 . S
C1351 C1352 1.376 . S
C1352 H1339 0.930 . S
C1352 C1351 1.376 . S
C1352 C1353 1.388 . S
C1353 H1340 0.930 . S
C1353 C1352 1.388 . S
C1353 C1354 1.390 . S
C1354 C1353 1.390 . S
C1354 C1355 1.394 . S
C1354 C1360 1.465 1_545 S
C1355 C1350 1.399 . S
C1355 C1354 1.394 . S
C1355 C1356 1.516 . S
C1356 C1355 1.516 . S
C1356 C1357 1.502 . S
C1356 C1358 1.561 . S
C1356 C1359 1.526 1_545 S
C1357 H1341 0.959 . S
C1357 H1342 0.959 1_545 S
C1357 H1343 0.961 . S
C1357 C1356 1.502 . S
C1358 H1344 0.960 . S
C1358 H1345 0.961 1_545 S
C1358 H1346 0.959 1_545 S
C1358 C1356 1.561 . S
C1359 C1356 1.526 1_565 S
C1359 C1360 1.396 . S
C1359 C1364 1.390 . S
C1360 C1354 1.465 1_565 S
C1360 C1359 1.396 . S
C1360 C1361 1.399 . S
C1361 H1347 0.929 . S
C1361 C1360 1.399 . S
C1361 C1362 1.385 . S
C1362 H1348 0.931 . S
C1362 C1361 1.385 . S
C1362 C1363 1.389 . S
C1363 C1362 1.389 . S
C1363 C1364 1.387 . S
C1364 H1349 0.930 . S
C1364 C1359 1.390 . S
C1364 C1363 1.387 . S
H1365 C1377 0.930 . S
H1366 C1379 0.930 . S
H1367 C1380 0.930 . S
H1368 C1384 0.959 . S
H1369 C1384 0.959 . S
H1370 C1384 0.961 1_455 S
H1371 C1385 0.960 1_455 S
H1372 C1385 0.961 . S
H1373 C1385 0.959 . S
H1374 C1388 0.929 . S
H1375 C1389 0.931 . S
H1376 C1391 0.930 . S
C1377 H1365 0.930 . S
C1377 C1378 1.399 . S
C1377 C1382 1.399 . S
C1378 C1377 1.399 . S
C1378 C1379 1.376 . S
C1379 H1366 0.930 . S
C1379 C1378 1.376 . S
C1379 C1380 1.388 . S
C1380 H1367 0.930 . S
C1380 C1379 1.388 . S
C1380 C1381 1.390 . S
C1381 C1380 1.390 . S
C1381 C1382 1.394 . S
C1381 C1387 1.465 1_455 S
C1382 C1377 1.399 . S
C1382 C1381 1.394 . S
C1382 C1383 1.516 1_455 S
C1383 C1382 1.516 1_655 S
C1383 C1384 1.502 . S
C1383 C1385 1.561 . S
C1383 C1386 1.526 . S
C1384 H1368 0.959 . S
C1384 H1369 0.959 . S
C1384 H1370 0.961 1_655 S
C1384 C1383 1.502 . S
C1385 H1371 0.960 1_655 S
C1385 H1372 0.961 . S
C1385 H1373 0.959 . S
C1385 C1383 1.561 . S
C1386 C1383 1.526 . S
C1386 C1387 1.396 . S
C1386 C1391 1.390 . S
C1387 C1381 1.465 1_655 S
C1387 C1386 1.396 . S
C1387 C1388 1.399 . S
C1388 H1374 0.929 . S
C1388 C1387 1.399 . S
C1388 C1389 1.385 . S
C1389 H1375 0.931 . S
C1389 C1388 1.385 . S
C1389 C1390 1.389 . S
C1390 C1389 1.389 . S
C1390 C1391 1.387 . S
C1391 H1376 0.930 . S
C1391 C1386 1.390 . S
C1391 C1390 1.387 . S
H1392 C1404 0.930 . S
H1393 C1406 0.930 . S
H1394 C1407 0.930 . S
H1395 C1411 0.959 . S
H1396 C1411 0.959 . S
H1397 C1411 0.961 1_545 S
H1398 C1412 0.960 1_545 S
H1399 C1412 0.961 . S
H1400 C1412 0.959 . S
H1401 C1415 0.929 . S
H1402 C1416 0.931 . S
H1403 C1418 0.930 . S
C1404 H1392 0.930 . S
C1404 C1405 1.399 . S
C1404 C1409 1.399 . S
C1405 C1404 1.399 . S
C1405 C1406 1.376 . S
C1406 H1393 0.930 . S
C1406 C1405 1.376 . S
C1406 C1407 1.388 . S
C1407 H1394 0.930 . S
C1407 C1406 1.388 . S
C1407 C1408 1.390 . S
C1408 C1407 1.390 . S
C1408 C1409 1.394 . S
C1408 C1414 1.465 1_545 S
C1409 C1404 1.399 . S
C1409 C1408 1.394 . S
C1409 C1410 1.516 1_545 S
C1410 C1409 1.516 1_565 S
C1410 C1411 1.502 . S
C1410 C1412 1.561 . S
C1410 C1413 1.526 . S
C1411 H1395 0.959 . S
C1411 H1396 0.959 . S
C1411 H1397 0.961 1_565 S
C1411 C1410 1.502 . S
C1412 H1398 0.960 1_565 S
C1412 H1399 0.961 . S
C1412 H1400 0.959 . S
C1412 C1410 1.561 . S
C1413 C1410 1.526 . S
C1413 C1414 1.396 . S
C1413 C1418 1.390 . S
C1414 C1408 1.465 1_565 S
C1414 C1413 1.396 . S
C1414 C1415 1.399 . S
C1415 H1401 0.929 . S
C1415 C1414 1.399 . S
C1415 C1416 1.385 . S
C1416 H1402 0.931 . S
C1416 C1415 1.385 . S
C1416 C1417 1.389 . S
C1417 C1416 1.389 . S
C1417 C1418 1.387 . S
C1418 H1403 0.930 . S
C1418 C1413 1.390 . S
C1418 C1417 1.387 . S
H1419 C1431 0.930 . S
H1420 C1433 0.930 . S
H1421 C1434 0.930 . S
H1422 C1438 0.959 . S
H1423 C1438 0.959 . S
H1424 C1438 0.961 1_455 S
H1425 C1439 0.971 . S
H1426 C1439 0.950 1_655 S
H1427 C1439 0.960 . S
H1428 C1442 0.929 . S
H1429 C1443 0.931 . S
H1430 C1445 0.930 . S
C1431 H1419 0.930 . S
C1431 C1432 1.399 . S
C1431 C1436 1.399 . S
C1432 C1431 1.399 . S
C1432 C1433 1.376 . S
C1433 H1420 0.930 . S
C1433 C1432 1.376 . S
C1433 C1434 1.388 . S
C1434 H1421 0.930 . S
C1434 C1433 1.388 . S
C1434 C1435 1.390 . S
C1435 C1434 1.390 . S
C1435 C1436 1.394 . S
C1435 C1441 1.465 1_455 S
C1436 C1431 1.399 . S
C1436 C1435 1.394 . S
C1436 C1437 1.516 1_455 S
C1437 C1436 1.516 1_655 S
C1437 C1438 1.502 . S
C1437 C1439 1.560 1_655 S
C1437 C1440 1.526 . S
C1438 H1422 0.959 . S
C1438 H1423 0.959 . S
C1438 H1424 0.961 1_655 S
C1438 C1437 1.502 . S
C1439 H1425 0.971 . S
C1439 H1426 0.950 1_455 S
C1439 H1427 0.960 . S
C1439 C1437 1.560 1_455 S
C1440 C1437 1.526 . S
C1440 C1441 1.396 . S
C1440 C1445 1.390 . S
C1441 C1435 1.465 1_655 S
C1441 C1440 1.396 . S
C1441 C1442 1.399 . S
C1442 H1428 0.929 . S
C1442 C1441 1.399 . S
C1442 C1443 1.385 . S
C1443 H1429 0.931 . S
C1443 C1442 1.385 . S
C1443 C1444 1.389 . S
C1444 C1443 1.389 . S
C1444 C1445 1.387 . S
C1445 H1430 0.930 . S
C1445 C1440 1.390 . S
C1445 C1444 1.387 . S
H1446 C1458 0.930 . S
H1447 C1460 0.930 . S
H1448 C1461 0.930 . S
H1449 C1465 0.959 . S
H1450 C1465 0.959 . S
H1451 C1465 0.961 . S
H1452 C1466 0.960 . S
H1453 C1466 0.961 . S
H1454 C1466 0.959 . S
H1455 C1469 0.929 . S
H1456 C1470 0.931 . S
H1457 C1472 0.930 . S
C1458 H1446 0.930 . S
C1458 C1459 1.399 . S
C1458 C1463 1.399 . S
C1459 C1458 1.399 . S
C1459 C1460 1.376 . S
C1460 H1447 0.930 . S
C1460 C1459 1.376 . S
C1460 C1461 1.388 . S
C1461 H1448 0.930 . S
C1461 C1460 1.388 . S
C1461 C1462 1.390 . S
C1462 C1461 1.390 . S
C1462 C1463 1.394 . S
C1462 C1468 1.465 . S
C1463 C1458 1.399 . S
C1463 C1462 1.394 . S
C1463 C1464 1.516 . S
C1464 C1463 1.516 . S
C1464 C1465 1.502 . S
C1464 C1466 1.561 . S
C1464 C1467 1.526 . S
C1465 H1449 0.959 . S
C1465 H1450 0.959 . S
C1465 H1451 0.961 . S
C1465 C1464 1.502 . S
C1466 H1452 0.960 . S
C1466 H1453 0.961 . S
C1466 H1454 0.959 . S
C1466 C1464 1.561 . S
C1467 C1464 1.526 . S
C1467 C1468 1.396 . S
C1467 C1472 1.390 . S
C1468 C1462 1.465 . S
C1468 C1467 1.396 . S
C1468 C1469 1.399 . S
C1469 H1455 0.929 . S
C1469 C1468 1.399 . S
C1469 C1470 1.385 . S
C1470 H1456 0.931 . S
C1470 C1469 1.385 . S
C1470 C1471 1.389 . S
C1471 C1470 1.389 . S
C1471 C1472 1.387 . S
C1472 H1457 0.930 . S
C1472 C1467 1.390 . S
C1472 C1471 1.387 . S
H1473 C1485 0.930 . S
H1474 C1487 0.930 . S
H1475 C1488 0.930 . S
H1476 C1492 0.959 . S
H1477 C1492 0.959 . S
H1478 C1492 0.961 . S
H1479 C1493 0.960 . S
H1480 C1493 0.961 . S
H1481 C1493 0.959 . S
H1482 C1496 0.929 . S
H1483 C1497 0.931 . S
H1484 C1499 0.930 . S
C1485 H1473 0.930 . S
C1485 C1486 1.399 . S
C1485 C1490 1.399 . S
C1486 C1485 1.399 . S
C1486 C1487 1.376 . S
C1487 H1474 0.930 . S
C1487 C1486 1.376 . S
C1487 C1488 1.388 . S
C1488 H1475 0.930 . S
C1488 C1487 1.388 . S
C1488 C1489 1.390 . S
C1489 C1488 1.390 . S
C1489 C1490 1.394 . S
C1489 C1495 1.465 . S
C1490 C1485 1.399 . S
C1490 C1489 1.394 . S
C1490 C1491 1.516 . S
C1491 C1490 1.516 . S
C1491 C1492 1.502 . S
C1491 C1493 1.561 . S
C1491 C1494 1.526 . S
C1492 H1476 0.959 . S
C1492 H1477 0.959 . S
C1492 H1478 0.961 . S
C1492 C1491 1.502 . S
C1493 H1479 0.960 . S
C1493 H1480 0.961 . S
C1493 H1481 0.959 . S
C1493 C1491 1.561 . S
C1494 C1491 1.526 . S
C1494 C1495 1.396 . S
C1494 C1499 1.390 . S
C1495 C1489 1.465 . S
C1495 C1494 1.396 . S
C1495 C1496 1.399 . S
C1496 H1482 0.929 . S
C1496 C1495 1.399 . S
C1496 C1497 1.385 . S
C1497 H1483 0.931 . S
C1497 C1496 1.385 . S
C1497 C1498 1.389 . S
C1498 C1497 1.389 . S
C1498 C1499 1.387 . S
C1499 H1484 0.930 . S
C1499 C1494 1.390 . S
C1499 C1498 1.387 . S
H1500 C1512 0.930 . S
H1501 C1514 0.930 . S
H1502 C1515 0.930 . S
H1503 C1519 0.959 . S
H1504 C1519 0.959 . S
H1505 C1519 0.961 . S
H1506 C1520 0.960 . S
H1507 C1520 0.961 . S
H1508 C1520 0.959 . S
H1509 C1523 0.929 . S
H1510 C1524 0.931 . S
H1511 C1526 0.930 . S
C1512 H1500 0.930 . S
C1512 C1513 1.399 . S
C1512 C1517 1.399 . S
C1513 C1512 1.399 . S
C1513 C1514 1.376 . S
C1514 H1501 0.930 . S
C1514 C1513 1.376 . S
C1514 C1515 1.388 . S
C1515 H1502 0.930 . S
C1515 C1514 1.388 . S
C1515 C1516 1.390 . S
C1516 C1515 1.390 . S
C1516 C1517 1.394 . S
C1516 C1522 1.465 . S
C1517 C1512 1.399 . S
C1517 C1516 1.394 . S
C1517 C1518 1.516 . S
C1518 C1517 1.516 . S
C1518 C1519 1.502 . S
C1518 C1520 1.561 . S
C1518 C1521 1.526 . S
C1519 H1503 0.959 . S
C1519 H1504 0.959 . S
C1519 H1505 0.961 . S
C1519 C1518 1.502 . S
C1520 H1506 0.960 . S
C1520 H1507 0.961 . S
C1520 H1508 0.959 . S
C1520 C1518 1.561 . S
C1521 C1518 1.526 . S
C1521 C1522 1.396 . S
C1521 C1526 1.390 . S
C1522 C1516 1.465 . S
C1522 C1521 1.396 . S
C1522 C1523 1.399 . S
C1523 H1509 0.929 . S
C1523 C1522 1.399 . S
C1523 C1524 1.385 . S
C1524 H1510 0.931 . S
C1524 C1523 1.385 . S
C1524 C1525 1.389 . S
C1525 C1524 1.389 . S
C1525 C1526 1.387 . S
C1526 H1511 0.930 . S
C1526 C1521 1.390 . S
C1526 C1525 1.387 . S
H1527 C1539 0.930 . S
H1528 C1541 0.930 . S
H1529 C1542 0.930 . S
H1530 C1546 0.959 1_556 S
H1531 C1546 0.959 1_556 S
H1532 C1546 0.961 . S
H1533 C1547 0.960 . S
H1534 C1547 0.961 1_556 S
H1535 C1547 0.959 . S
H1536 C1550 0.929 . S
H1537 C1551 0.931 . S
H1538 C1553 0.930 . S
C1539 H1527 0.930 . S
C1539 C1540 1.399 . S
C1539 C1544 1.399 . S
C1540 C1539 1.399 . S
C1540 C1541 1.376 . S
C1541 H1528 0.930 . S
C1541 C1540 1.376 . S
C1541 C1542 1.388 . S
C1542 H1529 0.930 . S
C1542 C1541 1.388 . S
C1542 C1543 1.390 . S
C1543 C1542 1.390 . S
C1543 C1544 1.394 . S
C1543 C1549 1.465 1_554 S
C1544 C1539 1.399 . S
C1544 C1543 1.394 . S
C1544 C1545 1.516 . S
C1545 C1544 1.516 . S
C1545 C1546 1.502 . S
C1545 C1547 1.561 . S
C1545 C1548 1.526 1_554 S
C1546 H1530 0.959 1_554 S
C1546 H1531 0.959 1_554 S
C1546 H1532 0.961 . S
C1546 C1545 1.502 . S
C1547 H1533 0.960 . S
C1547 H1534 0.961 1_554 S
C1547 H1535 0.959 . S
C1547 C1545 1.561 . S
C1548 C1545 1.526 1_556 S
C1548 C1549 1.396 . S
C1548 C1553 1.390 . S
C1549 C1543 1.465 1_556 S
C1549 C1548 1.396 . S
C1549 C1550 1.399 . S
C1550 H1536 0.929 . S
C1550 C1549 1.399 . S
C1550 C1551 1.385 . S
C1551 H1537 0.931 . S
C1551 C1550 1.385 . S
C1551 C1552 1.389 . S
C1552 C1551 1.389 . S
C1552 C1553 1.387 . S
C1553 H1538 0.930 . S
C1553 C1548 1.390 . S
C1553 C1552 1.387 . S
H1554 C1566 0.930 . S
H1555 C1568 0.930 . S
H1556 C1569 0.930 . S
H1557 C1573 0.959 . S
H1558 C1573 0.959 . S
H1559 C1573 0.961 . S
H1560 C1574 0.960 . S
H1561 C1574 0.961 . S
H1562 C1574 0.959 . S
H1563 C1577 0.929 . S
H1564 C1578 0.931 . S
H1565 C1580 0.930 . S
C1566 H1554 0.930 . S
C1566 C1567 1.399 . S
C1566 C1571 1.399 . S
C1567 C1566 1.399 . S
C1567 C1568 1.376 . S
C1568 H1555 0.930 . S
C1568 C1567 1.376 . S
C1568 C1569 1.388 . S
C1569 H1556 0.930 . S
C1569 C1568 1.388 . S
C1569 C1570 1.390 . S
C1570 C1569 1.390 . S
C1570 C1571 1.394 . S
C1570 C1576 1.465 . S
C1571 C1566 1.399 . S
C1571 C1570 1.394 . S
C1571 C1572 1.516 . S
C1572 C1571 1.516 . S
C1572 C1573 1.502 . S
C1572 C1574 1.561 . S
C1572 C1575 1.526 . S
C1573 H1557 0.959 . S
C1573 H1558 0.959 . S
C1573 H1559 0.961 . S
C1573 C1572 1.502 . S
C1574 H1560 0.960 . S
C1574 H1561 0.961 . S
C1574 H1562 0.959 . S
C1574 C1572 1.561 . S
C1575 C1572 1.526 . S
C1575 C1576 1.396 . S
C1575 C1580 1.390 . S
C1576 C1570 1.465 . S
C1576 C1575 1.396 . S
C1576 C1577 1.399 . S
C1577 H1563 0.929 . S
C1577 C1576 1.399 . S
C1577 C1578 1.385 . S
C1578 H1564 0.931 . S
C1578 C1577 1.385 . S
C1578 C1579 1.389 . S
C1579 C1578 1.389 . S
C1579 C1580 1.387 . S
C1580 H1565 0.930 . S
C1580 C1575 1.390 . S
C1580 C1579 1.387 . S
H1581 C1593 0.930 . S
H1582 C1595 0.930 . S
H1583 C1596 0.930 . S
H1584 C1600 0.960 . S
H1585 C1600 0.956 1_556 S
H1586 C1600 0.964 . S
H1587 C1601 0.960 1_554 S
H1588 C1601 0.961 . S
H1589 C1601 0.959 . S
H1590 C1604 0.929 . S
H1591 C1605 0.931 . S
H1592 C1607 0.930 . S
C1593 H1581 0.930 . S
C1593 C1594 1.399 . S
C1593 C1598 1.399 . S
C1594 C1593 1.399 . S
C1594 C1595 1.376 . S
C1595 H1582 0.930 . S
C1595 C1594 1.376 . S
C1595 C1596 1.388 . S
C1596 H1583 0.930 . S
C1596 C1595 1.388 . S
C1596 C1597 1.390 . S
C1597 C1596 1.390 . S
C1597 C1598 1.394 . S
C1597 C1603 1.465 1_554 S
C1598 C1593 1.399 . S
C1598 C1597 1.394 . S
C1598 C1599 1.516 1_554 S
C1599 C1598 1.516 1_556 S
C1599 C1600 1.501 1_556 S
C1599 C1601 1.561 . S
C1599 C1602 1.526 . S
C1600 H1584 0.960 . S
C1600 H1585 0.956 1_554 S
C1600 H1586 0.964 . S
C1600 C1599 1.501 1_554 S
C1601 H1587 0.960 1_556 S
C1601 H1588 0.961 . S
C1601 H1589 0.959 . S
C1601 C1599 1.561 . S
C1602 C1599 1.526 . S
C1602 C1603 1.396 . S
C1602 C1607 1.390 . S
C1603 C1597 1.465 1_556 S
C1603 C1602 1.396 . S
C1603 C1604 1.399 . S
C1604 H1590 0.929 . S
C1604 C1603 1.399 . S
C1604 C1605 1.385 . S
C1605 H1591 0.931 . S
C1605 C1604 1.385 . S
C1605 C1606 1.389 . S
C1606 C1605 1.389 . S
C1606 C1607 1.387 . S
C1607 H1592 0.930 . S
C1607 C1602 1.390 . S
C1607 C1606 1.387 . S
C325 C53 1.532 . S
C337 C10 1.538 . S
C352 C23 1.530 . S
C364 C75 1.532 . S
C379 C88 1.556 . S
C391 C27 1.497 . S
C406 C101 1.543 . S
C418 C40 1.524 . S
C433 C192 1.538 . S
C445 C105 1.490 . S
C460 C205 1.526 . S
C472 C118 1.518 . S
C487 C140 1.542 . S
C499 C157 1.526 . S
C514 C179 1.524 . S
C526 C144 1.533 . S
C541 C209 1.524 . S
C553 C283 1.526 . S
C568 C231 1.560 . S
C580 C257 1.543 . S
C595 C244 1.534 . S
C607 C270 1.529 . S
C622 C287 1.473 . S
C634 C300 1.532 . S
C649 C49 1.534 . S
C661 C66 1.529 . S
C676 C1 1.561 . S
C688 C79 1.552 . S
C703 C92 1.530 . S
C715 C14 1.551 . S
C730 C36 1.479 . S
C742 C62 1.510 . S
C757 C309 1.471 . S
C769 C235 1.540 . S
C784 C248 1.534 . S
C796 C274 1.555 . S
C811 C261 1.533 . S
C823 C296 1.481 . S
C838 C222 1.548 . S
C850 C218 1.533 . S
C865 C153 1.487 . S
C877 C127 1.500 . S
C892 C196 1.561 . S
C904 C170 1.548 . S
C919 C166 1.485 . S
C931 C183 1.531 . S
C946 C131 1.560 . S
C958 C114 1.483 . S
C973 C289 1.567 . S
C985 C5 1.619 . S
C1000 C211 1.609 . S
C1012 C18 1.626 . S
C1027 C302 1.565 . S
C1039 C29 1.561 . S
C1054 C278 1.623 . S
C1066 C42 1.588 . S
C1081 C239 1.626 . S
C1093 C55 1.608 . S
C1108 C70 1.619 . S
C1120 C252 1.627 . S
C1135 C265 1.616 . S
C1147 C83 1.620 . S
C1162 C226 1.627 . S
C1174 C96 1.620 . S
C1189 C174 1.625 . S
C1201 C107 1.599 . S
C1216 C187 1.623 . S
C1228 C120 1.598 . S
C1243 C200 1.616 . S
C1255 C135 1.626 . S
C1270 C146 1.554 . S
C1282 C159 1.596 . S
C1297 C68 1.626 . S
C1309 C133 1.625 . S
C1324 C81 1.620 . S
C1336 C148 1.566 . S
C1351 C109 1.560 . S
C1363 C94 1.619 . S
C1378 C57 1.609 . S
C1390 C122 1.555 . S
C1405 C185 1.617 . S
C1417 C44 1.555 . S
C1432 C3 1.615 . S
C1444 C198 1.621 . S
C1459 C161 1.557 . S
C1471 C16 1.619 . S
C1486 C31 1.562 . S
C1498 C172 1.620 . S
C1513 C224 1.617 . S
C1525 C304 1.575 . S
C1540 C276 1.617 . S
C1552 C237 1.616 . S
C1567 C291 1.567 . S
C1579 C250 1.621 . S
C1594 C213 1.593 . S
C1606 C263 1.626 . S
