# Generated by pormake.
# Topology rho, (4)-cn, num edge types: 1
# Building blocks:
#     Node 0, Type 0, BuildingBlock: CEKHIL_clean_sbu_0, # of connection points: 4
#     Node 1, Type 0, BuildingBlock: CEKHIL_clean_sbu_0, # of connection points: 4
#     Node 2, Type 0, BuildingBlock: CEKHIL_clean_sbu_0, # of connection points: 4
#     Node 3, Type 0, BuildingBlock: CEKHIL_clean_sbu_0, # of connection points: 4
#     Node 4, Type 0, BuildingBlock: CEKHIL_clean_sbu_0, # of connection points: 4
#     Node 5, Type 0, BuildingBlock: CEKHIL_clean_sbu_0, # of connection points: 4
#     Node 6, Type 0, BuildingBlock: CEKHIL_clean_sbu_0, # of connection points: 4
#     Node 7, Type 0, BuildingBlock: CEKHIL_clean_sbu_0, # of connection points: 4
#     Node 8, Type 0, BuildingBlock: CEKHIL_clean_sbu_0, # of connection points: 4
#     Node 9, Type 0, BuildingBlock: CEKHIL_clean_sbu_0, # of connection points: 4
#     Node 10, Type 0, BuildingBlock: CEKHIL_clean_sbu_0, # of connection points: 4
#     Node 11, Type 0, BuildingBlock: CEKHIL_clean_sbu_0, # of connection points: 4
#     Node 12, Type 0, BuildingBlock: CEKHIL_clean_sbu_0, # of connection points: 4
#     Node 13, Type 0, BuildingBlock: CEKHIL_clean_sbu_0, # of connection points: 4
#     Node 14, Type 0, BuildingBlock: CEKHIL_clean_sbu_0, # of connection points: 4
#     Node 15, Type 0, BuildingBlock: CEKHIL_clean_sbu_0, # of connection points: 4
#     Node 16, Type 0, BuildingBlock: CEKHIL_clean_sbu_0, # of connection points: 4
#     Node 17, Type 0, BuildingBlock: CEKHIL_clean_sbu_0, # of connection points: 4
#     Node 18, Type 0, BuildingBlock: CEKHIL_clean_sbu_0, # of connection points: 4
#     Node 19, Type 0, BuildingBlock: CEKHIL_clean_sbu_0, # of connection points: 4
#     Node 20, Type 0, BuildingBlock: CEKHIL_clean_sbu_0, # of connection points: 4
#     Node 21, Type 0, BuildingBlock: CEKHIL_clean_sbu_0, # of connection points: 4
#     Node 22, Type 0, BuildingBlock: CEKHIL_clean_sbu_0, # of connection points: 4
#     Node 23, Type 0, BuildingBlock: CEKHIL_clean_sbu_0, # of connection points: 4
#     Node 24, Type 0, BuildingBlock: CEKHIL_clean_sbu_0, # of connection points: 4
#     Node 25, Type 0, BuildingBlock: CEKHIL_clean_sbu_0, # of connection points: 4
#     Node 26, Type 0, BuildingBlock: CEKHIL_clean_sbu_0, # of connection points: 4
#     Node 27, Type 0, BuildingBlock: CEKHIL_clean_sbu_0, # of connection points: 4
#     Node 28, Type 0, BuildingBlock: CEKHIL_clean_sbu_0, # of connection points: 4
#     Node 29, Type 0, BuildingBlock: CEKHIL_clean_sbu_0, # of connection points: 4
#     Node 30, Type 0, BuildingBlock: CEKHIL_clean_sbu_0, # of connection points: 4
#     Node 31, Type 0, BuildingBlock: CEKHIL_clean_sbu_0, # of connection points: 4
#     Node 32, Type 0, BuildingBlock: CEKHIL_clean_sbu_0, # of connection points: 4
#     Node 33, Type 0, BuildingBlock: CEKHIL_clean_sbu_0, # of connection points: 4
#     Node 34, Type 0, BuildingBlock: CEKHIL_clean_sbu_0, # of connection points: 4
#     Node 35, Type 0, BuildingBlock: CEKHIL_clean_sbu_0, # of connection points: 4
#     Node 36, Type 0, BuildingBlock: CEKHIL_clean_sbu_0, # of connection points: 4
#     Node 37, Type 0, BuildingBlock: CEKHIL_clean_sbu_0, # of connection points: 4
#     Node 38, Type 0, BuildingBlock: CEKHIL_clean_sbu_0, # of connection points: 4
#     Node 39, Type 0, BuildingBlock: CEKHIL_clean_sbu_0, # of connection points: 4
#     Node 40, Type 0, BuildingBlock: CEKHIL_clean_sbu_0, # of connection points: 4
#     Node 41, Type 0, BuildingBlock: CEKHIL_clean_sbu_0, # of connection points: 4
#     Node 42, Type 0, BuildingBlock: CEKHIL_clean_sbu_0, # of connection points: 4
#     Node 43, Type 0, BuildingBlock: CEKHIL_clean_sbu_0, # of connection points: 4
#     Node 44, Type 0, BuildingBlock: CEKHIL_clean_sbu_0, # of connection points: 4
#     Node 45, Type 0, BuildingBlock: CEKHIL_clean_sbu_0, # of connection points: 4
#     Node 46, Type 0, BuildingBlock: CEKHIL_clean_sbu_0, # of connection points: 4
#     Node 47, Type 0, BuildingBlock: CEKHIL_clean_sbu_0, # of connection points: 4
#     Edge 48, Type (0, 0), BuildingBlock: XUDNAN_clean_linker_2, # of connection points: 2
#     Edge 49, Type (0, 0), BuildingBlock: XUDNAN_clean_linker_2, # of connection points: 2
#     Edge 50, Type (0, 0), BuildingBlock: XUDNAN_clean_linker_2, # of connection points: 2
#     Edge 51, Type (0, 0), BuildingBlock: XUDNAN_clean_linker_2, # of connection points: 2
#     Edge 52, Type (0, 0), BuildingBlock: XUDNAN_clean_linker_2, # of connection points: 2
#     Edge 53, Type (0, 0), BuildingBlock: XUDNAN_clean_linker_2, # of connection points: 2
#     Edge 54, Type (0, 0), BuildingBlock: XUDNAN_clean_linker_2, # of connection points: 2
#     Edge 55, Type (0, 0), BuildingBlock: XUDNAN_clean_linker_2, # of connection points: 2
#     Edge 56, Type (0, 0), BuildingBlock: XUDNAN_clean_linker_2, # of connection points: 2
#     Edge 57, Type (0, 0), BuildingBlock: XUDNAN_clean_linker_2, # of connection points: 2
#     Edge 58, Type (0, 0), BuildingBlock: XUDNAN_clean_linker_2, # of connection points: 2
#     Edge 59, Type (0, 0), BuildingBlock: XUDNAN_clean_linker_2, # of connection points: 2
#     Edge 60, Type (0, 0), BuildingBlock: XUDNAN_clean_linker_2, # of connection points: 2
#     Edge 61, Type (0, 0), BuildingBlock: XUDNAN_clean_linker_2, # of connection points: 2
#     Edge 62, Type (0, 0), BuildingBlock: XUDNAN_clean_linker_2, # of connection points: 2
#     Edge 63, Type (0, 0), BuildingBlock: XUDNAN_clean_linker_2, # of connection points: 2
#     Edge 64, Type (0, 0), BuildingBlock: XUDNAN_clean_linker_2, # of connection points: 2
#     Edge 65, Type (0, 0), BuildingBlock: XUDNAN_clean_linker_2, # of connection points: 2
#     Edge 66, Type (0, 0), BuildingBlock: XUDNAN_clean_linker_2, # of connection points: 2
#     Edge 67, Type (0, 0), BuildingBlock: XUDNAN_clean_linker_2, # of connection points: 2
#     Edge 68, Type (0, 0), BuildingBlock: XUDNAN_clean_linker_2, # of connection points: 2
#     Edge 69, Type (0, 0), BuildingBlock: XUDNAN_clean_linker_2, # of connection points: 2
#     Edge 70, Type (0, 0), BuildingBlock: XUDNAN_clean_linker_2, # of connection points: 2
#     Edge 71, Type (0, 0), BuildingBlock: XUDNAN_clean_linker_2, # of connection points: 2
#     Edge 72, Type (0, 0), BuildingBlock: XUDNAN_clean_linker_2, # of connection points: 2
#     Edge 73, Type (0, 0), BuildingBlock: XUDNAN_clean_linker_2, # of connection points: 2
#     Edge 74, Type (0, 0), BuildingBlock: XUDNAN_clean_linker_2, # of connection points: 2
#     Edge 75, Type (0, 0), BuildingBlock: XUDNAN_clean_linker_2, # of connection points: 2
#     Edge 76, Type (0, 0), BuildingBlock: XUDNAN_clean_linker_2, # of connection points: 2
#     Edge 77, Type (0, 0), BuildingBlock: XUDNAN_clean_linker_2, # of connection points: 2
#     Edge 78, Type (0, 0), BuildingBlock: XUDNAN_clean_linker_2, # of connection points: 2
#     Edge 79, Type (0, 0), BuildingBlock: XUDNAN_clean_linker_2, # of connection points: 2
#     Edge 80, Type (0, 0), BuildingBlock: XUDNAN_clean_linker_2, # of connection points: 2
#     Edge 81, Type (0, 0), BuildingBlock: XUDNAN_clean_linker_2, # of connection points: 2
#     Edge 82, Type (0, 0), BuildingBlock: XUDNAN_clean_linker_2, # of connection points: 2
#     Edge 83, Type (0, 0), BuildingBlock: XUDNAN_clean_linker_2, # of connection points: 2
#     Edge 84, Type (0, 0), BuildingBlock: XUDNAN_clean_linker_2, # of connection points: 2
#     Edge 85, Type (0, 0), BuildingBlock: XUDNAN_clean_linker_2, # of connection points: 2
#     Edge 86, Type (0, 0), BuildingBlock: XUDNAN_clean_linker_2, # of connection points: 2
#     Edge 87, Type (0, 0), BuildingBlock: XUDNAN_clean_linker_2, # of connection points: 2
#     Edge 88, Type (0, 0), BuildingBlock: XUDNAN_clean_linker_2, # of connection points: 2
#     Edge 89, Type (0, 0), BuildingBlock: XUDNAN_clean_linker_2, # of connection points: 2
#     Edge 90, Type (0, 0), BuildingBlock: XUDNAN_clean_linker_2, # of connection points: 2
#     Edge 91, Type (0, 0), BuildingBlock: XUDNAN_clean_linker_2, # of connection points: 2
#     Edge 92, Type (0, 0), BuildingBlock: XUDNAN_clean_linker_2, # of connection points: 2
#     Edge 93, Type (0, 0), BuildingBlock: XUDNAN_clean_linker_2, # of connection points: 2
#     Edge 94, Type (0, 0), BuildingBlock: XUDNAN_clean_linker_2, # of connection points: 2
#     Edge 95, Type (0, 0), BuildingBlock: XUDNAN_clean_linker_2, # of connection points: 2
#     Edge 96, Type (0, 0), BuildingBlock: XUDNAN_clean_linker_2, # of connection points: 2
#     Edge 97, Type (0, 0), BuildingBlock: XUDNAN_clean_linker_2, # of connection points: 2
#     Edge 98, Type (0, 0), BuildingBlock: XUDNAN_clean_linker_2, # of connection points: 2
#     Edge 99, Type (0, 0), BuildingBlock: XUDNAN_clean_linker_2, # of connection points: 2
#     Edge 100, Type (0, 0), BuildingBlock: XUDNAN_clean_linker_2, # of connection points: 2
#     Edge 101, Type (0, 0), BuildingBlock: XUDNAN_clean_linker_2, # of connection points: 2
#     Edge 102, Type (0, 0), BuildingBlock: XUDNAN_clean_linker_2, # of connection points: 2
#     Edge 103, Type (0, 0), BuildingBlock: XUDNAN_clean_linker_2, # of connection points: 2
#     Edge 104, Type (0, 0), BuildingBlock: XUDNAN_clean_linker_2, # of connection points: 2
#     Edge 105, Type (0, 0), BuildingBlock: XUDNAN_clean_linker_2, # of connection points: 2
#     Edge 106, Type (0, 0), BuildingBlock: XUDNAN_clean_linker_2, # of connection points: 2
#     Edge 107, Type (0, 0), BuildingBlock: XUDNAN_clean_linker_2, # of connection points: 2
#     Edge 108, Type (0, 0), BuildingBlock: XUDNAN_clean_linker_2, # of connection points: 2
#     Edge 109, Type (0, 0), BuildingBlock: XUDNAN_clean_linker_2, # of connection points: 2
#     Edge 110, Type (0, 0), BuildingBlock: XUDNAN_clean_linker_2, # of connection points: 2
#     Edge 111, Type (0, 0), BuildingBlock: XUDNAN_clean_linker_2, # of connection points: 2
#     Edge 112, Type (0, 0), BuildingBlock: XUDNAN_clean_linker_2, # of connection points: 2
#     Edge 113, Type (0, 0), BuildingBlock: XUDNAN_clean_linker_2, # of connection points: 2
#     Edge 114, Type (0, 0), BuildingBlock: XUDNAN_clean_linker_2, # of connection points: 2
#     Edge 115, Type (0, 0), BuildingBlock: XUDNAN_clean_linker_2, # of connection points: 2
#     Edge 116, Type (0, 0), BuildingBlock: XUDNAN_clean_linker_2, # of connection points: 2
#     Edge 117, Type (0, 0), BuildingBlock: XUDNAN_clean_linker_2, # of connection points: 2
#     Edge 118, Type (0, 0), BuildingBlock: XUDNAN_clean_linker_2, # of connection points: 2
#     Edge 119, Type (0, 0), BuildingBlock: XUDNAN_clean_linker_2, # of connection points: 2
#     Edge 120, Type (0, 0), BuildingBlock: XUDNAN_clean_linker_2, # of connection points: 2
#     Edge 121, Type (0, 0), BuildingBlock: XUDNAN_clean_linker_2, # of connection points: 2
#     Edge 122, Type (0, 0), BuildingBlock: XUDNAN_clean_linker_2, # of connection points: 2
#     Edge 123, Type (0, 0), BuildingBlock: XUDNAN_clean_linker_2, # of connection points: 2
#     Edge 124, Type (0, 0), BuildingBlock: XUDNAN_clean_linker_2, # of connection points: 2
#     Edge 125, Type (0, 0), BuildingBlock: XUDNAN_clean_linker_2, # of connection points: 2
#     Edge 126, Type (0, 0), BuildingBlock: XUDNAN_clean_linker_2, # of connection points: 2
#     Edge 127, Type (0, 0), BuildingBlock: XUDNAN_clean_linker_2, # of connection points: 2
#     Edge 128, Type (0, 0), BuildingBlock: XUDNAN_clean_linker_2, # of connection points: 2
#     Edge 129, Type (0, 0), BuildingBlock: XUDNAN_clean_linker_2, # of connection points: 2
#     Edge 130, Type (0, 0), BuildingBlock: XUDNAN_clean_linker_2, # of connection points: 2
#     Edge 131, Type (0, 0), BuildingBlock: XUDNAN_clean_linker_2, # of connection points: 2
#     Edge 132, Type (0, 0), BuildingBlock: XUDNAN_clean_linker_2, # of connection points: 2
#     Edge 133, Type (0, 0), BuildingBlock: XUDNAN_clean_linker_2, # of connection points: 2
#     Edge 134, Type (0, 0), BuildingBlock: XUDNAN_clean_linker_2, # of connection points: 2
#     Edge 135, Type (0, 0), BuildingBlock: XUDNAN_clean_linker_2, # of connection points: 2
#     Edge 136, Type (0, 0), BuildingBlock: XUDNAN_clean_linker_2, # of connection points: 2
#     Edge 137, Type (0, 0), BuildingBlock: XUDNAN_clean_linker_2, # of connection points: 2
#     Edge 138, Type (0, 0), BuildingBlock: XUDNAN_clean_linker_2, # of connection points: 2
#     Edge 139, Type (0, 0), BuildingBlock: XUDNAN_clean_linker_2, # of connection points: 2
#     Edge 140, Type (0, 0), BuildingBlock: XUDNAN_clean_linker_2, # of connection points: 2
#     Edge 141, Type (0, 0), BuildingBlock: XUDNAN_clean_linker_2, # of connection points: 2
#     Edge 142, Type (0, 0), BuildingBlock: XUDNAN_clean_linker_2, # of connection points: 2
#     Edge 143, Type (0, 0), BuildingBlock: XUDNAN_clean_linker_2, # of connection points: 2
# Relax obj value: 0.078
# Max RMSD: 0.092
# Mean RMSD: 0.084
data_MOF--net-rho--node1-CEKHIL_clean_sbu_0--edge1-XUDNAN_clean_linker_2
_symmetry_space_group_name_H-M    P1
_symmetry_Int_Tables_number       1
_symmetry_cell_setting            triclinic
loop_
_symmetry_equiv_pos_as_xyz
'x, y, z'
_cell_length_a     71.609495
_cell_length_b     70.97796
_cell_length_c     70.920002
_cell_angle_alpha  90.154108
_cell_angle_beta   90.048843
_cell_angle_gamma 90.683595
loop_
_atom_site_label
_atom_site_type_symbol
_atom_site_fract_x
_atom_site_fract_y
_atom_site_fract_z
_atom_type_partial_charge
Co0 Co 0.11302 0.25258 0.39489 0.0
O1 O 0.13979 0.25153 0.39476 0.0
O2 O 0.12119 0.22679 0.39877 0.0
C3 C 0.11033 0.27061 0.36895 0.0
O4 O 0.08468 0.24836 0.39504 0.0
Co5 Co 0.09362 0.29073 0.40109 0.0
O6 O 0.07088 0.27659 0.39318 0.0
C7 C 0.11055 0.2717 0.43351 0.0
C8 C 0.13813 0.23354 0.3975 0.0
C9 C 0.07007 0.25864 0.39299 0.0
O10 O 0.11347 0.2573 0.42291 0.0
O11 O 0.10385 0.28712 0.42725 0.0
O12 O 0.11244 0.25251 0.36755 0.0
O13 O 0.11174 0.27748 0.38582 0.0
Co14 Co 0.75457 0.10745 0.39313 0.0
O15 O 0.75055 0.10587 0.36649 0.0
O16 O 0.7282 0.10301 0.38787 0.0
C17 C 0.77283 0.13363 0.39215 0.0
O18 O 0.7538 0.10893 0.42195 0.0
Co19 Co 0.79484 0.10325 0.40859 0.0
O20 O 0.78337 0.11291 0.43209 0.0
C21 C 0.77415 0.06962 0.39515 0.0
C22 C 0.733 0.10323 0.37015 0.0
C23 C 0.76581 0.11251 0.43508 0.0
O24 O 0.7592 0.07943 0.39389 0.0
O25 O 0.79012 0.07685 0.39927 0.0
O26 O 0.75476 0.13493 0.39201 0.0
O27 O 0.77917 0.1167 0.39115 0.0
Co28 Co 0.89638 0.74965 0.39384 0.0
O29 O 0.87113 0.75887 0.39345 0.0
O30 O 0.89611 0.7761 0.40057 0.0
C31 C 0.89493 0.73405 0.36607 0.0
O32 O 0.92467 0.74542 0.39459 0.0
Co33 Co 0.90398 0.7066 0.395 0.0
O34 O 0.92954 0.7149 0.3878 0.0
C35 C 0.88963 0.72596 0.42874 0.0
C36 C 0.8781 0.77518 0.39813 0.0
C37 C 0.93553 0.73174 0.39009 0.0
O38 O 0.89327 0.74208 0.42119 0.0
O39 O 0.8913 0.71032 0.4199 0.0
O40 O 0.89801 0.75214 0.36641 0.0
O41 O 0.89103 0.72653 0.38215 0.0
Co42 Co 0.24932 0.90003 0.39425 0.0
O43 O 0.25979 0.8995 0.36909 0.0
O44 O 0.27596 0.90473 0.3952 0.0
C45 C 0.23163 0.87362 0.39189 0.0
O46 O 0.2441 0.90063 0.42257 0.0
Co47 Co 0.2069 0.90463 0.40137 0.0
O48 O 0.21325 0.89776 0.42773 0.0
C49 C 0.22958 0.93775 0.39039 0.0
C50 C 0.2759 0.90279 0.37697 0.0
C51 C 0.23004 0.89833 0.4337 0.0
O52 O 0.24448 0.9279 0.39196 0.0
O53 O 0.21312 0.9307 0.39213 0.0
O54 O 0.24943 0.87264 0.39533 0.0
O55 O 0.22555 0.89023 0.38799 0.0
Co56 Co 0.10982 0.7465 0.60817 0.0
O57 O 0.13529 0.75573 0.61066 0.0
O58 O 0.11002 0.77345 0.61049 0.0
C59 C 0.11197 0.72267 0.62902 0.0
O60 O 0.08156 0.74297 0.60666 0.0
Co61 Co 0.09989 0.70677 0.59297 0.0
O62 O 0.07391 0.71291 0.60023 0.0
C63 C 0.11198 0.73625 0.56637 0.0
C64 C 0.12809 0.77244 0.61162 0.0
C65 C 0.06936 0.72972 0.60436 0.0
O66 O 0.11175 0.74844 0.57986 0.0
O67 O 0.1088 0.71865 0.56887 0.0
O68 O 0.10914 0.73977 0.63489 0.0
O69 O 0.11489 0.72083 0.61113 0.0
Co70 Co 0.25492 0.11507 0.61553 0.0
O71 O 0.25223 0.14191 0.61494 0.0
O72 O 0.22879 0.12143 0.61245 0.0
C73 C 0.27412 0.11362 0.64065 0.0
O74 O 0.25242 0.08645 0.61621 0.0
Co75 Co 0.29344 0.09745 0.6077 0.0
O76 O 0.281 0.07364 0.61566 0.0
C77 C 0.27168 0.11217 0.57597 0.0
C78 C 0.23445 0.13892 0.61269 0.0
C79 C 0.26332 0.07217 0.61725 0.0
O80 O 0.258 0.11479 0.58733 0.0
O81 O 0.28771 0.10659 0.58149 0.0
O82 O 0.2562 0.11524 0.64284 0.0
O83 O 0.2801 0.11521 0.62348 0.0
Co84 Co 0.89501 0.25202 0.60348 0.0
O85 O 0.86936 0.24318 0.60475 0.0
O86 O 0.89425 0.225 0.60314 0.0
C87 C 0.89331 0.27413 0.62645 0.0
O88 O 0.92335 0.25526 0.6029 0.0
Co89 Co 0.90548 0.29301 0.59225 0.0
O90 O 0.93111 0.28583 0.5997 0.0
C91 C 0.89155 0.26653 0.56336 0.0
C92 C 0.87619 0.2263 0.60409 0.0
C93 C 0.93555 0.26871 0.60241 0.0
O94 O 0.89349 0.25268 0.57489 0.0
O95 O 0.89382 0.28377 0.56826 0.0
O96 O 0.89537 0.25651 0.63091 0.0
O97 O 0.89052 0.27733 0.60879 0.0
Co98 Co 0.74929 0.88657 0.60684 0.0
O99 O 0.75219 0.85982 0.60628 0.0
O100 O 0.77558 0.88028 0.60383 0.0
C101 C 0.73014 0.88747 0.63199 0.0
O102 O 0.75131 0.91526 0.60779 0.0
Co103 Co 0.71039 0.90333 0.59911 0.0
O104 O 0.72229 0.92713 0.60794 0.0
C105 C 0.73235 0.88929 0.56723 0.0
C106 C 0.76999 0.86276 0.60437 0.0
C107 C 0.73994 0.92913 0.60942 0.0
O108 O 0.74606 0.88675 0.57862 0.0
O109 O 0.71625 0.89469 0.57274 0.0
O110 O 0.74811 0.88637 0.63416 0.0
O111 O 0.72418 0.8859 0.6148 0.0
Co112 Co 0.39517 0.10542 0.24975 0.0
O113 O 0.369 0.10526 0.25718 0.0
O114 O 0.39323 0.10507 0.27659 0.0
C115 C 0.39311 0.12794 0.22739 0.0
O116 O 0.42345 0.10655 0.24899 0.0
Co117 Co 0.41094 0.0959 0.21041 0.0
O118 O 0.43593 0.10366 0.22026 0.0
C119 C 0.39367 0.06623 0.23404 0.0
C120 C 0.37526 0.10498 0.27443 0.0
C121 C 0.4376 0.10658 0.2379 0.0
O122 O 0.39486 0.07692 0.2487 0.0
O123 O 0.39745 0.07194 0.21735 0.0
O124 O 0.39436 0.13272 0.24509 0.0
O125 O 0.39215 0.11009 0.22404 0.0
Co126 Co 0.89394 0.39724 0.2544 0.0
O127 O 0.86834 0.39648 0.24539 0.0
O128 O 0.8934 0.39758 0.22721 0.0
C129 C 0.89116 0.3742 0.2764 0.0
O130 O 0.92231 0.39712 0.25774 0.0
Co131 Co 0.90451 0.40751 0.29573 0.0
O132 O 0.92896 0.39666 0.28871 0.0
C133 C 0.89204 0.43726 0.26979 0.0
C134 C 0.87531 0.39682 0.22846 0.0
C135 C 0.93383 0.39501 0.27151 0.0
O136 O 0.89331 0.42588 0.2556 0.0
O137 O 0.89431 0.43204 0.28689 0.0
O138 O 0.89337 0.36977 0.25874 0.0
O139 O 0.88894 0.39189 0.27967 0.0
Co140 Co 0.61563 0.89769 0.24646 0.0
O141 O 0.64228 0.89729 0.24877 0.0
O142 O 0.62294 0.89586 0.27297 0.0
C143 C 0.61386 0.87661 0.22259 0.0
O144 O 0.58699 0.8971 0.24874 0.0
Co145 Co 0.59857 0.91222 0.20889 0.0
O146 O 0.57574 0.90015 0.21925 0.0
C147 C 0.61407 0.93957 0.23605 0.0
C148 C 0.64011 0.89618 0.26685 0.0
C149 C 0.57342 0.89657 0.23671 0.0
O150 O 0.61637 0.92615 0.24801 0.0
O151 O 0.60816 0.93684 0.21921 0.0
O152 O 0.6151 0.87078 0.2399 0.0
O153 O 0.61549 0.89459 0.22036 0.0
Co154 Co 0.11501 0.606 0.25356 0.0
O155 O 0.14106 0.60601 0.2459 0.0
O156 O 0.11679 0.60423 0.22662 0.0
C157 C 0.11695 0.6302 0.27396 0.0
O158 O 0.08672 0.6069 0.25473 0.0
Co159 Co 0.10055 0.59675 0.29289 0.0
O160 O 0.07587 0.60589 0.28428 0.0
C161 C 0.11325 0.56579 0.26889 0.0
C162 C 0.13478 0.60495 0.22869 0.0
C163 C 0.07333 0.60817 0.26669 0.0
O164 O 0.11516 0.57778 0.25549 0.0
O165 O 0.10826 0.57046 0.28556 0.0
O166 O 0.11572 0.63297 0.25591 0.0
O167 O 0.11855 0.6128 0.27934 0.0
Co168 Co 0.39215 0.88846 0.74728 0.0
O169 O 0.3658 0.88822 0.74052 0.0
O170 O 0.38928 0.89282 0.72075 0.0
C171 C 0.39203 0.86243 0.76563 0.0
O172 O 0.42048 0.88889 0.74752 0.0
Co173 Co 0.40769 0.89324 0.78775 0.0
O174 O 0.43262 0.88799 0.77663 0.0
C175 C 0.39059 0.92541 0.76824 0.0
C176 C 0.37139 0.89141 0.72334 0.0
C177 C 0.4345 0.8878 0.75877 0.0
O178 O 0.39116 0.91642 0.75249 0.0
O179 O 0.39466 0.91792 0.7841 0.0
O180 O 0.39253 0.86094 0.74734 0.0
O181 O 0.38997 0.87931 0.7721 0.0
Co182 Co 0.10906 0.39379 0.75631 0.0
O183 O 0.13562 0.3938 0.75873 0.0
O184 O 0.11619 0.39757 0.78264 0.0
C185 C 0.10704 0.36808 0.73757 0.0
O186 O 0.08055 0.39408 0.75838 0.0
Co187 Co 0.09344 0.40056 0.7159 0.0
O188 O 0.06927 0.39573 0.72868 0.0
C189 C 0.10949 0.43228 0.73726 0.0
C190 C 0.13335 0.39673 0.77659 0.0
C191 C 0.06692 0.39442 0.74647 0.0
O192 O 0.10986 0.4219 0.75208 0.0
O193 O 0.10523 0.4259 0.72089 0.0
O194 O 0.10818 0.36626 0.75576 0.0
O195 O 0.10916 0.38505 0.7314 0.0
Co196 Co 0.61375 0.10503 0.75529 0.0
O197 O 0.64036 0.10576 0.75268 0.0
O198 O 0.6207 0.10776 0.72877 0.0
C199 C 0.61267 0.12524 0.77998 0.0
O200 O 0.58517 0.10549 0.75321 0.0
Co201 Co 0.59666 0.08911 0.79235 0.0
O202 O 0.57412 0.10185 0.78271 0.0
C203 C 0.61157 0.06281 0.76419 0.0
C204 C 0.63794 0.10745 0.73467 0.0
C205 C 0.57176 0.10589 0.76536 0.0
O206 O 0.61398 0.07666 0.7527 0.0
O207 O 0.60583 0.06492 0.78115 0.0
O208 O 0.61375 0.13167 0.76286 0.0
O209 O 0.61396 0.1072 0.78153 0.0
Co210 Co 0.89396 0.60985 0.74976 0.0
O211 O 0.86793 0.60908 0.75519 0.0
O212 O 0.89019 0.60679 0.77679 0.0
C213 C 0.89346 0.63484 0.73042 0.0
O214 O 0.92249 0.61065 0.74827 0.0
Co215 Co 0.90505 0.60124 0.70843 0.0
O216 O 0.92911 0.61228 0.71723 0.0
C217 C 0.89318 0.5701 0.73283 0.0
C218 C 0.87244 0.60665 0.77267 0.0
C219 C 0.93398 0.61343 0.73451 0.0
O220 O 0.89346 0.58169 0.74675 0.0
O221 O 0.89611 0.57527 0.71579 0.0
O222 O 0.89397 0.63719 0.74858 0.0
O223 O 0.89083 0.61765 0.72476 0.0
Co224 Co 0.25397 0.39372 0.11231 0.0
O225 O 0.263 0.36799 0.1122 0.0
O226 O 0.28074 0.3937 0.11097 0.0
C227 C 0.23331 0.3912 0.13612 0.0
O228 O 0.25118 0.4221 0.11345 0.0
Co229 Co 0.21362 0.40556 0.10327 0.0
O230 O 0.22129 0.43111 0.11218 0.0
C231 C 0.23851 0.3942 0.07221 0.0
C232 C 0.2797 0.37545 0.1115 0.0
C233 C 0.23857 0.43478 0.11464 0.0
O234 O 0.25225 0.39352 0.08389 0.0
O235 O 0.22172 0.39745 0.07739 0.0
O236 O 0.25108 0.39308 0.13949 0.0
O237 O 0.22872 0.38879 0.1186 0.0
Co238 Co 0.2521 0.60985 0.89541 0.0
O239 O 0.24228 0.61213 0.87019 0.0
O240 O 0.22542 0.60587 0.89564 0.0
C241 C 0.27036 0.63579 0.89512 0.0
O242 O 0.25683 0.60738 0.92367 0.0
Co243 Co 0.29381 0.60259 0.9026 0.0
O244 O 0.2877 0.60915 0.92904 0.0
C245 C 0.27 0.57115 0.89005 0.0
C246 C 0.22599 0.60867 0.87753 0.0
C247 C 0.2709 0.60888 0.93493 0.0
O248 O 0.25592 0.58215 0.89115 0.0
O249 O 0.28679 0.57659 0.89334 0.0
O250 O 0.25256 0.63696 0.89836 0.0
O251 O 0.27626 0.61929 0.89014 0.0
Co252 Co 0.39129 0.25092 0.89508 0.0
O253 O 0.36605 0.25914 0.89274 0.0
O254 O 0.39077 0.27819 0.89177 0.0
C255 C 0.38837 0.22622 0.875 0.0
O256 O 0.41949 0.24664 0.89604 0.0
Co257 Co 0.39853 0.21092 0.91159 0.0
O258 O 0.42347 0.21547 0.90025 0.0
C259 C 0.38828 0.24207 0.93702 0.0
C260 C 0.3727 0.27606 0.89075 0.0
C261 C 0.42981 0.23185 0.89626 0.0
O262 O 0.39016 0.25403 0.92348 0.0
O263 O 0.38938 0.22423 0.93463 0.0
O264 O 0.39128 0.24307 0.86842 0.0
O265 O 0.38547 0.22536 0.89291 0.0
Co266 Co 0.74367 0.39674 0.89005 0.0
O267 O 0.74724 0.39519 0.86332 0.0
O268 O 0.77023 0.39462 0.88407 0.0
C269 C 0.71974 0.37575 0.89119 0.0
O270 O 0.74468 0.39721 0.91901 0.0
Co271 Co 0.7059 0.41176 0.90538 0.0
O272 O 0.71513 0.40065 0.92916 0.0
C273 C 0.73355 0.43856 0.89005 0.0
C274 C 0.76501 0.39404 0.86647 0.0
C275 C 0.73228 0.39715 0.93225 0.0
O276 O 0.74548 0.42517 0.88865 0.0
O277 O 0.71664 0.43594 0.89535 0.0
O278 O 0.73687 0.36989 0.89092 0.0
O279 O 0.71778 0.39366 0.88905 0.0
Co280 Co 0.60874 0.75287 0.89148 0.0
O281 O 0.63518 0.75102 0.88839 0.0
O282 O 0.61621 0.72666 0.89315 0.0
C283 C 0.60387 0.77254 0.86708 0.0
O284 O 0.58062 0.74962 0.89446 0.0
Co285 Co 0.5917 0.79149 0.90179 0.0
O286 O 0.56775 0.77836 0.89584 0.0
C287 C 0.61221 0.7703 0.93045 0.0
C288 C 0.63315 0.73297 0.89048 0.0
C289 C 0.56631 0.76046 0.89461 0.0
O290 O 0.61213 0.75584 0.91954 0.0
O291 O 0.60647 0.78653 0.9254 0.0
O292 O 0.60523 0.7545 0.86432 0.0
O293 O 0.60742 0.77827 0.88404 0.0
Co294 Co 0.75317 0.61298 0.11006 0.0
O295 O 0.74286 0.63794 0.10928 0.0
O296 O 0.72616 0.61165 0.11172 0.0
C297 C 0.77629 0.61984 0.13081 0.0
O298 O 0.75888 0.5848 0.11204 0.0
Co299 Co 0.7944 0.60539 0.09804 0.0
O300 O 0.78999 0.58088 0.11063 0.0
C301 C 0.76529 0.61177 0.06908 0.0
C302 C 0.72652 0.62996 0.11068 0.0
C303 C 0.77354 0.5745 0.11359 0.0
O304 O 0.75216 0.61138 0.08153 0.0
O305 O 0.78267 0.61118 0.07325 0.0
O306 O 0.75955 0.61618 0.13702 0.0
O307 O 0.77787 0.62067 0.11279 0.0
Co308 Co 0.39492 0.75854 0.10862 0.0
O309 O 0.36943 0.74909 0.10918 0.0
O310 O 0.39432 0.73203 0.10284 0.0
C311 C 0.39403 0.77486 0.13604 0.0
O312 O 0.42317 0.76235 0.10762 0.0
Co313 Co 0.40459 0.80078 0.10548 0.0
O314 O 0.43064 0.79299 0.11061 0.0
C315 C 0.3926 0.7802 0.07134 0.0
C316 C 0.37635 0.73271 0.10521 0.0
C317 C 0.43529 0.77575 0.10952 0.0
O318 O 0.39252 0.76481 0.08092 0.0
O319 O 0.39581 0.79635 0.07884 0.0
O320 O 0.39652 0.75677 0.13591 0.0
O321 O 0.39027 0.78229 0.11981 0.0
Co322 Co 0.61018 0.25355 0.11265 0.0
O323 O 0.63552 0.26314 0.11189 0.0
O324 O 0.61033 0.2805 0.10839 0.0
C325 C 0.61302 0.23575 0.13881 0.0
O326 O 0.5819 0.24874 0.11367 0.0
Co327 Co 0.60227 0.21068 0.10765 0.0
O328 O 0.57797 0.21768 0.11899 0.0
C329 C 0.61204 0.23363 0.07446 0.0
C330 C 0.62846 0.27968 0.10931 0.0
C331 C 0.57172 0.23442 0.11846 0.0
O332 O 0.61082 0.24866 0.08456 0.0
O333 O 0.61056 0.21701 0.08134 0.0
O334 O 0.61053 0.2538 0.14011 0.0
O335 O 0.61602 0.22951 0.12194 0.0
Co336 Co 0.89118 0.74471 0.60206 0.0
O337 O 0.865 0.74858 0.60408 0.0
O338 O 0.8852 0.77119 0.59703 0.0
C339 C 0.89369 0.7281 0.62903 0.0
O340 O 0.91973 0.74467 0.59967 0.0
Co341 Co 0.903 0.70272 0.59756 0.0
O342 O 0.92804 0.71413 0.60175 0.0
C343 C 0.88603 0.72244 0.56564 0.0
C344 C 0.86788 0.7661 0.60005 0.0
C345 C 0.93218 0.73166 0.60088 0.0
O346 O 0.88806 0.73822 0.57443 0.0
O347 O 0.88927 0.70646 0.57323 0.0
O348 O 0.89393 0.74639 0.62947 0.0
O349 O 0.88994 0.72075 0.6128 0.0
Co350 Co 0.24254 0.89888 0.61305 0.0
O351 O 0.25242 0.89856 0.63853 0.0
O352 O 0.26941 0.89959 0.61251 0.0
C353 C 0.22084 0.87584 0.61728 0.0
O354 O 0.23835 0.89848 0.58457 0.0
Co355 Co 0.20138 0.90792 0.603 0.0
O356 O 0.20795 0.89974 0.57708 0.0
C357 C 0.22726 0.93835 0.61548 0.0
C358 C 0.26888 0.89909 0.63081 0.0
C359 C 0.225 0.89786 0.5724 0.0
O360 O 0.2414 0.92739 0.61378 0.0
O361 O 0.21034 0.93264 0.61351 0.0
O362 O 0.23812 0.87142 0.61393 0.0
O363 O 0.21772 0.89356 0.61908 0.0
Co364 Co 0.11373 0.2564 0.61019 0.0
O365 O 0.13999 0.25238 0.61176 0.0
O366 O 0.11925 0.22988 0.60551 0.0
C367 C 0.11136 0.27373 0.63673 0.0
O368 O 0.08517 0.25626 0.60807 0.0
Co369 Co 0.10152 0.29778 0.60409 0.0
O370 O 0.07665 0.2867 0.60963 0.0
C371 C 0.11548 0.27639 0.57177 0.0
C372 C 0.1367 0.23486 0.60777 0.0
C373 C 0.07262 0.26915 0.6091 0.0
O374 O 0.11631 0.26179 0.58242 0.0
O375 O 0.11094 0.29268 0.57789 0.0
O376 O 0.11138 0.25545 0.6375 0.0
O377 O 0.11505 0.28083 0.62034 0.0
Co378 Co 0.75771 0.1037 0.61365 0.0
O379 O 0.75476 0.10376 0.64053 0.0
O380 O 0.73128 0.10428 0.62031 0.0
C381 C 0.78081 0.12581 0.61315 0.0
O382 O 0.75564 0.10468 0.58483 0.0
Co383 Co 0.79593 0.0926 0.59571 0.0
O384 O 0.78486 0.10443 0.5731 0.0
C385 C 0.77153 0.06356 0.61293 0.0
C386 C 0.73688 0.10439 0.63779 0.0
C387 C 0.76733 0.1067 0.57112 0.0
O388 O 0.75771 0.07508 0.61356 0.0
O389 O 0.78807 0.0685 0.60804 0.0
O390 O 0.76348 0.13102 0.61409 0.0
O391 O 0.78334 0.10794 0.614 0.0
Co392 Co 0.89939 0.24664 0.38802 0.0
O393 O 0.90117 0.25499 0.36195 0.0
O394 O 0.9048 0.27314 0.38712 0.0
C395 C 0.87282 0.22952 0.38535 0.0
O396 O 0.89735 0.24461 0.41653 0.0
Co397 Co 0.90176 0.20531 0.40099 0.0
O398 O 0.89403 0.21469 0.42622 0.0
C399 C 0.93629 0.22548 0.39 0.0
C400 C 0.90406 0.27178 0.36889 0.0
C401 C 0.89419 0.23234 0.42949 0.0
O402 O 0.92697 0.24083 0.38862 0.0
O403 O 0.92855 0.20949 0.39341 0.0
O404 O 0.87236 0.24775 0.38676 0.0
O405 O 0.88928 0.2223 0.38362 0.0
Co406 Co 0.75672 0.89209 0.39033 0.0
O407 O 0.7646 0.86593 0.39074 0.0
O408 O 0.78316 0.89077 0.39457 0.0
C409 C 0.73836 0.89055 0.36445 0.0
O410 O 0.75538 0.92064 0.38999 0.0
Co411 Co 0.71649 0.90579 0.3957 0.0
O412 O 0.72614 0.93138 0.3893 0.0
C413 C 0.73754 0.89251 0.42872 0.0
C414 C 0.78138 0.87259 0.39374 0.0
C415 C 0.74372 0.93419 0.38873 0.0
O416 O 0.75219 0.89136 0.41832 0.0
O417 O 0.72149 0.89685 0.42216 0.0
O418 O 0.75643 0.89196 0.36296 0.0
O419 O 0.732 0.88838 0.38141 0.0
Co420 Co 0.11021 0.75402 0.39149 0.0
O421 O 0.11243 0.74909 0.36514 0.0
O422 O 0.10973 0.72684 0.38673 0.0
C423 C 0.13394 0.77509 0.39319 0.0
O424 O 0.10883 0.75471 0.42037 0.0
Co425 Co 0.09782 0.79345 0.40344 0.0
O426 O 0.10927 0.7856 0.42753 0.0
C427 C 0.06915 0.76691 0.39048 0.0
C428 C 0.11192 0.7313 0.36904 0.0
C429 C 0.11106 0.76841 0.43222 0.0
O430 O 0.08217 0.75468 0.38903 0.0
O431 O 0.07235 0.78399 0.39545 0.0
O432 O 0.13689 0.75711 0.3936 0.0
O433 O 0.11688 0.77991 0.38936 0.0
Co434 Co 0.25823 0.1148 0.39687 0.0
O435 O 0.25616 0.14176 0.39817 0.0
O436 O 0.23213 0.12193 0.39652 0.0
C437 C 0.28115 0.11421 0.37495 0.0
O438 O 0.25488 0.08625 0.39462 0.0
Co439 Co 0.29522 0.09482 0.40777 0.0
O440 O 0.28275 0.07217 0.39698 0.0
C441 C 0.27121 0.11075 0.43751 0.0
C442 C 0.23817 0.13926 0.39761 0.0
C443 C 0.26524 0.07153 0.39378 0.0
O444 O 0.25805 0.11347 0.42541 0.0
O445 O 0.28747 0.10504 0.43286 0.0
O446 O 0.26387 0.11613 0.36969 0.0
O447 O 0.2839 0.11436 0.39289 0.0
Co448 Co 0.60501 0.88865 0.74507 0.0
O449 O 0.60188 0.86247 0.75079 0.0
O450 O 0.59972 0.88543 0.77184 0.0
C451 C 0.63122 0.88591 0.72775 0.0
O452 O 0.60808 0.91735 0.74363 0.0
Co453 Co 0.60166 0.90054 0.70305 0.0
O454 O 0.61313 0.92411 0.71299 0.0
C455 C 0.56767 0.89086 0.72432 0.0
C456 C 0.59886 0.86746 0.76808 0.0
C457 C 0.61286 0.92886 0.73035 0.0
O458 O 0.57746 0.89027 0.7395 0.0
O459 O 0.57489 0.89328 0.70797 0.0
O460 O 0.6321 0.88652 0.74604 0.0
O461 O 0.61456 0.88466 0.72079 0.0
Co462 Co 0.10856 0.60879 0.75561 0.0
O463 O 0.10922 0.63495 0.74737 0.0
O464 O 0.11153 0.60992 0.72886 0.0
C465 C 0.12806 0.6115 0.78041 0.0
O466 O 0.10955 0.58034 0.75738 0.0
Co467 Co 0.09352 0.59415 0.79367 0.0
O468 O 0.10321 0.56908 0.78613 0.0
C469 C 0.06713 0.60738 0.76481 0.0
C470 C 0.11106 0.62811 0.7304 0.0
C471 C 0.10835 0.56665 0.76912 0.0
O472 O 0.08058 0.60831 0.75281 0.0
O473 O 0.06957 0.60323 0.78219 0.0
O474 O 0.13469 0.61032 0.76336 0.0
O475 O 0.11011 0.61261 0.78176 0.0
Co476 Co 0.39473 0.10106 0.75926 0.0
O477 O 0.36812 0.10052 0.75646 0.0
O478 O 0.38799 0.10119 0.73262 0.0
C479 C 0.39511 0.12345 0.78208 0.0
O480 O 0.42329 0.10241 0.75715 0.0
Co481 Co 0.41222 0.09024 0.79803 0.0
O482 O 0.43502 0.10141 0.78662 0.0
C483 C 0.39384 0.06143 0.77413 0.0
C484 C 0.37073 0.10071 0.73839 0.0
C485 C 0.43698 0.10399 0.76893 0.0
O486 O 0.39461 0.07249 0.75976 0.0
O487 O 0.39833 0.06661 0.79085 0.0
O488 O 0.39426 0.1284 0.76445 0.0
O489 O 0.39436 0.10559 0.78505 0.0
Co490 Co 0.88921 0.39161 0.74999 0.0
O491 O 0.86253 0.39018 0.75213 0.0
O492 O 0.88178 0.39093 0.77648 0.0
C493 C 0.89159 0.36947 0.72693 0.0
O494 O 0.91771 0.39245 0.75292 0.0
Co495 Co 0.90668 0.40418 0.71148 0.0
O496 O 0.93034 0.39793 0.72427 0.0
C497 C 0.88912 0.43224 0.73617 0.0
C498 C 0.86467 0.3901 0.77028 0.0
C499 C 0.93189 0.39452 0.74185 0.0
O500 O 0.88816 0.42024 0.7498 0.0
O501 O 0.89411 0.42779 0.71944 0.0
O502 O 0.8902 0.36423 0.74444 0.0
O503 O 0.88982 0.38724 0.72418 0.0
Co504 Co 0.60816 0.11426 0.25733 0.0
O505 O 0.60618 0.14086 0.25376 0.0
O506 O 0.60429 0.11991 0.23068 0.0
C507 C 0.63372 0.11508 0.27589 0.0
O508 O 0.61042 0.08549 0.25655 0.0
Co509 Co 0.60247 0.09918 0.29809 0.0
O510 O 0.61448 0.07677 0.28684 0.0
C511 C 0.56977 0.11049 0.27596 0.0
C512 C 0.60404 0.13752 0.23594 0.0
C513 C 0.61484 0.07324 0.26919 0.0
O514 O 0.5803 0.11236 0.26139 0.0
O515 O 0.57612 0.10678 0.2924 0.0
O516 O 0.63527 0.11614 0.25768 0.0
O517 O 0.61685 0.11609 0.28228 0.0
Co518 Co 0.90145 0.6142 0.24498 0.0
O519 O 0.90321 0.64106 0.24755 0.0
O520 O 0.90133 0.62126 0.27152 0.0
C521 C 0.87946 0.61455 0.2222 0.0
O522 O 0.89877 0.58557 0.24724 0.0
Co523 Co 0.9119 0.59556 0.2067 0.0
O524 O 0.9018 0.57232 0.21851 0.0
C525 C 0.94129 0.61169 0.23121 0.0
C526 C 0.90258 0.6386 0.26563 0.0
C527 C 0.89827 0.57115 0.23609 0.0
O528 O 0.92965 0.61273 0.24499 0.0
O529 O 0.93645 0.6071 0.21441 0.0
O530 O 0.87457 0.61584 0.2398 0.0
O531 O 0.89718 0.61453 0.21911 0.0
Co532 Co 0.39668 0.89322 0.25835 0.0
O533 O 0.37109 0.89278 0.26707 0.0
O534 O 0.39575 0.89798 0.28522 0.0
C535 C 0.39481 0.86685 0.24033 0.0
O536 O 0.42507 0.89393 0.25496 0.0
Co537 Co 0.40633 0.89762 0.21586 0.0
O538 O 0.43195 0.89119 0.22416 0.0
C539 C 0.39188 0.9299 0.2374 0.0
C540 C 0.37769 0.89634 0.28378 0.0
C541 C 0.43689 0.89177 0.24144 0.0
O542 O 0.39477 0.92113 0.25298 0.0
O543 O 0.3938 0.92223 0.22117 0.0
O544 O 0.39734 0.86559 0.25845 0.0
O545 O 0.39184 0.88361 0.23416 0.0
Co546 Co 0.10701 0.39015 0.24805 0.0
O547 O 0.10757 0.36337 0.2508 0.0
O548 O 0.10604 0.38346 0.27464 0.0
C549 C 0.13053 0.39275 0.22723 0.0
O550 O 0.10709 0.41895 0.25007 0.0
Co551 Co 0.09489 0.40609 0.2099 0.0
O552 O 0.10744 0.42903 0.22002 0.0
C553 C 0.06594 0.39152 0.23495 0.0
C554 C 0.10659 0.36603 0.26885 0.0
C555 C 0.10958 0.43196 0.23763 0.0
O556 O 0.07896 0.38898 0.24708 0.0
O557 O 0.0692 0.39766 0.21831 0.0
O558 O 0.13377 0.39136 0.24518 0.0
O559 O 0.11328 0.39002 0.22208 0.0
Co560 Co 0.75301 0.61383 0.8904 0.0
O561 O 0.7496 0.64042 0.89087 0.0
O562 O 0.7264 0.6196 0.89138 0.0
C563 C 0.7739 0.61363 0.86678 0.0
O564 O 0.75222 0.58495 0.88916 0.0
Co565 Co 0.79248 0.59893 0.90049 0.0
O566 O 0.78237 0.57623 0.88755 0.0
C567 C 0.76728 0.6111 0.9309 0.0
C568 C 0.73178 0.63722 0.89121 0.0
C569 C 0.76495 0.57262 0.8859 0.0
O570 O 0.75417 0.61343 0.91877 0.0
O571 O 0.78393 0.60658 0.9263 0.0
O572 O 0.75614 0.61428 0.86319 0.0
O573 O 0.77847 0.61544 0.88432 0.0
Co574 Co 0.75253 0.39688 0.11094 0.0
O575 O 0.76117 0.39558 0.13686 0.0
O576 O 0.77925 0.39392 0.11166 0.0
C577 C 0.72771 0.37697 0.11356 0.0
O578 O 0.74944 0.39686 0.08228 0.0
Co579 Co 0.71394 0.41294 0.10002 0.0
O580 O 0.71953 0.40227 0.07477 0.0
C581 C 0.74418 0.43905 0.11154 0.0
C582 C 0.7779 0.39407 0.12993 0.0
C583 C 0.73609 0.39777 0.07015 0.0
O584 O 0.75571 0.42524 0.11151 0.0
O585 O 0.72664 0.43686 0.10859 0.0
O586 O 0.74445 0.37035 0.11152 0.0
O587 O 0.72684 0.395 0.1158 0.0
Co588 Co 0.61191 0.75334 0.10475 0.0
O589 O 0.63697 0.74383 0.1075 0.0
O590 O 0.61139 0.72613 0.10576 0.0
C591 C 0.6141 0.7766 0.12661 0.0
O592 O 0.58378 0.7576 0.10284 0.0
Co593 Co 0.6041 0.79427 0.09146 0.0
O594 O 0.57798 0.7884 0.09884 0.0
C595 C 0.61942 0.76644 0.06509 0.0
C596 C 0.62946 0.72706 0.10737 0.0
C597 C 0.57244 0.77155 0.10189 0.0
O598 O 0.6148 0.75286 0.07627 0.0
O599 O 0.61823 0.78384 0.06959 0.0
O600 O 0.61079 0.75934 0.13194 0.0
O601 O 0.61762 0.77866 0.10894 0.0
Co602 Co 0.25966 0.60865 0.11411 0.0
O603 O 0.25061 0.61009 0.13982 0.0
O604 O 0.23283 0.60899 0.11427 0.0
C605 C 0.28244 0.63093 0.11631 0.0
O606 O 0.26311 0.6079 0.08564 0.0
Co607 Co 0.29997 0.59653 0.10395 0.0
O608 O 0.29328 0.60434 0.07796 0.0
C609 C 0.27269 0.5684 0.11783 0.0
C610 C 0.23393 0.60972 0.13254 0.0
C611 C 0.27634 0.60726 0.07339 0.0
O612 O 0.25931 0.58016 0.11556 0.0
O613 O 0.28993 0.5729 0.11578 0.0
O614 O 0.26517 0.63589 0.11389 0.0
O615 O 0.28493 0.61321 0.11914 0.0
Co616 Co 0.39772 0.25547 0.11457 0.0
O617 O 0.37242 0.26441 0.11448 0.0
O618 O 0.3976 0.28263 0.11697 0.0
C619 C 0.3928 0.23129 0.13476 0.0
O620 O 0.42595 0.25123 0.11598 0.0
Co621 Co 0.40676 0.21509 0.10009 0.0
O622 O 0.43079 0.22002 0.11327 0.0
C623 C 0.39631 0.24488 0.0732 0.0
C624 C 0.37947 0.28126 0.11604 0.0
C625 C 0.43649 0.23667 0.11711 0.0
O626 O 0.39844 0.25755 0.0861 0.0
O627 O 0.39738 0.22719 0.07648 0.0
O628 O 0.39555 0.24823 0.14133 0.0
O629 O 0.39155 0.23006 0.11669 0.0
Co630 Co 0.25555 0.39595 0.89366 0.0
O631 O 0.26098 0.36964 0.89229 0.0
O632 O 0.28246 0.39215 0.89507 0.0
C633 C 0.23538 0.39589 0.86918 0.0
O634 O 0.25483 0.42479 0.89409 0.0
Co635 Co 0.21523 0.40862 0.90279 0.0
O636 O 0.22452 0.43219 0.89095 0.0
C637 C 0.23949 0.39563 0.93365 0.0
C638 C 0.2785 0.37432 0.89294 0.0
C639 C 0.24181 0.43662 0.89035 0.0
O640 O 0.25327 0.39453 0.92205 0.0
O641 O 0.22292 0.39985 0.92851 0.0
O642 O 0.25328 0.39683 0.86637 0.0
O643 O 0.23033 0.39312 0.88646 0.0
Co644 Co 0.6059 0.24919 0.89717 0.0
O645 O 0.60576 0.24112 0.87094 0.0
O646 O 0.60878 0.22243 0.89567 0.0
C647 C 0.62525 0.27427 0.89421 0.0
O648 O 0.60769 0.25111 0.9257 0.0
Co649 Co 0.59112 0.28727 0.91182 0.0
O650 O 0.6013 0.27989 0.93681 0.0
C651 C 0.56449 0.25795 0.89901 0.0
C652 C 0.60767 0.22412 0.8775 0.0
C653 C 0.60663 0.26303 0.93932 0.0
O654 O 0.57789 0.24605 0.89818 0.0
O655 O 0.5671 0.27545 0.90273 0.0
O656 O 0.63203 0.25737 0.89521 0.0
O657 O 0.60727 0.27526 0.89339 0.0
Co658 Co 0.39533 0.75057 0.8935 0.0
O659 O 0.39655 0.75123 0.86643 0.0
O660 O 0.40025 0.77619 0.88481 0.0
C661 C 0.36902 0.73287 0.89506 0.0
O662 O 0.39426 0.75514 0.92205 0.0
Co663 Co 0.39859 0.7123 0.91426 0.0
O664 O 0.39112 0.72717 0.93666 0.0
C665 C 0.43226 0.73019 0.89812 0.0
C666 C 0.3995 0.76923 0.86781 0.0
C667 C 0.39158 0.74514 0.93702 0.0
O668 O 0.42292 0.74521 0.89476 0.0
O669 O 0.42474 0.71497 0.90432 0.0
O670 O 0.36812 0.75097 0.89262 0.0
O671 O 0.3856 0.72593 0.89478 0.0
H672 H 0.10709 0.36566 0.308 0.0
H673 H 0.10429 0.32924 0.2587 0.0
H674 H 0.10329 0.30143 0.27914 0.0
H675 H 0.13703 0.33625 0.33512 0.0
H676 H 0.12576 0.3408 0.35736 0.0
H677 H 0.12529 0.35826 0.33899 0.0
H678 H 0.08915 0.35859 0.34057 0.0
H679 H 0.08952 0.34109 0.35893 0.0
H680 H 0.07618 0.33684 0.33775 0.0
H681 H 0.10354 0.27753 0.30414 0.0
H682 H 0.10598 0.25842 0.33289 0.0
H683 H 0.10884 0.30944 0.36679 0.0
C684 C 0.10614 0.35183 0.30156 0.0
C685 C 0.10576 0.34967 0.28172 0.0
C686 C 0.10463 0.33132 0.27383 0.0
C687 C 0.10398 0.31538 0.28533 0.0
C688 C 0.10446 0.31793 0.30475 0.0
C689 C 0.10554 0.33562 0.3129 0.0
C690 C 0.10646 0.33414 0.33425 0.0
C691 C 0.12473 0.34288 0.34187 0.0
C692 C 0.08931 0.34321 0.34341 0.0
C693 C 0.10607 0.31288 0.33667 0.0
C694 C 0.10473 0.3039 0.31942 0.0
C695 C 0.10451 0.28436 0.31777 0.0
C696 C 0.10592 0.27363 0.3342 0.0
C697 C 0.1076 0.28243 0.35207 0.0
C698 C 0.10748 0.30233 0.35332 0.0
H699 H 0.69474 0.10862 0.37054 0.0
H700 H 0.74099 0.09335 0.33424 0.0
H701 H 0.71996 0.09279 0.30686 0.0
H702 H 0.65829 0.08059 0.34491 0.0
H703 H 0.64077 0.09833 0.34811 0.0
H704 H 0.65892 0.09557 0.36547 0.0
H705 H 0.66798 0.13082 0.36187 0.0
H706 H 0.64998 0.13364 0.34441 0.0
H707 H 0.67382 0.13987 0.33886 0.0
H708 H 0.6954 0.09672 0.2831 0.0
H709 H 0.66777 0.10384 0.26393 0.0
H710 H 0.63647 0.11643 0.31476 0.0
C711 C 0.70028 0.10475 0.35688 0.0
C712 C 0.71949 0.10099 0.35451 0.0
C713 C 0.72634 0.09632 0.33639 0.0
C714 C 0.71449 0.0959 0.32073 0.0
C715 C 0.69578 0.10015 0.32338 0.0
C716 C 0.68858 0.10435 0.34096 0.0
C717 C 0.66808 0.10946 0.33949 0.0
C718 C 0.65579 0.09513 0.35013 0.0
C719 C 0.66478 0.12965 0.34657 0.0
C720 C 0.66513 0.10793 0.31832 0.0
C721 C 0.68132 0.1024 0.30941 0.0
C722 C 0.68255 0.10084 0.2899 0.0
C723 C 0.66679 0.10502 0.27912 0.0
C724 C 0.64998 0.11068 0.28785 0.0
C725 C 0.64911 0.11201 0.30773 0.0
H726 H 0.89229 0.69559 0.36268 0.0
H727 H 0.90276 0.74658 0.33052 0.0
H728 H 0.90659 0.72746 0.30166 0.0
H729 H 0.92564 0.6665 0.33801 0.0
H730 H 0.91113 0.6456 0.33896 0.0
H731 H 0.90941 0.66324 0.35718 0.0
H732 H 0.87392 0.66592 0.35084 0.0
H733 H 0.8755 0.64829 0.33262 0.0
H734 H 0.86586 0.67102 0.32733 0.0
H735 H 0.90859 0.70315 0.27637 0.0
H736 H 0.90875 0.67514 0.2559 0.0
H737 H 0.89736 0.63947 0.30431 0.0
C738 C 0.89542 0.70274 0.34957 0.0
C739 C 0.89721 0.72259 0.34882 0.0
C740 C 0.90133 0.73141 0.33141 0.0
C741 C 0.90354 0.72066 0.31496 0.0
C742 C 0.90167 0.70113 0.31619 0.0
C743 C 0.89774 0.69222 0.33302 0.0
C744 C 0.89634 0.67101 0.33041 0.0
C745 C 0.91154 0.661 0.34182 0.0
C746 C 0.87674 0.66364 0.3356 0.0
C747 C 0.8999 0.66942 0.30939 0.0
C748 C 0.90298 0.68699 0.30154 0.0
C749 C 0.90627 0.68931 0.28236 0.0
C750 C 0.90631 0.67327 0.27085 0.0
C751 C 0.90309 0.65507 0.27849 0.0
C752 C 0.89996 0.65316 0.29807 0.0
H753 H 0.33942 0.89315 0.28472 0.0
H754 H 0.38765 0.90458 0.32024 0.0
H755 H 0.36684 0.90826 0.34777 0.0
H756 H 0.30839 0.92615 0.30718 0.0
H757 H 0.28812 0.91101 0.30487 0.0
H758 H 0.30679 0.90956 0.28793 0.0
H759 H 0.30986 0.87387 0.29467 0.0
H760 H 0.2912 0.8752 0.3116 0.0
H761 H 0.31354 0.86605 0.31854 0.0
H762 H 0.34069 0.91026 0.37158 0.0
H763 H 0.31133 0.91003 0.38987 0.0
H764 H 0.28016 0.89731 0.3388 0.0
C765 C 0.34563 0.89646 0.29828 0.0
C766 C 0.3652 0.89858 0.30031 0.0
C767 C 0.37272 0.90289 0.31832 0.0
C768 C 0.361 0.90503 0.33404 0.0
C769 C 0.34177 0.90284 0.33155 0.0
C770 C 0.33414 0.89864 0.31411 0.0
C771 C 0.31305 0.89677 0.31527 0.0
C772 C 0.30353 0.91177 0.30309 0.0
C773 C 0.30654 0.87678 0.3097 0.0
C774 C 0.31001 0.90046 0.3361 0.0
C775 C 0.32675 0.90399 0.34523 0.0
C776 C 0.3275 0.90756 0.36456 0.0
C777 C 0.31074 0.9074 0.37484 0.0
C778 C 0.29342 0.90368 0.3658 0.0
C779 C 0.29314 0.90028 0.34613 0.0
H780 H 0.10743 0.66688 0.72738 0.0
H781 H 0.11705 0.61611 0.6946 0.0
H782 H 0.118 0.63483 0.66556 0.0
H783 H 0.07753 0.68926 0.69337 0.0
H784 H 0.0867 0.71266 0.69754 0.0
H785 H 0.08697 0.69545 0.71616 0.0
H786 H 0.12269 0.70033 0.71996 0.0
H787 H 0.12251 0.71761 0.7014 0.0
H788 H 0.13766 0.69757 0.69974 0.0
H789 H 0.11767 0.65835 0.64004 0.0
H790 H 0.11671 0.68598 0.61919 0.0
H791 H 0.10733 0.72216 0.66768 0.0
C792 C 0.10983 0.65976 0.71409 0.0
C793 C 0.11217 0.64001 0.71331 0.0
C794 C 0.11519 0.6312 0.69562 0.0
C795 C 0.11576 0.64171 0.67899 0.0
C796 C 0.11328 0.66106 0.68019 0.0
C797 C 0.11042 0.67009 0.69722 0.0
C798 C 0.10811 0.69113 0.69431 0.0
C799 C 0.08867 0.6975 0.70073 0.0
C800 C 0.12367 0.70232 0.70446 0.0
C801 C 0.11015 0.6924 0.67303 0.0
C802 C 0.11309 0.67483 0.66524 0.0
C803 C 0.11539 0.67222 0.64593 0.0
C804 C 0.11481 0.68801 0.6342 0.0
C805 C 0.11195 0.70623 0.64178 0.0
C806 C 0.10951 0.7084 0.66147 0.0
H807 H 0.31277 0.11492 0.64231 0.0
H808 H 0.26319 0.10306 0.67567 0.0
H809 H 0.28285 0.09701 0.70338 0.0
H810 H 0.34282 0.07985 0.6647 0.0
H811 H 0.36333 0.09481 0.66418 0.0
H812 H 0.34556 0.09721 0.64637 0.0
H813 H 0.34258 0.13261 0.65462 0.0
H814 H 0.36032 0.13032 0.67246 0.0
H815 H 0.33775 0.13947 0.6786 0.0
H816 H 0.30699 0.09361 0.72766 0.0
H817 H 0.3348 0.09321 0.74789 0.0
H818 H 0.36972 0.10733 0.69978 0.0
C819 C 0.30612 0.11087 0.65542 0.0
C820 C 0.28643 0.10945 0.65683 0.0
C821 C 0.27821 0.10429 0.67425 0.0
C822 C 0.28927 0.10076 0.69008 0.0
C823 C 0.30856 0.10246 0.68833 0.0
C824 C 0.31701 0.10738 0.67151 0.0
C825 C 0.33808 0.10892 0.67391 0.0
C826 C 0.34803 0.09432 0.66155 0.0
C827 C 0.34509 0.12902 0.66965 0.0
C828 C 0.34003 0.1043 0.69473 0.0
C829 C 0.32276 0.10053 0.70263 0.0
C830 C 0.32063 0.09643 0.72166 0.0
C831 C 0.33655 0.09629 0.73305 0.0
C832 C 0.35447 0.10023 0.72545 0.0
C833 C 0.35624 0.10413 0.70596 0.0
H834 H 0.88993 0.27385 0.66549 0.0
H835 H 0.90241 0.31022 0.61786 0.0
H836 H 0.90622 0.33712 0.63914 0.0
H837 H 0.86212 0.30729 0.68966 0.0
H838 H 0.86975 0.30114 0.71305 0.0
H839 H 0.87 0.28376 0.69452 0.0
H840 H 0.90515 0.27814 0.70061 0.0
H841 H 0.905 0.29555 0.71918 0.0
H842 H 0.92131 0.29781 0.69994 0.0
H843 H 0.90682 0.36036 0.6641 0.0
H844 H 0.90267 0.37994 0.69206 0.0
H845 H 0.88892 0.33025 0.72517 0.0
C846 C 0.89376 0.28744 0.65966 0.0
C847 C 0.89608 0.28984 0.63996 0.0
C848 C 0.90067 0.30791 0.63281 0.0
C849 C 0.90294 0.32334 0.64482 0.0
C850 C 0.90042 0.32063 0.66405 0.0
C851 C 0.89581 0.30326 0.67155 0.0
C852 C 0.89247 0.30491 0.6927 0.0
C853 C 0.87239 0.29892 0.69777 0.0
C854 C 0.90685 0.29342 0.70376 0.0
C855 C 0.89558 0.32597 0.69567 0.0
C856 C 0.9004 0.33454 0.67886 0.0
C857 C 0.90323 0.35385 0.67741 0.0
C858 C 0.9008 0.36488 0.69348 0.0
C859 C 0.89556 0.35669 0.71092 0.0
C860 C 0.89317 0.33688 0.7121 0.0
H861 H 0.69168 0.88508 0.63282 0.0
H862 H 0.74038 0.89479 0.6682 0.0
H863 H 0.72015 0.89672 0.69617 0.0
H864 H 0.66008 0.91615 0.65898 0.0
H865 H 0.64019 0.90062 0.65597 0.0
H866 H 0.65836 0.90126 0.6384 0.0
H867 H 0.66256 0.86522 0.64189 0.0
H868 H 0.6445 0.86449 0.65953 0.0
H869 H 0.66734 0.85551 0.66483 0.0
H870 H 0.69524 0.89577 0.72047 0.0
H871 H 0.66678 0.89265 0.73978 0.0
H872 H 0.63381 0.88361 0.68908 0.0
C873 C 0.69802 0.88785 0.64643 0.0
C874 C 0.71761 0.88979 0.64834 0.0
C875 C 0.72542 0.89323 0.6664 0.0
C876 C 0.71405 0.89438 0.68238 0.0
C877 C 0.69485 0.8921 0.6801 0.0
C878 C 0.68684 0.889 0.66261 0.0
C879 C 0.66585 0.88635 0.66428 0.0
C880 C 0.65551 0.90203 0.65379 0.0
C881 C 0.65971 0.86672 0.65722 0.0
C882 C 0.66342 0.88816 0.68545 0.0
C883 C 0.68035 0.89156 0.69425 0.0
C884 C 0.68186 0.89324 0.71375 0.0
C885 C 0.66562 0.89139 0.7246 0.0
C886 C 0.6481 0.88789 0.71593 0.0
C887 C 0.64701 0.88634 0.69608 0.0
H888 H 0.33684 0.10998 0.27644 0.0
H889 H 0.38597 0.09865 0.31041 0.0
H890 H 0.36674 0.09851 0.33897 0.0
H891 H 0.31559 0.14148 0.30922 0.0
H892 H 0.29198 0.13342 0.305 0.0
H893 H 0.30922 0.13161 0.28662 0.0
H894 H 0.30243 0.0958 0.28381 0.0
H895 H 0.28514 0.0975 0.30218 0.0
H896 H 0.30409 0.08117 0.30448 0.0
H897 H 0.34349 0.10094 0.36383 0.0
H898 H 0.31664 0.10573 0.38455 0.0
H899 H 0.28131 0.11545 0.33575 0.0
C900 C 0.34345 0.1073 0.28988 0.0
C901 C 0.36294 0.10433 0.29116 0.0
C902 C 0.37112 0.10102 0.30902 0.0
C903 C 0.3603 0.10085 0.32538 0.0
C904 C 0.34127 0.10401 0.32373 0.0
C905 C 0.33279 0.10715 0.30654 0.0
C906 C 0.31205 0.11075 0.30914 0.0
C907 C 0.30691 0.13049 0.30208 0.0
C908 C 0.30023 0.09539 0.29932 0.0
C909 C 0.3104 0.10941 0.33047 0.0
C910 C 0.3275 0.10539 0.33844 0.0
C911 C 0.32997 0.10394 0.3578 0.0
C912 C 0.31456 0.10671 0.36947 0.0
C913 C 0.29681 0.11088 0.36181 0.0
C914 C 0.29468 0.11214 0.342 0.0
H915 H 0.90137 0.27473 0.3299 0.0
H916 H 0.90826 0.30781 0.38114 0.0
H917 H 0.90641 0.33693 0.36271 0.0
H918 H 0.92892 0.30713 0.29945 0.0
H919 H 0.91389 0.3036 0.27932 0.0
H920 H 0.91674 0.28498 0.29628 0.0
H921 H 0.8809 0.28336 0.30099 0.0
H922 H 0.87795 0.30208 0.28419 0.0
H923 H 0.86861 0.30437 0.30766 0.0
H924 H 0.90071 0.36218 0.34008 0.0
H925 H 0.89483 0.38311 0.31345 0.0
H926 H 0.89356 0.33505 0.27537 0.0
C927 C 0.90278 0.28812 0.33715 0.0
C928 C 0.90493 0.28894 0.35702 0.0
C929 C 0.90662 0.30673 0.36599 0.0
C930 C 0.90556 0.32341 0.35564 0.0
C931 C 0.90302 0.32216 0.33623 0.0
C932 C 0.90195 0.30506 0.32694 0.0
C933 C 0.899 0.30801 0.30589 0.0
C934 C 0.91563 0.30048 0.29457 0.0
C935 C 0.88052 0.29891 0.2993 0.0
C936 C 0.89821 0.3294 0.30499 0.0
C937 C 0.90048 0.33712 0.32276 0.0
C938 C 0.89928 0.35637 0.32602 0.0
C939 C 0.8959 0.36817 0.31071 0.0
C940 C 0.89404 0.36084 0.29218 0.0
C941 C 0.89518 0.34112 0.28931 0.0
H942 H 0.69969 0.88999 0.36317 0.0
H943 H 0.74908 0.89401 0.32784 0.0
H944 H 0.72914 0.89592 0.29965 0.0
H945 H 0.6721 0.86128 0.33129 0.0
H946 H 0.65043 0.87292 0.33634 0.0
H947 H 0.66845 0.872 0.35405 0.0
H948 H 0.66817 0.90836 0.35693 0.0
H949 H 0.65014 0.9094 0.33924 0.0
H950 H 0.6716 0.92254 0.33613 0.0
H951 H 0.70454 0.89705 0.2754 0.0
H952 H 0.67631 0.89779 0.25585 0.0
H953 H 0.64181 0.8933 0.30606 0.0
C954 C 0.70628 0.89128 0.34949 0.0
C955 C 0.726 0.89182 0.34772 0.0
C956 C 0.73406 0.89356 0.32958 0.0
C957 C 0.72284 0.89465 0.31346 0.0
C958 C 0.70352 0.89404 0.31565 0.0
C959 C 0.69522 0.89244 0.33315 0.0
C960 C 0.67404 0.89214 0.33133 0.0
C961 C 0.66577 0.87347 0.33869 0.0
C962 C 0.66549 0.90913 0.34151 0.0
C963 C 0.6718 0.89372 0.31007 0.0
C964 C 0.68908 0.8948 0.30142 0.0
C965 C 0.69092 0.89625 0.28198 0.0
C966 C 0.67472 0.89664 0.27099 0.0
C967 C 0.65676 0.8956 0.27936 0.0
C968 C 0.65531 0.89413 0.29923 0.0
H969 H 0.10755 0.63265 0.31196 0.0
H970 H 0.13031 0.66458 0.26496 0.0
H971 H 0.13268 0.69273 0.28496 0.0
H972 H 0.07933 0.67017 0.32977 0.0
H973 H 0.08291 0.66486 0.35434 0.0
H974 H 0.0841 0.64636 0.33695 0.0
H975 H 0.11726 0.63796 0.34853 0.0
H976 H 0.11616 0.65642 0.36598 0.0
H977 H 0.13516 0.65602 0.34934 0.0
H978 H 0.13156 0.71748 0.30841 0.0
H979 H 0.12669 0.73886 0.33499 0.0
H980 H 0.10413 0.69256 0.36827 0.0
C981 C 0.11325 0.64554 0.30607 0.0
C982 C 0.11882 0.64644 0.28692 0.0
C983 C 0.1259 0.66359 0.27954 0.0
C984 C 0.12739 0.67966 0.29081 0.0
C985 C 0.1216 0.67848 0.30946 0.0
C986 C 0.11462 0.66199 0.31717 0.0
C987 C 0.10852 0.66525 0.33749 0.0
C988 C 0.08746 0.66143 0.33976 0.0
C989 C 0.11996 0.65319 0.35115 0.0
C990 C 0.11317 0.68612 0.33981 0.0
C991 C 0.12074 0.69326 0.32337 0.0
C992 C 0.12571 0.71211 0.32143 0.0
C993 C 0.12279 0.72416 0.33665 0.0
C994 C 0.11497 0.71744 0.35374 0.0
C995 C 0.11023 0.69807 0.35542 0.0
H996 H 0.33268 0.89005 0.72356 0.0
H997 H 0.38055 0.89729 0.6866 0.0
H998 H 0.35952 0.90048 0.6594 0.0
H999 H 0.30465 0.86265 0.69118 0.0
H1000 H 0.28292 0.87339 0.69778 0.0
H1001 H 0.30166 0.87193 0.71466 0.0
H1002 H 0.30061 0.90806 0.71969 0.0
H1003 H 0.28186 0.90963 0.70283 0.0
H1004 H 0.30288 0.9235 0.69966 0.0
H1005 H 0.33377 0.90234 0.63606 0.0
H1006 H 0.30451 0.90299 0.61781 0.0
H1007 H 0.27274 0.8949 0.66936 0.0
C1008 C 0.33871 0.89234 0.70975 0.0
C1009 C 0.35831 0.89341 0.70726 0.0
C1010 C 0.36562 0.89642 0.68893 0.0
C1011 C 0.35379 0.89826 0.67334 0.0
C1012 C 0.3346 0.89711 0.67624 0.0
C1013 C 0.32704 0.89426 0.69394 0.0
C1014 C 0.30585 0.8935 0.69297 0.0
C1015 C 0.29833 0.87422 0.69954 0.0
C1016 C 0.2973 0.90963 0.70447 0.0
C1017 C 0.30276 0.89625 0.67197 0.0
C1018 C 0.31958 0.89831 0.66264 0.0
C1019 C 0.32049 0.90079 0.64319 0.0
C1020 C 0.30377 0.90113 0.63295 0.0
C1021 C 0.28631 0.89902 0.64212 0.0
C1022 C 0.28585 0.89662 0.66194 0.0
H1023 H 0.10963 0.36756 0.699 0.0
H1024 H 0.0991 0.33173 0.74743 0.0
H1025 H 0.0969 0.304 0.72642 0.0
H1026 H 0.07905 0.34192 0.66565 0.0
H1027 H 0.09492 0.34526 0.64619 0.0
H1028 H 0.09396 0.36255 0.66481 0.0
H1029 H 0.12954 0.35915 0.67029 0.0
H1030 H 0.1306 0.34182 0.65176 0.0
H1031 H 0.13894 0.33618 0.67504 0.0
H1032 H 0.09789 0.28004 0.70067 0.0
H1033 H 0.10228 0.26119 0.67181 0.0
H1034 H 0.11254 0.31239 0.6399 0.0
C1035 C 0.10656 0.35392 0.70514 0.0
C1036 C 0.10446 0.35177 0.72483 0.0
C1037 C 0.10072 0.33368 0.73238 0.0
C1038 C 0.0994 0.31786 0.72056 0.0
C1039 C 0.10184 0.3204 0.70124 0.0
C1040 C 0.1053 0.33796 0.69354 0.0
C1041 C 0.10842 0.33664 0.67244 0.0
C1042 C 0.09318 0.34722 0.66163 0.0
C1043 C 0.12804 0.34387 0.66708 0.0
C1044 C 0.10657 0.31555 0.66954 0.0
C1045 C 0.10258 0.30649 0.68633 0.0
C1046 C 0.10086 0.28697 0.68741 0.0
C1047 C 0.10342 0.27639 0.67094 0.0
C1048 C 0.10774 0.28533 0.65362 0.0
C1049 C 0.10915 0.30518 0.65292 0.0
H1050 H 0.69791 0.10278 0.63833 0.0
H1051 H 0.74673 0.10905 0.67436 0.0
H1052 H 0.72649 0.11155 0.70207 0.0
H1053 H 0.66822 0.13521 0.6644 0.0
H1054 H 0.64727 0.12114 0.66159 0.0
H1055 H 0.66538 0.12024 0.64399 0.0
H1056 H 0.6671 0.08404 0.64785 0.0
H1057 H 0.64897 0.08483 0.66542 0.0
H1058 H 0.67106 0.07423 0.67091 0.0
H1059 H 0.70202 0.11303 0.72589 0.0
H1060 H 0.67385 0.1125 0.74545 0.0
H1061 H 0.63951 0.10503 0.69537 0.0
C1062 C 0.70428 0.10473 0.65206 0.0
C1063 C 0.72398 0.10573 0.65411 0.0
C1064 C 0.73175 0.1082 0.67234 0.0
C1065 C 0.72036 0.1097 0.68823 0.0
C1066 C 0.70111 0.10866 0.6858 0.0
C1067 C 0.69301 0.10618 0.66828 0.0
C1068 C 0.67181 0.10511 0.67003 0.0
C1069 C 0.66263 0.1214 0.65937 0.0
C1070 C 0.66429 0.08591 0.66314 0.0
C1071 C 0.66944 0.10729 0.69126 0.0
C1072 C 0.68663 0.1094 0.69991 0.0
C1073 C 0.68845 0.11141 0.71932 0.0
C1074 C 0.67229 0.11106 0.73032 0.0
C1075 C 0.65441 0.10871 0.72201 0.0
C1076 C 0.65296 0.10696 0.70213 0.0
H1077 H 0.89008 0.68979 0.63248 0.0
H1078 H 0.90431 0.74055 0.66388 0.0
H1079 H 0.90776 0.72167 0.69284 0.0
H1080 H 0.86239 0.6688 0.66768 0.0
H1081 H 0.86977 0.64503 0.66308 0.0
H1082 H 0.8701 0.66217 0.64442 0.0
H1083 H 0.90521 0.65584 0.63866 0.0
H1084 H 0.90497 0.6386 0.65726 0.0
H1085 H 0.92147 0.65796 0.65799 0.0
H1086 H 0.90744 0.69794 0.71861 0.0
H1087 H 0.90366 0.67069 0.73977 0.0
H1088 H 0.88963 0.63509 0.69181 0.0
C1089 C 0.89419 0.69688 0.64539 0.0
C1090 C 0.89696 0.71661 0.64597 0.0
C1091 C 0.90213 0.72543 0.66315 0.0
C1092 C 0.90417 0.71484 0.67964 0.0
C1093 C 0.90104 0.69545 0.67868 0.0
C1094 C 0.89624 0.68651 0.662 0.0
C1095 C 0.89272 0.66564 0.66505 0.0
C1096 C 0.87255 0.66009 0.65975 0.0
C1097 C 0.90694 0.65381 0.65409 0.0
C1098 C 0.89591 0.66432 0.68611 0.0
C1099 C 0.90083 0.68167 0.69364 0.0
C1100 C 0.90376 0.68424 0.71288 0.0
C1101 C 0.90152 0.66869 0.72478 0.0
C1102 C 0.89636 0.6508 0.71742 0.0
C1103 C 0.8937 0.64858 0.6978 0.0
H1104 H 0.28281 0.33668 0.11191 0.0
H1105 H 0.31562 0.38852 0.11196 0.0
H1106 H 0.34454 0.37017 0.1135 0.0
H1107 H 0.31178 0.31123 0.14423 0.0
H1108 H 0.30918 0.289 0.13209 0.0
H1109 H 0.29088 0.30615 0.13085 0.0
H1110 H 0.29249 0.30543 0.09435 0.0
H1111 H 0.31074 0.28822 0.09549 0.0
H1112 H 0.31451 0.30989 0.08278 0.0
H1113 H 0.37003 0.34634 0.11552 0.0
H1114 H 0.3903 0.31842 0.11675 0.0
H1115 H 0.34119 0.28199 0.11505 0.0
C1116 C 0.29608 0.34415 0.11219 0.0
C1117 C 0.29691 0.36405 0.11183 0.0
C1118 C 0.31458 0.37329 0.11221 0.0
C1119 C 0.33113 0.36299 0.11311 0.0
C1120 C 0.32984 0.34342 0.11357 0.0
C1121 C 0.3128 0.33406 0.11303 0.0
C1122 C 0.31541 0.3129 0.11357 0.0
C1123 C 0.30627 0.30432 0.13124 0.0
C1124 C 0.30784 0.30356 0.09547 0.0
C1125 C 0.33653 0.31188 0.11456 0.0
C1126 C 0.34459 0.32966 0.11459 0.0
C1127 C 0.36389 0.33233 0.11548 0.0
C1128 C 0.3753 0.3164 0.11621 0.0
C1129 C 0.36736 0.29803 0.11601 0.0
C1130 C 0.3477 0.29584 0.11524 0.0
H1131 H 0.36644 0.69436 0.89304 0.0
H1132 H 0.33354 0.74456 0.90202 0.0
H1133 H 0.30499 0.72485 0.90441 0.0
H1134 H 0.33355 0.67081 0.86366 0.0
H1135 H 0.33811 0.64763 0.87276 0.0
H1136 H 0.35621 0.66544 0.8732 0.0
H1137 H 0.35996 0.661 0.90926 0.0
H1138 H 0.3419 0.64311 0.90892 0.0
H1139 H 0.33985 0.66319 0.92435 0.0
H1140 H 0.28006 0.70008 0.90476 0.0
H1141 H 0.25994 0.67181 0.90231 0.0
H1142 H 0.30873 0.63748 0.89214 0.0
C1143 C 0.35325 0.70116 0.89575 0.0
C1144 C 0.35217 0.72097 0.89745 0.0
C1145 C 0.33466 0.7294 0.90071 0.0
C1146 C 0.31839 0.71833 0.90213 0.0
C1147 C 0.31989 0.69887 0.90017 0.0
C1148 C 0.33684 0.69033 0.89703 0.0
C1149 C 0.33443 0.66921 0.89453 0.0
C1150 C 0.34096 0.66291 0.87487 0.0
C1151 C 0.34464 0.6585 0.9102 0.0
C1152 C 0.31343 0.66726 0.89655 0.0
C1153 C 0.30538 0.68454 0.89997 0.0
C1154 C 0.2862 0.68646 0.90214 0.0
C1155 C 0.27489 0.6703 0.90071 0.0
C1156 C 0.28277 0.65245 0.897 0.0
C1157 C 0.30232 0.65094 0.89497 0.0
H1158 H 0.31428 0.37029 0.90787 0.0
H1159 H 0.27447 0.34592 0.86829 0.0
H1160 H 0.29642 0.32067 0.86088 0.0
H1161 H 0.35747 0.35722 0.88166 0.0
H1162 H 0.37009 0.35124 0.90278 0.0
H1163 H 0.35242 0.36911 0.90353 0.0
H1164 H 0.33535 0.351 0.9302 0.0
H1165 H 0.35297 0.33314 0.92956 0.0
H1166 H 0.32873 0.32667 0.92657 0.0
H1167 H 0.3203 0.29683 0.8595 0.0
H1168 H 0.34516 0.27398 0.86534 0.0
H1169 H 0.37074 0.31209 0.906 0.0
C1170 C 0.31044 0.35979 0.89742 0.0
C1171 C 0.29272 0.36006 0.88857 0.0
C1172 C 0.28794 0.34591 0.87527 0.0
C1173 C 0.30036 0.33158 0.87085 0.0
C1174 C 0.31756 0.33144 0.87993 0.0
C1175 C 0.3227 0.34502 0.89302 0.0
C1176 C 0.34143 0.34024 0.90188 0.0
C1177 C 0.35623 0.35536 0.89718 0.0
C1178 C 0.3395 0.3376 0.92332 0.0
C1179 C 0.34565 0.32169 0.89202 0.0
C1180 C 0.33171 0.31717 0.87923 0.0
C1181 C 0.33147 0.30029 0.86925 0.0
C1182 C 0.34562 0.28739 0.87268 0.0
C1183 C 0.3599 0.29141 0.88591 0.0
C1184 C 0.36019 0.30895 0.89546 0.0
H1185 H 0.66376 0.27732 0.89365 0.0
H1186 H 0.61317 0.31033 0.89689 0.0
H1187 H 0.63205 0.33947 0.89808 0.0
H1188 H 0.69209 0.30723 0.92483 0.0
H1189 H 0.71308 0.30454 0.91111 0.0
H1190 H 0.69572 0.28595 0.91144 0.0
H1191 H 0.69371 0.28695 0.87498 0.0
H1192 H 0.71107 0.30551 0.87454 0.0
H1193 H 0.68872 0.30892 0.86343 0.0
H1194 H 0.65582 0.36502 0.89778 0.0
H1195 H 0.68346 0.38583 0.89539 0.0
H1196 H 0.71917 0.33691 0.89218 0.0
C1197 C 0.6567 0.29068 0.89476 0.0
C1198 C 0.63698 0.29153 0.89524 0.0
C1199 C 0.62824 0.30929 0.89653 0.0
C1200 C 0.63884 0.32596 0.89726 0.0
C1201 C 0.6582 0.32468 0.89666 0.0
C1202 C 0.66711 0.30756 0.89542 0.0
C1203 C 0.68813 0.31035 0.89433 0.0
C1204 C 0.69782 0.30149 0.91145 0.0
C1205 C 0.69586 0.30247 0.87571 0.0
C1206 C 0.68955 0.33169 0.89493 0.0
C1207 C 0.67208 0.33961 0.8964 0.0
C1208 C 0.6696 0.35902 0.89672 0.0
C1209 C 0.6854 0.37072 0.89534 0.0
C1210 C 0.70346 0.363 0.89364 0.0
C1211 C 0.70555 0.34321 0.8936 0.0
H1212 H 0.6929 0.63736 0.89465 0.0
H1213 H 0.74152 0.6738 0.88684 0.0
H1214 H 0.7214 0.70133 0.88574 0.0
H1215 H 0.66191 0.66322 0.8639 0.0
H1216 H 0.64161 0.66034 0.87868 0.0
H1217 H 0.65964 0.64285 0.87891 0.0
H1218 H 0.66307 0.64684 0.91506 0.0
H1219 H 0.64503 0.66432 0.91494 0.0
H1220 H 0.66764 0.66993 0.92478 0.0
H1221 H 0.69716 0.7249 0.88513 0.0
H1222 H 0.66906 0.74421 0.88569 0.0
H1223 H 0.6348 0.69399 0.89429 0.0
C1224 C 0.69923 0.65114 0.89271 0.0
C1225 C 0.71884 0.65334 0.89083 0.0
C1226 C 0.7266 0.67164 0.88837 0.0
C1227 C 0.71528 0.68746 0.88769 0.0
C1228 C 0.69614 0.68489 0.88956 0.0
C1229 C 0.68804 0.66732 0.89209 0.0
C1230 C 0.66694 0.66895 0.89388 0.0
C1231 C 0.65694 0.6582 0.87789 0.0
C1232 C 0.66028 0.6621 0.91332 0.0
C1233 C 0.66463 0.69014 0.89185 0.0
C1234 C 0.68177 0.6989 0.88936 0.0
C1235 C 0.68362 0.71827 0.8871 0.0
C1236 C 0.66751 0.72912 0.88743 0.0
C1237 C 0.64969 0.72066 0.89003 0.0
C1238 C 0.64823 0.70085 0.89227 0.0
H1239 H 0.6677 0.72485 0.1084 0.0
H1240 H 0.61729 0.69033 0.10901 0.0
H1241 H 0.63648 0.66164 0.11047 0.0
H1242 H 0.69448 0.69444 0.07895 0.0
H1243 H 0.71613 0.69888 0.09127 0.0
H1244 H 0.69838 0.71663 0.09083 0.0
H1245 H 0.69839 0.71774 0.12736 0.0
H1246 H 0.71615 0.7 0.12792 0.0
H1247 H 0.69454 0.69631 0.14045 0.0
H1248 H 0.66148 0.63654 0.1115 0.0
H1249 H 0.6901 0.61731 0.11167 0.0
H1250 H 0.72394 0.66841 0.11006 0.0
C1251 C 0.66068 0.71127 0.10893 0.0
C1252 C 0.64097 0.70985 0.10863 0.0
C1253 C 0.63236 0.69178 0.10924 0.0
C1254 C 0.64315 0.67539 0.11009 0.0
C1255 C 0.66255 0.67729 0.11028 0.0
C1256 C 0.67122 0.69479 0.10972 0.0
C1257 C 0.69228 0.693 0.10977 0.0
C1258 C 0.70081 0.70122 0.09162 0.0
C1259 C 0.70084 0.70231 0.12743 0.0
C1260 C 0.69413 0.67177 0.11037 0.0
C1261 C 0.67684 0.66293 0.11073 0.0
C1262 C 0.67508 0.64333 0.11124 0.0
C1263 C 0.69142 0.63252 0.11134 0.0
C1264 C 0.70927 0.64133 0.11088 0.0
C1265 C 0.71052 0.66122 0.11042 0.0
H1266 H 0.33791 0.72958 0.10728 0.0
H1267 H 0.38836 0.69659 0.10213 0.0
H1268 H 0.36955 0.66738 0.10363 0.0
H1269 H 0.31442 0.6999 0.13989 0.0
H1270 H 0.29155 0.70248 0.12964 0.0
H1271 H 0.30871 0.72107 0.12724 0.0
H1272 H 0.30516 0.7198 0.09091 0.0
H1273 H 0.28789 0.70127 0.0932 0.0
H1274 H 0.30823 0.69772 0.07873 0.0
H1275 H 0.34613 0.64198 0.10823 0.0
H1276 H 0.3189 0.62128 0.11311 0.0
H1277 H 0.28267 0.66992 0.11376 0.0
C1278 C 0.34495 0.7162 0.10625 0.0
C1279 C 0.36464 0.71538 0.1046 0.0
C1280 C 0.37333 0.6976 0.10334 0.0
C1281 C 0.36276 0.68091 0.10422 0.0
C1282 C 0.34347 0.68218 0.10614 0.0
C1283 C 0.33456 0.69931 0.1069 0.0
C1284 C 0.31359 0.69654 0.10915 0.0
C1285 C 0.30667 0.70553 0.12758 0.0
C1286 C 0.3031 0.70429 0.09197 0.0
C1287 C 0.31223 0.67518 0.10993 0.0
C1288 C 0.3297 0.66729 0.1082 0.0
C1289 C 0.33234 0.64795 0.10931 0.0
C1290 C 0.31672 0.6363 0.11213 0.0
C1291 C 0.29857 0.64392 0.11362 0.0
C1292 C 0.29633 0.66367 0.11247 0.0
H1293 H 0.72485 0.33816 0.11204 0.0
H1294 H 0.69172 0.38897 0.11165 0.0
H1295 H 0.66296 0.36971 0.10912 0.0
H1296 H 0.69611 0.31116 0.07914 0.0
H1297 H 0.69886 0.28927 0.0916 0.0
H1298 H 0.71702 0.30703 0.09259 0.0
H1299 H 0.71541 0.30694 0.12909 0.0
H1300 H 0.69728 0.28916 0.12821 0.0
H1301 H 0.69336 0.31097 0.14059 0.0
H1302 H 0.63761 0.34501 0.10708 0.0
H1303 H 0.6175 0.31647 0.10701 0.0
H1304 H 0.66681 0.28158 0.10947 0.0
C1305 C 0.71155 0.34522 0.11131 0.0
C1306 C 0.71057 0.3651 0.11196 0.0
C1307 C 0.69287 0.37378 0.11114 0.0
C1308 C 0.67642 0.36296 0.10967 0.0
C1309 C 0.67783 0.34342 0.1091 0.0
C1310 C 0.69492 0.33459 0.10998 0.0
C1311 C 0.69245 0.31333 0.10977 0.0
C1312 C 0.70166 0.30469 0.09223 0.0
C1313 C 0.70007 0.30459 0.128 0.0
C1314 C 0.67132 0.31162 0.10876 0.0
C1315 C 0.66317 0.32915 0.10824 0.0
C1316 C 0.64384 0.3312 0.10746 0.0
C1317 C 0.63252 0.3149 0.1074 0.0
C1318 C 0.64054 0.29678 0.10824 0.0
C1319 C 0.66023 0.29521 0.10879 0.0
H1320 H 0.60723 0.86725 0.80622 0.0
H1321 H 0.58094 0.83449 0.76157 0.0
H1322 H 0.57647 0.80792 0.78334 0.0
H1323 H 0.63295 0.83031 0.82482 0.0
H1324 H 0.63064 0.83687 0.84927 0.0
H1325 H 0.62937 0.8546 0.83125 0.0
H1326 H 0.59703 0.8648 0.8437 0.0
H1327 H 0.59826 0.84714 0.86188 0.0
H1328 H 0.57856 0.84748 0.84604 0.0
H1329 H 0.57825 0.78373 0.80796 0.0
H1330 H 0.58553 0.76317 0.83486 0.0
H1331 H 0.61048 0.81077 0.86449 0.0
C1332 C 0.60005 0.85466 0.80128 0.0
C1333 C 0.59431 0.85293 0.78227 0.0
C1334 C 0.58544 0.83609 0.77609 0.0
C1335 C 0.58276 0.82093 0.78836 0.0
C1336 C 0.58905 0.82278 0.80684 0.0
C1337 C 0.59742 0.8392 0.8134 0.0
C1338 C 0.60431 0.83669 0.8335 0.0
C1339 C 0.62558 0.8398 0.83477 0.0
C1340 C 0.59392 0.84981 0.84709 0.0
C1341 C 0.59898 0.81619 0.83689 0.0
C1342 C 0.59004 0.80856 0.82133 0.0
C1343 C 0.58495 0.78958 0.82038 0.0
C1344 C 0.58922 0.778 0.83568 0.0
C1345 C 0.59844 0.78541 0.85176 0.0
C1346 C 0.60313 0.80482 0.85248 0.0
H1347 H 0.2235 0.61052 0.83897 0.0
H1348 H 0.18984 0.6056 0.88965 0.0
H1349 H 0.16121 0.6054 0.8702 0.0
H1350 H 0.19324 0.64126 0.81382 0.0
H1351 H 0.19719 0.63036 0.79121 0.0
H1352 H 0.21508 0.6298 0.80905 0.0
H1353 H 0.21587 0.59337 0.80671 0.0
H1354 H 0.198 0.59382 0.78882 0.0
H1355 H 0.19458 0.57994 0.8098 0.0
H1356 H 0.1363 0.60677 0.84546 0.0
H1357 H 0.11667 0.60861 0.81697 0.0
H1358 H 0.16645 0.6119 0.78218 0.0
C1359 C 0.21011 0.60936 0.84598 0.0
C1360 C 0.20888 0.60811 0.86584 0.0
C1361 C 0.19111 0.60655 0.87446 0.0
C1362 C 0.17477 0.60644 0.86354 0.0
C1363 C 0.17647 0.60778 0.84402 0.0
C1364 C 0.19367 0.6091 0.83529 0.0
C1365 C 0.19159 0.61038 0.81405 0.0
C1366 C 0.19976 0.62906 0.8066 0.0
C1367 C 0.20054 0.59336 0.80427 0.0
C1368 C 0.17051 0.60975 0.81222 0.0
C1369 C 0.16208 0.60827 0.82969 0.0
C1370 C 0.14274 0.60783 0.8317 0.0
C1371 C 0.13171 0.60891 0.81542 0.0
C1372 C 0.14003 0.61034 0.79735 0.0
C1373 C 0.1597 0.61072 0.79578 0.0
H1374 H 0.3953 0.16259 0.78133 0.0
H1375 H 0.39698 0.11452 0.81909 0.0
H1376 H 0.39635 0.13577 0.84638 0.0
H1377 H 0.4248 0.19383 0.81098 0.0
H1378 H 0.41161 0.21459 0.80552 0.0
H1379 H 0.41314 0.19573 0.78854 0.0
H1380 H 0.37703 0.19358 0.78712 0.0
H1381 H 0.37539 0.21233 0.80417 0.0
H1382 H 0.364 0.18999 0.80858 0.0
H1383 H 0.39309 0.16117 0.86948 0.0
H1384 H 0.38954 0.19026 0.88782 0.0
H1385 H 0.39121 0.22303 0.83619 0.0
C1386 C 0.39578 0.15661 0.79535 0.0
C1387 C 0.39618 0.13687 0.79805 0.0
C1388 C 0.39668 0.12956 0.81661 0.0
C1389 C 0.39632 0.14152 0.83226 0.0
C1390 C 0.39561 0.16082 0.8292 0.0
C1391 C 0.39554 0.16844 0.81129 0.0
C1392 C 0.39442 0.1898 0.81224 0.0
C1393 C 0.41204 0.19903 0.80382 0.0
C1394 C 0.37665 0.19683 0.80245 0.0
C1395 C 0.3935 0.19281 0.83345 0.0
C1396 C 0.3942 0.17582 0.84284 0.0
C1397 C 0.39279 0.17462 0.86235 0.0
C1398 C 0.39074 0.19127 0.87265 0.0
C1399 C 0.39028 0.20896 0.86348 0.0
C1400 C 0.39171 0.20972 0.84359 0.0
H1401 H 0.86275 0.39377 0.80944 0.0
H1402 H 0.82881 0.38452 0.75936 0.0
H1403 H 0.80056 0.3838 0.77882 0.0
H1404 H 0.83479 0.36367 0.84079 0.0
H1405 H 0.83724 0.37906 0.86092 0.0
H1406 H 0.85535 0.37836 0.84331 0.0
H1407 H 0.85277 0.41441 0.83872 0.0
H1408 H 0.83464 0.41522 0.8563 0.0
H1409 H 0.83043 0.42438 0.83302 0.0
H1410 H 0.77597 0.38487 0.80257 0.0
H1411 H 0.75556 0.38756 0.8301 0.0
H1412 H 0.80404 0.39607 0.86619 0.0
C1413 C 0.84936 0.39146 0.80265 0.0
C1414 C 0.84806 0.38919 0.7828 0.0
C1415 C 0.83026 0.38633 0.77446 0.0
C1416 C 0.81407 0.38586 0.78541 0.0
C1417 C 0.81575 0.38826 0.80479 0.0
C1418 C 0.83285 0.39098 0.81346 0.0
C1419 C 0.83033 0.39354 0.83465 0.0
C1420 C 0.84 0.37771 0.84556 0.0
C1421 C 0.83747 0.41305 0.84104 0.0
C1422 C 0.80916 0.39195 0.83636 0.0
C1423 C 0.8012 0.38886 0.81885 0.0
C1424 C 0.782 0.38721 0.81638 0.0
C1425 C 0.77051 0.38881 0.83219 0.0
C1426 C 0.77812 0.39202 0.85039 0.0
C1427 C 0.79779 0.39352 0.8525 0.0
H1428 H 0.61722 0.19711 0.14067 0.0
H1429 H 0.60147 0.24593 0.17383 0.0
H1430 H 0.59534 0.22547 0.20112 0.0
H1431 H 0.58306 0.16431 0.16111 0.0
H1432 H 0.59876 0.14465 0.16108 0.0
H1433 H 0.6012 0.16288 0.14357 0.0
H1434 H 0.63568 0.1683 0.15345 0.0
H1435 H 0.63339 0.15003 0.17089 0.0
H1436 H 0.64113 0.1733 0.17779 0.0
H1437 H 0.59189 0.20061 0.22497 0.0
H1438 H 0.59268 0.17251 0.24505 0.0
H1439 H 0.61067 0.13885 0.19733 0.0
C1440 C 0.61243 0.20345 0.15368 0.0
C1441 C 0.60983 0.22315 0.15512 0.0
C1442 C 0.60361 0.23092 0.17238 0.0
C1443 C 0.59999 0.2194 0.18795 0.0
C1444 C 0.60265 0.20009 0.1861 0.0
C1445 C 0.6088 0.1921 0.16949 0.0
C1446 C 0.61116 0.17095 0.1717 0.0
C1447 C 0.59774 0.16006 0.15859 0.0
C1448 C 0.63155 0.16532 0.16826 0.0
C1449 C 0.60571 0.16844 0.19225 0.0
C1450 C 0.60068 0.18548 0.20012 0.0
C1451 C 0.59571 0.18716 0.21898 0.0
C1452 C 0.59624 0.17108 0.23028 0.0
C1453 C 0.60172 0.15348 0.22277 0.0
C1454 C 0.6062 0.15207 0.20339 0.0
H1455 H 0.84082 0.61174 0.22354 0.0
H1456 H 0.88782 0.61751 0.18517 0.0
H1457 H 0.86622 0.61977 0.15845 0.0
H1458 H 0.81204 0.58287 0.19146 0.0
H1459 H 0.79042 0.59358 0.19847 0.0
H1460 H 0.80948 0.59214 0.215 0.0
H1461 H 0.80832 0.62825 0.22006 0.0
H1462 H 0.78937 0.62983 0.20344 0.0
H1463 H 0.81033 0.6437 0.20001 0.0
H1464 H 0.84067 0.62355 0.13639 0.0
H1465 H 0.8116 0.62525 0.11853 0.0
H1466 H 0.77968 0.61513 0.16974 0.0
C1467 C 0.84649 0.61335 0.20948 0.0
C1468 C 0.86601 0.61454 0.20643 0.0
C1469 C 0.87295 0.61657 0.18786 0.0
C1470 C 0.8608 0.61793 0.17257 0.0
C1471 C 0.84171 0.61701 0.17601 0.0
C1472 C 0.83447 0.61449 0.19387 0.0
C1473 C 0.81323 0.61371 0.19326 0.0
C1474 C 0.80586 0.59443 0.19994 0.0
C1475 C 0.80482 0.62984 0.20488 0.0
C1476 C 0.80981 0.61644 0.17229 0.0
C1477 C 0.82656 0.61845 0.1628 0.0
C1478 C 0.82744 0.62173 0.14356 0.0
C1479 C 0.81075 0.62267 0.13355 0.0
C1480 C 0.79329 0.62005 0.14266 0.0
C1481 C 0.7928 0.61706 0.16238 0.0
H1482 H 0.38956 0.81315 0.14098 0.0
H1483 H 0.40191 0.76165 0.17117 0.0
H1484 H 0.40396 0.77954 0.20095 0.0
H1485 H 0.42044 0.84373 0.16825 0.0
H1486 H 0.40472 0.86337 0.16784 0.0
H1487 H 0.40457 0.84657 0.14875 0.0
H1488 H 0.36916 0.8406 0.15379 0.0
H1489 H 0.36921 0.85736 0.17291 0.0
H1490 H 0.36082 0.83363 0.17675 0.0
H1491 H 0.40405 0.80289 0.22772 0.0
H1492 H 0.40233 0.83018 0.2494 0.0
H1493 H 0.39002 0.86652 0.20197 0.0
C1494 C 0.39276 0.80567 0.15385 0.0
C1495 C 0.39557 0.78598 0.15372 0.0
C1496 C 0.3997 0.77671 0.17088 0.0
C1497 C 0.40091 0.78676 0.1879 0.0
C1498 C 0.39798 0.80611 0.18759 0.0
C1499 C 0.39403 0.8155 0.17102 0.0
C1500 C 0.3913 0.83635 0.17466 0.0
C1501 C 0.40614 0.8482 0.16426 0.0
C1502 C 0.37144 0.84233 0.16921 0.0
C1503 C 0.39418 0.83715 0.19584 0.0
C1504 C 0.39807 0.81957 0.20303 0.0
C1505 C 0.40107 0.81675 0.22225 0.0
C1506 C 0.40005 0.83232 0.23446 0.0
C1507 C 0.39605 0.85047 0.22741 0.0
C1508 C 0.39314 0.85283 0.20781 0.0
H1509 H 0.19587 0.38133 0.13627 0.0
H1510 H 0.2392 0.40874 0.16968 0.0
H1511 H 0.2164 0.41481 0.19486 0.0
H1512 H 0.15707 0.41156 0.15103 0.0
H1513 H 0.1404 0.39235 0.1521 0.0
H1514 H 0.15963 0.39143 0.13573 0.0
H1515 H 0.16978 0.35952 0.14983 0.0
H1516 H 0.15055 0.36029 0.16613 0.0
H1517 H 0.17405 0.3578 0.17482 0.0
H1518 H 0.19003 0.41676 0.21686 0.0
H1519 H 0.16174 0.41238 0.236 0.0
H1520 H 0.13463 0.38306 0.18948 0.0
C1521 C 0.20045 0.38876 0.14883 0.0
C1522 C 0.21931 0.39461 0.15102 0.0
C1523 C 0.22487 0.40407 0.16773 0.0
C1524 C 0.21199 0.40771 0.18206 0.0
C1525 C 0.19357 0.40172 0.17955 0.0
C1526 C 0.18775 0.39231 0.16348 0.0
C1527 C 0.16737 0.38626 0.16513 0.0
C1528 C 0.15541 0.39598 0.1501 0.0
C1529 C 0.16533 0.36469 0.16391 0.0
C1530 C 0.16281 0.39346 0.18477 0.0
C1531 C 0.17814 0.40257 0.19262 0.0
C1532 C 0.1779 0.40976 0.21086 0.0
C1533 C 0.16175 0.40716 0.22163 0.0
C1534 C 0.14602 0.39739 0.21422 0.0
C1535 C 0.14637 0.39082 0.19538 0.0
H1536 H 0.81163 0.62135 0.86578 0.0
H1537 H 0.76642 0.5944 0.83462 0.0
H1538 H 0.78826 0.58634 0.80915 0.0
H1539 H 0.83257 0.64282 0.82648 0.0
H1540 H 0.85636 0.63991 0.83417 0.0
H1541 H 0.8379 0.64142 0.85128 0.0
H1542 H 0.84783 0.60948 0.86549 0.0
H1543 H 0.86634 0.60784 0.84835 0.0
H1544 H 0.84932 0.58905 0.85043 0.0
H1545 H 0.81336 0.58364 0.78618 0.0
H1546 H 0.8406 0.58768 0.76553 0.0
H1547 H 0.87052 0.61678 0.81041 0.0
C1548 C 0.80649 0.61347 0.8537 0.0
C1549 C 0.7874 0.60844 0.8521 0.0
C1550 C 0.78099 0.59845 0.83603 0.0
C1551 C 0.79331 0.59368 0.82158 0.0
C1552 C 0.81197 0.59906 0.82339 0.0
C1553 C 0.81862 0.6088 0.83894 0.0
C1554 C 0.83901 0.61436 0.83636 0.0
C1555 C 0.84161 0.6359 0.83711 0.0
C1556 C 0.85136 0.6046 0.85103 0.0
C1557 C 0.84255 0.6067 0.81669 0.0
C1558 C 0.82676 0.59767 0.80972 0.0
C1559 C 0.82589 0.59046 0.79151 0.0
C1560 C 0.84141 0.59291 0.77988 0.0
C1561 C 0.8576 0.6025 0.78644 0.0
C1562 C 0.8584 0.60912 0.80522 0.0
H1563 H 0.39191 0.86215 0.8044 0.0
H1564 H 0.39854 0.82587 0.75555 0.0
H1565 H 0.40296 0.7986 0.77659 0.0
H1566 H 0.42614 0.83898 0.8343 0.0
H1567 H 0.41256 0.84184 0.85549 0.0
H1568 H 0.41069 0.85872 0.83665 0.0
H1569 H 0.37491 0.85307 0.83541 0.0
H1570 H 0.37666 0.83623 0.85425 0.0
H1571 H 0.36588 0.82945 0.83223 0.0
H1572 H 0.40536 0.77516 0.80266 0.0
H1573 H 0.40511 0.75675 0.83203 0.0
H1574 H 0.39719 0.80801 0.86443 0.0
C1575 C 0.3944 0.84848 0.79812 0.0
C1576 C 0.3949 0.84613 0.77829 0.0
C1577 C 0.39811 0.82801 0.77066 0.0
C1578 C 0.40068 0.81245 0.78251 0.0
C1579 C 0.40005 0.81523 0.80197 0.0
C1580 C 0.397 0.83278 0.80976 0.0
C1581 C 0.39643 0.83178 0.83115 0.0
C1582 C 0.41241 0.84353 0.83991 0.0
C1583 C 0.37733 0.83799 0.8387 0.0
C1584 C 0.39937 0.81086 0.83417 0.0
C1585 C 0.40153 0.80165 0.81711 0.0
C1586 C 0.4038 0.78223 0.81609 0.0
C1587 C 0.40361 0.77189 0.83289 0.0
C1588 C 0.40119 0.78092 0.85056 0.0
C1589 C 0.39929 0.80073 0.85118 0.0
H1590 H 0.19692 0.39191 0.86981 0.0
H1591 H 0.24364 0.40608 0.83328 0.0
H1592 H 0.22207 0.40977 0.8066 0.0
H1593 H 0.17173 0.36449 0.83621 0.0
H1594 H 0.14893 0.37233 0.84329 0.0
H1595 H 0.16774 0.37209 0.86014 0.0
H1596 H 0.16275 0.40752 0.86707 0.0
H1597 H 0.14388 0.40787 0.85023 0.0
H1598 H 0.16325 0.42414 0.8479 0.0
H1599 H 0.19653 0.41004 0.78364 0.0
H1600 H 0.16784 0.40693 0.76493 0.0
H1601 H 0.13651 0.39282 0.81549 0.0
C1602 C 0.20253 0.39598 0.85623 0.0
C1603 C 0.22198 0.39871 0.85361 0.0
C1604 C 0.22883 0.40389 0.83562 0.0
C1605 C 0.21668 0.40608 0.82038 0.0
C1606 C 0.19767 0.40311 0.82332 0.0
C1607 C 0.19053 0.39821 0.84074 0.0
C1608 C 0.16951 0.3951 0.83965 0.0
C1609 C 0.16417 0.37479 0.84514 0.0
C1610 C 0.15924 0.40952 0.85195 0.0
C1611 C 0.1661 0.39863 0.81881 0.0
C1612 C 0.18261 0.40335 0.80981 0.0
C1613 C 0.18347 0.40651 0.79051 0.0
C1614 C 0.16706 0.40462 0.78001 0.0
C1615 C 0.14992 0.39964 0.78875 0.0
C1616 C 0.14938 0.39684 0.80848 0.0
H1617 H 0.61085 0.16409 0.78129 0.0
H1618 H 0.60996 0.11416 0.81655 0.0
H1619 H 0.60808 0.13415 0.84488 0.0
H1620 H 0.6393 0.19257 0.81167 0.0
H1621 H 0.62696 0.21412 0.80733 0.0
H1622 H 0.62748 0.196 0.78951 0.0
H1623 H 0.59132 0.19523 0.7885 0.0
H1624 H 0.59068 0.21341 0.80626 0.0
H1625 H 0.5784 0.19142 0.81 0.0
H1626 H 0.60771 0.15902 0.86933 0.0
H1627 H 0.60764 0.18763 0.88891 0.0
H1628 H 0.60828 0.22218 0.83844 0.0
C1629 C 0.6101 0.1574 0.79498 0.0
C1630 C 0.61057 0.13754 0.79671 0.0
C1631 C 0.60963 0.12931 0.81485 0.0
C1632 C 0.60856 0.14055 0.83105 0.0
C1633 C 0.60836 0.16003 0.82891 0.0
C1634 C 0.60898 0.16846 0.81138 0.0
C1635 C 0.6088 0.18979 0.81321 0.0
C1636 C 0.6267 0.19864 0.80494 0.0
C1637 C 0.59126 0.19794 0.80394 0.0
C1638 C 0.60821 0.19197 0.83451 0.0
C1639 C 0.60796 0.17457 0.8432 0.0
C1640 C 0.6078 0.17274 0.86272 0.0
C1641 C 0.60781 0.18912 0.87372 0.0
C1642 C 0.60794 0.20719 0.86524 0.0
C1643 C 0.60812 0.20859 0.84533 0.0
H1644 H 0.8368 0.39733 0.22633 0.0
H1645 H 0.88676 0.39467 0.19183 0.0
H1646 H 0.86725 0.39305 0.16319 0.0
H1647 H 0.80856 0.36534 0.19836 0.0
H1648 H 0.78735 0.37842 0.20142 0.0
H1649 H 0.80517 0.37924 0.21937 0.0
H1650 H 0.80637 0.41566 0.21718 0.0
H1651 H 0.78852 0.41496 0.19927 0.0
H1652 H 0.81051 0.42667 0.19466 0.0
H1653 H 0.84253 0.39164 0.13826 0.0
H1654 H 0.81417 0.39147 0.11853 0.0
H1655 H 0.7799 0.39538 0.16883 0.0
C1656 C 0.84363 0.3964 0.21275 0.0
C1657 C 0.86335 0.3961 0.21135 0.0
C1658 C 0.87171 0.39493 0.1933 0.0
C1659 C 0.86074 0.39397 0.17692 0.0
C1660 C 0.84138 0.39424 0.17877 0.0
C1661 C 0.83286 0.3955 0.1962 0.0
C1662 C 0.81175 0.39581 0.19415 0.0
C1663 C 0.80267 0.37868 0.20391 0.0
C1664 C 0.80383 0.41438 0.20176 0.0
C1665 C 0.80976 0.39451 0.17287 0.0
C1666 C 0.82705 0.39357 0.16431 0.0
C1667 C 0.82891 0.39237 0.1448 0.0
C1668 C 0.81269 0.39226 0.1337 0.0
C1669 C 0.79478 0.39338 0.14209 0.0
C1670 C 0.79337 0.39444 0.16198 0.0
H1671 H 0.61313 0.83762 0.22229 0.0
H1672 H 0.60883 0.88666 0.18609 0.0
H1673 H 0.60655 0.866 0.15832 0.0
H1674 H 0.64166 0.81091 0.19192 0.0
H1675 H 0.63068 0.78845 0.19676 0.0
H1676 H 0.63046 0.80682 0.21432 0.0
H1677 H 0.59438 0.80461 0.21592 0.0
H1678 H 0.59449 0.78615 0.19841 0.0
H1679 H 0.58089 0.80701 0.1946 0.0
H1680 H 0.60781 0.84118 0.13454 0.0
H1681 H 0.61083 0.81283 0.11526 0.0
H1682 H 0.613 0.77845 0.1658 0.0
C1683 C 0.61142 0.84394 0.20852 0.0
C1684 C 0.61115 0.86377 0.20634 0.0
C1685 C 0.60908 0.87155 0.18812 0.0
C1686 C 0.60774 0.85992 0.17224 0.0
C1687 C 0.60837 0.84052 0.17478 0.0
C1688 C 0.61 0.83247 0.1924 0.0
C1689 C 0.61105 0.81112 0.19085 0.0
C1690 C 0.62957 0.80391 0.19894 0.0
C1691 C 0.59419 0.80167 0.20052 0.0
C1692 C 0.6102 0.80857 0.16958 0.0
C1693 C 0.60862 0.82581 0.16074 0.0
C1694 C 0.60871 0.82754 0.14126 0.0
C1695 C 0.61046 0.81125 0.13041 0.0
C1696 C 0.61188 0.79329 0.13895 0.0
C1697 C 0.61163 0.79193 0.15886 0.0
H1698 H 0.1734 0.60644 0.22773 0.0
H1699 H 0.12425 0.60395 0.19184 0.0
H1700 H 0.14429 0.60522 0.16371 0.0
H1701 H 0.19999 0.63872 0.19903 0.0
H1702 H 0.22203 0.62742 0.2031 0.0
H1703 H 0.20392 0.62611 0.22068 0.0
H1704 H 0.20536 0.58966 0.22003 0.0
H1705 H 0.22353 0.59085 0.20251 0.0
H1706 H 0.20253 0.57735 0.19793 0.0
H1707 H 0.16921 0.60718 0.13946 0.0
H1708 H 0.19785 0.60878 0.12032 0.0
H1709 H 0.23136 0.6098 0.1714 0.0
C1710 C 0.16688 0.6061 0.21395 0.0
C1711 C 0.14723 0.6051 0.21201 0.0
C1712 C 0.13925 0.6047 0.19372 0.0
C1713 C 0.15052 0.60543 0.17762 0.0
C1714 C 0.16978 0.60653 0.17998 0.0
C1715 C 0.17797 0.60678 0.19764 0.0
C1716 C 0.1991 0.60796 0.19608 0.0
C1717 C 0.2067 0.62613 0.20527 0.0
C1718 C 0.20816 0.59041 0.20464 0.0
C1719 C 0.20143 0.6084 0.17481 0.0
C1720 C 0.1843 0.60759 0.16585 0.0
C1721 C 0.18272 0.6078 0.14629 0.0
C1722 C 0.19909 0.60874 0.13554 0.0
C1723 C 0.21686 0.60944 0.14433 0.0
C1724 C 0.21799 0.60933 0.16426 0.0
H1725 H 0.39684 0.22802 0.17368 0.0
H1726 H 0.38809 0.19551 0.12234 0.0
H1727 H 0.38784 0.16632 0.14065 0.0
H1728 H 0.42721 0.1943 0.1966 0.0
H1729 H 0.41765 0.1979 0.21982 0.0
H1730 H 0.41744 0.21676 0.20286 0.0
H1731 H 0.38164 0.21964 0.20682 0.0
H1732 H 0.38174 0.20081 0.22381 0.0
H1733 H 0.36692 0.19914 0.2033 0.0
H1734 H 0.38845 0.1408 0.16346 0.0
H1735 H 0.38915 0.1194 0.19045 0.0
H1736 H 0.39704 0.16708 0.22836 0.0
C1737 C 0.39488 0.21474 0.16637 0.0
C1738 C 0.39254 0.21409 0.14653 0.0
C1739 C 0.38998 0.19644 0.13747 0.0
C1740 C 0.38981 0.17971 0.14775 0.0
C1741 C 0.39217 0.18076 0.16716 0.0
C1742 C 0.39461 0.19771 0.17651 0.0
C1743 C 0.39661 0.1945 0.19762 0.0
C1744 C 0.41588 0.20127 0.20464 0.0
C1745 C 0.38078 0.20409 0.20853 0.0
C1746 C 0.3948 0.17314 0.19854 0.0
C1747 C 0.39235 0.16566 0.18069 0.0
C1748 C 0.39036 0.14643 0.17753 0.0
C1749 C 0.39079 0.13438 0.19303 0.0
C1750 C 0.39315 0.14152 0.21157 0.0
C1751 C 0.39521 0.16121 0.21436 0.0
H1752 H 0.86691 0.8056 0.59725 0.0
H1753 H 0.83175 0.75537 0.60122 0.0
H1754 H 0.80395 0.77482 0.60204 0.0
H1755 H 0.83983 0.83431 0.62844 0.0
H1756 H 0.84226 0.85574 0.61504 0.0
H1757 H 0.86014 0.83813 0.61387 0.0
H1758 H 0.85678 0.83679 0.57754 0.0
H1759 H 0.83893 0.85446 0.57861 0.0
H1760 H 0.83415 0.83217 0.56725 0.0
H1761 H 0.78003 0.79833 0.60375 0.0
H1762 H 0.76006 0.82596 0.60552 0.0
H1763 H 0.80883 0.86267 0.60028 0.0
C1764 C 0.85334 0.79878 0.59809 0.0
C1765 C 0.85164 0.77888 0.59921 0.0
C1766 C 0.83359 0.77051 0.60041 0.0
C1767 C 0.81759 0.78145 0.60086 0.0
C1768 C 0.81966 0.80087 0.6 0.0
C1769 C 0.83693 0.80963 0.59853 0.0
C1770 C 0.83469 0.83096 0.59813 0.0
C1771 C 0.84483 0.84033 0.61487 0.0
C1772 C 0.84155 0.83907 0.57926 0.0
C1773 C 0.81355 0.83258 0.59999 0.0
C1774 C 0.80535 0.81491 0.60092 0.0
C1775 C 0.78621 0.81229 0.60291 0.0
C1776 C 0.77497 0.82816 0.60392 0.0
C1777 C 0.7828 0.84655 0.603 0.0
C1778 C 0.80242 0.8488 0.60097 0.0
H1779 H 0.86957 0.19079 0.38533 0.0
H1780 H 0.83721 0.24198 0.38942 0.0
H1781 H 0.80835 0.22299 0.39261 0.0
H1782 H 0.83629 0.16433 0.35791 0.0
H1783 H 0.84064 0.14232 0.36965 0.0
H1784 H 0.85889 0.15992 0.3681 0.0
H1785 H 0.86252 0.15953 0.40446 0.0
H1786 H 0.84424 0.14195 0.40612 0.0
H1787 H 0.84242 0.16371 0.41911 0.0
H1788 H 0.78294 0.19864 0.39477 0.0
H1789 H 0.76252 0.17039 0.39532 0.0
H1790 H 0.81115 0.13483 0.39004 0.0
C1791 C 0.85641 0.19799 0.38691 0.0
C1792 C 0.85564 0.21788 0.38711 0.0
C1793 C 0.83815 0.22677 0.38922 0.0
C1794 C 0.82167 0.2161 0.39108 0.0
C1795 C 0.82289 0.19654 0.39084 0.0
C1796 C 0.83978 0.18753 0.38881 0.0
C1797 C 0.83711 0.16631 0.38877 0.0
C1798 C 0.84361 0.15772 0.36999 0.0
C1799 C 0.84717 0.15735 0.40562 0.0
C1800 C 0.81607 0.16483 0.3909 0.0
C1801 C 0.80817 0.18245 0.39215 0.0
C1802 C 0.78896 0.18476 0.39387 0.0
C1803 C 0.77747 0.16863 0.39417 0.0
C1804 C 0.78524 0.15042 0.39275 0.0
C1805 C 0.80481 0.14856 0.39124 0.0
H1806 H 0.78358 0.83389 0.38968 0.0
H1807 H 0.81661 0.88377 0.40341 0.0
H1808 H 0.8445 0.86419 0.40719 0.0
H1809 H 0.80689 0.80214 0.42218 0.0
H1810 H 0.80589 0.78236 0.40621 0.0
H1811 H 0.7882 0.80016 0.40522 0.0
H1812 H 0.79526 0.80543 0.36979 0.0
H1813 H 0.81296 0.78764 0.37067 0.0
H1814 H 0.8188 0.81101 0.36252 0.0
H1815 H 0.86913 0.83949 0.40873 0.0
H1816 H 0.88887 0.8112 0.40736 0.0
H1817 H 0.84021 0.77722 0.39251 0.0
C1818 C 0.79666 0.84065 0.3936 0.0
C1819 C 0.79786 0.86038 0.39627 0.0
C1820 C 0.81529 0.8687 0.40127 0.0
C1821 C 0.83125 0.85769 0.40349 0.0
C1822 C 0.82964 0.83833 0.40068 0.0
C1823 C 0.81282 0.82985 0.39583 0.0
C1824 C 0.8151 0.80879 0.39314 0.0
C1825 C 0.80332 0.79771 0.40755 0.0
C1826 C 0.81025 0.80287 0.37282 0.0
C1827 C 0.83583 0.80685 0.39707 0.0
C1828 C 0.84392 0.82406 0.40149 0.0
C1829 C 0.86295 0.82591 0.40535 0.0
C1830 C 0.87406 0.80976 0.40455 0.0
C1831 C 0.86612 0.79199 0.39987 0.0
C1832 C 0.84671 0.79058 0.39621 0.0
H1833 H 0.13575 0.81373 0.38641 0.0
H1834 H 0.16797 0.76645 0.40678 0.0
H1835 H 0.19572 0.78681 0.40953 0.0
H1836 H 0.17148 0.83418 0.35844 0.0
H1837 H 0.16617 0.85833 0.36399 0.0
H1838 H 0.14802 0.84057 0.36482 0.0
H1839 H 0.14074 0.84962 0.39943 0.0
H1840 H 0.15879 0.86752 0.39866 0.0
H1841 H 0.15926 0.84965 0.41666 0.0
H1842 H 0.22055 0.81093 0.40802 0.0
H1843 H 0.24112 0.83864 0.40387 0.0
H1844 H 0.19372 0.87125 0.385 0.0
C1845 C 0.14858 0.80781 0.39173 0.0
C1846 C 0.14967 0.78846 0.3963 0.0
C1847 C 0.16676 0.78118 0.40307 0.0
C1848 C 0.18265 0.79264 0.40474 0.0
C1849 C 0.18132 0.81146 0.39971 0.0
C1850 C 0.16475 0.81915 0.39353 0.0
C1851 C 0.16756 0.83981 0.38859 0.0
C1852 C 0.16304 0.84342 0.36772 0.0
C1853 C 0.15589 0.85239 0.40161 0.0
C1854 C 0.18833 0.84226 0.39254 0.0
C1855 C 0.19588 0.82569 0.39903 0.0
C1856 C 0.21481 0.82408 0.40314 0.0
C1857 C 0.22639 0.83989 0.40066 0.0
C1858 C 0.21904 0.85711 0.39415 0.0
C1859 C 0.19972 0.85829 0.39007 0.0
H1860 H 0.19948 0.13928 0.39613 0.0
H1861 H 0.24808 0.17621 0.40095 0.0
H1862 H 0.22759 0.20373 0.40232 0.0
H1863 H 0.17261 0.16995 0.36646 0.0
H1864 H 0.15055 0.16435 0.37743 0.0
H1865 H 0.16891 0.14722 0.37721 0.0
H1866 H 0.16708 0.14476 0.41359 0.0
H1867 H 0.14874 0.16191 0.41392 0.0
H1868 H 0.16958 0.16579 0.42773 0.0
H1869 H 0.20253 0.22725 0.40255 0.0
H1870 H 0.17389 0.24592 0.40141 0.0
H1871 H 0.14064 0.19453 0.39668 0.0
C1872 C 0.20578 0.15316 0.39752 0.0
C1873 C 0.22543 0.15556 0.39843 0.0
C1874 C 0.23311 0.17397 0.40021 0.0
C1875 C 0.22158 0.18972 0.40103 0.0
C1876 C 0.20234 0.18692 0.40009 0.0
C1877 C 0.19441 0.16916 0.39836 0.0
C1878 C 0.17324 0.17031 0.39737 0.0
C1879 C 0.1659 0.16249 0.37849 0.0
C1880 C 0.16413 0.16009 0.41416 0.0
C1881 C 0.1706 0.19149 0.39873 0.0
C1882 C 0.18764 0.2007 0.4003 0.0
C1883 C 0.18908 0.22022 0.40138 0.0
C1884 C 0.17269 0.23071 0.40069 0.0
C1885 C 0.15499 0.22172 0.39897 0.0
C1886 C 0.15395 0.20179 0.39813 0.0
H1887 H 0.19573 0.1393 0.61478 0.0
H1888 H 0.24442 0.17476 0.60405 0.0
H1889 H 0.22414 0.202 0.59944 0.0
H1890 H 0.16428 0.16247 0.58116 0.0
H1891 H 0.14418 0.16071 0.59636 0.0
H1892 H 0.16225 0.14328 0.59766 0.0
H1893 H 0.16612 0.1499 0.63338 0.0
H1894 H 0.14805 0.1673 0.6322 0.0
H1895 H 0.17078 0.17365 0.64132 0.0
H1896 H 0.19974 0.2255 0.59732 0.0
H1897 H 0.17189 0.24514 0.59896 0.0
H1898 H 0.13771 0.19573 0.61132 0.0
C1899 C 0.20204 0.15278 0.61128 0.0
C1900 C 0.22168 0.15489 0.60975 0.0
C1901 C 0.22945 0.17278 0.60537 0.0
C1902 C 0.21804 0.18835 0.60262 0.0
C1903 C 0.19882 0.18589 0.60433 0.0
C1904 C 0.19077 0.16866 0.60862 0.0
C1905 C 0.16969 0.17041 0.61058 0.0
C1906 C 0.1595 0.15851 0.59554 0.0
C1907 C 0.16329 0.165 0.63056 0.0
C1908 C 0.16731 0.19137 0.60699 0.0
C1909 C 0.18439 0.19983 0.60325 0.0
C1910 C 0.18626 0.21907 0.60014 0.0
C1911 C 0.17031 0.23011 0.60117 0.0
C1912 C 0.15262 0.22199 0.6053 0.0
C1913 C 0.15102 0.20227 0.60794 0.0
H1914 H 0.78145 0.165 0.61281 0.0
H1915 H 0.81669 0.11588 0.60718 0.0
H1916 H 0.84415 0.13634 0.60326 0.0
H1917 H 0.80686 0.19452 0.57879 0.0
H1918 H 0.80437 0.21581 0.59242 0.0
H1919 H 0.78687 0.19741 0.59391 0.0
H1920 H 0.79118 0.19628 0.63015 0.0
H1921 H 0.80872 0.21463 0.62877 0.0
H1922 H 0.81413 0.19252 0.63982 0.0
H1923 H 0.86801 0.16124 0.60112 0.0
H1924 H 0.88743 0.19002 0.60068 0.0
H1925 H 0.8378 0.22394 0.60782 0.0
C1926 C 0.79493 0.15862 0.61058 0.0
C1927 C 0.79684 0.1388 0.61021 0.0
C1928 C 0.81476 0.13098 0.60743 0.0
C1929 C 0.83052 0.14249 0.60518 0.0
C1930 C 0.82826 0.16187 0.60577 0.0
C1931 C 0.81099 0.16999 0.60836 0.0
C1932 C 0.81283 0.19134 0.60894 0.0
C1933 C 0.80209 0.2003 0.59254 0.0
C1934 C 0.80633 0.19915 0.62806 0.0
C1935 C 0.8338 0.19377 0.60648 0.0
C1936 C 0.84232 0.17653 0.6046 0.0
C1937 C 0.86154 0.17488 0.60249 0.0
C1938 C 0.87246 0.19133 0.6023 0.0
C1939 C 0.86416 0.20923 0.60421 0.0
C1940 C 0.84454 0.21045 0.60627 0.0
H1941 H 0.22113 0.83711 0.61089 0.0
H1942 H 0.1848 0.8837 0.62496 0.0
H1943 H 0.15782 0.86217 0.62549 0.0
H1944 H 0.1885 0.81298 0.58025 0.0
H1945 H 0.19476 0.78965 0.58777 0.0
H1946 H 0.21175 0.80854 0.5888 0.0
H1947 H 0.2169 0.80215 0.62435 0.0
H1948 H 0.19992 0.78322 0.62343 0.0
H1949 H 0.19717 0.80218 0.64012 0.0
H1950 H 0.13459 0.83662 0.62372 0.0
H1951 H 0.11596 0.80749 0.6203 0.0
H1952 H 0.16639 0.77638 0.60793 0.0
C1953 C 0.2075 0.8427 0.61415 0.0
C1954 C 0.20512 0.86213 0.61783 0.0
C1955 C 0.18704 0.86892 0.62201 0.0
C1956 C 0.17157 0.8568 0.62239 0.0
C1957 C 0.17429 0.83783 0.61861 0.0
C1958 C 0.19173 0.83069 0.61462 0.0
C1959 C 0.19045 0.80961 0.61092 0.0
C1960 C 0.19674 0.80493 0.59073 0.0
C1961 C 0.20178 0.79865 0.62558 0.0
C1962 C 0.1696 0.80619 0.6134 0.0
C1963 C 0.16064 0.82275 0.6178 0.0
C1964 C 0.14141 0.82351 0.62036 0.0
C1965 C 0.13094 0.80688 0.61835 0.0
C1966 C 0.1397 0.78966 0.6139 0.0
C1967 C 0.15933 0.78932 0.61147 0.0
H1968 H 0.10224 0.29679 0.46198 0.0
H1969 H 0.12831 0.2428 0.4514 0.0
H1970 H 0.1343 0.23932 0.4854 0.0
H1971 H 0.13331 0.31182 0.50033 0.0
H1972 H 0.11478 0.32265 0.51352 0.0
H1973 H 0.11356 0.32157 0.48816 0.0
H1974 H 0.08133 0.3047 0.49029 0.0
H1975 H 0.08245 0.30575 0.51562 0.0
H1976 H 0.07908 0.28339 0.50392 0.0
H1977 H 0.13587 0.24068 0.52056 0.0
H1978 H 0.1326 0.24667 0.55463 0.0
H1979 H 0.10575 0.29986 0.54259 0.0
C1980 C 0.10942 0.28433 0.46675 0.0
C1981 C 0.11482 0.27009 0.45393 0.0
C1982 C 0.12399 0.25392 0.46087 0.0
C1983 C 0.12753 0.25183 0.48019 0.0
C1984 C 0.12188 0.26603 0.49242 0.0
C1985 C 0.11305 0.28198 0.48601 0.0
C1986 C 0.10767 0.29473 0.50225 0.0
C1987 C 0.11795 0.31383 0.50099 0.0
C1988 C 0.08637 0.29728 0.50306 0.0
C1989 C 0.1146 0.2833 0.5188 0.0
C1990 C 0.12286 0.26685 0.51279 0.0
C1991 C 0.12959 0.2536 0.52545 0.0
C1992 C 0.12763 0.25712 0.54479 0.0
C1993 C 0.11899 0.27378 0.55134 0.0
C1994 C 0.11265 0.28713 0.53809 0.0
H1995 H 0.78676 0.1242 0.5433 0.0
H1996 H 0.73304 0.09808 0.55519 0.0
H1997 H 0.72451 0.10074 0.52138 0.0
H1998 H 0.77044 0.15645 0.5052 0.0
H1999 H 0.79179 0.15336 0.49218 0.0
H2000 H 0.79199 0.15228 0.51757 0.0
H2001 H 0.80707 0.11928 0.5159 0.0
H2002 H 0.80681 0.1202 0.49061 0.0
H2003 H 0.79561 0.10078 0.50261 0.0
H2004 H 0.7242 0.10207 0.48513 0.0
H2005 H 0.732 0.10221 0.45106 0.0
H2006 H 0.78583 0.12775 0.46408 0.0
C2007 C 0.773 0.11942 0.53891 0.0
C2008 C 0.76057 0.11089 0.55184 0.0
C2009 C 0.74272 0.10481 0.54553 0.0
C2010 C 0.73778 0.10626 0.52635 0.0
C2011 C 0.75073 0.11414 0.51381 0.0
C2012 C 0.76787 0.12088 0.51999 0.0
C2013 C 0.78006 0.12724 0.50378 0.0
C2014 C 0.78378 0.1486 0.50474 0.0
C2015 C 0.79845 0.11621 0.5032 0.0
C2016 C 0.76753 0.12219 0.48736 0.0
C2017 C 0.75052 0.11496 0.49329 0.0
C2018 C 0.73735 0.10804 0.48038 0.0
C2019 C 0.74188 0.10819 0.46105 0.0
C2020 C 0.75954 0.11496 0.45487 0.0
C2021 C 0.7722 0.12249 0.46827 0.0
H2022 H 0.89779 0.75074 0.45778 0.0
H2023 H 0.86816 0.6986 0.44474 0.0
H2024 H 0.86052 0.69453 0.47829 0.0
H2025 H 0.91901 0.73466 0.49847 0.0
H2026 H 0.91739 0.75628 0.51172 0.0
H2027 H 0.91809 0.75695 0.48639 0.0
H2028 H 0.88708 0.77536 0.48588 0.0
H2029 H 0.88631 0.77479 0.51129 0.0
H2030 H 0.86684 0.76578 0.49774 0.0
H2031 H 0.85966 0.69351 0.51293 0.0
H2032 H 0.8655 0.69582 0.54712 0.0
H2033 H 0.89525 0.74874 0.53873 0.0
C2034 C 0.88926 0.73877 0.46197 0.0
C2035 C 0.88352 0.72501 0.44864 0.0
C2036 C 0.87276 0.70929 0.4547 0.0
C2037 C 0.86823 0.7069 0.47372 0.0
C2038 C 0.87452 0.72038 0.48659 0.0
C2039 C 0.88472 0.73608 0.48104 0.0
C2040 C 0.89124 0.74741 0.49806 0.0
C2041 C 0.9127 0.7489 0.49869 0.0
C2042 C 0.88233 0.767 0.49825 0.0
C2043 C 0.8837 0.73522 0.51395 0.0
C2044 C 0.8739 0.71985 0.50694 0.0
C2045 C 0.86698 0.70567 0.51864 0.0
C2046 C 0.87043 0.70706 0.53802 0.0
C2047 C 0.88065 0.72253 0.54554 0.0
C2048 C 0.88701 0.73699 0.53338 0.0
H2049 H 0.20383 0.89548 0.4619 0.0
H2050 H 0.26373 0.89777 0.4524 0.0
H2051 H 0.26903 0.89614 0.48678 0.0
H2052 H 0.20348 0.92462 0.50234 0.0
H2053 H 0.18527 0.91149 0.51417 0.0
H2054 H 0.18628 0.91165 0.48882 0.0
H2055 H 0.18709 0.87515 0.48845 0.0
H2056 H 0.1861 0.87488 0.51383 0.0
H2057 H 0.20482 0.86317 0.50173 0.0
H2058 H 0.26769 0.89547 0.52245 0.0
H2059 H 0.25988 0.89658 0.55632 0.0
H2060 H 0.20083 0.89499 0.54226 0.0
C2061 C 0.2181 0.89549 0.46697 0.0
C2062 C 0.23336 0.89675 0.45434 0.0
C2063 C 0.25178 0.89682 0.46171 0.0
C2064 C 0.25494 0.89585 0.48124 0.0
C2065 C 0.23956 0.89477 0.49325 0.0
C2066 C 0.2215 0.89457 0.48638 0.0
C2067 C 0.20737 0.894 0.50226 0.0
C2068 C 0.19487 0.91148 0.50187 0.0
C2069 C 0.19565 0.87571 0.50152 0.0
C2070 C 0.22027 0.89428 0.51918 0.0
C2071 C 0.23879 0.89453 0.51371 0.0
C2072 C 0.25324 0.89519 0.52688 0.0
C2073 C 0.24864 0.89581 0.54612 0.0
C2074 C 0.22972 0.8959 0.55207 0.0
C2075 C 0.21543 0.89492 0.53829 0.0
H2076 H 0.10321 0.71857 0.53288 0.0
H2077 H 0.12892 0.76933 0.55602 0.0
H2078 H 0.13409 0.78128 0.52382 0.0
H2079 H 0.13297 0.71489 0.49061 0.0
H2080 H 0.11391 0.70712 0.47579 0.0
H2081 H 0.11382 0.70154 0.50057 0.0
H2082 H 0.08148 0.71711 0.50416 0.0
H2083 H 0.08145 0.72271 0.47942 0.0
H2084 H 0.07852 0.74114 0.49666 0.0
H2085 H 0.13479 0.78867 0.48985 0.0
H2086 H 0.12965 0.79208 0.45581 0.0
H2087 H 0.10292 0.73686 0.45388 0.0
C2088 C 0.11022 0.73205 0.53116 0.0
C2089 C 0.11577 0.74298 0.54699 0.0
C2090 C 0.12454 0.76072 0.54414 0.0
C2091 C 0.12764 0.76758 0.5259 0.0
C2092 C 0.12185 0.75656 0.51064 0.0
C2093 C 0.11327 0.73921 0.51302 0.0
C2094 C 0.10719 0.73088 0.4942 0.0
C2095 C 0.1176 0.71252 0.49005 0.0
C2096 C 0.0859 0.72779 0.49358 0.0
C2097 C 0.11334 0.74648 0.48093 0.0
C2098 C 0.12198 0.761 0.49079 0.0
C2099 C 0.12816 0.77737 0.48195 0.0
C2100 C 0.12508 0.77918 0.4626 0.0
C2101 C 0.11581 0.76476 0.45218 0.0
C2102 C 0.11022 0.748 0.46143 0.0
H2103 H 0.29573 0.10612 0.46668 0.0
H2104 H 0.23857 0.12209 0.45464 0.0
H2105 H 0.23283 0.12583 0.48887 0.0
H2106 H 0.28596 0.07876 0.50683 0.0
H2107 H 0.30683 0.08589 0.5193 0.0
H2108 H 0.3066 0.08566 0.49393 0.0
H2109 H 0.31686 0.12081 0.49351 0.0
H2110 H 0.31713 0.12116 0.51891 0.0
H2111 H 0.30328 0.13792 0.50617 0.0
H2112 H 0.23321 0.12647 0.52467 0.0
H2113 H 0.23935 0.12358 0.55876 0.0
H2114 H 0.29632 0.10698 0.54672 0.0
C2115 C 0.28199 0.11056 0.47111 0.0
C2116 C 0.26759 0.11381 0.45788 0.0
C2117 C 0.24984 0.11953 0.46446 0.0
C2118 C 0.24647 0.12172 0.48387 0.0
C2119 C 0.26099 0.11821 0.49647 0.0
C2120 C 0.27841 0.11279 0.49031 0.0
C2121 C 0.29153 0.10923 0.50662 0.0
C2122 C 0.2981 0.08867 0.50667 0.0
C2123 C 0.30818 0.12311 0.50628 0.0
C2124 C 0.27871 0.11318 0.52303 0.0
C2125 C 0.2612 0.11849 0.51693 0.0
C2126 C 0.2469 0.12242 0.52958 0.0
C2127 C 0.25055 0.12072 0.54895 0.0
C2128 C 0.26835 0.11503 0.55551 0.0
C2129 C 0.2826 0.11141 0.54227 0.0
H2130 H 0.89784 0.23419 0.54244 0.0
H2131 H 0.87598 0.29088 0.53857 0.0
H2132 H 0.8722 0.28704 0.50436 0.0
H2133 H 0.92456 0.23612 0.5013 0.0
H2134 H 0.92008 0.2122 0.49381 0.0
H2135 H 0.91909 0.21819 0.51847 0.0
H2136 H 0.88536 0.20479 0.52044 0.0
H2137 H 0.88629 0.19859 0.49579 0.0
H2138 H 0.86781 0.21331 0.50444 0.0
H2139 H 0.87405 0.279 0.47069 0.0
H2140 H 0.87984 0.26631 0.43894 0.0
H2141 H 0.89984 0.21433 0.46352 0.0
C2142 C 0.89183 0.24559 0.53443 0.0
C2143 C 0.88723 0.26285 0.54323 0.0
C2144 C 0.87971 0.27756 0.53219 0.0
C2145 C 0.87743 0.27551 0.51272 0.0
C2146 C 0.88262 0.25861 0.5044 0.0
C2147 C 0.88948 0.24379 0.51483 0.0
C2148 C 0.89502 0.2276 0.50202 0.0
C2149 C 0.91593 0.22328 0.50402 0.0
C2150 C 0.88289 0.21003 0.5059 0.0
C2151 C 0.89067 0.23592 0.48281 0.0
C2152 C 0.88345 0.2538 0.48463 0.0
C2153 C 0.87942 0.26491 0.46905 0.0
C2154 C 0.88288 0.25761 0.45107 0.0
C2155 C 0.89023 0.23931 0.44874 0.0
C2156 C 0.89398 0.22826 0.46487 0.0
H2157 H 0.71188 0.89915 0.45686 0.0
H2158 H 0.76783 0.87819 0.44716 0.0
H2159 H 0.77179 0.87352 0.48134 0.0
H2160 H 0.72267 0.92496 0.49834 0.0
H2161 H 0.7009 0.91962 0.51002 0.0
H2162 H 0.7019 0.92019 0.48467 0.0
H2163 H 0.68851 0.88613 0.48318 0.0
H2164 H 0.68746 0.88547 0.50856 0.0
H2165 H 0.70007 0.86764 0.49587 0.0
H2166 H 0.77033 0.87238 0.51652 0.0
H2167 H 0.76375 0.8753 0.55046 0.0
H2168 H 0.70879 0.89719 0.53753 0.0
C2169 C 0.7249 0.89337 0.46187 0.0
C2170 C 0.73952 0.88901 0.44924 0.0
C2171 C 0.75641 0.88168 0.45649 0.0
C2172 C 0.75879 0.87891 0.4759 0.0
C2173 C 0.74417 0.88352 0.48793 0.0
C2174 C 0.72755 0.89058 0.48123 0.0
C2175 C 0.71436 0.89512 0.49728 0.0
C2176 C 0.70969 0.91622 0.49759 0.0
C2177 C 0.69654 0.88286 0.49615 0.0
C2178 C 0.72628 0.88975 0.51405 0.0
C2179 C 0.74336 0.88296 0.50831 0.0
C2180 C 0.75696 0.87758 0.52119 0.0
C2181 C 0.75307 0.87933 0.54048 0.0
C2182 C 0.73573 0.88648 0.54676 0.0
C2183 C 0.72213 0.89157 0.53327 0.0
H2184 H 0.47229 0.1057 0.22053 0.0
H2185 H 0.44549 0.11405 0.27485 0.0
H2186 H 0.47622 0.11732 0.28992 0.0
H2187 H 0.50975 0.07811 0.23735 0.0
H2188 H 0.5271 0.08822 0.22186 0.0
H2189 H 0.50293 0.08756 0.21483 0.0
H2190 H 0.50373 0.12369 0.20975 0.0
H2191 H 0.52793 0.12446 0.21674 0.0
H2192 H 0.51118 0.13895 0.22875 0.0
H2193 H 0.50947 0.11768 0.29975 0.0
H2194 H 0.54364 0.11611 0.30346 0.0
H2195 H 0.54948 0.10833 0.24297 0.0
C2196 C 0.47288 0.10842 0.23555 0.0
C2197 C 0.45637 0.10957 0.24644 0.0
C2198 C 0.45784 0.11305 0.26611 0.0
C2199 C 0.47527 0.11497 0.27487 0.0
C2200 C 0.49121 0.11352 0.26382 0.0
C2201 C 0.49025 0.11045 0.24458 0.0
C2202 C 0.50966 0.10899 0.23617 0.0
C2203 C 0.51252 0.08957 0.22702 0.0
C2204 C 0.51334 0.12498 0.22201 0.0
C2205 C 0.52157 0.11141 0.25374 0.0
C2206 C 0.51059 0.11403 0.26951 0.0
C2207 C 0.51825 0.11582 0.28749 0.0
C2208 C 0.53769 0.11484 0.28946 0.0
C2209 C 0.54929 0.11218 0.27352 0.0
C2210 C 0.54104 0.11061 0.25542 0.0
H2211 H 0.9027 0.53686 0.21872 0.0
H2212 H 0.88449 0.56241 0.2712 0.0
H2213 H 0.87837 0.53073 0.28432 0.0
H2214 H 0.8696 0.49717 0.21856 0.0
H2215 H 0.88643 0.48096 0.20918 0.0
H2216 H 0.88801 0.50563 0.20334 0.0
H2217 H 0.92205 0.50688 0.21573 0.0
H2218 H 0.9206 0.48224 0.22155 0.0
H2219 H 0.92692 0.49924 0.23944 0.0
H2220 H 0.87582 0.49657 0.29226 0.0
H2221 H 0.87824 0.46219 0.29529 0.0
H2222 H 0.89844 0.45849 0.23769 0.0
C2223 C 0.89718 0.53586 0.2329 0.0
C2224 C 0.89398 0.55221 0.2439 0.0
C2225 C 0.88704 0.55016 0.26249 0.0
C2226 C 0.88345 0.53222 0.27002 0.0
C2227 C 0.88686 0.51646 0.25881 0.0
C2228 C 0.89362 0.51808 0.24067 0.0
C2229 C 0.89717 0.49888 0.23199 0.0
C2230 C 0.88454 0.49546 0.21475 0.0
C2231 C 0.91792 0.49669 0.22689 0.0
C2232 C 0.89163 0.48616 0.24823 0.0
C2233 C 0.88556 0.49664 0.26347 0.0
C2234 C 0.88044 0.48822 0.28039 0.0
C2235 C 0.88192 0.46865 0.28196 0.0
C2236 C 0.88854 0.45759 0.26672 0.0
C2237 C 0.89311 0.46649 0.2495 0.0
H2238 H 0.54411 0.88591 0.21457 0.0
H2239 H 0.55833 0.89926 0.2726 0.0
H2240 H 0.52473 0.89711 0.28111 0.0
H2241 H 0.50475 0.91341 0.21183 0.0
H2242 H 0.4917 0.89736 0.19697 0.0
H2243 H 0.5168 0.89758 0.19623 0.0
H2244 H 0.51717 0.86188 0.20385 0.0
H2245 H 0.49201 0.8615 0.20446 0.0
H2246 H 0.50511 0.85326 0.22446 0.0
H2247 H 0.48864 0.89649 0.28213 0.0
H2248 H 0.45461 0.89678 0.2758 0.0
H2249 H 0.46532 0.8842 0.21689 0.0
C2250 C 0.54029 0.8881 0.22918 0.0
C2251 C 0.55391 0.8928 0.24292 0.0
C2252 C 0.54819 0.89551 0.26185 0.0
C2253 C 0.52912 0.89437 0.26678 0.0
C2254 C 0.51603 0.89031 0.25265 0.0
C2255 C 0.5215 0.88702 0.23427 0.0
C2256 C 0.50492 0.88401 0.22135 0.0
C2257 C 0.50453 0.89898 0.20568 0.0
C2258 C 0.5048 0.86397 0.21305 0.0
C2259 C 0.48912 0.8866 0.23516 0.0
C2260 C 0.49567 0.89004 0.2532 0.0
C2261 C 0.48343 0.89361 0.26807 0.0
C2262 C 0.46409 0.89376 0.26433 0.0
C2263 C 0.45718 0.89053 0.24583 0.0
C2264 C 0.47 0.88671 0.23121 0.0
H2265 H 0.09814 0.53346 0.28484 0.0
H2266 H 0.13752 0.55322 0.24256 0.0
H2267 H 0.14346 0.52051 0.23306 0.0
H2268 H 0.12287 0.48908 0.29693 0.0
H2269 H 0.10145 0.4757 0.29919 0.0
H2270 H 0.10186 0.50054 0.30461 0.0
H2271 H 0.07507 0.50589 0.28072 0.0
H2272 H 0.07456 0.48111 0.27527 0.0
H2273 H 0.0778 0.4981 0.25667 0.0
H2274 H 0.14317 0.48677 0.22585 0.0
H2275 H 0.13572 0.45325 0.22039 0.0
H2276 H 0.09641 0.454 0.26688 0.0
C2277 C 0.10831 0.53081 0.2739 0.0
C2278 C 0.11746 0.54589 0.26451 0.0
C2279 C 0.13034 0.54191 0.24993 0.0
C2280 C 0.13391 0.52336 0.24451 0.0
C2281 C 0.12449 0.50884 0.25376 0.0
C2282 C 0.11192 0.51224 0.26811 0.0
C2283 C 0.10251 0.49401 0.27443 0.0
C2284 C 0.10747 0.48957 0.29502 0.0
C2285 C 0.08123 0.49483 0.2716 0.0
C2286 C 0.11138 0.48001 0.261 0.0
C2287 C 0.12422 0.48896 0.24943 0.0
C2288 C 0.13337 0.47952 0.23499 0.0
C2289 C 0.12901 0.46052 0.23196 0.0
C2290 C 0.11563 0.45108 0.24331 0.0
C2291 C 0.107 0.46082 0.25831 0.0
H2292 H 0.46875 0.88852 0.7769 0.0
H2293 H 0.4432 0.88476 0.72138 0.0
H2294 H 0.47433 0.88413 0.70684 0.0
H2295 H 0.50633 0.91909 0.76371 0.0
H2296 H 0.52334 0.9081 0.77872 0.0
H2297 H 0.499 0.90742 0.78506 0.0
H2298 H 0.49994 0.87099 0.78685 0.0
H2299 H 0.52431 0.87156 0.78053 0.0
H2300 H 0.50797 0.85774 0.76677 0.0
H2301 H 0.50797 0.88517 0.698 0.0
H2302 H 0.54224 0.88744 0.69553 0.0
H2303 H 0.54632 0.89026 0.75663 0.0
C2304 C 0.46969 0.88741 0.7617 0.0
C2305 C 0.45343 0.8867 0.75033 0.0
C2306 C 0.45536 0.88536 0.73046 0.0
C2307 C 0.47301 0.88496 0.72202 0.0
C2308 C 0.48869 0.88585 0.73359 0.0
C2309 C 0.48726 0.88699 0.75299 0.0
C2310 C 0.50642 0.88822 0.76207 0.0
C2311 C 0.50891 0.90681 0.77303 0.0
C2312 C 0.50986 0.87111 0.77481 0.0
C2313 C 0.51876 0.88778 0.74471 0.0
C2314 C 0.50823 0.88637 0.72845 0.0
C2315 C 0.5164 0.88618 0.71064 0.0
C2316 C 0.53591 0.88752 0.70939 0.0
C2317 C 0.54706 0.88901 0.72586 0.0
C2318 C 0.53826 0.88903 0.74375 0.0
H2319 H 0.10589 0.45399 0.76912 0.0
H2320 H 0.1209 0.45686 0.70988 0.0
H2321 H 0.12485 0.49133 0.71261 0.0
H2322 H 0.0784 0.49451 0.76928 0.0
H2323 H 0.08512 0.50229 0.79256 0.0
H2324 H 0.08564 0.47762 0.78669 0.0
H2325 H 0.12048 0.47633 0.79643 0.0
H2326 H 0.12006 0.50102 0.80241 0.0
H2327 H 0.13704 0.49242 0.78582 0.0
H2328 H 0.1252 0.52531 0.721 0.0
H2329 H 0.12085 0.55702 0.73406 0.0
H2330 H 0.10459 0.53263 0.78785 0.0
C2331 C 0.1104 0.46183 0.75682 0.0
C2332 C 0.11323 0.45273 0.73931 0.0
C2333 C 0.11868 0.46353 0.72344 0.0
C2334 C 0.12104 0.48311 0.72487 0.0
C2335 C 0.11783 0.49168 0.74224 0.0
C2336 C 0.11259 0.48144 0.75794 0.0
C2337 C 0.1086 0.49431 0.77454 0.0
C2338 C 0.08823 0.49204 0.78114 0.0
C2339 C 0.12237 0.49081 0.79076 0.0
C2340 C 0.11203 0.5134 0.76557 0.0
C2341 C 0.11759 0.51148 0.74701 0.0
C2342 C 0.12098 0.527 0.73555 0.0
C2343 C 0.11841 0.545 0.74314 0.0
C2344 C 0.11233 0.54741 0.76203 0.0
C2345 C 0.10935 0.53132 0.77342 0.0
H2346 H 0.46577 0.1187 0.78932 0.0
H2347 H 0.45186 0.09796 0.73343 0.0
H2348 H 0.48527 0.10058 0.72436 0.0
H2349 H 0.50434 0.15135 0.77505 0.0
H2350 H 0.51754 0.14584 0.79593 0.0
H2351 H 0.49238 0.14529 0.79659 0.0
H2352 H 0.49303 0.11087 0.80869 0.0
H2353 H 0.51809 0.11127 0.80802 0.0
H2354 H 0.50528 0.09332 0.79525 0.0
H2355 H 0.52134 0.10137 0.7233 0.0
H2356 H 0.55524 0.09991 0.73054 0.0
H2357 H 0.54424 0.12019 0.78711 0.0
C2358 C 0.46962 0.11508 0.77501 0.0
C2359 C 0.4562 0.10808 0.7621 0.0
C2360 C 0.46188 0.10349 0.74353 0.0
C2361 C 0.48084 0.10494 0.73827 0.0
C2362 C 0.49383 0.11129 0.75165 0.0
C2363 C 0.4883 0.1165 0.76959 0.0
C2364 C 0.50482 0.12126 0.78204 0.0
C2365 C 0.50476 0.14218 0.78773 0.0
C2366 C 0.50533 0.10841 0.79951 0.0
C2367 C 0.52065 0.11713 0.76866 0.0
C2368 C 0.51419 0.11172 0.75106 0.0
C2369 C 0.52649 0.10591 0.73694 0.0
C2370 C 0.54573 0.10517 0.74114 0.0
C2371 C 0.55236 0.10993 0.75938 0.0
C2372 C 0.53962 0.11649 0.77301 0.0
H2373 H 0.89278 0.54026 0.708 0.0
H2374 H 0.88585 0.55406 0.76728 0.0
H2375 H 0.8815 0.52036 0.77455 0.0
H2376 H 0.85875 0.50142 0.70667 0.0
H2377 H 0.8727 0.48771 0.69068 0.0
H2378 H 0.87396 0.51307 0.69003 0.0
H2379 H 0.90984 0.5119 0.69487 0.0
H2380 H 0.90868 0.48658 0.69549 0.0
H2381 H 0.91911 0.49943 0.71484 0.0
H2382 H 0.88008 0.48455 0.77564 0.0
H2383 H 0.88205 0.45012 0.77013 0.0
H2384 H 0.88917 0.46056 0.71021 0.0
C2385 C 0.89014 0.53627 0.72249 0.0
C2386 C 0.8897 0.54989 0.73702 0.0
C2387 C 0.8863 0.54394 0.75583 0.0
C2388 C 0.88374 0.52481 0.76014 0.0
C2389 C 0.88447 0.51174 0.74549 0.0
C2390 C 0.88751 0.51726 0.72704 0.0
C2391 C 0.8885 0.50045 0.71399 0.0
C2392 C 0.87252 0.50069 0.69949 0.0
C2393 C 0.90767 0.49954 0.70423 0.0
C2394 C 0.88591 0.48463 0.72801 0.0
C2395 C 0.88348 0.49132 0.74611 0.0
C2396 C 0.88176 0.47914 0.76147 0.0
C2397 C 0.88288 0.45961 0.75821 0.0
C2398 C 0.88574 0.45254 0.73976 0.0
C2399 C 0.88689 0.46534 0.72452 0.0
H2400 H 0.24133 0.54737 0.10837 0.0
H2401 H 0.29468 0.54445 0.13729 0.0
H2402 H 0.28993 0.51044 0.1421 0.0
H2403 H 0.21678 0.51039 0.13703 0.0
H2404 H 0.20445 0.50104 0.11684 0.0
H2405 H 0.21064 0.52572 0.11783 0.0
H2406 H 0.22781 0.52268 0.08587 0.0
H2407 H 0.22182 0.49801 0.08484 0.0
H2408 H 0.24592 0.50543 0.08329 0.0
H2409 H 0.2817 0.47684 0.14069 0.0
H2410 H 0.26985 0.4449 0.13389 0.0
H2411 H 0.22147 0.46842 0.10596 0.0
C2412 C 0.25173 0.53962 0.11616 0.0
C2413 C 0.26835 0.54855 0.12252 0.0
C2414 C 0.28187 0.53789 0.13226 0.0
C2415 C 0.27927 0.51857 0.13514 0.0
C2416 C 0.26306 0.51006 0.12824 0.0
C2417 C 0.24942 0.52016 0.11905 0.0
C2418 C 0.23405 0.50711 0.11174 0.0
C2419 C 0.21537 0.51132 0.12145 0.0
C2420 C 0.23231 0.50839 0.09016 0.0
C2421 C 0.24153 0.48813 0.11779 0.0
C2422 C 0.2582 0.49028 0.12743 0.0
C2423 C 0.26853 0.47494 0.13341 0.0
C2424 C 0.26173 0.45684 0.12936 0.0
C2425 C 0.24472 0.45417 0.11943 0.0
C2426 C 0.23437 0.47005 0.11381 0.0
H2427 H 0.28739 0.53918 0.90289 0.0
H2428 H 0.24343 0.55853 0.86579 0.0
H2429 H 0.23438 0.52564 0.85893 0.0
H2430 H 0.29888 0.49522 0.87607 0.0
H2431 H 0.30222 0.48177 0.89731 0.0
H2432 H 0.30734 0.50671 0.89717 0.0
H2433 H 0.28493 0.5114 0.92539 0.0
H2434 H 0.2797 0.48654 0.92559 0.0
H2435 H 0.26105 0.50325 0.92352 0.0
H2436 H 0.22766 0.49172 0.85868 0.0
H2437 H 0.22297 0.45807 0.86559 0.0
H2438 H 0.27077 0.45946 0.90326 0.0
C2439 C 0.27623 0.5364 0.89292 0.0
C2440 C 0.26621 0.55135 0.8847 0.0
C2441 C 0.2513 0.54726 0.87217 0.0
C2442 C 0.24612 0.52864 0.86812 0.0
C2443 C 0.25594 0.51421 0.87675 0.0
C2444 C 0.27067 0.51777 0.88889 0.0
C2445 C 0.27751 0.49961 0.89772 0.0
C2446 C 0.29769 0.49559 0.8917 0.0
C2447 C 0.27568 0.50025 0.91933 0.0
C2448 C 0.26393 0.48544 0.88906 0.0
C2449 C 0.25183 0.49424 0.8768 0.0
C2450 C 0.23719 0.4846 0.86803 0.0
C2451 C 0.23459 0.46551 0.87213 0.0
C2452 C 0.24653 0.45618 0.88491 0.0
C2453 C 0.26166 0.46619 0.89318 0.0
H2454 H 0.45297 0.26292 0.90082 0.0
H2455 H 0.45254 0.20417 0.88357 0.0
H2456 H 0.48675 0.20514 0.88051 0.0
H2457 H 0.49251 0.27812 0.8703 0.0
H2458 H 0.50184 0.29392 0.88798 0.0
H2459 H 0.47706 0.2893 0.88685 0.0
H2460 H 0.47736 0.27899 0.92187 0.0
H2461 H 0.50213 0.28341 0.92306 0.0
H2462 H 0.49283 0.26053 0.9292 0.0
H2463 H 0.52094 0.21134 0.882 0.0
H2464 H 0.55317 0.22285 0.88704 0.0
H2465 H 0.53184 0.27758 0.90343 0.0
C2466 C 0.46006 0.25042 0.89597 0.0
C2467 C 0.45007 0.23348 0.89243 0.0
C2468 C 0.45989 0.21729 0.88646 0.0
C2469 C 0.47933 0.2177 0.8846 0.0
C2470 C 0.48882 0.23441 0.88872 0.0
C2471 C 0.47957 0.25053 0.89415 0.0
C2472 C 0.49331 0.26628 0.89882 0.0
C2473 C 0.49104 0.28289 0.88517 0.0
C2474 C 0.49128 0.27267 0.91946 0.0
C2475 C 0.51165 0.25631 0.8956 0.0
C2476 C 0.50872 0.23798 0.88963 0.0
C2477 C 0.52345 0.22573 0.88647 0.0
C2478 C 0.54172 0.23239 0.88947 0.0
C2479 C 0.54511 0.25114 0.89562 0.0
C2480 C 0.52979 0.26322 0.8986 0.0
H2481 H 0.73527 0.5509 0.89847 0.0
H2482 H 0.78394 0.55008 0.86211 0.0
H2483 H 0.77971 0.51592 0.85734 0.0
H2484 H 0.74461 0.5093 0.92178 0.0
H2485 H 0.72081 0.50094 0.92353 0.0
H2486 H 0.72567 0.52582 0.922 0.0
H2487 H 0.70417 0.5283 0.89275 0.0
H2488 H 0.699 0.50344 0.89434 0.0
H2489 H 0.70808 0.51317 0.87271 0.0
H2490 H 0.7732 0.48166 0.85998 0.0
H2491 H 0.76292 0.44929 0.86774 0.0
H2492 H 0.71803 0.47177 0.90189 0.0
C2493 C 0.74459 0.54359 0.889 0.0
C2494 C 0.75988 0.55309 0.8806 0.0
C2495 C 0.77214 0.54302 0.86869 0.0
C2496 C 0.76985 0.52363 0.86587 0.0
C2497 C 0.75515 0.51448 0.87496 0.0
C2498 C 0.74254 0.5241 0.88607 0.0
C2499 C 0.72882 0.51053 0.89529 0.0
C2500 C 0.73007 0.51173 0.91693 0.0
C2501 C 0.70883 0.51407 0.88835 0.0
C2502 C 0.73606 0.49187 0.88803 0.0
C2503 C 0.75122 0.4945 0.87628 0.0
C2504 C 0.76111 0.47939 0.86887 0.0
C2505 C 0.75526 0.46106 0.87347 0.0
C2506 C 0.73961 0.45799 0.8853 0.0
C2507 C 0.72987 0.47365 0.89256 0.0
H2508 H 0.455 0.76129 0.89358 0.0
H2509 H 0.45611 0.70025 0.89735 0.0
H2510 H 0.49049 0.7012 0.89528 0.0
H2511 H 0.49422 0.76674 0.86098 0.0
H2512 H 0.50277 0.78782 0.87246 0.0
H2513 H 0.47817 0.7822 0.87277 0.0
H2514 H 0.47828 0.78407 0.90928 0.0
H2515 H 0.50287 0.7896 0.90909 0.0
H2516 H 0.49429 0.76974 0.92244 0.0
H2517 H 0.5249 0.7089 0.89435 0.0
H2518 H 0.55666 0.72284 0.89491 0.0
H2519 H 0.53286 0.7788 0.89229 0.0
C2520 C 0.46242 0.74809 0.89367 0.0
C2521 C 0.4528 0.73069 0.89556 0.0
C2522 C 0.46313 0.71377 0.89592 0.0
C2523 C 0.48267 0.71414 0.89471 0.0
C2524 C 0.49171 0.73155 0.89317 0.0
C2525 C 0.48193 0.74821 0.89262 0.0
C2526 C 0.49501 0.76509 0.89185 0.0
C2527 C 0.49239 0.77611 0.87342 0.0
C2528 C 0.49246 0.77787 0.9092 0.0
C2529 C 0.51368 0.75533 0.89228 0.0
C2530 C 0.5115 0.73598 0.89289 0.0
C2531 C 0.52679 0.72403 0.89377 0.0
C2532 C 0.54478 0.73209 0.8941 0.0
C2533 C 0.54733 0.75193 0.89367 0.0
C2534 C 0.53148 0.76359 0.89264 0.0
H2535 H 0.7424 0.55168 0.10885 0.0
H2536 H 0.80039 0.55095 0.12678 0.0
H2537 H 0.79861 0.51643 0.12992 0.0
H2538 H 0.72593 0.51258 0.1393 0.0
H2539 H 0.71032 0.5034 0.12148 0.0
H2540 H 0.71555 0.52829 0.12245 0.0
H2541 H 0.72632 0.52731 0.08759 0.0
H2542 H 0.72128 0.50242 0.08656 0.0
H2543 H 0.7443 0.51112 0.08068 0.0
H2544 H 0.79155 0.48185 0.1285 0.0
H2545 H 0.77921 0.44958 0.12368 0.0
H2546 H 0.7258 0.47255 0.10673 0.0
C2547 C 0.75459 0.5443 0.11386 0.0
C2548 C 0.77152 0.55407 0.1176 0.0
C2549 C 0.78726 0.54381 0.12378 0.0
C2550 C 0.78639 0.52418 0.12566 0.0
C2551 C 0.76968 0.51493 0.12136 0.0
C2552 C 0.754 0.52462 0.11573 0.0
C2553 C 0.7381 0.51113 0.11097 0.0
C2554 C 0.72149 0.51402 0.12435 0.0
C2555 C 0.73216 0.51312 0.09022 0.0
C2556 C 0.74742 0.49239 0.11449 0.0
C2557 C 0.7656 0.4949 0.12056 0.0
C2558 C 0.77726 0.47969 0.12395 0.0
C2559 C 0.77013 0.46139 0.12109 0.0
C2560 C 0.75151 0.45844 0.11488 0.0
C2561 C 0.74004 0.47424 0.11166 0.0
H2562 H 0.54454 0.7977 0.10322 0.0
H2563 H 0.55405 0.73742 0.10559 0.0
H2564 H 0.52004 0.73184 0.10867 0.0
H2565 H 0.50694 0.79871 0.13706 0.0
H2566 H 0.49434 0.8166 0.12452 0.0
H2567 H 0.51942 0.81574 0.1229 0.0
H2568 H 0.51708 0.81387 0.08646 0.0
H2569 H 0.49201 0.81472 0.08797 0.0
H2570 H 0.50301 0.79553 0.07572 0.0
H2571 H 0.48463 0.73295 0.11046 0.0
H2572 H 0.45107 0.74065 0.1112 0.0
H2573 H 0.46527 0.80022 0.10807 0.0
C2574 C 0.53956 0.78329 0.10443 0.0
C2575 C 0.55206 0.768 0.10412 0.0
C2576 C 0.54482 0.74939 0.10579 0.0
C2577 C 0.52551 0.74607 0.10755 0.0
C2578 C 0.51362 0.7615 0.10771 0.0
C2579 C 0.52041 0.77973 0.10625 0.0
C2580 C 0.50476 0.79388 0.10656 0.0
C2581 C 0.50647 0.807 0.12379 0.0
C2582 C 0.50418 0.80516 0.08808 0.0
C2583 C 0.48804 0.78077 0.10828 0.0
C2584 C 0.49339 0.76214 0.10892 0.0
C2585 C 0.4803 0.7475 0.11005 0.0
C2586 C 0.46125 0.75202 0.11044 0.0
C2587 C 0.45545 0.77105 0.10975 0.0
C2588 C 0.46915 0.78554 0.10876 0.0
H2589 H 0.54499 0.25659 0.10159 0.0
H2590 H 0.55393 0.21716 0.14723 0.0
H2591 H 0.52034 0.2174 0.15462 0.0
H2592 H 0.50543 0.28306 0.12431 0.0
H2593 H 0.49307 0.28517 0.10228 0.0
H2594 H 0.51824 0.28463 0.10248 0.0
H2595 H 0.51748 0.25648 0.07917 0.0
H2596 H 0.49238 0.25691 0.07894 0.0
H2597 H 0.50427 0.23556 0.08516 0.0
H2598 H 0.48606 0.2179 0.15429 0.0
H2599 H 0.45254 0.21881 0.14624 0.0
H2600 H 0.46449 0.25815 0.1011 0.0
C2601 C 0.53987 0.24853 0.1135 0.0
C2602 C 0.55202 0.23697 0.12398 0.0
C2603 C 0.54483 0.22612 0.13909 0.0
C2604 C 0.52579 0.22625 0.14345 0.0
C2605 C 0.51404 0.23729 0.13256 0.0
C2606 C 0.52072 0.24832 0.11794 0.0
C2607 C 0.50469 0.25725 0.10726 0.0
C2608 C 0.5054 0.27881 0.1092 0.0
C2609 C 0.50471 0.25118 0.0864 0.0
C2610 C 0.48803 0.24893 0.11773 0.0
C2611 C 0.49384 0.23767 0.13245 0.0
C2612 C 0.48129 0.22702 0.14312 0.0
C2613 C 0.46231 0.22759 0.13845 0.0
C2614 C 0.45602 0.23883 0.12336 0.0
C2615 C 0.46897 0.24993 0.11309 0.0
H2616 H 0.60262 0.7439 0.03837 0.0
H2617 H 0.64947 0.78186 0.04809 0.0
H2618 H 0.65562 0.78309 0.01396 0.0
H2619 H 0.62305 0.71944 0.99452 0.0
H2620 H 0.60036 0.71835 0.98353 0.0
H2621 H 0.6024 0.71667 0.00881 0.0
H2622 H 0.57966 0.74452 0.01242 0.0
H2623 H 0.57782 0.74657 0.98725 0.0
H2624 H 0.58512 0.76665 1.00115 0.0
H2625 H 0.65216 0.78649 0.97968 0.0
H2626 H 0.6415 0.78867 0.94657 0.0
H2627 H 0.59777 0.74756 0.95786 0.0
C2628 C 0.61474 0.75161 0.03329 0.0
C2629 C 0.62579 0.76255 0.04576 0.0
C2630 C 0.64105 0.77321 0.03869 0.0
C2631 C 0.64463 0.77399 0.01934 0.0
C2632 C 0.63288 0.76394 0.00723 0.0
C2633 C 0.61847 0.7526 0.01387 0.0
C2634 C 0.60661 0.74513 0.99768 0.0
C2635 C 0.60821 0.72362 0.99604 0.0
C2636 C 0.5861 0.75108 0.99976 0.0
C2637 C 0.61595 0.75492 0.98113 0.0
C2638 C 0.63119 0.76557 0.98698 0.0
C2639 C 0.64067 0.77773 0.97477 0.0
C2640 C 0.63447 0.77901 0.95609 0.0
C2641 C 0.61911 0.76805 0.9498 0.0
C2642 C 0.6099 0.75567 0.96236 0.0
H2643 H 0.29716 0.60975 0.9631 0.0
H2644 H 0.23723 0.61018 0.95358 0.0
H2645 H 0.23206 0.61123 0.98802 0.0
H2646 H 0.29632 0.57972 0.00286 0.0
H2647 H 0.31511 0.59186 0.0149 0.0
H2648 H 0.31403 0.59211 0.98955 0.0
H2649 H 0.31482 0.62863 0.9899 0.0
H2650 H 0.31591 0.6285 0.01528 0.0
H2651 H 0.29769 0.64121 0.00345 0.0
H2652 H 0.23353 0.61138 0.02368 0.0
H2653 H 0.24145 0.6098 0.05751 0.0
H2654 H 0.30043 0.60898 0.04328 0.0
C2655 C 0.28292 0.61018 0.96817 0.0
C2656 C 0.2676 0.60989 0.95556 0.0
C2657 C 0.24921 0.61038 0.96291 0.0
C2658 C 0.24613 0.61103 0.98246 0.0
C2659 C 0.26157 0.6112 0.99445 0.0
C2660 C 0.27959 0.61078 0.98757 0.0
C2661 C 0.29379 0.6105 0.00338 0.0
C2662 C 0.30549 0.59247 0.00262 0.0
C2663 C 0.30628 0.62827 0.00297 0.0
C2664 C 0.28094 0.61055 0.02029 0.0
C2665 C 0.26241 0.61111 0.01488 0.0
C2666 C 0.248 0.611 0.02807 0.0
C2667 C 0.25266 0.61011 0.04727 0.0
C2668 C 0.27158 0.60923 0.05313 0.0
C2669 C 0.28583 0.60962 0.03935 0.0
H2670 H 0.3802 0.22351 0.04577 0.0
H2671 H 0.40447 0.27888 0.05595 0.0
H2672 H 0.40119 0.2863 0.02192 0.0
H2673 H 0.403 0.21418 0.00456 0.0
H2674 H 0.38374 0.20191 0.99343 0.0
H2675 H 0.38553 0.20238 0.01868 0.0
H2676 H 0.35234 0.21646 0.02097 0.0
H2677 H 0.35044 0.21603 0.99563 0.0
H2678 H 0.34708 0.23775 0.00833 0.0
H2679 H 0.39868 0.28567 0.98572 0.0
H2680 H 0.3976 0.27697 0.95184 0.0
H2681 H 0.37465 0.22217 0.96672 0.0
C2682 C 0.38458 0.23734 0.04096 0.0
C2683 C 0.39269 0.25059 0.05348 0.0
C2684 C 0.39814 0.26855 0.0466 0.0
C2685 C 0.3963 0.27287 0.02731 0.0
C2686 C 0.38867 0.25921 0.01525 0.0
C2687 C 0.38272 0.24188 0.02196 0.0
C2688 C 0.37629 0.22899 0.00623 0.0
C2689 C 0.38784 0.21081 0.0057 0.0
C2690 C 0.35529 0.22455 0.00789 0.0
C2691 C 0.38034 0.24137 0.98943 0.0
C2692 C 0.38716 0.25889 0.99479 0.0
C2693 C 0.39305 0.27211 0.98143 0.0
C2694 C 0.39235 0.26707 0.96221 0.0
C2695 C 0.38606 0.24888 0.95664 0.0
C2696 C 0.37951 0.2362 0.97049 0.0
H2697 H 0.71088 0.39198 0.04166 0.0
H2698 H 0.7704 0.39656 0.05255 0.0
H2699 H 0.77657 0.39411 0.01828 0.0
H2700 H 0.71408 0.35867 0.0019 0.0
H2701 H 0.695 0.36954 0.98961 0.0
H2702 H 0.69567 0.3698 0.01501 0.0
H2703 H 0.69317 0.40622 0.01482 0.0
H2704 H 0.69253 0.40607 0.98949 0.0
H2705 H 0.70999 0.41998 0.00169 0.0
H2706 H 0.7757 0.39414 0.98194 0.0
H2707 H 0.76777 0.3963 0.94794 0.0
H2708 H 0.70896 0.39108 0.96204 0.0
C2709 C 0.72526 0.39222 0.03693 0.0
C2710 C 0.74014 0.39451 0.04985 0.0
C2711 C 0.75874 0.39473 0.04296 0.0
C2712 C 0.76238 0.39335 0.0235 0.0
C2713 C 0.74731 0.3915 0.01112 0.0
C2714 C 0.72913 0.39074 0.01767 0.0
C2715 C 0.71526 0.38957 0.00163 0.0
C2716 C 0.70437 0.37077 0.00207 0.0
C2717 C 0.70197 0.40647 0.00193 0.0
C2718 C 0.72838 0.39045 0.98496 0.0
C2719 C 0.74684 0.39136 0.99058 0.0
C2720 C 0.76128 0.3932 0.97743 0.0
C2721 C 0.75666 0.3944 0.95813 0.0
C2722 C 0.73775 0.39391 0.95222 0.0
C2723 C 0.72358 0.39154 0.96594 0.0
H2724 H 0.60206 0.28184 0.9732 0.0
H2725 H 0.62095 0.22895 0.94931 0.0
H2726 H 0.62621 0.21665 0.98122 0.0
H2727 H 0.63473 0.28272 0.01346 0.0
H2728 H 0.61772 0.29248 0.02934 0.0
H2729 H 0.61673 0.29784 0.00453 0.0
H2730 H 0.58251 0.28562 0.00327 0.0
H2731 H 0.58341 0.28017 0.02802 0.0
H2732 H 0.57715 0.26206 0.01122 0.0
H2733 H 0.62708 0.20896 0.01537 0.0
H2734 H 0.62428 0.20671 0.04992 0.0
H2735 H 0.60545 0.26462 0.05219 0.0
C2736 C 0.60757 0.26779 0.97466 0.0
C2737 C 0.61107 0.2564 0.95865 0.0
C2738 C 0.61811 0.23799 0.96126 0.0
C2739 C 0.62121 0.23085 0.97937 0.0
C2740 C 0.61732 0.24229 0.9948 0.0
C2741 C 0.61078 0.2604 0.99269 0.0
C2742 C 0.60699 0.26939 0.01172 0.0
C2743 C 0.61981 0.28663 0.01495 0.0
C2744 C 0.58629 0.27461 0.01367 0.0
C2745 C 0.61205 0.25334 0.02478 0.0
C2746 C 0.61805 0.23789 0.01469 0.0
C2747 C 0.62261 0.22104 0.02347 0.0
C2748 C 0.6209 0.21988 0.04311 0.0
C2749 C 0.61472 0.2355 0.05382 0.0
C2750 C 0.61045 0.25251 0.04446 0.0
H2751 H 0.78853 0.60373 0.04007 0.0
H2752 H 0.73182 0.62118 0.05196 0.0
H2753 H 0.72571 0.62318 0.01751 0.0
H2754 H 0.7969 0.63369 1.00129 0.0
H2755 H 0.81043 0.61655 0.98863 0.0
H2756 H 0.8098 0.61613 0.01399 0.0
H2757 H 0.79839 0.5813 0.01321 0.0
H2758 H 0.79909 0.58157 0.98784 0.0
H2759 H 0.7778 0.57506 0.99983 0.0
H2760 H 0.72666 0.62377 0.98114 0.0
H2761 H 0.73404 0.62197 0.94709 0.0
H2762 H 0.79029 0.60426 0.96077 0.0
C2763 C 0.77477 0.60803 0.03559 0.0
C2764 C 0.76068 0.61244 0.04875 0.0
C2765 C 0.74283 0.61772 0.04212 0.0
C2766 C 0.73927 0.61894 0.02261 0.0
C2767 C 0.75368 0.6147 0.01007 0.0
C2768 C 0.77102 0.60924 0.01641 0.0
C2769 C 0.78429 0.60536 1.0004 0.0
C2770 C 0.80136 0.61874 1.00113 0.0
C2771 C 0.79023 0.58459 1.00032 0.0
C2772 C 0.77185 0.60968 0.98387 0.0
C2773 C 0.75422 0.61501 0.98959 0.0
C2774 C 0.74042 0.61959 0.97656 0.0
C2775 C 0.74477 0.61854 0.95726 0.0
C2776 C 0.76278 0.61299 0.9512 0.0
C2777 C 0.77642 0.60863 0.96482 0.0
H2778 H 0.38802 0.72829 0.97163 0.0
H2779 H 0.39134 0.78325 0.945 0.0
H2780 H 0.38992 0.79839 0.97644 0.0
H2781 H 0.35634 0.74111 0.00958 0.0
H2782 H 0.36788 0.72633 0.0265 0.0
H2783 H 0.36789 0.72002 0.00188 0.0
H2784 H 0.40405 0.71884 0.00226 0.0
H2785 H 0.40415 0.72514 0.02686 0.0
H2786 H 0.41722 0.73916 0.0102 0.0
H2787 H 0.38978 0.80735 0.01122 0.0
H2788 H 0.39144 0.80942 0.04593 0.0
H2789 H 0.38835 0.74837 0.04938 0.0
C2790 C 0.38824 0.74353 0.97228 0.0
C2791 C 0.38974 0.75456 0.95571 0.0
C2792 C 0.39015 0.77446 0.9574 0.0
C2793 C 0.38932 0.78319 0.97522 0.0
C2794 C 0.38804 0.77183 0.99123 0.0
C2795 C 0.38748 0.75243 0.98987 0.0
C2796 C 0.38692 0.74332 0.00917 0.0
C2797 C 0.36867 0.73203 0.01194 0.0
C2798 C 0.40411 0.73089 0.0123 0.0
C2799 C 0.38753 0.76062 0.02168 0.0
C2800 C 0.38804 0.77695 0.0111 0.0
C2801 C 0.38925 0.79465 0.01961 0.0
C2802 C 0.3902 0.79566 0.03938 0.0
C2803 C 0.38999 0.77907 0.05052 0.0
C2804 C 0.3884 0.76136 0.0414 0.0
H2805 H 0.21385 0.39789 0.04284 0.0
H2806 H 0.27181 0.3853 0.05514 0.0
H2807 H 0.27819 0.38274 0.021 0.0
H2808 H 0.20872 0.36669 0.00241 0.0
H2809 H 0.19411 0.38289 0.9898 0.0
H2810 H 0.19399 0.38268 0.0152 0.0
H2811 H 0.20223 0.41835 0.01568 0.0
H2812 H 0.20239 0.41866 0.99031 0.0
H2813 H 0.22265 0.42671 0.00326 0.0
H2814 H 0.27843 0.38296 0.98518 0.0
H2815 H 0.27253 0.38616 0.95099 0.0
H2816 H 0.21443 0.39863 0.96273 0.0
C2817 C 0.22787 0.39439 0.03845 0.0
C2818 C 0.24231 0.39177 0.05177 0.0
C2819 C 0.26048 0.38737 0.04527 0.0
C2820 C 0.26425 0.38585 0.02588 0.0
C2821 C 0.2497 0.38872 0.01317 0.0
C2822 C 0.23187 0.39286 0.01922 0.0
C2823 C 0.21883 0.39599 0.00276 0.0
C2824 C 0.20298 0.38117 0.00254 0.0
C2825 C 0.21108 0.41612 0.00303 0.0
C2826 C 0.23212 0.39316 0.98647 0.0
C2827 C 0.24985 0.38889 0.9927 0.0
C2828 C 0.26456 0.38619 0.98015 0.0
C2829 C 0.26107 0.38806 0.96074 0.0
C2830 C 0.243 0.39263 0.95407 0.0
C2831 C 0.22839 0.39503 0.96723 0.0
H2832 H 0.03376 0.59802 0.78185 0.0
H2833 H 0.05725 0.62622 0.73286 0.0
H2834 H 0.02553 0.63344 0.72177 0.0
H2835 H 0.9959 0.57627 0.75768 0.0
H2836 H 0.97948 0.57878 0.77675 0.0
H2837 H 0.00405 0.57713 0.78173 0.0
H2838 H 0.00285 0.60866 0.80017 0.0
H2839 H 0.97827 0.61046 0.79512 0.0
H2840 H 0.99402 0.62937 0.78871 0.0
H2841 H 0.99181 0.63643 0.71516 0.0
H2842 H 0.95773 0.63309 0.71203 0.0
H2843 H 0.9554 0.60257 0.76497 0.0
C2844 C 0.03223 0.60589 0.7689 0.0
C2845 C 0.04801 0.61162 0.75826 0.0
C2846 C 0.0454 0.62163 0.74123 0.0
C2847 C 0.02744 0.62593 0.73487 0.0
C2848 C 0.01221 0.62007 0.74567 0.0
C2849 C 0.01436 0.61017 0.76224 0.0
C2850 C 0.99556 0.60446 0.77045 0.0
C2851 C 0.99364 0.58288 0.77172 0.0
C2852 C 0.9925 0.6138 0.78976 0.0
C2853 C 0.98253 0.61243 0.75569 0.0
C2854 C 0.99251 0.62159 0.74169 0.0
C2855 C 0.98382 0.6294 0.72607 0.0
C2856 C 0.96446 0.62738 0.72442 0.0
C2857 C 0.95392 0.61756 0.73825 0.0
C2858 C 0.96305 0.61038 0.75433 0.0
H2859 H 0.40228 0.95378 0.74455 0.0
H2860 H 0.36718 0.94192 0.79296 0.0
H2861 H 0.36027 0.97573 0.79606 0.0
H2862 H 0.42344 0.99339 0.76373 0.0
H2863 H 0.42509 0.00679 0.74223 0.0
H2864 H 0.42446 0.98147 0.74127 0.0
H2865 H 0.39588 0.98251 0.71891 0.0
H2866 H 0.39643 0.0079 0.71979 0.0
H2867 H 0.37537 0.99521 0.72598 0.0
H2868 H 0.36049 0.01016 0.79694 0.0
H2869 H 0.36877 0.04392 0.79641 0.0
H2870 H 0.40421 0.03484 0.74777 0.0
C2871 C 0.39267 0.95834 0.75537 0.0
C2872 C 0.38501 0.94532 0.76838 0.0
C2873 C 0.37304 0.95172 0.78282 0.0
C2874 C 0.36896 0.97086 0.7846 0.0
C2875 C 0.37706 0.98345 0.7719 0.0
C2876 C 0.3887 0.97755 0.75756 0.0
C2877 C 0.39741 0.99431 0.74742 0.0
C2878 C 0.41887 0.99396 0.74875 0.0
C2879 C 0.39088 0.99502 0.7268 0.0
C2880 C 0.3894 0.01048 0.75879 0.0
C2881 C 0.37742 0.00379 0.77259 0.0
C2882 C 0.36954 0.01563 0.78598 0.0
C2883 C 0.37437 0.03476 0.78561 0.0
C2884 C 0.38693 0.04191 0.77193 0.0
C2885 C 0.39419 0.02973 0.75804 0.0
H2886 H 0.03934 0.41545 0.73242 0.0
H2887 H 0.05036 0.37327 0.77486 0.0
H2888 H 0.01625 0.37077 0.7815 0.0
H2889 H 0.99933 0.43793 0.75659 0.0
H2890 H 0.9877 0.44189 0.73442 0.0
H2891 H 0.01284 0.442 0.73553 0.0
H2892 H 0.01368 0.4163 0.70947 0.0
H2893 H 0.98863 0.41599 0.70839 0.0
H2894 H 1.00099 0.39449 0.71292 0.0
H2895 H 0.97975 0.37061 0.78009 0.0
H2896 H 0.94625 0.37296 0.77098 0.0
H2897 H 0.9611 0.41525 0.72949 0.0
C2898 C 0.03463 0.40595 0.74341 0.0
C2899 C 0.04737 0.39452 0.75311 0.0
C2900 C 0.04075 0.38227 0.7674 0.0
C2901 C 0.02143 0.38076 0.7712 0.0
C2902 C 0.00912 0.39187 0.76082 0.0
C2903 C 0.01565 0.40443 0.7474 0.0
C2904 C 0.99995 0.4139 0.73706 0.0
C2905 C 0.99996 0.43519 0.74115 0.0
C2906 C 1.00087 0.40991 0.71571 0.0
C2907 C 0.98342 0.40417 0.74605 0.0
C2908 C 0.98874 0.39172 0.75997 0.0
C2909 C 0.97551 0.38052 0.76938 0.0
C2910 C 0.95654 0.38193 0.76416 0.0
C2911 C 0.95115 0.39419 0.74945 0.0
C2912 C 0.9648 0.40565 0.74071 0.0
H2913 H 0.60153 0.95038 0.76077 0.0
H2914 H 0.63444 0.95253 0.70941 0.0
H2915 H 0.63925 0.98662 0.71369 0.0
H2916 H 0.57795 0.99255 0.75348 0.0
H2917 H 0.57796 1.00009 0.77778 0.0
H2918 H 0.57875 0.97537 0.77214 0.0
H2919 H 0.60903 0.97205 0.79181 0.0
H2920 H 0.60824 0.99676 0.79767 0.0
H2921 H 0.62882 0.98717 0.78684 0.0
H2922 H 0.63785 0.02068 0.72133 0.0
H2923 H 0.63174 0.05273 0.73308 0.0
H2924 H 0.60011 0.02911 0.77981 0.0
C2925 C 0.61013 0.95796 0.75072 0.0
C2926 C 0.61759 0.94877 0.73475 0.0
C2927 C 0.62849 0.95926 0.72171 0.0
C2928 C 0.63137 0.97865 0.72403 0.0
C2929 C 0.62335 0.98742 0.73953 0.0
C2930 C 0.61312 0.97746 0.75279 0.0
C2931 C 0.60516 0.99063 0.76755 0.0
C2932 C 0.58369 0.9896 0.76774 0.0
C2933 C 0.61331 0.9864 0.78713 0.0
C2934 C 0.61216 0.0095 0.7602 0.0
C2935 C 0.62269 0.00727 0.74407 0.0
C2936 C 0.62985 0.02263 0.73411 0.0
C2937 C 0.62621 0.04079 0.74084 0.0
C2938 C 0.61552 0.04348 0.75741 0.0
C2939 C 0.60853 0.02755 0.76723 0.0
H2940 H 0.95489 0.40483 0.24032 0.0
H2941 H 0.95748 0.3754 0.29383 0.0
H2942 H 0.99077 0.36896 0.28847 0.0
H2943 H 0.98838 0.37491 0.21459 0.0
H2944 H 0.99879 0.39454 0.20223 0.0
H2945 H 0.97458 0.39527 0.20912 0.0
H2946 H 0.98078 0.42659 0.22701 0.0
H2947 H 0.00497 0.42596 0.22017 0.0
H2948 H 0.99881 0.42763 0.24476 0.0
H2949 H 0.02369 0.36713 0.27865 0.0
H2950 H 0.05523 0.37136 0.26575 0.0
H2951 H 0.03258 0.4029 0.2187 0.0
C2952 C 0.96243 0.39675 0.25072 0.0
C2953 C 0.95358 0.39053 0.26747 0.0
C2954 C 0.96398 0.38035 0.28094 0.0
C2955 C 0.98287 0.37651 0.27797 0.0
C2956 C 0.99126 0.38304 0.2615 0.0
C2957 C 0.98148 0.39301 0.2481 0.0
C2958 C 0.99436 0.3996 0.23235 0.0
C2959 C 0.98869 0.39053 0.21345 0.0
C2960 C 0.99475 0.42123 0.23101 0.0
C2961 C 0.01293 0.39209 0.23924 0.0
C2962 C 0.01066 0.38235 0.25595 0.0
C2963 C 0.02567 0.37464 0.26552 0.0
C2964 C 0.04358 0.3772 0.25806 0.0
C2965 C 0.04649 0.38754 0.2412 0.0
C2966 C 0.03084 0.39479 0.2315 0.0
H2967 H 0.6017 0.0514 0.23956 0.0
H2968 H 0.63972 0.05133 0.28723 0.0
H2969 H 0.64546 0.01757 0.28228 0.0
H2970 H 0.58055 0.00827 0.24918 0.0
H2971 H 0.57821 1.00042 0.22508 0.0
H2972 H 0.57894 0.02523 0.23038 0.0
H2973 H 0.60691 0.02981 0.20765 0.0
H2974 H 0.60613 0.00501 0.20209 0.0
H2975 H 0.62748 0.01572 0.21062 0.0
H2976 H 0.64397 0.98343 0.27524 0.0
H2977 H 0.63711 0.95091 0.26475 0.0
H2978 H 0.60057 0.97246 0.22113 0.0
C2979 C 0.61167 0.04436 0.24853 0.0
C2980 C 0.6203 0.05396 0.26375 0.0
C2981 C 0.63292 0.04421 0.27552 0.0
C2982 C 0.63632 0.02504 0.2728 0.0
C2983 C 0.62707 0.01577 0.25818 0.0
C2984 C 0.61519 0.02507 0.24605 0.0
C2985 C 0.60607 0.01134 0.23232 0.0
C2986 C 0.58468 0.01132 0.23437 0.0
C2987 C 0.61201 0.01574 0.21196 0.0
C2988 C 0.61428 0.99291 0.23903 0.0
C2989 C 0.62641 0.99584 0.25392 0.0
C2990 C 0.63476 0.98095 0.26337 0.0
C2991 C 0.63067 0.96252 0.25739 0.0
C2992 C 0.61841 0.95913 0.24205 0.0
C2993 C 0.61024 0.9746 0.23271 0.0
H2994 H 0.03922 0.60357 0.28456 0.0
H2995 H 0.0647 0.62215 0.23211 0.0
H2996 H 0.0336 0.62782 0.21879 0.0
H2997 H 1.00184 0.57856 0.26369 0.0
H2998 H 0.98467 0.58486 0.2811 0.0
H2999 H 0.00897 0.58401 0.2875 0.0
H3000 H 0.00764 0.61853 0.29933 0.0
H3001 H 0.9833 0.61949 0.29295 0.0
H3002 H 0.99956 0.63667 0.28367 0.0
H3003 H 1.00043 0.62894 0.20995 0.0
H3004 H 0.96646 0.62523 0.20593 0.0
H3005 H 0.96148 0.60632 0.2639 0.0
C3006 C 0.03824 0.60912 0.27039 0.0
C3007 C 0.05444 0.6124 0.2594 0.0
C3008 C 0.05254 0.61942 0.24081 0.0
C3009 C 0.03492 0.62281 0.23312 0.0
C3010 C 0.01927 0.61917 0.24418 0.0
C3011 C 0.02066 0.61252 0.26241 0.0
C3012 C 1.00144 0.60867 0.27069 0.0
C3013 C 0.9991 0.58779 0.27605 0.0
C3014 C 0.99777 0.62161 0.28767 0.0
C3015 C 0.98914 0.61374 0.25407 0.0
C3016 C 0.99979 0.61993 0.23902 0.0
C3017 C 0.99189 0.62434 0.22168 0.0
C3018 C 0.97259 0.62211 0.21952 0.0
C3019 C 0.96134 0.61555 0.23461 0.0
C3020 C 0.96971 0.61165 0.25223 0.0
H3021 H 0.40534 0.03935 0.25935 0.0
H3022 H 0.3682 0.04864 0.21207 0.0
H3023 H 0.36029 0.0148 0.21116 0.0
H3024 H 0.42449 0.99866 0.24187 0.0
H3025 H 0.42656 0.98636 0.26397 0.0
H3026 H 0.42667 0.01169 0.26364 0.0
H3027 H 0.39887 0.01206 0.28697 0.0
H3028 H 0.39875 0.98665 0.28747 0.0
H3029 H 0.3778 0.99907 0.28134 0.0
H3030 H 0.3601 0.98034 0.2117 0.0
H3031 H 0.36724 0.94657 0.21405 0.0
H3032 H 0.4044 0.95821 0.26109 0.0
C3033 C 0.39505 0.03425 0.24931 0.0
C3034 C 0.38716 0.04654 0.23592 0.0
C3035 C 0.37426 0.03941 0.2225 0.0
C3036 C 0.36963 0.02023 0.22193 0.0
C3037 C 0.37806 0.00831 0.23486 0.0
C3038 C 0.39042 0.01496 0.2484 0.0
C3039 C 0.39906 0.99872 0.25911 0.0
C3040 C 0.42046 0.99887 0.25701 0.0
C3041 C 0.39327 0.99915 0.27996 0.0
C3042 C 0.3902 0.982 0.24892 0.0
C3043 C 0.37794 0.98796 0.23518 0.0
C3044 C 0.36933 0.97543 0.22268 0.0
C3045 C 0.37355 0.9563 0.22405 0.0
C3046 C 0.3862 0.94982 0.23786 0.0
C3047 C 0.39433 0.96279 0.25072 0.0
H3048 H 0.7396 0.04175 0.60833 0.0
H3049 H 0.79735 0.03965 0.62682 0.0
H3050 H 0.79486 0.00521 0.62985 0.0
H3051 H 0.72215 0.00224 0.63848 0.0
H3052 H 0.70657 0.99359 0.62036 0.0
H3053 H 0.71209 0.01839 0.62184 0.0
H3054 H 0.72308 0.01791 0.58706 0.0
H3055 H 0.71781 0.9931 0.58552 0.0
H3056 H 0.74095 0.00167 0.57998 0.0
H3057 H 0.78761 0.97102 0.62742 0.0
H3058 H 0.77507 0.93896 0.62163 0.0
H3059 H 0.72193 0.96279 0.60507 0.0
C3060 C 0.75152 0.03407 0.61353 0.0
C3061 C 0.76865 0.04338 0.61735 0.0
C3062 C 0.78409 0.0328 0.62373 0.0
C3063 C 0.78283 0.01322 0.62556 0.0
C3064 C 0.766 0.00436 0.62103 0.0
C3065 C 0.75053 0.01439 0.61536 0.0
C3066 C 0.73452 1.00118 0.61022 0.0
C3067 C 0.71785 0.00402 0.62352 0.0
C3068 C 0.72876 0.00361 0.58946 0.0
C3069 C 0.74361 0.98226 0.61347 0.0
C3070 C 0.76174 0.98444 0.61977 0.0
C3071 C 0.77332 0.96908 0.62276 0.0
C3072 C 0.76612 0.95093 0.61932 0.0
C3073 C 0.74751 0.94832 0.613 0.0
C3074 C 0.73615 0.96426 0.61013 0.0
H3075 H 0.7425 0.04702 0.39386 0.0
H3076 H 0.803 0.04532 0.38973 0.0
H3077 H 0.80136 0.01087 0.38586 0.0
H3078 H 0.73732 0.00542 0.42109 0.0
H3079 H 0.71607 0.99758 0.40975 0.0
H3080 H 0.72172 0.02234 0.41087 0.0
H3081 H 0.71898 0.02461 0.37453 0.0
H3082 H 0.71329 0.99984 0.37329 0.0
H3083 H 0.73264 0.00922 0.35989 0.0
H3084 H 0.79359 0.97679 0.38377 0.0
H3085 H 0.78024 0.94475 0.38428 0.0
H3086 H 0.72461 0.96789 0.39016 0.0
C3087 C 0.7554 0.03944 0.39192 0.0
C3088 C 0.7729 0.04896 0.39207 0.0
C3089 C 0.78943 0.03842 0.38972 0.0
C3090 C 0.78865 0.01883 0.38743 0.0
C3091 C 0.77124 0.0099 0.38754 0.0
C3092 C 0.7549 0.01979 0.38974 0.0
C3093 C 0.73809 0.00655 0.39019 0.0
C3094 C 0.7277 0.00807 0.4091 0.0
C3095 C 0.72498 0.01028 0.37348 0.0
C3096 C 0.74762 0.98767 0.38818 0.0
C3097 C 0.76673 0.99001 0.38652 0.0
C3098 C 0.77864 0.97476 0.38497 0.0
C3099 C 0.77088 0.95657 0.38531 0.0
C3100 C 0.75133 0.95369 0.38727 0.0
C3101 C 0.73957 0.96955 0.38853 0.0
H3102 H 0.95733 0.76244 0.40164 0.0
H3103 H 0.95985 0.70897 0.37179 0.0
H3104 H 0.99354 0.7135 0.36717 0.0
H3105 H 0.99262 0.78719 0.37296 0.0
H3106 H 0.00267 0.79965 0.39276 0.0
H3107 H 0.97829 0.79304 0.39297 0.0
H3108 H 0.98301 0.77544 0.42453 0.0
H3109 H 0.00737 0.78202 0.42442 0.0
H3110 H 1.0006 0.75755 0.42609 0.0
H3111 H 0.02679 0.72252 0.36673 0.0
H3112 H 0.05847 0.73539 0.37118 0.0
H3113 H 0.03578 0.78328 0.4014 0.0
C3114 C 0.96496 0.7518 0.39398 0.0
C3115 C 0.95583 0.73531 0.38712 0.0
C3116 C 0.96642 0.72166 0.37732 0.0
C3117 C 0.98561 0.72413 0.37451 0.0
C3118 C 0.99419 0.74035 0.38156 0.0
C3119 C 0.98432 0.75398 0.39111 0.0
C3120 C 0.99737 0.76967 0.39789 0.0
C3121 C 0.99244 0.78851 0.38859 0.0
C3122 C 0.99707 0.77125 0.41952 0.0
C3123 C 0.01606 0.7625 0.39085 0.0
C3124 C 0.01375 0.74562 0.38135 0.0
C3125 C 0.0288 0.73579 0.37405 0.0
C3126 C 0.04679 0.74323 0.37671 0.0
C3127 C 0.04971 0.76039 0.38663 0.0
C3128 C 0.03403 0.77027 0.39357 0.0
H3129 H 0.28222 0.03708 0.39358 0.0
H3130 H 0.22835 0.06348 0.38578 0.0
H3131 H 0.21367 0.03205 0.38168 0.0
H3132 H 0.27505 0.99832 0.36004 0.0
H3133 H 0.28716 0.98173 0.37471 0.0
H3134 H 0.2936 0.00634 0.37539 0.0
H3135 H 0.28829 0.00683 0.41154 0.0
H3136 H 0.28181 0.98227 0.41096 0.0
H3137 H 0.26605 0.99923 0.42089 0.0
H3138 H 0.20458 0.99759 0.38074 0.0
H3139 H 0.20173 0.96301 0.38308 0.0
H3140 H 0.26167 0.95939 0.3915 0.0
C3141 C 0.26737 0.03636 0.39073 0.0
C3142 C 0.25646 0.05284 0.38996 0.0
C3143 C 0.23704 0.05112 0.3864 0.0
C3144 C 0.22857 0.03331 0.38402 0.0
C3145 C 0.23972 0.01738 0.38516 0.0
C3146 C 0.25871 0.01876 0.38836 0.0
C3147 C 0.26744 0.9995 0.38998 0.0
C3148 C 0.28165 0.99628 0.37408 0.0
C3149 C 0.27642 0.99681 0.4095 0.0
C3150 C 0.25034 0.98702 0.38752 0.0
C3151 C 0.2345 0.99758 0.38463 0.0
C3152 C 0.21691 0.98918 0.38282 0.0
C3153 C 0.21545 0.9695 0.38421 0.0
C3154 C 0.23148 0.95839 0.38743 0.0
C3155 C 0.24915 0.96738 0.38885 0.0
H3156 H 0.03628 0.27606 0.38913 0.0
H3157 H 0.06124 0.22069 0.39245 0.0
H3158 H 0.02977 0.20604 0.39035 0.0
H3159 H 0.99707 0.26595 0.41765 0.0
H3160 H 0.98124 0.28012 0.40411 0.0
H3161 H 0.00573 0.28608 0.40474 0.0
H3162 H 0.00702 0.28466 0.36824 0.0
H3163 H 0.9825 0.2787 0.3675 0.0
H3164 H 0.9992 0.2636 0.3562 0.0
H3165 H 0.99526 0.19761 0.38939 0.0
H3166 H 0.96084 0.196 0.38984 0.0
H3167 H 0.9588 0.25707 0.38709 0.0
C3168 C 0.03526 0.26083 0.38926 0.0
C3169 C 0.05135 0.24954 0.39095 0.0
C3170 C 0.04919 0.22967 0.39115 0.0
C3171 C 0.03136 0.22122 0.38994 0.0
C3172 C 0.01583 0.23282 0.38846 0.0
C3173 C 0.01764 0.2522 0.38807 0.0
C3174 C 0.99877 0.26159 0.38706 0.0
C3175 C 0.99552 0.27417 0.40442 0.0
C3176 C 0.99676 0.27279 0.36865 0.0
C3177 C 0.98598 0.24447 0.38718 0.0
C3178 C 0.99607 0.228 0.3879 0.0
C3179 C 0.98725 0.21042 0.38871 0.0
C3180 C 0.96765 0.20967 0.38897 0.0
C3181 C 0.957 0.2264 0.38846 0.0
C3182 C 0.96643 0.24399 0.38736 0.0
H3183 H 0.28045 0.03795 0.61292 0.0
H3184 H 0.22735 0.06325 0.62727 0.0
H3185 H 0.21326 0.03156 0.63062 0.0
H3186 H 0.26175 1.00114 0.58486 0.0
H3187 H 0.27838 0.98379 0.59227 0.0
H3188 H 0.28478 0.00838 0.59245 0.0
H3189 H 0.29352 0.00609 0.62782 0.0
H3190 H 0.28712 0.98145 0.62775 0.0
H3191 H 0.2765 0.99727 0.64441 0.0
H3192 H 0.20454 0.99764 0.63096 0.0
H3193 H 0.20112 0.96339 0.62719 0.0
H3194 H 0.25979 0.95959 0.61218 0.0
C3195 C 0.26592 0.03686 0.61701 0.0
C3196 C 0.25502 0.05314 0.61991 0.0
C3197 C 0.23598 0.05103 0.62497 0.0
C3198 C 0.22788 0.03309 0.62699 0.0
C3199 C 0.23898 0.01739 0.6239 0.0
C3200 C 0.25757 0.01905 0.61899 0.0
C3201 C 0.26608 0.99988 0.61546 0.0
C3202 C 0.27316 0.99821 0.59504 0.0
C3203 C 0.28173 0.99594 0.62971 0.0
C3204 C 0.24925 0.9872 0.61884 0.0
C3205 C 0.23385 0.99764 0.62388 0.0
C3206 C 0.21651 0.98929 0.62712 0.0
C3207 C 0.21473 0.96978 0.62487 0.0
C3208 C 0.23018 0.95872 0.61933 0.0
C3209 C 0.24776 0.96759 0.61658 0.0
H3210 H 0.96527 0.29302 0.59944 0.0
H3211 H 0.95151 0.23426 0.61002 0.0
H3212 H 0.98521 0.22728 0.61288 0.0
H3213 H 0.00569 0.28471 0.5713 0.0
H3214 H 0.01817 0.30496 0.58044 0.0
H3215 H 0.99305 0.30498 0.57942 0.0
H3216 H 0.99164 0.31227 0.61526 0.0
H3217 H 0.01674 0.3123 0.61638 0.0
H3218 H 0.00335 0.29698 0.6316 0.0
H3219 H 0.02143 0.22714 0.61422 0.0
H3220 H 0.05554 0.23417 0.61444 0.0
H3221 H 0.0438 0.29292 0.603 0.0
C3222 C 0.96922 0.27865 0.60242 0.0
C3223 C 0.95566 0.26422 0.60452 0.0
C3224 C 0.96161 0.2456 0.60834 0.0
C3225 C 0.98074 0.24149 0.60998 0.0
C3226 C 0.99372 0.25613 0.60774 0.0
C3227 C 0.9881 0.27433 0.60405 0.0
C3228 C 0.00454 0.28765 0.6021 0.0
C3229 C 0.00541 0.29606 0.58213 0.0
C3230 C 0.00403 0.30321 0.61724 0.0
C3231 C 0.02037 0.27423 0.60546 0.0
C3232 C 0.01404 0.25606 0.60859 0.0
C3233 C 0.02648 0.24136 0.61181 0.0
C3234 C 0.04582 0.24545 0.61189 0.0
C3235 C 0.05243 0.26411 0.60889 0.0
C3236 C 0.03937 0.27851 0.60557 0.0
H3237 H 0.03957 0.70599 0.59808 0.0
H3238 H 0.05333 0.76393 0.61277 0.0
H3239 H 0.01968 0.77155 0.61284 0.0
H3240 H 1.00217 0.71631 0.56669 0.0
H3241 H 0.9884 0.69609 0.57367 0.0
H3242 H 0.01348 0.6954 0.57512 0.0
H3243 H 0.01135 0.6868 0.61059 0.0
H3244 H 0.98627 0.68732 0.60921 0.0
H3245 H 0.9984 0.70174 0.62634 0.0
H3246 H 0.98357 0.77253 0.6108 0.0
H3247 H 0.94943 0.76621 0.60819 0.0
H3248 H 0.96093 0.70783 0.59455 0.0
C3249 C 0.03561 0.72029 0.60143 0.0
C3250 C 0.04918 0.73433 0.60545 0.0
C3251 C 0.04323 0.75288 0.60967 0.0
C3252 C 0.02413 0.75736 0.6097 0.0
C3253 C 0.01115 0.74317 0.60544 0.0
C3254 C 0.01674 0.725 0.60146 0.0
C3255 C 1.00027 0.71219 0.59729 0.0
C3256 C 1.00114 0.70456 0.57699 0.0
C3257 C 0.999 0.69607 0.61172 0.0
C3258 C 0.98447 0.72589 0.59968 0.0
C3259 C 0.99085 0.74374 0.60429 0.0
C3260 C 0.97847 0.75857 0.6072 0.0
C3261 C 0.95911 0.75489 0.60562 0.0
C3262 C 0.95242 0.73652 0.60127 0.0
C3263 C 0.96543 0.72203 0.59806 0.0
loop_
_geom_bond_atom_site_label_1
_geom_bond_atom_site_label_2
_geom_bond_distance
_geom_bond_site_symmetry_2
_ccdc_geom_bond_type
Co0 O1 2.216 . S
Co0 O2 2.091 . S
Co0 O4 2.004 . S
Co0 O10 2.021 . S
Co0 O12 2.137 . S
Co0 O13 2.244 . S
O1 Co0 2.216 . S
O1 C8 1.247 . S
O2 Co0 2.091 . S
O2 C8 1.261 . S
C3 O12 1.247 . S
C3 O13 1.272 . S
O4 Co0 2.004 . S
O4 C9 1.259 . S
Co5 O6 2.061 . S
Co5 O11 2.052 . S
Co5 O13 2.135 . S
O6 Co5 2.061 . S
O6 C9 1.235 . S
C7 O10 1.238 . S
C7 O11 1.241 . S
C8 O1 1.247 . S
C8 O2 1.261 . S
C9 O4 1.259 . S
C9 O6 1.235 . S
O10 Co0 2.021 . S
O10 C7 1.238 . S
O11 Co5 2.052 . S
O11 C7 1.241 . S
O12 Co0 2.137 . S
O12 C3 1.247 . S
O13 Co0 2.244 . S
O13 C3 1.272 . S
O13 Co5 2.135 . S
Co14 O15 2.216 . S
Co14 O16 2.091 . S
Co14 O18 2.004 . S
Co14 O24 2.021 . S
Co14 O26 2.137 . S
Co14 O27 2.244 . S
O15 Co14 2.216 . S
O15 C22 1.247 . S
O16 Co14 2.091 . S
O16 C22 1.261 . S
C17 O26 1.247 . S
C17 O27 1.272 . S
O18 Co14 2.004 . S
O18 C23 1.259 . S
Co19 O20 2.061 . S
Co19 O25 2.052 . S
Co19 O27 2.135 . S
O20 Co19 2.061 . S
O20 C23 1.235 . S
C21 O24 1.238 . S
C21 O25 1.241 . S
C22 O15 1.247 . S
C22 O16 1.261 . S
C23 O18 1.259 . S
C23 O20 1.235 . S
O24 Co14 2.021 . S
O24 C21 1.238 . S
O25 Co19 2.052 . S
O25 C21 1.241 . S
O26 Co14 2.137 . S
O26 C17 1.247 . S
O27 Co14 2.244 . S
O27 C17 1.272 . S
O27 Co19 2.135 . S
Co28 O29 2.216 . S
Co28 O30 2.091 . S
Co28 O32 2.004 . S
Co28 O38 2.021 . S
Co28 O40 2.137 . S
Co28 O41 2.244 . S
O29 Co28 2.216 . S
O29 C36 1.247 . S
O30 Co28 2.091 . S
O30 C36 1.261 . S
C31 O40 1.247 . S
C31 O41 1.272 . S
O32 Co28 2.004 . S
O32 C37 1.259 . S
Co33 O34 2.061 . S
Co33 O39 2.052 . S
Co33 O41 2.135 . S
O34 Co33 2.061 . S
O34 C37 1.235 . S
C35 O38 1.238 . S
C35 O39 1.241 . S
C36 O29 1.247 . S
C36 O30 1.261 . S
C37 O32 1.259 . S
C37 O34 1.235 . S
O38 Co28 2.021 . S
O38 C35 1.238 . S
O39 Co33 2.052 . S
O39 C35 1.241 . S
O40 Co28 2.137 . S
O40 C31 1.247 . S
O41 Co28 2.244 . S
O41 C31 1.272 . S
O41 Co33 2.135 . S
Co42 O43 2.216 . S
Co42 O44 2.091 . S
Co42 O46 2.004 . S
Co42 O52 2.021 . S
Co42 O54 2.137 . S
Co42 O55 2.244 . S
O43 Co42 2.216 . S
O43 C50 1.247 . S
O44 Co42 2.091 . S
O44 C50 1.261 . S
C45 O54 1.247 . S
C45 O55 1.272 . S
O46 Co42 2.004 . S
O46 C51 1.259 . S
Co47 O48 2.061 . S
Co47 O53 2.052 . S
Co47 O55 2.135 . S
O48 Co47 2.061 . S
O48 C51 1.235 . S
C49 O52 1.238 . S
C49 O53 1.241 . S
C50 O43 1.247 . S
C50 O44 1.261 . S
C51 O46 1.259 . S
C51 O48 1.235 . S
O52 Co42 2.021 . S
O52 C49 1.238 . S
O53 Co47 2.052 . S
O53 C49 1.241 . S
O54 Co42 2.137 . S
O54 C45 1.247 . S
O55 Co42 2.244 . S
O55 C45 1.272 . S
O55 Co47 2.135 . S
Co56 O57 2.216 . S
Co56 O58 2.091 . S
Co56 O60 2.004 . S
Co56 O66 2.021 . S
Co56 O68 2.137 . S
Co56 O69 2.244 . S
O57 Co56 2.216 . S
O57 C64 1.247 . S
O58 Co56 2.091 . S
O58 C64 1.261 . S
C59 O68 1.247 . S
C59 O69 1.272 . S
O60 Co56 2.004 . S
O60 C65 1.259 . S
Co61 O62 2.061 . S
Co61 O67 2.052 . S
Co61 O69 2.135 . S
O62 Co61 2.061 . S
O62 C65 1.235 . S
C63 O66 1.238 . S
C63 O67 1.241 . S
C64 O57 1.247 . S
C64 O58 1.261 . S
C65 O60 1.259 . S
C65 O62 1.235 . S
O66 Co56 2.021 . S
O66 C63 1.238 . S
O67 Co61 2.052 . S
O67 C63 1.241 . S
O68 Co56 2.137 . S
O68 C59 1.247 . S
O69 Co56 2.244 . S
O69 C59 1.272 . S
O69 Co61 2.135 . S
Co70 O71 2.216 . S
Co70 O72 2.091 . S
Co70 O74 2.004 . S
Co70 O80 2.021 . S
Co70 O82 2.137 . S
Co70 O83 2.244 . S
O71 Co70 2.216 . S
O71 C78 1.247 . S
O72 Co70 2.091 . S
O72 C78 1.261 . S
C73 O82 1.247 . S
C73 O83 1.272 . S
O74 Co70 2.004 . S
O74 C79 1.259 . S
Co75 O76 2.061 . S
Co75 O81 2.052 . S
Co75 O83 2.135 . S
O76 Co75 2.061 . S
O76 C79 1.235 . S
C77 O80 1.238 . S
C77 O81 1.241 . S
C78 O71 1.247 . S
C78 O72 1.261 . S
C79 O74 1.259 . S
C79 O76 1.235 . S
O80 Co70 2.021 . S
O80 C77 1.238 . S
O81 Co75 2.052 . S
O81 C77 1.241 . S
O82 Co70 2.137 . S
O82 C73 1.247 . S
O83 Co70 2.244 . S
O83 C73 1.272 . S
O83 Co75 2.135 . S
Co84 O85 2.216 . S
Co84 O86 2.091 . S
Co84 O88 2.004 . S
Co84 O94 2.021 . S
Co84 O96 2.137 . S
Co84 O97 2.244 . S
O85 Co84 2.216 . S
O85 C92 1.247 . S
O86 Co84 2.091 . S
O86 C92 1.261 . S
C87 O96 1.247 . S
C87 O97 1.272 . S
O88 Co84 2.004 . S
O88 C93 1.259 . S
Co89 O90 2.061 . S
Co89 O95 2.052 . S
Co89 O97 2.135 . S
O90 Co89 2.061 . S
O90 C93 1.235 . S
C91 O94 1.238 . S
C91 O95 1.241 . S
C92 O85 1.247 . S
C92 O86 1.261 . S
C93 O88 1.259 . S
C93 O90 1.235 . S
O94 Co84 2.021 . S
O94 C91 1.238 . S
O95 Co89 2.052 . S
O95 C91 1.241 . S
O96 Co84 2.137 . S
O96 C87 1.247 . S
O97 Co84 2.244 . S
O97 C87 1.272 . S
O97 Co89 2.135 . S
Co98 O99 2.216 . S
Co98 O100 2.091 . S
Co98 O102 2.004 . S
Co98 O108 2.021 . S
Co98 O110 2.137 . S
Co98 O111 2.244 . S
O99 Co98 2.216 . S
O99 C106 1.247 . S
O100 Co98 2.091 . S
O100 C106 1.261 . S
C101 O110 1.247 . S
C101 O111 1.272 . S
O102 Co98 2.004 . S
O102 C107 1.259 . S
Co103 O104 2.061 . S
Co103 O109 2.052 . S
Co103 O111 2.135 . S
O104 Co103 2.061 . S
O104 C107 1.235 . S
C105 O108 1.238 . S
C105 O109 1.241 . S
C106 O99 1.247 . S
C106 O100 1.261 . S
C107 O102 1.259 . S
C107 O104 1.235 . S
O108 Co98 2.021 . S
O108 C105 1.238 . S
O109 Co103 2.052 . S
O109 C105 1.241 . S
O110 Co98 2.137 . S
O110 C101 1.247 . S
O111 Co98 2.244 . S
O111 C101 1.272 . S
O111 Co103 2.135 . S
Co112 O113 2.216 . S
Co112 O114 2.091 . S
Co112 O116 2.004 . S
Co112 O122 2.021 . S
Co112 O124 2.137 . S
Co112 O125 2.244 . S
O113 Co112 2.216 . S
O113 C120 1.247 . S
O114 Co112 2.091 . S
O114 C120 1.261 . S
C115 O124 1.247 . S
C115 O125 1.272 . S
O116 Co112 2.004 . S
O116 C121 1.259 . S
Co117 O118 2.061 . S
Co117 O123 2.052 . S
Co117 O125 2.135 . S
O118 Co117 2.061 . S
O118 C121 1.235 . S
C119 O122 1.238 . S
C119 O123 1.241 . S
C120 O113 1.247 . S
C120 O114 1.261 . S
C121 O116 1.259 . S
C121 O118 1.235 . S
O122 Co112 2.021 . S
O122 C119 1.238 . S
O123 Co117 2.052 . S
O123 C119 1.241 . S
O124 Co112 2.137 . S
O124 C115 1.247 . S
O125 Co112 2.244 . S
O125 C115 1.272 . S
O125 Co117 2.135 . S
Co126 O127 2.216 . S
Co126 O128 2.091 . S
Co126 O130 2.004 . S
Co126 O136 2.021 . S
Co126 O138 2.137 . S
Co126 O139 2.244 . S
O127 Co126 2.216 . S
O127 C134 1.247 . S
O128 Co126 2.091 . S
O128 C134 1.261 . S
C129 O138 1.247 . S
C129 O139 1.272 . S
O130 Co126 2.004 . S
O130 C135 1.259 . S
Co131 O132 2.061 . S
Co131 O137 2.052 . S
Co131 O139 2.135 . S
O132 Co131 2.061 . S
O132 C135 1.235 . S
C133 O136 1.238 . S
C133 O137 1.241 . S
C134 O127 1.247 . S
C134 O128 1.261 . S
C135 O130 1.259 . S
C135 O132 1.235 . S
O136 Co126 2.021 . S
O136 C133 1.238 . S
O137 Co131 2.052 . S
O137 C133 1.241 . S
O138 Co126 2.137 . S
O138 C129 1.247 . S
O139 Co126 2.244 . S
O139 C129 1.272 . S
O139 Co131 2.135 . S
Co140 O141 2.216 . S
Co140 O142 2.091 . S
Co140 O144 2.004 . S
Co140 O150 2.021 . S
Co140 O152 2.137 . S
Co140 O153 2.244 . S
O141 Co140 2.216 . S
O141 C148 1.247 . S
O142 Co140 2.091 . S
O142 C148 1.261 . S
C143 O152 1.247 . S
C143 O153 1.272 . S
O144 Co140 2.004 . S
O144 C149 1.259 . S
Co145 O146 2.061 . S
Co145 O151 2.052 . S
Co145 O153 2.135 . S
O146 Co145 2.061 . S
O146 C149 1.235 . S
C147 O150 1.238 . S
C147 O151 1.241 . S
C148 O141 1.247 . S
C148 O142 1.261 . S
C149 O144 1.259 . S
C149 O146 1.235 . S
O150 Co140 2.021 . S
O150 C147 1.238 . S
O151 Co145 2.052 . S
O151 C147 1.241 . S
O152 Co140 2.137 . S
O152 C143 1.247 . S
O153 Co140 2.244 . S
O153 C143 1.272 . S
O153 Co145 2.135 . S
Co154 O155 2.216 . S
Co154 O156 2.091 . S
Co154 O158 2.004 . S
Co154 O164 2.021 . S
Co154 O166 2.137 . S
Co154 O167 2.244 . S
O155 Co154 2.216 . S
O155 C162 1.247 . S
O156 Co154 2.091 . S
O156 C162 1.261 . S
C157 O166 1.247 . S
C157 O167 1.272 . S
O158 Co154 2.004 . S
O158 C163 1.259 . S
Co159 O160 2.061 . S
Co159 O165 2.052 . S
Co159 O167 2.135 . S
O160 Co159 2.061 . S
O160 C163 1.235 . S
C161 O164 1.238 . S
C161 O165 1.241 . S
C162 O155 1.247 . S
C162 O156 1.261 . S
C163 O158 1.259 . S
C163 O160 1.235 . S
O164 Co154 2.021 . S
O164 C161 1.238 . S
O165 Co159 2.052 . S
O165 C161 1.241 . S
O166 Co154 2.137 . S
O166 C157 1.247 . S
O167 Co154 2.244 . S
O167 C157 1.272 . S
O167 Co159 2.135 . S
Co168 O169 2.216 . S
Co168 O170 2.091 . S
Co168 O172 2.004 . S
Co168 O178 2.021 . S
Co168 O180 2.137 . S
Co168 O181 2.244 . S
O169 Co168 2.216 . S
O169 C176 1.247 . S
O170 Co168 2.091 . S
O170 C176 1.261 . S
C171 O180 1.247 . S
C171 O181 1.272 . S
O172 Co168 2.004 . S
O172 C177 1.259 . S
Co173 O174 2.061 . S
Co173 O179 2.052 . S
Co173 O181 2.135 . S
O174 Co173 2.061 . S
O174 C177 1.235 . S
C175 O178 1.238 . S
C175 O179 1.241 . S
C176 O169 1.247 . S
C176 O170 1.261 . S
C177 O172 1.259 . S
C177 O174 1.235 . S
O178 Co168 2.021 . S
O178 C175 1.238 . S
O179 Co173 2.052 . S
O179 C175 1.241 . S
O180 Co168 2.137 . S
O180 C171 1.247 . S
O181 Co168 2.244 . S
O181 C171 1.272 . S
O181 Co173 2.135 . S
Co182 O183 2.216 . S
Co182 O184 2.091 . S
Co182 O186 2.004 . S
Co182 O192 2.021 . S
Co182 O194 2.137 . S
Co182 O195 2.244 . S
O183 Co182 2.216 . S
O183 C190 1.247 . S
O184 Co182 2.091 . S
O184 C190 1.261 . S
C185 O194 1.247 . S
C185 O195 1.272 . S
O186 Co182 2.004 . S
O186 C191 1.259 . S
Co187 O188 2.061 . S
Co187 O193 2.052 . S
Co187 O195 2.135 . S
O188 Co187 2.061 . S
O188 C191 1.235 . S
C189 O192 1.238 . S
C189 O193 1.241 . S
C190 O183 1.247 . S
C190 O184 1.261 . S
C191 O186 1.259 . S
C191 O188 1.235 . S
O192 Co182 2.021 . S
O192 C189 1.238 . S
O193 Co187 2.052 . S
O193 C189 1.241 . S
O194 Co182 2.137 . S
O194 C185 1.247 . S
O195 Co182 2.244 . S
O195 C185 1.272 . S
O195 Co187 2.135 . S
Co196 O197 2.216 . S
Co196 O198 2.091 . S
Co196 O200 2.004 . S
Co196 O206 2.021 . S
Co196 O208 2.137 . S
Co196 O209 2.244 . S
O197 Co196 2.216 . S
O197 C204 1.247 . S
O198 Co196 2.091 . S
O198 C204 1.261 . S
C199 O208 1.247 . S
C199 O209 1.272 . S
O200 Co196 2.004 . S
O200 C205 1.259 . S
Co201 O202 2.061 . S
Co201 O207 2.052 . S
Co201 O209 2.135 . S
O202 Co201 2.061 . S
O202 C205 1.235 . S
C203 O206 1.238 . S
C203 O207 1.241 . S
C204 O197 1.247 . S
C204 O198 1.261 . S
C205 O200 1.259 . S
C205 O202 1.235 . S
O206 Co196 2.021 . S
O206 C203 1.238 . S
O207 Co201 2.052 . S
O207 C203 1.241 . S
O208 Co196 2.137 . S
O208 C199 1.247 . S
O209 Co196 2.244 . S
O209 C199 1.272 . S
O209 Co201 2.135 . S
Co210 O211 2.216 . S
Co210 O212 2.091 . S
Co210 O214 2.004 . S
Co210 O220 2.021 . S
Co210 O222 2.137 . S
Co210 O223 2.244 . S
O211 Co210 2.216 . S
O211 C218 1.247 . S
O212 Co210 2.091 . S
O212 C218 1.261 . S
C213 O222 1.247 . S
C213 O223 1.272 . S
O214 Co210 2.004 . S
O214 C219 1.259 . S
Co215 O216 2.061 . S
Co215 O221 2.052 . S
Co215 O223 2.135 . S
O216 Co215 2.061 . S
O216 C219 1.235 . S
C217 O220 1.238 . S
C217 O221 1.241 . S
C218 O211 1.247 . S
C218 O212 1.261 . S
C219 O214 1.259 . S
C219 O216 1.235 . S
O220 Co210 2.021 . S
O220 C217 1.238 . S
O221 Co215 2.052 . S
O221 C217 1.241 . S
O222 Co210 2.137 . S
O222 C213 1.247 . S
O223 Co210 2.244 . S
O223 C213 1.272 . S
O223 Co215 2.135 . S
Co224 O225 2.216 . S
Co224 O226 2.091 . S
Co224 O228 2.004 . S
Co224 O234 2.021 . S
Co224 O236 2.137 . S
Co224 O237 2.244 . S
O225 Co224 2.216 . S
O225 C232 1.247 . S
O226 Co224 2.091 . S
O226 C232 1.261 . S
C227 O236 1.247 . S
C227 O237 1.272 . S
O228 Co224 2.004 . S
O228 C233 1.259 . S
Co229 O230 2.061 . S
Co229 O235 2.052 . S
Co229 O237 2.135 . S
O230 Co229 2.061 . S
O230 C233 1.235 . S
C231 O234 1.238 . S
C231 O235 1.241 . S
C232 O225 1.247 . S
C232 O226 1.261 . S
C233 O228 1.259 . S
C233 O230 1.235 . S
O234 Co224 2.021 . S
O234 C231 1.238 . S
O235 Co229 2.052 . S
O235 C231 1.241 . S
O236 Co224 2.137 . S
O236 C227 1.247 . S
O237 Co224 2.244 . S
O237 C227 1.272 . S
O237 Co229 2.135 . S
Co238 O239 2.216 . S
Co238 O240 2.091 . S
Co238 O242 2.004 . S
Co238 O248 2.021 . S
Co238 O250 2.137 . S
Co238 O251 2.244 . S
O239 Co238 2.216 . S
O239 C246 1.247 . S
O240 Co238 2.091 . S
O240 C246 1.261 . S
C241 O250 1.247 . S
C241 O251 1.272 . S
O242 Co238 2.004 . S
O242 C247 1.259 . S
Co243 O244 2.061 . S
Co243 O249 2.052 . S
Co243 O251 2.135 . S
O244 Co243 2.061 . S
O244 C247 1.235 . S
C245 O248 1.238 . S
C245 O249 1.241 . S
C246 O239 1.247 . S
C246 O240 1.261 . S
C247 O242 1.259 . S
C247 O244 1.235 . S
O248 Co238 2.021 . S
O248 C245 1.238 . S
O249 Co243 2.052 . S
O249 C245 1.241 . S
O250 Co238 2.137 . S
O250 C241 1.247 . S
O251 Co238 2.244 . S
O251 C241 1.272 . S
O251 Co243 2.135 . S
Co252 O253 2.216 . S
Co252 O254 2.091 . S
Co252 O256 2.004 . S
Co252 O262 2.021 . S
Co252 O264 2.137 . S
Co252 O265 2.244 . S
O253 Co252 2.216 . S
O253 C260 1.247 . S
O254 Co252 2.091 . S
O254 C260 1.261 . S
C255 O264 1.247 . S
C255 O265 1.272 . S
O256 Co252 2.004 . S
O256 C261 1.259 . S
Co257 O258 2.061 . S
Co257 O263 2.052 . S
Co257 O265 2.135 . S
O258 Co257 2.061 . S
O258 C261 1.235 . S
C259 O262 1.238 . S
C259 O263 1.241 . S
C260 O253 1.247 . S
C260 O254 1.261 . S
C261 O256 1.259 . S
C261 O258 1.235 . S
O262 Co252 2.021 . S
O262 C259 1.238 . S
O263 Co257 2.052 . S
O263 C259 1.241 . S
O264 Co252 2.137 . S
O264 C255 1.247 . S
O265 Co252 2.244 . S
O265 C255 1.272 . S
O265 Co257 2.135 . S
Co266 O267 2.216 . S
Co266 O268 2.091 . S
Co266 O270 2.004 . S
Co266 O276 2.021 . S
Co266 O278 2.137 . S
Co266 O279 2.244 . S
O267 Co266 2.216 . S
O267 C274 1.247 . S
O268 Co266 2.091 . S
O268 C274 1.261 . S
C269 O278 1.247 . S
C269 O279 1.272 . S
O270 Co266 2.004 . S
O270 C275 1.259 . S
Co271 O272 2.061 . S
Co271 O277 2.052 . S
Co271 O279 2.135 . S
O272 Co271 2.061 . S
O272 C275 1.235 . S
C273 O276 1.238 . S
C273 O277 1.241 . S
C274 O267 1.247 . S
C274 O268 1.261 . S
C275 O270 1.259 . S
C275 O272 1.235 . S
O276 Co266 2.021 . S
O276 C273 1.238 . S
O277 Co271 2.052 . S
O277 C273 1.241 . S
O278 Co266 2.137 . S
O278 C269 1.247 . S
O279 Co266 2.244 . S
O279 C269 1.272 . S
O279 Co271 2.135 . S
Co280 O281 2.216 . S
Co280 O282 2.091 . S
Co280 O284 2.004 . S
Co280 O290 2.021 . S
Co280 O292 2.137 . S
Co280 O293 2.244 . S
O281 Co280 2.216 . S
O281 C288 1.247 . S
O282 Co280 2.091 . S
O282 C288 1.261 . S
C283 O292 1.247 . S
C283 O293 1.272 . S
O284 Co280 2.004 . S
O284 C289 1.259 . S
Co285 O286 2.061 . S
Co285 O291 2.052 . S
Co285 O293 2.135 . S
O286 Co285 2.061 . S
O286 C289 1.235 . S
C287 O290 1.238 . S
C287 O291 1.241 . S
C288 O281 1.247 . S
C288 O282 1.261 . S
C289 O284 1.259 . S
C289 O286 1.235 . S
O290 Co280 2.021 . S
O290 C287 1.238 . S
O291 Co285 2.052 . S
O291 C287 1.241 . S
O292 Co280 2.137 . S
O292 C283 1.247 . S
O293 Co280 2.244 . S
O293 C283 1.272 . S
O293 Co285 2.135 . S
Co294 O295 2.216 . S
Co294 O296 2.091 . S
Co294 O298 2.004 . S
Co294 O304 2.021 . S
Co294 O306 2.137 . S
Co294 O307 2.244 . S
O295 Co294 2.216 . S
O295 C302 1.247 . S
O296 Co294 2.091 . S
O296 C302 1.261 . S
C297 O306 1.247 . S
C297 O307 1.272 . S
O298 Co294 2.004 . S
O298 C303 1.259 . S
Co299 O300 2.061 . S
Co299 O305 2.052 . S
Co299 O307 2.135 . S
O300 Co299 2.061 . S
O300 C303 1.235 . S
C301 O304 1.238 . S
C301 O305 1.241 . S
C302 O295 1.247 . S
C302 O296 1.261 . S
C303 O298 1.259 . S
C303 O300 1.235 . S
O304 Co294 2.021 . S
O304 C301 1.238 . S
O305 Co299 2.052 . S
O305 C301 1.241 . S
O306 Co294 2.137 . S
O306 C297 1.247 . S
O307 Co294 2.244 . S
O307 C297 1.272 . S
O307 Co299 2.135 . S
Co308 O309 2.216 . S
Co308 O310 2.091 . S
Co308 O312 2.004 . S
Co308 O318 2.021 . S
Co308 O320 2.137 . S
Co308 O321 2.244 . S
O309 Co308 2.216 . S
O309 C316 1.247 . S
O310 Co308 2.091 . S
O310 C316 1.261 . S
C311 O320 1.247 . S
C311 O321 1.272 . S
O312 Co308 2.004 . S
O312 C317 1.259 . S
Co313 O314 2.061 . S
Co313 O319 2.052 . S
Co313 O321 2.135 . S
O314 Co313 2.061 . S
O314 C317 1.235 . S
C315 O318 1.238 . S
C315 O319 1.241 . S
C316 O309 1.247 . S
C316 O310 1.261 . S
C317 O312 1.259 . S
C317 O314 1.235 . S
O318 Co308 2.021 . S
O318 C315 1.238 . S
O319 Co313 2.052 . S
O319 C315 1.241 . S
O320 Co308 2.137 . S
O320 C311 1.247 . S
O321 Co308 2.244 . S
O321 C311 1.272 . S
O321 Co313 2.135 . S
Co322 O323 2.216 . S
Co322 O324 2.091 . S
Co322 O326 2.004 . S
Co322 O332 2.021 . S
Co322 O334 2.137 . S
Co322 O335 2.244 . S
O323 Co322 2.216 . S
O323 C330 1.247 . S
O324 Co322 2.091 . S
O324 C330 1.261 . S
C325 O334 1.247 . S
C325 O335 1.272 . S
O326 Co322 2.004 . S
O326 C331 1.259 . S
Co327 O328 2.061 . S
Co327 O333 2.052 . S
Co327 O335 2.135 . S
O328 Co327 2.061 . S
O328 C331 1.235 . S
C329 O332 1.238 . S
C329 O333 1.241 . S
C330 O323 1.247 . S
C330 O324 1.261 . S
C331 O326 1.259 . S
C331 O328 1.235 . S
O332 Co322 2.021 . S
O332 C329 1.238 . S
O333 Co327 2.052 . S
O333 C329 1.241 . S
O334 Co322 2.137 . S
O334 C325 1.247 . S
O335 Co322 2.244 . S
O335 C325 1.272 . S
O335 Co327 2.135 . S
Co336 O337 2.216 . S
Co336 O338 2.091 . S
Co336 O340 2.004 . S
Co336 O346 2.021 . S
Co336 O348 2.137 . S
Co336 O349 2.244 . S
O337 Co336 2.216 . S
O337 C344 1.247 . S
O338 Co336 2.091 . S
O338 C344 1.261 . S
C339 O348 1.247 . S
C339 O349 1.272 . S
O340 Co336 2.004 . S
O340 C345 1.259 . S
Co341 O342 2.061 . S
Co341 O347 2.052 . S
Co341 O349 2.135 . S
O342 Co341 2.061 . S
O342 C345 1.235 . S
C343 O346 1.238 . S
C343 O347 1.241 . S
C344 O337 1.247 . S
C344 O338 1.261 . S
C345 O340 1.259 . S
C345 O342 1.235 . S
O346 Co336 2.021 . S
O346 C343 1.238 . S
O347 Co341 2.052 . S
O347 C343 1.241 . S
O348 Co336 2.137 . S
O348 C339 1.247 . S
O349 Co336 2.244 . S
O349 C339 1.272 . S
O349 Co341 2.135 . S
Co350 O351 2.216 . S
Co350 O352 2.091 . S
Co350 O354 2.004 . S
Co350 O360 2.021 . S
Co350 O362 2.137 . S
Co350 O363 2.244 . S
O351 Co350 2.216 . S
O351 C358 1.247 . S
O352 Co350 2.091 . S
O352 C358 1.261 . S
C353 O362 1.247 . S
C353 O363 1.272 . S
O354 Co350 2.004 . S
O354 C359 1.259 . S
Co355 O356 2.061 . S
Co355 O361 2.052 . S
Co355 O363 2.135 . S
O356 Co355 2.061 . S
O356 C359 1.235 . S
C357 O360 1.238 . S
C357 O361 1.241 . S
C358 O351 1.247 . S
C358 O352 1.261 . S
C359 O354 1.259 . S
C359 O356 1.235 . S
O360 Co350 2.021 . S
O360 C357 1.238 . S
O361 Co355 2.052 . S
O361 C357 1.241 . S
O362 Co350 2.137 . S
O362 C353 1.247 . S
O363 Co350 2.244 . S
O363 C353 1.272 . S
O363 Co355 2.135 . S
Co364 O365 2.216 . S
Co364 O366 2.091 . S
Co364 O368 2.004 . S
Co364 O374 2.021 . S
Co364 O376 2.137 . S
Co364 O377 2.244 . S
O365 Co364 2.216 . S
O365 C372 1.247 . S
O366 Co364 2.091 . S
O366 C372 1.261 . S
C367 O376 1.247 . S
C367 O377 1.272 . S
O368 Co364 2.004 . S
O368 C373 1.259 . S
Co369 O370 2.061 . S
Co369 O375 2.052 . S
Co369 O377 2.135 . S
O370 Co369 2.061 . S
O370 C373 1.235 . S
C371 O374 1.238 . S
C371 O375 1.241 . S
C372 O365 1.247 . S
C372 O366 1.261 . S
C373 O368 1.259 . S
C373 O370 1.235 . S
O374 Co364 2.021 . S
O374 C371 1.238 . S
O375 Co369 2.052 . S
O375 C371 1.241 . S
O376 Co364 2.137 . S
O376 C367 1.247 . S
O377 Co364 2.244 . S
O377 C367 1.272 . S
O377 Co369 2.135 . S
Co378 O379 2.216 . S
Co378 O380 2.091 . S
Co378 O382 2.004 . S
Co378 O388 2.021 . S
Co378 O390 2.137 . S
Co378 O391 2.244 . S
O379 Co378 2.216 . S
O379 C386 1.247 . S
O380 Co378 2.091 . S
O380 C386 1.261 . S
C381 O390 1.247 . S
C381 O391 1.272 . S
O382 Co378 2.004 . S
O382 C387 1.259 . S
Co383 O384 2.061 . S
Co383 O389 2.052 . S
Co383 O391 2.135 . S
O384 Co383 2.061 . S
O384 C387 1.235 . S
C385 O388 1.238 . S
C385 O389 1.241 . S
C386 O379 1.247 . S
C386 O380 1.261 . S
C387 O382 1.259 . S
C387 O384 1.235 . S
O388 Co378 2.021 . S
O388 C385 1.238 . S
O389 Co383 2.052 . S
O389 C385 1.241 . S
O390 Co378 2.137 . S
O390 C381 1.247 . S
O391 Co378 2.244 . S
O391 C381 1.272 . S
O391 Co383 2.135 . S
Co392 O393 2.216 . S
Co392 O394 2.091 . S
Co392 O396 2.004 . S
Co392 O402 2.021 . S
Co392 O404 2.137 . S
Co392 O405 2.244 . S
O393 Co392 2.216 . S
O393 C400 1.247 . S
O394 Co392 2.091 . S
O394 C400 1.261 . S
C395 O404 1.247 . S
C395 O405 1.272 . S
O396 Co392 2.004 . S
O396 C401 1.259 . S
Co397 O398 2.061 . S
Co397 O403 2.052 . S
Co397 O405 2.135 . S
O398 Co397 2.061 . S
O398 C401 1.235 . S
C399 O402 1.238 . S
C399 O403 1.241 . S
C400 O393 1.247 . S
C400 O394 1.261 . S
C401 O396 1.259 . S
C401 O398 1.235 . S
O402 Co392 2.021 . S
O402 C399 1.238 . S
O403 Co397 2.052 . S
O403 C399 1.241 . S
O404 Co392 2.137 . S
O404 C395 1.247 . S
O405 Co392 2.244 . S
O405 C395 1.272 . S
O405 Co397 2.135 . S
Co406 O407 2.216 . S
Co406 O408 2.091 . S
Co406 O410 2.004 . S
Co406 O416 2.021 . S
Co406 O418 2.137 . S
Co406 O419 2.244 . S
O407 Co406 2.216 . S
O407 C414 1.247 . S
O408 Co406 2.091 . S
O408 C414 1.261 . S
C409 O418 1.247 . S
C409 O419 1.272 . S
O410 Co406 2.004 . S
O410 C415 1.259 . S
Co411 O412 2.061 . S
Co411 O417 2.052 . S
Co411 O419 2.135 . S
O412 Co411 2.061 . S
O412 C415 1.235 . S
C413 O416 1.238 . S
C413 O417 1.241 . S
C414 O407 1.247 . S
C414 O408 1.261 . S
C415 O410 1.259 . S
C415 O412 1.235 . S
O416 Co406 2.021 . S
O416 C413 1.238 . S
O417 Co411 2.052 . S
O417 C413 1.241 . S
O418 Co406 2.137 . S
O418 C409 1.247 . S
O419 Co406 2.244 . S
O419 C409 1.272 . S
O419 Co411 2.135 . S
Co420 O421 2.216 . S
Co420 O422 2.091 . S
Co420 O424 2.004 . S
Co420 O430 2.021 . S
Co420 O432 2.137 . S
Co420 O433 2.244 . S
O421 Co420 2.216 . S
O421 C428 1.247 . S
O422 Co420 2.091 . S
O422 C428 1.261 . S
C423 O432 1.247 . S
C423 O433 1.272 . S
O424 Co420 2.004 . S
O424 C429 1.259 . S
Co425 O426 2.061 . S
Co425 O431 2.052 . S
Co425 O433 2.135 . S
O426 Co425 2.061 . S
O426 C429 1.235 . S
C427 O430 1.238 . S
C427 O431 1.241 . S
C428 O421 1.247 . S
C428 O422 1.261 . S
C429 O424 1.259 . S
C429 O426 1.235 . S
O430 Co420 2.021 . S
O430 C427 1.238 . S
O431 Co425 2.052 . S
O431 C427 1.241 . S
O432 Co420 2.137 . S
O432 C423 1.247 . S
O433 Co420 2.244 . S
O433 C423 1.272 . S
O433 Co425 2.135 . S
Co434 O435 2.216 . S
Co434 O436 2.091 . S
Co434 O438 2.004 . S
Co434 O444 2.021 . S
Co434 O446 2.137 . S
Co434 O447 2.244 . S
O435 Co434 2.216 . S
O435 C442 1.247 . S
O436 Co434 2.091 . S
O436 C442 1.261 . S
C437 O446 1.247 . S
C437 O447 1.272 . S
O438 Co434 2.004 . S
O438 C443 1.259 . S
Co439 O440 2.061 . S
Co439 O445 2.052 . S
Co439 O447 2.135 . S
O440 Co439 2.061 . S
O440 C443 1.235 . S
C441 O444 1.238 . S
C441 O445 1.241 . S
C442 O435 1.247 . S
C442 O436 1.261 . S
C443 O438 1.259 . S
C443 O440 1.235 . S
O444 Co434 2.021 . S
O444 C441 1.238 . S
O445 Co439 2.052 . S
O445 C441 1.241 . S
O446 Co434 2.137 . S
O446 C437 1.247 . S
O447 Co434 2.244 . S
O447 C437 1.272 . S
O447 Co439 2.135 . S
Co448 O449 2.216 . S
Co448 O450 2.091 . S
Co448 O452 2.004 . S
Co448 O458 2.021 . S
Co448 O460 2.137 . S
Co448 O461 2.244 . S
O449 Co448 2.216 . S
O449 C456 1.247 . S
O450 Co448 2.091 . S
O450 C456 1.261 . S
C451 O460 1.247 . S
C451 O461 1.272 . S
O452 Co448 2.004 . S
O452 C457 1.259 . S
Co453 O454 2.061 . S
Co453 O459 2.052 . S
Co453 O461 2.135 . S
O454 Co453 2.061 . S
O454 C457 1.235 . S
C455 O458 1.238 . S
C455 O459 1.241 . S
C456 O449 1.247 . S
C456 O450 1.261 . S
C457 O452 1.259 . S
C457 O454 1.235 . S
O458 Co448 2.021 . S
O458 C455 1.238 . S
O459 Co453 2.052 . S
O459 C455 1.241 . S
O460 Co448 2.137 . S
O460 C451 1.247 . S
O461 Co448 2.244 . S
O461 C451 1.272 . S
O461 Co453 2.135 . S
Co462 O463 2.216 . S
Co462 O464 2.091 . S
Co462 O466 2.004 . S
Co462 O472 2.021 . S
Co462 O474 2.137 . S
Co462 O475 2.244 . S
O463 Co462 2.216 . S
O463 C470 1.247 . S
O464 Co462 2.091 . S
O464 C470 1.261 . S
C465 O474 1.247 . S
C465 O475 1.272 . S
O466 Co462 2.004 . S
O466 C471 1.259 . S
Co467 O468 2.061 . S
Co467 O473 2.052 . S
Co467 O475 2.135 . S
O468 Co467 2.061 . S
O468 C471 1.235 . S
C469 O472 1.238 . S
C469 O473 1.241 . S
C470 O463 1.247 . S
C470 O464 1.261 . S
C471 O466 1.259 . S
C471 O468 1.235 . S
O472 Co462 2.021 . S
O472 C469 1.238 . S
O473 Co467 2.052 . S
O473 C469 1.241 . S
O474 Co462 2.137 . S
O474 C465 1.247 . S
O475 Co462 2.244 . S
O475 C465 1.272 . S
O475 Co467 2.135 . S
Co476 O477 2.216 . S
Co476 O478 2.091 . S
Co476 O480 2.004 . S
Co476 O486 2.021 . S
Co476 O488 2.137 . S
Co476 O489 2.244 . S
O477 Co476 2.216 . S
O477 C484 1.247 . S
O478 Co476 2.091 . S
O478 C484 1.261 . S
C479 O488 1.247 . S
C479 O489 1.272 . S
O480 Co476 2.004 . S
O480 C485 1.259 . S
Co481 O482 2.061 . S
Co481 O487 2.052 . S
Co481 O489 2.135 . S
O482 Co481 2.061 . S
O482 C485 1.235 . S
C483 O486 1.238 . S
C483 O487 1.241 . S
C484 O477 1.247 . S
C484 O478 1.261 . S
C485 O480 1.259 . S
C485 O482 1.235 . S
O486 Co476 2.021 . S
O486 C483 1.238 . S
O487 Co481 2.052 . S
O487 C483 1.241 . S
O488 Co476 2.137 . S
O488 C479 1.247 . S
O489 Co476 2.244 . S
O489 C479 1.272 . S
O489 Co481 2.135 . S
Co490 O491 2.216 . S
Co490 O492 2.091 . S
Co490 O494 2.004 . S
Co490 O500 2.021 . S
Co490 O502 2.137 . S
Co490 O503 2.244 . S
O491 Co490 2.216 . S
O491 C498 1.247 . S
O492 Co490 2.091 . S
O492 C498 1.261 . S
C493 O502 1.247 . S
C493 O503 1.272 . S
O494 Co490 2.004 . S
O494 C499 1.259 . S
Co495 O496 2.061 . S
Co495 O501 2.052 . S
Co495 O503 2.135 . S
O496 Co495 2.061 . S
O496 C499 1.235 . S
C497 O500 1.238 . S
C497 O501 1.241 . S
C498 O491 1.247 . S
C498 O492 1.261 . S
C499 O494 1.259 . S
C499 O496 1.235 . S
O500 Co490 2.021 . S
O500 C497 1.238 . S
O501 Co495 2.052 . S
O501 C497 1.241 . S
O502 Co490 2.137 . S
O502 C493 1.247 . S
O503 Co490 2.244 . S
O503 C493 1.272 . S
O503 Co495 2.135 . S
Co504 O505 2.216 . S
Co504 O506 2.091 . S
Co504 O508 2.004 . S
Co504 O514 2.021 . S
Co504 O516 2.137 . S
Co504 O517 2.244 . S
O505 Co504 2.216 . S
O505 C512 1.247 . S
O506 Co504 2.091 . S
O506 C512 1.261 . S
C507 O516 1.247 . S
C507 O517 1.272 . S
O508 Co504 2.004 . S
O508 C513 1.259 . S
Co509 O510 2.061 . S
Co509 O515 2.052 . S
Co509 O517 2.135 . S
O510 Co509 2.061 . S
O510 C513 1.235 . S
C511 O514 1.238 . S
C511 O515 1.241 . S
C512 O505 1.247 . S
C512 O506 1.261 . S
C513 O508 1.259 . S
C513 O510 1.235 . S
O514 Co504 2.021 . S
O514 C511 1.238 . S
O515 Co509 2.052 . S
O515 C511 1.241 . S
O516 Co504 2.137 . S
O516 C507 1.247 . S
O517 Co504 2.244 . S
O517 C507 1.272 . S
O517 Co509 2.135 . S
Co518 O519 2.216 . S
Co518 O520 2.091 . S
Co518 O522 2.004 . S
Co518 O528 2.021 . S
Co518 O530 2.137 . S
Co518 O531 2.244 . S
O519 Co518 2.216 . S
O519 C526 1.247 . S
O520 Co518 2.091 . S
O520 C526 1.261 . S
C521 O530 1.247 . S
C521 O531 1.272 . S
O522 Co518 2.004 . S
O522 C527 1.259 . S
Co523 O524 2.061 . S
Co523 O529 2.052 . S
Co523 O531 2.135 . S
O524 Co523 2.061 . S
O524 C527 1.235 . S
C525 O528 1.238 . S
C525 O529 1.241 . S
C526 O519 1.247 . S
C526 O520 1.261 . S
C527 O522 1.259 . S
C527 O524 1.235 . S
O528 Co518 2.021 . S
O528 C525 1.238 . S
O529 Co523 2.052 . S
O529 C525 1.241 . S
O530 Co518 2.137 . S
O530 C521 1.247 . S
O531 Co518 2.244 . S
O531 C521 1.272 . S
O531 Co523 2.135 . S
Co532 O533 2.216 . S
Co532 O534 2.091 . S
Co532 O536 2.004 . S
Co532 O542 2.021 . S
Co532 O544 2.137 . S
Co532 O545 2.244 . S
O533 Co532 2.216 . S
O533 C540 1.247 . S
O534 Co532 2.091 . S
O534 C540 1.261 . S
C535 O544 1.247 . S
C535 O545 1.272 . S
O536 Co532 2.004 . S
O536 C541 1.259 . S
Co537 O538 2.061 . S
Co537 O543 2.052 . S
Co537 O545 2.135 . S
O538 Co537 2.061 . S
O538 C541 1.235 . S
C539 O542 1.238 . S
C539 O543 1.241 . S
C540 O533 1.247 . S
C540 O534 1.261 . S
C541 O536 1.259 . S
C541 O538 1.235 . S
O542 Co532 2.021 . S
O542 C539 1.238 . S
O543 Co537 2.052 . S
O543 C539 1.241 . S
O544 Co532 2.137 . S
O544 C535 1.247 . S
O545 Co532 2.244 . S
O545 C535 1.272 . S
O545 Co537 2.135 . S
Co546 O547 2.216 . S
Co546 O548 2.091 . S
Co546 O550 2.004 . S
Co546 O556 2.021 . S
Co546 O558 2.137 . S
Co546 O559 2.244 . S
O547 Co546 2.216 . S
O547 C554 1.247 . S
O548 Co546 2.091 . S
O548 C554 1.261 . S
C549 O558 1.247 . S
C549 O559 1.272 . S
O550 Co546 2.004 . S
O550 C555 1.259 . S
Co551 O552 2.061 . S
Co551 O557 2.052 . S
Co551 O559 2.135 . S
O552 Co551 2.061 . S
O552 C555 1.235 . S
C553 O556 1.238 . S
C553 O557 1.241 . S
C554 O547 1.247 . S
C554 O548 1.261 . S
C555 O550 1.259 . S
C555 O552 1.235 . S
O556 Co546 2.021 . S
O556 C553 1.238 . S
O557 Co551 2.052 . S
O557 C553 1.241 . S
O558 Co546 2.137 . S
O558 C549 1.247 . S
O559 Co546 2.244 . S
O559 C549 1.272 . S
O559 Co551 2.135 . S
Co560 O561 2.216 . S
Co560 O562 2.091 . S
Co560 O564 2.004 . S
Co560 O570 2.021 . S
Co560 O572 2.137 . S
Co560 O573 2.244 . S
O561 Co560 2.216 . S
O561 C568 1.247 . S
O562 Co560 2.091 . S
O562 C568 1.261 . S
C563 O572 1.247 . S
C563 O573 1.272 . S
O564 Co560 2.004 . S
O564 C569 1.259 . S
Co565 O566 2.061 . S
Co565 O571 2.052 . S
Co565 O573 2.135 . S
O566 Co565 2.061 . S
O566 C569 1.235 . S
C567 O570 1.238 . S
C567 O571 1.241 . S
C568 O561 1.247 . S
C568 O562 1.261 . S
C569 O564 1.259 . S
C569 O566 1.235 . S
O570 Co560 2.021 . S
O570 C567 1.238 . S
O571 Co565 2.052 . S
O571 C567 1.241 . S
O572 Co560 2.137 . S
O572 C563 1.247 . S
O573 Co560 2.244 . S
O573 C563 1.272 . S
O573 Co565 2.135 . S
Co574 O575 2.216 . S
Co574 O576 2.091 . S
Co574 O578 2.004 . S
Co574 O584 2.021 . S
Co574 O586 2.137 . S
Co574 O587 2.244 . S
O575 Co574 2.216 . S
O575 C582 1.247 . S
O576 Co574 2.091 . S
O576 C582 1.261 . S
C577 O586 1.247 . S
C577 O587 1.272 . S
O578 Co574 2.004 . S
O578 C583 1.259 . S
Co579 O580 2.061 . S
Co579 O585 2.052 . S
Co579 O587 2.135 . S
O580 Co579 2.061 . S
O580 C583 1.235 . S
C581 O584 1.238 . S
C581 O585 1.241 . S
C582 O575 1.247 . S
C582 O576 1.261 . S
C583 O578 1.259 . S
C583 O580 1.235 . S
O584 Co574 2.021 . S
O584 C581 1.238 . S
O585 Co579 2.052 . S
O585 C581 1.241 . S
O586 Co574 2.137 . S
O586 C577 1.247 . S
O587 Co574 2.244 . S
O587 C577 1.272 . S
O587 Co579 2.135 . S
Co588 O589 2.216 . S
Co588 O590 2.091 . S
Co588 O592 2.004 . S
Co588 O598 2.021 . S
Co588 O600 2.137 . S
Co588 O601 2.244 . S
O589 Co588 2.216 . S
O589 C596 1.247 . S
O590 Co588 2.091 . S
O590 C596 1.261 . S
C591 O600 1.247 . S
C591 O601 1.272 . S
O592 Co588 2.004 . S
O592 C597 1.259 . S
Co593 O594 2.061 . S
Co593 O599 2.052 . S
Co593 O601 2.135 . S
O594 Co593 2.061 . S
O594 C597 1.235 . S
C595 O598 1.238 . S
C595 O599 1.241 . S
C596 O589 1.247 . S
C596 O590 1.261 . S
C597 O592 1.259 . S
C597 O594 1.235 . S
O598 Co588 2.021 . S
O598 C595 1.238 . S
O599 Co593 2.052 . S
O599 C595 1.241 . S
O600 Co588 2.137 . S
O600 C591 1.247 . S
O601 Co588 2.244 . S
O601 C591 1.272 . S
O601 Co593 2.135 . S
Co602 O603 2.216 . S
Co602 O604 2.091 . S
Co602 O606 2.004 . S
Co602 O612 2.021 . S
Co602 O614 2.137 . S
Co602 O615 2.244 . S
O603 Co602 2.216 . S
O603 C610 1.247 . S
O604 Co602 2.091 . S
O604 C610 1.261 . S
C605 O614 1.247 . S
C605 O615 1.272 . S
O606 Co602 2.004 . S
O606 C611 1.259 . S
Co607 O608 2.061 . S
Co607 O613 2.052 . S
Co607 O615 2.135 . S
O608 Co607 2.061 . S
O608 C611 1.235 . S
C609 O612 1.238 . S
C609 O613 1.241 . S
C610 O603 1.247 . S
C610 O604 1.261 . S
C611 O606 1.259 . S
C611 O608 1.235 . S
O612 Co602 2.021 . S
O612 C609 1.238 . S
O613 Co607 2.052 . S
O613 C609 1.241 . S
O614 Co602 2.137 . S
O614 C605 1.247 . S
O615 Co602 2.244 . S
O615 C605 1.272 . S
O615 Co607 2.135 . S
Co616 O617 2.216 . S
Co616 O618 2.091 . S
Co616 O620 2.004 . S
Co616 O626 2.021 . S
Co616 O628 2.137 . S
Co616 O629 2.244 . S
O617 Co616 2.216 . S
O617 C624 1.247 . S
O618 Co616 2.091 . S
O618 C624 1.261 . S
C619 O628 1.247 . S
C619 O629 1.272 . S
O620 Co616 2.004 . S
O620 C625 1.259 . S
Co621 O622 2.061 . S
Co621 O627 2.052 . S
Co621 O629 2.135 . S
O622 Co621 2.061 . S
O622 C625 1.235 . S
C623 O626 1.238 . S
C623 O627 1.241 . S
C624 O617 1.247 . S
C624 O618 1.261 . S
C625 O620 1.259 . S
C625 O622 1.235 . S
O626 Co616 2.021 . S
O626 C623 1.238 . S
O627 Co621 2.052 . S
O627 C623 1.241 . S
O628 Co616 2.137 . S
O628 C619 1.247 . S
O629 Co616 2.244 . S
O629 C619 1.272 . S
O629 Co621 2.135 . S
Co630 O631 2.216 . S
Co630 O632 2.091 . S
Co630 O634 2.004 . S
Co630 O640 2.021 . S
Co630 O642 2.137 . S
Co630 O643 2.244 . S
O631 Co630 2.216 . S
O631 C638 1.247 . S
O632 Co630 2.091 . S
O632 C638 1.261 . S
C633 O642 1.247 . S
C633 O643 1.272 . S
O634 Co630 2.004 . S
O634 C639 1.259 . S
Co635 O636 2.061 . S
Co635 O641 2.052 . S
Co635 O643 2.135 . S
O636 Co635 2.061 . S
O636 C639 1.235 . S
C637 O640 1.238 . S
C637 O641 1.241 . S
C638 O631 1.247 . S
C638 O632 1.261 . S
C639 O634 1.259 . S
C639 O636 1.235 . S
O640 Co630 2.021 . S
O640 C637 1.238 . S
O641 Co635 2.052 . S
O641 C637 1.241 . S
O642 Co630 2.137 . S
O642 C633 1.247 . S
O643 Co630 2.244 . S
O643 C633 1.272 . S
O643 Co635 2.135 . S
Co644 O645 2.216 . S
Co644 O646 2.091 . S
Co644 O648 2.004 . S
Co644 O654 2.021 . S
Co644 O656 2.137 . S
Co644 O657 2.244 . S
O645 Co644 2.216 . S
O645 C652 1.247 . S
O646 Co644 2.091 . S
O646 C652 1.261 . S
C647 O656 1.247 . S
C647 O657 1.272 . S
O648 Co644 2.004 . S
O648 C653 1.259 . S
Co649 O650 2.061 . S
Co649 O655 2.052 . S
Co649 O657 2.135 . S
O650 Co649 2.061 . S
O650 C653 1.235 . S
C651 O654 1.238 . S
C651 O655 1.241 . S
C652 O645 1.247 . S
C652 O646 1.261 . S
C653 O648 1.259 . S
C653 O650 1.235 . S
O654 Co644 2.021 . S
O654 C651 1.238 . S
O655 Co649 2.052 . S
O655 C651 1.241 . S
O656 Co644 2.137 . S
O656 C647 1.247 . S
O657 Co644 2.244 . S
O657 C647 1.272 . S
O657 Co649 2.135 . S
Co658 O659 2.216 . S
Co658 O660 2.091 . S
Co658 O662 2.004 . S
Co658 O668 2.021 . S
Co658 O670 2.137 . S
Co658 O671 2.244 . S
O659 Co658 2.216 . S
O659 C666 1.247 . S
O660 Co658 2.091 . S
O660 C666 1.261 . S
C661 O670 1.247 . S
C661 O671 1.272 . S
O662 Co658 2.004 . S
O662 C667 1.259 . S
Co663 O664 2.061 . S
Co663 O669 2.052 . S
Co663 O671 2.135 . S
O664 Co663 2.061 . S
O664 C667 1.235 . S
C665 O668 1.238 . S
C665 O669 1.241 . S
C666 O659 1.247 . S
C666 O660 1.261 . S
C667 O662 1.259 . S
C667 O664 1.235 . S
O668 Co658 2.021 . S
O668 C665 1.238 . S
O669 Co663 2.052 . S
O669 C665 1.241 . S
O670 Co658 2.137 . S
O670 C661 1.247 . S
O671 Co658 2.244 . S
O671 C661 1.272 . S
O671 Co663 2.135 . S
H672 C684 0.930 . S
H673 C686 0.930 . S
H674 C687 0.930 . S
H675 C691 0.959 . S
H676 C691 0.959 . S
H677 C691 0.961 . S
H678 C692 0.960 . S
H679 C692 0.961 . S
H680 C692 0.959 . S
H681 C695 0.929 . S
H682 C696 0.931 . S
H683 C698 0.930 . S
C684 H672 0.930 . S
C684 C685 1.399 . S
C684 C689 1.399 . S
C685 C684 1.399 . S
C685 C686 1.376 . S
C686 H673 0.930 . S
C686 C685 1.376 . S
C686 C687 1.388 . S
C687 H674 0.930 . S
C687 C686 1.388 . S
C687 C688 1.390 . S
C688 C687 1.390 . S
C688 C689 1.394 . S
C688 C694 1.465 . S
C689 C684 1.399 . S
C689 C688 1.394 . S
C689 C690 1.516 . S
C690 C689 1.516 . S
C690 C691 1.502 . S
C690 C692 1.561 . S
C690 C693 1.526 . S
C691 H675 0.959 . S
C691 H676 0.959 . S
C691 H677 0.961 . S
C691 C690 1.502 . S
C692 H678 0.960 . S
C692 H679 0.961 . S
C692 H680 0.959 . S
C692 C690 1.561 . S
C693 C690 1.526 . S
C693 C694 1.396 . S
C693 C698 1.390 . S
C694 C688 1.465 . S
C694 C693 1.396 . S
C694 C695 1.399 . S
C695 H681 0.929 . S
C695 C694 1.399 . S
C695 C696 1.385 . S
C696 H682 0.931 . S
C696 C695 1.385 . S
C696 C697 1.389 . S
C697 C696 1.389 . S
C697 C698 1.387 . S
C698 H683 0.930 . S
C698 C693 1.390 . S
C698 C697 1.387 . S
H699 C711 0.930 . S
H700 C713 0.930 . S
H701 C714 0.930 . S
H702 C718 0.959 . S
H703 C718 0.959 . S
H704 C718 0.961 . S
H705 C719 0.960 . S
H706 C719 0.961 . S
H707 C719 0.959 . S
H708 C722 0.929 . S
H709 C723 0.931 . S
H710 C725 0.930 . S
C711 H699 0.930 . S
C711 C712 1.399 . S
C711 C716 1.399 . S
C712 C711 1.399 . S
C712 C713 1.376 . S
C713 H700 0.930 . S
C713 C712 1.376 . S
C713 C714 1.388 . S
C714 H701 0.930 . S
C714 C713 1.388 . S
C714 C715 1.390 . S
C715 C714 1.390 . S
C715 C716 1.394 . S
C715 C721 1.465 . S
C716 C711 1.399 . S
C716 C715 1.394 . S
C716 C717 1.516 . S
C717 C716 1.516 . S
C717 C718 1.502 . S
C717 C719 1.561 . S
C717 C720 1.526 . S
C718 H702 0.959 . S
C718 H703 0.959 . S
C718 H704 0.961 . S
C718 C717 1.502 . S
C719 H705 0.960 . S
C719 H706 0.961 . S
C719 H707 0.959 . S
C719 C717 1.561 . S
C720 C717 1.526 . S
C720 C721 1.396 . S
C720 C725 1.390 . S
C721 C715 1.465 . S
C721 C720 1.396 . S
C721 C722 1.399 . S
C722 H708 0.929 . S
C722 C721 1.399 . S
C722 C723 1.385 . S
C723 H709 0.931 . S
C723 C722 1.385 . S
C723 C724 1.389 . S
C724 C723 1.389 . S
C724 C725 1.387 . S
C725 H710 0.930 . S
C725 C720 1.390 . S
C725 C724 1.387 . S
H726 C738 0.930 . S
H727 C740 0.930 . S
H728 C741 0.930 . S
H729 C745 0.959 . S
H730 C745 0.959 . S
H731 C745 0.961 . S
H732 C746 0.960 . S
H733 C746 0.961 . S
H734 C746 0.959 . S
H735 C749 0.929 . S
H736 C750 0.931 . S
H737 C752 0.930 . S
C738 H726 0.930 . S
C738 C739 1.399 . S
C738 C743 1.399 . S
C739 C738 1.399 . S
C739 C740 1.376 . S
C740 H727 0.930 . S
C740 C739 1.376 . S
C740 C741 1.388 . S
C741 H728 0.930 . S
C741 C740 1.388 . S
C741 C742 1.390 . S
C742 C741 1.390 . S
C742 C743 1.394 . S
C742 C748 1.465 . S
C743 C738 1.399 . S
C743 C742 1.394 . S
C743 C744 1.516 . S
C744 C743 1.516 . S
C744 C745 1.502 . S
C744 C746 1.561 . S
C744 C747 1.526 . S
C745 H729 0.959 . S
C745 H730 0.959 . S
C745 H731 0.961 . S
C745 C744 1.502 . S
C746 H732 0.960 . S
C746 H733 0.961 . S
C746 H734 0.959 . S
C746 C744 1.561 . S
C747 C744 1.526 . S
C747 C748 1.396 . S
C747 C752 1.390 . S
C748 C742 1.465 . S
C748 C747 1.396 . S
C748 C749 1.399 . S
C749 H735 0.929 . S
C749 C748 1.399 . S
C749 C750 1.385 . S
C750 H736 0.931 . S
C750 C749 1.385 . S
C750 C751 1.389 . S
C751 C750 1.389 . S
C751 C752 1.387 . S
C752 H737 0.930 . S
C752 C747 1.390 . S
C752 C751 1.387 . S
H753 C765 0.930 . S
H754 C767 0.930 . S
H755 C768 0.930 . S
H756 C772 0.959 . S
H757 C772 0.959 . S
H758 C772 0.961 . S
H759 C773 0.960 . S
H760 C773 0.961 . S
H761 C773 0.959 . S
H762 C776 0.929 . S
H763 C777 0.931 . S
H764 C779 0.930 . S
C765 H753 0.930 . S
C765 C766 1.399 . S
C765 C770 1.399 . S
C766 C765 1.399 . S
C766 C767 1.376 . S
C767 H754 0.930 . S
C767 C766 1.376 . S
C767 C768 1.388 . S
C768 H755 0.930 . S
C768 C767 1.388 . S
C768 C769 1.390 . S
C769 C768 1.390 . S
C769 C770 1.394 . S
C769 C775 1.465 . S
C770 C765 1.399 . S
C770 C769 1.394 . S
C770 C771 1.516 . S
C771 C770 1.516 . S
C771 C772 1.502 . S
C771 C773 1.561 . S
C771 C774 1.526 . S
C772 H756 0.959 . S
C772 H757 0.959 . S
C772 H758 0.961 . S
C772 C771 1.502 . S
C773 H759 0.960 . S
C773 H760 0.961 . S
C773 H761 0.959 . S
C773 C771 1.561 . S
C774 C771 1.526 . S
C774 C775 1.396 . S
C774 C779 1.390 . S
C775 C769 1.465 . S
C775 C774 1.396 . S
C775 C776 1.399 . S
C776 H762 0.929 . S
C776 C775 1.399 . S
C776 C777 1.385 . S
C777 H763 0.931 . S
C777 C776 1.385 . S
C777 C778 1.389 . S
C778 C777 1.389 . S
C778 C779 1.387 . S
C779 H764 0.930 . S
C779 C774 1.390 . S
C779 C778 1.387 . S
H780 C792 0.930 . S
H781 C794 0.930 . S
H782 C795 0.930 . S
H783 C799 0.959 . S
H784 C799 0.959 . S
H785 C799 0.961 . S
H786 C800 0.960 . S
H787 C800 0.961 . S
H788 C800 0.959 . S
H789 C803 0.929 . S
H790 C804 0.931 . S
H791 C806 0.930 . S
C792 H780 0.930 . S
C792 C793 1.399 . S
C792 C797 1.399 . S
C793 C792 1.399 . S
C793 C794 1.376 . S
C794 H781 0.930 . S
C794 C793 1.376 . S
C794 C795 1.388 . S
C795 H782 0.930 . S
C795 C794 1.388 . S
C795 C796 1.390 . S
C796 C795 1.390 . S
C796 C797 1.394 . S
C796 C802 1.465 . S
C797 C792 1.399 . S
C797 C796 1.394 . S
C797 C798 1.516 . S
C798 C797 1.516 . S
C798 C799 1.502 . S
C798 C800 1.561 . S
C798 C801 1.526 . S
C799 H783 0.959 . S
C799 H784 0.959 . S
C799 H785 0.961 . S
C799 C798 1.502 . S
C800 H786 0.960 . S
C800 H787 0.961 . S
C800 H788 0.959 . S
C800 C798 1.561 . S
C801 C798 1.526 . S
C801 C802 1.396 . S
C801 C806 1.390 . S
C802 C796 1.465 . S
C802 C801 1.396 . S
C802 C803 1.399 . S
C803 H789 0.929 . S
C803 C802 1.399 . S
C803 C804 1.385 . S
C804 H790 0.931 . S
C804 C803 1.385 . S
C804 C805 1.389 . S
C805 C804 1.389 . S
C805 C806 1.387 . S
C806 H791 0.930 . S
C806 C801 1.390 . S
C806 C805 1.387 . S
H807 C819 0.930 . S
H808 C821 0.930 . S
H809 C822 0.930 . S
H810 C826 0.959 . S
H811 C826 0.959 . S
H812 C826 0.961 . S
H813 C827 0.960 . S
H814 C827 0.961 . S
H815 C827 0.959 . S
H816 C830 0.929 . S
H817 C831 0.931 . S
H818 C833 0.930 . S
C819 H807 0.930 . S
C819 C820 1.399 . S
C819 C824 1.399 . S
C820 C819 1.399 . S
C820 C821 1.376 . S
C821 H808 0.930 . S
C821 C820 1.376 . S
C821 C822 1.388 . S
C822 H809 0.930 . S
C822 C821 1.388 . S
C822 C823 1.390 . S
C823 C822 1.390 . S
C823 C824 1.394 . S
C823 C829 1.465 . S
C824 C819 1.399 . S
C824 C823 1.394 . S
C824 C825 1.516 . S
C825 C824 1.516 . S
C825 C826 1.502 . S
C825 C827 1.561 . S
C825 C828 1.526 . S
C826 H810 0.959 . S
C826 H811 0.959 . S
C826 H812 0.961 . S
C826 C825 1.502 . S
C827 H813 0.960 . S
C827 H814 0.961 . S
C827 H815 0.959 . S
C827 C825 1.561 . S
C828 C825 1.526 . S
C828 C829 1.396 . S
C828 C833 1.390 . S
C829 C823 1.465 . S
C829 C828 1.396 . S
C829 C830 1.399 . S
C830 H816 0.929 . S
C830 C829 1.399 . S
C830 C831 1.385 . S
C831 H817 0.931 . S
C831 C830 1.385 . S
C831 C832 1.389 . S
C832 C831 1.389 . S
C832 C833 1.387 . S
C833 H818 0.930 . S
C833 C828 1.390 . S
C833 C832 1.387 . S
H834 C846 0.930 . S
H835 C848 0.930 . S
H836 C849 0.930 . S
H837 C853 0.959 . S
H838 C853 0.959 . S
H839 C853 0.961 . S
H840 C854 0.960 . S
H841 C854 0.961 . S
H842 C854 0.959 . S
H843 C857 0.929 . S
H844 C858 0.931 . S
H845 C860 0.930 . S
C846 H834 0.930 . S
C846 C847 1.399 . S
C846 C851 1.399 . S
C847 C846 1.399 . S
C847 C848 1.376 . S
C848 H835 0.930 . S
C848 C847 1.376 . S
C848 C849 1.388 . S
C849 H836 0.930 . S
C849 C848 1.388 . S
C849 C850 1.390 . S
C850 C849 1.390 . S
C850 C851 1.394 . S
C850 C856 1.465 . S
C851 C846 1.399 . S
C851 C850 1.394 . S
C851 C852 1.516 . S
C852 C851 1.516 . S
C852 C853 1.502 . S
C852 C854 1.561 . S
C852 C855 1.526 . S
C853 H837 0.959 . S
C853 H838 0.959 . S
C853 H839 0.961 . S
C853 C852 1.502 . S
C854 H840 0.960 . S
C854 H841 0.961 . S
C854 H842 0.959 . S
C854 C852 1.561 . S
C855 C852 1.526 . S
C855 C856 1.396 . S
C855 C860 1.390 . S
C856 C850 1.465 . S
C856 C855 1.396 . S
C856 C857 1.399 . S
C857 H843 0.929 . S
C857 C856 1.399 . S
C857 C858 1.385 . S
C858 H844 0.931 . S
C858 C857 1.385 . S
C858 C859 1.389 . S
C859 C858 1.389 . S
C859 C860 1.387 . S
C860 H845 0.930 . S
C860 C855 1.390 . S
C860 C859 1.387 . S
H861 C873 0.930 . S
H862 C875 0.930 . S
H863 C876 0.930 . S
H864 C880 0.959 . S
H865 C880 0.959 . S
H866 C880 0.961 . S
H867 C881 0.960 . S
H868 C881 0.961 . S
H869 C881 0.959 . S
H870 C884 0.929 . S
H871 C885 0.931 . S
H872 C887 0.930 . S
C873 H861 0.930 . S
C873 C874 1.399 . S
C873 C878 1.399 . S
C874 C873 1.399 . S
C874 C875 1.376 . S
C875 H862 0.930 . S
C875 C874 1.376 . S
C875 C876 1.388 . S
C876 H863 0.930 . S
C876 C875 1.388 . S
C876 C877 1.390 . S
C877 C876 1.390 . S
C877 C878 1.394 . S
C877 C883 1.465 . S
C878 C873 1.399 . S
C878 C877 1.394 . S
C878 C879 1.516 . S
C879 C878 1.516 . S
C879 C880 1.502 . S
C879 C881 1.561 . S
C879 C882 1.526 . S
C880 H864 0.959 . S
C880 H865 0.959 . S
C880 H866 0.961 . S
C880 C879 1.502 . S
C881 H867 0.960 . S
C881 H868 0.961 . S
C881 H869 0.959 . S
C881 C879 1.561 . S
C882 C879 1.526 . S
C882 C883 1.396 . S
C882 C887 1.390 . S
C883 C877 1.465 . S
C883 C882 1.396 . S
C883 C884 1.399 . S
C884 H870 0.929 . S
C884 C883 1.399 . S
C884 C885 1.385 . S
C885 H871 0.931 . S
C885 C884 1.385 . S
C885 C886 1.389 . S
C886 C885 1.389 . S
C886 C887 1.387 . S
C887 H872 0.930 . S
C887 C882 1.390 . S
C887 C886 1.387 . S
H888 C900 0.930 . S
H889 C902 0.930 . S
H890 C903 0.930 . S
H891 C907 0.959 . S
H892 C907 0.959 . S
H893 C907 0.961 . S
H894 C908 0.960 . S
H895 C908 0.961 . S
H896 C908 0.959 . S
H897 C911 0.929 . S
H898 C912 0.931 . S
H899 C914 0.930 . S
C900 H888 0.930 . S
C900 C901 1.399 . S
C900 C905 1.399 . S
C901 C900 1.399 . S
C901 C902 1.376 . S
C902 H889 0.930 . S
C902 C901 1.376 . S
C902 C903 1.388 . S
C903 H890 0.930 . S
C903 C902 1.388 . S
C903 C904 1.390 . S
C904 C903 1.390 . S
C904 C905 1.394 . S
C904 C910 1.465 . S
C905 C900 1.399 . S
C905 C904 1.394 . S
C905 C906 1.516 . S
C906 C905 1.516 . S
C906 C907 1.502 . S
C906 C908 1.561 . S
C906 C909 1.526 . S
C907 H891 0.959 . S
C907 H892 0.959 . S
C907 H893 0.961 . S
C907 C906 1.502 . S
C908 H894 0.960 . S
C908 H895 0.961 . S
C908 H896 0.959 . S
C908 C906 1.561 . S
C909 C906 1.526 . S
C909 C910 1.396 . S
C909 C914 1.390 . S
C910 C904 1.465 . S
C910 C909 1.396 . S
C910 C911 1.399 . S
C911 H897 0.929 . S
C911 C910 1.399 . S
C911 C912 1.385 . S
C912 H898 0.931 . S
C912 C911 1.385 . S
C912 C913 1.389 . S
C913 C912 1.389 . S
C913 C914 1.387 . S
C914 H899 0.930 . S
C914 C909 1.390 . S
C914 C913 1.387 . S
H915 C927 0.930 . S
H916 C929 0.930 . S
H917 C930 0.930 . S
H918 C934 0.959 . S
H919 C934 0.959 . S
H920 C934 0.961 . S
H921 C935 0.960 . S
H922 C935 0.961 . S
H923 C935 0.959 . S
H924 C938 0.929 . S
H925 C939 0.931 . S
H926 C941 0.930 . S
C927 H915 0.930 . S
C927 C928 1.399 . S
C927 C932 1.399 . S
C928 C927 1.399 . S
C928 C929 1.376 . S
C929 H916 0.930 . S
C929 C928 1.376 . S
C929 C930 1.388 . S
C930 H917 0.930 . S
C930 C929 1.388 . S
C930 C931 1.390 . S
C931 C930 1.390 . S
C931 C932 1.394 . S
C931 C937 1.465 . S
C932 C927 1.399 . S
C932 C931 1.394 . S
C932 C933 1.516 . S
C933 C932 1.516 . S
C933 C934 1.502 . S
C933 C935 1.561 . S
C933 C936 1.526 . S
C934 H918 0.959 . S
C934 H919 0.959 . S
C934 H920 0.961 . S
C934 C933 1.502 . S
C935 H921 0.960 . S
C935 H922 0.961 . S
C935 H923 0.959 . S
C935 C933 1.561 . S
C936 C933 1.526 . S
C936 C937 1.396 . S
C936 C941 1.390 . S
C937 C931 1.465 . S
C937 C936 1.396 . S
C937 C938 1.399 . S
C938 H924 0.929 . S
C938 C937 1.399 . S
C938 C939 1.385 . S
C939 H925 0.931 . S
C939 C938 1.385 . S
C939 C940 1.389 . S
C940 C939 1.389 . S
C940 C941 1.387 . S
C941 H926 0.930 . S
C941 C936 1.390 . S
C941 C940 1.387 . S
H942 C954 0.930 . S
H943 C956 0.930 . S
H944 C957 0.930 . S
H945 C961 0.959 . S
H946 C961 0.959 . S
H947 C961 0.961 . S
H948 C962 0.960 . S
H949 C962 0.961 . S
H950 C962 0.959 . S
H951 C965 0.929 . S
H952 C966 0.931 . S
H953 C968 0.930 . S
C954 H942 0.930 . S
C954 C955 1.399 . S
C954 C959 1.399 . S
C955 C954 1.399 . S
C955 C956 1.376 . S
C956 H943 0.930 . S
C956 C955 1.376 . S
C956 C957 1.388 . S
C957 H944 0.930 . S
C957 C956 1.388 . S
C957 C958 1.390 . S
C958 C957 1.390 . S
C958 C959 1.394 . S
C958 C964 1.465 . S
C959 C954 1.399 . S
C959 C958 1.394 . S
C959 C960 1.516 . S
C960 C959 1.516 . S
C960 C961 1.502 . S
C960 C962 1.561 . S
C960 C963 1.526 . S
C961 H945 0.959 . S
C961 H946 0.959 . S
C961 H947 0.961 . S
C961 C960 1.502 . S
C962 H948 0.960 . S
C962 H949 0.961 . S
C962 H950 0.959 . S
C962 C960 1.561 . S
C963 C960 1.526 . S
C963 C964 1.396 . S
C963 C968 1.390 . S
C964 C958 1.465 . S
C964 C963 1.396 . S
C964 C965 1.399 . S
C965 H951 0.929 . S
C965 C964 1.399 . S
C965 C966 1.385 . S
C966 H952 0.931 . S
C966 C965 1.385 . S
C966 C967 1.389 . S
C967 C966 1.389 . S
C967 C968 1.387 . S
C968 H953 0.930 . S
C968 C963 1.390 . S
C968 C967 1.387 . S
H969 C981 0.930 . S
H970 C983 0.930 . S
H971 C984 0.930 . S
H972 C988 0.959 . S
H973 C988 0.959 . S
H974 C988 0.961 . S
H975 C989 0.960 . S
H976 C989 0.961 . S
H977 C989 0.959 . S
H978 C992 0.929 . S
H979 C993 0.931 . S
H980 C995 0.930 . S
C981 H969 0.930 . S
C981 C982 1.399 . S
C981 C986 1.399 . S
C982 C981 1.399 . S
C982 C983 1.376 . S
C983 H970 0.930 . S
C983 C982 1.376 . S
C983 C984 1.388 . S
C984 H971 0.930 . S
C984 C983 1.388 . S
C984 C985 1.390 . S
C985 C984 1.390 . S
C985 C986 1.394 . S
C985 C991 1.465 . S
C986 C981 1.399 . S
C986 C985 1.394 . S
C986 C987 1.516 . S
C987 C986 1.516 . S
C987 C988 1.502 . S
C987 C989 1.561 . S
C987 C990 1.526 . S
C988 H972 0.959 . S
C988 H973 0.959 . S
C988 H974 0.961 . S
C988 C987 1.502 . S
C989 H975 0.960 . S
C989 H976 0.961 . S
C989 H977 0.959 . S
C989 C987 1.561 . S
C990 C987 1.526 . S
C990 C991 1.396 . S
C990 C995 1.390 . S
C991 C985 1.465 . S
C991 C990 1.396 . S
C991 C992 1.399 . S
C992 H978 0.929 . S
C992 C991 1.399 . S
C992 C993 1.385 . S
C993 H979 0.931 . S
C993 C992 1.385 . S
C993 C994 1.389 . S
C994 C993 1.389 . S
C994 C995 1.387 . S
C995 H980 0.930 . S
C995 C990 1.390 . S
C995 C994 1.387 . S
H996 C1008 0.930 . S
H997 C1010 0.930 . S
H998 C1011 0.930 . S
H999 C1015 0.959 . S
H1000 C1015 0.959 . S
H1001 C1015 0.961 . S
H1002 C1016 0.960 . S
H1003 C1016 0.961 . S
H1004 C1016 0.959 . S
H1005 C1019 0.929 . S
H1006 C1020 0.931 . S
H1007 C1022 0.930 . S
C1008 H996 0.930 . S
C1008 C1009 1.399 . S
C1008 C1013 1.399 . S
C1009 C1008 1.399 . S
C1009 C1010 1.376 . S
C1010 H997 0.930 . S
C1010 C1009 1.376 . S
C1010 C1011 1.388 . S
C1011 H998 0.930 . S
C1011 C1010 1.388 . S
C1011 C1012 1.390 . S
C1012 C1011 1.390 . S
C1012 C1013 1.394 . S
C1012 C1018 1.465 . S
C1013 C1008 1.399 . S
C1013 C1012 1.394 . S
C1013 C1014 1.516 . S
C1014 C1013 1.516 . S
C1014 C1015 1.502 . S
C1014 C1016 1.561 . S
C1014 C1017 1.526 . S
C1015 H999 0.959 . S
C1015 H1000 0.959 . S
C1015 H1001 0.961 . S
C1015 C1014 1.502 . S
C1016 H1002 0.960 . S
C1016 H1003 0.961 . S
C1016 H1004 0.959 . S
C1016 C1014 1.561 . S
C1017 C1014 1.526 . S
C1017 C1018 1.396 . S
C1017 C1022 1.390 . S
C1018 C1012 1.465 . S
C1018 C1017 1.396 . S
C1018 C1019 1.399 . S
C1019 H1005 0.929 . S
C1019 C1018 1.399 . S
C1019 C1020 1.385 . S
C1020 H1006 0.931 . S
C1020 C1019 1.385 . S
C1020 C1021 1.389 . S
C1021 C1020 1.389 . S
C1021 C1022 1.387 . S
C1022 H1007 0.930 . S
C1022 C1017 1.390 . S
C1022 C1021 1.387 . S
H1023 C1035 0.930 . S
H1024 C1037 0.930 . S
H1025 C1038 0.930 . S
H1026 C1042 0.959 . S
H1027 C1042 0.959 . S
H1028 C1042 0.961 . S
H1029 C1043 0.960 . S
H1030 C1043 0.961 . S
H1031 C1043 0.959 . S
H1032 C1046 0.929 . S
H1033 C1047 0.931 . S
H1034 C1049 0.930 . S
C1035 H1023 0.930 . S
C1035 C1036 1.399 . S
C1035 C1040 1.399 . S
C1036 C1035 1.399 . S
C1036 C1037 1.376 . S
C1037 H1024 0.930 . S
C1037 C1036 1.376 . S
C1037 C1038 1.388 . S
C1038 H1025 0.930 . S
C1038 C1037 1.388 . S
C1038 C1039 1.390 . S
C1039 C1038 1.390 . S
C1039 C1040 1.394 . S
C1039 C1045 1.465 . S
C1040 C1035 1.399 . S
C1040 C1039 1.394 . S
C1040 C1041 1.516 . S
C1041 C1040 1.516 . S
C1041 C1042 1.502 . S
C1041 C1043 1.561 . S
C1041 C1044 1.526 . S
C1042 H1026 0.959 . S
C1042 H1027 0.959 . S
C1042 H1028 0.961 . S
C1042 C1041 1.502 . S
C1043 H1029 0.960 . S
C1043 H1030 0.961 . S
C1043 H1031 0.959 . S
C1043 C1041 1.561 . S
C1044 C1041 1.526 . S
C1044 C1045 1.396 . S
C1044 C1049 1.390 . S
C1045 C1039 1.465 . S
C1045 C1044 1.396 . S
C1045 C1046 1.399 . S
C1046 H1032 0.929 . S
C1046 C1045 1.399 . S
C1046 C1047 1.385 . S
C1047 H1033 0.931 . S
C1047 C1046 1.385 . S
C1047 C1048 1.389 . S
C1048 C1047 1.389 . S
C1048 C1049 1.387 . S
C1049 H1034 0.930 . S
C1049 C1044 1.390 . S
C1049 C1048 1.387 . S
H1050 C1062 0.930 . S
H1051 C1064 0.930 . S
H1052 C1065 0.930 . S
H1053 C1069 0.959 . S
H1054 C1069 0.959 . S
H1055 C1069 0.961 . S
H1056 C1070 0.960 . S
H1057 C1070 0.961 . S
H1058 C1070 0.959 . S
H1059 C1073 0.929 . S
H1060 C1074 0.931 . S
H1061 C1076 0.930 . S
C1062 H1050 0.930 . S
C1062 C1063 1.399 . S
C1062 C1067 1.399 . S
C1063 C1062 1.399 . S
C1063 C1064 1.376 . S
C1064 H1051 0.930 . S
C1064 C1063 1.376 . S
C1064 C1065 1.388 . S
C1065 H1052 0.930 . S
C1065 C1064 1.388 . S
C1065 C1066 1.390 . S
C1066 C1065 1.390 . S
C1066 C1067 1.394 . S
C1066 C1072 1.465 . S
C1067 C1062 1.399 . S
C1067 C1066 1.394 . S
C1067 C1068 1.516 . S
C1068 C1067 1.516 . S
C1068 C1069 1.502 . S
C1068 C1070 1.561 . S
C1068 C1071 1.526 . S
C1069 H1053 0.959 . S
C1069 H1054 0.959 . S
C1069 H1055 0.961 . S
C1069 C1068 1.502 . S
C1070 H1056 0.960 . S
C1070 H1057 0.961 . S
C1070 H1058 0.959 . S
C1070 C1068 1.561 . S
C1071 C1068 1.526 . S
C1071 C1072 1.396 . S
C1071 C1076 1.390 . S
C1072 C1066 1.465 . S
C1072 C1071 1.396 . S
C1072 C1073 1.399 . S
C1073 H1059 0.929 . S
C1073 C1072 1.399 . S
C1073 C1074 1.385 . S
C1074 H1060 0.931 . S
C1074 C1073 1.385 . S
C1074 C1075 1.389 . S
C1075 C1074 1.389 . S
C1075 C1076 1.387 . S
C1076 H1061 0.930 . S
C1076 C1071 1.390 . S
C1076 C1075 1.387 . S
H1077 C1089 0.930 . S
H1078 C1091 0.930 . S
H1079 C1092 0.930 . S
H1080 C1096 0.959 . S
H1081 C1096 0.959 . S
H1082 C1096 0.961 . S
H1083 C1097 0.960 . S
H1084 C1097 0.961 . S
H1085 C1097 0.959 . S
H1086 C1100 0.929 . S
H1087 C1101 0.931 . S
H1088 C1103 0.930 . S
C1089 H1077 0.930 . S
C1089 C1090 1.399 . S
C1089 C1094 1.399 . S
C1090 C1089 1.399 . S
C1090 C1091 1.376 . S
C1091 H1078 0.930 . S
C1091 C1090 1.376 . S
C1091 C1092 1.388 . S
C1092 H1079 0.930 . S
C1092 C1091 1.388 . S
C1092 C1093 1.390 . S
C1093 C1092 1.390 . S
C1093 C1094 1.394 . S
C1093 C1099 1.465 . S
C1094 C1089 1.399 . S
C1094 C1093 1.394 . S
C1094 C1095 1.516 . S
C1095 C1094 1.516 . S
C1095 C1096 1.502 . S
C1095 C1097 1.561 . S
C1095 C1098 1.526 . S
C1096 H1080 0.959 . S
C1096 H1081 0.959 . S
C1096 H1082 0.961 . S
C1096 C1095 1.502 . S
C1097 H1083 0.960 . S
C1097 H1084 0.961 . S
C1097 H1085 0.959 . S
C1097 C1095 1.561 . S
C1098 C1095 1.526 . S
C1098 C1099 1.396 . S
C1098 C1103 1.390 . S
C1099 C1093 1.465 . S
C1099 C1098 1.396 . S
C1099 C1100 1.399 . S
C1100 H1086 0.929 . S
C1100 C1099 1.399 . S
C1100 C1101 1.385 . S
C1101 H1087 0.931 . S
C1101 C1100 1.385 . S
C1101 C1102 1.389 . S
C1102 C1101 1.389 . S
C1102 C1103 1.387 . S
C1103 H1088 0.930 . S
C1103 C1098 1.390 . S
C1103 C1102 1.387 . S
H1104 C1116 0.930 . S
H1105 C1118 0.930 . S
H1106 C1119 0.930 . S
H1107 C1123 0.959 . S
H1108 C1123 0.959 . S
H1109 C1123 0.961 . S
H1110 C1124 0.960 . S
H1111 C1124 0.961 . S
H1112 C1124 0.959 . S
H1113 C1127 0.929 . S
H1114 C1128 0.931 . S
H1115 C1130 0.930 . S
C1116 H1104 0.930 . S
C1116 C1117 1.399 . S
C1116 C1121 1.399 . S
C1117 C1116 1.399 . S
C1117 C1118 1.376 . S
C1118 H1105 0.930 . S
C1118 C1117 1.376 . S
C1118 C1119 1.388 . S
C1119 H1106 0.930 . S
C1119 C1118 1.388 . S
C1119 C1120 1.390 . S
C1120 C1119 1.390 . S
C1120 C1121 1.394 . S
C1120 C1126 1.465 . S
C1121 C1116 1.399 . S
C1121 C1120 1.394 . S
C1121 C1122 1.516 . S
C1122 C1121 1.516 . S
C1122 C1123 1.502 . S
C1122 C1124 1.561 . S
C1122 C1125 1.526 . S
C1123 H1107 0.959 . S
C1123 H1108 0.959 . S
C1123 H1109 0.961 . S
C1123 C1122 1.502 . S
C1124 H1110 0.960 . S
C1124 H1111 0.961 . S
C1124 H1112 0.959 . S
C1124 C1122 1.561 . S
C1125 C1122 1.526 . S
C1125 C1126 1.396 . S
C1125 C1130 1.390 . S
C1126 C1120 1.465 . S
C1126 C1125 1.396 . S
C1126 C1127 1.399 . S
C1127 H1113 0.929 . S
C1127 C1126 1.399 . S
C1127 C1128 1.385 . S
C1128 H1114 0.931 . S
C1128 C1127 1.385 . S
C1128 C1129 1.389 . S
C1129 C1128 1.389 . S
C1129 C1130 1.387 . S
C1130 H1115 0.930 . S
C1130 C1125 1.390 . S
C1130 C1129 1.387 . S
H1131 C1143 0.930 . S
H1132 C1145 0.930 . S
H1133 C1146 0.930 . S
H1134 C1150 0.959 . S
H1135 C1150 0.959 . S
H1136 C1150 0.961 . S
H1137 C1151 0.960 . S
H1138 C1151 0.961 . S
H1139 C1151 0.959 . S
H1140 C1154 0.929 . S
H1141 C1155 0.931 . S
H1142 C1157 0.930 . S
C1143 H1131 0.930 . S
C1143 C1144 1.399 . S
C1143 C1148 1.399 . S
C1144 C1143 1.399 . S
C1144 C1145 1.376 . S
C1145 H1132 0.930 . S
C1145 C1144 1.376 . S
C1145 C1146 1.388 . S
C1146 H1133 0.930 . S
C1146 C1145 1.388 . S
C1146 C1147 1.390 . S
C1147 C1146 1.390 . S
C1147 C1148 1.394 . S
C1147 C1153 1.465 . S
C1148 C1143 1.399 . S
C1148 C1147 1.394 . S
C1148 C1149 1.516 . S
C1149 C1148 1.516 . S
C1149 C1150 1.502 . S
C1149 C1151 1.561 . S
C1149 C1152 1.526 . S
C1150 H1134 0.959 . S
C1150 H1135 0.959 . S
C1150 H1136 0.961 . S
C1150 C1149 1.502 . S
C1151 H1137 0.960 . S
C1151 H1138 0.961 . S
C1151 H1139 0.959 . S
C1151 C1149 1.561 . S
C1152 C1149 1.526 . S
C1152 C1153 1.396 . S
C1152 C1157 1.390 . S
C1153 C1147 1.465 . S
C1153 C1152 1.396 . S
C1153 C1154 1.399 . S
C1154 H1140 0.929 . S
C1154 C1153 1.399 . S
C1154 C1155 1.385 . S
C1155 H1141 0.931 . S
C1155 C1154 1.385 . S
C1155 C1156 1.389 . S
C1156 C1155 1.389 . S
C1156 C1157 1.387 . S
C1157 H1142 0.930 . S
C1157 C1152 1.390 . S
C1157 C1156 1.387 . S
H1158 C1170 0.930 . S
H1159 C1172 0.930 . S
H1160 C1173 0.930 . S
H1161 C1177 0.959 . S
H1162 C1177 0.959 . S
H1163 C1177 0.961 . S
H1164 C1178 0.960 . S
H1165 C1178 0.961 . S
H1166 C1178 0.959 . S
H1167 C1181 0.929 . S
H1168 C1182 0.931 . S
H1169 C1184 0.930 . S
C1170 H1158 0.930 . S
C1170 C1171 1.399 . S
C1170 C1175 1.399 . S
C1171 C1170 1.399 . S
C1171 C1172 1.376 . S
C1172 H1159 0.930 . S
C1172 C1171 1.376 . S
C1172 C1173 1.388 . S
C1173 H1160 0.930 . S
C1173 C1172 1.388 . S
C1173 C1174 1.390 . S
C1174 C1173 1.390 . S
C1174 C1175 1.394 . S
C1174 C1180 1.465 . S
C1175 C1170 1.399 . S
C1175 C1174 1.394 . S
C1175 C1176 1.516 . S
C1176 C1175 1.516 . S
C1176 C1177 1.502 . S
C1176 C1178 1.561 . S
C1176 C1179 1.526 . S
C1177 H1161 0.959 . S
C1177 H1162 0.959 . S
C1177 H1163 0.961 . S
C1177 C1176 1.502 . S
C1178 H1164 0.960 . S
C1178 H1165 0.961 . S
C1178 H1166 0.959 . S
C1178 C1176 1.561 . S
C1179 C1176 1.526 . S
C1179 C1180 1.396 . S
C1179 C1184 1.390 . S
C1180 C1174 1.465 . S
C1180 C1179 1.396 . S
C1180 C1181 1.399 . S
C1181 H1167 0.929 . S
C1181 C1180 1.399 . S
C1181 C1182 1.385 . S
C1182 H1168 0.931 . S
C1182 C1181 1.385 . S
C1182 C1183 1.389 . S
C1183 C1182 1.389 . S
C1183 C1184 1.387 . S
C1184 H1169 0.930 . S
C1184 C1179 1.390 . S
C1184 C1183 1.387 . S
H1185 C1197 0.930 . S
H1186 C1199 0.930 . S
H1187 C1200 0.930 . S
H1188 C1204 0.959 . S
H1189 C1204 0.959 . S
H1190 C1204 0.961 . S
H1191 C1205 0.960 . S
H1192 C1205 0.961 . S
H1193 C1205 0.959 . S
H1194 C1208 0.929 . S
H1195 C1209 0.931 . S
H1196 C1211 0.930 . S
C1197 H1185 0.930 . S
C1197 C1198 1.399 . S
C1197 C1202 1.399 . S
C1198 C1197 1.399 . S
C1198 C1199 1.376 . S
C1199 H1186 0.930 . S
C1199 C1198 1.376 . S
C1199 C1200 1.388 . S
C1200 H1187 0.930 . S
C1200 C1199 1.388 . S
C1200 C1201 1.390 . S
C1201 C1200 1.390 . S
C1201 C1202 1.394 . S
C1201 C1207 1.465 . S
C1202 C1197 1.399 . S
C1202 C1201 1.394 . S
C1202 C1203 1.516 . S
C1203 C1202 1.516 . S
C1203 C1204 1.502 . S
C1203 C1205 1.561 . S
C1203 C1206 1.526 . S
C1204 H1188 0.959 . S
C1204 H1189 0.959 . S
C1204 H1190 0.961 . S
C1204 C1203 1.502 . S
C1205 H1191 0.960 . S
C1205 H1192 0.961 . S
C1205 H1193 0.959 . S
C1205 C1203 1.561 . S
C1206 C1203 1.526 . S
C1206 C1207 1.396 . S
C1206 C1211 1.390 . S
C1207 C1201 1.465 . S
C1207 C1206 1.396 . S
C1207 C1208 1.399 . S
C1208 H1194 0.929 . S
C1208 C1207 1.399 . S
C1208 C1209 1.385 . S
C1209 H1195 0.931 . S
C1209 C1208 1.385 . S
C1209 C1210 1.389 . S
C1210 C1209 1.389 . S
C1210 C1211 1.387 . S
C1211 H1196 0.930 . S
C1211 C1206 1.390 . S
C1211 C1210 1.387 . S
H1212 C1224 0.930 . S
H1213 C1226 0.930 . S
H1214 C1227 0.930 . S
H1215 C1231 0.959 . S
H1216 C1231 0.959 . S
H1217 C1231 0.961 . S
H1218 C1232 0.960 . S
H1219 C1232 0.961 . S
H1220 C1232 0.959 . S
H1221 C1235 0.929 . S
H1222 C1236 0.931 . S
H1223 C1238 0.930 . S
C1224 H1212 0.930 . S
C1224 C1225 1.399 . S
C1224 C1229 1.399 . S
C1225 C1224 1.399 . S
C1225 C1226 1.376 . S
C1226 H1213 0.930 . S
C1226 C1225 1.376 . S
C1226 C1227 1.388 . S
C1227 H1214 0.930 . S
C1227 C1226 1.388 . S
C1227 C1228 1.390 . S
C1228 C1227 1.390 . S
C1228 C1229 1.394 . S
C1228 C1234 1.465 . S
C1229 C1224 1.399 . S
C1229 C1228 1.394 . S
C1229 C1230 1.516 . S
C1230 C1229 1.516 . S
C1230 C1231 1.502 . S
C1230 C1232 1.561 . S
C1230 C1233 1.526 . S
C1231 H1215 0.959 . S
C1231 H1216 0.959 . S
C1231 H1217 0.961 . S
C1231 C1230 1.502 . S
C1232 H1218 0.960 . S
C1232 H1219 0.961 . S
C1232 H1220 0.959 . S
C1232 C1230 1.561 . S
C1233 C1230 1.526 . S
C1233 C1234 1.396 . S
C1233 C1238 1.390 . S
C1234 C1228 1.465 . S
C1234 C1233 1.396 . S
C1234 C1235 1.399 . S
C1235 H1221 0.929 . S
C1235 C1234 1.399 . S
C1235 C1236 1.385 . S
C1236 H1222 0.931 . S
C1236 C1235 1.385 . S
C1236 C1237 1.389 . S
C1237 C1236 1.389 . S
C1237 C1238 1.387 . S
C1238 H1223 0.930 . S
C1238 C1233 1.390 . S
C1238 C1237 1.387 . S
H1239 C1251 0.930 . S
H1240 C1253 0.930 . S
H1241 C1254 0.930 . S
H1242 C1258 0.959 . S
H1243 C1258 0.959 . S
H1244 C1258 0.961 . S
H1245 C1259 0.960 . S
H1246 C1259 0.961 . S
H1247 C1259 0.959 . S
H1248 C1262 0.929 . S
H1249 C1263 0.931 . S
H1250 C1265 0.930 . S
C1251 H1239 0.930 . S
C1251 C1252 1.399 . S
C1251 C1256 1.399 . S
C1252 C1251 1.399 . S
C1252 C1253 1.376 . S
C1253 H1240 0.930 . S
C1253 C1252 1.376 . S
C1253 C1254 1.388 . S
C1254 H1241 0.930 . S
C1254 C1253 1.388 . S
C1254 C1255 1.390 . S
C1255 C1254 1.390 . S
C1255 C1256 1.394 . S
C1255 C1261 1.465 . S
C1256 C1251 1.399 . S
C1256 C1255 1.394 . S
C1256 C1257 1.516 . S
C1257 C1256 1.516 . S
C1257 C1258 1.502 . S
C1257 C1259 1.561 . S
C1257 C1260 1.526 . S
C1258 H1242 0.959 . S
C1258 H1243 0.959 . S
C1258 H1244 0.961 . S
C1258 C1257 1.502 . S
C1259 H1245 0.960 . S
C1259 H1246 0.961 . S
C1259 H1247 0.959 . S
C1259 C1257 1.561 . S
C1260 C1257 1.526 . S
C1260 C1261 1.396 . S
C1260 C1265 1.390 . S
C1261 C1255 1.465 . S
C1261 C1260 1.396 . S
C1261 C1262 1.399 . S
C1262 H1248 0.929 . S
C1262 C1261 1.399 . S
C1262 C1263 1.385 . S
C1263 H1249 0.931 . S
C1263 C1262 1.385 . S
C1263 C1264 1.389 . S
C1264 C1263 1.389 . S
C1264 C1265 1.387 . S
C1265 H1250 0.930 . S
C1265 C1260 1.390 . S
C1265 C1264 1.387 . S
H1266 C1278 0.930 . S
H1267 C1280 0.930 . S
H1268 C1281 0.930 . S
H1269 C1285 0.959 . S
H1270 C1285 0.959 . S
H1271 C1285 0.961 . S
H1272 C1286 0.960 . S
H1273 C1286 0.961 . S
H1274 C1286 0.959 . S
H1275 C1289 0.929 . S
H1276 C1290 0.931 . S
H1277 C1292 0.930 . S
C1278 H1266 0.930 . S
C1278 C1279 1.399 . S
C1278 C1283 1.399 . S
C1279 C1278 1.399 . S
C1279 C1280 1.376 . S
C1280 H1267 0.930 . S
C1280 C1279 1.376 . S
C1280 C1281 1.388 . S
C1281 H1268 0.930 . S
C1281 C1280 1.388 . S
C1281 C1282 1.390 . S
C1282 C1281 1.390 . S
C1282 C1283 1.394 . S
C1282 C1288 1.465 . S
C1283 C1278 1.399 . S
C1283 C1282 1.394 . S
C1283 C1284 1.516 . S
C1284 C1283 1.516 . S
C1284 C1285 1.502 . S
C1284 C1286 1.561 . S
C1284 C1287 1.526 . S
C1285 H1269 0.959 . S
C1285 H1270 0.959 . S
C1285 H1271 0.961 . S
C1285 C1284 1.502 . S
C1286 H1272 0.960 . S
C1286 H1273 0.961 . S
C1286 H1274 0.959 . S
C1286 C1284 1.561 . S
C1287 C1284 1.526 . S
C1287 C1288 1.396 . S
C1287 C1292 1.390 . S
C1288 C1282 1.465 . S
C1288 C1287 1.396 . S
C1288 C1289 1.399 . S
C1289 H1275 0.929 . S
C1289 C1288 1.399 . S
C1289 C1290 1.385 . S
C1290 H1276 0.931 . S
C1290 C1289 1.385 . S
C1290 C1291 1.389 . S
C1291 C1290 1.389 . S
C1291 C1292 1.387 . S
C1292 H1277 0.930 . S
C1292 C1287 1.390 . S
C1292 C1291 1.387 . S
H1293 C1305 0.930 . S
H1294 C1307 0.930 . S
H1295 C1308 0.930 . S
H1296 C1312 0.959 . S
H1297 C1312 0.959 . S
H1298 C1312 0.961 . S
H1299 C1313 0.960 . S
H1300 C1313 0.961 . S
H1301 C1313 0.959 . S
H1302 C1316 0.929 . S
H1303 C1317 0.931 . S
H1304 C1319 0.930 . S
C1305 H1293 0.930 . S
C1305 C1306 1.399 . S
C1305 C1310 1.399 . S
C1306 C1305 1.399 . S
C1306 C1307 1.376 . S
C1307 H1294 0.930 . S
C1307 C1306 1.376 . S
C1307 C1308 1.388 . S
C1308 H1295 0.930 . S
C1308 C1307 1.388 . S
C1308 C1309 1.390 . S
C1309 C1308 1.390 . S
C1309 C1310 1.394 . S
C1309 C1315 1.465 . S
C1310 C1305 1.399 . S
C1310 C1309 1.394 . S
C1310 C1311 1.516 . S
C1311 C1310 1.516 . S
C1311 C1312 1.502 . S
C1311 C1313 1.561 . S
C1311 C1314 1.526 . S
C1312 H1296 0.959 . S
C1312 H1297 0.959 . S
C1312 H1298 0.961 . S
C1312 C1311 1.502 . S
C1313 H1299 0.960 . S
C1313 H1300 0.961 . S
C1313 H1301 0.959 . S
C1313 C1311 1.561 . S
C1314 C1311 1.526 . S
C1314 C1315 1.396 . S
C1314 C1319 1.390 . S
C1315 C1309 1.465 . S
C1315 C1314 1.396 . S
C1315 C1316 1.399 . S
C1316 H1302 0.929 . S
C1316 C1315 1.399 . S
C1316 C1317 1.385 . S
C1317 H1303 0.931 . S
C1317 C1316 1.385 . S
C1317 C1318 1.389 . S
C1318 C1317 1.389 . S
C1318 C1319 1.387 . S
C1319 H1304 0.930 . S
C1319 C1314 1.390 . S
C1319 C1318 1.387 . S
H1320 C1332 0.930 . S
H1321 C1334 0.930 . S
H1322 C1335 0.930 . S
H1323 C1339 0.959 . S
H1324 C1339 0.959 . S
H1325 C1339 0.961 . S
H1326 C1340 0.960 . S
H1327 C1340 0.961 . S
H1328 C1340 0.959 . S
H1329 C1343 0.929 . S
H1330 C1344 0.931 . S
H1331 C1346 0.930 . S
C1332 H1320 0.930 . S
C1332 C1333 1.399 . S
C1332 C1337 1.399 . S
C1333 C1332 1.399 . S
C1333 C1334 1.376 . S
C1334 H1321 0.930 . S
C1334 C1333 1.376 . S
C1334 C1335 1.388 . S
C1335 H1322 0.930 . S
C1335 C1334 1.388 . S
C1335 C1336 1.390 . S
C1336 C1335 1.390 . S
C1336 C1337 1.394 . S
C1336 C1342 1.465 . S
C1337 C1332 1.399 . S
C1337 C1336 1.394 . S
C1337 C1338 1.516 . S
C1338 C1337 1.516 . S
C1338 C1339 1.502 . S
C1338 C1340 1.561 . S
C1338 C1341 1.526 . S
C1339 H1323 0.959 . S
C1339 H1324 0.959 . S
C1339 H1325 0.961 . S
C1339 C1338 1.502 . S
C1340 H1326 0.960 . S
C1340 H1327 0.961 . S
C1340 H1328 0.959 . S
C1340 C1338 1.561 . S
C1341 C1338 1.526 . S
C1341 C1342 1.396 . S
C1341 C1346 1.390 . S
C1342 C1336 1.465 . S
C1342 C1341 1.396 . S
C1342 C1343 1.399 . S
C1343 H1329 0.929 . S
C1343 C1342 1.399 . S
C1343 C1344 1.385 . S
C1344 H1330 0.931 . S
C1344 C1343 1.385 . S
C1344 C1345 1.389 . S
C1345 C1344 1.389 . S
C1345 C1346 1.387 . S
C1346 H1331 0.930 . S
C1346 C1341 1.390 . S
C1346 C1345 1.387 . S
H1347 C1359 0.930 . S
H1348 C1361 0.930 . S
H1349 C1362 0.930 . S
H1350 C1366 0.959 . S
H1351 C1366 0.959 . S
H1352 C1366 0.961 . S
H1353 C1367 0.960 . S
H1354 C1367 0.961 . S
H1355 C1367 0.959 . S
H1356 C1370 0.929 . S
H1357 C1371 0.931 . S
H1358 C1373 0.930 . S
C1359 H1347 0.930 . S
C1359 C1360 1.399 . S
C1359 C1364 1.399 . S
C1360 C1359 1.399 . S
C1360 C1361 1.376 . S
C1361 H1348 0.930 . S
C1361 C1360 1.376 . S
C1361 C1362 1.388 . S
C1362 H1349 0.930 . S
C1362 C1361 1.388 . S
C1362 C1363 1.390 . S
C1363 C1362 1.390 . S
C1363 C1364 1.394 . S
C1363 C1369 1.465 . S
C1364 C1359 1.399 . S
C1364 C1363 1.394 . S
C1364 C1365 1.516 . S
C1365 C1364 1.516 . S
C1365 C1366 1.502 . S
C1365 C1367 1.561 . S
C1365 C1368 1.526 . S
C1366 H1350 0.959 . S
C1366 H1351 0.959 . S
C1366 H1352 0.961 . S
C1366 C1365 1.502 . S
C1367 H1353 0.960 . S
C1367 H1354 0.961 . S
C1367 H1355 0.959 . S
C1367 C1365 1.561 . S
C1368 C1365 1.526 . S
C1368 C1369 1.396 . S
C1368 C1373 1.390 . S
C1369 C1363 1.465 . S
C1369 C1368 1.396 . S
C1369 C1370 1.399 . S
C1370 H1356 0.929 . S
C1370 C1369 1.399 . S
C1370 C1371 1.385 . S
C1371 H1357 0.931 . S
C1371 C1370 1.385 . S
C1371 C1372 1.389 . S
C1372 C1371 1.389 . S
C1372 C1373 1.387 . S
C1373 H1358 0.930 . S
C1373 C1368 1.390 . S
C1373 C1372 1.387 . S
H1374 C1386 0.930 . S
H1375 C1388 0.930 . S
H1376 C1389 0.930 . S
H1377 C1393 0.959 . S
H1378 C1393 0.959 . S
H1379 C1393 0.961 . S
H1380 C1394 0.960 . S
H1381 C1394 0.961 . S
H1382 C1394 0.959 . S
H1383 C1397 0.929 . S
H1384 C1398 0.931 . S
H1385 C1400 0.930 . S
C1386 H1374 0.930 . S
C1386 C1387 1.399 . S
C1386 C1391 1.399 . S
C1387 C1386 1.399 . S
C1387 C1388 1.376 . S
C1388 H1375 0.930 . S
C1388 C1387 1.376 . S
C1388 C1389 1.388 . S
C1389 H1376 0.930 . S
C1389 C1388 1.388 . S
C1389 C1390 1.390 . S
C1390 C1389 1.390 . S
C1390 C1391 1.394 . S
C1390 C1396 1.465 . S
C1391 C1386 1.399 . S
C1391 C1390 1.394 . S
C1391 C1392 1.516 . S
C1392 C1391 1.516 . S
C1392 C1393 1.502 . S
C1392 C1394 1.561 . S
C1392 C1395 1.526 . S
C1393 H1377 0.959 . S
C1393 H1378 0.959 . S
C1393 H1379 0.961 . S
C1393 C1392 1.502 . S
C1394 H1380 0.960 . S
C1394 H1381 0.961 . S
C1394 H1382 0.959 . S
C1394 C1392 1.561 . S
C1395 C1392 1.526 . S
C1395 C1396 1.396 . S
C1395 C1400 1.390 . S
C1396 C1390 1.465 . S
C1396 C1395 1.396 . S
C1396 C1397 1.399 . S
C1397 H1383 0.929 . S
C1397 C1396 1.399 . S
C1397 C1398 1.385 . S
C1398 H1384 0.931 . S
C1398 C1397 1.385 . S
C1398 C1399 1.389 . S
C1399 C1398 1.389 . S
C1399 C1400 1.387 . S
C1400 H1385 0.930 . S
C1400 C1395 1.390 . S
C1400 C1399 1.387 . S
H1401 C1413 0.930 . S
H1402 C1415 0.930 . S
H1403 C1416 0.930 . S
H1404 C1420 0.959 . S
H1405 C1420 0.959 . S
H1406 C1420 0.961 . S
H1407 C1421 0.960 . S
H1408 C1421 0.961 . S
H1409 C1421 0.959 . S
H1410 C1424 0.929 . S
H1411 C1425 0.931 . S
H1412 C1427 0.930 . S
C1413 H1401 0.930 . S
C1413 C1414 1.399 . S
C1413 C1418 1.399 . S
C1414 C1413 1.399 . S
C1414 C1415 1.376 . S
C1415 H1402 0.930 . S
C1415 C1414 1.376 . S
C1415 C1416 1.388 . S
C1416 H1403 0.930 . S
C1416 C1415 1.388 . S
C1416 C1417 1.390 . S
C1417 C1416 1.390 . S
C1417 C1418 1.394 . S
C1417 C1423 1.465 . S
C1418 C1413 1.399 . S
C1418 C1417 1.394 . S
C1418 C1419 1.516 . S
C1419 C1418 1.516 . S
C1419 C1420 1.502 . S
C1419 C1421 1.561 . S
C1419 C1422 1.526 . S
C1420 H1404 0.959 . S
C1420 H1405 0.959 . S
C1420 H1406 0.961 . S
C1420 C1419 1.502 . S
C1421 H1407 0.960 . S
C1421 H1408 0.961 . S
C1421 H1409 0.959 . S
C1421 C1419 1.561 . S
C1422 C1419 1.526 . S
C1422 C1423 1.396 . S
C1422 C1427 1.390 . S
C1423 C1417 1.465 . S
C1423 C1422 1.396 . S
C1423 C1424 1.399 . S
C1424 H1410 0.929 . S
C1424 C1423 1.399 . S
C1424 C1425 1.385 . S
C1425 H1411 0.931 . S
C1425 C1424 1.385 . S
C1425 C1426 1.389 . S
C1426 C1425 1.389 . S
C1426 C1427 1.387 . S
C1427 H1412 0.930 . S
C1427 C1422 1.390 . S
C1427 C1426 1.387 . S
H1428 C1440 0.930 . S
H1429 C1442 0.930 . S
H1430 C1443 0.930 . S
H1431 C1447 0.959 . S
H1432 C1447 0.959 . S
H1433 C1447 0.961 . S
H1434 C1448 0.960 . S
H1435 C1448 0.961 . S
H1436 C1448 0.959 . S
H1437 C1451 0.929 . S
H1438 C1452 0.931 . S
H1439 C1454 0.930 . S
C1440 H1428 0.930 . S
C1440 C1441 1.399 . S
C1440 C1445 1.399 . S
C1441 C1440 1.399 . S
C1441 C1442 1.376 . S
C1442 H1429 0.930 . S
C1442 C1441 1.376 . S
C1442 C1443 1.388 . S
C1443 H1430 0.930 . S
C1443 C1442 1.388 . S
C1443 C1444 1.390 . S
C1444 C1443 1.390 . S
C1444 C1445 1.394 . S
C1444 C1450 1.465 . S
C1445 C1440 1.399 . S
C1445 C1444 1.394 . S
C1445 C1446 1.516 . S
C1446 C1445 1.516 . S
C1446 C1447 1.502 . S
C1446 C1448 1.561 . S
C1446 C1449 1.526 . S
C1447 H1431 0.959 . S
C1447 H1432 0.959 . S
C1447 H1433 0.961 . S
C1447 C1446 1.502 . S
C1448 H1434 0.960 . S
C1448 H1435 0.961 . S
C1448 H1436 0.959 . S
C1448 C1446 1.561 . S
C1449 C1446 1.526 . S
C1449 C1450 1.396 . S
C1449 C1454 1.390 . S
C1450 C1444 1.465 . S
C1450 C1449 1.396 . S
C1450 C1451 1.399 . S
C1451 H1437 0.929 . S
C1451 C1450 1.399 . S
C1451 C1452 1.385 . S
C1452 H1438 0.931 . S
C1452 C1451 1.385 . S
C1452 C1453 1.389 . S
C1453 C1452 1.389 . S
C1453 C1454 1.387 . S
C1454 H1439 0.930 . S
C1454 C1449 1.390 . S
C1454 C1453 1.387 . S
H1455 C1467 0.930 . S
H1456 C1469 0.930 . S
H1457 C1470 0.930 . S
H1458 C1474 0.959 . S
H1459 C1474 0.959 . S
H1460 C1474 0.961 . S
H1461 C1475 0.960 . S
H1462 C1475 0.961 . S
H1463 C1475 0.959 . S
H1464 C1478 0.929 . S
H1465 C1479 0.931 . S
H1466 C1481 0.930 . S
C1467 H1455 0.930 . S
C1467 C1468 1.399 . S
C1467 C1472 1.399 . S
C1468 C1467 1.399 . S
C1468 C1469 1.376 . S
C1469 H1456 0.930 . S
C1469 C1468 1.376 . S
C1469 C1470 1.388 . S
C1470 H1457 0.930 . S
C1470 C1469 1.388 . S
C1470 C1471 1.390 . S
C1471 C1470 1.390 . S
C1471 C1472 1.394 . S
C1471 C1477 1.465 . S
C1472 C1467 1.399 . S
C1472 C1471 1.394 . S
C1472 C1473 1.516 . S
C1473 C1472 1.516 . S
C1473 C1474 1.502 . S
C1473 C1475 1.561 . S
C1473 C1476 1.526 . S
C1474 H1458 0.959 . S
C1474 H1459 0.959 . S
C1474 H1460 0.961 . S
C1474 C1473 1.502 . S
C1475 H1461 0.960 . S
C1475 H1462 0.961 . S
C1475 H1463 0.959 . S
C1475 C1473 1.561 . S
C1476 C1473 1.526 . S
C1476 C1477 1.396 . S
C1476 C1481 1.390 . S
C1477 C1471 1.465 . S
C1477 C1476 1.396 . S
C1477 C1478 1.399 . S
C1478 H1464 0.929 . S
C1478 C1477 1.399 . S
C1478 C1479 1.385 . S
C1479 H1465 0.931 . S
C1479 C1478 1.385 . S
C1479 C1480 1.389 . S
C1480 C1479 1.389 . S
C1480 C1481 1.387 . S
C1481 H1466 0.930 . S
C1481 C1476 1.390 . S
C1481 C1480 1.387 . S
H1482 C1494 0.930 . S
H1483 C1496 0.930 . S
H1484 C1497 0.930 . S
H1485 C1501 0.959 . S
H1486 C1501 0.959 . S
H1487 C1501 0.961 . S
H1488 C1502 0.960 . S
H1489 C1502 0.961 . S
H1490 C1502 0.959 . S
H1491 C1505 0.929 . S
H1492 C1506 0.931 . S
H1493 C1508 0.930 . S
C1494 H1482 0.930 . S
C1494 C1495 1.399 . S
C1494 C1499 1.399 . S
C1495 C1494 1.399 . S
C1495 C1496 1.376 . S
C1496 H1483 0.930 . S
C1496 C1495 1.376 . S
C1496 C1497 1.388 . S
C1497 H1484 0.930 . S
C1497 C1496 1.388 . S
C1497 C1498 1.390 . S
C1498 C1497 1.390 . S
C1498 C1499 1.394 . S
C1498 C1504 1.465 . S
C1499 C1494 1.399 . S
C1499 C1498 1.394 . S
C1499 C1500 1.516 . S
C1500 C1499 1.516 . S
C1500 C1501 1.502 . S
C1500 C1502 1.561 . S
C1500 C1503 1.526 . S
C1501 H1485 0.959 . S
C1501 H1486 0.959 . S
C1501 H1487 0.961 . S
C1501 C1500 1.502 . S
C1502 H1488 0.960 . S
C1502 H1489 0.961 . S
C1502 H1490 0.959 . S
C1502 C1500 1.561 . S
C1503 C1500 1.526 . S
C1503 C1504 1.396 . S
C1503 C1508 1.390 . S
C1504 C1498 1.465 . S
C1504 C1503 1.396 . S
C1504 C1505 1.399 . S
C1505 H1491 0.929 . S
C1505 C1504 1.399 . S
C1505 C1506 1.385 . S
C1506 H1492 0.931 . S
C1506 C1505 1.385 . S
C1506 C1507 1.389 . S
C1507 C1506 1.389 . S
C1507 C1508 1.387 . S
C1508 H1493 0.930 . S
C1508 C1503 1.390 . S
C1508 C1507 1.387 . S
H1509 C1521 0.930 . S
H1510 C1523 0.930 . S
H1511 C1524 0.930 . S
H1512 C1528 0.959 . S
H1513 C1528 0.959 . S
H1514 C1528 0.961 . S
H1515 C1529 0.960 . S
H1516 C1529 0.961 . S
H1517 C1529 0.959 . S
H1518 C1532 0.929 . S
H1519 C1533 0.931 . S
H1520 C1535 0.930 . S
C1521 H1509 0.930 . S
C1521 C1522 1.399 . S
C1521 C1526 1.399 . S
C1522 C1521 1.399 . S
C1522 C1523 1.376 . S
C1523 H1510 0.930 . S
C1523 C1522 1.376 . S
C1523 C1524 1.388 . S
C1524 H1511 0.930 . S
C1524 C1523 1.388 . S
C1524 C1525 1.390 . S
C1525 C1524 1.390 . S
C1525 C1526 1.394 . S
C1525 C1531 1.465 . S
C1526 C1521 1.399 . S
C1526 C1525 1.394 . S
C1526 C1527 1.516 . S
C1527 C1526 1.516 . S
C1527 C1528 1.502 . S
C1527 C1529 1.561 . S
C1527 C1530 1.526 . S
C1528 H1512 0.959 . S
C1528 H1513 0.959 . S
C1528 H1514 0.961 . S
C1528 C1527 1.502 . S
C1529 H1515 0.960 . S
C1529 H1516 0.961 . S
C1529 H1517 0.959 . S
C1529 C1527 1.561 . S
C1530 C1527 1.526 . S
C1530 C1531 1.396 . S
C1530 C1535 1.390 . S
C1531 C1525 1.465 . S
C1531 C1530 1.396 . S
C1531 C1532 1.399 . S
C1532 H1518 0.929 . S
C1532 C1531 1.399 . S
C1532 C1533 1.385 . S
C1533 H1519 0.931 . S
C1533 C1532 1.385 . S
C1533 C1534 1.389 . S
C1534 C1533 1.389 . S
C1534 C1535 1.387 . S
C1535 H1520 0.930 . S
C1535 C1530 1.390 . S
C1535 C1534 1.387 . S
H1536 C1548 0.930 . S
H1537 C1550 0.930 . S
H1538 C1551 0.930 . S
H1539 C1555 0.959 . S
H1540 C1555 0.959 . S
H1541 C1555 0.961 . S
H1542 C1556 0.960 . S
H1543 C1556 0.961 . S
H1544 C1556 0.959 . S
H1545 C1559 0.929 . S
H1546 C1560 0.931 . S
H1547 C1562 0.930 . S
C1548 H1536 0.930 . S
C1548 C1549 1.399 . S
C1548 C1553 1.399 . S
C1549 C1548 1.399 . S
C1549 C1550 1.376 . S
C1550 H1537 0.930 . S
C1550 C1549 1.376 . S
C1550 C1551 1.388 . S
C1551 H1538 0.930 . S
C1551 C1550 1.388 . S
C1551 C1552 1.390 . S
C1552 C1551 1.390 . S
C1552 C1553 1.394 . S
C1552 C1558 1.465 . S
C1553 C1548 1.399 . S
C1553 C1552 1.394 . S
C1553 C1554 1.516 . S
C1554 C1553 1.516 . S
C1554 C1555 1.502 . S
C1554 C1556 1.561 . S
C1554 C1557 1.526 . S
C1555 H1539 0.959 . S
C1555 H1540 0.959 . S
C1555 H1541 0.961 . S
C1555 C1554 1.502 . S
C1556 H1542 0.960 . S
C1556 H1543 0.961 . S
C1556 H1544 0.959 . S
C1556 C1554 1.561 . S
C1557 C1554 1.526 . S
C1557 C1558 1.396 . S
C1557 C1562 1.390 . S
C1558 C1552 1.465 . S
C1558 C1557 1.396 . S
C1558 C1559 1.399 . S
C1559 H1545 0.929 . S
C1559 C1558 1.399 . S
C1559 C1560 1.385 . S
C1560 H1546 0.931 . S
C1560 C1559 1.385 . S
C1560 C1561 1.389 . S
C1561 C1560 1.389 . S
C1561 C1562 1.387 . S
C1562 H1547 0.930 . S
C1562 C1557 1.390 . S
C1562 C1561 1.387 . S
H1563 C1575 0.930 . S
H1564 C1577 0.930 . S
H1565 C1578 0.930 . S
H1566 C1582 0.959 . S
H1567 C1582 0.959 . S
H1568 C1582 0.961 . S
H1569 C1583 0.960 . S
H1570 C1583 0.961 . S
H1571 C1583 0.959 . S
H1572 C1586 0.929 . S
H1573 C1587 0.931 . S
H1574 C1589 0.930 . S
C1575 H1563 0.930 . S
C1575 C1576 1.399 . S
C1575 C1580 1.399 . S
C1576 C1575 1.399 . S
C1576 C1577 1.376 . S
C1577 H1564 0.930 . S
C1577 C1576 1.376 . S
C1577 C1578 1.388 . S
C1578 H1565 0.930 . S
C1578 C1577 1.388 . S
C1578 C1579 1.390 . S
C1579 C1578 1.390 . S
C1579 C1580 1.394 . S
C1579 C1585 1.465 . S
C1580 C1575 1.399 . S
C1580 C1579 1.394 . S
C1580 C1581 1.516 . S
C1581 C1580 1.516 . S
C1581 C1582 1.502 . S
C1581 C1583 1.561 . S
C1581 C1584 1.526 . S
C1582 H1566 0.959 . S
C1582 H1567 0.959 . S
C1582 H1568 0.961 . S
C1582 C1581 1.502 . S
C1583 H1569 0.960 . S
C1583 H1570 0.961 . S
C1583 H1571 0.959 . S
C1583 C1581 1.561 . S
C1584 C1581 1.526 . S
C1584 C1585 1.396 . S
C1584 C1589 1.390 . S
C1585 C1579 1.465 . S
C1585 C1584 1.396 . S
C1585 C1586 1.399 . S
C1586 H1572 0.929 . S
C1586 C1585 1.399 . S
C1586 C1587 1.385 . S
C1587 H1573 0.931 . S
C1587 C1586 1.385 . S
C1587 C1588 1.389 . S
C1588 C1587 1.389 . S
C1588 C1589 1.387 . S
C1589 H1574 0.930 . S
C1589 C1584 1.390 . S
C1589 C1588 1.387 . S
H1590 C1602 0.930 . S
H1591 C1604 0.930 . S
H1592 C1605 0.930 . S
H1593 C1609 0.959 . S
H1594 C1609 0.959 . S
H1595 C1609 0.961 . S
H1596 C1610 0.960 . S
H1597 C1610 0.961 . S
H1598 C1610 0.959 . S
H1599 C1613 0.929 . S
H1600 C1614 0.931 . S
H1601 C1616 0.930 . S
C1602 H1590 0.930 . S
C1602 C1603 1.399 . S
C1602 C1607 1.399 . S
C1603 C1602 1.399 . S
C1603 C1604 1.376 . S
C1604 H1591 0.930 . S
C1604 C1603 1.376 . S
C1604 C1605 1.388 . S
C1605 H1592 0.930 . S
C1605 C1604 1.388 . S
C1605 C1606 1.390 . S
C1606 C1605 1.390 . S
C1606 C1607 1.394 . S
C1606 C1612 1.465 . S
C1607 C1602 1.399 . S
C1607 C1606 1.394 . S
C1607 C1608 1.516 . S
C1608 C1607 1.516 . S
C1608 C1609 1.502 . S
C1608 C1610 1.561 . S
C1608 C1611 1.526 . S
C1609 H1593 0.959 . S
C1609 H1594 0.959 . S
C1609 H1595 0.961 . S
C1609 C1608 1.502 . S
C1610 H1596 0.960 . S
C1610 H1597 0.961 . S
C1610 H1598 0.959 . S
C1610 C1608 1.561 . S
C1611 C1608 1.526 . S
C1611 C1612 1.396 . S
C1611 C1616 1.390 . S
C1612 C1606 1.465 . S
C1612 C1611 1.396 . S
C1612 C1613 1.399 . S
C1613 H1599 0.929 . S
C1613 C1612 1.399 . S
C1613 C1614 1.385 . S
C1614 H1600 0.931 . S
C1614 C1613 1.385 . S
C1614 C1615 1.389 . S
C1615 C1614 1.389 . S
C1615 C1616 1.387 . S
C1616 H1601 0.930 . S
C1616 C1611 1.390 . S
C1616 C1615 1.387 . S
H1617 C1629 0.930 . S
H1618 C1631 0.930 . S
H1619 C1632 0.930 . S
H1620 C1636 0.959 . S
H1621 C1636 0.959 . S
H1622 C1636 0.961 . S
H1623 C1637 0.960 . S
H1624 C1637 0.961 . S
H1625 C1637 0.959 . S
H1626 C1640 0.929 . S
H1627 C1641 0.931 . S
H1628 C1643 0.930 . S
C1629 H1617 0.930 . S
C1629 C1630 1.399 . S
C1629 C1634 1.399 . S
C1630 C1629 1.399 . S
C1630 C1631 1.376 . S
C1631 H1618 0.930 . S
C1631 C1630 1.376 . S
C1631 C1632 1.388 . S
C1632 H1619 0.930 . S
C1632 C1631 1.388 . S
C1632 C1633 1.390 . S
C1633 C1632 1.390 . S
C1633 C1634 1.394 . S
C1633 C1639 1.465 . S
C1634 C1629 1.399 . S
C1634 C1633 1.394 . S
C1634 C1635 1.516 . S
C1635 C1634 1.516 . S
C1635 C1636 1.502 . S
C1635 C1637 1.561 . S
C1635 C1638 1.526 . S
C1636 H1620 0.959 . S
C1636 H1621 0.959 . S
C1636 H1622 0.961 . S
C1636 C1635 1.502 . S
C1637 H1623 0.960 . S
C1637 H1624 0.961 . S
C1637 H1625 0.959 . S
C1637 C1635 1.561 . S
C1638 C1635 1.526 . S
C1638 C1639 1.396 . S
C1638 C1643 1.390 . S
C1639 C1633 1.465 . S
C1639 C1638 1.396 . S
C1639 C1640 1.399 . S
C1640 H1626 0.929 . S
C1640 C1639 1.399 . S
C1640 C1641 1.385 . S
C1641 H1627 0.931 . S
C1641 C1640 1.385 . S
C1641 C1642 1.389 . S
C1642 C1641 1.389 . S
C1642 C1643 1.387 . S
C1643 H1628 0.930 . S
C1643 C1638 1.390 . S
C1643 C1642 1.387 . S
H1644 C1656 0.930 . S
H1645 C1658 0.930 . S
H1646 C1659 0.930 . S
H1647 C1663 0.959 . S
H1648 C1663 0.959 . S
H1649 C1663 0.961 . S
H1650 C1664 0.960 . S
H1651 C1664 0.961 . S
H1652 C1664 0.959 . S
H1653 C1667 0.929 . S
H1654 C1668 0.931 . S
H1655 C1670 0.930 . S
C1656 H1644 0.930 . S
C1656 C1657 1.399 . S
C1656 C1661 1.399 . S
C1657 C1656 1.399 . S
C1657 C1658 1.376 . S
C1658 H1645 0.930 . S
C1658 C1657 1.376 . S
C1658 C1659 1.388 . S
C1659 H1646 0.930 . S
C1659 C1658 1.388 . S
C1659 C1660 1.390 . S
C1660 C1659 1.390 . S
C1660 C1661 1.394 . S
C1660 C1666 1.465 . S
C1661 C1656 1.399 . S
C1661 C1660 1.394 . S
C1661 C1662 1.516 . S
C1662 C1661 1.516 . S
C1662 C1663 1.502 . S
C1662 C1664 1.561 . S
C1662 C1665 1.526 . S
C1663 H1647 0.959 . S
C1663 H1648 0.959 . S
C1663 H1649 0.961 . S
C1663 C1662 1.502 . S
C1664 H1650 0.960 . S
C1664 H1651 0.961 . S
C1664 H1652 0.959 . S
C1664 C1662 1.561 . S
C1665 C1662 1.526 . S
C1665 C1666 1.396 . S
C1665 C1670 1.390 . S
C1666 C1660 1.465 . S
C1666 C1665 1.396 . S
C1666 C1667 1.399 . S
C1667 H1653 0.929 . S
C1667 C1666 1.399 . S
C1667 C1668 1.385 . S
C1668 H1654 0.931 . S
C1668 C1667 1.385 . S
C1668 C1669 1.389 . S
C1669 C1668 1.389 . S
C1669 C1670 1.387 . S
C1670 H1655 0.930 . S
C1670 C1665 1.390 . S
C1670 C1669 1.387 . S
H1671 C1683 0.930 . S
H1672 C1685 0.930 . S
H1673 C1686 0.930 . S
H1674 C1690 0.959 . S
H1675 C1690 0.959 . S
H1676 C1690 0.961 . S
H1677 C1691 0.960 . S
H1678 C1691 0.961 . S
H1679 C1691 0.959 . S
H1680 C1694 0.929 . S
H1681 C1695 0.931 . S
H1682 C1697 0.930 . S
C1683 H1671 0.930 . S
C1683 C1684 1.399 . S
C1683 C1688 1.399 . S
C1684 C1683 1.399 . S
C1684 C1685 1.376 . S
C1685 H1672 0.930 . S
C1685 C1684 1.376 . S
C1685 C1686 1.388 . S
C1686 H1673 0.930 . S
C1686 C1685 1.388 . S
C1686 C1687 1.390 . S
C1687 C1686 1.390 . S
C1687 C1688 1.394 . S
C1687 C1693 1.465 . S
C1688 C1683 1.399 . S
C1688 C1687 1.394 . S
C1688 C1689 1.516 . S
C1689 C1688 1.516 . S
C1689 C1690 1.502 . S
C1689 C1691 1.561 . S
C1689 C1692 1.526 . S
C1690 H1674 0.959 . S
C1690 H1675 0.959 . S
C1690 H1676 0.961 . S
C1690 C1689 1.502 . S
C1691 H1677 0.960 . S
C1691 H1678 0.961 . S
C1691 H1679 0.959 . S
C1691 C1689 1.561 . S
C1692 C1689 1.526 . S
C1692 C1693 1.396 . S
C1692 C1697 1.390 . S
C1693 C1687 1.465 . S
C1693 C1692 1.396 . S
C1693 C1694 1.399 . S
C1694 H1680 0.929 . S
C1694 C1693 1.399 . S
C1694 C1695 1.385 . S
C1695 H1681 0.931 . S
C1695 C1694 1.385 . S
C1695 C1696 1.389 . S
C1696 C1695 1.389 . S
C1696 C1697 1.387 . S
C1697 H1682 0.930 . S
C1697 C1692 1.390 . S
C1697 C1696 1.387 . S
H1698 C1710 0.930 . S
H1699 C1712 0.930 . S
H1700 C1713 0.930 . S
H1701 C1717 0.959 . S
H1702 C1717 0.959 . S
H1703 C1717 0.961 . S
H1704 C1718 0.960 . S
H1705 C1718 0.961 . S
H1706 C1718 0.959 . S
H1707 C1721 0.929 . S
H1708 C1722 0.931 . S
H1709 C1724 0.930 . S
C1710 H1698 0.930 . S
C1710 C1711 1.399 . S
C1710 C1715 1.399 . S
C1711 C1710 1.399 . S
C1711 C1712 1.376 . S
C1712 H1699 0.930 . S
C1712 C1711 1.376 . S
C1712 C1713 1.388 . S
C1713 H1700 0.930 . S
C1713 C1712 1.388 . S
C1713 C1714 1.390 . S
C1714 C1713 1.390 . S
C1714 C1715 1.394 . S
C1714 C1720 1.465 . S
C1715 C1710 1.399 . S
C1715 C1714 1.394 . S
C1715 C1716 1.516 . S
C1716 C1715 1.516 . S
C1716 C1717 1.502 . S
C1716 C1718 1.561 . S
C1716 C1719 1.526 . S
C1717 H1701 0.959 . S
C1717 H1702 0.959 . S
C1717 H1703 0.961 . S
C1717 C1716 1.502 . S
C1718 H1704 0.960 . S
C1718 H1705 0.961 . S
C1718 H1706 0.959 . S
C1718 C1716 1.561 . S
C1719 C1716 1.526 . S
C1719 C1720 1.396 . S
C1719 C1724 1.390 . S
C1720 C1714 1.465 . S
C1720 C1719 1.396 . S
C1720 C1721 1.399 . S
C1721 H1707 0.929 . S
C1721 C1720 1.399 . S
C1721 C1722 1.385 . S
C1722 H1708 0.931 . S
C1722 C1721 1.385 . S
C1722 C1723 1.389 . S
C1723 C1722 1.389 . S
C1723 C1724 1.387 . S
C1724 H1709 0.930 . S
C1724 C1719 1.390 . S
C1724 C1723 1.387 . S
H1725 C1737 0.930 . S
H1726 C1739 0.930 . S
H1727 C1740 0.930 . S
H1728 C1744 0.959 . S
H1729 C1744 0.959 . S
H1730 C1744 0.961 . S
H1731 C1745 0.960 . S
H1732 C1745 0.961 . S
H1733 C1745 0.959 . S
H1734 C1748 0.929 . S
H1735 C1749 0.931 . S
H1736 C1751 0.930 . S
C1737 H1725 0.930 . S
C1737 C1738 1.399 . S
C1737 C1742 1.399 . S
C1738 C1737 1.399 . S
C1738 C1739 1.376 . S
C1739 H1726 0.930 . S
C1739 C1738 1.376 . S
C1739 C1740 1.388 . S
C1740 H1727 0.930 . S
C1740 C1739 1.388 . S
C1740 C1741 1.390 . S
C1741 C1740 1.390 . S
C1741 C1742 1.394 . S
C1741 C1747 1.465 . S
C1742 C1737 1.399 . S
C1742 C1741 1.394 . S
C1742 C1743 1.516 . S
C1743 C1742 1.516 . S
C1743 C1744 1.502 . S
C1743 C1745 1.561 . S
C1743 C1746 1.526 . S
C1744 H1728 0.959 . S
C1744 H1729 0.959 . S
C1744 H1730 0.961 . S
C1744 C1743 1.502 . S
C1745 H1731 0.960 . S
C1745 H1732 0.961 . S
C1745 H1733 0.959 . S
C1745 C1743 1.561 . S
C1746 C1743 1.526 . S
C1746 C1747 1.396 . S
C1746 C1751 1.390 . S
C1747 C1741 1.465 . S
C1747 C1746 1.396 . S
C1747 C1748 1.399 . S
C1748 H1734 0.929 . S
C1748 C1747 1.399 . S
C1748 C1749 1.385 . S
C1749 H1735 0.931 . S
C1749 C1748 1.385 . S
C1749 C1750 1.389 . S
C1750 C1749 1.389 . S
C1750 C1751 1.387 . S
C1751 H1736 0.930 . S
C1751 C1746 1.390 . S
C1751 C1750 1.387 . S
H1752 C1764 0.930 . S
H1753 C1766 0.930 . S
H1754 C1767 0.930 . S
H1755 C1771 0.959 . S
H1756 C1771 0.959 . S
H1757 C1771 0.961 . S
H1758 C1772 0.960 . S
H1759 C1772 0.961 . S
H1760 C1772 0.959 . S
H1761 C1775 0.929 . S
H1762 C1776 0.931 . S
H1763 C1778 0.930 . S
C1764 H1752 0.930 . S
C1764 C1765 1.399 . S
C1764 C1769 1.399 . S
C1765 C1764 1.399 . S
C1765 C1766 1.376 . S
C1766 H1753 0.930 . S
C1766 C1765 1.376 . S
C1766 C1767 1.388 . S
C1767 H1754 0.930 . S
C1767 C1766 1.388 . S
C1767 C1768 1.390 . S
C1768 C1767 1.390 . S
C1768 C1769 1.394 . S
C1768 C1774 1.465 . S
C1769 C1764 1.399 . S
C1769 C1768 1.394 . S
C1769 C1770 1.516 . S
C1770 C1769 1.516 . S
C1770 C1771 1.502 . S
C1770 C1772 1.561 . S
C1770 C1773 1.526 . S
C1771 H1755 0.959 . S
C1771 H1756 0.959 . S
C1771 H1757 0.961 . S
C1771 C1770 1.502 . S
C1772 H1758 0.960 . S
C1772 H1759 0.961 . S
C1772 H1760 0.959 . S
C1772 C1770 1.561 . S
C1773 C1770 1.526 . S
C1773 C1774 1.396 . S
C1773 C1778 1.390 . S
C1774 C1768 1.465 . S
C1774 C1773 1.396 . S
C1774 C1775 1.399 . S
C1775 H1761 0.929 . S
C1775 C1774 1.399 . S
C1775 C1776 1.385 . S
C1776 H1762 0.931 . S
C1776 C1775 1.385 . S
C1776 C1777 1.389 . S
C1777 C1776 1.389 . S
C1777 C1778 1.387 . S
C1778 H1763 0.930 . S
C1778 C1773 1.390 . S
C1778 C1777 1.387 . S
H1779 C1791 0.930 . S
H1780 C1793 0.930 . S
H1781 C1794 0.930 . S
H1782 C1798 0.959 . S
H1783 C1798 0.959 . S
H1784 C1798 0.961 . S
H1785 C1799 0.960 . S
H1786 C1799 0.961 . S
H1787 C1799 0.959 . S
H1788 C1802 0.929 . S
H1789 C1803 0.931 . S
H1790 C1805 0.930 . S
C1791 H1779 0.930 . S
C1791 C1792 1.399 . S
C1791 C1796 1.399 . S
C1792 C1791 1.399 . S
C1792 C1793 1.376 . S
C1793 H1780 0.930 . S
C1793 C1792 1.376 . S
C1793 C1794 1.388 . S
C1794 H1781 0.930 . S
C1794 C1793 1.388 . S
C1794 C1795 1.390 . S
C1795 C1794 1.390 . S
C1795 C1796 1.394 . S
C1795 C1801 1.465 . S
C1796 C1791 1.399 . S
C1796 C1795 1.394 . S
C1796 C1797 1.516 . S
C1797 C1796 1.516 . S
C1797 C1798 1.502 . S
C1797 C1799 1.561 . S
C1797 C1800 1.526 . S
C1798 H1782 0.959 . S
C1798 H1783 0.959 . S
C1798 H1784 0.961 . S
C1798 C1797 1.502 . S
C1799 H1785 0.960 . S
C1799 H1786 0.961 . S
C1799 H1787 0.959 . S
C1799 C1797 1.561 . S
C1800 C1797 1.526 . S
C1800 C1801 1.396 . S
C1800 C1805 1.390 . S
C1801 C1795 1.465 . S
C1801 C1800 1.396 . S
C1801 C1802 1.399 . S
C1802 H1788 0.929 . S
C1802 C1801 1.399 . S
C1802 C1803 1.385 . S
C1803 H1789 0.931 . S
C1803 C1802 1.385 . S
C1803 C1804 1.389 . S
C1804 C1803 1.389 . S
C1804 C1805 1.387 . S
C1805 H1790 0.930 . S
C1805 C1800 1.390 . S
C1805 C1804 1.387 . S
H1806 C1818 0.930 . S
H1807 C1820 0.930 . S
H1808 C1821 0.930 . S
H1809 C1825 0.959 . S
H1810 C1825 0.959 . S
H1811 C1825 0.961 . S
H1812 C1826 0.960 . S
H1813 C1826 0.961 . S
H1814 C1826 0.959 . S
H1815 C1829 0.929 . S
H1816 C1830 0.931 . S
H1817 C1832 0.930 . S
C1818 H1806 0.930 . S
C1818 C1819 1.399 . S
C1818 C1823 1.399 . S
C1819 C1818 1.399 . S
C1819 C1820 1.376 . S
C1820 H1807 0.930 . S
C1820 C1819 1.376 . S
C1820 C1821 1.388 . S
C1821 H1808 0.930 . S
C1821 C1820 1.388 . S
C1821 C1822 1.390 . S
C1822 C1821 1.390 . S
C1822 C1823 1.394 . S
C1822 C1828 1.465 . S
C1823 C1818 1.399 . S
C1823 C1822 1.394 . S
C1823 C1824 1.516 . S
C1824 C1823 1.516 . S
C1824 C1825 1.502 . S
C1824 C1826 1.561 . S
C1824 C1827 1.526 . S
C1825 H1809 0.959 . S
C1825 H1810 0.959 . S
C1825 H1811 0.961 . S
C1825 C1824 1.502 . S
C1826 H1812 0.960 . S
C1826 H1813 0.961 . S
C1826 H1814 0.959 . S
C1826 C1824 1.561 . S
C1827 C1824 1.526 . S
C1827 C1828 1.396 . S
C1827 C1832 1.390 . S
C1828 C1822 1.465 . S
C1828 C1827 1.396 . S
C1828 C1829 1.399 . S
C1829 H1815 0.929 . S
C1829 C1828 1.399 . S
C1829 C1830 1.385 . S
C1830 H1816 0.931 . S
C1830 C1829 1.385 . S
C1830 C1831 1.389 . S
C1831 C1830 1.389 . S
C1831 C1832 1.387 . S
C1832 H1817 0.930 . S
C1832 C1827 1.390 . S
C1832 C1831 1.387 . S
H1833 C1845 0.930 . S
H1834 C1847 0.930 . S
H1835 C1848 0.930 . S
H1836 C1852 0.959 . S
H1837 C1852 0.959 . S
H1838 C1852 0.961 . S
H1839 C1853 0.960 . S
H1840 C1853 0.961 . S
H1841 C1853 0.959 . S
H1842 C1856 0.929 . S
H1843 C1857 0.931 . S
H1844 C1859 0.930 . S
C1845 H1833 0.930 . S
C1845 C1846 1.399 . S
C1845 C1850 1.399 . S
C1846 C1845 1.399 . S
C1846 C1847 1.376 . S
C1847 H1834 0.930 . S
C1847 C1846 1.376 . S
C1847 C1848 1.388 . S
C1848 H1835 0.930 . S
C1848 C1847 1.388 . S
C1848 C1849 1.390 . S
C1849 C1848 1.390 . S
C1849 C1850 1.394 . S
C1849 C1855 1.465 . S
C1850 C1845 1.399 . S
C1850 C1849 1.394 . S
C1850 C1851 1.516 . S
C1851 C1850 1.516 . S
C1851 C1852 1.502 . S
C1851 C1853 1.561 . S
C1851 C1854 1.526 . S
C1852 H1836 0.959 . S
C1852 H1837 0.959 . S
C1852 H1838 0.961 . S
C1852 C1851 1.502 . S
C1853 H1839 0.960 . S
C1853 H1840 0.961 . S
C1853 H1841 0.959 . S
C1853 C1851 1.561 . S
C1854 C1851 1.526 . S
C1854 C1855 1.396 . S
C1854 C1859 1.390 . S
C1855 C1849 1.465 . S
C1855 C1854 1.396 . S
C1855 C1856 1.399 . S
C1856 H1842 0.929 . S
C1856 C1855 1.399 . S
C1856 C1857 1.385 . S
C1857 H1843 0.931 . S
C1857 C1856 1.385 . S
C1857 C1858 1.389 . S
C1858 C1857 1.389 . S
C1858 C1859 1.387 . S
C1859 H1844 0.930 . S
C1859 C1854 1.390 . S
C1859 C1858 1.387 . S
H1860 C1872 0.930 . S
H1861 C1874 0.930 . S
H1862 C1875 0.930 . S
H1863 C1879 0.959 . S
H1864 C1879 0.959 . S
H1865 C1879 0.961 . S
H1866 C1880 0.960 . S
H1867 C1880 0.961 . S
H1868 C1880 0.959 . S
H1869 C1883 0.929 . S
H1870 C1884 0.931 . S
H1871 C1886 0.930 . S
C1872 H1860 0.930 . S
C1872 C1873 1.399 . S
C1872 C1877 1.399 . S
C1873 C1872 1.399 . S
C1873 C1874 1.376 . S
C1874 H1861 0.930 . S
C1874 C1873 1.376 . S
C1874 C1875 1.388 . S
C1875 H1862 0.930 . S
C1875 C1874 1.388 . S
C1875 C1876 1.390 . S
C1876 C1875 1.390 . S
C1876 C1877 1.394 . S
C1876 C1882 1.465 . S
C1877 C1872 1.399 . S
C1877 C1876 1.394 . S
C1877 C1878 1.516 . S
C1878 C1877 1.516 . S
C1878 C1879 1.502 . S
C1878 C1880 1.561 . S
C1878 C1881 1.526 . S
C1879 H1863 0.959 . S
C1879 H1864 0.959 . S
C1879 H1865 0.961 . S
C1879 C1878 1.502 . S
C1880 H1866 0.960 . S
C1880 H1867 0.961 . S
C1880 H1868 0.959 . S
C1880 C1878 1.561 . S
C1881 C1878 1.526 . S
C1881 C1882 1.396 . S
C1881 C1886 1.390 . S
C1882 C1876 1.465 . S
C1882 C1881 1.396 . S
C1882 C1883 1.399 . S
C1883 H1869 0.929 . S
C1883 C1882 1.399 . S
C1883 C1884 1.385 . S
C1884 H1870 0.931 . S
C1884 C1883 1.385 . S
C1884 C1885 1.389 . S
C1885 C1884 1.389 . S
C1885 C1886 1.387 . S
C1886 H1871 0.930 . S
C1886 C1881 1.390 . S
C1886 C1885 1.387 . S
H1887 C1899 0.930 . S
H1888 C1901 0.930 . S
H1889 C1902 0.930 . S
H1890 C1906 0.959 . S
H1891 C1906 0.959 . S
H1892 C1906 0.961 . S
H1893 C1907 0.960 . S
H1894 C1907 0.961 . S
H1895 C1907 0.959 . S
H1896 C1910 0.929 . S
H1897 C1911 0.931 . S
H1898 C1913 0.930 . S
C1899 H1887 0.930 . S
C1899 C1900 1.399 . S
C1899 C1904 1.399 . S
C1900 C1899 1.399 . S
C1900 C1901 1.376 . S
C1901 H1888 0.930 . S
C1901 C1900 1.376 . S
C1901 C1902 1.388 . S
C1902 H1889 0.930 . S
C1902 C1901 1.388 . S
C1902 C1903 1.390 . S
C1903 C1902 1.390 . S
C1903 C1904 1.394 . S
C1903 C1909 1.465 . S
C1904 C1899 1.399 . S
C1904 C1903 1.394 . S
C1904 C1905 1.516 . S
C1905 C1904 1.516 . S
C1905 C1906 1.502 . S
C1905 C1907 1.561 . S
C1905 C1908 1.526 . S
C1906 H1890 0.959 . S
C1906 H1891 0.959 . S
C1906 H1892 0.961 . S
C1906 C1905 1.502 . S
C1907 H1893 0.960 . S
C1907 H1894 0.961 . S
C1907 H1895 0.959 . S
C1907 C1905 1.561 . S
C1908 C1905 1.526 . S
C1908 C1909 1.396 . S
C1908 C1913 1.390 . S
C1909 C1903 1.465 . S
C1909 C1908 1.396 . S
C1909 C1910 1.399 . S
C1910 H1896 0.929 . S
C1910 C1909 1.399 . S
C1910 C1911 1.385 . S
C1911 H1897 0.931 . S
C1911 C1910 1.385 . S
C1911 C1912 1.389 . S
C1912 C1911 1.389 . S
C1912 C1913 1.387 . S
C1913 H1898 0.930 . S
C1913 C1908 1.390 . S
C1913 C1912 1.387 . S
H1914 C1926 0.930 . S
H1915 C1928 0.930 . S
H1916 C1929 0.930 . S
H1917 C1933 0.959 . S
H1918 C1933 0.959 . S
H1919 C1933 0.961 . S
H1920 C1934 0.960 . S
H1921 C1934 0.961 . S
H1922 C1934 0.959 . S
H1923 C1937 0.929 . S
H1924 C1938 0.931 . S
H1925 C1940 0.930 . S
C1926 H1914 0.930 . S
C1926 C1927 1.399 . S
C1926 C1931 1.399 . S
C1927 C1926 1.399 . S
C1927 C1928 1.376 . S
C1928 H1915 0.930 . S
C1928 C1927 1.376 . S
C1928 C1929 1.388 . S
C1929 H1916 0.930 . S
C1929 C1928 1.388 . S
C1929 C1930 1.390 . S
C1930 C1929 1.390 . S
C1930 C1931 1.394 . S
C1930 C1936 1.465 . S
C1931 C1926 1.399 . S
C1931 C1930 1.394 . S
C1931 C1932 1.516 . S
C1932 C1931 1.516 . S
C1932 C1933 1.502 . S
C1932 C1934 1.561 . S
C1932 C1935 1.526 . S
C1933 H1917 0.959 . S
C1933 H1918 0.959 . S
C1933 H1919 0.961 . S
C1933 C1932 1.502 . S
C1934 H1920 0.960 . S
C1934 H1921 0.961 . S
C1934 H1922 0.959 . S
C1934 C1932 1.561 . S
C1935 C1932 1.526 . S
C1935 C1936 1.396 . S
C1935 C1940 1.390 . S
C1936 C1930 1.465 . S
C1936 C1935 1.396 . S
C1936 C1937 1.399 . S
C1937 H1923 0.929 . S
C1937 C1936 1.399 . S
C1937 C1938 1.385 . S
C1938 H1924 0.931 . S
C1938 C1937 1.385 . S
C1938 C1939 1.389 . S
C1939 C1938 1.389 . S
C1939 C1940 1.387 . S
C1940 H1925 0.930 . S
C1940 C1935 1.390 . S
C1940 C1939 1.387 . S
H1941 C1953 0.930 . S
H1942 C1955 0.930 . S
H1943 C1956 0.930 . S
H1944 C1960 0.959 . S
H1945 C1960 0.959 . S
H1946 C1960 0.961 . S
H1947 C1961 0.960 . S
H1948 C1961 0.961 . S
H1949 C1961 0.959 . S
H1950 C1964 0.929 . S
H1951 C1965 0.931 . S
H1952 C1967 0.930 . S
C1953 H1941 0.930 . S
C1953 C1954 1.399 . S
C1953 C1958 1.399 . S
C1954 C1953 1.399 . S
C1954 C1955 1.376 . S
C1955 H1942 0.930 . S
C1955 C1954 1.376 . S
C1955 C1956 1.388 . S
C1956 H1943 0.930 . S
C1956 C1955 1.388 . S
C1956 C1957 1.390 . S
C1957 C1956 1.390 . S
C1957 C1958 1.394 . S
C1957 C1963 1.465 . S
C1958 C1953 1.399 . S
C1958 C1957 1.394 . S
C1958 C1959 1.516 . S
C1959 C1958 1.516 . S
C1959 C1960 1.502 . S
C1959 C1961 1.561 . S
C1959 C1962 1.526 . S
C1960 H1944 0.959 . S
C1960 H1945 0.959 . S
C1960 H1946 0.961 . S
C1960 C1959 1.502 . S
C1961 H1947 0.960 . S
C1961 H1948 0.961 . S
C1961 H1949 0.959 . S
C1961 C1959 1.561 . S
C1962 C1959 1.526 . S
C1962 C1963 1.396 . S
C1962 C1967 1.390 . S
C1963 C1957 1.465 . S
C1963 C1962 1.396 . S
C1963 C1964 1.399 . S
C1964 H1950 0.929 . S
C1964 C1963 1.399 . S
C1964 C1965 1.385 . S
C1965 H1951 0.931 . S
C1965 C1964 1.385 . S
C1965 C1966 1.389 . S
C1966 C1965 1.389 . S
C1966 C1967 1.387 . S
C1967 H1952 0.930 . S
C1967 C1962 1.390 . S
C1967 C1966 1.387 . S
H1968 C1980 0.930 . S
H1969 C1982 0.930 . S
H1970 C1983 0.930 . S
H1971 C1987 0.959 . S
H1972 C1987 0.959 . S
H1973 C1987 0.961 . S
H1974 C1988 0.960 . S
H1975 C1988 0.961 . S
H1976 C1988 0.959 . S
H1977 C1991 0.929 . S
H1978 C1992 0.931 . S
H1979 C1994 0.930 . S
C1980 H1968 0.930 . S
C1980 C1981 1.399 . S
C1980 C1985 1.399 . S
C1981 C1980 1.399 . S
C1981 C1982 1.376 . S
C1982 H1969 0.930 . S
C1982 C1981 1.376 . S
C1982 C1983 1.388 . S
C1983 H1970 0.930 . S
C1983 C1982 1.388 . S
C1983 C1984 1.390 . S
C1984 C1983 1.390 . S
C1984 C1985 1.394 . S
C1984 C1990 1.465 . S
C1985 C1980 1.399 . S
C1985 C1984 1.394 . S
C1985 C1986 1.516 . S
C1986 C1985 1.516 . S
C1986 C1987 1.502 . S
C1986 C1988 1.561 . S
C1986 C1989 1.526 . S
C1987 H1971 0.959 . S
C1987 H1972 0.959 . S
C1987 H1973 0.961 . S
C1987 C1986 1.502 . S
C1988 H1974 0.960 . S
C1988 H1975 0.961 . S
C1988 H1976 0.959 . S
C1988 C1986 1.561 . S
C1989 C1986 1.526 . S
C1989 C1990 1.396 . S
C1989 C1994 1.390 . S
C1990 C1984 1.465 . S
C1990 C1989 1.396 . S
C1990 C1991 1.399 . S
C1991 H1977 0.929 . S
C1991 C1990 1.399 . S
C1991 C1992 1.385 . S
C1992 H1978 0.931 . S
C1992 C1991 1.385 . S
C1992 C1993 1.389 . S
C1993 C1992 1.389 . S
C1993 C1994 1.387 . S
C1994 H1979 0.930 . S
C1994 C1989 1.390 . S
C1994 C1993 1.387 . S
H1995 C2007 0.930 . S
H1996 C2009 0.930 . S
H1997 C2010 0.930 . S
H1998 C2014 0.959 . S
H1999 C2014 0.959 . S
H2000 C2014 0.961 . S
H2001 C2015 0.960 . S
H2002 C2015 0.961 . S
H2003 C2015 0.959 . S
H2004 C2018 0.929 . S
H2005 C2019 0.931 . S
H2006 C2021 0.930 . S
C2007 H1995 0.930 . S
C2007 C2008 1.399 . S
C2007 C2012 1.399 . S
C2008 C2007 1.399 . S
C2008 C2009 1.376 . S
C2009 H1996 0.930 . S
C2009 C2008 1.376 . S
C2009 C2010 1.388 . S
C2010 H1997 0.930 . S
C2010 C2009 1.388 . S
C2010 C2011 1.390 . S
C2011 C2010 1.390 . S
C2011 C2012 1.394 . S
C2011 C2017 1.465 . S
C2012 C2007 1.399 . S
C2012 C2011 1.394 . S
C2012 C2013 1.516 . S
C2013 C2012 1.516 . S
C2013 C2014 1.502 . S
C2013 C2015 1.561 . S
C2013 C2016 1.526 . S
C2014 H1998 0.959 . S
C2014 H1999 0.959 . S
C2014 H2000 0.961 . S
C2014 C2013 1.502 . S
C2015 H2001 0.960 . S
C2015 H2002 0.961 . S
C2015 H2003 0.959 . S
C2015 C2013 1.561 . S
C2016 C2013 1.526 . S
C2016 C2017 1.396 . S
C2016 C2021 1.390 . S
C2017 C2011 1.465 . S
C2017 C2016 1.396 . S
C2017 C2018 1.399 . S
C2018 H2004 0.929 . S
C2018 C2017 1.399 . S
C2018 C2019 1.385 . S
C2019 H2005 0.931 . S
C2019 C2018 1.385 . S
C2019 C2020 1.389 . S
C2020 C2019 1.389 . S
C2020 C2021 1.387 . S
C2021 H2006 0.930 . S
C2021 C2016 1.390 . S
C2021 C2020 1.387 . S
H2022 C2034 0.930 . S
H2023 C2036 0.930 . S
H2024 C2037 0.930 . S
H2025 C2041 0.959 . S
H2026 C2041 0.959 . S
H2027 C2041 0.961 . S
H2028 C2042 0.960 . S
H2029 C2042 0.961 . S
H2030 C2042 0.959 . S
H2031 C2045 0.929 . S
H2032 C2046 0.931 . S
H2033 C2048 0.930 . S
C2034 H2022 0.930 . S
C2034 C2035 1.399 . S
C2034 C2039 1.399 . S
C2035 C2034 1.399 . S
C2035 C2036 1.376 . S
C2036 H2023 0.930 . S
C2036 C2035 1.376 . S
C2036 C2037 1.388 . S
C2037 H2024 0.930 . S
C2037 C2036 1.388 . S
C2037 C2038 1.390 . S
C2038 C2037 1.390 . S
C2038 C2039 1.394 . S
C2038 C2044 1.465 . S
C2039 C2034 1.399 . S
C2039 C2038 1.394 . S
C2039 C2040 1.516 . S
C2040 C2039 1.516 . S
C2040 C2041 1.502 . S
C2040 C2042 1.561 . S
C2040 C2043 1.526 . S
C2041 H2025 0.959 . S
C2041 H2026 0.959 . S
C2041 H2027 0.961 . S
C2041 C2040 1.502 . S
C2042 H2028 0.960 . S
C2042 H2029 0.961 . S
C2042 H2030 0.959 . S
C2042 C2040 1.561 . S
C2043 C2040 1.526 . S
C2043 C2044 1.396 . S
C2043 C2048 1.390 . S
C2044 C2038 1.465 . S
C2044 C2043 1.396 . S
C2044 C2045 1.399 . S
C2045 H2031 0.929 . S
C2045 C2044 1.399 . S
C2045 C2046 1.385 . S
C2046 H2032 0.931 . S
C2046 C2045 1.385 . S
C2046 C2047 1.389 . S
C2047 C2046 1.389 . S
C2047 C2048 1.387 . S
C2048 H2033 0.930 . S
C2048 C2043 1.390 . S
C2048 C2047 1.387 . S
H2049 C2061 0.930 . S
H2050 C2063 0.930 . S
H2051 C2064 0.930 . S
H2052 C2068 0.959 . S
H2053 C2068 0.959 . S
H2054 C2068 0.961 . S
H2055 C2069 0.960 . S
H2056 C2069 0.961 . S
H2057 C2069 0.959 . S
H2058 C2072 0.929 . S
H2059 C2073 0.931 . S
H2060 C2075 0.930 . S
C2061 H2049 0.930 . S
C2061 C2062 1.399 . S
C2061 C2066 1.399 . S
C2062 C2061 1.399 . S
C2062 C2063 1.376 . S
C2063 H2050 0.930 . S
C2063 C2062 1.376 . S
C2063 C2064 1.388 . S
C2064 H2051 0.930 . S
C2064 C2063 1.388 . S
C2064 C2065 1.390 . S
C2065 C2064 1.390 . S
C2065 C2066 1.394 . S
C2065 C2071 1.465 . S
C2066 C2061 1.399 . S
C2066 C2065 1.394 . S
C2066 C2067 1.516 . S
C2067 C2066 1.516 . S
C2067 C2068 1.502 . S
C2067 C2069 1.561 . S
C2067 C2070 1.526 . S
C2068 H2052 0.959 . S
C2068 H2053 0.959 . S
C2068 H2054 0.961 . S
C2068 C2067 1.502 . S
C2069 H2055 0.960 . S
C2069 H2056 0.961 . S
C2069 H2057 0.959 . S
C2069 C2067 1.561 . S
C2070 C2067 1.526 . S
C2070 C2071 1.396 . S
C2070 C2075 1.390 . S
C2071 C2065 1.465 . S
C2071 C2070 1.396 . S
C2071 C2072 1.399 . S
C2072 H2058 0.929 . S
C2072 C2071 1.399 . S
C2072 C2073 1.385 . S
C2073 H2059 0.931 . S
C2073 C2072 1.385 . S
C2073 C2074 1.389 . S
C2074 C2073 1.389 . S
C2074 C2075 1.387 . S
C2075 H2060 0.930 . S
C2075 C2070 1.390 . S
C2075 C2074 1.387 . S
H2076 C2088 0.930 . S
H2077 C2090 0.930 . S
H2078 C2091 0.930 . S
H2079 C2095 0.959 . S
H2080 C2095 0.959 . S
H2081 C2095 0.961 . S
H2082 C2096 0.960 . S
H2083 C2096 0.961 . S
H2084 C2096 0.959 . S
H2085 C2099 0.929 . S
H2086 C2100 0.931 . S
H2087 C2102 0.930 . S
C2088 H2076 0.930 . S
C2088 C2089 1.399 . S
C2088 C2093 1.399 . S
C2089 C2088 1.399 . S
C2089 C2090 1.376 . S
C2090 H2077 0.930 . S
C2090 C2089 1.376 . S
C2090 C2091 1.388 . S
C2091 H2078 0.930 . S
C2091 C2090 1.388 . S
C2091 C2092 1.390 . S
C2092 C2091 1.390 . S
C2092 C2093 1.394 . S
C2092 C2098 1.465 . S
C2093 C2088 1.399 . S
C2093 C2092 1.394 . S
C2093 C2094 1.516 . S
C2094 C2093 1.516 . S
C2094 C2095 1.502 . S
C2094 C2096 1.561 . S
C2094 C2097 1.526 . S
C2095 H2079 0.959 . S
C2095 H2080 0.959 . S
C2095 H2081 0.961 . S
C2095 C2094 1.502 . S
C2096 H2082 0.960 . S
C2096 H2083 0.961 . S
C2096 H2084 0.959 . S
C2096 C2094 1.561 . S
C2097 C2094 1.526 . S
C2097 C2098 1.396 . S
C2097 C2102 1.390 . S
C2098 C2092 1.465 . S
C2098 C2097 1.396 . S
C2098 C2099 1.399 . S
C2099 H2085 0.929 . S
C2099 C2098 1.399 . S
C2099 C2100 1.385 . S
C2100 H2086 0.931 . S
C2100 C2099 1.385 . S
C2100 C2101 1.389 . S
C2101 C2100 1.389 . S
C2101 C2102 1.387 . S
C2102 H2087 0.930 . S
C2102 C2097 1.390 . S
C2102 C2101 1.387 . S
H2103 C2115 0.930 . S
H2104 C2117 0.930 . S
H2105 C2118 0.930 . S
H2106 C2122 0.959 . S
H2107 C2122 0.959 . S
H2108 C2122 0.961 . S
H2109 C2123 0.960 . S
H2110 C2123 0.961 . S
H2111 C2123 0.959 . S
H2112 C2126 0.929 . S
H2113 C2127 0.931 . S
H2114 C2129 0.930 . S
C2115 H2103 0.930 . S
C2115 C2116 1.399 . S
C2115 C2120 1.399 . S
C2116 C2115 1.399 . S
C2116 C2117 1.376 . S
C2117 H2104 0.930 . S
C2117 C2116 1.376 . S
C2117 C2118 1.388 . S
C2118 H2105 0.930 . S
C2118 C2117 1.388 . S
C2118 C2119 1.390 . S
C2119 C2118 1.390 . S
C2119 C2120 1.394 . S
C2119 C2125 1.465 . S
C2120 C2115 1.399 . S
C2120 C2119 1.394 . S
C2120 C2121 1.516 . S
C2121 C2120 1.516 . S
C2121 C2122 1.502 . S
C2121 C2123 1.561 . S
C2121 C2124 1.526 . S
C2122 H2106 0.959 . S
C2122 H2107 0.959 . S
C2122 H2108 0.961 . S
C2122 C2121 1.502 . S
C2123 H2109 0.960 . S
C2123 H2110 0.961 . S
C2123 H2111 0.959 . S
C2123 C2121 1.561 . S
C2124 C2121 1.526 . S
C2124 C2125 1.396 . S
C2124 C2129 1.390 . S
C2125 C2119 1.465 . S
C2125 C2124 1.396 . S
C2125 C2126 1.399 . S
C2126 H2112 0.929 . S
C2126 C2125 1.399 . S
C2126 C2127 1.385 . S
C2127 H2113 0.931 . S
C2127 C2126 1.385 . S
C2127 C2128 1.389 . S
C2128 C2127 1.389 . S
C2128 C2129 1.387 . S
C2129 H2114 0.930 . S
C2129 C2124 1.390 . S
C2129 C2128 1.387 . S
H2130 C2142 0.930 . S
H2131 C2144 0.930 . S
H2132 C2145 0.930 . S
H2133 C2149 0.959 . S
H2134 C2149 0.959 . S
H2135 C2149 0.961 . S
H2136 C2150 0.960 . S
H2137 C2150 0.961 . S
H2138 C2150 0.959 . S
H2139 C2153 0.929 . S
H2140 C2154 0.931 . S
H2141 C2156 0.930 . S
C2142 H2130 0.930 . S
C2142 C2143 1.399 . S
C2142 C2147 1.399 . S
C2143 C2142 1.399 . S
C2143 C2144 1.376 . S
C2144 H2131 0.930 . S
C2144 C2143 1.376 . S
C2144 C2145 1.388 . S
C2145 H2132 0.930 . S
C2145 C2144 1.388 . S
C2145 C2146 1.390 . S
C2146 C2145 1.390 . S
C2146 C2147 1.394 . S
C2146 C2152 1.465 . S
C2147 C2142 1.399 . S
C2147 C2146 1.394 . S
C2147 C2148 1.516 . S
C2148 C2147 1.516 . S
C2148 C2149 1.502 . S
C2148 C2150 1.561 . S
C2148 C2151 1.526 . S
C2149 H2133 0.959 . S
C2149 H2134 0.959 . S
C2149 H2135 0.961 . S
C2149 C2148 1.502 . S
C2150 H2136 0.960 . S
C2150 H2137 0.961 . S
C2150 H2138 0.959 . S
C2150 C2148 1.561 . S
C2151 C2148 1.526 . S
C2151 C2152 1.396 . S
C2151 C2156 1.390 . S
C2152 C2146 1.465 . S
C2152 C2151 1.396 . S
C2152 C2153 1.399 . S
C2153 H2139 0.929 . S
C2153 C2152 1.399 . S
C2153 C2154 1.385 . S
C2154 H2140 0.931 . S
C2154 C2153 1.385 . S
C2154 C2155 1.389 . S
C2155 C2154 1.389 . S
C2155 C2156 1.387 . S
C2156 H2141 0.930 . S
C2156 C2151 1.390 . S
C2156 C2155 1.387 . S
H2157 C2169 0.930 . S
H2158 C2171 0.930 . S
H2159 C2172 0.930 . S
H2160 C2176 0.959 . S
H2161 C2176 0.959 . S
H2162 C2176 0.961 . S
H2163 C2177 0.960 . S
H2164 C2177 0.961 . S
H2165 C2177 0.959 . S
H2166 C2180 0.929 . S
H2167 C2181 0.931 . S
H2168 C2183 0.930 . S
C2169 H2157 0.930 . S
C2169 C2170 1.399 . S
C2169 C2174 1.399 . S
C2170 C2169 1.399 . S
C2170 C2171 1.376 . S
C2171 H2158 0.930 . S
C2171 C2170 1.376 . S
C2171 C2172 1.388 . S
C2172 H2159 0.930 . S
C2172 C2171 1.388 . S
C2172 C2173 1.390 . S
C2173 C2172 1.390 . S
C2173 C2174 1.394 . S
C2173 C2179 1.465 . S
C2174 C2169 1.399 . S
C2174 C2173 1.394 . S
C2174 C2175 1.516 . S
C2175 C2174 1.516 . S
C2175 C2176 1.502 . S
C2175 C2177 1.561 . S
C2175 C2178 1.526 . S
C2176 H2160 0.959 . S
C2176 H2161 0.959 . S
C2176 H2162 0.961 . S
C2176 C2175 1.502 . S
C2177 H2163 0.960 . S
C2177 H2164 0.961 . S
C2177 H2165 0.959 . S
C2177 C2175 1.561 . S
C2178 C2175 1.526 . S
C2178 C2179 1.396 . S
C2178 C2183 1.390 . S
C2179 C2173 1.465 . S
C2179 C2178 1.396 . S
C2179 C2180 1.399 . S
C2180 H2166 0.929 . S
C2180 C2179 1.399 . S
C2180 C2181 1.385 . S
C2181 H2167 0.931 . S
C2181 C2180 1.385 . S
C2181 C2182 1.389 . S
C2182 C2181 1.389 . S
C2182 C2183 1.387 . S
C2183 H2168 0.930 . S
C2183 C2178 1.390 . S
C2183 C2182 1.387 . S
H2184 C2196 0.930 . S
H2185 C2198 0.930 . S
H2186 C2199 0.930 . S
H2187 C2203 0.959 . S
H2188 C2203 0.959 . S
H2189 C2203 0.961 . S
H2190 C2204 0.960 . S
H2191 C2204 0.961 . S
H2192 C2204 0.959 . S
H2193 C2207 0.929 . S
H2194 C2208 0.931 . S
H2195 C2210 0.930 . S
C2196 H2184 0.930 . S
C2196 C2197 1.399 . S
C2196 C2201 1.399 . S
C2197 C2196 1.399 . S
C2197 C2198 1.376 . S
C2198 H2185 0.930 . S
C2198 C2197 1.376 . S
C2198 C2199 1.388 . S
C2199 H2186 0.930 . S
C2199 C2198 1.388 . S
C2199 C2200 1.390 . S
C2200 C2199 1.390 . S
C2200 C2201 1.394 . S
C2200 C2206 1.465 . S
C2201 C2196 1.399 . S
C2201 C2200 1.394 . S
C2201 C2202 1.516 . S
C2202 C2201 1.516 . S
C2202 C2203 1.502 . S
C2202 C2204 1.561 . S
C2202 C2205 1.526 . S
C2203 H2187 0.959 . S
C2203 H2188 0.959 . S
C2203 H2189 0.961 . S
C2203 C2202 1.502 . S
C2204 H2190 0.960 . S
C2204 H2191 0.961 . S
C2204 H2192 0.959 . S
C2204 C2202 1.561 . S
C2205 C2202 1.526 . S
C2205 C2206 1.396 . S
C2205 C2210 1.390 . S
C2206 C2200 1.465 . S
C2206 C2205 1.396 . S
C2206 C2207 1.399 . S
C2207 H2193 0.929 . S
C2207 C2206 1.399 . S
C2207 C2208 1.385 . S
C2208 H2194 0.931 . S
C2208 C2207 1.385 . S
C2208 C2209 1.389 . S
C2209 C2208 1.389 . S
C2209 C2210 1.387 . S
C2210 H2195 0.930 . S
C2210 C2205 1.390 . S
C2210 C2209 1.387 . S
H2211 C2223 0.930 . S
H2212 C2225 0.930 . S
H2213 C2226 0.930 . S
H2214 C2230 0.959 . S
H2215 C2230 0.959 . S
H2216 C2230 0.961 . S
H2217 C2231 0.960 . S
H2218 C2231 0.961 . S
H2219 C2231 0.959 . S
H2220 C2234 0.929 . S
H2221 C2235 0.931 . S
H2222 C2237 0.930 . S
C2223 H2211 0.930 . S
C2223 C2224 1.399 . S
C2223 C2228 1.399 . S
C2224 C2223 1.399 . S
C2224 C2225 1.376 . S
C2225 H2212 0.930 . S
C2225 C2224 1.376 . S
C2225 C2226 1.388 . S
C2226 H2213 0.930 . S
C2226 C2225 1.388 . S
C2226 C2227 1.390 . S
C2227 C2226 1.390 . S
C2227 C2228 1.394 . S
C2227 C2233 1.465 . S
C2228 C2223 1.399 . S
C2228 C2227 1.394 . S
C2228 C2229 1.516 . S
C2229 C2228 1.516 . S
C2229 C2230 1.502 . S
C2229 C2231 1.561 . S
C2229 C2232 1.526 . S
C2230 H2214 0.959 . S
C2230 H2215 0.959 . S
C2230 H2216 0.961 . S
C2230 C2229 1.502 . S
C2231 H2217 0.960 . S
C2231 H2218 0.961 . S
C2231 H2219 0.959 . S
C2231 C2229 1.561 . S
C2232 C2229 1.526 . S
C2232 C2233 1.396 . S
C2232 C2237 1.390 . S
C2233 C2227 1.465 . S
C2233 C2232 1.396 . S
C2233 C2234 1.399 . S
C2234 H2220 0.929 . S
C2234 C2233 1.399 . S
C2234 C2235 1.385 . S
C2235 H2221 0.931 . S
C2235 C2234 1.385 . S
C2235 C2236 1.389 . S
C2236 C2235 1.389 . S
C2236 C2237 1.387 . S
C2237 H2222 0.930 . S
C2237 C2232 1.390 . S
C2237 C2236 1.387 . S
H2238 C2250 0.930 . S
H2239 C2252 0.930 . S
H2240 C2253 0.930 . S
H2241 C2257 0.959 . S
H2242 C2257 0.959 . S
H2243 C2257 0.961 . S
H2244 C2258 0.960 . S
H2245 C2258 0.961 . S
H2246 C2258 0.959 . S
H2247 C2261 0.929 . S
H2248 C2262 0.931 . S
H2249 C2264 0.930 . S
C2250 H2238 0.930 . S
C2250 C2251 1.399 . S
C2250 C2255 1.399 . S
C2251 C2250 1.399 . S
C2251 C2252 1.376 . S
C2252 H2239 0.930 . S
C2252 C2251 1.376 . S
C2252 C2253 1.388 . S
C2253 H2240 0.930 . S
C2253 C2252 1.388 . S
C2253 C2254 1.390 . S
C2254 C2253 1.390 . S
C2254 C2255 1.394 . S
C2254 C2260 1.465 . S
C2255 C2250 1.399 . S
C2255 C2254 1.394 . S
C2255 C2256 1.516 . S
C2256 C2255 1.516 . S
C2256 C2257 1.502 . S
C2256 C2258 1.561 . S
C2256 C2259 1.526 . S
C2257 H2241 0.959 . S
C2257 H2242 0.959 . S
C2257 H2243 0.961 . S
C2257 C2256 1.502 . S
C2258 H2244 0.960 . S
C2258 H2245 0.961 . S
C2258 H2246 0.959 . S
C2258 C2256 1.561 . S
C2259 C2256 1.526 . S
C2259 C2260 1.396 . S
C2259 C2264 1.390 . S
C2260 C2254 1.465 . S
C2260 C2259 1.396 . S
C2260 C2261 1.399 . S
C2261 H2247 0.929 . S
C2261 C2260 1.399 . S
C2261 C2262 1.385 . S
C2262 H2248 0.931 . S
C2262 C2261 1.385 . S
C2262 C2263 1.389 . S
C2263 C2262 1.389 . S
C2263 C2264 1.387 . S
C2264 H2249 0.930 . S
C2264 C2259 1.390 . S
C2264 C2263 1.387 . S
H2265 C2277 0.930 . S
H2266 C2279 0.930 . S
H2267 C2280 0.930 . S
H2268 C2284 0.959 . S
H2269 C2284 0.959 . S
H2270 C2284 0.961 . S
H2271 C2285 0.960 . S
H2272 C2285 0.961 . S
H2273 C2285 0.959 . S
H2274 C2288 0.929 . S
H2275 C2289 0.931 . S
H2276 C2291 0.930 . S
C2277 H2265 0.930 . S
C2277 C2278 1.399 . S
C2277 C2282 1.399 . S
C2278 C2277 1.399 . S
C2278 C2279 1.376 . S
C2279 H2266 0.930 . S
C2279 C2278 1.376 . S
C2279 C2280 1.388 . S
C2280 H2267 0.930 . S
C2280 C2279 1.388 . S
C2280 C2281 1.390 . S
C2281 C2280 1.390 . S
C2281 C2282 1.394 . S
C2281 C2287 1.465 . S
C2282 C2277 1.399 . S
C2282 C2281 1.394 . S
C2282 C2283 1.516 . S
C2283 C2282 1.516 . S
C2283 C2284 1.502 . S
C2283 C2285 1.561 . S
C2283 C2286 1.526 . S
C2284 H2268 0.959 . S
C2284 H2269 0.959 . S
C2284 H2270 0.961 . S
C2284 C2283 1.502 . S
C2285 H2271 0.960 . S
C2285 H2272 0.961 . S
C2285 H2273 0.959 . S
C2285 C2283 1.561 . S
C2286 C2283 1.526 . S
C2286 C2287 1.396 . S
C2286 C2291 1.390 . S
C2287 C2281 1.465 . S
C2287 C2286 1.396 . S
C2287 C2288 1.399 . S
C2288 H2274 0.929 . S
C2288 C2287 1.399 . S
C2288 C2289 1.385 . S
C2289 H2275 0.931 . S
C2289 C2288 1.385 . S
C2289 C2290 1.389 . S
C2290 C2289 1.389 . S
C2290 C2291 1.387 . S
C2291 H2276 0.930 . S
C2291 C2286 1.390 . S
C2291 C2290 1.387 . S
H2292 C2304 0.930 . S
H2293 C2306 0.930 . S
H2294 C2307 0.930 . S
H2295 C2311 0.959 . S
H2296 C2311 0.959 . S
H2297 C2311 0.961 . S
H2298 C2312 0.960 . S
H2299 C2312 0.961 . S
H2300 C2312 0.959 . S
H2301 C2315 0.929 . S
H2302 C2316 0.931 . S
H2303 C2318 0.930 . S
C2304 H2292 0.930 . S
C2304 C2305 1.399 . S
C2304 C2309 1.399 . S
C2305 C2304 1.399 . S
C2305 C2306 1.376 . S
C2306 H2293 0.930 . S
C2306 C2305 1.376 . S
C2306 C2307 1.388 . S
C2307 H2294 0.930 . S
C2307 C2306 1.388 . S
C2307 C2308 1.390 . S
C2308 C2307 1.390 . S
C2308 C2309 1.394 . S
C2308 C2314 1.465 . S
C2309 C2304 1.399 . S
C2309 C2308 1.394 . S
C2309 C2310 1.516 . S
C2310 C2309 1.516 . S
C2310 C2311 1.502 . S
C2310 C2312 1.561 . S
C2310 C2313 1.526 . S
C2311 H2295 0.959 . S
C2311 H2296 0.959 . S
C2311 H2297 0.961 . S
C2311 C2310 1.502 . S
C2312 H2298 0.960 . S
C2312 H2299 0.961 . S
C2312 H2300 0.959 . S
C2312 C2310 1.561 . S
C2313 C2310 1.526 . S
C2313 C2314 1.396 . S
C2313 C2318 1.390 . S
C2314 C2308 1.465 . S
C2314 C2313 1.396 . S
C2314 C2315 1.399 . S
C2315 H2301 0.929 . S
C2315 C2314 1.399 . S
C2315 C2316 1.385 . S
C2316 H2302 0.931 . S
C2316 C2315 1.385 . S
C2316 C2317 1.389 . S
C2317 C2316 1.389 . S
C2317 C2318 1.387 . S
C2318 H2303 0.930 . S
C2318 C2313 1.390 . S
C2318 C2317 1.387 . S
H2319 C2331 0.930 . S
H2320 C2333 0.930 . S
H2321 C2334 0.930 . S
H2322 C2338 0.959 . S
H2323 C2338 0.959 . S
H2324 C2338 0.961 . S
H2325 C2339 0.960 . S
H2326 C2339 0.961 . S
H2327 C2339 0.959 . S
H2328 C2342 0.929 . S
H2329 C2343 0.931 . S
H2330 C2345 0.930 . S
C2331 H2319 0.930 . S
C2331 C2332 1.399 . S
C2331 C2336 1.399 . S
C2332 C2331 1.399 . S
C2332 C2333 1.376 . S
C2333 H2320 0.930 . S
C2333 C2332 1.376 . S
C2333 C2334 1.388 . S
C2334 H2321 0.930 . S
C2334 C2333 1.388 . S
C2334 C2335 1.390 . S
C2335 C2334 1.390 . S
C2335 C2336 1.394 . S
C2335 C2341 1.465 . S
C2336 C2331 1.399 . S
C2336 C2335 1.394 . S
C2336 C2337 1.516 . S
C2337 C2336 1.516 . S
C2337 C2338 1.502 . S
C2337 C2339 1.561 . S
C2337 C2340 1.526 . S
C2338 H2322 0.959 . S
C2338 H2323 0.959 . S
C2338 H2324 0.961 . S
C2338 C2337 1.502 . S
C2339 H2325 0.960 . S
C2339 H2326 0.961 . S
C2339 H2327 0.959 . S
C2339 C2337 1.561 . S
C2340 C2337 1.526 . S
C2340 C2341 1.396 . S
C2340 C2345 1.390 . S
C2341 C2335 1.465 . S
C2341 C2340 1.396 . S
C2341 C2342 1.399 . S
C2342 H2328 0.929 . S
C2342 C2341 1.399 . S
C2342 C2343 1.385 . S
C2343 H2329 0.931 . S
C2343 C2342 1.385 . S
C2343 C2344 1.389 . S
C2344 C2343 1.389 . S
C2344 C2345 1.387 . S
C2345 H2330 0.930 . S
C2345 C2340 1.390 . S
C2345 C2344 1.387 . S
H2346 C2358 0.930 . S
H2347 C2360 0.930 . S
H2348 C2361 0.930 . S
H2349 C2365 0.959 . S
H2350 C2365 0.959 . S
H2351 C2365 0.961 . S
H2352 C2366 0.960 . S
H2353 C2366 0.961 . S
H2354 C2366 0.959 . S
H2355 C2369 0.929 . S
H2356 C2370 0.931 . S
H2357 C2372 0.930 . S
C2358 H2346 0.930 . S
C2358 C2359 1.399 . S
C2358 C2363 1.399 . S
C2359 C2358 1.399 . S
C2359 C2360 1.376 . S
C2360 H2347 0.930 . S
C2360 C2359 1.376 . S
C2360 C2361 1.388 . S
C2361 H2348 0.930 . S
C2361 C2360 1.388 . S
C2361 C2362 1.390 . S
C2362 C2361 1.390 . S
C2362 C2363 1.394 . S
C2362 C2368 1.465 . S
C2363 C2358 1.399 . S
C2363 C2362 1.394 . S
C2363 C2364 1.516 . S
C2364 C2363 1.516 . S
C2364 C2365 1.502 . S
C2364 C2366 1.561 . S
C2364 C2367 1.526 . S
C2365 H2349 0.959 . S
C2365 H2350 0.959 . S
C2365 H2351 0.961 . S
C2365 C2364 1.502 . S
C2366 H2352 0.960 . S
C2366 H2353 0.961 . S
C2366 H2354 0.959 . S
C2366 C2364 1.561 . S
C2367 C2364 1.526 . S
C2367 C2368 1.396 . S
C2367 C2372 1.390 . S
C2368 C2362 1.465 . S
C2368 C2367 1.396 . S
C2368 C2369 1.399 . S
C2369 H2355 0.929 . S
C2369 C2368 1.399 . S
C2369 C2370 1.385 . S
C2370 H2356 0.931 . S
C2370 C2369 1.385 . S
C2370 C2371 1.389 . S
C2371 C2370 1.389 . S
C2371 C2372 1.387 . S
C2372 H2357 0.930 . S
C2372 C2367 1.390 . S
C2372 C2371 1.387 . S
H2373 C2385 0.930 . S
H2374 C2387 0.930 . S
H2375 C2388 0.930 . S
H2376 C2392 0.959 . S
H2377 C2392 0.959 . S
H2378 C2392 0.961 . S
H2379 C2393 0.960 . S
H2380 C2393 0.961 . S
H2381 C2393 0.959 . S
H2382 C2396 0.929 . S
H2383 C2397 0.931 . S
H2384 C2399 0.930 . S
C2385 H2373 0.930 . S
C2385 C2386 1.399 . S
C2385 C2390 1.399 . S
C2386 C2385 1.399 . S
C2386 C2387 1.376 . S
C2387 H2374 0.930 . S
C2387 C2386 1.376 . S
C2387 C2388 1.388 . S
C2388 H2375 0.930 . S
C2388 C2387 1.388 . S
C2388 C2389 1.390 . S
C2389 C2388 1.390 . S
C2389 C2390 1.394 . S
C2389 C2395 1.465 . S
C2390 C2385 1.399 . S
C2390 C2389 1.394 . S
C2390 C2391 1.516 . S
C2391 C2390 1.516 . S
C2391 C2392 1.502 . S
C2391 C2393 1.561 . S
C2391 C2394 1.526 . S
C2392 H2376 0.959 . S
C2392 H2377 0.959 . S
C2392 H2378 0.961 . S
C2392 C2391 1.502 . S
C2393 H2379 0.960 . S
C2393 H2380 0.961 . S
C2393 H2381 0.959 . S
C2393 C2391 1.561 . S
C2394 C2391 1.526 . S
C2394 C2395 1.396 . S
C2394 C2399 1.390 . S
C2395 C2389 1.465 . S
C2395 C2394 1.396 . S
C2395 C2396 1.399 . S
C2396 H2382 0.929 . S
C2396 C2395 1.399 . S
C2396 C2397 1.385 . S
C2397 H2383 0.931 . S
C2397 C2396 1.385 . S
C2397 C2398 1.389 . S
C2398 C2397 1.389 . S
C2398 C2399 1.387 . S
C2399 H2384 0.930 . S
C2399 C2394 1.390 . S
C2399 C2398 1.387 . S
H2400 C2412 0.930 . S
H2401 C2414 0.930 . S
H2402 C2415 0.930 . S
H2403 C2419 0.959 . S
H2404 C2419 0.959 . S
H2405 C2419 0.961 . S
H2406 C2420 0.960 . S
H2407 C2420 0.961 . S
H2408 C2420 0.959 . S
H2409 C2423 0.929 . S
H2410 C2424 0.931 . S
H2411 C2426 0.930 . S
C2412 H2400 0.930 . S
C2412 C2413 1.399 . S
C2412 C2417 1.399 . S
C2413 C2412 1.399 . S
C2413 C2414 1.376 . S
C2414 H2401 0.930 . S
C2414 C2413 1.376 . S
C2414 C2415 1.388 . S
C2415 H2402 0.930 . S
C2415 C2414 1.388 . S
C2415 C2416 1.390 . S
C2416 C2415 1.390 . S
C2416 C2417 1.394 . S
C2416 C2422 1.465 . S
C2417 C2412 1.399 . S
C2417 C2416 1.394 . S
C2417 C2418 1.516 . S
C2418 C2417 1.516 . S
C2418 C2419 1.502 . S
C2418 C2420 1.561 . S
C2418 C2421 1.526 . S
C2419 H2403 0.959 . S
C2419 H2404 0.959 . S
C2419 H2405 0.961 . S
C2419 C2418 1.502 . S
C2420 H2406 0.960 . S
C2420 H2407 0.961 . S
C2420 H2408 0.959 . S
C2420 C2418 1.561 . S
C2421 C2418 1.526 . S
C2421 C2422 1.396 . S
C2421 C2426 1.390 . S
C2422 C2416 1.465 . S
C2422 C2421 1.396 . S
C2422 C2423 1.399 . S
C2423 H2409 0.929 . S
C2423 C2422 1.399 . S
C2423 C2424 1.385 . S
C2424 H2410 0.931 . S
C2424 C2423 1.385 . S
C2424 C2425 1.389 . S
C2425 C2424 1.389 . S
C2425 C2426 1.387 . S
C2426 H2411 0.930 . S
C2426 C2421 1.390 . S
C2426 C2425 1.387 . S
H2427 C2439 0.930 . S
H2428 C2441 0.930 . S
H2429 C2442 0.930 . S
H2430 C2446 0.959 . S
H2431 C2446 0.959 . S
H2432 C2446 0.961 . S
H2433 C2447 0.960 . S
H2434 C2447 0.961 . S
H2435 C2447 0.959 . S
H2436 C2450 0.929 . S
H2437 C2451 0.931 . S
H2438 C2453 0.930 . S
C2439 H2427 0.930 . S
C2439 C2440 1.399 . S
C2439 C2444 1.399 . S
C2440 C2439 1.399 . S
C2440 C2441 1.376 . S
C2441 H2428 0.930 . S
C2441 C2440 1.376 . S
C2441 C2442 1.388 . S
C2442 H2429 0.930 . S
C2442 C2441 1.388 . S
C2442 C2443 1.390 . S
C2443 C2442 1.390 . S
C2443 C2444 1.394 . S
C2443 C2449 1.465 . S
C2444 C2439 1.399 . S
C2444 C2443 1.394 . S
C2444 C2445 1.516 . S
C2445 C2444 1.516 . S
C2445 C2446 1.502 . S
C2445 C2447 1.561 . S
C2445 C2448 1.526 . S
C2446 H2430 0.959 . S
C2446 H2431 0.959 . S
C2446 H2432 0.961 . S
C2446 C2445 1.502 . S
C2447 H2433 0.960 . S
C2447 H2434 0.961 . S
C2447 H2435 0.959 . S
C2447 C2445 1.561 . S
C2448 C2445 1.526 . S
C2448 C2449 1.396 . S
C2448 C2453 1.390 . S
C2449 C2443 1.465 . S
C2449 C2448 1.396 . S
C2449 C2450 1.399 . S
C2450 H2436 0.929 . S
C2450 C2449 1.399 . S
C2450 C2451 1.385 . S
C2451 H2437 0.931 . S
C2451 C2450 1.385 . S
C2451 C2452 1.389 . S
C2452 C2451 1.389 . S
C2452 C2453 1.387 . S
C2453 H2438 0.930 . S
C2453 C2448 1.390 . S
C2453 C2452 1.387 . S
H2454 C2466 0.930 . S
H2455 C2468 0.930 . S
H2456 C2469 0.930 . S
H2457 C2473 0.959 . S
H2458 C2473 0.959 . S
H2459 C2473 0.961 . S
H2460 C2474 0.960 . S
H2461 C2474 0.961 . S
H2462 C2474 0.959 . S
H2463 C2477 0.929 . S
H2464 C2478 0.931 . S
H2465 C2480 0.930 . S
C2466 H2454 0.930 . S
C2466 C2467 1.399 . S
C2466 C2471 1.399 . S
C2467 C2466 1.399 . S
C2467 C2468 1.376 . S
C2468 H2455 0.930 . S
C2468 C2467 1.376 . S
C2468 C2469 1.388 . S
C2469 H2456 0.930 . S
C2469 C2468 1.388 . S
C2469 C2470 1.390 . S
C2470 C2469 1.390 . S
C2470 C2471 1.394 . S
C2470 C2476 1.465 . S
C2471 C2466 1.399 . S
C2471 C2470 1.394 . S
C2471 C2472 1.516 . S
C2472 C2471 1.516 . S
C2472 C2473 1.502 . S
C2472 C2474 1.561 . S
C2472 C2475 1.526 . S
C2473 H2457 0.959 . S
C2473 H2458 0.959 . S
C2473 H2459 0.961 . S
C2473 C2472 1.502 . S
C2474 H2460 0.960 . S
C2474 H2461 0.961 . S
C2474 H2462 0.959 . S
C2474 C2472 1.561 . S
C2475 C2472 1.526 . S
C2475 C2476 1.396 . S
C2475 C2480 1.390 . S
C2476 C2470 1.465 . S
C2476 C2475 1.396 . S
C2476 C2477 1.399 . S
C2477 H2463 0.929 . S
C2477 C2476 1.399 . S
C2477 C2478 1.385 . S
C2478 H2464 0.931 . S
C2478 C2477 1.385 . S
C2478 C2479 1.389 . S
C2479 C2478 1.389 . S
C2479 C2480 1.387 . S
C2480 H2465 0.930 . S
C2480 C2475 1.390 . S
C2480 C2479 1.387 . S
H2481 C2493 0.930 . S
H2482 C2495 0.930 . S
H2483 C2496 0.930 . S
H2484 C2500 0.959 . S
H2485 C2500 0.959 . S
H2486 C2500 0.961 . S
H2487 C2501 0.960 . S
H2488 C2501 0.961 . S
H2489 C2501 0.959 . S
H2490 C2504 0.929 . S
H2491 C2505 0.931 . S
H2492 C2507 0.930 . S
C2493 H2481 0.930 . S
C2493 C2494 1.399 . S
C2493 C2498 1.399 . S
C2494 C2493 1.399 . S
C2494 C2495 1.376 . S
C2495 H2482 0.930 . S
C2495 C2494 1.376 . S
C2495 C2496 1.388 . S
C2496 H2483 0.930 . S
C2496 C2495 1.388 . S
C2496 C2497 1.390 . S
C2497 C2496 1.390 . S
C2497 C2498 1.394 . S
C2497 C2503 1.465 . S
C2498 C2493 1.399 . S
C2498 C2497 1.394 . S
C2498 C2499 1.516 . S
C2499 C2498 1.516 . S
C2499 C2500 1.502 . S
C2499 C2501 1.561 . S
C2499 C2502 1.526 . S
C2500 H2484 0.959 . S
C2500 H2485 0.959 . S
C2500 H2486 0.961 . S
C2500 C2499 1.502 . S
C2501 H2487 0.960 . S
C2501 H2488 0.961 . S
C2501 H2489 0.959 . S
C2501 C2499 1.561 . S
C2502 C2499 1.526 . S
C2502 C2503 1.396 . S
C2502 C2507 1.390 . S
C2503 C2497 1.465 . S
C2503 C2502 1.396 . S
C2503 C2504 1.399 . S
C2504 H2490 0.929 . S
C2504 C2503 1.399 . S
C2504 C2505 1.385 . S
C2505 H2491 0.931 . S
C2505 C2504 1.385 . S
C2505 C2506 1.389 . S
C2506 C2505 1.389 . S
C2506 C2507 1.387 . S
C2507 H2492 0.930 . S
C2507 C2502 1.390 . S
C2507 C2506 1.387 . S
H2508 C2520 0.930 . S
H2509 C2522 0.930 . S
H2510 C2523 0.930 . S
H2511 C2527 0.959 . S
H2512 C2527 0.959 . S
H2513 C2527 0.961 . S
H2514 C2528 0.960 . S
H2515 C2528 0.961 . S
H2516 C2528 0.959 . S
H2517 C2531 0.929 . S
H2518 C2532 0.931 . S
H2519 C2534 0.930 . S
C2520 H2508 0.930 . S
C2520 C2521 1.399 . S
C2520 C2525 1.399 . S
C2521 C2520 1.399 . S
C2521 C2522 1.376 . S
C2522 H2509 0.930 . S
C2522 C2521 1.376 . S
C2522 C2523 1.388 . S
C2523 H2510 0.930 . S
C2523 C2522 1.388 . S
C2523 C2524 1.390 . S
C2524 C2523 1.390 . S
C2524 C2525 1.394 . S
C2524 C2530 1.465 . S
C2525 C2520 1.399 . S
C2525 C2524 1.394 . S
C2525 C2526 1.516 . S
C2526 C2525 1.516 . S
C2526 C2527 1.502 . S
C2526 C2528 1.561 . S
C2526 C2529 1.526 . S
C2527 H2511 0.959 . S
C2527 H2512 0.959 . S
C2527 H2513 0.961 . S
C2527 C2526 1.502 . S
C2528 H2514 0.960 . S
C2528 H2515 0.961 . S
C2528 H2516 0.959 . S
C2528 C2526 1.561 . S
C2529 C2526 1.526 . S
C2529 C2530 1.396 . S
C2529 C2534 1.390 . S
C2530 C2524 1.465 . S
C2530 C2529 1.396 . S
C2530 C2531 1.399 . S
C2531 H2517 0.929 . S
C2531 C2530 1.399 . S
C2531 C2532 1.385 . S
C2532 H2518 0.931 . S
C2532 C2531 1.385 . S
C2532 C2533 1.389 . S
C2533 C2532 1.389 . S
C2533 C2534 1.387 . S
C2534 H2519 0.930 . S
C2534 C2529 1.390 . S
C2534 C2533 1.387 . S
H2535 C2547 0.930 . S
H2536 C2549 0.930 . S
H2537 C2550 0.930 . S
H2538 C2554 0.959 . S
H2539 C2554 0.959 . S
H2540 C2554 0.961 . S
H2541 C2555 0.960 . S
H2542 C2555 0.961 . S
H2543 C2555 0.959 . S
H2544 C2558 0.929 . S
H2545 C2559 0.931 . S
H2546 C2561 0.930 . S
C2547 H2535 0.930 . S
C2547 C2548 1.399 . S
C2547 C2552 1.399 . S
C2548 C2547 1.399 . S
C2548 C2549 1.376 . S
C2549 H2536 0.930 . S
C2549 C2548 1.376 . S
C2549 C2550 1.388 . S
C2550 H2537 0.930 . S
C2550 C2549 1.388 . S
C2550 C2551 1.390 . S
C2551 C2550 1.390 . S
C2551 C2552 1.394 . S
C2551 C2557 1.465 . S
C2552 C2547 1.399 . S
C2552 C2551 1.394 . S
C2552 C2553 1.516 . S
C2553 C2552 1.516 . S
C2553 C2554 1.502 . S
C2553 C2555 1.561 . S
C2553 C2556 1.526 . S
C2554 H2538 0.959 . S
C2554 H2539 0.959 . S
C2554 H2540 0.961 . S
C2554 C2553 1.502 . S
C2555 H2541 0.960 . S
C2555 H2542 0.961 . S
C2555 H2543 0.959 . S
C2555 C2553 1.561 . S
C2556 C2553 1.526 . S
C2556 C2557 1.396 . S
C2556 C2561 1.390 . S
C2557 C2551 1.465 . S
C2557 C2556 1.396 . S
C2557 C2558 1.399 . S
C2558 H2544 0.929 . S
C2558 C2557 1.399 . S
C2558 C2559 1.385 . S
C2559 H2545 0.931 . S
C2559 C2558 1.385 . S
C2559 C2560 1.389 . S
C2560 C2559 1.389 . S
C2560 C2561 1.387 . S
C2561 H2546 0.930 . S
C2561 C2556 1.390 . S
C2561 C2560 1.387 . S
H2562 C2574 0.930 . S
H2563 C2576 0.930 . S
H2564 C2577 0.930 . S
H2565 C2581 0.959 . S
H2566 C2581 0.959 . S
H2567 C2581 0.961 . S
H2568 C2582 0.960 . S
H2569 C2582 0.961 . S
H2570 C2582 0.959 . S
H2571 C2585 0.929 . S
H2572 C2586 0.931 . S
H2573 C2588 0.930 . S
C2574 H2562 0.930 . S
C2574 C2575 1.399 . S
C2574 C2579 1.399 . S
C2575 C2574 1.399 . S
C2575 C2576 1.376 . S
C2576 H2563 0.930 . S
C2576 C2575 1.376 . S
C2576 C2577 1.388 . S
C2577 H2564 0.930 . S
C2577 C2576 1.388 . S
C2577 C2578 1.390 . S
C2578 C2577 1.390 . S
C2578 C2579 1.394 . S
C2578 C2584 1.465 . S
C2579 C2574 1.399 . S
C2579 C2578 1.394 . S
C2579 C2580 1.516 . S
C2580 C2579 1.516 . S
C2580 C2581 1.502 . S
C2580 C2582 1.561 . S
C2580 C2583 1.526 . S
C2581 H2565 0.959 . S
C2581 H2566 0.959 . S
C2581 H2567 0.961 . S
C2581 C2580 1.502 . S
C2582 H2568 0.960 . S
C2582 H2569 0.961 . S
C2582 H2570 0.959 . S
C2582 C2580 1.561 . S
C2583 C2580 1.526 . S
C2583 C2584 1.396 . S
C2583 C2588 1.390 . S
C2584 C2578 1.465 . S
C2584 C2583 1.396 . S
C2584 C2585 1.399 . S
C2585 H2571 0.929 . S
C2585 C2584 1.399 . S
C2585 C2586 1.385 . S
C2586 H2572 0.931 . S
C2586 C2585 1.385 . S
C2586 C2587 1.389 . S
C2587 C2586 1.389 . S
C2587 C2588 1.387 . S
C2588 H2573 0.930 . S
C2588 C2583 1.390 . S
C2588 C2587 1.387 . S
H2589 C2601 0.930 . S
H2590 C2603 0.930 . S
H2591 C2604 0.930 . S
H2592 C2608 0.959 . S
H2593 C2608 0.959 . S
H2594 C2608 0.961 . S
H2595 C2609 0.960 . S
H2596 C2609 0.961 . S
H2597 C2609 0.959 . S
H2598 C2612 0.929 . S
H2599 C2613 0.931 . S
H2600 C2615 0.930 . S
C2601 H2589 0.930 . S
C2601 C2602 1.399 . S
C2601 C2606 1.399 . S
C2602 C2601 1.399 . S
C2602 C2603 1.376 . S
C2603 H2590 0.930 . S
C2603 C2602 1.376 . S
C2603 C2604 1.388 . S
C2604 H2591 0.930 . S
C2604 C2603 1.388 . S
C2604 C2605 1.390 . S
C2605 C2604 1.390 . S
C2605 C2606 1.394 . S
C2605 C2611 1.465 . S
C2606 C2601 1.399 . S
C2606 C2605 1.394 . S
C2606 C2607 1.516 . S
C2607 C2606 1.516 . S
C2607 C2608 1.502 . S
C2607 C2609 1.561 . S
C2607 C2610 1.526 . S
C2608 H2592 0.959 . S
C2608 H2593 0.959 . S
C2608 H2594 0.961 . S
C2608 C2607 1.502 . S
C2609 H2595 0.960 . S
C2609 H2596 0.961 . S
C2609 H2597 0.959 . S
C2609 C2607 1.561 . S
C2610 C2607 1.526 . S
C2610 C2611 1.396 . S
C2610 C2615 1.390 . S
C2611 C2605 1.465 . S
C2611 C2610 1.396 . S
C2611 C2612 1.399 . S
C2612 H2598 0.929 . S
C2612 C2611 1.399 . S
C2612 C2613 1.385 . S
C2613 H2599 0.931 . S
C2613 C2612 1.385 . S
C2613 C2614 1.389 . S
C2614 C2613 1.389 . S
C2614 C2615 1.387 . S
C2615 H2600 0.930 . S
C2615 C2610 1.390 . S
C2615 C2614 1.387 . S
H2616 C2628 0.930 . S
H2617 C2630 0.930 . S
H2618 C2631 0.930 . S
H2619 C2635 0.963 . S
H2620 C2635 0.959 1_556 S
H2621 C2635 0.961 . S
H2622 C2636 0.960 . S
H2623 C2636 0.961 1_556 S
H2624 C2636 0.959 . S
H2625 C2639 0.929 . S
H2626 C2640 0.931 . S
H2627 C2642 0.930 . S
C2628 H2616 0.930 . S
C2628 C2629 1.399 . S
C2628 C2633 1.399 . S
C2629 C2628 1.399 . S
C2629 C2630 1.376 . S
C2630 H2617 0.930 . S
C2630 C2629 1.376 . S
C2630 C2631 1.388 . S
C2631 H2618 0.930 . S
C2631 C2630 1.388 . S
C2631 C2632 1.390 . S
C2632 C2631 1.390 . S
C2632 C2633 1.394 . S
C2632 C2638 1.465 1_554 S
C2633 C2628 1.399 . S
C2633 C2632 1.394 . S
C2633 C2634 1.516 . S
C2634 C2633 1.516 . S
C2634 C2635 1.502 . S
C2634 C2636 1.561 . S
C2634 C2637 1.526 1_554 S
C2635 H2619 0.963 . S
C2635 H2620 0.959 1_554 S
C2635 H2621 0.961 . S
C2635 C2634 1.502 . S
C2636 H2622 0.960 . S
C2636 H2623 0.961 1_554 S
C2636 H2624 0.959 . S
C2636 C2634 1.561 . S
C2637 C2634 1.526 1_556 S
C2637 C2638 1.396 . S
C2637 C2642 1.390 . S
C2638 C2632 1.465 1_556 S
C2638 C2637 1.396 . S
C2638 C2639 1.399 . S
C2639 H2625 0.929 . S
C2639 C2638 1.399 . S
C2639 C2640 1.385 . S
C2640 H2626 0.931 . S
C2640 C2639 1.385 . S
C2640 C2641 1.389 . S
C2641 C2640 1.389 . S
C2641 C2642 1.387 . S
C2642 H2627 0.930 . S
C2642 C2637 1.390 . S
C2642 C2641 1.387 . S
H2643 C2655 0.930 . S
H2644 C2657 0.930 . S
H2645 C2658 0.930 . S
H2646 C2662 0.956 1_554 S
H2647 C2662 0.930 1_554 S
H2648 C2662 0.993 . S
H2649 C2663 0.960 . S
H2650 C2663 0.961 1_554 S
H2651 C2663 0.960 . S
H2652 C2666 0.929 . S
H2653 C2667 0.931 . S
H2654 C2669 0.930 . S
C2655 H2643 0.930 . S
C2655 C2656 1.399 . S
C2655 C2660 1.399 . S
C2656 C2655 1.399 . S
C2656 C2657 1.376 . S
C2657 H2644 0.930 . S
C2657 C2656 1.376 . S
C2657 C2658 1.388 . S
C2658 H2645 0.930 . S
C2658 C2657 1.388 . S
C2658 C2659 1.390 . S
C2659 C2658 1.390 . S
C2659 C2660 1.394 . S
C2659 C2665 1.465 1_556 S
C2660 C2655 1.399 . S
C2660 C2659 1.394 . S
C2660 C2661 1.516 . S
C2661 C2660 1.516 . S
C2661 C2662 1.503 . S
C2661 C2663 1.561 . S
C2661 C2664 1.526 1_556 S
C2662 H2646 0.956 1_556 S
C2662 H2647 0.930 1_556 S
C2662 H2648 0.993 . S
C2662 C2661 1.503 . S
C2663 H2649 0.960 . S
C2663 H2650 0.961 1_556 S
C2663 H2651 0.960 . S
C2663 C2661 1.561 . S
C2664 C2661 1.526 1_554 S
C2664 C2665 1.396 . S
C2664 C2669 1.390 . S
C2665 C2659 1.465 1_554 S
C2665 C2664 1.396 . S
C2665 C2666 1.399 . S
C2666 H2652 0.929 . S
C2666 C2665 1.399 . S
C2666 C2667 1.385 . S
C2667 H2653 0.931 . S
C2667 C2666 1.385 . S
C2667 C2668 1.389 . S
C2668 C2667 1.389 . S
C2668 C2669 1.387 . S
C2669 H2654 0.930 . S
C2669 C2664 1.390 . S
C2669 C2668 1.387 . S
H2670 C2682 0.930 . S
H2671 C2684 0.930 . S
H2672 C2685 0.930 . S
H2673 C2689 0.955 1_556 S
H2674 C2689 0.943 1_556 S
H2675 C2689 0.979 . S
H2676 C2690 0.960 . S
H2677 C2690 0.961 1_556 S
H2678 C2690 0.961 . S
H2679 C2693 0.929 . S
H2680 C2694 0.931 . S
H2681 C2696 0.930 . S
C2682 H2670 0.930 . S
C2682 C2683 1.399 . S
C2682 C2687 1.399 . S
C2683 C2682 1.399 . S
C2683 C2684 1.376 . S
C2684 H2671 0.930 . S
C2684 C2683 1.376 . S
C2684 C2685 1.388 . S
C2685 H2672 0.930 . S
C2685 C2684 1.388 . S
C2685 C2686 1.390 . S
C2686 C2685 1.390 . S
C2686 C2687 1.394 . S
C2686 C2692 1.465 1_554 S
C2687 C2682 1.399 . S
C2687 C2686 1.394 . S
C2687 C2688 1.516 . S
C2688 C2687 1.516 . S
C2688 C2689 1.503 . S
C2688 C2690 1.561 . S
C2688 C2691 1.526 1_554 S
C2689 H2673 0.955 1_554 S
C2689 H2674 0.943 1_554 S
C2689 H2675 0.979 . S
C2689 C2688 1.503 . S
C2690 H2676 0.960 . S
C2690 H2677 0.961 1_554 S
C2690 H2678 0.961 . S
C2690 C2688 1.561 . S
C2691 C2688 1.526 1_556 S
C2691 C2692 1.396 . S
C2691 C2696 1.390 . S
C2692 C2686 1.465 1_556 S
C2692 C2691 1.396 . S
C2692 C2693 1.399 . S
C2693 H2679 0.929 . S
C2693 C2692 1.399 . S
C2693 C2694 1.385 . S
C2694 H2680 0.931 . S
C2694 C2693 1.385 . S
C2694 C2695 1.389 . S
C2695 C2694 1.389 . S
C2695 C2696 1.387 . S
C2696 H2681 0.930 . S
C2696 C2691 1.390 . S
C2696 C2695 1.387 . S
H2697 C2709 0.930 . S
H2698 C2711 0.930 . S
H2699 C2712 0.930 . S
H2700 C2716 0.959 . S
H2701 C2716 0.959 . S
H2702 C2716 0.961 1_554 S
H2703 C2717 0.916 1_554 S
H2704 C2717 1.002 . S
H2705 C2717 0.964 . S
H2706 C2720 0.929 . S
H2707 C2721 0.931 . S
H2708 C2723 0.930 . S
C2709 H2697 0.930 . S
C2709 C2710 1.399 . S
C2709 C2714 1.399 . S
C2710 C2709 1.399 . S
C2710 C2711 1.376 . S
C2711 H2698 0.930 . S
C2711 C2710 1.376 . S
C2711 C2712 1.388 . S
C2712 H2699 0.930 . S
C2712 C2711 1.388 . S
C2712 C2713 1.390 . S
C2713 C2712 1.390 . S
C2713 C2714 1.394 . S
C2713 C2719 1.465 1_554 S
C2714 C2709 1.399 . S
C2714 C2713 1.394 . S
C2714 C2715 1.516 1_554 S
C2715 C2714 1.516 1_556 S
C2715 C2716 1.502 . S
C2715 C2717 1.563 . S
C2715 C2718 1.526 . S
C2716 H2700 0.959 . S
C2716 H2701 0.959 . S
C2716 H2702 0.961 1_556 S
C2716 C2715 1.502 . S
C2717 H2703 0.916 1_556 S
C2717 H2704 1.002 . S
C2717 H2705 0.964 . S
C2717 C2715 1.563 . S
C2718 C2715 1.526 . S
C2718 C2719 1.396 . S
C2718 C2723 1.390 . S
C2719 C2713 1.465 1_556 S
C2719 C2718 1.396 . S
C2719 C2720 1.399 . S
C2720 H2706 0.929 . S
C2720 C2719 1.399 . S
C2720 C2721 1.385 . S
C2721 H2707 0.931 . S
C2721 C2720 1.385 . S
C2721 C2722 1.389 . S
C2722 C2721 1.389 . S
C2722 C2723 1.387 . S
C2723 H2708 0.930 . S
C2723 C2718 1.390 . S
C2723 C2722 1.387 . S
H2724 C2736 0.930 . S
H2725 C2738 0.930 . S
H2726 C2739 0.930 . S
H2727 C2743 0.959 . S
H2728 C2743 0.959 . S
H2729 C2743 0.961 1_556 S
H2730 C2744 0.960 1_556 S
H2731 C2744 0.961 . S
H2732 C2744 0.959 . S
H2733 C2747 0.929 . S
H2734 C2748 0.931 . S
H2735 C2750 0.930 . S
C2736 H2724 0.930 . S
C2736 C2737 1.399 . S
C2736 C2741 1.399 . S
C2737 C2736 1.399 . S
C2737 C2738 1.376 . S
C2738 H2725 0.930 . S
C2738 C2737 1.376 . S
C2738 C2739 1.388 . S
C2739 H2726 0.930 . S
C2739 C2738 1.388 . S
C2739 C2740 1.390 . S
C2740 C2739 1.390 . S
C2740 C2741 1.394 . S
C2740 C2746 1.465 1_556 S
C2741 C2736 1.399 . S
C2741 C2740 1.394 . S
C2741 C2742 1.516 1_556 S
C2742 C2741 1.516 1_554 S
C2742 C2743 1.502 . S
C2742 C2744 1.561 . S
C2742 C2745 1.526 . S
C2743 H2727 0.959 . S
C2743 H2728 0.959 . S
C2743 H2729 0.961 1_554 S
C2743 C2742 1.502 . S
C2744 H2730 0.960 1_554 S
C2744 H2731 0.961 . S
C2744 H2732 0.959 . S
C2744 C2742 1.561 . S
C2745 C2742 1.526 . S
C2745 C2746 1.396 . S
C2745 C2750 1.390 . S
C2746 C2740 1.465 1_554 S
C2746 C2745 1.396 . S
C2746 C2747 1.399 . S
C2747 H2733 0.929 . S
C2747 C2746 1.399 . S
C2747 C2748 1.385 . S
C2748 H2734 0.931 . S
C2748 C2747 1.385 . S
C2748 C2749 1.389 . S
C2749 C2748 1.389 . S
C2749 C2750 1.387 . S
C2750 H2735 0.930 . S
C2750 C2745 1.390 . S
C2750 C2749 1.387 . S
H2751 C2763 0.930 . S
H2752 C2765 0.930 . S
H2753 C2766 0.930 . S
H2754 C2770 0.954 1_556 S
H2755 C2770 0.942 1_556 S
H2756 C2770 0.979 . S
H2757 C2771 0.960 . S
H2758 C2771 0.961 1_556 S
H2759 C2771 0.961 . S
H2760 C2774 0.929 . S
H2761 C2775 0.931 . S
H2762 C2777 0.930 . S
C2763 H2751 0.930 . S
C2763 C2764 1.399 . S
C2763 C2768 1.399 . S
C2764 C2763 1.399 . S
C2764 C2765 1.376 . S
C2765 H2752 0.930 . S
C2765 C2764 1.376 . S
C2765 C2766 1.388 . S
C2766 H2753 0.930 . S
C2766 C2765 1.388 . S
C2766 C2767 1.390 . S
C2767 C2766 1.390 . S
C2767 C2768 1.394 . S
C2767 C2773 1.465 1_554 S
C2768 C2763 1.399 . S
C2768 C2767 1.394 . S
C2768 C2769 1.516 . S
C2769 C2768 1.516 . S
C2769 C2770 1.503 . S
C2769 C2771 1.561 . S
C2769 C2772 1.526 1_554 S
C2770 H2754 0.954 1_554 S
C2770 H2755 0.942 1_554 S
C2770 H2756 0.979 . S
C2770 C2769 1.503 . S
C2771 H2757 0.960 . S
C2771 H2758 0.961 1_554 S
C2771 H2759 0.961 . S
C2771 C2769 1.561 . S
C2772 C2769 1.526 1_556 S
C2772 C2773 1.396 . S
C2772 C2777 1.390 . S
C2773 C2767 1.465 1_556 S
C2773 C2772 1.396 . S
C2773 C2774 1.399 . S
C2774 H2760 0.929 . S
C2774 C2773 1.399 . S
C2774 C2775 1.385 . S
C2775 H2761 0.931 . S
C2775 C2774 1.385 . S
C2775 C2776 1.389 . S
C2776 C2775 1.389 . S
C2776 C2777 1.387 . S
C2777 H2762 0.930 . S
C2777 C2772 1.390 . S
C2777 C2776 1.387 . S
H2778 C2790 0.930 . S
H2779 C2792 0.930 . S
H2780 C2793 0.930 . S
H2781 C2797 0.959 . S
H2782 C2797 0.959 . S
H2783 C2797 0.961 1_556 S
H2784 C2798 0.960 1_556 S
H2785 C2798 0.961 . S
H2786 C2798 0.959 . S
H2787 C2801 0.929 . S
H2788 C2802 0.931 . S
H2789 C2804 0.930 . S
C2790 H2778 0.930 . S
C2790 C2791 1.399 . S
C2790 C2795 1.399 . S
C2791 C2790 1.399 . S
C2791 C2792 1.376 . S
C2792 H2779 0.930 . S
C2792 C2791 1.376 . S
C2792 C2793 1.388 . S
C2793 H2780 0.930 . S
C2793 C2792 1.388 . S
C2793 C2794 1.390 . S
C2794 C2793 1.390 . S
C2794 C2795 1.394 . S
C2794 C2800 1.465 1_556 S
C2795 C2790 1.399 . S
C2795 C2794 1.394 . S
C2795 C2796 1.516 1_556 S
C2796 C2795 1.516 1_554 S
C2796 C2797 1.502 . S
C2796 C2798 1.561 . S
C2796 C2799 1.526 . S
C2797 H2781 0.959 . S
C2797 H2782 0.959 . S
C2797 H2783 0.961 1_554 S
C2797 C2796 1.502 . S
C2798 H2784 0.960 1_554 S
C2798 H2785 0.961 . S
C2798 H2786 0.959 . S
C2798 C2796 1.561 . S
C2799 C2796 1.526 . S
C2799 C2800 1.396 . S
C2799 C2804 1.390 . S
C2800 C2794 1.465 1_554 S
C2800 C2799 1.396 . S
C2800 C2801 1.399 . S
C2801 H2787 0.929 . S
C2801 C2800 1.399 . S
C2801 C2802 1.385 . S
C2802 H2788 0.931 . S
C2802 C2801 1.385 . S
C2802 C2803 1.389 . S
C2803 C2802 1.389 . S
C2803 C2804 1.387 . S
C2804 H2789 0.930 . S
C2804 C2799 1.390 . S
C2804 C2803 1.387 . S
H2805 C2817 0.930 . S
H2806 C2819 0.930 . S
H2807 C2820 0.930 . S
H2808 C2824 0.960 . S
H2809 C2824 0.962 . S
H2810 C2824 0.958 1_554 S
H2811 C2825 0.960 . S
H2812 C2825 0.961 1_556 S
H2813 C2825 0.960 . S
H2814 C2828 0.929 . S
H2815 C2829 0.931 . S
H2816 C2831 0.930 . S
C2817 H2805 0.930 . S
C2817 C2818 1.399 . S
C2817 C2822 1.399 . S
C2818 C2817 1.399 . S
C2818 C2819 1.376 . S
C2819 H2806 0.930 . S
C2819 C2818 1.376 . S
C2819 C2820 1.388 . S
C2820 H2807 0.930 . S
C2820 C2819 1.388 . S
C2820 C2821 1.390 . S
C2821 C2820 1.390 . S
C2821 C2822 1.394 . S
C2821 C2827 1.465 1_554 S
C2822 C2817 1.399 . S
C2822 C2821 1.394 . S
C2822 C2823 1.542 . S
C2823 C2822 1.542 . S
C2823 C2824 1.501 1_554 S
C2823 C2825 1.562 . S
C2823 C2826 1.500 1_554 S
C2824 H2808 0.960 . S
C2824 H2809 0.962 . S
C2824 H2810 0.958 1_556 S
C2824 C2823 1.501 1_556 S
C2825 H2811 0.960 . S
C2825 H2812 0.961 1_554 S
C2825 H2813 0.960 . S
C2825 C2823 1.562 . S
C2826 C2823 1.500 1_556 S
C2826 C2827 1.396 . S
C2826 C2831 1.390 . S
C2827 C2821 1.465 1_556 S
C2827 C2826 1.396 . S
C2827 C2828 1.399 . S
C2828 H2814 0.929 . S
C2828 C2827 1.399 . S
C2828 C2829 1.385 . S
C2829 H2815 0.931 . S
C2829 C2828 1.385 . S
C2829 C2830 1.389 . S
C2830 C2829 1.389 . S
C2830 C2831 1.387 . S
C2831 H2816 0.930 . S
C2831 C2826 1.390 . S
C2831 C2830 1.387 . S
H2832 C2844 0.930 . S
H2833 C2846 0.930 . S
H2834 C2847 0.930 . S
H2835 C2851 0.959 . S
H2836 C2851 0.959 1_655 S
H2837 C2851 0.961 . S
H2838 C2852 0.960 . S
H2839 C2852 0.961 1_655 S
H2840 C2852 0.959 . S
H2841 C2855 0.929 . S
H2842 C2856 0.931 . S
H2843 C2858 0.930 . S
C2844 H2832 0.930 . S
C2844 C2845 1.399 . S
C2844 C2849 1.399 . S
C2845 C2844 1.399 . S
C2845 C2846 1.376 . S
C2846 H2833 0.930 . S
C2846 C2845 1.376 . S
C2846 C2847 1.388 . S
C2847 H2834 0.930 . S
C2847 C2846 1.388 . S
C2847 C2848 1.390 . S
C2848 C2847 1.390 . S
C2848 C2849 1.394 . S
C2848 C2854 1.465 1_455 S
C2849 C2844 1.399 . S
C2849 C2848 1.394 . S
C2849 C2850 1.516 . S
C2850 C2849 1.516 . S
C2850 C2851 1.502 . S
C2850 C2852 1.561 . S
C2850 C2853 1.526 1_455 S
C2851 H2835 0.959 . S
C2851 H2836 0.959 1_455 S
C2851 H2837 0.961 . S
C2851 C2850 1.502 . S
C2852 H2838 0.960 . S
C2852 H2839 0.961 1_455 S
C2852 H2840 0.959 . S
C2852 C2850 1.561 . S
C2853 C2850 1.526 1_655 S
C2853 C2854 1.396 . S
C2853 C2858 1.390 . S
C2854 C2848 1.465 1_655 S
C2854 C2853 1.396 . S
C2854 C2855 1.399 . S
C2855 H2841 0.929 . S
C2855 C2854 1.399 . S
C2855 C2856 1.385 . S
C2856 H2842 0.931 . S
C2856 C2855 1.385 . S
C2856 C2857 1.389 . S
C2857 C2856 1.389 . S
C2857 C2858 1.387 . S
C2858 H2843 0.930 . S
C2858 C2853 1.390 . S
C2858 C2857 1.387 . S
H2859 C2871 0.930 . S
H2860 C2873 0.930 . S
H2861 C2874 0.930 . S
H2862 C2878 0.959 . S
H2863 C2878 0.959 . S
H2864 C2878 0.961 1_565 S
H2865 C2879 0.937 1_565 S
H2866 C2879 0.983 . S
H2867 C2879 0.961 . S
H2868 C2882 0.929 . S
H2869 C2883 0.931 . S
H2870 C2885 0.930 . S
C2871 H2859 0.930 . S
C2871 C2872 1.399 . S
C2871 C2876 1.399 . S
C2872 C2871 1.399 . S
C2872 C2873 1.376 . S
C2873 H2860 0.930 . S
C2873 C2872 1.376 . S
C2873 C2874 1.388 . S
C2874 H2861 0.930 . S
C2874 C2873 1.388 . S
C2874 C2875 1.390 . S
C2875 C2874 1.390 . S
C2875 C2876 1.394 . S
C2875 C2881 1.465 1_565 S
C2876 C2871 1.399 . S
C2876 C2875 1.394 . S
C2876 C2877 1.467 1_565 S
C2877 C2876 1.467 1_545 S
C2877 C2878 1.506 . S
C2877 C2879 1.561 . S
C2877 C2880 1.574 . S
C2878 H2862 0.959 . S
C2878 H2863 0.959 . S
C2878 H2864 0.961 1_545 S
C2878 C2877 1.506 . S
C2879 H2865 0.937 1_545 S
C2879 H2866 0.983 . S
C2879 H2867 0.961 . S
C2879 C2877 1.561 . S
C2880 C2877 1.574 . S
C2880 C2881 1.396 . S
C2880 C2885 1.390 . S
C2881 C2875 1.465 1_545 S
C2881 C2880 1.396 . S
C2881 C2882 1.399 . S
C2882 H2868 0.929 . S
C2882 C2881 1.399 . S
C2882 C2883 1.385 . S
C2883 H2869 0.931 . S
C2883 C2882 1.385 . S
C2883 C2884 1.389 . S
C2884 C2883 1.389 . S
C2884 C2885 1.387 . S
C2885 H2870 0.930 . S
C2885 C2880 1.390 . S
C2885 C2884 1.387 . S
H2886 C2898 0.930 . S
H2887 C2900 0.930 . S
H2888 C2901 0.930 . S
H2889 C2905 0.958 1_655 S
H2890 C2905 0.948 1_655 S
H2891 C2905 0.973 . S
H2892 C2906 0.960 . S
H2893 C2906 0.961 1_655 S
H2894 C2906 0.962 . S
H2895 C2909 0.929 . S
H2896 C2910 0.931 . S
H2897 C2912 0.930 . S
C2898 H2886 0.930 . S
C2898 C2899 1.399 . S
C2898 C2903 1.399 . S
C2899 C2898 1.399 . S
C2899 C2900 1.376 . S
C2900 H2887 0.930 . S
C2900 C2899 1.376 . S
C2900 C2901 1.388 . S
C2901 H2888 0.930 . S
C2901 C2900 1.388 . S
C2901 C2902 1.390 . S
C2902 C2901 1.390 . S
C2902 C2903 1.394 . S
C2902 C2908 1.465 1_455 S
C2903 C2898 1.399 . S
C2903 C2902 1.394 . S
C2903 C2904 1.558 . S
C2904 C2903 1.558 . S
C2904 C2905 1.501 . S
C2904 C2906 1.563 . S
C2904 C2907 1.484 1_455 S
C2905 H2889 0.958 1_455 S
C2905 H2890 0.948 1_455 S
C2905 H2891 0.973 . S
C2905 C2904 1.501 . S
C2906 H2892 0.960 . S
C2906 H2893 0.961 1_455 S
C2906 H2894 0.962 . S
C2906 C2904 1.563 . S
C2907 C2904 1.484 1_655 S
C2907 C2908 1.396 . S
C2907 C2912 1.390 . S
C2908 C2902 1.465 1_655 S
C2908 C2907 1.396 . S
C2908 C2909 1.399 . S
C2909 H2895 0.929 . S
C2909 C2908 1.399 . S
C2909 C2910 1.385 . S
C2910 H2896 0.931 . S
C2910 C2909 1.385 . S
C2910 C2911 1.389 . S
C2911 C2910 1.389 . S
C2911 C2912 1.387 . S
C2912 H2897 0.930 . S
C2912 C2907 1.390 . S
C2912 C2911 1.387 . S
H2913 C2925 0.930 . S
H2914 C2927 0.930 . S
H2915 C2928 0.930 . S
H2916 C2932 0.959 . S
H2917 C2932 0.959 . S
H2918 C2932 0.961 1_565 S
H2919 C2933 0.960 1_565 S
H2920 C2933 0.961 . S
H2921 C2933 0.959 . S
H2922 C2936 0.929 . S
H2923 C2937 0.931 . S
H2924 C2939 0.930 . S
C2925 H2913 0.930 . S
C2925 C2926 1.399 . S
C2925 C2930 1.399 . S
C2926 C2925 1.399 . S
C2926 C2927 1.376 . S
C2927 H2914 0.930 . S
C2927 C2926 1.376 . S
C2927 C2928 1.388 . S
C2928 H2915 0.930 . S
C2928 C2927 1.388 . S
C2928 C2929 1.390 . S
C2929 C2928 1.390 . S
C2929 C2930 1.394 . S
C2929 C2935 1.465 1_565 S
C2930 C2925 1.399 . S
C2930 C2929 1.394 . S
C2930 C2931 1.516 1_565 S
C2931 C2930 1.516 1_545 S
C2931 C2932 1.502 . S
C2931 C2933 1.561 . S
C2931 C2934 1.526 . S
C2932 H2916 0.959 . S
C2932 H2917 0.959 . S
C2932 H2918 0.961 1_545 S
C2932 C2931 1.502 . S
C2933 H2919 0.960 1_545 S
C2933 H2920 0.961 . S
C2933 H2921 0.959 . S
C2933 C2931 1.561 . S
C2934 C2931 1.526 . S
C2934 C2935 1.396 . S
C2934 C2939 1.390 . S
C2935 C2929 1.465 1_545 S
C2935 C2934 1.396 . S
C2935 C2936 1.399 . S
C2936 H2922 0.929 . S
C2936 C2935 1.399 . S
C2936 C2937 1.385 . S
C2937 H2923 0.931 . S
C2937 C2936 1.385 . S
C2937 C2938 1.389 . S
C2938 C2937 1.389 . S
C2938 C2939 1.387 . S
C2939 H2924 0.930 . S
C2939 C2934 1.390 . S
C2939 C2938 1.387 . S
H2940 C2952 0.930 . S
H2941 C2954 0.930 . S
H2942 C2955 0.930 . S
H2943 C2959 0.959 . S
H2944 C2959 0.959 . S
H2945 C2959 0.961 1_655 S
H2946 C2960 0.960 1_655 S
H2947 C2960 0.961 . S
H2948 C2960 0.959 . S
H2949 C2963 0.929 . S
H2950 C2964 0.931 . S
H2951 C2966 0.930 . S
C2952 H2940 0.930 . S
C2952 C2953 1.399 . S
C2952 C2957 1.399 . S
C2953 C2952 1.399 . S
C2953 C2954 1.376 . S
C2954 H2941 0.930 . S
C2954 C2953 1.376 . S
C2954 C2955 1.388 . S
C2955 H2942 0.930 . S
C2955 C2954 1.388 . S
C2955 C2956 1.390 . S
C2956 C2955 1.390 . S
C2956 C2957 1.394 . S
C2956 C2962 1.465 1_655 S
C2957 C2952 1.399 . S
C2957 C2956 1.394 . S
C2957 C2958 1.516 1_655 S
C2958 C2957 1.516 1_455 S
C2958 C2959 1.502 . S
C2958 C2960 1.561 . S
C2958 C2961 1.526 . S
C2959 H2943 0.959 . S
C2959 H2944 0.959 . S
C2959 H2945 0.961 1_455 S
C2959 C2958 1.502 . S
C2960 H2946 0.960 1_455 S
C2960 H2947 0.961 . S
C2960 H2948 0.959 . S
C2960 C2958 1.561 . S
C2961 C2958 1.526 . S
C2961 C2962 1.396 . S
C2961 C2966 1.390 . S
C2962 C2956 1.465 1_455 S
C2962 C2961 1.396 . S
C2962 C2963 1.399 . S
C2963 H2949 0.929 . S
C2963 C2962 1.399 . S
C2963 C2964 1.385 . S
C2964 H2950 0.931 . S
C2964 C2963 1.385 . S
C2964 C2965 1.389 . S
C2965 C2964 1.389 . S
C2965 C2966 1.387 . S
C2966 H2951 0.930 . S
C2966 C2961 1.390 . S
C2966 C2965 1.387 . S
H2967 C2979 0.930 . S
H2968 C2981 0.930 . S
H2969 C2982 0.930 . S
H2970 C2986 0.959 . S
H2971 C2986 0.959 . S
H2972 C2986 0.961 1_545 S
H2973 C2987 0.960 1_545 S
H2974 C2987 0.961 . S
H2975 C2987 0.959 . S
H2976 C2990 0.929 . S
H2977 C2991 0.931 . S
H2978 C2993 0.930 . S
C2979 H2967 0.930 . S
C2979 C2980 1.399 . S
C2979 C2984 1.399 . S
C2980 C2979 1.399 . S
C2980 C2981 1.376 . S
C2981 H2968 0.930 . S
C2981 C2980 1.376 . S
C2981 C2982 1.388 . S
C2982 H2969 0.930 . S
C2982 C2981 1.388 . S
C2982 C2983 1.390 . S
C2983 C2982 1.390 . S
C2983 C2984 1.394 . S
C2983 C2989 1.465 1_545 S
C2984 C2979 1.399 . S
C2984 C2983 1.394 . S
C2984 C2985 1.516 1_545 S
C2985 C2984 1.516 1_565 S
C2985 C2986 1.502 . S
C2985 C2987 1.561 . S
C2985 C2988 1.526 . S
C2986 H2970 0.959 . S
C2986 H2971 0.959 . S
C2986 H2972 0.961 1_565 S
C2986 C2985 1.502 . S
C2987 H2973 0.960 1_565 S
C2987 H2974 0.961 . S
C2987 H2975 0.959 . S
C2987 C2985 1.561 . S
C2988 C2985 1.526 . S
C2988 C2989 1.396 . S
C2988 C2993 1.390 . S
C2989 C2983 1.465 1_565 S
C2989 C2988 1.396 . S
C2989 C2990 1.399 . S
C2990 H2976 0.929 . S
C2990 C2989 1.399 . S
C2990 C2991 1.385 . S
C2991 H2977 0.931 . S
C2991 C2990 1.385 . S
C2991 C2992 1.389 . S
C2992 C2991 1.389 . S
C2992 C2993 1.387 . S
C2993 H2978 0.930 . S
C2993 C2988 1.390 . S
C2993 C2992 1.387 . S
H2994 C3006 0.930 . S
H2995 C3008 0.930 . S
H2996 C3009 0.930 . S
H2997 C3013 0.959 . S
H2998 C3013 0.959 . S
H2999 C3013 0.961 1_455 S
H3000 C3014 0.960 1_455 S
H3001 C3014 0.961 . S
H3002 C3014 0.959 . S
H3003 C3017 0.929 . S
H3004 C3018 0.931 . S
H3005 C3020 0.930 . S
C3006 H2994 0.930 . S
C3006 C3007 1.399 . S
C3006 C3011 1.399 . S
C3007 C3006 1.399 . S
C3007 C3008 1.376 . S
C3008 H2995 0.930 . S
C3008 C3007 1.376 . S
C3008 C3009 1.388 . S
C3009 H2996 0.930 . S
C3009 C3008 1.388 . S
C3009 C3010 1.390 . S
C3010 C3009 1.390 . S
C3010 C3011 1.394 . S
C3010 C3016 1.465 1_455 S
C3011 C3006 1.399 . S
C3011 C3010 1.394 . S
C3011 C3012 1.516 1_455 S
C3012 C3011 1.516 1_655 S
C3012 C3013 1.502 . S
C3012 C3014 1.561 . S
C3012 C3015 1.526 . S
C3013 H2997 0.959 . S
C3013 H2998 0.959 . S
C3013 H2999 0.961 1_655 S
C3013 C3012 1.502 . S
C3014 H3000 0.960 1_655 S
C3014 H3001 0.961 . S
C3014 H3002 0.959 . S
C3014 C3012 1.561 . S
C3015 C3012 1.526 . S
C3015 C3016 1.396 . S
C3015 C3020 1.390 . S
C3016 C3010 1.465 1_655 S
C3016 C3015 1.396 . S
C3016 C3017 1.399 . S
C3017 H3003 0.929 . S
C3017 C3016 1.399 . S
C3017 C3018 1.385 . S
C3018 H3004 0.931 . S
C3018 C3017 1.385 . S
C3018 C3019 1.389 . S
C3019 C3018 1.389 . S
C3019 C3020 1.387 . S
C3020 H3005 0.930 . S
C3020 C3015 1.390 . S
C3020 C3019 1.387 . S
H3021 C3033 0.930 . S
H3022 C3035 0.930 . S
H3023 C3036 0.930 . S
H3024 C3040 0.959 . S
H3025 C3040 0.959 . S
H3026 C3040 0.961 1_545 S
H3027 C3041 0.960 1_545 S
H3028 C3041 0.961 . S
H3029 C3041 0.959 . S
H3030 C3044 0.929 . S
H3031 C3045 0.931 . S
H3032 C3047 0.930 . S
C3033 H3021 0.930 . S
C3033 C3034 1.399 . S
C3033 C3038 1.399 . S
C3034 C3033 1.399 . S
C3034 C3035 1.376 . S
C3035 H3022 0.930 . S
C3035 C3034 1.376 . S
C3035 C3036 1.388 . S
C3036 H3023 0.930 . S
C3036 C3035 1.388 . S
C3036 C3037 1.390 . S
C3037 C3036 1.390 . S
C3037 C3038 1.394 . S
C3037 C3043 1.465 1_545 S
C3038 C3033 1.399 . S
C3038 C3037 1.394 . S
C3038 C3039 1.516 1_545 S
C3039 C3038 1.516 1_565 S
C3039 C3040 1.502 . S
C3039 C3041 1.561 . S
C3039 C3042 1.526 . S
C3040 H3024 0.959 . S
C3040 H3025 0.959 . S
C3040 H3026 0.961 1_565 S
C3040 C3039 1.502 . S
C3041 H3027 0.960 1_565 S
C3041 H3028 0.961 . S
C3041 H3029 0.959 . S
C3041 C3039 1.561 . S
C3042 C3039 1.526 . S
C3042 C3043 1.396 . S
C3042 C3047 1.390 . S
C3043 C3037 1.465 1_565 S
C3043 C3042 1.396 . S
C3043 C3044 1.399 . S
C3044 H3030 0.929 . S
C3044 C3043 1.399 . S
C3044 C3045 1.385 . S
C3045 H3031 0.931 . S
C3045 C3044 1.385 . S
C3045 C3046 1.389 . S
C3046 C3045 1.389 . S
C3046 C3047 1.387 . S
C3047 H3032 0.930 . S
C3047 C3042 1.390 . S
C3047 C3046 1.387 . S
H3048 C3060 0.930 . S
H3049 C3062 0.930 . S
H3050 C3063 0.930 . S
H3051 C3067 0.959 . S
H3052 C3067 0.959 1_565 S
H3053 C3067 0.961 . S
H3054 C3068 0.960 . S
H3055 C3068 0.961 1_565 S
H3056 C3068 0.959 . S
H3057 C3071 0.929 . S
H3058 C3072 0.931 . S
H3059 C3074 0.930 . S
C3060 H3048 0.930 . S
C3060 C3061 1.399 . S
C3060 C3065 1.399 . S
C3061 C3060 1.399 . S
C3061 C3062 1.376 . S
C3062 H3049 0.930 . S
C3062 C3061 1.376 . S
C3062 C3063 1.388 . S
C3063 H3050 0.930 . S
C3063 C3062 1.388 . S
C3063 C3064 1.390 . S
C3064 C3063 1.390 . S
C3064 C3065 1.394 . S
C3064 C3070 1.465 1_545 S
C3065 C3060 1.399 . S
C3065 C3064 1.394 . S
C3065 C3066 1.516 . S
C3066 C3065 1.516 . S
C3066 C3067 1.502 . S
C3066 C3068 1.561 . S
C3066 C3069 1.526 1_545 S
C3067 H3051 0.959 . S
C3067 H3052 0.959 1_545 S
C3067 H3053 0.961 . S
C3067 C3066 1.502 . S
C3068 H3054 0.960 . S
C3068 H3055 0.961 1_545 S
C3068 H3056 0.959 . S
C3068 C3066 1.561 . S
C3069 C3066 1.526 1_565 S
C3069 C3070 1.396 . S
C3069 C3074 1.390 . S
C3070 C3064 1.465 1_565 S
C3070 C3069 1.396 . S
C3070 C3071 1.399 . S
C3071 H3057 0.929 . S
C3071 C3070 1.399 . S
C3071 C3072 1.385 . S
C3072 H3058 0.931 . S
C3072 C3071 1.385 . S
C3072 C3073 1.389 . S
C3073 C3072 1.389 . S
C3073 C3074 1.387 . S
C3074 H3059 0.930 . S
C3074 C3069 1.390 . S
C3074 C3073 1.387 . S
H3075 C3087 0.930 . S
H3076 C3089 0.930 . S
H3077 C3090 0.930 . S
H3078 C3094 0.959 . S
H3079 C3094 0.959 1_565 S
H3080 C3094 0.961 . S
H3081 C3095 0.960 . S
H3082 C3095 0.961 1_565 S
H3083 C3095 0.959 . S
H3084 C3098 0.929 . S
H3085 C3099 0.931 . S
H3086 C3101 0.930 . S
C3087 H3075 0.930 . S
C3087 C3088 1.399 . S
C3087 C3092 1.399 . S
C3088 C3087 1.399 . S
C3088 C3089 1.376 . S
C3089 H3076 0.930 . S
C3089 C3088 1.376 . S
C3089 C3090 1.388 . S
C3090 H3077 0.930 . S
C3090 C3089 1.388 . S
C3090 C3091 1.390 . S
C3091 C3090 1.390 . S
C3091 C3092 1.394 . S
C3091 C3097 1.465 1_545 S
C3092 C3087 1.399 . S
C3092 C3091 1.394 . S
C3092 C3093 1.516 . S
C3093 C3092 1.516 . S
C3093 C3094 1.502 . S
C3093 C3095 1.561 . S
C3093 C3096 1.526 1_545 S
C3094 H3078 0.959 . S
C3094 H3079 0.959 1_545 S
C3094 H3080 0.961 . S
C3094 C3093 1.502 . S
C3095 H3081 0.960 . S
C3095 H3082 0.961 1_545 S
C3095 H3083 0.959 . S
C3095 C3093 1.561 . S
C3096 C3093 1.526 1_565 S
C3096 C3097 1.396 . S
C3096 C3101 1.390 . S
C3097 C3091 1.465 1_565 S
C3097 C3096 1.396 . S
C3097 C3098 1.399 . S
C3098 H3084 0.929 . S
C3098 C3097 1.399 . S
C3098 C3099 1.385 . S
C3099 H3085 0.931 . S
C3099 C3098 1.385 . S
C3099 C3100 1.389 . S
C3100 C3099 1.389 . S
C3100 C3101 1.387 . S
C3101 H3086 0.930 . S
C3101 C3096 1.390 . S
C3101 C3100 1.387 . S
H3102 C3114 0.930 . S
H3103 C3116 0.930 . S
H3104 C3117 0.930 . S
H3105 C3121 0.959 . S
H3106 C3121 0.959 . S
H3107 C3121 0.961 1_655 S
H3108 C3122 0.960 1_655 S
H3109 C3122 0.961 . S
H3110 C3122 0.959 . S
H3111 C3125 0.929 . S
H3112 C3126 0.931 . S
H3113 C3128 0.930 . S
C3114 H3102 0.930 . S
C3114 C3115 1.399 . S
C3114 C3119 1.399 . S
C3115 C3114 1.399 . S
C3115 C3116 1.376 . S
C3116 H3103 0.930 . S
C3116 C3115 1.376 . S
C3116 C3117 1.388 . S
C3117 H3104 0.930 . S
C3117 C3116 1.388 . S
C3117 C3118 1.390 . S
C3118 C3117 1.390 . S
C3118 C3119 1.394 . S
C3118 C3124 1.465 1_655 S
C3119 C3114 1.399 . S
C3119 C3118 1.394 . S
C3119 C3120 1.516 1_655 S
C3120 C3119 1.516 1_455 S
C3120 C3121 1.502 . S
C3120 C3122 1.561 . S
C3120 C3123 1.526 . S
C3121 H3105 0.959 . S
C3121 H3106 0.959 . S
C3121 H3107 0.961 1_455 S
C3121 C3120 1.502 . S
C3122 H3108 0.960 1_455 S
C3122 H3109 0.961 . S
C3122 H3110 0.959 . S
C3122 C3120 1.561 . S
C3123 C3120 1.526 . S
C3123 C3124 1.396 . S
C3123 C3128 1.390 . S
C3124 C3118 1.465 1_455 S
C3124 C3123 1.396 . S
C3124 C3125 1.399 . S
C3125 H3111 0.929 . S
C3125 C3124 1.399 . S
C3125 C3126 1.385 . S
C3126 H3112 0.931 . S
C3126 C3125 1.385 . S
C3126 C3127 1.389 . S
C3127 C3126 1.389 . S
C3127 C3128 1.387 . S
C3128 H3113 0.930 . S
C3128 C3123 1.390 . S
C3128 C3127 1.387 . S
H3129 C3141 0.930 . S
H3130 C3143 0.930 . S
H3131 C3144 0.930 . S
H3132 C3148 0.959 . S
H3133 C3148 0.959 . S
H3134 C3148 0.961 1_545 S
H3135 C3149 0.960 1_545 S
H3136 C3149 0.961 . S
H3137 C3149 0.959 . S
H3138 C3152 0.929 . S
H3139 C3153 0.931 . S
H3140 C3155 0.930 . S
C3141 H3129 0.930 . S
C3141 C3142 1.399 . S
C3141 C3146 1.399 . S
C3142 C3141 1.399 . S
C3142 C3143 1.376 . S
C3143 H3130 0.930 . S
C3143 C3142 1.376 . S
C3143 C3144 1.388 . S
C3144 H3131 0.930 . S
C3144 C3143 1.388 . S
C3144 C3145 1.390 . S
C3145 C3144 1.390 . S
C3145 C3146 1.394 . S
C3145 C3151 1.465 1_545 S
C3146 C3141 1.399 . S
C3146 C3145 1.394 . S
C3146 C3147 1.516 1_545 S
C3147 C3146 1.516 1_565 S
C3147 C3148 1.502 . S
C3147 C3149 1.561 . S
C3147 C3150 1.526 . S
C3148 H3132 0.959 . S
C3148 H3133 0.959 . S
C3148 H3134 0.961 1_565 S
C3148 C3147 1.502 . S
C3149 H3135 0.960 1_565 S
C3149 H3136 0.961 . S
C3149 H3137 0.959 . S
C3149 C3147 1.561 . S
C3150 C3147 1.526 . S
C3150 C3151 1.396 . S
C3150 C3155 1.390 . S
C3151 C3145 1.465 1_565 S
C3151 C3150 1.396 . S
C3151 C3152 1.399 . S
C3152 H3138 0.929 . S
C3152 C3151 1.399 . S
C3152 C3153 1.385 . S
C3153 H3139 0.931 . S
C3153 C3152 1.385 . S
C3153 C3154 1.389 . S
C3154 C3153 1.389 . S
C3154 C3155 1.387 . S
C3155 H3140 0.930 . S
C3155 C3150 1.390 . S
C3155 C3154 1.387 . S
H3156 C3168 0.930 . S
H3157 C3170 0.930 . S
H3158 C3171 0.930 . S
H3159 C3175 0.959 . S
H3160 C3175 0.959 . S
H3161 C3175 0.961 1_455 S
H3162 C3176 0.960 1_455 S
H3163 C3176 0.961 . S
H3164 C3176 0.959 . S
H3165 C3179 0.929 . S
H3166 C3180 0.931 . S
H3167 C3182 0.930 . S
C3168 H3156 0.930 . S
C3168 C3169 1.399 . S
C3168 C3173 1.399 . S
C3169 C3168 1.399 . S
C3169 C3170 1.376 . S
C3170 H3157 0.930 . S
C3170 C3169 1.376 . S
C3170 C3171 1.388 . S
C3171 H3158 0.930 . S
C3171 C3170 1.388 . S
C3171 C3172 1.390 . S
C3172 C3171 1.390 . S
C3172 C3173 1.394 . S
C3172 C3178 1.465 1_455 S
C3173 C3168 1.399 . S
C3173 C3172 1.394 . S
C3173 C3174 1.516 1_455 S
C3174 C3173 1.516 1_655 S
C3174 C3175 1.502 . S
C3174 C3176 1.561 . S
C3174 C3177 1.526 . S
C3175 H3159 0.959 . S
C3175 H3160 0.959 . S
C3175 H3161 0.961 1_655 S
C3175 C3174 1.502 . S
C3176 H3162 0.960 1_655 S
C3176 H3163 0.961 . S
C3176 H3164 0.959 . S
C3176 C3174 1.561 . S
C3177 C3174 1.526 . S
C3177 C3178 1.396 . S
C3177 C3182 1.390 . S
C3178 C3172 1.465 1_655 S
C3178 C3177 1.396 . S
C3178 C3179 1.399 . S
C3179 H3165 0.929 . S
C3179 C3178 1.399 . S
C3179 C3180 1.385 . S
C3180 H3166 0.931 . S
C3180 C3179 1.385 . S
C3180 C3181 1.389 . S
C3181 C3180 1.389 . S
C3181 C3182 1.387 . S
C3182 H3167 0.930 . S
C3182 C3177 1.390 . S
C3182 C3181 1.387 . S
H3183 C3195 0.930 . S
H3184 C3197 0.930 . S
H3185 C3198 0.930 . S
H3186 C3202 0.959 . S
H3187 C3202 0.959 . S
H3188 C3202 0.961 1_545 S
H3189 C3203 0.960 1_545 S
H3190 C3203 0.961 . S
H3191 C3203 0.959 . S
H3192 C3206 0.929 . S
H3193 C3207 0.931 . S
H3194 C3209 0.930 . S
C3195 H3183 0.930 . S
C3195 C3196 1.399 . S
C3195 C3200 1.399 . S
C3196 C3195 1.399 . S
C3196 C3197 1.376 . S
C3197 H3184 0.930 . S
C3197 C3196 1.376 . S
C3197 C3198 1.388 . S
C3198 H3185 0.930 . S
C3198 C3197 1.388 . S
C3198 C3199 1.390 . S
C3199 C3198 1.390 . S
C3199 C3200 1.394 . S
C3199 C3205 1.465 1_545 S
C3200 C3195 1.399 . S
C3200 C3199 1.394 . S
C3200 C3201 1.516 1_545 S
C3201 C3200 1.516 1_565 S
C3201 C3202 1.502 . S
C3201 C3203 1.561 . S
C3201 C3204 1.526 . S
C3202 H3186 0.959 . S
C3202 H3187 0.959 . S
C3202 H3188 0.961 1_565 S
C3202 C3201 1.502 . S
C3203 H3189 0.960 1_565 S
C3203 H3190 0.961 . S
C3203 H3191 0.959 . S
C3203 C3201 1.561 . S
C3204 C3201 1.526 . S
C3204 C3205 1.396 . S
C3204 C3209 1.390 . S
C3205 C3199 1.465 1_565 S
C3205 C3204 1.396 . S
C3205 C3206 1.399 . S
C3206 H3192 0.929 . S
C3206 C3205 1.399 . S
C3206 C3207 1.385 . S
C3207 H3193 0.931 . S
C3207 C3206 1.385 . S
C3207 C3208 1.389 . S
C3208 C3207 1.389 . S
C3208 C3209 1.387 . S
C3209 H3194 0.930 . S
C3209 C3204 1.390 . S
C3209 C3208 1.387 . S
H3210 C3222 0.930 . S
H3211 C3224 0.930 . S
H3212 C3225 0.930 . S
H3213 C3229 0.959 . S
H3214 C3229 0.954 . S
H3215 C3229 0.966 1_655 S
H3216 C3230 0.971 . S
H3217 C3230 0.951 1_455 S
H3218 C3230 0.956 1_455 S
H3219 C3233 0.929 . S
H3220 C3234 0.931 . S
H3221 C3236 0.930 . S
C3222 H3210 0.930 . S
C3222 C3223 1.399 . S
C3222 C3227 1.399 . S
C3223 C3222 1.399 . S
C3223 C3224 1.376 . S
C3224 H3211 0.930 . S
C3224 C3223 1.376 . S
C3224 C3225 1.388 . S
C3225 H3212 0.930 . S
C3225 C3224 1.388 . S
C3225 C3226 1.390 . S
C3226 C3225 1.390 . S
C3226 C3227 1.394 . S
C3226 C3232 1.465 1_655 S
C3227 C3222 1.399 . S
C3227 C3226 1.394 . S
C3227 C3228 1.523 . S
C3228 C3227 1.523 . S
C3228 C3229 1.502 1_655 S
C3228 C3230 1.561 . S
C3228 C3231 1.519 1_655 S
C3229 H3213 0.959 . S
C3229 H3214 0.954 . S
C3229 H3215 0.966 1_455 S
C3229 C3228 1.502 1_455 S
C3230 H3216 0.971 . S
C3230 H3217 0.951 1_655 S
C3230 H3218 0.956 1_655 S
C3230 C3228 1.561 . S
C3231 C3228 1.519 1_455 S
C3231 C3232 1.396 . S
C3231 C3236 1.390 . S
C3232 C3226 1.465 1_455 S
C3232 C3231 1.396 . S
C3232 C3233 1.399 . S
C3233 H3219 0.929 . S
C3233 C3232 1.399 . S
C3233 C3234 1.385 . S
C3234 H3220 0.931 . S
C3234 C3233 1.385 . S
C3234 C3235 1.389 . S
C3235 C3234 1.389 . S
C3235 C3236 1.387 . S
C3236 H3221 0.930 . S
C3236 C3231 1.390 . S
C3236 C3235 1.387 . S
H3237 C3249 0.930 . S
H3238 C3251 0.930 . S
H3239 C3252 0.930 . S
H3240 C3256 0.963 . S
H3241 C3256 0.979 . S
H3242 C3256 0.939 1_455 S
H3243 C3257 0.982 . S
H3244 C3257 0.942 1_655 S
H3245 C3257 0.956 1_655 S
H3246 C3260 0.929 . S
H3247 C3261 0.931 . S
H3248 C3263 0.930 . S
C3249 H3237 0.930 . S
C3249 C3250 1.399 . S
C3249 C3254 1.399 . S
C3250 C3249 1.399 . S
C3250 C3251 1.376 . S
C3251 H3238 0.930 . S
C3251 C3250 1.376 . S
C3251 C3252 1.388 . S
C3252 H3239 0.930 . S
C3252 C3251 1.388 . S
C3252 C3253 1.390 . S
C3253 C3252 1.390 . S
C3253 C3254 1.394 . S
C3253 C3259 1.465 1_455 S
C3254 C3249 1.399 . S
C3254 C3253 1.394 . S
C3254 C3255 1.511 . S
C3255 C3254 1.511 . S
C3255 C3256 1.501 1_455 S
C3255 C3257 1.560 . S
C3255 C3258 1.531 1_455 S
C3256 H3240 0.963 . S
C3256 H3241 0.979 . S
C3256 H3242 0.939 1_655 S
C3256 C3255 1.501 1_655 S
C3257 H3243 0.982 . S
C3257 H3244 0.942 1_455 S
C3257 H3245 0.956 1_455 S
C3257 C3255 1.560 . S
C3258 C3255 1.531 1_655 S
C3258 C3259 1.396 . S
C3258 C3263 1.390 . S
C3259 C3253 1.465 1_655 S
C3259 C3258 1.396 . S
C3259 C3260 1.399 . S
C3260 H3246 0.929 . S
C3260 C3259 1.399 . S
C3260 C3261 1.385 . S
C3261 H3247 0.931 . S
C3261 C3260 1.385 . S
C3261 C3262 1.389 . S
C3262 C3261 1.389 . S
C3262 C3263 1.387 . S
C3263 H3248 0.930 . S
C3263 C3258 1.390 . S
C3263 C3262 1.387 . S
C685 C554 1.290 . S
C697 C3 1.279 . S
C712 C22 1.302 . S
C724 C507 1.286 . S
C739 C31 1.288 . S
C751 C526 1.284 . S
C766 C540 1.255 . S
C778 C50 1.251 . S
C793 C470 1.198 . S
C805 C59 1.197 . S
C820 C73 1.294 . S
C832 C484 1.314 . S
C847 C87 1.210 . S
C859 C493 1.217 . S
C874 C101 1.330 . S
C886 C451 1.337 . S
C901 C120 1.352 . S
C913 C437 1.364 . S
C928 C400 1.236 . S
C940 C129 1.243 . S
C955 C409 1.292 . S
C967 C148 1.309 . S
C982 C157 1.232 . S
C994 C428 1.239 . S
C1009 C176 1.190 . S
C1021 C358 1.191 . S
C1036 C185 1.259 . S
C1048 C367 1.258 . S
C1063 C386 1.146 . S
C1075 C204 1.148 . S
C1090 C339 1.306 . S
C1102 C213 1.306 . S
C1117 C232 1.347 . S
C1129 C624 1.343 . S
C1144 C661 1.326 . S
C1156 C241 1.331 . S
C1171 C638 1.329 . S
C1183 C260 1.329 . S
C1198 C647 1.250 . S
C1210 C269 1.240 . S
C1225 C568 1.304 . S
C1237 C288 1.303 . S
C1252 C596 1.317 . S
C1264 C302 1.317 . S
C1279 C316 1.218 . S
C1291 C605 1.227 . S
C1306 C577 1.155 . S
C1318 C330 1.144 . S
C1333 C456 1.267 . S
C1345 C283 1.266 . S
C1360 C246 1.304 . S
C1372 C465 1.315 . S
C1387 C479 1.309 . S
C1399 C255 1.308 . S
C1414 C498 1.284 . S
C1426 C274 1.285 . S
C1441 C325 1.203 . S
C1453 C512 1.207 . S
C1468 C521 1.335 . S
C1480 C297 1.331 . S
C1495 C311 1.203 . S
C1507 C535 1.192 . S
C1522 C227 1.329 . S
C1534 C549 1.336 . S
C1549 C563 1.333 . S
C1561 C218 1.350 . S
C1576 C171 1.243 . S
C1588 C666 1.258 . S
C1603 C633 1.298 . S
C1615 C190 1.313 . S
C1630 C199 1.170 . S
C1642 C652 1.159 . S
C1657 C134 1.138 . S
C1669 C582 1.138 . S
C1684 C143 1.237 . S
C1696 C591 1.243 . S
C1711 C162 1.144 . S
C1723 C610 1.143 . S
C1738 C619 1.326 . S
C1750 C115 1.328 . S
C1765 C344 1.362 . S
C1777 C106 1.362 . S
C1792 C395 1.320 . S
C1804 C17 1.326 . S
C1819 C414 1.276 . S
C1831 C36 1.277 . S
C1846 C423 1.259 . S
C1858 C45 1.265 . S
C1873 C442 1.283 . S
C1885 C8 1.287 . S
C1900 C78 1.295 . S
C1912 C372 1.292 . S
C1927 C381 1.208 . S
C1939 C92 1.191 . S
C1954 C353 1.174 . S
C1966 C64 1.167 . S
C1981 C7 1.485 . S
C1993 C371 1.491 . S
C2008 C387 1.375 . S
C2020 C23 1.379 . S
C2035 C35 1.479 . S
C2047 C343 1.473 . S
C2062 C51 1.400 . S
C2074 C359 1.391 . S
C2089 C63 1.445 . S
C2101 C429 1.411 . S
C2116 C441 1.490 . S
C2128 C77 1.480 . S
C2143 C91 1.443 . S
C2155 C401 1.469 . S
C2170 C413 1.508 . S
C2182 C105 1.496 . S
C2197 C121 1.548 . S
C2209 C511 1.503 . S
C2224 C527 1.462 . S
C2236 C133 1.432 . S
C2251 C149 1.501 . S
C2263 C541 1.503 . S
C2278 C161 1.457 . S
C2290 C555 1.432 . S
C2305 C177 1.507 . S
C2317 C455 1.477 . S
C2332 C189 1.446 . S
C2344 C471 1.469 . S
C2359 C485 1.419 . S
C2371 C205 1.429 . S
C2386 C217 1.489 . S
C2398 C497 1.498 . S
C2413 C609 1.474 . S
C2425 C233 1.496 . S
C2440 C245 1.498 . S
C2452 C639 1.473 . S
C2467 C261 1.489 . S
C2479 C651 1.476 . S
C2494 C569 1.463 . S
C2506 C273 1.461 . S
C2521 C665 1.467 . S
C2533 C289 1.514 . S
C2548 C303 1.438 . S
C2560 C581 1.473 . S
C2575 C597 1.487 . S
C2587 C317 1.485 . S
C2602 C331 1.421 . S
C2614 C625 1.441 . S
C2629 C595 1.476 . S
C2641 C287 1.481 . S
C2656 C247 1.412 . S
C2668 C611 1.406 . S
C2683 C623 1.466 . S
C2695 C259 1.472 . S
C2710 C583 1.358 . S
C2722 C275 1.365 . S
C2737 C653 1.442 . S
C2749 C329 1.405 . S
C2764 C301 1.525 . S
C2776 C567 1.524 . S
C2791 C667 1.459 . S
C2803 C315 1.422 . S
C2818 C231 1.535 . S
C2830 C637 1.533 . S
C2845 C469 1.550 . S
C2857 C219 1.517 . S
C2872 C175 1.482 . S
C2884 C483 1.470 . S
C2899 C191 1.462 . S
C2911 C499 1.474 . S
C2926 C457 1.408 . S
C2938 C203 1.446 . S
C2953 C135 1.430 . S
C2965 C553 1.476 . S
C2980 C513 1.429 . S
C2992 C147 1.465 . S
C3007 C163 1.472 . S
C3019 C525 1.421 . S
C3034 C119 1.492 . S
C3046 C539 1.492 . S
C3061 C385 1.474 . S
C3073 C107 1.491 . S
C3088 C21 1.437 . S
C3100 C415 1.480 . S
C3115 C37 1.455 . S
C3127 C427 1.477 . S
C3142 C443 1.464 . S
C3154 C49 1.453 . S
C3169 C9 1.515 . S
C3181 C399 1.487 . S
C3196 C79 1.443 . S
C3208 C357 1.399 . S
C3223 C93 1.448 . S
C3235 C373 1.458 . S
C3250 C65 1.457 . S
C3262 C345 1.467 . S
