# Generated by pormake.
# Topology uol, (4)-cn, num edge types: 1
# Building blocks:
#     Node 0, Type 0, BuildingBlock: QUQFOY_clean_sbu_1, # of connection points: 4
#     Node 1, Type 0, BuildingBlock: QUQFOY_clean_sbu_1, # of connection points: 4
#     Node 2, Type 0, BuildingBlock: QUQFOY_clean_sbu_1, # of connection points: 4
#     Node 3, Type 0, BuildingBlock: QUQFOY_clean_sbu_1, # of connection points: 4
#     Node 4, Type 0, BuildingBlock: QUQFOY_clean_sbu_1, # of connection points: 4
#     Node 5, Type 0, BuildingBlock: QUQFOY_clean_sbu_1, # of connection points: 4
#     Node 6, Type 0, BuildingBlock: QUQFOY_clean_sbu_1, # of connection points: 4
#     Node 7, Type 0, BuildingBlock: QUQFOY_clean_sbu_1, # of connection points: 4
#     Node 8, Type 0, BuildingBlock: QUQFOY_clean_sbu_1, # of connection points: 4
#     Node 9, Type 0, BuildingBlock: QUQFOY_clean_sbu_1, # of connection points: 4
#     Node 10, Type 0, BuildingBlock: QUQFOY_clean_sbu_1, # of connection points: 4
#     Node 11, Type 0, BuildingBlock: QUQFOY_clean_sbu_1, # of connection points: 4
#     Edge 12, Type (0, 0), BuildingBlock: EZIPEK_clean_linker_0, # of connection points: 2
#     Edge 13, Type (0, 0), BuildingBlock: EZIPEK_clean_linker_0, # of connection points: 2
#     Edge 14, Type (0, 0), BuildingBlock: EZIPEK_clean_linker_0, # of connection points: 2
#     Edge 15, Type (0, 0), BuildingBlock: EZIPEK_clean_linker_0, # of connection points: 2
#     Edge 16, Type (0, 0), BuildingBlock: EZIPEK_clean_linker_0, # of connection points: 2
#     Edge 17, Type (0, 0), BuildingBlock: EZIPEK_clean_linker_0, # of connection points: 2
#     Edge 18, Type (0, 0), BuildingBlock: EZIPEK_clean_linker_0, # of connection points: 2
#     Edge 19, Type (0, 0), BuildingBlock: EZIPEK_clean_linker_0, # of connection points: 2
#     Edge 20, Type (0, 0), BuildingBlock: EZIPEK_clean_linker_0, # of connection points: 2
#     Edge 21, Type (0, 0), BuildingBlock: EZIPEK_clean_linker_0, # of connection points: 2
#     Edge 22, Type (0, 0), BuildingBlock: EZIPEK_clean_linker_0, # of connection points: 2
#     Edge 23, Type (0, 0), BuildingBlock: EZIPEK_clean_linker_0, # of connection points: 2
#     Edge 24, Type (0, 0), BuildingBlock: EZIPEK_clean_linker_0, # of connection points: 2
#     Edge 25, Type (0, 0), BuildingBlock: EZIPEK_clean_linker_0, # of connection points: 2
#     Edge 26, Type (0, 0), BuildingBlock: EZIPEK_clean_linker_0, # of connection points: 2
#     Edge 27, Type (0, 0), BuildingBlock: EZIPEK_clean_linker_0, # of connection points: 2
#     Edge 28, Type (0, 0), BuildingBlock: EZIPEK_clean_linker_0, # of connection points: 2
#     Edge 29, Type (0, 0), BuildingBlock: EZIPEK_clean_linker_0, # of connection points: 2
#     Edge 30, Type (0, 0), BuildingBlock: EZIPEK_clean_linker_0, # of connection points: 2
#     Edge 31, Type (0, 0), BuildingBlock: EZIPEK_clean_linker_0, # of connection points: 2
#     Edge 32, Type (0, 0), BuildingBlock: EZIPEK_clean_linker_0, # of connection points: 2
#     Edge 33, Type (0, 0), BuildingBlock: EZIPEK_clean_linker_0, # of connection points: 2
#     Edge 34, Type (0, 0), BuildingBlock: EZIPEK_clean_linker_0, # of connection points: 2
#     Edge 35, Type (0, 0), BuildingBlock: EZIPEK_clean_linker_0, # of connection points: 2
# Relax obj value: 0.038
# Max RMSD: 0.149
# Mean RMSD: 0.149
data_MOF--net-uol--node1-QUQFOY_clean_sbu_1--edge1-EZIPEK_clean_linker_0
_symmetry_space_group_name_H-M    P1
_symmetry_Int_Tables_number       1
_symmetry_cell_setting            triclinic
loop_
_symmetry_equiv_pos_as_xyz
'x, y, z'
_cell_length_a     24.319417
_cell_length_b     24.334968
_cell_length_c     53.330279
_cell_angle_alpha  89.881621
_cell_angle_beta   90.022403
_cell_angle_gamma 120.02675
loop_
_atom_site_label
_atom_site_type_symbol
_atom_site_fract_x
_atom_site_fract_y
_atom_site_fract_z
_atom_type_partial_charge
O0 O 0.21826 0.35099 0.06855 0.0
Cd1 Cd 0.20646 0.38755 0.10212 0.0
Cd2 Cd 0.11472 0.26796 0.10583 0.0
O3 O 0.12256 0.26624 0.06729 0.0
O4 O 0.24951 0.48172 0.09888 0.0
O5 O 0.14523 0.4203 0.10355 0.0
C6 C 0.19411 0.47631 0.1007 0.0
C7 C 0.02175 0.22283 0.13026 0.0
C8 C 0.17574 0.30285 0.05687 0.0
C9 C 0.22609 0.30921 0.13884 0.0
O10 O 0.18539 0.26406 0.12545 0.0
O11 O 0.23727 0.36544 0.13502 0.0
O12 O 0.0363 0.18837 0.11661 0.0
O13 O 0.0561 0.2837 0.12765 0.0
O14 O 0.88177 0.21867 0.23217 0.0
Cd15 Cd 0.8371 0.21875 0.26534 0.0
Cd16 Cd 0.86324 0.12656 0.27632 0.0
O17 O 0.86834 0.12288 0.23745 0.0
O18 O 0.78375 0.25815 0.25866 0.0
O19 O 0.74388 0.15705 0.26952 0.0
C20 C 0.73492 0.20349 0.26354 0.0
C21 C 0.81336 0.03972 0.30336 0.0
C22 C 0.88459 0.17138 0.2236 0.0
C23 C 0.93398 0.24856 0.30413 0.0
O24 O 0.93648 0.20163 0.29513 0.0
O25 O 0.8921 0.26139 0.29666 0.0
O26 O 0.8645 0.05188 0.29155 0.0
O27 O 0.78698 0.07303 0.29799 0.0
O28 O 0.67468 0.87126 0.40087 0.0
Cd29 Cd 0.62815 0.82911 0.43409 0.0
Cd30 Cd 0.74897 0.86162 0.44671 0.0
O31 O 0.76863 0.88173 0.40892 0.0
O32 O 0.53715 0.77842 0.42402 0.0
O33 O 0.58848 0.73574 0.44209 0.0
C34 C 0.53625 0.72852 0.43273 0.0
C35 C 0.78091 0.80559 0.47267 0.0
C36 C 0.73094 0.88771 0.39405 0.0
C37 C 0.68923 0.92801 0.47307 0.0
O38 O 0.73968 0.92791 0.46715 0.0
O39 O 0.63627 0.88907 0.46317 0.0
O40 O 0.82162 0.86045 0.46377 0.0
O41 O 0.72286 0.77962 0.46492 0.0
O42 O 0.80847 0.66061 0.57037 0.0
Cd43 Cd 0.81404 0.61991 0.6039 0.0
Cd44 Cd 0.89923 0.74186 0.61361 0.0
O45 O 0.89342 0.75526 0.57561 0.0
O46 O 0.77732 0.52718 0.59784 0.0
O47 O 0.87822 0.59132 0.6081 0.0
C48 C 0.83281 0.53506 0.60257 0.0
C49 C 0.99002 0.77921 0.63823 0.0
C50 C 0.84742 0.71577 0.56209 0.0
C51 C 0.77921 0.68327 0.64321 0.0
O52 O 0.82549 0.73434 0.63489 0.0
O53 O 0.76831 0.62974 0.63501 0.0
O54 O 0.97438 0.81781 0.62827 0.0
O55 O 0.95808 0.72001 0.632 0.0
O56 O 0.15727 0.81264 0.73753 0.0
Cd57 Cd 0.20552 0.82194 0.77115 0.0
Cd58 Cd 0.18016 0.91278 0.77436 0.0
O59 O 0.17175 0.90971 0.73599 0.0
O60 O 0.25359 0.77553 0.76784 0.0
O61 O 0.30012 0.88023 0.77145 0.0
C62 C 0.30496 0.83004 0.76894 0.0
C63 C 0.24099 0.99486 0.80197 0.0
C64 C 0.15351 0.85618 0.72568 0.0
C65 C 0.10769 0.80539 0.80736 0.0
O66 O 0.10194 0.84234 0.7922 0.0
O67 O 0.15423 0.79584 0.80481 0.0
O68 O 0.19233 0.9919 0.79087 0.0
O69 O 0.26005 0.95646 0.79474 0.0
O70 O 0.37621 0.15602 0.90304 0.0
Cd71 Cd 0.41475 0.20081 0.93683 0.0
Cd72 Cd 0.29217 0.16452 0.94519 0.0
O73 O 0.28192 0.14806 0.90684 0.0
O74 O 0.50776 0.25692 0.93119 0.0
O75 O 0.44308 0.29346 0.9407 0.0
C76 C 0.49958 0.30451 0.93543 0.0
C77 C 0.25556 0.21939 0.96943 0.0
C78 C 0.32245 0.14186 0.89385 0.0
C79 C 0.34861 0.10111 0.97534 0.0
O80 O 0.29833 0.09716 0.96648 0.0
O81 O 0.40291 0.14386 0.96771 0.0
O82 O 0.21658 0.16483 0.95988 0.0
O83 O 0.31484 0.24568 0.96329 0.0
O84 O 0.66357 0.80113 0.79531 0.0
Cd85 Cd 0.62315 0.80392 0.76142 0.0
Cd86 Cd 0.74533 0.89093 0.752 0.0
O87 O 0.75721 0.88783 0.79047 0.0
O88 O 0.53011 0.76604 0.76742 0.0
O89 O 0.59313 0.86667 0.75643 0.0
C90 C 0.53717 0.821 0.76227 0.0
C91 C 0.77886 0.97911 0.72599 0.0
C92 C 0.71751 0.84178 0.80401 0.0
C93 C 0.6892 0.76926 0.72335 0.0
O94 O 0.73941 0.81641 0.73178 0.0
O95 O 0.63492 0.75726 0.73116 0.0
O96 O 0.8193 0.96604 0.73598 0.0
O97 O 0.72008 0.9461 0.73284 0.0
O98 O 0.8775 0.67392 0.96045 0.0
Cd99 Cd 0.82982 0.63793 0.92655 0.0
Cd100 Cd 0.86043 0.75614 0.92408 0.0
O101 O 0.86935 0.76023 0.96249 0.0
O102 O 0.78126 0.54331 0.92929 0.0
O103 O 0.73523 0.60203 0.92598 0.0
C104 C 0.73013 0.54683 0.92824 0.0
C105 C 0.80035 0.77855 0.89639 0.0
C106 C 0.8845 0.72217 0.97255 0.0
C107 C 0.9302 0.71865 0.89087 0.0
O108 O 0.9374 0.76155 0.90614 0.0
O109 O 0.88223 0.66328 0.89317 0.0
O110 O 0.84944 0.82388 0.90741 0.0
O111 O 0.78047 0.72096 0.90379 0.0
O112 O 0.22739 0.86549 0.12715 0.0
Cd113 Cd 0.2209 0.821 0.09321 0.0
Cd114 Cd 0.13747 0.86136 0.08472 0.0
O115 O 0.14455 0.87918 0.12292 0.0
O116 O 0.25813 0.76528 0.09913 0.0
O117 O 0.15716 0.72796 0.08906 0.0
C118 C 0.20272 0.71732 0.09463 0.0
C119 C 0.04629 0.80515 0.06053 0.0
C120 C 0.18991 0.88275 0.13609 0.0
C121 C 0.25731 0.92185 0.05461 0.0
O122 O 0.21154 0.92713 0.06322 0.0
O123 O 0.26753 0.87841 0.06251 0.0
O124 O 0.06097 0.85967 0.06988 0.0
O125 O 0.07984 0.77969 0.06697 0.0
O126 O 0.36803 0.2173 0.28953 0.0
Cd127 Cd 0.40251 0.20396 0.25554 0.0
Cd128 Cd 0.28546 0.11663 0.25475 0.0
O129 O 0.28557 0.12075 0.29326 0.0
O130 O 0.49721 0.25081 0.2576 0.0
O131 O 0.43907 0.14588 0.25523 0.0
C132 C 0.49422 0.19636 0.25703 0.0
C133 C 0.26045 0.03376 0.22705 0.0
C134 C 0.32238 0.17518 0.30258 0.0
C135 C 0.31944 0.22229 0.22125 0.0
O136 O 0.27883 0.18875 0.23773 0.0
O137 O 0.37438 0.22817 0.22219 0.0
O138 O 0.21621 0.03695 0.23925 0.0
O139 O 0.31891 0.07299 0.23295 0.0
O140 O 0.15688 0.34538 0.46032 0.0
Cd141 Cd 0.19912 0.39237 0.42713 0.0
Cd142 Cd 0.17002 0.27208 0.41483 0.0
O143 O 0.14453 0.25077 0.45214 0.0
O144 O 0.24727 0.48344 0.43722 0.0
O145 O 0.29299 0.43468 0.41959 0.0
C146 C 0.29824 0.48616 0.42879 0.0
C147 C 0.23229 0.24466 0.39082 0.0
C148 C 0.13911 0.28871 0.46699 0.0
C149 C 0.10407 0.33055 0.38664 0.0
O150 O 0.10657 0.28115 0.3922 0.0
O151 O 0.13945 0.38299 0.39762 0.0
O152 O 0.17605 0.20223 0.39787 0.0
O153 O 0.25613 0.30132 0.3999 0.0
O154 O 0.80869 0.14689 0.62701 0.0
Cd155 Cd 0.81451 0.19545 0.59408 0.0
Cd156 Cd 0.89686 0.15502 0.58336 0.0
O157 O 0.89446 0.13872 0.6216 0.0
O158 O 0.77771 0.25069 0.6016 0.0
O159 O 0.87836 0.28865 0.5907 0.0
C160 C 0.83288 0.29888 0.59691 0.0
C161 C 0.98516 0.20436 0.55715 0.0
C162 C 0.84816 0.13131 0.6352 0.0
C163 C 0.77594 0.09775 0.5546 0.0
O164 O 0.81989 0.08958 0.56326 0.0
O165 O 0.76814 0.14252 0.56261 0.0
O166 O 0.96858 0.15008 0.56728 0.0
O167 O 0.95573 0.23381 0.56394 0.0
C168 C 0.17423 0.61164 0.07546 0.0
C169 C 0.19199 0.65181 0.0968 0.0
C170 C 0.20649 0.57438 0.12124 0.0
C171 C 0.18771 0.53376 0.10007 0.0
N172 N 0.1423 0.50713 0.05866 0.0
N173 N 0.21012 0.66547 0.14136 0.0
C174 C 0.16751 0.55018 0.07774 0.0
C175 C 0.20378 0.63138 0.12011 0.0
N176 N 0.16746 0.63362 0.05271 0.0
N177 N 0.22798 0.55893 0.1423 0.0
H178 H 0.20702 0.70671 0.14131 0.0
H179 H 0.21243 0.64999 0.15933 0.0
H180 H 0.22716 0.51589 0.1444 0.0
H181 H 0.24988 0.59007 0.15716 0.0
H182 H 0.16181 0.60972 0.0359 0.0
H183 H 0.17212 0.67827 0.05025 0.0
H184 H 0.12047 0.51336 0.04299 0.0
H185 H 0.13876 0.46262 0.05936 0.0
C186 C 0.62994 0.1652 0.24219 0.0
C187 C 0.67037 0.19541 0.26297 0.0
C188 C 0.58986 0.21543 0.28163 0.0
C189 C 0.55287 0.1923 0.25949 0.0
N190 N 0.53935 0.15019 0.21762 0.0
N191 N 0.69178 0.25285 0.30188 0.0
C192 C 0.57292 0.16777 0.23956 0.0
C193 C 0.6511 0.22149 0.28254 0.0
N194 N 0.64622 0.13429 0.22494 0.0
N195 N 0.56522 0.22915 0.30216 0.0
H196 H 0.73545 0.25499 0.30404 0.0
H197 H 0.68401 0.27983 0.31502 0.0
H198 H 0.52001 0.2241 0.30236 0.0
H199 H 0.58682 0.23988 0.31971 0.0
H200 H 0.61583 0.10552 0.21087 0.0
H201 H 0.68871 0.13356 0.22576 0.0
H202 H 0.55508 0.13869 0.20138 0.0
H203 H 0.49756 0.15154 0.21495 0.0
C204 C 0.4166 0.66277 0.43396 0.0
C205 C 0.47622 0.66545 0.43231 0.0
C206 C 0.41916 0.5489 0.43243 0.0
C207 C 0.36024 0.54736 0.4293 0.0
N208 N 0.30963 0.60844 0.41831 0.0
N209 N 0.53106 0.60769 0.42271 0.0
C210 C 0.3608 0.60591 0.42742 0.0
C211 C 0.47685 0.60759 0.42944 0.0
N212 N 0.41208 0.71296 0.44283 0.0
N213 N 0.42096 0.4958 0.43939 0.0
H214 H 0.57311 0.64877 0.41803 0.0
H215 H 0.53161 0.56607 0.41862 0.0
H216 H 0.38059 0.45311 0.44407 0.0
H217 H 0.46332 0.49682 0.44366 0.0
H218 H 0.36842 0.71043 0.44569 0.0
H219 H 0.45038 0.75312 0.45063 0.0
H220 H 0.31065 0.65132 0.41529 0.0
H221 H 0.27022 0.56937 0.41048 0.0
C222 C 0.82834 0.44088 0.6237 0.0
C223 C 0.84299 0.47996 0.60213 0.0
C224 C 0.85724 0.40308 0.57737 0.0
C225 C 0.84303 0.36413 0.59902 0.0
N226 N 0.82999 0.35216 0.64384 0.0
N227 N 0.88414 0.50607 0.56009 0.0
C228 C 0.83309 0.38499 0.62253 0.0
C229 C 0.86184 0.46361 0.5795 0.0
N230 N 0.80815 0.45634 0.64508 0.0
N231 N 0.86262 0.38074 0.55453 0.0
H232 H 0.88693 0.55024 0.56095 0.0
H233 H 0.90471 0.49998 0.544 0.0
H234 H 0.85969 0.33683 0.55217 0.0
H235 H 0.86555 0.40354 0.53764 0.0
H236 H 0.78929 0.42609 0.66044 0.0
H237 H 0.80688 0.49837 0.64697 0.0
H238 H 0.82898 0.36804 0.66185 0.0
H239 H 0.83435 0.31162 0.64366 0.0
C240 C 0.46165 0.84123 0.78712 0.0
C241 C 0.48198 0.83105 0.76352 0.0
C242 C 0.3881 0.82405 0.74321 0.0
C243 C 0.3679 0.8346 0.7668 0.0
N244 N 0.3891 0.8635 0.8104 0.0
N245 N 0.47202 0.8236 0.71857 0.0
C246 C 0.40605 0.84668 0.78851 0.0
C247 C 0.44748 0.82593 0.74137 0.0
N248 N 0.49466 0.84384 0.8083 0.0
N249 N 0.34983 0.81111 0.72267 0.0
H250 H 0.51472 0.8236 0.71666 0.0
H251 H 0.45287 0.82622 0.70147 0.0
H252 H 0.30791 0.81301 0.72297 0.0
H253 H 0.35766 0.79557 0.7056 0.0
H254 H 0.47873 0.8436 0.82642 0.0
H255 H 0.53714 0.84301 0.80785 0.0
H256 H 0.41798 0.87954 0.8262 0.0
H257 H 0.34747 0.8655 0.81236 0.0
C258 C 0.58043 0.3951 0.90955 0.0
C259 C 0.55401 0.37016 0.93349 0.0
C260 C 0.64083 0.46371 0.95394 0.0
C261 C 0.66713 0.48857 0.93001 0.0
N262 N 0.6577 0.48523 0.88504 0.0
N263 N 0.55174 0.38394 0.97814 0.0
C264 C 0.63547 0.45646 0.90778 0.0
C265 C 0.58182 0.40572 0.9556 0.0
N266 N 0.5534 0.35945 0.88854 0.0
N267 N 0.67348 0.49467 0.97507 0.0
H268 H 0.50981 0.34059 0.98018 0.0
H269 H 0.56564 0.41036 0.9946 0.0
H270 H 0.71544 0.53845 0.97455 0.0
H271 H 0.66118 0.47588 0.99308 0.0
H272 H 0.57423 0.37098 0.87085 0.0
H273 H 0.51085 0.31621 0.88892 0.0
H274 H 0.63368 0.46766 0.8682 0.0
H275 H 0.69846 0.52965 0.88313 0.0
C276 C 0.33955 0.30748 0.1886 0.0
C277 C 0.29886 0.24712 0.19976 0.0
C278 C 0.21053 0.23946 0.1754 0.0
C279 C 0.25249 0.29297 0.16095 0.0
N280 N 0.36064 0.37328 0.15158 0.0
N281 N 0.19944 0.14719 0.19615 0.0
C282 C 0.31827 0.326 0.16689 0.0
C283 C 0.23544 0.21054 0.19097 0.0
N284 N 0.3969 0.34833 0.19915 0.0
N285 N 0.14668 0.2171 0.17503 0.0
H286 H 0.2173 0.12139 0.20512 0.0
H287 H 0.15446 0.11879 0.1884 0.0
H288 H 0.1264 0.23971 0.16526 0.0
H289 H 0.1157 0.1814 0.18719 0.0
H290 H 0.4254 0.39482 0.19287 0.0
H291 H 0.41285 0.33844 0.21575 0.0
H292 H 0.40965 0.3944 0.15385 0.0
H293 H 0.3471 0.3873 0.13534 0.0
C294 C 0.95171 0.26686 0.35032 0.0
C295 C 0.97577 0.28313 0.3255 0.0
C296 C 0.08452 0.34414 0.34155 0.0
C297 C 0.06062 0.32573 0.36627 0.0
N298 N 0.97281 0.28381 0.39504 0.0
N299 N 0.06139 0.34813 0.29742 0.0
C300 C 0.99442 0.29189 0.37089 0.0
C301 C 0.04116 0.32561 0.32113 0.0
N302 N 0.88865 0.22463 0.35414 0.0
N303 N 0.14866 0.37634 0.33754 0.0
H304 H 0.03032 0.33504 0.28221 0.0
H305 H 0.10748 0.38344 0.29312 0.0
H306 H 0.18159 0.39293 0.35215 0.0
H307 H 0.16947 0.38428 0.31988 0.0
H308 H 0.86941 0.20458 0.37149 0.0
H309 H 0.85561 0.20645 0.3396 0.0
H310 H 0.92516 0.2644 0.39983 0.0
H311 H 1.00347 0.30188 0.41037 0.0
C312 C 0.69539 0.99184 0.53829 0.0
C313 C 0.73764 0.05706 0.53361 0.0
C314 C 0.72592 0.03745 0.48834 0.0
C315 C 0.69332 0.97141 0.49324 0.0
N316 N 0.64655 0.88412 0.52252 0.0
N317 N 0.7944 0.14348 0.5045 0.0
C318 C 0.67661 0.94803 0.51811 0.0
C319 C 0.7522 0.08063 0.50868 0.0
N320 N 0.67377 0.97214 0.56213 0.0
N321 N 0.732 0.05845 0.46416 0.0
H322 H 0.8135 0.17678 0.51889 0.0
H323 H 0.81332 0.16219 0.48695 0.0
H324 H 0.713 0.02734 0.44902 0.0
H325 H 0.75051 0.10592 0.45927 0.0
H326 H 0.63867 0.9261 0.56663 0.0
H327 H 0.68707 1.00368 0.57716 0.0
H328 H 0.64037 0.86426 0.54033 0.0
H329 H 0.63053 0.85059 0.50817 0.0
C330 C 0.69733 0.7079 0.65878 0.0
C331 C 0.74149 0.68764 0.66401 0.0
C332 C 0.73068 0.69956 0.70904 0.0
C333 C 0.69579 0.73044 0.70351 0.0
N334 N 0.64546 0.76503 0.67328 0.0
N335 N 0.80168 0.66417 0.69372 0.0
C336 C 0.67767 0.73367 0.67846 0.0
C337 C 0.7577 0.68227 0.68909 0.0
N338 N 0.67477 0.70279 0.63491 0.0
N339 N 0.73765 0.68681 0.73343 0.0
H340 H 0.82094 0.64924 0.67963 0.0
H341 H 0.82173 0.66719 0.71128 0.0
H342 H 0.71766 0.69857 0.74834 0.0
H343 H 0.75784 0.65963 0.73876 0.0
H344 H 0.63826 0.71138 0.6301 0.0
H345 H 0.68893 0.68433 0.62023 0.0
H346 H 0.63782 0.77597 0.6552 0.0
H347 H 0.62933 0.78368 0.68713 0.0
C348 C 0.99359 0.79657 0.85726 0.0
C349 C 0.9737 0.737 0.86887 0.0
C350 C 0.03748 0.71761 0.83816 0.0
C351 C 0.06434 0.78123 0.82944 0.0
N352 N 0.08137 0.88659 0.83783 0.0
N353 N 0.98745 0.64559 0.8731 0.0
C354 C 0.04652 0.82234 0.84114 0.0
C355 C 0.99855 0.69858 0.86011 0.0
N356 N 0.96069 0.82794 0.86062 0.0
N357 N 0.04665 0.67462 0.82513 0.0
H358 H 0.96135 0.63129 0.8897 0.0
H359 H 1.0096 0.6196 0.86873 0.0
H360 H 0.07268 0.68579 0.80853 0.0
H361 H 0.02302 0.62637 0.82947 0.0
H362 H 0.97106 0.86894 0.85064 0.0
H363 H 0.91849 0.80907 0.87071 0.0
H364 H 0.0725 0.91811 0.84786 0.0
H365 H 0.12363 0.90876 0.82774 0.0
C366 C 0.33476 0.03149 0.04035 0.0
C367 C 0.29689 0.9662 0.03454 0.0
C368 C 0.31462 0.99102 0.98966 0.0
C369 C 0.34227 0.05635 0.99548 0.0
N370 N 0.38047 0.14042 0.02605 0.0
N371 N 0.25195 0.882 1.00403 0.0
C372 C 0.35414 0.07724 0.02076 0.0
C373 C 0.28827 0.94526 1.00927 0.0
N374 N 0.35214 0.0493 0.06468 0.0
N375 N 0.31382 0.97318 0.9653 0.0
H376 H 0.23371 0.84709 0.01791 0.0
H377 H 0.2372 0.864 0.98606 0.0
H378 H 0.33313 1.00608 0.95069 0.0
H379 H 0.2993 0.92691 0.95979 0.0
H380 H 0.38405 0.09559 0.07016 0.0
H381 H 0.33898 0.01629 0.07922 0.0
H382 H 0.38319 0.15814 0.04403 0.0
H383 H 0.39678 0.17541 0.01221 0.0
C384 C 0.19572 0.30827 1.01016 0.0
C385 C 0.19405 0.28117 0.03397 0.0
C386 C 0.23798 0.21895 0.0155 0.0
C387 C 0.2356 0.24263 0.99139 0.0
N388 N 0.20694 0.30438 0.9649 0.0
N389 N 0.20663 0.20566 0.0592 0.0
C390 C 0.21301 0.28588 0.98846 0.0
C391 C 0.21306 0.23494 0.03656 0.0
N392 N 0.18167 0.35596 1.00846 0.0
N393 N 0.26602 0.18258 0.01838 0.0
H394 H 0.1921 0.2182 0.07554 0.0
H395 H 0.21154 0.16587 0.06161 0.0
H396 H 0.28357 0.16837 1.00344 0.0
H397 H 0.27647 0.17029 0.03571 0.0
H398 H 0.18794 0.38237 0.99226 0.0
H399 H 0.16688 0.37169 0.02386 0.0
H400 H 0.18497 0.33076 0.96104 0.0
H401 H 0.22076 0.28992 0.94884 0.0
C402 C 0.95558 0.1542 0.19377 0.0
C403 C 0.91121 0.17505 0.19794 0.0
C404 C 0.93022 0.21766 0.1549 0.0
C405 C 0.97297 0.19481 0.15072 0.0
N406 N 1.0019 0.1165 0.16331 0.0
N407 N 0.84231 0.209 0.17957 0.0
C408 C 0.97731 0.15456 0.16905 0.0
C409 C 0.89423 0.20156 0.1776 0.0
N410 N 0.98124 0.13856 0.21345 0.0
N411 N 0.92358 0.25435 0.1371 0.0
H412 H 0.81285 0.19441 0.1953 0.0
H413 H 0.82445 0.22302 0.16466 0.0
H414 H 0.9441 0.26159 0.11934 0.0
H415 H 0.89957 0.27909 0.1403 0.0
H416 H 0.01766 0.1282 0.21124 0.0
H417 H 0.97245 0.14355 0.23217 0.0
H418 H 1.00062 0.08296 0.17586 0.0
H419 H 0.01594 0.11191 0.14543 0.0
C420 C 0.82551 0.02509 0.34898 0.0
C421 C 0.79376 0.99862 0.32601 0.0
C422 C 0.72781 0.89594 0.34695 0.0
C423 C 0.75541 0.92426 0.37033 0.0
N424 N 0.82145 0.01928 0.39427 0.0
N425 N 0.71138 0.91123 0.30303 0.0
C426 C 0.8022 0.98967 0.37153 0.0
C427 C 0.74389 0.9346 0.32495 0.0
N428 N 0.87831 0.08427 0.34932 0.0
N429 N 0.68756 0.83184 0.34575 0.0
H430 H 0.72344 0.93789 0.28652 0.0
H431 H 0.67027 0.86717 0.30151 0.0
H432 H 0.67535 0.80246 0.36149 0.0
H433 H 0.67028 0.80701 0.32904 0.0
H434 H 0.90785 0.10285 0.36489 0.0
H435 H 0.89574 0.11322 0.33351 0.0
H436 H 0.84931 0.0683 0.39624 0.0
H437 H 0.80493 0.99601 0.41139 0.0
C438 C 0.83653 0.71561 0.51496 0.0
C439 C 0.83131 0.73836 0.53884 0.0
C440 C 0.79519 0.80588 0.51902 0.0
C441 C 0.79723 0.78081 0.49522 0.0
N442 N 0.81217 0.70703 0.47032 0.0
N443 N 0.79353 0.79483 0.56419 0.0
C444 C 0.81561 0.73411 0.49312 0.0
C445 C 0.80751 0.78084 0.54103 0.0
N446 N 0.86312 0.67782 0.51319 0.0
N447 N 0.78218 0.85438 0.52062 0.0
H448 H 0.80135 0.77739 0.58089 0.0
H449 H 0.76894 0.81914 0.56692 0.0
H450 H 0.76929 0.87194 0.50524 0.0
H451 H 0.7882 0.88028 0.53692 0.0
H452 H 0.87411 0.6643 0.49628 0.0
H453 H 0.87824 0.66318 0.52885 0.0
H454 H 0.81887 0.66842 0.46772 0.0
H455 H 0.79843 0.72081 0.45404 0.0
C456 C 0.05032 0.82681 0.70495 0.0
C457 C 0.11366 0.83898 0.70275 0.0
C458 C 0.09505 0.80727 0.65836 0.0
C459 C 0.03342 0.79977 0.66018 0.0
N460 N 0.95328 0.80696 0.68446 0.0
N461 N 0.199 0.84615 0.67755 0.0
C462 C 1.01152 0.81119 0.68324 0.0
C463 C 0.13677 0.83049 0.67949 0.0
N464 N 0.02598 0.82668 0.72813 0.0
N465 N 0.1132 0.7915 0.63654 0.0
H466 H 0.23016 0.86256 0.69275 0.0
H467 H 0.22104 0.84691 0.66073 0.0
H468 H 0.08448 0.77651 0.62061 0.0
H469 H 0.1548 0.78969 0.63453 0.0
H470 H 0.97806 0.81014 0.73151 0.0
H471 H 0.05255 0.83829 0.74459 0.0
H472 H 0.93837 0.82336 0.69954 0.0
H473 H 0.92051 0.79014 0.66984 0.0
C474 C 0.27333 0.03857 0.87114 0.0
C475 C 0.3025 0.10562 0.87003 0.0
C476 C 0.29364 0.10104 0.82404 0.0
C477 C 0.2672 0.03406 0.82505 0.0
N478 N 0.24003 0.93966 0.84952 0.0
N479 N 0.34832 0.20223 0.84599 0.0
C480 C 0.25985 1.00311 0.84857 0.0
C481 C 0.31494 0.13736 0.84661 0.0
N482 N 0.25644 1.0084 0.89391 0.0
N483 N 0.29809 0.1298 0.80149 0.0
H484 H 0.36291 0.22983 0.86222 0.0
H485 H 0.365 0.22879 0.8296 0.0
H486 H 0.28733 0.1055 0.78448 0.0
H487 H 0.30979 0.177 0.7996 0.0
H488 H 0.22738 0.95956 0.89601 0.0
H489 H 0.26726 0.03239 0.91099 0.0
H490 H 0.24267 0.91675 0.8656 0.0
H491 H 0.22428 0.90972 0.83407 0.0
C492 C 0.76813 0.78936 0.82707 0.0
C493 C 0.73878 0.82709 0.82794 0.0
C494 C 0.74852 0.83267 0.87392 0.0
C495 C 0.77463 0.79184 0.87317 0.0
N496 N 0.8014 0.72403 0.84905 0.0
N497 N 0.69361 0.87873 0.85167 0.0
C498 C 0.78177 0.7678 0.84977 0.0
C499 C 0.72687 0.84713 0.85125 0.0
N500 N 0.78494 0.77573 0.8044 0.0
N501 N 0.74464 0.85775 0.89631 0.0
H502 H 0.67887 0.89142 0.83537 0.0
H503 H 0.67724 0.88908 0.86801 0.0
H504 H 0.7558 0.84476 0.9134 0.0
H505 H 0.73312 0.8934 0.89797 0.0
H506 H 0.81403 0.75596 0.80246 0.0
H507 H 0.77413 0.78869 0.78723 0.0
H508 H 0.7986 0.69817 0.8331 0.0
H509 H 0.81711 0.71003 0.86462 0.0
C510 C 0.89698 0.73525 0.01962 0.0
C511 C 0.92445 0.74196 0.9955 0.0
C512 C 0.03086 0.79172 0.01423 0.0
C513 C 1.00327 0.78086 0.0385 0.0
N514 N 0.91088 0.73797 0.06496 0.0
N515 N 0.0166 0.76987 0.96975 0.0
C516 C 0.93643 0.75151 0.0414 0.0
C517 C 0.99107 0.76797 0.99283 0.0
N518 N 0.83341 0.714 0.02157 0.0
N519 N 0.09535 0.82801 0.01149 0.0
H520 H 0.99051 0.75776 0.95315 0.0
H521 H 0.06309 0.77971 0.96712 0.0
H522 H 0.12669 0.84617 0.02656 0.0
H523 H 0.11779 0.84491 0.99428 0.0
H524 H 0.81096 0.7136 0.03823 0.0
H525 H 0.8033 0.69991 1.00605 0.0
H526 H 0.86241 0.71149 0.06861 0.0
H527 H 0.93881 0.7499 0.08109 0.0
C528 C 0.25485 0.98518 0.15866 0.0
C529 C 0.20793 0.91995 0.1597 0.0
C530 C 0.20165 0.92705 0.20551 0.0
C531 C 0.24465 0.99351 0.20417 0.0
N532 N 0.30222 0.08784 0.17855 0.0
N533 N 0.13146 0.8293 0.18323 0.0
C534 C 0.26897 0.02308 0.18053 0.0
C535 C 0.1797 0.89099 0.1829 0.0
N536 N 0.2864 0.01117 0.13669 0.0
N537 N 0.18369 0.89818 0.22843 0.0
H538 H 0.11582 0.80142 0.16709 0.0
H539 H 0.10417 0.80703 0.19903 0.0
H540 H 0.19971 0.9231 0.24523 0.0
H541 H 0.15735 0.84921 0.23089 0.0
H542 H 0.32685 0.05593 0.13556 0.0
H543 H 0.27519 0.98648 0.11977 0.0
H544 H 0.31363 0.11193 0.16148 0.0
H545 H 0.31349 0.11825 0.19376 0.0
C546 C 0.30832 0.17201 0.34961 0.0
C547 C 0.30299 0.19483 0.32575 0.0
C548 C 0.26183 0.2582 0.34543 0.0
C549 C 0.26224 0.23149 0.36913 0.0
N550 N 0.28067 0.1595 0.39393 0.0
N551 N 0.26473 0.25082 0.30025 0.0
C552 C 0.28404 0.18732 0.37126 0.0
C553 C 0.27763 0.23602 0.3235 0.0
N554 N 0.33801 0.13708 0.35156 0.0
N555 N 0.24539 0.30428 0.34372 0.0
H556 H 0.27482 0.23534 0.28359 0.0
H557 H 0.2388 0.27369 0.29731 0.0
H558 H 0.22799 0.31849 0.35869 0.0
H559 H 0.25281 0.33171 0.32772 0.0
H560 H 0.34922 0.12399 0.36855 0.0
H561 H 0.35554 0.12475 0.33601 0.0
H562 H 0.28895 0.12181 0.39637 0.0
H563 H 0.2664 0.17226 0.4103 0.0
C564 C 0.03531 0.22077 0.48878 0.0
C565 C 0.10159 0.26418 0.49048 0.0
C566 C 0.09152 0.27182 0.53612 0.0
C567 C 0.02633 0.22499 0.53452 0.0
N568 N 0.93765 0.14767 0.51005 0.0
N569 N 0.19486 0.32568 0.51564 0.0
C570 C 0.99884 0.19712 0.51107 0.0
C571 C 0.13032 0.28834 0.51416 0.0
N572 N 1.00625 0.20508 0.46583 0.0
N573 N 0.1159 0.30107 0.55853 0.0
H574 H 0.22428 0.33833 0.49991 0.0
H575 H 0.21976 0.34017 0.53246 0.0
H576 H 0.08903 0.28856 0.57497 0.0
H577 H 0.16123 0.34015 0.5606 0.0
H578 H 0.95716 0.1802 0.46348 0.0
H579 H 0.03058 0.22166 0.44891 0.0
H580 H 0.91766 0.12023 0.49408 0.0
H581 H 0.90781 0.13079 0.52562 0.0
C582 C 0.82461 0.08627 0.70486 0.0
C583 C 0.79663 0.01941 0.70311 0.0
C584 C 0.80852 0.02727 0.65723 0.0
C585 C 0.83315 0.09385 0.65881 0.0
N586 N 0.8591 0.18668 0.68335 0.0
N587 N 0.75526 0.92466 0.67791 0.0
C588 C 0.83954 0.12337 0.68244 0.0
C589 C 0.78689 0.98954 0.67936 0.0
N590 N 0.83789 0.11417 0.72797 0.0
N591 N 0.80595 0.99997 0.6345 0.0
H592 H 0.74068 0.89511 0.6936 0.0
H593 H 0.73943 0.89943 0.66123 0.0
H594 H 0.81635 0.02444 0.61752 0.0
H595 H 0.79696 0.9537 0.63239 0.0
H596 H 0.86402 0.16298 0.7308 0.0
H597 H 0.82576 0.08799 0.7446 0.0
H598 H 0.85847 0.21012 0.69955 0.0
H599 H 0.87299 0.21555 0.66743 0.0
loop_
_geom_bond_atom_site_label_1
_geom_bond_atom_site_label_2
_geom_bond_distance
_geom_bond_site_symmetry_2
_ccdc_geom_bond_type
O0 Cd1 2.223 . S
O0 C8 1.315 . S
Cd1 O0 2.223 . S
Cd1 O4 2.297 . S
Cd1 O5 2.439 . S
Cd1 O11 2.240 . S
Cd2 O3 2.240 . S
Cd2 O10 2.223 . S
Cd2 O12 2.297 1_455 S
Cd2 O13 2.439 . S
O3 Cd2 2.240 . S
O3 C8 1.279 . S
O4 Cd1 2.297 . S
O4 C6 1.247 . S
O5 Cd1 2.439 . S
O5 C6 1.208 . S
C6 O4 1.247 . S
C6 O5 1.208 . S
C7 O12 1.248 . S
C7 O13 1.208 1_655 S
C8 O0 1.315 . S
C8 O3 1.279 . S
C9 O10 1.315 . S
C9 O11 1.279 . S
O10 Cd2 2.223 . S
O10 C9 1.315 . S
O11 Cd1 2.240 . S
O11 C9 1.279 . S
O12 Cd2 2.297 1_655 S
O12 C7 1.248 . S
O13 Cd2 2.439 . S
O13 C7 1.208 1_455 S
O14 Cd15 2.223 . S
O14 C22 1.315 . S
Cd15 O14 2.223 . S
Cd15 O18 2.297 . S
Cd15 O19 2.439 . S
Cd15 O25 2.240 . S
Cd16 O17 2.240 . S
Cd16 O24 2.223 . S
Cd16 O26 2.296 1_545 S
Cd16 O27 2.439 . S
O17 Cd16 2.240 . S
O17 C22 1.279 . S
O18 Cd15 2.297 . S
O18 C20 1.247 . S
O19 Cd15 2.439 . S
O19 C20 1.208 . S
C20 O18 1.247 . S
C20 O19 1.208 . S
C21 O26 1.247 . S
C21 O27 1.208 1_565 S
C22 O14 1.315 . S
C22 O17 1.279 . S
C23 O24 1.315 . S
C23 O25 1.279 . S
O24 Cd16 2.223 . S
O24 C23 1.315 . S
O25 Cd15 2.240 . S
O25 C23 1.279 . S
O26 Cd16 2.296 1_565 S
O26 C21 1.247 . S
O27 Cd16 2.439 . S
O27 C21 1.208 1_545 S
O28 Cd29 2.223 . S
O28 C36 1.315 . S
Cd29 O28 2.223 . S
Cd29 O32 2.297 . S
Cd29 O33 2.439 . S
Cd29 O39 2.240 . S
Cd30 O31 2.240 . S
Cd30 O38 2.223 . S
Cd30 O40 2.297 . S
Cd30 O41 2.439 . S
O31 Cd30 2.240 . S
O31 C36 1.279 . S
O32 Cd29 2.297 . S
O32 C34 1.247 . S
O33 Cd29 2.439 . S
O33 C34 1.208 . S
C34 O32 1.247 . S
C34 O33 1.208 . S
C35 O40 1.247 . S
C35 O41 1.208 . S
C36 O28 1.315 . S
C36 O31 1.279 . S
C37 O38 1.315 . S
C37 O39 1.279 . S
O38 Cd30 2.223 . S
O38 C37 1.315 . S
O39 Cd29 2.240 . S
O39 C37 1.279 . S
O40 Cd30 2.297 . S
O40 C35 1.247 . S
O41 Cd30 2.439 . S
O41 C35 1.208 . S
O42 Cd43 2.223 . S
O42 C50 1.315 . S
Cd43 O42 2.223 . S
Cd43 O46 2.297 . S
Cd43 O47 2.439 . S
Cd43 O53 2.240 . S
Cd44 O45 2.240 . S
Cd44 O52 2.223 . S
Cd44 O54 2.297 1_655 S
Cd44 O55 2.439 . S
O45 Cd44 2.240 . S
O45 C50 1.279 . S
O46 Cd43 2.297 . S
O46 C48 1.247 . S
O47 Cd43 2.439 . S
O47 C48 1.208 . S
C48 O46 1.247 . S
C48 O47 1.208 . S
C49 O54 1.248 . S
C49 O55 1.208 1_455 S
C50 O42 1.315 . S
C50 O45 1.279 . S
C51 O52 1.315 . S
C51 O53 1.279 . S
O52 Cd44 2.223 . S
O52 C51 1.315 . S
O53 Cd43 2.240 . S
O53 C51 1.279 . S
O54 Cd44 2.297 1_455 S
O54 C49 1.248 . S
O55 Cd44 2.439 . S
O55 C49 1.208 1_655 S
O56 Cd57 2.223 . S
O56 C64 1.315 . S
Cd57 O56 2.223 . S
Cd57 O60 2.297 . S
Cd57 O61 2.439 . S
Cd57 O67 2.240 . S
Cd58 O59 2.240 . S
Cd58 O66 2.223 . S
Cd58 O68 2.296 1_565 S
Cd58 O69 2.439 . S
O59 Cd58 2.240 . S
O59 C64 1.279 . S
O60 Cd57 2.297 . S
O60 C62 1.247 . S
O61 Cd57 2.439 . S
O61 C62 1.208 . S
C62 O60 1.247 . S
C62 O61 1.208 . S
C63 O68 1.246 . S
C63 O69 1.208 1_545 S
C64 O56 1.315 . S
C64 O59 1.279 . S
C65 O66 1.315 . S
C65 O67 1.279 . S
O66 Cd58 2.223 . S
O66 C65 1.315 . S
O67 Cd57 2.240 . S
O67 C65 1.279 . S
O68 Cd58 2.296 1_545 S
O68 C63 1.246 . S
O69 Cd58 2.439 . S
O69 C63 1.208 1_565 S
O70 Cd71 2.223 . S
O70 C78 1.315 . S
Cd71 O70 2.223 . S
Cd71 O74 2.297 . S
Cd71 O75 2.439 . S
Cd71 O81 2.240 . S
Cd72 O73 2.240 . S
Cd72 O80 2.223 . S
Cd72 O82 2.297 1_556 S
Cd72 O83 2.439 . S
O73 Cd72 2.240 . S
O73 C78 1.279 . S
O74 Cd71 2.297 . S
O74 C76 1.247 . S
O75 Cd71 2.439 . S
O75 C76 1.208 . S
C76 O74 1.247 . S
C76 O75 1.208 . S
C77 O82 1.247 . S
C77 O83 1.208 1_554 S
C78 O70 1.315 . S
C78 O73 1.279 . S
C79 O80 1.315 . S
C79 O81 1.279 . S
O80 Cd72 2.223 . S
O80 C79 1.315 . S
O81 Cd71 2.240 . S
O81 C79 1.279 . S
O82 Cd72 2.297 1_554 S
O82 C77 1.247 . S
O83 Cd72 2.439 . S
O83 C77 1.208 1_556 S
O84 Cd85 2.223 . S
O84 C92 1.315 . S
Cd85 O84 2.223 . S
Cd85 O88 2.297 . S
Cd85 O89 2.439 . S
Cd85 O95 2.240 . S
Cd86 O87 2.240 . S
Cd86 O94 2.223 . S
Cd86 O96 2.297 1_565 S
Cd86 O97 2.439 . S
O87 Cd86 2.240 . S
O87 C92 1.279 . S
O88 Cd85 2.297 . S
O88 C90 1.247 . S
O89 Cd85 2.439 . S
O89 C90 1.208 . S
C90 O88 1.247 . S
C90 O89 1.208 . S
C91 O96 1.248 . S
C91 O97 1.208 1_545 S
C92 O84 1.315 . S
C92 O87 1.279 . S
C93 O94 1.315 . S
C93 O95 1.279 . S
O94 Cd86 2.223 . S
O94 C93 1.315 . S
O95 Cd85 2.240 . S
O95 C93 1.279 . S
O96 Cd86 2.297 1_545 S
O96 C91 1.248 . S
O97 Cd86 2.439 . S
O97 C91 1.208 1_565 S
O98 Cd99 2.223 . S
O98 C106 1.315 . S
Cd99 O98 2.223 . S
Cd99 O102 2.297 . S
Cd99 O103 2.439 . S
Cd99 O109 2.240 . S
Cd100 O101 2.240 . S
Cd100 O108 2.223 . S
Cd100 O110 2.297 . S
Cd100 O111 2.439 . S
O101 Cd100 2.240 . S
O101 C106 1.279 . S
O102 Cd99 2.297 . S
O102 C104 1.247 . S
O103 Cd99 2.439 . S
O103 C104 1.208 . S
C104 O102 1.247 . S
C104 O103 1.208 . S
C105 O110 1.247 . S
C105 O111 1.208 . S
C106 O98 1.315 . S
C106 O101 1.279 . S
C107 O108 1.315 . S
C107 O109 1.279 . S
O108 Cd100 2.223 . S
O108 C107 1.315 . S
O109 Cd99 2.240 . S
O109 C107 1.279 . S
O110 Cd100 2.297 . S
O110 C105 1.247 . S
O111 Cd100 2.439 . S
O111 C105 1.208 . S
O112 Cd113 2.223 . S
O112 C120 1.315 . S
Cd113 O112 2.223 . S
Cd113 O116 2.297 . S
Cd113 O117 2.439 . S
Cd113 O123 2.240 . S
Cd114 O115 2.240 . S
Cd114 O122 2.223 . S
Cd114 O124 2.296 1_455 S
Cd114 O125 2.439 . S
O115 Cd114 2.240 . S
O115 C120 1.279 . S
O116 Cd113 2.297 . S
O116 C118 1.247 . S
O117 Cd113 2.439 . S
O117 C118 1.208 . S
C118 O116 1.247 . S
C118 O117 1.208 . S
C119 O124 1.247 1_556 S
C119 O125 1.208 1_656 S
C120 O112 1.315 . S
C120 O115 1.279 . S
C121 O122 1.315 . S
C121 O123 1.279 . S
O122 Cd114 2.223 . S
O122 C121 1.315 . S
O123 Cd113 2.240 . S
O123 C121 1.279 . S
O124 Cd114 2.296 1_655 S
O124 C119 1.247 1_554 S
O125 Cd114 2.439 . S
O125 C119 1.208 1_454 S
O126 Cd127 2.223 . S
O126 C134 1.315 . S
Cd127 O126 2.223 . S
Cd127 O130 2.297 . S
Cd127 O131 2.439 . S
Cd127 O137 2.240 . S
Cd128 O129 2.240 . S
Cd128 O136 2.223 . S
Cd128 O138 2.297 1_545 S
Cd128 O139 2.439 . S
O129 Cd128 2.240 . S
O129 C134 1.279 . S
O130 Cd127 2.297 . S
O130 C132 1.247 . S
O131 Cd127 2.439 . S
O131 C132 1.208 . S
C132 O130 1.247 . S
C132 O131 1.208 . S
C133 O138 1.248 . S
C133 O139 1.208 1_565 S
C134 O126 1.315 . S
C134 O129 1.279 . S
C135 O136 1.315 . S
C135 O137 1.279 . S
O136 Cd128 2.223 . S
O136 C135 1.315 . S
O137 Cd127 2.240 . S
O137 C135 1.279 . S
O138 Cd128 2.297 1_565 S
O138 C133 1.248 . S
O139 Cd128 2.439 . S
O139 C133 1.208 1_545 S
O140 Cd141 2.223 . S
O140 C148 1.315 . S
Cd141 O140 2.223 . S
Cd141 O144 2.297 . S
Cd141 O145 2.439 . S
Cd141 O151 2.240 . S
Cd142 O143 2.240 . S
Cd142 O150 2.223 . S
Cd142 O152 2.297 . S
Cd142 O153 2.439 . S
O143 Cd142 2.240 . S
O143 C148 1.279 . S
O144 Cd141 2.297 . S
O144 C146 1.247 . S
O145 Cd141 2.439 . S
O145 C146 1.208 . S
C146 O144 1.247 . S
C146 O145 1.208 . S
C147 O152 1.247 . S
C147 O153 1.208 . S
C148 O140 1.315 . S
C148 O143 1.279 . S
C149 O150 1.315 . S
C149 O151 1.279 . S
O150 Cd142 2.223 . S
O150 C149 1.315 . S
O151 Cd141 2.240 . S
O151 C149 1.279 . S
O152 Cd142 2.297 . S
O152 C147 1.247 . S
O153 Cd142 2.439 . S
O153 C147 1.208 . S
O154 Cd155 2.223 . S
O154 C162 1.315 . S
Cd155 O154 2.223 . S
Cd155 O158 2.297 . S
Cd155 O159 2.439 . S
Cd155 O165 2.240 . S
Cd156 O157 2.240 . S
Cd156 O164 2.223 . S
Cd156 O166 2.296 1_655 S
Cd156 O167 2.439 . S
O157 Cd156 2.240 . S
O157 C162 1.279 . S
O158 Cd155 2.297 . S
O158 C160 1.247 . S
O159 Cd155 2.439 . S
O159 C160 1.208 . S
C160 O158 1.247 . S
C160 O159 1.208 . S
C161 O166 1.246 . S
C161 O167 1.208 1_455 S
C162 O154 1.315 . S
C162 O157 1.279 . S
C163 O164 1.315 . S
C163 O165 1.279 . S
O164 Cd156 2.223 . S
O164 C163 1.315 . S
O165 Cd155 2.240 . S
O165 C163 1.279 . S
O166 Cd156 2.296 1_455 S
O166 C161 1.246 . S
O167 Cd156 2.439 . S
O167 C161 1.208 1_655 S
C168 C169 1.363 . S
C168 C174 1.379 . S
C168 N176 1.356 . S
C169 C168 1.363 . S
C169 C175 1.363 . S
C170 C171 1.363 . S
C170 C175 1.379 . S
C170 N177 1.356 . S
C171 C170 1.363 . S
C171 C174 1.363 . S
N172 C174 1.356 . S
N172 H184 0.984 . S
N172 H185 0.985 . S
N173 C175 1.356 . S
N173 H178 0.984 . S
N173 H179 0.985 . S
C174 C168 1.379 . S
C174 C171 1.363 . S
C174 N172 1.356 . S
C175 C169 1.363 . S
C175 C170 1.379 . S
C175 N173 1.356 . S
N176 C168 1.356 . S
N176 H182 0.984 . S
N176 H183 0.984 . S
N177 C170 1.356 . S
N177 H180 0.984 . S
N177 H181 0.985 . S
H178 N173 0.984 . S
H179 N173 0.985 . S
H180 N177 0.984 . S
H181 N177 0.985 . S
H182 N176 0.984 . S
H183 N176 0.984 . S
H184 N172 0.984 . S
H185 N172 0.985 . S
C186 C187 1.363 . S
C186 C192 1.379 . S
C186 N194 1.356 . S
C187 C186 1.363 . S
C187 C193 1.363 . S
C188 C189 1.363 . S
C188 C193 1.379 . S
C188 N195 1.356 . S
C189 C188 1.363 . S
C189 C192 1.363 . S
N190 C192 1.356 . S
N190 H202 0.984 . S
N190 H203 0.985 . S
N191 C193 1.356 . S
N191 H196 0.984 . S
N191 H197 0.985 . S
C192 C186 1.379 . S
C192 C189 1.363 . S
C192 N190 1.356 . S
C193 C187 1.363 . S
C193 C188 1.379 . S
C193 N191 1.356 . S
N194 C186 1.356 . S
N194 H200 0.984 . S
N194 H201 0.984 . S
N195 C188 1.356 . S
N195 H198 0.984 . S
N195 H199 0.985 . S
H196 N191 0.984 . S
H197 N191 0.985 . S
H198 N195 0.984 . S
H199 N195 0.985 . S
H200 N194 0.984 . S
H201 N194 0.984 . S
H202 N190 0.984 . S
H203 N190 0.985 . S
C204 C205 1.363 . S
C204 C210 1.379 . S
C204 N212 1.356 . S
C205 C204 1.363 . S
C205 C211 1.363 . S
C206 C207 1.363 . S
C206 C211 1.379 . S
C206 N213 1.356 . S
C207 C206 1.363 . S
C207 C210 1.363 . S
N208 C210 1.356 . S
N208 H220 0.984 . S
N208 H221 0.985 . S
N209 C211 1.356 . S
N209 H214 0.984 . S
N209 H215 0.985 . S
C210 C204 1.379 . S
C210 C207 1.363 . S
C210 N208 1.356 . S
C211 C205 1.363 . S
C211 C206 1.379 . S
C211 N209 1.356 . S
N212 C204 1.356 . S
N212 H218 0.984 . S
N212 H219 0.984 . S
N213 C206 1.356 . S
N213 H216 0.984 . S
N213 H217 0.985 . S
H214 N209 0.984 . S
H215 N209 0.985 . S
H216 N213 0.984 . S
H217 N213 0.985 . S
H218 N212 0.984 . S
H219 N212 0.984 . S
H220 N208 0.984 . S
H221 N208 0.985 . S
C222 C223 1.363 . S
C222 C228 1.379 . S
C222 N230 1.356 . S
C223 C222 1.363 . S
C223 C229 1.363 . S
C224 C225 1.363 . S
C224 C229 1.379 . S
C224 N231 1.356 . S
C225 C224 1.363 . S
C225 C228 1.363 . S
N226 C228 1.356 . S
N226 H238 0.984 . S
N226 H239 0.985 . S
N227 C229 1.356 . S
N227 H232 0.984 . S
N227 H233 0.985 . S
C228 C222 1.379 . S
C228 C225 1.363 . S
C228 N226 1.356 . S
C229 C223 1.363 . S
C229 C224 1.379 . S
C229 N227 1.356 . S
N230 C222 1.356 . S
N230 H236 0.984 . S
N230 H237 0.984 . S
N231 C224 1.356 . S
N231 H234 0.984 . S
N231 H235 0.985 . S
H232 N227 0.984 . S
H233 N227 0.985 . S
H234 N231 0.984 . S
H235 N231 0.985 . S
H236 N230 0.984 . S
H237 N230 0.984 . S
H238 N226 0.984 . S
H239 N226 0.985 . S
C240 C241 1.363 . S
C240 C246 1.379 . S
C240 N248 1.356 . S
C241 C240 1.363 . S
C241 C247 1.363 . S
C242 C243 1.363 . S
C242 C247 1.379 . S
C242 N249 1.356 . S
C243 C242 1.363 . S
C243 C246 1.363 . S
N244 C246 1.356 . S
N244 H256 0.984 . S
N244 H257 0.985 . S
N245 C247 1.356 . S
N245 H250 0.984 . S
N245 H251 0.985 . S
C246 C240 1.379 . S
C246 C243 1.363 . S
C246 N244 1.356 . S
C247 C241 1.363 . S
C247 C242 1.379 . S
C247 N245 1.356 . S
N248 C240 1.356 . S
N248 H254 0.984 . S
N248 H255 0.984 . S
N249 C242 1.356 . S
N249 H252 0.984 . S
N249 H253 0.985 . S
H250 N245 0.984 . S
H251 N245 0.985 . S
H252 N249 0.984 . S
H253 N249 0.985 . S
H254 N248 0.984 . S
H255 N248 0.984 . S
H256 N244 0.984 . S
H257 N244 0.985 . S
C258 C259 1.363 . S
C258 C264 1.379 . S
C258 N266 1.356 . S
C259 C258 1.363 . S
C259 C265 1.363 . S
C260 C261 1.363 . S
C260 C265 1.379 . S
C260 N267 1.356 . S
C261 C260 1.363 . S
C261 C264 1.363 . S
N262 C264 1.356 . S
N262 H274 0.984 . S
N262 H275 0.985 . S
N263 C265 1.356 . S
N263 H268 0.984 . S
N263 H269 0.985 . S
C264 C258 1.379 . S
C264 C261 1.363 . S
C264 N262 1.356 . S
C265 C259 1.363 . S
C265 C260 1.379 . S
C265 N263 1.356 . S
N266 C258 1.356 . S
N266 H272 0.984 . S
N266 H273 0.984 . S
N267 C260 1.356 . S
N267 H270 0.984 . S
N267 H271 0.985 . S
H268 N263 0.984 . S
H269 N263 0.985 . S
H270 N267 0.984 . S
H271 N267 0.985 . S
H272 N266 0.984 . S
H273 N266 0.984 . S
H274 N262 0.984 . S
H275 N262 0.985 . S
C276 C277 1.363 . S
C276 C282 1.379 . S
C276 N284 1.356 . S
C277 C276 1.363 . S
C277 C283 1.363 . S
C278 C279 1.363 . S
C278 C283 1.379 . S
C278 N285 1.356 . S
C279 C278 1.363 . S
C279 C282 1.363 . S
N280 C282 1.356 . S
N280 H292 0.984 . S
N280 H293 0.985 . S
N281 C283 1.356 . S
N281 H286 0.984 . S
N281 H287 0.985 . S
C282 C276 1.379 . S
C282 C279 1.363 . S
C282 N280 1.356 . S
C283 C277 1.363 . S
C283 C278 1.379 . S
C283 N281 1.356 . S
N284 C276 1.356 . S
N284 H290 0.984 . S
N284 H291 0.984 . S
N285 C278 1.356 . S
N285 H288 0.984 . S
N285 H289 0.985 . S
H286 N281 0.984 . S
H287 N281 0.985 . S
H288 N285 0.984 . S
H289 N285 0.985 . S
H290 N284 0.984 . S
H291 N284 0.984 . S
H292 N280 0.984 . S
H293 N280 0.985 . S
C294 C295 1.363 . S
C294 C300 1.379 1_655 S
C294 N302 1.356 . S
C295 C294 1.363 . S
C295 C301 1.363 . S
C296 C297 1.363 . S
C296 C301 1.379 1_455 S
C296 N303 1.356 . S
C297 C296 1.363 . S
C297 C300 1.363 . S
N298 C300 1.356 . S
N298 H310 0.984 . S
N298 H311 0.985 . S
N299 C301 1.356 . S
N299 H304 0.984 . S
N299 H305 0.985 . S
C300 C294 1.379 1_455 S
C300 C297 1.363 . S
C300 N298 1.356 . S
C301 C295 1.363 . S
C301 C296 1.379 1_655 S
C301 N299 1.356 . S
N302 C294 1.356 . S
N302 H308 0.984 . S
N302 H309 0.984 . S
N303 C296 1.356 . S
N303 H306 0.984 . S
N303 H307 0.985 . S
H304 N299 0.984 . S
H305 N299 0.985 . S
H306 N303 0.984 . S
H307 N303 0.985 . S
H308 N302 0.984 . S
H309 N302 0.984 . S
H310 N298 0.984 . S
H311 N298 0.985 . S
C312 C313 1.363 . S
C312 C318 1.379 1_545 S
C312 N320 1.356 . S
C313 C312 1.363 . S
C313 C319 1.363 . S
C314 C315 1.363 . S
C314 C319 1.379 1_565 S
C314 N321 1.356 . S
C315 C314 1.363 . S
C315 C318 1.363 . S
N316 C318 1.356 . S
N316 H328 0.984 . S
N316 H329 0.985 . S
N317 C319 1.356 . S
N317 H322 0.984 . S
N317 H323 0.985 . S
C318 C312 1.379 1_565 S
C318 C315 1.363 . S
C318 N316 1.356 . S
C319 C313 1.363 . S
C319 C314 1.379 1_545 S
C319 N317 1.356 . S
N320 C312 1.356 . S
N320 H326 0.984 . S
N320 H327 0.984 . S
N321 C314 1.356 . S
N321 H324 0.984 . S
N321 H325 0.985 . S
H322 N317 0.984 . S
H323 N317 0.985 . S
H324 N321 0.984 . S
H325 N321 0.985 . S
H326 N320 0.984 . S
H327 N320 0.984 . S
H328 N316 0.984 . S
H329 N316 0.985 . S
C330 C331 1.363 . S
C330 C336 1.379 . S
C330 N338 1.356 . S
C331 C330 1.363 . S
C331 C337 1.363 . S
C332 C333 1.363 . S
C332 C337 1.379 . S
C332 N339 1.356 . S
C333 C332 1.363 . S
C333 C336 1.363 . S
N334 C336 1.356 . S
N334 H346 0.984 . S
N334 H347 0.985 . S
N335 C337 1.356 . S
N335 H340 0.984 . S
N335 H341 0.985 . S
C336 C330 1.379 . S
C336 C333 1.363 . S
C336 N334 1.356 . S
C337 C331 1.363 . S
C337 C332 1.379 . S
C337 N335 1.356 . S
N338 C330 1.356 . S
N338 H344 0.984 . S
N338 H345 0.984 . S
N339 C332 1.356 . S
N339 H342 0.984 . S
N339 H343 0.985 . S
H340 N335 0.984 . S
H341 N335 0.985 . S
H342 N339 0.984 . S
H343 N339 0.985 . S
H344 N338 0.984 . S
H345 N338 0.984 . S
H346 N334 0.984 . S
H347 N334 0.985 . S
C348 C349 1.363 . S
C348 C354 1.379 1_655 S
C348 N356 1.356 . S
C349 C348 1.363 . S
C349 C355 1.363 . S
C350 C351 1.363 . S
C350 C355 1.379 1_455 S
C350 N357 1.356 . S
C351 C350 1.363 . S
C351 C354 1.363 . S
N352 C354 1.356 . S
N352 H364 0.984 . S
N352 H365 0.985 . S
N353 C355 1.356 . S
N353 H358 0.984 . S
N353 H359 0.985 . S
C354 C348 1.379 1_455 S
C354 C351 1.363 . S
C354 N352 1.356 . S
C355 C349 1.363 . S
C355 C350 1.379 1_655 S
C355 N353 1.356 . S
N356 C348 1.356 . S
N356 H362 0.984 . S
N356 H363 0.984 . S
N357 C350 1.356 . S
N357 H360 0.984 . S
N357 H361 0.985 . S
H358 N353 0.984 . S
H359 N353 0.985 . S
H360 N357 0.984 . S
H361 N357 0.985 . S
H362 N356 0.984 . S
H363 N356 0.984 . S
H364 N352 0.984 . S
H365 N352 0.985 . S
C366 C367 1.363 . S
C366 C372 1.379 1_565 S
C366 N374 1.356 . S
C367 C366 1.363 . S
C367 C373 1.363 1_554 S
C368 C369 1.363 . S
C368 C373 1.379 1_545 S
C368 N375 1.356 . S
C369 C368 1.363 . S
C369 C372 1.363 1_556 S
N370 C372 1.356 . S
N370 H382 0.984 . S
N370 H383 0.985 . S
N371 C373 1.356 . S
N371 H376 0.984 . S
N371 H377 0.985 . S
C372 C366 1.379 1_545 S
C372 C369 1.363 1_554 S
C372 N370 1.356 . S
C373 C367 1.363 1_556 S
C373 C368 1.379 1_565 S
C373 N371 1.356 . S
N374 C366 1.356 . S
N374 H380 0.984 . S
N374 H381 0.984 . S
N375 C368 1.356 . S
N375 H378 0.984 . S
N375 H379 0.985 . S
H376 N371 0.984 . S
H377 N371 0.985 . S
H378 N375 0.984 . S
H379 N375 0.985 . S
H380 N374 0.984 . S
H381 N374 0.984 . S
H382 N370 0.984 . S
H383 N370 0.985 . S
C384 C385 1.363 . S
C384 C390 1.379 . S
C384 N392 1.356 . S
C385 C384 1.363 . S
C385 C391 1.363 . S
C386 C387 1.363 . S
C386 C391 1.379 . S
C386 N393 1.356 . S
C387 C386 1.363 . S
C387 C390 1.363 . S
N388 C390 1.356 . S
N388 H400 0.986 1_554 S
N388 H401 0.985 1_554 S
N389 C391 1.356 . S
N389 H394 0.984 . S
N389 H395 0.985 . S
C390 C384 1.379 . S
C390 C387 1.363 . S
C390 N388 1.356 . S
C391 C385 1.363 . S
C391 C386 1.379 . S
C391 N389 1.356 . S
N392 C384 1.356 . S
N392 H398 0.984 . S
N392 H399 0.984 . S
N393 C386 1.356 . S
N393 H396 0.984 . S
N393 H397 0.985 . S
H394 N389 0.984 . S
H395 N389 0.985 . S
H396 N393 0.984 . S
H397 N393 0.985 . S
H398 N392 0.984 . S
H399 N392 0.984 . S
H400 N388 0.986 1_556 S
H401 N388 0.985 1_556 S
C402 C403 1.363 . S
C402 C408 1.379 . S
C402 N410 1.356 . S
C403 C402 1.363 . S
C403 C409 1.363 . S
C404 C405 1.363 . S
C404 C409 1.379 . S
C404 N411 1.356 . S
C405 C404 1.363 . S
C405 C408 1.363 . S
N406 C408 1.356 . S
N406 H418 0.984 . S
N406 H419 0.985 . S
N407 C409 1.356 . S
N407 H412 0.984 . S
N407 H413 0.985 . S
C408 C402 1.379 . S
C408 C405 1.363 . S
C408 N406 1.356 . S
C409 C403 1.363 . S
C409 C404 1.379 . S
C409 N407 1.356 . S
N410 C402 1.356 . S
N410 H416 0.984 . S
N410 H417 0.984 . S
N411 C404 1.356 . S
N411 H414 0.984 . S
N411 H415 0.985 . S
H412 N407 0.984 . S
H413 N407 0.985 . S
H414 N411 0.984 . S
H415 N411 0.985 . S
H416 N410 0.984 . S
H417 N410 0.984 . S
H418 N406 0.984 . S
H419 N406 0.985 . S
C420 C421 1.363 . S
C420 C426 1.379 . S
C420 N428 1.356 1_565 S
C421 C420 1.363 . S
C421 C427 1.363 . S
C422 C423 1.363 . S
C422 C427 1.379 . S
C422 N429 1.356 . S
C423 C422 1.363 . S
C423 C426 1.363 . S
N424 C426 1.356 . S
N424 H436 0.984 . S
N424 H437 0.985 . S
N425 C427 1.356 . S
N425 H430 0.984 . S
N425 H431 0.985 . S
C426 C420 1.379 . S
C426 C423 1.363 . S
C426 N424 1.356 . S
C427 C421 1.363 . S
C427 C422 1.379 . S
C427 N425 1.356 . S
N428 C420 1.356 1_545 S
N428 H434 0.984 . S
N428 H435 0.984 . S
N429 C422 1.356 . S
N429 H432 0.984 . S
N429 H433 0.985 . S
H430 N425 0.984 . S
H431 N425 0.985 . S
H432 N429 0.984 . S
H433 N429 0.985 . S
H434 N428 0.984 . S
H435 N428 0.984 . S
H436 N424 0.984 . S
H437 N424 0.985 . S
C438 C439 1.363 . S
C438 C444 1.379 . S
C438 N446 1.356 . S
C439 C438 1.363 . S
C439 C445 1.363 . S
C440 C441 1.363 . S
C440 C445 1.379 . S
C440 N447 1.356 . S
C441 C440 1.363 . S
C441 C444 1.363 . S
N442 C444 1.356 . S
N442 H454 0.984 . S
N442 H455 0.985 . S
N443 C445 1.356 . S
N443 H448 0.984 . S
N443 H449 0.985 . S
C444 C438 1.379 . S
C444 C441 1.363 . S
C444 N442 1.356 . S
C445 C439 1.363 . S
C445 C440 1.379 . S
C445 N443 1.356 . S
N446 C438 1.356 . S
N446 H452 0.984 . S
N446 H453 0.984 . S
N447 C440 1.356 . S
N447 H450 0.984 . S
N447 H451 0.985 . S
H448 N443 0.984 . S
H449 N443 0.985 . S
H450 N447 0.984 . S
H451 N447 0.985 . S
H452 N446 0.984 . S
H453 N446 0.984 . S
H454 N442 0.984 . S
H455 N442 0.985 . S
C456 C457 1.363 . S
C456 C462 1.379 . S
C456 N464 1.356 . S
C457 C456 1.363 . S
C457 C463 1.363 . S
C458 C459 1.363 . S
C458 C463 1.379 . S
C458 N465 1.356 . S
C459 C458 1.363 . S
C459 C462 1.363 . S
N460 C462 1.356 . S
N460 H472 0.976 1_455 S
N460 H473 0.985 1_455 S
N461 C463 1.356 . S
N461 H466 0.984 . S
N461 H467 0.985 . S
C462 C456 1.379 . S
C462 C459 1.363 . S
C462 N460 1.356 . S
C463 C457 1.363 . S
C463 C458 1.379 . S
C463 N461 1.356 . S
N464 C456 1.356 . S
N464 H470 0.984 . S
N464 H471 0.984 . S
N465 C458 1.356 . S
N465 H468 0.984 . S
N465 H469 0.985 . S
H466 N461 0.984 . S
H467 N461 0.985 . S
H468 N465 0.984 . S
H469 N465 0.985 . S
H470 N464 0.984 . S
H471 N464 0.984 . S
H472 N460 0.976 1_655 S
H473 N460 0.985 1_655 S
C474 C475 1.363 . S
C474 C480 1.379 . S
C474 N482 1.356 . S
C475 C474 1.363 . S
C475 C481 1.363 . S
C476 C477 1.363 . S
C476 C481 1.379 . S
C476 N483 1.356 . S
C477 C476 1.363 . S
C477 C480 1.363 . S
N478 C480 1.356 1_565 S
N478 H490 0.984 . S
N478 H491 0.985 . S
N479 C481 1.356 . S
N479 H484 0.984 . S
N479 H485 0.985 . S
C480 C474 1.379 . S
C480 C477 1.363 . S
C480 N478 1.356 1_545 S
C481 C475 1.363 . S
C481 C476 1.379 . S
C481 N479 1.356 . S
N482 C474 1.356 . S
N482 H488 0.984 . S
N482 H489 0.984 . S
N483 C476 1.356 . S
N483 H486 0.984 . S
N483 H487 0.985 . S
H484 N479 0.984 . S
H485 N479 0.985 . S
H486 N483 0.984 . S
H487 N483 0.985 . S
H488 N482 0.984 . S
H489 N482 0.984 . S
H490 N478 0.984 . S
H491 N478 0.985 . S
C492 C493 1.363 . S
C492 C498 1.379 . S
C492 N500 1.356 . S
C493 C492 1.363 . S
C493 C499 1.363 . S
C494 C495 1.363 . S
C494 C499 1.379 . S
C494 N501 1.356 . S
C495 C494 1.363 . S
C495 C498 1.363 . S
N496 C498 1.356 . S
N496 H508 0.984 . S
N496 H509 0.985 . S
N497 C499 1.356 . S
N497 H502 0.984 . S
N497 H503 0.985 . S
C498 C492 1.379 . S
C498 C495 1.363 . S
C498 N496 1.356 . S
C499 C493 1.363 . S
C499 C494 1.379 . S
C499 N497 1.356 . S
N500 C492 1.356 . S
N500 H506 0.984 . S
N500 H507 0.984 . S
N501 C494 1.356 . S
N501 H504 0.984 . S
N501 H505 0.985 . S
H502 N497 0.984 . S
H503 N497 0.985 . S
H504 N501 0.984 . S
H505 N501 0.985 . S
H506 N500 0.984 . S
H507 N500 0.984 . S
H508 N496 0.984 . S
H509 N496 0.985 . S
C510 C511 1.363 . S
C510 C516 1.379 . S
C510 N518 1.356 . S
C511 C510 1.363 . S
C511 C517 1.363 . S
C512 C513 1.363 . S
C512 C517 1.379 . S
C512 N519 1.356 1_655 S
C513 C512 1.363 . S
C513 C516 1.363 . S
N514 C516 1.356 1_554 S
N514 H526 0.984 . S
N514 H527 0.985 . S
N515 C517 1.356 . S
N515 H520 0.984 . S
N515 H521 0.985 . S
C516 C510 1.379 . S
C516 C513 1.363 . S
C516 N514 1.356 1_556 S
C517 C511 1.363 . S
C517 C512 1.379 . S
C517 N515 1.356 . S
N518 C510 1.356 . S
N518 H524 0.984 . S
N518 H525 0.984 . S
N519 C512 1.356 1_455 S
N519 H522 0.984 . S
N519 H523 0.985 . S
H520 N515 0.984 . S
H521 N515 0.985 . S
H522 N519 0.984 . S
H523 N519 0.985 . S
H524 N518 0.984 . S
H525 N518 0.984 . S
H526 N514 0.984 . S
H527 N514 0.985 . S
C528 C529 1.363 . S
C528 C534 1.379 . S
C528 N536 1.356 . S
C529 C528 1.363 . S
C529 C535 1.363 . S
C530 C531 1.363 . S
C530 C535 1.379 . S
C530 N537 1.356 . S
C531 C530 1.363 . S
C531 C534 1.363 . S
N532 C534 1.356 1_545 S
N532 H544 0.984 . S
N532 H545 0.985 . S
N533 C535 1.356 . S
N533 H538 0.984 . S
N533 H539 0.985 . S
C534 C528 1.379 . S
C534 C531 1.363 . S
C534 N532 1.356 1_565 S
C535 C529 1.363 . S
C535 C530 1.379 . S
C535 N533 1.356 . S
N536 C528 1.356 . S
N536 H542 0.984 . S
N536 H543 0.984 . S
N537 C530 1.356 . S
N537 H540 0.984 . S
N537 H541 0.985 . S
H538 N533 0.984 . S
H539 N533 0.985 . S
H540 N537 0.984 . S
H541 N537 0.985 . S
H542 N536 0.984 . S
H543 N536 0.984 . S
H544 N532 0.984 . S
H545 N532 0.985 . S
C546 C547 1.363 . S
C546 C552 1.379 . S
C546 N554 1.356 . S
C547 C546 1.363 . S
C547 C553 1.363 . S
C548 C549 1.363 . S
C548 C553 1.379 . S
C548 N555 1.356 . S
C549 C548 1.363 . S
C549 C552 1.363 . S
N550 C552 1.356 . S
N550 H562 0.984 . S
N550 H563 0.985 . S
N551 C553 1.356 . S
N551 H556 0.984 . S
N551 H557 0.985 . S
C552 C546 1.379 . S
C552 C549 1.363 . S
C552 N550 1.356 . S
C553 C547 1.363 . S
C553 C548 1.379 . S
C553 N551 1.356 . S
N554 C546 1.356 . S
N554 H560 0.984 . S
N554 H561 0.984 . S
N555 C548 1.356 . S
N555 H558 0.984 . S
N555 H559 0.985 . S
H556 N551 0.984 . S
H557 N551 0.985 . S
H558 N555 0.984 . S
H559 N555 0.985 . S
H560 N554 0.984 . S
H561 N554 0.984 . S
H562 N550 0.984 . S
H563 N550 0.985 . S
C564 C565 1.363 . S
C564 C570 1.379 . S
C564 N572 1.356 . S
C565 C564 1.363 . S
C565 C571 1.363 . S
C566 C567 1.363 . S
C566 C571 1.379 . S
C566 N573 1.356 . S
C567 C566 1.363 . S
C567 C570 1.363 . S
N568 C570 1.356 1_655 S
N568 H580 0.984 . S
N568 H581 0.985 . S
N569 C571 1.356 . S
N569 H574 0.984 . S
N569 H575 0.985 . S
C570 C564 1.379 . S
C570 C567 1.363 . S
C570 N568 1.356 1_455 S
C571 C565 1.363 . S
C571 C566 1.379 . S
C571 N569 1.356 . S
N572 C564 1.356 . S
N572 H578 0.984 . S
N572 H579 0.984 . S
N573 C566 1.356 . S
N573 H576 0.984 . S
N573 H577 0.985 . S
H574 N569 0.984 . S
H575 N569 0.985 . S
H576 N573 0.984 . S
H577 N573 0.985 . S
H578 N572 0.984 . S
H579 N572 0.984 . S
H580 N568 0.984 . S
H581 N568 0.985 . S
C582 C583 1.363 . S
C582 C588 1.379 . S
C582 N590 1.356 . S
C583 C582 1.363 . S
C583 C589 1.363 . S
C584 C585 1.363 . S
C584 C589 1.379 . S
C584 N591 1.356 . S
C585 C584 1.363 . S
C585 C588 1.363 . S
N586 C588 1.356 . S
N586 H598 0.984 . S
N586 H599 0.985 . S
N587 C589 1.356 1_565 S
N587 H592 0.984 . S
N587 H593 0.985 . S
C588 C582 1.379 . S
C588 C585 1.363 . S
C588 N586 1.356 . S
C589 C583 1.363 . S
C589 C584 1.379 . S
C589 N587 1.356 1_545 S
N590 C582 1.356 . S
N590 H596 0.984 . S
N590 H597 0.984 . S
N591 C584 1.356 . S
N591 H594 0.984 . S
N591 H595 0.985 . S
H592 N587 0.984 . S
H593 N587 0.985 . S
H594 N591 0.984 . S
H595 N591 0.985 . S
H596 N590 0.984 . S
H597 N590 0.984 . S
H598 N586 0.984 . S
H599 N586 0.985 . S
C169 C118 1.405 . S
C171 C6 1.405 . S
C187 C20 1.405 . S
C189 C132 1.405 . S
C205 C34 1.405 . S
C207 C146 1.405 . S
C223 C48 1.405 . S
C225 C160 1.405 . S
C241 C90 1.405 . S
C243 C62 1.405 . S
C259 C76 1.405 . S
C261 C104 1.405 . S
C277 C135 1.137 . S
C279 C9 1.137 . S
C295 C23 1.137 . S
C297 C149 1.137 . S
C313 C163 1.137 . S
C315 C37 1.137 . S
C331 C51 1.137 . S
C333 C93 1.137 . S
C349 C107 1.137 . S
C351 C65 1.137 . S
C367 C121 1.137 . S
C369 C79 1.137 . S
C385 C8 1.442 . S
C387 C77 1.459 . S
C403 C22 1.442 . S
C405 C7 1.458 . S
C421 C21 1.459 . S
C423 C36 1.442 . S
C439 C50 1.442 . S
C441 C35 1.459 . S
C457 C64 1.442 . S
C459 C49 1.458 . S
C475 C78 1.442 . S
C477 C63 1.458 . S
C493 C92 1.442 . S
C495 C105 1.459 . S
C511 C106 1.442 . S
C513 C119 1.458 . S
C529 C120 1.442 . S
C531 C133 1.459 . S
C547 C134 1.442 . S
C549 C147 1.459 . S
C565 C148 1.442 . S
C567 C161 1.458 . S
C583 C91 1.458 . S
C585 C162 1.442 . S
