# Generated by pormake.
# Topology yfc, (5)-cn, num edge types: 1
# Building blocks:
#     Node 0, Type 0, BuildingBlock: XOMCOT_clean_sbu_0, # of connection points: 5
#     Node 1, Type 0, BuildingBlock: XOMCOT_clean_sbu_0, # of connection points: 5
#     Node 2, Type 0, BuildingBlock: XOMCOT_clean_sbu_0, # of connection points: 5
#     Node 3, Type 0, BuildingBlock: XOMCOT_clean_sbu_0, # of connection points: 5
#     Node 4, Type 0, BuildingBlock: XOMCOT_clean_sbu_0, # of connection points: 5
#     Node 5, Type 0, BuildingBlock: XOMCOT_clean_sbu_0, # of connection points: 5
#     Node 6, Type 0, BuildingBlock: XOMCOT_clean_sbu_0, # of connection points: 5
#     Node 7, Type 0, BuildingBlock: XOMCOT_clean_sbu_0, # of connection points: 5
#     Node 8, Type 0, BuildingBlock: XOMCOT_clean_sbu_0, # of connection points: 5
#     Node 9, Type 0, BuildingBlock: XOMCOT_clean_sbu_0, # of connection points: 5
#     Node 10, Type 0, BuildingBlock: XOMCOT_clean_sbu_0, # of connection points: 5
#     Node 11, Type 0, BuildingBlock: XOMCOT_clean_sbu_0, # of connection points: 5
#     Node 12, Type 0, BuildingBlock: XOMCOT_clean_sbu_0, # of connection points: 5
#     Node 13, Type 0, BuildingBlock: XOMCOT_clean_sbu_0, # of connection points: 5
#     Node 14, Type 0, BuildingBlock: XOMCOT_clean_sbu_0, # of connection points: 5
#     Node 15, Type 0, BuildingBlock: XOMCOT_clean_sbu_0, # of connection points: 5
#     Edge 16, Type (0, 0), BuildingBlock: EZIPEK_clean_linker_0, # of connection points: 2
#     Edge 17, Type (0, 0), BuildingBlock: EZIPEK_clean_linker_0, # of connection points: 2
#     Edge 18, Type (0, 0), BuildingBlock: EZIPEK_clean_linker_0, # of connection points: 2
#     Edge 19, Type (0, 0), BuildingBlock: EZIPEK_clean_linker_0, # of connection points: 2
#     Edge 20, Type (0, 0), BuildingBlock: EZIPEK_clean_linker_0, # of connection points: 2
#     Edge 21, Type (0, 0), BuildingBlock: EZIPEK_clean_linker_0, # of connection points: 2
#     Edge 22, Type (0, 0), BuildingBlock: EZIPEK_clean_linker_0, # of connection points: 2
#     Edge 23, Type (0, 0), BuildingBlock: EZIPEK_clean_linker_0, # of connection points: 2
#     Edge 24, Type (0, 0), BuildingBlock: EZIPEK_clean_linker_0, # of connection points: 2
#     Edge 25, Type (0, 0), BuildingBlock: EZIPEK_clean_linker_0, # of connection points: 2
#     Edge 26, Type (0, 0), BuildingBlock: EZIPEK_clean_linker_0, # of connection points: 2
#     Edge 27, Type (0, 0), BuildingBlock: EZIPEK_clean_linker_0, # of connection points: 2
#     Edge 28, Type (0, 0), BuildingBlock: EZIPEK_clean_linker_0, # of connection points: 2
#     Edge 29, Type (0, 0), BuildingBlock: EZIPEK_clean_linker_0, # of connection points: 2
#     Edge 30, Type (0, 0), BuildingBlock: EZIPEK_clean_linker_0, # of connection points: 2
#     Edge 31, Type (0, 0), BuildingBlock: EZIPEK_clean_linker_0, # of connection points: 2
#     Edge 32, Type (0, 0), BuildingBlock: EZIPEK_clean_linker_0, # of connection points: 2
#     Edge 33, Type (0, 0), BuildingBlock: EZIPEK_clean_linker_0, # of connection points: 2
#     Edge 34, Type (0, 0), BuildingBlock: EZIPEK_clean_linker_0, # of connection points: 2
#     Edge 35, Type (0, 0), BuildingBlock: EZIPEK_clean_linker_0, # of connection points: 2
#     Edge 36, Type (0, 0), BuildingBlock: EZIPEK_clean_linker_0, # of connection points: 2
#     Edge 37, Type (0, 0), BuildingBlock: EZIPEK_clean_linker_0, # of connection points: 2
#     Edge 38, Type (0, 0), BuildingBlock: EZIPEK_clean_linker_0, # of connection points: 2
#     Edge 39, Type (0, 0), BuildingBlock: EZIPEK_clean_linker_0, # of connection points: 2
#     Edge 40, Type (0, 0), BuildingBlock: EZIPEK_clean_linker_0, # of connection points: 2
#     Edge 41, Type (0, 0), BuildingBlock: EZIPEK_clean_linker_0, # of connection points: 2
#     Edge 42, Type (0, 0), BuildingBlock: EZIPEK_clean_linker_0, # of connection points: 2
#     Edge 43, Type (0, 0), BuildingBlock: EZIPEK_clean_linker_0, # of connection points: 2
#     Edge 44, Type (0, 0), BuildingBlock: EZIPEK_clean_linker_0, # of connection points: 2
#     Edge 45, Type (0, 0), BuildingBlock: EZIPEK_clean_linker_0, # of connection points: 2
#     Edge 46, Type (0, 0), BuildingBlock: EZIPEK_clean_linker_0, # of connection points: 2
#     Edge 47, Type (0, 0), BuildingBlock: EZIPEK_clean_linker_0, # of connection points: 2
#     Edge 48, Type (0, 0), BuildingBlock: EZIPEK_clean_linker_0, # of connection points: 2
#     Edge 49, Type (0, 0), BuildingBlock: EZIPEK_clean_linker_0, # of connection points: 2
#     Edge 50, Type (0, 0), BuildingBlock: EZIPEK_clean_linker_0, # of connection points: 2
#     Edge 51, Type (0, 0), BuildingBlock: EZIPEK_clean_linker_0, # of connection points: 2
#     Edge 52, Type (0, 0), BuildingBlock: EZIPEK_clean_linker_0, # of connection points: 2
#     Edge 53, Type (0, 0), BuildingBlock: EZIPEK_clean_linker_0, # of connection points: 2
#     Edge 54, Type (0, 0), BuildingBlock: EZIPEK_clean_linker_0, # of connection points: 2
#     Edge 55, Type (0, 0), BuildingBlock: EZIPEK_clean_linker_0, # of connection points: 2
# Relax obj value: 0.559
# Max RMSD: 0.289
# Mean RMSD: 0.271
data_MOF--net-yfc--node1-XOMCOT_clean_sbu_0--edge1-EZIPEK_clean_linker_0
_symmetry_space_group_name_H-M    P1
_symmetry_Int_Tables_number       1
_symmetry_cell_setting            triclinic
loop_
_symmetry_equiv_pos_as_xyz
'x, y, z'
_cell_length_a     31.576893
_cell_length_b     31.470576
_cell_length_c     36.472117
_cell_angle_alpha  90.168367
_cell_angle_beta   89.924903
_cell_angle_gamma 90.129913
loop_
_atom_site_label
_atom_site_type_symbol
_atom_site_fract_x
_atom_site_fract_y
_atom_site_fract_z
_atom_type_partial_charge
Co0 Co 0.74375 0.03577 0.2268 0.0
C1 C 0.75214 0.12926 0.20795 0.0
C2 C 0.72725 0.11609 0.2615 0.0
C3 C 0.7278 0.15906 0.2571 0.0
N4 N 0.74203 0.09707 0.2308 0.0
N5 N 0.74336 0.16715 0.22362 0.0
H6 H 0.76516 0.12577 0.18075 0.0
H7 H 0.71669 0.09969 0.28577 0.0
C8 C 0.65285 0.06202 0.22427 0.0
O9 O 0.66242 0.08776 0.1972 0.0
N10 N 0.74313 0.97444 0.22569 0.0
C11 C 0.76525 0.94753 0.20419 0.0
C12 C 0.7487 0.90702 0.20849 0.0
C13 C 0.71402 0.95019 0.24292 0.0
N14 N 0.71642 0.90916 0.2327 0.0
C15 C 0.77472 0.04857 0.15423 0.0
C16 C 0.70706 0.01449 0.11622 0.0
C17 C 0.74328 0.02717 0.09661 0.0
C18 C 0.77733 0.04421 0.11623 0.0
C19 C 0.7061 0.01853 0.15468 0.0
N20 N 0.73934 0.03645 0.1732 0.0
H21 H 0.80185 0.06131 0.16847 0.0
H22 H 0.67919 0.00606 0.16949 0.0
H23 H 0.78992 0.95698 0.18529 0.0
H24 H 0.68998 0.9625 0.2612 0.0
O25 O 0.80505 0.0375 0.23065 0.0
O26 O 0.76197 0.03472 0.27762 0.0
O27 O 0.68042 0.0354 0.23534 0.0
C28 C 0.80083 0.03834 0.26604 0.0
H29 H 0.71809 0.18275 0.27697 0.0
H30 H 0.75806 0.87873 0.19365 0.0
H31 H 0.68026 1.00063 0.10202 0.0
H32 H 0.80598 0.05403 0.1022 0.0
Co33 Co 0.46823 0.74555 0.71725 0.0
C34 C 0.37357 0.75561 0.71183 0.0
C35 C 0.40098 0.73255 0.66188 0.0
C36 C 0.35806 0.73275 0.65774 0.0
N37 N 0.41124 0.74586 0.69611 0.0
N38 N 0.34085 0.7476 0.68886 0.0
H39 H 0.36982 0.76754 0.73949 0.0
H40 H 0.4226 0.72089 0.64131 0.0
C41 C 0.4382 0.6529 0.71689 0.0
O42 O 0.42438 0.65315 0.68306 0.0
N43 N 0.52541 0.74422 0.73699 0.0
C44 C 0.55138 0.77731 0.74454 0.0
C45 C 0.59015 0.76185 0.75571 0.0
C46 C 0.5491 0.7092 0.74314 0.0
N47 N 0.58843 0.71915 0.75465 0.0
C48 C 0.4893 0.77612 0.64714 0.0
C49 C 0.51952 0.70212 0.61607 0.0
C50 C 0.51363 0.73826 0.59398 0.0
C51 C 0.49952 0.77566 0.61022 0.0
C52 C 0.50839 0.70379 0.65351 0.0
N53 N 0.49201 0.74026 0.66813 0.0
H54 H 0.47608 0.80505 0.65787 0.0
H55 H 0.51139 0.67563 0.67015 0.0
H56 H 0.54327 0.81047 0.74164 0.0
H57 H 0.53846 0.67692 0.73875 0.0
O58 O 0.46725 0.80727 0.72038 0.0
O59 O 0.44681 0.76522 0.76443 0.0
O60 O 0.46262 0.68239 0.72873 0.0
C61 C 0.45302 0.80394 0.75353 0.0
H62 H 0.34059 0.72293 0.63362 0.0
H63 H 0.6176 0.78039 0.76359 0.0
H64 H 0.53063 0.67264 0.60413 0.0
H65 H 0.49458 0.80403 0.594 0.0
Co66 Co 0.76486 0.468 0.20841 0.0
C67 C 0.74697 0.37434 0.20524 0.0
C68 C 0.78195 0.39738 0.159 0.0
C69 C 0.78034 0.35412 0.15657 0.0
N70 N 0.76085 0.4105 0.18932 0.0
N71 N 0.75839 0.33989 0.1855 0.0
H72 H 0.73163 0.37259 0.23171 0.0
H73 H 0.80029 0.41736 0.141 0.0
C74 C 0.86416 0.47087 0.21733 0.0
O75 O 0.87094 0.51169 0.21277 0.0
N76 N 0.7703 0.52617 0.22583 0.0
C77 C 0.75058 0.55911 0.21015 0.0
C78 C 0.76441 0.59593 0.22617 0.0
C79 C 0.79547 0.54362 0.25189 0.0
N80 N 0.7918 0.58692 0.25367 0.0
C81 C 0.72924 0.48145 0.13882 0.0
C82 C 0.80004 0.50902 0.10135 0.0
C83 C 0.76265 0.5 0.08188 0.0
C84 C 0.72682 0.48738 0.10123 0.0
C85 C 0.80109 0.50295 0.13963 0.0
N86 N 0.76619 0.48781 0.15763 0.0
H87 H 0.70168 0.46864 0.15225 0.0
H88 H 0.83027 0.50824 0.15413 0.0
H89 H 0.72912 0.55676 0.18716 0.0
H90 H 0.81755 0.5247 0.26723 0.0
O91 O 0.70395 0.47139 0.21598 0.0
O92 O 0.74901 0.44819 0.25723 0.0
O93 O 0.82723 0.45496 0.21333 0.0
C94 C 0.70972 0.45435 0.24789 0.0
H95 H 0.79597 0.33437 0.13634 0.0
H96 H 0.75658 0.62718 0.21609 0.0
H97 H 0.82846 0.51868 0.08694 0.0
H98 H 0.69762 0.47979 0.08702 0.0
Co99 Co 0.03549 0.77658 0.71948 0.0
C100 C 0.12882 0.76027 0.71105 0.0
C101 C 0.11377 0.82658 0.71005 0.0
C102 C 0.15672 0.82254 0.70794 0.0
N103 N 0.09583 0.78776 0.71289 0.0
N104 N 0.16627 0.78098 0.70835 0.0
H105 H 0.12572 0.72603 0.71108 0.0
H106 H 0.09748 0.8563 0.70799 0.0
C107 C 0.02127 0.88013 0.72578 0.0
O108 O 0.99911 0.90211 0.70211 0.0
N109 N 0.97514 0.76792 0.72661 0.0
C110 C 0.94845 0.7422 0.70803 0.0
C111 C 0.90721 0.75531 0.71475 0.0
C112 C 0.94983 0.79563 0.74461 0.0
N113 N 0.90852 0.78916 0.73752 0.0
C114 C 0.05032 0.74229 0.64823 0.0
C115 C 0.99974 0.79706 0.60862 0.0
C116 C 0.02263 0.76552 0.58983 0.0
C117 C 0.04779 0.73778 0.6102 0.0
C118 C 1.00309 0.80048 0.64701 0.0
N119 N 0.02874 0.77361 0.66625 0.0
H120 H 0.0701 0.72053 0.66322 0.0
H121 H 0.98497 0.82456 0.66114 0.0
H122 H 0.95827 0.71809 0.68864 0.0
H123 H 0.9612 0.82251 0.76015 0.0
O124 O 0.04727 0.71666 0.72844 0.0
O125 O 0.045 0.76564 0.77136 0.0
O126 O 0.02339 0.83997 0.71967 0.0
C127 C 0.05254 0.72627 0.76273 0.0
H128 H 0.17932 0.84816 0.70442 0.0
H129 H 0.87885 0.74306 0.70183 0.0
H130 H 0.97985 0.81902 0.59371 0.0
H131 H 0.06588 0.71305 0.59667 0.0
Co132 Co 0.74352 0.47135 0.79497 0.0
C133 C 0.75468 0.37876 0.81496 0.0
C134 C 0.72563 0.38983 0.76267 0.0
C135 C 0.72791 0.34691 0.76781 0.0
N136 N 0.74195 0.41 0.7922 0.0
N137 N 0.74603 0.3402 0.80054 0.0
H138 H 0.77014 0.3833 0.84101 0.0
H139 H 0.71291 0.4055 0.73878 0.0
C140 C 0.65233 0.44541 0.79651 0.0
O141 O 0.66161 0.42013 0.82395 0.0
N142 N 0.74304 0.5327 0.79529 0.0
C143 C 0.76474 0.55945 0.81732 0.0
C144 C 0.74805 0.59982 0.81353 0.0
C145 C 0.71407 0.55701 0.77814 0.0
N146 N 0.71624 0.59788 0.78897 0.0
C147 C 0.77212 0.46081 0.86796 0.0
C148 C 0.70393 0.49578 0.90442 0.0
C149 C 0.74021 0.48447 0.92447 0.0
C150 C 0.77447 0.46703 0.9056 0.0
C151 C 0.7034 0.49023 0.86607 0.0
N152 N 0.73698 0.47189 0.84835 0.0
H153 H 0.79964 0.44781 0.8546 0.0
H154 H 0.67665 0.50189 0.85071 0.0
H155 H 0.78894 0.54984 0.83652 0.0
H156 H 0.68996 0.54476 0.7599 0.0
O157 O 0.8045 0.47035 0.79388 0.0
O158 O 0.76511 0.47104 0.74465 0.0
O159 O 0.68052 0.47104 0.78452 0.0
C160 C 0.80315 0.46878 0.75852 0.0
H161 H 0.71801 0.32237 0.74877 0.0
H162 H 0.7568 0.6278 0.82912 0.0
H163 H 0.67691 0.50982 0.91812 0.0
H164 H 0.80313 0.4582 0.91998 0.0
Co165 Co 0.03814 0.74053 0.29999 0.0
C166 C 0.13037 0.75338 0.32056 0.0
C167 C 0.12063 0.71869 0.27057 0.0
C168 C 0.16328 0.72268 0.27586 0.0
N169 N 0.09967 0.73753 0.29848 0.0
N170 N 0.16931 0.74436 0.30713 0.0
H171 H 0.12493 0.77099 0.34555 0.0
H172 H 0.10577 0.70321 0.24755 0.0
C173 C 0.06176 0.64814 0.30292 0.0
O174 O 0.08961 0.65634 0.32875 0.0
N175 N 0.9768 0.74155 0.2998 0.0
C176 C 0.95099 0.76189 0.32348 0.0
C177 C 0.9112 0.74361 0.32158 0.0
C178 C 0.95209 0.71207 0.2832 0.0
N179 N 0.91221 0.71207 0.29647 0.0
C180 C 0.04599 0.77666 0.3716 0.0
C181 C 0.02022 0.70724 0.41209 0.0
C182 C 0.02936 0.74547 0.43052 0.0
C183 C 0.04181 0.7805 0.40956 0.0
C184 C 0.02337 0.70513 0.37362 0.0
N185 N 0.03735 0.73931 0.35383 0.0
H186 H 0.05586 0.80434 0.35648 0.0
H187 H 0.01361 0.6763 0.35998 0.0
H188 H 0.96109 0.78583 0.34293 0.0
H189 H 0.96374 0.68852 0.26414 0.0
O190 O 0.04198 0.80182 0.29241 0.0
O191 O 0.03914 0.75434 0.24829 0.0
O192 O 0.03534 0.67673 0.29372 0.0
C193 C 0.04469 0.79385 0.25748 0.0
H194 H 0.18813 0.71067 0.25818 0.0
H195 H 0.88431 0.75111 0.33884 0.0
H196 H 0.00994 0.67954 0.42726 0.0
H197 H 0.04877 0.81071 0.42259 0.0
Co198 Co 0.77325 0.04219 0.81048 0.0
C199 C 0.75951 0.13617 0.82008 0.0
C200 C 0.80888 0.1109 0.85387 0.0
C201 C 0.80705 0.15386 0.85976 0.0
N202 N 0.77952 0.09969 0.82868 0.0
N203 N 0.77613 0.16944 0.83852 0.0
H204 H 0.73459 0.1391 0.80003 0.0
H205 H 0.83124 0.08945 0.86635 0.0
C206 C 0.87736 0.03656 0.80785 0.0
O207 O 0.8964 0.00581 0.8256 0.0
N208 N 0.76926 0.98342 0.79396 0.0
C209 C 0.73552 0.95715 0.79622 0.0
C210 C 0.74767 0.91671 0.78548 0.0
C211 C 0.8015 0.95831 0.78258 0.0
N212 N 0.78919 0.91781 0.77704 0.0
C213 C 0.73177 0.03347 0.87921 0.0
C214 C 0.7991 1.00261 0.91932 0.0
C215 C 0.76195 0.0148 0.93774 0.0
C216 C 0.7277 0.0291 0.91708 0.0
C217 C 0.80171 0.00695 0.88096 0.0
N218 N 0.76877 0.02383 0.86157 0.0
H219 H 0.70554 0.04698 0.86447 0.0
H220 H 0.83076 0.99845 0.86735 0.0
H221 H 0.70469 0.96622 0.80645 0.0
H222 H 0.83391 0.96834 0.77987 0.0
O223 O 0.71329 0.05191 0.80012 0.0
O224 O 0.76439 0.06211 0.76032 0.0
O225 O 0.83696 0.0388 0.80884 0.0
C226 C 0.72403 0.06431 0.76745 0.0
H227 H 0.82813 0.17262 0.87673 0.0
H228 H 0.72802 0.8885 0.78501 0.0
H229 H 0.82625 0.99137 0.93455 0.0
H230 H 0.69855 0.03874 0.93039 0.0
Co231 Co 0.4695 0.76472 0.31409 0.0
C232 C 0.37505 0.75973 0.31973 0.0
C233 C 0.40316 0.76982 0.37242 0.0
C234 C 0.36002 0.77065 0.37652 0.0
N235 N 0.41307 0.76404 0.33661 0.0
N236 N 0.34244 0.76376 0.34355 0.0
H237 H 0.37093 0.75465 0.29061 0.0
H238 H 0.42503 0.77436 0.39452 0.0
C239 C 0.43831 0.85587 0.31215 0.0
O240 O 0.4095 0.8499 0.3375 0.0
N241 N 0.52588 0.76536 0.29226 0.0
C242 C 0.55084 0.73176 0.2842 0.0
C243 C 0.58945 0.74638 0.27153 0.0
C244 C 0.55004 0.7999 0.28476 0.0
N245 N 0.5886 0.7891 0.27198 0.0
C246 C 0.50823 0.72902 0.37681 0.0
C247 C 0.5084 0.80064 0.42073 0.0
C248 C 0.51585 0.76071 0.43658 0.0
C249 C 0.51793 0.7251 0.41383 0.0
C250 C 0.49927 0.80331 0.38306 0.0
N251 N 0.49614 0.7671 0.36233 0.0
H252 H 0.50823 0.70055 0.36037 0.0
H253 H 0.49106 0.83378 0.3717 0.0
H254 H 0.54217 0.6988 0.28784 0.0
H255 H 0.54043 0.83246 0.28913 0.0
O256 O 0.46564 0.70347 0.30797 0.0
O257 O 0.44506 0.74936 0.26695 0.0
O258 O 0.46753 0.82854 0.30702 0.0
C259 C 0.44974 0.70959 0.27571 0.0
H260 H 0.34271 0.77531 0.40186 0.0
H261 H 0.6162 0.72727 0.26305 0.0
H262 H 0.50716 0.82896 0.43764 0.0
H263 H 0.52439 0.69396 0.42509 0.0
Co264 Co 0.29477 0.95646 0.85561 0.0
C265 C 0.32684 0.02931 0.81221 0.0
C266 C 0.33424 0.03976 0.86996 0.0
C267 C 0.35527 0.07168 0.85146 0.0
N268 N 0.31654 0.01302 0.84535 0.0
N269 N 0.35079 0.06477 0.81524 0.0
H270 H 0.31959 0.01417 0.78637 0.0
H271 H 0.33486 0.03473 0.89925 0.0
C272 C 0.2558 0.96003 0.93308 0.0
O273 O 0.23157 0.92712 0.92597 0.0
N274 N 0.27419 0.8994 0.8644 0.0
C275 C 0.25098 0.87646 0.84038 0.0
C276 C 0.24744 0.83563 0.85276 0.0
C277 C 0.28604 0.8714 0.89048 0.0
N278 N 0.26937 0.83257 0.88418 0.0
C279 C 0.23591 0.96798 0.79704 0.0
C280 C 0.16371 0.96837 0.83973 0.0
C281 C 0.16036 0.9579 0.80258 0.0
C282 C 0.19657 0.96034 0.78065 0.0
C283 C 0.20371 0.97554 0.85501 0.0
N284 N 0.23963 0.97146 0.83434 0.0
H285 H 0.26365 0.96607 0.77991 0.0
H286 H 0.20514 0.98191 0.88367 0.0
H287 H 0.23916 0.88765 0.81448 0.0
H288 H 0.30698 0.87884 0.91297 0.0
O289 O 0.32191 0.93417 0.81176 0.0
O290 O 0.35212 0.93743 0.86581 0.0
O291 O 0.27941 0.9763 0.90796 0.0
C292 C 0.35507 0.92616 0.83156 0.0
H293 H 0.375 0.09615 0.86353 0.0
H294 H 0.23093 0.80971 0.83933 0.0
H295 H 0.13597 0.96822 0.85725 0.0
H296 H 0.19492 0.95335 0.75159 0.0
Co297 Co 0.5487 0.30532 0.35752 0.0
C298 C 0.47689 0.34142 0.31556 0.0
C299 C 0.46121 0.33857 0.37248 0.0
C300 C 0.42752 0.35608 0.35387 0.0
N301 N 0.49236 0.32904 0.34854 0.0
N302 N 0.43776 0.35845 0.3181 0.0
H303 H 0.49389 0.33871 0.29001 0.0
H304 H 0.4628 0.33469 0.40152 0.0
C305 C 0.51002 0.27379 0.43291 0.0
O306 O 0.475 0.25802 0.41899 0.0
N307 N 0.60414 0.28149 0.36418 0.0
C308 C 0.62559 0.2594 0.33846 0.0
C309 C 0.66491 0.24996 0.35173 0.0
C310 C 0.63082 0.28563 0.3928 0.0
N311 N 0.66815 0.26657 0.38562 0.0
C312 C 0.52973 0.24684 0.30073 0.0
C313 C 0.5363 0.17394 0.34188 0.0
C314 C 0.54579 0.17187 0.30434 0.0
C315 C 0.53919 0.20843 0.28335 0.0
C316 C 0.53063 0.21372 0.35851 0.0
N317 N 0.53025 0.25011 0.33812 0.0
H318 H 0.52829 0.27484 0.28392 0.0
H319 H 0.53088 0.21482 0.3877 0.0
H320 H 0.61428 0.25218 0.31125 0.0
H321 H 0.62403 0.30384 0.41732 0.0
O322 O 0.5693 0.33048 0.31207 0.0
O323 O 0.57206 0.36233 0.3654 0.0
O324 O 0.53755 0.29181 0.41213 0.0
C325 C 0.58179 0.36335 0.33078 0.0
H326 H 0.39858 0.36819 0.36589 0.0
H327 H 0.69014 0.23401 0.33702 0.0
H328 H 0.53912 0.14594 0.35891 0.0
H329 H 0.54467 0.20821 0.25402 0.0
Co330 Co 0.20286 0.55612 0.85866 0.0
C331 C 0.16785 0.48443 0.81507 0.0
C332 C 0.14157 0.48627 0.86934 0.0
C333 C 0.12034 0.45568 0.84915 0.0
N334 N 0.1712 0.50451 0.8479 0.0
N335 N 0.13674 0.45482 0.81501 0.0
H336 H 0.18555 0.49301 0.79087 0.0
H337 H 0.13433 0.49612 0.89707 0.0
C338 C 0.25067 0.54005 0.93152 0.0
O339 O 0.28325 0.56252 0.92032 0.0
N340 N 0.23413 0.60836 0.86715 0.0
C341 C 0.25127 0.63169 0.83993 0.0
C342 C 0.26586 0.66914 0.85396 0.0
C343 C 0.23764 0.63293 0.89752 0.0
N344 N 0.2575 0.67003 0.89013 0.0
C345 C 0.25502 0.54343 0.79586 0.0
C346 C 0.3279 0.52257 0.83316 0.0
C347 C 0.33116 0.54241 0.79887 0.0
C348 C 0.29414 0.5489 0.77884 0.0
C349 C 0.28763 0.51767 0.84922 0.0
N350 N 0.25241 0.53336 0.83225 0.0
H351 H 0.2274 0.55329 0.78086 0.0
H352 H 0.28555 0.50381 0.87592 0.0
H353 H 0.25096 0.62363 0.81121 0.0
H354 H 0.22554 0.62406 0.92404 0.0
O355 O 0.17473 0.58442 0.81778 0.0
O356 O 0.15073 0.58504 0.8744 0.0
O357 O 0.21966 0.5319 0.9095 0.0
C358 C 0.14651 0.59806 0.84077 0.0
H359 H 0.09375 0.4367 0.85832 0.0
H360 H 0.27999 0.69483 0.83843 0.0
H361 H 0.35603 0.51514 0.84881 0.0
H362 H 0.29536 0.56281 0.75171 0.0
Co363 Co 0.95227 0.21009 0.35811 0.0
C364 C 0.0216 0.16563 0.3182 0.0
C365 C 0.04512 0.19563 0.36683 0.0
C366 C 0.07863 0.17679 0.34857 0.0
N367 N 0.00909 0.18831 0.34791 0.0
N368 N 0.06359 0.1575 0.31821 0.0
H369 H 1.0011 0.15735 0.29565 0.0
H370 H 0.04744 0.2142 0.39171 0.0
C371 C 0.95892 0.25132 0.43679 0.0
O372 O 0.9261 0.27616 0.43267 0.0
N373 N 0.89551 0.23159 0.36551 0.0
C374 C 0.87306 0.2482 0.33763 0.0
C375 C 0.83338 0.25795 0.34972 0.0
C376 C 0.86842 0.23039 0.39423 0.0
N377 N 0.83051 0.2472 0.38534 0.0
C378 C 0.97978 0.26438 0.29884 0.0
C379 C 0.94734 0.33831 0.32836 0.0
C380 C 0.95616 0.33739 0.29071 0.0
C381 C 0.97611 0.30082 0.27677 0.0
C382 C 0.95443 0.30234 0.34993 0.0
N383 N 0.96717 0.2647 0.33476 0.0
H384 H 0.98913 0.23503 0.28596 0.0
H385 H 0.94457 0.304 0.37774 0.0
H386 H 0.88495 0.25285 0.31011 0.0
H387 H 0.87612 0.21774 0.42079 0.0
O388 O 0.92958 0.17968 0.3153 0.0
O389 O 0.93256 0.15307 0.37102 0.0
O390 O 0.97254 0.22769 0.41027 0.0
C391 C 0.9205 0.14827 0.33715 0.0
H392 H 0.11157 0.1775 0.35674 0.0
H393 H 0.80842 0.27241 0.33372 0.0
H394 H 0.93261 0.36589 0.34078 0.0
H395 H 0.98475 0.29892 0.24806 0.0
Co396 Co 0.29776 0.55472 0.16247 0.0
C397 C 0.32234 0.47294 0.19682 0.0
C398 C 0.36293 0.48999 0.15216 0.0
C399 C 0.38287 0.45946 0.17293 0.0
N400 N 0.32536 0.49958 0.16767 0.0
N401 N 0.35766 0.44923 0.20142 0.0
H402 H 0.29666 0.47319 0.21629 0.0
H403 H 0.37708 0.50733 0.12971 0.0
C404 C 0.27168 0.51169 0.08926 0.0
O405 O 0.26867 0.47406 0.10455 0.0
N406 N 0.27104 0.60938 0.15843 0.0
C407 C 0.25728 0.63329 0.18671 0.0
C408 C 0.24503 0.67207 0.17349 0.0
C409 C 0.26645 0.63362 0.12827 0.0
N410 N 0.25113 0.67232 0.13691 0.0
C411 C 0.24162 0.53544 0.22054 0.0
C412 C 0.16836 0.53472 0.17963 0.0
C413 C 0.16607 0.54496 0.21706 0.0
C414 C 0.20298 0.54217 0.23789 0.0
C415 C 0.20818 0.52974 0.16301 0.0
N416 N 0.24455 0.5332 0.18314 0.0
H417 H 0.26957 0.53699 0.23738 0.0
H418 H 0.20919 0.52662 0.13383 0.0
H419 H 0.25763 0.62387 0.21517 0.0
H420 H 0.27522 0.62374 0.10088 0.0
O421 O 0.32418 0.57333 0.20794 0.0
O422 O 0.35254 0.58228 0.15337 0.0
O423 O 0.28195 0.54397 0.10877 0.0
C424 C 0.35458 0.58932 0.18851 0.0
H425 H 0.41486 0.44799 0.16902 0.0
H426 H 0.23363 0.69868 0.18959 0.0
H427 H 0.14014 0.53518 0.16279 0.0
H428 H 0.20257 0.54873 0.26708 0.0
Co429 Co 0.95124 0.2984 0.66477 0.0
C430 C 0.02527 0.33317 0.70432 0.0
C431 C 0.03451 0.33713 0.64626 0.0
C432 C 0.06744 0.35815 0.66357 0.0
N433 N 0.00816 0.32106 0.67186 0.0
N434 N 0.06118 0.35589 0.70007 0.0
H435 H 0.01015 0.32893 0.73058 0.0
H436 H 0.02849 0.33697 0.61714 0.0
C437 C 0.99149 0.26046 0.59368 0.0
O438 O 0.0243 0.24455 0.61093 0.0
N439 N 0.89483 0.27615 0.65956 0.0
C440 C 0.87403 0.25368 0.68541 0.0
C441 C 0.83342 0.24657 0.67384 0.0
C442 C 0.86653 0.28298 0.63267 0.0
N443 N 0.8289 0.26505 0.64092 0.0
C444 C 0.97262 0.24205 0.72358 0.0
C445 C 0.95886 0.16757 0.68562 0.0
C446 C 0.96398 0.16455 0.72402 0.0
C447 C 0.97049 0.20351 0.74261 0.0
C448 C 0.9614 0.20674 0.66767 0.0
N449 N 0.96739 0.24375 0.6865 0.0
H450 H 0.97359 0.27084 0.73951 0.0
H451 H 0.95388 0.20724 0.6391 0.0
H452 H 0.88683 0.24479 0.7117 0.0
H453 H 0.87247 0.30253 0.60884 0.0
O454 O 0.93146 0.32876 0.70844 0.0
O455 O 0.93137 0.35491 0.65266 0.0
O456 O 0.96287 0.28053 0.61159 0.0
C457 C 0.92111 0.36 0.6868 0.0
H458 H 0.09199 0.37674 0.65042 0.0
H459 H 0.80829 0.23145 0.68931 0.0
H460 H 0.94933 0.14112 0.66883 0.0
H461 H 0.97034 0.20564 0.77215 0.0
Co462 Co 0.20993 0.95546 0.16296 0.0
C463 C 0.16042 0.02082 0.20461 0.0
C464 C 0.19467 0.04885 0.16022 0.0
C465 C 0.17621 0.08083 0.1804 0.0
N466 N 0.1852 0.01088 0.1753 0.0
N467 N 0.15441 0.06325 0.2082 0.0
H468 H 0.14843 0.99795 0.22409 0.0
H469 H 0.21441 0.05392 0.13677 0.0
C470 C 0.24478 0.99493 0.0894 0.0
O471 O 0.27086 0.02231 0.10459 0.0
N472 N 0.23466 0.90113 0.15178 0.0
C473 C 0.26231 0.88011 0.17311 0.0
C474 C 0.26823 0.84034 0.15888 0.0
C475 C 0.2244 0.87405 0.12447 0.0
N476 N 0.24403 0.83634 0.12868 0.0
C477 C 0.2673 0.97968 0.21844 0.0
C478 C 0.34079 0.96349 0.17991 0.0
C479 C 0.34126 0.9592 0.21811 0.0
C480 C 0.30461 0.97065 0.23752 0.0
C481 C 0.30198 0.96856 0.16199 0.0
N482 N 0.26521 0.97439 0.1813 0.0
H483 H 0.23866 0.98472 0.23404 0.0
H484 H 0.30145 0.96147 0.13334 0.0
H485 H 0.27437 0.89143 0.19906 0.0
H486 H 0.20224 0.88143 0.10282 0.0
O487 O 0.18799 0.93098 0.20855 0.0
O488 O 0.15357 0.93054 0.15607 0.0
O489 O 0.22043 0.97129 0.10894 0.0
C490 C 0.15487 0.91866 0.19021 0.0
H491 H 0.17893 0.11461 0.1753 0.0
H492 H 0.28685 0.81518 0.17102 0.0
H493 H 0.3688 0.95618 0.16392 0.0
H494 H 0.30374 0.96913 0.26718 0.0
Co495 Co 0.55231 0.21069 0.66474 0.0
C496 C 0.48538 0.16497 0.70608 0.0
C497 C 0.47221 0.16514 0.64835 0.0
C498 C 0.43969 0.14418 0.66614 0.0
N499 N 0.50086 0.17824 0.67342 0.0
N500 N 0.44816 0.14422 0.70229 0.0
H501 H 0.50098 0.17004 0.73211 0.0
H502 H 0.47462 0.1702 0.61913 0.0
C503 C 0.53981 0.25795 0.59097 0.0
O504 O 0.56162 0.29078 0.60284 0.0
N505 N 0.60364 0.24291 0.65754 0.0
C506 C 0.62452 0.26403 0.68407 0.0
C507 C 0.66163 0.27909 0.67002 0.0
C508 C 0.62921 0.24423 0.62789 0.0
N509 N 0.66465 0.2671 0.63452 0.0
C510 C 0.53395 0.26217 0.72682 0.0
C511 C 0.51985 0.33592 0.68829 0.0
C512 C 0.53815 0.33855 0.72328 0.0
C513 C 0.54093 0.30127 0.74389 0.0
C514 C 0.51412 0.29574 0.67212 0.0
N515 N 0.5271 0.25993 0.68986 0.0
H516 H 0.54047 0.23398 0.74247 0.0
H517 H 0.50165 0.29392 0.64497 0.0
H518 H 0.615 0.26636 0.71237 0.0
H519 H 0.62163 0.22857 0.60251 0.0
O520 O 0.57911 0.18466 0.70727 0.0
O521 O 0.58346 0.15868 0.65139 0.0
O522 O 0.53077 0.22692 0.61279 0.0
C523 C 0.59493 0.15616 0.68565 0.0
H524 H 0.41217 0.12968 0.65357 0.0
H525 H 0.68575 0.29595 0.68537 0.0
H526 H 0.51411 0.36435 0.6724 0.0
H527 H 0.55265 0.30195 0.77179 0.0
C528 C 0.65383 0.86564 0.21614 0.0
C529 C 0.68592 0.87657 0.24168 0.0
C530 C 0.65274 0.83046 0.28777 0.0
C531 C 0.62219 0.81774 0.26154 0.0
N532 N 0.59575 0.81832 0.19996 0.0
N533 N 0.71925 0.86704 0.30007 0.0
C534 C 0.62349 0.83387 0.2254 0.0
C535 C 0.68627 0.85822 0.27708 0.0
N536 N 0.65125 0.88729 0.18382 0.0
N537 N 0.64877 0.81668 0.32307 0.0
H538 H 0.74397 0.88736 0.29263 0.0
H539 H 0.72378 0.85228 0.32524 0.0
H540 H 0.62488 0.79575 0.3312 0.0
H541 H 0.66731 0.82771 0.34467 0.0
H542 H 0.62625 0.88407 0.16546 0.0
H543 H 0.67267 0.91109 0.17655 0.0
H544 H 0.59744 0.82533 0.17213 0.0
H545 H 0.5726 0.79584 0.20647 0.0
C546 C 0.64979 0.63499 0.80486 0.0
C547 C 0.68521 0.63017 0.78133 0.0
C548 C 0.65586 0.68326 0.73937 0.0
C549 C 0.62168 0.68978 0.76394 0.0
N550 N 0.58836 0.67702 0.82203 0.0
N551 N 0.72516 0.65178 0.72868 0.0
C552 C 0.61929 0.66701 0.79728 0.0
C553 C 0.68918 0.65507 0.74928 0.0
N554 N 0.64485 0.60798 0.83379 0.0
N555 N 0.65535 0.70286 0.70602 0.0
H556 H 0.74947 0.63074 0.7353 0.0
H557 H 0.73226 0.67155 0.70669 0.0
H558 H 0.63108 0.72334 0.69816 0.0
H559 H 0.67714 0.69679 0.68525 0.0
H560 H 0.6176 0.60653 0.84983 0.0
H561 H 0.66716 0.58484 0.84037 0.0
H562 H 0.58688 0.66462 0.84842 0.0
H563 H 0.56577 0.70044 0.81705 0.0
C564 C 0.88536 0.63767 0.30151 0.0
C565 C 0.87958 0.68049 0.29007 0.0
C566 C 0.80738 0.66259 0.27118 0.0
C567 C 0.81666 0.61858 0.27426 0.0
N568 N 0.85084 0.57098 0.31601 0.0
N569 N 0.83514 0.73351 0.26255 0.0
C570 C 0.85224 0.60732 0.29583 0.0
C571 C 0.84041 0.69296 0.27482 0.0
N572 N 0.92205 0.62618 0.31849 0.0
N573 N 0.76626 0.67555 0.26947 0.0
H574 H 0.85902 0.7564 0.26416 0.0
H575 H 0.80848 0.74306 0.24791 0.0
H576 H 0.74123 0.65416 0.27279 0.0
H577 H 0.75732 0.70741 0.27019 0.0
H578 H 0.93053 0.59466 0.32298 0.0
H579 H 0.9448 0.64818 0.32687 0.0
H580 H 0.8746 0.56163 0.334 0.0
H581 H 0.8225 0.55441 0.31966 0.0
C582 C 0.86147 0.84887 0.72 0.0
C583 C 0.87493 0.8187 0.74636 0.0
C584 C 0.83168 0.85439 0.79333 0.0
C585 C 0.81628 0.88285 0.76644 0.0
N586 N 0.81141 0.90427 0.70359 0.0
N587 N 0.86983 0.78908 0.80664 0.0
C588 C 0.82967 0.87908 0.72953 0.0
C589 C 0.85895 0.8204 0.78264 0.0
N590 N 0.88076 0.84997 0.68649 0.0
N591 N 0.82163 0.86119 0.82929 0.0
H592 H 0.88998 0.76422 0.79927 0.0
H593 H 0.85667 0.7859 0.83266 0.0
H594 H 0.80188 0.88589 0.83772 0.0
H595 H 0.83501 0.84443 0.85091 0.0
H596 H 0.87584 0.87391 0.66734 0.0
H597 H 0.90429 0.82854 0.6788 0.0
H598 H 0.81649 0.90066 0.67555 0.0
H599 H 0.78839 0.92682 0.71011 0.0
C600 C 0.41301 0.06561 0.77393 0.0
C601 C 0.37512 0.08483 0.78653 0.0
C602 C 0.38736 0.1452 0.74529 0.0
C603 C 0.42337 0.12425 0.73074 0.0
N604 N 0.46621 0.0616 0.72601 0.0
N605 N 0.32354 0.1404 0.78266 0.0
C606 C 0.43502 0.08359 0.74367 0.0
C607 C 0.36153 0.12404 0.77173 0.0
N608 N 0.42867 0.03101 0.79183 0.0
N609 N 0.37863 0.18565 0.73424 0.0
H610 H 0.30462 0.12551 0.80231 0.0
H611 H 0.30955 0.16692 0.77081 0.0
H612 H 0.39699 0.2014 0.7147 0.0
H613 H 0.35516 0.20452 0.74591 0.0
H614 H 0.45828 0.01793 0.78635 0.0
H615 H 0.41336 0.01732 0.81425 0.0
H616 H 0.47363 0.03009 0.73172 0.0
H617 H 0.48209 0.07384 0.70327 0.0
C618 C 0.4015 0.35816 0.25752 0.0
C619 C 0.41447 0.38023 0.28954 0.0
C620 C 0.37824 0.44427 0.26751 0.0
C621 C 0.37075 0.42435 0.23301 0.0
N622 N 0.375 0.36203 0.19502 0.0
N623 N 0.42293 0.44689 0.32121 0.0
C624 C 0.38237 0.38108 0.22807 0.0
C625 C 0.40454 0.42386 0.29367 0.0
N626 N 0.4063 0.31508 0.25587 0.0
N627 N 0.3605 0.48261 0.27578 0.0
H628 H 0.44476 0.43396 0.33941 0.0
H629 H 0.42049 0.47983 0.3233 0.0
H630 H 0.34251 0.5003 0.25766 0.0
H631 H 0.36076 0.49543 0.30217 0.0
H632 H 0.39444 0.29623 0.23475 0.0
H633 H 0.41924 0.29765 0.27738 0.0
H634 H 0.38704 0.33242 0.18772 0.0
H635 H 0.35783 0.37685 0.17427 0.0
C636 C 0.10756 0.36073 0.75484 0.0
C637 C 0.08201 0.38094 0.72814 0.0
C638 C 0.09711 0.45044 0.75617 0.0
C639 C 0.12074 0.43025 0.78423 0.0
N640 N 0.15193 0.36742 0.8094 0.0
N641 N 0.04552 0.44329 0.70733 0.0
C642 C 0.12674 0.38554 0.78336 0.0
C643 C 0.07519 0.4254 0.72972 0.0
N644 N 0.11296 0.31772 0.7527 0.0
N645 N 0.09609 0.49372 0.75443 0.0
H646 H 0.02795 0.42575 0.68841 0.0
H647 H 0.03525 0.47457 0.70981 0.0
H648 H 0.11102 0.51312 0.77353 0.0
H649 H 0.08365 0.5105 0.73239 0.0
H650 H 0.12994 0.2997 0.7714 0.0
H651 H 0.10001 0.29952 0.73152 0.0
H652 H 0.15854 0.33517 0.81113 0.0
H653 H 0.16751 0.38539 0.82935 0.0
C654 C 0.0835 0.14464 0.25314 0.0
C655 C 0.08728 0.13397 0.29072 0.0
C656 C 0.13956 0.07945 0.27402 0.0
C657 C 0.13095 0.08602 0.23628 0.0
N658 N 0.08651 0.11871 0.19074 0.0
N659 N 0.11217 0.0841 0.33588 0.0
C660 C 0.10049 0.11689 0.22607 0.0
C661 C 0.11346 0.09932 0.30093 0.0
N662 N 0.06546 0.18225 0.24329 0.0
N663 N 0.17383 0.05602 0.28431 0.0
H664 H 0.09172 0.09621 0.35576 0.0
H665 H 0.12789 0.05654 0.34383 0.0
H666 H 0.19522 0.04338 0.26547 0.0
H667 H 0.18359 0.0534 0.3115 0.0
H668 H 0.06504 0.19316 0.21634 0.0
H669 H 0.05567 0.20473 0.26254 0.0
H670 H 0.06172 0.13831 0.18256 0.0
H671 H 0.0963 0.09716 0.1707 0.0
C672 C 0.62343 0.08064 0.28611 0.0
C673 C 0.61606 0.07342 0.24834 0.0
C674 C 0.55159 0.11666 0.25384 0.0
C675 C 0.56697 0.13388 0.28744 0.0
N676 N 0.62467 0.13302 0.33252 0.0
N677 N 0.56912 0.08025 0.19694 0.0
C678 C 0.60426 0.11592 0.30308 0.0
C679 C 0.57851 0.0898 0.23251 0.0
N680 N 0.65037 0.05567 0.30568 0.0
N681 N 0.51125 0.12532 0.24276 0.0
H682 H 0.58665 0.05809 0.18194 0.0
H683 H 0.54506 0.09512 0.18231 0.0
H684 H 0.4904 0.14334 0.25864 0.0
H685 H 0.49723 0.11112 0.21996 0.0
H686 H 0.65724 0.06175 0.33321 0.0
H687 H 0.6615 0.02665 0.29591 0.0
H688 H 0.61672 0.16168 0.3451 0.0
H689 H 0.61672 0.16168 0.3451 0.0
C690 C 0.3931 0.5492 0.75555 0.0
C691 C 0.37032 0.56472 0.78633 0.0
C692 C 0.39804 0.63626 0.77532 0.0
C693 C 0.4195 0.62162 0.74333 0.0
N694 N 0.44685 0.56233 0.70895 0.0
N695 N 0.35957 0.62217 0.82999 0.0
C696 C 0.42 0.57737 0.73533 0.0
C697 C 0.37655 0.60723 0.79812 0.0
N698 N 0.38756 0.50791 0.745 0.0
N699 N 0.39528 0.67856 0.78325 0.0
H700 H 0.34333 0.60355 0.84899 0.0
H701 H 0.34333 0.60355 0.84899 0.0
H702 H 0.40486 0.70196 0.76522 0.0
H703 H 0.38002 0.69032 0.80658 0.0
H704 H 0.39913 0.49534 0.72054 0.0
H705 H 0.36986 0.48648 0.7606 0.0
H706 H 0.45157 0.53016 0.70374 0.0
H707 H 0.46735 0.58218 0.69443 0.0
C708 C 0.91508 0.36512 0.23513 0.0
C709 C 0.94088 0.37318 0.26647 0.0
C710 C 0.92311 0.44932 0.26191 0.0
C711 C 0.89829 0.44109 0.23008 0.0
N712 N 0.8858 0.3941 0.17914 0.0
N713 N 0.98108 0.42549 0.30022 0.0
C714 C 0.8997 0.39993 0.21421 0.0
C715 C 0.94874 0.41618 0.2767 0.0
N716 N 0.90215 0.32482 0.22664 0.0
N717 N 0.92058 0.48751 0.27964 0.0
H718 H 1.00137 0.40218 0.31034 0.0
H719 H 0.99055 0.45651 0.30614 0.0
H720 H 0.90238 0.51281 0.27048 0.0
H721 H 0.93428 0.49292 0.30522 0.0
H722 H 0.8815 0.31809 0.20514 0.0
H723 H 0.90747 0.29867 0.24336 0.0
H724 H 0.88911 0.36547 0.165 0.0
H725 H 0.87576 0.41946 0.16296 0.0
C726 C 0.10891 0.89736 0.79524 0.0
C727 C 0.12016 0.94018 0.7876 0.0
C728 C 0.05479 0.94797 0.75193 0.0
C729 C 0.04836 0.9032 0.75378 0.0
N730 N 0.05222 0.84596 0.7964 0.0
N731 N 0.10337 0.00726 0.75958 0.0
C732 C 0.07063 0.88058 0.78091 0.0
C733 C 0.0928 0.9659 0.76636 0.0
N734 N 0.13537 0.87209 0.81514 0.0
N735 N 0.02268 0.97376 0.74057 0.0
H736 H 0.12975 0.02199 0.77127 0.0
H737 H 0.08748 0.02612 0.74066 0.0
H738 H 0.99189 0.9626 0.7368 0.0
H739 H 0.02435 0.00681 0.74096 0.0
H740 H 0.13094 0.83944 0.81771 0.0
H741 H 0.1632 0.88317 0.8271 0.0
H742 H 0.06467 0.83032 0.8191 0.0
H743 H 0.02129 0.83737 0.78985 0.0
C744 C 0.54722 0.39467 0.77209 0.0
C745 C 0.55915 0.37804 0.73735 0.0
C746 C 0.61801 0.42892 0.73589 0.0
C747 C 0.61372 0.43542 0.77415 0.0
N748 N 0.56966 0.4311 0.82772 0.0
N749 N 0.6102 0.37762 0.6874 0.0
C750 C 0.57644 0.42074 0.79184 0.0
C751 C 0.59525 0.3952 0.71915 0.0
N752 N 0.50814 0.3853 0.78597 0.0
N753 N 0.64332 0.45478 0.71535 0.0
H754 H 0.59604 0.35201 0.67413 0.0
H755 H 0.63931 0.38617 0.67605 0.0
H756 H 0.65679 0.4825 0.72577 0.0
H757 H 0.64536 0.45231 0.68689 0.0
H758 H 0.49609 0.39877 0.8099 0.0
H759 H 0.48624 0.36687 0.77151 0.0
H760 H 0.5459 0.41759 0.84374 0.0
H761 H 0.58887 0.45293 0.84153 0.0
C762 C 0.11159 0.54687 0.26769 0.0
C763 C 0.1274 0.56381 0.23423 0.0
C764 C 0.07545 0.62082 0.2394 0.0
C765 C 0.07045 0.61201 0.2772 0.0
N766 N 0.07813 0.56214 0.32637 0.0
N767 N 0.12754 0.6231 0.19151 0.0
C768 C 0.08639 0.57318 0.29095 0.0
C769 C 0.10974 0.6021 0.22045 0.0
N770 N 0.1209 0.506 0.27707 0.0
N771 N 0.04827 0.64722 0.22157 0.0
H772 H 0.15508 0.6133 0.17832 0.0
H773 H 0.11746 0.6532 0.18345 0.0
H774 H 0.02039 0.65803 0.23354 0.0
H775 H 0.05033 0.65285 0.19345 0.0
H776 H 0.10787 0.49082 0.29979 0.0
H777 H 0.13853 0.48611 0.25995 0.0
H778 H 0.09261 0.53668 0.3395 0.0
H779 H 0.05732 0.57965 0.34276 0.0
C780 C 0.93679 0.08743 0.72806 0.0
C781 C 0.955 0.1235 0.74516 0.0
C782 C 0.93174 0.09523 0.80463 0.0
C783 C 0.90359 0.067 0.78619 0.0
N784 N 0.88041 0.03585 0.72882 0.0
N785 N 0.99501 0.13873 0.79946 0.0
C786 C 0.90636 0.06299 0.74744 0.0
C787 C 0.95995 0.12111 0.78373 0.0
N788 N 0.95437 0.07174 0.69671 0.0
N789 N 0.93067 0.09845 0.84196 0.0
H790 H 0.01877 0.15268 0.78354 0.0
H791 H 1.00301 0.13473 0.82693 0.0
H792 H 0.91079 0.0799 0.85826 0.0
H793 H 0.94723 0.12172 0.85644 0.0
H794 H 0.94497 0.04301 0.68489 0.0
H795 H 0.98259 0.08423 0.68628 0.0
H796 H 0.87959 0.03466 0.70024 0.0
H797 H 0.85741 0.01752 0.74168 0.0
C798 C 0.39123 0.89634 0.22673 0.0
C799 C 0.37715 0.93763 0.23758 0.0
C800 C 0.41758 0.93047 0.29475 0.0
C801 C 0.4302 0.88911 0.28391 0.0
N802 N 0.44694 0.84446 0.23179 0.0
N803 N 0.38986 0.99896 0.27577 0.0
C804 C 0.42335 0.87611 0.24724 0.0
C805 C 0.39471 0.95643 0.26964 0.0
N806 N 0.37221 0.87437 0.1989 0.0
N807 N 0.42693 0.94452 0.32922 0.0
H808 H 0.37447 0.01871 0.25713 0.0
H809 H 0.40468 0.01515 0.29716 0.0
H810 H 0.44616 0.92713 0.34695 0.0
H811 H 0.41465 0.9724 0.34037 0.0
H812 H 0.37852 0.84241 0.19362 0.0
H813 H 0.34733 0.88586 0.1834 0.0
H814 H 0.44433 0.83602 0.20421 0.0
H815 H 0.47334 0.8314 0.24446 0.0
C816 C 0.43256 0.88162 0.76048 0.0
C817 C 0.44152 0.84184 0.77683 0.0
C818 C 0.41364 0.8701 0.83516 0.0
C819 C 0.39234 0.90276 0.81543 0.0
N820 N 0.38769 0.94338 0.75934 0.0
N821 N 0.45184 0.80324 0.83306 0.0
C822 C 0.4037 0.90961 0.77808 0.0
C823 C 0.43543 0.83758 0.81527 0.0
N824 N 0.45406 0.89447 0.72992 0.0
N825 N 0.41534 0.87111 0.87258 0.0
H826 H 0.4752 0.78405 0.82147 0.0
H827 H 0.44281 0.79416 0.85935 0.0
H828 H 0.40397 0.89608 0.88836 0.0
H829 H 0.43293 0.84989 0.88816 0.0
H830 H 0.45064 0.92451 0.71838 0.0
H831 H 0.48049 0.87846 0.71993 0.0
H832 H 0.38953 0.94617 0.73092 0.0
H833 H 0.37209 0.96828 0.77223 0.0
C834 C 0.67309 0.44216 0.30902 0.0
C835 C 0.6734 0.43752 0.27023 0.0
C836 C 0.60402 0.40271 0.27448 0.0
C837 C 0.60868 0.39734 0.31277 0.0
N838 N 0.64785 0.41668 0.36769 0.0
N839 N 0.64025 0.40543 0.21667 0.0
C840 C 0.64302 0.41876 0.33058 0.0
C841 C 0.63901 0.416 0.25302 0.0
N842 N 0.70039 0.47026 0.32521 0.0
N843 N 0.56546 0.39638 0.25858 0.0
H844 H 0.66595 0.41131 0.19959 0.0
H845 H 0.61738 0.38609 0.20445 0.0
H846 H 0.53843 0.39104 0.2743 0.0
H847 H 0.55951 0.40281 0.23104 0.0
H848 H 0.69904 0.47849 0.35286 0.0
H849 H 0.72145 0.48905 0.31027 0.0
H850 H 0.67537 0.42631 0.38108 0.0
H851 H 0.62539 0.40423 0.38545 0.0
C852 C 0.10518 0.70593 0.81267 0.0
C853 C 0.07084 0.69462 0.78917 0.0
C854 C 0.07969 0.61947 0.80723 0.0
C855 C 0.11481 0.63091 0.82927 0.0
N856 N 0.1498 0.6857 0.86368 0.0
N857 N 0.01814 0.64252 0.77248 0.0
C858 C 0.12378 0.67442 0.8355 0.0
C859 C 0.05591 0.65182 0.78895 0.0
N860 N 0.12234 0.74584 0.81161 0.0
N861 N 0.06888 0.57761 0.80429 0.0
H862 H 0.99903 0.66575 0.76068 0.0
H863 H 1.00366 0.61282 0.77343 0.0
H864 H 0.08299 0.55436 0.82055 0.0
H865 H 0.04686 0.56584 0.78563 0.0
H866 H 0.14994 0.75433 0.82544 0.0
H867 H 0.1128 0.76935 0.79353 0.0
H868 H 0.15484 0.71701 0.87189 0.0
H869 H 0.16161 0.66336 0.88192 0.0
C870 C 0.90817 0.08426 0.29589 0.0
C871 C 0.89389 0.11106 0.32468 0.0
C872 C 0.82726 0.07023 0.32563 0.0
C873 C 0.83659 0.05311 0.29057 0.0
N874 N 0.89096 0.03509 0.24671 0.0
N875 N 0.83867 0.12755 0.36835 0.0
C876 C 0.87866 0.05756 0.27692 0.0
C877 C 0.85329 0.10315 0.34021 0.0
N878 N 0.9505 0.08168 0.28893 0.0
N879 N 0.79521 0.05335 0.34614 0.0
H880 H 0.85748 0.14946 0.38201 0.0
H881 H 0.80711 0.12713 0.37673 0.0
H882 H 0.77975 0.02535 0.33866 0.0
H883 H 0.78881 0.06283 0.37297 0.0
H884 H 0.96393 0.06127 0.26968 0.0
H885 H 0.97248 0.0955 0.30653 0.0
H886 H 0.91852 0.0416 0.23203 0.0
H887 H 0.87357 0.00935 0.23669 0.0
C888 C 0.42569 0.68404 0.21349 0.0
C889 C 0.43565 0.67397 0.25048 0.0
C890 C 0.40754 0.60197 0.23854 0.0
C891 C 0.3876 0.61661 0.20627 0.0
N892 N 0.37526 0.67486 0.16457 0.0
N893 N 0.43873 0.61832 0.29705 0.0
C894 C 0.39629 0.65841 0.19388 0.0
C895 C 0.42772 0.63143 0.26272 0.0
N896 N 0.44586 0.71682 0.19627 0.0
N897 N 0.4093 0.55931 0.24503 0.0
H898 H 0.46075 0.63341 0.31366 0.0
H899 H 0.42607 0.59099 0.30892 0.0
H900 H 0.39758 0.53713 0.22628 0.0
H901 H 0.42684 0.54594 0.26624 0.0
H902 H 0.44161 0.7235 0.16854 0.0
H903 H 0.47137 0.73291 0.20808 0.0
H904 H 0.37748 0.7068 0.15726 0.0
H905 H 0.35284 0.65784 0.14971 0.0
C906 C 0.8797 0.44306 0.75418 0.0
C907 C 0.84158 0.4557 0.73648 0.0
C908 C 0.86374 0.4179 0.6807 0.0
C909 C 0.89764 0.39856 0.7007 0.0
N910 N 0.94779 0.4076 0.74965 0.0
N911 N 0.8118 0.47499 0.67858 0.0
C912 C 0.9085 0.4155 0.7356 0.0
C913 C 0.8381 0.44932 0.69826 0.0
N914 N 0.8891 0.45849 0.78822 0.0
N915 N 0.85459 0.40572 0.6456 0.0
H916 H 0.79615 0.50067 0.69061 0.0
H917 H 0.8101 0.47497 0.65009 0.0
H918 H 0.87159 0.38352 0.63063 0.0
H919 H 0.82757 0.41547 0.63168 0.0
H920 H 0.91144 0.44503 0.8056 0.0
H921 H 0.87544 0.48624 0.79844 0.0
H922 H 0.95948 0.42077 0.77378 0.0
H923 H 0.97082 0.3914 0.7348 0.0
C924 C 0.05466 0.86937 0.23367 0.0
C925 C 0.06504 0.82541 0.23203 0.0
C926 C 0.13439 0.84386 0.20746 0.0
C927 C 0.12355 0.88752 0.2058 0.0
N928 N 0.06889 0.94059 0.21059 0.0
N929 N 0.10767 0.77279 0.20043 0.0
C930 C 0.08209 0.89996 0.21661 0.0
C931 C 0.10238 0.81321 0.21319 0.0
N932 N 0.01867 0.88182 0.25138 0.0
N933 N 0.17553 0.83139 0.20564 0.0
H934 H 0.08288 0.75108 0.19858 0.0
H935 H 0.13481 0.763 0.18653 0.0
H936 H 0.19984 0.85327 0.20798 0.0
H937 H 0.18509 0.7999 0.20873 0.0
H938 H 0.01162 0.91346 0.25713 0.0
H939 H 0.99657 0.86 0.26136 0.0
H940 H 0.03791 0.95062 0.21511 0.0
H941 H 0.08817 0.96332 0.1982 0.0
C942 C 0.64935 0.0684 0.74122 0.0
C943 C 0.69199 0.08367 0.74153 0.0
C944 C 0.67141 0.13561 0.69424 0.0
C945 C 0.62798 0.12605 0.69971 0.0
N946 N 0.57514 0.08468 0.73102 0.0
N947 N 0.74055 0.13944 0.72189 0.0
C948 C 0.61684 0.09285 0.72407 0.0
C949 C 0.7024 0.11912 0.71877 0.0
N950 N 0.64002 0.02954 0.75573 0.0
N951 N 0.68335 0.16035 0.6654 0.0
H952 H 0.74701 0.16823 0.70896 0.0
H953 H 0.76418 0.13089 0.74018 0.0
H954 H 0.66179 0.17033 0.64574 0.0
H955 H 0.7149 0.1658 0.65836 0.0
H956 H 0.61027 0.01537 0.75358 0.0
H957 H 0.6632 0.00917 0.76572 0.0
H958 H 0.56494 0.06422 0.75166 0.0
H959 H 0.55081 0.10042 0.71742 0.0
C960 C 0.72569 0.27018 0.17521 0.0
C961 C 0.75421 0.29612 0.19517 0.0
C962 C 0.782 0.23412 0.22694 0.0
C963 C 0.75074 0.2089 0.20974 0.0
N964 N 0.69068 0.20172 0.16987 0.0
N965 N 0.80722 0.30471 0.24199 0.0
C966 C 0.72223 0.22647 0.18411 0.0
C967 C 0.78176 0.27863 0.22166 0.0
N968 N 0.70201 0.28768 0.14785 0.0
N969 N 0.81241 0.21488 0.24764 0.0
H970 H 0.80971 0.33726 0.23732 0.0
H971 H 0.82431 0.29455 0.2647 0.0
H972 H 0.81333 0.18201 0.25134 0.0
H973 H 0.83868 0.23068 0.25823 0.0
H974 H 0.68401 0.26995 0.12943 0.0
H975 H 0.70199 0.32023 0.14247 0.0
H976 H 0.66607 0.21337 0.15387 0.0
H977 H 0.68783 0.16945 0.17576 0.0
C978 C 0.27388 0.77947 0.66884 0.0
C979 C 0.29629 0.75441 0.69444 0.0
C980 C 0.23033 0.74104 0.72791 0.0
C981 C 0.20796 0.7645 0.70105 0.0
N982 N 0.2063 0.79306 0.64017 0.0
N983 N 0.29444 0.70239 0.74271 0.0
C984 C 0.22921 0.77928 0.6695 0.0
C985 C 0.27414 0.73251 0.72248 0.0
N986 N 0.29536 0.80511 0.64506 0.0
N987 N 0.21013 0.72802 0.75891 0.0
H988 H 0.32596 0.69423 0.73812 0.0
H989 H 0.27903 0.68274 0.76143 0.0
H990 H 0.1778 0.73213 0.76257 0.0
H991 H 0.22573 0.71514 0.78143 0.0
H992 H 0.28033 0.82662 0.62778 0.0
H993 H 0.32824 0.80833 0.64562 0.0
H994 H 0.22005 0.80113 0.61514 0.0
H995 H 0.17325 0.7917 0.6398 0.0
C996 C 0.74017 0.23704 0.85132 0.0
C997 C 0.76985 0.21345 0.83064 0.0
C998 C 0.79042 0.27696 0.79674 0.0
C999 C 0.75746 0.29938 0.8144 0.0
N1000 N 0.69948 0.3022 0.85698 0.0
N1001 N 0.82186 0.20865 0.78262 0.0
C1002 C 0.73216 0.27997 0.84168 0.0
C1003 C 0.7948 0.23285 0.80312 0.0
N1004 N 0.72008 0.21815 0.88019 0.0
N1005 N 0.81772 0.29844 0.77433 0.0
H1006 H 0.82653 0.17633 0.78731 0.0
H1007 H 0.83778 0.21977 0.75959 0.0
H1008 H 0.81516 0.33105 0.76974 0.0
H1009 H 0.8448 0.28507 0.76289 0.0
H1010 H 0.70081 0.23437 0.89866 0.0
H1011 H 0.7249 0.18631 0.88691 0.0
H1012 H 0.67714 0.28892 0.87456 0.0
H1013 H 0.69348 0.33388 0.85051 0.0
C1014 C 0.2738 0.72732 0.35264 0.0
C1015 C 0.2977 0.76051 0.33613 0.0
C1016 C 0.23326 0.78859 0.30758 0.0
C1017 C 0.21021 0.754 0.32216 0.0
N1018 N 0.20581 0.69124 0.35884 0.0
N1019 N 0.30129 0.82372 0.29925 0.0
C1020 C 0.22965 0.72403 0.34542 0.0
C1021 C 0.27765 0.79156 0.31399 0.0
N1022 N 0.29386 0.69836 0.37439 0.0
N1023 N 0.21197 0.8186 0.28791 0.0
H1024 H 0.33304 0.82854 0.30579 0.0
H1025 H 0.29012 0.84547 0.2802 0.0
H1026 H 0.1793 0.81691 0.28376 0.0
H1027 H 0.22553 0.84606 0.27729 0.0
H1028 H 0.27844 0.67606 0.3906 0.0
H1029 H 0.32671 0.69656 0.37647 0.0
H1030 H 0.21766 0.66591 0.37384 0.0
H1031 H 0.17325 0.68905 0.35439 0.0
C1032 C 0.23169 0.73219 0.92442 0.0
C1033 C 0.26589 0.70662 0.91279 0.0
C1034 C 0.30971 0.76943 0.90303 0.0
C1035 C 0.27258 0.79437 0.90538 0.0
N1036 N 0.20111 0.80316 0.92577 0.0
N1037 N 0.34061 0.69873 0.90767 0.0
C1038 C 0.23473 0.77687 0.91968 0.0
C1039 C 0.30639 0.72502 0.90901 0.0
N1040 N 0.19664 0.71358 0.93918 0.0
N1041 N 0.3466 0.78744 0.89131 0.0
H1042 H 0.33704 0.66591 0.91082 0.0
H1043 H 0.37184 0.70923 0.90624 0.0
H1044 H 0.3494 0.81991 0.88662 0.0
H1045 H 0.37394 0.77038 0.8854 0.0
H1046 H 0.17058 0.73023 0.94904 0.0
H1047 H 0.19533 0.6812 0.9446 0.0
H1048 H 0.17085 0.79284 0.93274 0.0
H1049 H 0.20395 0.8361 0.9233 0.0
C1050 C 0.77822 0.29837 0.40496 0.0
C1051 C 0.79431 0.2568 0.40783 0.0
C1052 C 0.72306 0.2304 0.42006 0.0
C1053 C 0.70712 0.26862 0.40552 0.0
N1054 N 0.71828 0.3408 0.38652 0.0
N1055 N 0.78454 0.18533 0.42909 0.0
C1056 C 0.73419 0.30389 0.4002 0.0
C1057 C 0.76755 0.22359 0.41999 0.0
N1058 N 0.80596 0.33155 0.40319 0.0
N1059 N 0.69502 0.20024 0.43161 0.0
H1060 H 0.81704 0.181 0.43154 0.0
H1061 H 0.76682 0.15827 0.43486 0.0
H1062 H 0.66239 0.20563 0.43092 0.0
H1063 H 0.70367 0.17174 0.44383 0.0
H1064 H 0.79661 0.36326 0.40276 0.0
H1065 H 0.83859 0.32666 0.40546 0.0
H1066 H 0.73704 0.366 0.37759 0.0
H1067 H 0.68598 0.34518 0.38258 0.0
C1068 C 0.27956 0.73196 0.10051 0.0
C1069 C 0.24433 0.70882 0.11403 0.0
C1070 C 0.20097 0.77301 0.11396 0.0
C1071 C 0.23869 0.79687 0.10933 0.0
N1072 N 0.30844 0.80138 0.08467 0.0
N1073 N 0.16962 0.70265 0.12203 0.0
C1074 C 0.27594 0.77668 0.09709 0.0
C1075 C 0.20398 0.728 0.11571 0.0
N1076 N 0.31701 0.7118 0.09403 0.0
N1077 N 0.16326 0.79343 0.11848 0.0
H1078 H 0.17249 0.66959 0.12286 0.0
H1079 H 0.13878 0.71347 0.12532 0.0
H1080 H 0.16037 0.82625 0.11709 0.0
H1081 H 0.13428 0.77821 0.1217 0.0
H1082 H 0.34535 0.72728 0.08823 0.0
H1083 H 0.31978 0.67893 0.09396 0.0
H1084 H 0.3365 0.7897 0.07365 0.0
H1085 H 0.30554 0.83437 0.08342 0.0
C1086 C 0.7249 0.23888 0.59883 0.0
C1087 C 0.70194 0.27412 0.61242 0.0
C1088 C 0.76657 0.30974 0.63031 0.0
C1089 C 0.789 0.27168 0.62347 0.0
N1090 N 0.79275 0.20211 0.59693 0.0
N1091 N 0.7017 0.34923 0.62095 0.0
C1092 C 0.76924 0.23711 0.60546 0.0
C1093 C 0.72383 0.31219 0.61953 0.0
N1094 N 0.70454 0.20842 0.57894 0.0
N1095 N 0.78402 0.34076 0.65168 0.0
H1096 H 0.66934 0.34983 0.61493 0.0
H1097 H 0.71603 0.37879 0.62477 0.0
H1098 H 0.81396 0.33775 0.6633 0.0
H1099 H 0.76726 0.36724 0.66084 0.0
H1100 H 0.71916 0.18168 0.56797 0.0
H1101 H 0.67388 0.21294 0.5694 0.0
H1102 H 0.78021 0.17389 0.58671 0.0
H1103 H 0.82549 0.2014 0.60093 0.0
C1104 C 0.74949 0.97984 0.99932 0.0
C1105 C 0.75936 0.0167 0.97866 0.0
C1106 C 0.75214 0.06045 0.03421 0.0
C1107 C 0.74641 0.02322 0.05566 0.0
N1108 N 0.74697 0.9466 0.05922 0.0
N1109 N 0.77772 0.09107 0.97741 0.0
C1110 C 0.74695 0.9826 0.03836 0.0
C1111 C 0.76302 0.0567 0.99646 0.0
N1112 N 0.74158 0.94236 0.98159 0.0
N1113 N 0.74543 0.09955 0.04957 0.0
H1114 H 0.78586 0.08967 0.94969 0.0
H1115 H 0.78557 0.11987 0.98981 0.0
H1116 H 0.73602 0.10367 0.07677 0.0
H1117 H 0.74493 0.12759 0.03449 0.0
H1118 H 0.72933 0.91562 0.99463 0.0
H1119 H 0.74432 0.93893 0.95322 0.0
H1120 H 0.75177 0.91632 0.04842 0.0
H1121 H 0.74593 0.94713 0.08778 0.0
C1122 C 0.48081 0.73555 0.49438 0.0
C1123 C 0.5165 0.75452 0.47708 0.0
C1124 C 0.55278 0.75889 0.53651 0.0
C1125 C 0.51801 0.73776 0.55333 0.0
N1126 N 0.4517 0.70014 0.54769 0.0
N1127 N 0.58868 0.77905 0.48015 0.0
C1128 C 0.48303 0.72406 0.53197 0.0
C1129 C 0.55317 0.76475 0.49774 0.0
N1130 N 0.44393 0.73037 0.47523 0.0
N1131 N 0.58491 0.7743 0.55786 0.0
H1132 H 0.58971 0.78443 0.45195 0.0
H1133 H 0.6179 0.78287 0.49292 0.0
H1134 H 0.58689 0.76827 0.58593 0.0
H1135 H 0.60842 0.79466 0.54825 0.0
H1136 H 0.41527 0.72174 0.48725 0.0
H1137 H 0.44085 0.73825 0.44768 0.0
H1138 H 0.42803 0.68489 0.53275 0.0
H1139 H 0.45114 0.69241 0.57544 0.0
C1140 C 0.7484 0.53416 0.02056 0.0
C1141 C 0.76091 0.49813 0.04112 0.0
C1142 C 0.75145 0.45302 0.98685 0.0
C1143 C 0.74348 0.48958 0.96517 0.0
N1144 N 0.74145 0.56613 0.96047 0.0
N1145 N 0.7817 0.4245 0.04254 0.0
C1146 C 0.74372 0.53056 0.98177 0.0
C1147 C 0.76484 0.45797 0.02376 0.0
N1148 N 0.74011 0.5716 0.03819 0.0
N1149 N 0.74449 0.41339 0.97257 0.0
H1150 H 0.79156 0.4268 0.06976 0.0
H1151 H 0.78961 0.39573 0.03015 0.0
H1152 H 0.73293 0.40844 0.94611 0.0
H1153 H 0.7458 0.38571 0.9881 0.0
H1154 H 0.72594 0.59748 0.02543 0.0
H1155 H 0.74483 0.57575 0.06629 0.0
H1156 H 0.74584 0.59675 0.97071 0.0
H1157 H 0.7388 0.56503 0.93201 0.0
C1158 C 0.06357 0.76206 0.49153 0.0
C1159 C 0.02694 0.74945 0.47158 0.0
C1160 C 0.9872 0.74541 0.52972 0.0
C1161 C 0.02264 0.76232 0.54883 0.0
N1162 N 0.09144 0.79548 0.54633 0.0
N1163 N 0.95136 0.73725 0.47134 0.0
C1164 C 0.05986 0.77331 0.5292 0.0
C1165 C 0.988 0.74326 0.49059 0.0
N1166 N 0.10242 0.76151 0.47496 0.0
N1167 N 0.95324 0.73025 0.54893 0.0
H1168 H 0.95026 0.73676 0.44278 0.0
H1169 H 0.92154 0.73682 0.48357 0.0
H1170 H 0.95131 0.73175 0.57746 0.0
H1171 H 0.92866 0.71316 0.53681 0.0
H1172 H 0.13063 0.76644 0.48913 0.0
H1173 H 0.10697 0.75156 0.44794 0.0
H1174 H 0.11724 0.80839 0.53239 0.0
H1175 H 0.08977 0.80468 0.57381 0.0
C1176 C 0.27418 0.95455 0.0351 0.0
C1177 C 0.24776 0.98751 0.04884 0.0
C1178 C 0.2299 0.00709 0.98524 0.0
C1179 C 0.25789 0.97529 0.97192 0.0
N1180 N 0.31587 0.92819 0.98405 0.0
N1181 N 0.20538 0.04948 0.03703 0.0
C1182 C 0.28289 0.95201 0.99689 0.0
C1183 C 0.2272 0.01522 0.02386 0.0
N1184 N 0.28998 0.92458 0.05826 0.0
N1185 N 0.20536 0.02897 0.96103 0.0
H1186 H 0.2014 0.05528 0.06501 0.0
H1187 H 0.19346 0.07348 0.02044 0.0
H1188 H 0.20915 0.02613 0.93276 0.0
H1189 H 0.18051 0.0487 0.96884 0.0
H1190 H 0.3061 0.89772 0.0492 0.0
H1191 H 0.28303 0.92398 0.08606 0.0
H1192 H 0.33785 0.91342 1.00101 0.0
H1193 H 0.32433 0.92779 0.95642 0.0
C1194 C 0.54663 0.22885 0.52612 0.0
C1195 C 0.52729 0.25773 0.55108 0.0
C1196 C 0.49903 0.29847 0.49867 0.0
C1197 C 0.51814 0.26963 0.47361 0.0
N1198 N 0.5689 0.21376 0.46363 0.0
N1199 N 0.47824 0.3149 0.56121 0.0
C1200 C 0.54409 0.23631 0.4874 0.0
C1201 C 0.50168 0.29115 0.53727 0.0
N1202 N 0.5672 0.19395 0.53938 0.0
N1203 N 0.48089 0.33476 0.48566 0.0
H1204 H 0.47842 0.3096 0.58934 0.0
H1205 H 0.45534 0.33672 0.55326 0.0
H1206 H 0.48063 0.34236 0.45799 0.0
H1207 H 0.47047 0.35965 0.50217 0.0
H1208 H 0.57779 0.169 0.52303 0.0
H1209 H 0.57062 0.18781 0.56725 0.0
H1210 H 0.59154 0.19173 0.47166 0.0
H1211 H 0.57055 0.2206 0.43583 0.0
C1212 C 0.23258 0.54611 0.03529 0.0
C1213 C 0.26352 0.51678 0.04853 0.0
C1214 C 0.27954 0.49654 0.98425 0.0
C1215 C 0.24992 0.52683 0.97124 0.0
N1216 N 0.19116 0.57293 0.98408 0.0
N1217 N 0.32109 0.46896 0.03491 0.0
C1218 C 0.22439 0.54938 0.99674 0.0
C1219 C 0.28779 0.49284 0.02276 0.0
N1220 N 0.21191 0.57221 0.05935 0.0
N1221 N 0.29859 0.46998 0.9596 0.0
H1222 H 0.3294 0.4665 0.06246 0.0
H1223 H 0.34309 0.45452 0.01769 0.0
H1224 H 0.29227 0.47129 0.9316 0.0
H1225 H 0.31708 0.44402 0.96685 0.0
H1226 H 0.19396 0.59832 0.0515 0.0
H1227 H 0.21489 0.57005 0.08758 0.0
H1228 H 0.16828 0.5867 1.00084 0.0
H1229 H 0.18371 0.57532 0.95636 0.0
C1230 C 0.00862 0.27068 0.48905 0.0
C1231 C 0.97463 0.24586 0.47529 0.0
C1232 C 0.95162 0.23077 0.5384 0.0
C1233 C 0.98661 0.25424 0.55277 0.0
N1234 N 0.05274 0.29064 0.54091 0.0
N1235 N 0.92274 0.1917 0.48669 0.0
C1236 C 0.01669 0.27199 0.52778 0.0
C1237 C 0.94904 0.22258 0.50001 0.0
N1238 N 0.03217 0.29432 0.46517 0.0
N1239 N 0.91994 0.21705 0.56099 0.0
H1240 H 0.92216 0.1835 0.45897 0.0
H1241 H 0.90583 0.17085 0.50336 0.0
H1242 H 0.91997 0.2217 0.58915 0.0
H1243 H 0.89152 0.20443 0.55134 0.0
H1244 H 0.05403 0.31724 0.47339 0.0
H1245 H 0.02815 0.29235 0.43681 0.0
H1246 H 0.0779 0.29982 0.52423 0.0
H1247 H 0.05892 0.29447 0.56875 0.0
loop_
_geom_bond_atom_site_label_1
_geom_bond_atom_site_label_2
_geom_bond_distance
_geom_bond_site_symmetry_2
_ccdc_geom_bond_type
Co0 N4 2.148 . S
Co0 N10 2.128 1_545 S
Co0 N20 2.194 . S
Co0 O25 2.351 . S
Co0 O26 2.155 . S
Co0 O27 2.096 . S
C1 N4 1.301 . S
C1 N5 1.328 . S
C1 H6 0.930 . S
C2 C3 1.333 . S
C2 N4 1.317 . S
C2 H7 0.930 . S
C3 C2 1.333 . S
C3 N5 1.350 . S
C3 H29 0.931 . S
N4 Co0 2.148 . S
N4 C1 1.301 . S
N4 C2 1.317 . S
N5 C1 1.328 . S
N5 C3 1.350 . S
H6 C1 0.930 . S
H7 C2 0.930 . S
C8 O9 1.224 . S
C8 O27 1.247 . S
O9 C8 1.224 . S
N10 Co0 2.128 1_565 S
N10 C11 1.355 . S
N10 C13 1.311 . S
C11 N10 1.355 . S
C11 C12 1.363 . S
C11 H23 0.929 . S
C12 C11 1.363 . S
C12 N14 1.375 . S
C12 H30 0.931 . S
C13 N10 1.311 . S
C13 N14 1.347 . S
C13 H24 0.929 . S
N14 C12 1.375 . S
N14 C13 1.347 . S
C15 C18 1.365 . S
C15 N20 1.328 . S
C15 H21 0.929 . S
C16 C17 1.362 . S
C16 C19 1.378 . S
C16 H31 0.929 . S
C17 C16 1.362 . S
C17 C18 1.366 . S
C18 C15 1.365 . S
C18 C17 1.366 . S
C18 H32 0.930 . S
C19 C16 1.378 . S
C19 N20 1.315 . S
C19 H22 0.930 . S
N20 Co0 2.194 . S
N20 C15 1.328 . S
N20 C19 1.315 . S
H21 C15 0.929 . S
H22 C19 0.930 . S
H23 C11 0.929 . S
H24 C13 0.929 . S
O25 Co0 2.351 . S
O25 C28 1.244 . S
O26 Co0 2.155 . S
O26 C28 1.240 . S
O27 Co0 2.096 . S
O27 C8 1.247 . S
C28 O25 1.244 . S
C28 O26 1.240 . S
H29 C3 0.931 . S
H30 C12 0.931 . S
H31 C16 0.929 . S
H32 C18 0.930 . S
Co33 N37 2.148 . S
Co33 N43 2.128 . S
Co33 N53 2.194 . S
Co33 O58 2.351 . S
Co33 O59 2.155 . S
Co33 O60 2.096 . S
C34 N37 1.301 . S
C34 N38 1.328 . S
C34 H39 0.930 . S
C35 C36 1.333 . S
C35 N37 1.317 . S
C35 H40 0.930 . S
C36 C35 1.333 . S
C36 N38 1.350 . S
C36 H62 0.931 . S
N37 Co33 2.148 . S
N37 C34 1.301 . S
N37 C35 1.317 . S
N38 C34 1.328 . S
N38 C36 1.350 . S
H39 C34 0.930 . S
H40 C35 0.930 . S
C41 O42 1.224 . S
C41 O60 1.247 . S
O42 C41 1.224 . S
N43 Co33 2.128 . S
N43 C44 1.355 . S
N43 C46 1.311 . S
C44 N43 1.355 . S
C44 C45 1.363 . S
C44 H56 0.929 . S
C45 C44 1.363 . S
C45 N47 1.375 . S
C45 H63 0.931 . S
C46 N43 1.311 . S
C46 N47 1.347 . S
C46 H57 0.929 . S
N47 C45 1.375 . S
N47 C46 1.347 . S
C48 C51 1.365 . S
C48 N53 1.328 . S
C48 H54 0.929 . S
C49 C50 1.362 . S
C49 C52 1.378 . S
C49 H64 0.929 . S
C50 C49 1.362 . S
C50 C51 1.366 . S
C51 C48 1.365 . S
C51 C50 1.366 . S
C51 H65 0.930 . S
C52 C49 1.378 . S
C52 N53 1.315 . S
C52 H55 0.930 . S
N53 Co33 2.194 . S
N53 C48 1.328 . S
N53 C52 1.315 . S
H54 C48 0.929 . S
H55 C52 0.930 . S
H56 C44 0.929 . S
H57 C46 0.929 . S
O58 Co33 2.351 . S
O58 C61 1.244 . S
O59 Co33 2.155 . S
O59 C61 1.240 . S
O60 Co33 2.096 . S
O60 C41 1.247 . S
C61 O58 1.244 . S
C61 O59 1.240 . S
H62 C36 0.931 . S
H63 C45 0.931 . S
H64 C49 0.929 . S
H65 C51 0.930 . S
Co66 N70 2.148 . S
Co66 N76 2.128 . S
Co66 N86 2.194 . S
Co66 O91 2.351 . S
Co66 O92 2.155 . S
Co66 O93 2.096 . S
C67 N70 1.301 . S
C67 N71 1.328 . S
C67 H72 0.930 . S
C68 C69 1.333 . S
C68 N70 1.317 . S
C68 H73 0.930 . S
C69 C68 1.333 . S
C69 N71 1.350 . S
C69 H95 0.931 . S
N70 Co66 2.148 . S
N70 C67 1.301 . S
N70 C68 1.317 . S
N71 C67 1.328 . S
N71 C69 1.350 . S
H72 C67 0.930 . S
H73 C68 0.930 . S
C74 O75 1.224 . S
C74 O93 1.247 . S
O75 C74 1.224 . S
N76 Co66 2.128 . S
N76 C77 1.355 . S
N76 C79 1.311 . S
C77 N76 1.355 . S
C77 C78 1.363 . S
C77 H89 0.929 . S
C78 C77 1.363 . S
C78 N80 1.375 . S
C78 H96 0.931 . S
C79 N76 1.311 . S
C79 N80 1.347 . S
C79 H90 0.929 . S
N80 C78 1.375 . S
N80 C79 1.347 . S
C81 C84 1.365 . S
C81 N86 1.328 . S
C81 H87 0.929 . S
C82 C83 1.362 . S
C82 C85 1.378 . S
C82 H97 0.929 . S
C83 C82 1.362 . S
C83 C84 1.366 . S
C84 C81 1.365 . S
C84 C83 1.366 . S
C84 H98 0.930 . S
C85 C82 1.378 . S
C85 N86 1.315 . S
C85 H88 0.930 . S
N86 Co66 2.194 . S
N86 C81 1.328 . S
N86 C85 1.315 . S
H87 C81 0.929 . S
H88 C85 0.930 . S
H89 C77 0.929 . S
H90 C79 0.929 . S
O91 Co66 2.351 . S
O91 C94 1.244 . S
O92 Co66 2.155 . S
O92 C94 1.240 . S
O93 Co66 2.096 . S
O93 C74 1.247 . S
C94 O91 1.244 . S
C94 O92 1.240 . S
H95 C69 0.931 . S
H96 C78 0.931 . S
H97 C82 0.929 . S
H98 C84 0.930 . S
Co99 N103 2.148 . S
Co99 N109 2.128 1_455 S
Co99 N119 2.194 . S
Co99 O124 2.351 . S
Co99 O125 2.155 . S
Co99 O126 2.096 . S
C100 N103 1.301 . S
C100 N104 1.328 . S
C100 H105 0.930 . S
C101 C102 1.333 . S
C101 N103 1.317 . S
C101 H106 0.930 . S
C102 C101 1.333 . S
C102 N104 1.350 . S
C102 H128 0.931 . S
N103 Co99 2.148 . S
N103 C100 1.301 . S
N103 C101 1.317 . S
N104 C100 1.328 . S
N104 C102 1.350 . S
H105 C100 0.930 . S
H106 C101 0.930 . S
C107 O108 1.224 . S
C107 O126 1.247 . S
O108 C107 1.224 . S
N109 Co99 2.128 1_655 S
N109 C110 1.355 . S
N109 C112 1.311 . S
C110 N109 1.355 . S
C110 C111 1.363 . S
C110 H122 0.929 . S
C111 C110 1.363 . S
C111 N113 1.375 . S
C111 H129 0.931 . S
C112 N109 1.311 . S
C112 N113 1.347 . S
C112 H123 0.929 . S
N113 C111 1.375 . S
N113 C112 1.347 . S
C114 C117 1.365 . S
C114 N119 1.328 . S
C114 H120 0.929 . S
C115 C116 1.362 . S
C115 C118 1.378 . S
C115 H130 0.929 . S
C116 C115 1.362 . S
C116 C117 1.366 . S
C117 C114 1.365 . S
C117 C116 1.366 . S
C117 H131 0.930 . S
C118 C115 1.378 . S
C118 N119 1.315 . S
C118 H121 0.930 . S
N119 Co99 2.194 . S
N119 C114 1.328 . S
N119 C118 1.315 . S
H120 C114 0.929 . S
H121 C118 0.930 . S
H122 C110 0.929 . S
H123 C112 0.929 . S
O124 Co99 2.351 . S
O124 C127 1.244 . S
O125 Co99 2.155 . S
O125 C127 1.240 . S
O126 Co99 2.096 . S
O126 C107 1.247 . S
C127 O124 1.244 . S
C127 O125 1.240 . S
H128 C102 0.931 . S
H129 C111 0.931 . S
H130 C115 0.929 . S
H131 C117 0.930 . S
Co132 N136 2.148 . S
Co132 N142 2.128 . S
Co132 N152 2.194 . S
Co132 O157 2.351 . S
Co132 O158 2.155 . S
Co132 O159 2.096 . S
C133 N136 1.301 . S
C133 N137 1.328 . S
C133 H138 0.930 . S
C134 C135 1.333 . S
C134 N136 1.317 . S
C134 H139 0.930 . S
C135 C134 1.333 . S
C135 N137 1.350 . S
C135 H161 0.931 . S
N136 Co132 2.148 . S
N136 C133 1.301 . S
N136 C134 1.317 . S
N137 C133 1.328 . S
N137 C135 1.350 . S
H138 C133 0.930 . S
H139 C134 0.930 . S
C140 O141 1.224 . S
C140 O159 1.247 . S
O141 C140 1.224 . S
N142 Co132 2.128 . S
N142 C143 1.355 . S
N142 C145 1.311 . S
C143 N142 1.355 . S
C143 C144 1.363 . S
C143 H155 0.929 . S
C144 C143 1.363 . S
C144 N146 1.375 . S
C144 H162 0.931 . S
C145 N142 1.311 . S
C145 N146 1.347 . S
C145 H156 0.929 . S
N146 C144 1.375 . S
N146 C145 1.347 . S
C147 C150 1.365 . S
C147 N152 1.328 . S
C147 H153 0.929 . S
C148 C149 1.362 . S
C148 C151 1.378 . S
C148 H163 0.929 . S
C149 C148 1.362 . S
C149 C150 1.366 . S
C150 C147 1.365 . S
C150 C149 1.366 . S
C150 H164 0.930 . S
C151 C148 1.378 . S
C151 N152 1.315 . S
C151 H154 0.930 . S
N152 Co132 2.194 . S
N152 C147 1.328 . S
N152 C151 1.315 . S
H153 C147 0.929 . S
H154 C151 0.930 . S
H155 C143 0.929 . S
H156 C145 0.929 . S
O157 Co132 2.351 . S
O157 C160 1.244 . S
O158 Co132 2.155 . S
O158 C160 1.240 . S
O159 Co132 2.096 . S
O159 C140 1.247 . S
C160 O157 1.244 . S
C160 O158 1.240 . S
H161 C135 0.931 . S
H162 C144 0.931 . S
H163 C148 0.929 . S
H164 C150 0.930 . S
Co165 N169 2.148 . S
Co165 N175 2.128 1_455 S
Co165 N185 2.194 . S
Co165 O190 2.351 . S
Co165 O191 2.155 . S
Co165 O192 2.096 . S
C166 N169 1.301 . S
C166 N170 1.328 . S
C166 H171 0.930 . S
C167 C168 1.333 . S
C167 N169 1.317 . S
C167 H172 0.930 . S
C168 C167 1.333 . S
C168 N170 1.350 . S
C168 H194 0.931 . S
N169 Co165 2.148 . S
N169 C166 1.301 . S
N169 C167 1.317 . S
N170 C166 1.328 . S
N170 C168 1.350 . S
H171 C166 0.930 . S
H172 C167 0.930 . S
C173 O174 1.224 . S
C173 O192 1.247 . S
O174 C173 1.224 . S
N175 Co165 2.128 1_655 S
N175 C176 1.355 . S
N175 C178 1.311 . S
C176 N175 1.355 . S
C176 C177 1.363 . S
C176 H188 0.929 . S
C177 C176 1.363 . S
C177 N179 1.375 . S
C177 H195 0.931 . S
C178 N175 1.311 . S
C178 N179 1.347 . S
C178 H189 0.929 . S
N179 C177 1.375 . S
N179 C178 1.347 . S
C180 C183 1.365 . S
C180 N185 1.328 . S
C180 H186 0.929 . S
C181 C182 1.362 . S
C181 C184 1.378 . S
C181 H196 0.929 . S
C182 C181 1.362 . S
C182 C183 1.366 . S
C183 C180 1.365 . S
C183 C182 1.366 . S
C183 H197 0.930 . S
C184 C181 1.378 . S
C184 N185 1.315 . S
C184 H187 0.930 . S
N185 Co165 2.194 . S
N185 C180 1.328 . S
N185 C184 1.315 . S
H186 C180 0.929 . S
H187 C184 0.930 . S
H188 C176 0.929 . S
H189 C178 0.929 . S
O190 Co165 2.351 . S
O190 C193 1.244 . S
O191 Co165 2.155 . S
O191 C193 1.240 . S
O192 Co165 2.096 . S
O192 C173 1.247 . S
C193 O190 1.244 . S
C193 O191 1.240 . S
H194 C168 0.931 . S
H195 C177 0.931 . S
H196 C181 0.929 . S
H197 C183 0.930 . S
Co198 N202 2.148 . S
Co198 N208 2.128 1_545 S
Co198 N218 2.194 . S
Co198 O223 2.351 . S
Co198 O224 2.155 . S
Co198 O225 2.096 . S
C199 N202 1.301 . S
C199 N203 1.328 . S
C199 H204 0.930 . S
C200 C201 1.333 . S
C200 N202 1.317 . S
C200 H205 0.930 . S
C201 C200 1.333 . S
C201 N203 1.350 . S
C201 H227 0.931 . S
N202 Co198 2.148 . S
N202 C199 1.301 . S
N202 C200 1.317 . S
N203 C199 1.328 . S
N203 C201 1.350 . S
H204 C199 0.930 . S
H205 C200 0.930 . S
C206 O207 1.224 . S
C206 O225 1.247 . S
O207 C206 1.224 . S
N208 Co198 2.128 1_565 S
N208 C209 1.355 . S
N208 C211 1.311 . S
C209 N208 1.355 . S
C209 C210 1.363 . S
C209 H221 0.929 . S
C210 C209 1.363 . S
C210 N212 1.375 . S
C210 H228 0.931 . S
C211 N208 1.311 . S
C211 N212 1.347 . S
C211 H222 0.929 . S
N212 C210 1.375 . S
N212 C211 1.347 . S
C213 C216 1.365 . S
C213 N218 1.328 . S
C213 H219 0.929 . S
C214 C215 1.362 . S
C214 C217 1.378 . S
C214 H229 0.929 . S
C215 C214 1.362 . S
C215 C216 1.366 . S
C216 C213 1.365 . S
C216 C215 1.366 . S
C216 H230 0.930 . S
C217 C214 1.378 . S
C217 N218 1.315 . S
C217 H220 0.930 . S
N218 Co198 2.194 . S
N218 C213 1.328 . S
N218 C217 1.315 . S
H219 C213 0.929 . S
H220 C217 0.930 . S
H221 C209 0.929 . S
H222 C211 0.929 . S
O223 Co198 2.351 . S
O223 C226 1.244 . S
O224 Co198 2.155 . S
O224 C226 1.240 . S
O225 Co198 2.096 . S
O225 C206 1.247 . S
C226 O223 1.244 . S
C226 O224 1.240 . S
H227 C201 0.931 . S
H228 C210 0.931 . S
H229 C214 0.929 . S
H230 C216 0.930 . S
Co231 N235 2.148 . S
Co231 N241 2.128 . S
Co231 N251 2.194 . S
Co231 O256 2.351 . S
Co231 O257 2.155 . S
Co231 O258 2.096 . S
C232 N235 1.301 . S
C232 N236 1.328 . S
C232 H237 0.930 . S
C233 C234 1.333 . S
C233 N235 1.317 . S
C233 H238 0.930 . S
C234 C233 1.333 . S
C234 N236 1.350 . S
C234 H260 0.931 . S
N235 Co231 2.148 . S
N235 C232 1.301 . S
N235 C233 1.317 . S
N236 C232 1.328 . S
N236 C234 1.350 . S
H237 C232 0.930 . S
H238 C233 0.930 . S
C239 O240 1.224 . S
C239 O258 1.247 . S
O240 C239 1.224 . S
N241 Co231 2.128 . S
N241 C242 1.355 . S
N241 C244 1.311 . S
C242 N241 1.355 . S
C242 C243 1.363 . S
C242 H254 0.929 . S
C243 C242 1.363 . S
C243 N245 1.375 . S
C243 H261 0.931 . S
C244 N241 1.311 . S
C244 N245 1.347 . S
C244 H255 0.929 . S
N245 C243 1.375 . S
N245 C244 1.347 . S
C246 C249 1.365 . S
C246 N251 1.328 . S
C246 H252 0.929 . S
C247 C248 1.362 . S
C247 C250 1.378 . S
C247 H262 0.929 . S
C248 C247 1.362 . S
C248 C249 1.366 . S
C249 C246 1.365 . S
C249 C248 1.366 . S
C249 H263 0.930 . S
C250 C247 1.378 . S
C250 N251 1.315 . S
C250 H253 0.930 . S
N251 Co231 2.194 . S
N251 C246 1.328 . S
N251 C250 1.315 . S
H252 C246 0.929 . S
H253 C250 0.930 . S
H254 C242 0.929 . S
H255 C244 0.929 . S
O256 Co231 2.351 . S
O256 C259 1.244 . S
O257 Co231 2.155 . S
O257 C259 1.240 . S
O258 Co231 2.096 . S
O258 C239 1.247 . S
C259 O256 1.244 . S
C259 O257 1.240 . S
H260 C234 0.931 . S
H261 C243 0.931 . S
H262 C247 0.929 . S
H263 C249 0.930 . S
Co264 N268 2.148 1_565 S
Co264 N274 2.128 . S
Co264 N284 2.194 . S
Co264 O289 2.351 . S
Co264 O290 2.155 . S
Co264 O291 2.096 . S
C265 N268 1.301 . S
C265 N269 1.328 . S
C265 H270 0.930 . S
C266 C267 1.333 . S
C266 N268 1.317 . S
C266 H271 0.930 . S
C267 C266 1.333 . S
C267 N269 1.350 . S
C267 H293 0.931 . S
N268 Co264 2.148 1_545 S
N268 C265 1.301 . S
N268 C266 1.317 . S
N269 C265 1.328 . S
N269 C267 1.350 . S
H270 C265 0.930 . S
H271 C266 0.930 . S
C272 O273 1.224 . S
C272 O291 1.247 . S
O273 C272 1.224 . S
N274 Co264 2.128 . S
N274 C275 1.355 . S
N274 C277 1.311 . S
C275 N274 1.355 . S
C275 C276 1.363 . S
C275 H287 0.929 . S
C276 C275 1.363 . S
C276 N278 1.375 . S
C276 H294 0.931 . S
C277 N274 1.311 . S
C277 N278 1.347 . S
C277 H288 0.929 . S
N278 C276 1.375 . S
N278 C277 1.347 . S
C279 C282 1.365 . S
C279 N284 1.328 . S
C279 H285 0.929 . S
C280 C281 1.362 . S
C280 C283 1.378 . S
C280 H295 0.929 . S
C281 C280 1.362 . S
C281 C282 1.366 . S
C282 C279 1.365 . S
C282 C281 1.366 . S
C282 H296 0.930 . S
C283 C280 1.378 . S
C283 N284 1.315 . S
C283 H286 0.930 . S
N284 Co264 2.194 . S
N284 C279 1.328 . S
N284 C283 1.315 . S
H285 C279 0.929 . S
H286 C283 0.930 . S
H287 C275 0.929 . S
H288 C277 0.929 . S
O289 Co264 2.351 . S
O289 C292 1.244 . S
O290 Co264 2.155 . S
O290 C292 1.240 . S
O291 Co264 2.096 . S
O291 C272 1.247 . S
C292 O289 1.244 . S
C292 O290 1.240 . S
H293 C267 0.931 . S
H294 C276 0.931 . S
H295 C280 0.929 . S
H296 C282 0.930 . S
Co297 N301 2.148 . S
Co297 N307 2.128 . S
Co297 N317 2.194 . S
Co297 O322 2.351 . S
Co297 O323 2.155 . S
Co297 O324 2.096 . S
C298 N301 1.301 . S
C298 N302 1.328 . S
C298 H303 0.930 . S
C299 C300 1.333 . S
C299 N301 1.317 . S
C299 H304 0.930 . S
C300 C299 1.333 . S
C300 N302 1.350 . S
C300 H326 0.931 . S
N301 Co297 2.148 . S
N301 C298 1.301 . S
N301 C299 1.317 . S
N302 C298 1.328 . S
N302 C300 1.350 . S
H303 C298 0.930 . S
H304 C299 0.930 . S
C305 O306 1.224 . S
C305 O324 1.247 . S
O306 C305 1.224 . S
N307 Co297 2.128 . S
N307 C308 1.355 . S
N307 C310 1.311 . S
C308 N307 1.355 . S
C308 C309 1.363 . S
C308 H320 0.929 . S
C309 C308 1.363 . S
C309 N311 1.375 . S
C309 H327 0.931 . S
C310 N307 1.311 . S
C310 N311 1.347 . S
C310 H321 0.929 . S
N311 C309 1.375 . S
N311 C310 1.347 . S
C312 C315 1.365 . S
C312 N317 1.328 . S
C312 H318 0.929 . S
C313 C314 1.362 . S
C313 C316 1.378 . S
C313 H328 0.929 . S
C314 C313 1.362 . S
C314 C315 1.366 . S
C315 C312 1.365 . S
C315 C314 1.366 . S
C315 H329 0.930 . S
C316 C313 1.378 . S
C316 N317 1.315 . S
C316 H319 0.930 . S
N317 Co297 2.194 . S
N317 C312 1.328 . S
N317 C316 1.315 . S
H318 C312 0.929 . S
H319 C316 0.930 . S
H320 C308 0.929 . S
H321 C310 0.929 . S
O322 Co297 2.351 . S
O322 C325 1.244 . S
O323 Co297 2.155 . S
O323 C325 1.240 . S
O324 Co297 2.096 . S
O324 C305 1.247 . S
C325 O322 1.244 . S
C325 O323 1.240 . S
H326 C300 0.931 . S
H327 C309 0.931 . S
H328 C313 0.929 . S
H329 C315 0.930 . S
Co330 N334 2.148 . S
Co330 N340 2.128 . S
Co330 N350 2.194 . S
Co330 O355 2.351 . S
Co330 O356 2.155 . S
Co330 O357 2.096 . S
C331 N334 1.301 . S
C331 N335 1.328 . S
C331 H336 0.930 . S
C332 C333 1.333 . S
C332 N334 1.317 . S
C332 H337 0.930 . S
C333 C332 1.333 . S
C333 N335 1.350 . S
C333 H359 0.931 . S
N334 Co330 2.148 . S
N334 C331 1.301 . S
N334 C332 1.317 . S
N335 C331 1.328 . S
N335 C333 1.350 . S
H336 C331 0.930 . S
H337 C332 0.930 . S
C338 O339 1.224 . S
C338 O357 1.247 . S
O339 C338 1.224 . S
N340 Co330 2.128 . S
N340 C341 1.355 . S
N340 C343 1.311 . S
C341 N340 1.355 . S
C341 C342 1.363 . S
C341 H353 0.929 . S
C342 C341 1.363 . S
C342 N344 1.375 . S
C342 H360 0.931 . S
C343 N340 1.311 . S
C343 N344 1.347 . S
C343 H354 0.929 . S
N344 C342 1.375 . S
N344 C343 1.347 . S
C345 C348 1.365 . S
C345 N350 1.328 . S
C345 H351 0.929 . S
C346 C347 1.362 . S
C346 C349 1.378 . S
C346 H361 0.929 . S
C347 C346 1.362 . S
C347 C348 1.366 . S
C348 C345 1.365 . S
C348 C347 1.366 . S
C348 H362 0.930 . S
C349 C346 1.378 . S
C349 N350 1.315 . S
C349 H352 0.930 . S
N350 Co330 2.194 . S
N350 C345 1.328 . S
N350 C349 1.315 . S
H351 C345 0.929 . S
H352 C349 0.930 . S
H353 C341 0.929 . S
H354 C343 0.929 . S
O355 Co330 2.351 . S
O355 C358 1.244 . S
O356 Co330 2.155 . S
O356 C358 1.240 . S
O357 Co330 2.096 . S
O357 C338 1.247 . S
C358 O355 1.244 . S
C358 O356 1.240 . S
H359 C333 0.931 . S
H360 C342 0.931 . S
H361 C346 0.929 . S
H362 C348 0.930 . S
Co363 N367 2.148 1_655 S
Co363 N373 2.128 . S
Co363 N383 2.194 . S
Co363 O388 2.351 . S
Co363 O389 2.155 . S
Co363 O390 2.096 . S
C364 N367 1.301 . S
C364 N368 1.328 . S
C364 H369 0.930 . S
C365 C366 1.333 . S
C365 N367 1.317 . S
C365 H370 0.930 . S
C366 C365 1.333 . S
C366 N368 1.350 . S
C366 H392 0.931 . S
N367 Co363 2.148 1_455 S
N367 C364 1.301 . S
N367 C365 1.317 . S
N368 C364 1.328 . S
N368 C366 1.350 . S
H369 C364 0.930 . S
H370 C365 0.930 . S
C371 O372 1.224 . S
C371 O390 1.247 . S
O372 C371 1.224 . S
N373 Co363 2.128 . S
N373 C374 1.355 . S
N373 C376 1.311 . S
C374 N373 1.355 . S
C374 C375 1.363 . S
C374 H386 0.929 . S
C375 C374 1.363 . S
C375 N377 1.375 . S
C375 H393 0.931 . S
C376 N373 1.311 . S
C376 N377 1.347 . S
C376 H387 0.929 . S
N377 C375 1.375 . S
N377 C376 1.347 . S
C378 C381 1.365 . S
C378 N383 1.328 . S
C378 H384 0.929 . S
C379 C380 1.362 . S
C379 C382 1.378 . S
C379 H394 0.929 . S
C380 C379 1.362 . S
C380 C381 1.366 . S
C381 C378 1.365 . S
C381 C380 1.366 . S
C381 H395 0.930 . S
C382 C379 1.378 . S
C382 N383 1.315 . S
C382 H385 0.930 . S
N383 Co363 2.194 . S
N383 C378 1.328 . S
N383 C382 1.315 . S
H384 C378 0.929 . S
H385 C382 0.930 . S
H386 C374 0.929 . S
H387 C376 0.929 . S
O388 Co363 2.351 . S
O388 C391 1.244 . S
O389 Co363 2.155 . S
O389 C391 1.240 . S
O390 Co363 2.096 . S
O390 C371 1.247 . S
C391 O388 1.244 . S
C391 O389 1.240 . S
H392 C366 0.931 . S
H393 C375 0.931 . S
H394 C379 0.929 . S
H395 C381 0.930 . S
Co396 N400 2.148 . S
Co396 N406 2.128 . S
Co396 N416 2.194 . S
Co396 O421 2.351 . S
Co396 O422 2.155 . S
Co396 O423 2.096 . S
C397 N400 1.301 . S
C397 N401 1.328 . S
C397 H402 0.930 . S
C398 C399 1.333 . S
C398 N400 1.317 . S
C398 H403 0.930 . S
C399 C398 1.333 . S
C399 N401 1.350 . S
C399 H425 0.931 . S
N400 Co396 2.148 . S
N400 C397 1.301 . S
N400 C398 1.317 . S
N401 C397 1.328 . S
N401 C399 1.350 . S
H402 C397 0.930 . S
H403 C398 0.930 . S
C404 O405 1.224 . S
C404 O423 1.247 . S
O405 C404 1.224 . S
N406 Co396 2.128 . S
N406 C407 1.355 . S
N406 C409 1.311 . S
C407 N406 1.355 . S
C407 C408 1.363 . S
C407 H419 0.929 . S
C408 C407 1.363 . S
C408 N410 1.375 . S
C408 H426 0.931 . S
C409 N406 1.311 . S
C409 N410 1.347 . S
C409 H420 0.929 . S
N410 C408 1.375 . S
N410 C409 1.347 . S
C411 C414 1.365 . S
C411 N416 1.328 . S
C411 H417 0.929 . S
C412 C413 1.362 . S
C412 C415 1.378 . S
C412 H427 0.929 . S
C413 C412 1.362 . S
C413 C414 1.366 . S
C414 C411 1.365 . S
C414 C413 1.366 . S
C414 H428 0.930 . S
C415 C412 1.378 . S
C415 N416 1.315 . S
C415 H418 0.930 . S
N416 Co396 2.194 . S
N416 C411 1.328 . S
N416 C415 1.315 . S
H417 C411 0.929 . S
H418 C415 0.930 . S
H419 C407 0.929 . S
H420 C409 0.929 . S
O421 Co396 2.351 . S
O421 C424 1.244 . S
O422 Co396 2.155 . S
O422 C424 1.240 . S
O423 Co396 2.096 . S
O423 C404 1.247 . S
C424 O421 1.244 . S
C424 O422 1.240 . S
H425 C399 0.931 . S
H426 C408 0.931 . S
H427 C412 0.929 . S
H428 C414 0.930 . S
Co429 N433 2.148 1_655 S
Co429 N439 2.128 . S
Co429 N449 2.194 . S
Co429 O454 2.351 . S
Co429 O455 2.155 . S
Co429 O456 2.096 . S
C430 N433 1.301 . S
C430 N434 1.328 . S
C430 H435 0.930 . S
C431 C432 1.333 . S
C431 N433 1.317 . S
C431 H436 0.930 . S
C432 C431 1.333 . S
C432 N434 1.350 . S
C432 H458 0.931 . S
N433 Co429 2.148 1_455 S
N433 C430 1.301 . S
N433 C431 1.317 . S
N434 C430 1.328 . S
N434 C432 1.350 . S
H435 C430 0.930 . S
H436 C431 0.930 . S
C437 O438 1.224 . S
C437 O456 1.247 . S
O438 C437 1.224 . S
N439 Co429 2.128 . S
N439 C440 1.355 . S
N439 C442 1.311 . S
C440 N439 1.355 . S
C440 C441 1.363 . S
C440 H452 0.929 . S
C441 C440 1.363 . S
C441 N443 1.375 . S
C441 H459 0.931 . S
C442 N439 1.311 . S
C442 N443 1.347 . S
C442 H453 0.929 . S
N443 C441 1.375 . S
N443 C442 1.347 . S
C444 C447 1.365 . S
C444 N449 1.328 . S
C444 H450 0.929 . S
C445 C446 1.362 . S
C445 C448 1.378 . S
C445 H460 0.929 . S
C446 C445 1.362 . S
C446 C447 1.366 . S
C447 C444 1.365 . S
C447 C446 1.366 . S
C447 H461 0.930 . S
C448 C445 1.378 . S
C448 N449 1.315 . S
C448 H451 0.930 . S
N449 Co429 2.194 . S
N449 C444 1.328 . S
N449 C448 1.315 . S
H450 C444 0.929 . S
H451 C448 0.930 . S
H452 C440 0.929 . S
H453 C442 0.929 . S
O454 Co429 2.351 . S
O454 C457 1.244 . S
O455 Co429 2.155 . S
O455 C457 1.240 . S
O456 Co429 2.096 . S
O456 C437 1.247 . S
C457 O454 1.244 . S
C457 O455 1.240 . S
H458 C432 0.931 . S
H459 C441 0.931 . S
H460 C445 0.929 . S
H461 C447 0.930 . S
Co462 N466 2.148 1_565 S
Co462 N472 2.128 . S
Co462 N482 2.194 . S
Co462 O487 2.351 . S
Co462 O488 2.155 . S
Co462 O489 2.096 . S
C463 N466 1.301 . S
C463 N467 1.328 . S
C463 H468 0.930 . S
C464 C465 1.333 . S
C464 N466 1.317 . S
C464 H469 0.930 . S
C465 C464 1.333 . S
C465 N467 1.350 . S
C465 H491 0.931 . S
N466 Co462 2.148 1_545 S
N466 C463 1.301 . S
N466 C464 1.317 . S
N467 C463 1.328 . S
N467 C465 1.350 . S
H468 C463 0.930 . S
H469 C464 0.930 . S
C470 O471 1.224 . S
C470 O489 1.247 . S
O471 C470 1.224 . S
N472 Co462 2.128 . S
N472 C473 1.355 . S
N472 C475 1.311 . S
C473 N472 1.355 . S
C473 C474 1.363 . S
C473 H485 0.929 . S
C474 C473 1.363 . S
C474 N476 1.375 . S
C474 H492 0.931 . S
C475 N472 1.311 . S
C475 N476 1.347 . S
C475 H486 0.929 . S
N476 C474 1.375 . S
N476 C475 1.347 . S
C477 C480 1.365 . S
C477 N482 1.328 . S
C477 H483 0.929 . S
C478 C479 1.362 . S
C478 C481 1.378 . S
C478 H493 0.929 . S
C479 C478 1.362 . S
C479 C480 1.366 . S
C480 C477 1.365 . S
C480 C479 1.366 . S
C480 H494 0.930 . S
C481 C478 1.378 . S
C481 N482 1.315 . S
C481 H484 0.930 . S
N482 Co462 2.194 . S
N482 C477 1.328 . S
N482 C481 1.315 . S
H483 C477 0.929 . S
H484 C481 0.930 . S
H485 C473 0.929 . S
H486 C475 0.929 . S
O487 Co462 2.351 . S
O487 C490 1.244 . S
O488 Co462 2.155 . S
O488 C490 1.240 . S
O489 Co462 2.096 . S
O489 C470 1.247 . S
C490 O487 1.244 . S
C490 O488 1.240 . S
H491 C465 0.931 . S
H492 C474 0.931 . S
H493 C478 0.929 . S
H494 C480 0.930 . S
Co495 N499 2.148 . S
Co495 N505 2.128 . S
Co495 N515 2.194 . S
Co495 O520 2.351 . S
Co495 O521 2.155 . S
Co495 O522 2.096 . S
C496 N499 1.301 . S
C496 N500 1.328 . S
C496 H501 0.930 . S
C497 C498 1.333 . S
C497 N499 1.317 . S
C497 H502 0.930 . S
C498 C497 1.333 . S
C498 N500 1.350 . S
C498 H524 0.931 . S
N499 Co495 2.148 . S
N499 C496 1.301 . S
N499 C497 1.317 . S
N500 C496 1.328 . S
N500 C498 1.350 . S
H501 C496 0.930 . S
H502 C497 0.930 . S
C503 O504 1.224 . S
C503 O522 1.247 . S
O504 C503 1.224 . S
N505 Co495 2.128 . S
N505 C506 1.355 . S
N505 C508 1.311 . S
C506 N505 1.355 . S
C506 C507 1.363 . S
C506 H518 0.929 . S
C507 C506 1.363 . S
C507 N509 1.375 . S
C507 H525 0.931 . S
C508 N505 1.311 . S
C508 N509 1.347 . S
C508 H519 0.929 . S
N509 C507 1.375 . S
N509 C508 1.347 . S
C510 C513 1.365 . S
C510 N515 1.328 . S
C510 H516 0.929 . S
C511 C512 1.362 . S
C511 C514 1.378 . S
C511 H526 0.929 . S
C512 C511 1.362 . S
C512 C513 1.366 . S
C513 C510 1.365 . S
C513 C512 1.366 . S
C513 H527 0.930 . S
C514 C511 1.378 . S
C514 N515 1.315 . S
C514 H517 0.930 . S
N515 Co495 2.194 . S
N515 C510 1.328 . S
N515 C514 1.315 . S
H516 C510 0.929 . S
H517 C514 0.930 . S
H518 C506 0.929 . S
H519 C508 0.929 . S
O520 Co495 2.351 . S
O520 C523 1.244 . S
O521 Co495 2.155 . S
O521 C523 1.240 . S
O522 Co495 2.096 . S
O522 C503 1.247 . S
C523 O520 1.244 . S
C523 O521 1.240 . S
H524 C498 0.931 . S
H525 C507 0.931 . S
H526 C511 0.929 . S
H527 C513 0.930 . S
C528 C529 1.363 . S
C528 C534 1.379 . S
C528 N536 1.356 . S
C529 C528 1.363 . S
C529 C535 1.363 . S
C530 C531 1.363 . S
C530 C535 1.379 . S
C530 N537 1.356 . S
C531 C530 1.363 . S
C531 C534 1.363 . S
N532 C534 1.356 . S
N532 H544 0.984 . S
N532 H545 0.985 . S
N533 C535 1.356 . S
N533 H538 0.984 . S
N533 H539 0.985 . S
C534 C528 1.379 . S
C534 C531 1.363 . S
C534 N532 1.356 . S
C535 C529 1.363 . S
C535 C530 1.379 . S
C535 N533 1.356 . S
N536 C528 1.356 . S
N536 H542 0.984 . S
N536 H543 0.984 . S
N537 C530 1.356 . S
N537 H540 0.984 . S
N537 H541 0.985 . S
H538 N533 0.984 . S
H539 N533 0.985 . S
H540 N537 0.984 . S
H541 N537 0.985 . S
H542 N536 0.984 . S
H543 N536 0.984 . S
H544 N532 0.984 . S
H545 N532 0.985 . S
C546 C547 1.363 . S
C546 C552 1.379 . S
C546 N554 1.356 . S
C547 C546 1.363 . S
C547 C553 1.363 . S
C548 C549 1.363 . S
C548 C553 1.379 . S
C548 N555 1.356 . S
C549 C548 1.363 . S
C549 C552 1.363 . S
N550 C552 1.356 . S
N550 H562 0.984 . S
N550 H563 0.985 . S
N551 C553 1.356 . S
N551 H556 0.984 . S
N551 H557 0.985 . S
C552 C546 1.379 . S
C552 C549 1.363 . S
C552 N550 1.356 . S
C553 C547 1.363 . S
C553 C548 1.379 . S
C553 N551 1.356 . S
N554 C546 1.356 . S
N554 H560 0.984 . S
N554 H561 0.984 . S
N555 C548 1.356 . S
N555 H558 0.984 . S
N555 H559 0.985 . S
H556 N551 0.984 . S
H557 N551 0.985 . S
H558 N555 0.984 . S
H559 N555 0.985 . S
H560 N554 0.984 . S
H561 N554 0.984 . S
H562 N550 0.984 . S
H563 N550 0.985 . S
C564 C565 1.363 . S
C564 C570 1.379 . S
C564 N572 1.356 . S
C565 C564 1.363 . S
C565 C571 1.363 . S
C566 C567 1.363 . S
C566 C571 1.379 . S
C566 N573 1.356 . S
C567 C566 1.363 . S
C567 C570 1.363 . S
N568 C570 1.356 . S
N568 H580 0.984 . S
N568 H581 0.985 . S
N569 C571 1.356 . S
N569 H574 0.984 . S
N569 H575 0.985 . S
C570 C564 1.379 . S
C570 C567 1.363 . S
C570 N568 1.356 . S
C571 C565 1.363 . S
C571 C566 1.379 . S
C571 N569 1.356 . S
N572 C564 1.356 . S
N572 H578 0.984 . S
N572 H579 0.984 . S
N573 C566 1.356 . S
N573 H576 0.984 . S
N573 H577 0.985 . S
H574 N569 0.984 . S
H575 N569 0.985 . S
H576 N573 0.984 . S
H577 N573 0.985 . S
H578 N572 0.984 . S
H579 N572 0.984 . S
H580 N568 0.984 . S
H581 N568 0.985 . S
C582 C583 1.363 . S
C582 C588 1.379 . S
C582 N590 1.356 . S
C583 C582 1.363 . S
C583 C589 1.363 . S
C584 C585 1.363 . S
C584 C589 1.379 . S
C584 N591 1.356 . S
C585 C584 1.363 . S
C585 C588 1.363 . S
N586 C588 1.356 . S
N586 H598 0.984 . S
N586 H599 0.985 . S
N587 C589 1.356 . S
N587 H592 0.984 . S
N587 H593 0.985 . S
C588 C582 1.379 . S
C588 C585 1.363 . S
C588 N586 1.356 . S
C589 C583 1.363 . S
C589 C584 1.379 . S
C589 N587 1.356 . S
N590 C582 1.356 . S
N590 H596 0.984 . S
N590 H597 0.984 . S
N591 C584 1.356 . S
N591 H594 0.984 . S
N591 H595 0.985 . S
H592 N587 0.984 . S
H593 N587 0.985 . S
H594 N591 0.984 . S
H595 N591 0.985 . S
H596 N590 0.984 . S
H597 N590 0.984 . S
H598 N586 0.984 . S
H599 N586 0.985 . S
C600 C601 1.363 . S
C600 C606 1.379 . S
C600 N608 1.356 . S
C601 C600 1.363 . S
C601 C607 1.363 . S
C602 C603 1.363 . S
C602 C607 1.379 . S
C602 N609 1.356 . S
C603 C602 1.363 . S
C603 C606 1.363 . S
N604 C606 1.356 . S
N604 H616 0.984 . S
N604 H617 0.985 . S
N605 C607 1.356 . S
N605 H610 0.984 . S
N605 H611 0.985 . S
C606 C600 1.379 . S
C606 C603 1.363 . S
C606 N604 1.356 . S
C607 C601 1.363 . S
C607 C602 1.379 . S
C607 N605 1.356 . S
N608 C600 1.356 . S
N608 H614 0.984 . S
N608 H615 0.984 . S
N609 C602 1.356 . S
N609 H612 0.984 . S
N609 H613 0.985 . S
H610 N605 0.984 . S
H611 N605 0.985 . S
H612 N609 0.984 . S
H613 N609 0.985 . S
H614 N608 0.984 . S
H615 N608 0.984 . S
H616 N604 0.984 . S
H617 N604 0.985 . S
C618 C619 1.363 . S
C618 C624 1.379 . S
C618 N626 1.356 . S
C619 C618 1.363 . S
C619 C625 1.363 . S
C620 C621 1.363 . S
C620 C625 1.379 . S
C620 N627 1.356 . S
C621 C620 1.363 . S
C621 C624 1.363 . S
N622 C624 1.356 . S
N622 H634 0.984 . S
N622 H635 0.985 . S
N623 C625 1.356 . S
N623 H628 0.984 . S
N623 H629 0.985 . S
C624 C618 1.379 . S
C624 C621 1.363 . S
C624 N622 1.356 . S
C625 C619 1.363 . S
C625 C620 1.379 . S
C625 N623 1.356 . S
N626 C618 1.356 . S
N626 H632 0.984 . S
N626 H633 0.984 . S
N627 C620 1.356 . S
N627 H630 0.984 . S
N627 H631 0.985 . S
H628 N623 0.984 . S
H629 N623 0.985 . S
H630 N627 0.984 . S
H631 N627 0.985 . S
H632 N626 0.984 . S
H633 N626 0.984 . S
H634 N622 0.984 . S
H635 N622 0.985 . S
C636 C637 1.363 . S
C636 C642 1.379 . S
C636 N644 1.356 . S
C637 C636 1.363 . S
C637 C643 1.363 . S
C638 C639 1.363 . S
C638 C643 1.379 . S
C638 N645 1.356 . S
C639 C638 1.363 . S
C639 C642 1.363 . S
N640 C642 1.356 . S
N640 H652 0.984 . S
N640 H653 0.985 . S
N641 C643 1.356 . S
N641 H646 0.984 . S
N641 H647 0.985 . S
C642 C636 1.379 . S
C642 C639 1.363 . S
C642 N640 1.356 . S
C643 C637 1.363 . S
C643 C638 1.379 . S
C643 N641 1.356 . S
N644 C636 1.356 . S
N644 H650 0.984 . S
N644 H651 0.984 . S
N645 C638 1.356 . S
N645 H648 0.984 . S
N645 H649 0.985 . S
H646 N641 0.984 . S
H647 N641 0.985 . S
H648 N645 0.984 . S
H649 N645 0.985 . S
H650 N644 0.984 . S
H651 N644 0.984 . S
H652 N640 0.984 . S
H653 N640 0.985 . S
C654 C655 1.363 . S
C654 C660 1.379 . S
C654 N662 1.356 . S
C655 C654 1.363 . S
C655 C661 1.363 . S
C656 C657 1.363 . S
C656 C661 1.379 . S
C656 N663 1.356 . S
C657 C656 1.363 . S
C657 C660 1.363 . S
N658 C660 1.356 . S
N658 H670 0.984 . S
N658 H671 0.985 . S
N659 C661 1.356 . S
N659 H664 0.984 . S
N659 H665 0.985 . S
C660 C654 1.379 . S
C660 C657 1.363 . S
C660 N658 1.356 . S
C661 C655 1.363 . S
C661 C656 1.379 . S
C661 N659 1.356 . S
N662 C654 1.356 . S
N662 H668 0.984 . S
N662 H669 0.984 . S
N663 C656 1.356 . S
N663 H666 0.984 . S
N663 H667 0.985 . S
H664 N659 0.984 . S
H665 N659 0.985 . S
H666 N663 0.984 . S
H667 N663 0.985 . S
H668 N662 0.984 . S
H669 N662 0.984 . S
H670 N658 0.984 . S
H671 N658 0.985 . S
C672 C673 1.363 . S
C672 C678 1.379 . S
C672 N680 1.356 . S
C673 C672 1.363 . S
C673 C679 1.363 . S
C674 C675 1.363 . S
C674 C679 1.379 . S
C674 N681 1.356 . S
C675 C674 1.363 . S
C675 C678 1.363 . S
N676 C678 1.356 . S
N676 H688 0.984 . S
N676 H689 0.985 . S
N677 C679 1.356 . S
N677 H682 0.984 . S
N677 H683 0.985 . S
C678 C672 1.379 . S
C678 C675 1.363 . S
C678 N676 1.356 . S
C679 C673 1.363 . S
C679 C674 1.379 . S
C679 N677 1.356 . S
N680 C672 1.356 . S
N680 H686 0.984 . S
N680 H687 0.984 . S
N681 C674 1.356 . S
N681 H684 0.984 . S
N681 H685 0.985 . S
H682 N677 0.984 . S
H683 N677 0.985 . S
H684 N681 0.984 . S
H685 N681 0.985 . S
H686 N680 0.984 . S
H687 N680 0.984 . S
H688 N676 0.984 . S
H689 N676 0.985 . S
C690 C691 1.363 . S
C690 C696 1.379 . S
C690 N698 1.356 . S
C691 C690 1.363 . S
C691 C697 1.363 . S
C692 C693 1.363 . S
C692 C697 1.379 . S
C692 N699 1.356 . S
C693 C692 1.363 . S
C693 C696 1.363 . S
N694 C696 1.356 . S
N694 H706 0.984 . S
N694 H707 0.985 . S
N695 C697 1.356 . S
N695 H700 0.984 . S
N695 H701 0.985 . S
C696 C690 1.379 . S
C696 C693 1.363 . S
C696 N694 1.356 . S
C697 C691 1.363 . S
C697 C692 1.379 . S
C697 N695 1.356 . S
N698 C690 1.356 . S
N698 H704 0.984 . S
N698 H705 0.984 . S
N699 C692 1.356 . S
N699 H702 0.984 . S
N699 H703 0.985 . S
H700 N695 0.984 . S
H701 N695 0.985 . S
H702 N699 0.984 . S
H703 N699 0.985 . S
H704 N698 0.984 . S
H705 N698 0.984 . S
H706 N694 0.984 . S
H707 N694 0.985 . S
C708 C709 1.363 . S
C708 C714 1.379 . S
C708 N716 1.356 . S
C709 C708 1.363 . S
C709 C715 1.363 . S
C710 C711 1.363 . S
C710 C715 1.379 . S
C710 N717 1.356 . S
C711 C710 1.363 . S
C711 C714 1.363 . S
N712 C714 1.356 . S
N712 H724 0.984 . S
N712 H725 0.985 . S
N713 C715 1.356 . S
N713 H718 0.984 . S
N713 H719 0.985 . S
C714 C708 1.379 . S
C714 C711 1.363 . S
C714 N712 1.356 . S
C715 C709 1.363 . S
C715 C710 1.379 . S
C715 N713 1.356 . S
N716 C708 1.356 . S
N716 H722 0.984 . S
N716 H723 0.984 . S
N717 C710 1.356 . S
N717 H720 0.984 . S
N717 H721 0.985 . S
H718 N713 0.984 . S
H719 N713 0.985 . S
H720 N717 0.984 . S
H721 N717 0.985 . S
H722 N716 0.984 . S
H723 N716 0.984 . S
H724 N712 0.984 . S
H725 N712 0.985 . S
C726 C727 1.363 . S
C726 C732 1.379 . S
C726 N734 1.356 . S
C727 C726 1.363 . S
C727 C733 1.363 . S
C728 C729 1.363 . S
C728 C733 1.379 . S
C728 N735 1.356 . S
C729 C728 1.363 . S
C729 C732 1.363 . S
N730 C732 1.356 . S
N730 H742 0.984 . S
N730 H743 0.985 . S
N731 C733 1.356 . S
N731 H736 0.984 1_565 S
N731 H737 0.985 . S
C732 C726 1.379 . S
C732 C729 1.363 . S
C732 N730 1.356 . S
C733 C727 1.363 . S
C733 C728 1.379 . S
C733 N731 1.356 . S
N734 C726 1.356 . S
N734 H740 0.984 . S
N734 H741 0.984 . S
N735 C728 1.356 . S
N735 H738 0.984 . S
N735 H739 0.985 1_455 S
H736 N731 0.984 1_545 S
H737 N731 0.985 . S
H738 N735 0.984 . S
H739 N735 0.985 1_655 S
H740 N734 0.984 . S
H741 N734 0.984 . S
H742 N730 0.984 . S
H743 N730 0.985 . S
C744 C745 1.363 . S
C744 C750 1.379 . S
C744 N752 1.356 . S
C745 C744 1.363 . S
C745 C751 1.363 . S
C746 C747 1.363 . S
C746 C751 1.379 . S
C746 N753 1.356 . S
C747 C746 1.363 . S
C747 C750 1.363 . S
N748 C750 1.356 . S
N748 H760 0.984 . S
N748 H761 0.985 . S
N749 C751 1.356 . S
N749 H754 0.984 . S
N749 H755 0.985 . S
C750 C744 1.379 . S
C750 C747 1.363 . S
C750 N748 1.356 . S
C751 C745 1.363 . S
C751 C746 1.379 . S
C751 N749 1.356 . S
N752 C744 1.356 . S
N752 H758 0.984 . S
N752 H759 0.984 . S
N753 C746 1.356 . S
N753 H756 0.984 . S
N753 H757 0.985 . S
H754 N749 0.984 . S
H755 N749 0.985 . S
H756 N753 0.984 . S
H757 N753 0.985 . S
H758 N752 0.984 . S
H759 N752 0.984 . S
H760 N748 0.984 . S
H761 N748 0.985 . S
C762 C763 1.363 . S
C762 C768 1.379 . S
C762 N770 1.356 . S
C763 C762 1.363 . S
C763 C769 1.363 . S
C764 C765 1.363 . S
C764 C769 1.379 . S
C764 N771 1.356 . S
C765 C764 1.363 . S
C765 C768 1.363 . S
N766 C768 1.356 . S
N766 H778 0.984 . S
N766 H779 0.985 . S
N767 C769 1.356 . S
N767 H772 0.984 . S
N767 H773 0.985 . S
C768 C762 1.379 . S
C768 C765 1.363 . S
C768 N766 1.356 . S
C769 C763 1.363 . S
C769 C764 1.379 . S
C769 N767 1.356 . S
N770 C762 1.356 . S
N770 H776 0.984 . S
N770 H777 0.984 . S
N771 C764 1.356 . S
N771 H774 0.984 . S
N771 H775 0.985 . S
H772 N767 0.984 . S
H773 N767 0.985 . S
H774 N771 0.984 . S
H775 N771 0.985 . S
H776 N770 0.984 . S
H777 N770 0.984 . S
H778 N766 0.984 . S
H779 N766 0.985 . S
C780 C781 1.363 . S
C780 C786 1.379 . S
C780 N788 1.356 . S
C781 C780 1.363 . S
C781 C787 1.363 . S
C782 C783 1.363 . S
C782 C787 1.379 . S
C782 N789 1.356 . S
C783 C782 1.363 . S
C783 C786 1.363 . S
N784 C786 1.356 . S
N784 H796 0.984 . S
N784 H797 0.985 . S
N785 C787 1.356 . S
N785 H790 0.984 . S
N785 H791 0.985 . S
C786 C780 1.379 . S
C786 C783 1.363 . S
C786 N784 1.356 . S
C787 C781 1.363 . S
C787 C782 1.379 . S
C787 N785 1.356 . S
N788 C780 1.356 . S
N788 H794 0.984 . S
N788 H795 0.984 . S
N789 C782 1.356 . S
N789 H792 0.984 . S
N789 H793 0.985 . S
H790 N785 0.984 . S
H791 N785 0.985 . S
H792 N789 0.984 . S
H793 N789 0.985 . S
H794 N788 0.984 . S
H795 N788 0.984 . S
H796 N784 0.984 . S
H797 N784 0.985 . S
C798 C799 1.363 . S
C798 C804 1.379 . S
C798 N806 1.356 . S
C799 C798 1.363 . S
C799 C805 1.363 . S
C800 C801 1.363 . S
C800 C805 1.379 . S
C800 N807 1.356 . S
C801 C800 1.363 . S
C801 C804 1.363 . S
N802 C804 1.356 . S
N802 H814 0.984 . S
N802 H815 0.985 . S
N803 C805 1.356 . S
N803 H808 0.984 1_565 S
N803 H809 0.985 . S
C804 C798 1.379 . S
C804 C801 1.363 . S
C804 N802 1.356 . S
C805 C799 1.363 . S
C805 C800 1.379 . S
C805 N803 1.356 . S
N806 C798 1.356 . S
N806 H812 0.984 . S
N806 H813 0.984 . S
N807 C800 1.356 . S
N807 H810 0.984 . S
N807 H811 0.985 . S
H808 N803 0.984 1_545 S
H809 N803 0.985 . S
H810 N807 0.984 . S
H811 N807 0.985 . S
H812 N806 0.984 . S
H813 N806 0.984 . S
H814 N802 0.984 . S
H815 N802 0.985 . S
C816 C817 1.363 . S
C816 C822 1.379 . S
C816 N824 1.356 . S
C817 C816 1.363 . S
C817 C823 1.363 . S
C818 C819 1.363 . S
C818 C823 1.379 . S
C818 N825 1.356 . S
C819 C818 1.363 . S
C819 C822 1.363 . S
N820 C822 1.356 . S
N820 H832 0.984 . S
N820 H833 0.985 . S
N821 C823 1.356 . S
N821 H826 0.984 . S
N821 H827 0.985 . S
C822 C816 1.379 . S
C822 C819 1.363 . S
C822 N820 1.356 . S
C823 C817 1.363 . S
C823 C818 1.379 . S
C823 N821 1.356 . S
N824 C816 1.356 . S
N824 H830 0.984 . S
N824 H831 0.984 . S
N825 C818 1.356 . S
N825 H828 0.984 . S
N825 H829 0.985 . S
H826 N821 0.984 . S
H827 N821 0.985 . S
H828 N825 0.984 . S
H829 N825 0.985 . S
H830 N824 0.984 . S
H831 N824 0.984 . S
H832 N820 0.984 . S
H833 N820 0.985 . S
C834 C835 1.363 . S
C834 C840 1.379 . S
C834 N842 1.356 . S
C835 C834 1.363 . S
C835 C841 1.363 . S
C836 C837 1.363 . S
C836 C841 1.379 . S
C836 N843 1.356 . S
C837 C836 1.363 . S
C837 C840 1.363 . S
N838 C840 1.356 . S
N838 H850 0.984 . S
N838 H851 0.985 . S
N839 C841 1.356 . S
N839 H844 0.984 . S
N839 H845 0.985 . S
C840 C834 1.379 . S
C840 C837 1.363 . S
C840 N838 1.356 . S
C841 C835 1.363 . S
C841 C836 1.379 . S
C841 N839 1.356 . S
N842 C834 1.356 . S
N842 H848 0.984 . S
N842 H849 0.984 . S
N843 C836 1.356 . S
N843 H846 0.984 . S
N843 H847 0.985 . S
H844 N839 0.984 . S
H845 N839 0.985 . S
H846 N843 0.984 . S
H847 N843 0.985 . S
H848 N842 0.984 . S
H849 N842 0.984 . S
H850 N838 0.984 . S
H851 N838 0.985 . S
C852 C853 1.363 . S
C852 C858 1.379 . S
C852 N860 1.356 . S
C853 C852 1.363 . S
C853 C859 1.363 . S
C854 C855 1.363 . S
C854 C859 1.379 . S
C854 N861 1.356 . S
C855 C854 1.363 . S
C855 C858 1.363 . S
N856 C858 1.356 . S
N856 H868 0.984 . S
N856 H869 0.985 . S
N857 C859 1.356 . S
N857 H862 0.984 . S
N857 H863 0.972 1_455 S
C858 C852 1.379 . S
C858 C855 1.363 . S
C858 N856 1.356 . S
C859 C853 1.363 . S
C859 C854 1.379 . S
C859 N857 1.356 . S
N860 C852 1.356 . S
N860 H866 0.984 . S
N860 H867 0.984 . S
N861 C854 1.356 . S
N861 H864 0.984 . S
N861 H865 0.985 . S
H862 N857 0.984 . S
H863 N857 0.972 1_655 S
H864 N861 0.984 . S
H865 N861 0.985 . S
H866 N860 0.984 . S
H867 N860 0.984 . S
H868 N856 0.984 . S
H869 N856 0.985 . S
C870 C871 1.363 . S
C870 C876 1.379 . S
C870 N878 1.356 . S
C871 C870 1.363 . S
C871 C877 1.363 . S
C872 C873 1.363 . S
C872 C877 1.379 . S
C872 N879 1.356 . S
C873 C872 1.363 . S
C873 C876 1.363 . S
N874 C876 1.356 . S
N874 H886 0.984 . S
N874 H887 0.985 . S
N875 C877 1.356 . S
N875 H880 0.984 . S
N875 H881 0.985 . S
C876 C870 1.379 . S
C876 C873 1.363 . S
C876 N874 1.356 . S
C877 C871 1.363 . S
C877 C872 1.379 . S
C877 N875 1.356 . S
N878 C870 1.356 . S
N878 H884 0.984 . S
N878 H885 0.984 . S
N879 C872 1.356 . S
N879 H882 0.984 . S
N879 H883 0.985 . S
H880 N875 0.984 . S
H881 N875 0.985 . S
H882 N879 0.984 . S
H883 N879 0.985 . S
H884 N878 0.984 . S
H885 N878 0.984 . S
H886 N874 0.984 . S
H887 N874 0.985 . S
C888 C889 1.363 . S
C888 C894 1.379 . S
C888 N896 1.356 . S
C889 C888 1.363 . S
C889 C895 1.363 . S
C890 C891 1.363 . S
C890 C895 1.379 . S
C890 N897 1.356 . S
C891 C890 1.363 . S
C891 C894 1.363 . S
N892 C894 1.356 . S
N892 H904 0.984 . S
N892 H905 0.985 . S
N893 C895 1.356 . S
N893 H898 0.984 . S
N893 H899 0.985 . S
C894 C888 1.379 . S
C894 C891 1.363 . S
C894 N892 1.356 . S
C895 C889 1.363 . S
C895 C890 1.379 . S
C895 N893 1.356 . S
N896 C888 1.356 . S
N896 H902 0.984 . S
N896 H903 0.984 . S
N897 C890 1.356 . S
N897 H900 0.984 . S
N897 H901 0.985 . S
H898 N893 0.984 . S
H899 N893 0.985 . S
H900 N897 0.984 . S
H901 N897 0.985 . S
H902 N896 0.984 . S
H903 N896 0.984 . S
H904 N892 0.984 . S
H905 N892 0.985 . S
C906 C907 1.363 . S
C906 C912 1.379 . S
C906 N914 1.356 . S
C907 C906 1.363 . S
C907 C913 1.363 . S
C908 C909 1.363 . S
C908 C913 1.379 . S
C908 N915 1.356 . S
C909 C908 1.363 . S
C909 C912 1.363 . S
N910 C912 1.356 . S
N910 H922 0.984 . S
N910 H923 0.985 . S
N911 C913 1.356 . S
N911 H916 0.984 . S
N911 H917 0.985 . S
C912 C906 1.379 . S
C912 C909 1.363 . S
C912 N910 1.356 . S
C913 C907 1.363 . S
C913 C908 1.379 . S
C913 N911 1.356 . S
N914 C906 1.356 . S
N914 H920 0.984 . S
N914 H921 0.984 . S
N915 C908 1.356 . S
N915 H918 0.984 . S
N915 H919 0.985 . S
H916 N911 0.984 . S
H917 N911 0.985 . S
H918 N915 0.984 . S
H919 N915 0.985 . S
H920 N914 0.984 . S
H921 N914 0.984 . S
H922 N910 0.984 . S
H923 N910 0.985 . S
C924 C925 1.363 . S
C924 C930 1.379 . S
C924 N932 1.356 . S
C925 C924 1.363 . S
C925 C931 1.363 . S
C926 C927 1.363 . S
C926 C931 1.379 . S
C926 N933 1.356 . S
C927 C926 1.363 . S
C927 C930 1.363 . S
N928 C930 1.356 . S
N928 H940 0.984 . S
N928 H941 0.985 . S
N929 C931 1.356 . S
N929 H934 0.984 . S
N929 H935 0.985 . S
C930 C924 1.379 . S
C930 C927 1.363 . S
C930 N928 1.356 . S
C931 C925 1.363 . S
C931 C926 1.379 . S
C931 N929 1.356 . S
N932 C924 1.356 . S
N932 H938 0.984 . S
N932 H939 0.984 . S
N933 C926 1.356 . S
N933 H936 0.984 . S
N933 H937 0.985 . S
H934 N929 0.984 . S
H935 N929 0.985 . S
H936 N933 0.984 . S
H937 N933 0.985 . S
H938 N932 0.984 . S
H939 N932 0.984 . S
H940 N928 0.984 . S
H941 N928 0.985 . S
C942 C943 1.363 . S
C942 C948 1.379 . S
C942 N950 1.356 . S
C943 C942 1.363 . S
C943 C949 1.363 . S
C944 C945 1.363 . S
C944 C949 1.379 . S
C944 N951 1.356 . S
C945 C944 1.363 . S
C945 C948 1.363 . S
N946 C948 1.356 . S
N946 H958 0.984 . S
N946 H959 0.985 . S
N947 C949 1.356 . S
N947 H952 0.984 . S
N947 H953 0.985 . S
C948 C942 1.379 . S
C948 C945 1.363 . S
C948 N946 1.356 . S
C949 C943 1.363 . S
C949 C944 1.379 . S
C949 N947 1.356 . S
N950 C942 1.356 . S
N950 H956 0.984 1_545 S
N950 H957 0.988 . S
N951 C944 1.356 . S
N951 H954 0.984 . S
N951 H955 0.985 . S
H952 N947 0.984 . S
H953 N947 0.985 . S
H954 N951 0.984 . S
H955 N951 0.985 . S
H956 N950 0.984 1_565 S
H957 N950 0.988 . S
H958 N946 0.984 . S
H959 N946 0.985 . S
C960 C961 1.363 . S
C960 C966 1.379 . S
C960 N968 1.356 . S
C961 C960 1.363 . S
C961 C967 1.363 . S
C962 C963 1.363 . S
C962 C967 1.379 . S
C962 N969 1.356 . S
C963 C962 1.363 . S
C963 C966 1.363 . S
N964 C966 1.356 . S
N964 H976 0.984 . S
N964 H977 0.985 . S
N965 C967 1.356 . S
N965 H970 0.984 . S
N965 H971 0.985 . S
C966 C960 1.379 . S
C966 C963 1.363 . S
C966 N964 1.356 . S
C967 C961 1.363 . S
C967 C962 1.379 . S
C967 N965 1.356 . S
N968 C960 1.356 . S
N968 H974 0.984 . S
N968 H975 0.984 . S
N969 C962 1.356 . S
N969 H972 0.984 . S
N969 H973 0.985 . S
H970 N965 0.984 . S
H971 N965 0.985 . S
H972 N969 0.984 . S
H973 N969 0.985 . S
H974 N968 0.984 . S
H975 N968 0.984 . S
H976 N964 0.984 . S
H977 N964 0.985 . S
C978 C979 1.363 . S
C978 C984 1.379 . S
C978 N986 1.356 . S
C979 C978 1.363 . S
C979 C985 1.363 . S
C980 C981 1.363 . S
C980 C985 1.379 . S
C980 N987 1.356 . S
C981 C980 1.363 . S
C981 C984 1.363 . S
N982 C984 1.356 . S
N982 H994 0.984 . S
N982 H995 0.985 . S
N983 C985 1.356 . S
N983 H988 0.984 . S
N983 H989 0.985 . S
C984 C978 1.379 . S
C984 C981 1.363 . S
C984 N982 1.356 . S
C985 C979 1.363 . S
C985 C980 1.379 . S
C985 N983 1.356 . S
N986 C978 1.356 . S
N986 H992 0.984 . S
N986 H993 0.984 . S
N987 C980 1.356 . S
N987 H990 0.984 . S
N987 H991 0.985 . S
H988 N983 0.984 . S
H989 N983 0.985 . S
H990 N987 0.984 . S
H991 N987 0.985 . S
H992 N986 0.984 . S
H993 N986 0.984 . S
H994 N982 0.984 . S
H995 N982 0.985 . S
C996 C997 1.363 . S
C996 C1002 1.379 . S
C996 N1004 1.356 . S
C997 C996 1.363 . S
C997 C1003 1.363 . S
C998 C999 1.363 . S
C998 C1003 1.379 . S
C998 N1005 1.356 . S
C999 C998 1.363 . S
C999 C1002 1.363 . S
N1000 C1002 1.356 . S
N1000 H1012 0.984 . S
N1000 H1013 0.985 . S
N1001 C1003 1.356 . S
N1001 H1006 0.984 . S
N1001 H1007 0.985 . S
C1002 C996 1.379 . S
C1002 C999 1.363 . S
C1002 N1000 1.356 . S
C1003 C997 1.363 . S
C1003 C998 1.379 . S
C1003 N1001 1.356 . S
N1004 C996 1.356 . S
N1004 H1010 0.984 . S
N1004 H1011 0.984 . S
N1005 C998 1.356 . S
N1005 H1008 0.984 . S
N1005 H1009 0.985 . S
H1006 N1001 0.984 . S
H1007 N1001 0.985 . S
H1008 N1005 0.984 . S
H1009 N1005 0.985 . S
H1010 N1004 0.984 . S
H1011 N1004 0.984 . S
H1012 N1000 0.984 . S
H1013 N1000 0.985 . S
C1014 C1015 1.363 . S
C1014 C1020 1.379 . S
C1014 N1022 1.356 . S
C1015 C1014 1.363 . S
C1015 C1021 1.363 . S
C1016 C1017 1.363 . S
C1016 C1021 1.379 . S
C1016 N1023 1.356 . S
C1017 C1016 1.363 . S
C1017 C1020 1.363 . S
N1018 C1020 1.356 . S
N1018 H1030 0.984 . S
N1018 H1031 0.985 . S
N1019 C1021 1.356 . S
N1019 H1024 0.984 . S
N1019 H1025 0.985 . S
C1020 C1014 1.379 . S
C1020 C1017 1.363 . S
C1020 N1018 1.356 . S
C1021 C1015 1.363 . S
C1021 C1016 1.379 . S
C1021 N1019 1.356 . S
N1022 C1014 1.356 . S
N1022 H1028 0.984 . S
N1022 H1029 0.984 . S
N1023 C1016 1.356 . S
N1023 H1026 0.984 . S
N1023 H1027 0.985 . S
H1024 N1019 0.984 . S
H1025 N1019 0.985 . S
H1026 N1023 0.984 . S
H1027 N1023 0.985 . S
H1028 N1022 0.984 . S
H1029 N1022 0.984 . S
H1030 N1018 0.984 . S
H1031 N1018 0.985 . S
C1032 C1033 1.363 . S
C1032 C1038 1.379 . S
C1032 N1040 1.356 . S
C1033 C1032 1.363 . S
C1033 C1039 1.363 . S
C1034 C1035 1.363 . S
C1034 C1039 1.379 . S
C1034 N1041 1.356 . S
C1035 C1034 1.363 . S
C1035 C1038 1.363 . S
N1036 C1038 1.356 . S
N1036 H1048 0.984 . S
N1036 H1049 0.985 . S
N1037 C1039 1.356 . S
N1037 H1042 0.984 . S
N1037 H1043 0.985 . S
C1038 C1032 1.379 . S
C1038 C1035 1.363 . S
C1038 N1036 1.356 . S
C1039 C1033 1.363 . S
C1039 C1034 1.379 . S
C1039 N1037 1.356 . S
N1040 C1032 1.356 . S
N1040 H1046 0.984 . S
N1040 H1047 0.984 . S
N1041 C1034 1.356 . S
N1041 H1044 0.984 . S
N1041 H1045 0.985 . S
H1042 N1037 0.984 . S
H1043 N1037 0.985 . S
H1044 N1041 0.984 . S
H1045 N1041 0.985 . S
H1046 N1040 0.984 . S
H1047 N1040 0.984 . S
H1048 N1036 0.984 . S
H1049 N1036 0.985 . S
C1050 C1051 1.363 . S
C1050 C1056 1.379 . S
C1050 N1058 1.356 . S
C1051 C1050 1.363 . S
C1051 C1057 1.363 . S
C1052 C1053 1.363 . S
C1052 C1057 1.379 . S
C1052 N1059 1.356 . S
C1053 C1052 1.363 . S
C1053 C1056 1.363 . S
N1054 C1056 1.356 . S
N1054 H1066 0.984 . S
N1054 H1067 0.985 . S
N1055 C1057 1.356 . S
N1055 H1060 0.984 . S
N1055 H1061 0.985 . S
C1056 C1050 1.379 . S
C1056 C1053 1.363 . S
C1056 N1054 1.356 . S
C1057 C1051 1.363 . S
C1057 C1052 1.379 . S
C1057 N1055 1.356 . S
N1058 C1050 1.356 . S
N1058 H1064 0.984 . S
N1058 H1065 0.984 . S
N1059 C1052 1.356 . S
N1059 H1062 0.984 . S
N1059 H1063 0.985 . S
H1060 N1055 0.984 . S
H1061 N1055 0.985 . S
H1062 N1059 0.984 . S
H1063 N1059 0.985 . S
H1064 N1058 0.984 . S
H1065 N1058 0.984 . S
H1066 N1054 0.984 . S
H1067 N1054 0.985 . S
C1068 C1069 1.363 . S
C1068 C1074 1.379 . S
C1068 N1076 1.356 . S
C1069 C1068 1.363 . S
C1069 C1075 1.363 . S
C1070 C1071 1.363 . S
C1070 C1075 1.379 . S
C1070 N1077 1.356 . S
C1071 C1070 1.363 . S
C1071 C1074 1.363 . S
N1072 C1074 1.356 . S
N1072 H1084 0.984 . S
N1072 H1085 0.985 . S
N1073 C1075 1.356 . S
N1073 H1078 0.984 . S
N1073 H1079 0.985 . S
C1074 C1068 1.379 . S
C1074 C1071 1.363 . S
C1074 N1072 1.356 . S
C1075 C1069 1.363 . S
C1075 C1070 1.379 . S
C1075 N1073 1.356 . S
N1076 C1068 1.356 . S
N1076 H1082 0.984 . S
N1076 H1083 0.984 . S
N1077 C1070 1.356 . S
N1077 H1080 0.984 . S
N1077 H1081 0.985 . S
H1078 N1073 0.984 . S
H1079 N1073 0.985 . S
H1080 N1077 0.984 . S
H1081 N1077 0.985 . S
H1082 N1076 0.984 . S
H1083 N1076 0.984 . S
H1084 N1072 0.984 . S
H1085 N1072 0.985 . S
C1086 C1087 1.363 . S
C1086 C1092 1.379 . S
C1086 N1094 1.356 . S
C1087 C1086 1.363 . S
C1087 C1093 1.363 . S
C1088 C1089 1.363 . S
C1088 C1093 1.379 . S
C1088 N1095 1.356 . S
C1089 C1088 1.363 . S
C1089 C1092 1.363 . S
N1090 C1092 1.356 . S
N1090 H1102 0.984 . S
N1090 H1103 0.985 . S
N1091 C1093 1.356 . S
N1091 H1096 0.984 . S
N1091 H1097 0.985 . S
C1092 C1086 1.379 . S
C1092 C1089 1.363 . S
C1092 N1090 1.356 . S
C1093 C1087 1.363 . S
C1093 C1088 1.379 . S
C1093 N1091 1.356 . S
N1094 C1086 1.356 . S
N1094 H1100 0.984 . S
N1094 H1101 0.984 . S
N1095 C1088 1.356 . S
N1095 H1098 0.984 . S
N1095 H1099 0.985 . S
H1096 N1091 0.984 . S
H1097 N1091 0.985 . S
H1098 N1095 0.984 . S
H1099 N1095 0.985 . S
H1100 N1094 0.984 . S
H1101 N1094 0.984 . S
H1102 N1090 0.984 . S
H1103 N1090 0.985 . S
C1104 C1105 1.363 1_565 S
C1104 C1110 1.379 1_556 S
C1104 N1112 1.356 . S
C1105 C1104 1.363 1_545 S
C1105 C1111 1.363 . S
C1106 C1107 1.363 . S
C1106 C1111 1.379 1_554 S
C1106 N1113 1.356 . S
C1107 C1106 1.363 . S
C1107 C1110 1.363 1_545 S
N1108 C1110 1.356 . S
N1108 H1120 0.984 . S
N1108 H1121 0.985 . S
N1109 C1111 1.356 . S
N1109 H1114 0.984 . S
N1109 H1115 0.985 . S
C1110 C1104 1.379 1_554 S
C1110 C1107 1.363 1_565 S
C1110 N1108 1.356 . S
C1111 C1105 1.363 . S
C1111 C1106 1.379 1_556 S
C1111 N1109 1.356 . S
N1112 C1104 1.356 . S
N1112 H1118 0.984 . S
N1112 H1119 0.984 . S
N1113 C1106 1.356 . S
N1113 H1116 0.984 . S
N1113 H1117 0.985 . S
H1114 N1109 0.984 . S
H1115 N1109 0.985 . S
H1116 N1113 0.984 . S
H1117 N1113 0.985 . S
H1118 N1112 0.984 . S
H1119 N1112 0.984 . S
H1120 N1108 0.984 . S
H1121 N1108 0.985 . S
C1122 C1123 1.363 . S
C1122 C1128 1.379 . S
C1122 N1130 1.356 . S
C1123 C1122 1.363 . S
C1123 C1129 1.363 . S
C1124 C1125 1.363 . S
C1124 C1129 1.379 . S
C1124 N1131 1.356 . S
C1125 C1124 1.363 . S
C1125 C1128 1.363 . S
N1126 C1128 1.356 . S
N1126 H1138 0.984 . S
N1126 H1139 0.985 . S
N1127 C1129 1.356 . S
N1127 H1132 0.984 . S
N1127 H1133 0.985 . S
C1128 C1122 1.379 . S
C1128 C1125 1.363 . S
C1128 N1126 1.356 . S
C1129 C1123 1.363 . S
C1129 C1124 1.379 . S
C1129 N1127 1.356 . S
N1130 C1122 1.356 . S
N1130 H1136 0.984 . S
N1130 H1137 0.984 . S
N1131 C1124 1.356 . S
N1131 H1134 0.984 . S
N1131 H1135 0.985 . S
H1132 N1127 0.984 . S
H1133 N1127 0.985 . S
H1134 N1131 0.984 . S
H1135 N1131 0.985 . S
H1136 N1130 0.984 . S
H1137 N1130 0.984 . S
H1138 N1126 0.984 . S
H1139 N1126 0.985 . S
C1140 C1141 1.363 . S
C1140 C1146 1.379 1_554 S
C1140 N1148 1.356 . S
C1141 C1140 1.363 . S
C1141 C1147 1.363 . S
C1142 C1143 1.363 . S
C1142 C1147 1.379 1_556 S
C1142 N1149 1.356 . S
C1143 C1142 1.363 . S
C1143 C1146 1.363 . S
N1144 C1146 1.356 . S
N1144 H1156 0.984 . S
N1144 H1157 0.985 . S
N1145 C1147 1.356 . S
N1145 H1150 0.984 . S
N1145 H1151 0.985 . S
C1146 C1140 1.379 1_556 S
C1146 C1143 1.363 . S
C1146 N1144 1.356 . S
C1147 C1141 1.363 . S
C1147 C1142 1.379 1_554 S
C1147 N1145 1.356 . S
N1148 C1140 1.356 . S
N1148 H1154 0.984 . S
N1148 H1155 0.984 . S
N1149 C1142 1.356 . S
N1149 H1152 0.984 . S
N1149 H1153 0.985 . S
H1150 N1145 0.984 . S
H1151 N1145 0.985 . S
H1152 N1149 0.984 . S
H1153 N1149 0.985 . S
H1154 N1148 0.984 . S
H1155 N1148 0.984 . S
H1156 N1144 0.984 . S
H1157 N1144 0.985 . S
C1158 C1159 1.363 . S
C1158 C1164 1.379 . S
C1158 N1166 1.356 . S
C1159 C1158 1.363 . S
C1159 C1165 1.363 1_455 S
C1160 C1161 1.363 1_655 S
C1160 C1165 1.379 . S
C1160 N1167 1.356 . S
C1161 C1160 1.363 1_455 S
C1161 C1164 1.363 . S
N1162 C1164 1.356 . S
N1162 H1174 0.984 . S
N1162 H1175 0.985 . S
N1163 C1165 1.356 . S
N1163 H1168 0.984 . S
N1163 H1169 0.985 . S
C1164 C1158 1.379 . S
C1164 C1161 1.363 . S
C1164 N1162 1.356 . S
C1165 C1159 1.363 1_655 S
C1165 C1160 1.379 . S
C1165 N1163 1.356 . S
N1166 C1158 1.356 . S
N1166 H1172 0.984 . S
N1166 H1173 0.984 . S
N1167 C1160 1.356 . S
N1167 H1170 0.984 . S
N1167 H1171 0.985 . S
H1168 N1163 0.984 . S
H1169 N1163 0.985 . S
H1170 N1167 0.984 . S
H1171 N1167 0.985 . S
H1172 N1166 0.984 . S
H1173 N1166 0.984 . S
H1174 N1162 0.984 . S
H1175 N1162 0.985 . S
C1176 C1177 1.363 . S
C1176 C1182 1.379 1_554 S
C1176 N1184 1.356 . S
C1177 C1176 1.363 . S
C1177 C1183 1.363 . S
C1178 C1179 1.363 . S
C1178 C1183 1.379 1_556 S
C1178 N1185 1.356 1_565 S
C1179 C1178 1.363 . S
C1179 C1182 1.363 . S
N1180 C1182 1.356 . S
N1180 H1192 0.984 . S
N1180 H1193 0.985 . S
N1181 C1183 1.356 1_545 S
N1181 H1186 0.984 . S
N1181 H1187 0.985 . S
C1182 C1176 1.379 1_556 S
C1182 C1179 1.363 . S
C1182 N1180 1.356 . S
C1183 C1177 1.363 . S
C1183 C1178 1.379 1_554 S
C1183 N1181 1.356 1_565 S
N1184 C1176 1.356 . S
N1184 H1190 0.984 . S
N1184 H1191 0.984 . S
N1185 C1178 1.356 1_545 S
N1185 H1188 0.984 . S
N1185 H1189 0.985 . S
H1186 N1181 0.984 . S
H1187 N1181 0.985 . S
H1188 N1185 0.984 . S
H1189 N1185 0.985 . S
H1190 N1184 0.984 . S
H1191 N1184 0.984 . S
H1192 N1180 0.984 . S
H1193 N1180 0.985 . S
C1194 C1195 1.363 . S
C1194 C1200 1.379 . S
C1194 N1202 1.356 . S
C1195 C1194 1.363 . S
C1195 C1201 1.363 . S
C1196 C1197 1.363 . S
C1196 C1201 1.379 . S
C1196 N1203 1.356 . S
C1197 C1196 1.363 . S
C1197 C1200 1.363 . S
N1198 C1200 1.356 . S
N1198 H1210 0.984 . S
N1198 H1211 0.985 . S
N1199 C1201 1.356 . S
N1199 H1204 0.984 . S
N1199 H1205 0.985 . S
C1200 C1194 1.379 . S
C1200 C1197 1.363 . S
C1200 N1198 1.356 . S
C1201 C1195 1.363 . S
C1201 C1196 1.379 . S
C1201 N1199 1.356 . S
N1202 C1194 1.356 . S
N1202 H1208 0.984 . S
N1202 H1209 0.984 . S
N1203 C1196 1.356 . S
N1203 H1206 0.984 . S
N1203 H1207 0.985 . S
H1204 N1199 0.984 . S
H1205 N1199 0.985 . S
H1206 N1203 0.984 . S
H1207 N1203 0.985 . S
H1208 N1202 0.984 . S
H1209 N1202 0.984 . S
H1210 N1198 0.984 . S
H1211 N1198 0.985 . S
C1212 C1213 1.363 . S
C1212 C1218 1.379 1_554 S
C1212 N1220 1.356 . S
C1213 C1212 1.363 . S
C1213 C1219 1.363 . S
C1214 C1215 1.363 . S
C1214 C1219 1.379 1_556 S
C1214 N1221 1.356 . S
C1215 C1214 1.363 . S
C1215 C1218 1.363 . S
N1216 C1218 1.356 . S
N1216 H1228 0.984 . S
N1216 H1229 0.985 . S
N1217 C1219 1.356 . S
N1217 H1222 0.984 . S
N1217 H1223 0.985 . S
C1218 C1212 1.379 1_556 S
C1218 C1215 1.363 . S
C1218 N1216 1.356 . S
C1219 C1213 1.363 . S
C1219 C1214 1.379 1_554 S
C1219 N1217 1.356 . S
N1220 C1212 1.356 . S
N1220 H1226 0.984 . S
N1220 H1227 0.984 . S
N1221 C1214 1.356 . S
N1221 H1224 0.984 . S
N1221 H1225 0.985 . S
H1222 N1217 0.984 . S
H1223 N1217 0.985 . S
H1224 N1221 0.984 . S
H1225 N1221 0.985 . S
H1226 N1220 0.984 . S
H1227 N1220 0.984 . S
H1228 N1216 0.984 . S
H1229 N1216 0.985 . S
C1230 C1231 1.363 . S
C1230 C1236 1.379 . S
C1230 N1238 1.356 1_655 S
C1231 C1230 1.363 . S
C1231 C1237 1.363 . S
C1232 C1233 1.363 . S
C1232 C1237 1.379 . S
C1232 N1239 1.356 . S
C1233 C1232 1.363 . S
C1233 C1236 1.363 . S
N1234 C1236 1.356 1_455 S
N1234 H1246 0.984 . S
N1234 H1247 0.985 . S
N1235 C1237 1.356 . S
N1235 H1240 0.984 . S
N1235 H1241 0.985 . S
C1236 C1230 1.379 . S
C1236 C1233 1.363 . S
C1236 N1234 1.356 1_655 S
C1237 C1231 1.363 . S
C1237 C1232 1.379 . S
C1237 N1235 1.356 . S
N1238 C1230 1.356 1_455 S
N1238 H1244 0.984 . S
N1238 H1245 0.984 . S
N1239 C1232 1.356 . S
N1239 H1242 0.984 . S
N1239 H1243 0.985 . S
H1240 N1235 0.984 . S
H1241 N1235 0.985 . S
H1242 N1239 0.984 . S
H1243 N1239 0.985 . S
H1244 N1238 0.984 . S
H1245 N1238 0.984 . S
H1246 N1234 0.984 . S
H1247 N1234 0.985 . S
C529 N14 1.698 . S
C531 N245 1.698 . S
C547 N146 1.698 . S
C549 N47 1.698 . S
C565 N179 1.698 . S
C567 N80 1.698 . S
C583 N113 1.698 . S
C585 N212 1.698 . S
C601 N269 2.177 . S
C603 N500 2.177 . S
C619 N302 2.177 . S
C621 N401 2.177 . S
C637 N434 2.177 . S
C639 N335 2.177 . S
C655 N368 2.177 . S
C657 N467 2.177 . S
C673 C8 1.312 . S
C675 C314 1.157 . S
C691 C347 1.157 . S
C693 C41 1.312 . S
C709 C380 1.157 . S
C711 C74 1.312 . S
C727 C281 1.157 . S
C729 C107 1.312 . S
C745 C512 1.157 . S
C747 C140 1.312 . S
C763 C413 1.157 . S
C765 C173 1.312 . S
C781 C446 1.157 . S
C783 C206 1.312 . S
C799 C479 1.157 . S
C801 C239 1.312 . S
C817 C61 1.377 . S
C819 C292 1.451 . S
C835 C94 1.377 . S
C837 C325 1.451 . S
C853 C127 1.377 . S
C855 C358 1.451 . S
C871 C391 1.451 . S
C873 C28 1.377 . S
C889 C259 1.377 . S
C891 C424 1.451 . S
C907 C160 1.377 . S
C909 C457 1.451 . S
C925 C193 1.377 . S
C927 C490 1.451 . S
C943 C226 1.377 . S
C945 C523 1.451 . S
C961 N71 1.181 . S
C963 N5 1.181 . S
C979 N38 1.181 . S
C981 N104 1.181 . S
C997 N203 1.181 . S
C999 N137 1.181 . S
C1015 N236 1.181 . S
C1017 N170 1.181 . S
C1033 N344 1.209 . S
C1035 N278 1.209 . S
C1051 N377 1.209 . S
C1053 N311 1.209 . S
C1069 N410 1.209 . S
C1071 N476 1.209 . S
C1087 N509 1.209 . S
C1089 N443 1.209 . S
C1105 C215 1.403 . S
C1107 C17 1.403 . S
C1123 C248 1.403 . S
C1125 C50 1.403 . S
C1141 C83 1.403 . S
C1143 C149 1.403 . S
C1159 C182 1.403 . S
C1161 C116 1.403 . S
C1177 C470 1.511 . S
C1179 C272 1.511 . S
C1195 C503 1.511 . S
C1197 C305 1.511 . S
C1213 C404 1.511 . S
C1215 C338 1.511 . S
C1231 C371 1.511 . S
C1233 C437 1.511 . S
