# Generated by pormake.
# Topology lcy-a, (4)-cn, num edge types: 1
# Building blocks:
#     Node 0, Type 0, BuildingBlock: GALJAG_clean_sbu_0, # of connection points: 4
#     Node 1, Type 0, BuildingBlock: GALJAG_clean_sbu_0, # of connection points: 4
#     Node 2, Type 0, BuildingBlock: GALJAG_clean_sbu_0, # of connection points: 4
#     Node 3, Type 0, BuildingBlock: GALJAG_clean_sbu_0, # of connection points: 4
#     Node 4, Type 0, BuildingBlock: GALJAG_clean_sbu_0, # of connection points: 4
#     Node 5, Type 0, BuildingBlock: GALJAG_clean_sbu_0, # of connection points: 4
#     Node 6, Type 0, BuildingBlock: GALJAG_clean_sbu_0, # of connection points: 4
#     Node 7, Type 0, BuildingBlock: GALJAG_clean_sbu_0, # of connection points: 4
#     Node 8, Type 0, BuildingBlock: GALJAG_clean_sbu_0, # of connection points: 4
#     Node 9, Type 0, BuildingBlock: GALJAG_clean_sbu_0, # of connection points: 4
#     Node 10, Type 0, BuildingBlock: GALJAG_clean_sbu_0, # of connection points: 4
#     Node 11, Type 0, BuildingBlock: GALJAG_clean_sbu_0, # of connection points: 4
#     Node 12, Type 0, BuildingBlock: GALJAG_clean_sbu_0, # of connection points: 4
#     Node 13, Type 0, BuildingBlock: GALJAG_clean_sbu_0, # of connection points: 4
#     Node 14, Type 0, BuildingBlock: GALJAG_clean_sbu_0, # of connection points: 4
#     Node 15, Type 0, BuildingBlock: GALJAG_clean_sbu_0, # of connection points: 4
#     Node 16, Type 0, BuildingBlock: GALJAG_clean_sbu_0, # of connection points: 4
#     Node 17, Type 0, BuildingBlock: GALJAG_clean_sbu_0, # of connection points: 4
#     Node 18, Type 0, BuildingBlock: GALJAG_clean_sbu_0, # of connection points: 4
#     Node 19, Type 0, BuildingBlock: GALJAG_clean_sbu_0, # of connection points: 4
#     Node 20, Type 0, BuildingBlock: GALJAG_clean_sbu_0, # of connection points: 4
#     Node 21, Type 0, BuildingBlock: GALJAG_clean_sbu_0, # of connection points: 4
#     Node 22, Type 0, BuildingBlock: GALJAG_clean_sbu_0, # of connection points: 4
#     Node 23, Type 0, BuildingBlock: GALJAG_clean_sbu_0, # of connection points: 4
#     Edge 24, Type (0, 0), BuildingBlock: CIFDUS_clean_linker_0, # of connection points: 2
#     Edge 25, Type (0, 0), BuildingBlock: CIFDUS_clean_linker_0, # of connection points: 2
#     Edge 26, Type (0, 0), BuildingBlock: CIFDUS_clean_linker_0, # of connection points: 2
#     Edge 27, Type (0, 0), BuildingBlock: CIFDUS_clean_linker_0, # of connection points: 2
#     Edge 28, Type (0, 0), BuildingBlock: CIFDUS_clean_linker_0, # of connection points: 2
#     Edge 29, Type (0, 0), BuildingBlock: CIFDUS_clean_linker_0, # of connection points: 2
#     Edge 30, Type (0, 0), BuildingBlock: CIFDUS_clean_linker_0, # of connection points: 2
#     Edge 31, Type (0, 0), BuildingBlock: CIFDUS_clean_linker_0, # of connection points: 2
#     Edge 32, Type (0, 0), BuildingBlock: CIFDUS_clean_linker_0, # of connection points: 2
#     Edge 33, Type (0, 0), BuildingBlock: CIFDUS_clean_linker_0, # of connection points: 2
#     Edge 34, Type (0, 0), BuildingBlock: CIFDUS_clean_linker_0, # of connection points: 2
#     Edge 35, Type (0, 0), BuildingBlock: CIFDUS_clean_linker_0, # of connection points: 2
#     Edge 36, Type (0, 0), BuildingBlock: CIFDUS_clean_linker_0, # of connection points: 2
#     Edge 37, Type (0, 0), BuildingBlock: CIFDUS_clean_linker_0, # of connection points: 2
#     Edge 38, Type (0, 0), BuildingBlock: CIFDUS_clean_linker_0, # of connection points: 2
#     Edge 39, Type (0, 0), BuildingBlock: CIFDUS_clean_linker_0, # of connection points: 2
#     Edge 40, Type (0, 0), BuildingBlock: CIFDUS_clean_linker_0, # of connection points: 2
#     Edge 41, Type (0, 0), BuildingBlock: CIFDUS_clean_linker_0, # of connection points: 2
#     Edge 42, Type (0, 0), BuildingBlock: CIFDUS_clean_linker_0, # of connection points: 2
#     Edge 43, Type (0, 0), BuildingBlock: CIFDUS_clean_linker_0, # of connection points: 2
#     Edge 44, Type (0, 0), BuildingBlock: CIFDUS_clean_linker_0, # of connection points: 2
#     Edge 45, Type (0, 0), BuildingBlock: CIFDUS_clean_linker_0, # of connection points: 2
#     Edge 46, Type (0, 0), BuildingBlock: CIFDUS_clean_linker_0, # of connection points: 2
#     Edge 47, Type (0, 0), BuildingBlock: CIFDUS_clean_linker_0, # of connection points: 2
#     Edge 48, Type (0, 0), BuildingBlock: CIFDUS_clean_linker_0, # of connection points: 2
#     Edge 49, Type (0, 0), BuildingBlock: CIFDUS_clean_linker_0, # of connection points: 2
#     Edge 50, Type (0, 0), BuildingBlock: CIFDUS_clean_linker_0, # of connection points: 2
#     Edge 51, Type (0, 0), BuildingBlock: CIFDUS_clean_linker_0, # of connection points: 2
#     Edge 52, Type (0, 0), BuildingBlock: CIFDUS_clean_linker_0, # of connection points: 2
#     Edge 53, Type (0, 0), BuildingBlock: CIFDUS_clean_linker_0, # of connection points: 2
#     Edge 54, Type (0, 0), BuildingBlock: CIFDUS_clean_linker_0, # of connection points: 2
#     Edge 55, Type (0, 0), BuildingBlock: CIFDUS_clean_linker_0, # of connection points: 2
#     Edge 56, Type (0, 0), BuildingBlock: CIFDUS_clean_linker_0, # of connection points: 2
#     Edge 57, Type (0, 0), BuildingBlock: CIFDUS_clean_linker_0, # of connection points: 2
#     Edge 58, Type (0, 0), BuildingBlock: CIFDUS_clean_linker_0, # of connection points: 2
#     Edge 59, Type (0, 0), BuildingBlock: CIFDUS_clean_linker_0, # of connection points: 2
#     Edge 60, Type (0, 0), BuildingBlock: CIFDUS_clean_linker_0, # of connection points: 2
#     Edge 61, Type (0, 0), BuildingBlock: CIFDUS_clean_linker_0, # of connection points: 2
#     Edge 62, Type (0, 0), BuildingBlock: CIFDUS_clean_linker_0, # of connection points: 2
#     Edge 63, Type (0, 0), BuildingBlock: CIFDUS_clean_linker_0, # of connection points: 2
#     Edge 64, Type (0, 0), BuildingBlock: CIFDUS_clean_linker_0, # of connection points: 2
#     Edge 65, Type (0, 0), BuildingBlock: CIFDUS_clean_linker_0, # of connection points: 2
#     Edge 66, Type (0, 0), BuildingBlock: CIFDUS_clean_linker_0, # of connection points: 2
#     Edge 67, Type (0, 0), BuildingBlock: CIFDUS_clean_linker_0, # of connection points: 2
#     Edge 68, Type (0, 0), BuildingBlock: CIFDUS_clean_linker_0, # of connection points: 2
#     Edge 69, Type (0, 0), BuildingBlock: CIFDUS_clean_linker_0, # of connection points: 2
#     Edge 70, Type (0, 0), BuildingBlock: CIFDUS_clean_linker_0, # of connection points: 2
#     Edge 71, Type (0, 0), BuildingBlock: CIFDUS_clean_linker_0, # of connection points: 2
# Relax obj value: 0.436
# Max RMSD: 0.150
# Mean RMSD: 0.150
data_MOF--net-lcy-a--node1-GALJAG_clean_sbu_0--edge1-CIFDUS_clean_linker_0
_symmetry_space_group_name_H-M    P1
_symmetry_Int_Tables_number       1
_symmetry_cell_setting            triclinic
loop_
_symmetry_equiv_pos_as_xyz
'x, y, z'
_cell_length_a     49.335942
_cell_length_b     49.280952
_cell_length_c     49.260268
_cell_angle_alpha  89.976996
_cell_angle_beta   90.065172
_cell_angle_gamma 90.074953
loop_
_atom_site_label
_atom_site_type_symbol
_atom_site_fract_x
_atom_site_fract_y
_atom_site_fract_z
_atom_type_partial_charge
In0 In 0.19979 0.30508 0.46271 0.0
O1 O 0.22187 0.32237 0.49957 0.0
O2 O 0.18803 0.34424 0.48449 0.0
C3 C 0.24592 0.28258 0.4438 0.0
C4 C 0.16589 0.26887 0.48527 0.0
C5 C 0.18343 0.32379 0.41372 0.0
O6 O 0.24401 0.30744 0.44945 0.0
O7 O 0.22484 0.26894 0.44842 0.0
O8 O 0.1783 0.30008 0.42184 0.0
O9 O 0.19592 0.3383 0.43069 0.0
C10 C 0.20729 0.3433 0.50134 0.0
O11 O 0.15751 0.28882 0.47153 0.0
O12 O 0.19118 0.26817 0.48888 0.0
In13 In 0.93359 0.96984 0.73015 0.0
O14 O 0.93518 0.92648 0.74632 0.0
O15 O 0.96103 0.95609 0.76413 0.0
C16 C 0.8975 0.96617 0.68933 0.0
C17 C 0.90555 0.00265 0.76317 0.0
C18 C 0.97769 0.98299 0.70061 0.0
O19 O 0.90823 0.94533 0.69976 0.0
O20 O 0.90469 0.9884 0.6998 0.0
O21 O 0.96934 -0.00253 0.71999 0.0
O22 O 0.96388 0.96193 0.69626 0.0
C23 C 0.95363 0.93165 0.76335 0.0
O24 O 0.92731 0.00982 0.75173 0.0
O25 O 0.89827 0.97848 0.75855 0.0
In26 In 0.28455 0.68359 0.96936 0.0
O27 O 0.33039 0.68859 0.97104 0.0
O28 O 0.30575 0.72093 0.98546 0.0
C29 C 0.28932 0.67067 0.91624 0.0
C30 C 0.27885 0.64597 0.00877 0.0
C31 C 0.23638 0.70889 0.9645 0.0
O32 O 0.29626 0.69332 0.92577 0.0
O33 O 0.28027 0.65416 0.93358 0.0
O34 O 0.23907 0.68357 0.96225 0.0
O35 O 0.25797 0.72152 0.96985 0.0
C36 C 0.32926 0.71262 0.97986 0.0
O37 O 0.2709 0.67013 0.01148 0.0
O38 O 0.29154 0.64147 0.98702 0.0
In39 In 0.5337 0.01264 0.18431 0.0
O40 O 0.53124 0.05456 0.20322 0.0
O41 O 0.4987 0.02737 0.21061 0.0
C42 C 0.5611 0.03146 0.14083 0.0
C43 C 0.56463 0.98784 0.22171 0.0
C44 C 0.50452 0.97625 0.15573 0.0
O45 O 0.53659 0.03719 0.14517 0.0
O46 O 0.57206 0.01699 0.1589 0.0
O47 O 0.52359 0.96944 0.17134 0.0
O48 O 0.49947 0.0013 0.15531 0.0
C49 C 0.50878 0.05051 0.21465 0.0
O50 O 0.53979 0.98238 0.21861 0.0
O51 O 0.57374 0.00603 0.2061 0.0
In52 In 0.73274 0.2057 0.54256 0.0
O53 O 0.75311 0.17603 0.51362 0.0
O54 O 0.71938 0.16188 0.53653 0.0
C55 C 0.76887 0.24672 0.54416 0.0
C56 C 0.69301 0.23116 0.51549 0.0
C57 C 0.73463 0.19281 0.59572 0.0
O58 O 0.77493 0.22369 0.53465 0.0
O59 O 0.74473 0.24891 0.55209 0.0
O60 O 0.7126 0.1987 0.58399 0.0
O61 O 0.75518 0.19298 0.58053 0.0
C62 C 0.73779 0.15636 0.51964 0.0
O63 O 0.71312 0.22083 0.50356 0.0
O64 O 0.69216 0.22716 0.54079 0.0
In65 In 0.07606 0.49501 0.75982 0.0
O66 O 0.09241 0.5351 0.74484 0.0
O67 O 0.11695 0.50022 0.73851 0.0
C68 C 0.02736 0.51528 0.77414 0.0
C69 C 0.06132 0.45773 0.7229 0.0
C70 C 0.09762 0.48414 0.8091 0.0
O71 O 0.04331 0.52755 0.75835 0.0
O72 O 0.03608 0.49289 0.78291 0.0
O73 O 0.08614 0.46616 0.79493 0.0
O74 O 0.09842 0.50732 0.79829 0.0
C75 C 0.11434 0.52558 0.73588 0.0
O76 O 0.07822 0.45265 0.74146 0.0
O77 O 0.05306 0.48188 0.72229 0.0
In78 In 0.77012 0.76945 0.05606 0.0
O79 O 0.78153 0.74137 0.0216 0.0
O80 O 0.81348 0.75703 0.04595 0.0
C81 C 0.78256 0.78704 0.10659 0.0
C82 C 0.75534 0.81511 0.03001 0.0
C83 C 0.72975 0.7337 0.06522 0.0
O84 O 0.78725 0.76312 0.09888 0.0
O85 O 0.77289 0.80225 0.08848 0.0
O86 O 0.72959 0.74962 0.04516 0.0
O87 O 0.75004 0.73604 0.08056 0.0
C88 C 0.80654 0.7417 0.02663 0.0
O89 O 0.73907 0.80073 0.04362 0.0
O90 O 0.77936 0.80619 0.02903 0.0
In91 In 0.40623 0.50522 0.29026 0.0
O92 O 0.40759 0.54815 0.27315 0.0
O93 O 0.43349 0.51843 0.25569 0.0
C94 C 0.37653 0.51364 0.33528 0.0
C95 C 0.37126 0.47514 0.26072 0.0
C96 C 0.45236 0.48885 0.31494 0.0
O97 O 0.38677 0.533 0.32195 0.0
O98 O 0.3807 0.49042 0.32541 0.0
O99 O 0.44149 0.47534 0.29603 0.0
O100 O 0.44013 0.51043 0.32099 0.0
C101 C 0.4259 0.54286 0.25607 0.0
O102 O 0.39154 0.46505 0.27268 0.0
O103 O 0.36911 0.50056 0.26296 0.0
In104 In 0.3832 0.19572 0.30652 0.0
O105 O 0.40831 0.23412 0.30564 0.0
O106 O 0.41511 0.20612 0.33805 0.0
C107 C 0.35375 0.20449 0.26131 0.0
C108 C 0.41234 0.15191 0.29317 0.0
C109 C 0.34814 0.20685 0.34648 0.0
O110 O 0.37609 0.21612 0.26577 0.0
O111 O 0.34647 0.18799 0.27947 0.0
O112 O 0.35591 0.18274 0.34216 0.0
O113 O 0.35744 0.22438 0.33038 0.0
C114 C 0.42096 0.2287 0.32732 0.0
O115 O 0.3911 0.14976 0.30737 0.0
O116 O 0.41844 0.17574 0.28628 0.0
In117 In 0.05099 0.11131 0.56732 0.0
O118 O 0.01469 0.12937 0.58971 0.0
O119 O 0.05243 0.15024 0.59162 0.0
C120 C 0.01418 0.0891 0.53361 0.0
C121 C 0.08858 0.13729 0.53728 0.0
C122 C 0.0627 0.07398 0.60575 0.0
O123 O 0.01087 0.11181 0.54496 0.0
O124 O 0.03649 0.07761 0.5388 0.0
O125 O 0.05838 0.06764 0.58133 0.0
O126 O 0.06322 0.09912 0.6101 0.0
C127 C 0.02782 0.14958 0.59848 0.0
O128 O 0.0952 0.12007 0.55506 0.0
O129 O 0.06349 0.13942 0.53349 0.0
In130 In 0.1035 0.79879 0.83366 0.0
O131 O 0.08409 0.83969 0.84454 0.0
O132 O 0.07204 0.81958 0.8082 0.0
C133 C 0.1306 0.78927 0.88007 0.0
C134 C 0.06818 0.75771 0.83887 0.0
C135 C 0.14194 0.80078 0.79456 0.0
O136 O 0.12691 0.8132 0.87154 0.0
O137 O 0.12069 0.77092 0.86532 0.0
O138 O 0.14436 0.81295 0.8169 0.0
O139 O 0.11999 0.78798 0.79176 0.0
C140 C 0.06876 0.83939 0.82397 0.0
O141 O 0.08961 0.75553 0.82495 0.0
O142 O 0.06473 0.78053 0.85 0.0
In143 In 0.48189 0.85769 0.98301 0.0
O144 O 0.51811 0.8456 0.0092 0.0
O145 O 0.49131 0.8145 -0.00426 0.0
C146 C 0.50955 0.88255 0.94255 0.0
C147 C 0.43607 0.8323 0.96805 0.0
C148 C 0.47184 0.89254 0.02411 0.0
O149 O 0.51907 0.86288 0.95582 0.0
O150 O 0.48546 0.8885 0.94853 0.0
O151 O 0.4738 0.90032 -0.00019 0.0
O152 O 0.47427 0.86735 0.02742 0.0
C153 C 0.5117 0.82076 0.0099 0.0
O154 O 0.45903 0.82541 0.95921 0.0
O155 O 0.43605 0.85334 0.98255 0.0
In156 In 0.91491 0.31623 0.66472 0.0
O157 O 0.92856 0.35999 0.6556 0.0
O158 O 0.95301 0.33548 0.68108 0.0
C159 C 0.88971 0.31524 0.61613 0.0
C160 C 0.9379 0.26707 0.65983 0.0
C161 C 0.88294 0.31491 0.70949 0.0
O162 O 0.87947 0.32626 0.63683 0.0
O163 O 0.91337 0.30627 0.61957 0.0
O164 O 0.87526 0.32481 0.68721 0.0
O165 O 0.90697 0.30633 0.70941 0.0
C166 C 0.95006 0.35787 0.66929 0.0
O167 O 0.95107 0.28898 0.65866 0.0
O168 O 0.91277 0.26979 0.66396 0.0
In169 In 0.93038 0.6108 0.91323 0.0
O170 O 0.88547 0.62194 0.9192 0.0
O171 O 0.91385 0.63163 0.95013 0.0
C172 C 0.92218 0.57713 0.87085 0.0
C173 C 0.95885 0.65156 0.89078 0.0
C174 C 0.96248 0.58446 0.94864 0.0
O175 O 0.92097 0.56915 0.89515 0.0
O176 O 0.92468 0.60244 0.86827 0.0
O177 O 0.94066 0.57429 0.93988 0.0
O178 O 0.96784 0.60784 0.93971 0.0
C179 C 0.88982 0.63319 0.94184 0.0
O180 O 0.93477 0.65444 0.89889 0.0
O181 O 0.96852 0.62804 0.89384 0.0
In182 In 0.56332 0.68064 0.16499 0.0
O183 O 0.56352 0.71944 0.14014 0.0
O184 O 0.53344 0.68993 0.13074 0.0
C185 C 0.57732 0.71174 0.20795 0.0
C186 C 0.52949 0.64092 0.18163 0.0
C187 C 0.60922 0.66527 0.13982 0.0
O188 O 0.55822 0.7179 0.19203 0.0
O189 O 0.58847 0.6893 0.2029 0.0
O190 O 0.60757 0.66743 0.16527 0.0
O191 O 0.58719 0.66883 0.12738 0.0
C192 C 0.54394 0.71265 0.12511 0.0
O193 O 0.55145 0.63611 0.16954 0.0
O194 O 0.52468 0.66572 0.18546 0.0
In195 In 0.54255 0.36273 0.44331 0.0
O196 O 0.52767 0.31879 0.44041 0.0
O197 O 0.5104 0.34817 0.41396 0.0
C198 C 0.50907 0.38382 0.48087 0.0
C199 C 0.58906 0.34304 0.46459 0.0
C200 C 0.54867 0.39908 0.40267 0.0
O201 O 0.50687 0.35976 0.47238 0.0
O202 O 0.5285 0.3971 0.47077 0.0
O203 O 0.54479 0.40603 0.42699 0.0
O204 O 0.55229 0.37397 0.39945 0.0
C205 C 0.51149 0.32366 0.42115 0.0
O206 O 0.58364 0.34161 0.43967 0.0
O207 O 0.572 0.35604 0.47833 0.0
In208 In 0.21634 0.33472 0.20724 0.0
O209 O 0.25787 0.34173 0.22594 0.0
O210 O 0.24055 0.37453 0.20411 0.0
C211 C 0.18913 0.33378 0.25477 0.0
C212 C 0.18717 0.35132 0.16382 0.0
C213 C 0.23738 0.28508 0.19917 0.0
O214 O 0.20532 0.35251 0.24832 0.0
O215 O 0.18568 0.31596 0.23668 0.0
O216 O 0.21532 0.28866 0.21166 0.0
O217 O 0.24772 0.30641 0.18946 0.0
C218 C 0.26041 0.3658 0.21773 0.0
O219 O 0.20653 0.33485 0.16197 0.0
O220 O 0.18199 0.35884 0.18768 0.0
In221 In 0.78789 0.17428 0.80439 0.0
O222 O 0.79825 0.12936 0.8021 0.0
O223 O 0.83055 0.15735 0.80835 0.0
C224 C 0.77707 0.17318 0.7506 0.0
C225 C 0.75304 0.15813 0.84334 0.0
C226 C 0.80565 0.22589 0.81025 0.0
O227 O 0.80027 0.16898 0.76043 0.0
O228 O 0.75884 0.17779 0.76799 0.0
O229 O 0.78328 0.22016 0.79927 0.0
O230 O 0.8176 0.20581 0.82058 0.0
C231 C 0.82338 0.13292 0.80545 0.0
O232 O 0.7458 0.16186 0.81908 0.0
O233 O 0.77726 0.16456 0.84831 0.0
In234 In 0.14062 0.49726 0.01798 0.0
O235 O 0.1867 0.50015 0.01779 0.0
O236 O 0.16477 0.53047 0.03917 0.0
C237 C 0.14281 0.49233 0.96347 0.0
C238 C 0.13828 0.45733 0.05515 0.0
C239 C 0.093 0.5237 0.01752 0.0
O240 O 0.15053 0.51318 0.97609 0.0
O241 O 0.13466 0.47316 0.97846 0.0
O242 O 0.09488 0.49862 0.01275 0.0
O243 O 0.11505 0.53521 0.02362 0.0
C244 C 0.18758 0.52177 0.03152 0.0
O245 O 0.12939 0.48089 0.05946 0.0
O246 O 0.1482 0.45371 0.03181 0.0
In247 In 0.70899 0.8531 0.29354 0.0
O248 O 0.70374 0.89667 0.27924 0.0
O249 O 0.67093 0.87826 0.30036 0.0
C250 C 0.73912 0.84513 0.24852 0.0
C251 C 0.73692 0.86153 0.34016 0.0
C252 C 0.67472 0.81076 0.28699 0.0
O253 O 0.72615 0.86666 0.25301 0.0
O254 O 0.73731 0.82751 0.26704 0.0
O255 O 0.69746 0.80807 0.29851 0.0
O256 O 0.66936 0.83458 0.27954 0.0
C257 C 0.67975 0.89882 0.28785 0.0
O258 O 0.71225 0.85492 0.34003 0.0
O259 O 0.74751 0.86292 0.317 0.0
In260 In 0.34041 0.4918 0.54318 0.0
O261 O 0.34942 0.51311 0.58329 0.0
O262 O 0.32584 0.53425 0.55411 0.0
C263 C 0.39166 0.47279 0.54178 0.0
C264 C 0.29992 0.4578 0.55754 0.0
C265 C 0.33536 0.49622 0.4888 0.0
O266 O 0.38575 0.49681 0.53525 0.0
O267 O 0.37191 0.45881 0.55002 0.0
O268 O 0.33177 0.47431 0.50147 0.0
O269 O 0.34104 0.51631 0.50364 0.0
C270 C 0.33713 0.53465 0.57706 0.0
O271 O 0.29592 0.47886 0.54347 0.0
O272 O 0.32395 0.45506 0.56586 0.0
In273 In 0.26248 0.6777 0.70475 0.0
O274 O 0.27533 0.676 0.66014 0.0
O275 O 0.30052 0.65696 0.68918 0.0
C276 C 0.24166 0.72807 0.70043 0.0
C277 C 0.22007 0.64312 0.70623 0.0
C278 C 0.2822 0.67511 0.75569 0.0
O279 O 0.26221 0.72288 0.71481 0.0
O280 O 0.23354 0.7084 0.68619 0.0
O281 O 0.26346 0.65992 0.74718 0.0
O282 O 0.2916 0.69142 0.73826 0.0
C283 C 0.29578 0.66135 0.66447 0.0
O284 O 0.24372 0.63542 0.70038 0.0
O285 O 0.21796 0.66805 0.71142 0.0
In286 In 0.66726 0.00061 0.96202 0.0
O287 O 0.70067 0.96819 0.9652 0.0
O288 O 0.66541 0.96431 0.98979 0.0
C289 C 0.64922 0.02421 0.00798 0.0
C290 C 0.69406 0.04081 0.93605 0.0
C291 C 0.63292 0.97464 0.92821 0.0
O292 O 0.67368 0.0177 0.00451 0.0
O293 O 0.63406 0.01982 0.98781 0.0
O294 O 0.62554 0.99374 0.94357 0.0
O295 O 0.65807 0.96996 0.92849 0.0
C296 C 0.68788 0.95443 0.98273 0.0
O297 O 0.70579 0.02428 0.95168 0.0
O298 O 0.66908 0.03654 0.93294 0.0
In299 In 0.84204 0.97661 0.48659 0.0
O300 O 0.84608 0.95363 0.44656 0.0
O301 O 0.81209 0.94474 0.47131 0.0
C302 C 0.8928 -0.00263 0.48421 0.0
C303 C 0.80794 0.01857 0.47906 0.0
C304 C 0.84469 0.9599 0.53877 0.0
O305 O 0.88852 0.97222 0.48644 0.0
O306 O 0.87168 0.01151 0.4822 0.0
O307 O 0.83485 0.9824 0.53173 0.0
O308 O 0.85239 0.94517 0.51932 0.0
C309 C 0.82458 0.94011 0.44952 0.0
O310 O 0.80427 0.00095 0.49737 0.0
O311 O 0.82808 0.01423 0.46388 0.0
H312 H 0.0756 0.18203 0.50883 0.0
H313 H 0.14403 0.13829 0.54139 0.0
H314 H 0.17418 0.1757 0.52845 0.0
H315 H 0.18043 0.22172 0.50981 0.0
H316 H 0.11119 0.26563 0.47911 0.0
H317 H 0.08177 0.22732 0.49002 0.0
C318 C 0.09718 0.18043 0.51276 0.0
C319 C 0.10764 0.15737 0.5259 0.0
C320 C 0.11408 0.20226 0.50614 0.0
C321 C 0.13557 0.15577 0.53111 0.0
C322 C 0.15273 0.17724 0.52394 0.0
C323 C 0.15887 0.22295 0.50569 0.0
C324 C 0.14794 0.24653 0.49385 0.0
C325 C 0.14209 0.20078 0.51189 0.0
C326 C 0.12004 0.24778 0.4884 0.0
C327 C 0.10325 0.22583 0.49446 0.0
H328 H 0.99263 0.93878 0.80138 0.0
H329 H 0.94858 0.87695 0.75756 0.0
H330 H 0.97989 0.84245 0.7743 0.0
H331 H 0.02256 0.83098 0.79673 0.0
H332 H 0.06689 0.89226 0.8408 0.0
H333 H 0.03255 0.92614 0.82857 0.0
C334 C 0.98961 0.91767 0.79592 0.0
C335 C 0.96862 0.9104 0.77797 0.0
C336 C 0.00792 0.89806 0.80525 0.0
C337 C 0.96468 0.883 0.77126 0.0
C338 C 0.98268 0.86333 0.78065 0.0
C339 C 0.02461 0.85176 0.80375 0.0
C340 C 0.04737 0.85945 0.81905 0.0
C341 C 0.00485 0.87083 0.79682 0.0
C342 C 0.04959 0.88611 0.82872 0.0
C343 C 0.03001 0.90539 0.82173 0.0
H344 H 0.32842 0.76705 0.98598 0.0
H345 H 0.38212 0.69993 0.96975 0.0
H346 H 0.4195 0.73158 0.96173 0.0
H347 H 0.43673 0.77826 0.95937 0.0
H348 H 0.38316 0.84522 0.97647 0.0
H349 H 0.34549 0.81362 0.98324 0.0
C350 C 0.34839 0.75932 0.98103 0.0
C351 C 0.35262 0.73122 0.97871 0.0
C352 C 0.36954 0.77759 0.97595 0.0
C353 C 0.37848 0.7215 0.97191 0.0
C354 C 0.39975 0.73957 0.96708 0.0
C355 C 0.41666 0.78594 0.96402 0.0
C356 C 0.41254 0.81398 0.96712 0.0
C357 C 0.39543 0.76765 0.96878 0.0
C358 C 0.38665 0.82369 0.97373 0.0
C359 C 0.36524 0.80565 0.97787 0.0
H360 H 0.46212 0.04549 0.24352 0.0
H361 H 0.52509 0.10254 0.22211 0.0
H362 H 0.50156 0.13836 0.24665 0.0
H363 H 0.46209 0.15406 0.27154 0.0
H364 H 0.39842 0.09799 0.29305 0.0
H365 H 0.42353 0.06088 0.27144 0.0
C366 C 0.47071 0.06574 0.24439 0.0
C367 C 0.49513 0.07149 0.23084 0.0
C368 C 0.45704 0.08628 0.25852 0.0
C369 C 0.50623 0.09769 0.23226 0.0
C370 C 0.49281 0.11817 0.24628 0.0
C371 C 0.45377 0.13367 0.27171 0.0
C372 C 0.42839 0.12871 0.28357 0.0
C373 C 0.46806 0.11276 0.25909 0.0
C374 C 0.41797 0.1022 0.28398 0.0
C375 C 0.43223 0.08108 0.27152 0.0
H376 H 0.66266 0.27018 0.53865 0.0
H377 H 0.68232 0.23444 0.46125 0.0
H378 H 0.65344 0.26764 0.43817 0.0
H379 H 0.62197 0.30626 0.44033 0.0
H380 H 0.60343 0.34243 0.5179 0.0
H381 H 0.63316 0.31002 0.54059 0.0
C382 C 0.66038 0.26949 0.51675 0.0
C383 C 0.67415 0.24969 0.50164 0.0
C384 C 0.64439 0.28899 0.50367 0.0
C385 C 0.67161 0.24938 0.47326 0.0
C386 C 0.65527 0.26842 0.46009 0.0
C387 C 0.6248 0.30732 0.46214 0.0
C388 C 0.61053 0.32667 0.47743 0.0
C389 C 0.64161 0.28836 0.4751 0.0
C390 C 0.61426 0.32774 0.50568 0.0
C391 C 0.63107 0.30909 0.5187 0.0
H392 H 0.00111 0.3526 0.68755 0.0
H393 H 0.94443 0.41161 0.65657 0.0
H394 H 0.97679 0.4481 0.66631 0.0
H395 H 0.0184 0.46322 0.68914 0.0
H396 H 0.07391 0.40394 0.72187 0.0
H397 H 0.04503 0.3673 0.70516 0.0
C398 C -0.00407 0.37344 0.6827 0.0
C399 C 0.9703 0.37961 0.67194 0.0
C400 C 0.01443 0.39413 0.68857 0.0
C401 C 0.96399 0.40652 0.66517 0.0
C402 C 0.98245 0.42732 0.67074 0.0
C403 C 0.02451 0.44228 0.69204 0.0
C404 C 0.048 0.43621 0.70705 0.0
C405 C 0.00737 0.42139 0.6832 0.0
C406 C 0.05579 0.40906 0.71054 0.0
C407 C 0.0392 0.38813 0.70118 0.0
H408 H 0.79525 0.70674 0.9857 0.0
H409 H 0.86045 0.73572 0.03661 0.0
H410 H 0.89138 0.70321 0.0158 0.0
H411 H 0.89978 0.66683 0.98351 0.0
H412 H 0.83549 0.63845 0.93121 0.0
H413 H 0.80394 0.6703 0.95268 0.0
C414 C 0.81628 0.70604 0.99211 0.0
C415 C 0.82563 0.72361 0.01259 0.0
C416 C 0.83389 0.68726 0.98012 0.0
C417 C 0.85285 0.72249 0.02078 0.0
C418 C 0.87048 0.70382 0.00901 0.0
C419 C 0.87879 0.66738 0.97694 0.0
C420 C 0.86984 0.65022 0.95598 0.0
C421 C 0.86115 0.68607 0.98882 0.0
C422 C 0.84272 0.65139 0.94746 0.0
C423 C 0.82479 0.66966 0.95961 0.0
H424 H 0.48142 0.64693 0.20752 0.0
H425 H 0.53665 0.58633 0.17705 0.0
H426 H 0.50784 0.55038 0.19531 0.0
H427 H 0.46877 0.53639 0.22255 0.0
H428 H 0.41413 0.59691 0.25418 0.0
H429 H 0.44072 0.63273 0.23246 0.0
C430 C 0.48704 0.62584 0.20474 0.0
C431 C 0.51122 0.61927 0.1912 0.0
C432 C 0.47051 0.60531 0.21545 0.0
C433 C 0.5182 0.59189 0.18756 0.0
C434 C 0.50175 0.57133 0.19798 0.0
C435 C 0.46247 0.55739 0.22439 0.0
C436 C 0.43964 0.56405 0.24004 0.0
C437 C 0.47811 0.57784 0.21231 0.0
C438 C 0.43169 0.59131 0.24226 0.0
C439 C 0.44694 0.61179 0.22995 0.0
H440 H 0.14985 0.39149 0.16321 0.0
H441 H 0.1966 0.33958 0.11059 0.0
H442 H 0.18254 0.36622 0.0712 0.0
H443 H 0.1621 0.40778 0.05282 0.0
H444 H 0.11719 0.46077 0.106 0.0
H445 H 0.12516 0.43005 0.14401 0.0
C446 C 0.15653 0.3857 0.14306 0.0
C447 C 0.1745 0.36388 0.13981 0.0
C448 C 0.14895 0.40149 0.12065 0.0
C449 C 0.1829 0.35647 0.1136 0.0
C450 C 0.17497 0.37175 0.09109 0.0
C451 C 0.15368 0.41234 0.07263 0.0
C452 C 0.13945 0.43665 0.07673 0.0
C453 C 0.15881 0.39487 0.09452 0.0
C454 C 0.12848 0.44228 0.10243 0.0
C455 C 0.13305 0.42476 0.12419 0.0
H456 H 0.67318 0.07689 0.9001 0.0
H457 H 0.74671 0.05618 0.94283 0.0
H458 H 0.77048 0.09357 0.92057 0.0
H459 H 0.77117 0.12994 0.88667 0.0
H460 H 0.69856 0.14879 0.84164 0.0
H461 H 0.67336 0.11477 0.86762 0.0
C462 C 0.69438 0.08064 0.90461 0.0
C463 C 0.70825 0.06368 0.9229 0.0
C464 C 0.70797 0.10198 0.89152 0.0
C465 C 0.73567 0.06882 0.92864 0.0
C466 C 0.74923 0.09025 0.91601 0.0
C467 C 0.74967 0.12704 0.88298 0.0
C468 C 0.73666 0.1419 0.8624 0.0
C469 C 0.73567 0.10673 0.89717 0.0
C470 C 0.70893 0.13764 0.8575 0.0
C471 C 0.69461 0.11806 0.87218 0.0
H472 H 0.7889 0.87863 0.34367 0.0
H473 H 0.71724 0.86473 0.39188 0.0
H474 H 0.73921 0.88587 0.43109 0.0
H475 H 0.77707 0.91227 0.45011 0.0
H476 H 0.84795 0.92748 0.40111 0.0
H477 H 0.82804 0.90168 0.36376 0.0
C478 C 0.77822 0.87986 0.36287 0.0
C479 C 0.75143 0.87034 0.36485 0.0
C480 C 0.79075 0.89249 0.38508 0.0
C481 C 0.73787 0.87198 0.38986 0.0
C482 C 0.75038 0.88417 0.41223 0.0
C483 C 0.78828 0.90965 0.43137 0.0
C484 C 0.81382 0.92197 0.42825 0.0
C485 C 0.77654 0.89513 0.40984 0.0
C486 C 0.82818 0.91833 0.40392 0.0
C487 C 0.8168 0.90362 0.38255 0.0
H488 H 0.33165 0.62048 0.67099 0.0
H489 H 0.28717 0.66456 0.60978 0.0
H490 H 0.29809 0.62967 0.57628 0.0
H491 H 0.31478 0.58376 0.56632 0.0
H492 H 0.35715 0.53881 0.62843 0.0
H493 H 0.35234 0.57687 0.65977 0.0
C494 C 0.32491 0.62283 0.65015 0.0
C495 C 0.3084 0.64491 0.64291 0.0
C496 C 0.33032 0.6022 0.63136 0.0
C497 C 0.29985 0.64769 0.61584 0.0
C498 C 0.30586 0.62761 0.59676 0.0
C499 C 0.32313 0.5824 0.58666 0.0
C500 C 0.33588 0.55837 0.59524 0.0
C501 C 0.3201 0.60426 0.60462 0.0
C502 C 0.34695 0.55699 0.62148 0.0
C503 C 0.34428 0.57876 0.63938 0.0
H504 H 0.2485 0.45718 0.53756 0.0
H505 H 0.30735 0.40741 0.57903 0.0
H506 H 0.28076 0.36691 0.56887 0.0
H507 H 0.24571 0.34515 0.54082 0.0
H508 H 0.18738 0.3948 0.49852 0.0
H509 H 0.20852 0.43574 0.51676 0.0
C510 C 0.2551 0.43757 0.54505 0.0
C511 C 0.28014 0.43524 0.55852 0.0
C512 C 0.24 0.41424 0.53861 0.0
C513 C 0.28827 0.40974 0.56837 0.0
C514 C 0.27317 0.3865 0.5624 0.0
C515 C 0.23721 0.36491 0.53617 0.0
C516 C 0.21538 0.36698 0.51792 0.0
C517 C 0.24975 0.3884 0.54636 0.0
C518 C 0.20433 0.39266 0.51235 0.0
C519 C 0.21652 0.41612 0.52264 0.0
H520 H 0.91883 0.05363 0.77853 0.0
H521 H 0.85324 -0.00436 0.7796 0.0
H522 H 0.82216 0.03074 0.79556 0.0
H523 H 0.81267 0.07899 0.8038 0.0
H524 H 0.8783 0.13695 0.80221 0.0
H525 H 0.91041 0.10071 0.79208 0.0
C526 C 0.89783 0.04858 0.7827 0.0
C527 C 0.88822 0.02224 0.77757 0.0
C528 C 0.88005 0.0689 0.7915 0.0
C529 C 0.86107 0.01585 0.78331 0.0
C530 C 0.84326 0.03593 0.79228 0.0
C531 C 0.83406 0.08359 0.80159 0.0
C532 C 0.84308 0.11059 0.80332 0.0
C533 C 0.85236 0.0627 0.79558 0.0
C534 C 0.87086 0.11631 0.80078 0.0
C535 C 0.88922 0.09562 0.79491 0.0
H536 H 0.28789 0.59202 0.00282 0.0
H537 H 0.24395 0.64988 0.05151 0.0
H538 H 0.21385 0.61398 0.06748 0.0
H539 H 0.19418 0.56888 0.0593 0.0
H540 H 0.23685 0.5117 0.0087 0.0
H541 H 0.27345 0.54439 0.00216 0.0
C542 C 0.2723 0.59661 0.01763 0.0
C543 C 0.2677 0.62366 0.02542 0.0
C544 C 0.25445 0.57605 0.02595 0.0
C545 C 0.24769 0.62926 0.04491 0.0
C546 C 0.23029 0.60876 0.05387 0.0
C547 C 0.21185 0.56332 0.04745 0.0
C548 C 0.21251 0.53822 0.03393 0.0
C549 C 0.2325 0.58247 0.04322 0.0
C550 C 0.23569 0.53107 0.01901 0.0
C551 C 0.25658 0.54982 0.01515 0.0
H552 H 0.61894 0.99307 0.22821 0.0
H553 H 0.5497 0.94784 0.2569 0.0
H554 H 0.57947 0.91832 0.28332 0.0
H555 H 0.62531 0.90228 0.29393 0.0
H556 H 0.6946 0.94605 0.2632 0.0
H557 H 0.66466 0.97955 0.24231 0.0
C558 C 0.61034 0.977 0.24056 0.0
C559 C 0.58222 0.97243 0.24039 0.0
C560 C 0.6276 0.95981 0.25526 0.0
C561 C 0.57133 0.95162 0.25656 0.0
C562 C 0.58833 0.93472 0.27164 0.0
C563 C 0.63386 0.91946 0.28315 0.0
C564 C 0.66208 0.92161 0.27992 0.0
C565 C 0.61653 0.93817 0.27053 0.0
C566 C 0.6729 0.94392 0.26585 0.0
C567 C 0.6558 0.963 0.25379 0.0
H568 H 0.77176 0.14038 0.47941 0.0
H569 H 0.71614 0.10954 0.53952 0.0
H570 H 0.73078 0.06321 0.52991 0.0
H571 H 0.76342 0.03221 0.50851 0.0
H572 H 0.81896 0.06314 0.44833 0.0
H573 H 0.80002 0.10855 0.45356 0.0
C574 C 0.76253 0.12347 0.49007 0.0
C575 C 0.7432 0.12838 0.51039 0.0
C576 C 0.77115 0.09689 0.48455 0.0
C577 C 0.73117 0.10628 0.52385 0.0
C578 C 0.73961 0.07978 0.51845 0.0
C579 C 0.771 0.04879 0.49616 0.0
C580 C 0.79279 0.0444 0.47834 0.0
C581 C 0.76019 0.07494 0.49945 0.0
C582 C 0.80227 0.06601 0.4623 0.0
C583 C 0.79155 0.09204 0.46538 0.0
H584 H 0.22081 0.58803 0.70309 0.0
H585 H 0.16739 0.65636 0.71468 0.0
H586 H 0.12938 0.62569 0.72247 0.0
H587 H 0.11211 0.57983 0.72934 0.0
H588 H 0.16531 0.51112 0.71947 0.0
H589 H 0.20262 0.54159 0.70732 0.0
C590 C 0.20078 0.59615 0.70705 0.0
C591 C 0.19691 0.62437 0.70853 0.0
C592 C 0.17905 0.57838 0.7119 0.0
C593 C 0.17089 0.63469 0.71364 0.0
C594 C 0.14915 0.61718 0.7181 0.0
C595 C 0.13179 0.57147 0.72426 0.0
C596 C 0.13605 0.54333 0.72547 0.0
C597 C 0.15313 0.58905 0.71779 0.0
C598 C 0.16159 0.53277 0.71872 0.0
C599 C 0.18293 0.55017 0.71187 0.0
H600 H 0.73608 0.92863 0.97299 0.0
H601 H 0.66069 0.92111 0.01684 0.0
H602 H 0.67467 0.87721 0.03442 0.0
H603 H 0.70796 0.84101 0.03767 0.0
H604 H 0.7842 0.84792 -0.00452 0.0
H605 H 0.77021 0.89189 0.97682 0.0
C606 C 0.7228 0.91736 0.98643 0.0
C607 C 0.6974 0.92815 0.99359 0.0
C608 C 0.73103 0.89199 -0.00332 0.0
C609 C 0.68038 0.91334 0.01104 0.0
C610 C 0.6883 0.88817 0.02109 0.0
C611 C 0.7215 0.85204 0.02427 0.0
C612 C 0.74699 0.8412 0.01784 0.0
C613 C 0.71352 0.8773 0.01403 0.0
C614 C 0.76441 0.85586 0.00067 0.0
C615 C 0.75644 0.881 0.99005 0.0
H616 H 0.26762 0.42004 0.20955 0.0
H617 H 0.30711 0.34866 0.24131 0.0
H618 H 0.34592 0.37594 0.25536 0.0
H619 H 0.36748 0.42032 0.26117 0.0
H620 H 0.32755 0.4922 0.23127 0.0
H621 H 0.29027 0.46451 0.21371 0.0
C622 C 0.28484 0.41048 0.21934 0.0
C623 C 0.28443 0.38242 0.22451 0.0
C624 C 0.307 0.42637 0.22774 0.0
C625 C 0.30685 0.37026 0.23725 0.0
C626 C 0.32908 0.38583 0.24528 0.0
C627 C 0.35079 0.4299 0.25051 0.0
C628 C 0.35025 0.45825 0.24756 0.0
C629 C 0.32921 0.41394 0.24099 0.0
C630 C 0.32841 0.47039 0.23383 0.0
C631 C 0.30705 0.45458 0.22385 0.0
H632 H 0.48604 0.32831 0.37304 0.0
H633 H 0.50274 0.27135 0.43743 0.0
H634 H 0.47705 0.23624 0.41331 0.0
H635 H 0.44898 0.22232 0.37435 0.0
H636 H 0.43333 0.27952 0.30981 0.0
H637 H 0.45986 0.31397 0.33348 0.0
C638 C 0.48398 0.30823 0.38185 0.0
C639 C 0.49595 0.30241 0.40705 0.0
C640 C 0.46958 0.28821 0.36777 0.0
C641 C 0.49352 0.27625 0.41807 0.0
C642 C 0.47891 0.25622 0.40429 0.0
C643 C 0.4516 0.24226 0.36538 0.0
C644 C 0.43918 0.24842 0.34044 0.0
C645 C 0.46678 0.26202 0.37916 0.0
C646 C 0.44272 0.27429 0.329 0.0
C647 C 0.45778 0.29404 0.34256 0.0
H648 H 0.97499 0.15428 0.61362 0.0
H649 H 0.05281 0.19413 0.61902 0.0
H650 H 0.03194 0.23288 0.6414 0.0
H651 H 0.99132 0.25713 0.65551 0.0
H652 H 0.91305 0.21849 0.64938 0.0
H653 H 0.93442 0.17732 0.63164 0.0
C654 C 0.98737 0.17134 0.61998 0.0
C655 C 0.01531 0.17152 0.6144 0.0
C656 C 0.97519 0.19374 0.63264 0.0
C657 C 0.0312 0.19363 0.62288 0.0
C658 C 0.0193 0.2158 0.63568 0.0
C659 C 0.97896 0.23957 0.65063 0.0
C660 C 0.95069 0.24086 0.65344 0.0
C661 C 0.99127 0.21632 0.64006 0.0
C662 C 0.9349 0.21792 0.64732 0.0
C663 C 0.94708 0.19448 0.63704 0.0
H664 H 0.00685 0.64863 0.86424 0.0
H665 H 0.94656 0.70528 0.89259 0.0
H666 H 0.97463 0.74326 0.87758 0.0
H667 H 0.01741 0.76032 0.85899 0.0
H668 H 0.07743 0.70394 0.82967 0.0
H669 H 0.04822 0.66579 0.84223 0.0
C670 C -0.00017 0.6693 0.86696 0.0
C671 C 0.97487 0.67422 0.87973 0.0
C672 C 0.016 0.69101 0.85817 0.0
C673 C 0.96578 0.70103 0.88287 0.0
C674 C 0.98182 0.72274 0.87436 0.0
C675 C 0.02398 0.73968 0.85516 0.0
C676 C 0.04956 0.73486 0.84369 0.0
C677 C 0.00712 0.71796 0.86238 0.0
C678 C 0.05778 0.70809 0.83852 0.0
C679 C 0.04116 0.6863 0.84579 0.0
H680 H 0.56676 0.75935 0.10721 0.0
H681 H 0.50201 0.70283 0.09031 0.0
H682 H 0.48811 0.73006 0.05123 0.0
H683 H 0.49316 0.77085 0.02321 0.0
H684 H 0.55697 0.82816 0.04093 0.0
H685 H 0.57287 0.79932 0.07808 0.0
C686 C 0.54958 0.75301 0.09499 0.0
C687 C 0.53526 0.72927 0.10176 0.0
C688 C 0.54174 0.76873 0.07259 0.0
C689 C 0.51322 0.72115 0.08562 0.0
C690 C 0.50534 0.73665 0.06322 0.0
C691 C 0.51082 0.77683 0.03491 0.0
C692 C 0.52392 0.80157 0.02934 0.0
C693 C 0.51935 0.76055 0.05664 0.0
C694 C 0.54662 0.80916 0.04481 0.0
C695 C 0.55559 0.79278 0.06615 0.0
H696 H 0.16198 0.29419 0.37239 0.0
H697 H 0.1952 0.37298 0.39146 0.0
H698 H 0.19612 0.38459 0.34332 0.0
H699 H 0.19364 0.36993 0.29587 0.0
H700 H 0.16205 0.29058 0.27652 0.0
H701 H 0.15387 0.2818 0.32467 0.0
C702 C 0.16889 0.3141 0.36603 0.0
C703 C 0.17887 0.33255 0.38541 0.0
C704 C 0.16988 0.32045 0.33825 0.0
C705 C 0.18762 0.35833 0.37691 0.0
C706 C 0.18825 0.36496 0.34937 0.0
C707 C 0.18445 0.35093 0.30214 0.0
C708 C 0.1788 0.33079 0.28274 0.0
C709 C 0.18037 0.34581 0.32985 0.0
C710 C 0.16669 0.30636 0.29111 0.0
C711 C 0.16216 0.30127 0.31865 0.0
H712 H 0.83378 0.99102 0.58248 0.0
H713 H 0.86871 0.91425 0.55934 0.0
H714 H 0.8851 0.90745 0.60576 0.0
H715 H 0.8946 0.92635 0.65122 0.0
H716 H 0.8622 0.00473 0.67263 0.0
H717 H 0.83946 0.00776 0.62874 0.0
C718 C 0.84455 0.97256 0.58769 0.0
C719 C 0.85027 0.9533 0.56748 0.0
C720 C 0.85457 0.96921 0.6141 0.0
C721 C 0.86417 0.92944 0.57455 0.0
C722 C 0.87364 0.92561 0.60105 0.0
C723 C 0.88205 0.94377 0.64644 0.0
C724 C 0.88018 0.96537 0.66496 0.0
C725 C 0.86973 0.94578 0.62076 0.0
C726 C 0.86407 0.98796 0.65854 0.0
C727 C 0.85111 0.98973 0.63345 0.0
H728 H 0.26816 0.63893 0.79454 0.0
H729 H 0.31414 0.71232 0.78148 0.0
H730 H 0.32224 0.71623 0.83031 0.0
H731 H 0.31266 0.70102 0.87682 0.0
H732 H 0.26649 0.62774 0.88981 0.0
H733 H 0.26222 0.62141 0.84078 0.0
C734 C 0.28025 0.6556 0.80236 0.0
C735 C 0.29033 0.67546 0.78452 0.0
C736 C 0.28461 0.65781 0.8304 0.0
C737 C 0.30613 0.69681 0.79485 0.0
C738 C 0.31066 0.69912 0.82276 0.0
C739 C 0.30193 0.6835 0.8689 0.0
C740 C 0.28966 0.66501 0.88685 0.0
C741 C 0.29944 0.68009 0.84074 0.0
C742 C 0.27604 0.64228 0.87637 0.0
C743 C 0.27351 0.6387 0.84836 0.0
H744 H 0.61493 0.02918 0.13015 0.0
H745 H 0.53769 0.04784 0.09355 0.0
H746 H 0.55899 0.05052 0.04889 0.0
H747 H 0.59845 0.04175 0.01975 0.0
H748 H 0.67572 0.02332 0.05645 0.0
H749 H 0.65565 0.02686 0.10157 0.0
C750 C 0.60288 0.03431 0.11244 0.0
C751 C 0.57478 0.03795 0.11503 0.0
C752 C 0.61523 0.03571 0.08683 0.0
C753 C 0.55939 0.04488 0.09203 0.0
C754 C 0.57152 0.04629 0.06647 0.0
C755 C 0.61099 0.03905 0.03765 0.0
C756 C 0.6384 0.03191 0.0348 0.0
C757 C 0.59926 0.04088 0.06353 0.0
C758 C 0.65451 0.02872 0.05812 0.0
C759 C 0.64302 0.03058 0.08394 0.0
H760 H 0.77936 0.17725 0.62304 0.0
H761 H 0.69498 0.19691 0.63449 0.0
H762 H 0.70024 0.19157 0.6837 0.0
H763 H 0.72968 0.1834 0.72363 0.0
H764 H 0.81409 0.16409 0.71106 0.0
H765 H 0.80791 0.16719 0.66214 0.0
C766 C 0.76204 0.1802 0.63626 0.0
C767 C 0.73686 0.18758 0.62518 0.0
C768 C 0.76526 0.17728 0.66436 0.0
C769 C 0.7146 0.19122 0.64256 0.0
C770 C 0.71762 0.18825 0.67068 0.0
C771 C 0.74663 0.17971 0.71013 0.0
C772 C 0.77232 0.17366 0.72098 0.0
C773 C 0.74297 0.18161 0.68185 0.0
C774 C 0.79411 0.16887 0.70327 0.0
C775 C 0.79063 0.17064 0.67526 0.0
H776 H 0.12045 0.45318 0.9312 0.0
H777 H 0.16025 0.53121 0.92864 0.0
H778 H 0.15138 0.5346 0.88012 0.0
H779 H 0.1289 0.51747 0.83935 0.0
H780 H 0.08878 0.4397 0.84117 0.0
H781 H 0.10138 0.43401 0.88893 0.0
C782 C 0.12754 0.47069 0.91991 0.0
C783 C 0.14077 0.49201 0.93355 0.0
C784 C 0.12212 0.47268 0.89193 0.0
C785 C 0.14988 0.51458 0.91866 0.0
C786 C 0.14476 0.5166 0.89091 0.0
C787 C 0.12313 0.49915 0.85013 0.0
C788 C 0.1077 0.47918 0.8369 0.0
C789 C 0.13032 0.49611 0.8775 0.0
C790 C 0.10061 0.45541 0.85099 0.0
C791 C 0.10773 0.45219 0.87831 0.0
H792 H 0.76376 0.79869 0.23167 0.0
H793 H 0.7451 0.88053 0.20668 0.0
H794 H 0.76108 0.87069 0.16094 0.0
H795 H 0.77446 0.83734 0.12679 0.0
H796 H 0.79177 0.75501 0.15093 0.0
H797 H 0.78282 0.76667 0.19833 0.0
C798 C 0.76366 0.81447 0.21632 0.0
C799 C 0.75288 0.84016 0.22241 0.0
C800 C 0.77252 0.80856 0.18987 0.0
C801 C 0.75303 0.8605 0.20241 0.0
C802 C 0.76213 0.85489 0.17623 0.0
C803 C 0.77684 0.82208 0.1425 0.0
C804 C 0.7834 0.7953 0.13537 0.0
C805 C 0.77104 0.82876 0.16953 0.0
C806 C 0.78664 0.77578 0.15592 0.0
C807 C 0.78133 0.78239 0.183 0.0
H808 H 0.34816 0.53936 0.45668 0.0
H809 H 0.32376 0.45524 0.45385 0.0
H810 H 0.3312 0.45435 0.40496 0.0
H811 H 0.34975 0.47569 0.36425 0.0
H812 H 0.37543 0.55936 0.3667 0.0
H813 H 0.36192 0.56237 0.41439 0.0
C814 C 0.34404 0.52099 0.44526 0.0
C815 C 0.33578 0.49731 0.45888 0.0
C816 C 0.34874 0.52049 0.41714 0.0
C817 C 0.33037 0.47368 0.44385 0.0
C818 C 0.33466 0.47312 0.4159 0.0
C819 C 0.35197 0.49473 0.3751 0.0
C820 C 0.36386 0.51716 0.36215 0.0
C821 C 0.34464 0.49614 0.40252 0.0
C822 C 0.36639 0.54177 0.37631 0.0
C823 C 0.35882 0.54345 0.40361 0.0
H824 H 0.2544 0.22986 0.42981 0.0
H825 H 0.29063 0.30961 0.42634 0.0
H826 H 0.32672 0.29228 0.39741 0.0
H827 H 0.34535 0.25582 0.36973 0.0
H828 H 0.31003 0.17581 0.37267 0.0
H829 H 0.2762 0.19182 0.40551 0.0
C830 C 0.27043 0.24332 0.42302 0.0
C831 C 0.26972 0.27104 0.42992 0.0
C832 C 0.29105 0.23325 0.40618 0.0
C833 C 0.29068 0.28823 0.4212 0.0
C834 C 0.31126 0.27838 0.40457 0.0
C835 C 0.33035 0.24182 0.37772 0.0
C836 C 0.32977 0.21484 0.36858 0.0
C837 C 0.31119 0.25115 0.39639 0.0
C838 C 0.31069 0.19672 0.37942 0.0
C839 C 0.29135 0.2059 0.39806 0.0
H840 H 0.01428 0.02316 0.70929 0.0
H841 H 0.99075 0.96192 0.65127 0.0
H842 H 0.02106 0.98175 0.61752 0.0
H843 H 0.04711 0.02131 0.60221 0.0
H844 H 0.06916 0.0835 0.65981 0.0
H845 H 0.0475 0.05795 0.69623 0.0
C846 C 0.01624 0.01386 0.68943 0.0
C847 C -0.00012 0.99158 0.68251 0.0
C848 C 0.03344 0.02556 0.67003 0.0
C849 C 0.00292 0.97935 0.65694 0.0
C850 C 0.02021 0.9907 0.6376 0.0
C851 C 0.04801 0.0288 0.6229 0.0
C852 C 0.05912 0.05452 0.62822 0.0
C853 C 0.03461 0.01451 0.64355 0.0
C854 C 0.06039 0.06388 0.65515 0.0
C855 C 0.04776 0.04941 0.67596 0.0
H856 H 0.2289 0.76268 0.95481 0.0
H857 H 0.1869 0.68583 0.95761 0.0
H858 H 0.14752 0.70617 0.93571 0.0
H859 H 0.12871 0.74315 0.90879 0.0
H860 H 0.17121 0.81942 0.90316 0.0
H861 H 0.20652 0.80222 0.93372 0.0
C862 C 0.21085 0.7506 0.95124 0.0
C863 C 0.21092 0.7227 0.95731 0.0
C864 C 0.18855 0.76226 0.93789 0.0
C865 C 0.18741 0.70727 0.95274 0.0
C866 C 0.16493 0.71886 0.94017 0.0
C867 C 0.14542 0.75621 0.91476 0.0
C868 C 0.14776 0.78225 0.90346 0.0
C869 C 0.16583 0.74593 0.93154 0.0
C870 C 0.16914 0.79922 0.9116 0.0
C871 C 0.1894 0.7893 0.92885 0.0
H872 H 0.48133 0.98821 0.10749 0.0
H873 H 0.50147 0.92137 0.16032 0.0
H874 H 0.48902 0.88911 0.12473 0.0
H875 H 0.47833 0.88029 0.07708 0.0
H876 H 0.46259 0.94717 0.02278 0.0
H877 H 0.46711 0.97914 0.06053 0.0
C878 C 0.48235 0.96656 0.11138 0.0
C879 C 0.4923 0.95707 0.13638 0.0
C880 C 0.47629 0.94823 0.09046 0.0
C881 C 0.49391 0.92905 0.14115 0.0
C882 C 0.4869 0.91064 0.1208 0.0
C883 C 0.4754 0.90183 0.07359 0.0
C884 C 0.47032 0.91144 0.04722 0.0
C885 C 0.47898 0.92005 0.09512 0.0
C886 C 0.46665 0.93936 0.04294 0.0
C887 C 0.4693 0.95762 0.06448 0.0
H888 H 0.82343 0.24458 0.53617 0.0
H889 H 0.7596 0.29653 0.56575 0.0
H890 H 0.79296 0.3265 0.58652 0.0
H891 H 0.83908 0.33246 0.60392 0.0
H892 H 0.90291 0.2798 0.57579 0.0
H893 H 0.87095 0.25616 0.54624 0.0
C894 C 0.8169 0.26287 0.54651 0.0
C895 C 0.78912 0.26797 0.55004 0.0
C896 C 0.8362 0.27977 0.55893 0.0
C897 C 0.7809 0.2919 0.56317 0.0
C898 C 0.79996 0.30904 0.57514 0.0
C899 C 0.84614 0.31636 0.59069 0.0
C900 C 0.87309 0.30746 0.59248 0.0
C901 C 0.82753 0.30237 0.57434 0.0
C902 C 0.88214 0.28686 0.57497 0.0
C903 C 0.86382 0.27315 0.55823 0.0
H904 H 0.99119 0.49347 0.80947 0.0
H905 H 0.00585 0.56406 0.75969 0.0
H906 H 0.96806 0.58752 0.78127 0.0
H907 H 0.93736 0.59093 0.81997 0.0
H908 H 0.92535 0.52177 0.87234 0.0
H909 H 0.9546 0.49438 0.8433 0.0
C910 C 0.98576 0.51379 0.80299 0.0
C911 C 0.00166 0.52729 0.78353 0.0
C912 C 0.96441 0.52739 0.81594 0.0
C913 C 0.99418 0.55343 0.77498 0.0
C914 C 0.97256 0.56685 0.7873 0.0
C915 C 0.94037 0.5696 0.82453 0.0
C916 C 0.92978 0.55857 0.84862 0.0
C917 C 0.9584 0.55447 0.80864 0.0
C918 C 0.93354 0.53083 0.85406 0.0
C919 C 0.95057 0.51525 0.83765 0.0
H920 H 0.61786 0.67857 0.08738 0.0
H921 H 0.65941 0.65595 0.1611 0.0
H922 H 0.70227 0.67199 0.14212 0.0
H923 H 0.72568 0.69997 0.10833 0.0
H924 H 0.68304 0.72624 0.03645 0.0
H925 H 0.64277 0.70121 0.05092 0.0
C926 C 0.63644 0.67635 0.09896 0.0
C927 C 0.63549 0.66643 0.12571 0.0
C928 C 0.66064 0.6869 0.0885 0.0
C929 C 0.65967 0.66367 0.14051 0.0
C930 C 0.68411 0.67309 0.12977 0.0
C931 C 0.70772 0.69984 0.09561 0.0
C932 C 0.70708 0.71531 0.07164 0.0
C933 C 0.6845 0.68601 0.10439 0.0
C934 C 0.68384 0.71474 0.05518 0.0
C935 C 0.66084 0.70044 0.06344 0.0
H936 H 0.48452 0.44514 0.30442 0.0
H937 H 0.47306 0.51092 0.36105 0.0
H938 H 0.50682 0.49133 0.39139 0.0
H939 H 0.53392 0.45201 0.40501 0.0
H940 H 0.54479 0.38559 0.34907 0.0
H941 H 0.51782 0.40936 0.31499 0.0
C942 C 0.48978 0.45539 0.32318 0.0
C943 C 0.47592 0.47911 0.33073 0.0
C944 C 0.50916 0.44392 0.3407 0.0
C945 C 0.48321 0.49244 0.3549 0.0
C946 C 0.50253 0.48125 0.37231 0.0
C947 C 0.53111 0.44311 0.38507 0.0
C948 C 0.54093 0.41688 0.37977 0.0
C949 C 0.51488 0.4565 0.36587 0.0
C950 C 0.53731 0.40571 0.35375 0.0
C951 C 0.52161 0.41916 0.33432 0.0
H952 H 0.30023 0.19335 0.2559 0.0
H953 H 0.36658 0.23559 0.21751 0.0
H954 H 0.33477 0.26001 0.18848 0.0
H955 H 0.28859 0.27648 0.18194 0.0
H956 H 0.22231 0.23781 0.224 0.0
H957 H 0.25343 0.20423 0.24289 0.0
C958 C 0.30774 0.2073 0.24061 0.0
C959 C 0.33559 0.21318 0.23921 0.0
C960 C 0.28927 0.22211 0.22483 0.0
C961 C 0.34514 0.2311 0.21922 0.0
C962 C 0.32697 0.24512 0.20268 0.0
C963 C 0.2808 0.26017 0.19452 0.0
C964 C 0.25337 0.26 0.20216 0.0
C965 C 0.29899 0.24192 0.20646 0.0
C966 C 0.24346 0.23856 0.21814 0.0
C967 C 0.26129 0.21951 0.22916 0.0
H968 H 0.78885 0.26718 0.77788 0.0
H969 H 0.85641 0.24052 0.82672 0.0
H970 H 0.88663 0.27088 0.80195 0.0
H971 H 0.89532 0.29612 0.75979 0.0
H972 H 0.82804 0.32091 0.70961 0.0
H973 H 0.79629 0.30049 0.74163 0.0
C974 C 0.80998 0.26876 0.78379 0.0
C975 C 0.82052 0.25108 0.80357 0.0
C976 C 0.82746 0.28543 0.76871 0.0
C977 C 0.84786 0.25363 0.81127 0.0
C978 C 0.86524 0.27079 0.79691 0.0
C979 C 0.87367 0.29768 0.75626 0.0
C980 C 0.86405 0.30934 0.73206 0.0
C981 C 0.85555 0.28538 0.77447 0.0
C982 C 0.83597 0.31168 0.72793 0.0
C983 C 0.81778 0.29991 0.74619 0.0
H984 H 0.00484 0.60512 0.97662 0.0
H985 H 0.9628 0.53021 0.95961 0.0
H986 H -0.00163 0.50464 0.9829 0.0
H987 H 0.04393 0.50341 0.00307 0.0
H988 H 0.08606 0.57847 0.01947 0.0
H989 H 0.04765 0.60423 0.00188 0.0
C990 C 0.0033 0.58322 0.97835 0.0
C991 C 0.98153 0.56948 0.96611 0.0
C992 C 0.02385 0.56872 0.99156 0.0
C993 C 0.9795 0.54119 0.96878 0.0
C994 C -0.00014 0.52657 0.982 0.0
C995 C 0.04448 0.52542 0.00328 0.0
C996 C 0.06791 0.53903 0.01218 0.0
C997 C 0.0225 0.54008 0.99274 0.0
C998 C 0.06829 0.56753 0.01256 0.0
C999 C 0.0464 0.58227 0.00237 0.0
H1000 H 0.62316 0.81342 0.26873 0.0
H1001 H 0.68657 0.75656 0.28855 0.0
H1002 H 0.65992 0.71959 0.26871 0.0
H1003 H 0.62136 0.70488 0.24046 0.0
H1004 H 0.55877 0.76241 0.21971 0.0
H1005 H 0.58216 0.79761 0.24555 0.0
C1006 C 0.63097 0.79285 0.26911 0.0
C1007 C 0.65693 0.78774 0.27973 0.0
C1008 C 0.61575 0.77188 0.25733 0.0
C1009 C 0.66667 0.76099 0.28038 0.0
C1010 C 0.65149 0.73989 0.26892 0.0
C1011 C 0.61256 0.72498 0.24207 0.0
C1012 C 0.58854 0.73113 0.22791 0.0
C1013 C 0.62641 0.74528 0.25655 0.0
C1014 C 0.57731 0.7572 0.23027 0.0
C1015 C 0.59074 0.77738 0.24495 0.0
H1016 H 0.40536 0.41976 0.54463 0.0
H1017 H 0.43769 0.49888 0.52551 0.0
H1018 H 0.47906 0.47804 0.50798 0.0
H1019 H 0.50318 0.43721 0.49272 0.0
H1020 H 0.46914 0.35818 0.50907 0.0
H1021 H 0.4314 0.37909 0.53328 0.0
C1022 C 0.42169 0.43247 0.53713 0.0
C1023 C 0.41842 0.46077 0.53613 0.0
C1024 C 0.44497 0.42033 0.5263 0.0
C1025 C 0.43971 0.47701 0.52635 0.0
C1026 C 0.4633 0.4651 0.51622 0.0
C1027 C 0.48775 0.42457 0.50202 0.0
C1028 C 0.48876 0.39624 0.49892 0.0
C1029 C 0.46573 0.43676 0.51525 0.0
C1030 C 0.46866 0.38007 0.51102 0.0
C1031 C 0.44706 0.392 0.52482 0.0
H1032 H 0.24937 0.76747 0.73821 0.0
H1033 H 0.19264 0.73952 0.67759 0.0
H1034 H 0.15618 0.76424 0.69991 0.0
H1035 H 0.13897 0.78448 0.74211 0.0
H1036 H 0.19541 0.81122 0.80347 0.0
H1037 H 0.23339 0.7965 0.77537 0.0
C1038 C 0.22925 0.76762 0.72929 0.0
C1039 C 0.22355 0.75106 0.70675 0.0
C1040 C 0.20815 0.78107 0.74282 0.0
C1041 C 0.19749 0.75179 0.69519 0.0
C1042 C 0.17652 0.76568 0.70813 0.0
C1043 C 0.15962 0.78768 0.74899 0.0
C1044 C 0.16443 0.79824 0.77503 0.0
C1045 C 0.18133 0.77887 0.73288 0.0
C1046 C 0.19123 0.80282 0.78358 0.0
C1047 C 0.21296 0.79431 0.76756 0.0
H1048 H 0.56052 0.873 0.92402 0.0
H1049 H 0.4983 0.93434 0.92708 0.0
H1050 H 0.53167 0.96933 0.91665 0.0
H1051 H 0.57961 0.98307 0.91781 0.0
H1052 H 0.64189 0.92182 0.91502 0.0
H1053 H 0.60747 0.88628 0.91345 0.0
C1054 C 0.55413 0.8939 0.92146 0.0
C1055 C 0.52718 0.90119 0.92707 0.0
C1056 C 0.57354 0.91402 0.91592 0.0
C1057 C 0.51902 0.92824 0.92321 0.0
C1058 C 0.53815 0.94834 0.91746 0.0
C1059 C 0.58559 0.96198 0.91585 0.0
C1060 C 0.61315 0.95501 0.91722 0.0
C1061 C 0.56568 0.94161 0.91546 0.0
C1062 C 0.62075 0.92769 0.91423 0.0
C1063 C 0.60105 0.90731 0.91361 0.0
H1064 H 0.90475 0.05072 0.48189 0.0
H1065 H 0.94125 0.97223 0.49457 0.0
H1066 H 0.98389 0.99405 0.50784 0.0
H1067 H 0.0087 0.03554 0.52124 0.0
H1068 H 0.97039 0.11357 0.51116 0.0
H1069 H 0.93063 0.09185 0.49125 0.0
C1070 C 0.92216 0.03835 0.48712 0.0
C1071 C 0.91981 0.00993 0.4875 0.0
C1072 C 0.94622 0.05099 0.49543 0.0
C1073 C 0.94256 0.99417 0.4942 0.0
C1074 C 0.96689 0.00664 0.50192 0.0
C1075 C 0.99184 0.04777 0.51417 0.0
C1076 C 0.99234 0.07607 0.51782 0.0
C1077 C 0.96867 0.03505 0.50342 0.0
C1078 C 0.97035 0.09172 0.50874 0.0
C1079 C 0.9476 0.07932 0.49739 0.0
loop_
_geom_bond_atom_site_label_1
_geom_bond_atom_site_label_2
_geom_bond_distance
_geom_bond_site_symmetry_2
_ccdc_geom_bond_type
In0 O1 2.294 . S
In0 O2 2.326 . S
In0 O6 2.266 . S
In0 O7 2.326 . S
In0 O8 2.266 . S
In0 O9 2.326 . S
In0 O11 2.294 . S
In0 O12 2.326 . S
O1 In0 2.294 . S
O1 C10 1.240 . S
O2 In0 2.326 . S
O2 C10 1.252 . S
C3 O6 1.252 . S
C3 O7 1.260 . S
C4 O11 1.240 . S
C4 O12 1.252 . S
C5 O8 1.252 . S
C5 O9 1.260 . S
O6 In0 2.266 . S
O6 C3 1.252 . S
O7 In0 2.326 . S
O7 C3 1.260 . S
O8 In0 2.266 . S
O8 C5 1.252 . S
O9 In0 2.326 . S
O9 C5 1.260 . S
C10 O1 1.240 . S
C10 O2 1.252 . S
O11 In0 2.294 . S
O11 C4 1.240 . S
O12 In0 2.326 . S
O12 C4 1.252 . S
In13 O14 2.294 . S
In13 O15 2.326 . S
In13 O19 2.266 . S
In13 O20 2.326 . S
In13 O21 2.266 . S
In13 O22 2.326 . S
In13 O24 2.294 . S
In13 O25 2.326 . S
O14 In13 2.294 . S
O14 C23 1.240 . S
O15 In13 2.326 . S
O15 C23 1.252 . S
C16 O19 1.252 . S
C16 O20 1.260 . S
C17 O24 1.240 . S
C17 O25 1.252 . S
C18 O21 1.252 . S
C18 O22 1.260 . S
O19 In13 2.266 . S
O19 C16 1.252 . S
O20 In13 2.326 . S
O20 C16 1.260 . S
O21 In13 2.266 . S
O21 C18 1.252 . S
O22 In13 2.326 . S
O22 C18 1.260 . S
C23 O14 1.240 . S
C23 O15 1.252 . S
O24 In13 2.294 . S
O24 C17 1.240 . S
O25 In13 2.326 . S
O25 C17 1.252 . S
In26 O27 2.294 . S
In26 O28 2.326 . S
In26 O32 2.266 . S
In26 O33 2.326 . S
In26 O34 2.266 . S
In26 O35 2.326 . S
In26 O37 2.294 . S
In26 O38 2.326 . S
O27 In26 2.294 . S
O27 C36 1.240 . S
O28 In26 2.326 . S
O28 C36 1.252 . S
C29 O32 1.252 . S
C29 O33 1.260 . S
C30 O37 1.240 . S
C30 O38 1.252 . S
C31 O34 1.252 . S
C31 O35 1.260 . S
O32 In26 2.266 . S
O32 C29 1.252 . S
O33 In26 2.326 . S
O33 C29 1.260 . S
O34 In26 2.266 . S
O34 C31 1.252 . S
O35 In26 2.326 . S
O35 C31 1.260 . S
C36 O27 1.240 . S
C36 O28 1.252 . S
O37 In26 2.294 . S
O37 C30 1.240 . S
O38 In26 2.326 . S
O38 C30 1.252 . S
In39 O40 2.294 . S
In39 O41 2.326 . S
In39 O45 2.266 . S
In39 O46 2.326 . S
In39 O47 2.266 . S
In39 O48 2.326 . S
In39 O50 2.294 . S
In39 O51 2.326 . S
O40 In39 2.294 . S
O40 C49 1.240 . S
O41 In39 2.326 . S
O41 C49 1.252 . S
C42 O45 1.252 . S
C42 O46 1.260 . S
C43 O50 1.240 . S
C43 O51 1.252 . S
C44 O47 1.252 . S
C44 O48 1.260 . S
O45 In39 2.266 . S
O45 C42 1.252 . S
O46 In39 2.326 . S
O46 C42 1.260 . S
O47 In39 2.266 . S
O47 C44 1.252 . S
O48 In39 2.326 . S
O48 C44 1.260 . S
C49 O40 1.240 . S
C49 O41 1.252 . S
O50 In39 2.294 . S
O50 C43 1.240 . S
O51 In39 2.326 . S
O51 C43 1.252 . S
In52 O53 2.294 . S
In52 O54 2.326 . S
In52 O58 2.266 . S
In52 O59 2.326 . S
In52 O60 2.266 . S
In52 O61 2.326 . S
In52 O63 2.294 . S
In52 O64 2.326 . S
O53 In52 2.294 . S
O53 C62 1.240 . S
O54 In52 2.326 . S
O54 C62 1.252 . S
C55 O58 1.252 . S
C55 O59 1.260 . S
C56 O63 1.240 . S
C56 O64 1.252 . S
C57 O60 1.252 . S
C57 O61 1.260 . S
O58 In52 2.266 . S
O58 C55 1.252 . S
O59 In52 2.326 . S
O59 C55 1.260 . S
O60 In52 2.266 . S
O60 C57 1.252 . S
O61 In52 2.326 . S
O61 C57 1.260 . S
C62 O53 1.240 . S
C62 O54 1.252 . S
O63 In52 2.294 . S
O63 C56 1.240 . S
O64 In52 2.326 . S
O64 C56 1.252 . S
In65 O66 2.294 . S
In65 O67 2.326 . S
In65 O71 2.266 . S
In65 O72 2.326 . S
In65 O73 2.266 . S
In65 O74 2.326 . S
In65 O76 2.294 . S
In65 O77 2.326 . S
O66 In65 2.294 . S
O66 C75 1.240 . S
O67 In65 2.326 . S
O67 C75 1.252 . S
C68 O71 1.252 . S
C68 O72 1.260 . S
C69 O76 1.240 . S
C69 O77 1.252 . S
C70 O73 1.252 . S
C70 O74 1.260 . S
O71 In65 2.266 . S
O71 C68 1.252 . S
O72 In65 2.326 . S
O72 C68 1.260 . S
O73 In65 2.266 . S
O73 C70 1.252 . S
O74 In65 2.326 . S
O74 C70 1.260 . S
C75 O66 1.240 . S
C75 O67 1.252 . S
O76 In65 2.294 . S
O76 C69 1.240 . S
O77 In65 2.326 . S
O77 C69 1.252 . S
In78 O79 2.294 . S
In78 O80 2.326 . S
In78 O84 2.266 . S
In78 O85 2.326 . S
In78 O86 2.266 . S
In78 O87 2.326 . S
In78 O89 2.294 . S
In78 O90 2.326 . S
O79 In78 2.294 . S
O79 C88 1.240 . S
O80 In78 2.326 . S
O80 C88 1.252 . S
C81 O84 1.252 . S
C81 O85 1.260 . S
C82 O89 1.240 . S
C82 O90 1.252 . S
C83 O86 1.252 . S
C83 O87 1.260 . S
O84 In78 2.266 . S
O84 C81 1.252 . S
O85 In78 2.326 . S
O85 C81 1.260 . S
O86 In78 2.266 . S
O86 C83 1.252 . S
O87 In78 2.326 . S
O87 C83 1.260 . S
C88 O79 1.240 . S
C88 O80 1.252 . S
O89 In78 2.294 . S
O89 C82 1.240 . S
O90 In78 2.326 . S
O90 C82 1.252 . S
In91 O92 2.294 . S
In91 O93 2.326 . S
In91 O97 2.266 . S
In91 O98 2.326 . S
In91 O99 2.266 . S
In91 O100 2.326 . S
In91 O102 2.294 . S
In91 O103 2.326 . S
O92 In91 2.294 . S
O92 C101 1.240 . S
O93 In91 2.326 . S
O93 C101 1.252 . S
C94 O97 1.252 . S
C94 O98 1.260 . S
C95 O102 1.240 . S
C95 O103 1.252 . S
C96 O99 1.252 . S
C96 O100 1.260 . S
O97 In91 2.266 . S
O97 C94 1.252 . S
O98 In91 2.326 . S
O98 C94 1.260 . S
O99 In91 2.266 . S
O99 C96 1.252 . S
O100 In91 2.326 . S
O100 C96 1.260 . S
C101 O92 1.240 . S
C101 O93 1.252 . S
O102 In91 2.294 . S
O102 C95 1.240 . S
O103 In91 2.326 . S
O103 C95 1.252 . S
In104 O105 2.294 . S
In104 O106 2.326 . S
In104 O110 2.266 . S
In104 O111 2.326 . S
In104 O112 2.266 . S
In104 O113 2.326 . S
In104 O115 2.294 . S
In104 O116 2.326 . S
O105 In104 2.294 . S
O105 C114 1.240 . S
O106 In104 2.326 . S
O106 C114 1.252 . S
C107 O110 1.252 . S
C107 O111 1.260 . S
C108 O115 1.240 . S
C108 O116 1.252 . S
C109 O112 1.252 . S
C109 O113 1.260 . S
O110 In104 2.266 . S
O110 C107 1.252 . S
O111 In104 2.326 . S
O111 C107 1.260 . S
O112 In104 2.266 . S
O112 C109 1.252 . S
O113 In104 2.326 . S
O113 C109 1.260 . S
C114 O105 1.240 . S
C114 O106 1.252 . S
O115 In104 2.294 . S
O115 C108 1.240 . S
O116 In104 2.326 . S
O116 C108 1.252 . S
In117 O118 2.294 . S
In117 O119 2.326 . S
In117 O123 2.266 . S
In117 O124 2.326 . S
In117 O125 2.266 . S
In117 O126 2.326 . S
In117 O128 2.294 . S
In117 O129 2.326 . S
O118 In117 2.294 . S
O118 C127 1.240 . S
O119 In117 2.326 . S
O119 C127 1.252 . S
C120 O123 1.252 . S
C120 O124 1.260 . S
C121 O128 1.240 . S
C121 O129 1.252 . S
C122 O125 1.252 . S
C122 O126 1.260 . S
O123 In117 2.266 . S
O123 C120 1.252 . S
O124 In117 2.326 . S
O124 C120 1.260 . S
O125 In117 2.266 . S
O125 C122 1.252 . S
O126 In117 2.326 . S
O126 C122 1.260 . S
C127 O118 1.240 . S
C127 O119 1.252 . S
O128 In117 2.294 . S
O128 C121 1.240 . S
O129 In117 2.326 . S
O129 C121 1.252 . S
In130 O131 2.294 . S
In130 O132 2.326 . S
In130 O136 2.266 . S
In130 O137 2.326 . S
In130 O138 2.266 . S
In130 O139 2.326 . S
In130 O141 2.294 . S
In130 O142 2.326 . S
O131 In130 2.294 . S
O131 C140 1.240 . S
O132 In130 2.326 . S
O132 C140 1.252 . S
C133 O136 1.252 . S
C133 O137 1.260 . S
C134 O141 1.240 . S
C134 O142 1.252 . S
C135 O138 1.252 . S
C135 O139 1.260 . S
O136 In130 2.266 . S
O136 C133 1.252 . S
O137 In130 2.326 . S
O137 C133 1.260 . S
O138 In130 2.266 . S
O138 C135 1.252 . S
O139 In130 2.326 . S
O139 C135 1.260 . S
C140 O131 1.240 . S
C140 O132 1.252 . S
O141 In130 2.294 . S
O141 C134 1.240 . S
O142 In130 2.326 . S
O142 C134 1.252 . S
In143 O144 2.294 . S
In143 O145 2.326 . S
In143 O149 2.266 . S
In143 O150 2.326 . S
In143 O151 2.266 . S
In143 O152 2.326 . S
In143 O154 2.294 . S
In143 O155 2.326 . S
O144 In143 2.294 . S
O144 C153 1.240 . S
O145 In143 2.326 . S
O145 C153 1.252 . S
C146 O149 1.252 . S
C146 O150 1.260 . S
C147 O154 1.240 . S
C147 O155 1.252 . S
C148 O151 1.252 . S
C148 O152 1.260 . S
O149 In143 2.266 . S
O149 C146 1.252 . S
O150 In143 2.326 . S
O150 C146 1.260 . S
O151 In143 2.266 . S
O151 C148 1.252 . S
O152 In143 2.326 . S
O152 C148 1.260 . S
C153 O144 1.240 . S
C153 O145 1.252 . S
O154 In143 2.294 . S
O154 C147 1.240 . S
O155 In143 2.326 . S
O155 C147 1.252 . S
In156 O157 2.294 . S
In156 O158 2.326 . S
In156 O162 2.266 . S
In156 O163 2.326 . S
In156 O164 2.266 . S
In156 O165 2.326 . S
In156 O167 2.294 . S
In156 O168 2.326 . S
O157 In156 2.294 . S
O157 C166 1.240 . S
O158 In156 2.326 . S
O158 C166 1.252 . S
C159 O162 1.252 . S
C159 O163 1.260 . S
C160 O167 1.240 . S
C160 O168 1.252 . S
C161 O164 1.252 . S
C161 O165 1.260 . S
O162 In156 2.266 . S
O162 C159 1.252 . S
O163 In156 2.326 . S
O163 C159 1.260 . S
O164 In156 2.266 . S
O164 C161 1.252 . S
O165 In156 2.326 . S
O165 C161 1.260 . S
C166 O157 1.240 . S
C166 O158 1.252 . S
O167 In156 2.294 . S
O167 C160 1.240 . S
O168 In156 2.326 . S
O168 C160 1.252 . S
In169 O170 2.294 . S
In169 O171 2.326 . S
In169 O175 2.266 . S
In169 O176 2.326 . S
In169 O177 2.266 . S
In169 O178 2.326 . S
In169 O180 2.294 . S
In169 O181 2.326 . S
O170 In169 2.294 . S
O170 C179 1.240 . S
O171 In169 2.326 . S
O171 C179 1.252 . S
C172 O175 1.252 . S
C172 O176 1.260 . S
C173 O180 1.240 . S
C173 O181 1.252 . S
C174 O177 1.252 . S
C174 O178 1.260 . S
O175 In169 2.266 . S
O175 C172 1.252 . S
O176 In169 2.326 . S
O176 C172 1.260 . S
O177 In169 2.266 . S
O177 C174 1.252 . S
O178 In169 2.326 . S
O178 C174 1.260 . S
C179 O170 1.240 . S
C179 O171 1.252 . S
O180 In169 2.294 . S
O180 C173 1.240 . S
O181 In169 2.326 . S
O181 C173 1.252 . S
In182 O183 2.294 . S
In182 O184 2.326 . S
In182 O188 2.266 . S
In182 O189 2.326 . S
In182 O190 2.266 . S
In182 O191 2.326 . S
In182 O193 2.294 . S
In182 O194 2.326 . S
O183 In182 2.294 . S
O183 C192 1.240 . S
O184 In182 2.326 . S
O184 C192 1.252 . S
C185 O188 1.252 . S
C185 O189 1.260 . S
C186 O193 1.240 . S
C186 O194 1.252 . S
C187 O190 1.252 . S
C187 O191 1.260 . S
O188 In182 2.266 . S
O188 C185 1.252 . S
O189 In182 2.326 . S
O189 C185 1.260 . S
O190 In182 2.266 . S
O190 C187 1.252 . S
O191 In182 2.326 . S
O191 C187 1.260 . S
C192 O183 1.240 . S
C192 O184 1.252 . S
O193 In182 2.294 . S
O193 C186 1.240 . S
O194 In182 2.326 . S
O194 C186 1.252 . S
In195 O196 2.294 . S
In195 O197 2.326 . S
In195 O201 2.266 . S
In195 O202 2.326 . S
In195 O203 2.266 . S
In195 O204 2.326 . S
In195 O206 2.294 . S
In195 O207 2.326 . S
O196 In195 2.294 . S
O196 C205 1.240 . S
O197 In195 2.326 . S
O197 C205 1.252 . S
C198 O201 1.252 . S
C198 O202 1.260 . S
C199 O206 1.240 . S
C199 O207 1.252 . S
C200 O203 1.252 . S
C200 O204 1.260 . S
O201 In195 2.266 . S
O201 C198 1.252 . S
O202 In195 2.326 . S
O202 C198 1.260 . S
O203 In195 2.266 . S
O203 C200 1.252 . S
O204 In195 2.326 . S
O204 C200 1.260 . S
C205 O196 1.240 . S
C205 O197 1.252 . S
O206 In195 2.294 . S
O206 C199 1.240 . S
O207 In195 2.326 . S
O207 C199 1.252 . S
In208 O209 2.294 . S
In208 O210 2.326 . S
In208 O214 2.266 . S
In208 O215 2.326 . S
In208 O216 2.266 . S
In208 O217 2.326 . S
In208 O219 2.294 . S
In208 O220 2.326 . S
O209 In208 2.294 . S
O209 C218 1.240 . S
O210 In208 2.326 . S
O210 C218 1.252 . S
C211 O214 1.252 . S
C211 O215 1.260 . S
C212 O219 1.240 . S
C212 O220 1.252 . S
C213 O216 1.252 . S
C213 O217 1.260 . S
O214 In208 2.266 . S
O214 C211 1.252 . S
O215 In208 2.326 . S
O215 C211 1.260 . S
O216 In208 2.266 . S
O216 C213 1.252 . S
O217 In208 2.326 . S
O217 C213 1.260 . S
C218 O209 1.240 . S
C218 O210 1.252 . S
O219 In208 2.294 . S
O219 C212 1.240 . S
O220 In208 2.326 . S
O220 C212 1.252 . S
In221 O222 2.294 . S
In221 O223 2.326 . S
In221 O227 2.266 . S
In221 O228 2.326 . S
In221 O229 2.266 . S
In221 O230 2.326 . S
In221 O232 2.294 . S
In221 O233 2.326 . S
O222 In221 2.294 . S
O222 C231 1.240 . S
O223 In221 2.326 . S
O223 C231 1.252 . S
C224 O227 1.252 . S
C224 O228 1.260 . S
C225 O232 1.240 . S
C225 O233 1.252 . S
C226 O229 1.252 . S
C226 O230 1.260 . S
O227 In221 2.266 . S
O227 C224 1.252 . S
O228 In221 2.326 . S
O228 C224 1.260 . S
O229 In221 2.266 . S
O229 C226 1.252 . S
O230 In221 2.326 . S
O230 C226 1.260 . S
C231 O222 1.240 . S
C231 O223 1.252 . S
O232 In221 2.294 . S
O232 C225 1.240 . S
O233 In221 2.326 . S
O233 C225 1.252 . S
In234 O235 2.294 . S
In234 O236 2.326 . S
In234 O240 2.266 . S
In234 O241 2.326 . S
In234 O242 2.266 . S
In234 O243 2.326 . S
In234 O245 2.294 . S
In234 O246 2.326 . S
O235 In234 2.294 . S
O235 C244 1.240 . S
O236 In234 2.326 . S
O236 C244 1.252 . S
C237 O240 1.252 . S
C237 O241 1.260 . S
C238 O245 1.240 . S
C238 O246 1.252 . S
C239 O242 1.252 . S
C239 O243 1.260 . S
O240 In234 2.266 . S
O240 C237 1.252 . S
O241 In234 2.326 . S
O241 C237 1.260 . S
O242 In234 2.266 . S
O242 C239 1.252 . S
O243 In234 2.326 . S
O243 C239 1.260 . S
C244 O235 1.240 . S
C244 O236 1.252 . S
O245 In234 2.294 . S
O245 C238 1.240 . S
O246 In234 2.326 . S
O246 C238 1.252 . S
In247 O248 2.294 . S
In247 O249 2.326 . S
In247 O253 2.266 . S
In247 O254 2.326 . S
In247 O255 2.266 . S
In247 O256 2.326 . S
In247 O258 2.294 . S
In247 O259 2.326 . S
O248 In247 2.294 . S
O248 C257 1.240 . S
O249 In247 2.326 . S
O249 C257 1.252 . S
C250 O253 1.252 . S
C250 O254 1.260 . S
C251 O258 1.240 . S
C251 O259 1.252 . S
C252 O255 1.252 . S
C252 O256 1.260 . S
O253 In247 2.266 . S
O253 C250 1.252 . S
O254 In247 2.326 . S
O254 C250 1.260 . S
O255 In247 2.266 . S
O255 C252 1.252 . S
O256 In247 2.326 . S
O256 C252 1.260 . S
C257 O248 1.240 . S
C257 O249 1.252 . S
O258 In247 2.294 . S
O258 C251 1.240 . S
O259 In247 2.326 . S
O259 C251 1.252 . S
In260 O261 2.294 . S
In260 O262 2.326 . S
In260 O266 2.266 . S
In260 O267 2.326 . S
In260 O268 2.266 . S
In260 O269 2.326 . S
In260 O271 2.294 . S
In260 O272 2.326 . S
O261 In260 2.294 . S
O261 C270 1.240 . S
O262 In260 2.326 . S
O262 C270 1.252 . S
C263 O266 1.252 . S
C263 O267 1.260 . S
C264 O271 1.240 . S
C264 O272 1.252 . S
C265 O268 1.252 . S
C265 O269 1.260 . S
O266 In260 2.266 . S
O266 C263 1.252 . S
O267 In260 2.326 . S
O267 C263 1.260 . S
O268 In260 2.266 . S
O268 C265 1.252 . S
O269 In260 2.326 . S
O269 C265 1.260 . S
C270 O261 1.240 . S
C270 O262 1.252 . S
O271 In260 2.294 . S
O271 C264 1.240 . S
O272 In260 2.326 . S
O272 C264 1.252 . S
In273 O274 2.294 . S
In273 O275 2.326 . S
In273 O279 2.266 . S
In273 O280 2.326 . S
In273 O281 2.266 . S
In273 O282 2.326 . S
In273 O284 2.294 . S
In273 O285 2.326 . S
O274 In273 2.294 . S
O274 C283 1.240 . S
O275 In273 2.326 . S
O275 C283 1.252 . S
C276 O279 1.252 . S
C276 O280 1.260 . S
C277 O284 1.240 . S
C277 O285 1.252 . S
C278 O281 1.252 . S
C278 O282 1.260 . S
O279 In273 2.266 . S
O279 C276 1.252 . S
O280 In273 2.326 . S
O280 C276 1.260 . S
O281 In273 2.266 . S
O281 C278 1.252 . S
O282 In273 2.326 . S
O282 C278 1.260 . S
C283 O274 1.240 . S
C283 O275 1.252 . S
O284 In273 2.294 . S
O284 C277 1.240 . S
O285 In273 2.326 . S
O285 C277 1.252 . S
In286 O287 2.294 . S
In286 O288 2.326 . S
In286 O292 2.266 . S
In286 O293 2.326 . S
In286 O294 2.266 . S
In286 O295 2.326 . S
In286 O297 2.294 . S
In286 O298 2.326 . S
O287 In286 2.294 . S
O287 C296 1.240 . S
O288 In286 2.326 . S
O288 C296 1.252 . S
C289 O292 1.252 . S
C289 O293 1.260 . S
C290 O297 1.240 . S
C290 O298 1.252 . S
C291 O294 1.252 . S
C291 O295 1.260 . S
O292 In286 2.266 . S
O292 C289 1.252 . S
O293 In286 2.326 . S
O293 C289 1.260 . S
O294 In286 2.266 . S
O294 C291 1.252 . S
O295 In286 2.326 . S
O295 C291 1.260 . S
C296 O287 1.240 . S
C296 O288 1.252 . S
O297 In286 2.294 . S
O297 C290 1.240 . S
O298 In286 2.326 . S
O298 C290 1.252 . S
In299 O300 2.294 . S
In299 O301 2.326 . S
In299 O305 2.266 . S
In299 O306 2.326 . S
In299 O307 2.266 . S
In299 O308 2.326 . S
In299 O310 2.294 . S
In299 O311 2.326 . S
O300 In299 2.294 . S
O300 C309 1.240 . S
O301 In299 2.326 . S
O301 C309 1.252 . S
C302 O305 1.252 . S
C302 O306 1.260 . S
C303 O310 1.240 . S
C303 O311 1.252 . S
C304 O307 1.252 . S
C304 O308 1.260 . S
O305 In299 2.266 . S
O305 C302 1.252 . S
O306 In299 2.326 . S
O306 C302 1.260 . S
O307 In299 2.266 . S
O307 C304 1.252 . S
O308 In299 2.326 . S
O308 C304 1.260 . S
C309 O300 1.240 . S
C309 O301 1.252 . S
O310 In299 2.294 . S
O310 C303 1.240 . S
O311 In299 2.326 . S
O311 C303 1.252 . S
H312 C318 0.930 . S
H313 C321 0.930 . S
H314 C322 0.930 . S
H315 C323 0.930 . S
H316 C326 0.930 . S
H317 C327 0.930 . S
C318 H312 0.930 . S
C318 C319 1.355 . S
C318 C320 1.415 . S
C319 C318 1.355 . S
C319 C321 1.419 . S
C320 C318 1.415 . S
C320 C325 1.425 . S
C320 C327 1.409 . S
C321 H313 0.930 . S
C321 C319 1.419 . S
C321 C322 1.362 . S
C322 H314 0.930 . S
C322 C321 1.362 . S
C322 C325 1.409 . S
C323 H315 0.930 . S
C323 C324 1.355 . S
C323 C325 1.415 . S
C324 C323 1.355 . S
C324 C326 1.419 . S
C325 C320 1.425 . S
C325 C322 1.409 . S
C325 C323 1.415 . S
C326 H316 0.930 . S
C326 C324 1.419 . S
C326 C327 1.362 . S
C327 H317 0.930 . S
C327 C320 1.409 . S
C327 C326 1.362 . S
H328 C334 0.929 1_655 S
H329 C337 0.930 . S
H330 C338 0.930 . S
H331 C339 0.930 . S
H332 C342 0.930 . S
H333 C343 0.930 . S
C334 H328 0.929 1_455 S
C334 C335 1.355 1_455 S
C334 C336 1.415 . S
C335 C334 1.355 1_655 S
C335 C337 1.419 . S
C336 C334 1.415 . S
C336 C341 1.425 . S
C336 C343 1.409 . S
C337 H329 0.930 . S
C337 C335 1.419 . S
C337 C338 1.362 1_655 S
C338 H330 0.930 . S
C338 C337 1.362 1_455 S
C338 C341 1.409 . S
C339 H331 0.930 . S
C339 C340 1.355 . S
C339 C341 1.415 . S
C340 C339 1.355 . S
C340 C342 1.419 . S
C341 C336 1.425 . S
C341 C338 1.409 . S
C341 C339 1.415 . S
C342 H332 0.930 . S
C342 C340 1.419 . S
C342 C343 1.362 . S
C343 H333 0.930 . S
C343 C336 1.409 . S
C343 C342 1.362 . S
H344 C350 0.930 . S
H345 C353 0.930 . S
H346 C354 0.930 1_554 S
H347 C355 0.930 . S
H348 C358 0.930 . S
H349 C359 0.930 . S
C350 H344 0.930 . S
C350 C351 1.355 . S
C350 C352 1.415 . S
C351 C350 1.355 . S
C351 C353 1.419 . S
C352 C350 1.415 . S
C352 C357 1.425 . S
C352 C359 1.409 . S
C353 H345 0.930 . S
C353 C351 1.419 . S
C353 C354 1.362 . S
C354 H346 0.930 1_556 S
C354 C353 1.362 . S
C354 C357 1.409 . S
C355 H347 0.930 . S
C355 C356 1.355 . S
C355 C357 1.415 1_554 S
C356 C355 1.355 . S
C356 C358 1.419 1_554 S
C357 C352 1.425 . S
C357 C354 1.409 . S
C357 C355 1.415 1_556 S
C358 H348 0.930 . S
C358 C356 1.419 1_556 S
C358 C359 1.362 . S
C359 H349 0.930 . S
C359 C352 1.409 . S
C359 C358 1.362 . S
H360 C366 0.930 . S
H361 C369 0.930 . S
H362 C370 0.930 . S
H363 C371 0.930 . S
H364 C374 0.930 . S
H365 C375 0.930 . S
C366 H360 0.930 . S
C366 C367 1.355 . S
C366 C368 1.415 . S
C367 C366 1.355 . S
C367 C369 1.419 . S
C368 C366 1.415 . S
C368 C373 1.425 . S
C368 C375 1.409 . S
C369 H361 0.930 . S
C369 C367 1.419 . S
C369 C370 1.362 . S
C370 H362 0.930 . S
C370 C369 1.362 . S
C370 C373 1.409 . S
C371 H363 0.930 . S
C371 C372 1.355 . S
C371 C373 1.415 . S
C372 C371 1.355 . S
C372 C374 1.419 . S
C373 C368 1.425 . S
C373 C370 1.409 . S
C373 C371 1.415 . S
C374 H364 0.930 . S
C374 C372 1.419 . S
C374 C375 1.362 . S
C375 H365 0.930 . S
C375 C368 1.409 . S
C375 C374 1.362 . S
H376 C382 0.930 . S
H377 C385 0.930 . S
H378 C386 0.930 . S
H379 C387 0.930 . S
H380 C390 0.930 . S
H381 C391 0.930 . S
C382 H376 0.930 . S
C382 C383 1.355 . S
C382 C384 1.415 . S
C383 C382 1.355 . S
C383 C385 1.419 . S
C384 C382 1.415 . S
C384 C389 1.425 . S
C384 C391 1.409 . S
C385 H377 0.930 . S
C385 C383 1.419 . S
C385 C386 1.362 . S
C386 H378 0.930 . S
C386 C385 1.362 . S
C386 C389 1.409 . S
C387 H379 0.930 . S
C387 C388 1.355 . S
C387 C389 1.415 . S
C388 C387 1.355 . S
C388 C390 1.419 . S
C389 C384 1.425 . S
C389 C386 1.409 . S
C389 C387 1.415 . S
C390 H380 0.930 . S
C390 C388 1.419 . S
C390 C391 1.362 . S
C391 H381 0.930 . S
C391 C384 1.409 . S
C391 C390 1.362 . S
H392 C398 0.930 . S
H393 C401 0.930 . S
H394 C402 0.930 1_455 S
H395 C403 0.930 . S
H396 C406 0.930 . S
H397 C407 0.930 . S
C398 H392 0.930 . S
C398 C399 1.355 . S
C398 C400 1.415 . S
C399 C398 1.355 . S
C399 C401 1.419 . S
C400 C398 1.415 . S
C400 C405 1.425 . S
C400 C407 1.409 . S
C401 H393 0.930 . S
C401 C399 1.419 . S
C401 C402 1.362 . S
C402 H394 0.930 1_655 S
C402 C401 1.362 . S
C402 C405 1.409 . S
C403 H395 0.930 . S
C403 C404 1.355 . S
C403 C405 1.415 1_455 S
C404 C403 1.355 . S
C404 C406 1.419 1_455 S
C405 C400 1.425 . S
C405 C402 1.409 . S
C405 C403 1.415 1_655 S
C406 H396 0.930 . S
C406 C404 1.419 1_655 S
C406 C407 1.362 . S
C407 H397 0.930 . S
C407 C400 1.409 . S
C407 C406 1.362 . S
H408 C414 0.930 . S
H409 C417 0.930 . S
H410 C418 0.930 . S
H411 C419 0.930 . S
H412 C422 0.930 . S
H413 C423 0.930 . S
C414 H408 0.930 . S
C414 C415 1.355 . S
C414 C416 1.415 . S
C415 C414 1.355 . S
C415 C417 1.419 . S
C416 C414 1.415 . S
C416 C421 1.425 . S
C416 C423 1.409 . S
C417 H409 0.930 . S
C417 C415 1.419 . S
C417 C418 1.362 . S
C418 H410 0.930 . S
C418 C417 1.362 . S
C418 C421 1.409 . S
C419 H411 0.930 . S
C419 C420 1.355 1_554 S
C419 C421 1.415 . S
C420 C419 1.355 1_556 S
C420 C422 1.419 . S
C421 C416 1.425 . S
C421 C418 1.409 . S
C421 C419 1.415 . S
C422 H412 0.930 . S
C422 C420 1.419 . S
C422 C423 1.362 1_556 S
C423 H413 0.930 . S
C423 C416 1.409 . S
C423 C422 1.362 1_554 S
H424 C430 0.930 . S
H425 C433 0.930 . S
H426 C434 0.930 . S
H427 C435 0.930 . S
H428 C438 0.930 . S
H429 C439 0.930 . S
C430 H424 0.930 . S
C430 C431 1.355 . S
C430 C432 1.415 . S
C431 C430 1.355 . S
C431 C433 1.419 . S
C432 C430 1.415 . S
C432 C437 1.425 . S
C432 C439 1.409 . S
C433 H425 0.930 . S
C433 C431 1.419 . S
C433 C434 1.362 . S
C434 H426 0.930 . S
C434 C433 1.362 . S
C434 C437 1.409 . S
C435 H427 0.930 . S
C435 C436 1.355 . S
C435 C437 1.415 . S
C436 C435 1.355 . S
C436 C438 1.419 . S
C437 C432 1.425 . S
C437 C434 1.409 . S
C437 C435 1.415 . S
C438 H428 0.930 . S
C438 C436 1.419 . S
C438 C439 1.362 . S
C439 H429 0.930 . S
C439 C432 1.409 . S
C439 C438 1.362 . S
H440 C446 0.930 . S
H441 C449 0.930 . S
H442 C450 0.930 . S
H443 C451 0.930 . S
H444 C454 0.930 . S
H445 C455 0.930 . S
C446 H440 0.930 . S
C446 C447 1.355 . S
C446 C448 1.415 . S
C447 C446 1.355 . S
C447 C449 1.419 . S
C448 C446 1.415 . S
C448 C453 1.425 . S
C448 C455 1.409 . S
C449 H441 0.930 . S
C449 C447 1.419 . S
C449 C450 1.362 . S
C450 H442 0.930 . S
C450 C449 1.362 . S
C450 C453 1.409 . S
C451 H443 0.930 . S
C451 C452 1.355 . S
C451 C453 1.415 . S
C452 C451 1.355 . S
C452 C454 1.419 . S
C453 C448 1.425 . S
C453 C450 1.409 . S
C453 C451 1.415 . S
C454 H444 0.930 . S
C454 C452 1.419 . S
C454 C455 1.362 . S
C455 H445 0.930 . S
C455 C448 1.409 . S
C455 C454 1.362 . S
H456 C462 0.930 . S
H457 C465 0.930 . S
H458 C466 0.930 . S
H459 C467 0.930 . S
H460 C470 0.930 . S
H461 C471 0.930 . S
C462 H456 0.930 . S
C462 C463 1.355 1_545 S
C462 C464 1.415 . S
C463 C462 1.355 1_565 S
C463 C465 1.419 . S
C464 C462 1.415 . S
C464 C469 1.425 . S
C464 C471 1.409 . S
C465 H457 0.930 . S
C465 C463 1.419 . S
C465 C466 1.362 . S
C466 H458 0.930 . S
C466 C465 1.362 . S
C466 C469 1.409 1_565 S
C467 H459 0.930 . S
C467 C468 1.355 . S
C467 C469 1.415 . S
C468 C467 1.355 . S
C468 C470 1.419 . S
C469 C464 1.425 . S
C469 C466 1.409 1_545 S
C469 C467 1.415 . S
C470 H460 0.930 . S
C470 C468 1.419 . S
C470 C471 1.362 . S
C471 H461 0.930 . S
C471 C464 1.409 . S
C471 C470 1.362 . S
H472 C478 0.930 . S
H473 C481 0.930 . S
H474 C482 0.930 1_545 S
H475 C483 0.930 . S
H476 C486 0.930 . S
H477 C487 0.930 . S
C478 H472 0.930 . S
C478 C479 1.355 . S
C478 C480 1.415 . S
C479 C478 1.355 . S
C479 C481 1.419 . S
C480 C478 1.415 . S
C480 C485 1.425 . S
C480 C487 1.409 . S
C481 H473 0.930 . S
C481 C479 1.419 . S
C481 C482 1.362 . S
C482 H474 0.930 1_565 S
C482 C481 1.362 . S
C482 C485 1.409 . S
C483 H475 0.930 . S
C483 C484 1.355 . S
C483 C485 1.415 1_545 S
C484 C483 1.355 . S
C484 C486 1.419 1_545 S
C485 C480 1.425 . S
C485 C482 1.409 . S
C485 C483 1.415 1_565 S
C486 H476 0.930 . S
C486 C484 1.419 1_565 S
C486 C487 1.362 . S
C487 H477 0.930 . S
C487 C480 1.409 . S
C487 C486 1.362 . S
H488 C494 0.930 . S
H489 C497 0.930 . S
H490 C498 0.930 . S
H491 C499 0.930 . S
H492 C502 0.930 . S
H493 C503 0.930 . S
C494 H488 0.930 . S
C494 C495 1.355 . S
C494 C496 1.415 . S
C495 C494 1.355 . S
C495 C497 1.419 . S
C496 C494 1.415 . S
C496 C501 1.425 . S
C496 C503 1.409 . S
C497 H489 0.930 . S
C497 C495 1.419 . S
C497 C498 1.362 . S
C498 H490 0.930 . S
C498 C497 1.362 . S
C498 C501 1.409 . S
C499 H491 0.930 . S
C499 C500 1.355 . S
C499 C501 1.415 . S
C500 C499 1.355 . S
C500 C502 1.419 . S
C501 C496 1.425 . S
C501 C498 1.409 . S
C501 C499 1.415 . S
C502 H492 0.930 . S
C502 C500 1.419 . S
C502 C503 1.362 . S
C503 H493 0.930 . S
C503 C496 1.409 . S
C503 C502 1.362 . S
H504 C510 0.930 . S
H505 C513 0.930 . S
H506 C514 0.930 . S
H507 C515 0.930 . S
H508 C518 0.930 . S
H509 C519 0.930 . S
C510 H504 0.930 . S
C510 C511 1.355 . S
C510 C512 1.415 . S
C511 C510 1.355 . S
C511 C513 1.419 . S
C512 C510 1.415 . S
C512 C517 1.425 . S
C512 C519 1.409 . S
C513 H505 0.930 . S
C513 C511 1.419 . S
C513 C514 1.362 . S
C514 H506 0.930 . S
C514 C513 1.362 . S
C514 C517 1.409 . S
C515 H507 0.930 . S
C515 C516 1.355 . S
C515 C517 1.415 . S
C516 C515 1.355 . S
C516 C518 1.419 . S
C517 C512 1.425 . S
C517 C514 1.409 . S
C517 C515 1.415 . S
C518 H508 0.930 . S
C518 C516 1.419 . S
C518 C519 1.362 . S
C519 H509 0.930 . S
C519 C512 1.409 . S
C519 C518 1.362 . S
H520 C526 0.913 1_545 S
H521 C529 0.930 . S
H522 C530 0.930 . S
H523 C531 0.911 1_565 S
H524 C534 0.930 . S
H525 C535 0.930 . S
C526 H520 0.913 1_565 S
C526 C527 1.355 . S
C526 C528 1.415 1_565 S
C527 C526 1.355 . S
C527 C529 1.419 . S
C528 C526 1.415 1_545 S
C528 C533 1.425 1_545 S
C528 C535 1.409 . S
C529 H521 0.930 . S
C529 C527 1.419 . S
C529 C530 1.362 . S
C530 H522 0.930 . S
C530 C529 1.362 . S
C530 C533 1.409 . S
C531 H523 0.911 1_545 S
C531 C532 1.355 . S
C531 C533 1.415 1_545 S
C532 C531 1.355 . S
C532 C534 1.419 . S
C533 C528 1.425 1_565 S
C533 C530 1.409 . S
C533 C531 1.415 1_565 S
C534 H524 0.930 . S
C534 C532 1.419 . S
C534 C535 1.362 . S
C535 H525 0.930 . S
C535 C528 1.409 . S
C535 C534 1.362 . S
H536 C542 0.930 . S
H537 C545 0.930 . S
H538 C546 0.930 . S
H539 C547 0.930 . S
H540 C550 0.930 . S
H541 C551 0.930 . S
C542 H536 0.930 . S
C542 C543 1.355 . S
C542 C544 1.415 . S
C543 C542 1.355 . S
C543 C545 1.419 . S
C544 C542 1.415 . S
C544 C549 1.425 1_556 S
C544 C551 1.409 . S
C545 H537 0.930 . S
C545 C543 1.419 . S
C545 C546 1.362 1_556 S
C546 H538 0.930 . S
C546 C545 1.362 1_554 S
C546 C549 1.409 . S
C547 H539 0.930 . S
C547 C548 1.355 . S
C547 C549 1.415 . S
C548 C547 1.355 . S
C548 C550 1.419 . S
C549 C544 1.425 1_554 S
C549 C546 1.409 . S
C549 C547 1.415 . S
C550 H540 0.930 . S
C550 C548 1.419 . S
C550 C551 1.362 1_554 S
C551 H541 0.930 . S
C551 C544 1.409 . S
C551 C550 1.362 1_556 S
H552 C558 0.930 . S
H553 C561 0.930 . S
H554 C562 0.930 . S
H555 C563 0.930 . S
H556 C566 0.930 . S
H557 C567 0.930 . S
C558 H552 0.930 . S
C558 C559 1.355 . S
C558 C560 1.415 . S
C559 C558 1.355 . S
C559 C561 1.419 . S
C560 C558 1.415 . S
C560 C565 1.425 1_545 S
C560 C567 1.409 1_545 S
C561 H553 0.930 . S
C561 C559 1.419 . S
C561 C562 1.362 . S
C562 H554 0.930 . S
C562 C561 1.362 . S
C562 C565 1.409 1_545 S
C563 H555 0.930 . S
C563 C564 1.355 . S
C563 C565 1.415 . S
C564 C563 1.355 . S
C564 C566 1.419 . S
C565 C560 1.425 1_565 S
C565 C562 1.409 1_565 S
C565 C563 1.415 . S
C566 H556 0.930 . S
C566 C564 1.419 . S
C566 C567 1.362 . S
C567 H557 0.930 . S
C567 C560 1.409 1_565 S
C567 C566 1.362 . S
H568 C574 0.930 . S
H569 C577 0.930 . S
H570 C578 0.930 . S
H571 C579 0.930 . S
H572 C582 0.930 . S
H573 C583 0.930 . S
C574 H568 0.930 . S
C574 C575 1.355 . S
C574 C576 1.415 . S
C575 C574 1.355 . S
C575 C577 1.419 . S
C576 C574 1.415 . S
C576 C581 1.425 . S
C576 C583 1.409 . S
C577 H569 0.930 . S
C577 C575 1.419 . S
C577 C578 1.362 . S
C578 H570 0.930 . S
C578 C577 1.362 . S
C578 C581 1.409 . S
C579 H571 0.930 . S
C579 C580 1.355 . S
C579 C581 1.415 . S
C580 C579 1.355 . S
C580 C582 1.419 . S
C581 C576 1.425 . S
C581 C578 1.409 . S
C581 C579 1.415 . S
C582 H572 0.930 . S
C582 C580 1.419 . S
C582 C583 1.362 . S
C583 H573 0.930 . S
C583 C576 1.409 . S
C583 C582 1.362 . S
H584 C590 0.930 . S
H585 C593 0.930 . S
H586 C594 0.930 . S
H587 C595 0.930 . S
H588 C598 0.930 . S
H589 C599 0.930 . S
C590 H584 0.930 . S
C590 C591 1.355 . S
C590 C592 1.415 . S
C591 C590 1.355 . S
C591 C593 1.419 . S
C592 C590 1.415 . S
C592 C597 1.425 . S
C592 C599 1.409 . S
C593 H585 0.930 . S
C593 C591 1.419 . S
C593 C594 1.362 . S
C594 H586 0.930 . S
C594 C593 1.362 . S
C594 C597 1.409 . S
C595 H587 0.930 . S
C595 C596 1.355 . S
C595 C597 1.415 . S
C596 C595 1.355 . S
C596 C598 1.419 . S
C597 C592 1.425 . S
C597 C594 1.409 . S
C597 C595 1.415 . S
C598 H588 0.930 . S
C598 C596 1.419 . S
C598 C599 1.362 . S
C599 H589 0.930 . S
C599 C592 1.409 . S
C599 C598 1.362 . S
H600 C606 0.930 . S
H601 C609 0.930 . S
H602 C610 0.930 . S
H603 C611 0.930 . S
H604 C614 0.930 . S
H605 C615 0.930 . S
C606 H600 0.930 . S
C606 C607 1.355 . S
C606 C608 1.415 . S
C607 C606 1.355 . S
C607 C609 1.419 . S
C608 C606 1.415 . S
C608 C613 1.425 1_556 S
C608 C615 1.409 . S
C609 H601 0.930 . S
C609 C607 1.419 . S
C609 C610 1.362 1_556 S
C610 H602 0.930 . S
C610 C609 1.362 1_554 S
C610 C613 1.409 . S
C611 H603 0.930 . S
C611 C612 1.355 . S
C611 C613 1.415 . S
C612 C611 1.355 . S
C612 C614 1.419 . S
C613 C608 1.425 1_554 S
C613 C610 1.409 . S
C613 C611 1.415 . S
C614 H604 0.930 . S
C614 C612 1.419 . S
C614 C615 1.362 1_554 S
C615 H605 0.930 . S
C615 C608 1.409 . S
C615 C614 1.362 1_556 S
H616 C622 0.930 . S
H617 C625 0.930 . S
H618 C626 0.930 . S
H619 C627 0.930 . S
H620 C630 0.930 . S
H621 C631 0.930 . S
C622 H616 0.930 . S
C622 C623 1.355 . S
C622 C624 1.415 . S
C623 C622 1.355 . S
C623 C625 1.419 . S
C624 C622 1.415 . S
C624 C629 1.425 . S
C624 C631 1.409 . S
C625 H617 0.930 . S
C625 C623 1.419 . S
C625 C626 1.362 . S
C626 H618 0.930 . S
C626 C625 1.362 . S
C626 C629 1.409 . S
C627 H619 0.930 . S
C627 C628 1.355 . S
C627 C629 1.415 . S
C628 C627 1.355 . S
C628 C630 1.419 . S
C629 C624 1.425 . S
C629 C626 1.409 . S
C629 C627 1.415 . S
C630 H620 0.930 . S
C630 C628 1.419 . S
C630 C631 1.362 . S
C631 H621 0.930 . S
C631 C624 1.409 . S
C631 C630 1.362 . S
H632 C638 0.930 . S
H633 C641 0.930 . S
H634 C642 0.930 . S
H635 C643 0.930 . S
H636 C646 0.930 . S
H637 C647 0.930 . S
C638 H632 0.930 . S
C638 C639 1.355 . S
C638 C640 1.415 . S
C639 C638 1.355 . S
C639 C641 1.419 . S
C640 C638 1.415 . S
C640 C645 1.425 . S
C640 C647 1.409 . S
C641 H633 0.930 . S
C641 C639 1.419 . S
C641 C642 1.362 . S
C642 H634 0.930 . S
C642 C641 1.362 . S
C642 C645 1.409 . S
C643 H635 0.930 . S
C643 C644 1.355 . S
C643 C645 1.415 . S
C644 C643 1.355 . S
C644 C646 1.419 . S
C645 C640 1.425 . S
C645 C642 1.409 . S
C645 C643 1.415 . S
C646 H636 0.930 . S
C646 C644 1.419 . S
C646 C647 1.362 . S
C647 H637 0.930 . S
C647 C640 1.409 . S
C647 C646 1.362 . S
H648 C654 0.928 . S
H649 C657 0.930 . S
H650 C658 0.930 . S
H651 C659 0.930 1_455 S
H652 C662 0.930 . S
H653 C663 0.930 . S
C654 H648 0.928 . S
C654 C655 1.355 . S
C654 C656 1.415 1_455 S
C655 C654 1.355 . S
C655 C657 1.419 . S
C656 C654 1.415 1_655 S
C656 C661 1.425 1_655 S
C656 C663 1.409 . S
C657 H649 0.930 . S
C657 C655 1.419 . S
C657 C658 1.362 . S
C658 H650 0.930 . S
C658 C657 1.362 . S
C658 C661 1.409 . S
C659 H651 0.930 1_655 S
C659 C660 1.355 . S
C659 C661 1.415 1_655 S
C660 C659 1.355 . S
C660 C662 1.419 . S
C661 C656 1.425 1_455 S
C661 C658 1.409 . S
C661 C659 1.415 1_455 S
C662 H652 0.930 . S
C662 C660 1.419 . S
C662 C663 1.362 . S
C663 H653 0.930 . S
C663 C656 1.409 . S
C663 C662 1.362 . S
H664 C670 0.930 . S
H665 C673 0.930 . S
H666 C674 0.930 . S
H667 C675 0.930 . S
H668 C678 0.930 . S
H669 C679 0.930 . S
C670 H664 0.930 . S
C670 C671 1.355 . S
C670 C672 1.415 . S
C671 C670 1.355 . S
C671 C673 1.419 . S
C672 C670 1.415 . S
C672 C677 1.425 1_655 S
C672 C679 1.409 . S
C673 H665 0.930 . S
C673 C671 1.419 . S
C673 C674 1.362 1_655 S
C674 H666 0.930 . S
C674 C673 1.362 1_455 S
C674 C677 1.409 . S
C675 H667 0.930 . S
C675 C676 1.355 . S
C675 C677 1.415 . S
C676 C675 1.355 . S
C676 C678 1.419 . S
C677 C672 1.425 1_455 S
C677 C674 1.409 . S
C677 C675 1.415 . S
C678 H668 0.930 . S
C678 C676 1.419 . S
C678 C679 1.362 1_455 S
C679 H669 0.930 . S
C679 C672 1.409 . S
C679 C678 1.362 1_655 S
H680 C686 0.930 . S
H681 C689 0.930 . S
H682 C690 0.930 . S
H683 C691 0.930 . S
H684 C694 0.930 . S
H685 C695 0.930 . S
C686 H680 0.930 . S
C686 C687 1.355 . S
C686 C688 1.415 . S
C687 C686 1.355 . S
C687 C689 1.419 . S
C688 C686 1.415 . S
C688 C693 1.425 . S
C688 C695 1.409 . S
C689 H681 0.930 . S
C689 C687 1.419 . S
C689 C690 1.362 . S
C690 H682 0.930 . S
C690 C689 1.362 . S
C690 C693 1.409 . S
C691 H683 0.930 . S
C691 C692 1.355 . S
C691 C693 1.415 . S
C692 C691 1.355 . S
C692 C694 1.419 . S
C693 C688 1.425 . S
C693 C690 1.409 . S
C693 C691 1.415 . S
C694 H684 0.930 . S
C694 C692 1.419 . S
C694 C695 1.362 . S
C695 H685 0.930 . S
C695 C688 1.409 . S
C695 C694 1.362 . S
H696 C702 0.930 . S
H697 C705 0.930 . S
H698 C706 0.930 . S
H699 C707 0.930 . S
H700 C710 0.930 . S
H701 C711 0.930 . S
C702 H696 0.930 . S
C702 C703 1.355 . S
C702 C704 1.415 . S
C703 C702 1.355 . S
C703 C705 1.419 . S
C704 C702 1.415 . S
C704 C709 1.425 . S
C704 C711 1.409 . S
C705 H697 0.930 . S
C705 C703 1.419 . S
C705 C706 1.362 . S
C706 H698 0.930 . S
C706 C705 1.362 . S
C706 C709 1.409 . S
C707 H699 0.930 . S
C707 C708 1.355 . S
C707 C709 1.415 . S
C708 C707 1.355 . S
C708 C710 1.419 . S
C709 C704 1.425 . S
C709 C706 1.409 . S
C709 C707 1.415 . S
C710 H700 0.930 . S
C710 C708 1.419 . S
C710 C711 1.362 . S
C711 H701 0.930 . S
C711 C704 1.409 . S
C711 C710 1.362 . S
H712 C718 0.930 . S
H713 C721 0.920 1_545 S
H714 C722 0.930 . S
H715 C723 0.930 . S
H716 C726 0.930 . S
H717 C727 0.930 . S
C718 H712 0.930 . S
C718 C719 1.355 . S
C718 C720 1.415 . S
C719 C718 1.355 . S
C719 C721 1.420 . S
C720 C718 1.415 . S
C720 C725 1.425 . S
C720 C727 1.409 . S
C721 H713 0.920 1_565 S
C721 C719 1.420 . S
C721 C722 1.372 . S
C722 H714 0.930 . S
C722 C721 1.372 . S
C722 C725 1.409 . S
C723 H715 0.930 . S
C723 C724 1.355 . S
C723 C725 1.415 . S
C724 C723 1.355 . S
C724 C726 1.419 . S
C725 C720 1.425 . S
C725 C722 1.409 . S
C725 C723 1.415 . S
C726 H716 0.930 . S
C726 C724 1.419 . S
C726 C727 1.362 . S
C727 H717 0.930 . S
C727 C720 1.409 . S
C727 C726 1.362 . S
H728 C734 0.930 . S
H729 C737 0.930 . S
H730 C738 0.930 . S
H731 C739 0.930 . S
H732 C742 0.930 . S
H733 C743 0.930 . S
C734 H728 0.930 . S
C734 C735 1.355 . S
C734 C736 1.415 . S
C735 C734 1.355 . S
C735 C737 1.419 . S
C736 C734 1.415 . S
C736 C741 1.425 . S
C736 C743 1.409 . S
C737 H729 0.930 . S
C737 C735 1.419 . S
C737 C738 1.362 . S
C738 H730 0.930 . S
C738 C737 1.362 . S
C738 C741 1.409 . S
C739 H731 0.930 . S
C739 C740 1.355 . S
C739 C741 1.415 . S
C740 C739 1.355 . S
C740 C742 1.419 . S
C741 C736 1.425 . S
C741 C738 1.409 . S
C741 C739 1.415 . S
C742 H732 0.930 . S
C742 C740 1.419 . S
C742 C743 1.362 . S
C743 H733 0.930 . S
C743 C736 1.409 . S
C743 C742 1.362 . S
H744 C750 0.930 . S
H745 C753 0.930 . S
H746 C754 0.930 . S
H747 C755 0.930 . S
H748 C758 0.930 . S
H749 C759 0.934 . S
C750 H744 0.930 . S
C750 C751 1.355 . S
C750 C752 1.415 . S
C751 C750 1.355 . S
C751 C753 1.419 . S
C752 C750 1.415 . S
C752 C757 1.425 . S
C752 C759 1.401 1_545 S
C753 H745 0.930 . S
C753 C751 1.419 . S
C753 C754 1.362 . S
C754 H746 0.930 . S
C754 C753 1.362 . S
C754 C757 1.409 . S
C755 H747 0.930 . S
C755 C756 1.359 . S
C755 C757 1.415 1_556 S
C756 C755 1.359 . S
C756 C758 1.417 1_546 S
C757 C752 1.425 . S
C757 C754 1.409 . S
C757 C755 1.415 1_554 S
C758 H748 0.930 . S
C758 C756 1.417 1_564 S
C758 C759 1.366 . S
C759 H749 0.934 . S
C759 C752 1.401 1_565 S
C759 C758 1.366 . S
H760 C766 0.930 . S
H761 C769 0.930 . S
H762 C770 0.930 . S
H763 C771 0.930 . S
H764 C774 0.930 . S
H765 C775 0.930 . S
C766 H760 0.930 . S
C766 C767 1.355 . S
C766 C768 1.415 . S
C767 C766 1.355 . S
C767 C769 1.419 . S
C768 C766 1.415 . S
C768 C773 1.425 . S
C768 C775 1.409 . S
C769 H761 0.930 . S
C769 C767 1.419 . S
C769 C770 1.362 . S
C770 H762 0.930 . S
C770 C769 1.362 . S
C770 C773 1.409 . S
C771 H763 0.930 . S
C771 C772 1.355 . S
C771 C773 1.415 . S
C772 C771 1.355 . S
C772 C774 1.419 . S
C773 C768 1.425 . S
C773 C770 1.409 . S
C773 C771 1.415 . S
C774 H764 0.930 . S
C774 C772 1.419 . S
C774 C775 1.362 . S
C775 H765 0.930 . S
C775 C768 1.409 . S
C775 C774 1.362 . S
H776 C782 0.930 . S
H777 C785 0.930 . S
H778 C786 0.930 . S
H779 C787 0.930 . S
H780 C790 0.930 . S
H781 C791 0.930 . S
C782 H776 0.930 . S
C782 C783 1.355 . S
C782 C784 1.415 1_554 S
C783 C782 1.355 . S
C783 C785 1.419 1_554 S
C784 C782 1.415 1_556 S
C784 C789 1.425 . S
C784 C791 1.409 . S
C785 H777 0.930 . S
C785 C783 1.419 1_556 S
C785 C786 1.362 . S
C786 H778 0.930 . S
C786 C785 1.362 . S
C786 C789 1.409 . S
C787 H779 0.930 . S
C787 C788 1.355 . S
C787 C789 1.415 . S
C788 C787 1.355 . S
C788 C790 1.419 . S
C789 C784 1.425 . S
C789 C786 1.409 . S
C789 C787 1.415 . S
C790 H780 0.930 . S
C790 C788 1.419 . S
C790 C791 1.362 . S
C791 H781 0.930 . S
C791 C784 1.409 . S
C791 C790 1.362 . S
H792 C798 0.930 . S
H793 C801 0.930 . S
H794 C802 0.930 . S
H795 C803 0.930 . S
H796 C806 0.930 . S
H797 C807 0.930 . S
C798 H792 0.930 . S
C798 C799 1.355 . S
C798 C800 1.415 . S
C799 C798 1.355 . S
C799 C801 1.419 . S
C800 C798 1.415 . S
C800 C805 1.425 . S
C800 C807 1.409 . S
C801 H793 0.930 . S
C801 C799 1.419 . S
C801 C802 1.362 . S
C802 H794 0.930 . S
C802 C801 1.362 . S
C802 C805 1.409 . S
C803 H795 0.930 . S
C803 C804 1.355 . S
C803 C805 1.415 . S
C804 C803 1.355 . S
C804 C806 1.419 . S
C805 C800 1.425 . S
C805 C802 1.409 . S
C805 C803 1.415 . S
C806 H796 0.930 . S
C806 C804 1.419 . S
C806 C807 1.362 . S
C807 H797 0.930 . S
C807 C800 1.409 . S
C807 C806 1.362 . S
H808 C814 0.930 . S
H809 C817 0.930 . S
H810 C818 0.930 . S
H811 C819 0.930 . S
H812 C822 0.930 . S
H813 C823 0.930 . S
C814 H808 0.930 . S
C814 C815 1.355 . S
C814 C816 1.415 . S
C815 C814 1.355 . S
C815 C817 1.419 . S
C816 C814 1.415 . S
C816 C821 1.425 . S
C816 C823 1.409 . S
C817 H809 0.930 . S
C817 C815 1.419 . S
C817 C818 1.362 . S
C818 H810 0.930 . S
C818 C817 1.362 . S
C818 C821 1.409 . S
C819 H811 0.930 . S
C819 C820 1.355 . S
C819 C821 1.415 . S
C820 C819 1.355 . S
C820 C822 1.419 . S
C821 C816 1.425 . S
C821 C818 1.409 . S
C821 C819 1.415 . S
C822 H812 0.930 . S
C822 C820 1.419 . S
C822 C823 1.362 . S
C823 H813 0.930 . S
C823 C816 1.409 . S
C823 C822 1.362 . S
H824 C830 0.930 . S
H825 C833 0.930 . S
H826 C834 0.930 . S
H827 C835 0.930 . S
H828 C838 0.930 . S
H829 C839 0.930 . S
C830 H824 0.930 . S
C830 C831 1.355 . S
C830 C832 1.415 . S
C831 C830 1.355 . S
C831 C833 1.419 . S
C832 C830 1.415 . S
C832 C837 1.425 . S
C832 C839 1.409 . S
C833 H825 0.930 . S
C833 C831 1.419 . S
C833 C834 1.362 . S
C834 H826 0.930 . S
C834 C833 1.362 . S
C834 C837 1.409 . S
C835 H827 0.930 . S
C835 C836 1.355 . S
C835 C837 1.415 . S
C836 C835 1.355 . S
C836 C838 1.419 . S
C837 C832 1.425 . S
C837 C834 1.409 . S
C837 C835 1.415 . S
C838 H828 0.930 . S
C838 C836 1.419 . S
C838 C839 1.362 . S
C839 H829 0.930 . S
C839 C832 1.409 . S
C839 C838 1.362 . S
H840 C846 0.930 1_565 S
H841 C849 0.930 . S
H842 C850 0.930 1_655 S
H843 C851 0.930 . S
H844 C854 0.930 . S
H845 C855 0.930 . S
C846 H840 0.930 1_545 S
C846 C847 1.367 1_545 S
C846 C848 1.415 . S
C847 C846 1.367 1_565 S
C847 C849 1.414 1_455 S
C848 C846 1.415 . S
C848 C853 1.425 . S
C848 C855 1.409 . S
C849 H841 0.930 . S
C849 C847 1.414 1_655 S
C849 C850 1.362 1_665 S
C850 H842 0.930 1_455 S
C850 C849 1.362 1_445 S
C850 C853 1.409 . S
C851 H843 0.930 . S
C851 C852 1.355 . S
C851 C853 1.415 . S
C852 C851 1.355 . S
C852 C854 1.419 . S
C853 C848 1.425 . S
C853 C850 1.409 . S
C853 C851 1.415 . S
C854 H844 0.930 . S
C854 C852 1.419 . S
C854 C855 1.362 . S
C855 H845 0.930 . S
C855 C848 1.409 . S
C855 C854 1.362 . S
H856 C862 0.930 . S
H857 C865 0.930 . S
H858 C866 0.930 . S
H859 C867 0.930 . S
H860 C870 0.930 . S
H861 C871 0.930 . S
C862 H856 0.930 . S
C862 C863 1.355 . S
C862 C864 1.415 . S
C863 C862 1.355 . S
C863 C865 1.419 . S
C864 C862 1.415 . S
C864 C869 1.425 . S
C864 C871 1.409 . S
C865 H857 0.930 . S
C865 C863 1.419 . S
C865 C866 1.362 . S
C866 H858 0.930 . S
C866 C865 1.362 . S
C866 C869 1.409 . S
C867 H859 0.930 . S
C867 C868 1.355 . S
C867 C869 1.415 . S
C868 C867 1.355 . S
C868 C870 1.419 . S
C869 C864 1.425 . S
C869 C866 1.409 . S
C869 C867 1.415 . S
C870 H860 0.930 . S
C870 C868 1.419 . S
C870 C871 1.362 . S
C871 H861 0.930 . S
C871 C864 1.409 . S
C871 C870 1.362 . S
H872 C878 0.930 . S
H873 C881 0.930 . S
H874 C882 0.930 . S
H875 C883 0.930 . S
H876 C886 0.930 . S
H877 C887 0.930 . S
C878 H872 0.930 . S
C878 C879 1.355 . S
C878 C880 1.415 1_545 S
C879 C878 1.355 . S
C879 C881 1.419 1_545 S
C880 C878 1.415 1_565 S
C880 C885 1.425 . S
C880 C887 1.409 . S
C881 H873 0.930 . S
C881 C879 1.419 1_565 S
C881 C882 1.362 . S
C882 H874 0.930 . S
C882 C881 1.362 . S
C882 C885 1.409 . S
C883 H875 0.930 . S
C883 C884 1.355 . S
C883 C885 1.415 . S
C884 C883 1.355 . S
C884 C886 1.419 . S
C885 C880 1.425 . S
C885 C882 1.409 . S
C885 C883 1.415 . S
C886 H876 0.930 . S
C886 C884 1.419 . S
C886 C887 1.362 . S
C887 H877 0.930 . S
C887 C880 1.409 . S
C887 C886 1.362 . S
H888 C894 0.930 . S
H889 C897 0.930 . S
H890 C898 0.930 . S
H891 C899 0.930 . S
H892 C902 0.930 . S
H893 C903 0.930 . S
C894 H888 0.930 . S
C894 C895 1.355 . S
C894 C896 1.415 . S
C895 C894 1.355 . S
C895 C897 1.419 . S
C896 C894 1.415 . S
C896 C901 1.425 . S
C896 C903 1.409 . S
C897 H889 0.930 . S
C897 C895 1.419 . S
C897 C898 1.362 . S
C898 H890 0.930 . S
C898 C897 1.362 . S
C898 C901 1.409 . S
C899 H891 0.930 . S
C899 C900 1.355 . S
C899 C901 1.415 . S
C900 C899 1.355 . S
C900 C902 1.419 . S
C901 C896 1.425 . S
C901 C898 1.409 . S
C901 C899 1.415 . S
C902 H892 0.930 . S
C902 C900 1.419 . S
C902 C903 1.362 . S
C903 H893 0.930 . S
C903 C896 1.409 . S
C903 C902 1.362 . S
H904 C910 0.930 . S
H905 C913 0.930 . S
H906 C914 0.930 . S
H907 C915 0.930 . S
H908 C918 0.930 . S
H909 C919 0.930 . S
C910 H904 0.930 . S
C910 C911 1.385 . S
C910 C912 1.415 . S
C911 C910 1.385 . S
C911 C913 1.401 1_655 S
C912 C910 1.415 . S
C912 C917 1.425 . S
C912 C919 1.409 . S
C913 H905 0.930 . S
C913 C911 1.401 1_455 S
C913 C914 1.362 . S
C914 H906 0.930 . S
C914 C913 1.362 . S
C914 C917 1.409 1_455 S
C915 H907 0.930 . S
C915 C916 1.355 . S
C915 C917 1.415 . S
C916 C915 1.355 . S
C916 C918 1.419 . S
C917 C912 1.425 . S
C917 C914 1.409 1_655 S
C917 C915 1.415 . S
C918 H908 0.930 . S
C918 C916 1.419 . S
C918 C919 1.362 . S
C919 H909 0.930 . S
C919 C912 1.409 . S
C919 C918 1.362 . S
H920 C926 0.930 . S
H921 C929 0.930 . S
H922 C930 0.930 . S
H923 C931 0.930 . S
H924 C934 0.930 . S
H925 C935 0.930 . S
C926 H920 0.930 . S
C926 C927 1.355 . S
C926 C928 1.415 . S
C927 C926 1.355 . S
C927 C929 1.419 . S
C928 C926 1.415 . S
C928 C933 1.425 . S
C928 C935 1.409 . S
C929 H921 0.930 . S
C929 C927 1.419 . S
C929 C930 1.362 . S
C930 H922 0.930 . S
C930 C929 1.362 . S
C930 C933 1.409 . S
C931 H923 0.930 . S
C931 C932 1.355 . S
C931 C933 1.415 . S
C932 C931 1.355 . S
C932 C934 1.419 . S
C933 C928 1.425 . S
C933 C930 1.409 . S
C933 C931 1.415 . S
C934 H924 0.930 . S
C934 C932 1.419 . S
C934 C935 1.362 . S
C935 H925 0.930 . S
C935 C928 1.409 . S
C935 C934 1.362 . S
H936 C942 0.930 . S
H937 C945 0.930 . S
H938 C946 0.930 . S
H939 C947 0.930 . S
H940 C950 0.930 . S
H941 C951 0.930 . S
C942 H936 0.930 . S
C942 C943 1.355 . S
C942 C944 1.415 . S
C943 C942 1.355 . S
C943 C945 1.419 . S
C944 C942 1.415 . S
C944 C949 1.425 . S
C944 C951 1.409 . S
C945 H937 0.930 . S
C945 C943 1.419 . S
C945 C946 1.362 . S
C946 H938 0.930 . S
C946 C945 1.362 . S
C946 C949 1.409 . S
C947 H939 0.930 . S
C947 C948 1.355 . S
C947 C949 1.415 . S
C948 C947 1.355 . S
C948 C950 1.419 . S
C949 C944 1.425 . S
C949 C946 1.409 . S
C949 C947 1.415 . S
C950 H940 0.930 . S
C950 C948 1.419 . S
C950 C951 1.362 . S
C951 H941 0.930 . S
C951 C944 1.409 . S
C951 C950 1.362 . S
H952 C958 0.930 . S
H953 C961 0.930 . S
H954 C962 0.930 . S
H955 C963 0.930 . S
H956 C966 0.930 . S
H957 C967 0.930 . S
C958 H952 0.930 . S
C958 C959 1.355 . S
C958 C960 1.415 . S
C959 C958 1.355 . S
C959 C961 1.419 . S
C960 C958 1.415 . S
C960 C965 1.425 . S
C960 C967 1.409 . S
C961 H953 0.930 . S
C961 C959 1.419 . S
C961 C962 1.362 . S
C962 H954 0.930 . S
C962 C961 1.362 . S
C962 C965 1.409 . S
C963 H955 0.930 . S
C963 C964 1.355 . S
C963 C965 1.415 . S
C964 C963 1.355 . S
C964 C966 1.419 . S
C965 C960 1.425 . S
C965 C962 1.409 . S
C965 C963 1.415 . S
C966 H956 0.930 . S
C966 C964 1.419 . S
C966 C967 1.362 . S
C967 H957 0.930 . S
C967 C960 1.409 . S
C967 C966 1.362 . S
H968 C974 0.930 . S
H969 C977 0.930 . S
H970 C978 0.930 . S
H971 C979 0.930 . S
H972 C982 0.930 . S
H973 C983 0.930 . S
C974 H968 0.930 . S
C974 C975 1.355 . S
C974 C976 1.415 . S
C975 C974 1.355 . S
C975 C977 1.419 . S
C976 C974 1.415 . S
C976 C981 1.425 . S
C976 C983 1.409 . S
C977 H969 0.930 . S
C977 C975 1.419 . S
C977 C978 1.362 . S
C978 H970 0.930 . S
C978 C977 1.362 . S
C978 C981 1.409 . S
C979 H971 0.930 . S
C979 C980 1.355 . S
C979 C981 1.415 . S
C980 C979 1.355 . S
C980 C982 1.419 . S
C981 C976 1.425 . S
C981 C978 1.409 . S
C981 C979 1.415 . S
C982 H972 0.930 . S
C982 C980 1.419 . S
C982 C983 1.362 . S
C983 H973 0.930 . S
C983 C976 1.409 . S
C983 C982 1.362 . S
H984 C990 0.930 . S
H985 C993 0.930 . S
H986 C994 0.930 . S
H987 C995 0.930 . S
H988 C998 0.930 . S
H989 C999 0.930 . S
C990 H984 0.930 . S
C990 C991 1.356 1_554 S
C990 C992 1.415 1_655 S
C991 C990 1.356 1_556 S
C991 C993 1.418 1_655 S
C992 C990 1.415 1_455 S
C992 C997 1.425 . S
C992 C999 1.409 . S
C993 H985 0.930 . S
C993 C991 1.418 1_455 S
C993 C994 1.362 . S
C994 H986 0.930 . S
C994 C993 1.362 . S
C994 C997 1.409 1_556 S
C995 H987 0.930 . S
C995 C996 1.355 . S
C995 C997 1.415 . S
C996 C995 1.355 . S
C996 C998 1.419 . S
C997 C992 1.425 . S
C997 C994 1.409 1_554 S
C997 C995 1.415 . S
C998 H988 0.930 . S
C998 C996 1.419 . S
C998 C999 1.362 . S
C999 H989 0.930 . S
C999 C992 1.409 . S
C999 C998 1.362 . S
H1000 C1006 0.930 . S
H1001 C1009 0.930 . S
H1002 C1010 0.930 . S
H1003 C1011 0.930 . S
H1004 C1014 0.930 . S
H1005 C1015 0.930 . S
C1006 H1000 0.930 . S
C1006 C1007 1.355 . S
C1006 C1008 1.415 . S
C1007 C1006 1.355 . S
C1007 C1009 1.419 . S
C1008 C1006 1.415 . S
C1008 C1013 1.425 . S
C1008 C1015 1.409 . S
C1009 H1001 0.930 . S
C1009 C1007 1.419 . S
C1009 C1010 1.362 . S
C1010 H1002 0.930 . S
C1010 C1009 1.362 . S
C1010 C1013 1.409 . S
C1011 H1003 0.930 . S
C1011 C1012 1.355 . S
C1011 C1013 1.415 . S
C1012 C1011 1.355 . S
C1012 C1014 1.419 . S
C1013 C1008 1.425 . S
C1013 C1010 1.409 . S
C1013 C1011 1.415 . S
C1014 H1004 0.930 . S
C1014 C1012 1.419 . S
C1014 C1015 1.362 . S
C1015 H1005 0.930 . S
C1015 C1008 1.409 . S
C1015 C1014 1.362 . S
H1016 C1022 0.930 . S
H1017 C1025 0.930 . S
H1018 C1026 0.930 . S
H1019 C1027 0.930 . S
H1020 C1030 0.930 . S
H1021 C1031 0.930 . S
C1022 H1016 0.930 . S
C1022 C1023 1.355 . S
C1022 C1024 1.415 . S
C1023 C1022 1.355 . S
C1023 C1025 1.419 . S
C1024 C1022 1.415 . S
C1024 C1029 1.425 . S
C1024 C1031 1.409 . S
C1025 H1017 0.930 . S
C1025 C1023 1.419 . S
C1025 C1026 1.362 . S
C1026 H1018 0.930 . S
C1026 C1025 1.362 . S
C1026 C1029 1.409 . S
C1027 H1019 0.930 . S
C1027 C1028 1.355 . S
C1027 C1029 1.415 . S
C1028 C1027 1.355 . S
C1028 C1030 1.419 . S
C1029 C1024 1.425 . S
C1029 C1026 1.409 . S
C1029 C1027 1.415 . S
C1030 H1020 0.930 . S
C1030 C1028 1.419 . S
C1030 C1031 1.362 . S
C1031 H1021 0.930 . S
C1031 C1024 1.409 . S
C1031 C1030 1.362 . S
H1032 C1038 0.930 . S
H1033 C1041 0.930 . S
H1034 C1042 0.930 . S
H1035 C1043 0.930 . S
H1036 C1046 0.930 . S
H1037 C1047 0.930 . S
C1038 H1032 0.930 . S
C1038 C1039 1.355 . S
C1038 C1040 1.415 . S
C1039 C1038 1.355 . S
C1039 C1041 1.419 . S
C1040 C1038 1.415 . S
C1040 C1045 1.425 . S
C1040 C1047 1.409 . S
C1041 H1033 0.930 . S
C1041 C1039 1.419 . S
C1041 C1042 1.362 . S
C1042 H1034 0.930 . S
C1042 C1041 1.362 . S
C1042 C1045 1.409 . S
C1043 H1035 0.930 . S
C1043 C1044 1.355 . S
C1043 C1045 1.415 . S
C1044 C1043 1.355 . S
C1044 C1046 1.419 . S
C1045 C1040 1.425 . S
C1045 C1042 1.409 . S
C1045 C1043 1.415 . S
C1046 H1036 0.930 . S
C1046 C1044 1.419 . S
C1046 C1047 1.362 . S
C1047 H1037 0.930 . S
C1047 C1040 1.409 . S
C1047 C1046 1.362 . S
H1048 C1054 0.930 1_554 S
H1049 C1057 0.930 . S
H1050 C1058 0.930 . S
H1051 C1059 0.930 . S
H1052 C1062 0.930 . S
H1053 C1063 0.930 . S
C1054 H1048 0.930 1_556 S
C1054 C1055 1.355 . S
C1054 C1056 1.415 . S
C1055 C1054 1.355 . S
C1055 C1057 1.419 . S
C1056 C1054 1.415 . S
C1056 C1061 1.425 . S
C1056 C1063 1.409 . S
C1057 H1049 0.930 . S
C1057 C1055 1.419 . S
C1057 C1058 1.362 . S
C1058 H1050 0.930 . S
C1058 C1057 1.362 . S
C1058 C1061 1.409 . S
C1059 H1051 0.930 . S
C1059 C1060 1.355 . S
C1059 C1061 1.415 . S
C1060 C1059 1.355 . S
C1060 C1062 1.419 . S
C1061 C1056 1.425 . S
C1061 C1058 1.409 . S
C1061 C1059 1.415 . S
C1062 H1052 0.930 . S
C1062 C1060 1.419 . S
C1062 C1063 1.362 . S
C1063 H1053 0.930 . S
C1063 C1056 1.409 . S
C1063 C1062 1.362 . S
H1064 C1070 0.930 . S
H1065 C1073 0.930 . S
H1066 C1074 0.930 . S
H1067 C1075 0.930 . S
H1068 C1078 0.930 . S
H1069 C1079 0.930 . S
C1070 H1064 0.930 . S
C1070 C1071 1.355 . S
C1070 C1072 1.415 . S
C1071 C1070 1.355 . S
C1071 C1073 1.419 . S
C1072 C1070 1.415 . S
C1072 C1077 1.425 . S
C1072 C1079 1.409 . S
C1073 H1065 0.930 . S
C1073 C1071 1.419 . S
C1073 C1074 1.362 . S
C1074 H1066 0.930 . S
C1074 C1073 1.362 . S
C1074 C1077 1.409 . S
C1075 H1067 0.930 . S
C1075 C1076 1.355 . S
C1075 C1077 1.415 1_455 S
C1076 C1075 1.355 . S
C1076 C1078 1.419 1_455 S
C1077 C1072 1.425 . S
C1077 C1074 1.409 . S
C1077 C1075 1.415 1_655 S
C1078 H1068 0.930 . S
C1078 C1076 1.419 1_655 S
C1078 C1079 1.362 . S
C1079 H1069 0.930 . S
C1079 C1072 1.409 . S
C1079 C1078 1.362 . S
C319 C121 1.205 . S
C324 C4 1.206 . S
C335 C23 1.281 . S
C340 C140 1.282 . S
C351 C36 1.233 . S
C356 C147 1.230 . S
C367 C49 1.273 . S
C372 C108 1.271 . S
C383 C56 1.285 . S
C388 C199 1.285 . S
C399 C166 1.271 . S
C404 C69 1.269 . S
C415 C88 1.206 . S
C420 C179 1.207 . S
C431 C186 1.285 . S
C436 C101 1.285 . S
C447 C212 1.286 . S
C452 C238 1.286 . S
C463 C290 1.260 . S
C468 C225 1.257 . S
C479 C251 1.224 . S
C484 C309 1.222 . S
C495 C283 1.286 . S
C500 C270 1.286 . S
C511 C264 1.885 . S
C516 C10 1.878 . S
C527 C17 1.882 . S
C532 C231 1.840 . S
C543 C30 1.847 . S
C548 C244 1.833 . S
C559 C43 1.839 . S
C564 C257 1.839 . S
C575 C62 1.888 . S
C580 C303 1.849 . S
C591 C277 1.882 . S
C596 C75 1.881 . S
C607 C296 1.844 . S
C612 C82 1.884 . S
C623 C218 1.849 . S
C628 C95 1.887 . S
C639 C205 1.839 . S
C644 C114 1.838 . S
C655 C127 1.885 . S
C660 C160 1.845 . S
C671 C173 1.831 . S
C676 C134 1.868 . S
C687 C192 1.861 . S
C692 C153 1.830 . S
C703 C5 1.349 . S
C708 C211 1.410 . S
C719 C304 1.387 1_565 S
C724 C16 1.385 . S
C735 C278 1.411 . S
C740 C29 1.333 . S
C751 C42 1.366 . S
C756 C289 1.347 1_545 S
C767 C57 1.389 . S
C772 C224 1.371 . S
C783 C237 1.349 . S
C788 C70 1.359 . S
C799 C250 1.351 . S
C804 C81 1.368 . S
C815 C265 1.350 . S
C820 C94 1.348 . S
C831 C3 1.352 . S
C836 C109 1.337 . S
C847 C18 1.367 1_455 S
C852 C122 1.389 . S
C863 C31 1.351 . S
C868 C133 1.340 . S
C879 C44 1.350 . S
C884 C148 1.343 . S
C895 C55 1.379 . S
C900 C159 1.388 . S
C911 C68 1.330 1_655 S
C916 C172 1.351 . S
C927 C187 1.337 . S
C932 C83 1.352 . S
C943 C96 1.409 . S
C948 C200 1.321 . S
C959 C107 1.357 . S
C964 C213 1.325 . S
C975 C226 1.389 . S
C980 C161 1.376 . S
C991 C174 1.359 . S
C996 C239 1.383 . S
C1007 C252 1.359 . S
C1012 C185 1.350 . S
C1023 C263 1.338 . S
C1028 C198 1.352 . S
C1039 C276 1.386 . S
C1044 C135 1.384 . S
C1055 C146 1.407 1_556 S
C1060 C291 1.360 . S
C1071 C302 1.371 . S
C1076 C120 1.352 . S
