# Generated by pormake.
# Topology vbm, (6)-cn, num edge types: 1
# Building blocks:
#     Node 0, Type 0, BuildingBlock: KUMBOL_clean_sbu_0, # of connection points: 6
#     Node 1, Type 0, BuildingBlock: KUMBOL_clean_sbu_0, # of connection points: 6
#     Node 2, Type 0, BuildingBlock: KUMBOL_clean_sbu_0, # of connection points: 6
#     Node 3, Type 0, BuildingBlock: KUMBOL_clean_sbu_0, # of connection points: 6
#     Node 4, Type 0, BuildingBlock: KUMBOL_clean_sbu_0, # of connection points: 6
#     Node 5, Type 0, BuildingBlock: KUMBOL_clean_sbu_0, # of connection points: 6
#     Node 6, Type 0, BuildingBlock: KUMBOL_clean_sbu_0, # of connection points: 6
#     Node 7, Type 0, BuildingBlock: KUMBOL_clean_sbu_0, # of connection points: 6
#     Node 8, Type 0, BuildingBlock: KUMBOL_clean_sbu_0, # of connection points: 6
#     Node 9, Type 0, BuildingBlock: KUMBOL_clean_sbu_0, # of connection points: 6
#     Node 10, Type 0, BuildingBlock: KUMBOL_clean_sbu_0, # of connection points: 6
#     Node 11, Type 0, BuildingBlock: KUMBOL_clean_sbu_0, # of connection points: 6
#     Node 12, Type 0, BuildingBlock: KUMBOL_clean_sbu_0, # of connection points: 6
#     Node 13, Type 0, BuildingBlock: KUMBOL_clean_sbu_0, # of connection points: 6
#     Node 14, Type 0, BuildingBlock: KUMBOL_clean_sbu_0, # of connection points: 6
#     Node 15, Type 0, BuildingBlock: KUMBOL_clean_sbu_0, # of connection points: 6
#     Edge 16, Type (0, 0), BuildingBlock: EZIPEK_clean_linker_0, # of connection points: 2
#     Edge 17, Type (0, 0), BuildingBlock: EZIPEK_clean_linker_0, # of connection points: 2
#     Edge 18, Type (0, 0), BuildingBlock: EZIPEK_clean_linker_0, # of connection points: 2
#     Edge 19, Type (0, 0), BuildingBlock: EZIPEK_clean_linker_0, # of connection points: 2
#     Edge 20, Type (0, 0), BuildingBlock: EZIPEK_clean_linker_0, # of connection points: 2
#     Edge 21, Type (0, 0), BuildingBlock: EZIPEK_clean_linker_0, # of connection points: 2
#     Edge 22, Type (0, 0), BuildingBlock: EZIPEK_clean_linker_0, # of connection points: 2
#     Edge 23, Type (0, 0), BuildingBlock: EZIPEK_clean_linker_0, # of connection points: 2
#     Edge 24, Type (0, 0), BuildingBlock: EZIPEK_clean_linker_0, # of connection points: 2
#     Edge 25, Type (0, 0), BuildingBlock: EZIPEK_clean_linker_0, # of connection points: 2
#     Edge 26, Type (0, 0), BuildingBlock: EZIPEK_clean_linker_0, # of connection points: 2
#     Edge 27, Type (0, 0), BuildingBlock: EZIPEK_clean_linker_0, # of connection points: 2
#     Edge 28, Type (0, 0), BuildingBlock: EZIPEK_clean_linker_0, # of connection points: 2
#     Edge 29, Type (0, 0), BuildingBlock: EZIPEK_clean_linker_0, # of connection points: 2
#     Edge 30, Type (0, 0), BuildingBlock: EZIPEK_clean_linker_0, # of connection points: 2
#     Edge 31, Type (0, 0), BuildingBlock: EZIPEK_clean_linker_0, # of connection points: 2
#     Edge 32, Type (0, 0), BuildingBlock: EZIPEK_clean_linker_0, # of connection points: 2
#     Edge 33, Type (0, 0), BuildingBlock: EZIPEK_clean_linker_0, # of connection points: 2
#     Edge 34, Type (0, 0), BuildingBlock: EZIPEK_clean_linker_0, # of connection points: 2
#     Edge 35, Type (0, 0), BuildingBlock: EZIPEK_clean_linker_0, # of connection points: 2
#     Edge 36, Type (0, 0), BuildingBlock: EZIPEK_clean_linker_0, # of connection points: 2
#     Edge 37, Type (0, 0), BuildingBlock: EZIPEK_clean_linker_0, # of connection points: 2
#     Edge 38, Type (0, 0), BuildingBlock: EZIPEK_clean_linker_0, # of connection points: 2
#     Edge 39, Type (0, 0), BuildingBlock: EZIPEK_clean_linker_0, # of connection points: 2
#     Edge 40, Type (0, 0), BuildingBlock: EZIPEK_clean_linker_0, # of connection points: 2
#     Edge 41, Type (0, 0), BuildingBlock: EZIPEK_clean_linker_0, # of connection points: 2
#     Edge 42, Type (0, 0), BuildingBlock: EZIPEK_clean_linker_0, # of connection points: 2
#     Edge 43, Type (0, 0), BuildingBlock: EZIPEK_clean_linker_0, # of connection points: 2
#     Edge 44, Type (0, 0), BuildingBlock: EZIPEK_clean_linker_0, # of connection points: 2
#     Edge 45, Type (0, 0), BuildingBlock: EZIPEK_clean_linker_0, # of connection points: 2
#     Edge 46, Type (0, 0), BuildingBlock: EZIPEK_clean_linker_0, # of connection points: 2
#     Edge 47, Type (0, 0), BuildingBlock: EZIPEK_clean_linker_0, # of connection points: 2
#     Edge 48, Type (0, 0), BuildingBlock: EZIPEK_clean_linker_0, # of connection points: 2
#     Edge 49, Type (0, 0), BuildingBlock: EZIPEK_clean_linker_0, # of connection points: 2
#     Edge 50, Type (0, 0), BuildingBlock: EZIPEK_clean_linker_0, # of connection points: 2
#     Edge 51, Type (0, 0), BuildingBlock: EZIPEK_clean_linker_0, # of connection points: 2
#     Edge 52, Type (0, 0), BuildingBlock: EZIPEK_clean_linker_0, # of connection points: 2
#     Edge 53, Type (0, 0), BuildingBlock: EZIPEK_clean_linker_0, # of connection points: 2
#     Edge 54, Type (0, 0), BuildingBlock: EZIPEK_clean_linker_0, # of connection points: 2
#     Edge 55, Type (0, 0), BuildingBlock: EZIPEK_clean_linker_0, # of connection points: 2
#     Edge 56, Type (0, 0), BuildingBlock: EZIPEK_clean_linker_0, # of connection points: 2
#     Edge 57, Type (0, 0), BuildingBlock: EZIPEK_clean_linker_0, # of connection points: 2
#     Edge 58, Type (0, 0), BuildingBlock: EZIPEK_clean_linker_0, # of connection points: 2
#     Edge 59, Type (0, 0), BuildingBlock: EZIPEK_clean_linker_0, # of connection points: 2
#     Edge 60, Type (0, 0), BuildingBlock: EZIPEK_clean_linker_0, # of connection points: 2
#     Edge 61, Type (0, 0), BuildingBlock: EZIPEK_clean_linker_0, # of connection points: 2
#     Edge 62, Type (0, 0), BuildingBlock: EZIPEK_clean_linker_0, # of connection points: 2
#     Edge 63, Type (0, 0), BuildingBlock: EZIPEK_clean_linker_0, # of connection points: 2
# Relax obj value: 0.075
# Max RMSD: 0.147
# Mean RMSD: 0.147
data_MOF--net-vbm--node1-KUMBOL_clean_sbu_0--edge1-EZIPEK_clean_linker_0
_symmetry_space_group_name_H-M    P1
_symmetry_Int_Tables_number       1
_symmetry_cell_setting            triclinic
loop_
_symmetry_equiv_pos_as_xyz
'x, y, z'
_cell_length_a     36.587713
_cell_length_b     20.448143
_cell_length_c     43.279947
_cell_angle_alpha  89.554406
_cell_angle_beta   89.851485
_cell_angle_gamma 89.63506
loop_
_atom_site_label
_atom_site_type_symbol
_atom_site_fract_x
_atom_site_fract_y
_atom_site_fract_z
_atom_type_partial_charge
Gd0 Gd 0.11385 0.19843 0.12929 0.0
Gd1 Gd 0.16208 0.05 0.11931 0.0
C2 C 0.2826 0.07083 0.14326 0.0
C3 C 0.31173 0.03417 0.09611 0.0
C4 C 0.24548 0.0435 0.09882 0.0
C5 C 0.24798 0.06296 0.12951 0.0
C6 C 0.27752 0.02702 0.08226 0.0
C7 C 0.31418 0.05731 0.12631 0.0
C8 C 0.28476 0.09053 0.17402 0.0
C9 C 0.25284 0.10079 0.19071 0.0
N10 N 0.21691 0.07266 0.14615 0.0
C11 C 0.21913 0.09122 0.17654 0.0
H12 H 0.1954 0.10169 0.19019 0.0
C13 C 0.20881 1.0095 0.05704 0.0
N14 N 0.212 0.03686 0.0857 0.0
C15 C 0.23981 0.98957 0.04064 0.0
C16 C 0.27433 1.00021 0.05284 0.0
H17 H 0.18224 0.99864 0.04757 0.0
H18 H 0.34049 0.063 0.13702 0.0
H19 H 0.06317 0.16563 0.06394 0.0
H20 H 0.31094 0.09744 0.18516 0.0
H21 H 0.25411 0.11641 0.21452 0.0
H22 H 0.33632 1.02051 0.08373 0.0
H23 H 0.11261 0.26646 0.1993 0.0
H24 H 0.95259 0.14947 0.09222 0.0
H25 H 0.99982 0.14286 0.05165 0.0
H26 H 0.95343 0.22109 0.1969 0.0
H27 H 0.23704 0.96452 0.01886 0.0
H28 H 0.29828 0.98509 0.03989 0.0
H29 H 0.93571 0.17786 0.14647 0.0
H30 H 0.06635 0.29711 0.23838 0.0
N31 N 0.05362 0.18231 0.11204 0.0
C32 C 0.98064 0.16014 0.09787 0.0
C33 C 1.00726 0.15595 0.07498 0.0
C34 C 0.99043 0.1793 0.12762 0.0
C35 C 0.02766 0.19021 0.1342 0.0
C36 C 0.04365 0.16836 0.08233 0.0
N37 N 0.0739 0.22122 0.16964 0.0
C38 C 0.03801 0.21077 0.16347 0.0
C39 C 0.05822 0.27222 0.21755 0.0
C40 C 0.02188 0.25488 0.21294 0.0
C41 C 0.08421 0.25487 0.19542 0.0
C42 C 0.01116 0.22501 0.1857 0.0
H43 H 1.00184 0.26635 0.22986 0.0
O44 O 0.13315 0.29233 0.14573 0.0
O45 O 0.1701 0.15338 0.13559 0.0
O46 O 0.1466 0.04468 0.16849 0.0
O47 O 0.11577 0.14255 0.17737 0.0
O48 O 0.16619 0.2378 0.10964 0.0
O49 O 0.09143 0.28806 0.1099 0.0
O50 O 0.14938 0.95948 0.09653 0.0
O51 O 0.10575 0.09633 0.11271 0.0
O52 O 0.12173 0.19143 0.07781 0.0
O53 O 0.1554 0.09541 0.07125 0.0
O54 O 0.10817 1.0048 0.13198 0.0
O55 O 0.18072 0.95768 0.13938 0.0
C56 C 0.18897 0.19655 0.12091 0.0
C57 C 0.97432 0.21191 0.17964 0.0
C58 C 0.96411 0.18808 0.15081 0.0
C59 C 0.11167 0.32536 0.12714 0.0
C60 C 0.09524 0.38604 0.13888 0.0
C61 C 0.06276 0.3868 0.15616 0.0
C62 C 0.1127 0.44517 0.13211 0.0
C63 C 0.09924 0.50406 0.14405 0.0
C64 C 0.0497 0.44525 0.16871 0.0
C65 C 0.06804 0.50379 0.16293 0.0
C66 C 0.12709 0.08259 0.18649 0.0
C67 C 0.08601 0.05053 0.12454 0.0
C68 C 0.16422 0.92364 0.11824 0.0
C69 C 0.17927 0.86033 0.10936 0.0
C70 C 0.20824 0.85528 0.08846 0.0
C71 C 0.1613 0.80379 0.11944 0.0
C72 C 0.17161 0.74264 0.10783 0.0
C73 C 0.21721 0.79512 0.07564 0.0
C74 C 0.19934 0.7385 0.08551 0.0
C75 C 0.13965 0.14939 0.06035 0.0
H76 H 0.04724 0.34291 0.15973 0.0
H77 H 0.13648 0.44576 0.1172 0.0
H78 H 0.02502 0.44528 0.18254 0.0
H79 H 0.05736 0.54902 0.17231 0.0
H80 H 0.22352 0.89753 0.08167 0.0
H81 H 0.13891 0.80739 0.13578 0.0
H82 H 0.23773 0.79312 0.05769 0.0
H83 H 0.20681 0.69175 0.07563 0.0
Gd84 Gd 0.90177 0.83182 0.13564 0.0
Gd85 Gd 0.855 0.98813 0.12814 0.0
C86 C 0.73346 0.94483 0.14136 0.0
C87 C 0.70914 0.96587 0.09025 0.0
C88 C 0.774 0.98094 0.10027 0.0
C89 C 0.76876 0.96189 0.13082 0.0
C90 C 0.74364 0.98662 0.08027 0.0
C91 C 0.70426 0.94413 0.12065 0.0
C92 C 0.72817 0.9304 0.17262 0.0
C93 C 0.7572 0.93675 0.19294 0.0
N94 N 0.79754 0.96297 0.15061 0.0
C95 C 0.79147 0.95453 0.18157 0.0
H96 H 0.81237 0.96206 0.19802 0.0
C97 C 0.81174 0.03294 0.06338 0.0
N98 N 0.80789 0.99964 0.09085 0.0
C99 C 0.78231 0.04172 0.04354 0.0
C100 C 0.74832 1.01647 0.05142 0.0
H101 H 0.83775 0.05223 0.05631 0.0
H102 H 0.67767 0.92867 0.12849 0.0
H103 H 0.92847 0.7731 0.06307 0.0
H104 H 0.70151 0.91683 0.18146 0.0
H105 H 0.75322 0.9285 0.21745 0.0
H106 H 0.68594 0.96829 0.07481 0.0
H107 H 0.92857 0.79141 0.2071 0.0
H108 H 0.04353 0.79618 0.05519 0.0
H109 H 0.9838 0.77266 0.03151 0.0
H110 H 0.07956 0.79014 0.16018 0.0
H111 H 0.78602 0.06919 0.0225 0.0
H112 H 0.72549 0.02326 0.03581 0.0
H113 H 0.07939 0.80584 0.10383 0.0
H114 H 0.98358 0.75208 0.23326 0.0
N115 N 0.95432 0.81326 0.10324 0.0
C116 C 0.01881 0.80058 0.06888 0.0
C117 C 0.98521 0.78719 0.05547 0.0
C118 C 0.02038 0.81116 0.10066 0.0
C119 C 0.98727 0.81717 0.11749 0.0
C120 C 0.95349 0.78988 0.07349 0.0
N121 N 0.95554 0.81453 0.1647 0.0
C122 C 0.98784 0.81433 0.14932 0.0
C123 C 0.9854 0.77114 0.2099 0.0
C124 C 0.01901 0.77456 0.19488 0.0
C125 C 0.95411 0.79318 0.19475 0.0
C126 C 0.02079 0.79843 0.16465 0.0
H127 H 0.04319 0.756 0.20633 0.0
O128 O 0.87792 0.76552 0.16929 0.0
O129 O 0.84637 0.88154 0.14042 0.0
O130 O 0.86835 0.9805 0.17841 0.0
O131 O 0.90482 0.88704 0.18263 0.0
O132 O 0.85038 0.80088 0.11187 0.0
O133 O 0.90496 0.72674 0.12858 0.0
O134 O 0.87683 0.07608 0.14945 0.0
O135 O 0.9097 0.93854 0.1341 0.0
O136 O 0.89421 0.85488 0.08394 0.0
O137 O 0.86429 0.95461 0.07906 0.0
O138 O 0.90836 1.01613 0.10437 0.0
O139 O 0.8266 0.0817 0.1247 0.0
C140 C 0.82765 0.84101 0.12439 0.0
C141 C 0.05396 0.7998 0.14843 0.0
C142 C 0.05381 0.80828 0.1164 0.0
C143 C 0.88742 0.71347 0.15407 0.0
C144 C 0.89739 0.65358 0.17129 0.0
C145 C 0.90324 0.65359 0.20336 0.0
C146 C 0.89663 0.59364 0.15569 0.0
C147 C 0.90147 0.53475 0.17194 0.0
C148 C 0.91031 0.59512 0.21912 0.0
C149 C 0.90932 0.53571 0.20355 0.0
C150 C 0.88888 0.93994 0.19471 0.0
C151 C 0.92981 0.97218 0.11608 0.0
C152 C 0.85261 0.11461 0.13726 0.0
C153 C 0.8665 0.16982 0.11873 0.0
C154 C 0.8773 0.16023 0.08794 0.0
C155 C 0.86923 0.23235 0.13152 0.0
C156 C 0.88215 0.2848 0.11337 0.0
C157 C 0.88866 0.21263 0.0696 0.0
C158 C 0.89076 0.27495 0.08214 0.0
C159 C 0.87952 0.90229 0.06686 0.0
H160 H 0.90149 0.69801 0.21655 0.0
H161 H 0.8909 0.5924 0.13113 0.0
H162 H 0.91547 0.59585 0.24363 0.0
H163 H 0.91372 0.49049 0.21622 0.0
H164 H 0.87764 0.11215 0.07814 0.0
H165 H 0.86196 0.24006 0.15553 0.0
H166 H 0.89656 0.2046 0.04581 0.0
H167 H 0.90018 0.31518 0.06784 0.0
Gd168 Gd 0.10809 0.84374 0.35921 0.0
Gd169 Gd 0.16249 0.98942 0.37955 0.0
C170 C 0.27829 0.92457 0.35549 0.0
C171 C 0.30234 0.89756 0.40609 0.0
C172 C 0.24286 0.94984 0.40092 0.0
C173 C 0.24598 0.94832 0.36926 0.0
C174 C 0.27259 0.93034 0.41953 0.0
C175 C 0.30472 0.89336 0.3739 0.0
C176 C 0.28331 0.93395 0.32384 0.0
C177 C 0.25748 0.96965 0.30709 0.0
N178 N 0.21867 0.97492 0.35208 0.0
C179 C 0.22539 0.99062 0.32166 0.0
H180 H 0.20669 1.01963 0.30801 0.0
C181 C 0.21325 0.9992 0.44315 0.0
N182 N 0.21265 0.97787 0.4133 0.0
C183 C 0.24327 0.98471 0.46201 0.0
C184 C 0.27238 0.94778 0.4506 0.0
H185 H 0.19001 0.02466 0.45291 0.0
H186 H 0.32867 0.87123 0.36354 0.0
H187 H 0.04999 0.86992 0.41763 0.0
H188 H 0.30733 0.91528 0.3124 0.0
H189 H 0.26196 0.98007 0.28282 0.0
H190 H 0.3247 0.87935 0.42012 0.0
H191 H 0.11548 0.7906 0.28564 0.0
H192 H 0.94526 0.9068 0.37975 0.0
H193 H 0.98444 0.89029 0.42548 0.0
H194 H 0.96312 0.88187 0.27113 0.0
H195 H 0.24325 0.9987 0.48574 0.0
H196 H 0.29494 0.93487 0.46567 0.0
H197 H 0.93598 0.89807 0.32263 0.0
H198 H 0.08237 0.81329 0.23697 0.0
N199 N 0.04599 0.86103 0.36906 0.0
C200 C 0.97255 0.8889 0.3768 0.0
C201 C 0.99505 0.88133 0.40252 0.0
C202 C 0.98644 0.87845 0.34723 0.0
C203 C 0.02374 0.86331 0.34414 0.0
C204 C 0.03217 0.86842 0.3981 0.0
N205 N 0.07406 0.83345 0.3136 0.0
C206 C 0.03855 0.85188 0.31542 0.0
C207 C 0.06927 0.82293 0.25889 0.0
C208 C 0.03419 0.85043 0.2601 0.0
C209 C 0.08811 0.8107 0.28638 0.0
C210 C 0.01724 0.85952 0.28868 0.0
H211 H 0.02026 0.86432 0.2391 0.0
O212 O 0.1285 0.74535 0.35131 0.0
O213 O 0.1643 0.87891 0.37193 0.0
O214 O 0.15197 0.99342 0.32898 0.0
O215 O 0.11111 0.91077 0.31672 0.0
O216 O 0.15926 0.81896 0.33358 0.0
O217 O 0.08305 0.75948 0.38224 0.0
O218 O 0.15815 0.07675 0.4074 0.0
O219 O 0.10652 0.94714 0.37337 0.0
O220 O 0.11561 0.84747 0.41194 0.0
O221 O 0.15162 0.93739 0.42486 0.0
O222 O 0.10769 0.04175 0.38656 0.0
O223 O 0.17374 0.08448 0.35869 0.0
C224 C 0.18253 0.84652 0.35158 0.0
C225 C 0.98017 0.87667 0.2914 0.0
C226 C 0.96468 0.88535 0.32072 0.0
C227 C 0.10472 0.71717 0.36919 0.0
C228 C 0.08895 0.65599 0.35738 0.0
C229 C 0.06471 0.65647 0.33233 0.0
C230 C 0.10206 0.5957 0.36891 0.0
C231 C 0.09399 0.53699 0.35379 0.0
C232 C 0.05471 0.59764 0.31845 0.0
C233 C 0.06978 0.53826 0.32871 0.0
C234 C 0.13084 0.96308 0.30949 0.0
C235 C 0.08575 0.99663 0.37834 0.0
C236 C 0.16496 0.11544 0.38397 0.0
C237 C 0.18037 0.18014 0.38984 0.0
C238 C 0.21368 0.18752 0.40523 0.0
C239 C 0.16008 0.23579 0.3809 0.0
C240 C 0.17269 0.29882 0.3877 0.0
C241 C 0.22656 0.2502 0.4117 0.0
C242 C 0.20618 0.30559 0.40309 0.0
C243 C 0.13325 0.88381 0.4324 0.0
H244 H 0.05416 0.70215 0.32314 0.0
H245 H 0.12015 0.59464 0.38862 0.0
H246 H 0.03621 0.59829 0.29898 0.0
H247 H 0.06311 0.49351 0.3168 0.0
H248 H 0.22948 0.14503 0.41234 0.0
H249 H 0.13437 0.23 0.3689 0.0
H250 H 0.25233 0.2559 0.42357 0.0
H251 H 0.21651 0.35375 0.40839 0.0
Gd252 Gd 0.89989 0.20948 0.35763 0.0
Gd253 Gd 0.85193 0.06039 0.37028 0.0
C254 C 0.73238 0.11181 0.38695 0.0
C255 C 0.72462 0.08351 0.4409 0.0
C256 C 0.78162 0.05909 0.41458 0.0
C257 C 0.76835 0.08715 0.38789 0.0
C258 C 0.7581 0.04988 0.44003 0.0
C259 C 0.71227 0.11648 0.41443 0.0
C260 C 0.71758 0.12956 0.35844 0.0
C261 C 0.73755 0.11757 0.33158 0.0
N262 N 0.78929 0.08437 0.3621 0.0
C263 C 0.77344 0.09423 0.33389 0.0
H264 H 0.78826 0.08607 0.31311 0.0
C265 C 0.82576 0.98928 0.43667 0.0
N266 N 0.81579 0.03328 0.41418 0.0
C267 C 0.80176 0.97265 0.46061 0.0
C268 C 0.76805 1.00444 0.46277 0.0
H269 H 0.85222 0.96743 0.43682 0.0
H270 H 0.68597 0.14101 0.4148 0.0
H271 H 0.94574 0.18641 0.42965 0.0
H272 H 0.69058 0.15066 0.35706 0.0
H273 H 0.72598 0.1286 0.30915 0.0
H274 H 0.70726 0.08128 0.46119 0.0
H275 H 0.9097 0.24491 0.2832 0.0
H276 H 0.05628 0.23609 0.41609 0.0
H277 H 1.00625 0.19709 0.44945 0.0
H278 H 0.06115 0.31646 0.31268 0.0
H279 H 0.80999 0.9376 0.47817 0.0
H280 H 0.74993 0.99337 0.48192 0.0
H281 H 0.07615 0.28105 0.36538 0.0
H282 H 0.95149 0.31224 0.2526 0.0
N283 N 0.95841 0.21482 0.38278 0.0
C284 C 0.02918 0.23017 0.40652 0.0
C285 C 1.00102 0.2085 0.42539 0.0
C286 C 0.02184 0.24563 0.37574 0.0
C287 C 0.98617 0.23562 0.36409 0.0
C288 C 0.96583 0.20231 0.41342 0.0
N289 N 0.94531 0.23701 0.32189 0.0
C290 C 0.97889 0.25 0.33337 0.0
C291 C 0.96013 0.2934 0.27487 0.0
C292 C 0.99496 0.30651 0.28612 0.0
C293 C 0.93632 0.25571 0.29249 0.0
C294 C 1.0053 0.28221 0.31502 0.0
H295 H 0.01362 0.33568 0.27239 0.0
O296 O 0.87044 0.27402 0.32726 0.0
O297 O 0.84372 0.16415 0.35374 0.0
O298 O 0.85153 0.08725 0.31963 0.0
O299 O 0.9056 0.14084 0.31512 0.0
O300 O 0.8491 0.24595 0.38132 0.0
O301 O 0.9089 0.31537 0.36028 0.0
O302 O 0.87719 0.98133 0.34425 0.0
O303 O 0.90773 0.10297 0.36244 0.0
O304 O 0.89069 0.2031 0.40976 0.0
O305 O 0.85781 0.10642 0.41793 0.0
O306 O 0.90473 0.03284 0.39591 0.0
O307 O 0.82533 0.96594 0.36567 0.0
C308 C 0.82565 0.20764 0.36883 0.0
C309 C 0.04045 0.29257 0.32664 0.0
C310 C 0.04894 0.27273 0.35668 0.0
C311 C 0.8851 0.32681 0.3383 0.0
C312 C 0.88888 0.38339 0.31719 0.0
C313 C 0.87701 0.37917 0.2863 0.0
C314 C 0.895 0.4453 0.3299 0.0
C315 C 0.88533 0.502 0.31321 0.0
C316 C 0.87 0.43558 0.26902 0.0
C317 C 0.87318 0.49668 0.28264 0.0
C318 C 0.88063 0.10161 0.30295 0.0
C319 C 0.92731 0.07095 0.38163 0.0
C320 C 0.85253 0.93882 0.35136 0.0
C321 C 0.86626 0.87735 0.36477 0.0
C322 C 0.8817 0.87685 0.39436 0.0
C323 C 0.86552 0.81935 0.34785 0.0
C324 C 0.88057 0.76201 0.36074 0.0
C325 C 0.8957 0.8197 0.40742 0.0
C326 C 0.89527 0.76229 0.39061 0.0
C327 C 0.87425 0.15977 0.42825 0.0
H328 H 0.87069 0.33261 0.27599 0.0
H329 H 0.90358 0.44943 0.35378 0.0
H330 H 0.86012 0.43181 0.24555 0.0
H331 H 0.86531 0.53988 0.2696 0.0
H332 H 0.88622 0.92149 0.40626 0.0
H333 H 0.85374 0.81874 0.32489 0.0
H334 H 0.90805 0.82054 0.43012 0.0
H335 H 0.90648 0.71798 0.40082 0.0
Gd336 Gd 0.85218 0.98439 0.86951 0.0
Gd337 Gd 0.90449 0.83449 0.86213 0.0
C338 C 0.02912 0.83118 0.87139 0.0
C339 C 0.04766 0.79267 0.82104 0.0
C340 C 0.98328 0.81455 0.83181 0.0
C341 C 0.99205 0.83176 0.86201 0.0
C342 C 0.01099 0.79066 0.81191 0.0
C343 C 0.05668 0.81464 0.85039 0.0
C344 C 0.03757 0.84148 0.90233 0.0
C345 C 0.00956 0.84592 0.92378 0.0
N346 N 0.96467 0.84115 0.88302 0.0
C347 C 0.97337 0.84369 0.91395 0.0
H348 H 0.95357 0.84274 0.93221 0.0
C349 C 0.93789 0.78315 0.79598 0.0
N350 N 0.94758 0.81164 0.82334 0.0
C351 C 0.96425 0.75737 0.7762 0.0
C352 C 1.00088 0.76007 0.78448 0.0
H353 H 0.90948 0.77735 0.78995 0.0
H354 H 0.08491 0.81371 0.85755 0.0
H355 H 0.79292 0.93935 0.81324 0.0
H356 H 0.06564 0.84237 0.91019 0.0
H357 H 0.01579 0.84999 0.94813 0.0
H358 H 0.06922 0.7746 0.80612 0.0
H359 H 0.84981 0.08659 0.92968 0.0
H360 H 0.69533 0.87742 0.85834 0.0
H361 H 0.73127 0.89316 0.81043 0.0
H362 H 0.70696 0.9668 0.95969 0.0
H363 H 0.95623 0.73374 0.755 0.0
H364 H 0.0211 0.73703 0.76978 0.0
H365 H 0.68629 0.90422 0.91457 0.0
H366 H 0.80961 0.10969 0.97447 0.0
N367 N 0.79112 0.95307 0.86209 0.0
C368 C 0.72174 0.90013 0.85943 0.0
C369 C 0.74194 0.90923 0.83238 0.0
C370 C 0.73484 0.9245 0.88738 0.0
C371 C 0.76991 0.95202 0.88776 0.0
C372 C 0.77696 0.93578 0.83412 0.0
N373 N 0.81562 1.01195 0.91225 0.0
C374 C 0.78219 0.98398 0.91355 0.0
C375 C 0.80204 0.07261 0.95802 0.0
C376 C 0.76928 0.03821 0.9615 0.0
C377 C 0.82482 0.05942 0.93282 0.0
C378 C 0.75885 0.99354 0.93897 0.0
H379 H 0.75108 0.04919 0.98051 0.0
O380 O 0.87244 0.08389 0.86705 0.0
O381 O 0.9082 0.9415 0.86035 0.0
O382 O 0.89907 0.86178 0.91328 0.0
O383 O 0.85509 0.94363 0.918 0.0
O384 O 0.90708 0.02125 0.88791 0.0
O385 O 0.82316 0.05927 0.84294 0.0
O386 O 0.88423 0.74518 0.84113 0.0
O387 O 0.8478 0.87684 0.85643 0.0
O388 O 0.85503 0.96872 0.81897 0.0
O389 O 0.8987 0.88609 0.81384 0.0
O390 O 0.85426 0.79737 0.88567 0.0
O391 O 0.91911 0.74059 0.88186 0.0
C392 C 0.92891 0.97951 0.87528 0.0
C393 C 0.72495 0.96164 0.93992 0.0
C394 C 0.7132 0.92603 0.91426 0.0
C395 C 0.84526 0.10572 0.85076 0.0
C396 C 0.82935 0.16791 0.86116 0.0
C397 C 0.79755 0.17014 0.87936 0.0
C398 C 0.84793 0.22603 0.85428 0.0
C399 C 0.83557 0.2858 0.86621 0.0
C400 C 0.78507 0.22981 0.89107 0.0
C401 C 0.80403 0.28745 0.88465 0.0
C402 C 0.87769 0.90025 0.9302 0.0
C403 C 0.83039 0.83337 0.87216 0.0
C404 C 0.90071 0.70771 0.86142 0.0
C405 C 0.9172 0.64631 0.85066 0.0
C406 C 0.9524 0.64389 0.83795 0.0
C407 C 0.89783 0.5881 0.85495 0.0
C408 C 0.91273 0.52823 0.84524 0.0
C409 C 0.96712 0.58467 0.82786 0.0
C410 C 0.94738 0.52687 0.83139 0.0
C411 C 0.87834 0.93535 0.80232 0.0
H412 H 0.7827 0.1259 0.88482 0.0
H413 H 0.87228 0.22449 0.84007 0.0
H414 H 0.76091 0.23141 0.9055 0.0
H415 H 0.79423 0.33327 0.89409 0.0
H416 H 0.96882 0.68711 0.83635 0.0
H417 H 0.87176 0.58946 0.8667 0.0
H418 H 0.99401 0.58373 0.81755 0.0
H419 H 0.95924 0.48102 0.82385 0.0
Gd420 Gd 0.15751 0.07124 0.86759 0.0
Gd421 Gd 0.10711 0.2192 0.8573 0.0
C422 C 0.98313 0.22824 0.85522 0.0
C423 C 0.97251 0.28472 0.8066 0.0
C424 C 0.03405 0.24926 0.82041 0.0
C425 C 0.02096 0.22597 0.84866 0.0
C426 C 0.00987 0.28023 0.79943 0.0
C427 C 0.95913 0.25757 0.83403 0.0
C428 C 0.97059 0.20378 0.88354 0.0
C429 C 0.99566 0.18061 0.90519 0.0
N430 N 0.04515 0.20444 0.8703 0.0
C431 C 0.03297 0.1828 0.89848 0.0
H432 H 0.0515 0.16601 0.91595 0.0
C433 C 0.08481 0.27773 0.78898 0.0
N434 N 0.07066 0.24794 0.81479 0.0
C435 C 0.06188 0.30849 0.76756 0.0
C436 C 0.02434 0.31073 0.77308 0.0
H437 H 0.11408 0.27914 0.78538 0.0
H438 H 0.93037 0.26224 0.8393 0.0
H439 H 0.2264 0.09199 0.81573 0.0
H440 H 0.94171 0.20374 0.88915 0.0
H441 H 0.98634 0.16215 0.92734 0.0
H442 H 0.95375 0.3104 0.79138 0.0
H443 H 0.14617 0.98977 0.93701 0.0
H444 H 0.31935 0.15546 0.86615 0.0
H445 H 0.2884 0.13489 0.81622 0.0
H446 H 0.28456 0.11749 0.97179 0.0
H447 H 0.07326 0.33211 0.74728 0.0
H448 H 1.00681 0.33686 0.757 0.0
H449 H 0.31738 0.14999 0.92443 0.0
H450 H 0.17302 1.00017 0.98926 0.0
N451 N 0.22066 0.09099 0.8646 0.0
C452 C 0.29227 0.13476 0.86593 0.0
C453 C 0.27498 0.12344 0.83779 0.0
C454 C 0.27416 0.11969 0.89356 0.0
C455 C 0.23815 0.09615 0.89198 0.0
C456 C 0.2392 0.10037 0.83756 0.0
N457 N 0.18626 0.05079 0.91579 0.0
C458 C 0.22014 0.07664 0.91845 0.0
C459 C 0.18664 0.02163 0.96945 0.0
C460 C 0.2182 0.05906 0.97329 0.0
C461 C 0.17175 1.01518 0.93988 0.0
C462 C 0.23688 0.08247 0.94742 0.0
H463 H 0.22857 0.06895 -0.00398 0.0
O464 O 0.13945 0.97186 0.8753 0.0
O465 O 0.1005 0.11511 0.87313 0.0
O466 O 0.10977 0.20879 0.90939 0.0
O467 O 0.14784 0.11837 0.91444 0.0
O468 O 0.10482 0.02986 0.84872 0.0
O469 O 0.18537 0.99034 0.84486 0.0
O470 O 0.12785 0.31322 0.84145 0.0
O471 O 0.16379 0.175 0.85077 0.0
O472 O 0.16213 0.09925 0.81765 0.0
O473 O 0.11081 0.16318 0.81043 0.0
O474 O 0.15901 0.25752 0.87744 0.0
O475 O 0.08648 0.30907 0.87768 0.0
C476 C 0.08184 0.07184 0.85905 0.0
C477 C 0.27155 0.11115 0.94956 0.0
C478 C 0.29028 0.12938 0.9226 0.0
C479 C 0.16436 0.94638 0.85754 0.0
C480 C 0.1813 0.88581 0.86896 0.0
C481 C 0.21031 0.8863 0.89005 0.0
C482 C 0.16592 0.82617 0.86019 0.0
C483 C 0.17802 0.76731 0.87357 0.0
C484 C 0.22333 0.8274 0.90262 0.0
C485 C 0.207 0.76812 0.89473 0.0
C486 C 0.12976 0.16828 0.9263 0.0
C487 C 0.18205 0.21823 0.86529 0.0
C488 C 0.10768 0.34639 0.86085 0.0
C489 C 0.09329 0.4103 0.8503 0.0
C490 C 0.06113 0.41555 0.83305 0.0
C491 C 0.11249 0.46754 0.85743 0.0
C492 C 0.10107 0.52835 0.84562 0.0
C493 C 0.04975 0.47587 0.82108 0.0
C494 C 0.0698 0.53218 0.8271 0.0
C495 C 0.13619 0.12212 0.7995 0.0
H496 H 0.22252 0.93195 0.89702 0.0
H497 H 0.14391 0.82568 0.84352 0.0
H498 H 0.24564 0.8278 0.91898 0.0
H499 H 0.21669 0.72303 0.90525 0.0
H500 H 0.04463 0.37352 0.82909 0.0
H501 H 0.13586 0.46567 0.87257 0.0
H502 H 0.02532 0.47878 0.80711 0.0
H503 H 0.06079 0.57882 0.81774 0.0
Gd504 Gd 0.85931 0.05965 0.61187 0.0
Gd505 Gd 0.90401 0.20598 0.63451 0.0
C506 C 0.02704 0.18522 0.62323 0.0
C507 C 0.04735 0.18539 0.6765 0.0
C508 C 0.98301 0.19966 0.66443 0.0
C509 C 0.99076 0.19549 0.63317 0.0
C510 C 0.01155 0.19827 0.6862 0.0
C511 C 0.05491 0.17755 0.64506 0.0
C512 C 0.0343 0.18363 0.59163 0.0
C513 C 1.00688 0.20036 0.57087 0.0
N514 N 0.96331 0.20454 0.61246 0.0
C515 C 0.9717 0.21321 0.58185 0.0
H516 H 0.95209 0.22974 0.56517 0.0
C517 C 0.94052 0.2304 0.70285 0.0
N518 N 0.94802 0.21003 0.67346 0.0
C519 C 0.96807 0.23134 0.72499 0.0
C520 C 1.00343 0.21217 0.71694 0.0
H521 H 0.91286 0.24119 0.71 0.0
H522 H 0.08256 0.16722 0.63784 0.0
H523 H 0.8012 0.04857 0.67459 0.0
H524 H 0.06109 0.1715 0.58308 0.0
H525 H 0.01277 0.20349 0.54638 0.0
H526 H 0.06948 0.1821 0.69305 0.0
H527 H 0.85859 0.03499 0.53332 0.0
H528 H 0.69703 0.11712 0.64559 0.0
H529 H 0.7383 0.07757 0.68672 0.0
H530 H 0.70841 0.13839 0.53603 0.0
H531 H 0.96127 0.24265 0.74853 0.0
H532 H 0.02445 0.20963 0.73434 0.0
H533 H 0.68596 0.13951 0.58943 0.0
H534 H 0.82258 0.07945 0.49002 0.0
N535 N 0.79708 0.07194 0.62628 0.0
C536 C 0.72464 0.10291 0.63987 0.0
C537 C 0.74798 0.08107 0.66311 0.0
C538 C 0.73696 0.10486 0.60933 0.0
C539 C 0.77366 0.08806 0.6031 0.0
C540 C 0.78416 0.06516 0.6559 0.0
N541 N 0.82147 0.07041 0.56759 0.0
C542 C 0.78639 0.08848 0.57303 0.0
C543 C 0.81154 0.08051 0.51312 0.0
C544 C 0.77677 0.10599 0.51844 0.0
C545 C 0.83216 0.05697 0.53789 0.0
C546 C 0.76288 0.10593 0.54845 0.0
H547 H 0.76048 0.12361 0.49923 0.0
O548 O 0.87953 0.97644 0.5873 0.0
O549 O 0.91447 0.10943 0.61224 0.0
O550 O 0.89394 0.22114 0.58273 0.0
O551 O 0.87954 0.11489 0.56996 0.0
O552 O 0.91235 1.01436 0.62823 0.0
O553 O 0.83698 0.96172 0.62178 0.0
O554 O 0.88065 0.27868 0.66479 0.0
O555 O 0.84911 0.15582 0.63615 0.0
O556 O 0.86172 0.05141 0.66306 0.0
O557 O 0.90317 0.1307 0.67657 0.0
O558 O 0.8525 0.2474 0.61509 0.0
O559 O 0.92119 0.30861 0.62971 0.0
C560 C 0.93398 0.06219 0.62283 0.0
C561 C 0.72665 0.12392 0.55458 0.0
C562 C 0.71385 0.12406 0.58499 0.0
C563 C 0.8602 0.93466 0.60282 0.0
C564 C 0.85348 0.87167 0.58831 0.0
C565 C 0.84488 0.86796 0.55681 0.0
C566 C 0.86256 0.81464 0.60487 0.0
C567 C 0.86418 0.7542 0.58982 0.0
C568 C 0.84593 0.80771 0.54188 0.0
C569 C 0.85589 0.75115 0.55818 0.0
C570 C 0.88624 0.17595 0.562 0.0
C571 C 0.83031 0.2031 0.62435 0.0
C572 C 0.89952 0.32614 0.65231 0.0
C573 C 0.89676 0.39344 0.66454 0.0
C574 C 0.89011 0.40186 0.69622 0.0
C575 C 0.8983 0.44911 0.64501 0.0
C576 C 0.89118 0.51214 0.6571 0.0
C577 C 0.8845 0.46413 0.70828 0.0
C578 C 0.88457 0.5188 0.68886 0.0
C579 C 0.88529 0.07465 0.68277 0.0
H580 H 0.83853 0.91175 0.5436 0.0
H581 H 0.86962 0.81748 0.62916 0.0
H582 H 0.83957 0.80498 0.51752 0.0
H583 H 0.85669 0.70477 0.54625 0.0
H584 H 0.8889 0.36007 0.71172 0.0
H585 H 0.90262 0.44327 0.6204 0.0
H586 H 0.87931 0.46994 0.73271 0.0
H587 H 0.87884 0.5665 0.69855 0.0
Gd588 Gd 0.16495 0.98768 0.61733 0.0
Gd589 Gd 0.1107 0.84741 0.63786 0.0
C590 C 0.98672 0.87323 0.6342 0.0
C591 C 0.97098 0.87484 0.68865 0.0
C592 C 0.03429 0.85913 0.67266 0.0
C593 C 0.02409 0.86578 0.6418 0.0
C594 C 0.0077 0.86326 0.69623 0.0
C595 C 0.96048 0.87849 0.65768 0.0
C596 C 0.97647 0.87357 0.60317 0.0
C597 C 1.00297 0.86534 0.58049 0.0
N598 N 0.05012 0.86168 0.61927 0.0
C599 C 0.03967 0.86009 0.58888 0.0
H600 H 0.05884 0.85763 0.57038 0.0
C601 C 0.07899 0.82463 0.70894 0.0
N602 N 0.06966 0.84441 0.67964 0.0
C603 C 0.0542 0.83241 0.73314 0.0
C604 C 0.01864 0.8538 0.72682 0.0
H605 H 0.10672 0.80952 0.71399 0.0
H606 H 0.93188 0.88399 0.65199 0.0
H607 H 0.22217 0.93354 0.67464 0.0
H608 H 0.94813 0.87977 0.59648 0.0
H609 H 0.99531 0.8652 0.55635 0.0
H610 H 0.95029 0.87835 0.70653 0.0
H611 H 0.15781 0.04216 0.54354 0.0
H612 H 0.33097 0.96717 0.64614 0.0
H613 H 0.28716 0.92991 0.68541 0.0
H614 H 0.31815 0.06685 0.54664 0.0
H615 H 0.06301 0.82396 0.7566 0.0
H616 H 0.99958 0.862 0.74554 0.0
H617 H 0.3423 1.01869 0.59427 0.0
H618 H 0.19772 0.09915 0.50656 0.0
N619 N 0.22745 0.968 0.62842 0.0
C620 C 0.30225 0.96694 0.64063 0.0
C621 C 0.27756 0.94644 0.66302 0.0
C622 C 0.28942 0.9894 0.61206 0.0
C623 C 0.25142 0.98822 0.60622 0.0
C624 C 0.24026 0.94889 0.65674 0.0
N625 N 0.20108 1.0148 0.57397 0.0
C626 C 0.23788 1.01348 0.57855 0.0
C627 C 0.20935 0.07539 0.52673 0.0
C628 C 0.24696 0.07644 0.53165 0.0
C629 C 0.18681 0.04336 0.5479 0.0
C630 C 0.26177 0.04372 0.5572 0.0
H631 H 0.2644 0.10169 0.51523 0.0
O632 O 0.13984 0.0725 0.63915 0.0
O633 O 0.1084 0.95294 0.62742 0.0
O634 O 0.11756 0.85062 0.58519 0.0
O635 O 0.15714 0.93518 0.57243 0.0
O636 O 0.11311 1.01645 0.59093 0.0
O637 O 0.19149 0.08259 0.61652 0.0
O638 O 0.12714 0.75393 0.6181 0.0
O639 O 0.16769 0.87852 0.62605 0.0
O640 O 0.16516 0.98085 0.66955 0.0
O641 O 0.11648 0.91321 0.68073 0.0
O642 O 0.1625 0.81476 0.66259 0.0
O643 O 0.08252 0.75828 0.65039 0.0
C644 C 0.08975 0.98448 0.60753 0.0
C645 C 0.29947 0.04387 0.56281 0.0
C646 C 0.31326 1.01629 0.59001 0.0
C647 C 0.16436 0.11287 0.62921 0.0
C648 C 0.15099 0.17052 0.61242 0.0
C649 C 0.13681 0.16517 0.58245 0.0
C650 C 0.15193 0.23161 0.62648 0.0
C651 C 0.13694 0.28605 0.6112 0.0
C652 C 0.12393 0.21996 0.56654 0.0
C653 C 0.12322 0.28015 0.5811 0.0
C654 C 0.13782 0.88339 0.56482 0.0
C655 C 0.18628 0.84269 0.6447 0.0
C656 C 0.10427 0.72081 0.6349 0.0
C657 C 0.11896 0.66485 0.652 0.0
C658 C 0.13436 0.67219 0.68147 0.0
C659 C 0.1167 0.60291 0.63894 0.0
C660 C 0.13231 0.54899 0.65411 0.0
C661 C 0.14849 0.61799 0.69726 0.0
C662 C 0.14797 0.55664 0.68346 0.0
C663 C 0.13993 0.95924 0.68891 0.0
H664 H 0.1348 0.11893 0.57141 0.0
H665 H 0.1634 0.23667 0.64942 0.0
H666 H 0.11321 0.21519 0.54338 0.0
H667 H 0.11234 0.32236 0.56884 0.0
H668 H 0.13554 0.71944 0.69229 0.0
H669 H 0.10327 0.59673 0.61684 0.0
H670 H 0.16036 0.62371 0.71995 0.0
H671 H 0.15942 0.51496 0.69574 0.0
Gd672 Gd 0.61017 0.71118 0.13333 0.0
Gd673 Gd 0.66226 0.56408 0.11425 0.0
C674 C 0.78033 0.61532 0.13778 0.0
C675 C 0.80673 0.63008 0.08681 0.0
C676 C 0.744 0.59308 0.09255 0.0
C677 C 0.74689 0.5967 0.12436 0.0
C678 C 0.77469 0.60598 0.07366 0.0
C679 C 0.80932 0.63514 0.11881 0.0
C680 C 0.78401 0.61218 0.16983 0.0
C681 C 0.75565 0.58666 0.18755 0.0
N682 N 0.71793 0.57845 0.14213 0.0
C683 C 0.72289 0.56931 0.17335 0.0
H684 H 0.70243 0.54825 0.18814 0.0
C685 C 0.71158 0.55153 0.05009 0.0
N686 N 0.71238 0.57126 0.08021 0.0
C687 C 0.74161 0.56231 0.03078 0.0
C688 C 0.77286 0.59159 0.04229 0.0
H689 H 0.68725 0.53029 0.04037 0.0
H690 H 0.83432 0.6521 0.12868 0.0
H691 H 0.54904 0.66789 0.08079 0.0
H692 H 0.80911 0.62694 0.18098 0.0
H693 H 0.75883 0.58097 0.21229 0.0
H694 H 0.83013 0.64244 0.07256 0.0
H695 H 0.62512 0.77615 0.20264 0.0
H696 H 0.44191 0.69213 0.11854 0.0
H697 H 0.48212 0.66472 0.07448 0.0
H698 H 0.46525 0.77119 0.22057 0.0
H699 H 0.7402 0.55104 0.00674 0.0
H700 H 0.79578 0.60085 0.02699 0.0
H701 H 0.43592 0.73238 0.17319 0.0
H702 H 0.58996 0.81079 0.24839 0.0
N703 N 0.54692 0.69726 0.12749 0.0
C704 C 0.47127 0.69396 0.12133 0.0
C705 C 0.49385 0.67894 0.09633 0.0
C706 C 0.48692 0.7125 0.14939 0.0
C707 C 0.52537 0.7135 0.15178 0.0
C708 C 0.53178 0.68184 0.09977 0.0
N709 N 0.57888 0.73877 0.17904 0.0
C710 C 0.54189 0.7346 0.17852 0.0
C711 C 0.57611 0.7888 0.22903 0.0
C712 C 0.53815 0.78276 0.22926 0.0
C713 C 0.59602 0.76814 0.20324 0.0
C714 C 0.52048 0.75654 0.20357 0.0
H715 H 0.52269 0.80038 0.24893 0.0
O716 O 0.63216 0.80967 0.1356 0.0
O717 O 0.66657 0.67367 0.12142 0.0
O718 O 0.64829 0.55717 0.16425 0.0
O719 O 0.61115 0.6464 0.17728 0.0
O720 O 0.66154 0.73462 0.15899 0.0
O721 O 0.58516 0.79144 0.1073 0.0
O722 O 0.65259 0.48052 0.08456 0.0
O723 O 0.6059 0.61085 0.1141 0.0
O724 O 0.61624 0.70662 0.08079 0.0
O725 O 0.64951 0.6127 0.06828 0.0
O726 O 0.6089 0.51376 0.12458 0.0
O727 O 0.67945 0.46729 0.1293 0.0
C728 C 0.68502 0.70568 0.14149 0.0
C729 C 0.48218 0.75441 0.20161 0.0
C730 C 0.46545 0.73228 0.17461 0.0
C731 C 0.60771 0.83515 0.11741 0.0
C732 C 0.59248 0.89873 0.1269 0.0
C733 C 0.56484 0.90305 0.1493 0.0
C734 C 0.60809 0.95637 0.11511 0.0
C735 C 0.59855 1.01747 0.12745 0.0
C736 C 0.55413 0.964 0.16069 0.0
C737 C 0.57139 1.02088 0.15027 0.0
C738 C 0.62786 0.58962 0.18394 0.0
C739 C 0.58658 0.56191 0.12268 0.0
C740 C 0.66533 0.43925 0.10514 0.0
C741 C 0.68016 0.37602 0.09526 0.0
C742 C 0.71231 0.3714 0.07778 0.0
C743 C 0.66152 0.31883 0.10404 0.0
C744 C 0.67436 0.25719 0.09471 0.0
C745 C 0.72543 0.30999 0.06879 0.0
C746 C 0.7065 0.25315 0.07704 0.0
C747 C 0.63232 0.66761 0.06044 0.0
H748 H 0.55198 0.85958 0.1583 0.0
H749 H 0.62853 0.95358 0.09709 0.0
H750 H 0.53311 0.967 0.17827 0.0
H751 H 0.5642 0.06749 0.16038 0.0
H752 H 0.72718 0.41498 0.07121 0.0
H753 H 0.63703 0.3222 0.11809 0.0
H754 H 0.75032 0.30642 0.05533 0.0
H755 H 0.71697 0.206 0.0698 0.0
Gd756 Gd 0.40662 0.32512 0.13004 0.0
Gd757 Gd 0.35747 0.47678 0.1145 0.0
C758 C 0.23519 0.44474 0.10143 0.0
C759 C 0.2267 0.47679 0.04775 0.0
C760 C 0.28643 0.4859 0.07175 0.0
C761 C 0.27255 0.46071 0.09904 0.0
C762 C 0.26318 0.49766 0.04637 0.0
C763 C 0.21277 0.44996 0.07523 0.0
C764 C 0.22113 0.42741 0.13041 0.0
C765 C 0.24342 0.43113 0.15637 0.0
N766 N 0.29476 0.45801 0.12406 0.0
C767 C 0.28027 0.4471 0.15284 0.0
H768 H 0.29689 0.44851 0.17329 0.0
C769 C 0.33373 0.54676 0.04831 0.0
N770 N 0.32168 0.50595 0.07132 0.0
C771 C 0.31189 0.55943 0.02246 0.0
C772 C 0.2767 0.53347 0.02117 0.0
H773 H 0.3602 0.56936 0.05 0.0
H774 H 0.1842 0.43661 0.07641 0.0
H775 H 0.46609 0.35636 0.07235 0.0
H776 H 0.1929 0.41349 0.13329 0.0
H777 H 0.23243 0.42034 0.17908 0.0
H778 H 0.20862 0.48395 0.02821 0.0
H779 H 0.39389 0.25459 0.19792 0.0
H780 H 0.57403 0.32233 0.10491 0.0
H781 H 0.53202 0.35657 0.06333 0.0
H782 H 0.55385 0.22134 0.20305 0.0
H783 H 0.32199 0.58985 0.00377 0.0
H784 H 0.25964 0.54395 0.00129 0.0
H785 H 0.58192 0.27069 0.157 0.0
H786 H 0.43036 0.19944 0.23834 0.0
N787 N 0.46996 0.33239 0.12025 0.0
C788 C 0.54502 0.32552 0.1096 0.0
C789 C 0.52139 0.34442 0.08601 0.0
C790 C 0.53066 0.30624 0.13819 0.0
C791 C 0.49256 0.31167 0.14317 0.0
C792 C 0.48377 0.34533 0.09146 0.0
N793 N 0.44013 0.28874 0.17296 0.0
C794 C 0.47709 0.28788 0.17021 0.0
C795 C 0.4439 0.22482 0.21957 0.0
C796 C 0.48189 0.22293 0.217 0.0
C797 C 0.42333 0.257 0.19691 0.0
C798 C 0.49898 0.25431 0.19204 0.0
H799 H 0.49773 0.19611 0.23407 0.0
O800 O 0.38605 0.22595 0.13442 0.0
O801 O 0.35121 0.36636 0.11865 0.0
O802 O 0.35941 0.459 0.16528 0.0
O803 O 0.40561 0.38311 0.17535 0.0
O804 O 0.3541 0.29771 0.15366 0.0
O805 O 0.42428 0.24957 0.09797 0.0
O806 O 0.3799 0.57432 0.11159 0.0
O807 O 0.41272 0.43281 0.12567 0.0
O808 O 0.40297 0.34738 0.07802 0.0
O809 O 0.36074 0.43101 0.06812 0.0
O810 O 0.41272 0.50893 0.09521 0.0
O811 O 0.33467 0.55551 0.14241 0.0
C812 C 0.33151 0.33151 0.13712 0.0
C813 C 0.53681 0.24884 0.18711 0.0
C814 C 0.55277 0.2764 0.1607 0.0
C815 C 0.40623 0.20341 0.11207 0.0
C816 C 0.42581 0.14171 0.11886 0.0
C817 C 0.46016 0.14116 0.13302 0.0
C818 C 0.40842 0.08215 0.11339 0.0
C819 C 0.42338 0.02312 0.12465 0.0
C820 C 0.47551 0.08267 0.14376 0.0
C821 C 0.45708 0.02378 0.13991 0.0
C822 C 0.38469 0.43402 0.18326 0.0
C823 C 0.43414 0.46861 0.10947 0.0
C824 C 0.35636 0.59948 0.13063 0.0
C825 C 0.3401 0.66112 0.12005 0.0
C826 C 0.30973 0.66076 0.10053 0.0
C827 C 0.35826 0.72008 0.12575 0.0
C828 C 0.34664 0.77816 0.11119 0.0
C829 C 0.29884 0.71785 0.08544 0.0
C830 C 0.31686 0.77671 0.09086 0.0
C831 C 0.38309 0.38439 0.05898 0.0
H832 H 0.47513 0.18555 0.13582 0.0
H833 H 0.38318 0.0823 0.10068 0.0
H834 H 0.50141 0.08338 0.15558 0.0
H835 H 0.469 0.97881 0.14879 0.0
H836 H 0.29529 0.61596 0.09596 0.0
H837 H 0.38211 0.72042 0.14052 0.0
H838 H 0.27721 0.71516 0.06872 0.0
H839 H 0.3081 0.82072 0.07882 0.0
Gd840 Gd 0.60701 0.3393 0.35704 0.0
Gd841 Gd 0.65602 0.48508 0.37672 0.0
C842 C 0.76615 0.44005 0.33132 0.0
C843 C 0.80047 0.40012 0.37556 0.0
C844 C 0.74032 0.4479 0.38234 0.0
C845 C 0.73679 0.45575 0.35104 0.0
C846 C 0.77391 0.4276 0.39499 0.0
C847 C 0.79639 0.40634 0.34344 0.0
C848 C 0.76491 0.46138 0.30063 0.0
C849 C 0.73666 0.50322 0.29147 0.0
N850 N 0.70656 0.4872 0.34064 0.0
C851 C 0.70852 0.51812 0.31231 0.0
H852 H 0.68844 0.55401 0.30516 0.0
C853 C 0.72113 0.49309 0.42926 0.0
N854 N 0.7133 0.47195 0.40025 0.0
C855 C 0.75582 0.48109 0.44185 0.0
C856 C 0.78121 0.44324 0.42567 0.0
H857 H 0.70079 0.51885 0.44267 0.0
H858 H 0.81771 0.38946 0.3283 0.0
H859 H 0.55621 0.37836 0.42151 0.0
H860 H 0.78688 0.4501 0.28467 0.0
H861 H 0.73674 0.52474 0.26854 0.0
H862 H 0.82572 0.38044 0.3849 0.0
H863 H 0.60609 0.29478 0.28228 0.0
H864 H 0.44516 0.38449 0.39496 0.0
H865 H 0.49218 0.38843 0.43543 0.0
H866 H 0.44868 0.34695 0.28604 0.0
H867 H 0.76326 0.50129 0.46373 0.0
H868 H 0.80756 0.43228 0.43591 0.0
H869 H 0.42919 0.36785 0.34044 0.0
H870 H 0.56359 0.30276 0.2386 0.0
N871 N 0.54665 0.35808 0.37387 0.0
C872 C 0.4733 0.37486 0.38899 0.0
C873 C 0.49981 0.37745 0.41185 0.0
C874 C 0.4836 0.36277 0.35847 0.0
C875 C 0.52087 0.3537 0.35144 0.0
C876 C 0.5365 0.36978 0.40381 0.0
N877 N 0.56755 0.33143 0.31479 0.0
C878 C 0.53167 0.34196 0.32108 0.0
C879 C 0.55387 0.31251 0.26162 0.0
C880 C 0.51742 0.32901 0.26705 0.0
C881 C 0.57815 0.30976 0.28629 0.0
C882 C 0.5056 0.34016 0.29729 0.0
H883 H 0.49849 0.33233 0.24796 0.0
O884 O 0.62681 0.24692 0.37649 0.0
O885 O 0.66274 0.37542 0.36963 0.0
O886 O 0.64097 0.49809 0.32753 0.0
O887 O 0.61654 0.39966 0.31207 0.0
O888 O 0.65877 0.31638 0.33109 0.0
O889 O 0.5786 0.24763 0.34902 0.0
O890 O 0.6417 0.54755 0.41524 0.0
O891 O 0.59971 0.43878 0.37672 0.0
O892 O 0.61348 0.33752 0.4092 0.0
O893 O 0.6469 0.43013 0.42203 0.0
O894 O 0.60332 0.53425 0.36205 0.0
O895 O 0.6694 0.58877 0.37454 0.0
C896 C 0.68177 0.34361 0.34962 0.0
C897 C 0.46871 0.34977 0.30428 0.0
C898 C 0.45773 0.36088 0.33487 0.0
C899 C 0.60216 0.21161 0.36342 0.0
C900 C 0.61508 0.15323 0.34704 0.0
C901 C 0.63277 0.15877 0.31835 0.0
C902 C 0.61138 0.09146 0.36101 0.0
C903 C 0.62917 0.03655 0.34838 0.0
C904 C 0.64844 0.10371 0.30469 0.0
C905 C 0.64768 0.0434 0.32002 0.0
C906 C 0.62821 0.46001 0.30599 0.0
C907 C 0.58079 0.48731 0.36651 0.0
C908 C 0.65289 0.59979 0.40074 0.0
C909 C 0.65104 0.66509 0.41468 0.0
C910 C 0.63971 0.67075 0.44557 0.0
C911 C 0.65266 0.72154 0.3958 0.0
C912 C 0.6401 0.78206 0.40711 0.0
C913 C 0.62848 0.731 0.45711 0.0
C914 C 0.62794 0.78594 0.43791 0.0
C915 C 0.62966 0.37522 0.42975 0.0
H916 H 0.63543 0.20572 0.30699 0.0
H917 H 0.59602 0.08673 0.38235 0.0
H918 H 0.66241 0.10827 0.28271 0.0
H919 H 0.66132 1.00179 0.30965 0.0
H920 H 0.63794 0.62805 0.46047 0.0
H921 H 0.66144 0.71786 0.37193 0.0
H922 H 0.6192 0.73481 0.48077 0.0
H923 H 0.61829 0.83199 0.44721 0.0
Gd924 Gd 0.39635 0.70013 0.35105 0.0
Gd925 Gd 0.34449 0.55196 0.36615 0.0
C926 C 0.22534 0.61124 0.35093 0.0
C927 C 0.19922 0.59454 0.40182 0.0
C928 C 0.2636 0.57076 0.39273 0.0
C929 C 0.25969 0.58927 0.36182 0.0
C930 C 0.23267 0.56964 0.41236 0.0
C931 C 0.1959 0.61646 0.37134 0.0
C932 C 0.22132 0.62782 0.31978 0.0
C933 C 0.25086 0.62088 0.29991 0.0
N934 N 0.28904 0.58621 0.34244 0.0
C935 C 0.28452 0.60002 0.31154 0.0
H936 H 0.30649 0.59806 0.29522 0.0
C937 C 0.29946 0.52006 0.43164 0.0
N938 N 0.29678 0.55025 0.40321 0.0
C939 C 0.2689 0.51369 0.45073 0.0
C940 C 0.23576 0.5412 0.44168 0.0
H941 H 0.32501 0.49806 0.43896 0.0
H942 H 0.17041 0.63687 0.36337 0.0
H943 H 0.41921 0.78445 0.41743 0.0
H944 H 0.19539 0.64527 0.31077 0.0
H945 H 0.248 0.63304 0.27565 0.0
H946 H 0.17571 0.59648 0.41704 0.0
H947 H 0.43434 0.70449 0.27976 0.0
H948 H 0.52988 0.73382 0.43922 0.0
H949 H 0.47125 0.7869 0.45346 0.0
H950 H 0.57506 0.65743 0.34271 0.0
H951 H 0.27099 0.4878 0.47256 0.0
H952 H 0.21234 0.53778 0.45698 0.0
H953 H 0.56828 0.68239 0.39763 0.0
H954 H 0.49352 0.67825 0.25605 0.0
N955 N 0.44639 0.72294 0.38475 0.0
C956 C 0.50682 0.73161 0.42361 0.0
C957 C 0.47388 0.76173 0.43166 0.0
C958 C 0.51048 0.70439 0.39424 0.0
C959 C 0.47955 0.7022 0.37491 0.0
C960 C 0.44437 0.7597 0.41119 0.0
N961 N 0.4534 0.69116 0.32601 0.0
C962 C 0.48332 0.68696 0.34419 0.0
C963 C 0.49106 0.68039 0.28089 0.0
C964 C 0.5215 0.6693 0.29949 0.0
C965 C 0.4573 0.69362 0.29457 0.0
C966 C 0.51812 0.67416 0.33161 0.0
H967 H 0.54747 0.65985 0.28859 0.0
O968 O 0.38074 0.76029 0.31144 0.0
O969 O 0.33918 0.65825 0.35166 0.0
O970 O 0.35584 0.54544 0.31619 0.0
O971 O 0.3917 0.63707 0.30613 0.0
O972 O 0.34782 0.74489 0.37472 0.0
O973 O 0.40332 0.806 0.35258 0.0
O974 O 0.35453 0.46092 0.3423 0.0
O975 O 0.40057 0.59308 0.35607 0.0
O976 O 0.39084 0.68297 0.40344 0.0
O977 O 0.35569 0.59103 0.41338 0.0
O978 O 0.39992 0.51837 0.38706 0.0
O979 O 0.31618 0.46182 0.3788 0.0
C980 C 0.32312 0.70407 0.36672 0.0
C981 C 0.54823 0.66873 0.35148 0.0
C982 C 0.5444 0.68334 0.38288 0.0
C983 C 0.3894 0.81425 0.32524 0.0
C984 C 0.38543 0.87928 0.31049 0.0
C985 C 0.37097 0.88409 0.28054 0.0
C986 C 0.39131 0.93687 0.32749 0.0
C987 C 0.3788 0.99783 0.3161 0.0
C988 C 0.36054 0.94474 0.26845 0.0
C989 C 0.36361 1.00091 0.28629 0.0
C990 C 0.37613 0.58077 0.29748 0.0
C991 C 0.42176 0.55752 0.37242 0.0
C992 C 0.33471 0.42546 0.36027 0.0
C993 C 0.3526 0.36788 0.37408 0.0
C994 C 0.36903 0.37203 0.40329 0.0
C995 C 0.35373 0.30854 0.358 0.0
C996 C 0.37245 0.25435 0.3706 0.0
C997 C 0.3868 0.31785 0.41613 0.0
C998 C 0.38895 0.25955 0.39975 0.0
C999 C 0.37437 0.64179 0.42269 0.0
H1000 H 0.36634 0.84074 0.2669 0.0
H1001 H 0.40428 0.93387 0.34993 0.0
H1002 H 0.34868 0.94789 0.24563 0.0
H1003 H 0.35418 0.04715 0.27675 0.0
H1004 H 0.36831 0.41721 0.41614 0.0
H1005 H 0.3404 0.30458 0.33575 0.0
H1006 H 0.39942 0.32139 0.43864 0.0
H1007 H 0.40296 0.21795 0.41002 0.0
Gd1008 Gd 0.35084 0.48809 0.87892 0.0
Gd1009 Gd 0.40041 0.3451 0.85364 0.0
C1010 C 0.52286 0.37804 0.85344 0.0
C1011 C 0.53627 0.38588 0.79858 0.0
C1012 C 0.47443 0.36393 0.81622 0.0
C1013 C 0.4858 0.3675 0.84672 0.0
C1014 C 0.49955 0.37326 0.79185 0.0
C1015 C 0.54786 0.38713 0.82938 0.0
C1016 C 0.53406 0.37731 0.88422 0.0
C1017 C 0.50931 0.3606 0.9073 0.0
N1018 N 0.46117 0.35757 0.86978 0.0
C1019 C 0.47304 0.34861 0.89946 0.0
H1020 H 0.45529 0.33151 0.91749 0.0
C1021 C 0.42899 0.33152 0.78106 0.0
N1022 N 0.43921 0.34841 0.81031 0.0
C1023 C 0.45159 0.34662 0.75608 0.0
C1024 C 0.48695 0.36898 0.76147 0.0
H1025 H 0.40204 0.31219 0.777 0.0
H1026 H 0.57634 0.39282 0.83485 0.0
H1027 H 0.30517 0.52942 0.81043 0.0
H1028 H 0.56197 0.38743 0.89017 0.0
H1029 H 0.51821 0.35621 0.93106 0.0
H1030 H 0.55595 0.39247 0.7801 0.0
H1031 H 0.33517 0.46171 0.95644 0.0
H1032 H 0.19968 0.44545 0.81555 0.0
H1033 H 0.24752 0.50393 0.78631 0.0
H1034 H 0.18797 0.37834 0.92049 0.0
H1035 H 0.44149 0.34155 0.73284 0.0
H1036 H 0.50465 0.38063 0.74214 0.0
H1037 H 0.17962 0.39394 0.86472 0.0
H1038 H 0.28806 0.41347 0.98891 0.0
N1039 N 0.29344 0.47975 0.85337 0.0
C1040 C 0.22551 0.45621 0.82654 0.0
C1041 C 0.25254 0.48849 0.80991 0.0
C1042 C 0.23157 0.44042 0.85752 0.0
C1043 C 0.26588 0.45426 0.87079 0.0
C1044 C 0.2861 0.5012 0.82384 0.0
N1045 N 0.30542 0.45158 0.91405 0.0
C1046 C 0.27194 0.44032 0.90185 0.0
C1047 C 0.28316 0.42028 0.96444 0.0
C1048 C 0.2495 0.40432 0.95188 0.0
C1049 C 0.31045 0.4458 0.94539 0.0
C1050 C 0.2433 0.4152 0.92042 0.0
H1051 H 0.22836 0.38451 0.96674 0.0
O1052 O 0.3479 0.55516 0.91728 0.0
O1053 O 0.40807 0.44414 0.87527 0.0
O1054 O 0.39403 0.33671 0.90567 0.0
O1055 O 0.38022 0.44321 0.91988 0.0
O1056 O 0.40204 0.54152 0.86427 0.0
O1057 O 0.3331 0.58938 0.87174 0.0
O1058 O 0.38291 0.25114 0.87291 0.0
O1059 O 0.34473 0.38101 0.86697 0.0
O1060 O 0.36135 0.50775 0.82875 0.0
O1061 O 0.39003 0.4129 0.81179 0.0
O1062 O 0.34821 0.32375 0.82804 0.0
O1063 O 0.42631 0.25371 0.83977 0.0
C1064 C 0.42558 0.49461 0.86568 0.0
C1065 C 0.20973 0.39984 0.90691 0.0
C1066 C 0.20451 0.41019 0.87534 0.0
C1067 C 0.33924 0.60567 0.90028 0.0
C1068 C 0.35961 0.66713 0.90587 0.0
C1069 C 0.38419 0.67056 0.93077 0.0
C1070 C 0.35302 0.72406 0.88785 0.0
C1071 C 0.37207 0.78246 0.89395 0.0
C1072 C 0.4023 0.72853 0.93724 0.0
C1073 C 0.39671 0.78373 0.91877 0.0
C1074 C 0.38814 0.38151 0.92691 0.0
C1075 C 0.32534 0.35106 0.84693 0.0
C1076 C 0.40512 0.2166 0.85618 0.0
C1077 C 0.38965 0.15931 0.84043 0.0
C1078 C 0.37283 0.16672 0.81151 0.0
C1079 C 0.39112 0.09682 0.85448 0.0
C1080 C 0.37327 0.04314 0.84085 0.0
C1081 C 0.35693 0.11316 0.79717 0.0
C1082 C 0.35628 0.05234 0.81201 0.0
C1083 C 0.37623 0.47235 0.80678 0.0
H1084 H 0.38929 0.6286 0.94559 0.0
H1085 H 0.33283 0.72328 0.86957 0.0
H1086 H 0.42111 0.73047 0.95647 0.0
H1087 H 0.41121 0.82821 0.92423 0.0
H1088 H 0.37183 0.21393 0.80008 0.0
H1089 H 0.40508 0.09043 0.87637 0.0
H1090 H 0.344 0.11926 0.77485 0.0
H1091 H 0.34272 1.012 0.80081 0.0
Gd1092 Gd 0.65786 0.55812 0.87706 0.0
Gd1093 Gd 0.61377 0.70777 0.85428 0.0
C1094 C 0.48952 0.70915 0.85765 0.0
C1095 C 0.47435 0.74735 0.80633 0.0
C1096 C 0.5378 0.72575 0.81986 0.0
C1097 C 0.52699 0.70985 0.84998 0.0
C1098 C 0.51154 0.74872 0.79847 0.0
C1099 C 0.46343 0.72417 0.83525 0.0
C1100 C 0.47907 0.69752 0.88814 0.0
C1101 C 0.50556 0.69111 0.91082 0.0
N1102 N 0.5528 0.69959 0.87216 0.0
C1103 C 0.54235 0.69185 0.90242 0.0
H1104 H 0.56146 0.68061 0.92031 0.0
C1105 C 0.58573 0.7532 0.78526 0.0
N1106 N 0.57408 0.72737 0.81278 0.0
C1107 C 0.56073 0.77731 0.76367 0.0
C1108 C 0.52354 0.77615 0.77055 0.0
H1109 H 0.61448 0.75709 0.78037 0.0
H1110 H 0.43481 0.72166 0.84095 0.0
H1111 H 0.71414 0.59062 0.81447 0.0
H1112 H 0.45059 0.6947 0.89434 0.0
H1113 H 0.49772 0.68295 0.93467 0.0
H1114 H 0.45377 0.76623 0.79075 0.0
H1115 H 0.65167 0.50641 0.95094 0.0
H1116 H 0.82271 0.55438 0.84228 0.0
H1117 H 0.77859 0.5864 0.80257 0.0
H1118 H 0.81175 0.47438 0.94557 0.0
H1119 H 0.57021 0.79841 0.7421 0.0
H1120 H 0.50435 0.79744 0.75429 0.0
H1121 H 0.83517 0.51377 0.89588 0.0
H1122 H 0.69202 0.45157 0.98847 0.0
N1123 N 0.72011 0.56647 0.86256 0.0
C1124 C 0.79431 0.55844 0.84854 0.0
C1125 C 0.76936 0.57586 0.82586 0.0
C1126 C 0.7821 0.54307 0.8783 0.0
C1127 C 0.74435 0.54846 0.88502 0.0
C1128 C 0.73228 0.57809 0.83303 0.0
N1129 N 0.69462 0.53059 0.91965 0.0
C1130 C 0.73127 0.52861 0.91395 0.0
C1131 C 0.7034 0.4732 0.96769 0.0
C1132 C 0.7409 0.47021 0.96213 0.0
C1133 C 0.68064 0.50417 0.94629 0.0
C1134 C 0.75538 0.49937 0.93553 0.0
H1135 H 0.75848 0.44568 0.97874 0.0
O1136 O 0.62758 0.47434 0.86216 0.0
O1137 O 0.6042 0.60204 0.86337 0.0
O1138 O 0.61972 0.70657 0.90689 0.0
O1139 O 0.64966 0.61065 0.92176 0.0
O1140 O 0.60293 0.53759 0.89992 0.0
O1141 O 0.68244 0.46015 0.87741 0.0
O1142 O 0.6414 0.79709 0.86784 0.0
O1143 O 0.66795 0.66599 0.86842 0.0
O1144 O 0.65629 0.55905 0.82537 0.0
O1145 O 0.62094 0.64835 0.80934 0.0
O1146 O 0.66719 0.72533 0.82951 0.0
O1147 O 0.58687 0.80307 0.85088 0.0
C1148 C 0.58224 0.57197 0.88154 0.0
C1149 C 0.79291 0.49617 0.92911 0.0
C1150 C 0.80627 0.51862 0.90075 0.0
C1151 C 0.65279 0.43225 0.86838 0.0
C1152 C 0.64052 0.37528 0.8857 0.0
C1153 C 0.62712 0.38028 0.91601 0.0
C1154 C 0.63912 0.31574 0.87048 0.0
C1155 C 0.62491 0.2611 0.88562 0.0
C1156 C 0.61348 0.32529 0.93133 0.0
C1157 C 0.61244 0.26546 0.91618 0.0
C1158 C 0.63473 0.66783 0.9282 0.0
C1159 C 0.68876 0.69584 0.849 0.0
C1160 C 0.61529 0.83555 0.85895 0.0
C1161 C 0.62538 0.89022 0.83866 0.0
C1162 C 0.64295 0.87972 0.81021 0.0
C1163 C 0.61893 0.95408 0.8486 0.0
C1164 C 0.63082 1.00717 0.83062 0.0
C1165 C 0.65357 0.93264 0.79178 0.0
C1166 C 0.64785 0.99635 0.80205 0.0
C1167 C 0.63871 0.59229 0.80381 0.0
H1168 H 0.62538 0.42677 0.92723 0.0
H1169 H 0.64904 0.31175 0.8469 0.0
H1170 H 0.60314 0.32934 0.95469 0.0
H1171 H 0.60209 0.2227 0.92816 0.0
H1172 H 0.64956 0.83104 0.80264 0.0
H1173 H 0.60641 0.9626 0.87097 0.0
H1174 H 0.66729 0.9242 0.76997 0.0
H1175 H 0.65752 0.03711 0.7882 0.0
Gd1176 Gd 0.35563 0.55699 0.61011 0.0
Gd1177 Gd 0.40304 0.70396 0.62753 0.0
C1178 C 0.52499 0.66342 0.6242 0.0
C1179 C 0.53934 0.65366 0.67876 0.0
C1180 C 0.47853 0.68617 0.66253 0.0
C1181 C 0.48875 0.68027 0.63184 0.0
C1182 C 0.50402 0.67442 0.68623 0.0
C1183 C 0.54983 0.64786 0.64773 0.0
C1184 C 0.53503 0.66143 0.5931 0.0
C1185 C 0.50975 0.67929 0.57052 0.0
N1186 N 0.46343 0.69113 0.6095 0.0
C1187 C 0.47401 0.69511 0.57921 0.0
H1188 H 0.45545 0.71039 0.56135 0.0
C1189 C 0.43554 0.7255 0.69851 0.0
N1190 N 0.44395 0.70491 0.6693 0.0
C1191 C 0.45872 0.70986 0.72294 0.0
C1192 C 0.4929 0.68236 0.71685 0.0
H1193 H 0.40936 0.74781 0.70333 0.0
H1194 H 0.57748 0.63341 0.64195 0.0
H1195 H 0.30356 0.55969 0.67627 0.0
H1196 H 0.56211 0.646 0.5864 0.0
H1197 H 0.51763 0.68002 0.5464 0.0
H1198 H 0.55847 0.64325 0.69707 0.0
H1199 H 0.34879 0.53407 0.53169 0.0
H1200 H 0.19965 0.63811 0.65237 0.0
H1201 H 0.24299 0.59678 0.69175 0.0
H1202 H 0.20179 0.65045 0.54249 0.0
H1203 H 0.44975 0.71774 0.74626 0.0
H1204 H 0.51083 0.66895 0.73575 0.0
H1205 H 0.18487 0.65954 0.59725 0.0
H1206 H 0.31014 0.5766 0.49049 0.0
N1207 N 0.2955 0.57825 0.62791 0.0
C1208 C 0.2258 0.61887 0.64534 0.0
C1209 C 0.25045 0.59659 0.66753 0.0
C1210 C 0.23535 0.61697 0.61417 0.0
C1211 C 0.2706 0.59489 0.60596 0.0
C1212 C 0.28527 0.57602 0.6584 0.0
N1213 N 0.31482 0.57105 0.56803 0.0
C1214 C 0.28072 0.59226 0.57521 0.0
C1215 C 0.30075 0.57969 0.51406 0.0
C1216 C 0.2666 0.60625 0.52099 0.0
C1217 C 0.32337 0.55791 0.53785 0.0
C1218 C 0.25566 0.61056 0.55185 0.0
H1219 H 0.24879 0.62236 0.50244 0.0
O1220 O 0.36068 0.46845 0.5827 0.0
O1221 O 0.41213 0.60264 0.60951 0.0
O1222 O 0.39424 0.70654 0.57545 0.0
O1223 O 0.3818 0.59784 0.56653 0.0
O1224 O 0.40753 0.5087 0.62614 0.0
O1225 O 0.3392 0.46318 0.6296 0.0
O1226 O 0.38634 0.79195 0.65204 0.0
O1227 O 0.34658 0.65888 0.63031 0.0
O1228 O 0.36321 0.54823 0.66078 0.0
O1229 O 0.39255 0.64462 0.67295 0.0
O1230 O 0.35213 0.74762 0.60758 0.0
O1231 O 0.4236 0.79829 0.61273 0.0
C1232 C 0.43028 0.55491 0.62152 0.0
C1233 C 0.22104 0.63451 0.56002 0.0
C1234 C 0.21128 0.63905 0.59116 0.0
C1235 C 0.3505 0.43098 0.60557 0.0
C1236 C 0.3362 0.36554 0.59955 0.0
C1237 C 0.30373 0.35646 0.58313 0.0
C1238 C 0.35591 0.31093 0.61063 0.0
C1239 C 0.34344 0.24728 0.60506 0.0
C1240 C 0.29112 0.29311 0.57775 0.0
C1241 C 0.31086 0.23874 0.58858 0.0
C1242 C 0.38749 0.65805 0.55638 0.0
C1243 C 0.32863 0.70644 0.61756 0.0
C1244 C 0.40477 0.83009 0.63342 0.0
C1245 C 0.4201 0.89092 0.64544 0.0
C1246 C 0.44906 0.89145 0.66655 0.0
C1247 C 0.40517 0.95029 0.63482 0.0
C1248 C 0.41778 1.01021 0.6461 0.0
C1249 C 0.4623 0.95112 0.6774 0.0
C1250 C 0.44661 1.01026 0.66742 0.0
C1251 C 0.37863 0.58667 0.68092 0.0
H1252 H 0.28826 0.39815 0.57457 0.0
H1253 H 0.38091 0.31783 0.62356 0.0
H1254 H 0.26599 0.28609 0.56509 0.0
H1255 H 0.30077 0.19003 0.58413 0.0
H1256 H 0.46146 0.8462 0.67447 0.0
H1257 H 0.38366 0.94966 0.61775 0.0
H1258 H 0.48464 0.95153 0.69373 0.0
H1259 H 0.45684 0.05598 0.67631 0.0
Gd1260 Gd 0.66378 0.47362 0.61371 0.0
Gd1261 Gd 0.61194 0.33041 0.63823 0.0
C1262 C 0.48836 0.31419 0.64471 0.0
C1263 C 0.48108 0.2654 0.69554 0.0
C1264 C 0.54073 0.30459 0.67898 0.0
C1265 C 0.52606 0.3226 0.65047 0.0
C1266 C 0.51826 0.27519 0.70165 0.0
C1267 C 0.46595 0.28646 0.66754 0.0
C1268 C 0.47469 0.32933 0.61537 0.0
C1269 C 0.49859 0.34936 0.59219 0.0
N1270 N 0.5491 0.34221 0.62748 0.0
C1271 C 0.53584 0.35438 0.59856 0.0
H1272 H 0.55347 0.37196 0.58059 0.0
C1273 C 0.593 0.28658 0.71008 0.0
N1274 N 0.57751 0.30882 0.68322 0.0
C1275 C 0.57154 0.26041 0.73377 0.0
C1276 C 0.53408 0.25361 0.72934 0.0
H1277 H 0.6222 0.28707 0.71294 0.0
H1278 H 0.43715 0.27842 0.66326 0.0
H1279 H 0.71683 0.47045 0.68046 0.0
H1280 H 0.44597 0.32378 0.6101 0.0
H1281 H 0.48844 0.36052 0.56927 0.0
H1282 H 0.46378 0.24081 0.71227 0.0
H1283 H 0.67304 0.51935 0.53876 0.0
H1284 H 0.81838 0.3831 0.656 0.0
H1285 H 0.77678 0.42911 0.69527 0.0
H1286 H 0.82068 0.40295 0.54631 0.0
H1287 H 0.58411 0.24319 0.75497 0.0
H1288 H 0.51766 0.23108 0.74732 0.0
H1289 H 0.83429 0.37183 0.59992 0.0
H1290 H 0.71937 0.51414 0.49842 0.0
N1291 N 0.72304 0.44819 0.6323 0.0
C1292 C 0.79198 0.40219 0.64905 0.0
C1293 C 0.76861 0.42828 0.67126 0.0
C1294 C 0.78231 0.40628 0.61784 0.0
C1295 C 0.74754 0.43151 0.61003 0.0
C1296 C 0.73412 0.45143 0.66251 0.0
N1297 N 0.70568 0.47009 0.57252 0.0
C1298 C 0.73905 0.44468 0.57942 0.0
C1299 C 0.72544 0.4932 0.52076 0.0
C1300 C 0.75877 0.46186 0.52675 0.0
C1301 C 0.69903 0.49642 0.54385 0.0
C1302 C 0.76595 0.43741 0.55634 0.0
H1303 H 0.77926 0.45778 0.50882 0.0
O1304 O 0.65443 0.5668 0.63603 0.0
O1305 O 0.60823 0.43587 0.6256 0.0
O1306 O 0.61435 0.33315 0.58479 0.0
O1307 O 0.64537 0.42745 0.56937 0.0
O1308 O 0.60891 0.51261 0.59542 0.0
O1309 O 0.69013 0.56233 0.59704 0.0
O1310 O 0.63968 0.24077 0.62426 0.0
O1311 O 0.66806 0.36486 0.6253 0.0
O1312 O 0.65765 0.47965 0.66478 0.0
O1313 O 0.62046 0.39364 0.68176 0.0
O1314 O 0.66326 0.30669 0.66465 0.0
O1315 O 0.58334 0.23677 0.63591 0.0
C1316 C 0.58708 0.47515 0.61096 0.0
C1317 C 0.79975 0.40885 0.56378 0.0
C1318 C 0.80751 0.39137 0.59435 0.0
C1319 C 0.67211 0.60016 0.61546 0.0
C1320 C 0.65221 0.65478 0.60093 0.0
C1321 C 0.63698 0.64841 0.5713 0.0
C1322 C 0.64857 0.71409 0.61659 0.0
C1323 C 0.62982 0.76657 0.60269 0.0
C1324 C 0.6186 0.70082 0.55744 0.0
C1325 C 0.61481 0.75968 0.57312 0.0
C1326 C 0.62844 0.37224 0.56307 0.0
C1327 C 0.68667 0.33304 0.64584 0.0
C1328 C 0.61219 0.20314 0.62925 0.0
C1329 C 0.61947 0.14488 0.64833 0.0
C1330 C 0.63435 0.15062 0.67804 0.0
C1331 C 0.61427 0.08265 0.63586 0.0
C1332 C 0.6258 0.0268 0.65237 0.0
C1333 C 0.64363 0.09503 0.69523 0.0
C1334 C 0.63975 0.03325 0.68235 0.0
C1335 C 0.63894 0.44907 0.6864 0.0
H1336 H 0.63906 0.60299 0.55886 0.0
H1337 H 0.66082 0.71995 0.63919 0.0
H1338 H 0.60692 0.69549 0.53467 0.0
H1339 H 0.60089 0.80038 0.56199 0.0
H1340 H 0.64023 0.19778 0.68749 0.0
H1341 H 0.60356 0.07771 0.61266 0.0
H1342 H 0.65513 0.09997 0.71811 0.0
H1343 H 0.6484 0.99053 0.69544 0.0
C1344 C 0.25078 0.23421 0.101 0.0
C1345 C 0.2277 0.22148 0.12689 0.0
C1346 C 0.27207 0.28279 0.15893 0.0
C1347 C 0.29317 0.30174 0.13234 0.0
N1348 N 0.29517 0.3052 0.07654 0.0
N1349 N 0.21325 0.24888 0.17959 0.0
C1350 C 0.28038 0.28018 0.10296 0.0
C1351 C 0.23762 0.24974 0.15563 0.0
N1352 N 0.24467 0.2014 0.07417 0.0
N1353 N 0.28445 0.29755 0.1878 0.0
H1354 H 0.18818 0.22518 0.17853 0.0
H1355 H 0.21675 0.27579 0.19969 0.0
H1356 H 0.30672 0.32789 0.19175 0.0
H1357 H 0.27333 0.27729 0.20788 0.0
H1358 H 0.26264 0.20231 0.05546 0.0
H1359 H 0.22346 0.16801 0.07185 0.0
H1360 H 0.28455 0.29663 0.05464 0.0
H1361 H 0.31494 0.34111 0.07659 0.0
C1362 C 0.76498 0.80638 0.10482 0.0
C1363 C 0.78882 0.81592 0.13038 0.0
C1364 C 0.74444 0.75352 0.16295 0.0
C1365 C 0.72168 0.74097 0.1368 0.0
N1366 N 0.70337 0.7863 0.08761 0.0
N1367 N 0.80113 0.79475 0.18424 0.0
C1368 C 0.73016 0.77537 0.1089 0.0
C1369 C 0.77817 0.78915 0.15963 0.0
N1370 N 0.77548 0.82724 0.07611 0.0
N1371 N 0.73291 0.73406 0.19166 0.0
H1372 H 0.82306 0.82671 0.1844 0.0
H1373 H 0.79914 0.76662 0.2043 0.0
H1374 H 0.71037 0.70409 0.19534 0.0
H1375 H 0.74447 0.75008 0.21217 0.0
H1376 H 0.76194 0.81376 0.056 0.0
H1377 H 0.7987 0.8555 0.07229 0.0
H1378 H 0.70638 0.81796 0.0688 0.0
H1379 H 0.6768 0.76967 0.09036 0.0
C1380 C 0.26125 0.74159 0.38743 0.0
C1381 C 0.28478 0.73152 0.36163 0.0
C1382 C 0.24158 0.7979 0.3298 0.0
C1383 C 0.21869 0.80964 0.35602 0.0
N1384 N 0.19952 0.76265 0.40461 0.0
N1385 N 0.29789 0.75469 0.30809 0.0
C1386 C 0.22662 0.77376 0.38359 0.0
C1387 C 0.2747 0.76018 0.33269 0.0
N1388 N 0.27184 0.72025 0.41602 0.0
N1389 N 0.23108 0.82145 0.30153 0.0
H1390 H 0.31925 0.72109 0.3076 0.0
H1391 H 0.29647 0.7839 0.28833 0.0
H1392 H 0.21012 0.85553 0.29877 0.0
H1393 H 0.24233 0.80613 0.28068 0.0
H1394 H 0.25821 0.73359 0.43623 0.0
H1395 H 0.29524 0.69188 0.41962 0.0
H1396 H 0.20251 0.73131 0.42355 0.0
H1397 H 0.17282 0.77881 0.40141 0.0
C1398 C 0.76491 0.2526 0.38837 0.0
C1399 C 0.78709 0.235 0.36262 0.0
C1400 C 0.74136 0.29202 0.32865 0.0
C1401 C 0.71895 0.30852 0.35473 0.0
N1402 N 0.70469 0.2777 0.40728 0.0
N1403 N 0.79627 0.24044 0.30743 0.0
C1404 C 0.72966 0.28225 0.38405 0.0
C1405 C 0.77495 0.25478 0.33247 0.0
N1406 N 0.77695 0.23904 0.4176 0.0
N1407 N 0.73025 0.31184 0.29987 0.0
H1408 H 0.81813 0.20791 0.30838 0.0
H1409 H 0.79294 0.26071 0.28553 0.0
H1410 H 0.70907 0.34534 0.2963 0.0
H1411 H 0.74146 0.2954 0.27925 0.0
H1412 H 0.76536 0.25995 0.43724 0.0
H1413 H 0.79929 0.20866 0.42215 0.0
H1414 H 0.70943 0.25311 0.42806 0.0
H1415 H 0.67784 0.2924 0.40486 0.0
C1416 C 0.7507 0.74209 0.83035 0.0
C1417 C 0.72647 0.72718 0.85557 0.0
C1418 C 0.77059 0.78338 0.89037 0.0
C1419 C 0.79366 0.80104 0.86519 0.0
N1420 N 0.80903 0.7839 0.81167 0.0
N1421 N 0.70991 0.75848 0.90758 0.0
C1422 C 0.78454 0.77672 0.83531 0.0
C1423 C 0.73587 0.75321 0.88518 0.0
N1424 N 0.7405 0.72627 0.80097 0.0
N1425 N 0.78127 0.79709 0.91989 0.0
H1426 H 0.68325 0.74453 0.90444 0.0
H1427 H 0.71344 0.78418 0.92804 0.0
H1428 H 0.80384 0.82581 0.92508 0.0
H1429 H 0.76875 0.77669 0.93933 0.0
H1430 H 0.75307 0.74464 0.78117 0.0
H1431 H 0.71792 0.69757 0.79593 0.0
H1432 H 0.80729 0.75945 0.79074 0.0
H1433 H 0.83277 0.81109 0.81354 0.0
C1434 C 0.26521 0.30388 0.82615 0.0
C1435 C 0.28812 0.31731 0.85216 0.0
C1436 C 0.24246 0.25986 0.88535 0.0
C1437 C 0.22048 0.24415 0.85936 0.0
N1438 N 0.20763 0.26365 0.80558 0.0
N1439 N 0.30074 0.29229 0.90589 0.0
C1440 C 0.23134 0.26862 0.82979 0.0
C1441 C 0.27722 0.29113 0.88153 0.0
N1442 N 0.2758 0.3255 0.79758 0.0
N1443 N 0.2297 0.24569 0.91438 0.0
H1444 H 0.32641 0.31265 0.90489 0.0
H1445 H 0.29607 0.26855 0.92683 0.0
H1446 H 0.20677 0.21696 0.91847 0.0
H1447 H 0.24069 0.2648 0.93452 0.0
H1448 H 0.2648 0.30896 0.77695 0.0
H1449 H 0.2965 0.35956 0.79439 0.0
H1450 H 0.211 0.28702 0.78436 0.0
H1451 H 0.1828 0.23936 0.80711 0.0
C1452 C 0.73391 0.27384 0.61079 0.0
C1453 C 0.72294 0.29571 0.64057 0.0
C1454 C 0.77805 0.23694 0.66145 0.0
C1455 C 0.79121 0.22504 0.63092 0.0
N1456 N 0.78317 0.24445 0.57631 0.0
N1457 N 0.73674 0.29799 0.69507 0.0
C1458 C 0.76969 0.24788 0.60572 0.0
C1459 C 0.74538 0.276 0.66619 0.0
N1460 N 0.70938 0.27193 0.58736 0.0
N1461 N 0.79698 0.21208 0.68607 0.0
H1462 H 0.71442 0.32836 0.69943 0.0
H1463 H 0.75357 0.29221 0.71424 0.0
H1464 H 0.82145 0.18638 0.68377 0.0
H1465 H 0.78707 0.21199 0.70862 0.0
H1466 H 0.71521 0.25175 0.56591 0.0
H1467 H 0.68221 0.2851 0.58959 0.0
H1468 H 0.77102 0.26855 0.55762 0.0
H1469 H 0.80737 0.22012 0.57079 0.0
C1470 C 0.24628 0.78558 0.66266 0.0
C1471 C 0.2232 0.80768 0.63792 0.0
C1472 C 0.26853 0.75992 0.60119 0.0
C1473 C 0.29078 0.73497 0.62562 0.0
N1474 N 0.30408 0.73793 0.67991 0.0
N1475 N 0.20799 0.7896 0.58462 0.0
C1476 C 0.28022 0.75103 0.65649 0.0
C1477 C 0.23352 0.78896 0.6074 0.0
N1478 N 0.23539 0.79628 0.69244 0.0
N1479 N 0.28038 0.75459 0.57136 0.0
H1480 H 0.18061 0.7973 0.58917 0.0
H1481 H 0.21258 0.77196 0.56244 0.0
H1482 H 0.30297 0.72644 0.5651 0.0
H1483 H 0.26848 0.78029 0.55304 0.0
H1484 H 0.24722 0.77367 0.7116 0.0
H1485 H 0.21306 0.82555 0.69823 0.0
H1486 H 0.30121 0.75515 0.70234 0.0
H1487 H 0.32862 0.71353 0.6763 0.0
C1488 C 0.11503 0.06064 0.27474 0.0
C1489 C 0.12672 0.99404 0.2782 0.0
C1490 C 0.12457 0.98287 0.22214 0.0
C1491 C 0.11923 0.05155 0.21816 0.0
N1492 N 0.08483 0.13782 0.24092 0.0
N1493 N 0.14965 0.89653 0.2537 0.0
C1494 C 0.10824 0.08678 0.24456 0.0
C1495 C 0.13337 0.95654 0.25148 0.0
N1496 N 0.10996 0.09937 0.3 0.0
N1497 N 0.11607 0.94138 0.19881 0.0
H1498 H 0.15726 0.87579 0.27474 0.0
H1499 H 0.15851 0.87047 0.23442 0.0
H1500 H 0.10084 0.95758 0.18006 0.0
H1501 H 0.11735 0.89059 0.2009 0.0
H1502 H 0.10613 0.14983 0.29831 0.0
H1503 H 0.1113 0.08235 0.32267 0.0
H1504 H 0.07296 0.1632 0.2592 0.0
H1505 H 0.0713 0.1435 0.22003 0.0
C1506 C 0.92126 0.04924 0.25859 0.0
C1507 C 0.88663 0.06113 0.27342 0.0
C1508 C 0.86224 0.96648 0.24566 0.0
C1509 C 0.89408 0.95973 0.22794 0.0
N1510 N 0.95843 0.9762 0.22651 0.0
N1511 N 0.82206 0.04921 0.26462 0.0
C1512 C 0.92504 0.99609 0.23693 0.0
C1513 C 0.85648 0.02414 0.26272 0.0
N1514 N 0.94941 0.09172 0.26236 0.0
N1515 N 0.83711 0.91776 0.24597 0.0
H1516 H 0.81789 0.09838 0.27001 0.0
H1517 H 0.79938 0.02514 0.25568 0.0
H1518 H 0.84158 0.87445 0.23383 0.0
H1519 H 0.81391 0.91941 0.26005 0.0
H1520 H 0.97359 0.08954 0.24964 0.0
H1521 H 0.94755 0.13303 0.27592 0.0
H1522 H 0.98302 0.99406 0.23495 0.0
H1523 H 0.96117 0.93664 0.21154 0.0
C1524 C 0.90749 0.05735 0.73921 0.0
C1525 C 0.89102 0.03238 0.71231 0.0
C1526 C 0.87686 0.93146 0.74339 0.0
C1527 C 0.88567 0.96475 0.77089 0.0
N1528 N 0.90629 0.06542 0.79444 0.0
N1529 N 0.87098 0.93251 0.68775 0.0
C1530 C 0.89959 0.02961 0.7686 0.0
C1531 C 0.87879 0.96539 0.71414 0.0
N1532 N 0.93555 0.09991 0.73663 0.0
N1533 N 0.86695 0.8672 0.74522 0.0
H1534 H 0.88227 0.94583 0.66668 0.0
H1535 H 0.85559 0.89 0.68681 0.0
H1536 H 0.86364 0.84275 0.76622 0.0
H1537 H 0.86344 0.83684 0.72633 0.0
H1538 H 0.95093 0.1148 0.75555 0.0
H1539 H 0.94796 0.10799 0.71541 0.0
H1540 H 0.91259 0.11512 0.79339 0.0
H1541 H 0.90437 0.04656 0.81675 0.0
C1542 C 0.10297 0.0725 0.75317 0.0
C1543 C 0.13573 0.09342 0.76715 0.0
C1544 C 0.16965 1.01616 0.73401 0.0
C1545 C 0.137 0.99454 0.71993 0.0
N1546 N 0.07132 0.98772 0.7265 0.0
N1547 N 0.20054 0.10367 0.76028 0.0
C1548 C 0.10329 1.01837 0.73248 0.0
C1549 C 0.16917 0.07053 0.75438 0.0
N1550 N 0.07196 0.10885 0.75648 0.0
N1551 N 0.20069 0.9798 0.73069 0.0
H1552 H 0.20028 0.14695 0.77289 0.0
H1553 H 0.2254 0.0928 0.7496 0.0
H1554 H 0.19975 0.93356 0.72078 0.0
H1555 H 0.225 0.99002 0.74215 0.0
H1556 H 0.04784 0.09902 0.74467 0.0
H1557 H 0.07213 0.15422 0.76709 0.0
H1558 H 0.0474 0.99631 0.73905 0.0
H1559 H 0.06887 0.9525 0.70981 0.0
C1560 C 0.62165 0.56129 0.27126 0.0
C1561 C 0.62464 0.49157 0.27414 0.0
C1562 C 0.61979 0.48778 0.21783 0.0
C1563 C 0.62396 0.55719 0.21518 0.0
N1564 N 0.64169 0.6551 0.24179 0.0
N1565 N 0.63947 0.39245 0.24663 0.0
C1566 C 0.62886 0.59267 0.24261 0.0
C1567 C 0.62736 0.45558 0.24642 0.0
N1568 N 0.60983 0.59788 0.29531 0.0
N1569 N 0.60714 0.45238 0.19368 0.0
H1570 H 0.64981 0.3699 0.26644 0.0
H1571 H 0.64393 0.36628 0.22635 0.0
H1572 H 0.59631 0.475 0.17424 0.0
H1573 H 0.60204 0.40232 0.19529 0.0
H1574 H 0.60866 0.6488 0.29466 0.0
H1575 H 0.59472 0.57631 0.31282 0.0
H1576 H 0.64815 0.68084 0.26174 0.0
H1577 H 0.65043 0.67741 0.2214 0.0
C1578 C 0.38926 0.47628 0.26854 0.0
C1579 C 0.38628 0.54611 0.26773 0.0
C1580 C 0.3961 0.5392 0.21175 0.0
C1581 C 0.39014 0.47015 0.21269 0.0
N1582 N 0.37434 0.37523 0.24284 0.0
N1583 N 0.38317 0.64355 0.23593 0.0
C1584 C 0.3847 0.43924 0.24135 0.0
C1585 C 0.38913 0.57783 0.2386 0.0
N1586 N 0.39818 0.445 0.2952 0.0
N1587 N 0.40899 0.56773 0.18536 0.0
H1588 H 0.37638 0.67285 0.25468 0.0
H1589 H 0.3816 0.66763 0.21465 0.0
H1590 H 0.41537 0.54069 0.16574 0.0
H1591 H 0.41678 0.61658 0.18411 0.0
H1592 H 0.39662 0.39469 0.29802 0.0
H1593 H 0.40914 0.46961 0.31391 0.0
H1594 H 0.36623 0.35214 0.26325 0.0
H1595 H 0.36998 0.3472 0.22323 0.0
C1596 C 0.38403 0.57116 0.77019 0.0
C1597 C 0.3784 0.50258 0.77475 0.0
C1598 C 0.38324 0.49054 0.71872 0.0
C1599 C 0.38106 0.55969 0.71373 0.0
N1600 N 0.36819 0.66359 0.73808 0.0
N1601 N 0.36001 0.40245 0.74992 0.0
C1602 C 0.37833 0.59961 0.7404 0.0
C1603 C 0.37421 0.46378 0.74804 0.0
N1604 N 0.39634 0.6095 0.79352 0.0
N1605 N 0.39567 0.44974 0.69625 0.0
H1606 H 0.3502 0.38256 0.77048 0.0
H1607 H 0.35418 0.37489 0.73037 0.0
H1608 H 0.40818 0.46707 0.67638 0.0
H1609 H 0.39883 0.39948 0.69967 0.0
H1610 H 0.40307 0.65856 0.7902 0.0
H1611 H 0.40481 0.59057 0.81459 0.0
H1612 H 0.36314 0.69259 0.75737 0.0
H1613 H 0.36051 0.685 0.7173 0.0
C1614 C 0.63876 0.59094 0.74426 0.0
C1615 C 0.63628 0.55795 0.77295 0.0
C1616 C 0.64108 0.45312 0.74512 0.0
C1617 C 0.63652 0.48523 0.71658 0.0
N1618 N 0.62036 0.58641 0.69096 0.0
N1619 N 0.62042 0.45574 0.79728 0.0
C1620 C 0.63243 0.55491 0.71669 0.0
C1621 C 0.63367 0.48831 0.77245 0.0
N1622 N 0.64809 0.65531 0.74299 0.0
N1623 N 0.65319 0.39005 0.74653 0.0
H1624 H 0.6046 0.48108 0.81318 0.0
H1625 H 0.61884 0.40491 0.79827 0.0
H1626 H 0.66173 0.36501 0.72693 0.0
H1627 H 0.65915 0.36642 0.76739 0.0
H1628 H 0.65269 0.68028 0.72228 0.0
H1629 H 0.65577 0.68098 0.7626 0.0
H1630 H 0.61883 0.63713 0.6889 0.0
H1631 H 0.60736 0.5606 0.67354 0.0
C1632 C 0.14818 0.21847 0.97757 0.0
C1633 C 0.12813 0.17116 0.96096 0.0
C1634 C 0.11256 0.11551 0.00987 0.0
C1635 C 0.13617 0.15769 0.02611 0.0
N1636 N 0.17676 0.24994 0.02596 0.0
N1637 N 0.08958 0.07705 0.96125 0.0
C1638 C 0.15388 0.20977 0.01012 0.0
C1639 C 0.10987 0.12058 0.97727 0.0
N1640 N 0.16081 0.27251 0.96235 0.0
N1641 N 0.09098 0.07281 0.02592 0.0
H1642 H 0.083 0.08575 0.93834 0.0
H1643 H 0.08046 0.03265 0.97017 0.0
H1644 H 0.09182 0.06891 0.04981 0.0
H1645 H 0.06993 0.04583 0.01627 0.0
H1646 H 0.17311 0.31188 0.97316 0.0
H1647 H 0.15606 0.28044 0.93889 0.0
H1648 H 0.19388 0.28405 0.01551 0.0
H1649 H 0.18003 0.24679 0.04982 0.0
C1650 C 0.89019 0.95528 0.98156 0.0
C1651 C 0.88051 0.89795 0.96513 0.0
C1652 C 0.86936 0.84239 0.0154 0.0
C1653 C 0.88136 0.89873 0.03177 0.0
N1654 N 0.91162 1.00349 0.02849 0.0
N1655 N 0.86632 0.78292 0.96708 0.0
C1656 C 0.89388 0.95361 0.01426 0.0
C1657 C 0.87207 0.84021 0.98228 0.0
N1658 N 0.8962 1.01253 0.96606 0.0
N1659 N 0.85316 0.79218 0.03115 0.0
H1660 H 0.86585 0.77956 0.94314 0.0
H1661 H 0.86469 0.73767 0.97819 0.0
H1662 H 0.8504 0.7912 0.05501 0.0
H1663 H 0.83945 0.75408 0.02046 0.0
H1664 H 0.89673 0.058 0.97675 0.0
H1665 H 0.89837 1.01556 0.94227 0.0
H1666 H 0.92617 0.03964 0.01677 0.0
H1667 H 0.91562 1.00523 0.05199 0.0
C1668 C 0.17046 0.86717 0.48077 0.0
C1669 C 0.13629 0.86149 0.4658 0.0
C1670 C 0.11083 0.82902 0.51639 0.0
C1671 C 0.14014 0.86132 0.53143 0.0
N1672 N 0.20415 0.89092 0.527 0.0
N1673 N 0.07619 0.81335 0.46966 0.0
C1674 C 0.17197 0.87407 0.51337 0.0
C1675 C 0.1069 0.83556 0.48362 0.0
N1676 N 0.20173 0.8591 0.46411 0.0
N1677 N 0.09014 0.78463 0.5322 0.0
H1678 H 0.07613 0.79826 0.44684 0.0
H1679 H 0.0518 0.80555 0.48162 0.0
H1680 H 0.09688 0.76829 0.5543 0.0
H1681 H 0.07008 0.75632 0.52186 0.0
H1682 H 0.22696 0.84925 0.47431 0.0
H1683 H 0.20166 0.85568 0.44018 0.0
H1684 H 0.22689 0.90675 0.51463 0.0
H1685 H 0.20863 0.88893 0.55066 0.0
C1686 C 0.90791 0.13935 0.51071 0.0
C1687 C 0.88958 0.1879 0.52765 0.0
C1688 C 0.86507 0.22826 0.47777 0.0
C1689 C 0.87702 0.16946 0.46284 0.0
N1690 N 0.89955 0.0587 0.47242 0.0
N1691 N 0.84881 0.28045 0.52639 0.0
C1692 C 0.89529 0.12191 0.48136 0.0
C1693 C 0.86771 0.23345 0.51091 0.0
N1694 N 0.93817 0.10987 0.52245 0.0
N1695 N 0.85109 0.27889 0.46077 0.0
H1696 H 0.85262 0.28873 0.54989 0.0
H1697 H 0.82829 0.30851 0.51606 0.0
H1698 H 0.84766 0.27672 0.43699 0.0
H1699 H 0.84525 0.32464 0.47007 0.0
H1700 H 0.9542 0.07773 0.50948 0.0
H1701 H 0.94904 0.12431 0.54343 0.0
H1702 H 0.90966 0.02249 0.48731 0.0
H1703 H 0.89176 0.04164 0.4511 0.0
C1704 C 0.60367 0.7108 0.00954 0.0
C1705 C 0.63431 0.68798 0.0269 0.0
C1706 C 0.66929 0.67641 0.97878 0.0
C1707 C 0.63715 0.68973 0.96132 0.0
N1708 N 0.58376 0.76005 0.96147 0.0
N1709 N 0.69994 0.68939 0.02765 0.0
C1710 C 0.60702 0.71893 0.97688 0.0
C1711 C 0.66835 0.68297 0.01139 0.0
N1712 N 0.57157 0.72623 0.02373 0.0
N1713 N 0.701 0.65804 0.96444 0.0
H1714 H 0.70026 0.6925 0.0516 0.0
H1715 H 0.72522 0.6974 0.01717 0.0
H1716 H 0.70423 0.65744 0.94059 0.0
H1717 H 0.72409 0.64196 0.97632 0.0
H1718 H 0.54704 0.73159 0.01173 0.0
H1719 H 0.56973 0.73575 0.04713 0.0
H1720 H 0.56286 0.78608 0.97233 0.0
H1721 H 0.58877 0.77644 0.93907 0.0
C1722 C 0.41405 0.41362 0.97679 0.0
C1723 C 0.39506 0.36625 0.9602 0.0
C1724 C 0.37598 0.31799 0.00999 0.0
C1725 C 0.38763 0.37591 0.0251 0.0
N1726 N 0.4104 0.48665 0.01892 0.0
N1727 N 0.36062 0.26599 0.96136 0.0
C1728 C 0.40444 0.42598 0.00742 0.0
C1729 C 0.377 0.31554 0.97686 0.0
N1730 N 0.44261 0.44542 0.9636 0.0
N1731 N 0.36384 0.26601 0.02706 0.0
H1732 H 0.36492 0.25811 0.93793 0.0
H1733 H 0.34271 0.233 0.9717 0.0
H1734 H 0.36193 0.26697 0.05108 0.0
H1735 H 0.35801 0.22055 0.01767 0.0
H1736 H 0.45966 0.47609 0.97615 0.0
H1737 H 0.45151 0.43386 0.94148 0.0
H1738 H 0.41926 0.52562 0.00514 0.0
H1739 H 0.40463 0.49891 0.04149 0.0
C1740 C 0.66354 0.36182 0.48029 0.0
C1741 C 0.6308 0.35374 0.46336 0.0
C1742 C 0.59843 0.3309 0.51257 0.0
C1743 C 0.62952 0.35204 0.52932 0.0
N1744 N 0.69509 0.35231 0.5286 0.0
N1745 N 0.57396 0.2933 0.46389 0.0
C1746 C 0.66309 0.3568 0.51292 0.0
C1747 C 0.59991 0.32756 0.47946 0.0
N1748 N 0.6956 0.37396 0.46526 0.0
N1749 N 0.56815 0.3106 0.5281 0.0
H1750 H 0.5771 0.27867 0.44113 0.0
H1751 H 0.55182 0.27054 0.47446 0.0
H1752 H 0.5698 0.29243 0.55053 0.0
H1753 H 0.54233 0.30793 0.51812 0.0
H1754 H 0.7196 0.38738 0.47628 0.0
H1755 H 0.69831 0.37152 0.44147 0.0
H1756 H 0.72008 0.34018 0.51851 0.0
H1757 H 0.69598 0.35661 0.55225 0.0
C1758 C 0.40838 0.61805 0.50511 0.0
C1759 C 0.39019 0.66721 0.52184 0.0
C1760 C 0.3666 0.70936 0.47206 0.0
C1761 C 0.37875 0.65104 0.457 0.0
N1762 N 0.40285 0.54069 0.46444 0.0
N1763 N 0.35126 0.76279 0.52049 0.0
C1764 C 0.39689 0.60248 0.47504 0.0
C1765 C 0.3693 0.71438 0.50509 0.0
N1766 N 0.43831 0.58826 0.51739 0.0
N1767 N 0.35212 0.75967 0.45512 0.0
H1768 H 0.35518 0.77167 0.54386 0.0
H1769 H 0.33141 0.7926 0.5103 0.0
H1770 H 0.34776 0.75679 0.43148 0.0
H1771 H 0.34658 0.80569 0.4642 0.0
H1772 H 0.45454 0.55561 0.50491 0.0
H1773 H 0.4493 0.60428 0.53813 0.0
H1774 H 0.4135 0.50357 0.47853 0.0
H1775 H 0.39456 0.52464 0.44295 0.0
C1776 C 0.99497 0.97624 0.09399 0.0
C1777 C 0.97062 0.98553 0.11934 0.0
C1778 C 0.02141 0.03843 0.14734 0.0
C1779 C 0.04527 0.03397 0.12126 0.0
N1780 N 0.05739 0.97133 0.07532 0.0
N1781 N 0.96012 0.03934 0.16774 0.0
C1782 C 0.03264 0.9957 0.09594 0.0
C1783 C 0.98395 1.01945 0.14546 0.0
N1784 N 0.98206 0.94912 0.06754 0.0
N1785 N 0.03474 0.05882 0.17488 0.0
H1786 H 0.93287 0.02642 0.16798 0.0
H1787 H 0.96672 0.07248 0.18495 0.0
H1788 H 0.06037 0.07853 0.17674 0.0
H1789 H 0.02113 0.05328 0.1959 0.0
H1790 H 0.99618 0.9502 0.04661 0.0
H1791 H 0.9564 0.9277 0.06636 0.0
H1792 H 0.05096 0.9373 0.05845 0.0
H1793 H 0.0853 0.97945 0.07711 0.0
C1794 C 0.98929 0.04507 0.40787 0.0
C1795 C 0.96872 0.05545 0.3801 0.0
C1796 C 0.02439 0.02232 0.35086 0.0
C1797 C 0.04428 1.00844 0.37852 0.0
N1798 N 0.04641 1.01681 0.43385 0.0
N1799 N 0.966 0.03343 0.32566 0.0
C1800 C 0.02675 0.02292 0.4071 0.0
C1801 C 0.98637 0.03992 0.35172 0.0
N1802 N 0.97239 0.05455 0.43547 0.0
N1803 N 0.04179 1.01886 0.32321 0.0
H1804 H 0.93773 0.03442 0.32593 0.0
H1805 H 0.97649 1.01583 0.30496 0.0
H1806 H 0.06763 0.99937 0.32152 0.0
H1807 H 0.03148 0.03838 0.30266 0.0
H1808 H 0.98218 0.0381 0.4567 0.0
H1809 H 0.94772 0.07911 0.43662 0.0
H1810 H 0.03803 0.0352 0.45507 0.0
H1811 H 0.07225 0.99503 0.43475 0.0
C1812 C 0.03101 1.01775 0.89183 0.0
C1813 C 0.04219 0.05097 0.86443 0.0
C1814 C 0.98462 1.01205 0.84132 0.0
C1815 C 0.96975 0.99429 0.8707 0.0
N1816 N 0.98058 0.99178 0.9258 0.0
N1817 N 0.0247 0.08504 0.81336 0.0
C1818 C 0.99331 1.00192 0.89658 0.0
C1819 C 0.01729 0.04998 0.83937 0.0
N1820 N 0.05649 0.9944 0.91192 0.0
N1821 N 0.96962 0.98895 0.815 0.0
H1822 H 0.04778 0.11409 0.81188 0.0
H1823 H 1.00599 0.09083 0.79538 0.0
H1824 H 0.94906 0.95478 0.81577 0.0
H1825 H 0.98114 0.99621 0.79318 0.0
H1826 H 0.04973 0.96594 0.93117 0.0
H1827 H 0.0844 0.9988 0.90776 0.0
H1828 H 0.99615 1.00239 0.94528 0.0
H1829 H 0.9544 0.97454 0.93027 0.0
C1830 C 0.9973 0.03725 0.64408 0.0
C1831 C 0.97451 0.04806 0.61805 0.0
C1832 C 0.02685 1.01417 0.58477 0.0
C1833 C 0.05006 1.00714 0.61097 0.0
N1834 N 0.05798 0.03465 0.66448 0.0
N1835 N 0.96484 1.01456 0.56569 0.0
C1836 C 0.03535 0.02428 0.64027 0.0
C1837 C 0.98866 0.02894 0.58873 0.0
N1838 N 0.98229 0.03427 0.6729 0.0
N1839 N 0.04087 1.00576 0.55578 0.0
H1840 H 0.93683 0.02219 0.56774 0.0
H1841 H 0.97246 0.98978 0.54572 0.0
H1842 H 0.06748 0.98955 0.55163 0.0
H1843 H 0.02647 1.01839 0.53583 0.0
H1844 H 0.99673 1.01935 0.69248 0.0
H1845 H 0.95438 0.03792 0.67653 0.0
H1846 H 0.04897 0.05779 0.68441 0.0
H1847 H 0.08606 0.0301 0.6632 0.0
C1848 C 0.4963 0.50229 0.08637 0.0
C1849 C 0.47517 0.48514 0.11312 0.0
C1850 C 0.52389 0.53479 0.14486 0.0
C1851 C 0.54615 0.54722 0.11851 0.0
N1852 N 0.55509 0.53185 0.06394 0.0
N1853 N 0.47819 0.46635 0.16799 0.0
C1854 C 0.53266 0.52794 0.08918 0.0
C1855 C 0.49155 0.49644 0.14239 0.0
N1856 N 0.48215 0.49128 0.05788 0.0
N1857 N 0.53324 0.56035 0.17265 0.0
H1858 H 0.45933 0.42983 0.16584 0.0
H1859 H 0.4904 0.46816 0.18969 0.0
H1860 H 0.5558 0.58992 0.17509 0.0
H1861 H 0.5162 0.55931 0.19198 0.0
H1862 H 0.49249 0.51163 0.03755 0.0
H1863 H 0.45999 0.46059 0.05502 0.0
H1864 H 0.549 0.5112 0.04267 0.0
H1865 H 0.58093 0.5529 0.0647 0.0
C1866 C 0.48187 0.53087 0.34165 0.0
C1867 C 0.46385 0.54633 0.37015 0.0
C1868 C 0.52349 0.5237 0.39666 0.0
C1869 C 0.53971 0.50175 0.36853 0.0
N1870 N 0.53411 0.48763 0.31377 0.0
N1871 N 0.47019 0.56509 0.42441 0.0
C1872 C 0.51874 0.50689 0.341 0.0
C1873 C 0.4856 0.54426 0.39753 0.0
N1874 N 0.46445 0.54285 0.31461 0.0
N1875 N 0.5449 0.52717 0.42243 0.0
H1876 H 0.44597 0.59196 0.42439 0.0
H1877 H 0.48133 0.55751 0.44623 0.0
H1878 H 0.57176 0.50997 0.42296 0.0
H1879 H 0.53691 0.54883 0.44304 0.0
H1880 H 0.47559 0.53942 0.29259 0.0
H1881 H 0.43929 0.56421 0.31447 0.0
H1882 H 0.52041 0.48232 0.29296 0.0
H1883 H 0.56047 0.46987 0.31247 0.0
C1884 C 0.48005 0.53072 0.89824 0.0
C1885 C 0.46603 0.51126 0.86925 0.0
C1886 C 0.52507 0.54789 0.84616 0.0
C1887 C 0.54154 0.5538 0.87623 0.0
N1888 N 0.53195 0.54369 0.93167 0.0
N1889 N 0.47394 0.51296 0.81422 0.0
C1890 C 0.51836 0.54153 0.90233 0.0
C1891 C 0.48819 0.52405 0.84284 0.0
N1892 N 0.45633 0.54803 0.92115 0.0
N1893 N 0.54417 0.56547 0.82045 0.0
H1894 H 0.44744 0.49657 0.81102 0.0
H1895 H 0.48863 0.5148 0.79365 0.0
H1896 H 0.57146 0.57624 0.82092 0.0
H1897 H 0.53279 0.57319 0.79873 0.0
H1898 H 0.46465 0.57218 0.94104 0.0
H1899 H 0.4281 0.54326 0.91922 0.0
H1900 H 0.5169 0.52764 0.95075 0.0
H1901 H 0.55802 0.55988 0.93715 0.0
C1902 C 0.486 0.51695 0.59028 0.0
C1903 C 0.47067 0.53688 0.61884 0.0
C1904 C 0.52772 0.49597 0.6438 0.0
C1905 C 0.54587 0.49084 0.61446 0.0
N1906 N 0.53986 0.50114 0.55884 0.0
N1907 N 0.47609 0.53575 0.67417 0.0
C1908 C 0.52438 0.504 0.58754 0.0
C1909 C 0.49123 0.52253 0.64599 0.0
N1910 N 0.46337 0.50137 0.56655 0.0
N1911 N 0.54523 0.47591 0.66983 0.0
H1912 H 0.45021 0.55629 0.6766 0.0
H1913 H 0.48991 0.53239 0.69509 0.0
H1914 H 0.57216 0.46211 0.66938 0.0
H1915 H 0.53277 0.46865 0.6912 0.0
H1916 H 0.47263 0.47778 0.54671 0.0
H1917 H 0.43502 0.50563 0.56807 0.0
H1918 H 0.52615 0.51744 0.53909 0.0
H1919 H 0.56646 0.48483 0.55478 0.0
C1920 C 0.12097 0.6623 0.10137 0.0
C1921 C 0.15213 0.68308 0.11797 0.0
C1922 C 0.14943 0.58554 0.15105 0.0
C1923 C 0.11714 0.56639 0.13553 0.0
N1924 N 0.06972 0.58803 0.0981 0.0
N1925 N 0.19299 0.67163 0.16129 0.0
C1926 C 0.10212 0.60539 0.11136 0.0
C1927 C 0.1655 0.64675 0.14363 0.0
N1928 N 0.11017 0.69598 0.07548 0.0
N1929 N 0.16516 0.5445 0.17238 0.0
H1930 H 0.20588 0.71579 0.15617 0.0
H1931 H 0.20128 0.65123 0.18226 0.0
H1932 H 0.15341 0.50045 0.17937 0.0
H1933 H 0.19101 0.5518 0.18169 0.0
H1934 H 0.09031 0.67967 0.06026 0.0
H1935 H 0.12254 0.73918 0.06806 0.0
H1936 H 0.05491 0.61825 0.0832 0.0
H1937 H 0.05625 0.54452 0.10333 0.0
C1938 C 0.92284 0.37549 0.13121 0.0
C1939 C 0.88705 0.35026 0.1271 0.0
C1940 C 0.86089 0.44495 0.15351 0.0
C1941 C 0.89646 0.47167 0.1561 0.0
N1942 N 0.96036 0.46935 0.14265 0.0
N1943 N 0.82172 0.3669 0.12807 0.0
C1944 C 0.92719 0.43896 0.14355 0.0
C1945 C 0.85592 0.38679 0.13641 0.0
N1946 N 0.95276 0.33813 0.12418 0.0
N1947 N 0.8321 0.47412 0.16824 0.0
H1948 H 0.81707 0.32471 0.1153 0.0
H1949 H 0.79824 0.39513 0.13126 0.0
H1950 H 0.83506 0.51593 0.18158 0.0
H1951 H 0.80608 0.45396 0.16958 0.0
H1952 H 0.97925 0.34985 0.13084 0.0
H1953 H 0.95099 0.29315 0.11328 0.0
H1954 H 0.98269 0.45144 0.1303 0.0
H1955 H 0.96483 0.51534 0.15216 0.0
C1956 C 0.11968 0.37715 0.39525 0.0
C1957 C 0.15129 0.35816 0.37828 0.0
C1958 C 0.14628 0.45787 0.3465 0.0
C1959 C 0.11356 0.47513 0.36232 0.0
N1960 N 0.06584 0.44713 0.39835 0.0
N1961 N 0.19078 0.37334 0.33422 0.0
C1962 C 0.09929 0.43348 0.38572 0.0
C1963 C 0.16349 0.3966 0.35289 0.0
N1964 N 0.10977 0.34236 0.421 0.0
N1965 N 0.16133 0.50071 0.32574 0.0
H1966 H 0.20384 0.32853 0.33807 0.0
H1967 H 0.19838 0.39542 0.31345 0.0
H1968 H 0.1491 0.54523 0.31976 0.0
H1969 H 0.18723 0.49458 0.31615 0.0
H1970 H 0.0894 0.3573 0.43628 0.0
H1971 H 0.12355 0.30026 0.42835 0.0
H1972 H 0.05178 0.41493 0.41276 0.0
H1973 H 0.05078 0.48896 0.39259 0.0
C1974 C 0.85785 0.58708 0.34805 0.0
C1975 C 0.88613 0.56779 0.3274 0.0
C1976 C 0.90786 0.68058 0.32454 0.0
C1977 C 0.87903 0.69916 0.34461 0.0
N1978 N 0.82193 0.67541 0.36975 0.0
N1979 N 0.94207 0.59219 0.30053 0.0
C1980 C 0.85249 0.65394 0.35448 0.0
C1981 C 0.91221 0.61368 0.3167 0.0
N1982 N 0.83789 0.54115 0.36335 0.0
N1983 N 0.93018 0.7275 0.31243 0.0
H1984 H 0.94643 0.54294 0.29546 0.0
H1985 H 0.96376 0.62172 0.29384 0.0
H1986 H 0.92631 0.77679 0.31722 0.0
H1987 H 0.95026 0.71905 0.29585 0.0
H1988 H 0.81901 0.55152 0.38069 0.0
H1989 H 0.84422 0.49206 0.36178 0.0
H1990 H 0.79955 0.64588 0.37471 0.0
H1991 H 0.8173 0.7246 0.3748 0.0
C1992 C 0.8838 0.36614 0.88096 0.0
C1993 C 0.85613 0.34685 0.86009 0.0
C1994 C 0.86728 0.44441 0.82819 0.0
C1995 C 0.89271 0.46628 0.85049 0.0
N1996 N 0.9215 0.45384 0.90025 0.0
N1997 N 0.81861 0.36905 0.81551 0.0
C1998 C 0.9 0.42871 0.87748 0.0
C1999 C 0.84705 0.38642 0.83411 0.0
N2000 N 0.8952 0.32393 0.90368 0.0
N2001 N 0.86293 0.4787 0.80118 0.0
H2002 H 0.80424 0.32552 0.8184 0.0
H2003 H 0.80766 0.3993 0.7984 0.0
H2004 H 0.87649 0.52241 0.79649 0.0
H2005 H 0.84749 0.46233 0.78267 0.0
H2006 H 0.91816 0.33189 0.91728 0.0
H2007 H 0.88348 0.27813 0.90735 0.0
H2008 H 0.92444 0.43224 0.92197 0.0
H2009 H 0.93422 0.49922 0.89838 0.0
C2010 C 0.15192 0.60735 0.83479 0.0
C2011 C 0.12152 0.58856 0.8532 0.0
C2012 C 0.12728 0.68801 0.88404 0.0
C2013 C 0.15883 0.70527 0.86666 0.0
N2014 N 0.20401 0.6792 0.82801 0.0
N2015 N 0.08305 0.60458 0.89779 0.0
C2016 C 0.172 0.6642 0.84274 0.0
C2017 C 0.10997 0.62715 0.87853 0.0
N2018 N 0.16083 0.57178 0.80918 0.0
N2019 N 0.11352 0.73048 0.90545 0.0
H2020 H 0.06935 0.56073 0.89418 0.0
H2021 H 0.07597 0.62651 0.9186 0.0
H2022 H 0.12612 0.77448 0.91095 0.0
H2023 H 0.08838 0.72452 0.91636 0.0
H2024 H 0.18009 0.58633 0.79283 0.0
H2025 H 0.1473 0.52902 0.80313 0.0
H2026 H 0.21748 0.64777 0.81293 0.0
H2027 H 0.21859 0.7218 0.83237 0.0
C2028 C 0.90745 0.6804 0.62007 0.0
C2029 C 0.87223 0.69299 0.60737 0.0
C2030 C 0.85324 0.58292 0.62159 0.0
C2031 C 0.88695 0.57159 0.63694 0.0
N2032 N 0.94509 0.61247 0.65383 0.0
N2033 N 0.80897 0.66201 0.60315 0.0
C2034 C 0.91377 0.62142 0.63716 0.0
C2035 C 0.84439 0.64586 0.61016 0.0
N2036 N 0.93512 0.72354 0.61478 0.0
N2037 N 0.82967 0.53294 0.61749 0.0
H2038 H 0.801 0.70857 0.59568 0.0
H2039 H 0.78691 0.6315 0.60787 0.0
H2040 H 0.83586 0.48673 0.6257 0.0
H2041 H 0.80673 0.53604 0.60332 0.0
H2042 H 0.96217 0.71495 0.62112 0.0
H2043 H 0.93148 0.76593 0.60166 0.0
H2044 H 0.96362 0.64969 0.65818 0.0
H2045 H 0.95159 0.56828 0.66479 0.0
C2046 C 0.1608 0.3982 0.611 0.0
C2047 C 0.13798 0.3513 0.62507 0.0
C2048 C 0.10777 0.43599 0.65573 0.0
C2049 C 0.13016 0.4829 0.64086 0.0
N2050 N 0.1676 0.51094 0.59687 0.0
N2051 N 0.09408 0.32156 0.6642 0.0
C2052 C 0.15394 0.46481 0.61646 0.0
C2053 C 0.11249 0.36903 0.6484 0.0
N2054 N 0.1895 0.37872 0.59285 0.0
N2055 N 0.08111 0.45641 0.67577 0.0
H2056 H 0.09943 0.27236 0.66076 0.0
H2057 H 0.0762 0.32982 0.68248 0.0
H2058 H 0.07623 0.50571 0.68041 0.0
H2059 H 0.06194 0.42594 0.68611 0.0
H2060 H 0.20938 0.41069 0.58459 0.0
H2061 H 0.19566 0.32959 0.58882 0.0
H2062 H 0.1828 0.50011 0.57716 0.0
H2063 H 0.15873 0.55902 0.59766 0.0
C2064 C 0.64714 0.10088 0.13786 0.0
C2065 C 0.61887 0.07764 0.1184 0.0
C2066 C 0.62489 0.17478 0.08506 0.0
C2067 C 0.65438 0.19646 0.10356 0.0
N2068 N 0.69545 0.17986 0.14636 0.0
N2069 N 0.58395 0.08651 0.07146 0.0
C2070 C 0.66599 0.15938 0.12969 0.0
C2071 C 0.60865 0.11293 0.09139 0.0
N2072 N 0.65558 0.0672 0.16438 0.0
N2073 N 0.61185 0.2142 0.06185 0.0
H2074 H 0.57073 0.04233 0.07579 0.0
H2075 H 0.57837 0.10571 0.04962 0.0
H2076 H 0.62362 0.25894 0.05598 0.0
H2077 H 0.58786 0.20514 0.0498 0.0
H2078 H 0.67266 0.08473 0.18156 0.0
H2079 H 0.64421 0.02201 0.17005 0.0
H2080 H 0.70821 0.15202 0.16346 0.0
H2081 H 0.70855 0.2242 0.14213 0.0
C2082 C 0.39435 0.85778 0.09362 0.0
C2083 C 0.36714 0.83985 0.11546 0.0
C2084 C 0.3791 0.93941 0.14487 0.0
C2085 C 0.40349 0.96048 0.12127 0.0
N2086 N 0.43122 0.94435 0.07134 0.0
N2087 N 0.33038 0.86569 0.16005 0.0
C2088 C 0.41022 0.92094 0.09509 0.0
C2089 C 0.35863 0.88124 0.14065 0.0
N2090 N 0.40576 0.81363 0.07201 0.0
N2091 N 0.37605 0.97441 0.17156 0.0
H2092 H 0.31558 0.82244 0.15822 0.0
H2093 H 0.31991 0.89748 0.17659 0.0
H2094 H 0.3897 1.01835 0.1751 0.0
H2095 H 0.3617 0.95817 0.19089 0.0
H2096 H 0.42834 0.82096 0.05773 0.0
H2097 H 0.39459 0.76702 0.07009 0.0
H2098 H 0.43382 0.92099 0.05015 0.0
H2099 H 0.44392 0.98987 0.07188 0.0
C2100 C 0.64915 0.96082 0.39157 0.0
C2101 C 0.62884 0.97119 0.36408 0.0
C2102 C 0.61662 0.85313 0.36249 0.0
C2103 C 0.64051 0.84335 0.38808 0.0
N2104 N 0.68831 0.88673 0.41985 0.0
N2105 N 0.59323 0.92635 0.32258 0.0
C2106 C 0.65973 0.89688 0.4001 0.0
C2107 C 0.61274 0.91685 0.34916 0.0
N2108 N 0.65618 1.01077 0.41114 0.0
N2109 N 0.59673 0.80227 0.35161 0.0
H2110 H 0.5863 0.97274 0.31417 0.0
H2111 H 0.58491 0.88851 0.30832 0.0
H2112 H 0.6012 0.75476 0.35919 0.0
H2113 H 0.57524 0.80732 0.33603 0.0
H2114 H 0.66608 1.00245 0.4334 0.0
H2115 H 0.64736 0.05829 0.40721 0.0
H2116 H 0.70507 0.92458 0.42727 0.0
H2117 H 0.69751 0.83995 0.42596 0.0
C2118 C 0.40255 0.11191 0.32015 0.0
C2119 C 0.38217 0.06037 0.3337 0.0
C2120 C 0.35256 0.1382 0.36888 0.0
C2121 C 0.37264 0.18966 0.35516 0.0
N2122 N 0.41062 0.2286 0.31356 0.0
N2123 N 0.34813 0.02255 0.3781 0.0
C2124 C 0.39615 0.1774 0.3297 0.0
C2125 C 0.3599 0.07286 0.36001 0.0
N2126 N 0.42915 0.09732 0.29899 0.0
N2127 N 0.32535 0.1522 0.38962 0.0
H2128 H 0.35695 0.97506 0.37465 0.0
H2129 H 0.33463 0.02884 0.39909 0.0
H2130 H 0.31879 0.19984 0.39622 0.0
H2131 H 0.30677 0.11765 0.39772 0.0
H2132 H 0.44761 0.13119 0.29016 0.0
H2133 H 0.43521 0.04936 0.29255 0.0
H2134 H 0.42579 0.22384 0.29335 0.0
H2135 H 0.404 0.27678 0.31854 0.0
C2136 C 0.38024 0.85754 0.84783 0.0
C2137 C 0.36478 0.8456 0.87729 0.0
C2138 C 0.35414 0.96355 0.88372 0.0
C2139 C 0.37281 0.97599 0.8553 0.0
N2140 N 0.41113 0.93456 0.81432 0.0
N2141 N 0.32735 0.88363 0.91901 0.0
C2142 C 0.38776 0.92277 0.8384 0.0
C2143 C 0.34891 0.89782 0.894 0.0
N2144 N 0.38558 0.80696 0.828 0.0
N2145 N 0.343 1.01437 0.9017 0.0
H2146 H 0.32243 0.83566 0.92626 0.0
H2147 H 0.31147 0.91788 0.93068 0.0
H2148 H 0.34637 0.06283 0.89526 0.0
H2149 H 0.33323 1.00909 0.92416 0.0
H2150 H 0.39319 0.81353 0.80497 0.0
H2151 H 0.37782 0.75934 0.83344 0.0
H2152 H 0.42589 0.89771 0.80328 0.0
H2153 H 0.41894 0.9816 0.80765 0.0
C2154 C 0.59832 0.17863 0.84989 0.0
C2155 C 0.62656 0.19767 0.87027 0.0
C2156 C 0.65691 0.09281 0.8647 0.0
C2157 C 0.62946 0.07368 0.84355 0.0
N2158 N 0.57679 0.09988 0.81245 0.0
N2159 N 0.6866 0.18042 0.89183 0.0
C2160 C 0.60098 0.11724 0.83493 0.0
C2161 C 0.65706 0.15702 0.87609 0.0
N2162 N 0.56867 0.21858 0.84563 0.0
N2163 N 0.68243 0.0488 0.87449 0.0
H2164 H 0.68765 0.22736 0.90103 0.0
H2165 H 0.71138 0.15543 0.89362 0.0
H2166 H 0.68367 1.00222 0.86552 0.0
H2167 H 0.7003 0.05686 0.89271 0.0
H2168 H 0.54548 0.20566 0.83329 0.0
H2169 H 0.56634 0.26391 0.85624 0.0
H2170 H 0.5578 0.13191 0.80267 0.0
H2171 H 0.57713 0.054 0.80208 0.0
C2172 C 0.373 0.10205 0.65526 0.0
C2173 C 0.40009 0.07287 0.63613 0.0
C2174 C 0.39185 0.16067 0.59745 0.0
C2175 C 0.36437 0.18909 0.61642 0.0
N2176 N 0.3333 0.19522 0.66542 0.0
N2177 N 0.43406 0.0702 0.58841 0.0
C2178 C 0.35624 0.16209 0.64593 0.0
C2179 C 0.40934 0.10133 0.60709 0.0
N2180 N 0.36204 0.07048 0.68167 0.0
N2181 N 0.40189 0.19187 0.57068 0.0
H2182 H 0.44829 0.02816 0.59521 0.0
H2183 H 0.43963 0.08375 0.5657 0.0
H2184 H 0.38942 0.23493 0.5629 0.0
H2185 H 0.4238 0.17789 0.55685 0.0
H2186 H 0.33954 0.08452 0.69484 0.0
H2187 H 0.37384 0.02682 0.68944 0.0
H2188 H 0.32926 0.18267 0.68851 0.0
H2189 H 0.32015 0.23875 0.65918 0.0
C2190 C 0.60328 0.84857 0.63958 0.0
C2191 C 0.62984 0.83182 0.61701 0.0
C2192 C 0.65198 0.94384 0.61575 0.0
C2193 C 0.62516 0.96113 0.63813 0.0
N2194 N 0.57111 0.93429 0.66726 0.0
N2195 N 0.68428 0.85828 0.58826 0.0
C2196 C 0.59964 0.91456 0.649 0.0
C2197 C 0.65552 0.87809 0.60633 0.0
N2198 N 0.5829 0.80057 0.65301 0.0
N2199 N 0.67308 0.99101 0.60257 0.0
H2200 H 0.68782 0.81019 0.58091 0.0
H2201 H 0.70647 0.88766 0.58263 0.0
H2202 H 0.67066 0.03936 0.60893 0.0
H2203 H 0.69024 0.98382 0.58367 0.0
H2204 H 0.5651 0.80762 0.6715 0.0
H2205 H 0.58688 0.75186 0.64746 0.0
H2206 H 0.54941 0.90435 0.67357 0.0
H2207 H 0.56738 0.98273 0.67406 0.0
loop_
_geom_bond_atom_site_label_1
_geom_bond_atom_site_label_2
_geom_bond_distance
_geom_bond_site_symmetry_2
_ccdc_geom_bond_type
Gd0 N31 2.661 . S
Gd0 N37 2.601 . S
Gd0 O44 2.545 . S
Gd0 O45 2.606 . S
Gd0 O47 2.429 . S
Gd0 O48 2.545 . S
Gd0 O49 2.412 . S
Gd0 O51 2.362 . S
Gd0 O52 2.324 . S
Gd0 C59 2.828 . S
Gd1 N10 2.661 . S
Gd1 N14 2.601 . S
Gd1 O45 2.362 . S
Gd1 O46 2.324 . S
Gd1 O50 2.545 1_545 S
Gd1 O51 2.606 . S
Gd1 O53 2.429 . S
Gd1 O54 2.545 1_545 S
Gd1 O55 2.412 1_545 S
Gd1 C68 2.828 1_545 S
C2 C5 1.417 . S
C2 C7 1.431 . S
C2 C8 1.412 . S
C3 C6 1.437 . S
C3 C7 1.317 . S
C3 H22 0.927 1_545 S
C4 C5 1.426 . S
C4 C6 1.413 . S
C4 N14 1.359 . S
C5 C2 1.417 . S
C5 C4 1.426 . S
C5 N10 1.350 . S
C6 C3 1.437 . S
C6 C4 1.413 . S
C6 C16 1.391 1_545 S
C7 C2 1.431 . S
C7 C3 1.317 . S
C7 H18 0.930 . S
C8 C2 1.412 . S
C8 C9 1.355 . S
C8 H20 0.930 . S
C9 C8 1.355 . S
C9 C11 1.402 . S
C9 H21 0.930 . S
N10 Gd1 2.661 . S
N10 C5 1.350 . S
N10 C11 1.307 . S
C11 C9 1.402 . S
C11 N10 1.307 . S
C11 H12 0.930 . S
H12 C11 0.930 . S
C13 N14 1.334 . S
C13 C15 1.394 . S
C13 H17 0.930 . S
N14 Gd1 2.601 . S
N14 C4 1.359 . S
N14 C13 1.334 . S
C15 C13 1.394 . S
C15 C16 1.359 1_545 S
C15 H27 0.930 1_545 S
C16 C6 1.391 1_565 S
C16 C15 1.359 1_565 S
C16 H28 0.929 . S
H17 C13 0.930 . S
H18 C7 0.930 . S
H19 C36 0.930 . S
H20 C8 0.930 . S
H21 C9 0.930 . S
H22 C3 0.927 1_565 S
H23 C41 0.930 . S
H24 C32 0.930 . S
H25 C33 0.930 . S
H26 C57 0.929 . S
H27 C15 0.930 1_565 S
H28 C16 0.929 . S
H29 C58 0.930 . S
H30 C39 0.930 . S
N31 Gd0 2.661 . S
N31 C35 1.350 . S
N31 C36 1.307 . S
C32 H24 0.930 . S
C32 C33 1.355 . S
C32 C34 1.412 . S
C33 H25 0.930 . S
C33 C32 1.355 . S
C33 C36 1.402 1_655 S
C34 C32 1.412 . S
C34 C35 1.417 1_655 S
C34 C58 1.431 . S
C35 N31 1.350 . S
C35 C34 1.417 1_455 S
C35 C38 1.426 . S
C36 H19 0.930 . S
C36 N31 1.307 . S
C36 C33 1.402 1_455 S
N37 Gd0 2.601 . S
N37 C38 1.359 . S
N37 C41 1.334 . S
C38 C35 1.426 . S
C38 N37 1.359 . S
C38 C42 1.413 1_455 S
C39 H30 0.930 . S
C39 C40 1.359 1_455 S
C39 C41 1.394 . S
C40 C39 1.359 1_655 S
C40 C42 1.391 . S
C40 H43 0.929 . S
C41 H23 0.930 . S
C41 N37 1.334 . S
C41 C39 1.394 . S
C42 C38 1.413 1_655 S
C42 C40 1.391 . S
C42 C57 1.437 . S
H43 C40 0.929 . S
O44 Gd0 2.545 . S
O44 C59 1.258 . S
O45 Gd0 2.606 . S
O45 Gd1 2.362 . S
O45 C56 1.284 . S
O46 Gd1 2.324 . S
O46 C66 1.254 . S
O47 Gd0 2.429 . S
O47 C66 1.268 . S
O48 Gd0 2.545 . S
O48 C56 1.250 . S
O49 Gd0 2.412 . S
O49 C59 1.252 . S
O50 Gd1 2.545 1_565 S
O50 C68 1.258 . S
O51 Gd0 2.362 . S
O51 Gd1 2.606 . S
O51 C67 1.284 . S
O52 Gd0 2.324 . S
O52 C75 1.254 . S
O53 Gd1 2.429 . S
O53 C75 1.268 . S
O54 Gd1 2.545 1_565 S
O54 C67 1.250 1_565 S
O55 Gd1 2.412 1_565 S
O55 C68 1.252 . S
C56 O45 1.284 . S
C56 O48 1.250 . S
C57 H26 0.929 . S
C57 C42 1.437 . S
C57 C58 1.317 . S
C58 H29 0.930 . S
C58 C34 1.431 . S
C58 C57 1.317 . S
C59 Gd0 2.828 . S
C59 O44 1.258 . S
C59 O49 1.252 . S
C59 C60 1.497 . S
C60 C59 1.497 . S
C60 C61 1.395 . S
C60 C62 1.380 . S
C61 C60 1.395 . S
C61 C64 1.398 . S
C61 H76 0.930 . S
C62 C60 1.380 . S
C62 C63 1.391 . S
C62 H77 0.930 . S
C63 C62 1.391 . S
C63 C65 1.387 . S
C64 C61 1.398 . S
C64 C65 1.380 . S
C64 H78 0.930 . S
C65 C63 1.387 . S
C65 C64 1.380 . S
C65 H79 0.930 . S
C66 O46 1.254 . S
C66 O47 1.268 . S
C67 O51 1.284 . S
C67 O54 1.250 1_545 S
C68 Gd1 2.828 1_565 S
C68 O50 1.258 . S
C68 O55 1.252 . S
C68 C69 1.497 . S
C69 C68 1.497 . S
C69 C70 1.395 . S
C69 C71 1.380 . S
C70 C69 1.395 . S
C70 C73 1.398 . S
C70 H80 0.930 . S
C71 C69 1.380 . S
C71 C72 1.391 . S
C71 H81 0.930 . S
C72 C71 1.391 . S
C72 C74 1.387 . S
C73 C70 1.398 . S
C73 C74 1.380 . S
C73 H82 0.930 . S
C74 C72 1.387 . S
C74 C73 1.380 . S
C74 H83 0.930 . S
C75 O52 1.254 . S
C75 O53 1.268 . S
H76 C61 0.930 . S
H77 C62 0.930 . S
H78 C64 0.930 . S
H79 C65 0.930 . S
H80 C70 0.930 . S
H81 C71 0.930 . S
H82 C73 0.930 . S
H83 C74 0.930 . S
Gd84 N115 2.661 . S
Gd84 N121 2.601 . S
Gd84 O128 2.545 . S
Gd84 O129 2.606 . S
Gd84 O131 2.429 . S
Gd84 O132 2.545 . S
Gd84 O133 2.412 . S
Gd84 O135 2.362 . S
Gd84 O136 2.324 . S
Gd84 C143 2.828 . S
Gd85 N94 2.661 . S
Gd85 N98 2.601 . S
Gd85 O129 2.362 . S
Gd85 O130 2.324 . S
Gd85 O134 2.545 1_565 S
Gd85 O135 2.606 . S
Gd85 O137 2.429 . S
Gd85 O138 2.545 1_565 S
Gd85 O139 2.412 1_565 S
Gd85 C152 2.828 1_565 S
C86 C89 1.417 . S
C86 C91 1.431 . S
C86 C92 1.412 . S
C87 C90 1.437 . S
C87 C91 1.317 . S
C87 H106 0.927 1_565 S
C88 C89 1.426 . S
C88 C90 1.413 . S
C88 N98 1.359 . S
C89 C86 1.417 . S
C89 C88 1.426 . S
C89 N94 1.350 . S
C90 C87 1.437 . S
C90 C88 1.413 . S
C90 C100 1.391 1_565 S
C91 C86 1.431 . S
C91 C87 1.317 . S
C91 H102 0.930 . S
C92 C86 1.412 . S
C92 C93 1.355 . S
C92 H104 0.930 . S
C93 C92 1.355 . S
C93 C95 1.402 . S
C93 H105 0.930 . S
N94 Gd85 2.661 . S
N94 C89 1.350 . S
N94 C95 1.307 . S
C95 C93 1.402 . S
C95 N94 1.307 . S
C95 H96 0.930 . S
H96 C95 0.930 . S
C97 N98 1.334 . S
C97 C99 1.394 . S
C97 H101 0.930 . S
N98 Gd85 2.601 . S
N98 C88 1.359 . S
N98 C97 1.334 . S
C99 C97 1.394 . S
C99 C100 1.359 1_565 S
C99 H111 0.930 1_565 S
C100 C90 1.391 1_545 S
C100 C99 1.359 1_545 S
C100 H112 0.929 . S
H101 C97 0.930 . S
H102 C91 0.930 . S
H103 C120 0.930 . S
H104 C92 0.930 . S
H105 C93 0.930 . S
H106 C87 0.927 1_545 S
H107 C125 0.930 . S
H108 C116 0.930 . S
H109 C117 0.930 . S
H110 C141 0.929 . S
H111 C99 0.930 1_545 S
H112 C100 0.929 . S
H113 C142 0.930 . S
H114 C123 0.930 . S
N115 Gd84 2.661 . S
N115 C119 1.350 . S
N115 C120 1.307 . S
C116 H108 0.930 . S
C116 C117 1.355 . S
C116 C118 1.412 . S
C117 H109 0.930 . S
C117 C116 1.355 . S
C117 C120 1.402 1_455 S
C118 C116 1.412 . S
C118 C119 1.417 1_455 S
C118 C142 1.431 . S
C119 N115 1.350 . S
C119 C118 1.417 1_655 S
C119 C122 1.426 . S
C120 H103 0.930 . S
C120 N115 1.307 . S
C120 C117 1.402 1_655 S
N121 Gd84 2.601 . S
N121 C122 1.359 . S
N121 C125 1.334 . S
C122 C119 1.426 . S
C122 N121 1.359 . S
C122 C126 1.413 1_655 S
C123 H114 0.930 . S
C123 C124 1.359 1_655 S
C123 C125 1.394 . S
C124 C123 1.359 1_455 S
C124 C126 1.391 . S
C124 H127 0.929 . S
C125 H107 0.930 . S
C125 N121 1.334 . S
C125 C123 1.394 . S
C126 C122 1.413 1_455 S
C126 C124 1.391 . S
C126 C141 1.437 . S
H127 C124 0.929 . S
O128 Gd84 2.545 . S
O128 C143 1.258 . S
O129 Gd84 2.606 . S
O129 Gd85 2.362 . S
O129 C140 1.284 . S
O130 Gd85 2.324 . S
O130 C150 1.254 . S
O131 Gd84 2.429 . S
O131 C150 1.268 . S
O132 Gd84 2.545 . S
O132 C140 1.250 . S
O133 Gd84 2.412 . S
O133 C143 1.252 . S
O134 Gd85 2.545 1_545 S
O134 C152 1.258 . S
O135 Gd84 2.362 . S
O135 Gd85 2.606 . S
O135 C151 1.284 . S
O136 Gd84 2.324 . S
O136 C159 1.254 . S
O137 Gd85 2.429 . S
O137 C159 1.268 . S
O138 Gd85 2.545 1_545 S
O138 C151 1.250 1_545 S
O139 Gd85 2.412 1_545 S
O139 C152 1.252 . S
C140 O129 1.284 . S
C140 O132 1.250 . S
C141 H110 0.929 . S
C141 C126 1.437 . S
C141 C142 1.317 . S
C142 H113 0.930 . S
C142 C118 1.431 . S
C142 C141 1.317 . S
C143 Gd84 2.828 . S
C143 O128 1.258 . S
C143 O133 1.252 . S
C143 C144 1.497 . S
C144 C143 1.497 . S
C144 C145 1.395 . S
C144 C146 1.380 . S
C145 C144 1.395 . S
C145 C148 1.398 . S
C145 H160 0.930 . S
C146 C144 1.380 . S
C146 C147 1.391 . S
C146 H161 0.930 . S
C147 C146 1.391 . S
C147 C149 1.387 . S
C148 C145 1.398 . S
C148 C149 1.380 . S
C148 H162 0.930 . S
C149 C147 1.387 . S
C149 C148 1.380 . S
C149 H163 0.930 . S
C150 O130 1.254 . S
C150 O131 1.268 . S
C151 O135 1.284 . S
C151 O138 1.250 1_565 S
C152 Gd85 2.828 1_545 S
C152 O134 1.258 . S
C152 O139 1.252 . S
C152 C153 1.497 . S
C153 C152 1.497 . S
C153 C154 1.395 . S
C153 C155 1.380 . S
C154 C153 1.395 . S
C154 C157 1.398 . S
C154 H164 0.930 . S
C155 C153 1.380 . S
C155 C156 1.391 . S
C155 H165 0.930 . S
C156 C155 1.391 . S
C156 C158 1.387 . S
C157 C154 1.398 . S
C157 C158 1.380 . S
C157 H166 0.930 . S
C158 C156 1.387 . S
C158 C157 1.380 . S
C158 H167 0.930 . S
C159 O136 1.254 . S
C159 O137 1.268 . S
H160 C145 0.930 . S
H161 C146 0.930 . S
H162 C148 0.930 . S
H163 C149 0.930 . S
H164 C154 0.930 . S
H165 C155 0.930 . S
H166 C157 0.930 . S
H167 C158 0.930 . S
Gd168 N199 2.661 . S
Gd168 N205 2.601 . S
Gd168 O212 2.545 . S
Gd168 O213 2.606 . S
Gd168 O215 2.429 . S
Gd168 O216 2.545 . S
Gd168 O217 2.412 . S
Gd168 O219 2.362 . S
Gd168 O220 2.324 . S
Gd168 C227 2.828 . S
Gd169 N178 2.661 . S
Gd169 N182 2.601 . S
Gd169 O213 2.362 . S
Gd169 O214 2.324 . S
Gd169 O218 2.545 1_565 S
Gd169 O219 2.606 . S
Gd169 O221 2.429 . S
Gd169 O222 2.545 1_565 S
Gd169 O223 2.412 1_565 S
Gd169 C236 2.828 1_565 S
C170 C173 1.417 . S
C170 C175 1.431 . S
C170 C176 1.412 . S
C171 C174 1.437 . S
C171 C175 1.317 . S
C171 H190 0.927 1_565 S
C172 C173 1.426 . S
C172 C174 1.413 . S
C172 N182 1.359 . S
C173 C170 1.417 . S
C173 C172 1.426 . S
C173 N178 1.350 . S
C174 C171 1.437 . S
C174 C172 1.413 . S
C174 C184 1.391 1_565 S
C175 C170 1.431 . S
C175 C171 1.317 . S
C175 H186 0.930 . S
C176 C170 1.412 . S
C176 C177 1.355 . S
C176 H188 0.930 . S
C177 C176 1.355 . S
C177 C179 1.402 . S
C177 H189 0.930 . S
N178 Gd169 2.661 . S
N178 C173 1.350 . S
N178 C179 1.307 . S
C179 C177 1.402 . S
C179 N178 1.307 . S
C179 H180 0.930 . S
H180 C179 0.930 . S
C181 N182 1.334 . S
C181 C183 1.394 . S
C181 H185 0.930 . S
N182 Gd169 2.601 . S
N182 C172 1.359 . S
N182 C181 1.334 . S
C183 C181 1.394 . S
C183 C184 1.359 1_565 S
C183 H195 0.930 1_565 S
C184 C174 1.391 1_545 S
C184 C183 1.359 1_545 S
C184 H196 0.929 . S
H185 C181 0.930 . S
H186 C175 0.930 . S
H187 C204 0.930 . S
H188 C176 0.930 . S
H189 C177 0.930 . S
H190 C171 0.927 1_545 S
H191 C209 0.930 . S
H192 C200 0.930 . S
H193 C201 0.930 . S
H194 C225 0.929 . S
H195 C183 0.930 1_545 S
H196 C184 0.929 . S
H197 C226 0.930 . S
H198 C207 0.930 . S
N199 Gd168 2.661 . S
N199 C203 1.350 . S
N199 C204 1.307 . S
C200 H192 0.930 . S
C200 C201 1.355 . S
C200 C202 1.412 . S
C201 H193 0.930 . S
C201 C200 1.355 . S
C201 C204 1.402 1_655 S
C202 C200 1.412 . S
C202 C203 1.417 1_655 S
C202 C226 1.431 . S
C203 N199 1.350 . S
C203 C202 1.417 1_455 S
C203 C206 1.426 . S
C204 H187 0.930 . S
C204 N199 1.307 . S
C204 C201 1.402 1_455 S
N205 Gd168 2.601 . S
N205 C206 1.359 . S
N205 C209 1.334 . S
C206 C203 1.426 . S
C206 N205 1.359 . S
C206 C210 1.413 1_455 S
C207 H198 0.930 . S
C207 C208 1.359 1_455 S
C207 C209 1.394 . S
C208 C207 1.359 1_655 S
C208 C210 1.391 . S
C208 H211 0.929 . S
C209 H191 0.930 . S
C209 N205 1.334 . S
C209 C207 1.394 . S
C210 C206 1.413 1_655 S
C210 C208 1.391 . S
C210 C225 1.437 . S
H211 C208 0.929 . S
O212 Gd168 2.545 . S
O212 C227 1.258 . S
O213 Gd168 2.606 . S
O213 Gd169 2.362 . S
O213 C224 1.284 . S
O214 Gd169 2.324 . S
O214 C234 1.254 . S
O215 Gd168 2.429 . S
O215 C234 1.268 . S
O216 Gd168 2.545 . S
O216 C224 1.250 . S
O217 Gd168 2.412 . S
O217 C227 1.252 . S
O218 Gd169 2.545 1_545 S
O218 C236 1.258 . S
O219 Gd168 2.362 . S
O219 Gd169 2.606 . S
O219 C235 1.284 . S
O220 Gd168 2.324 . S
O220 C243 1.254 . S
O221 Gd169 2.429 . S
O221 C243 1.268 . S
O222 Gd169 2.545 1_545 S
O222 C235 1.250 1_545 S
O223 Gd169 2.412 1_545 S
O223 C236 1.252 . S
C224 O213 1.284 . S
C224 O216 1.250 . S
C225 H194 0.929 . S
C225 C210 1.437 . S
C225 C226 1.317 . S
C226 H197 0.930 . S
C226 C202 1.431 . S
C226 C225 1.317 . S
C227 Gd168 2.828 . S
C227 O212 1.258 . S
C227 O217 1.252 . S
C227 C228 1.497 . S
C228 C227 1.497 . S
C228 C229 1.395 . S
C228 C230 1.380 . S
C229 C228 1.395 . S
C229 C232 1.398 . S
C229 H244 0.930 . S
C230 C228 1.380 . S
C230 C231 1.391 . S
C230 H245 0.930 . S
C231 C230 1.391 . S
C231 C233 1.387 . S
C232 C229 1.398 . S
C232 C233 1.380 . S
C232 H246 0.930 . S
C233 C231 1.387 . S
C233 C232 1.380 . S
C233 H247 0.930 . S
C234 O214 1.254 . S
C234 O215 1.268 . S
C235 O219 1.284 . S
C235 O222 1.250 1_565 S
C236 Gd169 2.828 1_545 S
C236 O218 1.258 . S
C236 O223 1.252 . S
C236 C237 1.497 . S
C237 C236 1.497 . S
C237 C238 1.395 . S
C237 C239 1.380 . S
C238 C237 1.395 . S
C238 C241 1.398 . S
C238 H248 0.930 . S
C239 C237 1.380 . S
C239 C240 1.391 . S
C239 H249 0.930 . S
C240 C239 1.391 . S
C240 C242 1.387 . S
C241 C238 1.398 . S
C241 C242 1.380 . S
C241 H250 0.930 . S
C242 C240 1.387 . S
C242 C241 1.380 . S
C242 H251 0.930 . S
C243 O220 1.254 . S
C243 O221 1.268 . S
H244 C229 0.930 . S
H245 C230 0.930 . S
H246 C232 0.930 . S
H247 C233 0.930 . S
H248 C238 0.930 . S
H249 C239 0.930 . S
H250 C241 0.930 . S
H251 C242 0.930 . S
Gd252 N283 2.661 . S
Gd252 N289 2.601 . S
Gd252 O296 2.545 . S
Gd252 O297 2.606 . S
Gd252 O299 2.429 . S
Gd252 O300 2.545 . S
Gd252 O301 2.412 . S
Gd252 O303 2.362 . S
Gd252 O304 2.324 . S
Gd252 C311 2.828 . S
Gd253 N262 2.661 . S
Gd253 N266 2.601 . S
Gd253 O297 2.362 . S
Gd253 O298 2.324 . S
Gd253 O302 2.545 1_545 S
Gd253 O303 2.606 . S
Gd253 O305 2.429 . S
Gd253 O306 2.545 1_545 S
Gd253 O307 2.412 1_545 S
Gd253 C320 2.828 1_545 S
C254 C257 1.417 . S
C254 C259 1.431 . S
C254 C260 1.412 . S
C255 C258 1.437 . S
C255 C259 1.317 . S
C255 H274 0.927 1_545 S
C256 C257 1.426 . S
C256 C258 1.413 . S
C256 N266 1.359 . S
C257 C254 1.417 . S
C257 C256 1.426 . S
C257 N262 1.350 . S
C258 C255 1.437 . S
C258 C256 1.413 . S
C258 C268 1.391 1_545 S
C259 C254 1.431 . S
C259 C255 1.317 . S
C259 H270 0.930 . S
C260 C254 1.412 . S
C260 C261 1.355 . S
C260 H272 0.930 . S
C261 C260 1.355 . S
C261 C263 1.402 . S
C261 H273 0.930 . S
N262 Gd253 2.661 . S
N262 C257 1.350 . S
N262 C263 1.307 . S
C263 C261 1.402 . S
C263 N262 1.307 . S
C263 H264 0.930 . S
H264 C263 0.930 . S
C265 N266 1.334 . S
C265 C267 1.394 . S
C265 H269 0.930 . S
N266 Gd253 2.601 . S
N266 C256 1.359 . S
N266 C265 1.334 . S
C267 C265 1.394 . S
C267 C268 1.359 1_545 S
C267 H279 0.930 1_545 S
C268 C258 1.391 1_565 S
C268 C267 1.359 1_565 S
C268 H280 0.929 . S
H269 C265 0.930 . S
H270 C259 0.930 . S
H271 C288 0.930 . S
H272 C260 0.930 . S
H273 C261 0.930 . S
H274 C255 0.927 1_565 S
H275 C293 0.930 . S
H276 C284 0.930 . S
H277 C285 0.930 . S
H278 C309 0.929 . S
H279 C267 0.930 1_565 S
H280 C268 0.929 . S
H281 C310 0.930 . S
H282 C291 0.930 . S
N283 Gd252 2.661 . S
N283 C287 1.350 . S
N283 C288 1.307 . S
C284 H276 0.930 . S
C284 C285 1.355 . S
C284 C286 1.412 . S
C285 H277 0.930 . S
C285 C284 1.355 . S
C285 C288 1.402 1_455 S
C286 C284 1.412 . S
C286 C287 1.417 1_455 S
C286 C310 1.431 . S
C287 N283 1.350 . S
C287 C286 1.417 1_655 S
C287 C290 1.426 . S
C288 H271 0.930 . S
C288 N283 1.307 . S
C288 C285 1.402 1_655 S
N289 Gd252 2.601 . S
N289 C290 1.359 . S
N289 C293 1.334 . S
C290 C287 1.426 . S
C290 N289 1.359 . S
C290 C294 1.413 1_655 S
C291 H282 0.930 . S
C291 C292 1.359 1_655 S
C291 C293 1.394 . S
C292 C291 1.359 1_455 S
C292 C294 1.391 . S
C292 H295 0.929 . S
C293 H275 0.930 . S
C293 N289 1.334 . S
C293 C291 1.394 . S
C294 C290 1.413 1_455 S
C294 C292 1.391 . S
C294 C309 1.437 . S
H295 C292 0.929 . S
O296 Gd252 2.545 . S
O296 C311 1.258 . S
O297 Gd252 2.606 . S
O297 Gd253 2.362 . S
O297 C308 1.284 . S
O298 Gd253 2.324 . S
O298 C318 1.254 . S
O299 Gd252 2.429 . S
O299 C318 1.268 . S
O300 Gd252 2.545 . S
O300 C308 1.250 . S
O301 Gd252 2.412 . S
O301 C311 1.252 . S
O302 Gd253 2.545 1_565 S
O302 C320 1.258 . S
O303 Gd252 2.362 . S
O303 Gd253 2.606 . S
O303 C319 1.284 . S
O304 Gd252 2.324 . S
O304 C327 1.254 . S
O305 Gd253 2.429 . S
O305 C327 1.268 . S
O306 Gd253 2.545 1_565 S
O306 C319 1.250 1_565 S
O307 Gd253 2.412 1_565 S
O307 C320 1.252 . S
C308 O297 1.284 . S
C308 O300 1.250 . S
C309 H278 0.929 . S
C309 C294 1.437 . S
C309 C310 1.317 . S
C310 H281 0.930 . S
C310 C286 1.431 . S
C310 C309 1.317 . S
C311 Gd252 2.828 . S
C311 O296 1.258 . S
C311 O301 1.252 . S
C311 C312 1.497 . S
C312 C311 1.497 . S
C312 C313 1.395 . S
C312 C314 1.380 . S
C313 C312 1.395 . S
C313 C316 1.398 . S
C313 H328 0.930 . S
C314 C312 1.380 . S
C314 C315 1.391 . S
C314 H329 0.930 . S
C315 C314 1.391 . S
C315 C317 1.387 . S
C316 C313 1.398 . S
C316 C317 1.380 . S
C316 H330 0.930 . S
C317 C315 1.387 . S
C317 C316 1.380 . S
C317 H331 0.930 . S
C318 O298 1.254 . S
C318 O299 1.268 . S
C319 O303 1.284 . S
C319 O306 1.250 1_545 S
C320 Gd253 2.828 1_565 S
C320 O302 1.258 . S
C320 O307 1.252 . S
C320 C321 1.497 . S
C321 C320 1.497 . S
C321 C322 1.395 . S
C321 C323 1.380 . S
C322 C321 1.395 . S
C322 C325 1.398 . S
C322 H332 0.930 . S
C323 C321 1.380 . S
C323 C324 1.391 . S
C323 H333 0.930 . S
C324 C323 1.391 . S
C324 C326 1.387 . S
C325 C322 1.398 . S
C325 C326 1.380 . S
C325 H334 0.930 . S
C326 C324 1.387 . S
C326 C325 1.380 . S
C326 H335 0.930 . S
C327 O304 1.254 . S
C327 O305 1.268 . S
H328 C313 0.930 . S
H329 C314 0.930 . S
H330 C316 0.930 . S
H331 C317 0.930 . S
H332 C322 0.930 . S
H333 C323 0.930 . S
H334 C325 0.930 . S
H335 C326 0.930 . S
Gd336 N367 2.661 . S
Gd336 N373 2.601 . S
Gd336 O380 2.545 1_565 S
Gd336 O381 2.606 . S
Gd336 O383 2.429 . S
Gd336 O384 2.545 1_565 S
Gd336 O385 2.412 1_565 S
Gd336 O387 2.362 . S
Gd336 O388 2.324 . S
Gd336 C395 2.828 1_565 S
Gd337 N346 2.661 . S
Gd337 N350 2.601 . S
Gd337 O381 2.362 . S
Gd337 O382 2.324 . S
Gd337 O386 2.545 . S
Gd337 O387 2.606 . S
Gd337 O389 2.429 . S
Gd337 O390 2.545 . S
Gd337 O391 2.412 . S
Gd337 C404 2.828 . S
C338 C341 1.417 1_455 S
C338 C343 1.431 . S
C338 C344 1.412 . S
C339 C342 1.437 . S
C339 C343 1.317 . S
C339 H358 0.929 . S
C340 C341 1.426 . S
C340 C342 1.413 1_655 S
C340 N350 1.359 . S
C341 C338 1.417 1_655 S
C341 C340 1.426 . S
C341 N346 1.350 . S
C342 C339 1.437 . S
C342 C340 1.413 1_455 S
C342 C352 1.391 . S
C343 C338 1.431 . S
C343 C339 1.317 . S
C343 H354 0.930 . S
C344 C338 1.412 . S
C344 C345 1.355 . S
C344 H356 0.930 . S
C345 C344 1.355 . S
C345 C347 1.402 1_455 S
C345 H357 0.930 . S
N346 Gd337 2.661 . S
N346 C341 1.350 . S
N346 C347 1.307 . S
C347 C345 1.402 1_655 S
C347 N346 1.307 . S
C347 H348 0.930 . S
H348 C347 0.930 . S
C349 N350 1.334 . S
C349 C351 1.394 . S
C349 H353 0.930 . S
N350 Gd337 2.601 . S
N350 C340 1.359 . S
N350 C349 1.334 . S
C351 C349 1.394 . S
C351 C352 1.359 1_655 S
C351 H363 0.930 . S
C352 C342 1.391 . S
C352 C351 1.359 1_455 S
C352 H364 0.929 . S
H353 C349 0.930 . S
H354 C343 0.930 . S
H355 C372 0.930 . S
H356 C344 0.930 . S
H357 C345 0.930 . S
H358 C339 0.929 . S
H359 C377 0.930 . S
H360 C368 0.930 . S
H361 C369 0.930 . S
H362 C393 0.927 1_545 S
H363 C351 0.930 . S
H364 C352 0.929 . S
H365 C394 0.930 . S
H366 C375 0.930 1_545 S
N367 Gd336 2.661 . S
N367 C371 1.350 . S
N367 C372 1.307 . S
C368 H360 0.930 . S
C368 C369 1.355 . S
C368 C370 1.412 . S
C369 H361 0.930 . S
C369 C368 1.355 . S
C369 C372 1.402 . S
C370 C368 1.412 . S
C370 C371 1.417 . S
C370 C394 1.431 . S
C371 N367 1.350 . S
C371 C370 1.417 . S
C371 C374 1.426 . S
C372 H355 0.930 . S
C372 N367 1.307 . S
C372 C369 1.402 . S
N373 Gd336 2.601 . S
N373 C374 1.359 . S
N373 C377 1.334 . S
C374 C371 1.426 . S
C374 N373 1.359 . S
C374 C378 1.413 . S
C375 H366 0.930 1_565 S
C375 C376 1.359 1_565 S
C375 C377 1.394 . S
C376 C375 1.359 1_545 S
C376 C378 1.391 1_545 S
C376 H379 0.929 . S
C377 H359 0.930 . S
C377 N373 1.334 . S
C377 C375 1.394 . S
C378 C374 1.413 . S
C378 C376 1.391 1_565 S
C378 C393 1.437 . S
H379 C376 0.929 . S
O380 Gd336 2.545 1_545 S
O380 C395 1.258 . S
O381 Gd336 2.606 . S
O381 Gd337 2.362 . S
O381 C392 1.284 . S
O382 Gd337 2.324 . S
O382 C402 1.254 . S
O383 Gd336 2.429 . S
O383 C402 1.268 . S
O384 Gd336 2.545 1_545 S
O384 C392 1.250 1_545 S
O385 Gd336 2.412 1_545 S
O385 C395 1.252 . S
O386 Gd337 2.545 . S
O386 C404 1.258 . S
O387 Gd336 2.362 . S
O387 Gd337 2.606 . S
O387 C403 1.284 . S
O388 Gd336 2.324 . S
O388 C411 1.254 . S
O389 Gd337 2.429 . S
O389 C411 1.268 . S
O390 Gd337 2.545 . S
O390 C403 1.250 . S
O391 Gd337 2.412 . S
O391 C404 1.252 . S
C392 O381 1.284 . S
C392 O384 1.250 1_565 S
C393 H362 0.927 1_565 S
C393 C378 1.437 . S
C393 C394 1.317 . S
C394 H365 0.930 . S
C394 C370 1.431 . S
C394 C393 1.317 . S
C395 Gd336 2.828 1_545 S
C395 O380 1.258 . S
C395 O385 1.252 . S
C395 C396 1.497 . S
C396 C395 1.497 . S
C396 C397 1.395 . S
C396 C398 1.380 . S
C397 C396 1.395 . S
C397 C400 1.398 . S
C397 H412 0.930 . S
C398 C396 1.380 . S
C398 C399 1.391 . S
C398 H413 0.930 . S
C399 C398 1.391 . S
C399 C401 1.387 . S
C400 C397 1.398 . S
C400 C401 1.380 . S
C400 H414 0.930 . S
C401 C399 1.387 . S
C401 C400 1.380 . S
C401 H415 0.930 . S
C402 O382 1.254 . S
C402 O383 1.268 . S
C403 O387 1.284 . S
C403 O390 1.250 . S
C404 Gd337 2.828 . S
C404 O386 1.258 . S
C404 O391 1.252 . S
C404 C405 1.497 . S
C405 C404 1.497 . S
C405 C406 1.395 . S
C405 C407 1.380 . S
C406 C405 1.395 . S
C406 C409 1.398 . S
C406 H416 0.930 . S
C407 C405 1.380 . S
C407 C408 1.391 . S
C407 H417 0.930 . S
C408 C407 1.391 . S
C408 C410 1.387 . S
C409 C406 1.398 . S
C409 C410 1.380 . S
C409 H418 0.930 . S
C410 C408 1.387 . S
C410 C409 1.380 . S
C410 H419 0.930 . S
C411 O388 1.254 . S
C411 O389 1.268 . S
H412 C397 0.930 . S
H413 C398 0.930 . S
H414 C400 0.930 . S
H415 C401 0.930 . S
H416 C406 0.930 . S
H417 C407 0.930 . S
H418 C409 0.930 . S
H419 C410 0.930 . S
Gd420 N451 2.661 . S
Gd420 N457 2.601 . S
Gd420 O464 2.545 1_545 S
Gd420 O465 2.606 . S
Gd420 O467 2.429 . S
Gd420 O468 2.545 1_545 S
Gd420 O469 2.412 1_545 S
Gd420 O471 2.362 . S
Gd420 O472 2.324 . S
Gd420 C479 2.828 1_545 S
Gd421 N430 2.661 . S
Gd421 N434 2.601 . S
Gd421 O465 2.362 . S
Gd421 O466 2.324 . S
Gd421 O470 2.545 . S
Gd421 O471 2.606 . S
Gd421 O473 2.429 . S
Gd421 O474 2.545 . S
Gd421 O475 2.412 . S
Gd421 C488 2.828 . S
C422 C425 1.417 1_655 S
C422 C427 1.431 . S
C422 C428 1.412 . S
C423 C426 1.437 . S
C423 C427 1.317 . S
C423 H442 0.929 . S
C424 C425 1.426 . S
C424 C426 1.413 1_455 S
C424 N434 1.359 . S
C425 C422 1.417 1_455 S
C425 C424 1.426 . S
C425 N430 1.350 . S
C426 C423 1.437 . S
C426 C424 1.413 1_655 S
C426 C436 1.391 . S
C427 C422 1.431 . S
C427 C423 1.317 . S
C427 H438 0.930 . S
C428 C422 1.412 . S
C428 C429 1.355 . S
C428 H440 0.930 . S
C429 C428 1.355 . S
C429 C431 1.402 1_655 S
C429 H441 0.930 . S
N430 Gd421 2.661 . S
N430 C425 1.350 . S
N430 C431 1.307 . S
C431 C429 1.402 1_455 S
C431 N430 1.307 . S
C431 H432 0.930 . S
H432 C431 0.930 . S
C433 N434 1.334 . S
C433 C435 1.394 . S
C433 H437 0.930 . S
N434 Gd421 2.601 . S
N434 C424 1.359 . S
N434 C433 1.334 . S
C435 C433 1.394 . S
C435 C436 1.359 1_455 S
C435 H447 0.930 . S
C436 C426 1.391 . S
C436 C435 1.359 1_655 S
C436 H448 0.929 . S
H437 C433 0.930 . S
H438 C427 0.930 . S
H439 C456 0.930 . S
H440 C428 0.930 . S
H441 C429 0.930 . S
H442 C423 0.929 . S
H443 C461 0.930 . S
H444 C452 0.930 . S
H445 C453 0.930 . S
H446 C477 0.927 1_565 S
H447 C435 0.930 . S
H448 C436 0.929 . S
H449 C478 0.930 . S
H450 C459 0.930 1_565 S
N451 Gd420 2.661 . S
N451 C455 1.350 . S
N451 C456 1.307 . S
C452 H444 0.930 . S
C452 C453 1.355 . S
C452 C454 1.412 . S
C453 H445 0.930 . S
C453 C452 1.355 . S
C453 C456 1.402 . S
C454 C452 1.412 . S
C454 C455 1.417 . S
C454 C478 1.431 . S
C455 N451 1.350 . S
C455 C454 1.417 . S
C455 C458 1.426 . S
C456 H439 0.930 . S
C456 N451 1.307 . S
C456 C453 1.402 . S
N457 Gd420 2.601 . S
N457 C458 1.359 . S
N457 C461 1.334 . S
C458 C455 1.426 . S
C458 N457 1.359 . S
C458 C462 1.413 . S
C459 H450 0.930 1_545 S
C459 C460 1.359 1_545 S
C459 C461 1.394 . S
C460 C459 1.359 1_565 S
C460 C462 1.391 1_565 S
C460 H463 0.929 . S
C461 H443 0.930 . S
C461 N457 1.334 . S
C461 C459 1.394 . S
C462 C458 1.413 . S
C462 C460 1.391 1_545 S
C462 C477 1.437 . S
H463 C460 0.929 . S
O464 Gd420 2.545 1_565 S
O464 C479 1.258 . S
O465 Gd420 2.606 . S
O465 Gd421 2.362 . S
O465 C476 1.284 . S
O466 Gd421 2.324 . S
O466 C486 1.254 . S
O467 Gd420 2.429 . S
O467 C486 1.268 . S
O468 Gd420 2.545 1_565 S
O468 C476 1.250 1_565 S
O469 Gd420 2.412 1_565 S
O469 C479 1.252 . S
O470 Gd421 2.545 . S
O470 C488 1.258 . S
O471 Gd420 2.362 . S
O471 Gd421 2.606 . S
O471 C487 1.284 . S
O472 Gd420 2.324 . S
O472 C495 1.254 . S
O473 Gd421 2.429 . S
O473 C495 1.268 . S
O474 Gd421 2.545 . S
O474 C487 1.250 . S
O475 Gd421 2.412 . S
O475 C488 1.252 . S
C476 O465 1.284 . S
C476 O468 1.250 1_545 S
C477 H446 0.927 1_545 S
C477 C462 1.437 . S
C477 C478 1.317 . S
C478 H449 0.930 . S
C478 C454 1.431 . S
C478 C477 1.317 . S
C479 Gd420 2.828 1_565 S
C479 O464 1.258 . S
C479 O469 1.252 . S
C479 C480 1.497 . S
C480 C479 1.497 . S
C480 C481 1.395 . S
C480 C482 1.380 . S
C481 C480 1.395 . S
C481 C484 1.398 . S
C481 H496 0.930 . S
C482 C480 1.380 . S
C482 C483 1.391 . S
C482 H497 0.930 . S
C483 C482 1.391 . S
C483 C485 1.387 . S
C484 C481 1.398 . S
C484 C485 1.380 . S
C484 H498 0.930 . S
C485 C483 1.387 . S
C485 C484 1.380 . S
C485 H499 0.930 . S
C486 O466 1.254 . S
C486 O467 1.268 . S
C487 O471 1.284 . S
C487 O474 1.250 . S
C488 Gd421 2.828 . S
C488 O470 1.258 . S
C488 O475 1.252 . S
C488 C489 1.497 . S
C489 C488 1.497 . S
C489 C490 1.395 . S
C489 C491 1.380 . S
C490 C489 1.395 . S
C490 C493 1.398 . S
C490 H500 0.930 . S
C491 C489 1.380 . S
C491 C492 1.391 . S
C491 H501 0.930 . S
C492 C491 1.391 . S
C492 C494 1.387 . S
C493 C490 1.398 . S
C493 C494 1.380 . S
C493 H502 0.930 . S
C494 C492 1.387 . S
C494 C493 1.380 . S
C494 H503 0.930 . S
C495 O472 1.254 . S
C495 O473 1.268 . S
H496 C481 0.930 . S
H497 C482 0.930 . S
H498 C484 0.930 . S
H499 C485 0.930 . S
H500 C490 0.930 . S
H501 C491 0.930 . S
H502 C493 0.930 . S
H503 C494 0.930 . S
Gd504 N535 2.661 . S
Gd504 N541 2.601 . S
Gd504 O548 2.545 1_545 S
Gd504 O549 2.606 . S
Gd504 O551 2.429 . S
Gd504 O552 2.545 1_545 S
Gd504 O553 2.412 1_545 S
Gd504 O555 2.362 . S
Gd504 O556 2.324 . S
Gd504 C563 2.828 1_545 S
Gd505 N514 2.661 . S
Gd505 N518 2.601 . S
Gd505 O549 2.362 . S
Gd505 O550 2.324 . S
Gd505 O554 2.545 . S
Gd505 O555 2.606 . S
Gd505 O557 2.429 . S
Gd505 O558 2.545 . S
Gd505 O559 2.412 . S
Gd505 C572 2.828 . S
C506 C509 1.417 1_455 S
C506 C511 1.431 . S
C506 C512 1.412 . S
C507 C510 1.437 . S
C507 C511 1.317 . S
C507 H526 0.929 . S
C508 C509 1.426 . S
C508 C510 1.413 1_655 S
C508 N518 1.359 . S
C509 C506 1.417 1_655 S
C509 C508 1.426 . S
C509 N514 1.350 . S
C510 C507 1.437 . S
C510 C508 1.413 1_455 S
C510 C520 1.391 . S
C511 C506 1.431 . S
C511 C507 1.317 . S
C511 H522 0.930 . S
C512 C506 1.412 . S
C512 C513 1.355 . S
C512 H524 0.930 . S
C513 C512 1.355 . S
C513 C515 1.402 1_455 S
C513 H525 0.930 . S
N514 Gd505 2.661 . S
N514 C509 1.350 . S
N514 C515 1.307 . S
C515 C513 1.402 1_655 S
C515 N514 1.307 . S
C515 H516 0.930 . S
H516 C515 0.930 . S
C517 N518 1.334 . S
C517 C519 1.394 . S
C517 H521 0.930 . S
N518 Gd505 2.601 . S
N518 C508 1.359 . S
N518 C517 1.334 . S
C519 C517 1.394 . S
C519 C520 1.359 1_655 S
C519 H531 0.930 . S
C520 C510 1.391 . S
C520 C519 1.359 1_455 S
C520 H532 0.929 . S
H521 C517 0.930 . S
H522 C511 0.930 . S
H523 C540 0.930 . S
H524 C512 0.930 . S
H525 C513 0.930 . S
H526 C507 0.929 . S
H527 C545 0.930 . S
H528 C536 0.930 . S
H529 C537 0.930 . S
H530 C561 0.927 1_565 S
H531 C519 0.930 . S
H532 C520 0.929 . S
H533 C562 0.930 . S
H534 C543 0.930 1_565 S
N535 Gd504 2.661 . S
N535 C539 1.350 . S
N535 C540 1.307 . S
C536 H528 0.930 . S
C536 C537 1.355 . S
C536 C538 1.412 . S
C537 H529 0.930 . S
C537 C536 1.355 . S
C537 C540 1.402 . S
C538 C536 1.412 . S
C538 C539 1.417 . S
C538 C562 1.431 . S
C539 N535 1.350 . S
C539 C538 1.417 . S
C539 C542 1.426 . S
C540 H523 0.930 . S
C540 N535 1.307 . S
C540 C537 1.402 . S
N541 Gd504 2.601 . S
N541 C542 1.359 . S
N541 C545 1.334 . S
C542 C539 1.426 . S
C542 N541 1.359 . S
C542 C546 1.413 . S
C543 H534 0.930 1_545 S
C543 C544 1.359 1_545 S
C543 C545 1.394 . S
C544 C543 1.359 1_565 S
C544 C546 1.391 1_565 S
C544 H547 0.929 . S
C545 H527 0.930 . S
C545 N541 1.334 . S
C545 C543 1.394 . S
C546 C542 1.413 . S
C546 C544 1.391 1_545 S
C546 C561 1.437 . S
H547 C544 0.929 . S
O548 Gd504 2.545 1_565 S
O548 C563 1.258 . S
O549 Gd504 2.606 . S
O549 Gd505 2.362 . S
O549 C560 1.284 . S
O550 Gd505 2.324 . S
O550 C570 1.254 . S
O551 Gd504 2.429 . S
O551 C570 1.268 . S
O552 Gd504 2.545 1_565 S
O552 C560 1.250 1_565 S
O553 Gd504 2.412 1_565 S
O553 C563 1.252 . S
O554 Gd505 2.545 . S
O554 C572 1.258 . S
O555 Gd504 2.362 . S
O555 Gd505 2.606 . S
O555 C571 1.284 . S
O556 Gd504 2.324 . S
O556 C579 1.254 . S
O557 Gd505 2.429 . S
O557 C579 1.268 . S
O558 Gd505 2.545 . S
O558 C571 1.250 . S
O559 Gd505 2.412 . S
O559 C572 1.252 . S
C560 O549 1.284 . S
C560 O552 1.250 1_545 S
C561 H530 0.927 1_545 S
C561 C546 1.437 . S
C561 C562 1.317 . S
C562 H533 0.930 . S
C562 C538 1.431 . S
C562 C561 1.317 . S
C563 Gd504 2.828 1_565 S
C563 O548 1.258 . S
C563 O553 1.252 . S
C563 C564 1.497 . S
C564 C563 1.497 . S
C564 C565 1.395 . S
C564 C566 1.380 . S
C565 C564 1.395 . S
C565 C568 1.398 . S
C565 H580 0.930 . S
C566 C564 1.380 . S
C566 C567 1.391 . S
C566 H581 0.930 . S
C567 C566 1.391 . S
C567 C569 1.387 . S
C568 C565 1.398 . S
C568 C569 1.380 . S
C568 H582 0.930 . S
C569 C567 1.387 . S
C569 C568 1.380 . S
C569 H583 0.930 . S
C570 O550 1.254 . S
C570 O551 1.268 . S
C571 O555 1.284 . S
C571 O558 1.250 . S
C572 Gd505 2.828 . S
C572 O554 1.258 . S
C572 O559 1.252 . S
C572 C573 1.497 . S
C573 C572 1.497 . S
C573 C574 1.395 . S
C573 C575 1.380 . S
C574 C573 1.395 . S
C574 C577 1.398 . S
C574 H584 0.930 . S
C575 C573 1.380 . S
C575 C576 1.391 . S
C575 H585 0.930 . S
C576 C575 1.391 . S
C576 C578 1.387 . S
C577 C574 1.398 . S
C577 C578 1.380 . S
C577 H586 0.930 . S
C578 C576 1.387 . S
C578 C577 1.380 . S
C578 H587 0.930 . S
C579 O556 1.254 . S
C579 O557 1.268 . S
H580 C565 0.930 . S
H581 C566 0.930 . S
H582 C568 0.930 . S
H583 C569 0.930 . S
H584 C574 0.930 . S
H585 C575 0.930 . S
H586 C577 0.930 . S
H587 C578 0.930 . S
Gd588 N619 2.661 . S
Gd588 N625 2.601 . S
Gd588 O632 2.545 1_565 S
Gd588 O633 2.606 . S
Gd588 O635 2.429 . S
Gd588 O636 2.545 1_565 S
Gd588 O637 2.412 1_565 S
Gd588 O639 2.362 . S
Gd588 O640 2.324 . S
Gd588 C647 2.828 1_565 S
Gd589 N598 2.661 . S
Gd589 N602 2.601 . S
Gd589 O633 2.362 . S
Gd589 O634 2.324 . S
Gd589 O638 2.545 . S
Gd589 O639 2.606 . S
Gd589 O641 2.429 . S
Gd589 O642 2.545 . S
Gd589 O643 2.412 . S
Gd589 C656 2.828 . S
C590 C593 1.417 1_655 S
C590 C595 1.431 . S
C590 C596 1.412 . S
C591 C594 1.437 . S
C591 C595 1.317 . S
C591 H610 0.929 . S
C592 C593 1.426 . S
C592 C594 1.413 1_455 S
C592 N602 1.359 . S
C593 C590 1.417 1_455 S
C593 C592 1.426 . S
C593 N598 1.350 . S
C594 C591 1.437 . S
C594 C592 1.413 1_655 S
C594 C604 1.391 . S
C595 C590 1.431 . S
C595 C591 1.317 . S
C595 H606 0.930 . S
C596 C590 1.412 . S
C596 C597 1.355 . S
C596 H608 0.930 . S
C597 C596 1.355 . S
C597 C599 1.402 1_655 S
C597 H609 0.930 . S
N598 Gd589 2.661 . S
N598 C593 1.350 . S
N598 C599 1.307 . S
C599 C597 1.402 1_455 S
C599 N598 1.307 . S
C599 H600 0.930 . S
H600 C599 0.930 . S
C601 N602 1.334 . S
C601 C603 1.394 . S
C601 H605 0.930 . S
N602 Gd589 2.601 . S
N602 C592 1.359 . S
N602 C601 1.334 . S
C603 C601 1.394 . S
C603 C604 1.359 1_455 S
C603 H615 0.930 . S
C604 C594 1.391 . S
C604 C603 1.359 1_655 S
C604 H616 0.929 . S
H605 C601 0.930 . S
H606 C595 0.930 . S
H607 C624 0.930 . S
H608 C596 0.930 . S
H609 C597 0.930 . S
H610 C591 0.929 . S
H611 C629 0.930 . S
H612 C620 0.930 . S
H613 C621 0.930 . S
H614 C645 0.927 1_545 S
H615 C603 0.930 . S
H616 C604 0.929 . S
H617 C646 0.930 . S
H618 C627 0.930 1_545 S
N619 Gd588 2.661 . S
N619 C623 1.350 . S
N619 C624 1.307 . S
C620 H612 0.930 . S
C620 C621 1.355 . S
C620 C622 1.412 . S
C621 H613 0.930 . S
C621 C620 1.355 . S
C621 C624 1.402 . S
C622 C620 1.412 . S
C622 C623 1.417 . S
C622 C646 1.431 . S
C623 N619 1.350 . S
C623 C622 1.417 . S
C623 C626 1.426 . S
C624 H607 0.930 . S
C624 N619 1.307 . S
C624 C621 1.402 . S
N625 Gd588 2.601 . S
N625 C626 1.359 . S
N625 C629 1.334 . S
C626 C623 1.426 . S
C626 N625 1.359 . S
C626 C630 1.413 . S
C627 H618 0.930 1_565 S
C627 C628 1.359 1_565 S
C627 C629 1.394 . S
C628 C627 1.359 1_545 S
C628 C630 1.391 1_545 S
C628 H631 0.929 . S
C629 H611 0.930 . S
C629 N625 1.334 . S
C629 C627 1.394 . S
C630 C626 1.413 . S
C630 C628 1.391 1_565 S
C630 C645 1.437 . S
H631 C628 0.929 . S
O632 Gd588 2.545 1_545 S
O632 C647 1.258 . S
O633 Gd588 2.606 . S
O633 Gd589 2.362 . S
O633 C644 1.284 . S
O634 Gd589 2.324 . S
O634 C654 1.254 . S
O635 Gd588 2.429 . S
O635 C654 1.268 . S
O636 Gd588 2.545 1_545 S
O636 C644 1.250 1_545 S
O637 Gd588 2.412 1_545 S
O637 C647 1.252 . S
O638 Gd589 2.545 . S
O638 C656 1.258 . S
O639 Gd588 2.362 . S
O639 Gd589 2.606 . S
O639 C655 1.284 . S
O640 Gd588 2.324 . S
O640 C663 1.254 . S
O641 Gd589 2.429 . S
O641 C663 1.268 . S
O642 Gd589 2.545 . S
O642 C655 1.250 . S
O643 Gd589 2.412 . S
O643 C656 1.252 . S
C644 O633 1.284 . S
C644 O636 1.250 1_565 S
C645 H614 0.927 1_565 S
C645 C630 1.437 . S
C645 C646 1.317 . S
C646 H617 0.930 . S
C646 C622 1.431 . S
C646 C645 1.317 . S
C647 Gd588 2.828 1_545 S
C647 O632 1.258 . S
C647 O637 1.252 . S
C647 C648 1.497 . S
C648 C647 1.497 . S
C648 C649 1.395 . S
C648 C650 1.380 . S
C649 C648 1.395 . S
C649 C652 1.398 . S
C649 H664 0.930 . S
C650 C648 1.380 . S
C650 C651 1.391 . S
C650 H665 0.930 . S
C651 C650 1.391 . S
C651 C653 1.387 . S
C652 C649 1.398 . S
C652 C653 1.380 . S
C652 H666 0.930 . S
C653 C651 1.387 . S
C653 C652 1.380 . S
C653 H667 0.930 . S
C654 O634 1.254 . S
C654 O635 1.268 . S
C655 O639 1.284 . S
C655 O642 1.250 . S
C656 Gd589 2.828 . S
C656 O638 1.258 . S
C656 O643 1.252 . S
C656 C657 1.497 . S
C657 C656 1.497 . S
C657 C658 1.395 . S
C657 C659 1.380 . S
C658 C657 1.395 . S
C658 C661 1.398 . S
C658 H668 0.930 . S
C659 C657 1.380 . S
C659 C660 1.391 . S
C659 H669 0.930 . S
C660 C659 1.391 . S
C660 C662 1.387 . S
C661 C658 1.398 . S
C661 C662 1.380 . S
C661 H670 0.930 . S
C662 C660 1.387 . S
C662 C661 1.380 . S
C662 H671 0.930 . S
C663 O640 1.254 . S
C663 O641 1.268 . S
H664 C649 0.930 . S
H665 C650 0.930 . S
H666 C652 0.930 . S
H667 C653 0.930 . S
H668 C658 0.930 . S
H669 C659 0.930 . S
H670 C661 0.930 . S
H671 C662 0.930 . S
Gd672 N703 2.661 . S
Gd672 N709 2.601 . S
Gd672 O716 2.545 . S
Gd672 O717 2.606 . S
Gd672 O719 2.429 . S
Gd672 O720 2.545 . S
Gd672 O721 2.412 . S
Gd672 O723 2.362 . S
Gd672 O724 2.324 . S
Gd672 C731 2.828 . S
Gd673 N682 2.661 . S
Gd673 N686 2.601 . S
Gd673 O717 2.362 . S
Gd673 O718 2.324 . S
Gd673 O722 2.545 . S
Gd673 O723 2.606 . S
Gd673 O725 2.429 . S
Gd673 O726 2.545 . S
Gd673 O727 2.412 . S
Gd673 C740 2.828 . S
C674 C677 1.417 . S
C674 C679 1.431 . S
C674 C680 1.412 . S
C675 C678 1.437 . S
C675 C679 1.317 . S
C675 H694 0.929 . S
C676 C677 1.426 . S
C676 C678 1.413 . S
C676 N686 1.359 . S
C677 C674 1.417 . S
C677 C676 1.426 . S
C677 N682 1.350 . S
C678 C675 1.437 . S
C678 C676 1.413 . S
C678 C688 1.391 . S
C679 C674 1.431 . S
C679 C675 1.317 . S
C679 H690 0.930 . S
C680 C674 1.412 . S
C680 C681 1.355 . S
C680 H692 0.930 . S
C681 C680 1.355 . S
C681 C683 1.402 . S
C681 H693 0.930 . S
N682 Gd673 2.661 . S
N682 C677 1.350 . S
N682 C683 1.307 . S
C683 C681 1.402 . S
C683 N682 1.307 . S
C683 H684 0.930 . S
H684 C683 0.930 . S
C685 N686 1.334 . S
C685 C687 1.394 . S
C685 H689 0.930 . S
N686 Gd673 2.601 . S
N686 C676 1.359 . S
N686 C685 1.334 . S
C687 C685 1.394 . S
C687 C688 1.359 . S
C687 H699 0.930 . S
C688 C678 1.391 . S
C688 C687 1.359 . S
C688 H700 0.929 . S
H689 C685 0.930 . S
H690 C679 0.930 . S
H691 C708 0.930 . S
H692 C680 0.930 . S
H693 C681 0.930 . S
H694 C675 0.929 . S
H695 C713 0.930 . S
H696 C704 0.930 . S
H697 C705 0.930 . S
H698 C729 0.929 . S
H699 C687 0.930 . S
H700 C688 0.929 . S
H701 C730 0.930 . S
H702 C711 0.930 . S
N703 Gd672 2.661 . S
N703 C707 1.350 . S
N703 C708 1.307 . S
C704 H696 0.930 . S
C704 C705 1.355 . S
C704 C706 1.412 . S
C705 H697 0.930 . S
C705 C704 1.355 . S
C705 C708 1.402 . S
C706 C704 1.412 . S
C706 C707 1.417 . S
C706 C730 1.431 . S
C707 N703 1.350 . S
C707 C706 1.417 . S
C707 C710 1.426 . S
C708 H691 0.930 . S
C708 N703 1.307 . S
C708 C705 1.402 . S
N709 Gd672 2.601 . S
N709 C710 1.359 . S
N709 C713 1.334 . S
C710 C707 1.426 . S
C710 N709 1.359 . S
C710 C714 1.413 . S
C711 H702 0.930 . S
C711 C712 1.359 . S
C711 C713 1.394 . S
C712 C711 1.359 . S
C712 C714 1.391 . S
C712 H715 0.929 . S
C713 H695 0.930 . S
C713 N709 1.334 . S
C713 C711 1.394 . S
C714 C710 1.413 . S
C714 C712 1.391 . S
C714 C729 1.437 . S
H715 C712 0.929 . S
O716 Gd672 2.545 . S
O716 C731 1.258 . S
O717 Gd672 2.606 . S
O717 Gd673 2.362 . S
O717 C728 1.284 . S
O718 Gd673 2.324 . S
O718 C738 1.254 . S
O719 Gd672 2.429 . S
O719 C738 1.268 . S
O720 Gd672 2.545 . S
O720 C728 1.250 . S
O721 Gd672 2.412 . S
O721 C731 1.252 . S
O722 Gd673 2.545 . S
O722 C740 1.258 . S
O723 Gd672 2.362 . S
O723 Gd673 2.606 . S
O723 C739 1.284 . S
O724 Gd672 2.324 . S
O724 C747 1.254 . S
O725 Gd673 2.429 . S
O725 C747 1.268 . S
O726 Gd673 2.545 . S
O726 C739 1.250 . S
O727 Gd673 2.412 . S
O727 C740 1.252 . S
C728 O717 1.284 . S
C728 O720 1.250 . S
C729 H698 0.929 . S
C729 C714 1.437 . S
C729 C730 1.317 . S
C730 H701 0.930 . S
C730 C706 1.431 . S
C730 C729 1.317 . S
C731 Gd672 2.828 . S
C731 O716 1.258 . S
C731 O721 1.252 . S
C731 C732 1.497 . S
C732 C731 1.497 . S
C732 C733 1.395 . S
C732 C734 1.380 . S
C733 C732 1.395 . S
C733 C736 1.398 1_565 S
C733 H748 0.930 . S
C734 C732 1.380 . S
C734 C735 1.391 1_565 S
C734 H749 0.930 . S
C735 C734 1.391 1_545 S
C735 C737 1.387 . S
C736 C733 1.398 1_545 S
C736 C737 1.380 . S
C736 H750 0.930 . S
C737 C735 1.387 . S
C737 C736 1.380 . S
C737 H751 0.930 . S
C738 O718 1.254 . S
C738 O719 1.268 . S
C739 O723 1.284 . S
C739 O726 1.250 . S
C740 Gd673 2.828 . S
C740 O722 1.258 . S
C740 O727 1.252 . S
C740 C741 1.497 . S
C741 C740 1.497 . S
C741 C742 1.395 . S
C741 C743 1.380 . S
C742 C741 1.395 . S
C742 C745 1.398 . S
C742 H752 0.930 . S
C743 C741 1.380 . S
C743 C744 1.391 . S
C743 H753 0.930 . S
C744 C743 1.391 . S
C744 C746 1.387 . S
C745 C742 1.398 . S
C745 C746 1.380 . S
C745 H754 0.930 . S
C746 C744 1.387 . S
C746 C745 1.380 . S
C746 H755 0.930 . S
C747 O724 1.254 . S
C747 O725 1.268 . S
H748 C733 0.930 . S
H749 C734 0.930 . S
H750 C736 0.930 . S
H751 C737 0.930 . S
H752 C742 0.930 . S
H753 C743 0.930 . S
H754 C745 0.930 . S
H755 C746 0.930 . S
Gd756 N787 2.661 . S
Gd756 N793 2.601 . S
Gd756 O800 2.545 . S
Gd756 O801 2.606 . S
Gd756 O803 2.429 . S
Gd756 O804 2.545 . S
Gd756 O805 2.412 . S
Gd756 O807 2.362 . S
Gd756 O808 2.324 . S
Gd756 C815 2.828 . S
Gd757 N766 2.661 . S
Gd757 N770 2.601 . S
Gd757 O801 2.362 . S
Gd757 O802 2.324 . S
Gd757 O806 2.545 . S
Gd757 O807 2.606 . S
Gd757 O809 2.429 . S
Gd757 O810 2.545 . S
Gd757 O811 2.412 . S
Gd757 C824 2.828 . S
C758 C761 1.417 . S
C758 C763 1.431 . S
C758 C764 1.412 . S
C759 C762 1.437 . S
C759 C763 1.317 . S
C759 H778 0.929 . S
C760 C761 1.426 . S
C760 C762 1.413 . S
C760 N770 1.359 . S
C761 C758 1.417 . S
C761 C760 1.426 . S
C761 N766 1.350 . S
C762 C759 1.437 . S
C762 C760 1.413 . S
C762 C772 1.391 . S
C763 C758 1.431 . S
C763 C759 1.317 . S
C763 H774 0.930 . S
C764 C758 1.412 . S
C764 C765 1.355 . S
C764 H776 0.930 . S
C765 C764 1.355 . S
C765 C767 1.402 . S
C765 H777 0.930 . S
N766 Gd757 2.661 . S
N766 C761 1.350 . S
N766 C767 1.307 . S
C767 C765 1.402 . S
C767 N766 1.307 . S
C767 H768 0.930 . S
H768 C767 0.930 . S
C769 N770 1.334 . S
C769 C771 1.394 . S
C769 H773 0.930 . S
N770 Gd757 2.601 . S
N770 C760 1.359 . S
N770 C769 1.334 . S
C771 C769 1.394 . S
C771 C772 1.359 . S
C771 H783 0.930 . S
C772 C762 1.391 . S
C772 C771 1.359 . S
C772 H784 0.929 . S
H773 C769 0.930 . S
H774 C763 0.930 . S
H775 C792 0.930 . S
H776 C764 0.930 . S
H777 C765 0.930 . S
H778 C759 0.929 . S
H779 C797 0.930 . S
H780 C788 0.930 . S
H781 C789 0.930 . S
H782 C813 0.929 . S
H783 C771 0.930 . S
H784 C772 0.929 . S
H785 C814 0.930 . S
H786 C795 0.930 . S
N787 Gd756 2.661 . S
N787 C791 1.350 . S
N787 C792 1.307 . S
C788 H780 0.930 . S
C788 C789 1.355 . S
C788 C790 1.412 . S
C789 H781 0.930 . S
C789 C788 1.355 . S
C789 C792 1.402 . S
C790 C788 1.412 . S
C790 C791 1.417 . S
C790 C814 1.431 . S
C791 N787 1.350 . S
C791 C790 1.417 . S
C791 C794 1.426 . S
C792 H775 0.930 . S
C792 N787 1.307 . S
C792 C789 1.402 . S
N793 Gd756 2.601 . S
N793 C794 1.359 . S
N793 C797 1.334 . S
C794 C791 1.426 . S
C794 N793 1.359 . S
C794 C798 1.413 . S
C795 H786 0.930 . S
C795 C796 1.359 . S
C795 C797 1.394 . S
C796 C795 1.359 . S
C796 C798 1.391 . S
C796 H799 0.929 . S
C797 H779 0.930 . S
C797 N793 1.334 . S
C797 C795 1.394 . S
C798 C794 1.413 . S
C798 C796 1.391 . S
C798 C813 1.437 . S
H799 C796 0.929 . S
O800 Gd756 2.545 . S
O800 C815 1.258 . S
O801 Gd756 2.606 . S
O801 Gd757 2.362 . S
O801 C812 1.284 . S
O802 Gd757 2.324 . S
O802 C822 1.254 . S
O803 Gd756 2.429 . S
O803 C822 1.268 . S
O804 Gd756 2.545 . S
O804 C812 1.250 . S
O805 Gd756 2.412 . S
O805 C815 1.252 . S
O806 Gd757 2.545 . S
O806 C824 1.258 . S
O807 Gd756 2.362 . S
O807 Gd757 2.606 . S
O807 C823 1.284 . S
O808 Gd756 2.324 . S
O808 C831 1.254 . S
O809 Gd757 2.429 . S
O809 C831 1.268 . S
O810 Gd757 2.545 . S
O810 C823 1.250 . S
O811 Gd757 2.412 . S
O811 C824 1.252 . S
C812 O801 1.284 . S
C812 O804 1.250 . S
C813 H782 0.929 . S
C813 C798 1.437 . S
C813 C814 1.317 . S
C814 H785 0.930 . S
C814 C790 1.431 . S
C814 C813 1.317 . S
C815 Gd756 2.828 . S
C815 O800 1.258 . S
C815 O805 1.252 . S
C815 C816 1.497 . S
C816 C815 1.497 . S
C816 C817 1.395 . S
C816 C818 1.380 . S
C817 C816 1.395 . S
C817 C820 1.398 1_545 S
C817 H832 0.930 . S
C818 C816 1.380 . S
C818 C819 1.391 1_545 S
C818 H833 0.930 . S
C819 C818 1.391 1_565 S
C819 C821 1.387 . S
C820 C817 1.398 1_565 S
C820 C821 1.380 . S
C820 H834 0.930 . S
C821 C819 1.387 . S
C821 C820 1.380 . S
C821 H835 0.930 . S
C822 O802 1.254 . S
C822 O803 1.268 . S
C823 O807 1.284 . S
C823 O810 1.250 . S
C824 Gd757 2.828 . S
C824 O806 1.258 . S
C824 O811 1.252 . S
C824 C825 1.497 . S
C825 C824 1.497 . S
C825 C826 1.395 . S
C825 C827 1.380 . S
C826 C825 1.395 . S
C826 C829 1.398 . S
C826 H836 0.930 . S
C827 C825 1.380 . S
C827 C828 1.391 . S
C827 H837 0.930 . S
C828 C827 1.391 . S
C828 C830 1.387 . S
C829 C826 1.398 . S
C829 C830 1.380 . S
C829 H838 0.930 . S
C830 C828 1.387 . S
C830 C829 1.380 . S
C830 H839 0.930 . S
C831 O808 1.254 . S
C831 O809 1.268 . S
H832 C817 0.930 . S
H833 C818 0.930 . S
H834 C820 0.930 . S
H835 C821 0.930 . S
H836 C826 0.930 . S
H837 C827 0.930 . S
H838 C829 0.930 . S
H839 C830 0.930 . S
Gd840 N871 2.661 . S
Gd840 N877 2.601 . S
Gd840 O884 2.545 . S
Gd840 O885 2.606 . S
Gd840 O887 2.429 . S
Gd840 O888 2.545 . S
Gd840 O889 2.412 . S
Gd840 O891 2.362 . S
Gd840 O892 2.324 . S
Gd840 C899 2.828 . S
Gd841 N850 2.661 . S
Gd841 N854 2.601 . S
Gd841 O885 2.362 . S
Gd841 O886 2.324 . S
Gd841 O890 2.545 . S
Gd841 O891 2.606 . S
Gd841 O893 2.429 . S
Gd841 O894 2.545 . S
Gd841 O895 2.412 . S
Gd841 C908 2.828 . S
C842 C845 1.417 . S
C842 C847 1.431 . S
C842 C848 1.412 . S
C843 C846 1.437 . S
C843 C847 1.317 . S
C843 H862 0.929 . S
C844 C845 1.426 . S
C844 C846 1.413 . S
C844 N854 1.359 . S
C845 C842 1.417 . S
C845 C844 1.426 . S
C845 N850 1.350 . S
C846 C843 1.437 . S
C846 C844 1.413 . S
C846 C856 1.391 . S
C847 C842 1.431 . S
C847 C843 1.317 . S
C847 H858 0.930 . S
C848 C842 1.412 . S
C848 C849 1.355 . S
C848 H860 0.930 . S
C849 C848 1.355 . S
C849 C851 1.402 . S
C849 H861 0.930 . S
N850 Gd841 2.661 . S
N850 C845 1.350 . S
N850 C851 1.307 . S
C851 C849 1.402 . S
C851 N850 1.307 . S
C851 H852 0.930 . S
H852 C851 0.930 . S
C853 N854 1.334 . S
C853 C855 1.394 . S
C853 H857 0.930 . S
N854 Gd841 2.601 . S
N854 C844 1.359 . S
N854 C853 1.334 . S
C855 C853 1.394 . S
C855 C856 1.359 . S
C855 H867 0.930 . S
C856 C846 1.391 . S
C856 C855 1.359 . S
C856 H868 0.929 . S
H857 C853 0.930 . S
H858 C847 0.930 . S
H859 C876 0.930 . S
H860 C848 0.930 . S
H861 C849 0.930 . S
H862 C843 0.929 . S
H863 C881 0.930 . S
H864 C872 0.930 . S
H865 C873 0.930 . S
H866 C897 0.929 . S
H867 C855 0.930 . S
H868 C856 0.929 . S
H869 C898 0.930 . S
H870 C879 0.930 . S
N871 Gd840 2.661 . S
N871 C875 1.350 . S
N871 C876 1.307 . S
C872 H864 0.930 . S
C872 C873 1.355 . S
C872 C874 1.412 . S
C873 H865 0.930 . S
C873 C872 1.355 . S
C873 C876 1.402 . S
C874 C872 1.412 . S
C874 C875 1.417 . S
C874 C898 1.431 . S
C875 N871 1.350 . S
C875 C874 1.417 . S
C875 C878 1.426 . S
C876 H859 0.930 . S
C876 N871 1.307 . S
C876 C873 1.402 . S
N877 Gd840 2.601 . S
N877 C878 1.359 . S
N877 C881 1.334 . S
C878 C875 1.426 . S
C878 N877 1.359 . S
C878 C882 1.413 . S
C879 H870 0.930 . S
C879 C880 1.359 . S
C879 C881 1.394 . S
C880 C879 1.359 . S
C880 C882 1.391 . S
C880 H883 0.929 . S
C881 H863 0.930 . S
C881 N877 1.334 . S
C881 C879 1.394 . S
C882 C878 1.413 . S
C882 C880 1.391 . S
C882 C897 1.437 . S
H883 C880 0.929 . S
O884 Gd840 2.545 . S
O884 C899 1.258 . S
O885 Gd840 2.606 . S
O885 Gd841 2.362 . S
O885 C896 1.284 . S
O886 Gd841 2.324 . S
O886 C906 1.254 . S
O887 Gd840 2.429 . S
O887 C906 1.268 . S
O888 Gd840 2.545 . S
O888 C896 1.250 . S
O889 Gd840 2.412 . S
O889 C899 1.252 . S
O890 Gd841 2.545 . S
O890 C908 1.258 . S
O891 Gd840 2.362 . S
O891 Gd841 2.606 . S
O891 C907 1.284 . S
O892 Gd840 2.324 . S
O892 C915 1.254 . S
O893 Gd841 2.429 . S
O893 C915 1.268 . S
O894 Gd841 2.545 . S
O894 C907 1.250 . S
O895 Gd841 2.412 . S
O895 C908 1.252 . S
C896 O885 1.284 . S
C896 O888 1.250 . S
C897 H866 0.929 . S
C897 C882 1.437 . S
C897 C898 1.317 . S
C898 H869 0.930 . S
C898 C874 1.431 . S
C898 C897 1.317 . S
C899 Gd840 2.828 . S
C899 O884 1.258 . S
C899 O889 1.252 . S
C899 C900 1.497 . S
C900 C899 1.497 . S
C900 C901 1.395 . S
C900 C902 1.380 . S
C901 C900 1.395 . S
C901 C904 1.398 1_545 S
C901 H916 0.930 . S
C902 C900 1.380 . S
C902 C903 1.391 1_545 S
C902 H917 0.930 . S
C903 C902 1.391 1_565 S
C903 C905 1.387 . S
C904 C901 1.398 1_565 S
C904 C905 1.380 . S
C904 H918 0.930 . S
C905 C903 1.387 . S
C905 C904 1.380 . S
C905 H919 0.930 . S
C906 O886 1.254 . S
C906 O887 1.268 . S
C907 O891 1.284 . S
C907 O894 1.250 . S
C908 Gd841 2.828 . S
C908 O890 1.258 . S
C908 O895 1.252 . S
C908 C909 1.497 . S
C909 C908 1.497 . S
C909 C910 1.395 . S
C909 C911 1.380 . S
C910 C909 1.395 . S
C910 C913 1.398 . S
C910 H920 0.930 . S
C911 C909 1.380 . S
C911 C912 1.391 . S
C911 H921 0.930 . S
C912 C911 1.391 . S
C912 C914 1.387 . S
C913 C910 1.398 . S
C913 C914 1.380 . S
C913 H922 0.930 . S
C914 C912 1.387 . S
C914 C913 1.380 . S
C914 H923 0.930 . S
C915 O892 1.254 . S
C915 O893 1.268 . S
H916 C901 0.930 . S
H917 C902 0.930 . S
H918 C904 0.930 . S
H919 C905 0.930 . S
H920 C910 0.930 . S
H921 C911 0.930 . S
H922 C913 0.930 . S
H923 C914 0.930 . S
Gd924 N955 2.661 . S
Gd924 N961 2.601 . S
Gd924 O968 2.545 . S
Gd924 O969 2.606 . S
Gd924 O971 2.429 . S
Gd924 O972 2.545 . S
Gd924 O973 2.412 . S
Gd924 O975 2.362 . S
Gd924 O976 2.324 . S
Gd924 C983 2.828 . S
Gd925 N934 2.661 . S
Gd925 N938 2.601 . S
Gd925 O969 2.362 . S
Gd925 O970 2.324 . S
Gd925 O974 2.545 . S
Gd925 O975 2.606 . S
Gd925 O977 2.429 . S
Gd925 O978 2.545 . S
Gd925 O979 2.412 . S
Gd925 C992 2.828 . S
C926 C929 1.417 . S
C926 C931 1.431 . S
C926 C932 1.412 . S
C927 C930 1.437 . S
C927 C931 1.317 . S
C927 H946 0.929 . S
C928 C929 1.426 . S
C928 C930 1.413 . S
C928 N938 1.359 . S
C929 C926 1.417 . S
C929 C928 1.426 . S
C929 N934 1.350 . S
C930 C927 1.437 . S
C930 C928 1.413 . S
C930 C940 1.391 . S
C931 C926 1.431 . S
C931 C927 1.317 . S
C931 H942 0.930 . S
C932 C926 1.412 . S
C932 C933 1.355 . S
C932 H944 0.930 . S
C933 C932 1.355 . S
C933 C935 1.402 . S
C933 H945 0.930 . S
N934 Gd925 2.661 . S
N934 C929 1.350 . S
N934 C935 1.307 . S
C935 C933 1.402 . S
C935 N934 1.307 . S
C935 H936 0.930 . S
H936 C935 0.930 . S
C937 N938 1.334 . S
C937 C939 1.394 . S
C937 H941 0.930 . S
N938 Gd925 2.601 . S
N938 C928 1.359 . S
N938 C937 1.334 . S
C939 C937 1.394 . S
C939 C940 1.359 . S
C939 H951 0.930 . S
C940 C930 1.391 . S
C940 C939 1.359 . S
C940 H952 0.929 . S
H941 C937 0.930 . S
H942 C931 0.930 . S
H943 C960 0.930 . S
H944 C932 0.930 . S
H945 C933 0.930 . S
H946 C927 0.929 . S
H947 C965 0.930 . S
H948 C956 0.930 . S
H949 C957 0.930 . S
H950 C981 0.929 . S
H951 C939 0.930 . S
H952 C940 0.929 . S
H953 C982 0.930 . S
H954 C963 0.930 . S
N955 Gd924 2.661 . S
N955 C959 1.350 . S
N955 C960 1.307 . S
C956 H948 0.930 . S
C956 C957 1.355 . S
C956 C958 1.412 . S
C957 H949 0.930 . S
C957 C956 1.355 . S
C957 C960 1.402 . S
C958 C956 1.412 . S
C958 C959 1.417 . S
C958 C982 1.431 . S
C959 N955 1.350 . S
C959 C958 1.417 . S
C959 C962 1.426 . S
C960 H943 0.930 . S
C960 N955 1.307 . S
C960 C957 1.402 . S
N961 Gd924 2.601 . S
N961 C962 1.359 . S
N961 C965 1.334 . S
C962 C959 1.426 . S
C962 N961 1.359 . S
C962 C966 1.413 . S
C963 H954 0.930 . S
C963 C964 1.359 . S
C963 C965 1.394 . S
C964 C963 1.359 . S
C964 C966 1.391 . S
C964 H967 0.929 . S
C965 H947 0.930 . S
C965 N961 1.334 . S
C965 C963 1.394 . S
C966 C962 1.413 . S
C966 C964 1.391 . S
C966 C981 1.437 . S
H967 C964 0.929 . S
O968 Gd924 2.545 . S
O968 C983 1.258 . S
O969 Gd924 2.606 . S
O969 Gd925 2.362 . S
O969 C980 1.284 . S
O970 Gd925 2.324 . S
O970 C990 1.254 . S
O971 Gd924 2.429 . S
O971 C990 1.268 . S
O972 Gd924 2.545 . S
O972 C980 1.250 . S
O973 Gd924 2.412 . S
O973 C983 1.252 . S
O974 Gd925 2.545 . S
O974 C992 1.258 . S
O975 Gd924 2.362 . S
O975 Gd925 2.606 . S
O975 C991 1.284 . S
O976 Gd924 2.324 . S
O976 C999 1.254 . S
O977 Gd925 2.429 . S
O977 C999 1.268 . S
O978 Gd925 2.545 . S
O978 C991 1.250 . S
O979 Gd925 2.412 . S
O979 C992 1.252 . S
C980 O969 1.284 . S
C980 O972 1.250 . S
C981 H950 0.929 . S
C981 C966 1.437 . S
C981 C982 1.317 . S
C982 H953 0.930 . S
C982 C958 1.431 . S
C982 C981 1.317 . S
C983 Gd924 2.828 . S
C983 O968 1.258 . S
C983 O973 1.252 . S
C983 C984 1.497 . S
C984 C983 1.497 . S
C984 C985 1.395 . S
C984 C986 1.380 . S
C985 C984 1.395 . S
C985 C988 1.398 1_565 S
C985 H1000 0.930 . S
C986 C984 1.380 . S
C986 C987 1.391 1_565 S
C986 H1001 0.930 . S
C987 C986 1.391 1_545 S
C987 C989 1.387 . S
C988 C985 1.398 1_545 S
C988 C989 1.380 . S
C988 H1002 0.930 . S
C989 C987 1.387 . S
C989 C988 1.380 . S
C989 H1003 0.930 . S
C990 O970 1.254 . S
C990 O971 1.268 . S
C991 O975 1.284 . S
C991 O978 1.250 . S
C992 Gd925 2.828 . S
C992 O974 1.258 . S
C992 O979 1.252 . S
C992 C993 1.497 . S
C993 C992 1.497 . S
C993 C994 1.395 . S
C993 C995 1.380 . S
C994 C993 1.395 . S
C994 C997 1.398 . S
C994 H1004 0.930 . S
C995 C993 1.380 . S
C995 C996 1.391 . S
C995 H1005 0.930 . S
C996 C995 1.391 . S
C996 C998 1.387 . S
C997 C994 1.398 . S
C997 C998 1.380 . S
C997 H1006 0.930 . S
C998 C996 1.387 . S
C998 C997 1.380 . S
C998 H1007 0.930 . S
C999 O976 1.254 . S
C999 O977 1.268 . S
H1000 C985 0.930 . S
H1001 C986 0.930 . S
H1002 C988 0.930 . S
H1003 C989 0.930 . S
H1004 C994 0.930 . S
H1005 C995 0.930 . S
H1006 C997 0.930 . S
H1007 C998 0.930 . S
Gd1008 N1039 2.661 . S
Gd1008 N1045 2.601 . S
Gd1008 O1052 2.545 . S
Gd1008 O1053 2.606 . S
Gd1008 O1055 2.429 . S
Gd1008 O1056 2.545 . S
Gd1008 O1057 2.412 . S
Gd1008 O1059 2.362 . S
Gd1008 O1060 2.324 . S
Gd1008 C1067 2.828 . S
Gd1009 N1018 2.661 . S
Gd1009 N1022 2.601 . S
Gd1009 O1053 2.362 . S
Gd1009 O1054 2.324 . S
Gd1009 O1058 2.545 . S
Gd1009 O1059 2.606 . S
Gd1009 O1061 2.429 . S
Gd1009 O1062 2.545 . S
Gd1009 O1063 2.412 . S
Gd1009 C1076 2.828 . S
C1010 C1013 1.417 . S
C1010 C1015 1.431 . S
C1010 C1016 1.412 . S
C1011 C1014 1.437 . S
C1011 C1015 1.317 . S
C1011 H1030 0.929 . S
C1012 C1013 1.426 . S
C1012 C1014 1.413 . S
C1012 N1022 1.359 . S
C1013 C1010 1.417 . S
C1013 C1012 1.426 . S
C1013 N1018 1.350 . S
C1014 C1011 1.437 . S
C1014 C1012 1.413 . S
C1014 C1024 1.391 . S
C1015 C1010 1.431 . S
C1015 C1011 1.317 . S
C1015 H1026 0.930 . S
C1016 C1010 1.412 . S
C1016 C1017 1.355 . S
C1016 H1028 0.930 . S
C1017 C1016 1.355 . S
C1017 C1019 1.402 . S
C1017 H1029 0.930 . S
N1018 Gd1009 2.661 . S
N1018 C1013 1.350 . S
N1018 C1019 1.307 . S
C1019 C1017 1.402 . S
C1019 N1018 1.307 . S
C1019 H1020 0.930 . S
H1020 C1019 0.930 . S
C1021 N1022 1.334 . S
C1021 C1023 1.394 . S
C1021 H1025 0.930 . S
N1022 Gd1009 2.601 . S
N1022 C1012 1.359 . S
N1022 C1021 1.334 . S
C1023 C1021 1.394 . S
C1023 C1024 1.359 . S
C1023 H1035 0.930 . S
C1024 C1014 1.391 . S
C1024 C1023 1.359 . S
C1024 H1036 0.929 . S
H1025 C1021 0.930 . S
H1026 C1015 0.930 . S
H1027 C1044 0.930 . S
H1028 C1016 0.930 . S
H1029 C1017 0.930 . S
H1030 C1011 0.929 . S
H1031 C1049 0.930 . S
H1032 C1040 0.930 . S
H1033 C1041 0.930 . S
H1034 C1065 0.929 . S
H1035 C1023 0.930 . S
H1036 C1024 0.929 . S
H1037 C1066 0.930 . S
H1038 C1047 0.930 . S
N1039 Gd1008 2.661 . S
N1039 C1043 1.350 . S
N1039 C1044 1.307 . S
C1040 H1032 0.930 . S
C1040 C1041 1.355 . S
C1040 C1042 1.412 . S
C1041 H1033 0.930 . S
C1041 C1040 1.355 . S
C1041 C1044 1.402 . S
C1042 C1040 1.412 . S
C1042 C1043 1.417 . S
C1042 C1066 1.431 . S
C1043 N1039 1.350 . S
C1043 C1042 1.417 . S
C1043 C1046 1.426 . S
C1044 H1027 0.930 . S
C1044 N1039 1.307 . S
C1044 C1041 1.402 . S
N1045 Gd1008 2.601 . S
N1045 C1046 1.359 . S
N1045 C1049 1.334 . S
C1046 C1043 1.426 . S
C1046 N1045 1.359 . S
C1046 C1050 1.413 . S
C1047 H1038 0.930 . S
C1047 C1048 1.359 . S
C1047 C1049 1.394 . S
C1048 C1047 1.359 . S
C1048 C1050 1.391 . S
C1048 H1051 0.929 . S
C1049 H1031 0.930 . S
C1049 N1045 1.334 . S
C1049 C1047 1.394 . S
C1050 C1046 1.413 . S
C1050 C1048 1.391 . S
C1050 C1065 1.437 . S
H1051 C1048 0.929 . S
O1052 Gd1008 2.545 . S
O1052 C1067 1.258 . S
O1053 Gd1008 2.606 . S
O1053 Gd1009 2.362 . S
O1053 C1064 1.284 . S
O1054 Gd1009 2.324 . S
O1054 C1074 1.254 . S
O1055 Gd1008 2.429 . S
O1055 C1074 1.268 . S
O1056 Gd1008 2.545 . S
O1056 C1064 1.250 . S
O1057 Gd1008 2.412 . S
O1057 C1067 1.252 . S
O1058 Gd1009 2.545 . S
O1058 C1076 1.258 . S
O1059 Gd1008 2.362 . S
O1059 Gd1009 2.606 . S
O1059 C1075 1.284 . S
O1060 Gd1008 2.324 . S
O1060 C1083 1.254 . S
O1061 Gd1009 2.429 . S
O1061 C1083 1.268 . S
O1062 Gd1009 2.545 . S
O1062 C1075 1.250 . S
O1063 Gd1009 2.412 . S
O1063 C1076 1.252 . S
C1064 O1053 1.284 . S
C1064 O1056 1.250 . S
C1065 H1034 0.929 . S
C1065 C1050 1.437 . S
C1065 C1066 1.317 . S
C1066 H1037 0.930 . S
C1066 C1042 1.431 . S
C1066 C1065 1.317 . S
C1067 Gd1008 2.828 . S
C1067 O1052 1.258 . S
C1067 O1057 1.252 . S
C1067 C1068 1.497 . S
C1068 C1067 1.497 . S
C1068 C1069 1.395 . S
C1068 C1070 1.380 . S
C1069 C1068 1.395 . S
C1069 C1072 1.398 . S
C1069 H1084 0.930 . S
C1070 C1068 1.380 . S
C1070 C1071 1.391 . S
C1070 H1085 0.930 . S
C1071 C1070 1.391 . S
C1071 C1073 1.387 . S
C1072 C1069 1.398 . S
C1072 C1073 1.380 . S
C1072 H1086 0.930 . S
C1073 C1071 1.387 . S
C1073 C1072 1.380 . S
C1073 H1087 0.930 . S
C1074 O1054 1.254 . S
C1074 O1055 1.268 . S
C1075 O1059 1.284 . S
C1075 O1062 1.250 . S
C1076 Gd1009 2.828 . S
C1076 O1058 1.258 . S
C1076 O1063 1.252 . S
C1076 C1077 1.497 . S
C1077 C1076 1.497 . S
C1077 C1078 1.395 . S
C1077 C1079 1.380 . S
C1078 C1077 1.395 . S
C1078 C1081 1.398 1_545 S
C1078 H1088 0.930 . S
C1079 C1077 1.380 . S
C1079 C1080 1.391 1_545 S
C1079 H1089 0.930 . S
C1080 C1079 1.391 1_565 S
C1080 C1082 1.387 . S
C1081 C1078 1.398 1_565 S
C1081 C1082 1.380 . S
C1081 H1090 0.930 . S
C1082 C1080 1.387 . S
C1082 C1081 1.380 . S
C1082 H1091 0.930 . S
C1083 O1060 1.254 . S
C1083 O1061 1.268 . S
H1084 C1069 0.930 . S
H1085 C1070 0.930 . S
H1086 C1072 0.930 . S
H1087 C1073 0.930 . S
H1088 C1078 0.930 . S
H1089 C1079 0.930 . S
H1090 C1081 0.930 . S
H1091 C1082 0.930 . S
Gd1092 N1123 2.661 . S
Gd1092 N1129 2.601 . S
Gd1092 O1136 2.545 . S
Gd1092 O1137 2.606 . S
Gd1092 O1139 2.429 . S
Gd1092 O1140 2.545 . S
Gd1092 O1141 2.412 . S
Gd1092 O1143 2.362 . S
Gd1092 O1144 2.324 . S
Gd1092 C1151 2.828 . S
Gd1093 N1102 2.661 . S
Gd1093 N1106 2.601 . S
Gd1093 O1137 2.362 . S
Gd1093 O1138 2.324 . S
Gd1093 O1142 2.545 . S
Gd1093 O1143 2.606 . S
Gd1093 O1145 2.429 . S
Gd1093 O1146 2.545 . S
Gd1093 O1147 2.412 . S
Gd1093 C1160 2.828 . S
C1094 C1097 1.417 . S
C1094 C1099 1.431 . S
C1094 C1100 1.412 . S
C1095 C1098 1.437 . S
C1095 C1099 1.317 . S
C1095 H1114 0.929 . S
C1096 C1097 1.426 . S
C1096 C1098 1.413 . S
C1096 N1106 1.359 . S
C1097 C1094 1.417 . S
C1097 C1096 1.426 . S
C1097 N1102 1.350 . S
C1098 C1095 1.437 . S
C1098 C1096 1.413 . S
C1098 C1108 1.391 . S
C1099 C1094 1.431 . S
C1099 C1095 1.317 . S
C1099 H1110 0.930 . S
C1100 C1094 1.412 . S
C1100 C1101 1.355 . S
C1100 H1112 0.930 . S
C1101 C1100 1.355 . S
C1101 C1103 1.402 . S
C1101 H1113 0.930 . S
N1102 Gd1093 2.661 . S
N1102 C1097 1.350 . S
N1102 C1103 1.307 . S
C1103 C1101 1.402 . S
C1103 N1102 1.307 . S
C1103 H1104 0.930 . S
H1104 C1103 0.930 . S
C1105 N1106 1.334 . S
C1105 C1107 1.394 . S
C1105 H1109 0.930 . S
N1106 Gd1093 2.601 . S
N1106 C1096 1.359 . S
N1106 C1105 1.334 . S
C1107 C1105 1.394 . S
C1107 C1108 1.359 . S
C1107 H1119 0.930 . S
C1108 C1098 1.391 . S
C1108 C1107 1.359 . S
C1108 H1120 0.929 . S
H1109 C1105 0.930 . S
H1110 C1099 0.930 . S
H1111 C1128 0.930 . S
H1112 C1100 0.930 . S
H1113 C1101 0.930 . S
H1114 C1095 0.929 . S
H1115 C1133 0.930 . S
H1116 C1124 0.930 . S
H1117 C1125 0.930 . S
H1118 C1149 0.929 . S
H1119 C1107 0.930 . S
H1120 C1108 0.929 . S
H1121 C1150 0.930 . S
H1122 C1131 0.930 . S
N1123 Gd1092 2.661 . S
N1123 C1127 1.350 . S
N1123 C1128 1.307 . S
C1124 H1116 0.930 . S
C1124 C1125 1.355 . S
C1124 C1126 1.412 . S
C1125 H1117 0.930 . S
C1125 C1124 1.355 . S
C1125 C1128 1.402 . S
C1126 C1124 1.412 . S
C1126 C1127 1.417 . S
C1126 C1150 1.431 . S
C1127 N1123 1.350 . S
C1127 C1126 1.417 . S
C1127 C1130 1.426 . S
C1128 H1111 0.930 . S
C1128 N1123 1.307 . S
C1128 C1125 1.402 . S
N1129 Gd1092 2.601 . S
N1129 C1130 1.359 . S
N1129 C1133 1.334 . S
C1130 C1127 1.426 . S
C1130 N1129 1.359 . S
C1130 C1134 1.413 . S
C1131 H1122 0.930 . S
C1131 C1132 1.359 . S
C1131 C1133 1.394 . S
C1132 C1131 1.359 . S
C1132 C1134 1.391 . S
C1132 H1135 0.929 . S
C1133 H1115 0.930 . S
C1133 N1129 1.334 . S
C1133 C1131 1.394 . S
C1134 C1130 1.413 . S
C1134 C1132 1.391 . S
C1134 C1149 1.437 . S
H1135 C1132 0.929 . S
O1136 Gd1092 2.545 . S
O1136 C1151 1.258 . S
O1137 Gd1092 2.606 . S
O1137 Gd1093 2.362 . S
O1137 C1148 1.284 . S
O1138 Gd1093 2.324 . S
O1138 C1158 1.254 . S
O1139 Gd1092 2.429 . S
O1139 C1158 1.268 . S
O1140 Gd1092 2.545 . S
O1140 C1148 1.250 . S
O1141 Gd1092 2.412 . S
O1141 C1151 1.252 . S
O1142 Gd1093 2.545 . S
O1142 C1160 1.258 . S
O1143 Gd1092 2.362 . S
O1143 Gd1093 2.606 . S
O1143 C1159 1.284 . S
O1144 Gd1092 2.324 . S
O1144 C1167 1.254 . S
O1145 Gd1093 2.429 . S
O1145 C1167 1.268 . S
O1146 Gd1093 2.545 . S
O1146 C1159 1.250 . S
O1147 Gd1093 2.412 . S
O1147 C1160 1.252 . S
C1148 O1137 1.284 . S
C1148 O1140 1.250 . S
C1149 H1118 0.929 . S
C1149 C1134 1.437 . S
C1149 C1150 1.317 . S
C1150 H1121 0.930 . S
C1150 C1126 1.431 . S
C1150 C1149 1.317 . S
C1151 Gd1092 2.828 . S
C1151 O1136 1.258 . S
C1151 O1141 1.252 . S
C1151 C1152 1.497 . S
C1152 C1151 1.497 . S
C1152 C1153 1.395 . S
C1152 C1154 1.380 . S
C1153 C1152 1.395 . S
C1153 C1156 1.398 . S
C1153 H1168 0.930 . S
C1154 C1152 1.380 . S
C1154 C1155 1.391 . S
C1154 H1169 0.930 . S
C1155 C1154 1.391 . S
C1155 C1157 1.387 . S
C1156 C1153 1.398 . S
C1156 C1157 1.380 . S
C1156 H1170 0.930 . S
C1157 C1155 1.387 . S
C1157 C1156 1.380 . S
C1157 H1171 0.930 . S
C1158 O1138 1.254 . S
C1158 O1139 1.268 . S
C1159 O1143 1.284 . S
C1159 O1146 1.250 . S
C1160 Gd1093 2.828 . S
C1160 O1142 1.258 . S
C1160 O1147 1.252 . S
C1160 C1161 1.497 . S
C1161 C1160 1.497 . S
C1161 C1162 1.395 . S
C1161 C1163 1.380 . S
C1162 C1161 1.395 . S
C1162 C1165 1.398 1_565 S
C1162 H1172 0.930 . S
C1163 C1161 1.380 . S
C1163 C1164 1.391 1_565 S
C1163 H1173 0.930 . S
C1164 C1163 1.391 1_545 S
C1164 C1166 1.387 . S
C1165 C1162 1.398 1_545 S
C1165 C1166 1.380 . S
C1165 H1174 0.930 . S
C1166 C1164 1.387 . S
C1166 C1165 1.380 . S
C1166 H1175 0.930 . S
C1167 O1144 1.254 . S
C1167 O1145 1.268 . S
H1168 C1153 0.930 . S
H1169 C1154 0.930 . S
H1170 C1156 0.930 . S
H1171 C1157 0.930 . S
H1172 C1162 0.930 . S
H1173 C1163 0.930 . S
H1174 C1165 0.930 . S
H1175 C1166 0.930 . S
Gd1176 N1207 2.661 . S
Gd1176 N1213 2.601 . S
Gd1176 O1220 2.545 . S
Gd1176 O1221 2.606 . S
Gd1176 O1223 2.429 . S
Gd1176 O1224 2.545 . S
Gd1176 O1225 2.412 . S
Gd1176 O1227 2.362 . S
Gd1176 O1228 2.324 . S
Gd1176 C1235 2.828 . S
Gd1177 N1186 2.661 . S
Gd1177 N1190 2.601 . S
Gd1177 O1221 2.362 . S
Gd1177 O1222 2.324 . S
Gd1177 O1226 2.545 . S
Gd1177 O1227 2.606 . S
Gd1177 O1229 2.429 . S
Gd1177 O1230 2.545 . S
Gd1177 O1231 2.412 . S
Gd1177 C1244 2.828 . S
C1178 C1181 1.417 . S
C1178 C1183 1.431 . S
C1178 C1184 1.412 . S
C1179 C1182 1.437 . S
C1179 C1183 1.317 . S
C1179 H1198 0.929 . S
C1180 C1181 1.426 . S
C1180 C1182 1.413 . S
C1180 N1190 1.359 . S
C1181 C1178 1.417 . S
C1181 C1180 1.426 . S
C1181 N1186 1.350 . S
C1182 C1179 1.437 . S
C1182 C1180 1.413 . S
C1182 C1192 1.391 . S
C1183 C1178 1.431 . S
C1183 C1179 1.317 . S
C1183 H1194 0.930 . S
C1184 C1178 1.412 . S
C1184 C1185 1.355 . S
C1184 H1196 0.930 . S
C1185 C1184 1.355 . S
C1185 C1187 1.402 . S
C1185 H1197 0.930 . S
N1186 Gd1177 2.661 . S
N1186 C1181 1.350 . S
N1186 C1187 1.307 . S
C1187 C1185 1.402 . S
C1187 N1186 1.307 . S
C1187 H1188 0.930 . S
H1188 C1187 0.930 . S
C1189 N1190 1.334 . S
C1189 C1191 1.394 . S
C1189 H1193 0.930 . S
N1190 Gd1177 2.601 . S
N1190 C1180 1.359 . S
N1190 C1189 1.334 . S
C1191 C1189 1.394 . S
C1191 C1192 1.359 . S
C1191 H1203 0.930 . S
C1192 C1182 1.391 . S
C1192 C1191 1.359 . S
C1192 H1204 0.929 . S
H1193 C1189 0.930 . S
H1194 C1183 0.930 . S
H1195 C1212 0.930 . S
H1196 C1184 0.930 . S
H1197 C1185 0.930 . S
H1198 C1179 0.929 . S
H1199 C1217 0.930 . S
H1200 C1208 0.930 . S
H1201 C1209 0.930 . S
H1202 C1233 0.929 . S
H1203 C1191 0.930 . S
H1204 C1192 0.929 . S
H1205 C1234 0.930 . S
H1206 C1215 0.930 . S
N1207 Gd1176 2.661 . S
N1207 C1211 1.350 . S
N1207 C1212 1.307 . S
C1208 H1200 0.930 . S
C1208 C1209 1.355 . S
C1208 C1210 1.412 . S
C1209 H1201 0.930 . S
C1209 C1208 1.355 . S
C1209 C1212 1.402 . S
C1210 C1208 1.412 . S
C1210 C1211 1.417 . S
C1210 C1234 1.431 . S
C1211 N1207 1.350 . S
C1211 C1210 1.417 . S
C1211 C1214 1.426 . S
C1212 H1195 0.930 . S
C1212 N1207 1.307 . S
C1212 C1209 1.402 . S
N1213 Gd1176 2.601 . S
N1213 C1214 1.359 . S
N1213 C1217 1.334 . S
C1214 C1211 1.426 . S
C1214 N1213 1.359 . S
C1214 C1218 1.413 . S
C1215 H1206 0.930 . S
C1215 C1216 1.359 . S
C1215 C1217 1.394 . S
C1216 C1215 1.359 . S
C1216 C1218 1.391 . S
C1216 H1219 0.929 . S
C1217 H1199 0.930 . S
C1217 N1213 1.334 . S
C1217 C1215 1.394 . S
C1218 C1214 1.413 . S
C1218 C1216 1.391 . S
C1218 C1233 1.437 . S
H1219 C1216 0.929 . S
O1220 Gd1176 2.545 . S
O1220 C1235 1.258 . S
O1221 Gd1176 2.606 . S
O1221 Gd1177 2.362 . S
O1221 C1232 1.284 . S
O1222 Gd1177 2.324 . S
O1222 C1242 1.254 . S
O1223 Gd1176 2.429 . S
O1223 C1242 1.268 . S
O1224 Gd1176 2.545 . S
O1224 C1232 1.250 . S
O1225 Gd1176 2.412 . S
O1225 C1235 1.252 . S
O1226 Gd1177 2.545 . S
O1226 C1244 1.258 . S
O1227 Gd1176 2.362 . S
O1227 Gd1177 2.606 . S
O1227 C1243 1.284 . S
O1228 Gd1176 2.324 . S
O1228 C1251 1.254 . S
O1229 Gd1177 2.429 . S
O1229 C1251 1.268 . S
O1230 Gd1177 2.545 . S
O1230 C1243 1.250 . S
O1231 Gd1177 2.412 . S
O1231 C1244 1.252 . S
C1232 O1221 1.284 . S
C1232 O1224 1.250 . S
C1233 H1202 0.929 . S
C1233 C1218 1.437 . S
C1233 C1234 1.317 . S
C1234 H1205 0.930 . S
C1234 C1210 1.431 . S
C1234 C1233 1.317 . S
C1235 Gd1176 2.828 . S
C1235 O1220 1.258 . S
C1235 O1225 1.252 . S
C1235 C1236 1.497 . S
C1236 C1235 1.497 . S
C1236 C1237 1.395 . S
C1236 C1238 1.380 . S
C1237 C1236 1.395 . S
C1237 C1240 1.398 . S
C1237 H1252 0.930 . S
C1238 C1236 1.380 . S
C1238 C1239 1.391 . S
C1238 H1253 0.930 . S
C1239 C1238 1.391 . S
C1239 C1241 1.387 . S
C1240 C1237 1.398 . S
C1240 C1241 1.380 . S
C1240 H1254 0.930 . S
C1241 C1239 1.387 . S
C1241 C1240 1.380 . S
C1241 H1255 0.930 . S
C1242 O1222 1.254 . S
C1242 O1223 1.268 . S
C1243 O1227 1.284 . S
C1243 O1230 1.250 . S
C1244 Gd1177 2.828 . S
C1244 O1226 1.258 . S
C1244 O1231 1.252 . S
C1244 C1245 1.497 . S
C1245 C1244 1.497 . S
C1245 C1246 1.395 . S
C1245 C1247 1.380 . S
C1246 C1245 1.395 . S
C1246 C1249 1.398 1_565 S
C1246 H1256 0.930 . S
C1247 C1245 1.380 . S
C1247 C1248 1.391 1_565 S
C1247 H1257 0.930 . S
C1248 C1247 1.391 1_545 S
C1248 C1250 1.387 . S
C1249 C1246 1.398 1_545 S
C1249 C1250 1.380 . S
C1249 H1258 0.930 . S
C1250 C1248 1.387 . S
C1250 C1249 1.380 . S
C1250 H1259 0.930 . S
C1251 O1228 1.254 . S
C1251 O1229 1.268 . S
H1252 C1237 0.930 . S
H1253 C1238 0.930 . S
H1254 C1240 0.930 . S
H1255 C1241 0.930 . S
H1256 C1246 0.930 . S
H1257 C1247 0.930 . S
H1258 C1249 0.930 . S
H1259 C1250 0.930 . S
Gd1260 N1291 2.661 . S
Gd1260 N1297 2.601 . S
Gd1260 O1304 2.545 . S
Gd1260 O1305 2.606 . S
Gd1260 O1307 2.429 . S
Gd1260 O1308 2.545 . S
Gd1260 O1309 2.412 . S
Gd1260 O1311 2.362 . S
Gd1260 O1312 2.324 . S
Gd1260 C1319 2.828 . S
Gd1261 N1270 2.661 . S
Gd1261 N1274 2.601 . S
Gd1261 O1305 2.362 . S
Gd1261 O1306 2.324 . S
Gd1261 O1310 2.545 . S
Gd1261 O1311 2.606 . S
Gd1261 O1313 2.429 . S
Gd1261 O1314 2.545 . S
Gd1261 O1315 2.412 . S
Gd1261 C1328 2.828 . S
C1262 C1265 1.417 . S
C1262 C1267 1.431 . S
C1262 C1268 1.412 . S
C1263 C1266 1.437 . S
C1263 C1267 1.317 . S
C1263 H1282 0.929 . S
C1264 C1265 1.426 . S
C1264 C1266 1.413 . S
C1264 N1274 1.359 . S
C1265 C1262 1.417 . S
C1265 C1264 1.426 . S
C1265 N1270 1.350 . S
C1266 C1263 1.437 . S
C1266 C1264 1.413 . S
C1266 C1276 1.391 . S
C1267 C1262 1.431 . S
C1267 C1263 1.317 . S
C1267 H1278 0.930 . S
C1268 C1262 1.412 . S
C1268 C1269 1.355 . S
C1268 H1280 0.930 . S
C1269 C1268 1.355 . S
C1269 C1271 1.402 . S
C1269 H1281 0.930 . S
N1270 Gd1261 2.661 . S
N1270 C1265 1.350 . S
N1270 C1271 1.307 . S
C1271 C1269 1.402 . S
C1271 N1270 1.307 . S
C1271 H1272 0.930 . S
H1272 C1271 0.930 . S
C1273 N1274 1.334 . S
C1273 C1275 1.394 . S
C1273 H1277 0.930 . S
N1274 Gd1261 2.601 . S
N1274 C1264 1.359 . S
N1274 C1273 1.334 . S
C1275 C1273 1.394 . S
C1275 C1276 1.359 . S
C1275 H1287 0.930 . S
C1276 C1266 1.391 . S
C1276 C1275 1.359 . S
C1276 H1288 0.929 . S
H1277 C1273 0.930 . S
H1278 C1267 0.930 . S
H1279 C1296 0.930 . S
H1280 C1268 0.930 . S
H1281 C1269 0.930 . S
H1282 C1263 0.929 . S
H1283 C1301 0.930 . S
H1284 C1292 0.930 . S
H1285 C1293 0.930 . S
H1286 C1317 0.929 . S
H1287 C1275 0.930 . S
H1288 C1276 0.929 . S
H1289 C1318 0.930 . S
H1290 C1299 0.930 . S
N1291 Gd1260 2.661 . S
N1291 C1295 1.350 . S
N1291 C1296 1.307 . S
C1292 H1284 0.930 . S
C1292 C1293 1.355 . S
C1292 C1294 1.412 . S
C1293 H1285 0.930 . S
C1293 C1292 1.355 . S
C1293 C1296 1.402 . S
C1294 C1292 1.412 . S
C1294 C1295 1.417 . S
C1294 C1318 1.431 . S
C1295 N1291 1.350 . S
C1295 C1294 1.417 . S
C1295 C1298 1.426 . S
C1296 H1279 0.930 . S
C1296 N1291 1.307 . S
C1296 C1293 1.402 . S
N1297 Gd1260 2.601 . S
N1297 C1298 1.359 . S
N1297 C1301 1.334 . S
C1298 C1295 1.426 . S
C1298 N1297 1.359 . S
C1298 C1302 1.413 . S
C1299 H1290 0.930 . S
C1299 C1300 1.359 . S
C1299 C1301 1.394 . S
C1300 C1299 1.359 . S
C1300 C1302 1.391 . S
C1300 H1303 0.929 . S
C1301 H1283 0.930 . S
C1301 N1297 1.334 . S
C1301 C1299 1.394 . S
C1302 C1298 1.413 . S
C1302 C1300 1.391 . S
C1302 C1317 1.437 . S
H1303 C1300 0.929 . S
O1304 Gd1260 2.545 . S
O1304 C1319 1.258 . S
O1305 Gd1260 2.606 . S
O1305 Gd1261 2.362 . S
O1305 C1316 1.284 . S
O1306 Gd1261 2.324 . S
O1306 C1326 1.254 . S
O1307 Gd1260 2.429 . S
O1307 C1326 1.268 . S
O1308 Gd1260 2.545 . S
O1308 C1316 1.250 . S
O1309 Gd1260 2.412 . S
O1309 C1319 1.252 . S
O1310 Gd1261 2.545 . S
O1310 C1328 1.258 . S
O1311 Gd1260 2.362 . S
O1311 Gd1261 2.606 . S
O1311 C1327 1.284 . S
O1312 Gd1260 2.324 . S
O1312 C1335 1.254 . S
O1313 Gd1261 2.429 . S
O1313 C1335 1.268 . S
O1314 Gd1261 2.545 . S
O1314 C1327 1.250 . S
O1315 Gd1261 2.412 . S
O1315 C1328 1.252 . S
C1316 O1305 1.284 . S
C1316 O1308 1.250 . S
C1317 H1286 0.929 . S
C1317 C1302 1.437 . S
C1317 C1318 1.317 . S
C1318 H1289 0.930 . S
C1318 C1294 1.431 . S
C1318 C1317 1.317 . S
C1319 Gd1260 2.828 . S
C1319 O1304 1.258 . S
C1319 O1309 1.252 . S
C1319 C1320 1.497 . S
C1320 C1319 1.497 . S
C1320 C1321 1.395 . S
C1320 C1322 1.380 . S
C1321 C1320 1.395 . S
C1321 C1324 1.398 . S
C1321 H1336 0.930 . S
C1322 C1320 1.380 . S
C1322 C1323 1.391 . S
C1322 H1337 0.930 . S
C1323 C1322 1.391 . S
C1323 C1325 1.387 . S
C1324 C1321 1.398 . S
C1324 C1325 1.380 . S
C1324 H1338 0.930 . S
C1325 C1323 1.387 . S
C1325 C1324 1.380 . S
C1325 H1339 0.930 . S
C1326 O1306 1.254 . S
C1326 O1307 1.268 . S
C1327 O1311 1.284 . S
C1327 O1314 1.250 . S
C1328 Gd1261 2.828 . S
C1328 O1310 1.258 . S
C1328 O1315 1.252 . S
C1328 C1329 1.497 . S
C1329 C1328 1.497 . S
C1329 C1330 1.395 . S
C1329 C1331 1.380 . S
C1330 C1329 1.395 . S
C1330 C1333 1.398 1_545 S
C1330 H1340 0.930 . S
C1331 C1329 1.380 . S
C1331 C1332 1.391 1_545 S
C1331 H1341 0.930 . S
C1332 C1331 1.391 1_565 S
C1332 C1334 1.387 . S
C1333 C1330 1.398 1_565 S
C1333 C1334 1.380 . S
C1333 H1342 0.930 . S
C1334 C1332 1.387 . S
C1334 C1333 1.380 . S
C1334 H1343 0.930 . S
C1335 O1312 1.254 . S
C1335 O1313 1.268 . S
H1336 C1321 0.930 . S
H1337 C1322 0.930 . S
H1338 C1324 0.930 . S
H1339 C1325 0.930 . S
H1340 C1330 0.930 . S
H1341 C1331 0.930 . S
H1342 C1333 0.930 . S
H1343 C1334 0.930 . S
C1344 C1345 1.363 . S
C1344 C1350 1.379 . S
C1344 N1352 1.356 . S
C1345 C1344 1.363 . S
C1345 C1351 1.363 . S
C1346 C1347 1.363 . S
C1346 C1351 1.379 . S
C1346 N1353 1.356 . S
C1347 C1346 1.363 . S
C1347 C1350 1.363 . S
N1348 C1350 1.356 . S
N1348 H1360 0.984 . S
N1348 H1361 0.985 . S
N1349 C1351 1.356 . S
N1349 H1354 0.984 . S
N1349 H1355 0.985 . S
C1350 C1344 1.379 . S
C1350 C1347 1.363 . S
C1350 N1348 1.356 . S
C1351 C1345 1.363 . S
C1351 C1346 1.379 . S
C1351 N1349 1.356 . S
N1352 C1344 1.356 . S
N1352 H1358 0.984 . S
N1352 H1359 0.984 . S
N1353 C1346 1.356 . S
N1353 H1356 0.984 . S
N1353 H1357 0.985 . S
H1354 N1349 0.984 . S
H1355 N1349 0.985 . S
H1356 N1353 0.984 . S
H1357 N1353 0.985 . S
H1358 N1352 0.984 . S
H1359 N1352 0.984 . S
H1360 N1348 0.984 . S
H1361 N1348 0.985 . S
C1362 C1363 1.363 . S
C1362 C1368 1.379 . S
C1362 N1370 1.356 . S
C1363 C1362 1.363 . S
C1363 C1369 1.363 . S
C1364 C1365 1.363 . S
C1364 C1369 1.379 . S
C1364 N1371 1.356 . S
C1365 C1364 1.363 . S
C1365 C1368 1.363 . S
N1366 C1368 1.356 . S
N1366 H1378 0.984 . S
N1366 H1379 0.985 . S
N1367 C1369 1.356 . S
N1367 H1372 0.984 . S
N1367 H1373 0.985 . S
C1368 C1362 1.379 . S
C1368 C1365 1.363 . S
C1368 N1366 1.356 . S
C1369 C1363 1.363 . S
C1369 C1364 1.379 . S
C1369 N1367 1.356 . S
N1370 C1362 1.356 . S
N1370 H1376 0.984 . S
N1370 H1377 0.984 . S
N1371 C1364 1.356 . S
N1371 H1374 0.984 . S
N1371 H1375 0.985 . S
H1372 N1367 0.984 . S
H1373 N1367 0.985 . S
H1374 N1371 0.984 . S
H1375 N1371 0.985 . S
H1376 N1370 0.984 . S
H1377 N1370 0.984 . S
H1378 N1366 0.984 . S
H1379 N1366 0.985 . S
C1380 C1381 1.363 . S
C1380 C1386 1.379 . S
C1380 N1388 1.356 . S
C1381 C1380 1.363 . S
C1381 C1387 1.363 . S
C1382 C1383 1.363 . S
C1382 C1387 1.379 . S
C1382 N1389 1.356 . S
C1383 C1382 1.363 . S
C1383 C1386 1.363 . S
N1384 C1386 1.356 . S
N1384 H1396 0.984 . S
N1384 H1397 0.985 . S
N1385 C1387 1.356 . S
N1385 H1390 0.984 . S
N1385 H1391 0.985 . S
C1386 C1380 1.379 . S
C1386 C1383 1.363 . S
C1386 N1384 1.356 . S
C1387 C1381 1.363 . S
C1387 C1382 1.379 . S
C1387 N1385 1.356 . S
N1388 C1380 1.356 . S
N1388 H1394 0.984 . S
N1388 H1395 0.984 . S
N1389 C1382 1.356 . S
N1389 H1392 0.984 . S
N1389 H1393 0.985 . S
H1390 N1385 0.984 . S
H1391 N1385 0.985 . S
H1392 N1389 0.984 . S
H1393 N1389 0.985 . S
H1394 N1388 0.984 . S
H1395 N1388 0.984 . S
H1396 N1384 0.984 . S
H1397 N1384 0.985 . S
C1398 C1399 1.363 . S
C1398 C1404 1.379 . S
C1398 N1406 1.356 . S
C1399 C1398 1.363 . S
C1399 C1405 1.363 . S
C1400 C1401 1.363 . S
C1400 C1405 1.379 . S
C1400 N1407 1.356 . S
C1401 C1400 1.363 . S
C1401 C1404 1.363 . S
N1402 C1404 1.356 . S
N1402 H1414 0.984 . S
N1402 H1415 0.985 . S
N1403 C1405 1.356 . S
N1403 H1408 0.984 . S
N1403 H1409 0.985 . S
C1404 C1398 1.379 . S
C1404 C1401 1.363 . S
C1404 N1402 1.356 . S
C1405 C1399 1.363 . S
C1405 C1400 1.379 . S
C1405 N1403 1.356 . S
N1406 C1398 1.356 . S
N1406 H1412 0.984 . S
N1406 H1413 0.984 . S
N1407 C1400 1.356 . S
N1407 H1410 0.984 . S
N1407 H1411 0.985 . S
H1408 N1403 0.984 . S
H1409 N1403 0.985 . S
H1410 N1407 0.984 . S
H1411 N1407 0.985 . S
H1412 N1406 0.984 . S
H1413 N1406 0.984 . S
H1414 N1402 0.984 . S
H1415 N1402 0.985 . S
C1416 C1417 1.363 . S
C1416 C1422 1.379 . S
C1416 N1424 1.356 . S
C1417 C1416 1.363 . S
C1417 C1423 1.363 . S
C1418 C1419 1.363 . S
C1418 C1423 1.379 . S
C1418 N1425 1.356 . S
C1419 C1418 1.363 . S
C1419 C1422 1.363 . S
N1420 C1422 1.356 . S
N1420 H1432 0.984 . S
N1420 H1433 0.985 . S
N1421 C1423 1.356 . S
N1421 H1426 0.984 . S
N1421 H1427 0.985 . S
C1422 C1416 1.379 . S
C1422 C1419 1.363 . S
C1422 N1420 1.356 . S
C1423 C1417 1.363 . S
C1423 C1418 1.379 . S
C1423 N1421 1.356 . S
N1424 C1416 1.356 . S
N1424 H1430 0.984 . S
N1424 H1431 0.984 . S
N1425 C1418 1.356 . S
N1425 H1428 0.984 . S
N1425 H1429 0.985 . S
H1426 N1421 0.984 . S
H1427 N1421 0.985 . S
H1428 N1425 0.984 . S
H1429 N1425 0.985 . S
H1430 N1424 0.984 . S
H1431 N1424 0.984 . S
H1432 N1420 0.984 . S
H1433 N1420 0.985 . S
C1434 C1435 1.363 . S
C1434 C1440 1.379 . S
C1434 N1442 1.356 . S
C1435 C1434 1.363 . S
C1435 C1441 1.363 . S
C1436 C1437 1.363 . S
C1436 C1441 1.379 . S
C1436 N1443 1.356 . S
C1437 C1436 1.363 . S
C1437 C1440 1.363 . S
N1438 C1440 1.356 . S
N1438 H1450 0.984 . S
N1438 H1451 0.985 . S
N1439 C1441 1.356 . S
N1439 H1444 0.984 . S
N1439 H1445 0.985 . S
C1440 C1434 1.379 . S
C1440 C1437 1.363 . S
C1440 N1438 1.356 . S
C1441 C1435 1.363 . S
C1441 C1436 1.379 . S
C1441 N1439 1.356 . S
N1442 C1434 1.356 . S
N1442 H1448 0.984 . S
N1442 H1449 0.984 . S
N1443 C1436 1.356 . S
N1443 H1446 0.984 . S
N1443 H1447 0.985 . S
H1444 N1439 0.984 . S
H1445 N1439 0.985 . S
H1446 N1443 0.984 . S
H1447 N1443 0.985 . S
H1448 N1442 0.984 . S
H1449 N1442 0.984 . S
H1450 N1438 0.984 . S
H1451 N1438 0.985 . S
C1452 C1453 1.363 . S
C1452 C1458 1.379 . S
C1452 N1460 1.356 . S
C1453 C1452 1.363 . S
C1453 C1459 1.363 . S
C1454 C1455 1.363 . S
C1454 C1459 1.379 . S
C1454 N1461 1.356 . S
C1455 C1454 1.363 . S
C1455 C1458 1.363 . S
N1456 C1458 1.356 . S
N1456 H1468 0.984 . S
N1456 H1469 0.985 . S
N1457 C1459 1.356 . S
N1457 H1462 0.984 . S
N1457 H1463 0.985 . S
C1458 C1452 1.379 . S
C1458 C1455 1.363 . S
C1458 N1456 1.356 . S
C1459 C1453 1.363 . S
C1459 C1454 1.379 . S
C1459 N1457 1.356 . S
N1460 C1452 1.356 . S
N1460 H1466 0.984 . S
N1460 H1467 0.984 . S
N1461 C1454 1.356 . S
N1461 H1464 0.984 . S
N1461 H1465 0.985 . S
H1462 N1457 0.984 . S
H1463 N1457 0.985 . S
H1464 N1461 0.984 . S
H1465 N1461 0.985 . S
H1466 N1460 0.984 . S
H1467 N1460 0.984 . S
H1468 N1456 0.984 . S
H1469 N1456 0.985 . S
C1470 C1471 1.363 . S
C1470 C1476 1.379 . S
C1470 N1478 1.356 . S
C1471 C1470 1.363 . S
C1471 C1477 1.363 . S
C1472 C1473 1.363 . S
C1472 C1477 1.379 . S
C1472 N1479 1.356 . S
C1473 C1472 1.363 . S
C1473 C1476 1.363 . S
N1474 C1476 1.356 . S
N1474 H1486 0.984 . S
N1474 H1487 0.985 . S
N1475 C1477 1.356 . S
N1475 H1480 0.984 . S
N1475 H1481 0.985 . S
C1476 C1470 1.379 . S
C1476 C1473 1.363 . S
C1476 N1474 1.356 . S
C1477 C1471 1.363 . S
C1477 C1472 1.379 . S
C1477 N1475 1.356 . S
N1478 C1470 1.356 . S
N1478 H1484 0.984 . S
N1478 H1485 0.984 . S
N1479 C1472 1.356 . S
N1479 H1482 0.984 . S
N1479 H1483 0.985 . S
H1480 N1475 0.984 . S
H1481 N1475 0.985 . S
H1482 N1479 0.984 . S
H1483 N1479 0.985 . S
H1484 N1478 0.984 . S
H1485 N1478 0.984 . S
H1486 N1474 0.984 . S
H1487 N1474 0.985 . S
C1488 C1489 1.363 1_545 S
C1488 C1494 1.379 . S
C1488 N1496 1.356 . S
C1489 C1488 1.363 1_565 S
C1489 C1495 1.363 . S
C1490 C1491 1.363 1_565 S
C1490 C1495 1.379 . S
C1490 N1497 1.356 . S
C1491 C1490 1.363 1_545 S
C1491 C1494 1.363 . S
N1492 C1494 1.356 . S
N1492 H1504 0.984 . S
N1492 H1505 0.985 . S
N1493 C1495 1.356 . S
N1493 H1498 0.984 . S
N1493 H1499 0.985 . S
C1494 C1488 1.379 . S
C1494 C1491 1.363 . S
C1494 N1492 1.356 . S
C1495 C1489 1.363 . S
C1495 C1490 1.379 . S
C1495 N1493 1.356 . S
N1496 C1488 1.356 . S
N1496 H1502 0.984 . S
N1496 H1503 0.984 1_545 S
N1497 C1490 1.356 . S
N1497 H1500 0.984 1_565 S
N1497 H1501 0.985 . S
H1498 N1493 0.984 . S
H1499 N1493 0.985 . S
H1500 N1497 0.984 1_545 S
H1501 N1497 0.985 . S
H1502 N1496 0.984 . S
H1503 N1496 0.984 1_565 S
H1504 N1492 0.984 . S
H1505 N1492 0.985 . S
C1506 C1507 1.363 . S
C1506 C1512 1.379 . S
C1506 N1514 1.356 . S
C1507 C1506 1.363 . S
C1507 C1513 1.363 1_545 S
C1508 C1509 1.363 . S
C1508 C1513 1.379 . S
C1508 N1515 1.356 . S
C1509 C1508 1.363 . S
C1509 C1512 1.363 1_565 S
N1510 C1512 1.356 1_565 S
N1510 H1522 0.984 1_565 S
N1510 H1523 0.985 . S
N1511 C1513 1.356 1_545 S
N1511 H1516 0.984 . S
N1511 H1517 0.985 1_545 S
C1512 C1506 1.379 . S
C1512 C1509 1.363 1_545 S
C1512 N1510 1.356 1_545 S
C1513 C1507 1.363 1_565 S
C1513 C1508 1.379 . S
C1513 N1511 1.356 1_565 S
N1514 C1506 1.356 . S
N1514 H1520 0.984 . S
N1514 H1521 0.984 . S
N1515 C1508 1.356 . S
N1515 H1518 0.984 . S
N1515 H1519 0.985 . S
H1516 N1511 0.984 . S
H1517 N1511 0.985 1_565 S
H1518 N1515 0.984 . S
H1519 N1515 0.985 . S
H1520 N1514 0.984 . S
H1521 N1514 0.984 . S
H1522 N1510 0.984 1_545 S
H1523 N1510 0.985 . S
C1524 C1525 1.363 . S
C1524 C1530 1.379 . S
C1524 N1532 1.356 . S
C1525 C1524 1.363 . S
C1525 C1531 1.363 1_545 S
C1526 C1527 1.363 . S
C1526 C1531 1.379 . S
C1526 N1533 1.356 . S
C1527 C1526 1.363 . S
C1527 C1530 1.363 1_565 S
N1528 C1530 1.356 . S
N1528 H1540 0.984 . S
N1528 H1541 0.985 1_545 S
N1529 C1531 1.356 . S
N1529 H1534 0.984 1_565 S
N1529 H1535 0.985 . S
C1530 C1524 1.379 . S
C1530 C1527 1.363 1_545 S
C1530 N1528 1.356 . S
C1531 C1525 1.363 1_565 S
C1531 C1526 1.379 . S
C1531 N1529 1.356 . S
N1532 C1524 1.356 . S
N1532 H1538 0.984 . S
N1532 H1539 0.984 . S
N1533 C1526 1.356 . S
N1533 H1536 0.984 . S
N1533 H1537 0.985 . S
H1534 N1529 0.984 1_545 S
H1535 N1529 0.985 . S
H1536 N1533 0.984 . S
H1537 N1533 0.985 . S
H1538 N1532 0.984 . S
H1539 N1532 0.984 . S
H1540 N1528 0.984 . S
H1541 N1528 0.985 1_565 S
C1542 C1543 1.363 . S
C1542 C1548 1.379 . S
C1542 N1550 1.356 . S
C1543 C1542 1.363 . S
C1543 C1549 1.363 1_545 S
C1544 C1545 1.363 . S
C1544 C1549 1.379 . S
C1544 N1551 1.356 . S
C1545 C1544 1.363 . S
C1545 C1548 1.363 1_565 S
N1546 C1548 1.356 1_565 S
N1546 H1558 0.984 1_565 S
N1546 H1559 0.985 . S
N1547 C1549 1.356 1_545 S
N1547 H1552 0.984 . S
N1547 H1553 0.985 1_545 S
C1548 C1542 1.379 . S
C1548 C1545 1.363 1_545 S
C1548 N1546 1.356 1_545 S
C1549 C1543 1.363 1_565 S
C1549 C1544 1.379 . S
C1549 N1547 1.356 1_565 S
N1550 C1542 1.356 . S
N1550 H1556 0.984 . S
N1550 H1557 0.984 . S
N1551 C1544 1.356 . S
N1551 H1554 0.984 . S
N1551 H1555 0.985 . S
H1552 N1547 0.984 . S
H1553 N1547 0.985 1_565 S
H1554 N1551 0.984 . S
H1555 N1551 0.985 . S
H1556 N1550 0.984 . S
H1557 N1550 0.984 . S
H1558 N1546 0.984 1_545 S
H1559 N1546 0.985 . S
C1560 C1561 1.363 . S
C1560 C1566 1.379 . S
C1560 N1568 1.356 . S
C1561 C1560 1.363 . S
C1561 C1567 1.363 . S
C1562 C1563 1.363 . S
C1562 C1567 1.379 . S
C1562 N1569 1.356 . S
C1563 C1562 1.363 . S
C1563 C1566 1.363 . S
N1564 C1566 1.356 . S
N1564 H1576 0.984 . S
N1564 H1577 0.985 . S
N1565 C1567 1.356 . S
N1565 H1570 0.984 . S
N1565 H1571 0.985 . S
C1566 C1560 1.379 . S
C1566 C1563 1.363 . S
C1566 N1564 1.356 . S
C1567 C1561 1.363 . S
C1567 C1562 1.379 . S
C1567 N1565 1.356 . S
N1568 C1560 1.356 . S
N1568 H1574 0.984 . S
N1568 H1575 0.984 . S
N1569 C1562 1.356 . S
N1569 H1572 0.984 . S
N1569 H1573 0.985 . S
H1570 N1565 0.984 . S
H1571 N1565 0.985 . S
H1572 N1569 0.984 . S
H1573 N1569 0.985 . S
H1574 N1568 0.984 . S
H1575 N1568 0.984 . S
H1576 N1564 0.984 . S
H1577 N1564 0.985 . S
C1578 C1579 1.363 . S
C1578 C1584 1.379 . S
C1578 N1586 1.356 . S
C1579 C1578 1.363 . S
C1579 C1585 1.363 . S
C1580 C1581 1.363 . S
C1580 C1585 1.379 . S
C1580 N1587 1.356 . S
C1581 C1580 1.363 . S
C1581 C1584 1.363 . S
N1582 C1584 1.356 . S
N1582 H1594 0.984 . S
N1582 H1595 0.985 . S
N1583 C1585 1.356 . S
N1583 H1588 0.984 . S
N1583 H1589 0.985 . S
C1584 C1578 1.379 . S
C1584 C1581 1.363 . S
C1584 N1582 1.356 . S
C1585 C1579 1.363 . S
C1585 C1580 1.379 . S
C1585 N1583 1.356 . S
N1586 C1578 1.356 . S
N1586 H1592 0.984 . S
N1586 H1593 0.984 . S
N1587 C1580 1.356 . S
N1587 H1590 0.984 . S
N1587 H1591 0.985 . S
H1588 N1583 0.984 . S
H1589 N1583 0.985 . S
H1590 N1587 0.984 . S
H1591 N1587 0.985 . S
H1592 N1586 0.984 . S
H1593 N1586 0.984 . S
H1594 N1582 0.984 . S
H1595 N1582 0.985 . S
C1596 C1597 1.363 . S
C1596 C1602 1.379 . S
C1596 N1604 1.356 . S
C1597 C1596 1.363 . S
C1597 C1603 1.363 . S
C1598 C1599 1.363 . S
C1598 C1603 1.379 . S
C1598 N1605 1.356 . S
C1599 C1598 1.363 . S
C1599 C1602 1.363 . S
N1600 C1602 1.356 . S
N1600 H1612 0.984 . S
N1600 H1613 0.985 . S
N1601 C1603 1.356 . S
N1601 H1606 0.984 . S
N1601 H1607 0.985 . S
C1602 C1596 1.379 . S
C1602 C1599 1.363 . S
C1602 N1600 1.356 . S
C1603 C1597 1.363 . S
C1603 C1598 1.379 . S
C1603 N1601 1.356 . S
N1604 C1596 1.356 . S
N1604 H1610 0.984 . S
N1604 H1611 0.984 . S
N1605 C1598 1.356 . S
N1605 H1608 0.984 . S
N1605 H1609 0.985 . S
H1606 N1601 0.984 . S
H1607 N1601 0.985 . S
H1608 N1605 0.984 . S
H1609 N1605 0.985 . S
H1610 N1604 0.984 . S
H1611 N1604 0.984 . S
H1612 N1600 0.984 . S
H1613 N1600 0.985 . S
C1614 C1615 1.363 . S
C1614 C1620 1.379 . S
C1614 N1622 1.356 . S
C1615 C1614 1.363 . S
C1615 C1621 1.363 . S
C1616 C1617 1.363 . S
C1616 C1621 1.379 . S
C1616 N1623 1.356 . S
C1617 C1616 1.363 . S
C1617 C1620 1.363 . S
N1618 C1620 1.356 . S
N1618 H1630 0.984 . S
N1618 H1631 0.985 . S
N1619 C1621 1.356 . S
N1619 H1624 0.984 . S
N1619 H1625 0.985 . S
C1620 C1614 1.379 . S
C1620 C1617 1.363 . S
C1620 N1618 1.356 . S
C1621 C1615 1.363 . S
C1621 C1616 1.379 . S
C1621 N1619 1.356 . S
N1622 C1614 1.356 . S
N1622 H1628 0.984 . S
N1622 H1629 0.984 . S
N1623 C1616 1.356 . S
N1623 H1626 0.984 . S
N1623 H1627 0.985 . S
H1624 N1619 0.984 . S
H1625 N1619 0.985 . S
H1626 N1623 0.984 . S
H1627 N1623 0.985 . S
H1628 N1622 0.984 . S
H1629 N1622 0.984 . S
H1630 N1618 0.984 . S
H1631 N1618 0.985 . S
C1632 C1633 1.363 . S
C1632 C1638 1.379 1_556 S
C1632 N1640 1.356 . S
C1633 C1632 1.363 . S
C1633 C1639 1.363 . S
C1634 C1635 1.363 . S
C1634 C1639 1.379 1_554 S
C1634 N1641 1.356 . S
C1635 C1634 1.363 . S
C1635 C1638 1.363 . S
N1636 C1638 1.356 . S
N1636 H1648 0.984 . S
N1636 H1649 0.985 . S
N1637 C1639 1.356 . S
N1637 H1642 0.984 . S
N1637 H1643 0.985 . S
C1638 C1632 1.379 1_554 S
C1638 C1635 1.363 . S
C1638 N1636 1.356 . S
C1639 C1633 1.363 . S
C1639 C1634 1.379 1_556 S
C1639 N1637 1.356 . S
N1640 C1632 1.356 . S
N1640 H1646 0.984 . S
N1640 H1647 0.984 . S
N1641 C1634 1.356 . S
N1641 H1644 0.984 . S
N1641 H1645 0.985 . S
H1642 N1637 0.984 . S
H1643 N1637 0.985 . S
H1644 N1641 0.984 . S
H1645 N1641 0.985 . S
H1646 N1640 0.984 . S
H1647 N1640 0.984 . S
H1648 N1636 0.984 . S
H1649 N1636 0.985 . S
C1650 C1651 1.363 . S
C1650 C1656 1.379 1_556 S
C1650 N1658 1.356 . S
C1651 C1650 1.363 . S
C1651 C1657 1.363 . S
C1652 C1653 1.363 . S
C1652 C1657 1.379 1_554 S
C1652 N1659 1.356 . S
C1653 C1652 1.363 . S
C1653 C1656 1.363 . S
N1654 C1656 1.356 . S
N1654 H1666 0.984 . S
N1654 H1667 0.985 . S
N1655 C1657 1.356 . S
N1655 H1660 0.984 . S
N1655 H1661 0.985 . S
C1656 C1650 1.379 1_554 S
C1656 C1653 1.363 . S
C1656 N1654 1.356 . S
C1657 C1651 1.363 . S
C1657 C1652 1.379 1_556 S
C1657 N1655 1.356 . S
N1658 C1650 1.356 . S
N1658 H1664 0.984 . S
N1658 H1665 0.984 . S
N1659 C1652 1.356 . S
N1659 H1662 0.984 . S
N1659 H1663 0.985 . S
H1660 N1655 0.984 . S
H1661 N1655 0.985 . S
H1662 N1659 0.984 . S
H1663 N1659 0.985 . S
H1664 N1658 0.984 . S
H1665 N1658 0.984 . S
H1666 N1654 0.984 . S
H1667 N1654 0.985 . S
C1668 C1669 1.363 . S
C1668 C1674 1.379 . S
C1668 N1676 1.356 . S
C1669 C1668 1.363 . S
C1669 C1675 1.363 . S
C1670 C1671 1.363 . S
C1670 C1675 1.379 . S
C1670 N1677 1.356 . S
C1671 C1670 1.363 . S
C1671 C1674 1.363 . S
N1672 C1674 1.356 . S
N1672 H1684 0.984 . S
N1672 H1685 0.985 . S
N1673 C1675 1.356 . S
N1673 H1678 0.984 . S
N1673 H1679 0.985 . S
C1674 C1668 1.379 . S
C1674 C1671 1.363 . S
C1674 N1672 1.356 . S
C1675 C1669 1.363 . S
C1675 C1670 1.379 . S
C1675 N1673 1.356 . S
N1676 C1668 1.356 . S
N1676 H1682 0.984 . S
N1676 H1683 0.984 . S
N1677 C1670 1.356 . S
N1677 H1680 0.984 . S
N1677 H1681 0.985 . S
H1678 N1673 0.984 . S
H1679 N1673 0.985 . S
H1680 N1677 0.984 . S
H1681 N1677 0.985 . S
H1682 N1676 0.984 . S
H1683 N1676 0.984 . S
H1684 N1672 0.984 . S
H1685 N1672 0.985 . S
C1686 C1687 1.363 . S
C1686 C1692 1.379 . S
C1686 N1694 1.356 . S
C1687 C1686 1.363 . S
C1687 C1693 1.363 . S
C1688 C1689 1.363 . S
C1688 C1693 1.379 . S
C1688 N1695 1.356 . S
C1689 C1688 1.363 . S
C1689 C1692 1.363 . S
N1690 C1692 1.356 . S
N1690 H1702 0.984 . S
N1690 H1703 0.985 . S
N1691 C1693 1.356 . S
N1691 H1696 0.984 . S
N1691 H1697 0.985 . S
C1692 C1686 1.379 . S
C1692 C1689 1.363 . S
C1692 N1690 1.356 . S
C1693 C1687 1.363 . S
C1693 C1688 1.379 . S
C1693 N1691 1.356 . S
N1694 C1686 1.356 . S
N1694 H1700 0.984 . S
N1694 H1701 0.984 . S
N1695 C1688 1.356 . S
N1695 H1698 0.984 . S
N1695 H1699 0.985 . S
H1696 N1691 0.984 . S
H1697 N1691 0.985 . S
H1698 N1695 0.984 . S
H1699 N1695 0.985 . S
H1700 N1694 0.984 . S
H1701 N1694 0.984 . S
H1702 N1690 0.984 . S
H1703 N1690 0.985 . S
C1704 C1705 1.363 . S
C1704 C1710 1.379 1_554 S
C1704 N1712 1.356 . S
C1705 C1704 1.363 . S
C1705 C1711 1.363 . S
C1706 C1707 1.363 . S
C1706 C1711 1.379 1_556 S
C1706 N1713 1.356 . S
C1707 C1706 1.363 . S
C1707 C1710 1.363 . S
N1708 C1710 1.356 . S
N1708 H1720 0.984 . S
N1708 H1721 0.985 . S
N1709 C1711 1.356 . S
N1709 H1714 0.984 . S
N1709 H1715 0.985 . S
C1710 C1704 1.379 1_556 S
C1710 C1707 1.363 . S
C1710 N1708 1.356 . S
C1711 C1705 1.363 . S
C1711 C1706 1.379 1_554 S
C1711 N1709 1.356 . S
N1712 C1704 1.356 . S
N1712 H1718 0.984 . S
N1712 H1719 0.984 . S
N1713 C1706 1.356 . S
N1713 H1716 0.984 . S
N1713 H1717 0.985 . S
H1714 N1709 0.984 . S
H1715 N1709 0.985 . S
H1716 N1713 0.984 . S
H1717 N1713 0.985 . S
H1718 N1712 0.984 . S
H1719 N1712 0.984 . S
H1720 N1708 0.984 . S
H1721 N1708 0.985 . S
C1722 C1723 1.363 . S
C1722 C1728 1.379 1_556 S
C1722 N1730 1.356 . S
C1723 C1722 1.363 . S
C1723 C1729 1.363 . S
C1724 C1725 1.363 . S
C1724 C1729 1.379 1_554 S
C1724 N1731 1.356 . S
C1725 C1724 1.363 . S
C1725 C1728 1.363 . S
N1726 C1728 1.356 . S
N1726 H1738 0.984 . S
N1726 H1739 0.985 . S
N1727 C1729 1.356 . S
N1727 H1732 0.984 . S
N1727 H1733 0.985 . S
C1728 C1722 1.379 1_554 S
C1728 C1725 1.363 . S
C1728 N1726 1.356 . S
C1729 C1723 1.363 . S
C1729 C1724 1.379 1_556 S
C1729 N1727 1.356 . S
N1730 C1722 1.356 . S
N1730 H1736 0.984 . S
N1730 H1737 0.984 . S
N1731 C1724 1.356 . S
N1731 H1734 0.984 . S
N1731 H1735 0.985 . S
H1732 N1727 0.984 . S
H1733 N1727 0.985 . S
H1734 N1731 0.984 . S
H1735 N1731 0.985 . S
H1736 N1730 0.984 . S
H1737 N1730 0.984 . S
H1738 N1726 0.984 . S
H1739 N1726 0.985 . S
C1740 C1741 1.363 . S
C1740 C1746 1.379 . S
C1740 N1748 1.356 . S
C1741 C1740 1.363 . S
C1741 C1747 1.363 . S
C1742 C1743 1.363 . S
C1742 C1747 1.379 . S
C1742 N1749 1.356 . S
C1743 C1742 1.363 . S
C1743 C1746 1.363 . S
N1744 C1746 1.356 . S
N1744 H1756 0.984 . S
N1744 H1757 0.985 . S
N1745 C1747 1.356 . S
N1745 H1750 0.984 . S
N1745 H1751 0.985 . S
C1746 C1740 1.379 . S
C1746 C1743 1.363 . S
C1746 N1744 1.356 . S
C1747 C1741 1.363 . S
C1747 C1742 1.379 . S
C1747 N1745 1.356 . S
N1748 C1740 1.356 . S
N1748 H1754 0.984 . S
N1748 H1755 0.984 . S
N1749 C1742 1.356 . S
N1749 H1752 0.984 . S
N1749 H1753 0.985 . S
H1750 N1745 0.984 . S
H1751 N1745 0.985 . S
H1752 N1749 0.984 . S
H1753 N1749 0.985 . S
H1754 N1748 0.984 . S
H1755 N1748 0.984 . S
H1756 N1744 0.984 . S
H1757 N1744 0.985 . S
C1758 C1759 1.363 . S
C1758 C1764 1.379 . S
C1758 N1766 1.356 . S
C1759 C1758 1.363 . S
C1759 C1765 1.363 . S
C1760 C1761 1.363 . S
C1760 C1765 1.379 . S
C1760 N1767 1.356 . S
C1761 C1760 1.363 . S
C1761 C1764 1.363 . S
N1762 C1764 1.356 . S
N1762 H1774 0.984 . S
N1762 H1775 0.985 . S
N1763 C1765 1.356 . S
N1763 H1768 0.984 . S
N1763 H1769 0.985 . S
C1764 C1758 1.379 . S
C1764 C1761 1.363 . S
C1764 N1762 1.356 . S
C1765 C1759 1.363 . S
C1765 C1760 1.379 . S
C1765 N1763 1.356 . S
N1766 C1758 1.356 . S
N1766 H1772 0.984 . S
N1766 H1773 0.984 . S
N1767 C1760 1.356 . S
N1767 H1770 0.984 . S
N1767 H1771 0.985 . S
H1768 N1763 0.984 . S
H1769 N1763 0.985 . S
H1770 N1767 0.984 . S
H1771 N1767 0.985 . S
H1772 N1766 0.984 . S
H1773 N1766 0.984 . S
H1774 N1762 0.984 . S
H1775 N1762 0.985 . S
C1776 C1777 1.363 . S
C1776 C1782 1.379 1_655 S
C1776 N1784 1.356 . S
C1777 C1776 1.363 . S
C1777 C1783 1.363 1_565 S
C1778 C1779 1.363 . S
C1778 C1783 1.379 1_455 S
C1778 N1785 1.356 . S
C1779 C1778 1.363 . S
C1779 C1782 1.363 1_545 S
N1780 C1782 1.356 . S
N1780 H1792 0.984 . S
N1780 H1793 0.985 1_565 S
N1781 C1783 1.356 . S
N1781 H1786 0.984 1_545 S
N1781 H1787 0.985 . S
C1782 C1776 1.379 1_455 S
C1782 C1779 1.363 1_565 S
C1782 N1780 1.356 . S
C1783 C1777 1.363 1_545 S
C1783 C1778 1.379 1_655 S
C1783 N1781 1.356 . S
N1784 C1776 1.356 . S
N1784 H1790 0.984 . S
N1784 H1791 0.984 . S
N1785 C1778 1.356 . S
N1785 H1788 0.984 . S
N1785 H1789 0.985 . S
H1786 N1781 0.984 1_565 S
H1787 N1781 0.985 . S
H1788 N1785 0.984 . S
H1789 N1785 0.985 . S
H1790 N1784 0.984 . S
H1791 N1784 0.984 . S
H1792 N1780 0.984 . S
H1793 N1780 0.985 1_545 S
C1794 C1795 1.363 . S
C1794 C1800 1.379 1_655 S
C1794 N1802 1.356 . S
C1795 C1794 1.363 . S
C1795 C1801 1.363 1_545 S
C1796 C1797 1.363 . S
C1796 C1801 1.379 1_455 S
C1796 N1803 1.356 . S
C1797 C1796 1.363 . S
C1797 C1800 1.363 1_565 S
N1798 C1800 1.356 . S
N1798 H1810 0.984 . S
N1798 H1811 0.985 1_545 S
N1799 C1801 1.356 . S
N1799 H1804 0.984 1_565 S
N1799 H1805 0.985 . S
C1800 C1794 1.379 1_455 S
C1800 C1797 1.363 1_545 S
C1800 N1798 1.356 . S
C1801 C1795 1.363 1_565 S
C1801 C1796 1.379 1_655 S
C1801 N1799 1.356 . S
N1802 C1794 1.356 . S
N1802 H1808 0.984 . S
N1802 H1809 0.984 . S
N1803 C1796 1.356 . S
N1803 H1806 0.984 . S
N1803 H1807 0.985 . S
H1804 N1799 0.984 1_545 S
H1805 N1799 0.985 . S
H1806 N1803 0.984 . S
H1807 N1803 0.985 . S
H1808 N1802 0.984 . S
H1809 N1802 0.984 . S
H1810 N1798 0.984 . S
H1811 N1798 0.985 1_565 S
C1812 C1813 1.363 1_565 S
C1812 C1818 1.379 1_455 S
C1812 N1820 1.356 . S
C1813 C1812 1.363 1_545 S
C1813 C1819 1.363 . S
C1814 C1815 1.363 1_545 S
C1814 C1819 1.379 1_655 S
C1814 N1821 1.356 . S
C1815 C1814 1.363 1_565 S
C1815 C1818 1.363 . S
N1816 C1818 1.356 . S
N1816 H1828 0.984 . S
N1816 H1829 0.985 . S
N1817 C1819 1.356 . S
N1817 H1822 0.984 . S
N1817 H1823 0.985 . S
C1818 C1812 1.379 1_655 S
C1818 C1815 1.363 . S
C1818 N1816 1.356 . S
C1819 C1813 1.363 . S
C1819 C1814 1.379 1_455 S
C1819 N1817 1.356 . S
N1820 C1812 1.356 . S
N1820 H1826 0.984 . S
N1820 H1827 0.984 1_565 S
N1821 C1814 1.356 . S
N1821 H1824 0.984 1_545 S
N1821 H1825 0.985 . S
H1822 N1817 0.984 . S
H1823 N1817 0.985 . S
H1824 N1821 0.984 1_565 S
H1825 N1821 0.985 . S
H1826 N1820 0.984 . S
H1827 N1820 0.984 1_545 S
H1828 N1816 0.984 . S
H1829 N1816 0.985 . S
C1830 C1831 1.363 . S
C1830 C1836 1.379 1_655 S
C1830 N1838 1.356 . S
C1831 C1830 1.363 . S
C1831 C1837 1.363 1_545 S
C1832 C1833 1.363 . S
C1832 C1837 1.379 1_455 S
C1832 N1839 1.356 . S
C1833 C1832 1.363 . S
C1833 C1836 1.363 1_565 S
N1834 C1836 1.356 . S
N1834 H1846 0.984 . S
N1834 H1847 0.985 1_545 S
N1835 C1837 1.356 . S
N1835 H1840 0.984 1_565 S
N1835 H1841 0.985 . S
C1836 C1830 1.379 1_455 S
C1836 C1833 1.363 1_545 S
C1836 N1834 1.356 . S
C1837 C1831 1.363 1_565 S
C1837 C1832 1.379 1_655 S
C1837 N1835 1.356 . S
N1838 C1830 1.356 . S
N1838 H1844 0.984 . S
N1838 H1845 0.984 . S
N1839 C1832 1.356 . S
N1839 H1842 0.984 . S
N1839 H1843 0.985 . S
H1840 N1835 0.984 1_545 S
H1841 N1835 0.985 . S
H1842 N1839 0.984 . S
H1843 N1839 0.985 . S
H1844 N1838 0.984 . S
H1845 N1838 0.984 . S
H1846 N1834 0.984 . S
H1847 N1834 0.985 1_565 S
C1848 C1849 1.363 . S
C1848 C1854 1.379 . S
C1848 N1856 1.356 . S
C1849 C1848 1.363 . S
C1849 C1855 1.363 . S
C1850 C1851 1.363 . S
C1850 C1855 1.379 . S
C1850 N1857 1.356 . S
C1851 C1850 1.363 . S
C1851 C1854 1.363 . S
N1852 C1854 1.356 . S
N1852 H1864 0.984 . S
N1852 H1865 0.985 . S
N1853 C1855 1.356 . S
N1853 H1858 0.984 . S
N1853 H1859 0.985 . S
C1854 C1848 1.379 . S
C1854 C1851 1.363 . S
C1854 N1852 1.356 . S
C1855 C1849 1.363 . S
C1855 C1850 1.379 . S
C1855 N1853 1.356 . S
N1856 C1848 1.356 . S
N1856 H1862 0.984 . S
N1856 H1863 0.984 . S
N1857 C1850 1.356 . S
N1857 H1860 0.984 . S
N1857 H1861 0.985 . S
H1858 N1853 0.984 . S
H1859 N1853 0.985 . S
H1860 N1857 0.984 . S
H1861 N1857 0.985 . S
H1862 N1856 0.984 . S
H1863 N1856 0.984 . S
H1864 N1852 0.984 . S
H1865 N1852 0.985 . S
C1866 C1867 1.363 . S
C1866 C1872 1.379 . S
C1866 N1874 1.356 . S
C1867 C1866 1.363 . S
C1867 C1873 1.363 . S
C1868 C1869 1.363 . S
C1868 C1873 1.379 . S
C1868 N1875 1.356 . S
C1869 C1868 1.363 . S
C1869 C1872 1.363 . S
N1870 C1872 1.356 . S
N1870 H1882 0.984 . S
N1870 H1883 0.985 . S
N1871 C1873 1.356 . S
N1871 H1876 0.984 . S
N1871 H1877 0.985 . S
C1872 C1866 1.379 . S
C1872 C1869 1.363 . S
C1872 N1870 1.356 . S
C1873 C1867 1.363 . S
C1873 C1868 1.379 . S
C1873 N1871 1.356 . S
N1874 C1866 1.356 . S
N1874 H1880 0.984 . S
N1874 H1881 0.984 . S
N1875 C1868 1.356 . S
N1875 H1878 0.984 . S
N1875 H1879 0.985 . S
H1876 N1871 0.984 . S
H1877 N1871 0.985 . S
H1878 N1875 0.984 . S
H1879 N1875 0.985 . S
H1880 N1874 0.984 . S
H1881 N1874 0.984 . S
H1882 N1870 0.984 . S
H1883 N1870 0.985 . S
C1884 C1885 1.363 . S
C1884 C1890 1.379 . S
C1884 N1892 1.356 . S
C1885 C1884 1.363 . S
C1885 C1891 1.363 . S
C1886 C1887 1.363 . S
C1886 C1891 1.379 . S
C1886 N1893 1.356 . S
C1887 C1886 1.363 . S
C1887 C1890 1.363 . S
N1888 C1890 1.356 . S
N1888 H1900 0.984 . S
N1888 H1901 0.985 . S
N1889 C1891 1.356 . S
N1889 H1894 0.984 . S
N1889 H1895 0.985 . S
C1890 C1884 1.379 . S
C1890 C1887 1.363 . S
C1890 N1888 1.356 . S
C1891 C1885 1.363 . S
C1891 C1886 1.379 . S
C1891 N1889 1.356 . S
N1892 C1884 1.356 . S
N1892 H1898 0.984 . S
N1892 H1899 0.984 . S
N1893 C1886 1.356 . S
N1893 H1896 0.984 . S
N1893 H1897 0.985 . S
H1894 N1889 0.984 . S
H1895 N1889 0.985 . S
H1896 N1893 0.984 . S
H1897 N1893 0.985 . S
H1898 N1892 0.984 . S
H1899 N1892 0.984 . S
H1900 N1888 0.984 . S
H1901 N1888 0.985 . S
C1902 C1903 1.363 . S
C1902 C1908 1.379 . S
C1902 N1910 1.356 . S
C1903 C1902 1.363 . S
C1903 C1909 1.363 . S
C1904 C1905 1.363 . S
C1904 C1909 1.379 . S
C1904 N1911 1.356 . S
C1905 C1904 1.363 . S
C1905 C1908 1.363 . S
N1906 C1908 1.356 . S
N1906 H1918 0.984 . S
N1906 H1919 0.985 . S
N1907 C1909 1.356 . S
N1907 H1912 0.984 . S
N1907 H1913 0.985 . S
C1908 C1902 1.379 . S
C1908 C1905 1.363 . S
C1908 N1906 1.356 . S
C1909 C1903 1.363 . S
C1909 C1904 1.379 . S
C1909 N1907 1.356 . S
N1910 C1902 1.356 . S
N1910 H1916 0.984 . S
N1910 H1917 0.984 . S
N1911 C1904 1.356 . S
N1911 H1914 0.984 . S
N1911 H1915 0.985 . S
H1912 N1907 0.984 . S
H1913 N1907 0.985 . S
H1914 N1911 0.984 . S
H1915 N1911 0.985 . S
H1916 N1910 0.984 . S
H1917 N1910 0.984 . S
H1918 N1906 0.984 . S
H1919 N1906 0.985 . S
C1920 C1921 1.363 . S
C1920 C1926 1.379 . S
C1920 N1928 1.356 . S
C1921 C1920 1.363 . S
C1921 C1927 1.363 . S
C1922 C1923 1.363 . S
C1922 C1927 1.379 . S
C1922 N1929 1.356 . S
C1923 C1922 1.363 . S
C1923 C1926 1.363 . S
N1924 C1926 1.356 . S
N1924 H1936 0.984 . S
N1924 H1937 0.985 . S
N1925 C1927 1.356 . S
N1925 H1930 0.984 . S
N1925 H1931 0.985 . S
C1926 C1920 1.379 . S
C1926 C1923 1.363 . S
C1926 N1924 1.356 . S
C1927 C1921 1.363 . S
C1927 C1922 1.379 . S
C1927 N1925 1.356 . S
N1928 C1920 1.356 . S
N1928 H1934 0.984 . S
N1928 H1935 0.984 . S
N1929 C1922 1.356 . S
N1929 H1932 0.984 . S
N1929 H1933 0.985 . S
H1930 N1925 0.984 . S
H1931 N1925 0.985 . S
H1932 N1929 0.984 . S
H1933 N1929 0.985 . S
H1934 N1928 0.984 . S
H1935 N1928 0.984 . S
H1936 N1924 0.984 . S
H1937 N1924 0.985 . S
C1938 C1939 1.363 . S
C1938 C1944 1.379 . S
C1938 N1946 1.356 . S
C1939 C1938 1.363 . S
C1939 C1945 1.363 . S
C1940 C1941 1.363 . S
C1940 C1945 1.379 . S
C1940 N1947 1.356 . S
C1941 C1940 1.363 . S
C1941 C1944 1.363 . S
N1942 C1944 1.356 . S
N1942 H1954 0.984 . S
N1942 H1955 0.985 . S
N1943 C1945 1.356 . S
N1943 H1948 0.984 . S
N1943 H1949 0.985 . S
C1944 C1938 1.379 . S
C1944 C1941 1.363 . S
C1944 N1942 1.356 . S
C1945 C1939 1.363 . S
C1945 C1940 1.379 . S
C1945 N1943 1.356 . S
N1946 C1938 1.356 . S
N1946 H1952 0.984 . S
N1946 H1953 0.984 . S
N1947 C1940 1.356 . S
N1947 H1950 0.984 . S
N1947 H1951 0.985 . S
H1948 N1943 0.984 . S
H1949 N1943 0.985 . S
H1950 N1947 0.984 . S
H1951 N1947 0.985 . S
H1952 N1946 0.984 . S
H1953 N1946 0.984 . S
H1954 N1942 0.984 . S
H1955 N1942 0.985 . S
C1956 C1957 1.363 . S
C1956 C1962 1.379 . S
C1956 N1964 1.356 . S
C1957 C1956 1.363 . S
C1957 C1963 1.363 . S
C1958 C1959 1.363 . S
C1958 C1963 1.379 . S
C1958 N1965 1.356 . S
C1959 C1958 1.363 . S
C1959 C1962 1.363 . S
N1960 C1962 1.356 . S
N1960 H1972 0.984 . S
N1960 H1973 0.985 . S
N1961 C1963 1.356 . S
N1961 H1966 0.984 . S
N1961 H1967 0.985 . S
C1962 C1956 1.379 . S
C1962 C1959 1.363 . S
C1962 N1960 1.356 . S
C1963 C1957 1.363 . S
C1963 C1958 1.379 . S
C1963 N1961 1.356 . S
N1964 C1956 1.356 . S
N1964 H1970 0.984 . S
N1964 H1971 0.984 . S
N1965 C1958 1.356 . S
N1965 H1968 0.984 . S
N1965 H1969 0.985 . S
H1966 N1961 0.984 . S
H1967 N1961 0.985 . S
H1968 N1965 0.984 . S
H1969 N1965 0.985 . S
H1970 N1964 0.984 . S
H1971 N1964 0.984 . S
H1972 N1960 0.984 . S
H1973 N1960 0.985 . S
C1974 C1975 1.363 . S
C1974 C1980 1.379 . S
C1974 N1982 1.356 . S
C1975 C1974 1.363 . S
C1975 C1981 1.363 . S
C1976 C1977 1.363 . S
C1976 C1981 1.379 . S
C1976 N1983 1.356 . S
C1977 C1976 1.363 . S
C1977 C1980 1.363 . S
N1978 C1980 1.356 . S
N1978 H1990 0.984 . S
N1978 H1991 0.985 . S
N1979 C1981 1.356 . S
N1979 H1984 0.984 . S
N1979 H1985 0.985 . S
C1980 C1974 1.379 . S
C1980 C1977 1.363 . S
C1980 N1978 1.356 . S
C1981 C1975 1.363 . S
C1981 C1976 1.379 . S
C1981 N1979 1.356 . S
N1982 C1974 1.356 . S
N1982 H1988 0.984 . S
N1982 H1989 0.984 . S
N1983 C1976 1.356 . S
N1983 H1986 0.984 . S
N1983 H1987 0.985 . S
H1984 N1979 0.984 . S
H1985 N1979 0.985 . S
H1986 N1983 0.984 . S
H1987 N1983 0.985 . S
H1988 N1982 0.984 . S
H1989 N1982 0.984 . S
H1990 N1978 0.984 . S
H1991 N1978 0.985 . S
C1992 C1993 1.363 . S
C1992 C1998 1.379 . S
C1992 N2000 1.356 . S
C1993 C1992 1.363 . S
C1993 C1999 1.363 . S
C1994 C1995 1.363 . S
C1994 C1999 1.379 . S
C1994 N2001 1.356 . S
C1995 C1994 1.363 . S
C1995 C1998 1.363 . S
N1996 C1998 1.356 . S
N1996 H2008 0.984 . S
N1996 H2009 0.985 . S
N1997 C1999 1.356 . S
N1997 H2002 0.984 . S
N1997 H2003 0.985 . S
C1998 C1992 1.379 . S
C1998 C1995 1.363 . S
C1998 N1996 1.356 . S
C1999 C1993 1.363 . S
C1999 C1994 1.379 . S
C1999 N1997 1.356 . S
N2000 C1992 1.356 . S
N2000 H2006 0.984 . S
N2000 H2007 0.984 . S
N2001 C1994 1.356 . S
N2001 H2004 0.984 . S
N2001 H2005 0.985 . S
H2002 N1997 0.984 . S
H2003 N1997 0.985 . S
H2004 N2001 0.984 . S
H2005 N2001 0.985 . S
H2006 N2000 0.984 . S
H2007 N2000 0.984 . S
H2008 N1996 0.984 . S
H2009 N1996 0.985 . S
C2010 C2011 1.363 . S
C2010 C2016 1.379 . S
C2010 N2018 1.356 . S
C2011 C2010 1.363 . S
C2011 C2017 1.363 . S
C2012 C2013 1.363 . S
C2012 C2017 1.379 . S
C2012 N2019 1.356 . S
C2013 C2012 1.363 . S
C2013 C2016 1.363 . S
N2014 C2016 1.356 . S
N2014 H2026 0.984 . S
N2014 H2027 0.985 . S
N2015 C2017 1.356 . S
N2015 H2020 0.984 . S
N2015 H2021 0.985 . S
C2016 C2010 1.379 . S
C2016 C2013 1.363 . S
C2016 N2014 1.356 . S
C2017 C2011 1.363 . S
C2017 C2012 1.379 . S
C2017 N2015 1.356 . S
N2018 C2010 1.356 . S
N2018 H2024 0.984 . S
N2018 H2025 0.984 . S
N2019 C2012 1.356 . S
N2019 H2022 0.984 . S
N2019 H2023 0.985 . S
H2020 N2015 0.984 . S
H2021 N2015 0.985 . S
H2022 N2019 0.984 . S
H2023 N2019 0.985 . S
H2024 N2018 0.984 . S
H2025 N2018 0.984 . S
H2026 N2014 0.984 . S
H2027 N2014 0.985 . S
C2028 C2029 1.363 . S
C2028 C2034 1.379 . S
C2028 N2036 1.356 . S
C2029 C2028 1.363 . S
C2029 C2035 1.363 . S
C2030 C2031 1.363 . S
C2030 C2035 1.379 . S
C2030 N2037 1.356 . S
C2031 C2030 1.363 . S
C2031 C2034 1.363 . S
N2032 C2034 1.356 . S
N2032 H2044 0.984 . S
N2032 H2045 0.985 . S
N2033 C2035 1.356 . S
N2033 H2038 0.984 . S
N2033 H2039 0.985 . S
C2034 C2028 1.379 . S
C2034 C2031 1.363 . S
C2034 N2032 1.356 . S
C2035 C2029 1.363 . S
C2035 C2030 1.379 . S
C2035 N2033 1.356 . S
N2036 C2028 1.356 . S
N2036 H2042 0.984 . S
N2036 H2043 0.984 . S
N2037 C2030 1.356 . S
N2037 H2040 0.984 . S
N2037 H2041 0.985 . S
H2038 N2033 0.984 . S
H2039 N2033 0.985 . S
H2040 N2037 0.984 . S
H2041 N2037 0.985 . S
H2042 N2036 0.984 . S
H2043 N2036 0.984 . S
H2044 N2032 0.984 . S
H2045 N2032 0.985 . S
C2046 C2047 1.363 . S
C2046 C2052 1.379 . S
C2046 N2054 1.356 . S
C2047 C2046 1.363 . S
C2047 C2053 1.363 . S
C2048 C2049 1.363 . S
C2048 C2053 1.379 . S
C2048 N2055 1.356 . S
C2049 C2048 1.363 . S
C2049 C2052 1.363 . S
N2050 C2052 1.356 . S
N2050 H2062 0.984 . S
N2050 H2063 0.985 . S
N2051 C2053 1.356 . S
N2051 H2056 0.984 . S
N2051 H2057 0.985 . S
C2052 C2046 1.379 . S
C2052 C2049 1.363 . S
C2052 N2050 1.356 . S
C2053 C2047 1.363 . S
C2053 C2048 1.379 . S
C2053 N2051 1.356 . S
N2054 C2046 1.356 . S
N2054 H2060 0.984 . S
N2054 H2061 0.984 . S
N2055 C2048 1.356 . S
N2055 H2058 0.984 . S
N2055 H2059 0.985 . S
H2056 N2051 0.984 . S
H2057 N2051 0.985 . S
H2058 N2055 0.984 . S
H2059 N2055 0.985 . S
H2060 N2054 0.984 . S
H2061 N2054 0.984 . S
H2062 N2050 0.984 . S
H2063 N2050 0.985 . S
C2064 C2065 1.363 . S
C2064 C2070 1.379 . S
C2064 N2072 1.356 . S
C2065 C2064 1.363 . S
C2065 C2071 1.363 . S
C2066 C2067 1.363 . S
C2066 C2071 1.379 . S
C2066 N2073 1.356 . S
C2067 C2066 1.363 . S
C2067 C2070 1.363 . S
N2068 C2070 1.356 . S
N2068 H2080 0.984 . S
N2068 H2081 0.985 . S
N2069 C2071 1.356 . S
N2069 H2074 0.984 . S
N2069 H2075 0.985 . S
C2070 C2064 1.379 . S
C2070 C2067 1.363 . S
C2070 N2068 1.356 . S
C2071 C2065 1.363 . S
C2071 C2066 1.379 . S
C2071 N2069 1.356 . S
N2072 C2064 1.356 . S
N2072 H2078 0.984 . S
N2072 H2079 0.984 1_545 S
N2073 C2066 1.356 . S
N2073 H2076 0.984 . S
N2073 H2077 0.985 . S
H2074 N2069 0.984 . S
H2075 N2069 0.985 . S
H2076 N2073 0.984 . S
H2077 N2073 0.985 . S
H2078 N2072 0.984 . S
H2079 N2072 0.984 1_565 S
H2080 N2068 0.984 . S
H2081 N2068 0.985 . S
C2082 C2083 1.363 . S
C2082 C2088 1.379 . S
C2082 N2090 1.356 . S
C2083 C2082 1.363 . S
C2083 C2089 1.363 . S
C2084 C2085 1.363 . S
C2084 C2089 1.379 . S
C2084 N2091 1.356 . S
C2085 C2084 1.363 . S
C2085 C2088 1.363 . S
N2086 C2088 1.356 . S
N2086 H2098 0.984 . S
N2086 H2099 0.985 . S
N2087 C2089 1.356 . S
N2087 H2092 0.984 . S
N2087 H2093 0.985 . S
C2088 C2082 1.379 . S
C2088 C2085 1.363 . S
C2088 N2086 1.356 . S
C2089 C2083 1.363 . S
C2089 C2084 1.379 . S
C2089 N2087 1.356 . S
N2090 C2082 1.356 . S
N2090 H2096 0.984 . S
N2090 H2097 0.984 . S
N2091 C2084 1.356 . S
N2091 H2094 0.984 1_565 S
N2091 H2095 0.985 . S
H2092 N2087 0.984 . S
H2093 N2087 0.985 . S
H2094 N2091 0.984 1_545 S
H2095 N2091 0.985 . S
H2096 N2090 0.984 . S
H2097 N2090 0.984 . S
H2098 N2086 0.984 . S
H2099 N2086 0.985 . S
C2100 C2101 1.363 . S
C2100 C2106 1.379 . S
C2100 N2108 1.356 . S
C2101 C2100 1.363 . S
C2101 C2107 1.363 . S
C2102 C2103 1.363 . S
C2102 C2107 1.379 . S
C2102 N2109 1.356 . S
C2103 C2102 1.363 . S
C2103 C2106 1.363 . S
N2104 C2106 1.356 . S
N2104 H2116 0.984 . S
N2104 H2117 0.985 . S
N2105 C2107 1.356 . S
N2105 H2110 0.984 1_565 S
N2105 H2111 0.985 . S
C2106 C2100 1.379 . S
C2106 C2103 1.363 . S
C2106 N2104 1.356 . S
C2107 C2101 1.363 . S
C2107 C2102 1.379 . S
C2107 N2105 1.356 . S
N2108 C2100 1.356 . S
N2108 H2114 0.984 . S
N2108 H2115 0.984 . S
N2109 C2102 1.356 . S
N2109 H2112 0.984 . S
N2109 H2113 0.985 . S
H2110 N2105 0.984 1_545 S
H2111 N2105 0.985 . S
H2112 N2109 0.984 . S
H2113 N2109 0.985 . S
H2114 N2108 0.984 . S
H2115 N2108 0.984 . S
H2116 N2104 0.984 . S
H2117 N2104 0.985 . S
C2118 C2119 1.363 . S
C2118 C2124 1.379 . S
C2118 N2126 1.356 . S
C2119 C2118 1.363 . S
C2119 C2125 1.363 . S
C2120 C2121 1.363 . S
C2120 C2125 1.379 . S
C2120 N2127 1.356 . S
C2121 C2120 1.363 . S
C2121 C2124 1.363 . S
N2122 C2124 1.356 . S
N2122 H2134 0.984 . S
N2122 H2135 0.985 . S
N2123 C2125 1.356 . S
N2123 H2128 0.984 . S
N2123 H2129 0.985 . S
C2124 C2118 1.379 . S
C2124 C2121 1.363 . S
C2124 N2122 1.356 . S
C2125 C2119 1.363 . S
C2125 C2120 1.379 . S
C2125 N2123 1.356 . S
N2126 C2118 1.356 . S
N2126 H2132 0.984 . S
N2126 H2133 0.984 1_545 S
N2127 C2120 1.356 . S
N2127 H2130 0.984 . S
N2127 H2131 0.985 . S
H2128 N2123 0.984 . S
H2129 N2123 0.985 . S
H2130 N2127 0.984 . S
H2131 N2127 0.985 . S
H2132 N2126 0.984 . S
H2133 N2126 0.984 1_565 S
H2134 N2122 0.984 . S
H2135 N2122 0.985 . S
C2136 C2137 1.363 . S
C2136 C2142 1.379 . S
C2136 N2144 1.356 . S
C2137 C2136 1.363 . S
C2137 C2143 1.363 . S
C2138 C2139 1.363 . S
C2138 C2143 1.379 . S
C2138 N2145 1.356 . S
C2139 C2138 1.363 . S
C2139 C2142 1.363 . S
N2140 C2142 1.356 . S
N2140 H2152 0.984 . S
N2140 H2153 0.985 1_565 S
N2141 C2143 1.356 . S
N2141 H2146 0.984 . S
N2141 H2147 0.985 . S
C2142 C2136 1.379 . S
C2142 C2139 1.363 . S
C2142 N2140 1.356 . S
C2143 C2137 1.363 . S
C2143 C2138 1.379 . S
C2143 N2141 1.356 . S
N2144 C2136 1.356 . S
N2144 H2150 0.984 . S
N2144 H2151 0.984 . S
N2145 C2138 1.356 . S
N2145 H2148 0.984 . S
N2145 H2149 0.985 . S
H2146 N2141 0.984 . S
H2147 N2141 0.985 . S
H2148 N2145 0.984 . S
H2149 N2145 0.985 . S
H2150 N2144 0.984 . S
H2151 N2144 0.984 . S
H2152 N2140 0.984 . S
H2153 N2140 0.985 1_545 S
C2154 C2155 1.363 . S
C2154 C2160 1.379 . S
C2154 N2162 1.356 . S
C2155 C2154 1.363 . S
C2155 C2161 1.363 . S
C2156 C2157 1.363 . S
C2156 C2161 1.379 . S
C2156 N2163 1.356 . S
C2157 C2156 1.363 . S
C2157 C2160 1.363 . S
N2158 C2160 1.356 . S
N2158 H2170 0.984 . S
N2158 H2171 0.985 1_545 S
N2159 C2161 1.356 . S
N2159 H2164 0.984 . S
N2159 H2165 0.985 . S
C2160 C2154 1.379 . S
C2160 C2157 1.363 . S
C2160 N2158 1.356 . S
C2161 C2155 1.363 . S
C2161 C2156 1.379 . S
C2161 N2159 1.356 . S
N2162 C2154 1.356 . S
N2162 H2168 0.984 . S
N2162 H2169 0.984 . S
N2163 C2156 1.356 . S
N2163 H2166 0.984 . S
N2163 H2167 0.985 . S
H2164 N2159 0.984 . S
H2165 N2159 0.985 . S
H2166 N2163 0.984 . S
H2167 N2163 0.985 . S
H2168 N2162 0.984 . S
H2169 N2162 0.984 . S
H2170 N2158 0.984 . S
H2171 N2158 0.985 1_565 S
C2172 C2173 1.363 . S
C2172 C2178 1.379 . S
C2172 N2180 1.356 . S
C2173 C2172 1.363 . S
C2173 C2179 1.363 . S
C2174 C2175 1.363 . S
C2174 C2179 1.379 . S
C2174 N2181 1.356 . S
C2175 C2174 1.363 . S
C2175 C2178 1.363 . S
N2176 C2178 1.356 . S
N2176 H2188 0.984 . S
N2176 H2189 0.985 . S
N2177 C2179 1.356 . S
N2177 H2182 0.984 . S
N2177 H2183 0.985 . S
C2178 C2172 1.379 . S
C2178 C2175 1.363 . S
C2178 N2176 1.356 . S
C2179 C2173 1.363 . S
C2179 C2174 1.379 . S
C2179 N2177 1.356 . S
N2180 C2172 1.356 . S
N2180 H2186 0.984 . S
N2180 H2187 0.984 1_545 S
N2181 C2174 1.356 . S
N2181 H2184 0.984 . S
N2181 H2185 0.985 . S
H2182 N2177 0.984 . S
H2183 N2177 0.985 . S
H2184 N2181 0.984 . S
H2185 N2181 0.985 . S
H2186 N2180 0.984 . S
H2187 N2180 0.984 1_565 S
H2188 N2176 0.984 . S
H2189 N2176 0.985 . S
C2190 C2191 1.363 . S
C2190 C2196 1.379 . S
C2190 N2198 1.356 . S
C2191 C2190 1.363 . S
C2191 C2197 1.363 . S
C2192 C2193 1.363 . S
C2192 C2197 1.379 . S
C2192 N2199 1.356 . S
C2193 C2192 1.363 . S
C2193 C2196 1.363 . S
N2194 C2196 1.356 . S
N2194 H2206 0.984 . S
N2194 H2207 0.985 1_565 S
N2195 C2197 1.356 . S
N2195 H2200 0.984 . S
N2195 H2201 0.985 . S
C2196 C2190 1.379 . S
C2196 C2193 1.363 . S
C2196 N2194 1.356 . S
C2197 C2191 1.363 . S
C2197 C2192 1.379 . S
C2197 N2195 1.356 . S
N2198 C2190 1.356 . S
N2198 H2204 0.984 . S
N2198 H2205 0.984 . S
N2199 C2192 1.356 . S
N2199 H2202 0.984 . S
N2199 H2203 0.985 . S
H2200 N2195 0.984 . S
H2201 N2195 0.985 . S
H2202 N2199 0.984 . S
H2203 N2199 0.985 . S
H2204 N2198 0.984 . S
H2205 N2198 0.984 . S
H2206 N2194 0.984 . S
H2207 N2194 0.985 1_545 S
C1345 C56 1.428 . S
C1347 C812 1.428 . S
C1363 C140 1.428 . S
C1365 C728 1.428 . S
C1381 C980 1.428 . S
C1383 C224 1.428 . S
C1399 C308 1.428 . S
C1401 C896 1.428 . S
C1417 C1159 1.428 . S
C1419 C403 1.428 . S
C1435 C1075 1.428 . S
C1437 C487 1.428 . S
C1453 C1327 1.428 . S
C1455 C571 1.428 . S
C1471 C655 1.428 . S
C1473 C1243 1.428 . S
C1489 C234 1.649 . S
C1491 C66 1.649 . S
C1507 C318 1.649 . S
C1509 C150 1.649 . S
C1525 C579 1.649 . S
C1527 C411 1.649 . S
C1543 C495 1.649 . S
C1545 C663 1.649 . S
C1561 C906 1.649 . S
C1563 C738 1.649 . S
C1579 C990 1.649 . S
C1581 C822 1.649 . S
C1597 C1083 1.649 . S
C1599 C1251 1.649 . S
C1615 C1167 1.649 . S
C1617 C1335 1.649 . S
C1633 C486 1.712 . S
C1635 C75 1.712 . S
C1651 C402 1.712 . S
C1653 C159 1.712 . S
C1669 C243 1.712 . S
C1671 C654 1.712 . S
C1687 C570 1.712 . S
C1689 C327 1.712 . S
C1705 C747 1.712 . S
C1707 C1158 1.712 . S
C1723 C1074 1.712 . S
C1725 C831 1.712 . S
C1741 C915 1.712 . S
C1743 C1326 1.712 . S
C1759 C1242 1.712 . S
C1761 C999 1.712 . S
C1777 C151 1.445 . S
C1779 C67 1.445 . S
C1795 C319 1.445 . S
C1797 C235 1.445 . S
C1813 C476 1.445 . S
C1815 C392 1.445 . S
C1831 C560 1.445 . S
C1833 C644 1.445 . S
C1849 C823 1.445 . S
C1851 C739 1.445 . S
C1867 C991 1.445 . S
C1869 C907 1.445 . S
C1885 C1064 1.445 . S
C1887 C1148 1.445 . S
C1903 C1232 1.445 . S
C1905 C1316 1.445 . S
C1921 C72 1.292 . S
C1923 C63 1.292 . S
C1939 C156 1.292 . S
C1941 C147 1.292 . S
C1957 C240 1.292 . S
C1959 C231 1.292 . S
C1975 C315 1.292 . S
C1977 C324 1.292 . S
C1993 C399 1.292 . S
C1995 C408 1.292 . S
C2011 C492 1.292 . S
C2013 C483 1.292 . S
C2029 C567 1.292 . S
C2031 C576 1.292 . S
C2047 C651 1.292 . S
C2049 C660 1.292 . S
C2065 C735 1.292 . S
C2067 C744 1.292 . S
C2083 C828 1.292 . S
C2085 C819 1.292 . S
C2101 C903 1.292 . S
C2103 C912 1.292 . S
C2119 C987 1.292 . S
C2121 C996 1.292 . S
C2137 C1071 1.292 . S
C2139 C1080 1.292 . S
C2155 C1155 1.292 . S
C2157 C1164 1.292 . S
C2173 C1248 1.292 . S
C2175 C1239 1.292 . S
C2191 C1323 1.292 . S
C2193 C1332 1.292 . S
