# Generated by pormake.
# Topology why, (6)-cn, num edge types: 1
# Building blocks:
#     Node 0, Type 0, BuildingBlock: JUFBIX_clean_sbu_0, # of connection points: 6
#     Node 1, Type 0, BuildingBlock: JUFBIX_clean_sbu_0, # of connection points: 6
#     Node 2, Type 0, BuildingBlock: JUFBIX_clean_sbu_0, # of connection points: 6
#     Node 3, Type 0, BuildingBlock: JUFBIX_clean_sbu_0, # of connection points: 6
#     Node 4, Type 0, BuildingBlock: JUFBIX_clean_sbu_0, # of connection points: 6
#     Node 5, Type 0, BuildingBlock: JUFBIX_clean_sbu_0, # of connection points: 6
#     Node 6, Type 0, BuildingBlock: JUFBIX_clean_sbu_0, # of connection points: 6
#     Node 7, Type 0, BuildingBlock: JUFBIX_clean_sbu_0, # of connection points: 6
#     Node 8, Type 0, BuildingBlock: JUFBIX_clean_sbu_0, # of connection points: 6
#     Node 9, Type 0, BuildingBlock: JUFBIX_clean_sbu_0, # of connection points: 6
#     Node 10, Type 0, BuildingBlock: JUFBIX_clean_sbu_0, # of connection points: 6
#     Node 11, Type 0, BuildingBlock: JUFBIX_clean_sbu_0, # of connection points: 6
#     Node 12, Type 0, BuildingBlock: JUFBIX_clean_sbu_0, # of connection points: 6
#     Node 13, Type 0, BuildingBlock: JUFBIX_clean_sbu_0, # of connection points: 6
#     Node 14, Type 0, BuildingBlock: JUFBIX_clean_sbu_0, # of connection points: 6
#     Node 15, Type 0, BuildingBlock: JUFBIX_clean_sbu_0, # of connection points: 6
#     Edge 16, Type (0, 0), BuildingBlock: AJUNOK_clean_linker_0, # of connection points: 2
#     Edge 17, Type (0, 0), BuildingBlock: AJUNOK_clean_linker_0, # of connection points: 2
#     Edge 18, Type (0, 0), BuildingBlock: AJUNOK_clean_linker_0, # of connection points: 2
#     Edge 19, Type (0, 0), BuildingBlock: AJUNOK_clean_linker_0, # of connection points: 2
#     Edge 20, Type (0, 0), BuildingBlock: AJUNOK_clean_linker_0, # of connection points: 2
#     Edge 21, Type (0, 0), BuildingBlock: AJUNOK_clean_linker_0, # of connection points: 2
#     Edge 22, Type (0, 0), BuildingBlock: AJUNOK_clean_linker_0, # of connection points: 2
#     Edge 23, Type (0, 0), BuildingBlock: AJUNOK_clean_linker_0, # of connection points: 2
#     Edge 24, Type (0, 0), BuildingBlock: AJUNOK_clean_linker_0, # of connection points: 2
#     Edge 25, Type (0, 0), BuildingBlock: AJUNOK_clean_linker_0, # of connection points: 2
#     Edge 26, Type (0, 0), BuildingBlock: AJUNOK_clean_linker_0, # of connection points: 2
#     Edge 27, Type (0, 0), BuildingBlock: AJUNOK_clean_linker_0, # of connection points: 2
#     Edge 28, Type (0, 0), BuildingBlock: AJUNOK_clean_linker_0, # of connection points: 2
#     Edge 29, Type (0, 0), BuildingBlock: AJUNOK_clean_linker_0, # of connection points: 2
#     Edge 30, Type (0, 0), BuildingBlock: AJUNOK_clean_linker_0, # of connection points: 2
#     Edge 31, Type (0, 0), BuildingBlock: AJUNOK_clean_linker_0, # of connection points: 2
#     Edge 32, Type (0, 0), BuildingBlock: AJUNOK_clean_linker_0, # of connection points: 2
#     Edge 33, Type (0, 0), BuildingBlock: AJUNOK_clean_linker_0, # of connection points: 2
#     Edge 34, Type (0, 0), BuildingBlock: AJUNOK_clean_linker_0, # of connection points: 2
#     Edge 35, Type (0, 0), BuildingBlock: AJUNOK_clean_linker_0, # of connection points: 2
#     Edge 36, Type (0, 0), BuildingBlock: AJUNOK_clean_linker_0, # of connection points: 2
#     Edge 37, Type (0, 0), BuildingBlock: AJUNOK_clean_linker_0, # of connection points: 2
#     Edge 38, Type (0, 0), BuildingBlock: AJUNOK_clean_linker_0, # of connection points: 2
#     Edge 39, Type (0, 0), BuildingBlock: AJUNOK_clean_linker_0, # of connection points: 2
#     Edge 40, Type (0, 0), BuildingBlock: AJUNOK_clean_linker_0, # of connection points: 2
#     Edge 41, Type (0, 0), BuildingBlock: AJUNOK_clean_linker_0, # of connection points: 2
#     Edge 42, Type (0, 0), BuildingBlock: AJUNOK_clean_linker_0, # of connection points: 2
#     Edge 43, Type (0, 0), BuildingBlock: AJUNOK_clean_linker_0, # of connection points: 2
#     Edge 44, Type (0, 0), BuildingBlock: AJUNOK_clean_linker_0, # of connection points: 2
#     Edge 45, Type (0, 0), BuildingBlock: AJUNOK_clean_linker_0, # of connection points: 2
#     Edge 46, Type (0, 0), BuildingBlock: AJUNOK_clean_linker_0, # of connection points: 2
#     Edge 47, Type (0, 0), BuildingBlock: AJUNOK_clean_linker_0, # of connection points: 2
#     Edge 48, Type (0, 0), BuildingBlock: AJUNOK_clean_linker_0, # of connection points: 2
#     Edge 49, Type (0, 0), BuildingBlock: AJUNOK_clean_linker_0, # of connection points: 2
#     Edge 50, Type (0, 0), BuildingBlock: AJUNOK_clean_linker_0, # of connection points: 2
#     Edge 51, Type (0, 0), BuildingBlock: AJUNOK_clean_linker_0, # of connection points: 2
#     Edge 52, Type (0, 0), BuildingBlock: AJUNOK_clean_linker_0, # of connection points: 2
#     Edge 53, Type (0, 0), BuildingBlock: AJUNOK_clean_linker_0, # of connection points: 2
#     Edge 54, Type (0, 0), BuildingBlock: AJUNOK_clean_linker_0, # of connection points: 2
#     Edge 55, Type (0, 0), BuildingBlock: AJUNOK_clean_linker_0, # of connection points: 2
#     Edge 56, Type (0, 0), BuildingBlock: AJUNOK_clean_linker_0, # of connection points: 2
#     Edge 57, Type (0, 0), BuildingBlock: AJUNOK_clean_linker_0, # of connection points: 2
#     Edge 58, Type (0, 0), BuildingBlock: AJUNOK_clean_linker_0, # of connection points: 2
#     Edge 59, Type (0, 0), BuildingBlock: AJUNOK_clean_linker_0, # of connection points: 2
#     Edge 60, Type (0, 0), BuildingBlock: AJUNOK_clean_linker_0, # of connection points: 2
#     Edge 61, Type (0, 0), BuildingBlock: AJUNOK_clean_linker_0, # of connection points: 2
#     Edge 62, Type (0, 0), BuildingBlock: AJUNOK_clean_linker_0, # of connection points: 2
#     Edge 63, Type (0, 0), BuildingBlock: AJUNOK_clean_linker_0, # of connection points: 2
# Relax obj value: 0.409
# Max RMSD: 0.199
# Mean RMSD: 0.184
data_MOF--net-why--node1-JUFBIX_clean_sbu_0--edge1-AJUNOK_clean_linker_0
_symmetry_space_group_name_H-M    P1
_symmetry_Int_Tables_number       1
_symmetry_cell_setting            triclinic
loop_
_symmetry_equiv_pos_as_xyz
'x, y, z'
_cell_length_a     38.834039
_cell_length_b     38.124487
_cell_length_c     20.52201
_cell_angle_alpha  93.436057
_cell_angle_beta   77.714682
_cell_angle_gamma 97.085581
loop_
_atom_site_label
_atom_site_type_symbol
_atom_site_fract_x
_atom_site_fract_y
_atom_site_fract_z
_atom_type_partial_charge
Co0 Co 0.33525 0.21037 0.06219 0.0
C1 C 0.36433 0.27836 1.00962 0.0
Co2 Co 0.37762 0.23715 0.10716 0.0
C3 C 0.28536 0.16198 0.99858 0.0
C4 C 0.27109 0.21439 1.02441 0.0
N5 N 0.29603 0.19313 1.0275 0.0
N6 N 0.25487 0.16366 0.97779 0.0
C7 C 0.24588 0.19639 0.9941 0.0
H8 H 0.29957 0.1389 0.99257 0.0
H9 H 0.27139 0.24163 0.04251 0.0
C10 C 0.35377 0.16839 0.15373 0.0
N11 N 0.41508 0.25586 0.14206 0.0
C12 C 0.44589 0.26919 0.1047 0.0
C13 C 0.4207 0.25577 0.20471 0.0
N14 N 0.47113 0.27623 0.14047 0.0
C15 C 0.45557 0.26854 0.20388 0.0
C16 C 0.3134 0.25414 0.1817 0.0
O17 O 0.33215 0.16764 0.11431 0.0
O18 O 0.37335 0.19706 0.16009 0.0
O19 O 0.3466 0.26061 0.17789 0.0
O20 O 0.30308 0.23299 0.13724 0.0
O21 O 0.38336 0.27799 0.05268 0.0
H22 H 0.40128 0.24557 0.24725 0.0
H23 H 0.45001 0.27255 0.0515 0.0
O24 O 0.34067 0.25226 1.00724 0.0
O25 O 0.36642 0.18812 0.98994 0.0
O26 O 0.40948 0.21296 0.03628 0.0
C27 C 0.3994 0.19274 0.99043 0.0
H28 H 0.22254 0.20641 0.98471 0.0
H29 H 0.46885 0.27035 0.2455 0.0
Co30 Co 0.58553 0.60258 0.30338 0.0
C31 C 0.52243 0.63152 0.31053 0.0
Co32 Co 0.57785 0.64643 0.37737 0.0
C33 C 0.6097 0.53703 0.24192 0.0
C34 C 0.58558 0.56476 0.17884 0.0
N35 N 0.59263 0.56578 0.2405 0.0
N36 N 0.61394 0.51854 0.18316 0.0
C37 C 0.59877 0.53588 0.14345 0.0
H38 H 0.62059 0.53092 0.28373 0.0
H39 H 0.57315 0.58469 0.15977 0.0
C40 C 0.64037 0.61794 0.3714 0.0
N41 N 0.57173 0.68269 0.44004 0.0
C42 C 0.56211 0.71421 0.43009 0.0
C43 C 0.57381 0.68365 0.50499 0.0
N44 N 0.55803 0.73495 0.48591 0.0
C45 C 0.56485 0.71579 0.53372 0.0
C46 C 0.54953 0.58096 0.43097 0.0
O47 O 0.63104 0.59881 0.32395 0.0
O48 O 0.62069 0.64053 0.40135 0.0
O49 O 0.5533 0.61408 0.44277 0.0
O50 O 0.56266 0.56922 0.37244 0.0
O51 O 0.53429 0.65214 0.35366 0.0
H52 H 0.58027 0.66199 0.53021 0.0
H53 H 0.55625 0.7211 0.38348 0.0
O54 O 0.54033 0.60683 0.28299 0.0
O55 O 0.6074 0.63664 0.23514 0.0
O56 O 0.60235 0.67959 0.31087 0.0
C57 C 0.61174 0.66963 0.25007 0.0
H58 H 0.59833 0.52876 0.09173 0.0
H59 H 0.56244 0.72404 0.58575 0.0
Co60 Co 0.16929 0.85779 0.45328 0.0
C61 C 0.1725 0.89784 0.56932 0.0
Co62 Co 0.18316 0.82825 0.53153 0.0
C63 C 0.1261 0.89635 0.39109 0.0
C64 C 0.17617 0.88959 0.32686 0.0
N65 N 0.15713 0.8833 0.38894 0.0
N66 N 0.12485 0.91015 0.33273 0.0
C67 C 0.15638 0.90597 0.2922 0.0
H68 H 0.10393 0.89372 0.43318 0.0
H69 H 0.20208 0.88123 0.30689 0.0
C70 C 0.17476 0.78782 0.41399 0.0
N71 N 0.19448 0.80139 0.59507 0.0
C72 C 0.21615 0.80945 0.6387 0.0
C73 C 0.1813 0.76733 0.6061 0.0
N74 N 0.21668 0.78175 0.67667 0.0
C75 C 0.19501 0.75518 0.65561 0.0
C76 C 0.112 0.82512 0.54107 0.0
O77 O 0.17041 0.81769 0.39495 0.0
O78 O 0.1831 0.78642 0.4706 0.0
O79 O 0.13601 0.81522 0.56607 0.0
O80 O 0.12055 0.84337 0.48907 0.0
O81 O 0.18071 0.87001 0.59139 0.0
H82 H 0.16285 0.75215 0.57961 0.0
H83 H 0.23095 0.83518 0.64297 0.0
O84 O 0.16714 0.89737 0.51049 0.0
O85 O 0.21823 0.87284 0.42112 0.0
O86 O 0.23178 0.84282 0.49816 0.0
C87 C 0.24126 0.86482 0.45173 0.0
H88 H 0.16397 0.91285 0.24028 0.0
H89 H 0.18992 0.72855 0.67365 0.0
Co90 Co 0.938 0.46392 0.82363 0.0
C91 C 1.00017 0.43087 0.77577 0.0
Co92 Co 0.94556 0.42134 0.88678 0.0
C93 C 0.91184 0.52899 0.78148 0.0
C94 C 0.9421 0.49979 0.70207 0.0
N95 N 0.93147 0.50097 0.76913 0.0
N96 N 0.9098 0.54477 0.72459 0.0
C97 C 0.92902 0.52623 0.67502 0.0
H98 H 0.89781 0.5365 0.83076 0.0
H99 H 0.95714 0.47981 0.67385 0.0
C100 C 0.88096 0.44704 0.9262 0.0
N101 N 0.94946 0.38503 0.93894 0.0
C102 C 0.97932 0.37528 0.95231 0.0
C103 C 0.92316 0.36124 0.96906 0.0
N104 N 0.97282 0.3461 0.98896 0.0
C105 C 0.93746 0.33717 0.99956 0.0
C106 C 0.97415 0.4864 0.93284 0.0
O107 O 0.8924 0.46816 0.87865 0.0
O108 O 0.90236 0.42857 0.94307 0.0
O109 O 0.97008 0.45326 0.94014 0.0
O110 O 0.96226 0.49806 0.88486 0.0
O111 O 0.98861 0.41322 0.82804 0.0
H112 H 0.89557 0.36046 0.96641 0.0
H113 H 1.00554 0.38847 0.93312 0.0
O114 O 0.98355 0.45628 0.76548 0.0
O115 O 0.91422 0.42898 0.76817 0.0
O116 O 0.92055 0.38862 0.83479 0.0
C117 C 0.90838 0.39681 0.78571 0.0
H118 H 0.93294 0.53112 0.62237 0.0
H119 H 0.92325 0.31346 1.02314 0.0
Co120 Co 0.63443 0.82577 0.96044 0.0
C121 C 0.65631 0.89528 0.92065 0.0
Co122 Co 0.67444 0.85245 1.01224 0.0
C123 C 0.57138 0.78554 0.94511 0.0
C124 C 0.60125 0.80207 0.84972 0.0
N125 N 0.60215 0.80311 0.91516 0.0
N126 N 0.55075 0.77407 0.90175 0.0
C127 C 0.56923 0.78432 0.84133 0.0
H128 H 0.56313 0.7833 0.99869 0.0
H129 H 0.62175 0.81471 0.81135 0.0
C130 C 0.64859 0.78322 0.05617 0.0
N131 N 0.70525 0.87467 0.06384 0.0
C132 C 0.73612 0.89616 0.05111 0.0
C133 C 0.69769 0.87169 0.13078 0.0
N134 N 0.74783 0.90645 0.10788 0.0
C135 C 0.7235 0.89101 0.15766 0.0
C136 C 0.60426 0.86426 0.07387 0.0
O137 O 0.62989 0.78439 1.01281 0.0
O138 O 0.67098 0.80982 0.06269 0.0
O139 O 0.63653 0.86947 0.07817 0.0
O140 O 0.59636 0.84497 1.02528 0.0
O141 O 0.67623 0.8954 0.96305 0.0
H142 H 0.67478 0.85602 0.15873 0.0
H143 H 0.74955 0.90398 1.00149 0.0
O144 O 0.63783 0.86657 0.90941 0.0
O145 O 0.67203 0.80738 0.89544 0.0
O146 O 0.71338 0.83503 0.94323 0.0
C147 C 0.70492 0.81467 0.89561 0.0
H148 H 0.55968 0.78061 0.79525 0.0
H149 H 0.72509 0.89223 0.2098 0.0
Co150 Co 0.44508 0.41653 0.68621 0.0
C151 C 0.38186 0.44144 0.68491 0.0
Co152 Co 0.4327 0.45866 0.76167 0.0
C153 C 0.46258 0.35022 0.6284 0.0
C154 C 0.4555 0.38447 0.55465 0.0
N155 N 0.45472 0.3827 0.62056 0.0
N156 N 0.46812 0.33157 0.57031 0.0
C157 C 0.46433 0.35294 0.52323 0.0
H158 H 0.46539 0.34077 0.67552 0.0
H159 H 0.45038 0.40733 0.53094 0.0
C160 C 0.49738 0.43318 0.7583 0.0
N161 N 0.42182 0.49367 0.82685 0.0
C162 C 0.40471 0.52239 0.82545 0.0
C163 C 0.42699 0.4935 0.88972 0.0
N164 N 0.39871 0.53979 0.88536 0.0
C165 C 0.41276 0.52169 0.92575 0.0
C166 C 0.40811 0.38964 0.80963 0.0
O167 O 0.48769 0.41273 0.71286 0.0
O168 O 0.4773 0.45599 0.78703 0.0
O169 O 0.41017 0.42252 0.82615 0.0
O170 O 0.42067 0.38084 0.74917 0.0
O171 O 0.38827 0.46089 0.73453 0.0
H172 H 0.43937 0.4735 0.90871 0.0
H173 H 0.39553 0.52951 0.7823 0.0
O174 O 0.40352 0.42005 0.65838 0.0
O175 O 0.46929 0.45133 0.62476 0.0
O176 O 0.45582 0.4942 0.69749 0.0
C177 C 0.47088 0.48422 0.63903 0.0
H178 H 0.46808 0.34632 0.47034 0.0
H179 H 0.4123 0.52817 0.97801 0.0
Co180 Co 0.83124 0.23602 0.53137 0.0
C181 C 0.84009 0.27698 0.64945 0.0
Co182 Co 0.84442 0.20701 0.61162 0.0
C183 C 0.79664 0.25251 0.42531 0.0
C184 C 0.83002 0.29654 0.4559 0.0
N185 N 0.81822 0.26236 0.46858 0.0
N186 N 0.79444 0.27931 0.38637 0.0
C187 C 0.81553 0.30697 0.40569 0.0
H188 H 0.7836 0.22593 0.42147 0.0
H189 H 0.84835 0.31283 0.48115 0.0
C190 C 0.84021 0.16685 0.49455 0.0
N191 N 0.85821 0.18059 0.67301 0.0
C192 C 0.88835 0.18616 0.69691 0.0
C193 C 0.8432 0.14826 0.69384 0.0
N194 N 0.89297 0.15842 0.73082 0.0
C195 C 0.86459 0.13452 0.72904 0.0
C196 C 0.7727 0.19992 0.61602 0.0
O197 O 0.83225 0.19462 0.47232 0.0
O198 O 0.84613 0.16754 0.55299 0.0
O199 O 0.79569 0.19152 0.64634 0.0
O200 O 0.78261 0.22146 0.56869 0.0
O201 O 0.8436 0.24721 0.67059 0.0
H202 H 0.81939 0.13458 0.68068 0.0
H203 H 0.90785 0.209 0.68553 0.0
O204 O 0.83256 0.27791 0.59191 0.0
O205 O 0.87872 0.2489 0.49349 0.0
O206 O 0.8928 0.22198 0.57427 0.0
C207 C 0.90194 0.2395 0.52145 0.0
H208 H 0.82005 0.33305 0.3852 0.0
H209 H 0.86041 0.10839 0.74926 0.0
Co210 Co 0.0669 0.64171 0.18059 0.0
C211 C 0.1344 0.61985 0.14515 0.0
Co212 Co 0.07651 0.6005 0.24287 0.0
C213 C 0.04482 0.70239 0.13053 0.0
C214 C 0.07345 0.6703 0.05386 0.0
N215 N 0.0627 0.67396 0.12087 0.0
N216 N 0.04385 0.71632 0.07223 0.0
C217 C 0.06192 0.69639 1.02382 0.0
H218 H 0.03153 0.71181 0.17908 0.0
H219 H 0.08704 0.64874 1.02808 0.0
C220 C 0.01159 0.63179 0.28906 0.0
N221 N 0.08327 0.56546 0.29991 0.0
C222 C 0.10198 0.5369 0.28812 0.0
C223 C 0.07361 0.56797 0.36701 0.0
N224 N 0.10443 0.52198 0.3454 0.0
C225 C 0.08644 0.54164 0.39475 0.0
C226 C 0.1028 0.66963 0.27967 0.0
O227 O 0.02241 0.64958 0.23666 0.0
O228 O 0.02947 0.60717 0.29886 0.0
O229 O 0.09805 0.63752 0.29757 0.0
O230 O 0.09022 0.67706 0.23043 0.0
O231 O 0.12405 0.59772 0.19126 0.0
H232 H 0.05932 0.58862 0.39447 0.0
H233 H 0.11497 0.52829 0.23877 0.0
O234 O 0.11115 0.63525 0.12735 0.0
O235 O 0.04412 0.60779 0.12972 0.0
O236 O 0.05431 0.56343 0.18181 0.0
C237 C 0.04147 0.57476 0.13486 0.0
H238 H 0.06461 0.6991 0.97072 0.0
H239 H 0.08313 0.53752 0.44758 0.0
Co240 Co 0.83749 0.71229 0.5588 0.0
C241 C 0.86613 0.78094 0.51069 0.0
Co242 Co 0.87837 0.73851 0.60864 0.0
C243 C 0.78818 0.66308 0.49359 0.0
C244 C 0.7752 0.71622 0.51415 0.0
N245 N 0.79932 0.69466 0.5206 0.0
N246 N 0.75839 0.6649 0.47033 0.0
C247 C 0.75023 0.69812 0.48344 0.0
H248 H 0.80136 0.63948 0.4913 0.0
H249 H 0.7756 0.74365 0.53111 0.0
C250 C 0.85501 0.66916 0.65109 0.0
N251 N 0.91402 0.75832 0.64778 0.0
C252 C 0.94519 0.77382 0.61518 0.0
C253 C 0.91546 0.76143 0.71302 0.0
N254 N 0.96632 0.7864 0.65706 0.0
C255 C 0.94798 0.77872 0.71892 0.0
C256 C 0.81225 0.75381 0.67925 0.0
O257 O 0.83453 0.66914 0.60958 0.0
O258 O 0.87409 0.69773 0.66074 0.0
O259 O 0.84514 0.76068 0.67853 0.0
O260 O 0.80354 0.73329 0.63254 0.0
O261 O 0.88429 0.77992 0.55505 0.0
H262 H 0.89441 0.75149 0.75337 0.0
H263 H 0.95272 0.77489 0.56134 0.0
O264 O 0.84305 0.75471 0.5055 0.0
O265 O 0.87041 0.69156 0.48756 0.0
O266 O 0.91207 0.71563 0.53865 0.0
C267 C 0.90307 0.69611 0.49079 0.0
H268 H 0.72734 0.70829 0.47238 0.0
H269 H 0.9575 0.78479 0.76465 0.0
Co270 Co 0.08521 0.10615 0.80222 0.0
C271 C 0.02228 0.13561 0.81091 0.0
Co272 Co 0.07714 0.14869 0.879 0.0
C273 C 0.10836 0.04029 0.74171 0.0
C274 C 0.08666 0.06891 0.67613 0.0
N275 N 0.09234 0.0696 0.73874 0.0
N276 N 0.11338 1.02178 0.68302 0.0
C277 C 0.09975 0.03968 0.64168 0.0
H278 H 0.11798 0.03376 0.78477 0.0
H279 H 0.07522 0.08923 0.65596 0.0
C280 C 0.13942 0.11963 0.87169 0.0
N281 N 0.07121 0.18458 0.94271 0.0
C282 C 0.06044 0.21589 0.93473 0.0
C283 C 0.07508 0.18546 1.00664 0.0
N284 N 0.05689 0.23623 0.99109 0.0
C285 C 0.06605 0.2173 0.0368 0.0
C286 C 0.04879 0.08269 0.92891 0.0
O287 O 0.13051 0.10174 0.82259 0.0
O288 O 0.11964 0.14179 0.90307 0.0
O289 O 0.05193 0.11562 0.94345 0.0
O290 O 0.06232 0.07235 0.86969 0.0
O291 O 0.03411 0.15542 0.85501 0.0
H292 H 0.08318 0.16407 1.03008 0.0
H293 H 0.05386 0.22308 0.88898 0.0
O294 O 0.03999 0.11095 0.78225 0.0
O295 O 0.10739 0.14081 0.7352 0.0
O296 O 0.10219 0.18229 0.81385 0.0
C297 C 0.11203 0.17348 0.7525 0.0
H298 H 0.10028 0.03267 0.58959 0.0
H299 H 0.06572 0.22559 0.08827 0.0
Co300 Co 0.67336 0.35595 0.94666 0.0
C301 C 0.6743 0.39595 0.06446 0.0
Co302 Co 0.68501 0.32678 1.02787 0.0
C303 C 0.63057 0.39512 0.88553 0.0
C304 C 0.67983 0.38708 0.81953 0.0
N305 N 0.66144 0.38155 0.8823 0.0
N306 N 0.62869 0.40843 0.82713 0.0
C307 C 0.65969 0.40343 0.78542 0.0
H308 H 0.60885 0.39308 0.9285 0.0
H309 H 0.70542 0.37815 0.79887 0.0
C310 C 0.67808 0.2862 0.90878 0.0
N311 N 0.69612 0.30007 0.09215 0.0
C312 C 0.71606 0.30918 0.13847 0.0
C313 C 0.68484 0.26546 0.10124 0.0
N314 N 0.71746 0.28158 0.17606 0.0
C315 C 0.6981 0.25401 0.15204 0.0
C316 C 0.61515 0.32283 0.03153 0.0
O317 O 0.6763 0.31631 0.88734 0.0
O318 O 0.68453 0.28483 0.96703 0.0
O319 O 0.63763 0.31418 0.06198 0.0
O320 O 0.62492 0.33999 0.97847 0.0
O321 O 0.68275 0.36844 0.08704 0.0
H322 H 0.668 0.24939 0.07262 0.0
H323 H 0.72893 0.33561 0.14504 0.0
O324 O 0.66928 0.39516 1.00532 0.0
O325 O 0.72207 0.3723 0.91764 0.0
O326 O 0.73378 0.341 0.99484 0.0
C327 C 0.74418 0.36376 0.94989 0.0
H328 H 0.6666 0.40963 0.73312 0.0
H329 H 0.6943 0.22719 0.16891 0.0
Co330 Co 0.43781 0.96482 0.32694 0.0
C331 C 0.49942 0.93163 0.27532 0.0
Co332 Co 0.44428 0.92016 0.38573 0.0
C333 C 0.40526 1.02051 0.26955 0.0
C334 C 0.46162 1.02992 0.25861 0.0
N335 N 0.43373 1.00588 0.28109 0.0
N336 N 0.4146 0.05262 0.24127 0.0
C337 C 0.45006 0.05837 0.2347 0.0
H338 H 0.37811 1.0088 0.28455 0.0
H339 H 0.48867 1.02762 0.26191 0.0
C340 C 0.3798 0.94564 0.42679 0.0
N341 N 0.44737 0.88149 0.43188 0.0
C342 C 0.47698 0.87264 0.44763 0.0
C343 C 0.42187 0.85507 0.4539 0.0
N344 N 0.47137 0.84122 0.47691 0.0
C345 C 0.43663 0.83017 0.48163 0.0
C346 C 0.47356 0.98221 0.43958 0.0
O347 O 0.39239 0.96875 0.3831 0.0
O348 O 0.40045 0.92568 0.44201 0.0
O349 O 0.46819 0.94896 0.44447 0.0
O350 O 0.46277 0.99545 0.39207 0.0
O351 O 0.48804 0.91333 0.32678 0.0
H352 H 0.39473 0.85338 0.44773 0.0
H353 H 0.50241 0.88857 0.43591 0.0
O354 O 0.48286 0.95745 0.26691 0.0
O355 O 0.41337 0.9336 0.26709 0.0
O356 O 0.41986 0.89064 0.32834 0.0
C357 C 0.40775 0.90076 0.28063 0.0
H358 H 0.46644 0.08214 0.21565 0.0
H359 H 0.42341 0.80488 0.49983 0.0
Co360 Co 0.13682 0.32775 0.46023 0.0
C361 C 0.15794 0.39745 0.41884 0.0
Co362 Co 0.1766 0.356 0.51168 0.0
C363 C 0.07335 0.28744 0.45042 0.0
C364 C 0.09785 0.30826 0.3551 0.0
N365 N 0.10347 0.30474 0.41693 0.0
N366 N 0.04825 0.28183 0.41393 0.0
C367 C 0.06358 0.29407 0.35315 0.0
H368 H 0.06886 0.28188 0.50284 0.0
H369 H 0.11613 0.32297 0.31621 0.0
C370 C 0.15158 0.28696 0.55813 0.0
N371 N 0.20758 0.37926 0.56249 0.0
C372 C 0.23921 0.39959 0.54939 0.0
C373 C 0.19894 0.37856 0.6298 0.0
N374 N 0.24972 0.412 0.60631 0.0
C375 C 0.22442 0.39845 0.65654 0.0
C376 C 0.10661 0.36663 0.57367 0.0
O377 O 0.13333 0.28665 0.51352 0.0
O378 O 0.17334 0.31422 0.56396 0.0
O379 O 0.13891 0.37323 0.57665 0.0
O380 O 0.09874 0.34675 0.52588 0.0
O381 O 0.17813 0.39818 0.46087 0.0
H382 H 0.17564 0.36383 0.65827 0.0
H383 H 0.25443 0.40471 0.49955 0.0
O384 O 0.13949 0.3685 0.40876 0.0
O385 O 0.1745 0.30947 0.39454 0.0
O386 O 0.21512 0.33812 0.44363 0.0
C387 C 0.20727 0.31735 0.39601 0.0
H388 H 0.05008 0.29556 0.31253 0.0
H389 H 0.22534 0.40092 0.70899 0.0
Co390 Co 0.94336 0.91752 0.18543 0.0
C391 C 0.88032 0.94244 0.18213 0.0
Co392 Co 0.93123 0.96089 0.25812 0.0
C393 C 0.96358 0.85194 0.12704 0.0
C394 C 0.95303 0.885 0.05466 0.0
N395 N 0.95325 0.88349 0.12024 0.0
N396 N 0.97009 0.83382 0.06845 0.0
C397 C 0.96376 0.85435 1.02234 0.0
H398 H 0.9677 0.84299 0.17362 0.0
H399 H 0.94634 0.90728 0.03159 0.0
C400 C 0.99563 0.93551 0.25694 0.0
N401 N 0.9202 0.99623 0.32221 0.0
C402 C 0.90299 1.02471 0.31953 0.0
C403 C 0.92477 0.99646 0.38555 0.0
N404 N 0.89629 0.04228 0.3791 0.0
C405 C 0.90998 1.02462 0.42064 0.0
C406 C 0.90726 0.89197 0.3094 0.0
O407 O 0.98609 0.91441 0.21224 0.0
O408 O 0.97564 0.95871 0.28406 0.0
O409 O 0.90889 0.92512 0.32369 0.0
O410 O 0.91944 0.88216 0.24933 0.0
O411 O 0.88673 0.96268 0.23075 0.0
H412 H 0.937 0.9767 0.40552 0.0
H413 H 0.89413 1.03146 0.27578 0.0
O414 O 0.90164 0.9204 0.15756 0.0
O415 O 0.96732 0.95189 0.12309 0.0
O416 O 0.95446 0.99609 0.19274 0.0
C417 C 0.96944 0.98498 0.13501 0.0
H418 H 0.96726 0.84789 0.96942 0.0
H419 H 0.90876 1.03129 0.47306 0.0
Co420 Co 0.33315 0.7365 1.03008 0.0
C421 C 0.34106 0.78078 0.14306 0.0
Co422 Co 0.34693 0.70943 0.11193 0.0
C423 C 0.2983 0.75057 0.92185 0.0
C424 C 0.33489 0.7936 0.94568 0.0
N425 N 0.32096 0.76048 0.96313 0.0
N426 N 0.29753 0.77642 0.87968 0.0
C427 C 0.32063 0.80341 0.89483 0.0
H428 H 0.28332 0.72469 0.92201 0.0
H429 H 0.35446 0.80964 0.96828 0.0
C430 C 0.34375 0.66611 0.99981 0.0
N431 N 0.3603 0.68689 0.17911 0.0
C432 C 0.39132 0.67377 0.17719 0.0
C433 C 0.34267 0.68394 0.24302 0.0
N434 N 0.39391 0.66313 0.23741 0.0
C435 C 0.36328 0.6695 0.27895 0.0
C436 C 0.2748 0.70136 0.11493 0.0
O437 O 0.33531 0.69312 0.97548 0.0
O438 O 0.3495 0.66815 0.05857 0.0
O439 O 0.29779 0.69378 0.14621 0.0
O440 O 0.28468 0.72219 0.06649 0.0
O441 O 0.34521 0.75172 0.16605 0.0
H442 H 0.31717 0.69322 0.26296 0.0
H443 H 0.41252 0.67399 0.13338 0.0
O444 O 0.33323 0.78014 0.08564 0.0
O445 O 0.38038 0.7492 0.9932 0.0
O446 O 0.39564 0.72407 0.0742 0.0
C447 C 0.40432 0.74069 1.02018 0.0
H448 H 0.32659 0.82872 0.87125 0.0
H449 H 0.35677 0.66517 0.33204 0.0
Co450 Co 0.56437 0.13897 0.68395 0.0
C451 C 0.63231 0.11852 0.64877 0.0
Co452 Co 0.57487 0.0989 0.7479 0.0
C453 C 0.53926 0.19781 0.63439 0.0
C454 C 0.56945 0.16722 0.55715 0.0
N455 N 0.55877 0.17055 0.6242 0.0
N456 N 0.53681 0.21104 0.57634 0.0
C457 C 0.55619 0.19234 0.5276 0.0
H458 H 0.52637 0.20714 0.68328 0.0
H459 H 0.58441 0.14663 0.53108 0.0
C460 C 0.509 0.12825 0.79256 0.0
N461 N 0.5826 0.06472 0.80541 0.0
C462 C 0.60086 0.03588 0.79333 0.0
C463 C 0.57384 0.06778 0.87255 0.0
N464 N 0.60393 1.02125 0.85046 0.0
C465 C 0.58681 0.04143 0.90006 0.0
C466 C 0.60018 0.16863 0.78254 0.0
O467 O 0.51952 0.14557 0.7396 0.0
O468 O 0.5278 0.10489 0.80427 0.0
O469 O 0.5961 0.13668 0.80105 0.0
O470 O 0.58693 0.17541 0.73363 0.0
O471 O 0.62228 0.09667 0.69548 0.0
H472 H 0.55985 0.08867 0.90006 0.0
H473 H 0.61294 1.02676 0.74375 0.0
O474 O 0.60891 0.13371 0.63095 0.0
O475 O 0.54251 0.10383 0.63318 0.0
O476 O 0.55323 0.06097 0.68882 0.0
C477 C 0.54049 0.07098 0.6407 0.0
H478 H 0.55911 0.19559 0.47458 0.0
H479 H 0.58403 0.03754 0.95283 0.0
C480 C 0.52674 0.31252 0.14797 0.0
C481 C 0.50766 0.28676 0.11379 0.0
C482 C 0.56182 0.32478 0.12009 0.0
C483 C 0.57816 0.31182 0.05719 0.0
H484 H 0.51425 0.32355 0.19577 0.0
H485 H 0.5762 0.34455 0.1475 0.0
S486 S 0.54139 0.24116 0.95177 0.0
N487 N 0.50898 0.24599 1.01717 0.0
N488 N 0.57466 0.27052 0.9637 0.0
C489 C 0.55985 0.28566 1.02312 0.0
C490 C 0.5245 0.27266 0.05184 0.0
C491 C 0.51193 0.77096 0.54385 0.0
C492 C 0.54212 0.76722 0.49349 0.0
C493 C 0.48995 0.79697 0.54051 0.0
C494 C 0.49773 0.82006 0.4871 0.0
H495 H 0.50376 0.75193 0.58285 0.0
H496 H 0.46571 0.79786 0.57787 0.0
S497 S 0.57663 0.82347 0.34772 0.0
N498 N 0.58113 0.79085 0.39353 0.0
N499 N 0.5396 0.8393 0.38592 0.0
C500 C 0.52952 0.81833 0.43951 0.0
C501 C 0.5518 0.79196 0.44314 0.0
C502 C 0.048 0.83075 0.5515 0.0
C503 C 0.07479 0.81675 0.57463 0.0
C504 C 0.01246 0.8225 0.58185 0.0
C505 C 1.00262 0.80008 0.6362 0.0
H506 H 0.05437 0.8477 0.50906 0.0
H507 H 0.99234 0.83277 0.56147 0.0
S508 S 0.06239 0.75788 0.71804 0.0
N509 N 0.08905 0.78062 0.65763 0.0
N510 N 0.0219 0.76492 0.71354 0.0
C511 C 0.02903 0.78703 0.66161 0.0
C512 C 0.06525 0.79533 0.63088 0.0
C513 C 0.02812 0.31954 0.94682 0.0
C514 C 0.99847 0.32381 0.99829 0.0
C515 C 0.0491 0.29246 0.94777 0.0
C516 C 0.04123 0.26877 1.00015 0.0
H517 H 0.03363 0.33545 0.90309 0.0
H518 H 0.07036 0.28859 0.90521 0.0
S519 S 0.97017 0.27252 0.1521 0.0
N520 N 0.96526 0.30547 0.10739 0.0
N521 N 1.00438 0.25379 0.10848 0.0
C522 C 0.01363 0.27467 0.05475 0.0
C523 C 0.99224 0.30235 0.05383 0.0
C524 C 0.50321 0.73709 0.97236 0.0
C525 C 0.51396 0.76175 0.92174 0.0
C526 C 0.46764 0.73039 1.00415 0.0
C527 C 0.44166 0.74823 0.98626 0.0
H528 H 0.52279 0.7239 0.98903 0.0
H529 H 0.46059 0.71142 0.04339 0.0
S530 S 0.45648 0.81531 0.85602 0.0
N531 N 0.49625 0.80385 0.85463 0.0
N532 N 0.42908 0.79122 0.91354 0.0
C533 C 0.452 0.77226 0.93416 0.0
C534 C 0.48825 0.77896 0.90189 0.0
C535 C 0.51295 0.2935 0.51679 0.0
C536 C 0.48091 0.29788 0.56151 0.0
C537 C 0.53052 0.26402 0.51991 0.0
C538 C 0.51638 0.23842 0.56782 0.0
H539 H 0.5256 0.31415 0.48277 0.0
H540 H 0.55623 0.26225 0.48748 0.0
S541 S 0.42976 0.2351 0.68667 0.0
N542 N 0.43335 0.27261 0.64826 0.0
N543 N 0.46605 0.21659 0.65356 0.0
C544 C 0.48289 0.24117 0.60879 0.0
C545 C 0.46517 0.27112 0.60565 0.0
C546 C 0.95499 0.23879 0.43002 0.0
C547 C 0.93915 0.25041 0.4944 0.0
C548 C 0.99075 0.24954 0.40327 0.0
C549 C 0.01121 0.27247 0.44006 0.0
H550 H 0.93978 0.22092 0.4008 0.0
H551 H 1.00268 0.23949 0.35426 0.0
S552 S 0.97936 0.31469 0.60662 0.0
N553 N 0.94479 0.28807 0.59181 0.0
N554 N 0.0115 0.30997 0.54072 0.0
C555 C 0.99483 0.28558 0.50335 0.0
C556 C 0.95881 0.27405 0.53083 0.0
C557 C 0.99012 0.74578 0.10553 0.0
C558 C 0.02351 0.74373 0.06367 0.0
C559 C 0.97136 0.7743 0.1031 0.0
C560 C 0.98536 0.80141 0.05855 0.0
H561 H 0.97892 0.7257 0.14161 0.0
H562 H 0.94648 0.77615 0.1383 0.0
S563 S 0.07065 0.80727 0.93588 0.0
N564 N 0.06909 0.77002 0.97412 0.0
N565 N 0.03333 0.82395 0.96944 0.0
C566 C 0.01766 0.7987 1.01365 0.0
C567 C 0.03694 0.76968 1.01628 0.0
C568 C 0.20516 0.12807 0.85105 0.0
C569 C 0.17266 0.11628 0.89261 0.0
C570 C 0.23525 0.13859 0.87824 0.0
C571 C 0.23351 0.13721 0.94721 0.0
H572 H 0.20632 0.1331 0.79917 0.0
H573 H 0.2586 0.15195 0.84688 0.0
S574 S 0.15639 0.10184 0.07382 0.0
N575 N 0.14179 0.09872 1.0035 0.0
N576 N 0.19857 0.11814 0.05396 0.0
C577 C 0.20251 0.121 0.98705 0.0
C578 C 0.17186 0.11076 0.95988 0.0
C579 C 0.67509 0.46088 0.07365 0.0
C580 C 0.66684 0.42835 0.10558 0.0
C581 C 0.65919 0.49079 0.10143 0.0
C582 C 0.63458 0.48946 0.16242 0.0
H583 H 0.69219 0.46261 1.02449 0.0
H584 H 0.66488 0.51478 0.07351 0.0
S585 S 0.6063 0.41185 0.26921 0.0
N586 N 0.63442 0.39725 0.20397 0.0
N587 N 0.60478 0.45404 0.25683 0.0
C588 C 0.62814 0.45801 0.1976 0.0
C589 C 0.64429 0.42727 0.16903 0.0
C590 C 0.32792 0.90879 0.49186 0.0
C591 C 0.34163 0.93172 0.43894 0.0
C592 C 0.29612 0.8866 0.49427 0.0
C593 C 0.27649 0.88627 0.44381 0.0
H594 H 0.34273 0.90683 0.53044 0.0
H595 H 0.28693 0.86955 0.53634 0.0
S596 S 0.30043 0.94124 0.29405 0.0
N597 N 0.33264 0.95282 0.33477 0.0
N598 N 0.27283 0.91135 0.33968 0.0
C599 C 0.28933 0.90966 0.39137 0.0
C600 C 0.32174 0.9324 0.389 0.0
C601 C 0.85892 0.60297 0.64401 0.0
C602 C 0.86217 0.63567 0.67936 0.0
C603 C 0.87306 0.57309 0.66106 0.0
C604 C 0.89063 0.57411 0.71502 0.0
H605 H 0.84727 0.60093 0.60025 0.0
H606 H 0.87116 0.54913 0.63031 0.0
S607 S 0.90392 0.65217 0.82732 0.0
N608 N 0.88279 0.66631 0.77388 0.0
N609 N 0.90854 0.61028 0.80587 0.0
C610 C 0.89227 0.60595 0.7531 0.0
C611 C 0.87834 0.63657 0.73526 0.0
C612 C 0.7839 0.94342 0.17685 0.0
C613 C 0.78151 0.92445 0.11641 0.0
C614 C 0.81652 0.95202 0.19618 0.0
C615 C 0.84782 0.94207 0.15539 0.0
H616 H 0.76003 0.94947 0.21157 0.0
H617 H 0.8168 0.96412 0.24523 0.0
S618 S 0.85708 0.89962 0.98564 0.0
N619 N 0.81403 0.90107 1.01168 0.0
N620 N 0.87541 0.91846 0.04639 0.0
C621 C 0.84629 0.92699 0.09142 0.0
C622 C 0.81309 0.91795 0.07214 0.0
C623 C 0.34137 0.60096 0.99479 0.0
C624 C 0.35009 0.63284 0.9608 0.0
C625 C 0.35566 0.5701 0.96767 0.0
C626 C 0.37927 0.56981 0.90547 0.0
H627 H 0.32503 0.60039 0.04471 0.0
H628 H 0.34953 0.5466 0.997 0.0
S629 S 0.40834 0.64543 0.79372 0.0
N630 N 0.3818 0.66171 0.85945 0.0
N631 N 0.4087 0.60329 0.80814 0.0
C632 C 0.3862 0.60074 0.86857 0.0
C633 C 0.37156 0.63239 0.89634 0.0
C634 C 0.69591 0.12671 0.66402 0.0
C635 C 0.6696 0.13643 0.63295 0.0
C636 C 0.7287 0.14791 0.66047 0.0
C637 C 0.73643 0.18003 0.62656 0.0
H638 H 0.69088 0.10298 0.69264 0.0
H639 H 0.74824 0.13883 0.68414 0.0
S640 S 0.6762 0.21896 0.54013 0.0
N641 N 0.65408 0.18117 0.56723 0.0
N642 N 0.71438 0.22109 0.56378 0.0
C643 C 0.71032 0.1902 0.5959 0.0
C644 C 0.67743 0.16839 0.59806 0.0
C645 C 0.15489 0.46346 0.42506 0.0
C646 C 0.15066 0.43065 0.39053 0.0
C647 C 0.14112 0.49345 0.40806 0.0
C648 C 0.12295 0.49233 0.35506 0.0
H649 H 0.16713 0.46556 0.4681 0.0
H650 H 0.14382 0.51759 0.43804 0.0
S651 S 0.1074 0.41403 0.24462 0.0
N652 N 0.12883 0.39978 0.29745 0.0
N653 N 0.10355 0.4561 0.26558 0.0
C654 C 0.12037 0.46037 0.31762 0.0
C655 C 0.13399 0.42964 0.33536 0.0
C656 C 0.67397 0.61348 0.45955 0.0
C657 C 0.67421 0.61587 0.39138 0.0
C658 C 0.7046 0.62404 0.48468 0.0
C659 C 0.73611 0.638 0.44265 0.0
H660 H 0.64921 0.60657 0.49449 0.0
H661 H 0.70244 0.62572 0.53824 0.0
S662 S 0.75167 0.64494 0.25946 0.0
N663 N 0.7096 0.62847 0.28108 0.0
N664 N 0.76698 0.64952 0.32911 0.0
C665 C 0.73765 0.63673 0.37363 0.0
C666 C 0.70661 0.62546 0.34773 0.0
C667 C 0.15952 0.99313 0.60497 0.0
C668 C 0.13354 0.99217 0.66415 0.0
C669 C 0.17534 0.96288 0.57884 0.0
C670 C 0.16559 0.93034 0.61055 0.0
H671 H 0.16642 1.01711 0.57706 0.0
H672 H 0.19349 0.96434 0.53074 0.0
S673 S 0.10099 0.9147 0.77004 0.0
N674 N 0.10083 0.95706 0.757 0.0
N675 N 0.13015 0.89963 0.70699 0.0
C676 C 0.14157 0.9296 0.67241 0.0
C677 C 0.12556 0.96069 0.6994 0.0
C678 C 0.79112 0.41022 0.89482 0.0
C679 C 0.77908 0.38553 0.9454 0.0
C680 C 0.82247 0.43321 0.89284 0.0
C681 C 0.84299 0.43263 0.94165 0.0
H682 H 0.7765 0.41149 0.85571 0.0
H683 H 0.83169 0.45003 0.85046 0.0
S684 S 0.82128 0.37605 0.08907 0.0
N685 N 0.78912 0.36393 0.04848 0.0
N686 N 0.84734 0.40758 0.04526 0.0
C687 C 0.8302 0.40951 0.9945 0.0
C688 C 0.79865 0.38573 0.99603 0.0
C689 C 0.39699 0.11321 0.25604 0.0
C690 C 0.39254 0.07865 0.22867 0.0
C691 C 0.38163 0.14107 0.23541 0.0
C692 C 0.3613 0.13612 0.18533 0.0
H693 H 0.41385 0.11905 0.29201 0.0
H694 H 0.38741 0.16728 0.25669 0.0
S695 S 0.3398 0.04993 0.10015 0.0
N696 N 0.36448 0.04035 0.15169 0.0
N697 N 0.33603 0.09271 0.11168 0.0
C698 C 0.35499 0.10116 0.15998 0.0
C699 C 0.37053 0.07253 0.18176 0.0
C700 C 0.31449 0.41529 0.57733 0.0
C701 C 0.2839 0.42825 0.6149 0.0
C702 C 0.34665 0.42182 0.5985 0.0
C703 C 0.34939 0.44153 0.65811 0.0
H704 H 0.31291 0.39751 0.53463 0.0
H705 H 0.36903 0.40952 0.56967 0.0
S706 S 0.27849 0.48802 0.76535 0.0
N707 N 0.25943 0.46685 0.70734 0.0
N708 N 0.32001 0.47884 0.74787 0.0
C709 C 0.3199 0.45781 0.69206 0.0
C710 C 0.28711 0.45123 0.67021 0.0
C711 C 0.83594 0.10177 0.48502 0.0
C712 C 0.84615 0.13426 0.45344 0.0
C713 C 0.85071 0.07118 0.4578 0.0
C714 C 0.8762 0.07188 0.39792 0.0
H715 H 0.81828 0.10055 0.53368 0.0
H716 H 0.84364 0.04717 0.48561 0.0
S717 S 0.90945 0.14935 0.29236 0.0
N718 N 0.88114 0.16477 0.35639 0.0
N719 N 0.90886 0.1068 0.30474 0.0
C720 C 0.88451 0.1034 0.36288 0.0
C721 C 0.86943 0.13477 0.39079 0.0
C722 C 0.19803 0.6278 0.1611 0.0
C723 C 0.17168 0.63799 0.13061 0.0
C724 C 0.23085 0.64895 0.15824 0.0
C725 C 0.2385 0.6815 0.12576 0.0
H726 H 0.19305 0.60366 0.18853 0.0
H727 H 0.2505 0.63949 0.1811 0.0
S728 S 0.178 0.72205 0.04247 0.0
N729 N 0.15604 0.68387 0.06757 0.0
N730 N 0.21621 0.72367 0.0658 0.0
C731 C 0.21228 0.69223 0.09612 0.0
C732 C 0.17944 0.67049 0.09741 0.0
C733 C 0.64054 0.99177 0.91187 0.0
C734 C 0.62196 0.99115 0.85954 0.0
C735 C 0.6541 0.96145 0.92801 0.0
C736 C 0.64926 0.92882 0.89321 0.0
H737 H 0.64378 1.01579 0.94195 0.0
H738 H 0.66668 0.96318 0.97058 0.0
S739 S 0.60453 0.91339 0.74901 0.0
N740 N 0.60135 0.9555 0.77059 0.0
N741 N 0.62629 0.89861 0.80072 0.0
C742 C 0.63214 0.92829 0.83872 0.0
C743 C 0.6187 0.95933 0.82191 0.0
C744 C 0.45767 0.16636 0.9561 0.0
C745 C 0.42586 0.17408 0.94 0.0
C746 C 0.48325 0.14932 0.90962 0.0
C747 C 0.47866 0.13993 0.84426 0.0
H748 H 0.46298 0.17365 1.00515 0.0
H749 H 0.50759 0.14493 0.92411 0.0
S750 S 0.40009 0.15321 0.77659 0.0
N751 N 0.39094 0.16944 0.85401 0.0
N752 N 0.43955 0.13919 0.76631 0.0
C753 C 0.44696 0.14722 0.8276 0.0
C754 C 0.42047 0.1637 0.87545 0.0
C755 C 0.64154 0.73007 0.21261 0.0
C756 C 0.62439 0.69672 0.19729 0.0
C757 C 0.65066 0.75719 0.16588 0.0
C758 C 0.64221 0.75263 0.10209 0.0
H759 H 0.64763 0.73548 0.26161 0.0
H760 H 0.66329 0.78242 0.18092 0.0
S761 S 0.59707 0.67047 0.03685 0.0
N762 N 0.5998 0.66069 0.11278 0.0
N763 N 0.61581 0.71161 1.02623 0.0
C764 C 0.62533 0.71927 0.08594 0.0
C765 C 0.61676 0.69142 0.13301 0.0
C766 C 0.05546 0.91467 0.23245 0.0
C767 C 0.02962 0.93227 0.27652 0.0
C768 C 0.08696 0.90871 0.25037 0.0
C769 C 0.09383 0.91977 0.31336 0.0
H770 H 0.05116 0.90493 0.18378 0.0
H771 H 0.10549 0.89414 0.21545 0.0
S772 S 0.03579 0.96848 0.44606 0.0
N773 N 0.01364 0.96192 0.38521 0.0
N774 N 0.07311 0.9506 0.4189 0.0
C775 C 0.06871 0.93817 0.35744 0.0
C776 C 0.0366 0.94453 0.33896 0.0
C777 C 0.86781 0.34083 0.65229 0.0
C778 C 0.85123 0.31013 0.68664 0.0
C779 C 0.88511 0.36954 0.68458 0.0
C780 C 0.88668 0.36864 0.75248 0.0
H781 H 0.86912 0.34194 0.59919 0.0
H782 H 0.89868 0.39181 0.65545 0.0
S783 S 0.84265 0.29708 0.86746 0.0
N784 N 0.83437 0.28269 0.79425 0.0
N785 N 0.86612 0.33607 0.85453 0.0
C786 C 0.86825 0.33905 0.78807 0.0
C787 C 0.8508 0.31003 0.75536 0.0
C788 C 0.58223 0.88936 0.18962 0.0
C789 C 0.57714 0.88189 0.1239 0.0
C790 C 0.5577 0.90659 0.23768 0.0
C791 C 0.52772 0.91847 0.22153 0.0
H792 H 0.60504 0.8811 0.20458 0.0
H793 H 0.56208 0.91037 0.28816 0.0
S794 S 0.50183 0.90575 0.05696 0.0
N795 N 0.53923 0.88756 0.0458 0.0
N796 N 0.49402 0.92098 0.13518 0.0
C797 C 0.52257 0.91175 0.1558 0.0
C798 C 0.547 0.89324 0.10734 0.0
C799 C 0.39794 0.368 0.92767 0.0
C800 C 0.39381 0.36183 0.86107 0.0
C801 C 0.3878 0.34129 0.97537 0.0
C802 C 0.37197 0.30734 0.9596 0.0
H803 H 0.41033 0.39337 0.94262 0.0
H804 H 0.39271 0.34726 1.02509 0.0
S805 S 0.35348 0.2778 0.79333 0.0
N806 N 0.37205 0.31899 0.78258 0.0
N807 N 0.35186 0.26966 0.87215 0.0
C808 C 0.36661 0.30121 0.89376 0.0
C809 C 0.37781 0.3281 0.84471 0.0
C810 C 0.97026 0.11498 0.75858 0.0
C811 C 0.98864 0.14178 0.79237 0.0
C812 C 0.93863 0.12036 0.73994 0.0
C813 C 0.92449 0.15291 0.75339 0.0
H814 H 0.9803 0.08959 0.74651 0.0
H815 H 0.92555 0.09915 0.7134 0.0
S816 S 0.96188 0.23163 0.84089 0.0
N817 N 0.98989 0.20216 0.83908 0.0
N818 N 0.9307 0.21206 0.80319 0.0
C819 C 0.94245 0.17989 0.78713 0.0
C820 C 0.97441 0.17436 0.80692 0.0
C821 C 0.14866 0.72347 0.40878 0.0
C822 C 0.16292 0.75523 0.37606 0.0
C823 C 0.13005 0.69543 0.37726 0.0
C824 C 0.12459 0.69815 0.312 0.0
H825 H 0.15028 0.7209 0.46028 0.0
H826 H 0.11871 0.67206 0.40518 0.0
S827 S 0.16063 0.77377 0.20153 0.0
N828 N 0.1733 0.78587 0.27209 0.0
N829 N 0.13839 0.73415 0.21375 0.0
C830 C 0.14042 0.72903 0.27776 0.0
C831 C 0.15952 0.75721 0.30945 0.0
C832 C 0.92638 0.67179 0.37379 0.0
C833 C 0.93012 0.67804 0.44059 0.0
C834 C 0.95212 0.65585 0.32553 0.0
C835 C 0.98207 0.64404 0.34235 0.0
H836 H 0.90389 0.68027 0.35809 0.0
H837 H 0.94871 0.65306 0.27437 0.0
S838 S 1.00406 0.65311 0.51049 0.0
N839 N 0.96641 0.67072 0.52065 0.0
N840 N 0.01365 0.63985 0.43126 0.0
C841 C 0.98558 0.64926 0.40933 0.0
C842 C 0.95998 0.66643 0.45795 0.0
C843 C 0.1216 0.19578 0.63515 0.0
C844 C 0.12583 0.20152 0.70174 0.0
C845 C 0.1306 0.22315 0.58881 0.0
C846 C 0.14514 0.25734 0.60626 0.0
H847 H 0.10994 0.17028 0.61925 0.0
H848 H 0.12573 0.21754 0.53899 0.0
S849 S 0.16284 0.28608 0.77347 0.0
N850 N 0.1462 0.24422 0.78204 0.0
N851 N 0.16396 0.29484 0.69519 0.0
C852 C 0.15057 0.26305 0.67207 0.0
C853 C 0.14072 0.23546 0.71958 0.0
C854 C 0.55675 0.41112 0.73202 0.0
C855 C 0.53186 0.42987 0.77616 0.0
C856 C 0.5888 0.40542 0.74804 0.0
C857 C 0.59725 0.41792 0.80913 0.0
H858 H 0.55131 0.40028 0.68476 0.0
H859 H 0.60653 0.38995 0.71327 0.0
S860 S 0.54255 0.47028 0.94078 0.0
N861 N 0.51874 0.46236 0.8826 0.0
N862 N 0.5792 0.4514 0.91273 0.0
C863 C 0.57317 0.43747 0.85316 0.0
C864 C 0.54049 0.44359 0.83661 0.0
C865 C 0.35357 0.81384 0.24641 0.0
C866 C 0.35146 0.81473 0.1789 0.0
C867 C 0.37036 0.84241 0.27867 0.0
C868 C 0.38617 0.87355 0.24532 0.0
H869 H 0.34339 0.79016 0.2742 0.0
H870 H 0.37183 0.8395 0.33017 0.0
S871 S 0.38579 0.89111 0.06971 0.0
N872 N 0.36482 0.8508 0.08076 0.0
N873 N 0.3963 0.90451 0.14181 0.0
C874 C 0.38249 0.87587 0.17898 0.0
C875 C 0.36524 0.84653 0.14577 0.0
C876 C 0.05201 0.39882 0.60744 0.0
C877 C 0.07931 0.38273 0.62523 0.0
C878 C 0.02775 0.41638 0.6558 0.0
C879 C 0.02946 0.41789 0.72395 0.0
H880 H 0.04964 0.39821 0.55572 0.0
H881 H 1.00676 0.42774 0.64003 0.0
S882 S 0.0953 0.37893 0.7965 0.0
N883 N 0.10635 0.36935 0.71578 0.0
N884 N 0.06056 0.40119 0.80623 0.0
C885 C 0.05654 0.40168 0.7421 0.0
C886 C 0.08149 0.38446 0.69293 0.0
C887 C 0.87716 0.83146 0.34872 0.0
C888 C 0.89424 0.86506 0.36296 0.0
C889 C 0.86681 0.80517 0.39733 0.0
C890 C 0.87399 0.8107 0.46212 0.0
H891 H 0.87184 0.82532 0.29934 0.0
H892 H 0.85412 0.77979 0.38314 0.0
S893 S 0.91898 0.89369 0.52479 0.0
N894 N 0.91768 0.90219 0.44744 0.0
N895 N 0.89965 0.85286 0.53712 0.0
C896 C 0.89109 0.84421 0.47689 0.0
C897 C 0.90079 0.87125 0.42798 0.0
C898 C 0.43419 0.66619 0.31628 0.0
C899 C 0.42506 0.65306 0.25595 0.0
C900 C 0.46541 0.65863 0.33368 0.0
C901 C 0.48865 0.63724 0.29187 0.0
H902 H 0.41757 0.68332 0.34951 0.0
H903 H 0.47147 0.66993 0.38021 0.0
S904 S 0.47601 0.59502 0.12948 0.0
N905 N 0.44104 0.61673 0.15524 0.0
N906 N 0.49976 0.60233 0.18781 0.0
C907 C 0.47943 0.62326 0.23197 0.0
C908 C 0.4477 0.63128 0.21398 0.0
C909 C 0.6496 0.22251 0.90661 0.0
C910 C 0.66425 0.25379 0.8725 0.0
C911 C 0.62946 0.19482 0.87733 0.0
C912 C 0.62264 0.19738 0.81301 0.0
H913 H 0.65228 0.22002 0.95753 0.0
H914 H 0.61818 0.17177 0.90622 0.0
S915 S 0.65833 0.27174 0.69945 0.0
N916 N 0.67305 0.28379 0.76805 0.0
N917 N 0.63514 0.23273 0.71409 0.0
C918 C 0.6385 0.22781 0.77742 0.0
C919 C 0.65927 0.25563 0.80676 0.0
C920 C 0.25027 0.26428 0.2396 0.0
C921 C 0.28712 0.27084 0.23702 0.0
C922 C 0.22518 0.27937 0.29055 0.0
C923 C 0.23531 0.30197 0.34222 0.0
H924 H 0.24053 0.24724 0.20173 0.0
H925 H 0.19737 0.2731 0.2892 0.0
S926 S 0.32843 0.32803 0.35977 0.0
N927 N 0.3323 0.30194 0.29201 0.0
N928 N 0.28549 0.32998 0.38679 0.0
C929 C 0.27208 0.30883 0.34034 0.0
C930 C 0.29773 0.29344 0.28832 0.0
C931 C 0.52625 0.51995 0.474 0.0
C932 C 0.52948 0.55689 0.48502 0.0
C933 C 0.5073 0.497 0.52388 0.0
C934 C 0.49053 0.50978 0.58737 0.0
H935 H 0.5385 0.50854 0.42636 0.0
H936 H 0.50586 0.46883 0.51228 0.0
S937 S 0.49028 0.60434 0.64222 0.0
N938 N 0.51371 0.60521 0.56502 0.0
N939 N 0.47833 0.56213 0.65794 0.0
C940 C 0.49342 0.54666 0.59912 0.0
C941 C 0.51277 0.57011 0.54834 0.0
C942 C 0.27091 0.79796 0.72164 0.0
C943 C 0.23648 0.78028 0.72828 0.0
C944 C 0.29083 0.79593 0.77061 0.0
C945 C 0.27707 0.77628 0.82842 0.0
H946 H 0.28275 0.81301 0.67775 0.0
H947 H 0.31738 0.8097 0.76281 0.0
S948 S 0.18718 0.72694 0.87103 0.0
N949 N 0.18879 0.74378 0.79817 0.0
N950 N 0.22616 0.7398 0.88996 0.0
C951 C 0.24255 0.75861 0.83567 0.0
C952 C 0.22228 0.76073 0.78579 0.0
C953 C 0.02155 0.51468 0.08036 0.0
C954 C 0.02403 0.55192 0.08379 0.0
C955 C 1.00589 0.49428 0.03144 0.0
C956 C 0.99181 0.50974 0.98264 0.0
H957 H 0.03183 0.50106 0.11563 0.0
H958 H 1.00484 0.46579 0.03216 0.0
S959 S 0.99095 0.60613 0.96871 0.0
N960 N 0.01013 0.60326 0.03233 0.0
N961 N 0.9816 0.56506 0.94222 0.0
C962 C 0.99416 0.54684 0.98538 0.0
C963 C 0.0099 0.56769 0.03514 0.0
C964 C 0.76908 0.80557 0.83857 0.0
C965 C 0.73227 0.79922 0.84016 0.0
C966 C 0.7945 0.79103 0.78693 0.0
C967 C 0.78461 0.76931 0.73387 0.0
H968 H 0.77846 0.8219 0.87766 0.0
H969 H 0.82228 0.79688 0.78886 0.0
S970 S 0.69183 0.74455 0.71295 0.0
N971 N 0.68766 0.76946 0.78212 0.0
N972 N 0.73481 0.74268 0.68683 0.0
C973 C 0.74793 0.76288 0.73479 0.0
C974 C 0.7221 0.77761 0.78715 0.0
C975 C 0.76907 0.30148 0.2273 0.0
C976 C 0.7361 0.28114 0.22984 0.0
C977 C 0.78803 0.30044 0.27816 0.0
C978 C 0.77478 0.27904 0.33377 0.0
H979 H 0.7806 0.3178 0.18506 0.0
H980 H 0.81354 0.31621 0.27338 0.0
S981 S 0.6883 0.22275 0.36631 0.0
N982 N 0.69005 0.2405 0.29421 0.0
N983 N 0.7257 0.23825 0.38924 0.0
C984 C 0.74163 0.25886 0.33715 0.0
C985 C 0.7223 0.26002 0.28545 0.0
C986 C 0.0114 0.06971 0.04361 0.0
C987 C 0.02901 0.05716 0.98059 0.0
C988 C 0.9922 0.04648 0.09299 0.0
C989 C 0.98973 1.00953 0.08187 0.0
H990 H 0.01226 0.09787 0.05506 0.0
H991 H 0.9792 0.05766 0.14027 0.0
S992 S 0.03172 0.96271 0.92597 0.0
N993 N 0.04299 1.00502 0.91057 0.0
N994 N 1.00743 0.96155 1.00244 0.0
C995 C 1.00745 0.99661 1.0191 0.0
C996 C 0.0269 1.02029 0.96887 0.0
C997 C 0.51044 0.06194 0.54089 0.0
C998 C 0.52366 0.04674 0.59103 0.0
C999 C 0.49488 0.04143 0.4924 0.0
C1000 C 0.4914 1.00422 0.49068 0.0
H1001 H 0.51203 0.09042 0.53867 0.0
H1002 H 0.48528 0.05502 0.45614 0.0
S1003 S 0.52204 0.95028 0.60897 0.0
N1004 N 0.53229 0.99146 0.63423 0.0
N1005 N 0.50338 0.9529 0.54447 0.0
C1006 C 0.50466 0.98849 0.54033 0.0
C1007 C 0.52058 1.00956 0.5898 0.0
loop_
_geom_bond_atom_site_label_1
_geom_bond_atom_site_label_2
_geom_bond_distance
_geom_bond_site_symmetry_2
_ccdc_geom_bond_type
Co0 N5 2.057 1_554 S
Co0 O17 2.021 . S
Co0 O20 2.062 . S
Co0 O24 2.117 1_554 S
Co0 O25 2.020 1_554 S
C1 O21 1.262 . S
C1 O24 1.258 . S
Co2 N11 2.057 . S
Co2 O18 2.117 . S
Co2 O19 2.020 . S
Co2 O21 2.018 1_554 S
Co2 O26 2.062 1_554 S
C3 N5 1.316 . S
C3 N6 1.347 . S
C3 H8 0.931 1_556 S
C4 N5 1.375 . S
C4 C7 1.350 . S
C4 H9 0.930 . S
N5 Co0 2.057 1_556 S
N5 C3 1.316 . S
N5 C4 1.375 . S
N6 C3 1.347 . S
N6 C7 1.373 . S
C7 C4 1.350 . S
C7 N6 1.373 . S
C7 H28 0.931 . S
H8 C3 0.931 1_554 S
H9 C4 0.930 . S
C10 O17 1.259 . S
C10 O18 1.258 . S
N11 Co2 2.057 . S
N11 C12 1.316 . S
N11 C13 1.375 . S
C12 N11 1.316 . S
C12 N14 1.347 . S
C12 H23 0.931 . S
C13 N11 1.375 . S
C13 C15 1.350 . S
C13 H22 0.930 . S
N14 C12 1.347 . S
N14 C15 1.373 . S
C15 C13 1.350 . S
C15 N14 1.373 . S
C15 H29 0.931 . S
C16 O19 1.256 . S
C16 O20 1.255 . S
O17 Co0 2.021 . S
O17 C10 1.259 . S
O18 Co2 2.117 . S
O18 C10 1.258 . S
O19 Co2 2.020 . S
O19 C16 1.256 . S
O20 Co0 2.062 . S
O20 C16 1.255 . S
O21 C1 1.262 . S
O21 Co2 2.018 1_556 S
H22 C13 0.930 . S
H23 C12 0.931 . S
O24 Co0 2.117 1_556 S
O24 C1 1.258 . S
O25 Co0 2.020 1_556 S
O25 C27 1.256 . S
O26 Co2 2.062 1_556 S
O26 C27 1.255 . S
C27 O25 1.256 . S
C27 O26 1.255 . S
H28 C7 0.931 . S
H29 C15 0.931 . S
Co30 N35 2.057 . S
Co30 O47 2.021 . S
Co30 O50 2.062 . S
Co30 O54 2.117 . S
Co30 O55 2.020 . S
C31 O51 1.259 . S
C31 O54 1.258 . S
Co32 N41 2.057 . S
Co32 O48 2.117 . S
Co32 O49 2.020 . S
Co32 O51 2.021 . S
Co32 O56 2.062 . S
C33 N35 1.316 . S
C33 N36 1.347 . S
C33 H38 0.931 . S
C34 N35 1.375 . S
C34 C37 1.350 . S
C34 H39 0.930 . S
N35 Co30 2.057 . S
N35 C33 1.316 . S
N35 C34 1.375 . S
N36 C33 1.347 . S
N36 C37 1.373 . S
C37 C34 1.350 . S
C37 N36 1.373 . S
C37 H58 0.931 . S
H38 C33 0.931 . S
H39 C34 0.930 . S
C40 O47 1.259 . S
C40 O48 1.258 . S
N41 Co32 2.057 . S
N41 C42 1.316 . S
N41 C43 1.375 . S
C42 N41 1.316 . S
C42 N44 1.347 . S
C42 H53 0.931 . S
C43 N41 1.375 . S
C43 C45 1.350 . S
C43 H52 0.930 . S
N44 C42 1.347 . S
N44 C45 1.373 . S
C45 C43 1.350 . S
C45 N44 1.373 . S
C45 H59 0.931 . S
C46 O49 1.256 . S
C46 O50 1.255 . S
O47 Co30 2.021 . S
O47 C40 1.259 . S
O48 Co32 2.117 . S
O48 C40 1.258 . S
O49 Co32 2.020 . S
O49 C46 1.256 . S
O50 Co30 2.062 . S
O50 C46 1.255 . S
O51 C31 1.259 . S
O51 Co32 2.021 . S
H52 C43 0.930 . S
H53 C42 0.931 . S
O54 Co30 2.117 . S
O54 C31 1.258 . S
O55 Co30 2.020 . S
O55 C57 1.256 . S
O56 Co32 2.062 . S
O56 C57 1.255 . S
C57 O55 1.256 . S
C57 O56 1.255 . S
H58 C37 0.931 . S
H59 C45 0.931 . S
Co60 N65 2.057 . S
Co60 O77 2.021 . S
Co60 O80 2.062 . S
Co60 O84 2.117 . S
Co60 O85 2.020 . S
C61 O81 1.259 . S
C61 O84 1.258 . S
Co62 N71 2.057 . S
Co62 O78 2.117 . S
Co62 O79 2.020 . S
Co62 O81 2.021 . S
Co62 O86 2.062 . S
C63 N65 1.316 . S
C63 N66 1.347 . S
C63 H68 0.931 . S
C64 N65 1.375 . S
C64 C67 1.350 . S
C64 H69 0.930 . S
N65 Co60 2.057 . S
N65 C63 1.316 . S
N65 C64 1.375 . S
N66 C63 1.347 . S
N66 C67 1.373 . S
C67 C64 1.350 . S
C67 N66 1.373 . S
C67 H88 0.931 . S
H68 C63 0.931 . S
H69 C64 0.930 . S
C70 O77 1.259 . S
C70 O78 1.258 . S
N71 Co62 2.057 . S
N71 C72 1.316 . S
N71 C73 1.375 . S
C72 N71 1.316 . S
C72 N74 1.347 . S
C72 H83 0.931 . S
C73 N71 1.375 . S
C73 C75 1.350 . S
C73 H82 0.930 . S
N74 C72 1.347 . S
N74 C75 1.373 . S
C75 C73 1.350 . S
C75 N74 1.373 . S
C75 H89 0.931 . S
C76 O79 1.256 . S
C76 O80 1.255 . S
O77 Co60 2.021 . S
O77 C70 1.259 . S
O78 Co62 2.117 . S
O78 C70 1.258 . S
O79 Co62 2.020 . S
O79 C76 1.256 . S
O80 Co60 2.062 . S
O80 C76 1.255 . S
O81 C61 1.259 . S
O81 Co62 2.021 . S
H82 C73 0.930 . S
H83 C72 0.931 . S
O84 Co60 2.117 . S
O84 C61 1.258 . S
O85 Co60 2.020 . S
O85 C87 1.256 . S
O86 Co62 2.062 . S
O86 C87 1.255 . S
C87 O85 1.256 . S
C87 O86 1.255 . S
H88 C67 0.931 . S
H89 C75 0.931 . S
Co90 N95 2.057 . S
Co90 O107 2.021 . S
Co90 O110 2.062 . S
Co90 O114 2.117 . S
Co90 O115 2.020 . S
C91 O111 1.259 . S
C91 O114 1.258 . S
Co92 N101 2.057 . S
Co92 O108 2.117 . S
Co92 O109 2.020 . S
Co92 O111 2.021 . S
Co92 O116 2.062 . S
C93 N95 1.316 . S
C93 N96 1.347 . S
C93 H98 0.931 . S
C94 N95 1.375 . S
C94 C97 1.350 . S
C94 H99 0.930 . S
N95 Co90 2.057 . S
N95 C93 1.316 . S
N95 C94 1.375 . S
N96 C93 1.347 . S
N96 C97 1.373 . S
C97 C94 1.350 . S
C97 N96 1.373 . S
C97 H118 0.931 . S
H98 C93 0.931 . S
H99 C94 0.930 . S
C100 O107 1.259 . S
C100 O108 1.258 . S
N101 Co92 2.057 . S
N101 C102 1.316 . S
N101 C103 1.375 . S
C102 N101 1.316 . S
C102 N104 1.347 . S
C102 H113 0.931 . S
C103 N101 1.375 . S
C103 C105 1.350 . S
C103 H112 0.930 . S
N104 C102 1.347 . S
N104 C105 1.373 . S
C105 C103 1.350 . S
C105 N104 1.373 . S
C105 H119 0.931 1_556 S
C106 O109 1.256 . S
C106 O110 1.255 . S
O107 Co90 2.021 . S
O107 C100 1.259 . S
O108 Co92 2.117 . S
O108 C100 1.258 . S
O109 Co92 2.020 . S
O109 C106 1.256 . S
O110 Co90 2.062 . S
O110 C106 1.255 . S
O111 C91 1.259 . S
O111 Co92 2.021 . S
H112 C103 0.930 . S
H113 C102 0.931 . S
O114 Co90 2.117 . S
O114 C91 1.258 . S
O115 Co90 2.020 . S
O115 C117 1.256 . S
O116 Co92 2.062 . S
O116 C117 1.255 . S
C117 O115 1.256 . S
C117 O116 1.255 . S
H118 C97 0.931 . S
H119 C105 0.931 1_554 S
Co120 N125 2.057 . S
Co120 O137 2.018 1_556 S
Co120 O140 2.062 1_556 S
Co120 O144 2.117 . S
Co120 O145 2.020 . S
C121 O141 1.259 . S
C121 O144 1.258 . S
Co122 N131 2.057 1_556 S
Co122 O138 2.117 1_556 S
Co122 O139 2.020 1_556 S
Co122 O141 2.021 . S
Co122 O146 2.062 . S
C123 N125 1.316 . S
C123 N126 1.347 . S
C123 H128 0.931 . S
C124 N125 1.375 . S
C124 C127 1.350 . S
C124 H129 0.930 . S
N125 Co120 2.057 . S
N125 C123 1.316 . S
N125 C124 1.375 . S
N126 C123 1.347 . S
N126 C127 1.373 . S
C127 C124 1.350 . S
C127 N126 1.373 . S
C127 H148 0.931 . S
H128 C123 0.931 . S
H129 C124 0.930 . S
C130 O137 1.262 . S
C130 O138 1.258 . S
N131 Co122 2.057 1_554 S
N131 C132 1.316 . S
N131 C133 1.375 . S
C132 N131 1.316 . S
C132 N134 1.347 . S
C132 H143 0.931 1_554 S
C133 N131 1.375 . S
C133 C135 1.350 . S
C133 H142 0.930 . S
N134 C132 1.347 . S
N134 C135 1.373 . S
C135 C133 1.350 . S
C135 N134 1.373 . S
C135 H149 0.931 . S
C136 O139 1.256 . S
C136 O140 1.255 . S
O137 Co120 2.018 1_554 S
O137 C130 1.262 . S
O138 Co122 2.117 1_554 S
O138 C130 1.258 . S
O139 Co122 2.020 1_554 S
O139 C136 1.256 . S
O140 Co120 2.062 1_554 S
O140 C136 1.255 . S
O141 C121 1.259 . S
O141 Co122 2.021 . S
H142 C133 0.930 . S
H143 C132 0.931 1_556 S
O144 Co120 2.117 . S
O144 C121 1.258 . S
O145 Co120 2.020 . S
O145 C147 1.256 . S
O146 Co122 2.062 . S
O146 C147 1.255 . S
C147 O145 1.256 . S
C147 O146 1.255 . S
H148 C127 0.931 . S
H149 C135 0.931 . S
Co150 N155 2.057 . S
Co150 O167 2.021 . S
Co150 O170 2.062 . S
Co150 O174 2.117 . S
Co150 O175 2.020 . S
C151 O171 1.259 . S
C151 O174 1.258 . S
Co152 N161 2.057 . S
Co152 O168 2.117 . S
Co152 O169 2.020 . S
Co152 O171 2.021 . S
Co152 O176 2.062 . S
C153 N155 1.316 . S
C153 N156 1.347 . S
C153 H158 0.931 . S
C154 N155 1.375 . S
C154 C157 1.350 . S
C154 H159 0.930 . S
N155 Co150 2.057 . S
N155 C153 1.316 . S
N155 C154 1.375 . S
N156 C153 1.347 . S
N156 C157 1.373 . S
C157 C154 1.350 . S
C157 N156 1.373 . S
C157 H178 0.931 . S
H158 C153 0.931 . S
H159 C154 0.930 . S
C160 O167 1.259 . S
C160 O168 1.258 . S
N161 Co152 2.057 . S
N161 C162 1.316 . S
N161 C163 1.375 . S
C162 N161 1.316 . S
C162 N164 1.347 . S
C162 H173 0.931 . S
C163 N161 1.375 . S
C163 C165 1.350 . S
C163 H172 0.930 . S
N164 C162 1.347 . S
N164 C165 1.373 . S
C165 C163 1.350 . S
C165 N164 1.373 . S
C165 H179 0.931 . S
C166 O169 1.256 . S
C166 O170 1.255 . S
O167 Co150 2.021 . S
O167 C160 1.259 . S
O168 Co152 2.117 . S
O168 C160 1.258 . S
O169 Co152 2.020 . S
O169 C166 1.256 . S
O170 Co150 2.062 . S
O170 C166 1.255 . S
O171 C151 1.259 . S
O171 Co152 2.021 . S
H172 C163 0.930 . S
H173 C162 0.931 . S
O174 Co150 2.117 . S
O174 C151 1.258 . S
O175 Co150 2.020 . S
O175 C177 1.256 . S
O176 Co152 2.062 . S
O176 C177 1.255 . S
C177 O175 1.256 . S
C177 O176 1.255 . S
H178 C157 0.931 . S
H179 C165 0.931 . S
Co180 N185 2.057 . S
Co180 O197 2.021 . S
Co180 O200 2.062 . S
Co180 O204 2.117 . S
Co180 O205 2.020 . S
C181 O201 1.259 . S
C181 O204 1.258 . S
Co182 N191 2.057 . S
Co182 O198 2.117 . S
Co182 O199 2.020 . S
Co182 O201 2.021 . S
Co182 O206 2.062 . S
C183 N185 1.316 . S
C183 N186 1.347 . S
C183 H188 0.931 . S
C184 N185 1.375 . S
C184 C187 1.350 . S
C184 H189 0.930 . S
N185 Co180 2.057 . S
N185 C183 1.316 . S
N185 C184 1.375 . S
N186 C183 1.347 . S
N186 C187 1.373 . S
C187 C184 1.350 . S
C187 N186 1.373 . S
C187 H208 0.931 . S
H188 C183 0.931 . S
H189 C184 0.930 . S
C190 O197 1.259 . S
C190 O198 1.258 . S
N191 Co182 2.057 . S
N191 C192 1.316 . S
N191 C193 1.375 . S
C192 N191 1.316 . S
C192 N194 1.347 . S
C192 H203 0.931 . S
C193 N191 1.375 . S
C193 C195 1.350 . S
C193 H202 0.930 . S
N194 C192 1.347 . S
N194 C195 1.373 . S
C195 C193 1.350 . S
C195 N194 1.373 . S
C195 H209 0.931 . S
C196 O199 1.256 . S
C196 O200 1.255 . S
O197 Co180 2.021 . S
O197 C190 1.259 . S
O198 Co182 2.117 . S
O198 C190 1.258 . S
O199 Co182 2.020 . S
O199 C196 1.256 . S
O200 Co180 2.062 . S
O200 C196 1.255 . S
O201 C181 1.259 . S
O201 Co182 2.021 . S
H202 C193 0.930 . S
H203 C192 0.931 . S
O204 Co180 2.117 . S
O204 C181 1.258 . S
O205 Co180 2.020 . S
O205 C207 1.256 . S
O206 Co182 2.062 . S
O206 C207 1.255 . S
C207 O205 1.256 . S
C207 O206 1.255 . S
H208 C187 0.931 . S
H209 C195 0.931 . S
Co210 N215 2.057 . S
Co210 O227 2.021 . S
Co210 O230 2.062 . S
Co210 O234 2.117 . S
Co210 O235 2.020 . S
C211 O231 1.259 . S
C211 O234 1.258 . S
Co212 N221 2.057 . S
Co212 O228 2.117 . S
Co212 O229 2.020 . S
Co212 O231 2.021 . S
Co212 O236 2.062 . S
C213 N215 1.316 . S
C213 N216 1.347 . S
C213 H218 0.931 . S
C214 N215 1.375 . S
C214 C217 1.350 . S
C214 H219 0.930 . S
N215 Co210 2.057 . S
N215 C213 1.316 . S
N215 C214 1.375 . S
N216 C213 1.347 . S
N216 C217 1.373 . S
C217 C214 1.350 . S
C217 N216 1.373 . S
C217 H238 0.931 1_554 S
H218 C213 0.931 . S
H219 C214 0.930 . S
C220 O227 1.259 . S
C220 O228 1.258 . S
N221 Co212 2.057 . S
N221 C222 1.316 . S
N221 C223 1.375 . S
C222 N221 1.316 . S
C222 N224 1.347 . S
C222 H233 0.931 . S
C223 N221 1.375 . S
C223 C225 1.350 . S
C223 H232 0.930 . S
N224 C222 1.347 . S
N224 C225 1.373 . S
C225 C223 1.350 . S
C225 N224 1.373 . S
C225 H239 0.931 . S
C226 O229 1.256 . S
C226 O230 1.255 . S
O227 Co210 2.021 . S
O227 C220 1.259 . S
O228 Co212 2.117 . S
O228 C220 1.258 . S
O229 Co212 2.020 . S
O229 C226 1.256 . S
O230 Co210 2.062 . S
O230 C226 1.255 . S
O231 C211 1.259 . S
O231 Co212 2.021 . S
H232 C223 0.930 . S
H233 C222 0.931 . S
O234 Co210 2.117 . S
O234 C211 1.258 . S
O235 Co210 2.020 . S
O235 C237 1.256 . S
O236 Co212 2.062 . S
O236 C237 1.255 . S
C237 O235 1.256 . S
C237 O236 1.255 . S
H238 C217 0.931 1_556 S
H239 C225 0.931 . S
Co240 N245 2.057 . S
Co240 O257 2.021 . S
Co240 O260 2.062 . S
Co240 O264 2.117 . S
Co240 O265 2.020 . S
C241 O261 1.259 . S
C241 O264 1.258 . S
Co242 N251 2.057 . S
Co242 O258 2.117 . S
Co242 O259 2.020 . S
Co242 O261 2.021 . S
Co242 O266 2.062 . S
C243 N245 1.316 . S
C243 N246 1.347 . S
C243 H248 0.931 . S
C244 N245 1.375 . S
C244 C247 1.350 . S
C244 H249 0.930 . S
N245 Co240 2.057 . S
N245 C243 1.316 . S
N245 C244 1.375 . S
N246 C243 1.347 . S
N246 C247 1.373 . S
C247 C244 1.350 . S
C247 N246 1.373 . S
C247 H268 0.931 . S
H248 C243 0.931 . S
H249 C244 0.930 . S
C250 O257 1.259 . S
C250 O258 1.258 . S
N251 Co242 2.057 . S
N251 C252 1.316 . S
N251 C253 1.375 . S
C252 N251 1.316 . S
C252 N254 1.347 . S
C252 H263 0.931 . S
C253 N251 1.375 . S
C253 C255 1.350 . S
C253 H262 0.930 . S
N254 C252 1.347 . S
N254 C255 1.373 . S
C255 C253 1.350 . S
C255 N254 1.373 . S
C255 H269 0.931 . S
C256 O259 1.256 . S
C256 O260 1.255 . S
O257 Co240 2.021 . S
O257 C250 1.259 . S
O258 Co242 2.117 . S
O258 C250 1.258 . S
O259 Co242 2.020 . S
O259 C256 1.256 . S
O260 Co240 2.062 . S
O260 C256 1.255 . S
O261 C241 1.259 . S
O261 Co242 2.021 . S
H262 C253 0.930 . S
H263 C252 0.931 . S
O264 Co240 2.117 . S
O264 C241 1.258 . S
O265 Co240 2.020 . S
O265 C267 1.256 . S
O266 Co242 2.062 . S
O266 C267 1.255 . S
C267 O265 1.256 . S
C267 O266 1.255 . S
H268 C247 0.931 . S
H269 C255 0.931 . S
Co270 N275 2.057 . S
Co270 O287 2.021 . S
Co270 O290 2.062 . S
Co270 O294 2.117 . S
Co270 O295 2.020 . S
C271 O291 1.259 . S
C271 O294 1.258 . S
Co272 N281 2.057 . S
Co272 O288 2.117 . S
Co272 O289 2.020 . S
Co272 O291 2.021 . S
Co272 O296 2.062 . S
C273 N275 1.316 . S
C273 N276 1.347 1_545 S
C273 H278 0.931 . S
C274 N275 1.375 . S
C274 C277 1.350 1_545 S
C274 H279 0.930 . S
N275 Co270 2.057 . S
N275 C273 1.316 . S
N275 C274 1.375 . S
N276 C273 1.347 1_565 S
N276 C277 1.373 . S
C277 C274 1.350 1_565 S
C277 N276 1.373 . S
C277 H298 0.931 . S
H278 C273 0.931 . S
H279 C274 0.930 . S
C280 O287 1.259 . S
C280 O288 1.258 . S
N281 Co272 2.057 . S
N281 C282 1.316 . S
N281 C283 1.375 . S
C282 N281 1.316 . S
C282 N284 1.347 . S
C282 H293 0.931 1_455 S
C283 N281 1.375 . S
C283 C285 1.350 . S
C283 H292 0.930 . S
N284 C282 1.347 . S
N284 C285 1.373 . S
C285 C283 1.350 . S
C285 N284 1.373 . S
C285 H299 0.931 1_556 S
C286 O289 1.256 . S
C286 O290 1.255 . S
O287 Co270 2.021 . S
O287 C280 1.259 . S
O288 Co272 2.117 . S
O288 C280 1.258 . S
O289 Co272 2.020 . S
O289 C286 1.256 . S
O290 Co270 2.062 . S
O290 C286 1.255 . S
O291 C271 1.259 . S
O291 Co272 2.021 . S
H292 C283 0.930 . S
H293 C282 0.931 1_655 S
O294 Co270 2.117 . S
O294 C271 1.258 . S
O295 Co270 2.020 . S
O295 C297 1.256 . S
O296 Co272 2.062 . S
O296 C297 1.255 . S
C297 O295 1.256 . S
C297 O296 1.255 . S
H298 C277 0.931 . S
H299 C285 0.931 1_554 S
Co300 N305 2.057 . S
Co300 O317 2.021 . S
Co300 O320 2.062 . S
Co300 O324 2.117 1_556 S
Co300 O325 2.020 . S
C301 O321 1.259 . S
C301 O324 1.258 . S
Co302 N311 2.057 . S
Co302 O318 2.117 1_554 S
Co302 O319 2.020 . S
Co302 O321 2.021 . S
Co302 O326 2.062 . S
C303 N305 1.316 . S
C303 N306 1.347 . S
C303 H308 0.931 . S
C304 N305 1.375 . S
C304 C307 1.350 . S
C304 H309 0.930 . S
N305 Co300 2.057 . S
N305 C303 1.316 . S
N305 C304 1.375 . S
N306 C303 1.347 . S
N306 C307 1.373 . S
C307 C304 1.350 . S
C307 N306 1.373 . S
C307 H328 0.931 . S
H308 C303 0.931 . S
H309 C304 0.930 . S
C310 O317 1.259 . S
C310 O318 1.258 . S
N311 Co302 2.057 . S
N311 C312 1.316 . S
N311 C313 1.375 . S
C312 N311 1.316 . S
C312 N314 1.347 . S
C312 H323 0.931 . S
C313 N311 1.375 . S
C313 C315 1.350 . S
C313 H322 0.930 . S
N314 C312 1.347 . S
N314 C315 1.373 . S
C315 C313 1.350 . S
C315 N314 1.373 . S
C315 H329 0.931 . S
C316 O319 1.256 . S
C316 O320 1.255 1_554 S
O317 Co300 2.021 . S
O317 C310 1.259 . S
O318 Co302 2.117 1_556 S
O318 C310 1.258 . S
O319 Co302 2.020 . S
O319 C316 1.256 . S
O320 Co300 2.062 . S
O320 C316 1.255 1_556 S
O321 C301 1.259 . S
O321 Co302 2.021 . S
H322 C313 0.930 . S
H323 C312 0.931 . S
O324 Co300 2.117 1_554 S
O324 C301 1.258 . S
O325 Co300 2.020 . S
O325 C327 1.256 . S
O326 Co302 2.062 . S
O326 C327 1.255 1_554 S
C327 O325 1.256 . S
C327 O326 1.255 1_556 S
H328 C307 0.931 . S
H329 C315 0.931 . S
Co330 N335 2.057 . S
Co330 O347 2.021 . S
Co330 O350 2.062 . S
Co330 O354 2.117 . S
Co330 O355 2.020 . S
C331 O351 1.259 . S
C331 O354 1.258 . S
Co332 N341 2.057 . S
Co332 O348 2.117 . S
Co332 O349 2.020 . S
Co332 O351 2.021 . S
Co332 O356 2.062 . S
C333 N335 1.316 . S
C333 N336 1.347 1_565 S
C333 H338 0.931 . S
C334 N335 1.375 . S
C334 C337 1.350 1_565 S
C334 H339 0.930 . S
N335 Co330 2.057 . S
N335 C333 1.316 . S
N335 C334 1.375 . S
N336 C333 1.347 1_545 S
N336 C337 1.373 . S
C337 C334 1.350 1_545 S
C337 N336 1.373 . S
C337 H358 0.931 . S
H338 C333 0.931 . S
H339 C334 0.930 . S
C340 O347 1.259 . S
C340 O348 1.258 . S
N341 Co332 2.057 . S
N341 C342 1.316 . S
N341 C343 1.375 . S
C342 N341 1.316 . S
C342 N344 1.347 . S
C342 H353 0.931 . S
C343 N341 1.375 . S
C343 C345 1.350 . S
C343 H352 0.930 . S
N344 C342 1.347 . S
N344 C345 1.373 . S
C345 C343 1.350 . S
C345 N344 1.373 . S
C345 H359 0.931 . S
C346 O349 1.256 . S
C346 O350 1.255 . S
O347 Co330 2.021 . S
O347 C340 1.259 . S
O348 Co332 2.117 . S
O348 C340 1.258 . S
O349 Co332 2.020 . S
O349 C346 1.256 . S
O350 Co330 2.062 . S
O350 C346 1.255 . S
O351 C331 1.259 . S
O351 Co332 2.021 . S
H352 C343 0.930 . S
H353 C342 0.931 . S
O354 Co330 2.117 . S
O354 C331 1.258 . S
O355 Co330 2.020 . S
O355 C357 1.256 . S
O356 Co332 2.062 . S
O356 C357 1.255 . S
C357 O355 1.256 . S
C357 O356 1.255 . S
H358 C337 0.931 . S
H359 C345 0.931 . S
Co360 N365 2.057 . S
Co360 O377 2.021 . S
Co360 O380 2.062 . S
Co360 O384 2.117 . S
Co360 O385 2.020 . S
C361 O381 1.259 . S
C361 O384 1.258 . S
Co362 N371 2.057 . S
Co362 O378 2.117 . S
Co362 O379 2.020 . S
Co362 O381 2.021 . S
Co362 O386 2.062 . S
C363 N365 1.316 . S
C363 N366 1.347 . S
C363 H368 0.931 . S
C364 N365 1.375 . S
C364 C367 1.350 . S
C364 H369 0.930 . S
N365 Co360 2.057 . S
N365 C363 1.316 . S
N365 C364 1.375 . S
N366 C363 1.347 . S
N366 C367 1.373 . S
C367 C364 1.350 . S
C367 N366 1.373 . S
C367 H388 0.931 . S
H368 C363 0.931 . S
H369 C364 0.930 . S
C370 O377 1.259 . S
C370 O378 1.258 . S
N371 Co362 2.057 . S
N371 C372 1.316 . S
N371 C373 1.375 . S
C372 N371 1.316 . S
C372 N374 1.347 . S
C372 H383 0.931 . S
C373 N371 1.375 . S
C373 C375 1.350 . S
C373 H382 0.930 . S
N374 C372 1.347 . S
N374 C375 1.373 . S
C375 C373 1.350 . S
C375 N374 1.373 . S
C375 H389 0.931 . S
C376 O379 1.256 . S
C376 O380 1.255 . S
O377 Co360 2.021 . S
O377 C370 1.259 . S
O378 Co362 2.117 . S
O378 C370 1.258 . S
O379 Co362 2.020 . S
O379 C376 1.256 . S
O380 Co360 2.062 . S
O380 C376 1.255 . S
O381 C361 1.259 . S
O381 Co362 2.021 . S
H382 C373 0.930 . S
H383 C372 0.931 . S
O384 Co360 2.117 . S
O384 C361 1.258 . S
O385 Co360 2.020 . S
O385 C387 1.256 . S
O386 Co362 2.062 . S
O386 C387 1.255 . S
C387 O385 1.256 . S
C387 O386 1.255 . S
H388 C367 0.931 . S
H389 C375 0.931 . S
Co390 N395 2.057 . S
Co390 O407 2.021 . S
Co390 O410 2.062 . S
Co390 O414 2.117 . S
Co390 O415 2.020 . S
C391 O411 1.259 . S
C391 O414 1.258 . S
Co392 N401 2.057 . S
Co392 O408 2.117 . S
Co392 O409 2.020 . S
Co392 O411 2.021 . S
Co392 O416 2.062 . S
C393 N395 1.316 . S
C393 N396 1.347 . S
C393 H398 0.931 1_655 S
C394 N395 1.375 . S
C394 C397 1.350 . S
C394 H399 0.930 . S
N395 Co390 2.057 . S
N395 C393 1.316 . S
N395 C394 1.375 . S
N396 C393 1.347 . S
N396 C397 1.373 . S
C397 C394 1.350 . S
C397 N396 1.373 . S
C397 H418 0.931 1_554 S
H398 C393 0.931 1_455 S
H399 C394 0.930 . S
C400 O407 1.259 . S
C400 O408 1.258 . S
N401 Co392 2.057 . S
N401 C402 1.316 . S
N401 C403 1.375 . S
C402 N401 1.316 . S
C402 N404 1.347 1_565 S
C402 H413 0.931 . S
C403 N401 1.375 . S
C403 C405 1.350 1_565 S
C403 H412 0.930 . S
N404 C402 1.347 1_545 S
N404 C405 1.373 . S
C405 C403 1.350 1_545 S
C405 N404 1.373 . S
C405 H419 0.931 . S
C406 O409 1.256 . S
C406 O410 1.255 . S
O407 Co390 2.021 . S
O407 C400 1.259 . S
O408 Co392 2.117 . S
O408 C400 1.258 . S
O409 Co392 2.020 . S
O409 C406 1.256 . S
O410 Co390 2.062 . S
O410 C406 1.255 . S
O411 C391 1.259 . S
O411 Co392 2.021 . S
H412 C403 0.930 . S
H413 C402 0.931 . S
O414 Co390 2.117 . S
O414 C391 1.258 . S
O415 Co390 2.020 . S
O415 C417 1.256 . S
O416 Co392 2.062 . S
O416 C417 1.255 . S
C417 O415 1.256 . S
C417 O416 1.255 . S
H418 C397 0.931 1_556 S
H419 C405 0.931 . S
Co420 N425 2.057 . S
Co420 O437 2.021 . S
Co420 O440 2.062 . S
Co420 O444 2.117 1_556 S
Co420 O445 2.020 . S
C421 O441 1.259 . S
C421 O444 1.258 . S
Co422 N431 2.057 . S
Co422 O438 2.117 1_554 S
Co422 O439 2.020 . S
Co422 O441 2.021 . S
Co422 O446 2.062 . S
C423 N425 1.316 . S
C423 N426 1.347 . S
C423 H428 0.931 . S
C424 N425 1.375 . S
C424 C427 1.350 . S
C424 H429 0.930 . S
N425 Co420 2.057 . S
N425 C423 1.316 . S
N425 C424 1.375 . S
N426 C423 1.347 . S
N426 C427 1.373 . S
C427 C424 1.350 . S
C427 N426 1.373 . S
C427 H448 0.931 . S
H428 C423 0.931 . S
H429 C424 0.930 . S
C430 O437 1.259 . S
C430 O438 1.258 . S
N431 Co422 2.057 . S
N431 C432 1.316 . S
N431 C433 1.375 . S
C432 N431 1.316 . S
C432 N434 1.347 . S
C432 H443 0.931 . S
C433 N431 1.375 . S
C433 C435 1.350 . S
C433 H442 0.930 . S
N434 C432 1.347 . S
N434 C435 1.373 . S
C435 C433 1.350 . S
C435 N434 1.373 . S
C435 H449 0.931 . S
C436 O439 1.256 . S
C436 O440 1.255 1_554 S
O437 Co420 2.021 . S
O437 C430 1.259 . S
O438 Co422 2.117 1_556 S
O438 C430 1.258 . S
O439 Co422 2.020 . S
O439 C436 1.256 . S
O440 Co420 2.062 . S
O440 C436 1.255 1_556 S
O441 C421 1.259 . S
O441 Co422 2.021 . S
H442 C433 0.930 . S
H443 C432 0.931 . S
O444 Co420 2.117 1_554 S
O444 C421 1.258 . S
O445 Co420 2.020 . S
O445 C447 1.256 . S
O446 Co422 2.062 . S
O446 C447 1.255 1_554 S
C447 O445 1.256 . S
C447 O446 1.255 1_556 S
H448 C427 0.931 . S
H449 C435 0.931 . S
Co450 N455 2.057 . S
Co450 O467 2.021 . S
Co450 O470 2.062 . S
Co450 O474 2.117 . S
Co450 O475 2.020 . S
C451 O471 1.259 . S
C451 O474 1.258 . S
Co452 N461 2.057 . S
Co452 O468 2.117 . S
Co452 O469 2.020 . S
Co452 O471 2.021 . S
Co452 O476 2.062 . S
C453 N455 1.316 . S
C453 N456 1.347 . S
C453 H458 0.931 . S
C454 N455 1.375 . S
C454 C457 1.350 . S
C454 H459 0.930 . S
N455 Co450 2.057 . S
N455 C453 1.316 . S
N455 C454 1.375 . S
N456 C453 1.347 . S
N456 C457 1.373 . S
C457 C454 1.350 . S
C457 N456 1.373 . S
C457 H478 0.931 . S
H458 C453 0.931 . S
H459 C454 0.930 . S
C460 O467 1.259 . S
C460 O468 1.258 . S
N461 Co452 2.057 . S
N461 C462 1.316 . S
N461 C463 1.375 . S
C462 N461 1.316 . S
C462 N464 1.347 1_545 S
C462 H473 0.931 . S
C463 N461 1.375 . S
C463 C465 1.350 1_545 S
C463 H472 0.930 . S
N464 C462 1.347 1_565 S
N464 C465 1.373 . S
C465 C463 1.350 1_565 S
C465 N464 1.373 . S
C465 H479 0.931 . S
C466 O469 1.256 . S
C466 O470 1.255 . S
O467 Co450 2.021 . S
O467 C460 1.259 . S
O468 Co452 2.117 . S
O468 C460 1.258 . S
O469 Co452 2.020 . S
O469 C466 1.256 . S
O470 Co450 2.062 . S
O470 C466 1.255 . S
O471 C451 1.259 . S
O471 Co452 2.021 . S
H472 C463 0.930 . S
H473 C462 0.931 . S
O474 Co450 2.117 . S
O474 C451 1.258 . S
O475 Co450 2.020 . S
O475 C477 1.256 . S
O476 Co452 2.062 . S
O476 C477 1.255 . S
C477 O475 1.256 . S
C477 O476 1.255 . S
H478 C457 0.931 . S
H479 C465 0.931 . S
C480 C481 1.369 . S
C480 C482 1.419 . S
C480 H484 0.930 . S
C481 C480 1.369 . S
C481 C490 1.429 . S
C482 C480 1.419 . S
C482 C483 1.363 . S
C482 H485 0.929 . S
C483 C482 1.363 . S
C483 C489 1.428 . S
H484 C480 0.930 . S
H485 C482 0.929 . S
S486 N487 1.615 . S
S486 N488 1.610 . S
N487 S486 1.615 . S
N487 C490 1.348 1_556 S
N488 S486 1.610 . S
N488 C489 1.351 1_556 S
C489 C483 1.428 . S
C489 N488 1.351 1_554 S
C489 C490 1.434 . S
C490 C481 1.429 . S
C490 N487 1.348 1_554 S
C490 C489 1.434 . S
C491 C492 1.369 . S
C491 C493 1.419 . S
C491 H495 0.930 . S
C492 C491 1.369 . S
C492 C501 1.429 . S
C493 C491 1.419 . S
C493 C494 1.363 . S
C493 H496 0.929 . S
C494 C493 1.363 . S
C494 C500 1.428 . S
H495 C491 0.930 . S
H496 C493 0.929 . S
S497 N498 1.613 . S
S497 N499 1.610 . S
N498 S497 1.613 . S
N498 C501 1.350 . S
N499 S497 1.610 . S
N499 C500 1.351 . S
C500 C494 1.428 . S
C500 N499 1.351 . S
C500 C501 1.434 . S
C501 C492 1.429 . S
C501 N498 1.350 . S
C501 C500 1.434 . S
C502 C503 1.369 . S
C502 C504 1.419 . S
C502 H506 0.930 . S
C503 C502 1.369 . S
C503 C512 1.429 . S
C504 C502 1.419 . S
C504 C505 1.363 . S
C504 H507 0.929 1_455 S
C505 C504 1.363 . S
C505 C511 1.428 . S
H506 C502 0.930 . S
H507 C504 0.929 1_655 S
S508 N509 1.613 . S
S508 N510 1.610 . S
N509 S508 1.613 . S
N509 C512 1.350 . S
N510 S508 1.610 . S
N510 C511 1.351 . S
C511 C505 1.428 . S
C511 N510 1.351 . S
C511 C512 1.434 . S
C512 C503 1.429 . S
C512 N509 1.350 . S
C512 C511 1.434 . S
C513 C514 1.369 . S
C513 C515 1.419 . S
C513 H517 0.930 . S
C514 C513 1.369 . S
C514 C523 1.429 . S
C515 C513 1.419 . S
C515 C516 1.363 1_655 S
C515 H518 0.937 . S
C516 C515 1.363 1_455 S
C516 C522 1.428 1_455 S
H517 C513 0.930 . S
H518 C515 0.937 . S
S519 N520 1.613 . S
S519 N521 1.610 1_655 S
N520 S519 1.613 . S
N520 C523 1.350 1_554 S
N521 S519 1.610 1_455 S
N521 C522 1.351 1_454 S
C522 C516 1.428 1_655 S
C522 N521 1.351 1_656 S
C522 C523 1.434 . S
C523 C514 1.429 . S
C523 N520 1.350 1_556 S
C523 C522 1.434 . S
C524 C525 1.369 . S
C524 C526 1.419 . S
C524 H528 0.930 . S
C525 C524 1.369 . S
C525 C534 1.429 . S
C526 C524 1.419 . S
C526 C527 1.363 . S
C526 H529 0.929 . S
C527 C526 1.363 . S
C527 C533 1.428 . S
H528 C524 0.930 . S
H529 C526 0.929 . S
S530 N531 1.613 . S
S530 N532 1.610 . S
N531 S530 1.613 . S
N531 C534 1.350 . S
N532 S530 1.610 . S
N532 C533 1.351 . S
C533 C527 1.428 . S
C533 N532 1.351 . S
C533 C534 1.434 . S
C534 C525 1.429 . S
C534 N531 1.350 . S
C534 C533 1.434 . S
C535 C536 1.369 . S
C535 C537 1.419 . S
C535 H539 0.930 . S
C536 C535 1.369 . S
C536 C545 1.429 . S
C537 C535 1.419 . S
C537 C538 1.363 . S
C537 H540 0.929 . S
C538 C537 1.363 . S
C538 C544 1.428 . S
H539 C535 0.930 . S
H540 C537 0.929 . S
S541 N542 1.613 . S
S541 N543 1.610 . S
N542 S541 1.613 . S
N542 C545 1.350 . S
N543 S541 1.610 . S
N543 C544 1.351 . S
C544 C538 1.428 . S
C544 N543 1.351 . S
C544 C545 1.434 . S
C545 C536 1.429 . S
C545 N542 1.350 . S
C545 C544 1.434 . S
C546 C547 1.369 . S
C546 C548 1.419 . S
C546 H550 0.930 . S
C547 C546 1.369 . S
C547 C556 1.429 . S
C548 C546 1.419 . S
C548 C549 1.363 . S
C548 H551 0.929 . S
C549 C548 1.363 . S
C549 C555 1.428 . S
H550 C546 0.930 . S
H551 C548 0.929 . S
S552 N553 1.613 . S
S552 N554 1.610 1_655 S
N553 S552 1.613 . S
N553 C556 1.350 . S
N554 S552 1.610 1_455 S
N554 C555 1.351 1_455 S
C555 C549 1.428 . S
C555 N554 1.351 1_655 S
C555 C556 1.434 . S
C556 C547 1.429 . S
C556 N553 1.350 . S
C556 C555 1.434 . S
C557 C558 1.369 . S
C557 C559 1.419 1_455 S
C557 H561 0.930 . S
C558 C557 1.369 . S
C558 C567 1.429 . S
C559 C557 1.419 1_655 S
C559 C560 1.363 . S
C559 H562 0.929 . S
C560 C559 1.363 . S
C560 C566 1.428 1_655 S
H561 C557 0.930 . S
H562 C559 0.929 . S
S563 N564 1.613 . S
S563 N565 1.610 . S
N564 S563 1.613 . S
N564 C567 1.350 1_556 S
N565 S563 1.610 . S
N565 C566 1.351 1_556 S
C566 C560 1.428 1_455 S
C566 N565 1.351 1_554 S
C566 C567 1.434 . S
C567 C558 1.429 . S
C567 N564 1.350 1_554 S
C567 C566 1.434 . S
C568 C569 1.369 . S
C568 C570 1.419 . S
C568 H572 0.930 . S
C569 C568 1.369 . S
C569 C578 1.429 . S
C570 C568 1.419 . S
C570 C571 1.363 . S
C570 H573 0.929 . S
C571 C570 1.363 . S
C571 C577 1.428 . S
H572 C568 0.930 . S
H573 C570 0.929 . S
S574 N575 1.613 . S
S574 N576 1.610 . S
N575 S574 1.613 . S
N575 C578 1.350 1_554 S
N576 S574 1.610 . S
N576 C577 1.351 1_554 S
C577 C571 1.428 . S
C577 N576 1.351 1_556 S
C577 C578 1.434 . S
C578 C569 1.429 . S
C578 N575 1.350 1_556 S
C578 C577 1.434 . S
C579 C580 1.369 . S
C579 C581 1.419 . S
C579 H583 0.930 . S
C580 C579 1.369 . S
C580 C589 1.429 . S
C581 C579 1.419 . S
C581 C582 1.363 . S
C581 H584 0.929 . S
C582 C581 1.363 . S
C582 C588 1.428 . S
H583 C579 0.930 . S
H584 C581 0.929 . S
S585 N586 1.613 . S
S585 N587 1.610 . S
N586 S585 1.613 . S
N586 C589 1.350 . S
N587 S585 1.610 . S
N587 C588 1.351 . S
C588 C582 1.428 . S
C588 N587 1.351 . S
C588 C589 1.434 . S
C589 C580 1.429 . S
C589 N586 1.350 . S
C589 C588 1.434 . S
C590 C591 1.369 . S
C590 C592 1.419 . S
C590 H594 0.930 . S
C591 C590 1.369 . S
C591 C600 1.429 . S
C592 C590 1.419 . S
C592 C593 1.363 . S
C592 H595 0.929 . S
C593 C592 1.363 . S
C593 C599 1.428 . S
H594 C590 0.930 . S
H595 C592 0.929 . S
S596 N597 1.613 . S
S596 N598 1.610 . S
N597 S596 1.613 . S
N597 C600 1.350 . S
N598 S596 1.610 . S
N598 C599 1.351 . S
C599 C593 1.428 . S
C599 N598 1.351 . S
C599 C600 1.434 . S
C600 C591 1.429 . S
C600 N597 1.350 . S
C600 C599 1.434 . S
C601 C602 1.369 . S
C601 C603 1.419 . S
C601 H605 0.930 . S
C602 C601 1.369 . S
C602 C611 1.429 . S
C603 C601 1.419 . S
C603 C604 1.363 . S
C603 H606 0.929 . S
C604 C603 1.363 . S
C604 C610 1.428 . S
H605 C601 0.930 . S
H606 C603 0.929 . S
S607 N608 1.613 . S
S607 N609 1.610 . S
N608 S607 1.613 . S
N608 C611 1.350 . S
N609 S607 1.610 . S
N609 C610 1.351 . S
C610 C604 1.428 . S
C610 N609 1.351 . S
C610 C611 1.434 . S
C611 C602 1.429 . S
C611 N608 1.350 . S
C611 C610 1.434 . S
C612 C613 1.369 . S
C612 C614 1.419 . S
C612 H616 0.930 . S
C613 C612 1.369 . S
C613 C622 1.429 . S
C614 C612 1.419 . S
C614 C615 1.363 . S
C614 H617 0.929 . S
C615 C614 1.363 . S
C615 C621 1.428 . S
H616 C612 0.930 . S
H617 C614 0.929 . S
S618 N619 1.613 . S
S618 N620 1.610 . S
N619 S618 1.613 . S
N619 C622 1.350 . S
N620 S618 1.610 . S
N620 C621 1.351 . S
C621 C615 1.428 . S
C621 N620 1.351 . S
C621 C622 1.434 . S
C622 C613 1.429 . S
C622 N619 1.350 . S
C622 C621 1.434 . S
C623 C624 1.369 . S
C623 C625 1.419 . S
C623 H627 0.930 . S
C624 C623 1.369 . S
C624 C633 1.429 . S
C625 C623 1.419 . S
C625 C626 1.363 . S
C625 H628 0.929 . S
C626 C625 1.363 . S
C626 C632 1.428 . S
H627 C623 0.930 . S
H628 C625 0.929 . S
S629 N630 1.613 . S
S629 N631 1.610 . S
N630 S629 1.613 . S
N630 C633 1.350 . S
N631 S629 1.610 . S
N631 C632 1.351 . S
C632 C626 1.428 . S
C632 N631 1.351 . S
C632 C633 1.434 . S
C633 C624 1.429 . S
C633 N630 1.350 . S
C633 C632 1.434 . S
C634 C635 1.369 . S
C634 C636 1.419 . S
C634 H638 0.930 . S
C635 C634 1.369 . S
C635 C644 1.429 . S
C636 C634 1.419 . S
C636 C637 1.363 . S
C636 H639 0.929 . S
C637 C636 1.363 . S
C637 C643 1.428 . S
H638 C634 0.930 . S
H639 C636 0.929 . S
S640 N641 1.613 . S
S640 N642 1.610 . S
N641 S640 1.613 . S
N641 C644 1.350 . S
N642 S640 1.610 . S
N642 C643 1.351 . S
C643 C637 1.428 . S
C643 N642 1.351 . S
C643 C644 1.434 . S
C644 C635 1.429 . S
C644 N641 1.350 . S
C644 C643 1.434 . S
C645 C646 1.369 . S
C645 C647 1.419 . S
C645 H649 0.930 . S
C646 C645 1.369 . S
C646 C655 1.429 . S
C647 C645 1.419 . S
C647 C648 1.363 . S
C647 H650 0.929 . S
C648 C647 1.363 . S
C648 C654 1.428 . S
H649 C645 0.930 . S
H650 C647 0.929 . S
S651 N652 1.613 . S
S651 N653 1.610 . S
N652 S651 1.613 . S
N652 C655 1.350 . S
N653 S651 1.610 . S
N653 C654 1.351 . S
C654 C648 1.428 . S
C654 N653 1.351 . S
C654 C655 1.434 . S
C655 C646 1.429 . S
C655 N652 1.350 . S
C655 C654 1.434 . S
C656 C657 1.369 . S
C656 C658 1.419 . S
C656 H660 0.930 . S
C657 C656 1.369 . S
C657 C666 1.429 . S
C658 C656 1.419 . S
C658 C659 1.363 . S
C658 H661 0.929 . S
C659 C658 1.363 . S
C659 C665 1.428 . S
H660 C656 0.930 . S
H661 C658 0.929 . S
S662 N663 1.613 . S
S662 N664 1.610 . S
N663 S662 1.613 . S
N663 C666 1.350 . S
N664 S662 1.610 . S
N664 C665 1.351 . S
C665 C659 1.428 . S
C665 N664 1.351 . S
C665 C666 1.434 . S
C666 C657 1.429 . S
C666 N663 1.350 . S
C666 C665 1.434 . S
C667 C668 1.369 . S
C667 C669 1.419 . S
C667 H671 0.930 . S
C668 C667 1.369 . S
C668 C677 1.429 . S
C669 C667 1.419 . S
C669 C670 1.363 . S
C669 H672 0.929 . S
C670 C669 1.363 . S
C670 C676 1.428 . S
H671 C667 0.930 . S
H672 C669 0.929 . S
S673 N674 1.613 . S
S673 N675 1.610 . S
N674 S673 1.613 . S
N674 C677 1.350 . S
N675 S673 1.610 . S
N675 C676 1.351 . S
C676 C670 1.428 . S
C676 N675 1.351 . S
C676 C677 1.434 . S
C677 C668 1.429 . S
C677 N674 1.350 . S
C677 C676 1.434 . S
C678 C679 1.369 . S
C678 C680 1.419 . S
C678 H682 0.930 1_556 S
C679 C678 1.369 . S
C679 C688 1.429 . S
C680 C678 1.419 . S
C680 C681 1.363 . S
C680 H683 0.929 . S
C681 C680 1.363 . S
C681 C687 1.428 . S
H682 C678 0.930 1_554 S
H683 C680 0.929 . S
S684 N685 1.613 . S
S684 N686 1.610 . S
N685 S684 1.613 . S
N685 C688 1.350 . S
N686 S684 1.610 . S
N686 C687 1.351 . S
C687 C681 1.428 . S
C687 N686 1.351 . S
C687 C688 1.434 . S
C688 C679 1.429 . S
C688 N685 1.350 . S
C688 C687 1.434 . S
C689 C690 1.369 . S
C689 C691 1.419 . S
C689 H693 0.930 . S
C690 C689 1.369 . S
C690 C699 1.429 . S
C691 C689 1.419 . S
C691 C692 1.363 . S
C691 H694 0.929 . S
C692 C691 1.363 . S
C692 C698 1.428 . S
H693 C689 0.930 . S
H694 C691 0.929 . S
S695 N696 1.613 . S
S695 N697 1.610 . S
N696 S695 1.613 . S
N696 C699 1.350 . S
N697 S695 1.610 . S
N697 C698 1.351 . S
C698 C692 1.428 . S
C698 N697 1.351 . S
C698 C699 1.434 . S
C699 C690 1.429 . S
C699 N696 1.350 . S
C699 C698 1.434 . S
C700 C701 1.369 . S
C700 C702 1.419 . S
C700 H704 0.930 . S
C701 C700 1.369 . S
C701 C710 1.429 . S
C702 C700 1.419 . S
C702 C703 1.363 . S
C702 H705 0.929 . S
C703 C702 1.363 . S
C703 C709 1.428 . S
H704 C700 0.930 . S
H705 C702 0.929 . S
S706 N707 1.613 . S
S706 N708 1.610 . S
N707 S706 1.613 . S
N707 C710 1.350 . S
N708 S706 1.610 . S
N708 C709 1.351 . S
C709 C703 1.428 . S
C709 N708 1.351 . S
C709 C710 1.434 . S
C710 C701 1.429 . S
C710 N707 1.350 . S
C710 C709 1.434 . S
C711 C712 1.369 . S
C711 C713 1.419 . S
C711 H715 0.930 . S
C712 C711 1.369 . S
C712 C721 1.429 . S
C713 C711 1.419 . S
C713 C714 1.363 . S
C713 H716 0.929 . S
C714 C713 1.363 . S
C714 C720 1.428 . S
H715 C711 0.930 . S
H716 C713 0.929 . S
S717 N718 1.613 . S
S717 N719 1.610 . S
N718 S717 1.613 . S
N718 C721 1.350 . S
N719 S717 1.610 . S
N719 C720 1.351 . S
C720 C714 1.428 . S
C720 N719 1.351 . S
C720 C721 1.434 . S
C721 C712 1.429 . S
C721 N718 1.350 . S
C721 C720 1.434 . S
C722 C723 1.369 . S
C722 C724 1.419 . S
C722 H726 0.930 . S
C723 C722 1.369 . S
C723 C732 1.429 . S
C724 C722 1.419 . S
C724 C725 1.363 . S
C724 H727 0.932 . S
C725 C724 1.363 . S
C725 C731 1.428 . S
H726 C722 0.930 . S
H727 C724 0.932 . S
S728 N729 1.613 . S
S728 N730 1.610 . S
N729 S728 1.613 . S
N729 C732 1.350 . S
N730 S728 1.610 . S
N730 C731 1.351 . S
C731 C725 1.428 . S
C731 N730 1.351 . S
C731 C732 1.434 . S
C732 C723 1.429 . S
C732 N729 1.350 . S
C732 C731 1.434 . S
C733 C734 1.369 . S
C733 C735 1.419 . S
C733 H737 0.930 . S
C734 C733 1.369 . S
C734 C743 1.429 . S
C735 C733 1.419 . S
C735 C736 1.363 . S
C735 H738 0.929 . S
C736 C735 1.363 . S
C736 C742 1.428 . S
H737 C733 0.930 . S
H738 C735 0.929 . S
S739 N740 1.613 . S
S739 N741 1.610 . S
N740 S739 1.613 . S
N740 C743 1.350 . S
N741 S739 1.610 . S
N741 C742 1.351 . S
C742 C736 1.428 . S
C742 N741 1.351 . S
C742 C743 1.434 . S
C743 C734 1.429 . S
C743 N740 1.350 . S
C743 C742 1.434 . S
C744 C745 1.369 . S
C744 C746 1.419 . S
C744 H748 0.930 . S
C745 C744 1.369 . S
C745 C754 1.429 . S
C746 C744 1.419 . S
C746 C747 1.363 . S
C746 H749 0.929 . S
C747 C746 1.363 . S
C747 C753 1.428 . S
H748 C744 0.930 . S
H749 C746 0.929 . S
S750 N751 1.613 . S
S750 N752 1.610 . S
N751 S750 1.613 . S
N751 C754 1.350 . S
N752 S750 1.610 . S
N752 C753 1.351 . S
C753 C747 1.428 . S
C753 N752 1.351 . S
C753 C754 1.434 . S
C754 C745 1.429 . S
C754 N751 1.350 . S
C754 C753 1.434 . S
C755 C756 1.369 . S
C755 C757 1.419 . S
C755 H759 0.930 . S
C756 C755 1.369 . S
C756 C765 1.429 . S
C757 C755 1.419 . S
C757 C758 1.363 . S
C757 H760 0.929 . S
C758 C757 1.363 . S
C758 C764 1.428 . S
H759 C755 0.930 . S
H760 C757 0.929 . S
S761 N762 1.613 . S
S761 N763 1.610 . S
N762 S761 1.613 . S
N762 C765 1.350 . S
N763 S761 1.610 . S
N763 C764 1.351 . S
C764 C758 1.428 . S
C764 N763 1.351 . S
C764 C765 1.434 . S
C765 C756 1.429 . S
C765 N762 1.350 . S
C765 C764 1.434 . S
C766 C767 1.369 . S
C766 C768 1.419 . S
C766 H770 0.930 . S
C767 C766 1.369 . S
C767 C776 1.429 . S
C768 C766 1.419 . S
C768 C769 1.363 . S
C768 H771 0.929 . S
C769 C768 1.363 . S
C769 C775 1.428 . S
H770 C766 0.930 . S
H771 C768 0.929 . S
S772 N773 1.613 . S
S772 N774 1.610 1_655 S
N773 S772 1.613 . S
N773 C776 1.350 1_655 S
N774 S772 1.610 1_455 S
N774 C775 1.351 . S
C775 C769 1.428 . S
C775 N774 1.351 . S
C775 C776 1.434 . S
C776 C767 1.429 . S
C776 N773 1.350 1_455 S
C776 C775 1.434 . S
C777 C778 1.369 . S
C777 C779 1.419 . S
C777 H781 0.930 . S
C778 C777 1.369 . S
C778 C787 1.429 . S
C779 C777 1.419 . S
C779 C780 1.363 . S
C779 H782 0.929 . S
C780 C779 1.363 . S
C780 C786 1.428 . S
H781 C777 0.930 . S
H782 C779 0.929 . S
S783 N784 1.613 . S
S783 N785 1.610 . S
N784 S783 1.613 . S
N784 C787 1.350 . S
N785 S783 1.610 . S
N785 C786 1.351 . S
C786 C780 1.428 . S
C786 N785 1.351 . S
C786 C787 1.434 . S
C787 C778 1.429 . S
C787 N784 1.350 . S
C787 C786 1.434 . S
C788 C789 1.369 . S
C788 C790 1.419 . S
C788 H792 0.930 . S
C789 C788 1.369 . S
C789 C798 1.429 . S
C790 C788 1.419 . S
C790 C791 1.363 . S
C790 H793 0.929 . S
C791 C790 1.363 . S
C791 C797 1.428 . S
H792 C788 0.930 . S
H793 C790 0.929 . S
S794 N795 1.613 . S
S794 N796 1.610 . S
N795 S794 1.613 . S
N795 C798 1.350 . S
N796 S794 1.610 . S
N796 C797 1.351 . S
C797 C791 1.428 . S
C797 N796 1.351 . S
C797 C798 1.434 . S
C798 C789 1.429 . S
C798 N795 1.350 . S
C798 C797 1.434 . S
C799 C800 1.369 . S
C799 C801 1.419 . S
C799 H803 0.930 . S
C800 C799 1.369 . S
C800 C809 1.429 . S
C801 C799 1.419 . S
C801 C802 1.363 . S
C801 H804 0.929 . S
C802 C801 1.363 . S
C802 C808 1.428 . S
H803 C799 0.930 . S
H804 C801 0.929 . S
S805 N806 1.613 . S
S805 N807 1.610 . S
N806 S805 1.613 . S
N806 C809 1.350 . S
N807 S805 1.610 . S
N807 C808 1.351 . S
C808 C802 1.428 . S
C808 N807 1.351 . S
C808 C809 1.434 . S
C809 C800 1.429 . S
C809 N806 1.350 . S
C809 C808 1.434 . S
C810 C811 1.369 . S
C810 C812 1.419 . S
C810 H814 0.930 . S
C811 C810 1.369 . S
C811 C820 1.429 . S
C812 C810 1.419 . S
C812 C813 1.363 . S
C812 H815 0.929 . S
C813 C812 1.363 . S
C813 C819 1.428 . S
H814 C810 0.930 . S
H815 C812 0.929 . S
S816 N817 1.613 1_655 S
S816 N818 1.610 . S
N817 S816 1.613 1_455 S
N817 C820 1.350 1_455 S
N818 S816 1.610 . S
N818 C819 1.351 . S
C819 C813 1.428 . S
C819 N818 1.351 . S
C819 C820 1.434 . S
C820 C811 1.429 . S
C820 N817 1.350 1_655 S
C820 C819 1.434 . S
C821 C822 1.369 . S
C821 C823 1.419 . S
C821 H825 0.930 . S
C822 C821 1.369 . S
C822 C831 1.429 . S
C823 C821 1.419 . S
C823 C824 1.363 . S
C823 H826 0.929 . S
C824 C823 1.363 . S
C824 C830 1.428 . S
H825 C821 0.930 . S
H826 C823 0.929 . S
S827 N828 1.613 . S
S827 N829 1.610 . S
N828 S827 1.613 . S
N828 C831 1.350 . S
N829 S827 1.610 . S
N829 C830 1.351 . S
C830 C824 1.428 . S
C830 N829 1.351 . S
C830 C831 1.434 . S
C831 C822 1.429 . S
C831 N828 1.350 . S
C831 C830 1.434 . S
C832 C833 1.369 . S
C832 C834 1.419 . S
C832 H836 0.930 . S
C833 C832 1.369 . S
C833 C842 1.429 . S
C834 C832 1.419 . S
C834 C835 1.363 . S
C834 H837 0.929 . S
C835 C834 1.363 . S
C835 C841 1.428 . S
H836 C832 0.930 . S
H837 C834 0.929 . S
S838 N839 1.613 1_455 S
S838 N840 1.610 . S
N839 S838 1.613 1_655 S
N839 C842 1.350 . S
N840 S838 1.610 . S
N840 C841 1.351 1_455 S
C841 C835 1.428 . S
C841 N840 1.351 1_655 S
C841 C842 1.434 . S
C842 C833 1.429 . S
C842 N839 1.350 . S
C842 C841 1.434 . S
C843 C844 1.369 . S
C843 C845 1.419 . S
C843 H847 0.930 . S
C844 C843 1.369 . S
C844 C853 1.429 . S
C845 C843 1.419 . S
C845 C846 1.363 . S
C845 H848 0.929 . S
C846 C845 1.363 . S
C846 C852 1.428 . S
H847 C843 0.930 . S
H848 C845 0.929 . S
S849 N850 1.613 . S
S849 N851 1.610 . S
N850 S849 1.613 . S
N850 C853 1.350 . S
N851 S849 1.610 . S
N851 C852 1.351 . S
C852 C846 1.428 . S
C852 N851 1.351 . S
C852 C853 1.434 . S
C853 C844 1.429 . S
C853 N850 1.350 . S
C853 C852 1.434 . S
C854 C855 1.369 . S
C854 C856 1.419 . S
C854 H858 0.930 . S
C855 C854 1.369 . S
C855 C864 1.429 . S
C856 C854 1.419 . S
C856 C857 1.363 . S
C856 H859 0.929 . S
C857 C856 1.363 . S
C857 C863 1.428 . S
H858 C854 0.930 . S
H859 C856 0.929 . S
S860 N861 1.613 . S
S860 N862 1.610 . S
N861 S860 1.613 . S
N861 C864 1.350 . S
N862 S860 1.610 . S
N862 C863 1.351 . S
C863 C857 1.428 . S
C863 N862 1.351 . S
C863 C864 1.434 . S
C864 C855 1.429 . S
C864 N861 1.350 . S
C864 C863 1.434 . S
C865 C866 1.369 . S
C865 C867 1.419 . S
C865 H869 0.930 . S
C866 C865 1.369 . S
C866 C875 1.429 . S
C867 C865 1.419 . S
C867 C868 1.363 . S
C867 H870 0.929 . S
C868 C867 1.363 . S
C868 C874 1.428 . S
H869 C865 0.930 . S
H870 C867 0.929 . S
S871 N872 1.613 . S
S871 N873 1.610 . S
N872 S871 1.613 . S
N872 C875 1.350 . S
N873 S871 1.610 . S
N873 C874 1.351 . S
C874 C868 1.428 . S
C874 N873 1.351 . S
C874 C875 1.434 . S
C875 C866 1.429 . S
C875 N872 1.350 . S
C875 C874 1.434 . S
C876 C877 1.369 . S
C876 C878 1.419 . S
C876 H880 0.930 . S
C877 C876 1.369 . S
C877 C886 1.429 . S
C878 C876 1.419 . S
C878 C879 1.363 . S
C878 H881 0.929 1_455 S
C879 C878 1.363 . S
C879 C885 1.428 . S
H880 C876 0.930 . S
H881 C878 0.929 1_655 S
S882 N883 1.613 . S
S882 N884 1.610 . S
N883 S882 1.613 . S
N883 C886 1.350 . S
N884 S882 1.610 . S
N884 C885 1.351 . S
C885 C879 1.428 . S
C885 N884 1.351 . S
C885 C886 1.434 . S
C886 C877 1.429 . S
C886 N883 1.350 . S
C886 C885 1.434 . S
C887 C888 1.369 . S
C887 C889 1.419 . S
C887 H891 0.930 . S
C888 C887 1.369 . S
C888 C897 1.429 . S
C889 C887 1.419 . S
C889 C890 1.363 . S
C889 H892 0.929 . S
C890 C889 1.363 . S
C890 C896 1.428 . S
H891 C887 0.930 . S
H892 C889 0.929 . S
S893 N894 1.613 . S
S893 N895 1.610 . S
N894 S893 1.613 . S
N894 C897 1.350 . S
N895 S893 1.610 . S
N895 C896 1.351 . S
C896 C890 1.428 . S
C896 N895 1.351 . S
C896 C897 1.434 . S
C897 C888 1.429 . S
C897 N894 1.350 . S
C897 C896 1.434 . S
C898 C899 1.369 . S
C898 C900 1.419 . S
C898 H902 0.930 . S
C899 C898 1.369 . S
C899 C908 1.429 . S
C900 C898 1.419 . S
C900 C901 1.363 . S
C900 H903 0.929 . S
C901 C900 1.363 . S
C901 C907 1.428 . S
H902 C898 0.930 . S
H903 C900 0.929 . S
S904 N905 1.613 . S
S904 N906 1.610 . S
N905 S904 1.613 . S
N905 C908 1.350 . S
N906 S904 1.610 . S
N906 C907 1.351 . S
C907 C901 1.428 . S
C907 N906 1.351 . S
C907 C908 1.434 . S
C908 C899 1.429 . S
C908 N905 1.350 . S
C908 C907 1.434 . S
C909 C910 1.369 . S
C909 C911 1.419 . S
C909 H913 0.930 . S
C910 C909 1.369 . S
C910 C919 1.429 . S
C911 C909 1.419 . S
C911 C912 1.363 . S
C911 H914 0.929 . S
C912 C911 1.363 . S
C912 C918 1.428 . S
H913 C909 0.930 . S
H914 C911 0.929 . S
S915 N916 1.613 . S
S915 N917 1.610 . S
N916 S915 1.613 . S
N916 C919 1.350 . S
N917 S915 1.610 . S
N917 C918 1.351 . S
C918 C912 1.428 . S
C918 N917 1.351 . S
C918 C919 1.434 . S
C919 C910 1.429 . S
C919 N916 1.350 . S
C919 C918 1.434 . S
C920 C921 1.369 . S
C920 C922 1.419 . S
C920 H924 0.930 . S
C921 C920 1.369 . S
C921 C930 1.429 . S
C922 C920 1.419 . S
C922 C923 1.363 . S
C922 H925 0.929 . S
C923 C922 1.363 . S
C923 C929 1.428 . S
H924 C920 0.930 . S
H925 C922 0.929 . S
S926 N927 1.613 . S
S926 N928 1.610 . S
N927 S926 1.613 . S
N927 C930 1.350 . S
N928 S926 1.610 . S
N928 C929 1.351 . S
C929 C923 1.428 . S
C929 N928 1.351 . S
C929 C930 1.434 . S
C930 C921 1.429 . S
C930 N927 1.350 . S
C930 C929 1.434 . S
C931 C932 1.369 . S
C931 C933 1.419 . S
C931 H935 0.930 . S
C932 C931 1.369 . S
C932 C941 1.429 . S
C933 C931 1.419 . S
C933 C934 1.363 . S
C933 H936 0.929 . S
C934 C933 1.363 . S
C934 C940 1.428 . S
H935 C931 0.930 . S
H936 C933 0.929 . S
S937 N938 1.613 . S
S937 N939 1.610 . S
N938 S937 1.613 . S
N938 C941 1.350 . S
N939 S937 1.610 . S
N939 C940 1.351 . S
C940 C934 1.428 . S
C940 N939 1.351 . S
C940 C941 1.434 . S
C941 C932 1.429 . S
C941 N938 1.350 . S
C941 C940 1.434 . S
C942 C943 1.369 . S
C942 C944 1.419 . S
C942 H946 0.930 . S
C943 C942 1.369 . S
C943 C952 1.429 . S
C944 C942 1.419 . S
C944 C945 1.363 . S
C944 H947 0.929 . S
C945 C944 1.363 . S
C945 C951 1.428 . S
H946 C942 0.930 . S
H947 C944 0.929 . S
S948 N949 1.613 . S
S948 N950 1.610 . S
N949 S948 1.613 . S
N949 C952 1.350 . S
N950 S948 1.610 . S
N950 C951 1.351 . S
C951 C945 1.428 . S
C951 N950 1.351 . S
C951 C952 1.434 . S
C952 C943 1.429 . S
C952 N949 1.350 . S
C952 C951 1.434 . S
C953 C954 1.369 . S
C953 C955 1.419 1_455 S
C953 H957 0.930 . S
C954 C953 1.369 . S
C954 C963 1.429 1_554 S
C955 C953 1.419 1_655 S
C955 C956 1.363 1_554 S
C955 H958 0.929 . S
C956 C955 1.363 1_556 S
C956 C962 1.428 . S
H957 C953 0.930 . S
H958 C955 0.929 . S
S959 N960 1.613 . S
S959 N961 1.610 1_455 S
N960 S959 1.613 . S
N960 C963 1.350 . S
N961 S959 1.610 1_655 S
N961 C962 1.351 . S
C962 C956 1.428 . S
C962 N961 1.351 . S
C962 C963 1.434 1_655 S
C963 C954 1.429 1_556 S
C963 N960 1.350 . S
C963 C962 1.434 1_455 S
C964 C965 1.369 . S
C964 C966 1.419 . S
C964 H968 0.930 . S
C965 C964 1.369 . S
C965 C974 1.429 . S
C966 C964 1.419 . S
C966 C967 1.363 . S
C966 H969 0.929 . S
C967 C966 1.363 . S
C967 C973 1.428 . S
H968 C964 0.930 . S
H969 C966 0.929 . S
S970 N971 1.613 . S
S970 N972 1.610 . S
N971 S970 1.613 . S
N971 C974 1.350 . S
N972 S970 1.610 . S
N972 C973 1.351 . S
C973 C967 1.428 . S
C973 N972 1.351 . S
C973 C974 1.434 . S
C974 C965 1.429 . S
C974 N971 1.350 . S
C974 C973 1.434 . S
C975 C976 1.369 . S
C975 C977 1.419 . S
C975 H979 0.930 . S
C976 C975 1.369 . S
C976 C985 1.429 . S
C977 C975 1.419 . S
C977 C978 1.363 . S
C977 H980 0.929 . S
C978 C977 1.363 . S
C978 C984 1.428 . S
H979 C975 0.930 . S
H980 C977 0.929 . S
S981 N982 1.613 . S
S981 N983 1.610 . S
N982 S981 1.613 . S
N982 C985 1.350 . S
N983 S981 1.610 . S
N983 C984 1.351 . S
C984 C978 1.428 . S
C984 N983 1.351 . S
C984 C985 1.434 . S
C985 C976 1.429 . S
C985 N982 1.350 . S
C985 C984 1.434 . S
C986 C987 1.369 1_655 S
C986 C988 1.419 1_546 S
C986 H990 0.930 . S
C987 C986 1.369 1_455 S
C987 C996 1.434 . S
C988 C986 1.419 1_564 S
C988 C989 1.363 . S
C988 H991 0.929 . S
C989 C988 1.363 . S
C989 C995 1.428 1_655 S
H990 C986 0.930 . S
H991 C988 0.929 . S
S992 N993 1.613 . S
S992 N994 1.610 1_556 S
N993 S992 1.613 . S
N993 C996 1.348 1_565 S
N994 S992 1.610 1_554 S
N994 C995 1.351 . S
C995 C989 1.428 1_455 S
C995 N994 1.351 . S
C995 C996 1.429 1_564 S
C996 C987 1.434 . S
C996 N993 1.348 1_545 S
C996 C995 1.429 1_546 S
C997 C998 1.369 . S
C997 C999 1.419 1_545 S
C997 H1001 0.930 . S
C998 C997 1.369 . S
C998 C1007 1.429 . S
C999 C997 1.419 1_565 S
C999 C1000 1.363 . S
C999 H1002 0.929 . S
C1000 C999 1.363 . S
C1000 C1006 1.428 . S
H1001 C997 0.930 . S
H1002 C999 0.929 . S
S1003 N1004 1.613 1_565 S
S1003 N1005 1.610 . S
N1004 S1003 1.613 1_545 S
N1004 C1007 1.350 . S
N1005 S1003 1.610 . S
N1005 C1006 1.351 . S
C1006 C1000 1.428 . S
C1006 N1005 1.351 . S
C1006 C1007 1.434 1_565 S
C1007 C998 1.429 . S
C1007 N1004 1.350 . S
C1007 C1006 1.434 1_545 S
C481 N14 0.883 . S
C483 C316 0.886 . S
C492 N44 0.895 . S
C494 N344 0.893 . S
C503 C76 1.007 . S
C505 N254 1.001 1_455 S
C514 N104 0.921 . S
C516 N284 0.932 . S
C525 N126 0.883 . S
C527 C447 0.885 . S
C536 N156 0.897 . S
C538 N456 0.891 . S
C547 C207 1.010 . S
C549 N366 0.999 1_655 S
C558 N216 0.929 . S
C560 N396 0.928 . S
C569 C280 1.222 . S
C571 N6 1.167 . S
C580 C301 1.063 . S
C582 N36 1.021 . S
C591 C340 1.208 . S
C593 C87 1.290 . S
C602 C250 1.653 . S
C604 N96 1.610 . S
C613 N134 1.156 . S
C615 C391 1.219 . S
C624 C430 1.066 . S
C626 N164 1.021 . S
C635 C451 1.195 . S
C637 C196 1.294 . S
C646 C361 1.657 . S
C648 N224 1.616 . S
C657 C40 1.261 . S
C659 N246 1.197 . S
C668 N276 1.185 . S
C670 C61 1.249 . S
C679 C327 1.416 . S
C681 C100 1.319 . S
C690 N336 1.575 . S
C692 C10 1.599 . S
C701 N374 1.201 . S
C703 C151 1.262 . S
C712 C190 1.248 . S
C714 N404 1.178 . S
C723 C211 1.318 . S
C725 C436 1.416 . S
C734 N464 1.570 . S
C736 C121 1.596 . S
C745 C27 1.839 . S
C747 C460 1.755 . S
C756 C57 1.886 . S
C758 C130 1.879 . S
C767 C400 1.210 1_455 S
C769 N66 1.194 . S
C778 C181 1.907 . S
C780 C117 1.947 . S
C789 C136 1.838 . S
C791 C331 1.751 . S
C800 C166 1.886 . S
C802 C1 1.881 . S
C811 C271 1.202 1_655 S
C813 N194 1.200 . S
C822 C70 1.905 . S
C824 C226 1.947 . S
C833 C267 1.840 . S
C835 C220 1.757 1_655 S
C844 C297 1.863 . S
C846 C370 1.856 . S
C855 C160 1.250 . S
C857 N306 1.241 . S
C866 C421 1.983 . S
C868 C357 2.022 . S
C877 C376 1.841 . S
C879 C91 1.759 1_455 S
C888 C406 1.866 . S
C890 C241 1.856 . S
C899 N434 1.238 . S
C901 C31 1.250 . S
C910 C310 1.977 . S
C912 C466 2.022 . S
C921 C16 2.199 . S
C923 C387 2.198 . S
C932 C46 1.507 . S
C934 C177 1.506 . S
C943 N74 1.320 . S
C945 N426 1.325 . S
C954 C237 2.303 . S
C956 C106 2.305 . S
C965 C147 2.199 . S
C967 C256 2.198 . S
C976 N314 1.320 . S
C978 N186 1.325 . S
C987 C286 1.490 . S
C989 C417 1.490 . S
C998 C477 2.437 . S
C1000 C346 2.438 . S
