# Generated by pormake.
# Topology uow, (4)-cn, num edge types: 1
# Building blocks:
#     Node 0, Type 0, BuildingBlock: UXUYUI_clean_sbu_0, # of connection points: 4
#     Node 1, Type 0, BuildingBlock: UXUYUI_clean_sbu_0, # of connection points: 4
#     Node 2, Type 0, BuildingBlock: UXUYUI_clean_sbu_0, # of connection points: 4
#     Node 3, Type 0, BuildingBlock: UXUYUI_clean_sbu_0, # of connection points: 4
#     Node 4, Type 0, BuildingBlock: UXUYUI_clean_sbu_0, # of connection points: 4
#     Node 5, Type 0, BuildingBlock: UXUYUI_clean_sbu_0, # of connection points: 4
#     Node 6, Type 0, BuildingBlock: UXUYUI_clean_sbu_0, # of connection points: 4
#     Node 7, Type 0, BuildingBlock: UXUYUI_clean_sbu_0, # of connection points: 4
#     Node 8, Type 0, BuildingBlock: UXUYUI_clean_sbu_0, # of connection points: 4
#     Node 9, Type 0, BuildingBlock: UXUYUI_clean_sbu_0, # of connection points: 4
#     Node 10, Type 0, BuildingBlock: UXUYUI_clean_sbu_0, # of connection points: 4
#     Node 11, Type 0, BuildingBlock: UXUYUI_clean_sbu_0, # of connection points: 4
#     Node 12, Type 0, BuildingBlock: UXUYUI_clean_sbu_0, # of connection points: 4
#     Node 13, Type 0, BuildingBlock: UXUYUI_clean_sbu_0, # of connection points: 4
#     Node 14, Type 0, BuildingBlock: UXUYUI_clean_sbu_0, # of connection points: 4
#     Node 15, Type 0, BuildingBlock: UXUYUI_clean_sbu_0, # of connection points: 4
#     Node 16, Type 0, BuildingBlock: UXUYUI_clean_sbu_0, # of connection points: 4
#     Node 17, Type 0, BuildingBlock: UXUYUI_clean_sbu_0, # of connection points: 4
#     Node 18, Type 0, BuildingBlock: UXUYUI_clean_sbu_0, # of connection points: 4
#     Node 19, Type 0, BuildingBlock: UXUYUI_clean_sbu_0, # of connection points: 4
#     Node 20, Type 0, BuildingBlock: UXUYUI_clean_sbu_0, # of connection points: 4
#     Node 21, Type 0, BuildingBlock: UXUYUI_clean_sbu_0, # of connection points: 4
#     Node 22, Type 0, BuildingBlock: UXUYUI_clean_sbu_0, # of connection points: 4
#     Node 23, Type 0, BuildingBlock: UXUYUI_clean_sbu_0, # of connection points: 4
#     Node 24, Type 0, BuildingBlock: UXUYUI_clean_sbu_0, # of connection points: 4
#     Node 25, Type 0, BuildingBlock: UXUYUI_clean_sbu_0, # of connection points: 4
#     Node 26, Type 0, BuildingBlock: UXUYUI_clean_sbu_0, # of connection points: 4
#     Node 27, Type 0, BuildingBlock: UXUYUI_clean_sbu_0, # of connection points: 4
#     Node 28, Type 0, BuildingBlock: UXUYUI_clean_sbu_0, # of connection points: 4
#     Node 29, Type 0, BuildingBlock: UXUYUI_clean_sbu_0, # of connection points: 4
#     Node 30, Type 0, BuildingBlock: UXUYUI_clean_sbu_0, # of connection points: 4
#     Node 31, Type 0, BuildingBlock: UXUYUI_clean_sbu_0, # of connection points: 4
#     Edge 32, Type (0, 0), BuildingBlock: AJUNOK_clean_linker_0, # of connection points: 2
#     Edge 33, Type (0, 0), BuildingBlock: AJUNOK_clean_linker_0, # of connection points: 2
#     Edge 34, Type (0, 0), BuildingBlock: AJUNOK_clean_linker_0, # of connection points: 2
#     Edge 35, Type (0, 0), BuildingBlock: AJUNOK_clean_linker_0, # of connection points: 2
#     Edge 36, Type (0, 0), BuildingBlock: AJUNOK_clean_linker_0, # of connection points: 2
#     Edge 37, Type (0, 0), BuildingBlock: AJUNOK_clean_linker_0, # of connection points: 2
#     Edge 38, Type (0, 0), BuildingBlock: AJUNOK_clean_linker_0, # of connection points: 2
#     Edge 39, Type (0, 0), BuildingBlock: AJUNOK_clean_linker_0, # of connection points: 2
#     Edge 40, Type (0, 0), BuildingBlock: AJUNOK_clean_linker_0, # of connection points: 2
#     Edge 41, Type (0, 0), BuildingBlock: AJUNOK_clean_linker_0, # of connection points: 2
#     Edge 42, Type (0, 0), BuildingBlock: AJUNOK_clean_linker_0, # of connection points: 2
#     Edge 43, Type (0, 0), BuildingBlock: AJUNOK_clean_linker_0, # of connection points: 2
#     Edge 44, Type (0, 0), BuildingBlock: AJUNOK_clean_linker_0, # of connection points: 2
#     Edge 45, Type (0, 0), BuildingBlock: AJUNOK_clean_linker_0, # of connection points: 2
#     Edge 46, Type (0, 0), BuildingBlock: AJUNOK_clean_linker_0, # of connection points: 2
#     Edge 47, Type (0, 0), BuildingBlock: AJUNOK_clean_linker_0, # of connection points: 2
#     Edge 48, Type (0, 0), BuildingBlock: AJUNOK_clean_linker_0, # of connection points: 2
#     Edge 49, Type (0, 0), BuildingBlock: AJUNOK_clean_linker_0, # of connection points: 2
#     Edge 50, Type (0, 0), BuildingBlock: AJUNOK_clean_linker_0, # of connection points: 2
#     Edge 51, Type (0, 0), BuildingBlock: AJUNOK_clean_linker_0, # of connection points: 2
#     Edge 52, Type (0, 0), BuildingBlock: AJUNOK_clean_linker_0, # of connection points: 2
#     Edge 53, Type (0, 0), BuildingBlock: AJUNOK_clean_linker_0, # of connection points: 2
#     Edge 54, Type (0, 0), BuildingBlock: AJUNOK_clean_linker_0, # of connection points: 2
#     Edge 55, Type (0, 0), BuildingBlock: AJUNOK_clean_linker_0, # of connection points: 2
#     Edge 56, Type (0, 0), BuildingBlock: AJUNOK_clean_linker_0, # of connection points: 2
#     Edge 57, Type (0, 0), BuildingBlock: AJUNOK_clean_linker_0, # of connection points: 2
#     Edge 58, Type (0, 0), BuildingBlock: AJUNOK_clean_linker_0, # of connection points: 2
#     Edge 59, Type (0, 0), BuildingBlock: AJUNOK_clean_linker_0, # of connection points: 2
#     Edge 60, Type (0, 0), BuildingBlock: AJUNOK_clean_linker_0, # of connection points: 2
#     Edge 61, Type (0, 0), BuildingBlock: AJUNOK_clean_linker_0, # of connection points: 2
#     Edge 62, Type (0, 0), BuildingBlock: AJUNOK_clean_linker_0, # of connection points: 2
#     Edge 63, Type (0, 0), BuildingBlock: AJUNOK_clean_linker_0, # of connection points: 2
#     Edge 64, Type (0, 0), BuildingBlock: AJUNOK_clean_linker_0, # of connection points: 2
#     Edge 65, Type (0, 0), BuildingBlock: AJUNOK_clean_linker_0, # of connection points: 2
#     Edge 66, Type (0, 0), BuildingBlock: AJUNOK_clean_linker_0, # of connection points: 2
#     Edge 67, Type (0, 0), BuildingBlock: AJUNOK_clean_linker_0, # of connection points: 2
#     Edge 68, Type (0, 0), BuildingBlock: AJUNOK_clean_linker_0, # of connection points: 2
#     Edge 69, Type (0, 0), BuildingBlock: AJUNOK_clean_linker_0, # of connection points: 2
#     Edge 70, Type (0, 0), BuildingBlock: AJUNOK_clean_linker_0, # of connection points: 2
#     Edge 71, Type (0, 0), BuildingBlock: AJUNOK_clean_linker_0, # of connection points: 2
#     Edge 72, Type (0, 0), BuildingBlock: AJUNOK_clean_linker_0, # of connection points: 2
#     Edge 73, Type (0, 0), BuildingBlock: AJUNOK_clean_linker_0, # of connection points: 2
#     Edge 74, Type (0, 0), BuildingBlock: AJUNOK_clean_linker_0, # of connection points: 2
#     Edge 75, Type (0, 0), BuildingBlock: AJUNOK_clean_linker_0, # of connection points: 2
#     Edge 76, Type (0, 0), BuildingBlock: AJUNOK_clean_linker_0, # of connection points: 2
#     Edge 77, Type (0, 0), BuildingBlock: AJUNOK_clean_linker_0, # of connection points: 2
#     Edge 78, Type (0, 0), BuildingBlock: AJUNOK_clean_linker_0, # of connection points: 2
#     Edge 79, Type (0, 0), BuildingBlock: AJUNOK_clean_linker_0, # of connection points: 2
#     Edge 80, Type (0, 0), BuildingBlock: AJUNOK_clean_linker_0, # of connection points: 2
#     Edge 81, Type (0, 0), BuildingBlock: AJUNOK_clean_linker_0, # of connection points: 2
#     Edge 82, Type (0, 0), BuildingBlock: AJUNOK_clean_linker_0, # of connection points: 2
#     Edge 83, Type (0, 0), BuildingBlock: AJUNOK_clean_linker_0, # of connection points: 2
#     Edge 84, Type (0, 0), BuildingBlock: AJUNOK_clean_linker_0, # of connection points: 2
#     Edge 85, Type (0, 0), BuildingBlock: AJUNOK_clean_linker_0, # of connection points: 2
#     Edge 86, Type (0, 0), BuildingBlock: AJUNOK_clean_linker_0, # of connection points: 2
#     Edge 87, Type (0, 0), BuildingBlock: AJUNOK_clean_linker_0, # of connection points: 2
#     Edge 88, Type (0, 0), BuildingBlock: AJUNOK_clean_linker_0, # of connection points: 2
#     Edge 89, Type (0, 0), BuildingBlock: AJUNOK_clean_linker_0, # of connection points: 2
#     Edge 90, Type (0, 0), BuildingBlock: AJUNOK_clean_linker_0, # of connection points: 2
#     Edge 91, Type (0, 0), BuildingBlock: AJUNOK_clean_linker_0, # of connection points: 2
#     Edge 92, Type (0, 0), BuildingBlock: AJUNOK_clean_linker_0, # of connection points: 2
#     Edge 93, Type (0, 0), BuildingBlock: AJUNOK_clean_linker_0, # of connection points: 2
#     Edge 94, Type (0, 0), BuildingBlock: AJUNOK_clean_linker_0, # of connection points: 2
#     Edge 95, Type (0, 0), BuildingBlock: AJUNOK_clean_linker_0, # of connection points: 2
# Relax obj value: 0.340
# Max RMSD: 0.279
# Mean RMSD: 0.279
data_MOF--net-uow--node1-UXUYUI_clean_sbu_0--edge1-AJUNOK_clean_linker_0
_symmetry_space_group_name_H-M    P1
_symmetry_Int_Tables_number       1
_symmetry_cell_setting            triclinic
loop_
_symmetry_equiv_pos_as_xyz
'x, y, z'
_cell_length_a     73.79617
_cell_length_b     73.809596
_cell_length_c     49.225844
_cell_angle_alpha  89.980834
_cell_angle_beta   89.996233
_cell_angle_gamma 90.004033
loop_
_atom_site_label
_atom_site_type_symbol
_atom_site_fract_x
_atom_site_fract_y
_atom_site_fract_z
_atom_type_partial_charge
Li0 Li 0.01995 0.37457 0.28303 0.0
Li1 Li 0.04336 0.39674 0.27337 0.0
Li2 Li 0.04316 0.36762 0.25078 0.0
Li3 Li 0.05097 0.37047 0.29882 0.0
C4 C 0.00794 0.39181 0.24079 0.0
N5 N 0.97277 0.40142 0.2281 0.0
C6 C 0.00172 0.40932 0.2463 0.0
C7 C 0.99631 0.37922 0.22873 0.0
C8 C 0.98388 0.41391 0.23973 0.0
C9 C 0.97856 0.38433 0.22252 0.0
C10 C 0.03551 0.39028 0.33648 0.0
C11 C 0.05299 0.39763 0.37639 0.0
N12 N 0.0401 0.38972 0.39219 0.0
C13 C 0.02241 0.38227 0.35312 0.0
C14 C 0.0509 0.3981 0.3482 0.0
C15 C 0.02499 0.38213 0.38124 0.0
C16 C 0.98872 0.35399 0.29262 0.0
N17 N 0.99539 0.37113 0.29276 0.0
C18 C 0.96806 0.38244 0.31242 0.0
C19 C 0.9854 0.38534 0.30192 0.0
C20 C 0.96116 0.36473 0.31362 0.0
C21 C 0.9715 0.35048 0.30288 0.0
H22 H 0.99707 0.34292 0.28568 0.0
H23 H 0.99119 0.3988 0.3021 0.0
C24 C 0.04904 0.42693 0.24096 0.0
N25 N 0.04788 0.42148 0.26726 0.0
C26 C 0.05166 0.44514 0.23478 0.0
C27 C 0.0519 0.45177 0.28294 0.0
C28 C 0.04928 0.43339 0.28819 0.0
C29 C 0.05301 0.4578 0.25593 0.0
H30 H 0.04766 0.4171 0.2248 0.0
H31 H 0.048 0.42867 0.30887 0.0
C32 C 0.03688 0.3354 0.2715 0.0
N33 N 0.04203 0.30131 0.24962 0.0
C34 C 0.05116 0.32452 0.28054 0.0
C35 C 0.02515 0.3289 0.25143 0.0
C36 C 0.05354 0.30733 0.26922 0.0
C37 C 0.02802 0.31165 0.24058 0.0
C38 C 0.07688 0.39189 0.25824 0.0
C39 C 0.08028 0.39339 0.2304 0.0
C40 C 0.08613 0.40308 0.27647 0.0
C41 C 0.0928 0.40621 0.22122 0.0
C42 C 0.09851 0.41576 0.26648 0.0
N43 N 0.10156 0.41705 0.2393 0.0
C44 C 0.04004 0.36073 0.19484 0.0
C45 C 0.06294 0.34388 0.21739 0.0
C46 C 0.04504 0.35328 0.16992 0.0
N47 N 0.04902 0.35593 0.21784 0.0
C48 C 0.06818 0.33586 0.19299 0.0
C49 C 0.05926 0.34072 0.16893 0.0
H50 H 0.02931 0.37067 0.19576 0.0
H51 H 0.07019 0.34079 0.2359 0.0
C52 C 0.05634 0.3503 0.34587 0.0
N53 N 0.06516 0.36043 0.32701 0.0
C54 C 0.06606 0.34114 0.36583 0.0
C55 C 0.0938 0.35302 0.34663 0.0
C56 C 0.0835 0.36211 0.32711 0.0
C57 C 0.08504 0.34226 0.36613 0.0
H58 H 0.04178 0.34881 0.34475 0.0
H59 H 0.09015 0.36998 0.31151 0.0
O60 O 0.02524 0.38694 0.24754 0.0
O61 O 0.03338 0.39035 0.30887 0.0
O62 O 0.03443 0.35236 0.28212 0.0
O63 O 0.06437 0.37973 0.26758 0.0
H64 H 0.01048 0.4192 0.25582 0.0
H65 H 0.00089 0.36559 0.22447 0.0
H66 H 0.97885 0.42738 0.24397 0.0
H67 H 0.96938 0.37469 0.21331 0.0
H68 H 0.0649 0.40351 0.38571 0.0
H69 H 0.01049 0.37604 0.34446 0.0
H70 H 0.06125 0.40421 0.33563 0.0
H71 H 0.015 0.3759 0.39434 0.0
H72 H 0.96041 0.39378 0.32039 0.0
H73 H 0.96672 0.33661 0.3038 0.0
H74 H 0.05239 0.44935 0.21372 0.0
H75 H 0.05244 0.46123 0.29974 0.0
H76 H 0.06043 0.32933 0.29594 0.0
H77 H 0.01413 0.33719 0.24401 0.0
H78 H 0.06458 0.2988 0.27595 0.0
H79 H 0.01913 0.3065 0.22489 0.0
H80 H 0.07321 0.38489 0.21599 0.0
H81 H 0.08359 0.40216 0.29807 0.0
H82 H 0.0955 0.40759 0.19972 0.0
H83 H 0.10566 0.42461 0.28034 0.0
H84 H 0.03806 0.35742 0.15158 0.0
H85 H 0.07945 0.32646 0.19275 0.0
H86 H 0.05886 0.33253 0.38001 0.0
H87 H 0.10845 0.35397 0.34607 0.0
Li88 Li 0.86758 0.77321 0.54416 0.0
Li89 Li 0.84571 0.79629 0.53131 0.0
Li90 Li 0.87482 0.79588 0.51007 0.0
Li91 Li 0.87069 0.80453 0.55769 0.0
C92 C 0.84357 0.76355 0.50281 0.0
N93 N 0.81799 0.73698 0.49293 0.0
C94 C 0.83156 0.75824 0.52333 0.0
C95 C 0.84253 0.75533 0.47729 0.0
C96 C 0.81873 0.7448 0.51791 0.0
C97 C 0.82953 0.74192 0.4727 0.0
C98 C 0.8484 0.79151 0.59486 0.0
C99 C 0.84021 0.8131 0.62957 0.0
N100 N 0.84322 0.8003 0.64892 0.0
C101 C 0.85113 0.7785 0.61508 0.0
C102 C 0.84262 0.80888 0.60216 0.0
C103 C 0.84854 0.78322 0.64229 0.0
C104 C 0.88212 0.74869 0.57986 0.0
N105 N 0.87309 0.74929 0.55585 0.0
C106 C 0.87475 0.71704 0.55167 0.0
C107 C 0.86957 0.73394 0.54144 0.0
C108 C 0.88371 0.71609 0.57677 0.0
C109 C 0.88742 0.73216 0.59089 0.0
H110 H 0.88531 0.76116 0.59036 0.0
H111 H 0.86298 0.73473 0.52191 0.0
C112 C 0.81522 0.80009 0.49797 0.0
N113 N 0.82092 0.80052 0.52422 0.0
C114 C 0.79687 0.80193 0.49192 0.0
C115 C 0.79072 0.80501 0.53998 0.0
C116 C 0.80918 0.80309 0.5451 0.0
C117 C 0.78439 0.80407 0.51315 0.0
H118 H 0.82491 0.79789 0.48182 0.0
H119 H 0.81406 0.80323 0.56575 0.0
C120 C 0.90392 0.77818 0.53394 0.0
N121 N 0.93308 0.75719 0.51822 0.0
C122 C 0.92053 0.77985 0.54731 0.0
C123 C 0.90211 0.76581 0.51259 0.0
C124 C 0.93512 0.76912 0.53905 0.0
C125 C 0.91702 0.75533 0.50495 0.0
C126 C 0.85032 0.82911 0.51306 0.0
C127 C 0.84918 0.83007 0.48475 0.0
C128 C 0.83911 0.8401 0.52895 0.0
C129 C 0.83669 0.84185 0.47281 0.0
C130 C 0.82677 0.85168 0.51624 0.0
N131 N 0.82581 0.8523 0.48866 0.0
C132 C 0.88242 0.79467 0.45394 0.0
C133 C 0.90304 0.81165 0.48077 0.0
C134 C 0.8913 0.79997 0.43021 0.0
N135 N 0.88824 0.80084 0.47843 0.0
C136 C 0.91236 0.81724 0.4576 0.0
C137 C 0.9062 0.81175 0.4319 0.0
H138 H 0.8705 0.7862 0.4528 0.0
H139 H 0.90729 0.81629 0.50061 0.0
C140 C 0.89015 0.81078 0.605 0.0
N141 N 0.88051 0.81928 0.58526 0.0
C142 C 0.89926 0.82087 0.62459 0.0
C143 C 0.88789 0.84827 0.60364 0.0
C144 C 0.87898 0.83762 0.58438 0.0
C145 C 0.89854 0.83987 0.62364 0.0
H146 H 0.89118 0.79616 0.60495 0.0
H147 H 0.87131 0.84397 0.56829 0.0
O148 O 0.85612 0.77689 0.50733 0.0
O149 O 0.85102 0.78716 0.56809 0.0
O150 O 0.88948 0.78844 0.54211 0.0
O151 O 0.86222 0.81737 0.52513 0.0
H152 H 0.83205 0.76437 0.54322 0.0
H153 H 0.8517 0.75926 0.46117 0.0
H154 H 0.80936 0.74058 0.53359 0.0
H155 H 0.8286 0.73545 0.45303 0.0
H156 H 0.83596 0.82656 0.63547 0.0
H157 H 0.85499 0.76482 0.60987 0.0
H158 H 0.84027 0.81907 0.58682 0.0
H159 H 0.85069 0.77329 0.65812 0.0
H160 H 0.87174 0.70489 0.5402 0.0
H161 H 0.89462 0.73195 0.61007 0.0
H162 H 0.79242 0.80103 0.47099 0.0
H163 H 0.78145 0.80686 0.55681 0.0
H164 H 0.9221 0.78931 0.56395 0.0
H165 H 0.88934 0.76424 0.50208 0.0
H166 H 0.94807 0.77027 0.54922 0.0
H167 H 0.91582 0.7457 0.48849 0.0
H168 H 0.8577 0.82168 0.4721 0.0
H169 H 0.83981 0.83964 0.55086 0.0
H170 H 0.8356 0.84263 0.45092 0.0
H171 H 0.81793 0.86017 0.5283 0.0
H172 H 0.88614 0.79553 0.41072 0.0
H173 H 0.92401 0.82606 0.45969 0.0
H174 H 0.90752 0.81392 0.63951 0.0
H175 H 0.88692 0.86289 0.60243 0.0
Li176 Li 0.47187 0.62053 0.78464 0.0
Li177 Li 0.44856 0.59836 0.77479 0.0
Li178 Li 0.44844 0.6278 0.7529 0.0
Li179 Li 0.44089 0.62432 0.80089 0.0
C180 C 0.4837 0.60388 0.74178 0.0
N181 N 0.51888 0.59468 0.72854 0.0
C182 C 0.49008 0.58638 0.74687 0.0
C183 C 0.49517 0.61668 0.72985 0.0
C184 C 0.50792 0.58199 0.74002 0.0
C185 C 0.51293 0.61177 0.72336 0.0
C186 C 0.45651 0.60422 0.83791 0.0
C187 C 0.4392 0.59611 0.87767 0.0
N188 N 0.45196 0.60408 0.89363 0.0
C189 C 0.46948 0.61228 0.85472 0.0
C190 C 0.44128 0.59601 0.84946 0.0
C191 C 0.46693 0.61207 0.88284 0.0
C192 C 0.50363 0.64068 0.79355 0.0
N193 N 0.49652 0.62372 0.79407 0.0
C194 C 0.52369 0.61183 0.8135 0.0
C195 C 0.5062 0.60932 0.80334 0.0
C196 C 0.53116 0.62931 0.81399 0.0
C197 C 0.52105 0.64379 0.8034 0.0
H198 H 0.4955 0.65191 0.78662 0.0
H199 H 0.50004 0.59602 0.80389 0.0
C200 C 0.442 0.5682 0.74242 0.0
N201 N 0.4443 0.57361 0.76857 0.0
C202 C 0.43964 0.54992 0.73641 0.0
C203 C 0.44227 0.54315 0.78437 0.0
C204 C 0.44445 0.5616 0.78947 0.0
C205 C 0.43988 0.53719 0.75754 0.0
H206 H 0.44235 0.5781 0.72622 0.0
H207 H 0.44665 0.56629 0.80999 0.0
C208 C 0.45484 0.65981 0.77451 0.0
N209 N 0.44968 0.69425 0.75389 0.0
C210 C 0.44064 0.67059 0.78411 0.0
C211 C 0.46646 0.66659 0.7545 0.0
C212 C 0.43826 0.68796 0.77342 0.0
C213 C 0.4636 0.68402 0.74429 0.0
C214 C 0.41487 0.60325 0.76002 0.0
C215 C 0.4111 0.60236 0.73223 0.0
C216 C 0.40591 0.59162 0.77797 0.0
C217 C 0.39853 0.58967 0.7228 0.0
C218 C 0.39346 0.5791 0.76773 0.0
N219 N 0.39007 0.57839 0.7406 0.0
C220 C 0.45107 0.63583 0.69714 0.0
C221 C 0.42826 0.65196 0.72094 0.0
C222 C 0.44582 0.64382 0.6727 0.0
N223 N 0.44226 0.64002 0.72053 0.0
C224 C 0.42276 0.66051 0.69708 0.0
C225 C 0.4315 0.65637 0.6725 0.0
H226 H 0.46182 0.62589 0.69733 0.0
H227 H 0.42119 0.65462 0.73975 0.0
C228 C 0.43519 0.64411 0.8483 0.0
N229 N 0.42659 0.634 0.82919 0.0
C230 C 0.42521 0.65344 0.86779 0.0
C231 C 0.3977 0.64156 0.84783 0.0
C232 C 0.40825 0.63233 0.82878 0.0
C233 C 0.40622 0.65257 0.86723 0.0
H234 H 0.44976 0.64555 0.84763 0.0
H235 H 0.40179 0.62443 0.81305 0.0
O236 O 0.46641 0.60856 0.74887 0.0
O237 O 0.45864 0.60448 0.81031 0.0
O238 O 0.45732 0.64269 0.78454 0.0
O239 O 0.42742 0.6153 0.76958 0.0
H240 H 0.48143 0.57634 0.75626 0.0
H241 H 0.49046 0.63031 0.72592 0.0
H242 H 0.51308 0.56852 0.74394 0.0
H243 H 0.52199 0.62157 0.71426 0.0
H244 H 0.42742 0.58991 0.88687 0.0
H245 H 0.48128 0.61883 0.84617 0.0
H246 H 0.43104 0.58982 0.83677 0.0
H247 H 0.47682 0.61833 0.89607 0.0
H248 H 0.53103 0.60038 0.82178 0.0
H249 H 0.52611 0.65756 0.80418 0.0
H250 H 0.43825 0.54573 0.71542 0.0
H251 H 0.44266 0.53362 0.80109 0.0
H252 H 0.43144 0.66557 0.79945 0.0
H253 H 0.47741 0.65838 0.74663 0.0
H254 H 0.42728 0.69642 0.78059 0.0
H255 H 0.47241 0.68938 0.72868 0.0
H256 H 0.41794 0.61121 0.71803 0.0
H257 H 0.40872 0.5921 0.79952 0.0
H258 H 0.39556 0.58875 0.70133 0.0
H259 H 0.38654 0.56992 0.78136 0.0
H260 H 0.4525 0.63976 0.6541 0.0
H261 H 0.41163 0.67005 0.69779 0.0
H262 H 0.43221 0.66204 0.8822 0.0
H263 H 0.38307 0.64062 0.84686 0.0
Li264 Li 0.62055 0.22539 0.03298 0.0
Li265 Li 0.64456 0.20391 0.0225 0.0
Li266 Li 0.61435 0.20001 0.00376 0.0
Li267 Li 0.62072 0.19472 0.05198 0.0
C268 C 0.63403 0.23677 0.98652 0.0
N269 N 0.63918 0.27145 0.96683 0.0
C270 C 0.65123 0.2447 0.98736 0.0
C271 C 0.61948 0.24642 0.97553 0.0
C272 C 0.65355 0.26225 0.97731 0.0
C273 C 0.62235 0.26396 0.96574 0.0
C274 C 0.64064 0.21408 0.08546 0.0
C275 C 0.65141 0.19923 0.12601 0.0
N276 N 0.64365 0.21244 0.14135 0.0
C277 C 0.63284 0.22756 0.10161 0.0
C278 C 0.65009 0.19985 0.09772 0.0
C279 C 0.6345 0.22648 0.12984 0.0
C280 C 0.5971 0.25335 0.04725 0.0
N281 N 0.61467 0.24978 0.04109 0.0
C282 C 0.62323 0.28014 0.05204 0.0
C283 C 0.62772 0.26271 0.04323 0.0
C284 C 0.6052 0.28411 0.05905 0.0
C285 C 0.59206 0.27046 0.05637 0.0
H286 H 0.58712 0.24269 0.04627 0.0
H287 H 0.64169 0.25932 0.03902 0.0
C288 C 0.67431 0.19964 0.98786 0.0
N289 N 0.66942 0.20184 0.01426 0.0
C290 C 0.69257 0.1987 0.98077 0.0
C291 C 0.70036 0.20234 0.02821 0.0
C292 C 0.68194 0.20318 0.03438 0.0
C293 C 0.70582 0.20025 0.00108 0.0
H294 H 0.66399 0.19877 0.97232 0.0
H295 H 0.67763 0.20515 0.05514 0.0
C296 C 0.58282 0.20472 0.02868 0.0
N297 N 0.54774 0.19681 0.01306 0.0
C298 C 0.57373 0.18994 0.04009 0.0
C299 C 0.57402 0.21554 0.00946 0.0
C300 C 0.556 0.18616 0.0319 0.0
C301 C 0.5563 0.21129 0.00178 0.0
C302 C 0.64251 0.1694 0.01106 0.0
C303 C 0.64305 0.16512 0.98342 0.0
C304 C 0.65535 0.16194 0.02869 0.0
C305 C 0.65658 0.15353 0.97381 0.0
C306 C 0.66868 0.15044 0.01828 0.0
N307 N 0.66902 0.14652 0.99128 0.0
C308 C 0.60369 0.19997 0.94895 0.0
C309 C 0.58992 0.17722 0.97598 0.0
C310 C 0.5947 0.19366 0.92589 0.0
N311 N 0.60111 0.19173 0.97331 0.0
C312 C 0.58038 0.17069 0.95357 0.0
C313 C 0.58276 0.17889 0.92807 0.0
H314 H 0.61307 0.21116 0.94729 0.0
H315 H 0.58854 0.17062 0.99547 0.0
C316 C 0.60387 0.18967 0.10197 0.0
N317 N 0.61335 0.18088 0.08234 0.0
C318 C 0.59591 0.17997 0.12309 0.0
C319 C 0.60768 0.15232 0.10349 0.0
C320 C 0.61563 0.16261 0.08286 0.0
C321 C 0.59747 0.16103 0.12369 0.0
H322 H 0.60177 0.20413 0.10047 0.0
H323 H 0.6229 0.15596 0.0666 0.0
O324 O 0.63144 0.21967 0.99647 0.0
O325 O 0.63897 0.21477 0.0578 0.0
O326 O 0.60024 0.20856 0.03623 0.0
O327 O 0.62961 0.18101 0.02076 0.0
H328 H 0.66263 0.23747 0.99592 0.0
H329 H 0.6061 0.24048 0.97473 0.0
H330 H 0.66676 0.26859 0.97793 0.0
H331 H 0.6112 0.27162 0.95731 0.0
H332 H 0.65857 0.18822 0.13578 0.0
H333 H 0.62547 0.23867 0.09251 0.0
H334 H 0.65612 0.18925 0.08553 0.0
H335 H 0.62846 0.23677 0.1426 0.0
H336 H 0.6338 0.29022 0.05419 0.0
H337 H 0.57816 0.27265 0.06262 0.0
H338 H 0.69629 0.19677 0.95968 0.0
H339 H 0.71023 0.20367 0.04437 0.0
H340 H 0.58032 0.18137 0.05491 0.0
H341 H 0.58086 0.22702 0.00042 0.0
H342 H 0.54883 0.17472 0.04048 0.0
H343 H 0.54937 0.21949 0.98681 0.0
H344 H 0.63323 0.17081 0.9695 0.0
H345 H 0.65512 0.16516 0.05013 0.0
H346 H 0.65722 0.15017 0.95245 0.0
H347 H 0.67878 0.14467 0.03165 0.0
H348 H 0.59753 0.19994 0.90647 0.0
H349 H 0.57141 0.1592 0.95611 0.0
H350 H 0.58768 0.18711 0.13783 0.0
H351 H 0.60891 0.13769 0.10315 0.0
Li352 Li 0.05744 0.62152 0.19273 0.0
Li353 Li 0.04836 0.62603 0.24014 0.0
Li354 Li 0.04719 0.59674 0.21977 0.0
Li355 Li 0.02457 0.61824 0.20735 0.0
C356 C 0.0856 0.61951 0.23073 0.0
N357 N 0.11871 0.63585 0.24018 0.0
C358 C 0.0869 0.63836 0.23213 0.0
C359 C 0.10113 0.60895 0.23434 0.0
C360 C 0.10375 0.64638 0.23688 0.0
C361 C 0.11775 0.61746 0.23903 0.0
C362 C 0.03821 0.65796 0.20419 0.0
C363 C 0.01896 0.68441 0.20348 0.0
N364 N 0.03336 0.69471 0.19579 0.0
C365 C 0.05276 0.66882 0.19599 0.0
C366 C 0.02112 0.66582 0.2077 0.0
C367 C 0.05005 0.68735 0.19195 0.0
C368 C 0.06185 0.63956 0.14467 0.0
N369 N 0.07158 0.63045 0.16368 0.0
C370 C 0.09936 0.63895 0.14232 0.0
C371 C 0.08996 0.62946 0.16244 0.0
C372 C 0.08965 0.64929 0.12329 0.0
C373 C 0.07064 0.64919 0.12425 0.0
H374 H 0.04724 0.64011 0.1463 0.0
H375 H 0.09739 0.62188 0.17754 0.0
C376 C 0.06015 0.6285 0.29308 0.0
N377 N 0.0534 0.63878 0.27258 0.0
C378 C 0.0647 0.63645 0.31781 0.0
C379 C 0.05513 0.66544 0.2999 0.0
C380 C 0.05077 0.65692 0.27545 0.0
C381 C 0.06213 0.65513 0.32143 0.0
H382 H 0.06218 0.61413 0.29002 0.0
H383 H 0.04539 0.66477 0.2588 0.0
C384 C 0.03902 0.5865 0.1708 0.0
N385 N 0.039 0.55198 0.14925 0.0
C386 C 0.02314 0.57619 0.17097 0.0
C387 C 0.05484 0.57937 0.15946 0.0
C388 C 0.02342 0.55873 0.16003 0.0
C389 C 0.05456 0.56185 0.14872 0.0
C390 C 0.01577 0.61285 0.26209 0.0
C391 C 0.0073 0.60005 0.27872 0.0
C392 C 0.01098 0.6311 0.26429 0.0
C393 C 0.99404 0.60572 0.29711 0.0
C394 C -0.00232 0.63625 0.28293 0.0
N395 N 0.98954 0.62356 0.29881 0.0
C396 C 0.0665 0.56365 0.22263 0.0
C397 C 0.0352 0.56242 0.23362 0.0
C398 C 0.06823 0.54505 0.22697 0.0
N399 N 0.05017 0.57183 0.22604 0.0
C400 C 0.03629 0.54384 0.23811 0.0
C401 C 0.05297 0.53498 0.23486 0.0
H402 H 0.07808 0.57155 0.21622 0.0
H403 H 0.02239 0.56935 0.23586 0.0
C404 C -5e-05 0.63131 0.17081 0.0
N405 N 0.00077 0.62245 0.19494 0.0
C406 C 0.98325 0.63554 0.15932 0.0
C407 C 0.96846 0.62121 0.19757 0.0
C408 C 0.98552 0.6171 0.20826 0.0
C409 C 0.96727 0.63061 0.17285 0.0
H410 H 0.01234 0.63523 0.16065 0.0
H411 H 0.98653 0.60968 0.2271 0.0
O412 O 0.06927 0.61129 0.22604 0.0
O413 O 0.04052 0.63968 0.20793 0.0
O414 O 0.03917 0.60338 0.18215 0.0
O415 O 0.02878 0.60744 0.24402 0.0
H416 H 0.07503 0.64671 0.22978 0.0
H417 H 0.10037 0.59432 0.23345 0.0
H418 H 0.10492 0.66097 0.23799 0.0
H419 H 0.12989 0.60945 0.24177 0.0
H420 H 0.00582 0.69064 0.20623 0.0
H421 H 0.06602 0.66305 0.1925 0.0
H422 H 0.00956 0.6577 0.2135 0.0
H423 H 0.06121 0.69588 0.18566 0.0
H424 H 0.11403 0.63873 0.14217 0.0
H425 H 0.06267 0.65733 0.11038 0.0
H426 H 0.0705 0.62813 0.33371 0.0
H427 H 0.05304 0.6799 0.30199 0.0
H428 H 0.01081 0.58155 0.17976 0.0
H429 H 0.06724 0.58721 0.15929 0.0
H430 H 0.01128 0.55052 0.16019 0.0
H431 H 0.06673 0.55609 0.14005 0.0
H432 H 0.01091 0.58587 0.27742 0.0
H433 H 0.01754 0.64117 0.25188 0.0
H434 H 0.98734 0.59595 0.31006 0.0
H435 H 0.99386 0.65034 0.2848 0.0
H436 H 0.08122 0.53856 0.2238 0.0
H437 H 0.02426 0.53648 0.2442 0.0
H438 H 0.98282 0.64289 0.14027 0.0
H439 H 0.95636 0.617 0.20833 0.0
Li440 Li 0.62399 0.77236 0.45906 0.0
Li441 Li 0.64679 0.79405 0.46752 0.0
Li442 Li 0.6177 0.79476 0.49398 0.0
Li443 Li 0.61996 0.80348 0.44522 0.0
C444 C 0.63849 0.75972 0.5063 0.0
N445 N 0.64173 0.72654 0.53189 0.0
C446 C 0.64954 0.74623 0.49519 0.0
C447 C 0.62915 0.75634 0.53048 0.0
C448 C 0.65097 0.72954 0.5084 0.0
C449 C 0.63096 0.73948 0.5431 0.0
C450 C 0.65418 0.78497 0.41835 0.0
C451 C 0.67989 0.79953 0.39736 0.0
N452 N 0.6876 0.78303 0.39315 0.0
C453 C 0.66237 0.76815 0.41382 0.0
C454 C 0.663 0.80079 0.41003 0.0
C455 C 0.67926 0.76746 0.40102 0.0
C456 C 0.61937 0.74485 0.42119 0.0
N457 N 0.61834 0.74811 0.44829 0.0
C458 C 0.60713 0.71818 0.45629 0.0
C459 C 0.61206 0.7353 0.46582 0.0
C460 C 0.60835 0.71439 0.42842 0.0
C461 C 0.6144 0.72805 0.41077 0.0
H462 H 0.62352 0.75553 0.40751 0.0
H463 H 0.61037 0.73847 0.48707 0.0
C464 C 0.67859 0.81431 0.47884 0.0
N465 N 0.67198 0.79766 0.47233 0.0
C466 C 0.69694 0.81646 0.48499 0.0
C467 C 0.70126 0.7844 0.47706 0.0
C468 C 0.68291 0.78289 0.47115 0.0
C469 C 0.70834 0.80126 0.4847 0.0
H470 H 0.66953 0.82578 0.48006 0.0
H471 H 0.67734 0.76984 0.46605 0.0
C472 C 0.58892 0.77683 0.45271 0.0
N473 N 0.56383 0.75354 0.42994 0.0
C474 C 0.58594 0.77692 0.42466 0.0
C475 C 0.57915 0.76486 0.46917 0.0
C476 C 0.57318 0.76506 0.41355 0.0
C477 C 0.56653 0.7532 0.45727 0.0
C478 C 0.62696 0.83284 0.47255 0.0
C479 C 0.61172 0.84025 0.48523 0.0
C480 C 0.63705 0.84341 0.45447 0.0
C481 C 0.60675 0.8581 0.47946 0.0
C482 C 0.63162 0.8612 0.44921 0.0
N483 N 0.61671 0.86812 0.4617 0.0
C484 C 0.61783 0.80924 0.54589 0.0
C485 C 0.58938 0.79707 0.53275 0.0
C486 C 0.61064 0.81504 0.57057 0.0
N487 N 0.60713 0.80055 0.52761 0.0
C488 C 0.58168 0.80241 0.55737 0.0
C489 C 0.59237 0.81163 0.57643 0.0
H490 H 0.63187 0.81195 0.54098 0.0
H491 H 0.58112 0.79053 0.51755 0.0
C492 C 0.61638 0.82346 0.39534 0.0
N493 N 0.60884 0.81916 0.4197 0.0
C494 C 0.60673 0.83399 0.37668 0.0
C495 C 0.58197 0.83552 0.40878 0.0
C496 C 0.5921 0.82513 0.42681 0.0
C497 C 0.58912 0.8398 0.38314 0.0
H498 H 0.62964 0.81838 0.39009 0.0
H499 H 0.58643 0.82134 0.44625 0.0
O500 O 0.63704 0.77626 0.49393 0.0
O501 O 0.63771 0.78596 0.43108 0.0
O502 O 0.60179 0.78793 0.46385 0.0
O503 O 0.63178 0.81523 0.4774 0.0
H504 H 0.65653 0.7484 0.47619 0.0
H505 H 0.62059 0.76662 0.53945 0.0
H506 H 0.65934 0.71893 0.4999 0.0
H507 H 0.62379 0.73668 0.5618 0.0
H508 H 0.68691 0.81168 0.39098 0.0
H509 H 0.65596 0.75577 0.42051 0.0
H510 H 0.65703 0.81392 0.41372 0.0
H511 H 0.68579 0.75455 0.39752 0.0
H512 H 0.60216 0.70813 0.47049 0.0
H513 H 0.61472 0.726 0.38899 0.0
H514 H 0.70203 0.82966 0.49085 0.0
H515 H 0.70977 0.77246 0.47617 0.0
H516 H 0.5936 0.78582 0.41152 0.0
H517 H 0.58159 0.76426 0.49081 0.0
H518 H 0.5708 0.76494 0.39187 0.0
H519 H 0.55898 0.74378 0.46973 0.0
H520 H 0.60365 0.83225 0.49909 0.0
H521 H 0.64884 0.8379 0.44441 0.0
H522 H 0.59493 0.86398 0.48901 0.0
H523 H 0.63924 0.8695 0.43515 0.0
H524 H 0.6192 0.82219 0.58488 0.0
H525 H 0.56745 0.79984 0.56118 0.0
H526 H 0.61281 0.83722 0.35725 0.0
H527 H 0.56836 0.83953 0.41445 0.0
Li528 Li 0.46634 0.37492 0.70307 0.0
Li529 Li 0.4453 0.39896 0.7151 0.0
Li530 Li 0.4443 0.3693 0.7398 0.0
Li531 Li 0.43333 0.37282 0.69348 0.0
C532 C 0.47924 0.38911 0.75436 0.0
N533 N 0.50955 0.3925 0.78706 0.0
C534 C 0.48913 0.40527 0.75465 0.0
C535 C 0.48459 0.37482 0.77121 0.0
C536 C 0.50446 0.40668 0.77116 0.0
C537 C 0.5 0.37675 0.78744 0.0
C538 C 0.45413 0.40528 0.66358 0.0
C539 C 0.44271 0.43225 0.64182 0.0
N540 N 0.45992 0.43692 0.63485 0.0
C541 C 0.47169 0.41028 0.65602 0.0
C542 C 0.43949 0.41627 0.65624 0.0
C543 C 0.47434 0.42635 0.64155 0.0
C544 C 0.48975 0.35515 0.67095 0.0
N545 N 0.48954 0.36895 0.6892 0.0
C546 C 0.52166 0.37236 0.68567 0.0
C547 C 0.505 0.37775 0.69645 0.0
C548 C 0.52228 0.35778 0.66742 0.0
C549 C 0.50606 0.34927 0.65981 0.0
H550 H 0.4772 0.34867 0.66515 0.0
H551 H 0.50444 0.38899 0.71039 0.0
C552 C 0.42739 0.43085 0.73077 0.0
N553 N 0.443 0.42421 0.72001 0.0
C554 C 0.4257 0.44932 0.73611 0.0
C555 C 0.45616 0.45371 0.71912 0.0
C556 C 0.45722 0.43519 0.71399 0.0
C557 C 0.44029 0.4609 0.73046 0.0
H558 H 0.41642 0.42175 0.73574 0.0
H559 H 0.46949 0.42954 0.70556 0.0
C560 C 0.45675 0.33709 0.7143 0.0
N561 N 0.47105 0.30342 0.72654 0.0
C562 C 0.44735 0.32132 0.70725 0.0
C563 C 0.47356 0.33567 0.72717 0.0
C564 C 0.45475 0.30445 0.71374 0.0
C565 C 0.48054 0.31856 0.73328 0.0
C566 C 0.40576 0.38235 0.7233 0.0
C567 C 0.39665 0.36867 0.73741 0.0
C568 C 0.39619 0.39341 0.70524 0.0
C569 C 0.37813 0.36611 0.73292 0.0
C570 C 0.37769 0.3904 0.70129 0.0
N571 N 0.36912 0.37692 0.71508 0.0
C572 C 0.44161 0.36907 0.79616 0.0
C573 C 0.43385 0.34102 0.77572 0.0
C574 C 0.43717 0.36236 0.82178 0.0
N575 N 0.43984 0.35839 0.77384 0.0
C576 C 0.4292 0.33377 0.80095 0.0
C577 C 0.43057 0.34461 0.82428 0.0
H578 H 0.44621 0.38291 0.79394 0.0
H579 H 0.43206 0.333 0.75758 0.0
C580 C 0.41349 0.37077 0.64383 0.0
N581 N 0.41605 0.36346 0.66888 0.0
C582 C 0.40219 0.36213 0.6251 0.0
C583 C 0.39614 0.33898 0.65869 0.0
C584 C 0.40735 0.34816 0.67677 0.0
C585 C 0.39367 0.34578 0.63228 0.0
H586 H 0.42073 0.3829 0.63804 0.0
H587 H 0.40971 0.34269 0.69684 0.0
O588 O 0.46402 0.38762 0.73853 0.0
O589 O 0.45129 0.38966 0.67791 0.0
O590 O 0.44968 0.35374 0.70797 0.0
O591 O 0.42396 0.38483 0.72701 0.0
H592 H 0.48514 0.41659 0.74213 0.0
H593 H 0.47687 0.36241 0.77207 0.0
H594 H 0.5123 0.41906 0.77136 0.0
H595 H 0.50429 0.36575 0.80047 0.0
H596 H 0.43152 0.44095 0.6362 0.0
H597 H 0.48316 0.4019 0.66139 0.0
H598 H 0.42582 0.41259 0.66187 0.0
H599 H 0.48786 0.43043 0.63569 0.0
H600 H 0.53392 0.37935 0.6917 0.0
H601 H 0.50598 0.3383 0.64521 0.0
H602 H 0.41338 0.45442 0.7453 0.0
H603 H 0.46765 0.4623 0.71449 0.0
H604 H 0.43446 0.32207 0.69689 0.0
H605 H 0.48133 0.34762 0.73194 0.0
H606 H 0.44755 0.29216 0.70854 0.0
H607 H 0.49355 0.31731 0.74323 0.0
H608 H 0.40382 0.36002 0.7515 0.0
H609 H 0.40302 0.40409 0.69424 0.0
H610 H 0.37093 0.3555 0.74357 0.0
H611 H 0.37015 0.39878 0.68724 0.0
H612 H 0.43864 0.37103 0.83939 0.0
H613 H 0.42398 0.32008 0.80209 0.0
H614 H 0.40071 0.36776 0.6049 0.0
H615 H 0.39038 0.32615 0.6649 0.0
Li616 Li 0.87152 0.18606 0.94634 0.0
Li617 Li 0.87374 0.19456 0.99363 0.0
Li618 Li 0.84566 0.19855 0.96758 0.0
Li619 Li 0.87063 0.21855 0.9578 0.0
C620 C 0.85784 0.15739 0.97627 0.0
N621 N 0.85744 0.11998 0.97378 0.0
C622 C 0.86783 0.14719 0.99495 0.0
C623 C 0.84763 0.14855 0.95634 0.0
C624 C 0.86747 0.12829 0.99333 0.0
C625 C 0.84761 0.12963 0.95543 0.0
C626 C 0.90654 0.19293 0.95665 0.0
C627 C 0.93379 0.19255 0.92957 0.0
N628 N 0.93782 0.17581 0.93943 0.0
C629 C 0.91101 0.17576 0.96662 0.0
C630 C 0.91807 0.20145 0.93809 0.0
C631 C 0.92687 0.16733 0.95765 0.0
C632 C 0.88651 0.17948 0.89592 0.0
N633 N 0.88176 0.17064 0.91908 0.0
C634 C 0.89798 0.14428 0.90489 0.0
C635 C 0.88699 0.15322 0.92359 0.0
C636 C 0.90432 0.15361 0.88194 0.0
C637 C 0.89792 0.17121 0.877 0.0
H638 H 0.88252 0.19346 0.89311 0.0
H639 H 0.88392 0.1466 0.9425 0.0
C640 C 0.87155 0.18472 0.04814 0.0
N641 N 0.88343 0.18925 0.02818 0.0
C642 C 0.8779 0.17987 0.07381 0.0
C643 C 0.90856 0.1847 0.05791 0.0
C644 C 0.9016 0.18972 0.03267 0.0
C645 C 0.89662 0.17962 0.07869 0.0
H646 H 0.85717 0.18459 0.0439 0.0
H647 H 0.9107 0.19383 0.01662 0.0
C648 C 0.84007 0.20825 0.91783 0.0
N649 N 0.80742 0.21443 0.89206 0.0
C650 C 0.83307 0.2258 0.91626 0.0
C651 C 0.83061 0.19386 0.90606 0.0
C652 C 0.8165 0.22864 0.90319 0.0
C653 C 0.81408 0.19725 0.89319 0.0
C654 C 0.86276 0.22862 0.01154 0.0
C655 C 0.85011 0.23747 0.02797 0.0
C656 C 0.88123 0.23234 0.01471 0.0
C657 C 0.85614 0.24998 0.04725 0.0
C658 C 0.88671 0.24493 0.03423 0.0
N659 N 0.87416 0.25342 0.04995 0.0
C660 C 0.81079 0.18251 0.97107 0.0
C661 C 0.81164 0.21456 0.97432 0.0
C662 C 0.79204 0.18253 0.97442 0.0
N663 N 0.82013 0.19838 0.97097 0.0
C664 C 0.7929 0.21522 0.97773 0.0
C665 C 0.7829 0.19904 0.9778 0.0
H666 H 0.81788 0.16984 0.96892 0.0
H667 H 0.8195 0.22693 0.97459 0.0
C668 C 0.88665 0.24162 0.92131 0.0
N669 N 0.87761 0.24183 0.94532 0.0
C670 C 0.89302 0.25769 0.90999 0.0
C671 C 0.88 0.2741 0.94775 0.0
C672 C 0.87383 0.25764 0.95836 0.0
C673 C 0.88987 0.27418 0.92337 0.0
H674 H 0.8889 0.2289 0.91097 0.0
H675 H 0.86609 0.25758 0.97696 0.0
O676 O 0.85785 0.17588 0.97786 0.0
O677 O 0.8908 0.20118 0.96466 0.0
O678 O 0.85596 0.20511 0.93127 0.0
O679 O 0.857 0.21618 0.99285 0.0
H680 H 0.87582 0.15377 0.0105 0.0
H681 H 0.84005 0.15621 0.94146 0.0
H682 H 0.87515 0.12024 0.00762 0.0
H683 H 0.83983 0.12262 0.94005 0.0
H684 H 0.94279 0.19896 0.91512 0.0
H685 H 0.90216 0.16889 0.9808 0.0
H686 H 0.91496 0.21477 0.93031 0.0
H687 H 0.93039 0.15398 0.96501 0.0
H688 H 0.90233 0.13057 0.90919 0.0
H689 H 0.90259 0.17894 0.85966 0.0
H690 H 0.86837 0.17587 0.08944 0.0
H691 H 0.92308 0.18472 0.06117 0.0
H692 H 0.84024 0.23707 0.92535 0.0
H693 H 0.83592 0.18021 0.90704 0.0
H694 H 0.81083 0.24213 0.90198 0.0
H695 H 0.80653 0.18624 0.88414 0.0
H696 H 0.83578 0.23468 0.02583 0.0
H697 H 0.89124 0.22567 0.00221 0.0
H698 H 0.84649 0.25695 0.06008 0.0
H699 H 0.90094 0.24795 0.03688 0.0
H700 H 0.78476 0.16979 0.97449 0.0
H701 H 0.78636 0.22818 0.98093 0.0
H702 H 0.90031 0.25725 0.89089 0.0
H703 H 0.87735 0.28654 0.9587 0.0
Li704 Li 0.95457 0.59723 0.72336 0.0
Li705 Li 0.95475 0.62694 0.7444 0.0
Li706 Li 0.94758 0.62307 0.69621 0.0
Li707 Li 0.97834 0.61911 0.71307 0.0
C708 C 0.92026 0.60336 0.73632 0.0
N709 N 0.89335 0.58023 0.75423 0.0
C710 C 0.91495 0.60352 0.76358 0.0
C711 C 0.91177 0.59157 0.71812 0.0
C712 C 0.90134 0.5917 0.77224 0.0
C713 C 0.89824 0.57993 0.72759 0.0
C714 C 0.9896 0.60247 0.75664 0.0
C715 C 0.019 0.60983 0.77496 0.0
N716 N 0.02428 0.59234 0.77132 0.0
C717 C 0.99529 0.58456 0.75314 0.0
C718 C 0.00151 0.61521 0.76773 0.0
C719 C 0.01288 0.57971 0.76069 0.0
C720 C 0.95217 0.55966 0.71178 0.0
N721 N 0.94993 0.57265 0.73102 0.0
C722 C 0.9433 0.55042 0.76476 0.0
C723 C 0.94559 0.56843 0.75708 0.0
C724 C 0.94614 0.53662 0.74562 0.0
C725 C 0.95033 0.54141 0.7187 0.0
H726 H 0.95593 0.56345 0.69132 0.0
H727 H 0.94426 0.57907 0.77202 0.0
C728 C 0.93486 0.65149 0.77651 0.0
N729 N 0.94876 0.63941 0.77664 0.0
C730 C 0.92973 0.66015 0.80047 0.0
C731 C 0.95295 0.64331 0.82432 0.0
C732 C 0.95783 0.63521 0.79982 0.0
C733 C 0.93875 0.65591 0.82471 0.0
H734 H 0.92755 0.65413 0.75789 0.0
H735 H 0.96857 0.62527 0.79938 0.0
C736 C 0.96319 0.60215 0.66019 0.0
N737 N 0.95901 0.60131 0.60444 0.0
C738 C 0.97602 0.61043 0.64339 0.0
C739 C 0.94832 0.59331 0.64865 0.0
C740 C 0.97365 0.60988 0.61525 0.0
C741 C 0.94642 0.59308 0.62041 0.0
C742 C 0.96168 0.65855 0.72256 0.0
C743 C 0.94734 0.66931 0.71337 0.0
C744 C 0.9736 0.66538 0.74213 0.0
C745 C 0.94512 0.68671 0.72402 0.0
C746 C 0.97088 0.68283 0.75233 0.0
N747 N 0.95681 0.69305 0.74314 0.0
C748 C 0.91562 0.63199 0.66704 0.0
C749 C 0.94316 0.64355 0.64924 0.0
C750 C 0.90563 0.64233 0.64859 0.0
N751 N 0.93399 0.63309 0.66732 0.0
C752 C 0.93375 0.65405 0.63042 0.0
C753 C 0.91473 0.65386 0.63044 0.0
H754 H 0.90869 0.62387 0.68208 0.0
H755 H 0.95775 0.6446 0.65058 0.0
C756 C 0.01379 0.60819 0.69716 0.0
N757 N 0.00299 0.62249 0.70362 0.0
C758 C 0.03127 0.61116 0.68717 0.0
C759 C 0.02612 0.64341 0.69106 0.0
C760 C 0.00885 0.63983 0.70102 0.0
C761 C 0.03752 0.62899 0.6837 0.0
H762 H 0.00858 0.59454 0.69882 0.0
H763 H -0.00017 0.65093 0.7055 0.0
O764 O 0.93371 0.61466 0.72752 0.0
O765 O 0.97253 0.60758 0.74901 0.0
O766 O 0.9651 0.60278 0.6878 0.0
O767 O 0.96398 0.64138 0.71265 0.0
H768 H 0.92138 0.61255 0.77795 0.0
H769 H 0.91571 0.59129 0.69696 0.0
H770 H 0.89716 0.5916 0.79331 0.0
H771 H 0.89163 0.57065 0.71377 0.0
H772 H 0.02839 0.61956 0.78342 0.0
H773 H 0.98629 0.57454 0.7445 0.0
H774 H -0.00267 0.62914 0.77048 0.0
H775 H 0.01749 0.56591 0.75802 0.0
H776 H 0.93963 0.54733 0.78555 0.0
H777 H 0.95275 0.53115 0.70339 0.0
H778 H 0.91847 0.66956 0.80028 0.0
H779 H 0.96003 0.63966 0.8428 0.0
H780 H 0.98758 0.61738 0.65198 0.0
H781 H 0.93829 0.5868 0.66137 0.0
H782 H 0.98342 0.61632 0.602 0.0
H783 H 0.93493 0.58637 0.6112 0.0
H784 H 0.9379 0.66424 0.69841 0.0
H785 H 0.98468 0.6572 0.74963 0.0
H786 H 0.93403 0.69515 0.71717 0.0
H787 H 0.97992 0.68824 0.76761 0.0
H788 H 0.89096 0.64199 0.64934 0.0
H789 H 0.94125 0.66316 0.61733 0.0
H790 H 0.03958 0.59969 0.68139 0.0
H791 H 0.0301 0.65736 0.68774 0.0
Li792 Li 0.11859 0.20149 0.48952 0.0
Li793 Li 0.14682 0.20094 0.46446 0.0
Li794 Li 0.12488 0.22501 0.45739 0.0
Li795 Li 0.11938 0.19436 0.44108 0.0
C796 C 0.1439 0.23606 0.49836 0.0
N797 N 0.15467 0.27091 0.51092 0.0
C798 C 0.16121 0.24208 0.49118 0.0
C799 C 0.13209 0.24774 0.51199 0.0
C800 C 0.1664 0.25975 0.49773 0.0
C801 C 0.13778 0.26532 0.51812 0.0
C802 C 0.1417 0.16741 0.47907 0.0
C803 C 0.16413 0.14476 0.46829 0.0
N804 N 0.16692 0.14195 0.49528 0.0
C805 C 0.14472 0.16424 0.5067 0.0
C806 C 0.1514 0.15754 0.45968 0.0
C807 C 0.15755 0.15132 0.51448 0.0
C808 C 0.09589 0.18128 0.52366 0.0
N809 N 0.10791 0.19523 0.52304 0.0
C810 C 0.10639 0.19844 0.5712 0.0
C811 C 0.11323 0.20387 0.54607 0.0
C812 C 0.09397 0.1841 0.57237 0.0
C813 C 0.0885 0.17561 0.54828 0.0
H814 H 0.09232 0.17436 0.50506 0.0
H815 H 0.1231 0.21466 0.54498 0.0
C816 C 0.18275 0.19376 0.44664 0.0
N817 N 0.17167 0.19579 0.46845 0.0
C818 C 0.20131 0.19121 0.45045 0.0
C819 C 0.19651 0.19259 0.49904 0.0
C820 C 0.17809 0.19508 0.49429 0.0
C821 C 0.20838 0.19096 0.47693 0.0
H822 H 0.17726 0.1945 0.42634 0.0
H823 H 0.16889 0.19692 0.51119 0.0
C824 C 0.08582 0.20885 0.47191 0.0
N825 N 0.05251 0.20418 0.4966 0.0
C826 C 0.07421 0.19502 0.46332 0.0
C827 C 0.08044 0.22036 0.49298 0.0
C828 C 0.05743 0.19288 0.47606 0.0
C829 C 0.06356 0.21775 0.50525 0.0
C830 C 0.13843 0.20957 0.40224 0.0
C831 C 0.13082 0.2232 0.38615 0.0
C832 C 0.14504 0.19381 0.38998 0.0
C833 C 0.12986 0.22078 0.35804 0.0
C834 C 0.14379 0.1919 0.36182 0.0
N835 N 0.13629 0.20531 0.34656 0.0
C836 C 0.13546 0.25974 0.43851 0.0
C837 C 0.10455 0.25668 0.45084 0.0
C838 C 0.13237 0.27732 0.42911 0.0
N839 N 0.12154 0.24978 0.44874 0.0
C840 C 0.10086 0.27415 0.44176 0.0
C841 C 0.11481 0.28459 0.43032 0.0
H842 H 0.14877 0.25374 0.43665 0.0
H843 H 0.09366 0.24833 0.45844 0.0
C844 C 0.10722 0.16246 0.41487 0.0
N845 N 0.10749 0.18085 0.4138 0.0
C846 C 0.09595 0.1527 0.3974 0.0
C847 C 0.08617 0.18101 0.3774 0.0
C848 C 0.09743 0.1902 0.39543 0.0
C849 C 0.08506 0.16206 0.37871 0.0
H850 H 0.11503 0.15543 0.43017 0.0
H851 H 0.09743 0.20485 0.39577 0.0
O852 O 0.13842 0.21894 0.49165 0.0
O853 O 0.12953 0.1803 0.47103 0.0
O854 O 0.10241 0.21105 0.4599 0.0
O855 O 0.13932 0.21158 0.42983 0.0
H856 H 0.17047 0.2333 0.48039 0.0
H857 H 0.1186 0.24333 0.51752 0.0
H858 H 0.17973 0.26462 0.49221 0.0
H859 H 0.12874 0.27454 0.52854 0.0
H860 H 0.17182 0.13711 0.45352 0.0
H861 H 0.13741 0.17181 0.52198 0.0
H862 H 0.14925 0.15986 0.43823 0.0
H863 H 0.16011 0.1488 0.53578 0.0
H864 H 0.1109 0.20519 0.58954 0.0
H865 H 0.07909 0.16434 0.54864 0.0
H866 H 0.21007 0.18978 0.43293 0.0
H867 H 0.20151 0.19261 0.51973 0.0
H868 H 0.07813 0.18593 0.44715 0.0
H869 H 0.08931 0.23102 0.50008 0.0
H870 H 0.04834 0.1822 0.46968 0.0
H871 H 0.05929 0.22647 0.5217 0.0
H872 H 0.12554 0.23543 0.39526 0.0
H873 H 0.15084 0.18307 0.40213 0.0
H874 H 0.12393 0.23119 0.34536 0.0
H875 H 0.14874 0.17972 0.35209 0.0
H876 H 0.14342 0.28492 0.42014 0.0
H877 H 0.08702 0.27901 0.44226 0.0
H878 H 0.0952 0.13809 0.39917 0.0
H879 H 0.07757 0.1887 0.36379 0.0
Li880 Li 0.53843 0.39514 0.22354 0.0
Li881 Li 0.54052 0.36558 0.24578 0.0
Li882 Li 0.54565 0.36836 0.19725 0.0
Li883 Li 0.51573 0.37239 0.21752 0.0
C884 C 0.57509 0.38725 0.21606 0.0
N885 N 0.60551 0.40359 0.19434 0.0
C886 C 0.59202 0.3847 0.22818 0.0
C887 C 0.57363 0.39808 0.19283 0.0
C888 C 0.60724 0.39309 0.21691 0.0
C889 C 0.58917 0.40623 0.18219 0.0
C890 C 0.50538 0.38911 0.26116 0.0
C891 C 0.47787 0.38106 0.28478 0.0
N892 N 0.47072 0.39751 0.27844 0.0
C893 C 0.49781 0.406 0.25514 0.0
C894 C 0.49538 0.3766 0.27633 0.0
C895 C 0.48026 0.40997 0.26396 0.0
C896 C 0.53219 0.43187 0.21397 0.0
N897 N 0.54311 0.42002 0.22725 0.0
C898 C 0.55978 0.44422 0.24737 0.0
C899 C 0.55675 0.42575 0.24366 0.0
C900 C 0.54841 0.45684 0.23447 0.0
C901 C 0.5344 0.45044 0.21767 0.0
H902 H 0.52134 0.42683 0.20127 0.0
H903 H 0.56515 0.41595 0.25408 0.0
C904 C 0.56252 0.34126 0.27433 0.0
N905 N 0.54905 0.35368 0.27704 0.0
C906 C 0.56945 0.33253 0.29721 0.0
C907 C 0.54855 0.34964 0.32508 0.0
C908 C 0.54203 0.35805 0.30168 0.0
C909 C 0.56242 0.33671 0.32294 0.0
H910 H 0.56789 0.33822 0.25439 0.0
H911 H 0.53156 0.36823 0.30318 0.0
C912 C 0.51939 0.3847 0.16424 0.0
N913 N 0.50214 0.37887 0.11516 0.0
C914 C 0.51511 0.36707 0.15594 0.0
C915 C 0.51489 0.39933 0.14753 0.0
C916 C 0.50639 0.36442 0.13108 0.0
C917 C 0.50619 0.39611 0.12279 0.0
C918 C 0.5299 0.33281 0.22582 0.0
C919 C 0.53771 0.31871 0.21092 0.0
C920 C 0.52108 0.32891 0.25026 0.0
C921 C 0.53709 0.30106 0.22115 0.0
C922 C 0.52078 0.3111 0.25987 0.0
N923 N 0.52875 0.29766 0.24525 0.0
C924 C 0.57058 0.34482 0.17549 0.0
C925 C 0.55989 0.3658 0.14275 0.0
C926 C 0.58027 0.33549 0.15571 0.0
N927 N 0.56002 0.35913 0.16852 0.0
C928 C 0.56963 0.35701 0.12228 0.0
C929 C 0.57943 0.34122 0.12852 0.0
H930 H 0.57089 0.34026 0.19637 0.0
H931 H 0.55201 0.3777 0.13793 0.0
C932 C 0.4809 0.38297 0.20057 0.0
N933 N 0.49074 0.36883 0.21037 0.0
C934 C 0.46361 0.38005 0.18999 0.0
C935 C 0.46661 0.34827 0.20114 0.0
C936 C 0.4838 0.35181 0.21154 0.0
C937 C 0.45661 0.36238 0.18929 0.0
H938 H 0.4869 0.39632 0.19956 0.0
H939 H 0.49198 0.34079 0.21904 0.0
O940 O 0.56012 0.37901 0.22684 0.0
O941 O 0.52245 0.38487 0.25221 0.0
O942 O 0.52738 0.3878 0.18891 0.0
O943 O 0.53046 0.35022 0.21611 0.0
H944 H 0.59336 0.3763 0.24611 0.0
H945 H 0.56067 0.40018 0.1831 0.0
H946 H 0.62043 0.39124 0.22609 0.0
H947 H 0.58824 0.41464 0.16424 0.0
H948 H 0.46997 0.37145 0.2964 0.0
H949 H 0.5053 0.41589 0.24358 0.0
H950 H 0.50103 0.36358 0.2816 0.0
H951 H 0.47421 0.42294 0.25924 0.0
H952 H 0.57075 0.44859 0.26043 0.0
H953 H 0.52488 0.4596 0.20813 0.0
H954 H 0.5802 0.32265 0.29485 0.0
H955 H 0.54311 0.35353 0.34467 0.0
H956 H 0.51839 0.35554 0.16852 0.0
H957 H 0.51802 0.41306 0.15368 0.0
H958 H 0.50296 0.35087 0.12446 0.0
H959 H 0.50261 0.40732 0.10969 0.0
H960 H 0.54394 0.32126 0.19144 0.0
H961 H 0.51468 0.33953 0.2618 0.0
H962 H 0.54315 0.29005 0.20985 0.0
H963 H 0.51418 0.30797 0.27893 0.0
H964 H 0.58768 0.32342 0.1615 0.0
H965 H 0.56916 0.36226 0.10176 0.0
H966 H 0.45619 0.39128 0.18125 0.0
H967 H 0.46174 0.33443 0.20071 0.0
Li968 Li 0.34755 0.79193 0.97432 0.0
Li969 Li 0.37741 0.79232 0.99493 0.0
Li970 Li 0.37368 0.79956 0.94747 0.0
Li971 Li 0.36938 0.76885 0.96446 0.0
C972 C 0.35567 0.82845 0.97014 0.0
N973 N 0.33887 0.85978 0.95255 0.0
C974 C 0.35806 0.84465 0.98437 0.0
C975 C 0.34475 0.82818 0.94693 0.0
C976 C 0.34944 0.86035 0.97516 0.0
C977 C 0.33637 0.84416 0.93838 0.0
C978 C 0.35168 0.75763 0.00739 0.0
C979 C 0.35566 0.72889 0.02995 0.0
N980 N 0.33897 0.72365 0.02126 0.0
C981 C 0.33453 0.75199 -0.0012 0.0
C982 C 0.36231 0.74603 0.0232 0.0
C983 C 0.32836 0.73475 0.00599 0.0
C984 C 0.31025 0.79522 0.96221 0.0
N985 N 0.32321 0.79705 0.9816 0.0
C986 C 0.30108 0.804 0.01527 0.0
C987 C 0.31909 0.80162 0.00758 0.0
C988 C 0.28733 0.80154 0.99596 0.0
C989 C 0.29205 0.79749 0.969 0.0
H990 H 0.31404 0.79154 0.94173 0.0
H991 H 0.32981 0.80296 0.02244 0.0
C992 C 0.40371 0.81103 0.02515 0.0
N993 N 0.38978 0.79906 0.02678 0.0
C994 C 0.41246 0.81681 0.0487 0.0
C995 C 0.39211 0.79804 0.07506 0.0
C996 C 0.38389 0.79247 0.05098 0.0
C997 C 0.40658 0.81039 0.07407 0.0
H998 H 0.40789 0.8162 0.00556 0.0
H999 H 0.37254 0.78322 0.05158 0.0
C1000 C 0.35621 0.77533 0.91251 0.0
N1001 N 0.36119 0.76053 0.86146 0.0
C1002 C 0.37365 0.77105 0.90336 0.0
C1003 C 0.34133 0.77203 0.89566 0.0
C1004 C 0.37587 0.76359 0.8775 0.0
C1005 C 0.34412 0.76457 0.86992 0.0
C1006 C 0.40897 0.78095 0.97442 0.0
C1007 C 0.4239 0.78916 0.962 0.0
C1008 C 0.41158 0.77031 0.9976 0.0
C1009 C 0.44111 0.78693 0.97333 0.0
C1010 C 0.42899 0.76842 0.00835 0.0
N1011 N 0.44328 0.77672 0.99611 0.0
C1012 C 0.39792 0.82422 0.9269 0.0
C1013 C 0.37574 0.81602 0.89432 0.0
C1014 C 0.40734 0.83424 0.90757 0.0
N1015 N 0.3829 0.81477 0.91972 0.0
C1016 C 0.38467 0.82604 0.8743 0.0
C1017 C 0.40105 0.83477 0.88065 0.0
H1018 H 0.40292 0.82341 0.94751 0.0
H1019 H 0.36337 0.80892 0.88937 0.0
C1020 C 0.35773 0.73484 0.94474 0.0
N1021 N 0.37215 0.74402 0.95511 0.0
C1022 C 0.36008 0.71756 0.93377 0.0
C1023 C 0.39187 0.71927 0.94539 0.0
C1024 C 0.38891 0.73647 0.95607 0.0
C1025 C 0.37746 0.70984 0.93334 0.0
H1026 H 0.34459 0.74128 0.94386 0.0
H1027 H 0.40022 0.7441 0.96381 0.0
O1028 O 0.3641 0.81302 0.97897 0.0
O1029 O 0.35808 0.77435 0.0002 0.0
O1030 O 0.3535 0.78218 0.93806 0.0
O1031 O 0.39196 0.78314 0.96375 0.0
H1032 H 0.3665 0.84507 0.00235 0.0
H1033 H 0.34275 0.81581 0.93559 0.0
H1034 H 0.35117 0.87298 0.98598 0.0
H1035 H 0.32788 0.84415 0.92046 0.0
H1036 H 0.36377 0.71976 0.0421 0.0
H1037 H 0.32616 0.76069 0.98637 0.0
H1038 H 0.37555 0.7502 0.03022 0.0
H1039 H 0.31516 0.73017 -0.00066 0.0
H1040 H 0.29791 0.80737 0.03615 0.0
H1041 H 0.28174 0.79545 0.95363 0.0
H1042 H 0.42355 0.82637 0.04712 0.0
H1043 H 0.3868 0.7932 0.09424 0.0
H1044 H 0.38537 0.77339 0.91599 0.0
H1045 H 0.32773 0.77512 0.90246 0.0
H1046 H 0.38928 0.76021 0.8702 0.0
H1047 H 0.33271 0.76194 0.8567 0.0
H1048 H 0.42228 0.79703 0.94364 0.0
H1049 H 0.40023 0.76371 0.0073 0.0
H1050 H 0.45276 0.79326 0.96396 0.0
H1051 H 0.43115 0.76036 0.02642 0.0
H1052 H 0.41989 0.84079 0.91337 0.0
H1053 H 0.3791 0.82657 0.85397 0.0
H1054 H 0.34863 0.71062 0.92477 0.0
H1055 H 0.40552 0.71387 0.94508 0.0
Li1056 Li 0.94869 0.36956 0.80068 0.0
Li1057 Li 0.9789 0.3755 0.78213 0.0
Li1058 Li 0.95504 0.3973 0.77617 0.0
Li1059 Li 0.95507 0.36826 0.7526 0.0
C1060 C 0.95872 0.39911 0.83173 0.0
N1061 N 0.94442 0.41924 0.87391 0.0
C1062 C 0.97004 0.40581 0.85213 0.0
C1063 C 0.94012 0.40268 0.83274 0.0
C1064 C 0.96256 0.41595 0.8733 0.0
C1065 C 0.93316 0.41287 0.85424 0.0
C1066 C 0.96226 0.33535 0.77214 0.0
C1067 C 0.96952 0.31085 0.74148 0.0
N1068 N 0.95591 0.3008 0.7524 0.0
C1069 C 0.94848 0.32464 0.78325 0.0
C1070 C 0.97301 0.32826 0.75128 0.0
C1071 C 0.94544 0.30727 0.77295 0.0
C1072 C 0.91824 0.35395 0.82583 0.0
N1073 N 0.93577 0.35893 0.82965 0.0
C1074 C 0.93688 0.34336 0.87207 0.0
C1075 C 0.94502 0.35434 0.85249 0.0
C1076 C 0.91917 0.33697 0.86786 0.0
C1077 C 0.90963 0.34282 0.84476 0.0
H1078 H 0.91141 0.35751 0.80717 0.0
H1079 H 0.95902 0.35842 0.85476 0.0
C1080 C 0.01363 0.3872 0.79889 0.0
N1081 N 0.00379 0.37282 0.78995 0.0
C1082 C 0.03146 0.3847 0.8077 0.0
C1083 C 0.02873 0.35285 0.79685 0.0
C1084 C 0.011 0.35594 0.78842 0.0
C1085 C 0.03908 0.36727 0.8071 0.0
H1086 H 0.0074 0.40045 0.80007 0.0
H1087 H 0.00276 0.34474 0.78166 0.0
C1088 C 0.92215 0.38662 0.75216 0.0
N1089 N 0.89794 0.39917 0.71364 0.0
C1090 C 0.92847 0.39477 0.7283 0.0
C1091 C 0.9035 0.38486 0.75636 0.0
C1092 C 0.91602 0.40102 0.70909 0.0
C1093 C 0.89148 0.3913 0.73667 0.0
C1094 C 0.98893 0.39145 0.73659 0.0
C1095 C 0.99549 0.40907 0.73315 0.0
C1096 C -0.0006 0.37682 0.72778 0.0
C1097 C 0.01264 0.41171 0.7218 0.0
C1098 C 0.0165 0.37999 0.71658 0.0
N1099 N 0.02274 0.39723 0.71389 0.0
C1100 C 0.96519 0.43311 0.7793 0.0
C1101 C 0.93368 0.42994 0.77139 0.0
C1102 C 0.96391 0.45187 0.77705 0.0
N1103 N 0.95035 0.42256 0.77545 0.0
C1104 C 0.93172 0.4487 0.76928 0.0
C1105 C 0.94703 0.45988 0.77168 0.0
H1106 H 0.97814 0.42686 0.7835 0.0
H1107 H 0.9219 0.42138 0.76958 0.0
C1108 C 0.93416 0.34446 0.72151 0.0
N1109 N 0.94813 0.35641 0.72021 0.0
C1110 C 0.92818 0.3357 0.69811 0.0
C1111 C 0.95063 0.35227 0.67231 0.0
C1112 C 0.95637 0.36049 0.69631 0.0
C1113 C 0.93642 0.33962 0.67307 0.0
H1114 H 0.92757 0.34186 0.74074 0.0
H1115 H 0.9671 0.37044 0.69578 0.0
O1116 O 0.96595 0.3893 0.81079 0.0
O1117 O 0.96533 0.35251 0.78186 0.0
O1118 O 0.93403 0.3801 0.77117 0.0
O1119 O 0.97221 0.38855 0.74796 0.0
H1120 H 0.98448 0.4032 0.85157 0.0
H1121 H 0.93113 0.39768 0.8171 0.0
H1122 H 0.97116 0.42121 0.88924 0.0
H1123 H 0.9188 0.41574 0.85527 0.0
H1124 H 0.97766 0.30532 0.72518 0.0
H1125 H 0.94017 0.32961 0.79962 0.0
H1126 H 0.98386 0.33611 0.74254 0.0
H1127 H 0.93475 0.29893 0.7813 0.0
H1128 H 0.94466 0.33916 0.88963 0.0
H1129 H 0.89615 0.33783 0.84036 0.0
H1130 H 0.03899 0.3961 0.81573 0.0
H1131 H 0.0339 0.33912 0.79682 0.0
H1132 H 0.9428 0.39633 0.72457 0.0
H1133 H 0.89834 0.37861 0.77468 0.0
H1134 H 0.92074 0.40734 0.69057 0.0
H1135 H 0.87702 0.39004 0.7397 0.0
H1136 H 0.98738 0.42063 0.73876 0.0
H1137 H 0.99444 0.36316 0.72977 0.0
H1138 H 0.01789 0.42528 0.71915 0.0
H1139 H 0.02481 0.36873 0.71 0.0
H1140 H 0.97612 0.45993 0.77864 0.0
H1141 H 0.91843 0.45441 0.76553 0.0
H1142 H 0.91714 0.32608 0.69956 0.0
H1143 H 0.95692 0.35616 0.6533 0.0
Li1144 Li 0.365 0.22863 0.53303 0.0
Li1145 Li 0.37119 0.19861 0.55133 0.0
Li1146 Li 0.37438 0.20488 0.50284 0.0
Li1147 Li 0.34497 0.20311 0.5242 0.0
C1148 C 0.40537 0.21466 0.5236 0.0
N1149 N 0.43985 0.21188 0.50207 0.0
C1150 C 0.41692 0.20071 0.53197 0.0
C1151 C 0.4114 0.22724 0.50438 0.0
C1152 C 0.4343 0.19954 0.52084 0.0
C1153 C 0.42886 0.22558 0.49369 0.0
C1154 C 0.34977 0.21347 0.5869 0.0
C1155 C 0.34318 0.19674 0.62781 0.0
N1156 N 0.35035 0.21045 0.64283 0.0
C1157 C 0.357 0.22743 0.60273 0.0
C1158 C 0.34272 0.19803 0.59951 0.0
C1159 C 0.35719 0.22563 0.63098 0.0
C1160 C 0.35176 0.26397 0.54551 0.0
N1161 N 0.36674 0.25357 0.5416 0.0
C1162 C 0.38596 0.27742 0.55683 0.0
C1163 C 0.38363 0.26 0.54667 0.0
C1164 C 0.37076 0.28836 0.56191 0.0
C1165 C 0.35348 0.28164 0.55539 0.0
H1166 H 0.33845 0.25834 0.54194 0.0
H1167 H 0.39526 0.2513 0.5441 0.0
C1168 C 0.38225 0.16845 0.58346 0.0
N1169 N 0.38254 0.18677 0.5808 0.0
C1170 C 0.39362 0.15998 0.60228 0.0
C1171 C 0.40471 0.18948 0.6158 0.0
C1172 C 0.39312 0.19736 0.59687 0.0
C1173 C 0.4054 0.17055 0.61809 0.0
H1174 H 0.374 0.16038 0.56996 0.0
H1175 H 0.39332 0.21187 0.59382 0.0
C1176 C 0.34763 0.23764 0.48866 0.0
N1177 N 0.33512 0.27096 0.4712 0.0
C1178 C 0.32926 0.24198 0.49099 0.0
C1179 C 0.35963 0.25022 0.47737 0.0
C1180 C 0.3232 0.25889 0.48203 0.0
C1181 C 0.35305 0.26701 0.46872 0.0
C1182 C 0.35283 0.16947 0.51246 0.0
C1183 C 0.35233 0.16462 0.48502 0.0
C1184 C 0.34203 0.16018 0.53116 0.0
C1185 C 0.34087 0.15062 0.47671 0.0
C1186 C 0.33072 0.14628 0.52203 0.0
N1187 N 0.33038 0.14183 0.49522 0.0
C1188 C 0.39924 0.18483 0.47217 0.0
C1189 C 0.38424 0.20811 0.44768 0.0
C1190 C 0.40855 0.17948 0.44889 0.0
N1191 N 0.38745 0.19895 0.47113 0.0
C1192 C 0.39312 0.20311 0.42383 0.0
C1193 C 0.40543 0.18863 0.42436 0.0
H1194 H 0.40113 0.17752 0.491 0.0
H1195 H 0.37451 0.21904 0.44737 0.0
C1196 C 0.308 0.19616 0.53678 0.0
N1197 N 0.32079 0.19661 0.51695 0.0
C1198 C 0.28985 0.19331 0.53 0.0
C1199 C 0.29864 0.19092 0.48276 0.0
C1200 C 0.31655 0.19384 0.49042 0.0
C1201 C 0.28502 0.19111 0.50261 0.0
H1202 H 0.31179 0.19864 0.55765 0.0
H1203 H 0.32705 0.19452 0.47513 0.0
O1204 O 0.38817 0.21585 0.53383 0.0
O1205 O 0.34976 0.21481 0.55919 0.0
O1206 O 0.35388 0.22121 0.49746 0.0
O1207 O 0.36372 0.18336 0.52093 0.0
H1208 H 0.41246 0.19074 0.5466 0.0
H1209 H 0.40262 0.23806 0.49757 0.0
H1210 H 0.44334 0.18877 0.52703 0.0
H1211 H 0.43366 0.23515 0.47868 0.0
H1212 H 0.33787 0.18482 0.63784 0.0
H1213 H 0.36256 0.23945 0.59333 0.0
H1214 H 0.33712 0.18709 0.58755 0.0
H1215 H 0.36281 0.23629 0.64348 0.0
H1216 H 0.3995 0.28191 0.56202 0.0
H1217 H 0.34143 0.28971 0.55868 0.0
H1218 H 0.39408 0.14532 0.60315 0.0
H1219 H 0.4137 0.19802 0.62758 0.0
H1220 H 0.31978 0.2325 0.49985 0.0
H1221 H 0.3739 0.24713 0.47555 0.0
H1222 H 0.30903 0.26246 0.48378 0.0
H1223 H 0.3622 0.2769 0.46007 0.0
H1224 H 0.36055 0.17171 0.47025 0.0
H1225 H 0.34221 0.16381 0.55244 0.0
H1226 H 0.34027 0.14678 0.45552 0.0
H1227 H 0.32219 0.13905 0.53625 0.0
H1228 H 0.41765 0.16799 0.44984 0.0
H1229 H 0.39032 0.21033 0.40515 0.0
H1230 H 0.27963 0.19364 0.54579 0.0
H1231 H 0.2954 0.18905 0.46148 0.0
Li1232 Li 0.51953 0.61795 0.2802 0.0
Li1233 Li 0.54859 0.6219 0.30255 0.0
Li1234 Li 0.54561 0.62425 0.25328 0.0
Li1235 Li 0.54323 0.59522 0.27592 0.0
C1236 C 0.53816 0.6564 0.27024 0.0
N1237 N 0.54675 0.68905 0.2459 0.0
C1238 C 0.55344 0.66612 0.27865 0.0
C1239 C 0.52728 0.6633 0.2494 0.0
C1240 C 0.55752 0.68261 0.26613 0.0
C1241 C 0.53186 0.67981 0.23734 0.0
C1242 C 0.52935 0.60276 0.33655 0.0
C1243 C 0.53984 0.59256 0.38034 0.0
N1244 N 0.52814 0.60423 0.39259 0.0
C1245 C 0.51739 0.61461 0.34954 0.0
C1246 C 0.54063 0.5916 0.35202 0.0
C1247 C 0.51699 0.61516 0.3779 0.0
C1248 C 0.48402 0.60725 0.29361 0.0
N1249 N 0.49449 0.62155 0.28606 0.0
C1250 C 0.47066 0.64229 0.29603 0.0
C1251 C 0.48808 0.63879 0.28652 0.0
C1252 C 0.4599 0.62793 0.30546 0.0
C1253 C 0.46648 0.61014 0.30331 0.0
H1254 H 0.48966 0.59372 0.2935 0.0
H1255 H 0.49685 0.64992 0.28115 0.0
C1256 C 0.57614 0.62749 0.34277 0.0
N1257 N 0.55953 0.63246 0.33349 0.0
C1258 C 0.58472 0.63773 0.36286 0.0
C1259 C 0.55862 0.65753 0.36399 0.0
C1260 C 0.55045 0.64675 0.34429 0.0
C1261 C 0.57624 0.65343 0.37283 0.0
H1262 H 0.58306 0.61607 0.33387 0.0
H1263 H 0.53726 0.65039 0.33643 0.0
C1264 C 0.51108 0.60019 0.23674 0.0
N1265 N 0.47712 0.59038 0.21819 0.0
C1266 C 0.50515 0.58228 0.23923 0.0
C1267 C 0.49978 0.61308 0.22466 0.0
C1268 C 0.48793 0.57759 0.22975 0.0
C1269 C 0.48265 0.60787 0.21547 0.0
C1270 C 0.57922 0.60062 0.2726 0.0
C1271 C 0.58986 0.60075 0.2491 0.0
C1272 C 0.58342 0.58867 0.2937 0.0
C1273 C 0.60452 0.58885 0.24708 0.0
C1274 C 0.59817 0.57696 0.29089 0.0
N1275 N 0.60833 0.57729 0.26784 0.0
C1276 C 0.57077 0.64472 0.22354 0.0
C1277 C 0.54515 0.63491 0.19841 0.0
C1278 C 0.57797 0.65314 0.20061 0.0
N1279 N 0.55466 0.63587 0.22198 0.0
C1280 C 0.55182 0.64317 0.175 0.0
C1281 C 0.56842 0.65241 0.17599 0.0
H1282 H 0.57807 0.64509 0.24259 0.0
H1283 H 0.53252 0.62755 0.19772 0.0
C1284 C 0.53979 0.55809 0.28812 0.0
N1285 N 0.54765 0.57032 0.27122 0.0
C1286 C 0.5412 0.5396 0.28262 0.0
C1287 C 0.55963 0.54675 0.24342 0.0
C1288 C 0.55737 0.56506 0.24916 0.0
C1289 C 0.55098 0.53375 0.25972 0.0
H1290 H 0.53181 0.56273 0.30518 0.0
H1291 H 0.56303 0.57512 0.23566 0.0
O1292 O 0.53416 0.64001 0.2818 0.0
O1293 O 0.53021 0.60227 0.30881 0.0
O1294 O 0.52778 0.60512 0.2463 0.0
O1295 O 0.56472 0.61208 0.27483 0.0
H1296 H 0.56224 0.66087 0.29433 0.0
H1297 H 0.5156 0.65584 0.24228 0.0
H1298 H 0.56933 0.69023 0.27237 0.0
H1299 H 0.52362 0.68524 0.22109 0.0
H1300 H 0.54853 0.58404 0.39259 0.0
H1301 H 0.50867 0.62347 0.3379 0.0
H1302 H 0.54992 0.58231 0.34228 0.0
H1303 H 0.50786 0.62432 0.38824 0.0
H1304 H 0.46615 0.65621 0.29777 0.0
H1305 H 0.45851 0.59874 0.31029 0.0
H1306 H 0.5981 0.63382 0.36969 0.0
H1307 H 0.55161 0.66954 0.371 0.0
H1308 H 0.51368 0.57211 0.24848 0.0
H1309 H 0.50407 0.62704 0.22277 0.0
H1310 H 0.48315 0.5638 0.23162 0.0
H1311 H 0.47372 0.61774 0.20627 0.0
H1312 H 0.58675 0.60982 0.23248 0.0
H1313 H 0.5752 0.58822 0.31185 0.0
H1314 H 0.61283 0.58876 0.22898 0.0
H1315 H 0.60151 0.56756 0.307 0.0
H1316 H 0.59086 0.66011 0.20204 0.0
H1317 H 0.54429 0.642 0.15619 0.0
H1318 H 0.5342 0.53005 0.29561 0.0
H1319 H 0.56778 0.54287 0.22608 0.0
Li1320 Li 0.11994 0.80021 0.04514 0.0
Li1321 Li 0.12556 0.7684 0.03108 0.0
Li1322 Li 0.14835 0.79242 0.02435 0.0
Li1323 Li 0.12121 0.79199 -0.0018 0.0
C1324 C 0.14794 0.79035 0.08049 0.0
N1325 N 0.16706 0.805 0.12343 0.0
C1326 C 0.15399 0.77922 0.10158 0.0
C1327 C 0.15162 0.80892 0.08119 0.0
C1328 C 0.16363 0.78689 0.12313 0.0
C1329 C 0.16131 0.81607 0.10308 0.0
C1330 C 0.08722 0.78592 0.01355 0.0
C1331 C 0.0648 0.7772 0.98036 0.0
N1332 N 0.05457 0.79178 0.98745 0.0
C1333 C 0.0764 0.80073 0.02066 0.0
C1334 C 0.08129 0.77396 0.9934 0.0
C1335 C 0.05997 0.80348 0.00719 0.0
C1336 C 0.10667 0.83245 0.06888 0.0
N1337 N 0.10834 0.81423 0.07183 0.0
C1338 C 0.09014 0.81461 0.11181 0.0
C1339 C 0.10065 0.80525 0.09295 0.0
C1340 C 0.08751 0.83333 0.10869 0.0
C1341 C 0.09628 0.84238 0.0873 0.0
H1342 H 0.11293 0.83915 0.05176 0.0
H1343 H 0.1022 0.79071 0.09456 0.0
C1344 C 0.13624 0.734 0.04975 0.0
N1345 N 0.12196 0.74407 0.04102 0.0
C1346 C 0.13343 0.71646 0.05953 0.0
C1347 C 0.10141 0.71993 0.05024 0.0
C1348 C 0.10482 0.73739 0.04083 0.0
C1349 C 0.11579 0.70933 0.06005 0.0
H1350 H 0.14969 0.73982 0.04983 0.0
H1351 H 0.09373 0.74585 0.03411 0.0
C1352 C 0.14072 0.82402 0.99645 0.0
N1353 N 0.15708 0.84529 0.95725 0.0
C1354 C 0.14994 0.81597 0.97476 0.0
C1355 C 0.13983 0.8429 -0.00184 0.0
C1356 C 0.15812 0.82695 0.95516 0.0
C1357 C 0.14819 0.85342 0.97816 0.0
C1358 C 0.14242 0.76119 0.97843 0.0
C1359 C 0.1578 0.76175 0.96188 0.0
C1360 C 0.12919 0.74799 0.97389 0.0
C1361 C 0.15959 0.74918 0.94083 0.0
C1362 C 0.13148 0.73565 0.95266 0.0
N1363 N 0.1465 0.7365 0.93669 0.0
C1364 C 0.18377 0.78106 0.02125 0.0
C1365 C 0.18111 0.81296 0.02589 0.0
C1366 C 0.20252 0.78242 0.01925 0.0
N1367 N 0.17353 0.7962 0.02416 0.0
C1368 C 0.19986 0.81497 0.02381 0.0
C1369 C 0.21072 0.79955 0.02036 0.0
H1370 H 0.17727 0.76795 0.01997 0.0
H1371 H 0.17261 0.82476 0.02848 0.0
C1372 C 0.10034 0.81342 0.9644 0.0
N1373 N 0.11096 0.79837 0.96391 0.0
C1374 C 0.09225 0.81975 0.94067 0.0
C1375 C 0.10675 0.79542 0.91601 0.0
C1376 C 0.11432 0.78936 0.94034 0.0
C1377 C 0.09558 0.81076 0.91616 0.0
H1378 H 0.09829 0.8206 0.98329 0.0
H1379 H 0.12302 0.77767 0.94012 0.0
O1380 O 0.13858 0.78298 0.05921 0.0
O1381 O 0.1035 0.78317 0.02623 0.0
O1382 O 0.13246 0.8136 0.01589 0.0
O1383 O 0.14057 0.77335 -0.00079 0.0
H1384 H 0.15127 0.76481 0.10128 0.0
H1385 H 0.1471 0.81774 0.06502 0.0
H1386 H 0.1684 0.77844 0.13961 0.0
H1387 H 0.16426 0.83041 0.10389 0.0
H1388 H 0.06014 0.76814 0.96457 0.0
H1389 H 0.08069 0.81012 0.03622 0.0
H1390 H 0.08942 0.76241 0.98765 0.0
H1391 H 0.05153 0.81496 0.01238 0.0
H1392 H 0.08347 0.80717 0.12793 0.0
H1393 H 0.09472 0.85685 0.08448 0.0
H1394 H 0.1448 0.7087 0.06717 0.0
H1395 H 0.08756 0.71509 0.05101 0.0
H1396 H 0.1508 0.80144 0.97298 0.0
H1397 H 0.13276 0.84937 0.01477 0.0
H1398 H 0.16528 0.82089 0.93828 0.0
H1399 H 0.1476 0.86804 0.97926 0.0
H1400 H 0.16822 0.77183 0.96519 0.0
H1401 H 0.11724 0.74731 0.9865 0.0
H1402 H 0.17139 0.7495 0.92781 0.0
H1403 H 0.12131 0.7254 0.94886 0.0
H1404 H 0.21049 0.77027 0.01611 0.0
H1405 H 0.2058 0.82837 0.02475 0.0
H1406 H 0.08385 0.83178 0.94132 0.0
H1407 H 0.1096 0.78825 0.89728 0.0
Li1408 Li 0.54157 0.89608 0.7813 0.0
Li1409 Li 0.51835 0.87285 0.7872 0.0
Li1410 Li 0.54983 0.86831 0.8056 0.0
Li1411 Li 0.54323 0.86653 0.7571 0.0
C1412 C 0.53078 0.89882 0.83678 0.0
N1413 N 0.52953 0.92336 0.87914 0.0
C1414 C 0.5143 0.90664 0.84443 0.0
C1415 C 0.54657 0.90326 0.85097 0.0
C1416 C 0.51396 0.91908 0.86582 0.0
C1417 C 0.54567 0.91575 0.87224 0.0
C1418 C 0.50862 0.89147 0.74298 0.0
C1419 C 0.48107 0.88507 0.71845 0.0
N1420 N 0.47555 0.90244 0.72244 0.0
C1421 C 0.50275 0.9093 0.74666 0.0
C1422 C 0.49778 0.87928 0.72857 0.0
C1423 C 0.48597 0.91458 0.73617 0.0
C1424 C 0.55802 0.92503 0.75604 0.0
N1425 N 0.5466 0.92097 0.77682 0.0
C1426 C 0.54198 0.95233 0.78622 0.0
C1427 C 0.53863 0.93415 0.79195 0.0
C1428 C 0.55354 0.95689 0.76463 0.0
C1429 C 0.56171 0.94303 0.74953 0.0
H1430 H 0.56396 0.91423 0.74415 0.0
H1431 H 0.52917 0.93064 0.80777 0.0
C1432 C 0.48941 0.85076 0.80123 0.0
N1433 N 0.49357 0.86818 0.79495 0.0
C1434 C 0.47204 0.84623 0.80986 0.0
C1435 C 0.46331 0.87763 0.80498 0.0
C1436 C 0.48094 0.88157 0.79646 0.0
C1437 C 0.45876 0.85977 0.81206 0.0
H1438 H 0.49978 0.84046 0.80067 0.0
H1439 H 0.48469 0.8954 0.79202 0.0
C1440 C 0.58054 0.88407 0.78095 0.0
N1441 N 0.61635 0.89214 0.79209 0.0
C1442 C 0.59444 0.87409 0.7688 0.0
C1443 C 0.58486 0.89836 0.7984 0.0
C1444 C 0.61245 0.87831 0.77481 0.0
C1445 C 0.60304 0.90219 0.80387 0.0
C1446 C 0.53409 0.8339 0.7753 0.0
C1447 C 0.54662 0.82102 0.78428 0.0
C1448 C 0.5219 0.82941 0.75465 0.0
C1449 C 0.54697 0.80395 0.77204 0.0
C1450 C 0.5227 0.8122 0.7429 0.0
N1451 N 0.53513 0.79994 0.75174 0.0
C1452 C 0.55658 0.85766 0.85957 0.0
C1453 C 0.57887 0.84869 0.82757 0.0
C1454 C 0.56515 0.8477 0.87997 0.0
N1455 N 0.56344 0.85777 0.83394 0.0
C1456 C 0.58778 0.83847 0.84725 0.0
C1457 C 0.58064 0.83751 0.87364 0.0
H1458 H 0.54407 0.86469 0.86392 0.0
H1459 H 0.58364 0.84848 0.80684 0.0
C1460 C 0.54359 0.86128 0.70056 0.0
N1461 N 0.5506 0.85532 0.72447 0.0
C1462 C 0.54941 0.85373 0.6761 0.0
C1463 C 0.56931 0.8339 0.70144 0.0
C1464 C 0.5633 0.842 0.72537 0.0
C1465 C 0.56239 0.83986 0.67648 0.0
H1466 H 0.5337 0.87209 0.70048 0.0
H1467 H 0.56894 0.83786 0.74465 0.0
O1468 O 0.53131 0.88658 0.81591 0.0
O1469 O 0.525 0.88604 0.75314 0.0
O1470 O 0.56283 0.88012 0.77518 0.0
O1471 O 0.5337 0.85079 0.78676 0.0
H1472 H 0.50192 0.90325 0.83388 0.0
H1473 H 0.55934 0.89698 0.84588 0.0
H1474 H 0.50132 0.92533 0.87182 0.0
H1475 H 0.5578 0.91934 0.88335 0.0
H1476 H 0.4725 0.87575 0.70738 0.0
H1477 H 0.51098 0.91894 0.75764 0.0
H1478 H 0.50221 0.8655 0.72523 0.0
H1479 H 0.48121 0.92831 0.739 0.0
H1480 H 0.53504 0.9627 0.7978 0.0
H1481 H 0.57059 0.9461 0.73261 0.0
H1482 H 0.46934 0.83242 0.81611 0.0
H1483 H 0.4535 0.88847 0.8068 0.0
H1484 H 0.59135 0.86311 0.755 0.0
H1485 H 0.57434 0.90656 0.80739 0.0
H1486 H 0.62334 0.8706 0.7657 0.0
H1487 H 0.60657 0.91319 0.81738 0.0
H1488 H 0.55601 0.82418 0.80043 0.0
H1489 H 0.512 0.83914 0.74769 0.0
H1490 H 0.55667 0.79389 0.77867 0.0
H1491 H 0.51343 0.8086 0.72675 0.0
H1492 H 0.55934 0.84742 0.90017 0.0
H1493 H 0.59953 0.83056 0.84146 0.0
H1494 H 0.54391 0.8587 0.65709 0.0
H1495 H 0.5796 0.82344 0.70234 0.0
Li1496 Li 0.372 0.26841 0.0353 0.0
Li1497 Li 0.34798 0.29018 0.02658 0.0
Li1498 Li 0.37726 0.29319 0.00493 0.0
Li1499 Li 0.37323 0.29923 0.0533 0.0
C1500 C 0.35619 0.2565 0.99093 0.0
N1501 N 0.34944 0.22158 0.97346 0.0
C1502 C 0.33866 0.24937 0.99236 0.0
C1503 C 0.37026 0.24589 0.98053 0.0
C1504 C 0.33553 0.23168 0.98341 0.0
C1505 C 0.36658 0.22825 0.97186 0.0
C1506 C 0.35459 0.28076 0.08933 0.0
C1507 C 0.34629 0.29644 0.13049 0.0
N1508 N 0.35431 0.28313 0.14536 0.0
C1509 C 0.36268 0.2672 0.10503 0.0
C1510 C 0.34624 0.29545 0.10215 0.0
C1511 C 0.36241 0.26866 0.13332 0.0
C1512 C 0.39542 0.24067 0.05042 0.0
N1513 N 0.37784 0.24413 0.04418 0.0
C1514 C 0.36921 0.21415 0.05714 0.0
C1515 C 0.36477 0.23129 0.04712 0.0
C1516 C 0.38715 0.21048 0.06495 0.0
C1517 C 0.40039 0.22388 0.06088 0.0
H1518 H 0.40545 0.25125 0.04853 0.0
H1519 H 0.35081 0.23456 0.04264 0.0
C1520 C 0.3171 0.29489 0.99479 0.0
N1521 N 0.32296 0.29327 0.02083 0.0
C1522 C 0.29878 0.29765 0.98939 0.0
C1523 C 0.2929 0.29684 0.03774 0.0
C1524 C 0.31135 0.2941 0.04221 0.0
C1525 C 0.28648 0.29873 0.01106 0.0
H1526 H 0.3267 0.29399 0.97824 0.0
H1527 H 0.31641 0.29264 0.06267 0.0
C1528 C 0.40942 0.28915 0.02571 0.0
N1529 N 0.44274 0.29817 0.00399 0.0
C1530 C 0.41799 0.30524 0.03342 0.0
C1531 C 0.41783 0.2776 0.00708 0.0
C1532 C 0.43484 0.30955 0.0222 0.0
C1533 C 0.43466 0.28242 0.99628 0.0
C1534 C 0.35013 0.32451 0.01411 0.0
C1535 C 0.34807 0.32811 0.9864 0.0
C1536 C 0.33856 0.33276 0.03286 0.0
C1537 C 0.33432 0.33982 0.97789 0.0
C1538 C 0.32495 0.34436 0.02354 0.0
N1539 N 0.32312 0.34761 0.99647 0.0
C1540 C 0.38928 0.29112 0.95037 0.0
C1541 C 0.39691 0.31805 0.97405 0.0
C1542 C 0.39708 0.29785 0.9266 0.0
N1543 N 0.38925 0.30132 0.97333 0.0
C1544 C 0.40486 0.3253 0.95079 0.0
C1545 C 0.4047 0.31527 0.92659 0.0
H1546 H 0.38286 0.27797 0.95032 0.0
H1547 H 0.39651 0.32588 0.99261 0.0
C1548 C 0.39274 0.30443 0.10083 0.0
N1549 N 0.38222 0.31322 0.08242 0.0
C1550 C 0.4018 0.31413 0.12091 0.0
C1551 C 0.38888 0.34177 0.10287 0.0
C1552 C 0.37991 0.33148 0.08323 0.0
C1553 C 0.40027 0.33306 0.12161 0.0
H1554 H 0.39469 0.28995 0.09916 0.0
H1555 H 0.37175 0.33812 0.06795 0.0
O1556 O 0.35956 0.27376 -0.00033 0.0
O1557 O 0.35488 0.27968 0.06158 0.0
O1558 O 0.39275 0.28485 0.036 0.0
O1559 O 0.3632 0.31271 0.02279 0.0
H1560 H 0.32762 0.25733 0.00049 0.0
H1561 H 0.38393 0.25114 0.97949 0.0
H1562 H 0.32205 0.22597 0.98448 0.0
H1563 H 0.37737 0.21986 0.96392 0.0
H1564 H 0.34001 0.30781 0.14066 0.0
H1565 H 0.3692 0.25572 0.09553 0.0
H1566 H 0.34005 0.30615 0.09033 0.0
H1567 H 0.36868 0.2583 0.14571 0.0
H1568 H 0.35863 0.2041 0.05951 0.0
H1569 H 0.41433 0.22174 0.06701 0.0
H1570 H 0.29425 0.29861 0.96851 0.0
H1571 H 0.28376 0.29754 0.05492 0.0
H1572 H 0.41165 0.3144 0.04768 0.0
H1573 H 0.41134 0.26514 0.00082 0.0
H1574 H 0.4416 0.32199 0.02789 0.0
H1575 H 0.44128 0.27367 0.98172 0.0
H1576 H 0.35681 0.32173 0.97157 0.0
H1577 H 0.3399 0.33004 0.05436 0.0
H1578 H 0.33249 0.34264 0.9565 0.0
H1579 H 0.3158 0.35072 0.0378 0.0
H1580 H 0.39663 0.28979 0.90822 0.0
H1581 H 0.41083 0.3387 0.95159 0.0
H1582 H 0.41072 0.30702 0.13476 0.0
H1583 H 0.38748 0.35638 0.10284 0.0
Li1584 Li 0.94479 0.09413 0.2817 0.0
Li1585 Li 0.9642 0.11854 0.29327 0.0
Li1586 Li 0.9338 0.11937 0.3094 0.0
Li1587 Li 0.94059 0.1238 0.26194 0.0
C1588 C 0.96696 0.09546 0.33334 0.0
N1589 N -0.00259 0.08519 0.36214 0.0
C1590 C 0.98018 0.08464 0.32108 0.0
C1591 C 0.96915 0.10092 0.36033 0.0
C1592 C 0.9955 0.07961 0.33597 0.0
C1593 C 0.98466 0.09562 0.37452 0.0
C1594 C 0.97322 0.11444 0.23863 0.0
C1595 C 0.98999 0.13988 0.22088 0.0
N1596 N 0.99671 0.12912 0.20085 0.0
C1597 C 0.98028 0.10364 0.21787 0.0
C1598 C 0.97809 0.13272 0.24016 0.0
C1599 C 0.99215 0.11131 0.19897 0.0
C1600 C 0.93745 0.06432 0.24909 0.0
N1601 N 0.94255 0.06928 0.27455 0.0
C1602 C 0.94526 0.03841 0.28818 0.0
C1603 C 0.94608 0.05683 0.2942 0.0
C1604 C 0.94035 0.03294 0.26194 0.0
C1605 C 0.93615 0.04603 0.24231 0.0
H1606 H 0.93463 0.07463 0.23404 0.0
H1607 H 0.94972 0.06121 0.31442 0.0
C1608 C 0.98882 0.13655 0.3255 0.0
N1609 N 0.98801 0.12501 0.30406 0.0
C1610 C 0.00549 0.1413 0.3366 0.0
C1611 C 0.02029 0.12262 0.30284 0.0
C1612 C 0.00325 0.118 0.29257 0.0
C1613 C 0.02143 0.13428 0.32525 0.0
H1614 H 0.97643 0.14173 0.3343 0.0
H1615 H 0.00218 0.10856 0.27588 0.0
C1616 C 0.90741 0.0972 0.28481 0.0
N1617 N 0.8786 0.07536 0.29941 0.0
C1618 C 0.89195 0.09642 0.26847 0.0
C1619 C 0.90824 0.08683 0.30856 0.0
C1620 C 0.87751 0.08532 0.27621 0.0
C1621 C 0.89353 0.07588 0.31559 0.0
C1622 C 0.93735 0.15479 0.29352 0.0
C1623 C 0.91911 0.15426 0.28583 0.0
C1624 C 0.94491 0.17107 0.30253 0.0
C1625 C 0.90875 0.17007 0.28725 0.0
C1626 C 0.9341 0.18659 0.30364 0.0
N1627 N 0.91639 0.18577 0.29606 0.0
C1628 C 0.92848 0.13634 0.3583 0.0
C1629 C 0.90072 0.12887 0.33679 0.0
C1630 C 0.91941 0.1466 0.37774 0.0
N1631 N 0.91911 0.12798 0.33817 0.0
C1632 C 0.89106 0.13899 0.35589 0.0
C1633 C 0.90049 0.14835 0.37631 0.0
H1634 H 0.94313 0.1361 0.35808 0.0
H1635 H 0.89359 0.12276 0.31996 0.0
C1636 C 0.92409 0.12525 0.21145 0.0
N1637 N 0.93356 0.13549 0.22945 0.0
C1638 C 0.9184 0.13269 0.18686 0.0
C1639 C 0.9323 0.16109 0.19985 0.0
C1640 C 0.93791 0.15304 0.22408 0.0
C1641 C 0.9224 0.15084 0.18102 0.0
H1642 H 0.921 0.11129 0.21627 0.0
H1643 H 0.94576 0.16078 0.23852 0.0
O1644 O 0.95214 0.10095 0.3188 0.0
O1645 O 0.9615 0.10704 0.25711 0.0
O1646 O 0.92169 0.10787 0.27719 0.0
O1647 O 0.94778 0.13946 0.29294 0.0
H1648 H 0.97879 0.08046 0.30011 0.0
H1649 H 0.95901 0.10917 0.37021 0.0
H1650 H 0.00591 0.07138 0.32666 0.0
H1651 H 0.98658 0.09982 0.39537 0.0
H1652 H 0.99388 0.154 0.22184 0.0
H1653 H 0.9766 0.08947 0.21638 0.0
H1654 H 0.97281 0.14132 0.25607 0.0
H1655 H -0.00228 0.1031 0.18279 0.0
H1656 H 0.94849 0.02854 0.30373 0.0
H1657 H 0.93241 0.04214 0.22185 0.0
H1658 H 0.00595 0.15038 0.35387 0.0
H1659 H 0.03238 0.11686 0.29383 0.0
H1660 H 0.89113 0.10433 0.24997 0.0
H1661 H 0.92007 0.08722 0.32148 0.0
H1662 H 0.86546 0.0846 0.26376 0.0
H1663 H 0.89398 0.0678 0.33391 0.0
H1664 H 0.91297 0.14181 0.27889 0.0
H1665 H 0.95898 0.17168 0.30868 0.0
H1666 H 0.89463 0.16984 0.2814 0.0
H1667 H 0.93977 0.19929 0.31059 0.0
H1668 H 0.92725 0.15413 0.39251 0.0
H1669 H 0.8765 0.14025 0.35391 0.0
H1670 H 0.91079 0.12443 0.17269 0.0
H1671 H 0.93583 0.17507 0.19571 0.0
Li1672 Li 0.1265 0.72264 0.53744 0.0
Li1673 Li 0.14881 0.7014 0.52549 0.0
Li1674 Li 0.11885 0.70129 0.50165 0.0
Li1675 Li 0.12316 0.69119 0.54969 0.0
C1676 C 0.13848 0.73726 0.4909 0.0
N1677 N 0.13938 0.77199 0.46988 0.0
C1678 C 0.14955 0.75045 0.50275 0.0
C1679 C 0.12793 0.74173 0.46828 0.0
C1680 C 0.14978 0.76793 0.49186 0.0
C1681 C 0.12857 0.75936 0.45797 0.0
C1682 C 0.15851 0.70941 0.57376 0.0
C1683 C 0.18526 0.69485 0.59159 0.0
N1684 N 0.1934 0.71129 0.59402 0.0
C1685 C 0.16715 0.72618 0.57646 0.0
C1686 C 0.16762 0.69362 0.58145 0.0
C1687 C 0.18478 0.72684 0.58676 0.0
C1688 C 0.12315 0.7494 0.57717 0.0
N1689 N 0.12042 0.74629 0.55028 0.0
C1690 C 0.10452 0.77434 0.54564 0.0
C1691 C 0.11136 0.75839 0.53442 0.0
C1692 C 0.10667 0.77753 0.57349 0.0
C1693 C 0.11641 0.76507 0.58925 0.0
H1694 H 0.12972 0.73926 0.58957 0.0
H1695 H 0.10854 0.75524 0.51343 0.0
C1696 C 0.17997 0.6805 0.5137 0.0
N1697 N 0.17374 0.69754 0.51845 0.0
C1698 C 0.19819 0.67767 0.50738 0.0
C1699 C 0.20314 0.70998 0.51097 0.0
C1700 C 0.18487 0.71216 0.51711 0.0
C1701 C 0.20996 0.69257 0.50592 0.0
H1702 H 0.17075 0.66915 0.51434 0.0
H1703 H 0.17955 0.72554 0.52072 0.0
C1704 C 0.09126 0.71714 0.54597 0.0
N1705 N 0.06555 0.73853 0.5712 0.0
C1706 C 0.08998 0.7174 0.57431 0.0
C1707 C 0.07942 0.7277 0.53046 0.0
C1708 C 0.0769 0.72832 0.58668 0.0
C1709 C 0.06652 0.73843 0.54361 0.0
C1710 C 0.12871 0.66265 0.51996 0.0
C1711 C 0.11379 0.65524 0.50643 0.0
C1712 C 0.13851 0.65196 0.53824 0.0
C1713 C 0.10884 0.6373 0.5116 0.0
C1714 C 0.13311 0.63409 0.54289 0.0
N1715 N 0.1185 0.62719 0.52959 0.0
C1716 C 0.11702 0.6931 0.44671 0.0
C1717 C 0.08833 0.69546 0.46822 0.0
C1718 C 0.10885 0.68789 0.42242 0.0
N1719 N 0.1067 0.6966 0.46893 0.0
C1720 C 0.07958 0.69032 0.44431 0.0
C1721 C 0.08993 0.68615 0.4212 0.0
H1722 H 0.13162 0.69396 0.44812 0.0
H1723 H 0.08054 0.69802 0.4864 0.0
C1724 C 0.12081 0.67108 0.59953 0.0
N1725 N 0.11283 0.67514 0.5754 0.0
C1726 C 0.11157 0.66058 0.61869 0.0
C1727 C 0.08633 0.65854 0.5875 0.0
C1728 C 0.09607 0.66892 0.56896 0.0
C1729 C 0.09391 0.65456 0.61298 0.0
H1730 H 0.13407 0.67639 0.60425 0.0
H1731 H 0.09002 0.67256 0.5497 0.0
O1732 O 0.13814 0.72001 0.50106 0.0
O1733 O 0.14136 0.70844 0.56327 0.0
O1734 O 0.10437 0.707 0.53353 0.0
O1735 O 0.13351 0.68034 0.51567 0.0
H1736 H 0.15755 0.74738 0.52054 0.0
H1737 H 0.11928 0.73174 0.45882 0.0
H1738 H 0.15817 0.7783 0.50098 0.0
H1739 H 0.12044 0.76301 0.44052 0.0
H1740 H 0.1925 0.68271 0.59742 0.0
H1741 H 0.16045 0.73854 0.5703 0.0
H1742 H 0.16127 0.68051 0.57921 0.0
H1743 H 0.19165 0.73972 0.58882 0.0
H1744 H 0.09676 0.78356 0.53307 0.0
H1745 H 0.11818 0.76713 0.61088 0.0
H1746 H 0.20292 0.66408 0.50306 0.0
H1747 H 0.21184 0.72178 0.51012 0.0
H1748 H 0.09919 0.70951 0.58665 0.0
H1749 H 0.0804 0.72787 0.50853 0.0
H1750 H 0.07585 0.72876 0.60858 0.0
H1751 H 0.05736 0.74677 0.53187 0.0
H1752 H 0.106 0.66326 0.49227 0.0
H1753 H 0.15002 0.65747 0.54901 0.0
H1754 H 0.09727 0.63142 0.50137 0.0
H1755 H 0.1405 0.62572 0.55713 0.0
H1756 H 0.11727 0.68465 0.40505 0.0
H1757 H 0.06494 0.68933 0.444 0.0
H1758 H 0.11798 0.65758 0.63797 0.0
H1759 H 0.07267 0.65438 0.5824 0.0
Li1760 Li 0.55222 0.1209 0.69512 0.0
Li1761 Li 0.54213 0.12228 0.74352 0.0
Li1762 Li 0.54299 0.09349 0.71614 0.0
Li1763 Li 0.52098 0.11587 0.70665 0.0
C1764 C 0.58108 0.11406 0.72245 0.0
N1765 N 0.61617 0.12459 0.71071 0.0
C1766 C 0.58777 0.13054 0.73222 0.0
C1767 C 0.59226 0.10294 0.70671 0.0
C1768 C 0.60555 0.13562 0.72608 0.0
C1769 C 0.60995 0.10851 0.701 0.0
C1770 C 0.52584 0.15151 0.70062 0.0
C1771 C 0.50496 0.17663 0.70237 0.0
N1772 N 0.50489 0.17733 0.67476 0.0
C1773 C 0.52561 0.15252 0.67225 0.0
C1774 C 0.51547 0.16369 0.71582 0.0
C1775 C 0.51492 0.16566 0.65957 0.0
C1776 C 0.57415 0.12523 0.64718 0.0
N1777 N 0.56808 0.13287 0.6706 0.0
C1778 C 0.5828 0.16074 0.65998 0.0
C1779 C 0.57232 0.1502 0.67734 0.0
C1780 C 0.58897 0.1534 0.63537 0.0
C1781 C 0.58481 0.13529 0.6292 0.0
H1782 H 0.57044 0.1115 0.64214 0.0
H1783 H 0.56718 0.15596 0.696 0.0
C1784 C 0.56157 0.12678 0.79131 0.0
N1785 N 0.54638 0.13237 0.7782 0.0
C1786 C 0.56623 0.13423 0.81632 0.0
C1787 C 0.53888 0.15225 0.8148 0.0
C1788 C 0.5349 0.14464 0.78949 0.0
C1789 C 0.55493 0.1473 0.82828 0.0
H1790 H 0.57025 0.11671 0.7821 0.0
H1791 H 0.52265 0.14845 0.77893 0.0
C1792 C 0.53591 0.08656 0.66578 0.0
N1793 N 0.5364 0.05375 0.63865 0.0
C1794 C 0.51966 0.07813 0.65837 0.0
C1795 C 0.55239 0.07827 0.65932 0.0
C1796 C 0.5202 0.06157 0.64466 0.0
C1797 C 0.55236 0.06169 0.64565 0.0
C1798 C 0.50679 0.0991 0.74999 0.0
C1799 C 0.49522 0.08834 0.73436 0.0
C1800 C 0.50064 0.1063 0.77457 0.0
C1801 C 0.47757 0.08512 0.74345 0.0
C1802 C 0.48291 0.10275 0.78299 0.0
N1803 N 0.47184 0.09233 0.76737 0.0
C1804 C 0.56372 0.0632 0.7317 0.0
C1805 C 0.53414 0.05624 0.71601 0.0
C1806 C 0.56694 0.045 0.73767 0.0
N1807 N 0.54753 0.06842 0.72107 0.0
C1808 C 0.53681 0.03794 0.72149 0.0
C1809 C 0.55327 0.03221 0.73279 0.0
H1810 H 0.57395 0.07321 0.73624 0.0
H1811 H 0.52126 0.06074 0.70825 0.0
C1812 C 0.49441 0.12081 0.66722 0.0
N1813 N 0.49715 0.12179 0.69447 0.0
C1814 C 0.47852 0.12751 0.65581 0.0
C1815 C 0.46825 0.13584 0.70076 0.0
C1816 C 0.48449 0.12912 0.71132 0.0
C1817 C 0.46535 0.13532 0.67263 0.0
H1818 H 0.50502 0.11576 0.65414 0.0
H1819 H 0.48734 0.13056 0.73274 0.0
O1820 O 0.56353 0.10909 0.72763 0.0
O1821 O 0.53571 0.1383 0.71338 0.0
O1822 O 0.53569 0.10275 0.67935 0.0
O1823 O 0.52411 0.10246 0.74149 0.0
H1824 H 0.57923 0.13952 0.74392 0.0
H1825 H 0.58734 0.09019 0.69884 0.0
H1826 H 0.61085 0.14839 0.73336 0.0
H1827 H 0.61872 0.10005 0.68878 0.0
H1828 H 0.4968 0.18607 0.71389 0.0
H1829 H 0.53326 0.14301 0.66011 0.0
H1830 H 0.5154 0.16306 0.73775 0.0
H1831 H 0.51449 0.16649 0.63764 0.0
H1832 H 0.58551 0.17471 0.66534 0.0
H1833 H 0.58951 0.12909 0.61055 0.0
H1834 H 0.57873 0.13002 0.82597 0.0
H1835 H 0.5295 0.16183 0.8237 0.0
H1836 H 0.50675 0.08411 0.66353 0.0
H1837 H 0.56507 0.08441 0.6652 0.0
H1838 H 0.50773 0.05488 0.63894 0.0
H1839 H 0.56502 0.05509 0.6407 0.0
H1840 H 0.49964 0.0829 0.7151 0.0
H1841 H 0.50947 0.11453 0.78703 0.0
H1842 H 0.46842 0.07696 0.73142 0.0
H1843 H 0.47796 0.10827 0.80194 0.0
H1844 H 0.57982 0.041 0.74633 0.0
H1845 H 0.52589 0.02844 0.7178 0.0
H1846 H 0.47678 0.12716 0.63396 0.0
H1847 H 0.45852 0.1422 0.71418 0.0
Li1848 Li 0.12605 0.27359 0.95689 0.0
Li1849 Li 0.14867 0.29641 0.96713 0.0
Li1850 Li 0.11897 0.29749 0.98803 0.0
Li1851 Li 0.12337 0.30452 0.93998 0.0
C1852 C 0.14165 0.26166 0.00057 0.0
N1853 N 0.14954 0.22634 0.01487 0.0
C1854 C 0.15897 0.25465 0.99604 0.0
C1855 C 0.12835 0.25075 0.01246 0.0
C1856 C 0.1627 0.23675 0.00342 0.0
C1857 C 0.1326 0.23291 0.01949 0.0
C1858 C 0.14357 0.28797 0.90394 0.0
C1859 C 0.15228 0.30484 0.86404 0.0
N1860 N 0.14451 0.29194 0.84813 0.0
C1861 C 0.13571 0.27485 0.88719 0.0
C1862 C 0.15199 0.30306 0.89229 0.0
C1863 C 0.13632 0.27711 0.85902 0.0
C1864 C 0.10489 0.24254 0.94872 0.0
N1865 N 0.12213 0.24893 0.94812 0.0
C1866 C 0.13307 0.22064 0.93119 0.0
C1867 C 0.1362 0.23838 0.93988 0.0
C1868 C 0.11532 0.21382 0.93113 0.0
C1869 C 0.10116 0.22493 0.94035 0.0
H1870 H 0.09393 0.25133 0.95477 0.0
H1871 H 0.14975 0.24396 0.93925 0.0
C1872 C 0.17847 0.30088 0.00089 0.0
N1873 N 0.17343 0.30003 0.97439 0.0
C1874 C 0.1967 0.30244 0.00777 0.0
C1875 C 0.20416 0.30243 0.95989 0.0
C1876 C 0.18575 0.30083 0.95393 0.0
C1877 C 0.20977 0.3031 0.98711 0.0
H1878 H 0.1683 0.29998 0.01667 0.0
H1879 H 0.18134 0.2998 0.93308 0.0
C1880 C 0.08711 0.29179 0.96539 0.0
N1881 N 0.05247 0.29806 0.98457 0.0
C1882 C 0.07683 0.30611 0.95496 0.0
C1883 C 0.07972 0.28063 0.98551 0.0
C1884 C 0.05935 0.30905 0.96493 0.0
C1885 C 0.06221 0.28405 0.99498 0.0
C1886 C 0.14466 0.33012 0.98126 0.0
C1887 C 0.14568 0.33349 0.00915 0.0
C1888 C 0.15657 0.33892 0.96356 0.0
C1889 C 0.15876 0.34553 0.01892 0.0
C1890 C 0.16948 0.35083 0.97413 0.0
N1891 N 0.1703 0.35386 0.00136 0.0
C1892 C 0.11008 0.29515 0.04347 0.0
C1893 C 0.09453 0.31811 0.01913 0.0
C1894 C 0.10149 0.30023 0.06752 0.0
N1895 N 0.1064 0.30406 0.01997 0.0
C1896 C 0.08539 0.32343 0.04258 0.0
C1897 C 0.08886 0.31447 0.06722 0.0
H1898 H 0.11999 0.28438 0.04367 0.0
H1899 H 0.09226 0.32525 0.00026 0.0
C1900 C 0.10453 0.30989 0.89174 0.0
N1901 N 0.11444 0.31866 0.91091 0.0
C1902 C 0.09584 0.31963 0.87135 0.0
C1903 C 0.10783 0.3473 0.89064 0.0
C1904 C 0.11644 0.33696 0.9106 0.0
C1905 C 0.0972 0.3386 0.87091 0.0
H1906 H 0.10275 0.29537 0.89304 0.0
H1907 H 0.12412 0.34358 0.92645 0.0
O1908 O 0.13761 0.27902 0.99295 0.0
O1909 O 0.14288 0.28614 0.93158 0.0
O1910 O 0.10432 0.28877 0.95607 0.0
O1911 O 0.13224 0.31806 0.97137 0.0
H1912 H 0.16938 0.26284 0.98663 0.0
H1913 H 0.11483 0.25593 0.01593 0.0
H1914 H 0.17603 0.23111 -7e-05 0.0
H1915 H 0.12242 0.22427 0.02856 0.0
H1916 H 0.15864 0.31652 0.85477 0.0
H1917 H 0.12901 0.26315 0.8958 0.0
H1918 H 0.15798 0.31343 0.90494 0.0
H1919 H 0.13022 0.26711 0.84582 0.0
H1920 H 0.14429 0.21252 0.92392 0.0
H1921 H 0.08721 0.22037 0.93979 0.0
H1922 H 0.20058 0.30287 0.02899 0.0
H1923 H 0.21392 0.3025 0.94346 0.0
H1924 H 0.08231 0.31496 0.93953 0.0
H1925 H 0.08754 0.26963 0.99407 0.0
H1926 H 0.05127 0.32011 0.9571 0.0
H1927 H 0.05639 0.2756 0.01068 0.0
H1928 H 0.13661 0.32676 0.02315 0.0
H1929 H 0.15601 0.33639 0.94193 0.0
H1930 H 0.15977 0.3482 0.04047 0.0
H1931 H 0.17888 0.35763 0.96069 0.0
H1932 H 0.10508 0.2934 0.08623 0.0
H1933 H 0.07582 0.33454 0.0415 0.0
H1934 H 0.0873 0.31248 0.85703 0.0
H1935 H 0.10895 0.36193 0.8911 0.0
Li1936 Li 0.94256 0.86793 0.20116 0.0
Li1937 Li 0.95181 0.86599 0.24847 0.0
Li1938 Li 0.9521 0.89508 0.22452 0.0
Li1939 Li 0.97398 0.87206 0.21512 0.0
C1940 C 0.91505 0.88738 0.22482 0.0
N1941 N 0.88303 0.90358 0.20883 0.0
C1942 C 0.89933 0.88505 0.24025 0.0
C1943 C 0.91449 0.89791 0.20122 0.0
C1944 C 0.88327 0.89336 0.23184 0.0
C1945 C 0.89817 0.906 0.1935 0.0
C1946 C 0.96124 0.8329 0.22818 0.0
C1947 C 0.97388 0.81249 0.26149 0.0
N1948 N 0.96546 0.79836 0.24905 0.0
C1949 C 0.95293 0.81812 0.21552 0.0
C1950 C 0.97201 0.83 0.25113 0.0
C1951 C 0.95515 0.80079 0.22645 0.0
C1952 C 0.92357 0.86542 0.15032 0.0
N1953 N 0.92595 0.85835 0.17559 0.0
C1954 C 0.90585 0.83396 0.1657 0.0
C1955 C 0.91677 0.84342 0.18388 0.0
C1956 C 0.90393 0.84029 0.13892 0.0
C1957 C 0.91257 0.85651 0.1315 0.0
H1958 H 0.93055 0.87769 0.1445 0.0
H1959 H 0.91855 0.83845 0.20437 0.0
C1960 C 0.9546 0.85998 0.30482 0.0
N1961 N 0.9459 0.85485 0.28176 0.0
C1962 C 0.9496 0.85256 0.32977 0.0
C1963 C 0.92696 0.83456 0.30661 0.0
C1964 C 0.93239 0.84234 0.28211 0.0
C1965 C 0.93542 0.8399 0.33085 0.0
H1966 H 0.96521 0.87006 0.30386 0.0
H1967 H 0.92568 0.83865 0.26337 0.0
C1968 C 0.96564 0.88316 0.16245 0.0
N1969 N 0.97792 0.87583 0.11054 0.0
C1970 C 0.96924 0.86531 0.15455 0.0
C1971 C 0.96828 0.89726 0.1439 0.0
C1972 C 0.97545 0.86189 0.12824 0.0
C1973 C 0.97448 0.89328 0.11776 0.0
C1974 C 0.988 0.88998 0.25524 0.0
C1975 C 0.9948 0.90646 0.24566 0.0
C1976 C -0.00062 0.87832 0.26975 0.0
C1977 C 0.01292 0.9109 0.25041 0.0
C1978 C 0.01743 0.88324 0.27407 0.0
N1979 N 0.02378 0.89928 0.26437 0.0
C1980 C 0.93671 0.92582 0.24848 0.0
C1981 C 0.95618 0.93178 0.21112 0.0
C1982 C 0.93399 0.94431 0.25254 0.0
N1983 N 0.94776 0.92002 0.22819 0.0
C1984 C 0.95411 0.95039 0.21477 0.0
C1985 C 0.94299 0.95674 0.23578 0.0
H1986 H 0.93028 0.91607 0.26176 0.0
H1987 H 0.96493 0.92668 0.19525 0.0
C1988 C 0.00582 0.85155 0.20569 0.0
N1989 N -0.00177 0.86825 0.2035 0.0
C1990 C 0.02233 0.84788 0.1931 0.0
C1991 C 0.02328 0.87889 0.17727 0.0
C1992 C 0.00677 0.88198 0.19025 0.0
C1993 C 0.03092 0.86149 0.17795 0.0
H1994 H -0.00131 0.84083 0.21601 0.0
H1995 H 0.00033 0.89509 0.18866 0.0
O1996 O 0.93083 0.87924 0.23284 0.0
O1997 O 0.9591 0.85001 0.21782 0.0
O1998 O 0.96001 0.88702 0.18833 0.0
O1999 O 0.97037 0.88525 0.25026 0.0
H2000 H 0.89955 0.8769 0.25854 0.0
H2001 H 0.9265 0.89985 0.18898 0.0
H2002 H 0.871 0.89169 0.24359 0.0
H2003 H 0.89754 0.91419 0.17529 0.0
H2004 H 0.98204 0.81013 0.27939 0.0
H2005 H 0.94506 0.81993 0.19721 0.0
H2006 H 0.97877 0.8412 0.26093 0.0
H2007 H 0.94874 0.78926 0.21687 0.0
H2008 H 0.89981 0.82132 0.17221 0.0
H2009 H 0.91131 0.86191 0.11113 0.0
H2010 H 0.95658 0.85681 0.34804 0.0
H2011 H 0.91591 0.8249 0.30673 0.0
H2012 H 0.96734 0.85418 0.16849 0.0
H2013 H 0.96561 0.91115 0.14967 0.0
H2014 H 0.97832 0.84816 0.1219 0.0
H2015 H 0.9766 0.90407 0.10323 0.0
H2016 H 0.98625 0.91565 0.23439 0.0
H2017 H 0.99438 0.86562 0.27762 0.0
H2018 H 0.01837 0.92356 0.24293 0.0
H2019 H 0.02639 0.8743 0.28515 0.0
H2020 H 0.92549 0.94886 0.26914 0.0
H2021 H 0.96128 0.95972 0.20161 0.0
H2022 H 0.02777 0.83425 0.19384 0.0
H2023 H 0.02964 0.88974 0.16593 0.0
Li2024 Li 0.37424 0.69055 0.43945 0.0
Li2025 Li 0.37661 0.69819 0.48758 0.0
Li2026 Li 0.34775 0.69823 0.46419 0.0
Li2027 Li 0.37018 0.72156 0.45525 0.0
C2028 C 0.35211 0.66485 0.47976 0.0
N2029 N 0.32631 0.64085 0.49875 0.0
C2030 C 0.35019 0.66188 0.50766 0.0
C2031 C 0.341 0.65552 0.46151 0.0
C2032 C 0.33706 0.6497 0.51686 0.0
C2033 C 0.328 0.64348 0.47152 0.0
C2034 C 0.4091 0.70434 0.46773 0.0
C2035 C 0.43263 0.71303 0.49915 0.0
N2036 N 0.4429 0.69886 0.49049 0.0
C2037 C 0.4199 0.68988 0.4591 0.0
C2038 C 0.41553 0.71606 0.48785 0.0
C2039 C 0.43695 0.68735 0.47085 0.0
C2040 C 0.39536 0.68534 0.39343 0.0
N2041 N 0.38453 0.67648 0.41136 0.0
C2042 C 0.39139 0.64803 0.39071 0.0
C2043 C 0.38219 0.65823 0.41024 0.0
C2044 C 0.40308 0.6568 0.37245 0.0
C2045 C 0.40471 0.67573 0.37357 0.0
H2046 H 0.39719 0.69983 0.3952 0.0
H2047 H 0.37366 0.65155 0.425 0.0
C2048 C 0.38334 0.70163 0.54356 0.0
N2049 N 0.38804 0.69236 0.52078 0.0
C2050 C 0.39095 0.697 0.56854 0.0
C2051 C 0.40824 0.67354 0.546 0.0
C2052 C 0.40005 0.6784 0.52155 0.0
C2053 C 0.40358 0.68285 0.56981 0.0
H2054 H 0.37342 0.71236 0.54242 0.0
H2055 H 0.40308 0.67093 0.50322 0.0
C2056 C 0.35515 0.70624 0.40133 0.0
N2057 N 0.35668 0.70178 0.34564 0.0
C2058 C 0.36343 0.71938 0.38508 0.0
C2059 C 0.34757 0.69086 0.38924 0.0
C2060 C 0.36406 0.71688 0.35697 0.0
C2061 C 0.34853 0.68883 0.36106 0.0
C2062 C 0.35257 0.73354 0.49721 0.0
C2063 C 0.33515 0.73992 0.49149 0.0
C2064 C 0.36517 0.74503 0.50955 0.0
C2065 C 0.33064 0.75775 0.49816 0.0
C2066 C 0.36015 0.76279 0.51585 0.0
N2067 N 0.34314 0.76873 0.51007 0.0
C2068 C 0.31697 0.69338 0.49565 0.0
C2069 C 0.31136 0.69181 0.44824 0.0
C2070 C 0.29864 0.69098 0.50124 0.0
N2071 N 0.32289 0.69383 0.46953 0.0
C2072 C 0.29289 0.68933 0.4529 0.0
C2073 C 0.28636 0.68901 0.47969 0.0
H2074 H 0.32651 0.69528 0.5121 0.0
H2075 H 0.31646 0.69243 0.4277 0.0
C2076 C 0.39107 0.75277 0.44662 0.0
N2077 N 0.3739 0.74617 0.44594 0.0
C2078 C 0.3947 0.77024 0.43742 0.0
C2079 C 0.3628 0.774 0.42757 0.0
C2080 C 0.35979 0.75641 0.437 0.0
C2081 C 0.38052 0.78092 0.42718 0.0
H2082 H 0.40206 0.74424 0.45334 0.0
H2083 H 0.34631 0.75068 0.43637 0.0
O2084 O 0.36456 0.67707 0.47039 0.0
O2085 O 0.39227 0.70692 0.45671 0.0
O2086 O 0.35461 0.70831 0.42894 0.0
O2087 O 0.35736 0.71623 0.49038 0.0
H2088 H 0.35861 0.66904 0.52209 0.0
H2089 H 0.3422 0.65777 0.43987 0.0
H2090 H 0.33536 0.64734 0.5384 0.0
H2091 H 0.31921 0.63628 0.45764 0.0
H2092 H 0.43771 0.72191 0.51489 0.0
H2093 H 0.41514 0.68059 0.4437 0.0
H2094 H 0.40729 0.7272 0.49499 0.0
H2095 H 0.44542 0.67618 0.46444 0.0
H2096 H 0.38978 0.63345 0.39034 0.0
H2097 H 0.41382 0.68292 0.36009 0.0
H2098 H 0.38697 0.7043 0.58667 0.0
H2099 H 0.41768 0.66231 0.54649 0.0
H2100 H 0.36948 0.7313 0.39405 0.0
H2101 H 0.34131 0.68044 0.40152 0.0
H2102 H 0.37049 0.72691 0.34416 0.0
H2103 H 0.34285 0.67694 0.35146 0.0
H2104 H 0.32527 0.73128 0.48172 0.0
H2105 H 0.37875 0.74035 0.51393 0.0
H2106 H 0.31723 0.7629 0.49376 0.0
H2107 H 0.3698 0.77186 0.52526 0.0
H2108 H 0.29406 0.69132 0.52214 0.0
H2109 H 0.28376 0.68795 0.43579 0.0
H2110 H 0.40857 0.77502 0.43707 0.0
H2111 H 0.35153 0.7819 0.41997 0.0
Li2112 Li 0.45775 0.12961 0.24857 0.0
Li2113 Li 0.45892 0.09993 0.22596 0.0
Li2114 Li 0.48199 0.12215 0.21908 0.0
Li2115 Li 0.45185 0.12695 0.20002 0.0
C2116 C 0.49262 0.10605 0.26302 0.0
N2117 N 0.52751 0.09857 0.28017 0.0
C2118 C 0.50096 0.08976 0.25576 0.0
C2119 C 0.50196 0.11843 0.27934 0.0
C2120 C 0.51862 0.08625 0.26454 0.0
C2121 C 0.5196 0.11443 0.28771 0.0
C2122 C 0.42216 0.109 0.22009 0.0
C2123 C 0.40662 0.09064 0.18694 0.0
N2124 N 0.39063 0.09416 0.19962 0.0
C2125 C 0.40558 0.11248 0.23275 0.0
C2126 C 0.42271 0.09803 0.19694 0.0
C2127 C 0.38978 0.10483 0.22211 0.0
C2128 C 0.43802 0.15573 0.27736 0.0
N2129 N 0.44984 0.14173 0.28006 0.0
C2130 C 0.44931 0.14443 0.32833 0.0
C2131 C 0.45552 0.13592 0.30482 0.0
C2132 C 0.43723 0.15907 0.32619 0.0
C2133 C 0.43159 0.16473 0.3003 0.0
H2134 H 0.43358 0.15984 0.25734 0.0
H2135 H 0.46462 0.12448 0.3063 0.0
C2136 C 0.46492 0.06312 0.21706 0.0
N2137 N 0.45384 0.07509 0.22977 0.0
C2138 C 0.46231 0.04457 0.22045 0.0
C2139 C 0.43629 0.05107 0.24871 0.0
C2140 C 0.43974 0.06951 0.24542 0.0
C2141 C 0.44774 0.03831 0.23628 0.0
H2142 H 0.47609 0.06803 0.20487 0.0
H2143 H 0.43124 0.07938 0.25546 0.0
C2144 C 0.46897 0.16219 0.2273 0.0
N2145 N 0.47138 0.19767 0.24503 0.0
C2146 C 0.46152 0.17623 0.21183 0.0
C2147 C 0.47798 0.16629 0.2515 0.0
C2148 C 0.4628 0.19405 0.22119 0.0
C2149 C 0.47896 0.18427 0.26022 0.0
C2150 C 0.47688 0.11009 0.16579 0.0
C2151 C 0.4817 0.1276 0.15759 0.0
C2152 C 0.48002 0.09548 0.14838 0.0
C2153 C 0.48958 0.13015 0.13208 0.0
C2154 C 0.48792 0.0986 0.12301 0.0
N2155 N 0.4925 0.11573 0.11546 0.0
C2156 C 0.51649 0.11132 0.20019 0.0
C2157 C 0.51451 0.14197 0.21421 0.0
C2158 C 0.53398 0.11414 0.19023 0.0
N2159 N 0.50705 0.12527 0.21136 0.0
C2160 C 0.5319 0.14541 0.2045 0.0
C2161 C 0.54171 0.13149 0.19177 0.0
H2162 H 0.51011 0.09821 0.19786 0.0
H2163 H 0.50666 0.15289 0.2227 0.0
C2164 C 0.42654 0.15078 0.18053 0.0
N2165 N 0.43697 0.13668 0.17228 0.0
C2166 C 0.41586 0.16012 0.16194 0.0
C2167 C 0.42568 0.13933 0.12696 0.0
C2168 C 0.43636 0.13046 0.14628 0.0
C2169 C 0.41547 0.15455 0.13467 0.0
H2170 H 0.42702 0.15511 0.20151 0.0
H2171 H 0.44432 0.11883 0.1404 0.0
O2172 O 0.47547 0.10988 0.25411 0.0
O2173 O 0.43769 0.11658 0.23015 0.0
O2174 O 0.4677 0.14462 0.21847 0.0
O2175 O 0.46945 0.10708 0.19086 0.0
H2176 H 0.49398 0.08001 0.24323 0.0
H2177 H 0.49567 0.13097 0.28555 0.0
H2178 H 0.52527 0.07375 0.25887 0.0
H2179 H 0.527 0.12394 0.30023 0.0
H2180 H 0.40684 0.08212 0.16906 0.0
H2181 H 0.40494 0.12102 0.2506 0.0
H2182 H 0.4354 0.09527 0.18677 0.0
H2183 H 0.37685 0.10739 0.23172 0.0
H2184 H 0.45354 0.13931 0.34794 0.0
H2185 H 0.42224 0.17592 0.29785 0.0
H2186 H 0.47191 0.03531 0.21133 0.0
H2187 H 0.42489 0.04684 0.26104 0.0
H2188 H 0.45504 0.17346 0.1926 0.0
H2189 H 0.48405 0.15568 0.26353 0.0
H2190 H 0.45704 0.20501 0.20944 0.0
H2191 H 0.48574 0.18757 0.27906 0.0
H2192 H 0.47944 0.13911 0.1707 0.0
H2193 H 0.47642 0.08185 0.15446 0.0
H2194 H 0.49339 0.14361 0.12549 0.0
H2195 H 0.49042 0.08741 0.10934 0.0
H2196 H 0.54107 0.10309 0.18039 0.0
H2197 H 0.53709 0.15912 0.20538 0.0
H2198 H 0.4086 0.17205 0.1687 0.0
H2199 H 0.42566 0.13457 0.10616 0.0
Li2200 Li 0.62284 0.69627 0.99199 0.0
Li2201 Li 0.65163 0.69749 0.96245 0.0
Li2202 Li 0.62739 0.71969 0.95855 0.0
Li2203 Li 0.62264 0.69031 0.94307 0.0
C2204 C 0.64562 0.73147 0.00124 0.0
N2205 N 0.65155 0.76606 0.02071 0.0
C2206 C 0.65882 0.74248 0.98933 0.0
C2207 C 0.6355 0.738 0.02315 0.0
C2208 C 0.66158 0.75995 -0.00058 0.0
C2209 C 0.63869 0.75554 0.03268 0.0
C2210 C 0.63403 0.65935 0.96241 0.0
C2211 C 0.64455 0.63443 0.935 0.0
N2212 N 0.62942 0.6249 0.94172 0.0
C2213 C 0.61864 0.6493 0.9692 0.0
C2214 C 0.64714 0.65188 0.94527 0.0
C2215 C 0.61654 0.6319 0.95845 0.0
C2216 C 0.59646 0.68239 0.02651 0.0
N2217 N 0.61337 0.68963 0.02583 0.0
C2218 C 0.61625 0.6869 0.0739 0.0
C2219 C 0.62338 0.69186 0.04873 0.0
C2220 C 0.59872 0.67957 0.07528 0.0
C2221 C 0.58881 0.67721 0.05119 0.0
H2222 H 0.58896 0.68062 0.00781 0.0
H2223 H 0.63688 0.69752 0.0474 0.0
C2224 C 0.68766 0.70638 0.95187 0.0
N2225 N 0.6767 0.69397 0.9639 0.0
C2226 C 0.70631 0.70572 0.95615 0.0
C2227 C 0.702 0.67899 0.98395 0.0
C2228 C 0.6834 0.68026 0.97932 0.0
C2229 C 0.71354 0.69216 0.9729 0.0
H2230 H 0.68183 0.71713 0.93977 0.0
H2231 H 0.67423 0.67075 0.98885 0.0
C2232 C 0.59147 0.71644 0.96283 0.0
N2233 N 0.56315 0.74077 0.95872 0.0
C2234 C 0.58574 0.72251 0.93734 0.0
C2235 C 0.58262 0.72253 0.98622 0.0
C2236 C 0.57147 0.73489 0.93569 0.0
C2237 C 0.56836 0.73487 0.98371 0.0
C2238 C 0.64296 0.70357 0.90247 0.0
C2239 C 0.63 0.70946 0.88374 0.0
C2240 C 0.65796 0.69368 0.89348 0.0
C2241 C 0.63212 0.70509 0.85631 0.0
C2242 C 0.65962 0.68965 0.86585 0.0
N2243 N 0.64676 0.69536 0.84801 0.0
C2244 C 0.62897 0.75126 0.92721 0.0
C2245 C 0.61268 0.75502 0.96833 0.0
C2246 C 0.62383 0.76847 0.91855 0.0
N2247 N 0.62282 0.74465 0.95126 0.0
C2248 C 0.60713 0.77229 0.96042 0.0
C2249 C 0.61225 0.77889 0.93484 0.0
H2250 H 0.63726 0.74288 0.91422 0.0
H2251 H 0.60822 0.74961 0.98757 0.0
C2252 C 0.59184 0.67432 0.922 0.0
N2253 N 0.60996 0.67546 0.91741 0.0
C2254 C 0.58082 0.66434 0.90469 0.0
C2255 C 0.60729 0.65623 0.87847 0.0
C2256 C 0.61789 0.66628 0.89656 0.0
C2257 C 0.5885 0.65538 0.8824 0.0
H2258 H 0.58587 0.68122 0.93913 0.0
H2259 H 0.63238 0.6667 0.89389 0.0
O2260 O 0.64257 0.71441 0.99145 0.0
O2261 O 0.63612 0.67656 0.97214 0.0
O2262 O 0.60555 0.70446 0.96487 0.0
O2263 O 0.64121 0.70785 0.92937 0.0
H2264 H 0.66669 0.73767 0.97227 0.0
H2265 H 0.62511 0.72972 0.03244 0.0
H2266 H 0.67168 0.76866 0.9903 0.0
H2267 H 0.63089 0.76081 0.04952 0.0
H2268 H 0.65453 0.62849 0.92158 0.0
H2269 H 0.60835 0.65495 0.98236 0.0
H2270 H 0.65907 0.65956 0.93969 0.0
H2271 H 0.60464 0.624 0.96336 0.0
H2272 H 0.62429 0.68884 0.09208 0.0
H2273 H 0.57544 0.67117 0.05139 0.0
H2274 H 0.71493 0.71598 0.94717 0.0
H2275 H 0.70721 0.66842 0.99707 0.0
H2276 H 0.59232 0.71777 0.91905 0.0
H2277 H 0.58691 0.71802 0.00611 0.0
H2278 H 0.567 0.73983 0.91612 0.0
H2279 H 0.56149 0.73982 0.00164 0.0
H2280 H 0.61841 0.71727 0.89031 0.0
H2281 H 0.66812 0.68901 0.90767 0.0
H2282 H 0.62213 0.70946 0.84161 0.0
H2283 H 0.6711 0.68193 0.85862 0.0
H2284 H 0.62801 0.77316 0.89865 0.0
H2285 H 0.59836 0.78009 0.97362 0.0
H2286 H 0.56634 0.66396 0.90834 0.0
H2287 H 0.61368 0.64921 0.86169 0.0
Li2288 Li 0.03975 0.89914 0.71962 0.0
Li2289 Li 0.04074 0.86996 0.74195 0.0
Li2290 Li 0.0441 0.87276 0.6928 0.0
Li2291 Li 0.01502 0.87779 0.71474 0.0
C2292 C 0.07416 0.89322 0.72763 0.0
N2293 N 0.10118 0.91747 0.74129 0.0
C2294 C 0.07995 0.89469 0.75457 0.0
C2295 C 0.0822 0.90398 0.7076 0.0
C2296 C 0.09362 0.90705 0.76107 0.0
C2297 C 0.0958 0.91619 0.71493 0.0
C2298 C 0.00736 0.89513 0.75889 0.0
C2299 C 0.97971 0.8886 0.7831 0.0
N2300 N 0.97386 0.90577 0.77818 0.0
C2301 C 0.00109 0.91271 0.7541 0.0
C2302 C 0.99662 0.88297 0.77355 0.0
C2303 C 0.98411 0.91783 0.76403 0.0
C2304 C 0.04549 0.93606 0.70489 0.0
N2305 N 0.04543 0.9237 0.72535 0.0
C2306 C 0.05119 0.94664 0.75828 0.0
C2307 C 0.04839 0.92855 0.75158 0.0
C2308 C 0.05075 0.9598 0.73775 0.0
C2309 C 0.04826 0.95436 0.71069 0.0
H2310 H 0.04288 0.93178 0.68427 0.0
H2311 H 0.04813 0.91836 0.76738 0.0
C2312 C 0.06306 0.84554 0.76968 0.0
N2313 N 0.04944 0.85772 0.77293 0.0
C2314 C 0.07047 0.83681 0.79217 0.0
C2315 C 0.05004 0.85377 0.821 0.0
C2316 C 0.04281 0.86195 0.79787 0.0
C2317 C 0.06418 0.84115 0.81829 0.0
H2318 H 0.06828 0.84275 0.74959 0.0
H2319 H 0.03222 0.87197 0.79983 0.0
C2320 C 0.02644 0.89302 0.65855 0.0
N2321 N 0.02655 0.89229 0.60242 0.0
C2322 C 0.012 0.88517 0.64443 0.0
C2323 C 0.04091 0.90056 0.64411 0.0
C2324 C 0.01231 0.88494 0.61606 0.0
C2325 C 0.04073 0.90002 0.61574 0.0
C2326 C 0.03119 0.83807 0.72293 0.0
C2327 C 0.044 0.82648 0.71126 0.0
C2328 C 0.02097 0.8321 0.74512 0.0
C2329 C 0.04638 0.80912 0.722 0.0
C2330 C 0.02379 0.81466 0.75533 0.0
N2331 N 0.03632 0.80363 0.74365 0.0
C2332 C 0.07348 0.8617 0.65984 0.0
C2333 C 0.04443 0.85089 0.64696 0.0
C2334 C 0.08181 0.84985 0.6416 0.0
N2335 N 0.05516 0.86159 0.66262 0.0
C2336 C 0.05217 0.83884 0.62857 0.0
C2337 C 0.07109 0.83775 0.62663 0.0
H2338 H 0.08167 0.87005 0.67304 0.0
H2339 H 0.02994 0.85075 0.65023 0.0
C2340 C 0.97978 0.88958 0.70121 0.0
N2341 N 0.98979 0.87512 0.70946 0.0
C2342 C 0.96213 0.88703 0.69173 0.0
C2343 C 0.96518 0.85499 0.70106 0.0
C2344 C 0.98273 0.85815 0.71026 0.0
C2345 C 0.95495 0.86943 0.69064 0.0
H2346 H 0.9859 0.90288 0.70035 0.0
H2347 H 0.9911 0.84687 0.71635 0.0
O2348 O 0.06053 0.88149 0.72095 0.0
O2349 O 0.0238 0.88975 0.74893 0.0
O2350 O 0.0265 0.89323 0.68634 0.0
O2351 O 0.02872 0.85518 0.71283 0.0
H2352 H 0.07384 0.88652 0.77036 0.0
H2353 H 0.07783 0.90304 0.68667 0.0
H2354 H 0.09818 0.9084 0.78186 0.0
H2355 H 0.10206 0.92469 0.69967 0.0
H2356 H 0.97122 0.87931 0.79437 0.0
H2357 H 0.00914 0.92225 0.74258 0.0
H2358 H 0.00124 0.86929 0.77731 0.0
H2359 H 0.97906 0.93137 0.7604 0.0
H2360 H 0.05328 0.95038 0.77933 0.0
H2361 H 0.04776 0.96423 0.6944 0.0
H2362 H 0.08107 0.82688 0.78915 0.0
H2363 H 0.04493 0.85759 0.84081 0.0
H2364 H 0.00076 0.87912 0.65521 0.0
H2365 H 0.05225 0.90658 0.65469 0.0
H2366 H 0.00125 0.87885 0.60489 0.0
H2367 H 0.05188 0.90572 0.60431 0.0
H2368 H 0.05219 0.83084 0.69429 0.0
H2369 H 0.01113 0.84093 0.75461 0.0
H2370 H 0.05627 0.80004 0.71319 0.0
H2371 H 0.01605 0.80992 0.77259 0.0
H2372 H 0.09647 0.8492 0.64071 0.0
H2373 H 0.04355 0.82966 0.61726 0.0
H2374 H 0.95457 0.89848 0.68393 0.0
H2375 H 0.96018 0.8412 0.70021 0.0
Li2376 Li 0.84818 0.29535 0.47189 0.0
Li2377 Li 0.87784 0.2946 0.49284 0.0
Li2378 Li 0.87399 0.30223 0.445 0.0
Li2379 Li 0.86955 0.27143 0.46124 0.0
C2380 C 0.85414 0.32876 0.48662 0.0
N2381 N 0.83011 0.35402 0.50707 0.0
C2382 C 0.85367 0.33237 0.51448 0.0
C2383 C 0.84248 0.33809 0.46913 0.0
C2384 C 0.84141 0.34518 0.52442 0.0
C2385 C 0.8304 0.35076 0.47988 0.0
C2386 C 0.85305 0.25997 0.50432 0.0
C2387 C 0.86012 0.23048 0.52257 0.0
N2388 N 0.8429 0.22498 0.51716 0.0
C2389 C 0.83543 0.25404 0.49897 0.0
C2390 C 0.8655 0.24813 0.51629 0.0
C2391 C 0.83055 0.23629 0.50563 0.0
C2392 C 0.81113 0.30121 0.45942 0.0
N2393 N 0.8237 0.30025 0.47951 0.0
C2394 C 0.80104 0.30412 0.51353 0.0
C2395 C 0.81908 0.30171 0.50613 0.0
C2396 C 0.7877 0.3049 0.49328 0.0
C2397 C 0.79289 0.30358 0.46591 0.0
H2398 H 0.8152 0.29963 0.43848 0.0
H2399 H 0.82942 0.30061 0.52162 0.0
C2400 C 0.90267 0.31419 0.52457 0.0
N2401 N 0.89046 0.3004 0.52502 0.0
C2402 C 0.91143 0.31942 0.54838 0.0
C2403 C 0.89441 0.29657 0.57275 0.0
C2404 C 0.8862 0.29157 0.54838 0.0
C2405 C 0.90716 0.31065 0.57281 0.0
H2406 H 0.90532 0.32132 0.50581 0.0
H2407 H 0.8761 0.28097 0.5482 0.0
C2408 C 0.85305 0.28747 0.40857 0.0
N2409 N 0.85268 0.29253 0.35295 0.0
C2410 C 0.86085 0.27455 0.39142 0.0
C2411 C 0.84499 0.30292 0.39743 0.0
C2412 C 0.86053 0.27736 0.36335 0.0
C2413 C 0.84497 0.30524 0.36927 0.0
C2414 C 0.90937 0.2875 0.47073 0.0
C2415 C 0.9204 0.30145 0.46093 0.0
C2416 C 0.91597 0.27587 0.49088 0.0
C2417 C 0.93784 0.30356 0.4715 0.0
C2418 C 0.93347 0.27846 0.50097 0.0
N2419 N 0.94396 0.29213 0.49115 0.0
C2420 C 0.88212 0.33451 0.4161 0.0
C2421 C 0.894 0.30728 0.39767 0.0
C2422 C 0.89157 0.34476 0.39691 0.0
N2423 N 0.88378 0.31617 0.41635 0.0
C2424 C 0.90362 0.31697 0.37815 0.0
C2425 C 0.90286 0.33596 0.37813 0.0
H2426 H 0.87409 0.3412 0.43145 0.0
H2427 H 0.89536 0.29271 0.39881 0.0
C2428 C 0.85732 0.23752 0.4421 0.0
N2429 N 0.8719 0.24664 0.45201 0.0
C2430 C 0.85918 0.21965 0.43322 0.0
C2431 C 0.89085 0.22081 0.44576 0.0
C2432 C 0.88841 0.23865 0.45419 0.0
C2433 C 0.87617 0.21119 0.43481 0.0
H2434 H 0.84439 0.24432 0.44037 0.0
H2435 H 0.89981 0.24631 0.46166 0.0
O2436 O 0.86576 0.31599 0.47654 0.0
O2437 O 0.85823 0.27714 0.49734 0.0
O2438 O 0.85346 0.28511 0.43613 0.0
O2439 O 0.89216 0.28532 0.46085 0.0
H2440 H 0.86253 0.32525 0.52834 0.0
H2441 H 0.84259 0.33538 0.44754 0.0
H2442 H 0.84084 0.34805 0.54596 0.0
H2443 H 0.82121 0.35798 0.46661 0.0
H2444 H 0.86964 0.22114 0.53168 0.0
H2445 H 0.82566 0.26296 0.48949 0.0
H2446 H 0.87925 0.25246 0.52034 0.0
H2447 H 0.81698 0.23149 0.5015 0.0
H2448 H 0.79749 0.30501 0.53484 0.0
H2449 H 0.7829 0.30365 0.44979 0.0
H2450 H 0.92095 0.33059 0.54792 0.0
H2451 H 0.89072 0.28969 0.5914 0.0
H2452 H 0.86729 0.2626 0.39966 0.0
H2453 H 0.83902 0.31312 0.41041 0.0
H2454 H 0.86659 0.26752 0.34984 0.0
H2455 H 0.83889 0.31719 0.36039 0.0
H2456 H 0.91553 0.31068 0.44554 0.0
H2457 H 0.90755 0.26519 0.49904 0.0
H2458 H 0.94649 0.31433 0.46416 0.0
H2459 H 0.93869 0.26966 0.51671 0.0
H2460 H 0.8906 0.3594 0.39737 0.0
H2461 H 0.91239 0.30973 0.36423 0.0
H2462 H 0.84761 0.21267 0.42462 0.0
H2463 H 0.90428 0.21491 0.4466 0.0
Li2464 Li 0.47261 0.87708 0.28644 0.0
Li2465 Li 0.44186 0.87328 0.30358 0.0
Li2466 Li 0.4489 0.87001 0.2552 0.0
Li2467 Li 0.44917 0.89963 0.27716 0.0
C2468 C 0.45506 0.838 0.27614 0.0
N2469 N 0.44891 0.80395 0.25466 0.0
C2470 C 0.4402 0.82776 0.28483 0.0
C2471 C 0.46682 0.83087 0.25661 0.0
C2472 C 0.43734 0.81058 0.27373 0.0
C2473 C 0.46346 0.81366 0.24595 0.0
C2474 C 0.45813 0.89395 0.33994 0.0
C2475 C 0.44265 0.9045 0.38005 0.0
N2476 N 0.4547 0.8953 0.39577 0.0
C2477 C 0.47045 0.8847 0.35646 0.0
C2478 C 0.44419 0.90403 0.35177 0.0
C2479 C 0.46845 0.88552 0.38466 0.0
C2480 C 0.50814 0.88748 0.30241 0.0
N2481 N 0.49721 0.87334 0.29572 0.0
C2482 C 0.52027 0.85211 0.30732 0.0
C2483 C 0.50295 0.85593 0.29775 0.0
C2484 C 0.53183 0.86636 0.31485 0.0
C2485 C 0.52567 0.88428 0.31202 0.0
H2486 H 0.50303 0.90119 0.30113 0.0
H2487 H 0.49382 0.84495 0.29305 0.0
C2488 C 0.40982 0.86477 0.33304 0.0
N2489 N 0.42818 0.86327 0.33234 0.0
C2490 C 0.39978 0.85447 0.35148 0.0
C2491 C 0.4278 0.84197 0.36876 0.0
C2492 C 0.43727 0.85244 0.35001 0.0
C2493 C 0.40879 0.84248 0.36901 0.0
H2494 H 0.40292 0.87319 0.31839 0.0
H2495 H 0.45182 0.85112 0.3484 0.0
C2496 C 0.48407 0.89397 0.24329 0.0
N2497 N 0.51903 0.9032 0.22868 0.0
C2498 C 0.49008 0.91183 0.24612 0.0
C2499 C 0.4958 0.88083 0.23283 0.0
C2500 C 0.50781 0.91622 0.23864 0.0
C2501 C 0.51344 0.88576 0.22564 0.0
C2502 C 0.41368 0.89304 0.26586 0.0
C2503 C 0.4063 0.89212 0.23975 0.0
C2504 C 0.40611 0.90476 0.28504 0.0
C2505 C 0.39152 0.90312 0.23318 0.0
C2506 C 0.39136 0.91555 0.27767 0.0
N2507 N 0.38443 0.91452 0.25211 0.0
C2508 C 0.42827 0.84648 0.2226 0.0
C2509 C 0.45255 0.86123 0.2 0.0
C2510 C 0.42336 0.8376 0.19873 0.0
N2511 N 0.44272 0.85789 0.22279 0.0
C2512 C 0.44798 0.85283 0.1756 0.0
C2513 C 0.43326 0.84084 0.1749 0.0
H2514 H 0.42046 0.84445 0.24094 0.0
H2515 H 0.46378 0.87062 0.20069 0.0
C2516 C 0.45226 0.9366 0.28913 0.0
N2517 N 0.44504 0.92452 0.27137 0.0
C2518 C 0.45137 0.95512 0.28365 0.0
C2519 C 0.4347 0.94837 0.24259 0.0
C2520 C 0.43646 0.92999 0.24838 0.0
C2521 C 0.44274 0.9612 0.25987 0.0
H2522 H 0.45935 0.9318 0.30696 0.0
H2523 H 0.43135 0.92008 0.2342 0.0
O2524 O 0.45796 0.85498 0.28644 0.0
O2525 O 0.4597 0.89312 0.3123 0.0
O2526 O 0.46686 0.88934 0.2509 0.0
O2527 O 0.42818 0.88242 0.27261 0.0
H2528 H 0.43085 0.83306 0.29973 0.0
H2529 H 0.4783 0.83866 0.24947 0.0
H2530 H 0.42585 0.80254 0.28019 0.0
H2531 H 0.47238 0.80804 0.23068 0.0
H2532 H 0.43187 0.91218 0.3895 0.0
H2533 H 0.48131 0.87682 0.34763 0.0
H2534 H 0.43465 0.91138 0.33925 0.0
H2535 H 0.47781 0.87834 0.39771 0.0
H2536 H 0.52419 0.8381 0.31015 0.0
H2537 H 0.53412 0.89561 0.31794 0.0
H2538 H 0.38512 0.85526 0.35122 0.0
H2539 H 0.4352 0.83268 0.3817 0.0
H2540 H 0.4812 0.92218 0.25413 0.0
H2541 H 0.49139 0.86693 0.23061 0.0
H2542 H 0.51266 0.92997 0.24082 0.0
H2543 H 0.52269 0.8757 0.21771 0.0
H2544 H 0.412 0.88313 0.22465 0.0
H2545 H 0.41165 0.90561 0.30533 0.0
H2546 H 0.38572 0.90262 0.21301 0.0
H2547 H 0.38542 0.92476 0.29226 0.0
H2548 H 0.41169 0.82871 0.19868 0.0
H2549 H 0.45579 0.8557 0.15747 0.0
H2550 H 0.4579 0.9645 0.29742 0.0
H2551 H 0.4274 0.95242 0.22451 0.0
Li2552 Li 0.87139 0.7247 0.03583 0.0
Li2553 Li 0.87516 0.69378 0.05251 0.0
Li2554 Li 0.87974 0.70119 0.00458 0.0
Li2555 Li 0.84981 0.70092 0.02481 0.0
C2556 C 0.91105 0.70866 0.02787 0.0
N2557 N 0.94617 0.70514 0.00914 0.0
C2558 C 0.92199 0.6945 0.03718 0.0
C2559 C 0.91802 0.7211 0.00917 0.0
C2560 C 0.9397 0.69294 0.02745 0.0
C2561 C 0.93579 0.71906 -0.00012 0.0
C2562 C 0.85406 0.7094 0.08821 0.0
C2563 C 0.84538 0.69231 0.1279 0.0
N2564 N 0.85282 0.70532 0.14397 0.0
C2565 C 0.86155 0.72265 0.10511 0.0
C2566 C 0.84582 0.69415 0.09967 0.0
C2567 C 0.8608 0.72032 0.13326 0.0
C2568 C 0.86005 0.76037 0.04971 0.0
N2569 N 0.87451 0.74925 0.04579 0.0
C2570 C 0.89476 0.77172 0.0627 0.0
C2571 C 0.89164 0.75465 0.05169 0.0
C2572 C 0.88009 0.78336 0.06775 0.0
C2573 C 0.86258 0.77771 0.06042 0.0
H2574 H 0.84652 0.75554 0.04545 0.0
H2575 H 0.90282 0.74538 0.04906 0.0
C2576 C 0.88385 0.66159 0.08097 0.0
N2577 N 0.88479 0.67997 0.08136 0.0
C2578 C 0.8939 0.65142 0.09954 0.0
C2579 C 0.90493 0.67937 0.11921 0.0
C2580 C 0.89476 0.68896 0.10022 0.0
C2581 C 0.90494 0.66035 0.11852 0.0
H2582 H 0.87611 0.65482 0.06534 0.0
H2583 H 0.89567 0.70358 0.09943 0.0
C2584 C 0.85548 0.73587 0.99104 0.0
N2585 N 0.84561 0.77023 0.97443 0.0
C2586 C 0.83745 0.74151 0.99316 0.0
C2587 C 0.86846 0.74766 0.98032 0.0
C2588 C 0.83273 0.75894 0.98466 0.0
C2589 C 0.86321 0.765 0.9721 0.0
C2590 C 0.85575 0.66702 0.01106 0.0
C2591 C 0.85588 0.66259 0.98345 0.0
C2592 C 0.84381 0.65814 0.02862 0.0
C2593 C 0.84388 0.64944 0.97381 0.0
C2594 C 0.83199 0.64509 0.01818 0.0
N2595 N 0.83227 0.64106 0.99122 0.0
C2596 C 0.9051 0.68147 0.9741 0.0
C2597 C 0.88903 0.70385 0.9493 0.0
C2598 C 0.91422 0.67602 0.95071 0.0
N2599 N 0.89289 0.69522 0.97297 0.0
C2600 C 0.8976 0.69861 0.9253 0.0
C2601 C 0.91038 0.68451 0.92583 0.0
H2602 H 0.90747 0.6745 0.99309 0.0
H2603 H 0.87888 0.7144 0.94891 0.0
C2604 C 0.81269 0.69784 0.03717 0.0
N2605 N 0.82528 0.69638 0.01718 0.0
C2606 C 0.79434 0.69616 0.03097 0.0
C2607 C 0.80241 0.69102 0.98392 0.0
C2608 C 0.82058 0.693 0.99097 0.0
C2609 C 0.78911 0.69295 0.004 0.0
H2610 H 0.81687 0.70081 0.05773 0.0
H2611 H 0.83094 0.69235 0.97547 0.0
O2612 O 0.8936 0.71032 0.03691 0.0
O2613 O 0.85487 0.71129 0.0606 0.0
O2614 O 0.86041 0.71892 -0.00054 0.0
O2615 O 0.8672 0.68004 0.02082 0.0
H2616 H 0.91682 0.68468 0.05153 0.0
H2617 H 0.90973 0.73213 0.00173 0.0
H2618 H 0.94829 0.682 0.03438 0.0
H2619 H 0.94132 0.72853 0.98529 0.0
H2620 H 0.83914 0.68053 0.13704 0.0
H2621 H 0.868 0.73452 0.09663 0.0
H2622 H 0.83998 0.68377 0.08687 0.0
H2623 H 0.86661 0.73043 0.14658 0.0
H2624 H 0.90844 0.7754 0.06846 0.0
H2625 H 0.85093 0.78637 0.06367 0.0
H2626 H 0.89375 0.63677 0.09827 0.0
H2627 H 0.91369 0.68674 0.13297 0.0
H2628 H 0.82722 0.7326 0.00149 0.0
H2629 H 0.88246 0.74349 0.97853 0.0
H2630 H 0.81885 0.76352 0.98628 0.0
H2631 H 0.87313 0.7743 0.9639 0.0
H2632 H 0.86502 0.66934 0.96957 0.0
H2633 H 0.84353 0.66143 0.05003 0.0
H2634 H 0.84376 0.64594 0.95248 0.0
H2635 H 0.82259 0.6382 0.03149 0.0
H2636 H 0.92393 0.66505 0.95199 0.0
H2637 H 0.89375 0.7051 0.90643 0.0
H2638 H 0.78432 0.69769 0.0469 0.0
H2639 H 0.79874 0.68872 0.96289 0.0
Li2640 Li 0.02351 0.12086 0.78492 0.0
Li2641 Li 0.05421 0.12482 0.80222 0.0
Li2642 Li 0.04758 0.12732 0.75391 0.0
Li2643 Li 0.04684 0.09836 0.77696 0.0
C2644 C 0.04069 0.15976 0.77352 0.0
N2645 N 0.04603 0.19366 0.75103 0.0
C2646 C 0.05464 0.17089 0.78302 0.0
C2647 C 0.0294 0.16592 0.75266 0.0
C2648 C 0.05712 0.18798 0.77139 0.0
C2649 C 0.03234 0.18308 0.74151 0.0
C2650 C 0.0381 0.1056 0.83953 0.0
C2651 C 0.05512 0.09852 0.88002 0.0
N2652 N 0.04217 0.10674 0.89533 0.0
C2653 C 0.02496 0.11399 0.85569 0.0
C2654 C 0.0533 0.09778 0.85179 0.0
C2655 C 0.02726 0.1144 0.88386 0.0
C2656 C 0.98968 0.11012 0.80504 0.0
N2657 N -0.00124 0.12425 0.79369 0.0
C2658 C 0.97394 0.14417 0.80224 0.0
C2659 C 0.99113 0.14095 0.79151 0.0
C2660 C 0.9648 0.13012 0.81563 0.0
C2661 C 0.97255 0.11279 0.81631 0.0
H2662 H 0.99622 0.09705 0.80677 0.0
H2663 H -0.00124 0.15198 0.78277 0.0
C2664 C 0.08613 0.13329 0.83206 0.0
N2665 N 0.06783 0.13516 0.83076 0.0
C2666 C 0.09602 0.14278 0.85163 0.0
C2667 C 0.06792 0.15542 0.86845 0.0
C2668 C 0.05863 0.14583 0.84851 0.0
C2669 C 0.08687 0.15416 0.86991 0.0
H2670 H 0.09309 0.12498 0.81731 0.0
H2671 H 0.04414 0.14744 0.84642 0.0
C2672 C 0.0122 0.10349 0.74271 0.0
N2673 N 0.97703 0.09434 0.7293 0.0
C2674 C 0.0054 0.08639 0.74938 0.0
C2675 C 0.00114 0.11593 0.72917 0.0
C2676 C 0.98758 0.08201 0.74242 0.0
C2677 C 0.98338 0.11105 0.7226 0.0
C2678 C 0.08052 0.10247 0.76313 0.0
C2679 C 0.08384 0.10037 0.73535 0.0
C2680 C 0.08962 0.09149 0.78181 0.0
C2681 C 0.09614 0.08719 0.72671 0.0
C2682 C 0.10179 0.07844 0.77235 0.0
N2683 N 0.10477 0.07658 0.74523 0.0
C2684 C 0.06907 0.1505 0.72272 0.0
C2685 C 0.04625 0.1352 0.69773 0.0
C2686 C 0.07539 0.15889 0.69921 0.0
N2687 N 0.0547 0.13903 0.72155 0.0
C2688 C 0.05232 0.14306 0.67361 0.0
C2689 C 0.0672 0.15493 0.67416 0.0
H2690 H 0.07571 0.153 0.74193 0.0
H2691 H 0.03508 0.12573 0.69738 0.0
C2692 C 0.05203 0.06191 0.79328 0.0
N2693 N 0.05091 0.07339 0.77178 0.0
C2694 C 0.05355 0.04331 0.78898 0.0
C2695 C 0.05298 0.0488 0.74052 0.0
C2696 C 0.05156 0.06729 0.74576 0.0
C2697 C 0.05361 0.03657 0.76231 0.0
H2698 H 0.05131 0.06715 0.81373 0.0
H2699 H 0.05044 0.07679 0.72912 0.0
O2700 O 0.03817 0.14289 0.78443 0.0
O2701 O 0.03623 0.10526 0.81186 0.0
O2702 O 0.02948 0.10819 0.74988 0.0
O2703 O 0.06821 0.115 0.77196 0.0
H2704 H 0.0636 0.16635 0.79901 0.0
H2705 H 0.01867 0.15742 0.74482 0.0
H2706 H 0.06791 0.1967 0.77848 0.0
H2707 H 0.02379 0.18795 0.72523 0.0
H2708 H 0.06687 0.09263 0.88974 0.0
H2709 H 0.01325 0.12036 0.84664 0.0
H2710 H 0.06374 0.09148 0.83962 0.0
H2711 H 0.01723 0.1209 0.89658 0.0
H2712 H 0.96838 0.15775 0.80171 0.0
H2713 H 0.96584 0.1017 0.82664 0.0
H2714 H 0.11065 0.14169 0.85198 0.0
H2715 H 0.06044 0.1645 0.88161 0.0
H2716 H 0.0137 0.07666 0.76012 0.0
H2717 H 0.00614 0.12928 0.72404 0.0
H2718 H 0.98211 0.06885 0.74755 0.0
H2719 H 0.97463 0.12057 0.71224 0.0
H2720 H 0.07686 0.10869 0.72059 0.0
H2721 H 0.08713 0.09286 0.80337 0.0
H2722 H 0.09878 0.08536 0.70527 0.0
H2723 H 0.10883 0.06976 0.78657 0.0
H2724 H 0.08664 0.16826 0.70061 0.0
H2725 H 0.04574 0.13955 0.65466 0.0
H2726 H 0.0543 0.03427 0.80628 0.0
H2727 H 0.05288 0.04407 0.71969 0.0
Li2728 Li 0.6226 0.3016 0.5507 0.0
Li2729 Li 0.62787 0.26965 0.53876 0.0
Li2730 Li 0.64914 0.29272 0.5283 0.0
Li2731 Li 0.62186 0.29266 0.50365 0.0
C2732 C 0.65614 0.28978 0.57961 0.0
N2733 N 0.6873 0.29988 0.60681 0.0
C2734 C 0.66936 0.27687 0.58582 0.0
C2735 C 0.65876 0.30783 0.58728 0.0
C2736 C 0.68503 0.28225 0.59955 0.0
C2737 C 0.67459 0.31266 0.60104 0.0
C2738 C 0.59079 0.28446 0.54945 0.0
C2739 C 0.55986 0.293 0.55878 0.0
N2740 N 0.56143 0.28601 0.58424 0.0
C2741 C 0.59207 0.2773 0.57569 0.0
C2742 C 0.57454 0.29232 0.54088 0.0
C2743 C 0.57708 0.27822 0.59297 0.0
C2744 C 0.59908 0.32924 0.56588 0.0
N2745 N 0.61068 0.31665 0.57598 0.0
C2746 C 0.5995 0.32122 0.6209 0.0
C2747 C 0.61151 0.31287 0.60297 0.0
C2748 C 0.58649 0.33334 0.61076 0.0
C2749 C 0.58679 0.33786 0.58307 0.0
H2750 H 0.59857 0.33167 0.54421 0.0
H2751 H 0.62068 0.30253 0.61028 0.0
C2752 C 0.63785 0.23482 0.55762 0.0
N2753 N 0.62384 0.24518 0.5487 0.0
C2754 C 0.63464 0.21735 0.56743 0.0
C2755 C 0.60283 0.2213 0.55722 0.0
C2756 C 0.60668 0.23857 0.54746 0.0
C2757 C 0.61686 0.21056 0.56782 0.0
H2758 H 0.65143 0.24026 0.55767 0.0
H2759 H 0.59584 0.24693 0.5397 0.0
C2760 C 0.6413 0.32412 0.49924 0.0
N2761 N 0.65604 0.34454 0.45767 0.0
C2762 C 0.65077 0.31567 0.47814 0.0
C2763 C 0.63932 0.34294 0.49916 0.0
C2764 C 0.65812 0.32623 0.45732 0.0
C2765 C 0.64687 0.35303 0.47797 0.0
C2766 C 0.63614 0.2594 0.4867 0.0
C2767 C 0.64956 0.25023 0.47214 0.0
C2768 C 0.61799 0.25433 0.48362 0.0
C2769 C 0.64461 0.23614 0.45471 0.0
C2770 C 0.6136 0.24016 0.46601 0.0
N2771 N 0.62688 0.23143 0.45204 0.0
C2772 C 0.68462 0.28221 0.51876 0.0
C2773 C 0.68161 0.31352 0.5288 0.0
C2774 C 0.7032 0.28419 0.51505 0.0
N2775 N 0.67428 0.29678 0.52524 0.0
C2776 C 0.70017 0.31613 0.52524 0.0
C2777 C 0.71111 0.30136 0.51799 0.0
H2778 H 0.67835 0.26907 0.51628 0.0
H2779 H 0.67302 0.32482 0.53425 0.0
C2780 C 0.59605 0.30918 0.47093 0.0
N2781 N 0.6106 0.29795 0.47001 0.0
C2782 C 0.58743 0.31448 0.44702 0.0
C2783 C 0.60925 0.29687 0.42158 0.0
C2784 C 0.61743 0.29191 0.446 0.0
C2785 C 0.59402 0.30824 0.42197 0.0
H2786 H 0.59144 0.31439 0.49025 0.0
H2787 H 0.62944 0.28356 0.44568 0.0
O2788 O 0.64091 0.28492 0.5655 0.0
O2789 O 0.60555 0.2842 0.53257 0.0
O2790 O 0.63389 0.31416 0.51992 0.0
O2791 O 0.64095 0.27315 0.50393 0.0
H2792 H 0.66764 0.26288 0.57993 0.0
H2793 H 0.64882 0.31807 0.58225 0.0
H2794 H 0.69541 0.27241 0.60438 0.0
H2795 H 0.67684 0.32659 0.60696 0.0
H2796 H 0.54723 0.29911 0.55245 0.0
H2797 H 0.60461 0.27137 0.5828 0.0
H2798 H 0.57324 0.29786 0.52065 0.0
H2799 H 0.57793 0.27286 0.61338 0.0
H2800 H 0.59977 0.31757 0.64221 0.0
H2801 H 0.57686 0.34704 0.57451 0.0
H2802 H 0.64582 0.20944 0.57533 0.0
H2803 H 0.58887 0.2168 0.55767 0.0
H2804 H 0.6525 0.30114 0.47778 0.0
H2805 H 0.63201 0.34967 0.51533 0.0
H2806 H 0.66549 0.31987 0.44089 0.0
H2807 H 0.64544 0.36761 0.47767 0.0
H2808 H 0.66367 0.25399 0.47426 0.0
H2809 H 0.60736 0.26128 0.49449 0.0
H2810 H 0.65487 0.22894 0.44332 0.0
H2811 H 0.59961 0.23612 0.46343 0.0
H2812 H 0.71126 0.27251 0.50943 0.0
H2813 H 0.70591 0.3295 0.52814 0.0
H2814 H 0.57608 0.32375 0.44805 0.0
H2815 H 0.61482 0.29198 0.40259 0.0
C2816 C 0.07213 0.34578 0.1229 0.0
C2817 C 0.06568 0.33368 0.14265 0.0
C2818 C 0.07937 0.33943 0.09843 0.0
C2819 C 0.08022 0.32075 0.09274 0.0
H2820 H 0.07204 0.36024 0.12673 0.0
H2821 H 0.08475 0.34923 0.08417 0.0
S2822 S 0.06329 0.28372 0.13703 0.0
N2823 N 0.0596 0.30238 0.15468 0.0
N2824 N 0.07266 0.29033 0.1082 0.0
C2825 C 0.07323 0.30855 0.11208 0.0
C2826 C 0.06608 0.31505 0.13715 0.0
C2827 C 0.92645 0.81417 0.36111 0.0
C2828 C 0.92886 0.83289 0.35724 0.0
C2829 C 0.91942 0.80736 0.38552 0.0
C2830 C 0.91456 0.81907 0.40686 0.0
H2831 H 0.92998 0.80472 0.34512 0.0
H2832 H 0.91772 0.79286 0.3877 0.0
S2833 S 0.91707 0.86926 0.40611 0.0
N2834 N 0.92517 0.86305 0.37627 0.0
N2835 N 0.91192 0.85029 0.4221 0.0
C2836 C 0.91689 0.83781 0.40321 0.0
C2837 C 0.92405 0.84472 0.3784 0.0
C2838 C 0.40604 0.66462 0.64139 0.0
C2839 C 0.42481 0.66414 0.64658 0.0
C2840 C 0.39929 0.67107 0.61667 0.0
C2841 C 0.41106 0.67707 0.59616 0.0
H2842 H 0.39649 0.65957 0.65628 0.0
H2843 H 0.38478 0.67094 0.61329 0.0
S2844 S 0.46107 0.68008 0.6001 0.0
N2845 N 0.45494 0.67149 0.6297 0.0
N2846 N 0.44213 0.68309 0.5828 0.0
C2847 C 0.42977 0.67699 0.6011 0.0
C2848 C 0.43668 0.67064 0.62642 0.0
C2849 C 0.56729 0.14475 0.87542 0.0
C2850 C 0.56023 0.15568 0.85453 0.0
C2851 C 0.57406 0.15235 0.89937 0.0
C2852 C 0.57394 0.1712 0.90353 0.0
H2853 H 0.56789 0.13017 0.87305 0.0
H2854 H 0.57998 0.14338 0.91436 0.0
S2855 S 0.55569 0.20576 0.85607 0.0
N2856 N 0.55298 0.18634 0.83994 0.0
N2857 N 0.5649 0.20057 0.88562 0.0
C2858 C 0.56622 0.18227 0.88332 0.0
C2859 C 0.55951 0.17453 0.85872 0.0
C2860 C 0.07916 0.67901 0.34668 0.0
C2861 C 0.06759 0.66388 0.34719 0.0
C2862 C 0.08595 0.68646 0.37078 0.0
C2863 C 0.08127 0.67913 0.39621 0.0
H2864 H 0.0835 0.68475 0.32749 0.0
H2865 H 0.09515 0.69787 0.3695 0.0
S2866 S 0.05059 0.64016 0.40853 0.0
N2867 N 0.05095 0.64243 0.37516 0.0
N2868 N 0.06398 0.65621 0.42049 0.0
C2869 C 0.06926 0.66436 0.39702 0.0
C2870 C 0.06237 0.65677 0.37249 0.0
C2871 C 0.58501 0.83706 0.60771 0.0
C2872 C 0.58433 0.81844 0.60188 0.0
C2873 C 0.57753 0.84392 0.63172 0.0
C2874 C 0.56943 0.83233 0.65083 0.0
H2875 H 0.59127 0.84638 0.59353 0.0
H2876 H 0.57837 0.85835 0.63561 0.0
S2877 S 0.56425 0.78255 0.64505 0.0
N2878 N 0.57483 0.78855 0.61686 0.0
N2879 N 0.56098 0.80145 0.66235 0.0
C2880 C 0.56867 0.8137 0.64525 0.0
C2881 C 0.57605 0.80674 0.62062 0.0
C2882 C 0.42394 0.31349 0.88484 0.0
C2883 C 0.41167 0.32323 0.90108 0.0
C2884 C 0.43019 0.32057 0.86014 0.0
C2885 C 0.42436 0.33764 0.85088 0.0
H2886 H 0.42876 0.30031 0.89131 0.0
H2887 H 0.43967 0.31267 0.84822 0.0
S2888 S 0.39122 0.36785 0.88491 0.0
N2889 N 0.39325 0.35037 0.90562 0.0
N2890 N 0.40495 0.36368 0.85918 0.0
C2891 C 0.412 0.34745 0.86686 0.0
C2892 C 0.40566 0.34025 0.89197 0.0
C2893 C 0.91506 0.15787 0.10567 0.0
C2894 C 0.9037 0.17314 0.10496 0.0
C2895 C 0.92114 0.15079 0.13043 0.0
C2896 C 0.9163 0.15894 0.15518 0.0
H2897 H 0.91892 0.15113 0.087 0.0
H2898 H 0.92968 0.13884 0.13023 0.0
S2899 S 0.88732 0.19952 0.16406 0.0
N2900 N 0.8881 0.1964 0.13085 0.0
N2901 N 0.89977 0.18322 0.17751 0.0
C2902 C 0.90526 0.17443 0.15469 0.0
C2903 C 0.89886 0.18149 0.12951 0.0
C2904 C 0.92637 0.65198 0.87127 0.0
C2905 C 0.93248 0.66361 0.85067 0.0
C2906 C 0.91947 0.65889 0.89561 0.0
C2907 C 0.91863 0.67769 0.90032 0.0
H2908 H 0.9265 0.63744 0.86826 0.0
H2909 H 0.91434 0.64941 0.91055 0.0
S2910 S 0.93463 0.7137 0.85343 0.0
N2911 N 0.93818 0.69463 0.8367 0.0
N2912 N 0.92573 0.70775 0.88291 0.0
C2913 C 0.92522 0.68945 0.88007 0.0
C2914 C 0.93203 0.68237 0.85513 0.0
C2915 C 0.06882 0.17702 0.60452 0.0
C2916 C 0.08745 0.17728 0.59875 0.0
C2917 C 0.06238 0.16997 0.62912 0.0
C2918 C 0.07437 0.16278 0.6486 0.0
H2919 H 0.0592 0.18234 0.58994 0.0
H2920 H 0.04793 0.17019 0.63295 0.0
S2921 S 0.12434 0.15908 0.64183 0.0
N2922 N 0.11775 0.16925 0.61364 0.0
N2923 N 0.1057 0.15548 0.65959 0.0
C2924 C 0.09305 0.1628 0.64279 0.0
C2925 C 0.09957 0.17017 0.61791 0.0
C2926 C 0.59664 0.32173 0.37565 0.0
C2927 C 0.58567 0.31441 0.39628 0.0
C2928 C 0.58901 0.32857 0.35173 0.0
C2929 C 0.57016 0.32834 0.34763 0.0
H2930 H 0.61119 0.32261 0.37832 0.0
H2931 H 0.5979 0.33453 0.33666 0.0
S2932 S 0.53575 0.30894 0.39417 0.0
N2933 N 0.55518 0.30614 0.41027 0.0
N2934 N 0.54082 0.31904 0.36521 0.0
C2935 C 0.55909 0.32059 0.36773 0.0
C2936 C 0.56685 0.31362 0.39209 0.0
C2937 C 0.42355 0.84374 0.12671 0.0
C2938 C 0.42757 0.83258 0.14901 0.0
C2939 C 0.41711 0.83638 0.10238 0.0
C2940 C 0.41459 0.81758 0.09945 0.0
H2941 H 0.42492 0.85832 0.12834 0.0
H2942 H 0.4136 0.84555 0.08602 0.0
S2943 S 0.42505 0.78248 0.1511 0.0
N2944 N 0.42974 0.80185 0.16634 0.0
N2945 N 0.41798 0.78787 0.1203 0.0
C2946 C 0.41915 0.80623 0.12138 0.0
C2947 C 0.42556 0.81377 0.14624 0.0
C2948 C 0.91057 0.33056 0.64325 0.0
C2949 C 0.9294 0.33135 0.64772 0.0
C2950 C 0.9035 0.32346 0.61915 0.0
C2951 C 0.91501 0.31707 0.59857 0.0
H2952 H 0.90121 0.33585 0.65822 0.0
H2953 H 0.88894 0.32338 0.6163 0.0
S2954 S 0.9651 0.31469 0.60083 0.0
N2955 N 0.95934 0.32393 0.63016 0.0
N2956 N 0.94592 0.31107 0.5844 0.0
C2957 C 0.93379 0.31748 0.60281 0.0
C2958 C 0.94102 0.32451 0.6275 0.0
C2959 C 0.41088 0.17059 0.35293 0.0
C2960 C 0.42968 0.16771 0.35089 0.0
C2961 C 0.40321 0.17779 0.37657 0.0
C2962 C 0.41405 0.18226 0.39904 0.0
H2963 H 0.40195 0.16679 0.33641 0.0
H2964 H 0.38862 0.17937 0.37756 0.0
S2965 S 0.46408 0.17907 0.40313 0.0
N2966 N 0.45908 0.17121 0.37263 0.0
N2967 N 0.44454 0.18449 0.41732 0.0
C2968 C 0.43288 0.17992 0.39708 0.0
C2969 C 0.44073 0.17269 0.37294 0.0
C2970 C 0.59397 0.65605 0.1433 0.0
C2971 C 0.57618 0.66044 0.15109 0.0
C2972 C 0.60128 0.66258 0.11896 0.0
C2973 C 0.59104 0.67374 0.10162 0.0
H2974 H 0.60213 0.6471 0.15574 0.0
H2975 H 0.61486 0.65848 0.11333 0.0
S2976 S 0.54452 0.69075 0.11432 0.0
N2977 N 0.54898 0.67765 0.14069 0.0
N2978 N 0.56275 0.69003 0.09489 0.0
C2979 C 0.57344 0.67869 0.10961 0.0
C2980 C 0.566 0.67201 0.13437 0.0
C2981 C 0.06145 0.82641 0.86391 0.0
C2982 C 0.07252 0.83288 0.84273 0.0
C2983 C 0.06901 0.81909 0.88758 0.0
C2984 C 0.08787 0.81782 0.89069 0.0
H2985 H 0.04682 0.82699 0.86218 0.0
H2986 H 0.06007 0.81437 0.90355 0.0
S2987 S 0.12284 0.83367 0.84227 0.0
N2988 N 0.10339 0.8383 0.82719 0.0
N2989 N 0.1175 0.82399 0.87144 0.0
C2990 C 0.09911 0.82413 0.86978 0.0
C2991 C 0.09146 0.83179 0.84583 0.0
C2992 C 0.10822 0.31824 0.37342 0.0
C2993 C 0.09549 0.33033 0.38448 0.0
C2994 C 0.1155 0.30418 0.38909 0.0
C2995 C 0.11031 0.30178 0.41635 0.0
H2996 H 0.11164 0.31886 0.35203 0.0
H2997 H 0.12426 0.29442 0.37923 0.0
S2998 S 0.08011 0.33192 0.45611 0.0
N2999 N 0.0799 0.34057 0.42515 0.0
N3000 N 0.09371 0.31417 0.45476 0.0
C3001 C 0.09877 0.3147 0.42823 0.0
C3002 C 0.09132 0.32897 0.41224 0.0
C3003 C 0.91141 0.84648 0.66956 0.0
C3004 C 0.91049 0.85057 0.64168 0.0
C3005 C 0.92509 0.85377 0.68597 0.0
C3006 C 0.9383 0.86541 0.67504 0.0
H3007 H 0.90197 0.83692 0.67846 0.0
H3008 H 0.92589 0.84957 0.70703 0.0
S3009 S 0.94152 0.88083 0.60348 0.0
N3010 N 0.92353 0.86753 0.60411 0.0
N3011 N 0.94923 0.88124 0.63494 0.0
C3012 C 0.93692 0.87042 0.64756 0.0
C3013 C 0.92301 0.86299 0.63086 0.0
C3014 C 0.39233 0.67958 0.92899 0.0
C3015 C 0.38132 0.69318 0.91766 0.0
C3016 C 0.3994 0.66565 0.91285 0.0
C3017 C 0.39564 0.66483 0.88489 0.0
H3018 H 0.39619 0.68021 0.9502 0.0
H3019 H 0.40854 0.65592 0.92204 0.0
S3020 S 0.36707 0.69679 0.8456 0.0
N3021 N 0.3665 0.70461 0.877 0.0
N3022 N 0.37969 0.67833 0.84673 0.0
C3023 C 0.38384 0.67775 0.87363 0.0
C3024 C 0.37669 0.69196 0.89002 0.0
C3025 C 0.57369 0.13791 0.13267 0.0
C3026 C 0.58621 0.15053 0.1429 0.0
C3027 C 0.56006 0.13074 0.14926 0.0
C3028 C 0.55853 0.13589 0.17669 0.0
H3029 H 0.57361 0.13453 0.11125 0.0
H3030 H 0.54992 0.1221 0.14001 0.0
S3031 S 0.59012 0.16582 0.21434 0.0
N3032 N 0.59777 0.16604 0.18281 0.0
N3033 N 0.57227 0.15232 0.21424 0.0
C3034 C 0.57191 0.14731 0.18768 0.0
C3035 C 0.58572 0.15469 0.17072 0.0
C3036 C 0.11166 0.6744 0.11577 0.0
C3037 C 0.09907 0.66207 0.10489 0.0
C3038 C 0.11799 0.68905 0.1004 0.0
C3039 C 0.11192 0.69188 0.07366 0.0
H3040 H 0.11574 0.67343 0.13686 0.0
H3041 H 0.12677 0.69887 0.11013 0.0
S3042 S 0.08162 0.66164 0.03427 0.0
N3043 N 0.08269 0.65223 0.06467 0.0
N3044 N 0.09456 0.67988 0.03576 0.0
C3045 C 0.10043 0.67889 0.06188 0.0
C3046 C 0.09401 0.66395 0.07751 0.0
C3047 C 0.55272 0.87028 0.35423 0.0
C3048 C 0.54911 0.86225 0.3289 0.0
C3049 C 0.56663 0.86376 0.3709 0.0
C3050 C 0.57741 0.84897 0.36288 0.0
H3051 H 0.544 0.88087 0.36205 0.0
H3052 H 0.56837 0.86975 0.39083 0.0
S3053 S 0.57508 0.825 0.2967 0.0
N3054 N 0.55886 0.84037 0.29504 0.0
N3055 N 0.58463 0.82764 0.32677 0.0
C3056 C 0.57483 0.84175 0.33672 0.0
C3057 C 0.56074 0.84849 0.31966 0.0
C3058 C 0.38776 0.31719 0.56938 0.0
C3059 C 0.37326 0.30577 0.57652 0.0
C3060 C 0.39337 0.33119 0.58657 0.0
C3061 C 0.38459 0.33439 0.61148 0.0
H3062 H 0.39556 0.31457 0.55114 0.0
H3063 H 0.4055 0.33864 0.58119 0.0
S3064 S 0.34378 0.31061 0.63721 0.0
N3065 N 0.34887 0.3 0.6087 0.0
N3066 N 0.3589 0.32696 0.64033 0.0
C3067 C 0.36893 0.3243 0.61751 0.0
C3068 C 0.36335 0.30986 0.60017 0.0
C3069 C 0.93311 0.1418 0.82033 0.0
C3070 C 0.94869 0.13427 0.83222 0.0
C3071 C 0.91847 0.14744 0.83645 0.0
C3072 C 0.91906 0.14592 0.86497 0.0
H3073 H 0.93237 0.14356 0.79851 0.0
H3074 H 0.90674 0.15329 0.82657 0.0
S3075 S 0.95761 0.12833 0.90574 0.0
N3076 N 0.96422 0.12607 0.87389 0.0
N3077 N 0.93706 0.13709 0.90429 0.0
C3078 C 0.93466 0.13838 0.87697 0.0
C3079 C 0.9494 0.13247 0.86056 0.0
C3080 C 0.89243 0.67912 0.62829 0.0
C3081 C 0.90465 0.66766 0.61467 0.0
C3082 C 0.88509 0.69434 0.61541 0.0
C3083 C 0.88958 0.69857 0.5884 0.0
H3084 H 0.88927 0.67689 0.64952 0.0
H3085 H 0.87628 0.7032 0.62696 0.0
S3086 S 0.9196 0.67199 0.54305 0.0
N3087 N 0.91986 0.66078 0.5721 0.0
N3088 N 0.90609 0.68954 0.54788 0.0
C3089 C 0.901 0.68672 0.57406 0.0
C3090 C 0.90856 0.67124 0.58724 0.0
C3091 C 0.04209 0.13594 0.36508 0.0
C3092 C 0.03907 0.13913 0.33731 0.0
C3093 C 0.05768 0.14245 0.37795 0.0
C3094 C 0.07065 0.15256 0.36352 0.0
H3095 H 0.03204 0.12884 0.3771 0.0
H3096 H 0.05912 0.14039 0.39964 0.0
S3097 S 0.06964 0.16344 0.29003 0.0
N3098 N 0.05073 0.152 0.29538 0.0
N3099 N 0.08007 0.16445 0.31969 0.0
C3100 C 0.06817 0.15517 0.33549 0.0
C3101 C 0.05236 0.14835 0.32232 0.0
C3102 C 0.61086 0.30772 0.09436 0.0
C3103 C 0.60037 0.30145 0.07244 0.0
C3104 C 0.60458 0.32161 0.11126 0.0
C3105 C 0.58755 0.3297 0.10698 0.0
H3106 H 0.62346 0.30106 0.09963 0.0
H3107 H 0.61274 0.32542 0.12865 0.0
S3108 S 0.55618 0.32003 0.04979 0.0
N3109 N 0.57337 0.30608 0.04501 0.0
N3110 N 0.56112 0.33161 0.0775 0.0
C3111 C 0.57757 0.32452 0.08387 0.0
C3112 C 0.58408 0.31051 0.06647 0.0
C3113 C 0.42133 0.85964 0.8643 0.0
C3114 C 0.41262 0.843 0.85932 0.0
C3115 C 0.43537 0.86576 0.84751 0.0
C3116 C 0.44119 0.85545 0.82513 0.0
H3117 H 0.41792 0.86751 0.88216 0.0
H3118 H 0.44252 0.87799 0.85325 0.0
S3119 S 0.42104 0.8124 0.80083 0.0
N3120 N 0.40963 0.81726 0.82874 0.0
N3121 N 0.43562 0.82914 0.79669 0.0
C3122 C 0.43155 0.83963 0.81855 0.0
C3123 C 0.41733 0.83332 0.83573 0.0
C3124 C 0.91548 0.29175 0.90355 0.0
C3125 C 0.89727 0.29118 0.91186 0.0
C3126 C 0.92259 0.30697 0.89045 0.0
C3127 C 0.91176 0.32225 0.8851 0.0
H3128 H 0.92424 0.28016 0.90674 0.0
H3129 H 0.9365 0.30644 0.88348 0.0
S3130 S 0.86352 0.32808 0.90435 0.0
N3131 N 0.8687 0.30747 0.91488 0.0
N3132 N 0.88221 0.33634 0.89062 0.0
C3133 C 0.8937 0.32215 0.89421 0.0
C3134 C 0.88643 0.30659 0.90759 0.0
C3135 C 0.45264 0.15831 0.64116 0.0
C3136 C 0.44962 0.14452 0.6603 0.0
C3137 C 0.43816 0.16693 0.62823 0.0
C3138 C 0.42015 0.16196 0.63379 0.0
H3139 H 0.46633 0.1624 0.63606 0.0
H3140 H 0.44112 0.17726 0.61322 0.0
S3141 S 0.40506 0.12696 0.68281 0.0
N3142 N 0.42741 0.12654 0.68479 0.0
N3143 N 0.40003 0.14269 0.66013 0.0
C3144 C 0.41692 0.14834 0.65313 0.0
C3145 C 0.43171 0.13967 0.66656 0.0
C3146 C 0.58488 0.69006 0.42515 0.0
C3147 C 0.60189 0.69688 0.41731 0.0
C3148 C 0.57716 0.6752 0.4118 0.0
C3149 C 0.58612 0.66665 0.39006 0.0
H3150 H 0.57704 0.69683 0.44074 0.0
H3151 H 0.56373 0.67083 0.41783 0.0
S3152 S 0.63191 0.67812 0.36384 0.0
N3153 N 0.62836 0.69279 0.38858 0.0
N3154 N 0.61353 0.66541 0.36255 0.0
C3155 C 0.60361 0.6727 0.3831 0.0
C3156 C 0.61155 0.6877 0.3969 0.0
C3157 C 0.07506 0.8404 0.15475 0.0
C3158 C 0.07443 0.84289 0.12642 0.0
C3159 C 0.06135 0.84724 0.17156 0.0
C3160 C 0.0466 0.85683 0.16062 0.0
H3161 H 0.08596 0.83268 0.16387 0.0
H3162 H 0.06203 0.84458 0.19319 0.0
S3163 S 0.03848 0.86676 0.08777 0.0
N3164 N 0.05785 0.85557 0.0882 0.0
N3165 N 0.03214 0.86847 0.11983 0.0
C3166 C 0.0461 0.85989 0.13245 0.0
C3167 C 0.06001 0.85291 0.11533 0.0
C3168 C 0.61488 0.80889 0.91163 0.0
C3169 C 0.60396 0.79547 0.92355 0.0
C3170 C 0.60717 0.82313 0.89679 0.0
C3171 C 0.58829 0.82435 0.89325 0.0
H3172 H 0.62951 0.808 0.91302 0.0
H3173 H 0.61607 0.8329 0.8872 0.0
S3174 S 0.55386 0.79246 0.92037 0.0
N3175 N 0.57339 0.78436 0.93125 0.0
N3176 N 0.55888 0.81097 0.9031 0.0
C3177 C 0.5772 0.81135 0.90591 0.0
C3178 C 0.58505 0.79693 0.92113 0.0
C3179 C 0.42697 0.34632 0.18403 0.0
C3180 C 0.44021 0.358 0.17326 0.0
C3181 C 0.41326 0.33916 0.16754 0.0
C3182 C 0.4123 0.34351 0.13977 0.0
H3183 H 0.42769 0.34208 0.20508 0.0
H3184 H 0.4038 0.32956 0.17627 0.0
S3185 S 0.44349 0.37367 0.10179 0.0
N3186 N 0.45127 0.37386 0.13322 0.0
N3187 N 0.42538 0.36054 0.10235 0.0
C3188 C 0.4249 0.35586 0.12905 0.0
C3189 C 0.4389 0.36309 0.14578 0.0
C3190 C 0.87451 0.19065 0.39478 0.0
C3191 C 0.8793 0.1933 0.42212 0.0
C3192 C 0.88041 0.17533 0.38055 0.0
C3193 C 0.89124 0.16212 0.39323 0.0
H3194 H 0.86716 0.20104 0.38379 0.0
H3195 H 0.87745 0.17447 0.35903 0.0
S3196 S 0.9047 0.16123 0.46578 0.0
N3197 N 0.89349 0.18046 0.46229 0.0
N3198 N 0.90449 0.15151 0.43556 0.0
C3199 C 0.89493 0.16394 0.4211 0.0
C3200 C 0.88898 0.17958 0.43556 0.0
C3201 C 0.07166 0.63071 0.62665 0.0
C3202 C 0.08254 0.64561 0.63389 0.0
C3203 C 0.05797 0.62443 0.64393 0.0
C3204 C 0.05467 0.63281 0.66911 0.0
H3205 H 0.07312 0.62446 0.60686 0.0
H3206 H 0.04912 0.61376 0.63668 0.0
S3207 S 0.08108 0.67048 0.69939 0.0
N3208 N 0.09024 0.66741 0.66913 0.0
N3209 N 0.06489 0.65513 0.702 0.0
C3210 C 0.06645 0.64668 0.67758 0.0
C3211 C 0.08032 0.65317 0.65991 0.0
C3212 C 0.61912 0.19078 0.60873 0.0
C3213 C 0.61247 0.19349 0.58226 0.0
C3214 C 0.6123 0.17692 0.62519 0.0
C3215 C 0.59858 0.16526 0.61582 0.0
H3216 H 0.62881 0.20014 0.61746 0.0
H3217 H 0.61718 0.17586 0.64589 0.0
S3218 S 0.57848 0.16507 0.54672 0.0
N3219 N 0.59311 0.18199 0.54621 0.0
N3220 N 0.57979 0.15627 0.57751 0.0
C3221 C 0.59277 0.16697 0.58873 0.0
C3222 C 0.59981 0.18104 0.57189 0.0
C3223 C 0.05917 0.36896 0.84768 0.0
C3224 C 0.05657 0.3634 0.82063 0.0
C3225 C 0.07337 0.36193 0.8633 0.0
C3226 C 0.08543 0.3491 0.85238 0.0
H3227 H 0.04939 0.37774 0.85749 0.0
H3228 H 0.07408 0.36554 0.8846 0.0
S3229 S 0.08663 0.33301 0.7811 0.0
N3230 N 0.06879 0.3465 0.78242 0.0
N3231 N 0.09551 0.3332 0.8119 0.0
C3232 C 0.08394 0.34469 0.82471 0.0
C3233 C 0.06951 0.35187 0.8088 0.0
C3234 C 0.89832 0.81129 0.0763 0.0
C3235 C 0.88328 0.80044 0.08291 0.0
C3236 C 0.90412 0.82513 0.09364 0.0
C3237 C 0.89504 0.82871 0.11819 0.0
H3238 H 0.90625 0.80843 0.05829 0.0
H3239 H 0.91653 0.83223 0.08861 0.0
S3240 S 0.85318 0.80621 0.14272 0.0
N3241 N 0.85831 0.79544 0.11436 0.0
N3242 N 0.86878 0.82206 0.14632 0.0
C3243 C 0.87904 0.81906 0.12383 0.0
C3244 C 0.87323 0.80481 0.10631 0.0
C3245 C 0.41673 0.65155 0.32669 0.0
C3246 C 0.41508 0.64642 0.35409 0.0
C3247 C 0.43054 0.64447 0.31032 0.0
C3248 C 0.44316 0.63203 0.32082 0.0
H3249 H 0.40778 0.66173 0.31822 0.0
H3250 H 0.43188 0.64939 0.28968 0.0
S3251 S 0.44432 0.61384 0.39107 0.0
N3252 N 0.42675 0.62768 0.39073 0.0
N3253 N 0.45274 0.6144 0.36001 0.0
C3254 C 0.44104 0.62605 0.34777 0.0
C3255 C 0.42698 0.63325 0.36441 0.0
C3256 C 0.41536 0.17117 0.09048 0.0
C3257 C 0.40605 0.16585 0.11411 0.0
C3258 C 0.40847 0.18476 0.07354 0.0
C3259 C 0.39208 0.19361 0.07965 0.0
H3260 H 0.4286 0.16563 0.08591 0.0
H3261 H 0.41649 0.18899 0.05622 0.0
S3262 S 0.36127 0.18277 0.13706 0.0
N3263 N 0.37847 0.16868 0.14078 0.0
N3264 N 0.3659 0.19487 0.10972 0.0
C3265 C 0.382 0.18749 0.10214 0.0
C3266 C 0.38893 0.17348 0.1192 0.0
C3267 C 0.54967 0.62714 0.85611 0.0
C3268 C 0.54812 0.63303 0.82903 0.0
C3269 C 0.56358 0.63355 0.87285 0.0
C3270 C 0.57648 0.64594 0.86303 0.0
H3271 H 0.53941 0.61846 0.86496 0.0
H3272 H 0.56374 0.62946 0.89399 0.0
S3273 S 0.57969 0.66372 0.79278 0.0
N3274 N 0.56166 0.65046 0.79238 0.0
N3275 N 0.5878 0.66264 0.82402 0.0
C3276 C 0.57586 0.65092 0.83551 0.0
C3277 C 0.56163 0.64445 0.81847 0.0
C3278 C 0.09246 0.8254 0.59169 0.0
C3279 C 0.0796 0.82242 0.61227 0.0
C3280 C 0.10106 0.81078 0.57879 0.0
C3281 C 0.09731 0.79284 0.5866 0.0
H3282 H 0.09585 0.83909 0.58555 0.0
H3283 H 0.11091 0.8135 0.56298 0.0
S3284 S 0.06483 0.77795 0.6395 0.0
N3285 N 0.06358 0.80028 0.63988 0.0
N3286 N 0.07979 0.77288 0.61575 0.0
C3287 C 0.08447 0.78973 0.60709 0.0
C3288 C 0.0756 0.80452 0.61993 0.0
C3289 C 0.91717 0.34182 0.33297 0.0
C3290 C 0.91547 0.34628 0.36062 0.0
C3291 C 0.93136 0.34883 0.31726 0.0
C3292 C 0.94432 0.36055 0.32868 0.0
H3293 H 0.90792 0.33222 0.32374 0.0
H3294 H 0.93266 0.34446 0.29634 0.0
S3295 S 0.9456 0.37675 0.39997 0.0
N3296 N 0.92756 0.36357 0.39854 0.0
N3297 N 0.95423 0.37674 0.36903 0.0
C3298 C 0.94223 0.36584 0.35593 0.0
C3299 C 0.92779 0.3587 0.37191 0.0
C3300 C 0.40319 0.82587 0.41247 0.0
C3301 C 0.3987 0.82886 0.38507 0.0
C3302 C 0.39633 0.81088 0.42659 0.0
C3303 C 0.38478 0.79836 0.41377 0.0
H3304 H 0.41263 0.83479 0.42271 0.0
H3305 H 0.40065 0.80866 0.44736 0.0
S3306 S 0.36875 0.80023 0.34241 0.0
N3307 N 0.38168 0.81834 0.34583 0.0
N3308 N 0.36882 0.79016 0.37236 0.0
C3309 C 0.37954 0.80165 0.38676 0.0
C3310 C 0.3865 0.81691 0.3724 0.0
C3311 C 0.94588 0.63152 0.13378 0.0
C3312 C 0.94959 0.63572 0.16106 0.0
C3313 C 0.93061 0.63858 0.12071 0.0
C3314 C 0.9186 0.65021 0.13441 0.0
H3315 H 0.95523 0.62327 0.12217 0.0
H3316 H 0.9288 0.63576 0.09928 0.0
S3317 S 0.92138 0.66398 0.20671 0.0
N3318 N 0.93943 0.65113 0.20194 0.0
N3319 N 0.91058 0.66439 0.17732 0.0
C3320 C 0.92161 0.6537 0.16211 0.0
C3321 C 0.93713 0.64641 0.17548 0.0
C3322 C 0.11708 0.19272 0.89173 0.0
C3323 C 0.11104 0.19621 0.91832 0.0
C3324 C 0.11015 0.17815 0.8768 0.0
C3325 C 0.09695 0.1666 0.88797 0.0
H3326 H 0.12628 0.20202 0.88172 0.0
H3327 H 0.11423 0.17669 0.85577 0.0
S3328 S 0.07931 0.16791 0.95843 0.0
N3329 N 0.0931 0.18549 0.95649 0.0
N3330 N 0.08001 0.15806 0.92832 0.0
C3331 C 0.09193 0.16905 0.91524 0.0
C3332 C 0.099 0.18388 0.93045 0.0
C3333 C 0.56659 0.35812 0.6285 0.0
C3334 C 0.57138 0.33968 0.62805 0.0
C3335 C 0.55105 0.36403 0.64228 0.0
C3336 C 0.53967 0.35164 0.65569 0.0
H3337 H 0.57472 0.36798 0.61767 0.0
H3338 H 0.54753 0.37827 0.64154 0.0
S3339 S 0.54658 0.30204 0.66146 0.0
N3340 N 0.56378 0.30916 0.64287 0.0
N3341 N 0.53468 0.32031 0.66893 0.0
C3342 C 0.5446 0.33327 0.65609 0.0
C3343 C 0.56045 0.32727 0.64225 0.0
C3344 C 0.04163 0.48509 0.23164 0.0
C3345 C 0.05417 0.47734 0.24972 0.0
C3346 C 0.04158 0.50373 0.22661 0.0
C3347 C 0.05414 0.51524 0.23933 0.0
H3348 H 0.03146 0.47676 0.22185 0.0
H3349 H 0.03153 0.5092 0.2128 0.0
S3350 S 0.09027 0.50153 0.28746 0.0
N3351 N 0.07992 0.48241 0.27957 0.0
N3352 N 0.0797 0.5176 0.27031 0.0
C3353 C 0.06703 0.50763 0.25696 0.0
C3354 C 0.06704 0.48863 0.26218 0.0
C3355 C 0.75756 0.81574 0.48752 0.0
C3356 C 0.76476 0.80406 0.50735 0.0
C3357 C 0.73912 0.81514 0.48074 0.0
C3358 C 0.72743 0.80268 0.49333 0.0
H3359 H 0.76626 0.8253 0.47708 0.0
H3360 H 0.73407 0.82414 0.46508 0.0
S3361 S 0.73956 0.7695 0.54691 0.0
N3362 N 0.75879 0.77986 0.53967 0.0
N3363 N 0.72411 0.77891 0.52717 0.0
C3364 C 0.73442 0.79117 0.51351 0.0
C3365 C 0.7531 0.79183 0.52048 0.0
C3366 C 0.45312 0.48782 0.75395 0.0
C3367 C 0.43944 0.48028 0.73765 0.0
C3368 C 0.45288 0.50619 0.76083 0.0
C3369 C 0.43905 0.51765 0.7514 0.0
H3370 H 0.46409 0.47945 0.76147 0.0
H3371 H 0.46382 0.51155 0.77311 0.0
S3372 S 0.39993 0.50444 0.70852 0.0
N3373 N 0.41156 0.48551 0.71254 0.0
N3374 N 0.41111 0.52018 0.72551 0.0
C3375 C 0.42518 0.51026 0.7353 0.0
C3376 C 0.42535 0.4915 0.72847 0.0
C3377 C 0.75565 0.18799 0.00281 0.0
C3378 C 0.76313 0.19924 0.98266 0.0
C3379 C 0.73708 0.18834 0.00852 0.0
C3380 C 0.72532 0.19985 0.99413 0.0
H3381 H 0.76427 0.17907 0.01458 0.0
H3382 H 0.73187 0.1795 0.02428 0.0
S3383 S 0.73812 0.2317 0.93907 0.0
N3384 N 0.75736 0.2219 0.94787 0.0
N3385 N 0.72242 0.22277 0.9589 0.0
C3386 C 0.73259 0.21104 0.97375 0.0
C3387 C 0.75151 0.21071 0.96798 0.0
C3388 C 0.93636 0.48616 0.74397 0.0
C3389 C 0.94565 0.47966 0.76695 0.0
C3390 C 0.93628 0.50464 0.73752 0.0
C3391 C 0.94548 0.5173 0.75381 0.0
H3392 H 0.92955 0.47684 0.73038 0.0
H3393 H 0.92912 0.50902 0.71947 0.0
S3394 S 0.97118 0.50729 0.81691 0.0
N3395 N 0.96342 0.48741 0.80688 0.0
N3396 N 0.96395 0.52205 0.79417 0.0
C3397 C 0.9545 0.51102 0.77719 0.0
C3398 C 0.95445 0.49223 0.78387 0.0
C3399 C 0.25384 0.1782 0.50732 0.0
C3400 C 0.26574 0.19041 0.49459 0.0
C3401 C 0.23534 0.17809 0.50095 0.0
C3402 C 0.22815 0.19021 0.48169 0.0
H3403 H 0.25887 0.16876 0.5224 0.0
H3404 H 0.22656 0.16858 0.51133 0.0
S3405 S 0.25349 0.22561 0.44403 0.0
N3406 N 0.269 0.21533 0.46265 0.0
N3407 N 0.23422 0.21516 0.45074 0.0
C3408 C 0.23994 0.20244 0.46879 0.0
C3409 C 0.25874 0.20254 0.47524 0.0
C3410 C 0.55383 0.5011 0.27275 0.0
C3411 C 0.55145 0.51426 0.25238 0.0
C3412 C 0.55324 0.4826 0.26665 0.0
C3413 C 0.55042 0.47651 0.2399 0.0
H3414 H 0.55599 0.50512 0.29366 0.0
H3415 H 0.55452 0.47302 0.28321 0.0
S3416 S 0.54432 0.50539 0.17885 0.0
N3417 N 0.5462 0.51986 0.20424 0.0
N3418 N 0.54639 0.4851 0.19257 0.0
C3419 C 0.54864 0.48951 0.21917 0.0
C3420 C 0.54888 0.50836 0.22544 0.0
C3421 C 0.2372 0.81248 0.99561 0.0
C3422 C 0.23046 0.80127 0.01638 0.0
C3423 C 0.25572 0.8128 0.98945 0.0
C3424 C 0.26809 0.80211 0.0041 0.0
H3425 H 0.22802 0.82054 0.98342 0.0
H3426 H 0.26038 0.82129 0.9729 0.0
S3427 S 0.2573 0.77117 0.06126 0.0
N3428 N 0.23755 0.77986 0.05234 0.0
N3429 N 0.27239 0.78035 0.04066 0.0
C3430 C 0.26157 0.79127 0.02545 0.0
C3431 C 0.24273 0.79087 0.0316 0.0
C3432 C 0.55188 0.98108 0.72947 0.0
C3433 C 0.55569 0.976 0.7564 0.0
C3434 C 0.55174 -0.00069 0.72175 0.0
C3435 C 0.55559 0.01305 0.74064 0.0
H3436 H 0.54827 0.97093 0.71451 0.0
H3437 H 0.54822 0.00273 0.701 0.0
S3438 S 0.56755 0.00674 0.81319 0.0
N3439 N 0.56436 0.98599 0.8016 0.0
N3440 N 0.564 0.02038 0.78712 0.0
C3441 C 0.56011 0.00812 0.76737 0.0
C3442 C 0.56015 0.98956 0.77526 0.0
C3443 C 0.2545 0.28894 0.01795 0.0
C3444 C 0.2669 0.3009 0.00577 0.0
C3445 C 0.23599 0.29001 0.01217 0.0
C3446 C 0.22924 0.30308 0.99401 0.0
H3447 H 0.2592 0.27837 0.0315 0.0
H3448 H 0.22695 0.28023 0.02144 0.0
S3449 S 0.25584 0.33868 0.95895 0.0
N3450 N 0.27105 0.32701 0.97628 0.0
N3451 N 0.23613 0.32897 0.96531 0.0
C3452 C 0.2414 0.31543 0.98226 0.0
C3453 C 0.26027 0.31436 0.98818 0.0
C3454 C 0.95704 0.00409 0.25547 0.0
C3455 C 0.94058 0.01362 0.25475 0.0
C3456 C 0.95772 0.98571 0.24873 0.0
C3457 C 0.94191 0.97626 0.24153 0.0
H3458 H 0.96946 0.01094 0.26116 0.0
H3459 H 0.97063 0.97874 0.24959 0.0
S3460 S 0.89552 0.99514 0.23669 0.0
N3461 N 0.9082 0.0125 0.24606 0.0
N3462 N 0.90941 0.97767 0.23394 0.0
C3463 C 0.92537 0.98562 0.2408 0.0
C3464 C 0.92473 0.00442 0.24723 0.0
C3465 C 0.25508 0.70034 0.47142 0.0
C3466 C 0.26667 0.6883 0.48511 0.0
C3467 C 0.23668 0.70132 0.47794 0.0
C3468 C 0.22919 0.69027 0.49832 0.0
H3469 H 0.26037 0.7095 0.45615 0.0
H3470 H 0.22827 0.71097 0.46716 0.0
S3471 S 0.25359 0.65578 0.5391 0.0
N3472 N 0.26926 0.66443 0.51894 0.0
N3473 N 0.2346 0.66652 0.5316 0.0
C3474 C 0.2405 0.67779 0.51163 0.0
C3475 C 0.25928 0.67679 0.50498 0.0
C3476 C 0.4412 0.01235 0.2675 0.0
C3477 C 0.44513 0.01862 0.24114 0.0
C3478 C 0.43997 0.99382 0.27317 0.0
C3479 C 0.44283 0.98077 0.25279 0.0
H3480 H 0.43953 0.02181 0.28413 0.0
H3481 H 0.43694 0.9897 0.29379 0.0
S3482 S 0.45276 0.9901 0.1801 0.0
N3483 N 0.45062 0.01032 0.19403 0.0
N3484 N 0.44968 0.97547 0.20503 0.0
C3485 C 0.44649 0.98685 0.22621 0.0
C3486 C 0.44735 0.00575 0.22033 0.0
C3487 C 0.76227 0.67764 0.98339 0.0
C3488 C 0.7698 0.6928 0.99645 0.0
C3489 C 0.74396 0.67745 0.97582 0.0
C3490 C 0.73282 0.69256 0.98059 0.0
H3491 H 0.77054 0.66584 0.97924 0.0
H3492 H 0.73851 0.66551 0.96597 0.0
S3493 S 0.74623 0.73558 0.01383 0.0
N3494 N 0.76491 0.72325 0.01367 0.0
N3495 N 0.73051 0.72295 -0.00073 0.0
C3496 C 0.74026 0.70781 0.99348 0.0
C3497 C 0.75877 0.70791 0.00147 0.0
C3498 C 0.06509 0.00911 0.73793 0.0
C3499 C 0.05325 0.01684 0.75711 0.0
C3500 C 0.06433 0.99059 0.73182 0.0
C3501 C 0.05174 0.97921 0.74479 0.0
H3502 H 0.075 0.01746 0.72757 0.0
H3503 H 0.07365 0.9851 0.71695 0.0
S3504 S 0.01686 0.993 0.79489 0.0
N3505 N 0.02795 0.01186 0.7879 0.0
N3506 N 0.02665 0.97702 0.77659 0.0
C3507 C 0.03978 0.98677 0.76386 0.0
C3508 C 0.04051 0.00559 0.77 0.0
C3509 C 0.7431 0.29192 0.52564 0.0
C3510 C 0.73071 0.30368 0.51305 0.0
C3511 C 0.7616 0.29282 0.51971 0.0
C3512 C 0.76833 0.30544 0.50083 0.0
H3513 H 0.73842 0.28177 0.53993 0.0
H3514 H 0.77062 0.28318 0.52933 0.0
S3515 S 0.74159 0.33975 0.46319 0.0
N3516 N 0.72644 0.32864 0.48143 0.0
N3517 N 0.76137 0.33049 0.47052 0.0
C3518 C 0.75616 0.31759 0.48861 0.0
C3519 C 0.73731 0.31671 0.49472 0.0
loop_
_geom_bond_atom_site_label_1
_geom_bond_atom_site_label_2
_geom_bond_distance
_geom_bond_site_symmetry_2
_ccdc_geom_bond_type
Li0 N17 1.990 1_455 S
Li0 O60 1.956 . S
Li0 O61 1.970 . S
Li0 O62 1.961 . S
Li1 N25 1.990 . S
Li1 O60 1.970 . S
Li1 O61 1.956 . S
Li1 O63 1.961 . S
Li2 N47 1.990 . S
Li2 O60 1.961 . S
Li2 O62 1.956 . S
Li2 O63 1.970 . S
Li3 N53 1.990 . S
Li3 O61 1.961 . S
Li3 O62 1.970 . S
Li3 O63 1.956 . S
C4 C6 1.348 . S
C4 C7 1.356 . S
C4 O60 1.325 . S
N5 C8 1.314 . S
N5 C9 1.279 . S
C6 C4 1.348 . S
C6 C8 1.353 1_455 S
C6 H64 0.929 . S
C7 C4 1.356 . S
C7 C9 1.358 1_455 S
C7 H65 0.930 . S
C8 N5 1.314 . S
C8 C6 1.353 1_655 S
C8 H66 0.930 . S
C9 N5 1.279 . S
C9 C7 1.358 1_655 S
C9 H67 0.930 . S
C10 C13 1.348 . S
C10 C14 1.356 . S
C10 O61 1.325 . S
C11 N12 1.279 . S
C11 C14 1.358 . S
C11 H68 0.930 . S
N12 C11 1.279 . S
N12 C15 1.314 . S
C13 C10 1.348 . S
C13 C15 1.353 . S
C13 H69 0.929 . S
C14 C10 1.356 . S
C14 C11 1.358 . S
C14 H70 0.930 . S
C15 N12 1.314 . S
C15 C13 1.353 . S
C15 H71 0.930 . S
C16 N17 1.314 . S
C16 C21 1.353 . S
C16 H22 0.893 1_655 S
N17 Li0 1.990 1_655 S
N17 C16 1.314 . S
N17 C19 1.279 . S
C18 C19 1.358 . S
C18 C20 1.356 . S
C18 H72 0.930 . S
C19 N17 1.279 . S
C19 C18 1.358 . S
C19 H23 0.930 . S
C20 C18 1.356 . S
C20 C21 1.348 . S
C21 C16 1.353 . S
C21 C20 1.348 . S
C21 H73 0.929 . S
H22 C16 0.893 1_455 S
H23 C19 0.930 . S
C24 N25 1.314 . S
C24 C26 1.353 . S
C24 H30 0.930 . S
N25 Li1 1.990 . S
N25 C24 1.314 . S
N25 C28 1.279 . S
C26 C24 1.353 . S
C26 C29 1.348 . S
C26 H74 0.929 . S
C27 C28 1.358 . S
C27 C29 1.356 . S
C27 H75 0.930 . S
C28 N25 1.279 . S
C28 C27 1.358 . S
C28 H31 0.930 . S
C29 C26 1.348 . S
C29 C27 1.356 . S
H30 C24 0.930 . S
H31 C28 0.930 . S
C32 C34 1.348 . S
C32 C35 1.356 . S
C32 O62 1.325 . S
N33 C36 1.314 . S
N33 C37 1.279 . S
C34 C32 1.348 . S
C34 C36 1.353 . S
C34 H76 0.929 . S
C35 C32 1.356 . S
C35 C37 1.358 . S
C35 H77 0.930 . S
C36 N33 1.314 . S
C36 C34 1.353 . S
C36 H78 0.930 . S
C37 N33 1.279 . S
C37 C35 1.358 . S
C37 H79 0.930 . S
C38 C39 1.348 . S
C38 C40 1.356 . S
C38 O63 1.325 . S
C39 C38 1.348 . S
C39 C41 1.353 . S
C39 H80 0.929 . S
C40 C38 1.356 . S
C40 C42 1.358 . S
C40 H81 0.930 . S
C41 C39 1.353 . S
C41 N43 1.314 . S
C41 H82 0.930 . S
C42 C40 1.358 . S
C42 N43 1.279 . S
C42 H83 0.930 . S
N43 C41 1.314 . S
N43 C42 1.279 . S
C44 C46 1.353 . S
C44 N47 1.314 . S
C44 H50 0.930 . S
C45 N47 1.279 . S
C45 C48 1.358 . S
C45 H51 0.930 . S
C46 C44 1.353 . S
C46 C49 1.348 . S
C46 H84 0.929 . S
N47 Li2 1.990 . S
N47 C44 1.314 . S
N47 C45 1.279 . S
C48 C45 1.358 . S
C48 C49 1.356 . S
C48 H85 0.930 . S
C49 C46 1.348 . S
C49 C48 1.356 . S
H50 C44 0.930 . S
H51 C45 0.930 . S
C52 N53 1.314 . S
C52 C54 1.353 . S
C52 H58 0.930 . S
N53 Li3 1.990 . S
N53 C52 1.314 . S
N53 C56 1.279 . S
C54 C52 1.353 . S
C54 C57 1.348 . S
C54 H86 0.929 . S
C55 C56 1.358 . S
C55 C57 1.356 . S
C55 H87 0.930 . S
C56 N53 1.279 . S
C56 C55 1.358 . S
C56 H59 0.930 . S
C57 C54 1.348 . S
C57 C55 1.356 . S
H58 C52 0.930 . S
H59 C56 0.930 . S
O60 Li0 1.956 . S
O60 Li1 1.970 . S
O60 Li2 1.961 . S
O60 C4 1.325 . S
O61 Li0 1.970 . S
O61 Li1 1.956 . S
O61 Li3 1.961 . S
O61 C10 1.325 . S
O62 Li0 1.961 . S
O62 Li2 1.956 . S
O62 Li3 1.970 . S
O62 C32 1.325 . S
O63 Li1 1.961 . S
O63 Li2 1.970 . S
O63 Li3 1.956 . S
O63 C38 1.325 . S
H64 C6 0.929 . S
H65 C7 0.930 . S
H66 C8 0.930 . S
H67 C9 0.930 . S
H68 C11 0.930 . S
H69 C13 0.929 . S
H70 C14 0.930 . S
H71 C15 0.930 . S
H72 C18 0.930 . S
H73 C21 0.929 . S
H74 C26 0.929 . S
H75 C27 0.930 . S
H76 C34 0.929 . S
H77 C35 0.930 . S
H78 C36 0.930 . S
H79 C37 0.930 . S
H80 C39 0.929 . S
H81 C40 0.930 . S
H82 C41 0.930 . S
H83 C42 0.930 . S
H84 C46 0.929 . S
H85 C48 0.930 . S
H86 C54 0.929 . S
H87 C55 0.930 . S
Li88 N105 1.990 . S
Li88 O148 1.956 . S
Li88 O149 1.970 . S
Li88 O150 1.961 . S
Li89 N113 1.990 . S
Li89 O148 1.970 . S
Li89 O149 1.956 . S
Li89 O151 1.961 . S
Li90 N135 1.990 . S
Li90 O148 1.961 . S
Li90 O150 1.956 . S
Li90 O151 1.970 . S
Li91 N141 1.990 . S
Li91 O149 1.961 . S
Li91 O150 1.970 . S
Li91 O151 1.956 . S
C92 C94 1.348 . S
C92 C95 1.356 . S
C92 O148 1.325 . S
N93 C96 1.314 . S
N93 C97 1.279 . S
C94 C92 1.348 . S
C94 C96 1.353 . S
C94 H152 0.929 . S
C95 C92 1.356 . S
C95 C97 1.358 . S
C95 H153 0.930 . S
C96 N93 1.314 . S
C96 C94 1.353 . S
C96 H154 0.930 . S
C97 N93 1.279 . S
C97 C95 1.358 . S
C97 H155 0.930 . S
C98 C101 1.348 . S
C98 C102 1.356 . S
C98 O149 1.325 . S
C99 N100 1.279 . S
C99 C102 1.358 . S
C99 H156 0.930 . S
N100 C99 1.279 . S
N100 C103 1.314 . S
C101 C98 1.348 . S
C101 C103 1.353 . S
C101 H157 0.929 . S
C102 C98 1.356 . S
C102 C99 1.358 . S
C102 H158 0.930 . S
C103 N100 1.314 . S
C103 C101 1.353 . S
C103 H159 0.930 . S
C104 N105 1.314 . S
C104 C109 1.353 . S
C104 H110 0.930 . S
N105 Li88 1.990 . S
N105 C104 1.314 . S
N105 C107 1.279 . S
C106 C107 1.358 . S
C106 C108 1.356 . S
C106 H160 0.930 . S
C107 N105 1.279 . S
C107 C106 1.358 . S
C107 H111 0.930 . S
C108 C106 1.356 . S
C108 C109 1.348 . S
C109 C104 1.353 . S
C109 C108 1.348 . S
C109 H161 0.929 . S
H110 C104 0.930 . S
H111 C107 0.930 . S
C112 N113 1.314 . S
C112 C114 1.353 . S
C112 H118 0.930 . S
N113 Li89 1.990 . S
N113 C112 1.314 . S
N113 C116 1.279 . S
C114 C112 1.353 . S
C114 C117 1.348 . S
C114 H162 0.929 . S
C115 C116 1.358 . S
C115 C117 1.356 . S
C115 H163 0.930 . S
C116 N113 1.279 . S
C116 C115 1.358 . S
C116 H119 0.930 . S
C117 C114 1.348 . S
C117 C115 1.356 . S
H118 C112 0.930 . S
H119 C116 0.930 . S
C120 C122 1.348 . S
C120 C123 1.356 . S
C120 O150 1.325 . S
N121 C124 1.314 . S
N121 C125 1.279 . S
C122 C120 1.348 . S
C122 C124 1.353 . S
C122 H164 0.929 . S
C123 C120 1.356 . S
C123 C125 1.358 . S
C123 H165 0.930 . S
C124 N121 1.314 . S
C124 C122 1.353 . S
C124 H166 0.930 . S
C125 N121 1.279 . S
C125 C123 1.358 . S
C125 H167 0.930 . S
C126 C127 1.348 . S
C126 C128 1.356 . S
C126 O151 1.325 . S
C127 C126 1.348 . S
C127 C129 1.353 . S
C127 H168 0.929 . S
C128 C126 1.356 . S
C128 C130 1.358 . S
C128 H169 0.930 . S
C129 C127 1.353 . S
C129 N131 1.314 . S
C129 H170 0.930 . S
C130 C128 1.358 . S
C130 N131 1.279 . S
C130 H171 0.930 . S
N131 C129 1.314 . S
N131 C130 1.279 . S
C132 C134 1.353 . S
C132 N135 1.314 . S
C132 H138 0.930 . S
C133 N135 1.279 . S
C133 C136 1.358 . S
C133 H139 0.930 . S
C134 C132 1.353 . S
C134 C137 1.348 . S
C134 H172 0.929 . S
N135 Li90 1.990 . S
N135 C132 1.314 . S
N135 C133 1.279 . S
C136 C133 1.358 . S
C136 C137 1.356 . S
C136 H173 0.930 . S
C137 C134 1.348 . S
C137 C136 1.356 . S
H138 C132 0.930 . S
H139 C133 0.930 . S
C140 N141 1.314 . S
C140 C142 1.353 . S
C140 H146 0.930 . S
N141 Li91 1.990 . S
N141 C140 1.314 . S
N141 C144 1.279 . S
C142 C140 1.353 . S
C142 C145 1.348 . S
C142 H174 0.929 . S
C143 C144 1.358 . S
C143 C145 1.356 . S
C143 H175 0.930 . S
C144 N141 1.279 . S
C144 C143 1.358 . S
C144 H147 0.930 . S
C145 C142 1.348 . S
C145 C143 1.356 . S
H146 C140 0.930 . S
H147 C144 0.930 . S
O148 Li88 1.956 . S
O148 Li89 1.970 . S
O148 Li90 1.961 . S
O148 C92 1.325 . S
O149 Li88 1.970 . S
O149 Li89 1.956 . S
O149 Li91 1.961 . S
O149 C98 1.325 . S
O150 Li88 1.961 . S
O150 Li90 1.956 . S
O150 Li91 1.970 . S
O150 C120 1.325 . S
O151 Li89 1.961 . S
O151 Li90 1.970 . S
O151 Li91 1.956 . S
O151 C126 1.325 . S
H152 C94 0.929 . S
H153 C95 0.930 . S
H154 C96 0.930 . S
H155 C97 0.930 . S
H156 C99 0.930 . S
H157 C101 0.929 . S
H158 C102 0.930 . S
H159 C103 0.930 . S
H160 C106 0.930 . S
H161 C109 0.929 . S
H162 C114 0.929 . S
H163 C115 0.930 . S
H164 C122 0.929 . S
H165 C123 0.930 . S
H166 C124 0.930 . S
H167 C125 0.930 . S
H168 C127 0.929 . S
H169 C128 0.930 . S
H170 C129 0.930 . S
H171 C130 0.930 . S
H172 C134 0.929 . S
H173 C136 0.930 . S
H174 C142 0.929 . S
H175 C143 0.930 . S
Li176 N193 1.990 . S
Li176 O236 1.956 . S
Li176 O237 1.970 . S
Li176 O238 1.961 . S
Li177 N201 1.990 . S
Li177 O236 1.970 . S
Li177 O237 1.956 . S
Li177 O239 1.961 . S
Li178 N223 1.990 . S
Li178 O236 1.961 . S
Li178 O238 1.956 . S
Li178 O239 1.970 . S
Li179 N229 1.990 . S
Li179 O237 1.961 . S
Li179 O238 1.970 . S
Li179 O239 1.956 . S
C180 C182 1.348 . S
C180 C183 1.356 . S
C180 O236 1.325 . S
N181 C184 1.314 . S
N181 C185 1.279 . S
C182 C180 1.348 . S
C182 C184 1.353 . S
C182 H240 0.929 . S
C183 C180 1.356 . S
C183 C185 1.358 . S
C183 H241 0.930 . S
C184 N181 1.314 . S
C184 C182 1.353 . S
C184 H242 0.930 . S
C185 N181 1.279 . S
C185 C183 1.358 . S
C185 H243 0.930 . S
C186 C189 1.348 . S
C186 C190 1.356 . S
C186 O237 1.325 . S
C187 N188 1.279 . S
C187 C190 1.358 . S
C187 H244 0.930 . S
N188 C187 1.279 . S
N188 C191 1.314 . S
C189 C186 1.348 . S
C189 C191 1.353 . S
C189 H245 0.929 . S
C190 C186 1.356 . S
C190 C187 1.358 . S
C190 H246 0.930 . S
C191 N188 1.314 . S
C191 C189 1.353 . S
C191 H247 0.930 . S
C192 N193 1.314 . S
C192 C197 1.353 . S
C192 H198 0.930 . S
N193 Li176 1.990 . S
N193 C192 1.314 . S
N193 C195 1.279 . S
C194 C195 1.358 . S
C194 C196 1.356 . S
C194 H248 0.930 . S
C195 N193 1.279 . S
C195 C194 1.358 . S
C195 H199 0.930 . S
C196 C194 1.356 . S
C196 C197 1.348 . S
C197 C192 1.353 . S
C197 C196 1.348 . S
C197 H249 0.929 . S
H198 C192 0.930 . S
H199 C195 0.930 . S
C200 N201 1.314 . S
C200 C202 1.353 . S
C200 H206 0.930 . S
N201 Li177 1.990 . S
N201 C200 1.314 . S
N201 C204 1.279 . S
C202 C200 1.353 . S
C202 C205 1.348 . S
C202 H250 0.929 . S
C203 C204 1.358 . S
C203 C205 1.356 . S
C203 H251 0.930 . S
C204 N201 1.279 . S
C204 C203 1.358 . S
C204 H207 0.930 . S
C205 C202 1.348 . S
C205 C203 1.356 . S
H206 C200 0.930 . S
H207 C204 0.930 . S
C208 C210 1.348 . S
C208 C211 1.356 . S
C208 O238 1.325 . S
N209 C212 1.314 . S
N209 C213 1.279 . S
C210 C208 1.348 . S
C210 C212 1.353 . S
C210 H252 0.929 . S
C211 C208 1.356 . S
C211 C213 1.358 . S
C211 H253 0.930 . S
C212 N209 1.314 . S
C212 C210 1.353 . S
C212 H254 0.930 . S
C213 N209 1.279 . S
C213 C211 1.358 . S
C213 H255 0.930 . S
C214 C215 1.348 . S
C214 C216 1.356 . S
C214 O239 1.325 . S
C215 C214 1.348 . S
C215 C217 1.353 . S
C215 H256 0.929 . S
C216 C214 1.356 . S
C216 C218 1.358 . S
C216 H257 0.930 . S
C217 C215 1.353 . S
C217 N219 1.314 . S
C217 H258 0.930 . S
C218 C216 1.358 . S
C218 N219 1.279 . S
C218 H259 0.930 . S
N219 C217 1.314 . S
N219 C218 1.279 . S
C220 C222 1.353 . S
C220 N223 1.314 . S
C220 H226 0.930 . S
C221 N223 1.279 . S
C221 C224 1.358 . S
C221 H227 0.930 . S
C222 C220 1.353 . S
C222 C225 1.348 . S
C222 H260 0.929 . S
N223 Li178 1.990 . S
N223 C220 1.314 . S
N223 C221 1.279 . S
C224 C221 1.358 . S
C224 C225 1.356 . S
C224 H261 0.930 . S
C225 C222 1.348 . S
C225 C224 1.356 . S
H226 C220 0.930 . S
H227 C221 0.930 . S
C228 N229 1.314 . S
C228 C230 1.353 . S
C228 H234 0.930 . S
N229 Li179 1.990 . S
N229 C228 1.314 . S
N229 C232 1.279 . S
C230 C228 1.353 . S
C230 C233 1.348 . S
C230 H262 0.929 . S
C231 C232 1.358 . S
C231 C233 1.356 . S
C231 H263 0.930 . S
C232 N229 1.279 . S
C232 C231 1.358 . S
C232 H235 0.930 . S
C233 C230 1.348 . S
C233 C231 1.356 . S
H234 C228 0.930 . S
H235 C232 0.930 . S
O236 Li176 1.956 . S
O236 Li177 1.970 . S
O236 Li178 1.961 . S
O236 C180 1.325 . S
O237 Li176 1.970 . S
O237 Li177 1.956 . S
O237 Li179 1.961 . S
O237 C186 1.325 . S
O238 Li176 1.961 . S
O238 Li178 1.956 . S
O238 Li179 1.970 . S
O238 C208 1.325 . S
O239 Li177 1.961 . S
O239 Li178 1.970 . S
O239 Li179 1.956 . S
O239 C214 1.325 . S
H240 C182 0.929 . S
H241 C183 0.930 . S
H242 C184 0.930 . S
H243 C185 0.930 . S
H244 C187 0.930 . S
H245 C189 0.929 . S
H246 C190 0.930 . S
H247 C191 0.930 . S
H248 C194 0.930 . S
H249 C197 0.929 . S
H250 C202 0.929 . S
H251 C203 0.930 . S
H252 C210 0.929 . S
H253 C211 0.930 . S
H254 C212 0.930 . S
H255 C213 0.930 . S
H256 C215 0.929 . S
H257 C216 0.930 . S
H258 C217 0.930 . S
H259 C218 0.930 . S
H260 C222 0.929 . S
H261 C224 0.930 . S
H262 C230 0.929 . S
H263 C231 0.930 . S
Li264 N281 1.990 . S
Li264 O324 1.956 . S
Li264 O325 1.970 . S
Li264 O326 1.961 . S
Li265 N289 1.990 . S
Li265 O324 1.970 . S
Li265 O325 1.956 . S
Li265 O327 1.961 . S
Li266 N311 1.990 1_554 S
Li266 O324 1.961 . S
Li266 O326 1.956 . S
Li266 O327 1.970 . S
Li267 N317 1.990 . S
Li267 O325 1.961 . S
Li267 O326 1.970 . S
Li267 O327 1.956 . S
C268 C270 1.348 . S
C268 C271 1.356 . S
C268 O324 1.325 1_556 S
N269 C272 1.314 . S
N269 C273 1.279 . S
C270 C268 1.348 . S
C270 C272 1.353 . S
C270 H328 0.929 1_556 S
C271 C268 1.356 . S
C271 C273 1.358 . S
C271 H329 0.930 . S
C272 N269 1.314 . S
C272 C270 1.353 . S
C272 H330 0.930 . S
C273 N269 1.279 . S
C273 C271 1.358 . S
C273 H331 0.930 . S
C274 C277 1.348 . S
C274 C278 1.356 . S
C274 O325 1.325 . S
C275 N276 1.279 . S
C275 C278 1.358 . S
C275 H332 0.930 . S
N276 C275 1.279 . S
N276 C279 1.314 . S
C277 C274 1.348 . S
C277 C279 1.353 . S
C277 H333 0.929 . S
C278 C274 1.356 . S
C278 C275 1.358 . S
C278 H334 0.930 . S
C279 N276 1.314 . S
C279 C277 1.353 . S
C279 H335 0.930 . S
C280 N281 1.314 . S
C280 C285 1.353 . S
C280 H286 0.930 . S
N281 Li264 1.990 . S
N281 C280 1.314 . S
N281 C283 1.279 . S
C282 C283 1.358 . S
C282 C284 1.356 . S
C282 H336 0.930 . S
C283 N281 1.279 . S
C283 C282 1.358 . S
C283 H287 0.930 . S
C284 C282 1.356 . S
C284 C285 1.348 . S
C285 C280 1.353 . S
C285 C284 1.348 . S
C285 H337 0.929 . S
H286 C280 0.930 . S
H287 C283 0.930 . S
C288 N289 1.314 . S
C288 C290 1.353 . S
C288 H294 0.930 . S
N289 Li265 1.990 . S
N289 C288 1.314 . S
N289 C292 1.279 . S
C290 C288 1.353 . S
C290 C293 1.348 . S
C290 H338 0.929 . S
C291 C292 1.358 . S
C291 C293 1.356 . S
C291 H339 0.930 . S
C292 N289 1.279 . S
C292 C291 1.358 . S
C292 H295 0.930 . S
C293 C290 1.348 . S
C293 C291 1.356 . S
H294 C288 0.930 . S
H295 C292 0.930 . S
C296 C298 1.348 . S
C296 C299 1.356 . S
C296 O326 1.325 . S
N297 C300 1.314 . S
N297 C301 1.279 . S
C298 C296 1.348 . S
C298 C300 1.353 . S
C298 H340 0.929 . S
C299 C296 1.356 . S
C299 C301 1.358 . S
C299 H341 0.930 . S
C300 N297 1.314 . S
C300 C298 1.353 . S
C300 H342 0.930 . S
C301 N297 1.279 . S
C301 C299 1.358 . S
C301 H343 0.930 . S
C302 C303 1.348 1_554 S
C302 C304 1.356 . S
C302 O327 1.325 . S
C303 C302 1.348 1_556 S
C303 C305 1.353 . S
C303 H344 0.929 . S
C304 C302 1.356 . S
C304 C306 1.358 . S
C304 H345 0.930 . S
C305 C303 1.353 . S
C305 N307 1.314 1_556 S
C305 H346 0.930 . S
C306 C304 1.358 . S
C306 N307 1.279 . S
C306 H347 0.930 . S
N307 C305 1.314 1_554 S
N307 C306 1.279 . S
C308 C310 1.353 . S
C308 N311 1.314 . S
C308 H314 0.930 . S
C309 N311 1.279 . S
C309 C312 1.358 . S
C309 H315 0.930 . S
C310 C308 1.353 . S
C310 C313 1.348 . S
C310 H348 0.929 . S
N311 Li266 1.990 1_556 S
N311 C308 1.314 . S
N311 C309 1.279 . S
C312 C309 1.358 . S
C312 C313 1.356 . S
C312 H349 0.930 . S
C313 C310 1.348 . S
C313 C312 1.356 . S
H314 C308 0.930 . S
H315 C309 0.930 . S
C316 N317 1.314 . S
C316 C318 1.353 . S
C316 H322 0.930 . S
N317 Li267 1.990 . S
N317 C316 1.314 . S
N317 C320 1.279 . S
C318 C316 1.353 . S
C318 C321 1.348 . S
C318 H350 0.929 . S
C319 C320 1.358 . S
C319 C321 1.356 . S
C319 H351 0.930 . S
C320 N317 1.279 . S
C320 C319 1.358 . S
C320 H323 0.930 . S
C321 C318 1.348 . S
C321 C319 1.356 . S
H322 C316 0.930 . S
H323 C320 0.930 . S
O324 Li264 1.956 . S
O324 Li265 1.970 . S
O324 Li266 1.961 . S
O324 C268 1.325 1_554 S
O325 Li264 1.970 . S
O325 Li265 1.956 . S
O325 Li267 1.961 . S
O325 C274 1.325 . S
O326 Li264 1.961 . S
O326 Li266 1.956 . S
O326 Li267 1.970 . S
O326 C296 1.325 . S
O327 Li265 1.961 . S
O327 Li266 1.970 . S
O327 Li267 1.956 . S
O327 C302 1.325 . S
H328 C270 0.929 1_554 S
H329 C271 0.930 . S
H330 C272 0.930 . S
H331 C273 0.930 . S
H332 C275 0.930 . S
H333 C277 0.929 . S
H334 C278 0.930 . S
H335 C279 0.930 . S
H336 C282 0.930 . S
H337 C285 0.929 . S
H338 C290 0.929 . S
H339 C291 0.930 . S
H340 C298 0.929 . S
H341 C299 0.930 . S
H342 C300 0.930 . S
H343 C301 0.930 . S
H344 C303 0.929 . S
H345 C304 0.930 . S
H346 C305 0.930 . S
H347 C306 0.930 . S
H348 C310 0.929 . S
H349 C312 0.930 . S
H350 C318 0.929 . S
H351 C319 0.930 . S
Li352 N369 1.990 . S
Li352 O412 1.956 . S
Li352 O413 1.970 . S
Li352 O414 1.961 . S
Li353 N377 1.990 . S
Li353 O412 1.970 . S
Li353 O413 1.956 . S
Li353 O415 1.961 . S
Li354 N399 1.990 . S
Li354 O412 1.961 . S
Li354 O414 1.956 . S
Li354 O415 1.970 . S
Li355 N405 1.990 1_455 S
Li355 O413 1.961 . S
Li355 O414 1.970 . S
Li355 O415 1.956 . S
C356 C358 1.348 . S
C356 C359 1.356 . S
C356 O412 1.325 . S
N357 C360 1.314 . S
N357 C361 1.279 . S
C358 C356 1.348 . S
C358 C360 1.353 . S
C358 H416 0.929 . S
C359 C356 1.356 . S
C359 C361 1.358 . S
C359 H417 0.930 . S
C360 N357 1.314 . S
C360 C358 1.353 . S
C360 H418 0.930 . S
C361 N357 1.279 . S
C361 C359 1.358 . S
C361 H419 0.930 . S
C362 C365 1.348 . S
C362 C366 1.356 . S
C362 O413 1.325 . S
C363 N364 1.279 . S
C363 C366 1.358 . S
C363 H420 0.930 . S
N364 C363 1.279 . S
N364 C367 1.314 . S
C365 C362 1.348 . S
C365 C367 1.353 . S
C365 H421 0.929 . S
C366 C362 1.356 . S
C366 C363 1.358 . S
C366 H422 0.930 . S
C367 N364 1.314 . S
C367 C365 1.353 . S
C367 H423 0.930 . S
C368 N369 1.314 . S
C368 C373 1.353 . S
C368 H374 0.930 . S
N369 Li352 1.990 . S
N369 C368 1.314 . S
N369 C371 1.279 . S
C370 C371 1.358 . S
C370 C372 1.356 . S
C370 H424 0.930 . S
C371 N369 1.279 . S
C371 C370 1.358 . S
C371 H375 0.930 . S
C372 C370 1.356 . S
C372 C373 1.348 . S
C373 C368 1.353 . S
C373 C372 1.348 . S
C373 H425 0.929 . S
H374 C368 0.930 . S
H375 C371 0.930 . S
C376 N377 1.314 . S
C376 C378 1.353 . S
C376 H382 0.930 . S
N377 Li353 1.990 . S
N377 C376 1.314 . S
N377 C380 1.279 . S
C378 C376 1.353 . S
C378 C381 1.348 . S
C378 H426 0.929 . S
C379 C380 1.358 . S
C379 C381 1.356 . S
C379 H427 0.930 . S
C380 N377 1.279 . S
C380 C379 1.358 . S
C380 H383 0.930 . S
C381 C378 1.348 . S
C381 C379 1.356 . S
H382 C376 0.930 . S
H383 C380 0.930 . S
C384 C386 1.348 . S
C384 C387 1.356 . S
C384 O414 1.325 . S
N385 C388 1.314 . S
N385 C389 1.279 . S
C386 C384 1.348 . S
C386 C388 1.353 . S
C386 H428 0.929 . S
C387 C384 1.356 . S
C387 C389 1.358 . S
C387 H429 0.930 . S
C388 N385 1.314 . S
C388 C386 1.353 . S
C388 H430 0.930 . S
C389 N385 1.279 . S
C389 C387 1.358 . S
C389 H431 0.930 . S
C390 C391 1.348 . S
C390 C392 1.356 . S
C390 O415 1.325 . S
C391 C390 1.348 . S
C391 C393 1.353 1_455 S
C391 H432 0.929 . S
C392 C390 1.356 . S
C392 C394 1.358 1_455 S
C392 H433 0.930 . S
C393 C391 1.353 1_655 S
C393 N395 1.314 . S
C393 H434 0.930 . S
C394 C392 1.358 1_655 S
C394 N395 1.279 . S
C394 H435 0.930 . S
N395 C393 1.314 . S
N395 C394 1.279 . S
C396 C398 1.353 . S
C396 N399 1.314 . S
C396 H402 0.930 . S
C397 N399 1.279 . S
C397 C400 1.358 . S
C397 H403 0.930 . S
C398 C396 1.353 . S
C398 C401 1.348 . S
C398 H436 0.929 . S
N399 Li354 1.990 . S
N399 C396 1.314 . S
N399 C397 1.279 . S
C400 C397 1.358 . S
C400 C401 1.356 . S
C400 H437 0.930 . S
C401 C398 1.348 . S
C401 C400 1.356 . S
H402 C396 0.930 . S
H403 C397 0.930 . S
C404 N405 1.314 . S
C404 C406 1.353 . S
C404 H410 0.893 1_655 S
N405 Li355 1.990 1_655 S
N405 C404 1.314 . S
N405 C408 1.279 . S
C406 C404 1.353 . S
C406 C409 1.348 . S
C406 H438 0.929 . S
C407 C408 1.358 . S
C407 C409 1.356 . S
C407 H439 0.930 . S
C408 N405 1.279 . S
C408 C407 1.358 . S
C408 H411 0.930 . S
C409 C406 1.348 . S
C409 C407 1.356 . S
H410 C404 0.893 1_455 S
H411 C408 0.930 . S
O412 Li352 1.956 . S
O412 Li353 1.970 . S
O412 Li354 1.961 . S
O412 C356 1.325 . S
O413 Li352 1.970 . S
O413 Li353 1.956 . S
O413 Li355 1.961 . S
O413 C362 1.325 . S
O414 Li352 1.961 . S
O414 Li354 1.956 . S
O414 Li355 1.970 . S
O414 C384 1.325 . S
O415 Li353 1.961 . S
O415 Li354 1.970 . S
O415 Li355 1.956 . S
O415 C390 1.325 . S
H416 C358 0.929 . S
H417 C359 0.930 . S
H418 C360 0.930 . S
H419 C361 0.930 . S
H420 C363 0.930 . S
H421 C365 0.929 . S
H422 C366 0.930 . S
H423 C367 0.930 . S
H424 C370 0.930 . S
H425 C373 0.929 . S
H426 C378 0.929 . S
H427 C379 0.930 . S
H428 C386 0.929 . S
H429 C387 0.930 . S
H430 C388 0.930 . S
H431 C389 0.930 . S
H432 C391 0.929 . S
H433 C392 0.930 . S
H434 C393 0.930 . S
H435 C394 0.930 . S
H436 C398 0.929 . S
H437 C400 0.930 . S
H438 C406 0.929 . S
H439 C407 0.930 . S
Li440 N457 1.990 . S
Li440 O500 1.956 . S
Li440 O501 1.970 . S
Li440 O502 1.961 . S
Li441 N465 1.990 . S
Li441 O500 1.970 . S
Li441 O501 1.956 . S
Li441 O503 1.961 . S
Li442 N487 1.990 . S
Li442 O500 1.961 . S
Li442 O502 1.956 . S
Li442 O503 1.970 . S
Li443 N493 1.990 . S
Li443 O501 1.961 . S
Li443 O502 1.970 . S
Li443 O503 1.956 . S
C444 C446 1.348 . S
C444 C447 1.356 . S
C444 O500 1.325 . S
N445 C448 1.314 . S
N445 C449 1.279 . S
C446 C444 1.348 . S
C446 C448 1.353 . S
C446 H504 0.929 . S
C447 C444 1.356 . S
C447 C449 1.358 . S
C447 H505 0.930 . S
C448 N445 1.314 . S
C448 C446 1.353 . S
C448 H506 0.930 . S
C449 N445 1.279 . S
C449 C447 1.358 . S
C449 H507 0.930 . S
C450 C453 1.348 . S
C450 C454 1.356 . S
C450 O501 1.325 . S
C451 N452 1.279 . S
C451 C454 1.358 . S
C451 H508 0.930 . S
N452 C451 1.279 . S
N452 C455 1.314 . S
C453 C450 1.348 . S
C453 C455 1.353 . S
C453 H509 0.929 . S
C454 C450 1.356 . S
C454 C451 1.358 . S
C454 H510 0.930 . S
C455 N452 1.314 . S
C455 C453 1.353 . S
C455 H511 0.930 . S
C456 N457 1.314 . S
C456 C461 1.353 . S
C456 H462 0.930 . S
N457 Li440 1.990 . S
N457 C456 1.314 . S
N457 C459 1.279 . S
C458 C459 1.358 . S
C458 C460 1.356 . S
C458 H512 0.930 . S
C459 N457 1.279 . S
C459 C458 1.358 . S
C459 H463 0.930 . S
C460 C458 1.356 . S
C460 C461 1.348 . S
C461 C456 1.353 . S
C461 C460 1.348 . S
C461 H513 0.929 . S
H462 C456 0.930 . S
H463 C459 0.930 . S
C464 N465 1.314 . S
C464 C466 1.353 . S
C464 H470 0.930 . S
N465 Li441 1.990 . S
N465 C464 1.314 . S
N465 C468 1.279 . S
C466 C464 1.353 . S
C466 C469 1.348 . S
C466 H514 0.929 . S
C467 C468 1.358 . S
C467 C469 1.356 . S
C467 H515 0.930 . S
C468 N465 1.279 . S
C468 C467 1.358 . S
C468 H471 0.930 . S
C469 C466 1.348 . S
C469 C467 1.356 . S
H470 C464 0.930 . S
H471 C468 0.930 . S
C472 C474 1.348 . S
C472 C475 1.356 . S
C472 O502 1.325 . S
N473 C476 1.314 . S
N473 C477 1.279 . S
C474 C472 1.348 . S
C474 C476 1.353 . S
C474 H516 0.929 . S
C475 C472 1.356 . S
C475 C477 1.358 . S
C475 H517 0.930 . S
C476 N473 1.314 . S
C476 C474 1.353 . S
C476 H518 0.930 . S
C477 N473 1.279 . S
C477 C475 1.358 . S
C477 H519 0.930 . S
C478 C479 1.348 . S
C478 C480 1.356 . S
C478 O503 1.325 . S
C479 C478 1.348 . S
C479 C481 1.353 . S
C479 H520 0.929 . S
C480 C478 1.356 . S
C480 C482 1.358 . S
C480 H521 0.930 . S
C481 C479 1.353 . S
C481 N483 1.314 . S
C481 H522 0.930 . S
C482 C480 1.358 . S
C482 N483 1.279 . S
C482 H523 0.930 . S
N483 C481 1.314 . S
N483 C482 1.279 . S
C484 C486 1.353 . S
C484 N487 1.314 . S
C484 H490 0.930 . S
C485 N487 1.279 . S
C485 C488 1.358 . S
C485 H491 0.930 . S
C486 C484 1.353 . S
C486 C489 1.348 . S
C486 H524 0.929 . S
N487 Li442 1.990 . S
N487 C484 1.314 . S
N487 C485 1.279 . S
C488 C485 1.358 . S
C488 C489 1.356 . S
C488 H525 0.930 . S
C489 C486 1.348 . S
C489 C488 1.356 . S
H490 C484 0.930 . S
H491 C485 0.930 . S
C492 N493 1.314 . S
C492 C494 1.353 . S
C492 H498 0.930 . S
N493 Li443 1.990 . S
N493 C492 1.314 . S
N493 C496 1.279 . S
C494 C492 1.353 . S
C494 C497 1.348 . S
C494 H526 0.929 . S
C495 C496 1.358 . S
C495 C497 1.356 . S
C495 H527 0.930 . S
C496 N493 1.279 . S
C496 C495 1.358 . S
C496 H499 0.930 . S
C497 C494 1.348 . S
C497 C495 1.356 . S
H498 C492 0.930 . S
H499 C496 0.930 . S
O500 Li440 1.956 . S
O500 Li441 1.970 . S
O500 Li442 1.961 . S
O500 C444 1.325 . S
O501 Li440 1.970 . S
O501 Li441 1.956 . S
O501 Li443 1.961 . S
O501 C450 1.325 . S
O502 Li440 1.961 . S
O502 Li442 1.956 . S
O502 Li443 1.970 . S
O502 C472 1.325 . S
O503 Li441 1.961 . S
O503 Li442 1.970 . S
O503 Li443 1.956 . S
O503 C478 1.325 . S
H504 C446 0.929 . S
H505 C447 0.930 . S
H506 C448 0.930 . S
H507 C449 0.930 . S
H508 C451 0.930 . S
H509 C453 0.929 . S
H510 C454 0.930 . S
H511 C455 0.930 . S
H512 C458 0.930 . S
H513 C461 0.929 . S
H514 C466 0.929 . S
H515 C467 0.930 . S
H516 C474 0.929 . S
H517 C475 0.930 . S
H518 C476 0.930 . S
H519 C477 0.930 . S
H520 C479 0.929 . S
H521 C480 0.930 . S
H522 C481 0.930 . S
H523 C482 0.930 . S
H524 C486 0.929 . S
H525 C488 0.930 . S
H526 C494 0.929 . S
H527 C495 0.930 . S
Li528 N545 1.990 . S
Li528 O588 1.956 . S
Li528 O589 1.970 . S
Li528 O590 1.961 . S
Li529 N553 1.990 . S
Li529 O588 1.970 . S
Li529 O589 1.956 . S
Li529 O591 1.961 . S
Li530 N575 1.990 . S
Li530 O588 1.961 . S
Li530 O590 1.956 . S
Li530 O591 1.970 . S
Li531 N581 1.990 . S
Li531 O589 1.961 . S
Li531 O590 1.970 . S
Li531 O591 1.956 . S
C532 C534 1.348 . S
C532 C535 1.356 . S
C532 O588 1.325 . S
N533 C536 1.314 . S
N533 C537 1.279 . S
C534 C532 1.348 . S
C534 C536 1.353 . S
C534 H592 0.929 . S
C535 C532 1.356 . S
C535 C537 1.358 . S
C535 H593 0.930 . S
C536 N533 1.314 . S
C536 C534 1.353 . S
C536 H594 0.930 . S
C537 N533 1.279 . S
C537 C535 1.358 . S
C537 H595 0.930 . S
C538 C541 1.348 . S
C538 C542 1.356 . S
C538 O589 1.325 . S
C539 N540 1.279 . S
C539 C542 1.358 . S
C539 H596 0.930 . S
N540 C539 1.279 . S
N540 C543 1.314 . S
C541 C538 1.348 . S
C541 C543 1.353 . S
C541 H597 0.929 . S
C542 C538 1.356 . S
C542 C539 1.358 . S
C542 H598 0.930 . S
C543 N540 1.314 . S
C543 C541 1.353 . S
C543 H599 0.930 . S
C544 N545 1.314 . S
C544 C549 1.353 . S
C544 H550 0.930 . S
N545 Li528 1.990 . S
N545 C544 1.314 . S
N545 C547 1.279 . S
C546 C547 1.358 . S
C546 C548 1.356 . S
C546 H600 0.930 . S
C547 N545 1.279 . S
C547 C546 1.358 . S
C547 H551 0.930 . S
C548 C546 1.356 . S
C548 C549 1.348 . S
C549 C544 1.353 . S
C549 C548 1.348 . S
C549 H601 0.929 . S
H550 C544 0.930 . S
H551 C547 0.930 . S
C552 N553 1.314 . S
C552 C554 1.353 . S
C552 H558 0.930 . S
N553 Li529 1.990 . S
N553 C552 1.314 . S
N553 C556 1.279 . S
C554 C552 1.353 . S
C554 C557 1.348 . S
C554 H602 0.929 . S
C555 C556 1.358 . S
C555 C557 1.356 . S
C555 H603 0.930 . S
C556 N553 1.279 . S
C556 C555 1.358 . S
C556 H559 0.930 . S
C557 C554 1.348 . S
C557 C555 1.356 . S
H558 C552 0.930 . S
H559 C556 0.930 . S
C560 C562 1.348 . S
C560 C563 1.356 . S
C560 O590 1.325 . S
N561 C564 1.314 . S
N561 C565 1.279 . S
C562 C560 1.348 . S
C562 C564 1.353 . S
C562 H604 0.929 . S
C563 C560 1.356 . S
C563 C565 1.358 . S
C563 H605 0.930 . S
C564 N561 1.314 . S
C564 C562 1.353 . S
C564 H606 0.930 . S
C565 N561 1.279 . S
C565 C563 1.358 . S
C565 H607 0.930 . S
C566 C567 1.348 . S
C566 C568 1.356 . S
C566 O591 1.325 . S
C567 C566 1.348 . S
C567 C569 1.353 . S
C567 H608 0.929 . S
C568 C566 1.356 . S
C568 C570 1.358 . S
C568 H609 0.930 . S
C569 C567 1.353 . S
C569 N571 1.314 . S
C569 H610 0.930 . S
C570 C568 1.358 . S
C570 N571 1.279 . S
C570 H611 0.930 . S
N571 C569 1.314 . S
N571 C570 1.279 . S
C572 C574 1.353 . S
C572 N575 1.314 . S
C572 H578 0.930 . S
C573 N575 1.279 . S
C573 C576 1.358 . S
C573 H579 0.930 . S
C574 C572 1.353 . S
C574 C577 1.348 . S
C574 H612 0.929 . S
N575 Li530 1.990 . S
N575 C572 1.314 . S
N575 C573 1.279 . S
C576 C573 1.358 . S
C576 C577 1.356 . S
C576 H613 0.930 . S
C577 C574 1.348 . S
C577 C576 1.356 . S
H578 C572 0.930 . S
H579 C573 0.930 . S
C580 N581 1.314 . S
C580 C582 1.353 . S
C580 H586 0.930 . S
N581 Li531 1.990 . S
N581 C580 1.314 . S
N581 C584 1.279 . S
C582 C580 1.353 . S
C582 C585 1.348 . S
C582 H614 0.929 . S
C583 C584 1.358 . S
C583 C585 1.356 . S
C583 H615 0.930 . S
C584 N581 1.279 . S
C584 C583 1.358 . S
C584 H587 0.930 . S
C585 C582 1.348 . S
C585 C583 1.356 . S
H586 C580 0.930 . S
H587 C584 0.930 . S
O588 Li528 1.956 . S
O588 Li529 1.970 . S
O588 Li530 1.961 . S
O588 C532 1.325 . S
O589 Li528 1.970 . S
O589 Li529 1.956 . S
O589 Li531 1.961 . S
O589 C538 1.325 . S
O590 Li528 1.961 . S
O590 Li530 1.956 . S
O590 Li531 1.970 . S
O590 C560 1.325 . S
O591 Li529 1.961 . S
O591 Li530 1.970 . S
O591 Li531 1.956 . S
O591 C566 1.325 . S
H592 C534 0.929 . S
H593 C535 0.930 . S
H594 C536 0.930 . S
H595 C537 0.930 . S
H596 C539 0.930 . S
H597 C541 0.929 . S
H598 C542 0.930 . S
H599 C543 0.930 . S
H600 C546 0.930 . S
H601 C549 0.929 . S
H602 C554 0.929 . S
H603 C555 0.930 . S
H604 C562 0.929 . S
H605 C563 0.930 . S
H606 C564 0.930 . S
H607 C565 0.930 . S
H608 C567 0.929 . S
H609 C568 0.930 . S
H610 C569 0.930 . S
H611 C570 0.930 . S
H612 C574 0.929 . S
H613 C576 0.930 . S
H614 C582 0.929 . S
H615 C583 0.930 . S
Li616 N633 1.990 . S
Li616 O676 1.956 . S
Li616 O677 1.970 . S
Li616 O678 1.961 . S
Li617 N641 1.990 1_556 S
Li617 O676 1.970 . S
Li617 O677 1.956 . S
Li617 O679 1.961 . S
Li618 N663 1.990 . S
Li618 O676 1.961 . S
Li618 O678 1.956 . S
Li618 O679 1.970 . S
Li619 N669 1.990 . S
Li619 O677 1.961 . S
Li619 O678 1.970 . S
Li619 O679 1.956 . S
C620 C622 1.348 1_556 S
C620 C623 1.356 . S
C620 O676 1.325 . S
N621 C624 1.314 1_556 S
N621 C625 1.279 . S
C622 C620 1.348 1_554 S
C622 C624 1.353 . S
C622 H680 0.929 . S
C623 C620 1.356 . S
C623 C625 1.358 . S
C623 H681 0.930 . S
C624 N621 1.314 1_554 S
C624 C622 1.353 . S
C624 H682 0.930 . S
C625 N621 1.279 . S
C625 C623 1.358 . S
C625 H683 0.930 . S
C626 C629 1.348 . S
C626 C630 1.356 . S
C626 O677 1.325 . S
C627 N628 1.279 . S
C627 C630 1.358 . S
C627 H684 0.930 . S
N628 C627 1.279 . S
N628 C631 1.314 . S
C629 C626 1.348 . S
C629 C631 1.353 . S
C629 H685 0.929 . S
C630 C626 1.356 . S
C630 C627 1.358 . S
C630 H686 0.930 . S
C631 N628 1.314 . S
C631 C629 1.353 . S
C631 H687 0.930 . S
C632 N633 1.314 . S
C632 C637 1.353 . S
C632 H638 0.930 . S
N633 Li616 1.990 . S
N633 C632 1.314 . S
N633 C635 1.279 . S
C634 C635 1.358 . S
C634 C636 1.356 . S
C634 H688 0.930 . S
C635 N633 1.279 . S
C635 C634 1.358 . S
C635 H639 0.930 . S
C636 C634 1.356 . S
C636 C637 1.348 . S
C637 C632 1.353 . S
C637 C636 1.348 . S
C637 H689 0.929 . S
H638 C632 0.930 . S
H639 C635 0.930 . S
C640 N641 1.314 . S
C640 C642 1.353 . S
C640 H646 0.930 . S
N641 Li617 1.990 1_554 S
N641 C640 1.314 . S
N641 C644 1.279 . S
C642 C640 1.353 . S
C642 C645 1.348 . S
C642 H690 0.929 . S
C643 C644 1.358 . S
C643 C645 1.356 . S
C643 H691 0.930 . S
C644 N641 1.279 . S
C644 C643 1.358 . S
C644 H647 0.930 . S
C645 C642 1.348 . S
C645 C643 1.356 . S
H646 C640 0.930 . S
H647 C644 0.930 . S
C648 C650 1.348 . S
C648 C651 1.356 . S
C648 O678 1.325 . S
N649 C652 1.314 . S
N649 C653 1.279 . S
C650 C648 1.348 . S
C650 C652 1.353 . S
C650 H692 0.929 . S
C651 C648 1.356 . S
C651 C653 1.358 . S
C651 H693 0.930 . S
C652 N649 1.314 . S
C652 C650 1.353 . S
C652 H694 0.930 . S
C653 N649 1.279 . S
C653 C651 1.358 . S
C653 H695 0.930 . S
C654 C655 1.348 . S
C654 C656 1.356 . S
C654 O679 1.325 1_554 S
C655 C654 1.348 . S
C655 C657 1.353 . S
C655 H696 0.929 1_554 S
C656 C654 1.356 . S
C656 C658 1.358 . S
C656 H697 0.930 . S
C657 C655 1.353 . S
C657 N659 1.314 . S
C657 H698 0.930 . S
C658 C656 1.358 . S
C658 N659 1.279 . S
C658 H699 0.930 . S
N659 C657 1.314 . S
N659 C658 1.279 . S
C660 C662 1.353 . S
C660 N663 1.314 . S
C660 H666 0.930 . S
C661 N663 1.279 . S
C661 C664 1.358 . S
C661 H667 0.930 . S
C662 C660 1.353 . S
C662 C665 1.348 . S
C662 H700 0.929 . S
N663 Li618 1.990 . S
N663 C660 1.314 . S
N663 C661 1.279 . S
C664 C661 1.358 . S
C664 C665 1.356 . S
C664 H701 0.930 . S
C665 C662 1.348 . S
C665 C664 1.356 . S
H666 C660 0.930 . S
H667 C661 0.930 . S
C668 N669 1.314 . S
C668 C670 1.353 . S
C668 H674 0.930 . S
N669 Li619 1.990 . S
N669 C668 1.314 . S
N669 C672 1.279 . S
C670 C668 1.353 . S
C670 C673 1.348 . S
C670 H702 0.929 . S
C671 C672 1.358 . S
C671 C673 1.356 . S
C671 H703 0.930 . S
C672 N669 1.279 . S
C672 C671 1.358 . S
C672 H675 0.930 . S
C673 C670 1.348 . S
C673 C671 1.356 . S
H674 C668 0.930 . S
H675 C672 0.930 . S
O676 Li616 1.956 . S
O676 Li617 1.970 . S
O676 Li618 1.961 . S
O676 C620 1.325 . S
O677 Li616 1.970 . S
O677 Li617 1.956 . S
O677 Li619 1.961 . S
O677 C626 1.325 . S
O678 Li616 1.961 . S
O678 Li618 1.956 . S
O678 Li619 1.970 . S
O678 C648 1.325 . S
O679 Li617 1.961 . S
O679 Li618 1.970 . S
O679 Li619 1.956 . S
O679 C654 1.325 1_556 S
H680 C622 0.929 . S
H681 C623 0.930 . S
H682 C624 0.930 . S
H683 C625 0.930 . S
H684 C627 0.930 . S
H685 C629 0.929 . S
H686 C630 0.930 . S
H687 C631 0.930 . S
H688 C634 0.930 . S
H689 C637 0.929 . S
H690 C642 0.929 . S
H691 C643 0.930 . S
H692 C650 0.929 . S
H693 C651 0.930 . S
H694 C652 0.930 . S
H695 C653 0.930 . S
H696 C655 0.929 1_556 S
H697 C656 0.930 . S
H698 C657 0.930 . S
H699 C658 0.930 . S
H700 C662 0.929 . S
H701 C664 0.930 . S
H702 C670 0.929 . S
H703 C671 0.930 . S
Li704 N721 1.990 . S
Li704 O764 1.956 . S
Li704 O765 1.970 . S
Li704 O766 1.961 . S
Li705 N729 1.990 . S
Li705 O764 1.970 . S
Li705 O765 1.956 . S
Li705 O767 1.961 . S
Li706 N751 1.990 . S
Li706 O764 1.961 . S
Li706 O766 1.956 . S
Li706 O767 1.970 . S
Li707 N757 1.990 1_655 S
Li707 O765 1.961 . S
Li707 O766 1.970 . S
Li707 O767 1.956 . S
C708 C710 1.348 . S
C708 C711 1.356 . S
C708 O764 1.325 . S
N709 C712 1.314 . S
N709 C713 1.279 . S
C710 C708 1.348 . S
C710 C712 1.353 . S
C710 H768 0.929 . S
C711 C708 1.356 . S
C711 C713 1.358 . S
C711 H769 0.930 . S
C712 N709 1.314 . S
C712 C710 1.353 . S
C712 H770 0.930 . S
C713 N709 1.279 . S
C713 C711 1.358 . S
C713 H771 0.930 . S
C714 C717 1.348 . S
C714 C718 1.335 1_655 S
C714 O765 1.325 . S
C715 N716 1.279 . S
C715 C718 1.377 . S
C715 H772 0.930 . S
N716 C715 1.279 . S
N716 C719 1.314 1_455 S
C717 C714 1.348 . S
C717 C719 1.353 . S
C717 H773 0.929 . S
C718 C714 1.335 1_455 S
C718 C715 1.377 . S
C718 H774 0.933 . S
C719 N716 1.314 1_655 S
C719 C717 1.353 . S
C719 H775 0.930 . S
C720 N721 1.314 . S
C720 C725 1.353 . S
C720 H726 0.930 . S
N721 Li704 1.990 . S
N721 C720 1.314 . S
N721 C723 1.279 . S
C722 C723 1.358 . S
C722 C724 1.356 . S
C722 H776 0.930 . S
C723 N721 1.279 . S
C723 C722 1.358 . S
C723 H727 0.930 . S
C724 C722 1.356 . S
C724 C725 1.348 . S
C725 C720 1.353 . S
C725 C724 1.348 . S
C725 H777 0.929 . S
H726 C720 0.930 . S
H727 C723 0.930 . S
C728 N729 1.314 . S
C728 C730 1.353 . S
C728 H734 0.930 . S
N729 Li705 1.990 . S
N729 C728 1.314 . S
N729 C732 1.279 . S
C730 C728 1.353 . S
C730 C733 1.348 . S
C730 H778 0.929 . S
C731 C732 1.358 . S
C731 C733 1.356 . S
C731 H779 0.930 . S
C732 N729 1.279 . S
C732 C731 1.358 . S
C732 H735 0.930 . S
C733 C730 1.348 . S
C733 C731 1.356 . S
H734 C728 0.930 . S
H735 C732 0.930 . S
C736 C738 1.348 . S
C736 C739 1.356 . S
C736 O766 1.325 . S
N737 C740 1.314 . S
N737 C741 1.279 . S
C738 C736 1.348 . S
C738 C740 1.353 . S
C738 H780 0.929 . S
C739 C736 1.356 . S
C739 C741 1.358 . S
C739 H781 0.930 . S
C740 N737 1.314 . S
C740 C738 1.353 . S
C740 H782 0.930 . S
C741 N737 1.279 . S
C741 C739 1.358 . S
C741 H783 0.930 . S
C742 C743 1.348 . S
C742 C744 1.356 . S
C742 O767 1.325 . S
C743 C742 1.348 . S
C743 C745 1.353 . S
C743 H784 0.929 . S
C744 C742 1.356 . S
C744 C746 1.358 . S
C744 H785 0.930 . S
C745 C743 1.353 . S
C745 N747 1.314 . S
C745 H786 0.930 . S
C746 C744 1.358 . S
C746 N747 1.279 . S
C746 H787 0.930 . S
N747 C745 1.314 . S
N747 C746 1.279 . S
C748 C750 1.353 . S
C748 N751 1.314 . S
C748 H754 0.930 . S
C749 N751 1.279 . S
C749 C752 1.358 . S
C749 H755 0.930 . S
C750 C748 1.353 . S
C750 C753 1.348 . S
C750 H788 0.929 . S
N751 Li706 1.990 . S
N751 C748 1.314 . S
N751 C749 1.279 . S
C752 C749 1.358 . S
C752 C753 1.356 . S
C752 H789 0.930 . S
C753 C750 1.348 . S
C753 C752 1.356 . S
H754 C748 0.930 . S
H755 C749 0.930 . S
C756 N757 1.314 . S
C756 C758 1.353 . S
C756 H762 0.930 . S
N757 Li707 1.990 1_455 S
N757 C756 1.314 . S
N757 C760 1.279 . S
C758 C756 1.353 . S
C758 C761 1.348 . S
C758 H790 0.929 . S
C759 C760 1.358 . S
C759 C761 1.356 . S
C759 H791 0.930 . S
C760 N757 1.279 . S
C760 C759 1.358 . S
C760 H763 0.930 . S
C761 C758 1.348 . S
C761 C759 1.356 . S
H762 C756 0.930 . S
H763 C760 0.930 . S
O764 Li704 1.956 . S
O764 Li705 1.970 . S
O764 Li706 1.961 . S
O764 C708 1.325 . S
O765 Li704 1.970 . S
O765 Li705 1.956 . S
O765 Li707 1.961 . S
O765 C714 1.325 . S
O766 Li704 1.961 . S
O766 Li706 1.956 . S
O766 Li707 1.970 . S
O766 C736 1.325 . S
O767 Li705 1.961 . S
O767 Li706 1.970 . S
O767 Li707 1.956 . S
O767 C742 1.325 . S
H768 C710 0.929 . S
H769 C711 0.930 . S
H770 C712 0.930 . S
H771 C713 0.930 . S
H772 C715 0.930 . S
H773 C717 0.929 . S
H774 C718 0.933 . S
H775 C719 0.930 . S
H776 C722 0.930 . S
H777 C725 0.929 . S
H778 C730 0.929 . S
H779 C731 0.930 . S
H780 C738 0.929 . S
H781 C739 0.930 . S
H782 C740 0.930 . S
H783 C741 0.930 . S
H784 C743 0.929 . S
H785 C744 0.930 . S
H786 C745 0.930 . S
H787 C746 0.930 . S
H788 C750 0.929 . S
H789 C752 0.930 . S
H790 C758 0.929 . S
H791 C759 0.930 . S
Li792 N809 1.990 . S
Li792 O852 1.956 . S
Li792 O853 1.970 . S
Li792 O854 1.961 . S
Li793 N817 1.990 . S
Li793 O852 1.970 . S
Li793 O853 1.956 . S
Li793 O855 1.961 . S
Li794 N839 1.990 . S
Li794 O852 1.961 . S
Li794 O854 1.956 . S
Li794 O855 1.970 . S
Li795 N845 1.990 . S
Li795 O853 1.961 . S
Li795 O854 1.970 . S
Li795 O855 1.956 . S
C796 C798 1.348 . S
C796 C799 1.356 . S
C796 O852 1.325 . S
N797 C800 1.314 . S
N797 C801 1.279 . S
C798 C796 1.348 . S
C798 C800 1.353 . S
C798 H856 0.929 . S
C799 C796 1.356 . S
C799 C801 1.358 . S
C799 H857 0.930 . S
C800 N797 1.314 . S
C800 C798 1.353 . S
C800 H858 0.930 . S
C801 N797 1.279 . S
C801 C799 1.358 . S
C801 H859 0.930 . S
C802 C805 1.348 . S
C802 C806 1.356 . S
C802 O853 1.325 . S
C803 N804 1.279 . S
C803 C806 1.358 . S
C803 H860 0.930 . S
N804 C803 1.279 . S
N804 C807 1.314 . S
C805 C802 1.348 . S
C805 C807 1.353 . S
C805 H861 0.929 . S
C806 C802 1.356 . S
C806 C803 1.358 . S
C806 H862 0.930 . S
C807 N804 1.314 . S
C807 C805 1.353 . S
C807 H863 0.930 . S
C808 N809 1.314 . S
C808 C813 1.353 . S
C808 H814 0.930 . S
N809 Li792 1.990 . S
N809 C808 1.314 . S
N809 C811 1.279 . S
C810 C811 1.358 . S
C810 C812 1.356 . S
C810 H864 0.930 . S
C811 N809 1.279 . S
C811 C810 1.358 . S
C811 H815 0.930 . S
C812 C810 1.356 . S
C812 C813 1.348 . S
C813 C808 1.353 . S
C813 C812 1.348 . S
C813 H865 0.929 . S
H814 C808 0.930 . S
H815 C811 0.930 . S
C816 N817 1.314 . S
C816 C818 1.353 . S
C816 H822 0.930 . S
N817 Li793 1.990 . S
N817 C816 1.314 . S
N817 C820 1.279 . S
C818 C816 1.353 . S
C818 C821 1.348 . S
C818 H866 0.929 . S
C819 C820 1.358 . S
C819 C821 1.356 . S
C819 H867 0.930 . S
C820 N817 1.279 . S
C820 C819 1.358 . S
C820 H823 0.930 . S
C821 C818 1.348 . S
C821 C819 1.356 . S
H822 C816 0.930 . S
H823 C820 0.930 . S
C824 C826 1.348 . S
C824 C827 1.356 . S
C824 O854 1.325 . S
N825 C828 1.314 . S
N825 C829 1.279 . S
C826 C824 1.348 . S
C826 C828 1.353 . S
C826 H868 0.929 . S
C827 C824 1.356 . S
C827 C829 1.358 . S
C827 H869 0.930 . S
C828 N825 1.314 . S
C828 C826 1.353 . S
C828 H870 0.930 . S
C829 N825 1.279 . S
C829 C827 1.358 . S
C829 H871 0.930 . S
C830 C831 1.348 . S
C830 C832 1.356 . S
C830 O855 1.325 . S
C831 C830 1.348 . S
C831 C833 1.353 . S
C831 H872 0.929 . S
C832 C830 1.356 . S
C832 C834 1.358 . S
C832 H873 0.930 . S
C833 C831 1.353 . S
C833 N835 1.314 . S
C833 H874 0.930 . S
C834 C832 1.358 . S
C834 N835 1.279 . S
C834 H875 0.930 . S
N835 C833 1.314 . S
N835 C834 1.279 . S
C836 C838 1.353 . S
C836 N839 1.314 . S
C836 H842 0.930 . S
C837 N839 1.279 . S
C837 C840 1.358 . S
C837 H843 0.930 . S
C838 C836 1.353 . S
C838 C841 1.348 . S
C838 H876 0.929 . S
N839 Li794 1.990 . S
N839 C836 1.314 . S
N839 C837 1.279 . S
C840 C837 1.358 . S
C840 C841 1.356 . S
C840 H877 0.930 . S
C841 C838 1.348 . S
C841 C840 1.356 . S
H842 C836 0.930 . S
H843 C837 0.930 . S
C844 N845 1.314 . S
C844 C846 1.353 . S
C844 H850 0.930 . S
N845 Li795 1.990 . S
N845 C844 1.314 . S
N845 C848 1.279 . S
C846 C844 1.353 . S
C846 C849 1.348 . S
C846 H878 0.929 . S
C847 C848 1.358 . S
C847 C849 1.356 . S
C847 H879 0.930 . S
C848 N845 1.279 . S
C848 C847 1.358 . S
C848 H851 0.930 . S
C849 C846 1.348 . S
C849 C847 1.356 . S
H850 C844 0.930 . S
H851 C848 0.930 . S
O852 Li792 1.956 . S
O852 Li793 1.970 . S
O852 Li794 1.961 . S
O852 C796 1.325 . S
O853 Li792 1.970 . S
O853 Li793 1.956 . S
O853 Li795 1.961 . S
O853 C802 1.325 . S
O854 Li792 1.961 . S
O854 Li794 1.956 . S
O854 Li795 1.970 . S
O854 C824 1.325 . S
O855 Li793 1.961 . S
O855 Li794 1.970 . S
O855 Li795 1.956 . S
O855 C830 1.325 . S
H856 C798 0.929 . S
H857 C799 0.930 . S
H858 C800 0.930 . S
H859 C801 0.930 . S
H860 C803 0.930 . S
H861 C805 0.929 . S
H862 C806 0.930 . S
H863 C807 0.930 . S
H864 C810 0.930 . S
H865 C813 0.929 . S
H866 C818 0.929 . S
H867 C819 0.930 . S
H868 C826 0.929 . S
H869 C827 0.930 . S
H870 C828 0.930 . S
H871 C829 0.930 . S
H872 C831 0.929 . S
H873 C832 0.930 . S
H874 C833 0.930 . S
H875 C834 0.930 . S
H876 C838 0.929 . S
H877 C840 0.930 . S
H878 C846 0.929 . S
H879 C847 0.930 . S
Li880 N897 1.990 . S
Li880 O940 1.956 . S
Li880 O941 1.970 . S
Li880 O942 1.961 . S
Li881 N905 1.990 . S
Li881 O940 1.970 . S
Li881 O941 1.956 . S
Li881 O943 1.961 . S
Li882 N927 1.990 . S
Li882 O940 1.961 . S
Li882 O942 1.956 . S
Li882 O943 1.970 . S
Li883 N933 1.990 . S
Li883 O941 1.961 . S
Li883 O942 1.970 . S
Li883 O943 1.956 . S
C884 C886 1.348 . S
C884 C887 1.356 . S
C884 O940 1.325 . S
N885 C888 1.314 . S
N885 C889 1.279 . S
C886 C884 1.348 . S
C886 C888 1.353 . S
C886 H944 0.929 . S
C887 C884 1.356 . S
C887 C889 1.358 . S
C887 H945 0.930 . S
C888 N885 1.314 . S
C888 C886 1.353 . S
C888 H946 0.930 . S
C889 N885 1.279 . S
C889 C887 1.358 . S
C889 H947 0.930 . S
C890 C893 1.348 . S
C890 C894 1.356 . S
C890 O941 1.325 . S
C891 N892 1.279 . S
C891 C894 1.358 . S
C891 H948 0.930 . S
N892 C891 1.279 . S
N892 C895 1.314 . S
C893 C890 1.348 . S
C893 C895 1.353 . S
C893 H949 0.929 . S
C894 C890 1.356 . S
C894 C891 1.358 . S
C894 H950 0.930 . S
C895 N892 1.314 . S
C895 C893 1.353 . S
C895 H951 0.930 . S
C896 N897 1.314 . S
C896 C901 1.353 . S
C896 H902 0.930 . S
N897 Li880 1.990 . S
N897 C896 1.314 . S
N897 C899 1.279 . S
C898 C899 1.358 . S
C898 C900 1.356 . S
C898 H952 0.930 . S
C899 N897 1.279 . S
C899 C898 1.358 . S
C899 H903 0.930 . S
C900 C898 1.356 . S
C900 C901 1.348 . S
C901 C896 1.353 . S
C901 C900 1.348 . S
C901 H953 0.929 . S
H902 C896 0.930 . S
H903 C899 0.930 . S
C904 N905 1.314 . S
C904 C906 1.353 . S
C904 H910 0.930 . S
N905 Li881 1.990 . S
N905 C904 1.314 . S
N905 C908 1.279 . S
C906 C904 1.353 . S
C906 C909 1.348 . S
C906 H954 0.929 . S
C907 C908 1.358 . S
C907 C909 1.356 . S
C907 H955 0.930 . S
C908 N905 1.279 . S
C908 C907 1.358 . S
C908 H911 0.930 . S
C909 C906 1.348 . S
C909 C907 1.356 . S
H910 C904 0.930 . S
H911 C908 0.930 . S
C912 C914 1.348 . S
C912 C915 1.356 . S
C912 O942 1.325 . S
N913 C916 1.314 . S
N913 C917 1.279 . S
C914 C912 1.348 . S
C914 C916 1.353 . S
C914 H956 0.929 . S
C915 C912 1.356 . S
C915 C917 1.358 . S
C915 H957 0.930 . S
C916 N913 1.314 . S
C916 C914 1.353 . S
C916 H958 0.930 . S
C917 N913 1.279 . S
C917 C915 1.358 . S
C917 H959 0.930 . S
C918 C919 1.348 . S
C918 C920 1.356 . S
C918 O943 1.325 . S
C919 C918 1.348 . S
C919 C921 1.353 . S
C919 H960 0.929 . S
C920 C918 1.356 . S
C920 C922 1.358 . S
C920 H961 0.930 . S
C921 C919 1.353 . S
C921 N923 1.314 . S
C921 H962 0.930 . S
C922 C920 1.358 . S
C922 N923 1.279 . S
C922 H963 0.930 . S
N923 C921 1.314 . S
N923 C922 1.279 . S
C924 C926 1.353 . S
C924 N927 1.314 . S
C924 H930 0.930 . S
C925 N927 1.279 . S
C925 C928 1.358 . S
C925 H931 0.930 . S
C926 C924 1.353 . S
C926 C929 1.348 . S
C926 H964 0.929 . S
N927 Li882 1.990 . S
N927 C924 1.314 . S
N927 C925 1.279 . S
C928 C925 1.358 . S
C928 C929 1.356 . S
C928 H965 0.930 . S
C929 C926 1.348 . S
C929 C928 1.356 . S
H930 C924 0.930 . S
H931 C925 0.930 . S
C932 N933 1.314 . S
C932 C934 1.353 . S
C932 H938 0.930 . S
N933 Li883 1.990 . S
N933 C932 1.314 . S
N933 C936 1.279 . S
C934 C932 1.353 . S
C934 C937 1.348 . S
C934 H966 0.929 . S
C935 C936 1.358 . S
C935 C937 1.356 . S
C935 H967 0.930 . S
C936 N933 1.279 . S
C936 C935 1.358 . S
C936 H939 0.930 . S
C937 C934 1.348 . S
C937 C935 1.356 . S
H938 C932 0.930 . S
H939 C936 0.930 . S
O940 Li880 1.956 . S
O940 Li881 1.970 . S
O940 Li882 1.961 . S
O940 C884 1.325 . S
O941 Li880 1.970 . S
O941 Li881 1.956 . S
O941 Li883 1.961 . S
O941 C890 1.325 . S
O942 Li880 1.961 . S
O942 Li882 1.956 . S
O942 Li883 1.970 . S
O942 C912 1.325 . S
O943 Li881 1.961 . S
O943 Li882 1.970 . S
O943 Li883 1.956 . S
O943 C918 1.325 . S
H944 C886 0.929 . S
H945 C887 0.930 . S
H946 C888 0.930 . S
H947 C889 0.930 . S
H948 C891 0.930 . S
H949 C893 0.929 . S
H950 C894 0.930 . S
H951 C895 0.930 . S
H952 C898 0.930 . S
H953 C901 0.929 . S
H954 C906 0.929 . S
H955 C907 0.930 . S
H956 C914 0.929 . S
H957 C915 0.930 . S
H958 C916 0.930 . S
H959 C917 0.930 . S
H960 C919 0.929 . S
H961 C920 0.930 . S
H962 C921 0.930 . S
H963 C922 0.930 . S
H964 C926 0.929 . S
H965 C928 0.930 . S
H966 C934 0.929 . S
H967 C935 0.930 . S
Li968 N985 1.990 . S
Li968 O1028 1.956 . S
Li968 O1029 1.970 . S
Li968 O1030 1.961 . S
Li969 N993 1.990 1_556 S
Li969 O1028 1.970 . S
Li969 O1029 1.956 . S
Li969 O1031 1.961 . S
Li970 N1015 1.990 . S
Li970 O1028 1.961 . S
Li970 O1030 1.956 . S
Li970 O1031 1.970 . S
Li971 N1021 1.990 . S
Li971 O1029 1.961 . S
Li971 O1030 1.970 . S
Li971 O1031 1.956 . S
C972 C974 1.348 1_556 S
C972 C975 1.356 . S
C972 O1028 1.325 . S
N973 C976 1.314 1_556 S
N973 C977 1.279 . S
C974 C972 1.348 1_554 S
C974 C976 1.353 . S
C974 H1032 0.929 . S
C975 C972 1.356 . S
C975 C977 1.358 . S
C975 H1033 0.930 . S
C976 N973 1.314 1_554 S
C976 C974 1.353 . S
C976 H1034 0.930 . S
C977 N973 1.279 . S
C977 C975 1.358 . S
C977 H1035 0.930 . S
C978 C981 1.348 . S
C978 C982 1.356 . S
C978 O1029 1.325 1_554 S
C979 N980 1.279 . S
C979 C982 1.358 . S
C979 H1036 0.930 . S
N980 C979 1.279 . S
N980 C983 1.314 . S
C981 C978 1.348 . S
C981 C983 1.353 . S
C981 H1037 0.929 . S
C982 C978 1.356 . S
C982 C979 1.358 . S
C982 H1038 0.930 . S
C983 N980 1.314 . S
C983 C981 1.353 . S
C983 H1039 0.930 . S
C984 N985 1.314 . S
C984 C989 1.353 . S
C984 H990 0.930 . S
N985 Li968 1.990 . S
N985 C984 1.314 . S
N985 C987 1.279 . S
C986 C987 1.358 . S
C986 C988 1.356 . S
C986 H1040 0.930 . S
C987 N985 1.279 . S
C987 C986 1.358 . S
C987 H991 0.930 . S
C988 C986 1.356 . S
C988 C989 1.348 . S
C989 C984 1.353 . S
C989 C988 1.348 . S
C989 H1041 0.929 . S
H990 C984 0.930 . S
H991 C987 0.930 . S
C992 N993 1.314 . S
C992 C994 1.353 . S
C992 H998 0.930 . S
N993 Li969 1.990 1_554 S
N993 C992 1.314 . S
N993 C996 1.279 . S
C994 C992 1.353 . S
C994 C997 1.348 . S
C994 H1042 0.929 . S
C995 C996 1.358 . S
C995 C997 1.356 . S
C995 H1043 0.930 . S
C996 N993 1.279 . S
C996 C995 1.358 . S
C996 H999 0.930 . S
C997 C994 1.348 . S
C997 C995 1.356 . S
H998 C992 0.930 . S
H999 C996 0.930 . S
C1000 C1002 1.348 . S
C1000 C1003 1.356 . S
C1000 O1030 1.325 . S
N1001 C1004 1.314 . S
N1001 C1005 1.279 . S
C1002 C1000 1.348 . S
C1002 C1004 1.353 . S
C1002 H1044 0.929 . S
C1003 C1000 1.356 . S
C1003 C1005 1.358 . S
C1003 H1045 0.930 . S
C1004 N1001 1.314 . S
C1004 C1002 1.353 . S
C1004 H1046 0.930 . S
C1005 N1001 1.279 . S
C1005 C1003 1.358 . S
C1005 H1047 0.930 . S
C1006 C1007 1.348 . S
C1006 C1008 1.356 . S
C1006 O1031 1.325 . S
C1007 C1006 1.348 . S
C1007 C1009 1.353 . S
C1007 H1048 0.929 . S
C1008 C1006 1.356 . S
C1008 C1010 1.358 . S
C1008 H1049 0.930 1_556 S
C1009 C1007 1.353 . S
C1009 N1011 1.314 . S
C1009 H1050 0.930 . S
C1010 C1008 1.358 . S
C1010 N1011 1.279 . S
C1010 H1051 0.930 1_556 S
N1011 C1009 1.314 . S
N1011 C1010 1.279 . S
C1012 C1014 1.353 . S
C1012 N1015 1.314 . S
C1012 H1018 0.930 . S
C1013 N1015 1.279 . S
C1013 C1016 1.358 . S
C1013 H1019 0.930 . S
C1014 C1012 1.353 . S
C1014 C1017 1.348 . S
C1014 H1052 0.929 . S
N1015 Li970 1.990 . S
N1015 C1012 1.314 . S
N1015 C1013 1.279 . S
C1016 C1013 1.358 . S
C1016 C1017 1.356 . S
C1016 H1053 0.930 . S
C1017 C1014 1.348 . S
C1017 C1016 1.356 . S
H1018 C1012 0.930 . S
H1019 C1013 0.930 . S
C1020 N1021 1.314 . S
C1020 C1022 1.353 . S
C1020 H1026 0.930 . S
N1021 Li971 1.990 . S
N1021 C1020 1.314 . S
N1021 C1024 1.279 . S
C1022 C1020 1.353 . S
C1022 C1025 1.348 . S
C1022 H1054 0.929 . S
C1023 C1024 1.358 . S
C1023 C1025 1.356 . S
C1023 H1055 0.930 . S
C1024 N1021 1.279 . S
C1024 C1023 1.358 . S
C1024 H1027 0.930 . S
C1025 C1022 1.348 . S
C1025 C1023 1.356 . S
H1026 C1020 0.930 . S
H1027 C1024 0.930 . S
O1028 Li968 1.956 . S
O1028 Li969 1.970 . S
O1028 Li970 1.961 . S
O1028 C972 1.325 . S
O1029 Li968 1.970 . S
O1029 Li969 1.956 . S
O1029 Li971 1.961 . S
O1029 C978 1.325 1_556 S
O1030 Li968 1.961 . S
O1030 Li970 1.956 . S
O1030 Li971 1.970 . S
O1030 C1000 1.325 . S
O1031 Li969 1.961 . S
O1031 Li970 1.970 . S
O1031 Li971 1.956 . S
O1031 C1006 1.325 . S
H1032 C974 0.929 . S
H1033 C975 0.930 . S
H1034 C976 0.930 . S
H1035 C977 0.930 . S
H1036 C979 0.930 . S
H1037 C981 0.929 . S
H1038 C982 0.930 . S
H1039 C983 0.930 . S
H1040 C986 0.930 . S
H1041 C989 0.929 . S
H1042 C994 0.929 . S
H1043 C995 0.930 . S
H1044 C1002 0.929 . S
H1045 C1003 0.930 . S
H1046 C1004 0.930 . S
H1047 C1005 0.930 . S
H1048 C1007 0.929 . S
H1049 C1008 0.930 1_554 S
H1050 C1009 0.930 . S
H1051 C1010 0.930 1_554 S
H1052 C1014 0.929 . S
H1053 C1016 0.930 . S
H1054 C1022 0.929 . S
H1055 C1023 0.930 . S
Li1056 N1073 1.990 . S
Li1056 O1116 1.956 . S
Li1056 O1117 1.970 . S
Li1056 O1118 1.961 . S
Li1057 N1081 1.990 1_655 S
Li1057 O1116 1.970 . S
Li1057 O1117 1.956 . S
Li1057 O1119 1.961 . S
Li1058 N1103 1.990 . S
Li1058 O1116 1.961 . S
Li1058 O1118 1.956 . S
Li1058 O1119 1.970 . S
Li1059 N1109 1.990 . S
Li1059 O1117 1.961 . S
Li1059 O1118 1.970 . S
Li1059 O1119 1.956 . S
C1060 C1062 1.348 . S
C1060 C1063 1.356 . S
C1060 O1116 1.325 . S
N1061 C1064 1.314 . S
N1061 C1065 1.279 . S
C1062 C1060 1.348 . S
C1062 C1064 1.353 . S
C1062 H1120 0.929 . S
C1063 C1060 1.356 . S
C1063 C1065 1.358 . S
C1063 H1121 0.930 . S
C1064 N1061 1.314 . S
C1064 C1062 1.353 . S
C1064 H1122 0.930 . S
C1065 N1061 1.279 . S
C1065 C1063 1.358 . S
C1065 H1123 0.930 . S
C1066 C1069 1.348 . S
C1066 C1070 1.356 . S
C1066 O1117 1.325 . S
C1067 N1068 1.279 . S
C1067 C1070 1.358 . S
C1067 H1124 0.930 . S
N1068 C1067 1.279 . S
N1068 C1071 1.314 . S
C1069 C1066 1.348 . S
C1069 C1071 1.353 . S
C1069 H1125 0.929 . S
C1070 C1066 1.356 . S
C1070 C1067 1.358 . S
C1070 H1126 0.930 . S
C1071 N1068 1.314 . S
C1071 C1069 1.353 . S
C1071 H1127 0.930 . S
C1072 N1073 1.314 . S
C1072 C1077 1.353 . S
C1072 H1078 0.930 . S
N1073 Li1056 1.990 . S
N1073 C1072 1.314 . S
N1073 C1075 1.279 . S
C1074 C1075 1.358 . S
C1074 C1076 1.356 . S
C1074 H1128 0.930 . S
C1075 N1073 1.279 . S
C1075 C1074 1.358 . S
C1075 H1079 0.930 . S
C1076 C1074 1.356 . S
C1076 C1077 1.348 . S
C1077 C1072 1.353 . S
C1077 C1076 1.348 . S
C1077 H1129 0.929 . S
H1078 C1072 0.930 . S
H1079 C1075 0.930 . S
C1080 N1081 1.314 . S
C1080 C1082 1.353 . S
C1080 H1086 0.930 . S
N1081 Li1057 1.990 1_455 S
N1081 C1080 1.314 . S
N1081 C1084 1.279 . S
C1082 C1080 1.353 . S
C1082 C1085 1.348 . S
C1082 H1130 0.929 . S
C1083 C1084 1.358 . S
C1083 C1085 1.356 . S
C1083 H1131 0.930 . S
C1084 N1081 1.279 . S
C1084 C1083 1.358 . S
C1084 H1087 0.930 . S
C1085 C1082 1.348 . S
C1085 C1083 1.356 . S
H1086 C1080 0.930 . S
H1087 C1084 0.930 . S
C1088 C1090 1.348 . S
C1088 C1091 1.356 . S
C1088 O1118 1.325 . S
N1089 C1092 1.314 . S
N1089 C1093 1.279 . S
C1090 C1088 1.348 . S
C1090 C1092 1.353 . S
C1090 H1132 0.929 . S
C1091 C1088 1.356 . S
C1091 C1093 1.358 . S
C1091 H1133 0.930 . S
C1092 N1089 1.314 . S
C1092 C1090 1.353 . S
C1092 H1134 0.930 . S
C1093 N1089 1.279 . S
C1093 C1091 1.358 . S
C1093 H1135 0.930 . S
C1094 C1095 1.348 . S
C1094 C1096 1.335 1_655 S
C1094 O1119 1.325 . S
C1095 C1094 1.348 . S
C1095 C1097 1.353 . S
C1095 H1136 0.929 . S
C1096 C1094 1.335 1_455 S
C1096 C1098 1.377 . S
C1096 H1137 0.933 . S
C1097 C1095 1.353 . S
C1097 N1099 1.314 1_655 S
C1097 H1138 0.930 . S
C1098 C1096 1.377 . S
C1098 N1099 1.279 . S
C1098 H1139 0.930 . S
N1099 C1097 1.314 1_455 S
N1099 C1098 1.279 . S
C1100 C1102 1.353 . S
C1100 N1103 1.314 . S
C1100 H1106 0.930 . S
C1101 N1103 1.279 . S
C1101 C1104 1.358 . S
C1101 H1107 0.930 . S
C1102 C1100 1.353 . S
C1102 C1105 1.348 . S
C1102 H1140 0.929 . S
N1103 Li1058 1.990 . S
N1103 C1100 1.314 . S
N1103 C1101 1.279 . S
C1104 C1101 1.358 . S
C1104 C1105 1.356 . S
C1104 H1141 0.930 . S
C1105 C1102 1.348 . S
C1105 C1104 1.356 . S
H1106 C1100 0.930 . S
H1107 C1101 0.930 . S
C1108 N1109 1.314 . S
C1108 C1110 1.353 . S
C1108 H1114 0.930 . S
N1109 Li1059 1.990 . S
N1109 C1108 1.314 . S
N1109 C1112 1.279 . S
C1110 C1108 1.353 . S
C1110 C1113 1.348 . S
C1110 H1142 0.929 . S
C1111 C1112 1.358 . S
C1111 C1113 1.356 . S
C1111 H1143 0.930 . S
C1112 N1109 1.279 . S
C1112 C1111 1.358 . S
C1112 H1115 0.930 . S
C1113 C1110 1.348 . S
C1113 C1111 1.356 . S
H1114 C1108 0.930 . S
H1115 C1112 0.930 . S
O1116 Li1056 1.956 . S
O1116 Li1057 1.970 . S
O1116 Li1058 1.961 . S
O1116 C1060 1.325 . S
O1117 Li1056 1.970 . S
O1117 Li1057 1.956 . S
O1117 Li1059 1.961 . S
O1117 C1066 1.325 . S
O1118 Li1056 1.961 . S
O1118 Li1058 1.956 . S
O1118 Li1059 1.970 . S
O1118 C1088 1.325 . S
O1119 Li1057 1.961 . S
O1119 Li1058 1.970 . S
O1119 Li1059 1.956 . S
O1119 C1094 1.325 . S
H1120 C1062 0.929 . S
H1121 C1063 0.930 . S
H1122 C1064 0.930 . S
H1123 C1065 0.930 . S
H1124 C1067 0.930 . S
H1125 C1069 0.929 . S
H1126 C1070 0.930 . S
H1127 C1071 0.930 . S
H1128 C1074 0.930 . S
H1129 C1077 0.929 . S
H1130 C1082 0.929 . S
H1131 C1083 0.930 . S
H1132 C1090 0.929 . S
H1133 C1091 0.930 . S
H1134 C1092 0.930 . S
H1135 C1093 0.930 . S
H1136 C1095 0.929 . S
H1137 C1096 0.933 . S
H1138 C1097 0.930 . S
H1139 C1098 0.930 . S
H1140 C1102 0.929 . S
H1141 C1104 0.930 . S
H1142 C1110 0.929 . S
H1143 C1111 0.930 . S
Li1144 N1161 1.990 . S
Li1144 O1204 1.956 . S
Li1144 O1205 1.970 . S
Li1144 O1206 1.961 . S
Li1145 N1169 1.990 . S
Li1145 O1204 1.970 . S
Li1145 O1205 1.956 . S
Li1145 O1207 1.961 . S
Li1146 N1191 1.990 . S
Li1146 O1204 1.961 . S
Li1146 O1206 1.956 . S
Li1146 O1207 1.970 . S
Li1147 N1197 1.990 . S
Li1147 O1205 1.961 . S
Li1147 O1206 1.970 . S
Li1147 O1207 1.956 . S
C1148 C1150 1.348 . S
C1148 C1151 1.356 . S
C1148 O1204 1.325 . S
N1149 C1152 1.314 . S
N1149 C1153 1.279 . S
C1150 C1148 1.348 . S
C1150 C1152 1.353 . S
C1150 H1208 0.929 . S
C1151 C1148 1.356 . S
C1151 C1153 1.358 . S
C1151 H1209 0.930 . S
C1152 N1149 1.314 . S
C1152 C1150 1.353 . S
C1152 H1210 0.930 . S
C1153 N1149 1.279 . S
C1153 C1151 1.358 . S
C1153 H1211 0.930 . S
C1154 C1157 1.348 . S
C1154 C1158 1.356 . S
C1154 O1205 1.325 . S
C1155 N1156 1.279 . S
C1155 C1158 1.358 . S
C1155 H1212 0.930 . S
N1156 C1155 1.279 . S
N1156 C1159 1.314 . S
C1157 C1154 1.348 . S
C1157 C1159 1.353 . S
C1157 H1213 0.929 . S
C1158 C1154 1.356 . S
C1158 C1155 1.358 . S
C1158 H1214 0.930 . S
C1159 N1156 1.314 . S
C1159 C1157 1.353 . S
C1159 H1215 0.930 . S
C1160 N1161 1.314 . S
C1160 C1165 1.353 . S
C1160 H1166 0.930 . S
N1161 Li1144 1.990 . S
N1161 C1160 1.314 . S
N1161 C1163 1.279 . S
C1162 C1163 1.358 . S
C1162 C1164 1.356 . S
C1162 H1216 0.930 . S
C1163 N1161 1.279 . S
C1163 C1162 1.358 . S
C1163 H1167 0.930 . S
C1164 C1162 1.356 . S
C1164 C1165 1.348 . S
C1165 C1160 1.353 . S
C1165 C1164 1.348 . S
C1165 H1217 0.929 . S
H1166 C1160 0.930 . S
H1167 C1163 0.930 . S
C1168 N1169 1.314 . S
C1168 C1170 1.353 . S
C1168 H1174 0.930 . S
N1169 Li1145 1.990 . S
N1169 C1168 1.314 . S
N1169 C1172 1.279 . S
C1170 C1168 1.353 . S
C1170 C1173 1.348 . S
C1170 H1218 0.929 . S
C1171 C1172 1.358 . S
C1171 C1173 1.356 . S
C1171 H1219 0.930 . S
C1172 N1169 1.279 . S
C1172 C1171 1.358 . S
C1172 H1175 0.930 . S
C1173 C1170 1.348 . S
C1173 C1171 1.356 . S
H1174 C1168 0.930 . S
H1175 C1172 0.930 . S
C1176 C1178 1.348 . S
C1176 C1179 1.356 . S
C1176 O1206 1.325 . S
N1177 C1180 1.314 . S
N1177 C1181 1.279 . S
C1178 C1176 1.348 . S
C1178 C1180 1.353 . S
C1178 H1220 0.929 . S
C1179 C1176 1.356 . S
C1179 C1181 1.358 . S
C1179 H1221 0.930 . S
C1180 N1177 1.314 . S
C1180 C1178 1.353 . S
C1180 H1222 0.930 . S
C1181 N1177 1.279 . S
C1181 C1179 1.358 . S
C1181 H1223 0.930 . S
C1182 C1183 1.348 . S
C1182 C1184 1.356 . S
C1182 O1207 1.325 . S
C1183 C1182 1.348 . S
C1183 C1185 1.353 . S
C1183 H1224 0.929 . S
C1184 C1182 1.356 . S
C1184 C1186 1.358 . S
C1184 H1225 0.930 . S
C1185 C1183 1.353 . S
C1185 N1187 1.314 . S
C1185 H1226 0.930 . S
C1186 C1184 1.358 . S
C1186 N1187 1.279 . S
C1186 H1227 0.930 . S
N1187 C1185 1.314 . S
N1187 C1186 1.279 . S
C1188 C1190 1.353 . S
C1188 N1191 1.314 . S
C1188 H1194 0.930 . S
C1189 N1191 1.279 . S
C1189 C1192 1.358 . S
C1189 H1195 0.930 . S
C1190 C1188 1.353 . S
C1190 C1193 1.348 . S
C1190 H1228 0.929 . S
N1191 Li1146 1.990 . S
N1191 C1188 1.314 . S
N1191 C1189 1.279 . S
C1192 C1189 1.358 . S
C1192 C1193 1.356 . S
C1192 H1229 0.930 . S
C1193 C1190 1.348 . S
C1193 C1192 1.356 . S
H1194 C1188 0.930 . S
H1195 C1189 0.930 . S
C1196 N1197 1.314 . S
C1196 C1198 1.353 . S
C1196 H1202 0.930 . S
N1197 Li1147 1.990 . S
N1197 C1196 1.314 . S
N1197 C1200 1.279 . S
C1198 C1196 1.353 . S
C1198 C1201 1.348 . S
C1198 H1230 0.929 . S
C1199 C1200 1.358 . S
C1199 C1201 1.356 . S
C1199 H1231 0.930 . S
C1200 N1197 1.279 . S
C1200 C1199 1.358 . S
C1200 H1203 0.930 . S
C1201 C1198 1.348 . S
C1201 C1199 1.356 . S
H1202 C1196 0.930 . S
H1203 C1200 0.930 . S
O1204 Li1144 1.956 . S
O1204 Li1145 1.970 . S
O1204 Li1146 1.961 . S
O1204 C1148 1.325 . S
O1205 Li1144 1.970 . S
O1205 Li1145 1.956 . S
O1205 Li1147 1.961 . S
O1205 C1154 1.325 . S
O1206 Li1144 1.961 . S
O1206 Li1146 1.956 . S
O1206 Li1147 1.970 . S
O1206 C1176 1.325 . S
O1207 Li1145 1.961 . S
O1207 Li1146 1.970 . S
O1207 Li1147 1.956 . S
O1207 C1182 1.325 . S
H1208 C1150 0.929 . S
H1209 C1151 0.930 . S
H1210 C1152 0.930 . S
H1211 C1153 0.930 . S
H1212 C1155 0.930 . S
H1213 C1157 0.929 . S
H1214 C1158 0.930 . S
H1215 C1159 0.930 . S
H1216 C1162 0.930 . S
H1217 C1165 0.929 . S
H1218 C1170 0.929 . S
H1219 C1171 0.930 . S
H1220 C1178 0.929 . S
H1221 C1179 0.930 . S
H1222 C1180 0.930 . S
H1223 C1181 0.930 . S
H1224 C1183 0.929 . S
H1225 C1184 0.930 . S
H1226 C1185 0.930 . S
H1227 C1186 0.930 . S
H1228 C1190 0.929 . S
H1229 C1192 0.930 . S
H1230 C1198 0.929 . S
H1231 C1199 0.930 . S
Li1232 N1249 1.990 . S
Li1232 O1292 1.956 . S
Li1232 O1293 1.970 . S
Li1232 O1294 1.961 . S
Li1233 N1257 1.990 . S
Li1233 O1292 1.970 . S
Li1233 O1293 1.956 . S
Li1233 O1295 1.961 . S
Li1234 N1279 1.990 . S
Li1234 O1292 1.961 . S
Li1234 O1294 1.956 . S
Li1234 O1295 1.970 . S
Li1235 N1285 1.990 . S
Li1235 O1293 1.961 . S
Li1235 O1294 1.970 . S
Li1235 O1295 1.956 . S
C1236 C1238 1.348 . S
C1236 C1239 1.356 . S
C1236 O1292 1.325 . S
N1237 C1240 1.314 . S
N1237 C1241 1.279 . S
C1238 C1236 1.348 . S
C1238 C1240 1.353 . S
C1238 H1296 0.929 . S
C1239 C1236 1.356 . S
C1239 C1241 1.358 . S
C1239 H1297 0.930 . S
C1240 N1237 1.314 . S
C1240 C1238 1.353 . S
C1240 H1298 0.930 . S
C1241 N1237 1.279 . S
C1241 C1239 1.358 . S
C1241 H1299 0.930 . S
C1242 C1245 1.348 . S
C1242 C1246 1.356 . S
C1242 O1293 1.325 . S
C1243 N1244 1.279 . S
C1243 C1246 1.358 . S
C1243 H1300 0.930 . S
N1244 C1243 1.279 . S
N1244 C1247 1.314 . S
C1245 C1242 1.348 . S
C1245 C1247 1.353 . S
C1245 H1301 0.929 . S
C1246 C1242 1.356 . S
C1246 C1243 1.358 . S
C1246 H1302 0.930 . S
C1247 N1244 1.314 . S
C1247 C1245 1.353 . S
C1247 H1303 0.930 . S
C1248 N1249 1.314 . S
C1248 C1253 1.353 . S
C1248 H1254 0.930 . S
N1249 Li1232 1.990 . S
N1249 C1248 1.314 . S
N1249 C1251 1.279 . S
C1250 C1251 1.358 . S
C1250 C1252 1.356 . S
C1250 H1304 0.930 . S
C1251 N1249 1.279 . S
C1251 C1250 1.358 . S
C1251 H1255 0.930 . S
C1252 C1250 1.356 . S
C1252 C1253 1.348 . S
C1253 C1248 1.353 . S
C1253 C1252 1.348 . S
C1253 H1305 0.929 . S
H1254 C1248 0.930 . S
H1255 C1251 0.930 . S
C1256 N1257 1.314 . S
C1256 C1258 1.353 . S
C1256 H1262 0.930 . S
N1257 Li1233 1.990 . S
N1257 C1256 1.314 . S
N1257 C1260 1.279 . S
C1258 C1256 1.353 . S
C1258 C1261 1.348 . S
C1258 H1306 0.929 . S
C1259 C1260 1.358 . S
C1259 C1261 1.356 . S
C1259 H1307 0.930 . S
C1260 N1257 1.279 . S
C1260 C1259 1.358 . S
C1260 H1263 0.930 . S
C1261 C1258 1.348 . S
C1261 C1259 1.356 . S
H1262 C1256 0.930 . S
H1263 C1260 0.930 . S
C1264 C1266 1.348 . S
C1264 C1267 1.356 . S
C1264 O1294 1.325 . S
N1265 C1268 1.314 . S
N1265 C1269 1.279 . S
C1266 C1264 1.348 . S
C1266 C1268 1.353 . S
C1266 H1308 0.929 . S
C1267 C1264 1.356 . S
C1267 C1269 1.358 . S
C1267 H1309 0.930 . S
C1268 N1265 1.314 . S
C1268 C1266 1.353 . S
C1268 H1310 0.930 . S
C1269 N1265 1.279 . S
C1269 C1267 1.358 . S
C1269 H1311 0.930 . S
C1270 C1271 1.348 . S
C1270 C1272 1.356 . S
C1270 O1295 1.325 . S
C1271 C1270 1.348 . S
C1271 C1273 1.353 . S
C1271 H1312 0.929 . S
C1272 C1270 1.356 . S
C1272 C1274 1.358 . S
C1272 H1313 0.930 . S
C1273 C1271 1.353 . S
C1273 N1275 1.314 . S
C1273 H1314 0.930 . S
C1274 C1272 1.358 . S
C1274 N1275 1.279 . S
C1274 H1315 0.930 . S
N1275 C1273 1.314 . S
N1275 C1274 1.279 . S
C1276 C1278 1.353 . S
C1276 N1279 1.314 . S
C1276 H1282 0.930 . S
C1277 N1279 1.279 . S
C1277 C1280 1.358 . S
C1277 H1283 0.930 . S
C1278 C1276 1.353 . S
C1278 C1281 1.348 . S
C1278 H1316 0.929 . S
N1279 Li1234 1.990 . S
N1279 C1276 1.314 . S
N1279 C1277 1.279 . S
C1280 C1277 1.358 . S
C1280 C1281 1.356 . S
C1280 H1317 0.930 . S
C1281 C1278 1.348 . S
C1281 C1280 1.356 . S
H1282 C1276 0.930 . S
H1283 C1277 0.930 . S
C1284 N1285 1.314 . S
C1284 C1286 1.353 . S
C1284 H1290 0.930 . S
N1285 Li1235 1.990 . S
N1285 C1284 1.314 . S
N1285 C1288 1.279 . S
C1286 C1284 1.353 . S
C1286 C1289 1.348 . S
C1286 H1318 0.929 . S
C1287 C1288 1.358 . S
C1287 C1289 1.356 . S
C1287 H1319 0.930 . S
C1288 N1285 1.279 . S
C1288 C1287 1.358 . S
C1288 H1291 0.930 . S
C1289 C1286 1.348 . S
C1289 C1287 1.356 . S
H1290 C1284 0.930 . S
H1291 C1288 0.930 . S
O1292 Li1232 1.956 . S
O1292 Li1233 1.970 . S
O1292 Li1234 1.961 . S
O1292 C1236 1.325 . S
O1293 Li1232 1.970 . S
O1293 Li1233 1.956 . S
O1293 Li1235 1.961 . S
O1293 C1242 1.325 . S
O1294 Li1232 1.961 . S
O1294 Li1234 1.956 . S
O1294 Li1235 1.970 . S
O1294 C1264 1.325 . S
O1295 Li1233 1.961 . S
O1295 Li1234 1.970 . S
O1295 Li1235 1.956 . S
O1295 C1270 1.325 . S
H1296 C1238 0.929 . S
H1297 C1239 0.930 . S
H1298 C1240 0.930 . S
H1299 C1241 0.930 . S
H1300 C1243 0.930 . S
H1301 C1245 0.929 . S
H1302 C1246 0.930 . S
H1303 C1247 0.930 . S
H1304 C1250 0.930 . S
H1305 C1253 0.929 . S
H1306 C1258 0.929 . S
H1307 C1259 0.930 . S
H1308 C1266 0.929 . S
H1309 C1267 0.930 . S
H1310 C1268 0.930 . S
H1311 C1269 0.930 . S
H1312 C1271 0.929 . S
H1313 C1272 0.930 . S
H1314 C1273 0.930 . S
H1315 C1274 0.930 . S
H1316 C1278 0.929 . S
H1317 C1280 0.930 . S
H1318 C1286 0.929 . S
H1319 C1287 0.930 . S
Li1320 N1337 1.990 . S
Li1320 O1380 1.956 . S
Li1320 O1381 1.970 . S
Li1320 O1382 1.961 . S
Li1321 N1345 1.990 . S
Li1321 O1380 1.970 . S
Li1321 O1381 1.956 . S
Li1321 O1383 1.961 . S
Li1322 N1367 1.990 . S
Li1322 O1380 1.961 . S
Li1322 O1382 1.956 . S
Li1322 O1383 1.970 . S
Li1323 N1373 1.990 1_554 S
Li1323 O1381 1.961 . S
Li1323 O1382 1.970 . S
Li1323 O1383 1.956 . S
C1324 C1326 1.348 . S
C1324 C1327 1.356 . S
C1324 O1380 1.325 . S
N1325 C1328 1.314 . S
N1325 C1329 1.279 . S
C1326 C1324 1.348 . S
C1326 C1328 1.353 . S
C1326 H1384 0.929 . S
C1327 C1324 1.356 . S
C1327 C1329 1.358 . S
C1327 H1385 0.930 . S
C1328 N1325 1.314 . S
C1328 C1326 1.353 . S
C1328 H1386 0.930 . S
C1329 N1325 1.279 . S
C1329 C1327 1.358 . S
C1329 H1387 0.930 . S
C1330 C1333 1.348 . S
C1330 C1334 1.356 . S
C1330 O1381 1.325 . S
C1331 N1332 1.279 . S
C1331 C1334 1.358 . S
C1331 H1388 0.930 1_554 S
N1332 C1331 1.279 . S
N1332 C1335 1.314 . S
C1333 C1330 1.348 . S
C1333 C1335 1.353 . S
C1333 H1389 0.929 . S
C1334 C1330 1.356 . S
C1334 C1331 1.358 . S
C1334 H1390 0.930 1_554 S
C1335 N1332 1.314 . S
C1335 C1333 1.353 . S
C1335 H1391 0.930 . S
C1336 N1337 1.314 . S
C1336 C1341 1.353 . S
C1336 H1342 0.930 . S
N1337 Li1320 1.990 . S
N1337 C1336 1.314 . S
N1337 C1339 1.279 . S
C1338 C1339 1.358 . S
C1338 C1340 1.356 . S
C1338 H1392 0.930 . S
C1339 N1337 1.279 . S
C1339 C1338 1.358 . S
C1339 H1343 0.930 . S
C1340 C1338 1.356 . S
C1340 C1341 1.348 . S
C1341 C1336 1.353 . S
C1341 C1340 1.348 . S
C1341 H1393 0.929 . S
H1342 C1336 0.930 . S
H1343 C1339 0.930 . S
C1344 N1345 1.314 . S
C1344 C1346 1.353 . S
C1344 H1350 0.930 . S
N1345 Li1321 1.990 . S
N1345 C1344 1.314 . S
N1345 C1348 1.279 . S
C1346 C1344 1.353 . S
C1346 C1349 1.348 . S
C1346 H1394 0.929 . S
C1347 C1348 1.358 . S
C1347 C1349 1.356 . S
C1347 H1395 0.930 . S
C1348 N1345 1.279 . S
C1348 C1347 1.358 . S
C1348 H1351 0.930 . S
C1349 C1346 1.348 . S
C1349 C1347 1.356 . S
H1350 C1344 0.930 . S
H1351 C1348 0.930 . S
C1352 C1354 1.348 1_554 S
C1352 C1355 1.356 . S
C1352 O1382 1.325 . S
N1353 C1356 1.314 1_554 S
N1353 C1357 1.279 . S
C1354 C1352 1.348 1_556 S
C1354 C1356 1.353 . S
C1354 H1396 0.929 . S
C1355 C1352 1.356 . S
C1355 C1357 1.358 . S
C1355 H1397 0.930 . S
C1356 N1353 1.314 1_556 S
C1356 C1354 1.353 . S
C1356 H1398 0.930 . S
C1357 N1353 1.279 . S
C1357 C1355 1.358 . S
C1357 H1399 0.930 . S
C1358 C1359 1.348 . S
C1358 C1360 1.356 . S
C1358 O1383 1.325 1_556 S
C1359 C1358 1.348 . S
C1359 C1361 1.353 . S
C1359 H1400 0.929 . S
C1360 C1358 1.356 . S
C1360 C1362 1.358 . S
C1360 H1401 0.930 . S
C1361 C1359 1.353 . S
C1361 N1363 1.314 . S
C1361 H1402 0.930 . S
C1362 C1360 1.358 . S
C1362 N1363 1.279 . S
C1362 H1403 0.930 . S
N1363 C1361 1.314 . S
N1363 C1362 1.279 . S
C1364 C1366 1.353 . S
C1364 N1367 1.314 . S
C1364 H1370 0.930 . S
C1365 N1367 1.279 . S
C1365 C1368 1.358 . S
C1365 H1371 0.930 . S
C1366 C1364 1.353 . S
C1366 C1369 1.348 . S
C1366 H1404 0.929 . S
N1367 Li1322 1.990 . S
N1367 C1364 1.314 . S
N1367 C1365 1.279 . S
C1368 C1365 1.358 . S
C1368 C1369 1.356 . S
C1368 H1405 0.930 . S
C1369 C1366 1.348 . S
C1369 C1368 1.356 . S
H1370 C1364 0.930 . S
H1371 C1365 0.930 . S
C1372 N1373 1.314 . S
C1372 C1374 1.353 . S
C1372 H1378 0.930 . S
N1373 Li1323 1.990 1_556 S
N1373 C1372 1.314 . S
N1373 C1376 1.279 . S
C1374 C1372 1.353 . S
C1374 C1377 1.348 . S
C1374 H1406 0.929 . S
C1375 C1376 1.358 . S
C1375 C1377 1.356 . S
C1375 H1407 0.930 . S
C1376 N1373 1.279 . S
C1376 C1375 1.358 . S
C1376 H1379 0.930 . S
C1377 C1374 1.348 . S
C1377 C1375 1.356 . S
H1378 C1372 0.930 . S
H1379 C1376 0.930 . S
O1380 Li1320 1.956 . S
O1380 Li1321 1.970 . S
O1380 Li1322 1.961 . S
O1380 C1324 1.325 . S
O1381 Li1320 1.970 . S
O1381 Li1321 1.956 . S
O1381 Li1323 1.961 . S
O1381 C1330 1.325 . S
O1382 Li1320 1.961 . S
O1382 Li1322 1.956 . S
O1382 Li1323 1.970 . S
O1382 C1352 1.325 . S
O1383 Li1321 1.961 . S
O1383 Li1322 1.970 . S
O1383 Li1323 1.956 . S
O1383 C1358 1.325 1_554 S
H1384 C1326 0.929 . S
H1385 C1327 0.930 . S
H1386 C1328 0.930 . S
H1387 C1329 0.930 . S
H1388 C1331 0.930 1_556 S
H1389 C1333 0.929 . S
H1390 C1334 0.930 1_556 S
H1391 C1335 0.930 . S
H1392 C1338 0.930 . S
H1393 C1341 0.929 . S
H1394 C1346 0.929 . S
H1395 C1347 0.930 . S
H1396 C1354 0.929 . S
H1397 C1355 0.930 . S
H1398 C1356 0.930 . S
H1399 C1357 0.930 . S
H1400 C1359 0.929 . S
H1401 C1360 0.930 . S
H1402 C1361 0.930 . S
H1403 C1362 0.930 . S
H1404 C1366 0.929 . S
H1405 C1368 0.930 . S
H1406 C1374 0.929 . S
H1407 C1375 0.930 . S
Li1408 N1425 1.990 . S
Li1408 O1468 1.956 . S
Li1408 O1469 1.970 . S
Li1408 O1470 1.961 . S
Li1409 N1433 1.990 . S
Li1409 O1468 1.970 . S
Li1409 O1469 1.956 . S
Li1409 O1471 1.961 . S
Li1410 N1455 1.990 . S
Li1410 O1468 1.961 . S
Li1410 O1470 1.956 . S
Li1410 O1471 1.970 . S
Li1411 N1461 1.990 . S
Li1411 O1469 1.961 . S
Li1411 O1470 1.970 . S
Li1411 O1471 1.956 . S
C1412 C1414 1.348 . S
C1412 C1415 1.356 . S
C1412 O1468 1.325 . S
N1413 C1416 1.314 . S
N1413 C1417 1.279 . S
C1414 C1412 1.348 . S
C1414 C1416 1.353 . S
C1414 H1472 0.929 . S
C1415 C1412 1.356 . S
C1415 C1417 1.358 . S
C1415 H1473 0.930 . S
C1416 N1413 1.314 . S
C1416 C1414 1.353 . S
C1416 H1474 0.930 . S
C1417 N1413 1.279 . S
C1417 C1415 1.358 . S
C1417 H1475 0.930 . S
C1418 C1421 1.348 . S
C1418 C1422 1.356 . S
C1418 O1469 1.325 . S
C1419 N1420 1.279 . S
C1419 C1422 1.358 . S
C1419 H1476 0.930 . S
N1420 C1419 1.279 . S
N1420 C1423 1.314 . S
C1421 C1418 1.348 . S
C1421 C1423 1.353 . S
C1421 H1477 0.929 . S
C1422 C1418 1.356 . S
C1422 C1419 1.358 . S
C1422 H1478 0.930 . S
C1423 N1420 1.314 . S
C1423 C1421 1.353 . S
C1423 H1479 0.930 . S
C1424 N1425 1.314 . S
C1424 C1429 1.353 . S
C1424 H1430 0.930 . S
N1425 Li1408 1.990 . S
N1425 C1424 1.314 . S
N1425 C1427 1.279 . S
C1426 C1427 1.358 . S
C1426 C1428 1.356 . S
C1426 H1480 0.930 . S
C1427 N1425 1.279 . S
C1427 C1426 1.358 . S
C1427 H1431 0.930 . S
C1428 C1426 1.356 . S
C1428 C1429 1.348 . S
C1429 C1424 1.353 . S
C1429 C1428 1.348 . S
C1429 H1481 0.929 . S
H1430 C1424 0.930 . S
H1431 C1427 0.930 . S
C1432 N1433 1.314 . S
C1432 C1434 1.353 . S
C1432 H1438 0.930 . S
N1433 Li1409 1.990 . S
N1433 C1432 1.314 . S
N1433 C1436 1.279 . S
C1434 C1432 1.353 . S
C1434 C1437 1.348 . S
C1434 H1482 0.929 . S
C1435 C1436 1.358 . S
C1435 C1437 1.356 . S
C1435 H1483 0.930 . S
C1436 N1433 1.279 . S
C1436 C1435 1.358 . S
C1436 H1439 0.930 . S
C1437 C1434 1.348 . S
C1437 C1435 1.356 . S
H1438 C1432 0.930 . S
H1439 C1436 0.930 . S
C1440 C1442 1.348 . S
C1440 C1443 1.356 . S
C1440 O1470 1.325 . S
N1441 C1444 1.314 . S
N1441 C1445 1.279 . S
C1442 C1440 1.348 . S
C1442 C1444 1.353 . S
C1442 H1484 0.929 . S
C1443 C1440 1.356 . S
C1443 C1445 1.358 . S
C1443 H1485 0.930 . S
C1444 N1441 1.314 . S
C1444 C1442 1.353 . S
C1444 H1486 0.930 . S
C1445 N1441 1.279 . S
C1445 C1443 1.358 . S
C1445 H1487 0.930 . S
C1446 C1447 1.348 . S
C1446 C1448 1.356 . S
C1446 O1471 1.325 . S
C1447 C1446 1.348 . S
C1447 C1449 1.353 . S
C1447 H1488 0.929 . S
C1448 C1446 1.356 . S
C1448 C1450 1.358 . S
C1448 H1489 0.930 . S
C1449 C1447 1.353 . S
C1449 N1451 1.314 . S
C1449 H1490 0.930 . S
C1450 C1448 1.358 . S
C1450 N1451 1.279 . S
C1450 H1491 0.930 . S
N1451 C1449 1.314 . S
N1451 C1450 1.279 . S
C1452 C1454 1.353 . S
C1452 N1455 1.314 . S
C1452 H1458 0.930 . S
C1453 N1455 1.279 . S
C1453 C1456 1.358 . S
C1453 H1459 0.930 . S
C1454 C1452 1.353 . S
C1454 C1457 1.348 . S
C1454 H1492 0.929 . S
N1455 Li1410 1.990 . S
N1455 C1452 1.314 . S
N1455 C1453 1.279 . S
C1456 C1453 1.358 . S
C1456 C1457 1.356 . S
C1456 H1493 0.930 . S
C1457 C1454 1.348 . S
C1457 C1456 1.356 . S
H1458 C1452 0.930 . S
H1459 C1453 0.930 . S
C1460 N1461 1.314 . S
C1460 C1462 1.353 . S
C1460 H1466 0.930 . S
N1461 Li1411 1.990 . S
N1461 C1460 1.314 . S
N1461 C1464 1.279 . S
C1462 C1460 1.353 . S
C1462 C1465 1.348 . S
C1462 H1494 0.929 . S
C1463 C1464 1.358 . S
C1463 C1465 1.356 . S
C1463 H1495 0.930 . S
C1464 N1461 1.279 . S
C1464 C1463 1.358 . S
C1464 H1467 0.930 . S
C1465 C1462 1.348 . S
C1465 C1463 1.356 . S
H1466 C1460 0.930 . S
H1467 C1464 0.930 . S
O1468 Li1408 1.956 . S
O1468 Li1409 1.970 . S
O1468 Li1410 1.961 . S
O1468 C1412 1.325 . S
O1469 Li1408 1.970 . S
O1469 Li1409 1.956 . S
O1469 Li1411 1.961 . S
O1469 C1418 1.325 . S
O1470 Li1408 1.961 . S
O1470 Li1410 1.956 . S
O1470 Li1411 1.970 . S
O1470 C1440 1.325 . S
O1471 Li1409 1.961 . S
O1471 Li1410 1.970 . S
O1471 Li1411 1.956 . S
O1471 C1446 1.325 . S
H1472 C1414 0.929 . S
H1473 C1415 0.930 . S
H1474 C1416 0.930 . S
H1475 C1417 0.930 . S
H1476 C1419 0.930 . S
H1477 C1421 0.929 . S
H1478 C1422 0.930 . S
H1479 C1423 0.930 . S
H1480 C1426 0.930 . S
H1481 C1429 0.929 . S
H1482 C1434 0.929 . S
H1483 C1435 0.930 . S
H1484 C1442 0.929 . S
H1485 C1443 0.930 . S
H1486 C1444 0.930 . S
H1487 C1445 0.930 . S
H1488 C1447 0.929 . S
H1489 C1448 0.930 . S
H1490 C1449 0.930 . S
H1491 C1450 0.930 . S
H1492 C1454 0.929 . S
H1493 C1456 0.930 . S
H1494 C1462 0.929 . S
H1495 C1463 0.930 . S
Li1496 N1513 1.990 . S
Li1496 O1556 1.956 . S
Li1496 O1557 1.970 . S
Li1496 O1558 1.961 . S
Li1497 N1521 1.990 . S
Li1497 O1556 1.970 . S
Li1497 O1557 1.956 . S
Li1497 O1559 1.961 . S
Li1498 N1543 1.990 1_554 S
Li1498 O1556 1.961 . S
Li1498 O1558 1.956 . S
Li1498 O1559 1.970 . S
Li1499 N1549 1.990 . S
Li1499 O1557 1.961 . S
Li1499 O1558 1.970 . S
Li1499 O1559 1.956 . S
C1500 C1502 1.348 . S
C1500 C1503 1.356 . S
C1500 O1556 1.325 1_556 S
N1501 C1504 1.314 . S
N1501 C1505 1.279 . S
C1502 C1500 1.348 . S
C1502 C1504 1.353 . S
C1502 H1560 0.929 1_556 S
C1503 C1500 1.356 . S
C1503 C1505 1.358 . S
C1503 H1561 0.930 . S
C1504 N1501 1.314 . S
C1504 C1502 1.353 . S
C1504 H1562 0.930 . S
C1505 N1501 1.279 . S
C1505 C1503 1.358 . S
C1505 H1563 0.930 . S
C1506 C1509 1.348 . S
C1506 C1510 1.356 . S
C1506 O1557 1.325 . S
C1507 N1508 1.279 . S
C1507 C1510 1.358 . S
C1507 H1564 0.930 . S
N1508 C1507 1.279 . S
N1508 C1511 1.314 . S
C1509 C1506 1.348 . S
C1509 C1511 1.353 . S
C1509 H1565 0.929 . S
C1510 C1506 1.356 . S
C1510 C1507 1.358 . S
C1510 H1566 0.930 . S
C1511 N1508 1.314 . S
C1511 C1509 1.353 . S
C1511 H1567 0.930 . S
C1512 N1513 1.314 . S
C1512 C1517 1.353 . S
C1512 H1518 0.930 . S
N1513 Li1496 1.990 . S
N1513 C1512 1.314 . S
N1513 C1515 1.279 . S
C1514 C1515 1.358 . S
C1514 C1516 1.356 . S
C1514 H1568 0.930 . S
C1515 N1513 1.279 . S
C1515 C1514 1.358 . S
C1515 H1519 0.930 . S
C1516 C1514 1.356 . S
C1516 C1517 1.348 . S
C1517 C1512 1.353 . S
C1517 C1516 1.348 . S
C1517 H1569 0.929 . S
H1518 C1512 0.930 . S
H1519 C1515 0.930 . S
C1520 N1521 1.314 . S
C1520 C1522 1.353 . S
C1520 H1526 0.930 . S
N1521 Li1497 1.990 . S
N1521 C1520 1.314 . S
N1521 C1524 1.279 . S
C1522 C1520 1.353 . S
C1522 C1525 1.348 . S
C1522 H1570 0.929 . S
C1523 C1524 1.358 . S
C1523 C1525 1.356 . S
C1523 H1571 0.930 . S
C1524 N1521 1.279 . S
C1524 C1523 1.358 . S
C1524 H1527 0.930 . S
C1525 C1522 1.348 . S
C1525 C1523 1.356 . S
H1526 C1520 0.930 . S
H1527 C1524 0.930 . S
C1528 C1530 1.348 . S
C1528 C1531 1.356 . S
C1528 O1558 1.325 . S
N1529 C1532 1.314 . S
N1529 C1533 1.279 . S
C1530 C1528 1.348 . S
C1530 C1532 1.353 . S
C1530 H1572 0.929 . S
C1531 C1528 1.356 . S
C1531 C1533 1.358 . S
C1531 H1573 0.930 . S
C1532 N1529 1.314 . S
C1532 C1530 1.353 . S
C1532 H1574 0.930 . S
C1533 N1529 1.279 . S
C1533 C1531 1.358 . S
C1533 H1575 0.930 . S
C1534 C1535 1.348 1_554 S
C1534 C1536 1.356 . S
C1534 O1559 1.325 . S
C1535 C1534 1.348 1_556 S
C1535 C1537 1.353 . S
C1535 H1576 0.929 . S
C1536 C1534 1.356 . S
C1536 C1538 1.358 . S
C1536 H1577 0.930 . S
C1537 C1535 1.353 . S
C1537 N1539 1.314 1_556 S
C1537 H1578 0.930 . S
C1538 C1536 1.358 . S
C1538 N1539 1.279 . S
C1538 H1579 0.930 . S
N1539 C1537 1.314 1_554 S
N1539 C1538 1.279 . S
C1540 C1542 1.353 . S
C1540 N1543 1.314 . S
C1540 H1546 0.930 . S
C1541 N1543 1.279 . S
C1541 C1544 1.358 . S
C1541 H1547 0.930 . S
C1542 C1540 1.353 . S
C1542 C1545 1.348 . S
C1542 H1580 0.929 . S
N1543 Li1498 1.990 1_556 S
N1543 C1540 1.314 . S
N1543 C1541 1.279 . S
C1544 C1541 1.358 . S
C1544 C1545 1.356 . S
C1544 H1581 0.930 . S
C1545 C1542 1.348 . S
C1545 C1544 1.356 . S
H1546 C1540 0.930 . S
H1547 C1541 0.930 . S
C1548 N1549 1.314 . S
C1548 C1550 1.353 . S
C1548 H1554 0.930 . S
N1549 Li1499 1.990 . S
N1549 C1548 1.314 . S
N1549 C1552 1.279 . S
C1550 C1548 1.353 . S
C1550 C1553 1.348 . S
C1550 H1582 0.929 . S
C1551 C1552 1.358 . S
C1551 C1553 1.356 . S
C1551 H1583 0.930 . S
C1552 N1549 1.279 . S
C1552 C1551 1.358 . S
C1552 H1555 0.930 . S
C1553 C1550 1.348 . S
C1553 C1551 1.356 . S
H1554 C1548 0.930 . S
H1555 C1552 0.930 . S
O1556 Li1496 1.956 . S
O1556 Li1497 1.970 . S
O1556 Li1498 1.961 . S
O1556 C1500 1.325 1_554 S
O1557 Li1496 1.970 . S
O1557 Li1497 1.956 . S
O1557 Li1499 1.961 . S
O1557 C1506 1.325 . S
O1558 Li1496 1.961 . S
O1558 Li1498 1.956 . S
O1558 Li1499 1.970 . S
O1558 C1528 1.325 . S
O1559 Li1497 1.961 . S
O1559 Li1498 1.970 . S
O1559 Li1499 1.956 . S
O1559 C1534 1.325 . S
H1560 C1502 0.929 1_554 S
H1561 C1503 0.930 . S
H1562 C1504 0.930 . S
H1563 C1505 0.930 . S
H1564 C1507 0.930 . S
H1565 C1509 0.929 . S
H1566 C1510 0.930 . S
H1567 C1511 0.930 . S
H1568 C1514 0.930 . S
H1569 C1517 0.929 . S
H1570 C1522 0.929 . S
H1571 C1523 0.930 . S
H1572 C1530 0.929 . S
H1573 C1531 0.930 . S
H1574 C1532 0.930 . S
H1575 C1533 0.930 . S
H1576 C1535 0.929 . S
H1577 C1536 0.930 . S
H1578 C1537 0.930 . S
H1579 C1538 0.930 . S
H1580 C1542 0.929 . S
H1581 C1544 0.930 . S
H1582 C1550 0.929 . S
H1583 C1551 0.930 . S
Li1584 N1601 1.990 . S
Li1584 O1644 1.956 . S
Li1584 O1645 1.970 . S
Li1584 O1646 1.961 . S
Li1585 N1609 1.990 1_655 S
Li1585 O1644 1.970 . S
Li1585 O1645 1.956 . S
Li1585 O1647 1.961 . S
Li1586 N1631 1.990 . S
Li1586 O1644 1.961 . S
Li1586 O1646 1.956 . S
Li1586 O1647 1.970 . S
Li1587 N1637 1.990 . S
Li1587 O1645 1.961 . S
Li1587 O1646 1.970 . S
Li1587 O1647 1.956 . S
C1588 C1590 1.348 . S
C1588 C1591 1.356 . S
C1588 O1644 1.325 . S
N1589 C1592 1.314 . S
N1589 C1593 1.279 . S
C1590 C1588 1.348 . S
C1590 C1592 1.353 . S
C1590 H1648 0.929 . S
C1591 C1588 1.356 . S
C1591 C1593 1.358 . S
C1591 H1649 0.930 . S
C1592 N1589 1.314 . S
C1592 C1590 1.353 . S
C1592 H1650 0.930 . S
C1593 N1589 1.279 . S
C1593 C1591 1.358 . S
C1593 H1651 0.930 . S
C1594 C1597 1.348 . S
C1594 C1598 1.356 . S
C1594 O1645 1.325 . S
C1595 N1596 1.279 . S
C1595 C1598 1.358 1_455 S
C1595 H1652 0.930 . S
N1596 C1595 1.279 . S
N1596 C1599 1.314 . S
C1597 C1594 1.348 . S
C1597 C1599 1.353 1_655 S
C1597 H1653 0.929 . S
C1598 C1594 1.356 . S
C1598 C1595 1.358 1_655 S
C1598 H1654 0.930 . S
C1599 N1596 1.314 . S
C1599 C1597 1.353 1_455 S
C1599 H1655 0.930 . S
C1600 N1601 1.314 . S
C1600 C1605 1.353 . S
C1600 H1606 0.930 . S
N1601 Li1584 1.990 . S
N1601 C1600 1.314 . S
N1601 C1603 1.279 . S
C1602 C1603 1.358 . S
C1602 C1604 1.356 . S
C1602 H1656 0.930 . S
C1603 N1601 1.279 . S
C1603 C1602 1.358 . S
C1603 H1607 0.930 . S
C1604 C1602 1.356 . S
C1604 C1605 1.348 . S
C1605 C1600 1.353 . S
C1605 C1604 1.348 . S
C1605 H1657 0.929 . S
H1606 C1600 0.930 . S
H1607 C1603 0.930 . S
C1608 N1609 1.314 . S
C1608 C1610 1.353 . S
C1608 H1614 0.893 1_455 S
N1609 Li1585 1.990 1_455 S
N1609 C1608 1.314 . S
N1609 C1612 1.279 . S
C1610 C1608 1.353 . S
C1610 C1613 1.348 . S
C1610 H1658 0.929 . S
C1611 C1612 1.358 . S
C1611 C1613 1.356 . S
C1611 H1659 0.930 . S
C1612 N1609 1.279 . S
C1612 C1611 1.358 . S
C1612 H1615 0.930 . S
C1613 C1610 1.348 . S
C1613 C1611 1.356 . S
H1614 C1608 0.893 1_655 S
H1615 C1612 0.930 . S
C1616 C1618 1.348 . S
C1616 C1619 1.356 . S
C1616 O1646 1.325 . S
N1617 C1620 1.314 . S
N1617 C1621 1.279 . S
C1618 C1616 1.348 . S
C1618 C1620 1.353 . S
C1618 H1660 0.929 . S
C1619 C1616 1.356 . S
C1619 C1621 1.358 . S
C1619 H1661 0.930 . S
C1620 N1617 1.314 . S
C1620 C1618 1.353 . S
C1620 H1662 0.930 . S
C1621 N1617 1.279 . S
C1621 C1619 1.358 . S
C1621 H1663 0.930 . S
C1622 C1623 1.348 . S
C1622 C1624 1.356 . S
C1622 O1647 1.325 . S
C1623 C1622 1.348 . S
C1623 C1625 1.353 . S
C1623 H1664 0.929 . S
C1624 C1622 1.356 . S
C1624 C1626 1.358 . S
C1624 H1665 0.930 . S
C1625 C1623 1.353 . S
C1625 N1627 1.314 . S
C1625 H1666 0.930 . S
C1626 C1624 1.358 . S
C1626 N1627 1.279 . S
C1626 H1667 0.930 . S
N1627 C1625 1.314 . S
N1627 C1626 1.279 . S
C1628 C1630 1.353 . S
C1628 N1631 1.314 . S
C1628 H1634 0.930 . S
C1629 N1631 1.279 . S
C1629 C1632 1.358 . S
C1629 H1635 0.930 . S
C1630 C1628 1.353 . S
C1630 C1633 1.348 . S
C1630 H1668 0.929 . S
N1631 Li1586 1.990 . S
N1631 C1628 1.314 . S
N1631 C1629 1.279 . S
C1632 C1629 1.358 . S
C1632 C1633 1.356 . S
C1632 H1669 0.930 . S
C1633 C1630 1.348 . S
C1633 C1632 1.356 . S
H1634 C1628 0.930 . S
H1635 C1629 0.930 . S
C1636 N1637 1.314 . S
C1636 C1638 1.353 . S
C1636 H1642 0.930 . S
N1637 Li1587 1.990 . S
N1637 C1636 1.314 . S
N1637 C1640 1.279 . S
C1638 C1636 1.353 . S
C1638 C1641 1.348 . S
C1638 H1670 0.929 . S
C1639 C1640 1.358 . S
C1639 C1641 1.356 . S
C1639 H1671 0.930 . S
C1640 N1637 1.279 . S
C1640 C1639 1.358 . S
C1640 H1643 0.930 . S
C1641 C1638 1.348 . S
C1641 C1639 1.356 . S
H1642 C1636 0.930 . S
H1643 C1640 0.930 . S
O1644 Li1584 1.956 . S
O1644 Li1585 1.970 . S
O1644 Li1586 1.961 . S
O1644 C1588 1.325 . S
O1645 Li1584 1.970 . S
O1645 Li1585 1.956 . S
O1645 Li1587 1.961 . S
O1645 C1594 1.325 . S
O1646 Li1584 1.961 . S
O1646 Li1586 1.956 . S
O1646 Li1587 1.970 . S
O1646 C1616 1.325 . S
O1647 Li1585 1.961 . S
O1647 Li1586 1.970 . S
O1647 Li1587 1.956 . S
O1647 C1622 1.325 . S
H1648 C1590 0.929 . S
H1649 C1591 0.930 . S
H1650 C1592 0.930 . S
H1651 C1593 0.930 . S
H1652 C1595 0.930 . S
H1653 C1597 0.929 . S
H1654 C1598 0.930 . S
H1655 C1599 0.930 . S
H1656 C1602 0.930 . S
H1657 C1605 0.929 . S
H1658 C1610 0.929 . S
H1659 C1611 0.930 . S
H1660 C1618 0.929 . S
H1661 C1619 0.930 . S
H1662 C1620 0.930 . S
H1663 C1621 0.930 . S
H1664 C1623 0.929 . S
H1665 C1624 0.930 . S
H1666 C1625 0.930 . S
H1667 C1626 0.930 . S
H1668 C1630 0.929 . S
H1669 C1632 0.930 . S
H1670 C1638 0.929 . S
H1671 C1639 0.930 . S
Li1672 N1689 1.990 . S
Li1672 O1732 1.956 . S
Li1672 O1733 1.970 . S
Li1672 O1734 1.961 . S
Li1673 N1697 1.990 . S
Li1673 O1732 1.970 . S
Li1673 O1733 1.956 . S
Li1673 O1735 1.961 . S
Li1674 N1719 1.990 . S
Li1674 O1732 1.961 . S
Li1674 O1734 1.956 . S
Li1674 O1735 1.970 . S
Li1675 N1725 1.990 . S
Li1675 O1733 1.961 . S
Li1675 O1734 1.970 . S
Li1675 O1735 1.956 . S
C1676 C1678 1.348 . S
C1676 C1679 1.356 . S
C1676 O1732 1.325 . S
N1677 C1680 1.314 . S
N1677 C1681 1.279 . S
C1678 C1676 1.348 . S
C1678 C1680 1.353 . S
C1678 H1736 0.929 . S
C1679 C1676 1.356 . S
C1679 C1681 1.358 . S
C1679 H1737 0.930 . S
C1680 N1677 1.314 . S
C1680 C1678 1.353 . S
C1680 H1738 0.930 . S
C1681 N1677 1.279 . S
C1681 C1679 1.358 . S
C1681 H1739 0.930 . S
C1682 C1685 1.348 . S
C1682 C1686 1.356 . S
C1682 O1733 1.325 . S
C1683 N1684 1.279 . S
C1683 C1686 1.358 . S
C1683 H1740 0.930 . S
N1684 C1683 1.279 . S
N1684 C1687 1.314 . S
C1685 C1682 1.348 . S
C1685 C1687 1.353 . S
C1685 H1741 0.929 . S
C1686 C1682 1.356 . S
C1686 C1683 1.358 . S
C1686 H1742 0.930 . S
C1687 N1684 1.314 . S
C1687 C1685 1.353 . S
C1687 H1743 0.930 . S
C1688 N1689 1.314 . S
C1688 C1693 1.353 . S
C1688 H1694 0.930 . S
N1689 Li1672 1.990 . S
N1689 C1688 1.314 . S
N1689 C1691 1.279 . S
C1690 C1691 1.358 . S
C1690 C1692 1.356 . S
C1690 H1744 0.930 . S
C1691 N1689 1.279 . S
C1691 C1690 1.358 . S
C1691 H1695 0.930 . S
C1692 C1690 1.356 . S
C1692 C1693 1.348 . S
C1693 C1688 1.353 . S
C1693 C1692 1.348 . S
C1693 H1745 0.929 . S
H1694 C1688 0.930 . S
H1695 C1691 0.930 . S
C1696 N1697 1.314 . S
C1696 C1698 1.353 . S
C1696 H1702 0.930 . S
N1697 Li1673 1.990 . S
N1697 C1696 1.314 . S
N1697 C1700 1.279 . S
C1698 C1696 1.353 . S
C1698 C1701 1.348 . S
C1698 H1746 0.929 . S
C1699 C1700 1.358 . S
C1699 C1701 1.356 . S
C1699 H1747 0.930 . S
C1700 N1697 1.279 . S
C1700 C1699 1.358 . S
C1700 H1703 0.930 . S
C1701 C1698 1.348 . S
C1701 C1699 1.356 . S
H1702 C1696 0.930 . S
H1703 C1700 0.930 . S
C1704 C1706 1.348 . S
C1704 C1707 1.356 . S
C1704 O1734 1.325 . S
N1705 C1708 1.314 . S
N1705 C1709 1.279 . S
C1706 C1704 1.348 . S
C1706 C1708 1.353 . S
C1706 H1748 0.929 . S
C1707 C1704 1.356 . S
C1707 C1709 1.358 . S
C1707 H1749 0.930 . S
C1708 N1705 1.314 . S
C1708 C1706 1.353 . S
C1708 H1750 0.930 . S
C1709 N1705 1.279 . S
C1709 C1707 1.358 . S
C1709 H1751 0.930 . S
C1710 C1711 1.348 . S
C1710 C1712 1.356 . S
C1710 O1735 1.325 . S
C1711 C1710 1.348 . S
C1711 C1713 1.353 . S
C1711 H1752 0.929 . S
C1712 C1710 1.356 . S
C1712 C1714 1.358 . S
C1712 H1753 0.930 . S
C1713 C1711 1.353 . S
C1713 N1715 1.314 . S
C1713 H1754 0.930 . S
C1714 C1712 1.358 . S
C1714 N1715 1.279 . S
C1714 H1755 0.930 . S
N1715 C1713 1.314 . S
N1715 C1714 1.279 . S
C1716 C1718 1.353 . S
C1716 N1719 1.314 . S
C1716 H1722 0.930 . S
C1717 N1719 1.279 . S
C1717 C1720 1.358 . S
C1717 H1723 0.930 . S
C1718 C1716 1.353 . S
C1718 C1721 1.348 . S
C1718 H1756 0.929 . S
N1719 Li1674 1.990 . S
N1719 C1716 1.314 . S
N1719 C1717 1.279 . S
C1720 C1717 1.358 . S
C1720 C1721 1.356 . S
C1720 H1757 0.930 . S
C1721 C1718 1.348 . S
C1721 C1720 1.356 . S
H1722 C1716 0.930 . S
H1723 C1717 0.930 . S
C1724 N1725 1.314 . S
C1724 C1726 1.353 . S
C1724 H1730 0.930 . S
N1725 Li1675 1.990 . S
N1725 C1724 1.314 . S
N1725 C1728 1.279 . S
C1726 C1724 1.353 . S
C1726 C1729 1.348 . S
C1726 H1758 0.929 . S
C1727 C1728 1.358 . S
C1727 C1729 1.356 . S
C1727 H1759 0.930 . S
C1728 N1725 1.279 . S
C1728 C1727 1.358 . S
C1728 H1731 0.930 . S
C1729 C1726 1.348 . S
C1729 C1727 1.356 . S
H1730 C1724 0.930 . S
H1731 C1728 0.930 . S
O1732 Li1672 1.956 . S
O1732 Li1673 1.970 . S
O1732 Li1674 1.961 . S
O1732 C1676 1.325 . S
O1733 Li1672 1.970 . S
O1733 Li1673 1.956 . S
O1733 Li1675 1.961 . S
O1733 C1682 1.325 . S
O1734 Li1672 1.961 . S
O1734 Li1674 1.956 . S
O1734 Li1675 1.970 . S
O1734 C1704 1.325 . S
O1735 Li1673 1.961 . S
O1735 Li1674 1.970 . S
O1735 Li1675 1.956 . S
O1735 C1710 1.325 . S
H1736 C1678 0.929 . S
H1737 C1679 0.930 . S
H1738 C1680 0.930 . S
H1739 C1681 0.930 . S
H1740 C1683 0.930 . S
H1741 C1685 0.929 . S
H1742 C1686 0.930 . S
H1743 C1687 0.930 . S
H1744 C1690 0.930 . S
H1745 C1693 0.929 . S
H1746 C1698 0.929 . S
H1747 C1699 0.930 . S
H1748 C1706 0.929 . S
H1749 C1707 0.930 . S
H1750 C1708 0.930 . S
H1751 C1709 0.930 . S
H1752 C1711 0.929 . S
H1753 C1712 0.930 . S
H1754 C1713 0.930 . S
H1755 C1714 0.930 . S
H1756 C1718 0.929 . S
H1757 C1720 0.930 . S
H1758 C1726 0.929 . S
H1759 C1727 0.930 . S
Li1760 N1777 1.990 . S
Li1760 O1820 1.956 . S
Li1760 O1821 1.970 . S
Li1760 O1822 1.961 . S
Li1761 N1785 1.990 . S
Li1761 O1820 1.970 . S
Li1761 O1821 1.956 . S
Li1761 O1823 1.961 . S
Li1762 N1807 1.990 . S
Li1762 O1820 1.961 . S
Li1762 O1822 1.956 . S
Li1762 O1823 1.970 . S
Li1763 N1813 1.990 . S
Li1763 O1821 1.961 . S
Li1763 O1822 1.970 . S
Li1763 O1823 1.956 . S
C1764 C1766 1.348 . S
C1764 C1767 1.356 . S
C1764 O1820 1.325 . S
N1765 C1768 1.314 . S
N1765 C1769 1.279 . S
C1766 C1764 1.348 . S
C1766 C1768 1.353 . S
C1766 H1824 0.929 . S
C1767 C1764 1.356 . S
C1767 C1769 1.358 . S
C1767 H1825 0.930 . S
C1768 N1765 1.314 . S
C1768 C1766 1.353 . S
C1768 H1826 0.930 . S
C1769 N1765 1.279 . S
C1769 C1767 1.358 . S
C1769 H1827 0.930 . S
C1770 C1773 1.348 . S
C1770 C1774 1.356 . S
C1770 O1821 1.325 . S
C1771 N1772 1.279 . S
C1771 C1774 1.358 . S
C1771 H1828 0.930 . S
N1772 C1771 1.279 . S
N1772 C1775 1.314 . S
C1773 C1770 1.348 . S
C1773 C1775 1.353 . S
C1773 H1829 0.929 . S
C1774 C1770 1.356 . S
C1774 C1771 1.358 . S
C1774 H1830 0.930 . S
C1775 N1772 1.314 . S
C1775 C1773 1.353 . S
C1775 H1831 0.930 . S
C1776 N1777 1.314 . S
C1776 C1781 1.353 . S
C1776 H1782 0.930 . S
N1777 Li1760 1.990 . S
N1777 C1776 1.314 . S
N1777 C1779 1.279 . S
C1778 C1779 1.358 . S
C1778 C1780 1.356 . S
C1778 H1832 0.930 . S
C1779 N1777 1.279 . S
C1779 C1778 1.358 . S
C1779 H1783 0.930 . S
C1780 C1778 1.356 . S
C1780 C1781 1.348 . S
C1781 C1776 1.353 . S
C1781 C1780 1.348 . S
C1781 H1833 0.929 . S
H1782 C1776 0.930 . S
H1783 C1779 0.930 . S
C1784 N1785 1.314 . S
C1784 C1786 1.353 . S
C1784 H1790 0.930 . S
N1785 Li1761 1.990 . S
N1785 C1784 1.314 . S
N1785 C1788 1.279 . S
C1786 C1784 1.353 . S
C1786 C1789 1.348 . S
C1786 H1834 0.929 . S
C1787 C1788 1.358 . S
C1787 C1789 1.356 . S
C1787 H1835 0.930 . S
C1788 N1785 1.279 . S
C1788 C1787 1.358 . S
C1788 H1791 0.930 . S
C1789 C1786 1.348 . S
C1789 C1787 1.356 . S
H1790 C1784 0.930 . S
H1791 C1788 0.930 . S
C1792 C1794 1.348 . S
C1792 C1795 1.356 . S
C1792 O1822 1.325 . S
N1793 C1796 1.314 . S
N1793 C1797 1.279 . S
C1794 C1792 1.348 . S
C1794 C1796 1.353 . S
C1794 H1836 0.929 . S
C1795 C1792 1.356 . S
C1795 C1797 1.358 . S
C1795 H1837 0.930 . S
C1796 N1793 1.314 . S
C1796 C1794 1.353 . S
C1796 H1838 0.930 . S
C1797 N1793 1.279 . S
C1797 C1795 1.358 . S
C1797 H1839 0.930 . S
C1798 C1799 1.348 . S
C1798 C1800 1.356 . S
C1798 O1823 1.325 . S
C1799 C1798 1.348 . S
C1799 C1801 1.353 . S
C1799 H1840 0.929 . S
C1800 C1798 1.356 . S
C1800 C1802 1.358 . S
C1800 H1841 0.930 . S
C1801 C1799 1.353 . S
C1801 N1803 1.314 . S
C1801 H1842 0.930 . S
C1802 C1800 1.358 . S
C1802 N1803 1.279 . S
C1802 H1843 0.930 . S
N1803 C1801 1.314 . S
N1803 C1802 1.279 . S
C1804 C1806 1.353 . S
C1804 N1807 1.314 . S
C1804 H1810 0.930 . S
C1805 N1807 1.279 . S
C1805 C1808 1.358 . S
C1805 H1811 0.930 . S
C1806 C1804 1.353 . S
C1806 C1809 1.348 . S
C1806 H1844 0.929 . S
N1807 Li1762 1.990 . S
N1807 C1804 1.314 . S
N1807 C1805 1.279 . S
C1808 C1805 1.358 . S
C1808 C1809 1.356 . S
C1808 H1845 0.930 . S
C1809 C1806 1.348 . S
C1809 C1808 1.356 . S
H1810 C1804 0.930 . S
H1811 C1805 0.930 . S
C1812 N1813 1.314 . S
C1812 C1814 1.353 . S
C1812 H1818 0.930 . S
N1813 Li1763 1.990 . S
N1813 C1812 1.314 . S
N1813 C1816 1.279 . S
C1814 C1812 1.353 . S
C1814 C1817 1.348 . S
C1814 H1846 0.929 . S
C1815 C1816 1.358 . S
C1815 C1817 1.356 . S
C1815 H1847 0.930 . S
C1816 N1813 1.279 . S
C1816 C1815 1.358 . S
C1816 H1819 0.930 . S
C1817 C1814 1.348 . S
C1817 C1815 1.356 . S
H1818 C1812 0.930 . S
H1819 C1816 0.930 . S
O1820 Li1760 1.956 . S
O1820 Li1761 1.970 . S
O1820 Li1762 1.961 . S
O1820 C1764 1.325 . S
O1821 Li1760 1.970 . S
O1821 Li1761 1.956 . S
O1821 Li1763 1.961 . S
O1821 C1770 1.325 . S
O1822 Li1760 1.961 . S
O1822 Li1762 1.956 . S
O1822 Li1763 1.970 . S
O1822 C1792 1.325 . S
O1823 Li1761 1.961 . S
O1823 Li1762 1.970 . S
O1823 Li1763 1.956 . S
O1823 C1798 1.325 . S
H1824 C1766 0.929 . S
H1825 C1767 0.930 . S
H1826 C1768 0.930 . S
H1827 C1769 0.930 . S
H1828 C1771 0.930 . S
H1829 C1773 0.929 . S
H1830 C1774 0.930 . S
H1831 C1775 0.930 . S
H1832 C1778 0.930 . S
H1833 C1781 0.929 . S
H1834 C1786 0.929 . S
H1835 C1787 0.930 . S
H1836 C1794 0.929 . S
H1837 C1795 0.930 . S
H1838 C1796 0.930 . S
H1839 C1797 0.930 . S
H1840 C1799 0.929 . S
H1841 C1800 0.930 . S
H1842 C1801 0.930 . S
H1843 C1802 0.930 . S
H1844 C1806 0.929 . S
H1845 C1808 0.930 . S
H1846 C1814 0.929 . S
H1847 C1815 0.930 . S
Li1848 N1865 1.990 . S
Li1848 O1908 1.956 . S
Li1848 O1909 1.970 . S
Li1848 O1910 1.961 . S
Li1849 N1873 1.990 . S
Li1849 O1908 1.970 . S
Li1849 O1909 1.956 . S
Li1849 O1911 1.961 . S
Li1850 N1895 1.990 1_556 S
Li1850 O1908 1.961 . S
Li1850 O1910 1.956 . S
Li1850 O1911 1.970 . S
Li1851 N1901 1.990 . S
Li1851 O1909 1.961 . S
Li1851 O1910 1.970 . S
Li1851 O1911 1.956 . S
C1852 C1854 1.348 . S
C1852 C1855 1.356 . S
C1852 O1908 1.325 1_554 S
N1853 C1856 1.314 . S
N1853 C1857 1.279 . S
C1854 C1852 1.348 . S
C1854 C1856 1.353 . S
C1854 H1912 0.929 1_554 S
C1855 C1852 1.356 . S
C1855 C1857 1.358 . S
C1855 H1913 0.930 . S
C1856 N1853 1.314 . S
C1856 C1854 1.353 . S
C1856 H1914 0.930 . S
C1857 N1853 1.279 . S
C1857 C1855 1.358 . S
C1857 H1915 0.930 . S
C1858 C1861 1.348 . S
C1858 C1862 1.356 . S
C1858 O1909 1.325 . S
C1859 N1860 1.279 . S
C1859 C1862 1.358 . S
C1859 H1916 0.930 . S
N1860 C1859 1.279 . S
N1860 C1863 1.314 . S
C1861 C1858 1.348 . S
C1861 C1863 1.353 . S
C1861 H1917 0.929 . S
C1862 C1858 1.356 . S
C1862 C1859 1.358 . S
C1862 H1918 0.930 . S
C1863 N1860 1.314 . S
C1863 C1861 1.353 . S
C1863 H1919 0.930 . S
C1864 N1865 1.314 . S
C1864 C1869 1.353 . S
C1864 H1870 0.930 . S
N1865 Li1848 1.990 . S
N1865 C1864 1.314 . S
N1865 C1867 1.279 . S
C1866 C1867 1.358 . S
C1866 C1868 1.356 . S
C1866 H1920 0.930 . S
C1867 N1865 1.279 . S
C1867 C1866 1.358 . S
C1867 H1871 0.930 . S
C1868 C1866 1.356 . S
C1868 C1869 1.348 . S
C1869 C1864 1.353 . S
C1869 C1868 1.348 . S
C1869 H1921 0.929 . S
H1870 C1864 0.930 . S
H1871 C1867 0.930 . S
C1872 N1873 1.314 . S
C1872 C1874 1.353 . S
C1872 H1878 0.930 . S
N1873 Li1849 1.990 . S
N1873 C1872 1.314 . S
N1873 C1876 1.279 . S
C1874 C1872 1.353 . S
C1874 C1877 1.348 . S
C1874 H1922 0.929 . S
C1875 C1876 1.358 . S
C1875 C1877 1.356 . S
C1875 H1923 0.930 . S
C1876 N1873 1.279 . S
C1876 C1875 1.358 . S
C1876 H1879 0.930 . S
C1877 C1874 1.348 . S
C1877 C1875 1.356 . S
H1878 C1872 0.930 . S
H1879 C1876 0.930 . S
C1880 C1882 1.348 . S
C1880 C1883 1.356 . S
C1880 O1910 1.325 . S
N1881 C1884 1.314 . S
N1881 C1885 1.279 . S
C1882 C1880 1.348 . S
C1882 C1884 1.353 . S
C1882 H1924 0.929 . S
C1883 C1880 1.356 . S
C1883 C1885 1.358 . S
C1883 H1925 0.930 . S
C1884 N1881 1.314 . S
C1884 C1882 1.353 . S
C1884 H1926 0.930 . S
C1885 N1881 1.279 . S
C1885 C1883 1.358 . S
C1885 H1927 0.930 . S
C1886 C1887 1.348 1_556 S
C1886 C1888 1.356 . S
C1886 O1911 1.325 . S
C1887 C1886 1.348 1_554 S
C1887 C1889 1.353 . S
C1887 H1928 0.929 . S
C1888 C1886 1.356 . S
C1888 C1890 1.358 . S
C1888 H1929 0.930 . S
C1889 C1887 1.353 . S
C1889 N1891 1.314 1_554 S
C1889 H1930 0.930 . S
C1890 C1888 1.358 . S
C1890 N1891 1.279 . S
C1890 H1931 0.930 . S
N1891 C1889 1.314 1_556 S
N1891 C1890 1.279 . S
C1892 C1894 1.353 . S
C1892 N1895 1.314 . S
C1892 H1898 0.930 . S
C1893 N1895 1.279 . S
C1893 C1896 1.358 . S
C1893 H1899 0.930 . S
C1894 C1892 1.353 . S
C1894 C1897 1.348 . S
C1894 H1932 0.929 . S
N1895 Li1850 1.990 1_554 S
N1895 C1892 1.314 . S
N1895 C1893 1.279 . S
C1896 C1893 1.358 . S
C1896 C1897 1.356 . S
C1896 H1933 0.930 . S
C1897 C1894 1.348 . S
C1897 C1896 1.356 . S
H1898 C1892 0.930 . S
H1899 C1893 0.930 . S
C1900 N1901 1.314 . S
C1900 C1902 1.353 . S
C1900 H1906 0.930 . S
N1901 Li1851 1.990 . S
N1901 C1900 1.314 . S
N1901 C1904 1.279 . S
C1902 C1900 1.353 . S
C1902 C1905 1.348 . S
C1902 H1934 0.929 . S
C1903 C1904 1.358 . S
C1903 C1905 1.356 . S
C1903 H1935 0.930 . S
C1904 N1901 1.279 . S
C1904 C1903 1.358 . S
C1904 H1907 0.930 . S
C1905 C1902 1.348 . S
C1905 C1903 1.356 . S
H1906 C1900 0.930 . S
H1907 C1904 0.930 . S
O1908 Li1848 1.956 . S
O1908 Li1849 1.970 . S
O1908 Li1850 1.961 . S
O1908 C1852 1.325 1_556 S
O1909 Li1848 1.970 . S
O1909 Li1849 1.956 . S
O1909 Li1851 1.961 . S
O1909 C1858 1.325 . S
O1910 Li1848 1.961 . S
O1910 Li1850 1.956 . S
O1910 Li1851 1.970 . S
O1910 C1880 1.325 . S
O1911 Li1849 1.961 . S
O1911 Li1850 1.970 . S
O1911 Li1851 1.956 . S
O1911 C1886 1.325 . S
H1912 C1854 0.929 1_556 S
H1913 C1855 0.930 . S
H1914 C1856 0.930 . S
H1915 C1857 0.930 . S
H1916 C1859 0.930 . S
H1917 C1861 0.929 . S
H1918 C1862 0.930 . S
H1919 C1863 0.930 . S
H1920 C1866 0.930 . S
H1921 C1869 0.929 . S
H1922 C1874 0.929 . S
H1923 C1875 0.930 . S
H1924 C1882 0.929 . S
H1925 C1883 0.930 . S
H1926 C1884 0.930 . S
H1927 C1885 0.930 . S
H1928 C1887 0.929 . S
H1929 C1888 0.930 . S
H1930 C1889 0.930 . S
H1931 C1890 0.930 . S
H1932 C1894 0.929 . S
H1933 C1896 0.930 . S
H1934 C1902 0.929 . S
H1935 C1903 0.930 . S
Li1936 N1953 1.990 . S
Li1936 O1996 1.956 . S
Li1936 O1997 1.970 . S
Li1936 O1998 1.961 . S
Li1937 N1961 1.990 . S
Li1937 O1996 1.970 . S
Li1937 O1997 1.956 . S
Li1937 O1999 1.961 . S
Li1938 N1983 1.990 . S
Li1938 O1996 1.961 . S
Li1938 O1998 1.956 . S
Li1938 O1999 1.970 . S
Li1939 N1989 1.990 1_655 S
Li1939 O1997 1.961 . S
Li1939 O1998 1.970 . S
Li1939 O1999 1.956 . S
C1940 C1942 1.348 . S
C1940 C1943 1.356 . S
C1940 O1996 1.325 . S
N1941 C1944 1.314 . S
N1941 C1945 1.279 . S
C1942 C1940 1.348 . S
C1942 C1944 1.353 . S
C1942 H2000 0.929 . S
C1943 C1940 1.356 . S
C1943 C1945 1.358 . S
C1943 H2001 0.930 . S
C1944 N1941 1.314 . S
C1944 C1942 1.353 . S
C1944 H2002 0.930 . S
C1945 N1941 1.279 . S
C1945 C1943 1.358 . S
C1945 H2003 0.930 . S
C1946 C1949 1.348 . S
C1946 C1950 1.356 . S
C1946 O1997 1.325 . S
C1947 N1948 1.279 . S
C1947 C1950 1.358 . S
C1947 H2004 0.930 . S
N1948 C1947 1.279 . S
N1948 C1951 1.314 . S
C1949 C1946 1.348 . S
C1949 C1951 1.353 . S
C1949 H2005 0.929 . S
C1950 C1946 1.356 . S
C1950 C1947 1.358 . S
C1950 H2006 0.930 . S
C1951 N1948 1.314 . S
C1951 C1949 1.353 . S
C1951 H2007 0.930 . S
C1952 N1953 1.314 . S
C1952 C1957 1.353 . S
C1952 H1958 0.930 . S
N1953 Li1936 1.990 . S
N1953 C1952 1.314 . S
N1953 C1955 1.279 . S
C1954 C1955 1.358 . S
C1954 C1956 1.356 . S
C1954 H2008 0.930 . S
C1955 N1953 1.279 . S
C1955 C1954 1.358 . S
C1955 H1959 0.930 . S
C1956 C1954 1.356 . S
C1956 C1957 1.348 . S
C1957 C1952 1.353 . S
C1957 C1956 1.348 . S
C1957 H2009 0.929 . S
H1958 C1952 0.930 . S
H1959 C1955 0.930 . S
C1960 N1961 1.314 . S
C1960 C1962 1.353 . S
C1960 H1966 0.930 . S
N1961 Li1937 1.990 . S
N1961 C1960 1.314 . S
N1961 C1964 1.279 . S
C1962 C1960 1.353 . S
C1962 C1965 1.348 . S
C1962 H2010 0.929 . S
C1963 C1964 1.358 . S
C1963 C1965 1.356 . S
C1963 H2011 0.930 . S
C1964 N1961 1.279 . S
C1964 C1963 1.358 . S
C1964 H1967 0.930 . S
C1965 C1962 1.348 . S
C1965 C1963 1.356 . S
H1966 C1960 0.930 . S
H1967 C1964 0.930 . S
C1968 C1970 1.348 . S
C1968 C1971 1.356 . S
C1968 O1998 1.325 . S
N1969 C1972 1.314 . S
N1969 C1973 1.279 . S
C1970 C1968 1.348 . S
C1970 C1972 1.353 . S
C1970 H2012 0.929 . S
C1971 C1968 1.356 . S
C1971 C1973 1.358 . S
C1971 H2013 0.930 . S
C1972 N1969 1.314 . S
C1972 C1970 1.353 . S
C1972 H2014 0.930 . S
C1973 N1969 1.279 . S
C1973 C1971 1.358 . S
C1973 H2015 0.930 . S
C1974 C1975 1.348 . S
C1974 C1976 1.356 . S
C1974 O1999 1.325 . S
C1975 C1974 1.348 . S
C1975 C1977 1.353 1_655 S
C1975 H2016 0.929 . S
C1976 C1974 1.356 . S
C1976 C1978 1.358 1_655 S
C1976 H2017 0.930 . S
C1977 C1975 1.353 1_455 S
C1977 N1979 1.314 . S
C1977 H2018 0.930 . S
C1978 C1976 1.358 1_455 S
C1978 N1979 1.279 . S
C1978 H2019 0.930 . S
N1979 C1977 1.314 . S
N1979 C1978 1.279 . S
C1980 C1982 1.353 . S
C1980 N1983 1.314 . S
C1980 H1986 0.930 . S
C1981 N1983 1.279 . S
C1981 C1984 1.358 . S
C1981 H1987 0.930 . S
C1982 C1980 1.353 . S
C1982 C1985 1.348 . S
C1982 H2020 0.929 . S
N1983 Li1938 1.990 . S
N1983 C1980 1.314 . S
N1983 C1981 1.279 . S
C1984 C1981 1.358 . S
C1984 C1985 1.356 . S
C1984 H2021 0.930 . S
C1985 C1982 1.348 . S
C1985 C1984 1.356 . S
H1986 C1980 0.930 . S
H1987 C1981 0.930 . S
C1988 N1989 1.314 . S
C1988 C1990 1.353 . S
C1988 H1994 0.893 1_455 S
N1989 Li1939 1.990 1_455 S
N1989 C1988 1.314 . S
N1989 C1992 1.279 . S
C1990 C1988 1.353 . S
C1990 C1993 1.348 . S
C1990 H2022 0.929 . S
C1991 C1992 1.358 . S
C1991 C1993 1.356 . S
C1991 H2023 0.930 . S
C1992 N1989 1.279 . S
C1992 C1991 1.358 . S
C1992 H1995 0.930 . S
C1993 C1990 1.348 . S
C1993 C1991 1.356 . S
H1994 C1988 0.893 1_655 S
H1995 C1992 0.930 . S
O1996 Li1936 1.956 . S
O1996 Li1937 1.970 . S
O1996 Li1938 1.961 . S
O1996 C1940 1.325 . S
O1997 Li1936 1.970 . S
O1997 Li1937 1.956 . S
O1997 Li1939 1.961 . S
O1997 C1946 1.325 . S
O1998 Li1936 1.961 . S
O1998 Li1938 1.956 . S
O1998 Li1939 1.970 . S
O1998 C1968 1.325 . S
O1999 Li1937 1.961 . S
O1999 Li1938 1.970 . S
O1999 Li1939 1.956 . S
O1999 C1974 1.325 . S
H2000 C1942 0.929 . S
H2001 C1943 0.930 . S
H2002 C1944 0.930 . S
H2003 C1945 0.930 . S
H2004 C1947 0.930 . S
H2005 C1949 0.929 . S
H2006 C1950 0.930 . S
H2007 C1951 0.930 . S
H2008 C1954 0.930 . S
H2009 C1957 0.929 . S
H2010 C1962 0.929 . S
H2011 C1963 0.930 . S
H2012 C1970 0.929 . S
H2013 C1971 0.930 . S
H2014 C1972 0.930 . S
H2015 C1973 0.930 . S
H2016 C1975 0.929 . S
H2017 C1976 0.930 . S
H2018 C1977 0.930 . S
H2019 C1978 0.930 . S
H2020 C1982 0.929 . S
H2021 C1984 0.930 . S
H2022 C1990 0.929 . S
H2023 C1991 0.930 . S
Li2024 N2041 1.990 . S
Li2024 O2084 1.956 . S
Li2024 O2085 1.970 . S
Li2024 O2086 1.961 . S
Li2025 N2049 1.990 . S
Li2025 O2084 1.970 . S
Li2025 O2085 1.956 . S
Li2025 O2087 1.961 . S
Li2026 N2071 1.990 . S
Li2026 O2084 1.961 . S
Li2026 O2086 1.956 . S
Li2026 O2087 1.970 . S
Li2027 N2077 1.990 . S
Li2027 O2085 1.961 . S
Li2027 O2086 1.970 . S
Li2027 O2087 1.956 . S
C2028 C2030 1.348 . S
C2028 C2031 1.356 . S
C2028 O2084 1.325 . S
N2029 C2032 1.314 . S
N2029 C2033 1.279 . S
C2030 C2028 1.348 . S
C2030 C2032 1.353 . S
C2030 H2088 0.929 . S
C2031 C2028 1.356 . S
C2031 C2033 1.358 . S
C2031 H2089 0.930 . S
C2032 N2029 1.314 . S
C2032 C2030 1.353 . S
C2032 H2090 0.930 . S
C2033 N2029 1.279 . S
C2033 C2031 1.358 . S
C2033 H2091 0.930 . S
C2034 C2037 1.348 . S
C2034 C2038 1.356 . S
C2034 O2085 1.325 . S
C2035 N2036 1.279 . S
C2035 C2038 1.358 . S
C2035 H2092 0.930 . S
N2036 C2035 1.279 . S
N2036 C2039 1.314 . S
C2037 C2034 1.348 . S
C2037 C2039 1.353 . S
C2037 H2093 0.929 . S
C2038 C2034 1.356 . S
C2038 C2035 1.358 . S
C2038 H2094 0.930 . S
C2039 N2036 1.314 . S
C2039 C2037 1.353 . S
C2039 H2095 0.930 . S
C2040 N2041 1.314 . S
C2040 C2045 1.353 . S
C2040 H2046 0.930 . S
N2041 Li2024 1.990 . S
N2041 C2040 1.314 . S
N2041 C2043 1.279 . S
C2042 C2043 1.358 . S
C2042 C2044 1.356 . S
C2042 H2096 0.930 . S
C2043 N2041 1.279 . S
C2043 C2042 1.358 . S
C2043 H2047 0.930 . S
C2044 C2042 1.356 . S
C2044 C2045 1.348 . S
C2045 C2040 1.353 . S
C2045 C2044 1.348 . S
C2045 H2097 0.929 . S
H2046 C2040 0.930 . S
H2047 C2043 0.930 . S
C2048 N2049 1.314 . S
C2048 C2050 1.353 . S
C2048 H2054 0.930 . S
N2049 Li2025 1.990 . S
N2049 C2048 1.314 . S
N2049 C2052 1.279 . S
C2050 C2048 1.353 . S
C2050 C2053 1.348 . S
C2050 H2098 0.929 . S
C2051 C2052 1.358 . S
C2051 C2053 1.356 . S
C2051 H2099 0.930 . S
C2052 N2049 1.279 . S
C2052 C2051 1.358 . S
C2052 H2055 0.930 . S
C2053 C2050 1.348 . S
C2053 C2051 1.356 . S
H2054 C2048 0.930 . S
H2055 C2052 0.930 . S
C2056 C2058 1.348 . S
C2056 C2059 1.356 . S
C2056 O2086 1.325 . S
N2057 C2060 1.314 . S
N2057 C2061 1.279 . S
C2058 C2056 1.348 . S
C2058 C2060 1.353 . S
C2058 H2100 0.929 . S
C2059 C2056 1.356 . S
C2059 C2061 1.358 . S
C2059 H2101 0.930 . S
C2060 N2057 1.314 . S
C2060 C2058 1.353 . S
C2060 H2102 0.930 . S
C2061 N2057 1.279 . S
C2061 C2059 1.358 . S
C2061 H2103 0.930 . S
C2062 C2063 1.348 . S
C2062 C2064 1.356 . S
C2062 O2087 1.325 . S
C2063 C2062 1.348 . S
C2063 C2065 1.353 . S
C2063 H2104 0.929 . S
C2064 C2062 1.356 . S
C2064 C2066 1.358 . S
C2064 H2105 0.930 . S
C2065 C2063 1.353 . S
C2065 N2067 1.314 . S
C2065 H2106 0.930 . S
C2066 C2064 1.358 . S
C2066 N2067 1.279 . S
C2066 H2107 0.930 . S
N2067 C2065 1.314 . S
N2067 C2066 1.279 . S
C2068 C2070 1.353 . S
C2068 N2071 1.314 . S
C2068 H2074 0.930 . S
C2069 N2071 1.279 . S
C2069 C2072 1.358 . S
C2069 H2075 0.930 . S
C2070 C2068 1.353 . S
C2070 C2073 1.348 . S
C2070 H2108 0.929 . S
N2071 Li2026 1.990 . S
N2071 C2068 1.314 . S
N2071 C2069 1.279 . S
C2072 C2069 1.358 . S
C2072 C2073 1.356 . S
C2072 H2109 0.930 . S
C2073 C2070 1.348 . S
C2073 C2072 1.356 . S
H2074 C2068 0.930 . S
H2075 C2069 0.930 . S
C2076 N2077 1.314 . S
C2076 C2078 1.353 . S
C2076 H2082 0.930 . S
N2077 Li2027 1.990 . S
N2077 C2076 1.314 . S
N2077 C2080 1.279 . S
C2078 C2076 1.353 . S
C2078 C2081 1.348 . S
C2078 H2110 0.929 . S
C2079 C2080 1.358 . S
C2079 C2081 1.356 . S
C2079 H2111 0.930 . S
C2080 N2077 1.279 . S
C2080 C2079 1.358 . S
C2080 H2083 0.930 . S
C2081 C2078 1.348 . S
C2081 C2079 1.356 . S
H2082 C2076 0.930 . S
H2083 C2080 0.930 . S
O2084 Li2024 1.956 . S
O2084 Li2025 1.970 . S
O2084 Li2026 1.961 . S
O2084 C2028 1.325 . S
O2085 Li2024 1.970 . S
O2085 Li2025 1.956 . S
O2085 Li2027 1.961 . S
O2085 C2034 1.325 . S
O2086 Li2024 1.961 . S
O2086 Li2026 1.956 . S
O2086 Li2027 1.970 . S
O2086 C2056 1.325 . S
O2087 Li2025 1.961 . S
O2087 Li2026 1.970 . S
O2087 Li2027 1.956 . S
O2087 C2062 1.325 . S
H2088 C2030 0.929 . S
H2089 C2031 0.930 . S
H2090 C2032 0.930 . S
H2091 C2033 0.930 . S
H2092 C2035 0.930 . S
H2093 C2037 0.929 . S
H2094 C2038 0.930 . S
H2095 C2039 0.930 . S
H2096 C2042 0.930 . S
H2097 C2045 0.929 . S
H2098 C2050 0.929 . S
H2099 C2051 0.930 . S
H2100 C2058 0.929 . S
H2101 C2059 0.930 . S
H2102 C2060 0.930 . S
H2103 C2061 0.930 . S
H2104 C2063 0.929 . S
H2105 C2064 0.930 . S
H2106 C2065 0.930 . S
H2107 C2066 0.930 . S
H2108 C2070 0.929 . S
H2109 C2072 0.930 . S
H2110 C2078 0.929 . S
H2111 C2079 0.930 . S
Li2112 N2129 1.990 . S
Li2112 O2172 1.956 . S
Li2112 O2173 1.970 . S
Li2112 O2174 1.961 . S
Li2113 N2137 1.990 . S
Li2113 O2172 1.970 . S
Li2113 O2173 1.956 . S
Li2113 O2175 1.961 . S
Li2114 N2159 1.990 . S
Li2114 O2172 1.961 . S
Li2114 O2174 1.956 . S
Li2114 O2175 1.970 . S
Li2115 N2165 1.990 . S
Li2115 O2173 1.961 . S
Li2115 O2174 1.970 . S
Li2115 O2175 1.956 . S
C2116 C2118 1.348 . S
C2116 C2119 1.356 . S
C2116 O2172 1.325 . S
N2117 C2120 1.314 . S
N2117 C2121 1.279 . S
C2118 C2116 1.348 . S
C2118 C2120 1.353 . S
C2118 H2176 0.929 . S
C2119 C2116 1.356 . S
C2119 C2121 1.358 . S
C2119 H2177 0.930 . S
C2120 N2117 1.314 . S
C2120 C2118 1.353 . S
C2120 H2178 0.930 . S
C2121 N2117 1.279 . S
C2121 C2119 1.358 . S
C2121 H2179 0.930 . S
C2122 C2125 1.348 . S
C2122 C2126 1.356 . S
C2122 O2173 1.325 . S
C2123 N2124 1.279 . S
C2123 C2126 1.358 . S
C2123 H2180 0.930 . S
N2124 C2123 1.279 . S
N2124 C2127 1.314 . S
C2125 C2122 1.348 . S
C2125 C2127 1.353 . S
C2125 H2181 0.929 . S
C2126 C2122 1.356 . S
C2126 C2123 1.358 . S
C2126 H2182 0.930 . S
C2127 N2124 1.314 . S
C2127 C2125 1.353 . S
C2127 H2183 0.930 . S
C2128 N2129 1.314 . S
C2128 C2133 1.353 . S
C2128 H2134 0.930 . S
N2129 Li2112 1.990 . S
N2129 C2128 1.314 . S
N2129 C2131 1.279 . S
C2130 C2131 1.358 . S
C2130 C2132 1.356 . S
C2130 H2184 0.930 . S
C2131 N2129 1.279 . S
C2131 C2130 1.358 . S
C2131 H2135 0.930 . S
C2132 C2130 1.356 . S
C2132 C2133 1.348 . S
C2133 C2128 1.353 . S
C2133 C2132 1.348 . S
C2133 H2185 0.929 . S
H2134 C2128 0.930 . S
H2135 C2131 0.930 . S
C2136 N2137 1.314 . S
C2136 C2138 1.353 . S
C2136 H2142 0.930 . S
N2137 Li2113 1.990 . S
N2137 C2136 1.314 . S
N2137 C2140 1.279 . S
C2138 C2136 1.353 . S
C2138 C2141 1.348 . S
C2138 H2186 0.929 . S
C2139 C2140 1.358 . S
C2139 C2141 1.356 . S
C2139 H2187 0.930 . S
C2140 N2137 1.279 . S
C2140 C2139 1.358 . S
C2140 H2143 0.930 . S
C2141 C2138 1.348 . S
C2141 C2139 1.356 . S
H2142 C2136 0.930 . S
H2143 C2140 0.930 . S
C2144 C2146 1.348 . S
C2144 C2147 1.356 . S
C2144 O2174 1.325 . S
N2145 C2148 1.314 . S
N2145 C2149 1.279 . S
C2146 C2144 1.348 . S
C2146 C2148 1.353 . S
C2146 H2188 0.929 . S
C2147 C2144 1.356 . S
C2147 C2149 1.358 . S
C2147 H2189 0.930 . S
C2148 N2145 1.314 . S
C2148 C2146 1.353 . S
C2148 H2190 0.930 . S
C2149 N2145 1.279 . S
C2149 C2147 1.358 . S
C2149 H2191 0.930 . S
C2150 C2151 1.348 . S
C2150 C2152 1.356 . S
C2150 O2175 1.325 . S
C2151 C2150 1.348 . S
C2151 C2153 1.353 . S
C2151 H2192 0.929 . S
C2152 C2150 1.356 . S
C2152 C2154 1.358 . S
C2152 H2193 0.930 . S
C2153 C2151 1.353 . S
C2153 N2155 1.314 . S
C2153 H2194 0.930 . S
C2154 C2152 1.358 . S
C2154 N2155 1.279 . S
C2154 H2195 0.930 . S
N2155 C2153 1.314 . S
N2155 C2154 1.279 . S
C2156 C2158 1.353 . S
C2156 N2159 1.314 . S
C2156 H2162 0.930 . S
C2157 N2159 1.279 . S
C2157 C2160 1.358 . S
C2157 H2163 0.930 . S
C2158 C2156 1.353 . S
C2158 C2161 1.348 . S
C2158 H2196 0.929 . S
N2159 Li2114 1.990 . S
N2159 C2156 1.314 . S
N2159 C2157 1.279 . S
C2160 C2157 1.358 . S
C2160 C2161 1.356 . S
C2160 H2197 0.930 . S
C2161 C2158 1.348 . S
C2161 C2160 1.356 . S
H2162 C2156 0.930 . S
H2163 C2157 0.930 . S
C2164 N2165 1.314 . S
C2164 C2166 1.353 . S
C2164 H2170 0.930 . S
N2165 Li2115 1.990 . S
N2165 C2164 1.314 . S
N2165 C2168 1.279 . S
C2166 C2164 1.353 . S
C2166 C2169 1.348 . S
C2166 H2198 0.929 . S
C2167 C2168 1.358 . S
C2167 C2169 1.356 . S
C2167 H2199 0.930 . S
C2168 N2165 1.279 . S
C2168 C2167 1.358 . S
C2168 H2171 0.930 . S
C2169 C2166 1.348 . S
C2169 C2167 1.356 . S
H2170 C2164 0.930 . S
H2171 C2168 0.930 . S
O2172 Li2112 1.956 . S
O2172 Li2113 1.970 . S
O2172 Li2114 1.961 . S
O2172 C2116 1.325 . S
O2173 Li2112 1.970 . S
O2173 Li2113 1.956 . S
O2173 Li2115 1.961 . S
O2173 C2122 1.325 . S
O2174 Li2112 1.961 . S
O2174 Li2114 1.956 . S
O2174 Li2115 1.970 . S
O2174 C2144 1.325 . S
O2175 Li2113 1.961 . S
O2175 Li2114 1.970 . S
O2175 Li2115 1.956 . S
O2175 C2150 1.325 . S
H2176 C2118 0.929 . S
H2177 C2119 0.930 . S
H2178 C2120 0.930 . S
H2179 C2121 0.930 . S
H2180 C2123 0.930 . S
H2181 C2125 0.929 . S
H2182 C2126 0.930 . S
H2183 C2127 0.930 . S
H2184 C2130 0.930 . S
H2185 C2133 0.929 . S
H2186 C2138 0.929 . S
H2187 C2139 0.930 . S
H2188 C2146 0.929 . S
H2189 C2147 0.930 . S
H2190 C2148 0.930 . S
H2191 C2149 0.930 . S
H2192 C2151 0.929 . S
H2193 C2152 0.930 . S
H2194 C2153 0.930 . S
H2195 C2154 0.930 . S
H2196 C2158 0.929 . S
H2197 C2160 0.930 . S
H2198 C2166 0.929 . S
H2199 C2167 0.930 . S
Li2200 N2217 1.990 1_556 S
Li2200 O2260 1.956 . S
Li2200 O2261 1.970 . S
Li2200 O2262 1.961 . S
Li2201 N2225 1.990 . S
Li2201 O2260 1.970 . S
Li2201 O2261 1.956 . S
Li2201 O2263 1.961 . S
Li2202 N2247 1.990 . S
Li2202 O2260 1.961 . S
Li2202 O2262 1.956 . S
Li2202 O2263 1.970 . S
Li2203 N2253 1.990 . S
Li2203 O2261 1.961 . S
Li2203 O2262 1.970 . S
Li2203 O2263 1.956 . S
C2204 C2206 1.348 . S
C2204 C2207 1.356 . S
C2204 O2260 1.325 1_554 S
N2205 C2208 1.314 . S
N2205 C2209 1.279 . S
C2206 C2204 1.348 . S
C2206 C2208 1.353 . S
C2206 H2264 0.929 . S
C2207 C2204 1.356 . S
C2207 C2209 1.358 . S
C2207 H2265 0.930 . S
C2208 N2205 1.314 . S
C2208 C2206 1.353 . S
C2208 H2266 0.930 . S
C2209 N2205 1.279 . S
C2209 C2207 1.358 . S
C2209 H2267 0.930 . S
C2210 C2213 1.348 1_556 S
C2210 C2214 1.356 . S
C2210 O2261 1.325 . S
C2211 N2212 1.279 . S
C2211 C2214 1.358 . S
C2211 H2268 0.930 . S
N2212 C2211 1.279 . S
N2212 C2215 1.314 1_556 S
C2213 C2210 1.348 1_554 S
C2213 C2215 1.353 . S
C2213 H2269 0.929 . S
C2214 C2210 1.356 . S
C2214 C2211 1.358 . S
C2214 H2270 0.930 . S
C2215 N2212 1.314 1_554 S
C2215 C2213 1.353 . S
C2215 H2271 0.930 . S
C2216 N2217 1.314 . S
C2216 C2221 1.353 . S
C2216 H2222 0.930 . S
N2217 Li2200 1.990 1_554 S
N2217 C2216 1.314 . S
N2217 C2219 1.279 . S
C2218 C2219 1.358 . S
C2218 C2220 1.356 . S
C2218 H2272 0.930 . S
C2219 N2217 1.279 . S
C2219 C2218 1.358 . S
C2219 H2223 0.930 . S
C2220 C2218 1.356 . S
C2220 C2221 1.348 . S
C2221 C2216 1.353 . S
C2221 C2220 1.348 . S
C2221 H2273 0.929 . S
H2222 C2216 0.930 . S
H2223 C2219 0.930 . S
C2224 N2225 1.314 . S
C2224 C2226 1.353 . S
C2224 H2230 0.930 . S
N2225 Li2201 1.990 . S
N2225 C2224 1.314 . S
N2225 C2228 1.279 . S
C2226 C2224 1.353 . S
C2226 C2229 1.348 . S
C2226 H2274 0.929 . S
C2227 C2228 1.358 . S
C2227 C2229 1.356 . S
C2227 H2275 0.930 . S
C2228 N2225 1.279 . S
C2228 C2227 1.358 . S
C2228 H2231 0.930 . S
C2229 C2226 1.348 . S
C2229 C2227 1.356 . S
H2230 C2224 0.930 . S
H2231 C2228 0.930 . S
C2232 C2234 1.348 . S
C2232 C2235 1.356 . S
C2232 O2262 1.325 . S
N2233 C2236 1.314 . S
N2233 C2237 1.279 . S
C2234 C2232 1.348 . S
C2234 C2236 1.353 . S
C2234 H2276 0.929 . S
C2235 C2232 1.356 . S
C2235 C2237 1.358 . S
C2235 H2277 0.930 1_556 S
C2236 N2233 1.314 . S
C2236 C2234 1.353 . S
C2236 H2278 0.930 . S
C2237 N2233 1.279 . S
C2237 C2235 1.358 . S
C2237 H2279 0.930 1_556 S
C2238 C2239 1.348 . S
C2238 C2240 1.356 . S
C2238 O2263 1.325 . S
C2239 C2238 1.348 . S
C2239 C2241 1.353 . S
C2239 H2280 0.929 . S
C2240 C2238 1.356 . S
C2240 C2242 1.358 . S
C2240 H2281 0.930 . S
C2241 C2239 1.353 . S
C2241 N2243 1.314 . S
C2241 H2282 0.930 . S
C2242 C2240 1.358 . S
C2242 N2243 1.279 . S
C2242 H2283 0.930 . S
N2243 C2241 1.314 . S
N2243 C2242 1.279 . S
C2244 C2246 1.353 . S
C2244 N2247 1.314 . S
C2244 H2250 0.930 . S
C2245 N2247 1.279 . S
C2245 C2248 1.358 . S
C2245 H2251 0.930 . S
C2246 C2244 1.353 . S
C2246 C2249 1.348 . S
C2246 H2284 0.929 . S
N2247 Li2202 1.990 . S
N2247 C2244 1.314 . S
N2247 C2245 1.279 . S
C2248 C2245 1.358 . S
C2248 C2249 1.356 . S
C2248 H2285 0.930 . S
C2249 C2246 1.348 . S
C2249 C2248 1.356 . S
H2250 C2244 0.930 . S
H2251 C2245 0.930 . S
C2252 N2253 1.314 . S
C2252 C2254 1.353 . S
C2252 H2258 0.930 . S
N2253 Li2203 1.990 . S
N2253 C2252 1.314 . S
N2253 C2256 1.279 . S
C2254 C2252 1.353 . S
C2254 C2257 1.348 . S
C2254 H2286 0.929 . S
C2255 C2256 1.358 . S
C2255 C2257 1.356 . S
C2255 H2287 0.930 . S
C2256 N2253 1.279 . S
C2256 C2255 1.358 . S
C2256 H2259 0.930 . S
C2257 C2254 1.348 . S
C2257 C2255 1.356 . S
H2258 C2252 0.930 . S
H2259 C2256 0.930 . S
O2260 Li2200 1.956 . S
O2260 Li2201 1.970 . S
O2260 Li2202 1.961 . S
O2260 C2204 1.325 1_556 S
O2261 Li2200 1.970 . S
O2261 Li2201 1.956 . S
O2261 Li2203 1.961 . S
O2261 C2210 1.325 . S
O2262 Li2200 1.961 . S
O2262 Li2202 1.956 . S
O2262 Li2203 1.970 . S
O2262 C2232 1.325 . S
O2263 Li2201 1.961 . S
O2263 Li2202 1.970 . S
O2263 Li2203 1.956 . S
O2263 C2238 1.325 . S
H2264 C2206 0.929 . S
H2265 C2207 0.930 . S
H2266 C2208 0.930 . S
H2267 C2209 0.930 . S
H2268 C2211 0.930 . S
H2269 C2213 0.929 . S
H2270 C2214 0.930 . S
H2271 C2215 0.930 . S
H2272 C2218 0.930 . S
H2273 C2221 0.929 . S
H2274 C2226 0.929 . S
H2275 C2227 0.930 . S
H2276 C2234 0.929 . S
H2277 C2235 0.930 1_554 S
H2278 C2236 0.930 . S
H2279 C2237 0.930 1_554 S
H2280 C2239 0.929 . S
H2281 C2240 0.930 . S
H2282 C2241 0.930 . S
H2283 C2242 0.930 . S
H2284 C2246 0.929 . S
H2285 C2248 0.930 . S
H2286 C2254 0.929 . S
H2287 C2255 0.930 . S
Li2288 N2305 1.990 . S
Li2288 O2348 1.956 . S
Li2288 O2349 1.970 . S
Li2288 O2350 1.961 . S
Li2289 N2313 1.990 . S
Li2289 O2348 1.970 . S
Li2289 O2349 1.956 . S
Li2289 O2351 1.961 . S
Li2290 N2335 1.990 . S
Li2290 O2348 1.961 . S
Li2290 O2350 1.956 . S
Li2290 O2351 1.970 . S
Li2291 N2341 1.990 1_455 S
Li2291 O2349 1.961 . S
Li2291 O2350 1.970 . S
Li2291 O2351 1.956 . S
C2292 C2294 1.348 . S
C2292 C2295 1.356 . S
C2292 O2348 1.325 . S
N2293 C2296 1.314 . S
N2293 C2297 1.279 . S
C2294 C2292 1.348 . S
C2294 C2296 1.353 . S
C2294 H2352 0.929 . S
C2295 C2292 1.356 . S
C2295 C2297 1.358 . S
C2295 H2353 0.930 . S
C2296 N2293 1.314 . S
C2296 C2294 1.353 . S
C2296 H2354 0.930 . S
C2297 N2293 1.279 . S
C2297 C2295 1.358 . S
C2297 H2355 0.930 . S
C2298 C2301 1.348 . S
C2298 C2302 1.335 1_455 S
C2298 O2349 1.325 . S
C2299 N2300 1.279 . S
C2299 C2302 1.377 . S
C2299 H2356 0.930 . S
N2300 C2299 1.279 . S
N2300 C2303 1.314 1_655 S
C2301 C2298 1.348 . S
C2301 C2303 1.353 . S
C2301 H2357 0.929 . S
C2302 C2298 1.335 1_655 S
C2302 C2299 1.377 . S
C2302 H2358 0.933 . S
C2303 N2300 1.314 1_455 S
C2303 C2301 1.353 . S
C2303 H2359 0.930 . S
C2304 N2305 1.314 . S
C2304 C2309 1.353 . S
C2304 H2310 0.930 . S
N2305 Li2288 1.990 . S
N2305 C2304 1.314 . S
N2305 C2307 1.279 . S
C2306 C2307 1.358 . S
C2306 C2308 1.356 . S
C2306 H2360 0.930 . S
C2307 N2305 1.279 . S
C2307 C2306 1.358 . S
C2307 H2311 0.930 . S
C2308 C2306 1.356 . S
C2308 C2309 1.348 . S
C2309 C2304 1.353 . S
C2309 C2308 1.348 . S
C2309 H2361 0.929 . S
H2310 C2304 0.930 . S
H2311 C2307 0.930 . S
C2312 N2313 1.314 . S
C2312 C2314 1.353 . S
C2312 H2318 0.930 . S
N2313 Li2289 1.990 . S
N2313 C2312 1.314 . S
N2313 C2316 1.279 . S
C2314 C2312 1.353 . S
C2314 C2317 1.348 . S
C2314 H2362 0.929 . S
C2315 C2316 1.358 . S
C2315 C2317 1.356 . S
C2315 H2363 0.930 . S
C2316 N2313 1.279 . S
C2316 C2315 1.358 . S
C2316 H2319 0.930 . S
C2317 C2314 1.348 . S
C2317 C2315 1.356 . S
H2318 C2312 0.930 . S
H2319 C2316 0.930 . S
C2320 C2322 1.348 . S
C2320 C2323 1.356 . S
C2320 O2350 1.325 . S
N2321 C2324 1.314 . S
N2321 C2325 1.279 . S
C2322 C2320 1.348 . S
C2322 C2324 1.353 . S
C2322 H2364 0.929 . S
C2323 C2320 1.356 . S
C2323 C2325 1.358 . S
C2323 H2365 0.930 . S
C2324 N2321 1.314 . S
C2324 C2322 1.353 . S
C2324 H2366 0.930 . S
C2325 N2321 1.279 . S
C2325 C2323 1.358 . S
C2325 H2367 0.930 . S
C2326 C2327 1.348 . S
C2326 C2328 1.356 . S
C2326 O2351 1.325 . S
C2327 C2326 1.348 . S
C2327 C2329 1.353 . S
C2327 H2368 0.929 . S
C2328 C2326 1.356 . S
C2328 C2330 1.358 . S
C2328 H2369 0.930 . S
C2329 C2327 1.353 . S
C2329 N2331 1.314 . S
C2329 H2370 0.930 . S
C2330 C2328 1.358 . S
C2330 N2331 1.279 . S
C2330 H2371 0.930 . S
N2331 C2329 1.314 . S
N2331 C2330 1.279 . S
C2332 C2334 1.353 . S
C2332 N2335 1.314 . S
C2332 H2338 0.930 . S
C2333 N2335 1.279 . S
C2333 C2336 1.358 . S
C2333 H2339 0.930 . S
C2334 C2332 1.353 . S
C2334 C2337 1.348 . S
C2334 H2372 0.929 . S
N2335 Li2290 1.990 . S
N2335 C2332 1.314 . S
N2335 C2333 1.279 . S
C2336 C2333 1.358 . S
C2336 C2337 1.356 . S
C2336 H2373 0.930 . S
C2337 C2334 1.348 . S
C2337 C2336 1.356 . S
H2338 C2332 0.930 . S
H2339 C2333 0.930 . S
C2340 N2341 1.314 . S
C2340 C2342 1.353 . S
C2340 H2346 0.930 . S
N2341 Li2291 1.990 1_655 S
N2341 C2340 1.314 . S
N2341 C2344 1.279 . S
C2342 C2340 1.353 . S
C2342 C2345 1.348 . S
C2342 H2374 0.929 . S
C2343 C2344 1.358 . S
C2343 C2345 1.356 . S
C2343 H2375 0.930 . S
C2344 N2341 1.279 . S
C2344 C2343 1.358 . S
C2344 H2347 0.930 . S
C2345 C2342 1.348 . S
C2345 C2343 1.356 . S
H2346 C2340 0.930 . S
H2347 C2344 0.930 . S
O2348 Li2288 1.956 . S
O2348 Li2289 1.970 . S
O2348 Li2290 1.961 . S
O2348 C2292 1.325 . S
O2349 Li2288 1.970 . S
O2349 Li2289 1.956 . S
O2349 Li2291 1.961 . S
O2349 C2298 1.325 . S
O2350 Li2288 1.961 . S
O2350 Li2290 1.956 . S
O2350 Li2291 1.970 . S
O2350 C2320 1.325 . S
O2351 Li2289 1.961 . S
O2351 Li2290 1.970 . S
O2351 Li2291 1.956 . S
O2351 C2326 1.325 . S
H2352 C2294 0.929 . S
H2353 C2295 0.930 . S
H2354 C2296 0.930 . S
H2355 C2297 0.930 . S
H2356 C2299 0.930 . S
H2357 C2301 0.929 . S
H2358 C2302 0.933 . S
H2359 C2303 0.930 . S
H2360 C2306 0.930 . S
H2361 C2309 0.929 . S
H2362 C2314 0.929 . S
H2363 C2315 0.930 . S
H2364 C2322 0.929 . S
H2365 C2323 0.930 . S
H2366 C2324 0.930 . S
H2367 C2325 0.930 . S
H2368 C2327 0.929 . S
H2369 C2328 0.930 . S
H2370 C2329 0.930 . S
H2371 C2330 0.930 . S
H2372 C2334 0.929 . S
H2373 C2336 0.930 . S
H2374 C2342 0.929 . S
H2375 C2343 0.930 . S
Li2376 N2393 1.990 . S
Li2376 O2436 1.956 . S
Li2376 O2437 1.970 . S
Li2376 O2438 1.961 . S
Li2377 N2401 1.990 . S
Li2377 O2436 1.970 . S
Li2377 O2437 1.956 . S
Li2377 O2439 1.961 . S
Li2378 N2423 1.990 . S
Li2378 O2436 1.961 . S
Li2378 O2438 1.956 . S
Li2378 O2439 1.970 . S
Li2379 N2429 1.990 . S
Li2379 O2437 1.961 . S
Li2379 O2438 1.970 . S
Li2379 O2439 1.956 . S
C2380 C2382 1.348 . S
C2380 C2383 1.356 . S
C2380 O2436 1.325 . S
N2381 C2384 1.314 . S
N2381 C2385 1.279 . S
C2382 C2380 1.348 . S
C2382 C2384 1.353 . S
C2382 H2440 0.929 . S
C2383 C2380 1.356 . S
C2383 C2385 1.358 . S
C2383 H2441 0.930 . S
C2384 N2381 1.314 . S
C2384 C2382 1.353 . S
C2384 H2442 0.930 . S
C2385 N2381 1.279 . S
C2385 C2383 1.358 . S
C2385 H2443 0.930 . S
C2386 C2389 1.348 . S
C2386 C2390 1.356 . S
C2386 O2437 1.325 . S
C2387 N2388 1.279 . S
C2387 C2390 1.358 . S
C2387 H2444 0.930 . S
N2388 C2387 1.279 . S
N2388 C2391 1.314 . S
C2389 C2386 1.348 . S
C2389 C2391 1.353 . S
C2389 H2445 0.929 . S
C2390 C2386 1.356 . S
C2390 C2387 1.358 . S
C2390 H2446 0.930 . S
C2391 N2388 1.314 . S
C2391 C2389 1.353 . S
C2391 H2447 0.930 . S
C2392 N2393 1.314 . S
C2392 C2397 1.353 . S
C2392 H2398 0.930 . S
N2393 Li2376 1.990 . S
N2393 C2392 1.314 . S
N2393 C2395 1.279 . S
C2394 C2395 1.358 . S
C2394 C2396 1.356 . S
C2394 H2448 0.930 . S
C2395 N2393 1.279 . S
C2395 C2394 1.358 . S
C2395 H2399 0.930 . S
C2396 C2394 1.356 . S
C2396 C2397 1.348 . S
C2397 C2392 1.353 . S
C2397 C2396 1.348 . S
C2397 H2449 0.929 . S
H2398 C2392 0.930 . S
H2399 C2395 0.930 . S
C2400 N2401 1.314 . S
C2400 C2402 1.353 . S
C2400 H2406 0.930 . S
N2401 Li2377 1.990 . S
N2401 C2400 1.314 . S
N2401 C2404 1.279 . S
C2402 C2400 1.353 . S
C2402 C2405 1.348 . S
C2402 H2450 0.929 . S
C2403 C2404 1.358 . S
C2403 C2405 1.356 . S
C2403 H2451 0.930 . S
C2404 N2401 1.279 . S
C2404 C2403 1.358 . S
C2404 H2407 0.930 . S
C2405 C2402 1.348 . S
C2405 C2403 1.356 . S
H2406 C2400 0.930 . S
H2407 C2404 0.930 . S
C2408 C2410 1.348 . S
C2408 C2411 1.356 . S
C2408 O2438 1.325 . S
N2409 C2412 1.314 . S
N2409 C2413 1.279 . S
C2410 C2408 1.348 . S
C2410 C2412 1.353 . S
C2410 H2452 0.929 . S
C2411 C2408 1.356 . S
C2411 C2413 1.358 . S
C2411 H2453 0.930 . S
C2412 N2409 1.314 . S
C2412 C2410 1.353 . S
C2412 H2454 0.930 . S
C2413 N2409 1.279 . S
C2413 C2411 1.358 . S
C2413 H2455 0.930 . S
C2414 C2415 1.348 . S
C2414 C2416 1.356 . S
C2414 O2439 1.325 . S
C2415 C2414 1.348 . S
C2415 C2417 1.353 . S
C2415 H2456 0.929 . S
C2416 C2414 1.356 . S
C2416 C2418 1.358 . S
C2416 H2457 0.930 . S
C2417 C2415 1.353 . S
C2417 N2419 1.314 . S
C2417 H2458 0.930 . S
C2418 C2416 1.358 . S
C2418 N2419 1.279 . S
C2418 H2459 0.930 . S
N2419 C2417 1.314 . S
N2419 C2418 1.279 . S
C2420 C2422 1.353 . S
C2420 N2423 1.314 . S
C2420 H2426 0.930 . S
C2421 N2423 1.279 . S
C2421 C2424 1.358 . S
C2421 H2427 0.930 . S
C2422 C2420 1.353 . S
C2422 C2425 1.348 . S
C2422 H2460 0.929 . S
N2423 Li2378 1.990 . S
N2423 C2420 1.314 . S
N2423 C2421 1.279 . S
C2424 C2421 1.358 . S
C2424 C2425 1.356 . S
C2424 H2461 0.930 . S
C2425 C2422 1.348 . S
C2425 C2424 1.356 . S
H2426 C2420 0.930 . S
H2427 C2421 0.930 . S
C2428 N2429 1.314 . S
C2428 C2430 1.353 . S
C2428 H2434 0.930 . S
N2429 Li2379 1.990 . S
N2429 C2428 1.314 . S
N2429 C2432 1.279 . S
C2430 C2428 1.353 . S
C2430 C2433 1.348 . S
C2430 H2462 0.929 . S
C2431 C2432 1.358 . S
C2431 C2433 1.356 . S
C2431 H2463 0.930 . S
C2432 N2429 1.279 . S
C2432 C2431 1.358 . S
C2432 H2435 0.930 . S
C2433 C2430 1.348 . S
C2433 C2431 1.356 . S
H2434 C2428 0.930 . S
H2435 C2432 0.930 . S
O2436 Li2376 1.956 . S
O2436 Li2377 1.970 . S
O2436 Li2378 1.961 . S
O2436 C2380 1.325 . S
O2437 Li2376 1.970 . S
O2437 Li2377 1.956 . S
O2437 Li2379 1.961 . S
O2437 C2386 1.325 . S
O2438 Li2376 1.961 . S
O2438 Li2378 1.956 . S
O2438 Li2379 1.970 . S
O2438 C2408 1.325 . S
O2439 Li2377 1.961 . S
O2439 Li2378 1.970 . S
O2439 Li2379 1.956 . S
O2439 C2414 1.325 . S
H2440 C2382 0.929 . S
H2441 C2383 0.930 . S
H2442 C2384 0.930 . S
H2443 C2385 0.930 . S
H2444 C2387 0.930 . S
H2445 C2389 0.929 . S
H2446 C2390 0.930 . S
H2447 C2391 0.930 . S
H2448 C2394 0.930 . S
H2449 C2397 0.929 . S
H2450 C2402 0.929 . S
H2451 C2403 0.930 . S
H2452 C2410 0.929 . S
H2453 C2411 0.930 . S
H2454 C2412 0.930 . S
H2455 C2413 0.930 . S
H2456 C2415 0.929 . S
H2457 C2416 0.930 . S
H2458 C2417 0.930 . S
H2459 C2418 0.930 . S
H2460 C2422 0.929 . S
H2461 C2424 0.930 . S
H2462 C2430 0.929 . S
H2463 C2431 0.930 . S
Li2464 N2481 1.990 . S
Li2464 O2524 1.956 . S
Li2464 O2525 1.970 . S
Li2464 O2526 1.961 . S
Li2465 N2489 1.990 . S
Li2465 O2524 1.970 . S
Li2465 O2525 1.956 . S
Li2465 O2527 1.961 . S
Li2466 N2511 1.990 . S
Li2466 O2524 1.961 . S
Li2466 O2526 1.956 . S
Li2466 O2527 1.970 . S
Li2467 N2517 1.990 . S
Li2467 O2525 1.961 . S
Li2467 O2526 1.970 . S
Li2467 O2527 1.956 . S
C2468 C2470 1.348 . S
C2468 C2471 1.356 . S
C2468 O2524 1.325 . S
N2469 C2472 1.314 . S
N2469 C2473 1.279 . S
C2470 C2468 1.348 . S
C2470 C2472 1.353 . S
C2470 H2528 0.929 . S
C2471 C2468 1.356 . S
C2471 C2473 1.358 . S
C2471 H2529 0.930 . S
C2472 N2469 1.314 . S
C2472 C2470 1.353 . S
C2472 H2530 0.930 . S
C2473 N2469 1.279 . S
C2473 C2471 1.358 . S
C2473 H2531 0.930 . S
C2474 C2477 1.348 . S
C2474 C2478 1.356 . S
C2474 O2525 1.325 . S
C2475 N2476 1.279 . S
C2475 C2478 1.358 . S
C2475 H2532 0.930 . S
N2476 C2475 1.279 . S
N2476 C2479 1.314 . S
C2477 C2474 1.348 . S
C2477 C2479 1.353 . S
C2477 H2533 0.929 . S
C2478 C2474 1.356 . S
C2478 C2475 1.358 . S
C2478 H2534 0.930 . S
C2479 N2476 1.314 . S
C2479 C2477 1.353 . S
C2479 H2535 0.930 . S
C2480 N2481 1.314 . S
C2480 C2485 1.353 . S
C2480 H2486 0.930 . S
N2481 Li2464 1.990 . S
N2481 C2480 1.314 . S
N2481 C2483 1.279 . S
C2482 C2483 1.358 . S
C2482 C2484 1.356 . S
C2482 H2536 0.930 . S
C2483 N2481 1.279 . S
C2483 C2482 1.358 . S
C2483 H2487 0.930 . S
C2484 C2482 1.356 . S
C2484 C2485 1.348 . S
C2485 C2480 1.353 . S
C2485 C2484 1.348 . S
C2485 H2537 0.929 . S
H2486 C2480 0.930 . S
H2487 C2483 0.930 . S
C2488 N2489 1.314 . S
C2488 C2490 1.353 . S
C2488 H2494 0.930 . S
N2489 Li2465 1.990 . S
N2489 C2488 1.314 . S
N2489 C2492 1.279 . S
C2490 C2488 1.353 . S
C2490 C2493 1.348 . S
C2490 H2538 0.929 . S
C2491 C2492 1.358 . S
C2491 C2493 1.356 . S
C2491 H2539 0.930 . S
C2492 N2489 1.279 . S
C2492 C2491 1.358 . S
C2492 H2495 0.930 . S
C2493 C2490 1.348 . S
C2493 C2491 1.356 . S
H2494 C2488 0.930 . S
H2495 C2492 0.930 . S
C2496 C2498 1.348 . S
C2496 C2499 1.356 . S
C2496 O2526 1.325 . S
N2497 C2500 1.314 . S
N2497 C2501 1.279 . S
C2498 C2496 1.348 . S
C2498 C2500 1.353 . S
C2498 H2540 0.929 . S
C2499 C2496 1.356 . S
C2499 C2501 1.358 . S
C2499 H2541 0.930 . S
C2500 N2497 1.314 . S
C2500 C2498 1.353 . S
C2500 H2542 0.930 . S
C2501 N2497 1.279 . S
C2501 C2499 1.358 . S
C2501 H2543 0.930 . S
C2502 C2503 1.348 . S
C2502 C2504 1.356 . S
C2502 O2527 1.325 . S
C2503 C2502 1.348 . S
C2503 C2505 1.353 . S
C2503 H2544 0.929 . S
C2504 C2502 1.356 . S
C2504 C2506 1.358 . S
C2504 H2545 0.930 . S
C2505 C2503 1.353 . S
C2505 N2507 1.314 . S
C2505 H2546 0.930 . S
C2506 C2504 1.358 . S
C2506 N2507 1.279 . S
C2506 H2547 0.930 . S
N2507 C2505 1.314 . S
N2507 C2506 1.279 . S
C2508 C2510 1.353 . S
C2508 N2511 1.314 . S
C2508 H2514 0.930 . S
C2509 N2511 1.279 . S
C2509 C2512 1.358 . S
C2509 H2515 0.930 . S
C2510 C2508 1.353 . S
C2510 C2513 1.348 . S
C2510 H2548 0.929 . S
N2511 Li2466 1.990 . S
N2511 C2508 1.314 . S
N2511 C2509 1.279 . S
C2512 C2509 1.358 . S
C2512 C2513 1.356 . S
C2512 H2549 0.930 . S
C2513 C2510 1.348 . S
C2513 C2512 1.356 . S
H2514 C2508 0.930 . S
H2515 C2509 0.930 . S
C2516 N2517 1.314 . S
C2516 C2518 1.353 . S
C2516 H2522 0.930 . S
N2517 Li2467 1.990 . S
N2517 C2516 1.314 . S
N2517 C2520 1.279 . S
C2518 C2516 1.353 . S
C2518 C2521 1.348 . S
C2518 H2550 0.929 . S
C2519 C2520 1.358 . S
C2519 C2521 1.356 . S
C2519 H2551 0.930 . S
C2520 N2517 1.279 . S
C2520 C2519 1.358 . S
C2520 H2523 0.930 . S
C2521 C2518 1.348 . S
C2521 C2519 1.356 . S
H2522 C2516 0.930 . S
H2523 C2520 0.930 . S
O2524 Li2464 1.956 . S
O2524 Li2465 1.970 . S
O2524 Li2466 1.961 . S
O2524 C2468 1.325 . S
O2525 Li2464 1.970 . S
O2525 Li2465 1.956 . S
O2525 Li2467 1.961 . S
O2525 C2474 1.325 . S
O2526 Li2464 1.961 . S
O2526 Li2466 1.956 . S
O2526 Li2467 1.970 . S
O2526 C2496 1.325 . S
O2527 Li2465 1.961 . S
O2527 Li2466 1.970 . S
O2527 Li2467 1.956 . S
O2527 C2502 1.325 . S
H2528 C2470 0.929 . S
H2529 C2471 0.930 . S
H2530 C2472 0.930 . S
H2531 C2473 0.930 . S
H2532 C2475 0.930 . S
H2533 C2477 0.929 . S
H2534 C2478 0.930 . S
H2535 C2479 0.930 . S
H2536 C2482 0.930 . S
H2537 C2485 0.929 . S
H2538 C2490 0.929 . S
H2539 C2491 0.930 . S
H2540 C2498 0.929 . S
H2541 C2499 0.930 . S
H2542 C2500 0.930 . S
H2543 C2501 0.930 . S
H2544 C2503 0.929 . S
H2545 C2504 0.930 . S
H2546 C2505 0.930 . S
H2547 C2506 0.930 . S
H2548 C2510 0.929 . S
H2549 C2512 0.930 . S
H2550 C2518 0.929 . S
H2551 C2519 0.930 . S
Li2552 N2569 1.990 . S
Li2552 O2612 1.956 . S
Li2552 O2613 1.970 . S
Li2552 O2614 1.961 . S
Li2553 N2577 1.990 . S
Li2553 O2612 1.970 . S
Li2553 O2613 1.956 . S
Li2553 O2615 1.961 . S
Li2554 N2599 1.990 1_554 S
Li2554 O2612 1.961 . S
Li2554 O2614 1.956 . S
Li2554 O2615 1.970 . S
Li2555 N2605 1.990 . S
Li2555 O2613 1.961 . S
Li2555 O2614 1.970 . S
Li2555 O2615 1.956 . S
C2556 C2558 1.348 . S
C2556 C2559 1.356 . S
C2556 O2612 1.325 . S
N2557 C2560 1.314 . S
N2557 C2561 1.279 . S
C2558 C2556 1.348 . S
C2558 C2560 1.353 . S
C2558 H2616 0.929 . S
C2559 C2556 1.356 . S
C2559 C2561 1.358 . S
C2559 H2617 0.930 1_554 S
C2560 N2557 1.314 . S
C2560 C2558 1.353 . S
C2560 H2618 0.930 . S
C2561 N2557 1.279 . S
C2561 C2559 1.358 . S
C2561 H2619 0.930 1_554 S
C2562 C2565 1.348 . S
C2562 C2566 1.356 . S
C2562 O2613 1.325 . S
C2563 N2564 1.279 . S
C2563 C2566 1.358 . S
C2563 H2620 0.930 . S
N2564 C2563 1.279 . S
N2564 C2567 1.314 . S
C2565 C2562 1.348 . S
C2565 C2567 1.353 . S
C2565 H2621 0.929 . S
C2566 C2562 1.356 . S
C2566 C2563 1.358 . S
C2566 H2622 0.930 . S
C2567 N2564 1.314 . S
C2567 C2565 1.353 . S
C2567 H2623 0.930 . S
C2568 N2569 1.314 . S
C2568 C2573 1.353 . S
C2568 H2574 0.930 . S
N2569 Li2552 1.990 . S
N2569 C2568 1.314 . S
N2569 C2571 1.279 . S
C2570 C2571 1.358 . S
C2570 C2572 1.356 . S
C2570 H2624 0.930 . S
C2571 N2569 1.279 . S
C2571 C2570 1.358 . S
C2571 H2575 0.930 . S
C2572 C2570 1.356 . S
C2572 C2573 1.348 . S
C2573 C2568 1.353 . S
C2573 C2572 1.348 . S
C2573 H2625 0.929 . S
H2574 C2568 0.930 . S
H2575 C2571 0.930 . S
C2576 N2577 1.314 . S
C2576 C2578 1.353 . S
C2576 H2582 0.930 . S
N2577 Li2553 1.990 . S
N2577 C2576 1.314 . S
N2577 C2580 1.279 . S
C2578 C2576 1.353 . S
C2578 C2581 1.348 . S
C2578 H2626 0.929 . S
C2579 C2580 1.358 . S
C2579 C2581 1.356 . S
C2579 H2627 0.930 . S
C2580 N2577 1.279 . S
C2580 C2579 1.358 . S
C2580 H2583 0.930 . S
C2581 C2578 1.348 . S
C2581 C2579 1.356 . S
H2582 C2576 0.930 . S
H2583 C2580 0.930 . S
C2584 C2586 1.348 . S
C2584 C2587 1.356 . S
C2584 O2614 1.325 1_556 S
N2585 C2588 1.314 . S
N2585 C2589 1.279 . S
C2586 C2584 1.348 . S
C2586 C2588 1.353 . S
C2586 H2628 0.929 . S
C2587 C2584 1.356 . S
C2587 C2589 1.358 . S
C2587 H2629 0.930 . S
C2588 N2585 1.314 . S
C2588 C2586 1.353 . S
C2588 H2630 0.930 . S
C2589 N2585 1.279 . S
C2589 C2587 1.358 . S
C2589 H2631 0.930 . S
C2590 C2591 1.348 1_554 S
C2590 C2592 1.356 . S
C2590 O2615 1.325 . S
C2591 C2590 1.348 1_556 S
C2591 C2593 1.353 . S
C2591 H2632 0.929 . S
C2592 C2590 1.356 . S
C2592 C2594 1.358 . S
C2592 H2633 0.930 . S
C2593 C2591 1.353 . S
C2593 N2595 1.314 1_556 S
C2593 H2634 0.930 . S
C2594 C2592 1.358 . S
C2594 N2595 1.279 . S
C2594 H2635 0.930 . S
N2595 C2593 1.314 1_554 S
N2595 C2594 1.279 . S
C2596 C2598 1.353 . S
C2596 N2599 1.314 . S
C2596 H2602 0.930 . S
C2597 N2599 1.279 . S
C2597 C2600 1.358 . S
C2597 H2603 0.930 . S
C2598 C2596 1.353 . S
C2598 C2601 1.348 . S
C2598 H2636 0.929 . S
N2599 Li2554 1.990 1_556 S
N2599 C2596 1.314 . S
N2599 C2597 1.279 . S
C2600 C2597 1.358 . S
C2600 C2601 1.356 . S
C2600 H2637 0.930 . S
C2601 C2598 1.348 . S
C2601 C2600 1.356 . S
H2602 C2596 0.930 . S
H2603 C2597 0.930 . S
C2604 N2605 1.314 . S
C2604 C2606 1.353 . S
C2604 H2610 0.930 . S
N2605 Li2555 1.990 . S
N2605 C2604 1.314 . S
N2605 C2608 1.279 . S
C2606 C2604 1.353 . S
C2606 C2609 1.348 . S
C2606 H2638 0.929 . S
C2607 C2608 1.358 . S
C2607 C2609 1.356 . S
C2607 H2639 0.930 . S
C2608 N2605 1.279 . S
C2608 C2607 1.358 . S
C2608 H2611 0.930 . S
C2609 C2606 1.348 . S
C2609 C2607 1.356 . S
H2610 C2604 0.930 . S
H2611 C2608 0.930 . S
O2612 Li2552 1.956 . S
O2612 Li2553 1.970 . S
O2612 Li2554 1.961 . S
O2612 C2556 1.325 . S
O2613 Li2552 1.970 . S
O2613 Li2553 1.956 . S
O2613 Li2555 1.961 . S
O2613 C2562 1.325 . S
O2614 Li2552 1.961 . S
O2614 Li2554 1.956 . S
O2614 Li2555 1.970 . S
O2614 C2584 1.325 1_554 S
O2615 Li2553 1.961 . S
O2615 Li2554 1.970 . S
O2615 Li2555 1.956 . S
O2615 C2590 1.325 . S
H2616 C2558 0.929 . S
H2617 C2559 0.930 1_556 S
H2618 C2560 0.930 . S
H2619 C2561 0.930 1_556 S
H2620 C2563 0.930 . S
H2621 C2565 0.929 . S
H2622 C2566 0.930 . S
H2623 C2567 0.930 . S
H2624 C2570 0.930 . S
H2625 C2573 0.929 . S
H2626 C2578 0.929 . S
H2627 C2579 0.930 . S
H2628 C2586 0.929 . S
H2629 C2587 0.930 . S
H2630 C2588 0.930 . S
H2631 C2589 0.930 . S
H2632 C2591 0.929 . S
H2633 C2592 0.930 . S
H2634 C2593 0.930 . S
H2635 C2594 0.930 . S
H2636 C2598 0.929 . S
H2637 C2600 0.930 . S
H2638 C2606 0.929 . S
H2639 C2607 0.930 . S
Li2640 N2657 1.990 1_455 S
Li2640 O2700 1.956 . S
Li2640 O2701 1.970 . S
Li2640 O2702 1.961 . S
Li2641 N2665 1.990 . S
Li2641 O2700 1.970 . S
Li2641 O2701 1.956 . S
Li2641 O2703 1.961 . S
Li2642 N2687 1.990 . S
Li2642 O2700 1.961 . S
Li2642 O2702 1.956 . S
Li2642 O2703 1.970 . S
Li2643 N2693 1.990 . S
Li2643 O2701 1.961 . S
Li2643 O2702 1.970 . S
Li2643 O2703 1.956 . S
C2644 C2646 1.348 . S
C2644 C2647 1.356 . S
C2644 O2700 1.325 . S
N2645 C2648 1.314 . S
N2645 C2649 1.279 . S
C2646 C2644 1.348 . S
C2646 C2648 1.353 . S
C2646 H2704 0.929 . S
C2647 C2644 1.356 . S
C2647 C2649 1.358 . S
C2647 H2705 0.930 . S
C2648 N2645 1.314 . S
C2648 C2646 1.353 . S
C2648 H2706 0.930 . S
C2649 N2645 1.279 . S
C2649 C2647 1.358 . S
C2649 H2707 0.930 . S
C2650 C2653 1.348 . S
C2650 C2654 1.356 . S
C2650 O2701 1.325 . S
C2651 N2652 1.279 . S
C2651 C2654 1.358 . S
C2651 H2708 0.930 . S
N2652 C2651 1.279 . S
N2652 C2655 1.314 . S
C2653 C2650 1.348 . S
C2653 C2655 1.353 . S
C2653 H2709 0.929 . S
C2654 C2650 1.356 . S
C2654 C2651 1.358 . S
C2654 H2710 0.930 . S
C2655 N2652 1.314 . S
C2655 C2653 1.353 . S
C2655 H2711 0.930 . S
C2656 N2657 1.314 . S
C2656 C2661 1.353 . S
C2656 H2662 0.930 . S
N2657 Li2640 1.990 1_655 S
N2657 C2656 1.314 . S
N2657 C2659 1.279 . S
C2658 C2659 1.358 . S
C2658 C2660 1.356 . S
C2658 H2712 0.930 . S
C2659 N2657 1.279 . S
C2659 C2658 1.358 . S
C2659 H2663 0.930 . S
C2660 C2658 1.356 . S
C2660 C2661 1.348 . S
C2661 C2656 1.353 . S
C2661 C2660 1.348 . S
C2661 H2713 0.929 . S
H2662 C2656 0.930 . S
H2663 C2659 0.930 . S
C2664 N2665 1.314 . S
C2664 C2666 1.353 . S
C2664 H2670 0.930 . S
N2665 Li2641 1.990 . S
N2665 C2664 1.314 . S
N2665 C2668 1.279 . S
C2666 C2664 1.353 . S
C2666 C2669 1.348 . S
C2666 H2714 0.929 . S
C2667 C2668 1.358 . S
C2667 C2669 1.356 . S
C2667 H2715 0.930 . S
C2668 N2665 1.279 . S
C2668 C2667 1.358 . S
C2668 H2671 0.930 . S
C2669 C2666 1.348 . S
C2669 C2667 1.356 . S
H2670 C2664 0.930 . S
H2671 C2668 0.930 . S
C2672 C2674 1.348 . S
C2672 C2675 1.335 1_455 S
C2672 O2702 1.325 . S
N2673 C2676 1.314 1_655 S
N2673 C2677 1.279 . S
C2674 C2672 1.348 . S
C2674 C2676 1.353 . S
C2674 H2716 0.929 . S
C2675 C2672 1.335 1_655 S
C2675 C2677 1.377 . S
C2675 H2717 0.933 . S
C2676 N2673 1.314 1_455 S
C2676 C2674 1.353 . S
C2676 H2718 0.930 . S
C2677 N2673 1.279 . S
C2677 C2675 1.377 . S
C2677 H2719 0.930 . S
C2678 C2679 1.348 . S
C2678 C2680 1.356 . S
C2678 O2703 1.325 . S
C2679 C2678 1.348 . S
C2679 C2681 1.353 . S
C2679 H2720 0.929 . S
C2680 C2678 1.356 . S
C2680 C2682 1.358 . S
C2680 H2721 0.930 . S
C2681 C2679 1.353 . S
C2681 N2683 1.314 . S
C2681 H2722 0.930 . S
C2682 C2680 1.358 . S
C2682 N2683 1.279 . S
C2682 H2723 0.930 . S
N2683 C2681 1.314 . S
N2683 C2682 1.279 . S
C2684 C2686 1.353 . S
C2684 N2687 1.314 . S
C2684 H2690 0.930 . S
C2685 N2687 1.279 . S
C2685 C2688 1.358 . S
C2685 H2691 0.930 . S
C2686 C2684 1.353 . S
C2686 C2689 1.348 . S
C2686 H2724 0.929 . S
N2687 Li2642 1.990 . S
N2687 C2684 1.314 . S
N2687 C2685 1.279 . S
C2688 C2685 1.358 . S
C2688 C2689 1.356 . S
C2688 H2725 0.930 . S
C2689 C2686 1.348 . S
C2689 C2688 1.356 . S
H2690 C2684 0.930 . S
H2691 C2685 0.930 . S
C2692 N2693 1.314 . S
C2692 C2694 1.353 . S
C2692 H2698 0.930 . S
N2693 Li2643 1.990 . S
N2693 C2692 1.314 . S
N2693 C2696 1.279 . S
C2694 C2692 1.353 . S
C2694 C2697 1.348 . S
C2694 H2726 0.929 . S
C2695 C2696 1.358 . S
C2695 C2697 1.356 . S
C2695 H2727 0.930 . S
C2696 N2693 1.279 . S
C2696 C2695 1.358 . S
C2696 H2699 0.930 . S
C2697 C2694 1.348 . S
C2697 C2695 1.356 . S
H2698 C2692 0.930 . S
H2699 C2696 0.930 . S
O2700 Li2640 1.956 . S
O2700 Li2641 1.970 . S
O2700 Li2642 1.961 . S
O2700 C2644 1.325 . S
O2701 Li2640 1.970 . S
O2701 Li2641 1.956 . S
O2701 Li2643 1.961 . S
O2701 C2650 1.325 . S
O2702 Li2640 1.961 . S
O2702 Li2642 1.956 . S
O2702 Li2643 1.970 . S
O2702 C2672 1.325 . S
O2703 Li2641 1.961 . S
O2703 Li2642 1.970 . S
O2703 Li2643 1.956 . S
O2703 C2678 1.325 . S
H2704 C2646 0.929 . S
H2705 C2647 0.930 . S
H2706 C2648 0.930 . S
H2707 C2649 0.930 . S
H2708 C2651 0.930 . S
H2709 C2653 0.929 . S
H2710 C2654 0.930 . S
H2711 C2655 0.930 . S
H2712 C2658 0.930 . S
H2713 C2661 0.929 . S
H2714 C2666 0.929 . S
H2715 C2667 0.930 . S
H2716 C2674 0.929 . S
H2717 C2675 0.933 . S
H2718 C2676 0.930 . S
H2719 C2677 0.930 . S
H2720 C2679 0.929 . S
H2721 C2680 0.930 . S
H2722 C2681 0.930 . S
H2723 C2682 0.930 . S
H2724 C2686 0.929 . S
H2725 C2688 0.930 . S
H2726 C2694 0.929 . S
H2727 C2695 0.930 . S
Li2728 N2745 1.990 . S
Li2728 O2788 1.956 . S
Li2728 O2789 1.970 . S
Li2728 O2790 1.961 . S
Li2729 N2753 1.990 . S
Li2729 O2788 1.970 . S
Li2729 O2789 1.956 . S
Li2729 O2791 1.961 . S
Li2730 N2775 1.990 . S
Li2730 O2788 1.961 . S
Li2730 O2790 1.956 . S
Li2730 O2791 1.970 . S
Li2731 N2781 1.990 . S
Li2731 O2789 1.961 . S
Li2731 O2790 1.970 . S
Li2731 O2791 1.956 . S
C2732 C2734 1.348 . S
C2732 C2735 1.356 . S
C2732 O2788 1.325 . S
N2733 C2736 1.314 . S
N2733 C2737 1.279 . S
C2734 C2732 1.348 . S
C2734 C2736 1.353 . S
C2734 H2792 0.929 . S
C2735 C2732 1.356 . S
C2735 C2737 1.358 . S
C2735 H2793 0.930 . S
C2736 N2733 1.314 . S
C2736 C2734 1.353 . S
C2736 H2794 0.930 . S
C2737 N2733 1.279 . S
C2737 C2735 1.358 . S
C2737 H2795 0.930 . S
C2738 C2741 1.348 . S
C2738 C2742 1.356 . S
C2738 O2789 1.325 . S
C2739 N2740 1.279 . S
C2739 C2742 1.358 . S
C2739 H2796 0.930 . S
N2740 C2739 1.279 . S
N2740 C2743 1.314 . S
C2741 C2738 1.348 . S
C2741 C2743 1.353 . S
C2741 H2797 0.929 . S
C2742 C2738 1.356 . S
C2742 C2739 1.358 . S
C2742 H2798 0.930 . S
C2743 N2740 1.314 . S
C2743 C2741 1.353 . S
C2743 H2799 0.930 . S
C2744 N2745 1.314 . S
C2744 C2749 1.353 . S
C2744 H2750 0.930 . S
N2745 Li2728 1.990 . S
N2745 C2744 1.314 . S
N2745 C2747 1.279 . S
C2746 C2747 1.358 . S
C2746 C2748 1.356 . S
C2746 H2800 0.930 . S
C2747 N2745 1.279 . S
C2747 C2746 1.358 . S
C2747 H2751 0.930 . S
C2748 C2746 1.356 . S
C2748 C2749 1.348 . S
C2749 C2744 1.353 . S
C2749 C2748 1.348 . S
C2749 H2801 0.929 . S
H2750 C2744 0.930 . S
H2751 C2747 0.930 . S
C2752 N2753 1.314 . S
C2752 C2754 1.353 . S
C2752 H2758 0.930 . S
N2753 Li2729 1.990 . S
N2753 C2752 1.314 . S
N2753 C2756 1.279 . S
C2754 C2752 1.353 . S
C2754 C2757 1.348 . S
C2754 H2802 0.929 . S
C2755 C2756 1.358 . S
C2755 C2757 1.356 . S
C2755 H2803 0.930 . S
C2756 N2753 1.279 . S
C2756 C2755 1.358 . S
C2756 H2759 0.930 . S
C2757 C2754 1.348 . S
C2757 C2755 1.356 . S
H2758 C2752 0.930 . S
H2759 C2756 0.930 . S
C2760 C2762 1.348 . S
C2760 C2763 1.356 . S
C2760 O2790 1.325 . S
N2761 C2764 1.314 . S
N2761 C2765 1.279 . S
C2762 C2760 1.348 . S
C2762 C2764 1.353 . S
C2762 H2804 0.929 . S
C2763 C2760 1.356 . S
C2763 C2765 1.358 . S
C2763 H2805 0.930 . S
C2764 N2761 1.314 . S
C2764 C2762 1.353 . S
C2764 H2806 0.930 . S
C2765 N2761 1.279 . S
C2765 C2763 1.358 . S
C2765 H2807 0.930 . S
C2766 C2767 1.348 . S
C2766 C2768 1.356 . S
C2766 O2791 1.325 . S
C2767 C2766 1.348 . S
C2767 C2769 1.353 . S
C2767 H2808 0.929 . S
C2768 C2766 1.356 . S
C2768 C2770 1.358 . S
C2768 H2809 0.930 . S
C2769 C2767 1.353 . S
C2769 N2771 1.314 . S
C2769 H2810 0.930 . S
C2770 C2768 1.358 . S
C2770 N2771 1.279 . S
C2770 H2811 0.930 . S
N2771 C2769 1.314 . S
N2771 C2770 1.279 . S
C2772 C2774 1.353 . S
C2772 N2775 1.314 . S
C2772 H2778 0.930 . S
C2773 N2775 1.279 . S
C2773 C2776 1.358 . S
C2773 H2779 0.930 . S
C2774 C2772 1.353 . S
C2774 C2777 1.348 . S
C2774 H2812 0.929 . S
N2775 Li2730 1.990 . S
N2775 C2772 1.314 . S
N2775 C2773 1.279 . S
C2776 C2773 1.358 . S
C2776 C2777 1.356 . S
C2776 H2813 0.930 . S
C2777 C2774 1.348 . S
C2777 C2776 1.356 . S
H2778 C2772 0.930 . S
H2779 C2773 0.930 . S
C2780 N2781 1.314 . S
C2780 C2782 1.353 . S
C2780 H2786 0.930 . S
N2781 Li2731 1.990 . S
N2781 C2780 1.314 . S
N2781 C2784 1.279 . S
C2782 C2780 1.353 . S
C2782 C2785 1.348 . S
C2782 H2814 0.929 . S
C2783 C2784 1.358 . S
C2783 C2785 1.356 . S
C2783 H2815 0.930 . S
C2784 N2781 1.279 . S
C2784 C2783 1.358 . S
C2784 H2787 0.930 . S
C2785 C2782 1.348 . S
C2785 C2783 1.356 . S
H2786 C2780 0.930 . S
H2787 C2784 0.930 . S
O2788 Li2728 1.956 . S
O2788 Li2729 1.970 . S
O2788 Li2730 1.961 . S
O2788 C2732 1.325 . S
O2789 Li2728 1.970 . S
O2789 Li2729 1.956 . S
O2789 Li2731 1.961 . S
O2789 C2738 1.325 . S
O2790 Li2728 1.961 . S
O2790 Li2730 1.956 . S
O2790 Li2731 1.970 . S
O2790 C2760 1.325 . S
O2791 Li2729 1.961 . S
O2791 Li2730 1.970 . S
O2791 Li2731 1.956 . S
O2791 C2766 1.325 . S
H2792 C2734 0.929 . S
H2793 C2735 0.930 . S
H2794 C2736 0.930 . S
H2795 C2737 0.930 . S
H2796 C2739 0.930 . S
H2797 C2741 0.929 . S
H2798 C2742 0.930 . S
H2799 C2743 0.930 . S
H2800 C2746 0.930 . S
H2801 C2749 0.929 . S
H2802 C2754 0.929 . S
H2803 C2755 0.930 . S
H2804 C2762 0.929 . S
H2805 C2763 0.930 . S
H2806 C2764 0.930 . S
H2807 C2765 0.930 . S
H2808 C2767 0.929 . S
H2809 C2768 0.930 . S
H2810 C2769 0.930 . S
H2811 C2770 0.930 . S
H2812 C2774 0.929 . S
H2813 C2776 0.930 . S
H2814 C2782 0.929 . S
H2815 C2783 0.930 . S
C2816 C2817 1.369 . S
C2816 C2818 1.419 . S
C2816 H2820 0.930 . S
C2817 C2816 1.369 . S
C2817 C2826 1.429 . S
C2818 C2816 1.419 . S
C2818 C2819 1.363 . S
C2818 H2821 0.929 . S
C2819 C2818 1.363 . S
C2819 C2825 1.428 . S
H2820 C2816 0.930 . S
H2821 C2818 0.929 . S
S2822 N2823 1.613 . S
S2822 N2824 1.610 . S
N2823 S2822 1.613 . S
N2823 C2826 1.350 . S
N2824 S2822 1.610 . S
N2824 C2825 1.351 . S
C2825 C2819 1.428 . S
C2825 N2824 1.351 . S
C2825 C2826 1.434 . S
C2826 C2817 1.429 . S
C2826 N2823 1.350 . S
C2826 C2825 1.434 . S
C2827 C2828 1.369 . S
C2827 C2829 1.419 . S
C2827 H2831 0.930 . S
C2828 C2827 1.369 . S
C2828 C2837 1.429 . S
C2829 C2827 1.419 . S
C2829 C2830 1.363 . S
C2829 H2832 0.929 . S
C2830 C2829 1.363 . S
C2830 C2836 1.428 . S
H2831 C2827 0.930 . S
H2832 C2829 0.929 . S
S2833 N2834 1.613 . S
S2833 N2835 1.610 . S
N2834 S2833 1.613 . S
N2834 C2837 1.350 . S
N2835 S2833 1.610 . S
N2835 C2836 1.351 . S
C2836 C2830 1.428 . S
C2836 N2835 1.351 . S
C2836 C2837 1.434 . S
C2837 C2828 1.429 . S
C2837 N2834 1.350 . S
C2837 C2836 1.434 . S
C2838 C2839 1.369 . S
C2838 C2840 1.419 . S
C2838 H2842 0.930 . S
C2839 C2838 1.369 . S
C2839 C2848 1.429 . S
C2840 C2838 1.419 . S
C2840 C2841 1.363 . S
C2840 H2843 0.929 . S
C2841 C2840 1.363 . S
C2841 C2847 1.428 . S
H2842 C2838 0.930 . S
H2843 C2840 0.929 . S
S2844 N2845 1.613 . S
S2844 N2846 1.610 . S
N2845 S2844 1.613 . S
N2845 C2848 1.350 . S
N2846 S2844 1.610 . S
N2846 C2847 1.351 . S
C2847 C2841 1.428 . S
C2847 N2846 1.351 . S
C2847 C2848 1.434 . S
C2848 C2839 1.429 . S
C2848 N2845 1.350 . S
C2848 C2847 1.434 . S
C2849 C2850 1.369 . S
C2849 C2851 1.419 . S
C2849 H2853 0.930 . S
C2850 C2849 1.369 . S
C2850 C2859 1.429 . S
C2851 C2849 1.419 . S
C2851 C2852 1.363 . S
C2851 H2854 0.929 . S
C2852 C2851 1.363 . S
C2852 C2858 1.428 . S
H2853 C2849 0.930 . S
H2854 C2851 0.929 . S
S2855 N2856 1.613 . S
S2855 N2857 1.610 . S
N2856 S2855 1.613 . S
N2856 C2859 1.350 . S
N2857 S2855 1.610 . S
N2857 C2858 1.351 . S
C2858 C2852 1.428 . S
C2858 N2857 1.351 . S
C2858 C2859 1.434 . S
C2859 C2850 1.429 . S
C2859 N2856 1.350 . S
C2859 C2858 1.434 . S
C2860 C2861 1.369 . S
C2860 C2862 1.419 . S
C2860 H2864 0.930 . S
C2861 C2860 1.369 . S
C2861 C2870 1.429 . S
C2862 C2860 1.419 . S
C2862 C2863 1.363 . S
C2862 H2865 0.929 . S
C2863 C2862 1.363 . S
C2863 C2869 1.428 . S
H2864 C2860 0.930 . S
H2865 C2862 0.929 . S
S2866 N2867 1.613 . S
S2866 N2868 1.610 . S
N2867 S2866 1.613 . S
N2867 C2870 1.350 . S
N2868 S2866 1.610 . S
N2868 C2869 1.351 . S
C2869 C2863 1.428 . S
C2869 N2868 1.351 . S
C2869 C2870 1.434 . S
C2870 C2861 1.429 . S
C2870 N2867 1.350 . S
C2870 C2869 1.434 . S
C2871 C2872 1.369 . S
C2871 C2873 1.419 . S
C2871 H2875 0.930 . S
C2872 C2871 1.369 . S
C2872 C2881 1.429 . S
C2873 C2871 1.419 . S
C2873 C2874 1.363 . S
C2873 H2876 0.929 . S
C2874 C2873 1.363 . S
C2874 C2880 1.428 . S
H2875 C2871 0.930 . S
H2876 C2873 0.929 . S
S2877 N2878 1.613 . S
S2877 N2879 1.610 . S
N2878 S2877 1.613 . S
N2878 C2881 1.350 . S
N2879 S2877 1.610 . S
N2879 C2880 1.351 . S
C2880 C2874 1.428 . S
C2880 N2879 1.351 . S
C2880 C2881 1.434 . S
C2881 C2872 1.429 . S
C2881 N2878 1.350 . S
C2881 C2880 1.434 . S
C2882 C2883 1.369 . S
C2882 C2884 1.419 . S
C2882 H2886 0.930 . S
C2883 C2882 1.369 . S
C2883 C2892 1.429 . S
C2884 C2882 1.419 . S
C2884 C2885 1.363 . S
C2884 H2887 0.929 . S
C2885 C2884 1.363 . S
C2885 C2891 1.428 . S
H2886 C2882 0.930 . S
H2887 C2884 0.929 . S
S2888 N2889 1.613 . S
S2888 N2890 1.610 . S
N2889 S2888 1.613 . S
N2889 C2892 1.350 . S
N2890 S2888 1.610 . S
N2890 C2891 1.351 . S
C2891 C2885 1.428 . S
C2891 N2890 1.351 . S
C2891 C2892 1.434 . S
C2892 C2883 1.429 . S
C2892 N2889 1.350 . S
C2892 C2891 1.434 . S
C2893 C2894 1.369 . S
C2893 C2895 1.419 . S
C2893 H2897 0.930 . S
C2894 C2893 1.369 . S
C2894 C2903 1.429 . S
C2895 C2893 1.419 . S
C2895 C2896 1.363 . S
C2895 H2898 0.929 . S
C2896 C2895 1.363 . S
C2896 C2902 1.428 . S
H2897 C2893 0.930 . S
H2898 C2895 0.929 . S
S2899 N2900 1.613 . S
S2899 N2901 1.610 . S
N2900 S2899 1.613 . S
N2900 C2903 1.350 . S
N2901 S2899 1.610 . S
N2901 C2902 1.351 . S
C2902 C2896 1.428 . S
C2902 N2901 1.351 . S
C2902 C2903 1.434 . S
C2903 C2894 1.429 . S
C2903 N2900 1.350 . S
C2903 C2902 1.434 . S
C2904 C2905 1.369 . S
C2904 C2906 1.419 . S
C2904 H2908 0.930 . S
C2905 C2904 1.369 . S
C2905 C2914 1.429 . S
C2906 C2904 1.419 . S
C2906 C2907 1.363 . S
C2906 H2909 0.929 . S
C2907 C2906 1.363 . S
C2907 C2913 1.428 . S
H2908 C2904 0.930 . S
H2909 C2906 0.929 . S
S2910 N2911 1.613 . S
S2910 N2912 1.610 . S
N2911 S2910 1.613 . S
N2911 C2914 1.350 . S
N2912 S2910 1.610 . S
N2912 C2913 1.351 . S
C2913 C2907 1.428 . S
C2913 N2912 1.351 . S
C2913 C2914 1.434 . S
C2914 C2905 1.429 . S
C2914 N2911 1.350 . S
C2914 C2913 1.434 . S
C2915 C2916 1.369 . S
C2915 C2917 1.419 . S
C2915 H2919 0.930 . S
C2916 C2915 1.369 . S
C2916 C2925 1.429 . S
C2917 C2915 1.419 . S
C2917 C2918 1.363 . S
C2917 H2920 0.929 . S
C2918 C2917 1.363 . S
C2918 C2924 1.428 . S
H2919 C2915 0.930 . S
H2920 C2917 0.929 . S
S2921 N2922 1.613 . S
S2921 N2923 1.610 . S
N2922 S2921 1.613 . S
N2922 C2925 1.350 . S
N2923 S2921 1.610 . S
N2923 C2924 1.351 . S
C2924 C2918 1.428 . S
C2924 N2923 1.351 . S
C2924 C2925 1.434 . S
C2925 C2916 1.429 . S
C2925 N2922 1.350 . S
C2925 C2924 1.434 . S
C2926 C2927 1.369 . S
C2926 C2928 1.419 . S
C2926 H2930 0.930 . S
C2927 C2926 1.369 . S
C2927 C2936 1.429 . S
C2928 C2926 1.419 . S
C2928 C2929 1.363 . S
C2928 H2931 0.929 . S
C2929 C2928 1.363 . S
C2929 C2935 1.428 . S
H2930 C2926 0.930 . S
H2931 C2928 0.929 . S
S2932 N2933 1.613 . S
S2932 N2934 1.610 . S
N2933 S2932 1.613 . S
N2933 C2936 1.350 . S
N2934 S2932 1.610 . S
N2934 C2935 1.351 . S
C2935 C2929 1.428 . S
C2935 N2934 1.351 . S
C2935 C2936 1.434 . S
C2936 C2927 1.429 . S
C2936 N2933 1.350 . S
C2936 C2935 1.434 . S
C2937 C2938 1.369 . S
C2937 C2939 1.419 . S
C2937 H2941 0.930 . S
C2938 C2937 1.369 . S
C2938 C2947 1.429 . S
C2939 C2937 1.419 . S
C2939 C2940 1.363 . S
C2939 H2942 0.929 . S
C2940 C2939 1.363 . S
C2940 C2946 1.428 . S
H2941 C2937 0.930 . S
H2942 C2939 0.929 . S
S2943 N2944 1.613 . S
S2943 N2945 1.610 . S
N2944 S2943 1.613 . S
N2944 C2947 1.350 . S
N2945 S2943 1.610 . S
N2945 C2946 1.351 . S
C2946 C2940 1.428 . S
C2946 N2945 1.351 . S
C2946 C2947 1.434 . S
C2947 C2938 1.429 . S
C2947 N2944 1.350 . S
C2947 C2946 1.434 . S
C2948 C2949 1.369 . S
C2948 C2950 1.419 . S
C2948 H2952 0.930 . S
C2949 C2948 1.369 . S
C2949 C2958 1.429 . S
C2950 C2948 1.419 . S
C2950 C2951 1.363 . S
C2950 H2953 0.929 . S
C2951 C2950 1.363 . S
C2951 C2957 1.428 . S
H2952 C2948 0.930 . S
H2953 C2950 0.929 . S
S2954 N2955 1.613 . S
S2954 N2956 1.610 . S
N2955 S2954 1.613 . S
N2955 C2958 1.350 . S
N2956 S2954 1.610 . S
N2956 C2957 1.351 . S
C2957 C2951 1.428 . S
C2957 N2956 1.351 . S
C2957 C2958 1.434 . S
C2958 C2949 1.429 . S
C2958 N2955 1.350 . S
C2958 C2957 1.434 . S
C2959 C2960 1.369 . S
C2959 C2961 1.419 . S
C2959 H2963 0.930 . S
C2960 C2959 1.369 . S
C2960 C2969 1.429 . S
C2961 C2959 1.419 . S
C2961 C2962 1.363 . S
C2961 H2964 0.929 . S
C2962 C2961 1.363 . S
C2962 C2968 1.428 . S
H2963 C2959 0.930 . S
H2964 C2961 0.929 . S
S2965 N2966 1.613 . S
S2965 N2967 1.610 . S
N2966 S2965 1.613 . S
N2966 C2969 1.350 . S
N2967 S2965 1.610 . S
N2967 C2968 1.351 . S
C2968 C2962 1.428 . S
C2968 N2967 1.351 . S
C2968 C2969 1.434 . S
C2969 C2960 1.429 . S
C2969 N2966 1.350 . S
C2969 C2968 1.434 . S
C2970 C2971 1.369 . S
C2970 C2972 1.419 . S
C2970 H2974 0.930 . S
C2971 C2970 1.369 . S
C2971 C2980 1.429 . S
C2972 C2970 1.419 . S
C2972 C2973 1.363 . S
C2972 H2975 0.929 . S
C2973 C2972 1.363 . S
C2973 C2979 1.428 . S
H2974 C2970 0.930 . S
H2975 C2972 0.929 . S
S2976 N2977 1.613 . S
S2976 N2978 1.610 . S
N2977 S2976 1.613 . S
N2977 C2980 1.350 . S
N2978 S2976 1.610 . S
N2978 C2979 1.351 . S
C2979 C2973 1.428 . S
C2979 N2978 1.351 . S
C2979 C2980 1.434 . S
C2980 C2971 1.429 . S
C2980 N2977 1.350 . S
C2980 C2979 1.434 . S
C2981 C2982 1.369 . S
C2981 C2983 1.419 . S
C2981 H2985 0.930 . S
C2982 C2981 1.369 . S
C2982 C2991 1.429 . S
C2983 C2981 1.419 . S
C2983 C2984 1.363 . S
C2983 H2986 0.929 . S
C2984 C2983 1.363 . S
C2984 C2990 1.428 . S
H2985 C2981 0.930 . S
H2986 C2983 0.929 . S
S2987 N2988 1.613 . S
S2987 N2989 1.610 . S
N2988 S2987 1.613 . S
N2988 C2991 1.350 . S
N2989 S2987 1.610 . S
N2989 C2990 1.351 . S
C2990 C2984 1.428 . S
C2990 N2989 1.351 . S
C2990 C2991 1.434 . S
C2991 C2982 1.429 . S
C2991 N2988 1.350 . S
C2991 C2990 1.434 . S
C2992 C2993 1.369 . S
C2992 C2994 1.419 . S
C2992 H2996 0.930 . S
C2993 C2992 1.369 . S
C2993 C3002 1.429 . S
C2994 C2992 1.419 . S
C2994 C2995 1.363 . S
C2994 H2997 0.929 . S
C2995 C2994 1.363 . S
C2995 C3001 1.428 . S
H2996 C2992 0.930 . S
H2997 C2994 0.929 . S
S2998 N2999 1.613 . S
S2998 N3000 1.610 . S
N2999 S2998 1.613 . S
N2999 C3002 1.350 . S
N3000 S2998 1.610 . S
N3000 C3001 1.351 . S
C3001 C2995 1.428 . S
C3001 N3000 1.351 . S
C3001 C3002 1.434 . S
C3002 C2993 1.429 . S
C3002 N2999 1.350 . S
C3002 C3001 1.434 . S
C3003 C3004 1.369 . S
C3003 C3005 1.419 . S
C3003 H3007 0.930 . S
C3004 C3003 1.369 . S
C3004 C3013 1.429 . S
C3005 C3003 1.419 . S
C3005 C3006 1.363 . S
C3005 H3008 0.929 . S
C3006 C3005 1.363 . S
C3006 C3012 1.428 . S
H3007 C3003 0.930 . S
H3008 C3005 0.929 . S
S3009 N3010 1.613 . S
S3009 N3011 1.610 . S
N3010 S3009 1.613 . S
N3010 C3013 1.350 . S
N3011 S3009 1.610 . S
N3011 C3012 1.351 . S
C3012 C3006 1.428 . S
C3012 N3011 1.351 . S
C3012 C3013 1.434 . S
C3013 C3004 1.429 . S
C3013 N3010 1.350 . S
C3013 C3012 1.434 . S
C3014 C3015 1.369 . S
C3014 C3016 1.419 . S
C3014 H3018 0.930 . S
C3015 C3014 1.369 . S
C3015 C3024 1.429 . S
C3016 C3014 1.419 . S
C3016 C3017 1.363 . S
C3016 H3019 0.929 . S
C3017 C3016 1.363 . S
C3017 C3023 1.428 . S
H3018 C3014 0.930 . S
H3019 C3016 0.929 . S
S3020 N3021 1.613 . S
S3020 N3022 1.610 . S
N3021 S3020 1.613 . S
N3021 C3024 1.350 . S
N3022 S3020 1.610 . S
N3022 C3023 1.351 . S
C3023 C3017 1.428 . S
C3023 N3022 1.351 . S
C3023 C3024 1.434 . S
C3024 C3015 1.429 . S
C3024 N3021 1.350 . S
C3024 C3023 1.434 . S
C3025 C3026 1.369 . S
C3025 C3027 1.419 . S
C3025 H3029 0.930 . S
C3026 C3025 1.369 . S
C3026 C3035 1.429 . S
C3027 C3025 1.419 . S
C3027 C3028 1.363 . S
C3027 H3030 0.929 . S
C3028 C3027 1.363 . S
C3028 C3034 1.428 . S
H3029 C3025 0.930 . S
H3030 C3027 0.929 . S
S3031 N3032 1.613 . S
S3031 N3033 1.610 . S
N3032 S3031 1.613 . S
N3032 C3035 1.350 . S
N3033 S3031 1.610 . S
N3033 C3034 1.351 . S
C3034 C3028 1.428 . S
C3034 N3033 1.351 . S
C3034 C3035 1.434 . S
C3035 C3026 1.429 . S
C3035 N3032 1.350 . S
C3035 C3034 1.434 . S
C3036 C3037 1.369 . S
C3036 C3038 1.419 . S
C3036 H3040 0.930 . S
C3037 C3036 1.369 . S
C3037 C3046 1.429 . S
C3038 C3036 1.419 . S
C3038 C3039 1.363 . S
C3038 H3041 0.929 . S
C3039 C3038 1.363 . S
C3039 C3045 1.428 . S
H3040 C3036 0.930 . S
H3041 C3038 0.929 . S
S3042 N3043 1.613 . S
S3042 N3044 1.610 . S
N3043 S3042 1.613 . S
N3043 C3046 1.350 . S
N3044 S3042 1.610 . S
N3044 C3045 1.351 . S
C3045 C3039 1.428 . S
C3045 N3044 1.351 . S
C3045 C3046 1.434 . S
C3046 C3037 1.429 . S
C3046 N3043 1.350 . S
C3046 C3045 1.434 . S
C3047 C3048 1.369 . S
C3047 C3049 1.419 . S
C3047 H3051 0.930 . S
C3048 C3047 1.369 . S
C3048 C3057 1.429 . S
C3049 C3047 1.419 . S
C3049 C3050 1.363 . S
C3049 H3052 0.929 . S
C3050 C3049 1.363 . S
C3050 C3056 1.428 . S
H3051 C3047 0.930 . S
H3052 C3049 0.929 . S
S3053 N3054 1.613 . S
S3053 N3055 1.610 . S
N3054 S3053 1.613 . S
N3054 C3057 1.350 . S
N3055 S3053 1.610 . S
N3055 C3056 1.351 . S
C3056 C3050 1.428 . S
C3056 N3055 1.351 . S
C3056 C3057 1.434 . S
C3057 C3048 1.429 . S
C3057 N3054 1.350 . S
C3057 C3056 1.434 . S
C3058 C3059 1.369 . S
C3058 C3060 1.419 . S
C3058 H3062 0.930 . S
C3059 C3058 1.369 . S
C3059 C3068 1.429 . S
C3060 C3058 1.419 . S
C3060 C3061 1.363 . S
C3060 H3063 0.929 . S
C3061 C3060 1.363 . S
C3061 C3067 1.428 . S
H3062 C3058 0.930 . S
H3063 C3060 0.929 . S
S3064 N3065 1.613 . S
S3064 N3066 1.610 . S
N3065 S3064 1.613 . S
N3065 C3068 1.350 . S
N3066 S3064 1.610 . S
N3066 C3067 1.351 . S
C3067 C3061 1.428 . S
C3067 N3066 1.351 . S
C3067 C3068 1.434 . S
C3068 C3059 1.429 . S
C3068 N3065 1.350 . S
C3068 C3067 1.434 . S
C3069 C3070 1.369 . S
C3069 C3071 1.419 . S
C3069 H3073 0.930 . S
C3070 C3069 1.369 . S
C3070 C3079 1.429 . S
C3071 C3069 1.419 . S
C3071 C3072 1.363 . S
C3071 H3074 0.929 . S
C3072 C3071 1.363 . S
C3072 C3078 1.428 . S
H3073 C3069 0.930 . S
H3074 C3071 0.929 . S
S3075 N3076 1.613 . S
S3075 N3077 1.610 . S
N3076 S3075 1.613 . S
N3076 C3079 1.350 . S
N3077 S3075 1.610 . S
N3077 C3078 1.351 . S
C3078 C3072 1.428 . S
C3078 N3077 1.351 . S
C3078 C3079 1.434 . S
C3079 C3070 1.429 . S
C3079 N3076 1.350 . S
C3079 C3078 1.434 . S
C3080 C3081 1.369 . S
C3080 C3082 1.419 . S
C3080 H3084 0.930 . S
C3081 C3080 1.369 . S
C3081 C3090 1.429 . S
C3082 C3080 1.419 . S
C3082 C3083 1.363 . S
C3082 H3085 0.929 . S
C3083 C3082 1.363 . S
C3083 C3089 1.428 . S
H3084 C3080 0.930 . S
H3085 C3082 0.929 . S
S3086 N3087 1.613 . S
S3086 N3088 1.610 . S
N3087 S3086 1.613 . S
N3087 C3090 1.350 . S
N3088 S3086 1.610 . S
N3088 C3089 1.351 . S
C3089 C3083 1.428 . S
C3089 N3088 1.351 . S
C3089 C3090 1.434 . S
C3090 C3081 1.429 . S
C3090 N3087 1.350 . S
C3090 C3089 1.434 . S
C3091 C3092 1.369 . S
C3091 C3093 1.419 . S
C3091 H3095 0.930 . S
C3092 C3091 1.369 . S
C3092 C3101 1.429 . S
C3093 C3091 1.419 . S
C3093 C3094 1.363 . S
C3093 H3096 0.929 . S
C3094 C3093 1.363 . S
C3094 C3100 1.428 . S
H3095 C3091 0.930 . S
H3096 C3093 0.929 . S
S3097 N3098 1.613 . S
S3097 N3099 1.610 . S
N3098 S3097 1.613 . S
N3098 C3101 1.350 . S
N3099 S3097 1.610 . S
N3099 C3100 1.351 . S
C3100 C3094 1.428 . S
C3100 N3099 1.351 . S
C3100 C3101 1.434 . S
C3101 C3092 1.429 . S
C3101 N3098 1.350 . S
C3101 C3100 1.434 . S
C3102 C3103 1.369 . S
C3102 C3104 1.419 . S
C3102 H3106 0.930 . S
C3103 C3102 1.369 . S
C3103 C3112 1.429 . S
C3104 C3102 1.419 . S
C3104 C3105 1.363 . S
C3104 H3107 0.929 . S
C3105 C3104 1.363 . S
C3105 C3111 1.428 . S
H3106 C3102 0.930 . S
H3107 C3104 0.929 . S
S3108 N3109 1.613 . S
S3108 N3110 1.610 . S
N3109 S3108 1.613 . S
N3109 C3112 1.350 . S
N3110 S3108 1.610 . S
N3110 C3111 1.351 . S
C3111 C3105 1.428 . S
C3111 N3110 1.351 . S
C3111 C3112 1.434 . S
C3112 C3103 1.429 . S
C3112 N3109 1.350 . S
C3112 C3111 1.434 . S
C3113 C3114 1.369 . S
C3113 C3115 1.419 . S
C3113 H3117 0.930 . S
C3114 C3113 1.369 . S
C3114 C3123 1.429 . S
C3115 C3113 1.419 . S
C3115 C3116 1.363 . S
C3115 H3118 0.929 . S
C3116 C3115 1.363 . S
C3116 C3122 1.428 . S
H3117 C3113 0.930 . S
H3118 C3115 0.929 . S
S3119 N3120 1.613 . S
S3119 N3121 1.610 . S
N3120 S3119 1.613 . S
N3120 C3123 1.350 . S
N3121 S3119 1.610 . S
N3121 C3122 1.351 . S
C3122 C3116 1.428 . S
C3122 N3121 1.351 . S
C3122 C3123 1.434 . S
C3123 C3114 1.429 . S
C3123 N3120 1.350 . S
C3123 C3122 1.434 . S
C3124 C3125 1.369 . S
C3124 C3126 1.419 . S
C3124 H3128 0.930 . S
C3125 C3124 1.369 . S
C3125 C3134 1.429 . S
C3126 C3124 1.419 . S
C3126 C3127 1.363 . S
C3126 H3129 0.929 . S
C3127 C3126 1.363 . S
C3127 C3133 1.428 . S
H3128 C3124 0.930 . S
H3129 C3126 0.929 . S
S3130 N3131 1.613 . S
S3130 N3132 1.610 . S
N3131 S3130 1.613 . S
N3131 C3134 1.350 . S
N3132 S3130 1.610 . S
N3132 C3133 1.351 . S
C3133 C3127 1.428 . S
C3133 N3132 1.351 . S
C3133 C3134 1.434 . S
C3134 C3125 1.429 . S
C3134 N3131 1.350 . S
C3134 C3133 1.434 . S
C3135 C3136 1.369 . S
C3135 C3137 1.419 . S
C3135 H3139 0.930 . S
C3136 C3135 1.369 . S
C3136 C3145 1.429 . S
C3137 C3135 1.419 . S
C3137 C3138 1.363 . S
C3137 H3140 0.929 . S
C3138 C3137 1.363 . S
C3138 C3144 1.428 . S
H3139 C3135 0.930 . S
H3140 C3137 0.929 . S
S3141 N3142 1.613 . S
S3141 N3143 1.610 . S
N3142 S3141 1.613 . S
N3142 C3145 1.350 . S
N3143 S3141 1.610 . S
N3143 C3144 1.351 . S
C3144 C3138 1.428 . S
C3144 N3143 1.351 . S
C3144 C3145 1.434 . S
C3145 C3136 1.429 . S
C3145 N3142 1.350 . S
C3145 C3144 1.434 . S
C3146 C3147 1.369 . S
C3146 C3148 1.419 . S
C3146 H3150 0.930 . S
C3147 C3146 1.369 . S
C3147 C3156 1.429 . S
C3148 C3146 1.419 . S
C3148 C3149 1.363 . S
C3148 H3151 0.929 . S
C3149 C3148 1.363 . S
C3149 C3155 1.428 . S
H3150 C3146 0.930 . S
H3151 C3148 0.929 . S
S3152 N3153 1.613 . S
S3152 N3154 1.610 . S
N3153 S3152 1.613 . S
N3153 C3156 1.350 . S
N3154 S3152 1.610 . S
N3154 C3155 1.351 . S
C3155 C3149 1.428 . S
C3155 N3154 1.351 . S
C3155 C3156 1.434 . S
C3156 C3147 1.429 . S
C3156 N3153 1.350 . S
C3156 C3155 1.434 . S
C3157 C3158 1.369 . S
C3157 C3159 1.419 . S
C3157 H3161 0.930 . S
C3158 C3157 1.369 . S
C3158 C3167 1.429 . S
C3159 C3157 1.419 . S
C3159 C3160 1.363 . S
C3159 H3162 0.929 . S
C3160 C3159 1.363 . S
C3160 C3166 1.428 . S
H3161 C3157 0.930 . S
H3162 C3159 0.929 . S
S3163 N3164 1.613 . S
S3163 N3165 1.610 . S
N3164 S3163 1.613 . S
N3164 C3167 1.350 . S
N3165 S3163 1.610 . S
N3165 C3166 1.351 . S
C3166 C3160 1.428 . S
C3166 N3165 1.351 . S
C3166 C3167 1.434 . S
C3167 C3158 1.429 . S
C3167 N3164 1.350 . S
C3167 C3166 1.434 . S
C3168 C3169 1.369 . S
C3168 C3170 1.419 . S
C3168 H3172 0.930 . S
C3169 C3168 1.369 . S
C3169 C3178 1.429 . S
C3170 C3168 1.419 . S
C3170 C3171 1.363 . S
C3170 H3173 0.929 . S
C3171 C3170 1.363 . S
C3171 C3177 1.428 . S
H3172 C3168 0.930 . S
H3173 C3170 0.929 . S
S3174 N3175 1.613 . S
S3174 N3176 1.610 . S
N3175 S3174 1.613 . S
N3175 C3178 1.350 . S
N3176 S3174 1.610 . S
N3176 C3177 1.351 . S
C3177 C3171 1.428 . S
C3177 N3176 1.351 . S
C3177 C3178 1.434 . S
C3178 C3169 1.429 . S
C3178 N3175 1.350 . S
C3178 C3177 1.434 . S
C3179 C3180 1.369 . S
C3179 C3181 1.419 . S
C3179 H3183 0.930 . S
C3180 C3179 1.369 . S
C3180 C3189 1.429 . S
C3181 C3179 1.419 . S
C3181 C3182 1.363 . S
C3181 H3184 0.929 . S
C3182 C3181 1.363 . S
C3182 C3188 1.428 . S
H3183 C3179 0.930 . S
H3184 C3181 0.929 . S
S3185 N3186 1.613 . S
S3185 N3187 1.610 . S
N3186 S3185 1.613 . S
N3186 C3189 1.350 . S
N3187 S3185 1.610 . S
N3187 C3188 1.351 . S
C3188 C3182 1.428 . S
C3188 N3187 1.351 . S
C3188 C3189 1.434 . S
C3189 C3180 1.429 . S
C3189 N3186 1.350 . S
C3189 C3188 1.434 . S
C3190 C3191 1.369 . S
C3190 C3192 1.419 . S
C3190 H3194 0.930 . S
C3191 C3190 1.369 . S
C3191 C3200 1.429 . S
C3192 C3190 1.419 . S
C3192 C3193 1.363 . S
C3192 H3195 0.929 . S
C3193 C3192 1.363 . S
C3193 C3199 1.428 . S
H3194 C3190 0.930 . S
H3195 C3192 0.929 . S
S3196 N3197 1.613 . S
S3196 N3198 1.610 . S
N3197 S3196 1.613 . S
N3197 C3200 1.350 . S
N3198 S3196 1.610 . S
N3198 C3199 1.351 . S
C3199 C3193 1.428 . S
C3199 N3198 1.351 . S
C3199 C3200 1.434 . S
C3200 C3191 1.429 . S
C3200 N3197 1.350 . S
C3200 C3199 1.434 . S
C3201 C3202 1.369 . S
C3201 C3203 1.419 . S
C3201 H3205 0.930 . S
C3202 C3201 1.369 . S
C3202 C3211 1.429 . S
C3203 C3201 1.419 . S
C3203 C3204 1.363 . S
C3203 H3206 0.929 . S
C3204 C3203 1.363 . S
C3204 C3210 1.428 . S
H3205 C3201 0.930 . S
H3206 C3203 0.929 . S
S3207 N3208 1.613 . S
S3207 N3209 1.610 . S
N3208 S3207 1.613 . S
N3208 C3211 1.350 . S
N3209 S3207 1.610 . S
N3209 C3210 1.351 . S
C3210 C3204 1.428 . S
C3210 N3209 1.351 . S
C3210 C3211 1.434 . S
C3211 C3202 1.429 . S
C3211 N3208 1.350 . S
C3211 C3210 1.434 . S
C3212 C3213 1.369 . S
C3212 C3214 1.419 . S
C3212 H3216 0.930 . S
C3213 C3212 1.369 . S
C3213 C3222 1.429 . S
C3214 C3212 1.419 . S
C3214 C3215 1.363 . S
C3214 H3217 0.929 . S
C3215 C3214 1.363 . S
C3215 C3221 1.428 . S
H3216 C3212 0.930 . S
H3217 C3214 0.929 . S
S3218 N3219 1.613 . S
S3218 N3220 1.610 . S
N3219 S3218 1.613 . S
N3219 C3222 1.350 . S
N3220 S3218 1.610 . S
N3220 C3221 1.351 . S
C3221 C3215 1.428 . S
C3221 N3220 1.351 . S
C3221 C3222 1.434 . S
C3222 C3213 1.429 . S
C3222 N3219 1.350 . S
C3222 C3221 1.434 . S
C3223 C3224 1.369 . S
C3223 C3225 1.419 . S
C3223 H3227 0.930 . S
C3224 C3223 1.369 . S
C3224 C3233 1.429 . S
C3225 C3223 1.419 . S
C3225 C3226 1.363 . S
C3225 H3228 0.929 . S
C3226 C3225 1.363 . S
C3226 C3232 1.428 . S
H3227 C3223 0.930 . S
H3228 C3225 0.929 . S
S3229 N3230 1.613 . S
S3229 N3231 1.610 . S
N3230 S3229 1.613 . S
N3230 C3233 1.350 . S
N3231 S3229 1.610 . S
N3231 C3232 1.351 . S
C3232 C3226 1.428 . S
C3232 N3231 1.351 . S
C3232 C3233 1.434 . S
C3233 C3224 1.429 . S
C3233 N3230 1.350 . S
C3233 C3232 1.434 . S
C3234 C3235 1.369 . S
C3234 C3236 1.419 . S
C3234 H3238 0.930 . S
C3235 C3234 1.369 . S
C3235 C3244 1.429 . S
C3236 C3234 1.419 . S
C3236 C3237 1.363 . S
C3236 H3239 0.929 . S
C3237 C3236 1.363 . S
C3237 C3243 1.428 . S
H3238 C3234 0.930 . S
H3239 C3236 0.929 . S
S3240 N3241 1.613 . S
S3240 N3242 1.610 . S
N3241 S3240 1.613 . S
N3241 C3244 1.350 . S
N3242 S3240 1.610 . S
N3242 C3243 1.351 . S
C3243 C3237 1.428 . S
C3243 N3242 1.351 . S
C3243 C3244 1.434 . S
C3244 C3235 1.429 . S
C3244 N3241 1.350 . S
C3244 C3243 1.434 . S
C3245 C3246 1.369 . S
C3245 C3247 1.419 . S
C3245 H3249 0.930 . S
C3246 C3245 1.369 . S
C3246 C3255 1.429 . S
C3247 C3245 1.419 . S
C3247 C3248 1.363 . S
C3247 H3250 0.929 . S
C3248 C3247 1.363 . S
C3248 C3254 1.428 . S
H3249 C3245 0.930 . S
H3250 C3247 0.929 . S
S3251 N3252 1.613 . S
S3251 N3253 1.610 . S
N3252 S3251 1.613 . S
N3252 C3255 1.350 . S
N3253 S3251 1.610 . S
N3253 C3254 1.351 . S
C3254 C3248 1.428 . S
C3254 N3253 1.351 . S
C3254 C3255 1.434 . S
C3255 C3246 1.429 . S
C3255 N3252 1.350 . S
C3255 C3254 1.434 . S
C3256 C3257 1.369 . S
C3256 C3258 1.419 . S
C3256 H3260 0.930 . S
C3257 C3256 1.369 . S
C3257 C3266 1.429 . S
C3258 C3256 1.419 . S
C3258 C3259 1.363 . S
C3258 H3261 0.929 . S
C3259 C3258 1.363 . S
C3259 C3265 1.428 . S
H3260 C3256 0.930 . S
H3261 C3258 0.929 . S
S3262 N3263 1.613 . S
S3262 N3264 1.610 . S
N3263 S3262 1.613 . S
N3263 C3266 1.350 . S
N3264 S3262 1.610 . S
N3264 C3265 1.351 . S
C3265 C3259 1.428 . S
C3265 N3264 1.351 . S
C3265 C3266 1.434 . S
C3266 C3257 1.429 . S
C3266 N3263 1.350 . S
C3266 C3265 1.434 . S
C3267 C3268 1.369 . S
C3267 C3269 1.419 . S
C3267 H3271 0.930 . S
C3268 C3267 1.369 . S
C3268 C3277 1.429 . S
C3269 C3267 1.419 . S
C3269 C3270 1.363 . S
C3269 H3272 0.929 . S
C3270 C3269 1.363 . S
C3270 C3276 1.428 . S
H3271 C3267 0.930 . S
H3272 C3269 0.929 . S
S3273 N3274 1.613 . S
S3273 N3275 1.610 . S
N3274 S3273 1.613 . S
N3274 C3277 1.350 . S
N3275 S3273 1.610 . S
N3275 C3276 1.351 . S
C3276 C3270 1.428 . S
C3276 N3275 1.351 . S
C3276 C3277 1.434 . S
C3277 C3268 1.429 . S
C3277 N3274 1.350 . S
C3277 C3276 1.434 . S
C3278 C3279 1.369 . S
C3278 C3280 1.419 . S
C3278 H3282 0.930 . S
C3279 C3278 1.369 . S
C3279 C3288 1.429 . S
C3280 C3278 1.419 . S
C3280 C3281 1.363 . S
C3280 H3283 0.929 . S
C3281 C3280 1.363 . S
C3281 C3287 1.428 . S
H3282 C3278 0.930 . S
H3283 C3280 0.929 . S
S3284 N3285 1.613 . S
S3284 N3286 1.610 . S
N3285 S3284 1.613 . S
N3285 C3288 1.350 . S
N3286 S3284 1.610 . S
N3286 C3287 1.351 . S
C3287 C3281 1.428 . S
C3287 N3286 1.351 . S
C3287 C3288 1.434 . S
C3288 C3279 1.429 . S
C3288 N3285 1.350 . S
C3288 C3287 1.434 . S
C3289 C3290 1.369 . S
C3289 C3291 1.419 . S
C3289 H3293 0.930 . S
C3290 C3289 1.369 . S
C3290 C3299 1.429 . S
C3291 C3289 1.419 . S
C3291 C3292 1.363 . S
C3291 H3294 0.929 . S
C3292 C3291 1.363 . S
C3292 C3298 1.428 . S
H3293 C3289 0.930 . S
H3294 C3291 0.929 . S
S3295 N3296 1.613 . S
S3295 N3297 1.610 . S
N3296 S3295 1.613 . S
N3296 C3299 1.350 . S
N3297 S3295 1.610 . S
N3297 C3298 1.351 . S
C3298 C3292 1.428 . S
C3298 N3297 1.351 . S
C3298 C3299 1.434 . S
C3299 C3290 1.429 . S
C3299 N3296 1.350 . S
C3299 C3298 1.434 . S
C3300 C3301 1.369 . S
C3300 C3302 1.419 . S
C3300 H3304 0.930 . S
C3301 C3300 1.369 . S
C3301 C3310 1.429 . S
C3302 C3300 1.419 . S
C3302 C3303 1.363 . S
C3302 H3305 0.929 . S
C3303 C3302 1.363 . S
C3303 C3309 1.428 . S
H3304 C3300 0.930 . S
H3305 C3302 0.929 . S
S3306 N3307 1.613 . S
S3306 N3308 1.610 . S
N3307 S3306 1.613 . S
N3307 C3310 1.350 . S
N3308 S3306 1.610 . S
N3308 C3309 1.351 . S
C3309 C3303 1.428 . S
C3309 N3308 1.351 . S
C3309 C3310 1.434 . S
C3310 C3301 1.429 . S
C3310 N3307 1.350 . S
C3310 C3309 1.434 . S
C3311 C3312 1.369 . S
C3311 C3313 1.419 . S
C3311 H3315 0.930 . S
C3312 C3311 1.369 . S
C3312 C3321 1.429 . S
C3313 C3311 1.419 . S
C3313 C3314 1.363 . S
C3313 H3316 0.929 . S
C3314 C3313 1.363 . S
C3314 C3320 1.428 . S
H3315 C3311 0.930 . S
H3316 C3313 0.929 . S
S3317 N3318 1.613 . S
S3317 N3319 1.610 . S
N3318 S3317 1.613 . S
N3318 C3321 1.350 . S
N3319 S3317 1.610 . S
N3319 C3320 1.351 . S
C3320 C3314 1.428 . S
C3320 N3319 1.351 . S
C3320 C3321 1.434 . S
C3321 C3312 1.429 . S
C3321 N3318 1.350 . S
C3321 C3320 1.434 . S
C3322 C3323 1.369 . S
C3322 C3324 1.419 . S
C3322 H3326 0.930 . S
C3323 C3322 1.369 . S
C3323 C3332 1.429 . S
C3324 C3322 1.419 . S
C3324 C3325 1.363 . S
C3324 H3327 0.929 . S
C3325 C3324 1.363 . S
C3325 C3331 1.428 . S
H3326 C3322 0.930 . S
H3327 C3324 0.929 . S
S3328 N3329 1.613 . S
S3328 N3330 1.610 . S
N3329 S3328 1.613 . S
N3329 C3332 1.350 . S
N3330 S3328 1.610 . S
N3330 C3331 1.351 . S
C3331 C3325 1.428 . S
C3331 N3330 1.351 . S
C3331 C3332 1.434 . S
C3332 C3323 1.429 . S
C3332 N3329 1.350 . S
C3332 C3331 1.434 . S
C3333 C3334 1.369 . S
C3333 C3335 1.419 . S
C3333 H3337 0.930 . S
C3334 C3333 1.369 . S
C3334 C3343 1.429 . S
C3335 C3333 1.419 . S
C3335 C3336 1.363 . S
C3335 H3338 0.929 . S
C3336 C3335 1.363 . S
C3336 C3342 1.428 . S
H3337 C3333 0.930 . S
H3338 C3335 0.929 . S
S3339 N3340 1.613 . S
S3339 N3341 1.610 . S
N3340 S3339 1.613 . S
N3340 C3343 1.350 . S
N3341 S3339 1.610 . S
N3341 C3342 1.351 . S
C3342 C3336 1.428 . S
C3342 N3341 1.351 . S
C3342 C3343 1.434 . S
C3343 C3334 1.429 . S
C3343 N3340 1.350 . S
C3343 C3342 1.434 . S
C3344 C3345 1.369 . S
C3344 C3346 1.419 . S
C3344 H3348 0.930 . S
C3345 C3344 1.369 . S
C3345 C3354 1.429 . S
C3346 C3344 1.419 . S
C3346 C3347 1.363 . S
C3346 H3349 0.929 . S
C3347 C3346 1.363 . S
C3347 C3353 1.428 . S
H3348 C3344 0.930 . S
H3349 C3346 0.929 . S
S3350 N3351 1.613 . S
S3350 N3352 1.610 . S
N3351 S3350 1.613 . S
N3351 C3354 1.350 . S
N3352 S3350 1.610 . S
N3352 C3353 1.351 . S
C3353 C3347 1.428 . S
C3353 N3352 1.351 . S
C3353 C3354 1.434 . S
C3354 C3345 1.429 . S
C3354 N3351 1.350 . S
C3354 C3353 1.434 . S
C3355 C3356 1.369 . S
C3355 C3357 1.419 . S
C3355 H3359 0.930 . S
C3356 C3355 1.369 . S
C3356 C3365 1.429 . S
C3357 C3355 1.419 . S
C3357 C3358 1.363 . S
C3357 H3360 0.929 . S
C3358 C3357 1.363 . S
C3358 C3364 1.428 . S
H3359 C3355 0.930 . S
H3360 C3357 0.929 . S
S3361 N3362 1.613 . S
S3361 N3363 1.610 . S
N3362 S3361 1.613 . S
N3362 C3365 1.350 . S
N3363 S3361 1.610 . S
N3363 C3364 1.351 . S
C3364 C3358 1.428 . S
C3364 N3363 1.351 . S
C3364 C3365 1.434 . S
C3365 C3356 1.429 . S
C3365 N3362 1.350 . S
C3365 C3364 1.434 . S
C3366 C3367 1.369 . S
C3366 C3368 1.419 . S
C3366 H3370 0.930 . S
C3367 C3366 1.369 . S
C3367 C3376 1.429 . S
C3368 C3366 1.419 . S
C3368 C3369 1.363 . S
C3368 H3371 0.929 . S
C3369 C3368 1.363 . S
C3369 C3375 1.428 . S
H3370 C3366 0.930 . S
H3371 C3368 0.929 . S
S3372 N3373 1.613 . S
S3372 N3374 1.610 . S
N3373 S3372 1.613 . S
N3373 C3376 1.350 . S
N3374 S3372 1.610 . S
N3374 C3375 1.351 . S
C3375 C3369 1.428 . S
C3375 N3374 1.351 . S
C3375 C3376 1.434 . S
C3376 C3367 1.429 . S
C3376 N3373 1.350 . S
C3376 C3375 1.434 . S
C3377 C3378 1.369 1_554 S
C3377 C3379 1.419 . S
C3377 H3381 0.930 . S
C3378 C3377 1.369 1_556 S
C3378 C3387 1.429 . S
C3379 C3377 1.419 . S
C3379 C3380 1.363 . S
C3379 H3382 0.929 . S
C3380 C3379 1.363 . S
C3380 C3386 1.428 1_554 S
H3381 C3377 0.930 . S
H3382 C3379 0.929 . S
S3383 N3384 1.613 . S
S3383 N3385 1.610 . S
N3384 S3383 1.613 . S
N3384 C3387 1.350 . S
N3385 S3383 1.610 . S
N3385 C3386 1.351 . S
C3386 C3380 1.428 1_556 S
C3386 N3385 1.351 . S
C3386 C3387 1.434 . S
C3387 C3378 1.429 . S
C3387 N3384 1.350 . S
C3387 C3386 1.434 . S
C3388 C3389 1.369 . S
C3388 C3390 1.419 . S
C3388 H3392 0.930 . S
C3389 C3388 1.369 . S
C3389 C3398 1.429 . S
C3390 C3388 1.419 . S
C3390 C3391 1.363 . S
C3390 H3393 0.929 . S
C3391 C3390 1.363 . S
C3391 C3397 1.428 . S
H3392 C3388 0.930 . S
H3393 C3390 0.929 . S
S3394 N3395 1.613 . S
S3394 N3396 1.610 . S
N3395 S3394 1.613 . S
N3395 C3398 1.350 . S
N3396 S3394 1.610 . S
N3396 C3397 1.351 . S
C3397 C3391 1.428 . S
C3397 N3396 1.351 . S
C3397 C3398 1.434 . S
C3398 C3389 1.429 . S
C3398 N3395 1.350 . S
C3398 C3397 1.434 . S
C3399 C3400 1.369 . S
C3399 C3401 1.419 . S
C3399 H3403 0.930 . S
C3400 C3399 1.369 . S
C3400 C3409 1.429 . S
C3401 C3399 1.419 . S
C3401 C3402 1.363 . S
C3401 H3404 0.929 . S
C3402 C3401 1.363 . S
C3402 C3408 1.428 . S
H3403 C3399 0.930 . S
H3404 C3401 0.929 . S
S3405 N3406 1.613 . S
S3405 N3407 1.610 . S
N3406 S3405 1.613 . S
N3406 C3409 1.350 . S
N3407 S3405 1.610 . S
N3407 C3408 1.351 . S
C3408 C3402 1.428 . S
C3408 N3407 1.351 . S
C3408 C3409 1.434 . S
C3409 C3400 1.429 . S
C3409 N3406 1.350 . S
C3409 C3408 1.434 . S
C3410 C3411 1.369 . S
C3410 C3412 1.419 . S
C3410 H3414 0.930 . S
C3411 C3410 1.369 . S
C3411 C3420 1.429 . S
C3412 C3410 1.419 . S
C3412 C3413 1.363 . S
C3412 H3415 0.929 . S
C3413 C3412 1.363 . S
C3413 C3419 1.428 . S
H3414 C3410 0.930 . S
H3415 C3412 0.929 . S
S3416 N3417 1.613 . S
S3416 N3418 1.610 . S
N3417 S3416 1.613 . S
N3417 C3420 1.350 . S
N3418 S3416 1.610 . S
N3418 C3419 1.351 . S
C3419 C3413 1.428 . S
C3419 N3418 1.351 . S
C3419 C3420 1.434 . S
C3420 C3411 1.429 . S
C3420 N3417 1.350 . S
C3420 C3419 1.434 . S
C3421 C3422 1.369 . S
C3421 C3423 1.419 1_554 S
C3421 H3425 0.930 . S
C3422 C3421 1.369 . S
C3422 C3431 1.429 . S
C3423 C3421 1.419 1_556 S
C3423 C3424 1.363 . S
C3423 H3426 0.929 . S
C3424 C3423 1.363 . S
C3424 C3430 1.428 . S
H3425 C3421 0.930 . S
H3426 C3423 0.929 . S
S3427 N3428 1.613 . S
S3427 N3429 1.610 . S
N3428 S3427 1.613 . S
N3428 C3431 1.350 . S
N3429 S3427 1.610 . S
N3429 C3430 1.351 1_554 S
C3430 C3424 1.428 . S
C3430 N3429 1.351 1_556 S
C3430 C3431 1.434 1_556 S
C3431 C3422 1.429 . S
C3431 N3428 1.350 . S
C3431 C3430 1.434 1_554 S
C3432 C3433 1.369 . S
C3432 C3434 1.419 . S
C3432 H3436 0.930 . S
C3433 C3432 1.369 . S
C3433 C3442 1.429 1_565 S
C3434 C3432 1.419 . S
C3434 C3435 1.363 1_565 S
C3434 H3437 0.929 . S
C3435 C3434 1.363 1_545 S
C3435 C3441 1.428 . S
H3436 C3432 0.930 . S
H3437 C3434 0.929 . S
S3438 N3439 1.613 . S
S3438 N3440 1.610 . S
N3439 S3438 1.613 . S
N3439 C3442 1.350 . S
N3440 S3438 1.610 . S
N3440 C3441 1.351 . S
C3441 C3435 1.428 . S
C3441 N3440 1.351 . S
C3441 C3442 1.434 . S
C3442 C3433 1.429 1_545 S
C3442 N3439 1.350 . S
C3442 C3441 1.434 . S
C3443 C3444 1.369 . S
C3443 C3445 1.419 1_554 S
C3443 H3447 0.930 . S
C3444 C3443 1.369 . S
C3444 C3453 1.429 . S
C3445 C3443 1.419 1_556 S
C3445 C3446 1.363 . S
C3445 H3448 0.929 . S
C3446 C3445 1.363 . S
C3446 C3452 1.428 . S
H3447 C3443 0.930 . S
H3448 C3445 0.929 . S
S3449 N3450 1.606 1_556 S
S3449 N3451 1.610 . S
N3450 S3449 1.606 1_554 S
N3450 C3453 1.350 . S
N3451 S3449 1.610 . S
N3451 C3452 1.351 . S
C3452 C3446 1.428 . S
C3452 N3451 1.351 . S
C3452 C3453 1.434 1_556 S
C3453 C3444 1.429 . S
C3453 N3450 1.350 . S
C3453 C3452 1.434 1_554 S
C3454 C3455 1.369 . S
C3454 C3456 1.419 1_545 S
C3454 H3458 0.930 . S
C3455 C3454 1.369 . S
C3455 C3464 1.429 . S
C3456 C3454 1.419 1_565 S
C3456 C3457 1.363 . S
C3456 H3459 0.929 . S
C3457 C3456 1.363 . S
C3457 C3463 1.428 . S
H3458 C3454 0.930 . S
H3459 C3456 0.929 . S
S3460 N3461 1.613 1_565 S
S3460 N3462 1.610 . S
N3461 S3460 1.613 1_545 S
N3461 C3464 1.350 . S
N3462 S3460 1.610 . S
N3462 C3463 1.351 . S
C3463 C3457 1.428 . S
C3463 N3462 1.351 . S
C3463 C3464 1.434 1_565 S
C3464 C3455 1.429 . S
C3464 N3461 1.350 . S
C3464 C3463 1.434 1_545 S
C3465 C3466 1.369 . S
C3465 C3467 1.419 . S
C3465 H3469 0.930 . S
C3466 C3465 1.369 . S
C3466 C3475 1.429 . S
C3467 C3465 1.419 . S
C3467 C3468 1.363 . S
C3467 H3470 0.929 . S
C3468 C3467 1.363 . S
C3468 C3474 1.428 . S
H3469 C3465 0.930 . S
H3470 C3467 0.929 . S
S3471 N3472 1.613 . S
S3471 N3473 1.610 . S
N3472 S3471 1.613 . S
N3472 C3475 1.350 . S
N3473 S3471 1.610 . S
N3473 C3474 1.351 . S
C3474 C3468 1.428 . S
C3474 N3473 1.351 . S
C3474 C3475 1.434 . S
C3475 C3466 1.429 . S
C3475 N3472 1.350 . S
C3475 C3474 1.434 . S
C3476 C3477 1.369 . S
C3476 C3478 1.419 . S
C3476 H3480 0.930 . S
C3477 C3476 1.369 . S
C3477 C3486 1.429 1_545 S
C3478 C3476 1.419 . S
C3478 C3479 1.363 1_545 S
C3478 H3481 0.929 . S
C3479 C3478 1.363 1_565 S
C3479 C3485 1.428 . S
H3480 C3476 0.930 . S
H3481 C3478 0.929 . S
S3482 N3483 1.613 . S
S3482 N3484 1.610 . S
N3483 S3482 1.613 . S
N3483 C3486 1.350 . S
N3484 S3482 1.610 . S
N3484 C3485 1.351 . S
C3485 C3479 1.428 . S
C3485 N3484 1.351 . S
C3485 C3486 1.434 . S
C3486 C3477 1.429 1_565 S
C3486 N3483 1.350 . S
C3486 C3485 1.434 . S
C3487 C3488 1.369 . S
C3487 C3489 1.419 1_554 S
C3487 H3491 0.930 . S
C3488 C3487 1.369 . S
C3488 C3497 1.429 . S
C3489 C3487 1.419 1_556 S
C3489 C3490 1.363 . S
C3489 H3492 0.929 . S
C3490 C3489 1.363 . S
C3490 C3496 1.428 . S
H3491 C3487 0.930 . S
H3492 C3489 0.929 . S
S3493 N3494 1.613 1_556 S
S3493 N3495 1.610 . S
N3494 S3493 1.613 1_554 S
N3494 C3497 1.350 . S
N3495 S3493 1.610 . S
N3495 C3496 1.351 . S
C3496 C3490 1.428 . S
C3496 N3495 1.351 . S
C3496 C3497 1.434 1_556 S
C3497 C3488 1.429 . S
C3497 N3494 1.350 . S
C3497 C3496 1.434 1_554 S
C3498 C3499 1.369 . S
C3498 C3500 1.393 1_545 S
C3498 H3502 0.930 . S
C3499 C3498 1.369 . S
C3499 C3508 1.423 1_545 S
C3500 C3498 1.393 1_565 S
C3500 C3501 1.390 . S
C3500 H3503 0.929 . S
C3501 C3500 1.390 . S
C3501 C3507 1.428 . S
H3502 C3498 0.930 . S
H3503 C3500 0.929 . S
S3504 N3505 1.613 . S
S3504 N3506 1.610 . S
N3505 S3504 1.613 . S
N3505 C3508 1.351 . S
N3506 S3504 1.610 . S
N3506 C3507 1.351 . S
C3507 C3501 1.428 . S
C3507 N3506 1.351 . S
C3507 C3508 1.440 . S
C3508 C3499 1.423 1_565 S
C3508 N3505 1.351 . S
C3508 C3507 1.440 . S
C3509 C3510 1.369 . S
C3509 C3511 1.419 . S
C3509 H3513 0.930 . S
C3510 C3509 1.369 . S
C3510 C3519 1.429 . S
C3511 C3509 1.419 . S
C3511 C3512 1.363 . S
C3511 H3514 0.929 . S
C3512 C3511 1.363 . S
C3512 C3518 1.428 . S
H3513 C3509 0.930 . S
H3514 C3511 0.929 . S
S3515 N3516 1.613 . S
S3515 N3517 1.610 . S
N3516 S3515 1.613 . S
N3516 C3519 1.350 . S
N3517 S3515 1.610 . S
N3517 C3518 1.351 . S
C3518 C3512 1.428 . S
C3518 N3517 1.351 . S
C3518 C3519 1.434 . S
C3519 C3510 1.429 . S
C3519 N3516 1.350 . S
C3519 C3518 1.434 . S
C2817 C49 1.604 . S
C2819 C1897 1.612 . S
C2828 C1965 1.613 . S
C2830 C137 1.605 . S
C2839 C225 1.611 . S
C2841 C2053 1.607 . S
C2850 C1789 1.603 . S
C2852 C313 1.612 . S
C2861 C381 1.614 . S
C2863 C1721 1.604 . S
C2872 C489 1.610 . S
C2874 C1465 1.608 . S
C2883 C1545 1.610 . S
C2885 C577 1.607 . S
C2894 C645 1.613 . S
C2896 C1641 1.606 . S
C2905 C733 1.606 . S
C2907 C2601 1.613 . S
C2916 C812 1.607 . S
C2918 C2689 1.610 . S
C2927 C2785 1.611 . S
C2929 C909 1.610 . S
C2938 C2513 1.605 . S
C2940 C997 1.613 . S
C2949 C1113 1.614 . S
C2951 C2405 1.606 . S
C2960 C2132 1.613 . S
C2962 C1193 1.607 . S
C2971 C1281 1.615 . S
C2973 C2220 1.605 . S
C2982 C2317 1.605 . S
C2984 C1377 1.611 . S
C2993 C57 1.170 . S
C2995 C841 1.205 . S
C3004 C145 1.169 . S
C3006 C2345 1.200 . S
C3015 C1025 1.201 . S
C3017 C233 1.171 . S
C3026 C321 1.164 . S
C3028 C2161 1.205 . S
C3037 C372 1.165 . S
C3039 C1349 1.206 . S
C3048 C2484 1.204 . S
C3050 C497 1.161 . S
C3059 C1164 1.203 . S
C3061 C585 1.172 . S
C3070 C2660 1.199 . S
C3072 C636 1.163 . S
C3081 C753 1.166 . S
C3083 C108 1.214 . S
C3092 C1613 1.211 . S
C3094 C849 1.176 . S
C3103 C284 1.215 . S
C3105 C929 1.168 . S
C3114 C1017 1.164 . S
C3116 C1437 1.211 . S
C3125 C673 1.209 . S
C3127 C1076 1.176 . S
C3136 C1817 1.210 . S
C3138 C1173 1.176 . S
C3147 C460 1.207 . S
C3149 C1261 1.170 . S
C3158 C1340 1.175 . S
C3160 C1993 1.208 . S
C3169 C2249 1.201 . S
C3171 C1457 1.162 . S
C3180 C937 1.198 . S
C3182 C1553 1.164 . S
C3191 C2433 1.206 . S
C3193 C1633 1.169 . S
C3202 C1729 1.160 . S
C3204 C761 1.204 . S
C3213 C2757 1.202 . S
C3215 C1780 1.161 . S
C3224 C1085 1.206 . S
C3226 C1905 1.164 . S
C3235 C2572 1.201 . S
C3237 C1956 1.171 . S
C3246 C2044 1.168 . S
C3248 C1252 1.199 . S
C3257 C2169 1.178 . S
C3259 C1516 1.210 . S
C3268 C196 1.215 . S
C3270 C2257 1.168 . S
C3279 C2337 1.164 . S
C3281 C1692 1.211 . S
C3290 C2425 1.171 . S
C3292 C20 1.207 . S
C3301 C2493 1.167 . S
C3303 C2081 1.209 . S
C3312 C409 1.211 . S
C3314 C2581 1.176 . S
C3323 C1868 1.212 . S
C3325 C2669 1.176 . S
C3334 C2748 1.164 . S
C3336 C548 1.210 . S
C3345 C29 1.474 . S
C3347 C401 1.462 . S
C3356 C117 1.468 . S
C3358 C469 1.464 . S
C3367 C557 1.467 . S
C3369 C205 1.469 . S
C3378 C665 1.472 . S
C3380 C293 1.462 . S
C3389 C1105 1.471 . S
C3391 C724 1.460 . S
C3400 C1201 1.469 . S
C3402 C821 1.461 . S
C3411 C1289 1.458 . S
C3413 C900 1.470 . S
C3422 C1369 1.470 . S
C3424 C988 1.460 . S
C3433 C1428 1.474 . S
C3435 C1809 1.462 . S
C3444 C1525 1.466 . S
C3446 C1877 1.469 . S
C3455 C1604 1.471 . S
C3457 C1985 1.466 . S
C3466 C2073 1.474 . S
C3468 C1701 1.462 . S
C3477 C2141 1.471 . S
C3479 C2521 1.460 . S
C3488 C2609 1.464 . S
C3490 C2229 1.464 . S
C3499 C2697 1.470 . S
C3501 C2308 1.460 . S
C3510 C2777 1.458 . S
C3512 C2396 1.470 . S
