# Generated by pormake.
# Topology sod, (4)-cn, num edge types: 1
# Building blocks:
#     Node 0, Type 0, BuildingBlock: GALJAG_clean_sbu_0, # of connection points: 4
#     Node 1, Type 0, BuildingBlock: GALJAG_clean_sbu_0, # of connection points: 4
#     Node 2, Type 0, BuildingBlock: GALJAG_clean_sbu_0, # of connection points: 4
#     Node 3, Type 0, BuildingBlock: GALJAG_clean_sbu_0, # of connection points: 4
#     Node 4, Type 0, BuildingBlock: GALJAG_clean_sbu_0, # of connection points: 4
#     Node 5, Type 0, BuildingBlock: GALJAG_clean_sbu_0, # of connection points: 4
#     Node 6, Type 0, BuildingBlock: GALJAG_clean_sbu_0, # of connection points: 4
#     Node 7, Type 0, BuildingBlock: GALJAG_clean_sbu_0, # of connection points: 4
#     Node 8, Type 0, BuildingBlock: GALJAG_clean_sbu_0, # of connection points: 4
#     Node 9, Type 0, BuildingBlock: GALJAG_clean_sbu_0, # of connection points: 4
#     Node 10, Type 0, BuildingBlock: GALJAG_clean_sbu_0, # of connection points: 4
#     Node 11, Type 0, BuildingBlock: GALJAG_clean_sbu_0, # of connection points: 4
#     Edge 12, Type (0, 0), BuildingBlock: EZIPEK_clean_linker_0, # of connection points: 2
#     Edge 13, Type (0, 0), BuildingBlock: EZIPEK_clean_linker_0, # of connection points: 2
#     Edge 14, Type (0, 0), BuildingBlock: EZIPEK_clean_linker_0, # of connection points: 2
#     Edge 15, Type (0, 0), BuildingBlock: EZIPEK_clean_linker_0, # of connection points: 2
#     Edge 16, Type (0, 0), BuildingBlock: EZIPEK_clean_linker_0, # of connection points: 2
#     Edge 17, Type (0, 0), BuildingBlock: EZIPEK_clean_linker_0, # of connection points: 2
#     Edge 18, Type (0, 0), BuildingBlock: EZIPEK_clean_linker_0, # of connection points: 2
#     Edge 19, Type (0, 0), BuildingBlock: EZIPEK_clean_linker_0, # of connection points: 2
#     Edge 20, Type (0, 0), BuildingBlock: EZIPEK_clean_linker_0, # of connection points: 2
#     Edge 21, Type (0, 0), BuildingBlock: EZIPEK_clean_linker_0, # of connection points: 2
#     Edge 22, Type (0, 0), BuildingBlock: EZIPEK_clean_linker_0, # of connection points: 2
#     Edge 23, Type (0, 0), BuildingBlock: EZIPEK_clean_linker_0, # of connection points: 2
#     Edge 24, Type (0, 0), BuildingBlock: EZIPEK_clean_linker_0, # of connection points: 2
#     Edge 25, Type (0, 0), BuildingBlock: EZIPEK_clean_linker_0, # of connection points: 2
#     Edge 26, Type (0, 0), BuildingBlock: EZIPEK_clean_linker_0, # of connection points: 2
#     Edge 27, Type (0, 0), BuildingBlock: EZIPEK_clean_linker_0, # of connection points: 2
#     Edge 28, Type (0, 0), BuildingBlock: EZIPEK_clean_linker_0, # of connection points: 2
#     Edge 29, Type (0, 0), BuildingBlock: EZIPEK_clean_linker_0, # of connection points: 2
#     Edge 30, Type (0, 0), BuildingBlock: EZIPEK_clean_linker_0, # of connection points: 2
#     Edge 31, Type (0, 0), BuildingBlock: EZIPEK_clean_linker_0, # of connection points: 2
#     Edge 32, Type (0, 0), BuildingBlock: EZIPEK_clean_linker_0, # of connection points: 2
#     Edge 33, Type (0, 0), BuildingBlock: EZIPEK_clean_linker_0, # of connection points: 2
#     Edge 34, Type (0, 0), BuildingBlock: EZIPEK_clean_linker_0, # of connection points: 2
#     Edge 35, Type (0, 0), BuildingBlock: EZIPEK_clean_linker_0, # of connection points: 2
# Relax obj value: 0.078
# Max RMSD: 0.153
# Mean RMSD: 0.153
data_MOF--net-sod--node1-GALJAG_clean_sbu_0--edge1-EZIPEK_clean_linker_0
_symmetry_space_group_name_H-M    P1
_symmetry_Int_Tables_number       1
_symmetry_cell_setting            triclinic
loop_
_symmetry_equiv_pos_as_xyz
'x, y, z'
_cell_length_a     31.538588
_cell_length_b     31.519648
_cell_length_c     31.515351
_cell_angle_alpha  89.986671
_cell_angle_beta   90.063856
_cell_angle_gamma 89.836543
loop_
_atom_site_label
_atom_site_type_symbol
_atom_site_fract_x
_atom_site_fract_y
_atom_site_fract_z
_atom_type_partial_charge
In0 In 0.99856 0.24965 0.50054 0.0
O1 O 0.9474 0.21012 0.53247 0.0
O2 O 0.94998 0.20877 0.46512 0.0
C3 C 0.00637 0.30148 0.5682 0.0
C4 C 0.06649 0.19716 0.50082 0.0
C5 C 0.99156 0.30503 0.43545 0.0
O6 O 0.97096 0.29084 0.55316 0.0
O7 O 0.03811 0.28552 0.54977 0.0
O8 O 0.01292 0.27128 0.4327 0.0
O9 O 0.97296 0.31048 0.47035 0.0
C10 C 0.93229 0.19555 0.49847 0.0
O11 O 0.06597 0.23147 0.4802 0.0
O12 O 0.03343 0.18992 0.52203 0.0
In13 In 0.74867 1.0002 0.49299 0.0
O14 O 0.70273 0.96761 0.53808 0.0
O15 O 0.71465 0.03321 0.54809 0.0
C16 C 0.80202 0.93346 0.49992 0.0
C17 C 0.69799 0.00284 0.42344 0.0
C18 C 0.80291 0.0661 0.49531 0.0
O19 O 0.78878 0.95398 0.53167 0.0
O20 O 0.78771 0.94598 0.4646 0.0
O21 O 0.76411 0.0704 0.5042 0.0
O22 O 0.81416 0.029 0.48548 0.0
C23 C 0.69475 1.00045 0.55944 0.0
O24 O 0.72939 0.02698 0.42784 0.0
O25 O 0.69322 0.9765 0.45296 0.0
In26 In 0.99974 0.75102 0.50749 0.0
O27 O 0.03036 0.72424 0.56749 0.0
O28 O 0.9739 0.69502 0.54537 0.0
C29 C 0.06328 0.80808 0.50878 0.0
C30 C 0.00523 0.69536 0.44263 0.0
C31 C 0.9319 0.80378 0.50804 0.0
O32 O 0.04443 0.79613 0.54195 0.0
O33 O 0.05044 0.79113 0.47485 0.0
O34 O 0.95611 0.80009 0.47654 0.0
O35 O 0.94114 0.78041 0.53914 0.0
C36 C 0.00315 0.69549 0.57268 0.0
O37 O 0.97065 0.71201 0.45393 0.0
O38 O 0.03731 0.7072 0.4634 0.0
In39 In 0.24999 1.0005 0.50332 0.0
O40 O 0.21074 0.94717 0.47461 0.0
O41 O 0.20656 0.95648 0.54134 0.0
C42 C 0.30358 0.00477 0.43667 0.0
C43 C 0.19761 0.06838 0.49882 0.0
C44 C 0.30493 0.9938 0.5688 0.0
O45 O 0.28765 0.97046 0.44939 0.0
O46 O 0.29192 0.03735 0.45679 0.0
O47 O 0.27306 0.01797 0.57004 0.0
O48 O 0.30833 0.97205 0.53548 0.0
C49 C 0.19444 0.93587 0.50926 0.0
O50 O 0.23062 0.06808 0.52143 0.0
O51 O 0.1918 0.03522 0.47727 0.0
In52 In 0.49488 0.00778 0.24838 0.0
O53 O 0.56419 0.99167 0.26235 0.0
O54 O 0.5309 0.02895 0.30757 0.0
C55 C 0.48869 0.93985 0.19691 0.0
C56 C 0.43002 0.0063 0.30398 0.0
C57 C 0.49866 0.07318 0.19357 0.0
O58 O 0.50844 0.93855 0.23165 0.0
O59 O 0.47096 0.97472 0.18864 0.0
O60 O 0.46412 0.05953 0.20819 0.0
O61 O 0.53145 0.05475 0.20728 0.0
C62 C 0.56491 0.01033 0.2977 0.0
O63 O 0.4449 0.04035 0.28934 0.0
O64 O 0.44723 0.97285 0.29021 0.0
In65 In 1.00004 0.50344 0.25404 0.0
O66 O 0.95141 0.46666 0.21421 0.0
O67 O 0.95244 0.53372 0.2083 0.0
C68 C 0.99469 0.43789 0.3088 0.0
C69 C 0.06663 0.50571 0.20005 0.0
C70 C 0.00506 0.56713 0.31135 0.0
O71 O 0.96509 0.4646 0.3044 0.0
O72 O 0.02637 0.44371 0.28512 0.0
O73 O 0.03653 0.54442 0.30165 0.0
O74 O 0.9713 0.55833 0.2919 0.0
C75 C 0.9362 0.49922 0.19654 0.0
O76 O 0.04252 0.53714 0.20581 0.0
O77 O 0.05789 0.47355 0.22208 0.0
In78 In 0.50442 0.00138 0.74904 0.0
O79 O 0.55028 0.03435 0.70393 0.0
O80 O 0.55286 0.96694 0.70769 0.0
C81 C 0.50404 0.06645 0.8046 0.0
C82 C 0.43853 0.99901 0.6944 0.0
C83 C 0.50881 0.93854 0.80674 0.0
O84 O 0.53773 0.05218 0.78846 0.0
O85 O 0.47051 0.04861 0.79225 0.0
O86 O 0.474 0.95319 0.79346 0.0
O87 O 0.54145 0.9549 0.79054 0.0
C88 C 0.56713 1.00038 0.69108 0.0
O89 O 0.45379 0.96596 0.71109 0.0
O90 O 0.45599 0.03319 0.70551 0.0
In91 In 0.01059 0.49626 0.75313 0.0
O92 O 0.06208 0.4655 0.79385 0.0
O93 O 0.05793 0.53291 0.7939 0.0
C94 C 0.01145 0.42959 0.69929 0.0
C95 C 0.9418 0.4914 0.80378 0.0
C96 C 0.01093 0.56522 0.70194 0.0
O97 O 0.0443 0.4504 0.70837 0.0
O98 O 0.97821 0.44145 0.71815 0.0
O99 O 0.99298 0.56534 0.73766 0.0
O100 O 0.02971 0.53115 0.6929 0.0
C101 C 0.07604 0.50012 0.80812 0.0
O102 O 0.93952 0.50442 0.76596 0.0
O103 O 0.97814 0.47927 0.81526 0.0
In104 In 0.2554 0.50668 0.00843 0.0
O105 O 0.21289 0.47489 0.05718 0.0
O106 O 0.21357 0.54225 0.05627 0.0
C107 C 0.31204 0.44266 0.00585 0.0
C108 C 0.2009 0.50384 0.9425 0.0
C109 C 0.31192 0.57049 0.01031 0.0
O110 O 0.29205 0.45226 0.03911 0.0
O111 O 0.30332 0.46489 0.97369 0.0
O112 O 0.28908 0.56285 0.9784 0.0
O113 O 0.30563 0.54674 0.04191 0.0
C114 C 0.19869 0.50893 0.07258 0.0
O115 O 0.21484 0.53814 0.95746 0.0
O116 O 0.21468 0.47073 0.96032 0.0
In117 In 0.50388 0.25493 0.99626 0.0
O118 O 0.53573 0.21498 0.04729 0.0
O119 O 0.4684 0.21194 0.0423 0.0
C120 C 0.56824 0.31082 0.9951 0.0
C121 C 0.50507 0.19814 0.93229 0.0
C122 C 0.44053 0.31206 1.00058 0.0
O123 O 0.55833 0.2901 0.0278 0.0
O124 O 0.54633 0.30289 0.96258 0.0
O125 O 0.4541 0.29771 0.96581 0.0
O126 O 0.45836 0.29741 0.0333 0.0
C127 C 0.50159 0.19935 0.06087 0.0
O128 O 0.4713 0.21473 0.94578 0.0
O129 O 0.53845 0.21068 0.95031 0.0
In130 In 0.75533 0.50286 0.99702 0.0
O131 O 0.70702 0.46021 0.96447 0.0
O132 O 0.71877 0.45014 0.0303 0.0
C133 C 0.81077 0.49823 0.93196 0.0
C134 C 0.70123 0.5695 0.99548 0.0
C135 C 0.8101 0.50026 0.06283 0.0
O136 O 0.7846 0.46914 0.93995 0.0
O137 O 0.80862 0.52993 0.95631 0.0
O138 O 0.79173 0.53402 0.05148 0.0
O139 O 0.80064 0.46785 0.04141 0.0
C140 C 0.69834 0.43952 0.99757 0.0
O141 O 0.70519 0.54543 0.02715 0.0
O142 O 0.725 0.56064 0.96458 0.0
In143 In 0.50683 0.75497 0.00297 0.0
O144 O 0.46209 0.71105 0.03919 0.0
O145 O 0.45551 0.71458 0.97216 0.0
C146 C 0.50124 0.81085 0.06742 0.0
C147 C 0.57241 0.70001 0.99857 0.0
C148 C 0.50987 0.81153 0.93896 0.0
O149 O 0.47023 0.80251 0.04356 0.0
O150 O 0.53483 0.79067 0.05923 0.0
O151 O 0.54142 0.80401 0.96249 0.0
O152 O 0.47702 0.79045 0.9474 0.0
C153 C 0.44295 0.6984 0.00645 0.0
O154 O 0.55379 0.71378 0.96595 0.0
O155 O 0.55854 0.71417 0.03326 0.0
C156 C 0.95778 0.34283 0.37396 0.0
C157 C 0.99239 0.33822 0.40234 0.0
C158 C 0.02635 0.4011 0.37194 0.0
C159 C 0.99359 0.4036 0.34104 0.0
N160 N 0.93162 0.37317 0.30815 0.0
N161 N 0.06222 0.35903 0.42551 0.0
C162 C 0.96007 0.37358 0.34092 0.0
C163 C 0.02754 0.3661 0.40034 0.0
N164 N 0.9226 0.31807 0.37886 0.0
N165 N 0.05504 0.43337 0.37575 0.0
H166 H 0.06367 0.33492 0.44815 0.0
H167 H 0.09081 0.37507 0.4219 0.0
H168 H 0.05503 0.46003 0.35619 0.0
H169 H 0.0765 0.43581 0.40075 0.0
H170 H 0.8944 0.32306 0.36238 0.0
H171 H 0.92058 0.29413 0.40166 0.0
H172 H 0.90916 0.34941 0.30385 0.0
H173 H 0.93271 0.39462 0.28298 0.0
C174 C 0.65607 0.96861 0.36545 0.0
C175 C 0.66765 0.00597 0.38762 0.0
C176 C 0.61819 0.04713 0.34374 0.0
C177 C 0.60203 0.00889 0.32653 0.0
N178 N 0.60096 0.93212 0.32678 0.0
N179 N 0.65447 0.08017 0.40263 0.0
C180 C 0.61988 0.96926 0.33864 0.0
C181 C 0.6476 0.04523 0.37788 0.0
N182 N 0.6802 0.93271 0.36925 0.0
N183 N 0.60626 0.08528 0.32684 0.0
H184 H 0.67456 0.08019 0.42888 0.0
H185 H 0.63702 0.10812 0.39958 0.0
H186 H 0.58554 0.08788 0.30114 0.0
H187 H 0.6203 0.11392 0.33538 0.0
H188 H 0.67555 0.90582 0.35062 0.0
H189 H 0.70767 0.93139 0.3877 0.0
H190 H 0.61016 0.90264 0.33865 0.0
H191 H 0.57343 0.9308 0.30852 0.0
C192 C 1.00075 0.64344 0.33346 0.0
C193 C 0.00694 0.60026 0.34461 0.0
C194 C 0.01724 0.62026 0.41919 0.0
C195 C 0.00751 0.66301 0.4086 0.0
N196 N 0.98669 0.71549 0.35684 0.0
N197 N 0.01461 0.54625 0.39828 0.0
C198 C 0.99818 0.67463 0.36605 0.0
C199 C 0.01384 0.5883 0.38749 0.0
N200 N 0.99904 0.65475 0.29158 0.0
N201 N 0.02932 0.61009 0.45965 0.0
H202 H 0.01133 0.52191 0.37613 0.0
H203 H 0.01481 0.53526 0.42942 0.0
H204 H 0.02936 0.6318 0.48461 0.0
H205 H 0.04189 0.58071 0.46811 0.0
H206 H 0.9991 0.68603 0.281 0.0
H207 H 1.00098 0.63276 0.26692 0.0
H208 H 0.97442 0.72494 0.32765 0.0
H209 H 0.98724 0.73987 0.37921 0.0
C210 C 0.32617 0.02463 0.36293 0.0
C211 C 0.33601 0.00602 0.40277 0.0
C212 C 0.40841 0.99069 0.37864 0.0
C213 C 0.39745 0.00592 0.33771 0.0
N214 N 0.34519 0.03274 0.28869 0.0
N215 N 0.38487 0.968 0.44811 0.0
C216 C 0.35618 0.02191 0.32928 0.0
C217 C 0.37661 0.98789 0.41041 0.0
N218 N 0.28817 0.04489 0.35731 0.0
N219 N 0.44976 0.98106 0.38785 0.0
H220 H 0.36385 0.96804 0.47356 0.0
H221 H 0.41162 0.94932 0.45348 0.0
H222 H 0.47418 0.98304 0.36567 0.0
H223 H 0.46077 0.97461 0.41833 0.0
H224 H 0.28092 0.06327 0.33083 0.0
H225 H 0.26455 0.0456 0.38043 0.0
H226 H 0.31443 0.04034 0.27936 0.0
H227 H 0.36631 0.03098 0.26329 0.0
C228 C 0.96977 0.6204 0.66092 0.0
C229 C 0.0092 0.6014 0.67187 0.0
C230 C 0.0442 0.64212 0.61581 0.0
C231 C 0.00568 0.66415 0.60773 0.0
N232 N 0.93456 0.68148 0.63038 0.0
N233 N 0.08558 0.6025 0.66698 0.0
C234 C 0.96925 0.65549 0.63263 0.0
C235 C 0.04695 0.61483 0.65153 0.0
N236 N 0.93254 0.6037 0.67542 0.0
N237 N 0.07747 0.6452 0.58821 0.0
H238 H 0.08899 0.58382 0.69411 0.0
H239 H 0.11411 0.61468 0.6557 0.0
H240 H 0.07631 0.66303 0.56038 0.0
H241 H 0.10458 0.62637 0.59059 0.0
H242 H 0.90295 0.61377 0.66459 0.0
H243 H 0.93097 0.57699 0.69482 0.0
H244 H 0.90881 0.67886 0.65091 0.0
H245 H 0.93342 0.70848 0.61128 0.0
C246 C 0.36333 0.98254 0.67407 0.0
C247 C 0.40407 0.99768 0.66249 0.0
C248 C 0.37846 0.01331 0.59068 0.0
C249 C 0.33878 0.99503 0.60125 0.0
N250 N 0.29444 0.95738 0.65062 0.0
N251 N 0.45273 0.02141 0.60844 0.0
C252 C 0.33142 0.97834 0.64235 0.0
C253 C 0.41227 0.0115 0.62043 0.0
N254 N 0.35469 0.97375 0.71567 0.0
N255 N 0.38336 0.03388 0.55276 0.0
H256 H 0.47837 0.02114 0.62933 0.0
H257 H 0.46165 0.02657 0.57707 0.0
H258 H 0.35941 0.03603 0.53 0.0
H259 H 0.40986 0.05199 0.54521 0.0
H260 H 0.32446 0.96696 0.72694 0.0
H261 H 0.37721 0.9766 0.73976 0.0
H262 H 0.28893 0.94042 0.6784 0.0
H263 H 0.27026 0.9542 0.62822 0.0
C264 C 0.0246 0.37463 0.59258 0.0
C265 C 0.01011 0.33324 0.60251 0.0
C266 C 1.00023 0.35393 0.67696 0.0
C267 C 0.01132 0.39618 0.66623 0.0
N268 N 0.02665 0.4487 0.61267 0.0
N269 N 0.98037 0.28368 0.65249 0.0
C270 C 0.02188 0.40703 0.62379 0.0
C271 C 0.99671 0.32296 0.64424 0.0
N272 N 0.04058 0.38318 0.55315 0.0
N273 N 0.99472 0.34309 0.71862 0.0
H274 H 0.97966 0.2594 0.63001 0.0
H275 H 0.96535 0.27575 0.68079 0.0
H276 H 0.99724 0.36491 0.74337 0.0
H277 H 0.99099 0.31202 0.72912 0.0
H278 H 0.05655 0.41107 0.54572 0.0
H279 H 0.04054 0.36133 0.52833 0.0
H280 H 0.02951 0.45913 0.58146 0.0
H281 H 0.02373 0.4736 0.63419 0.0
C282 C 0.5903 0.98372 0.61698 0.0
C283 C 0.6002 0.99981 0.65784 0.0
C284 C 0.67329 0.01367 0.63512 0.0
C285 C 0.66229 0.00096 0.59335 0.0
N286 N 0.60821 0.98258 0.54233 0.0
N287 N 0.64923 0.03452 0.70521 0.0
C288 C 0.62025 0.98815 0.58367 0.0
C289 C 0.6411 0.01636 0.66666 0.0
N290 N 0.55229 0.96418 0.60987 0.0
N291 N 0.7148 0.02112 0.64518 0.0
H292 H 0.62743 0.03469 0.73007 0.0
H293 H 0.67661 0.05168 0.71179 0.0
H294 H 0.73934 0.01884 0.62314 0.0
H295 H 0.72555 0.02601 0.67603 0.0
H296 H 0.5454 0.94747 0.58222 0.0
H297 H 0.52859 0.96179 0.63276 0.0
H298 H 0.57691 0.97784 0.53295 0.0
H299 H 0.62869 0.98699 0.51676 0.0
C300 C 0.4189 0.38807 0.99404 0.0
C301 C 0.40766 0.34539 0.00265 0.0
C302 C 0.3332 0.36612 0.01127 0.0
C303 C 0.34488 0.40913 0.00519 0.0
N304 N 0.39935 0.46232 0.99934 0.0
N305 N 0.35608 0.29381 0.02514 0.0
C306 C 0.38789 0.4205 0.99875 0.0
C307 C 0.36536 0.33443 0.01313 0.0
N308 N 0.45921 0.39757 0.98123 0.0
N309 N 0.29125 0.35543 0.01349 0.0
H310 H 0.37853 0.26943 0.02529 0.0
H311 H 0.32696 0.28479 0.03771 0.0
H312 H 0.26684 0.3778 0.01221 0.0
H313 H 0.28036 0.32429 0.0133 0.0
H314 H 0.46807 0.42721 0.96973 0.0
H315 H 0.48342 0.37503 0.9794 0.0
H316 H 0.43066 0.47266 0.99914 0.0
H317 H 0.37765 0.48687 0.0041 0.0
C318 C 0.38044 0.59845 0.98178 0.0
C319 C 0.3454 0.60326 0.00968 0.0
C320 C 0.37284 0.67208 0.03332 0.0
C321 C 0.40943 0.66567 0.00788 0.0
N322 N 0.45215 0.61929 0.96432 0.0
N323 N 0.31004 0.64178 0.06562 0.0
C324 C 0.41429 0.628 0.98368 0.0
C325 C 0.34231 0.63909 0.03678 0.0
N326 N 0.38151 0.56568 0.95335 0.0
N327 N 0.36613 0.71055 0.0523 0.0
H328 H 0.28541 0.61984 0.06721 0.0
H329 H 0.30896 0.66434 0.08972 0.0
H330 H 0.38724 0.73583 0.04979 0.0
H331 H 0.338 0.71886 0.06746 0.0
H332 H 0.40334 0.56374 0.92865 0.0
H333 H 0.35897 0.5416 0.95244 0.0
H334 H 0.45942 0.59008 0.95068 0.0
H335 H 0.47804 0.63973 0.96517 0.0
C336 C 0.63828 0.33877 0.97 0.0
C337 C 0.60161 0.34371 0.99566 0.0
C338 C 0.62812 0.41196 0.02214 0.0
C339 C 0.66568 0.40596 0.99807 0.0
N340 N 0.71004 0.36168 0.95429 0.0
N341 N 0.56179 0.38308 0.048 0.0
C342 C 0.67163 0.36894 0.97317 0.0
C343 C 0.59671 0.37967 0.02244 0.0
N344 N 0.64126 0.30517 0.94268 0.0
N345 N 0.62161 0.44946 0.04308 0.0
H346 H 0.53595 0.36262 0.04623 0.0
H347 H 0.5589 0.40516 0.07237 0.0
H348 H 0.64424 0.47342 0.04476 0.0
H349 H 0.59289 0.45835 0.05667 0.0
H350 H 0.6644 0.30251 0.91932 0.0
H351 H 0.61916 0.28066 0.94164 0.0
H352 H 0.71827 0.33338 0.93941 0.0
H353 H 0.73536 0.38281 0.95638 0.0
C354 C 0.6801 0.64625 0.98793 0.0
C355 C 0.66845 0.60317 0.99366 0.0
C356 C 0.59448 0.62415 0.00496 0.0
C357 C 0.60556 0.6669 0.99656 0.0
N358 N 0.657 0.7185 0.97387 0.0
N359 N 0.6135 0.5502 0.99651 0.0
C360 C 0.64781 0.67789 0.98594 0.0
C361 C 0.62531 0.59183 0.99915 0.0
N362 N 0.722 0.65714 0.98637 0.0
N363 N 0.55462 0.61442 0.01887 0.0
H364 H 0.63496 0.52587 0.98984 0.0
H365 H 0.58205 0.54024 0.99622 0.0
H366 H 0.53071 0.63703 0.02256 0.0
H367 H 0.54619 0.58447 0.02996 0.0
H368 H 0.73269 0.68835 0.98687 0.0
H369 H 0.74649 0.63488 0.98788 0.0
H370 H 0.68614 0.72751 0.96131 0.0
H371 H 0.63443 0.74277 0.97363 0.0
C372 C 0.50214 0.83153 0.86226 0.0
C373 C 0.51077 0.84371 0.90475 0.0
C374 C 0.52386 0.91675 0.88161 0.0
C375 C 0.51107 0.9055 0.83995 0.0
N376 N 0.48391 0.85362 0.79076 0.0
N377 N 0.52142 0.89918 0.95636 0.0
C378 C 0.49882 0.8633 0.83034 0.0
C379 C 0.51965 0.88664 0.91486 0.0
N380 N 0.49898 0.78947 0.8521 0.0
N381 N 0.53991 0.95623 0.88953 0.0
H382 H 0.51652 0.87841 0.9816 0.0
H383 H 0.52337 0.93077 0.9658 0.0
H384 H 0.54223 0.97977 0.86642 0.0
H385 H 0.55403 0.96461 0.9182 0.0
H386 H 0.49717 0.77828 0.82108 0.0
H387 H 0.50193 0.76525 0.87449 0.0
H388 H 0.46972 0.82479 0.78325 0.0
H389 H 0.48333 0.87541 0.76584 0.0
C390 C 0.1279 0.51953 0.91537 0.0
C391 C 0.16909 0.50278 0.90797 0.0
C392 C 0.15023 0.48747 0.83393 0.0
C393 C 0.10837 0.50182 0.84211 0.0
N394 N 0.05493 0.52509 0.89173 0.0
N395 N 0.21899 0.46709 0.86218 0.0
C396 C 0.09658 0.51641 0.88306 0.0
C397 C 0.18005 0.48545 0.86784 0.0
N398 N 0.11861 0.5383 0.95341 0.0
N399 N 0.16188 0.47755 0.79331 0.0
H400 H 0.24269 0.46743 0.88527 0.0
H401 H 0.2272 0.44941 0.83553 0.0
H402 H 0.14087 0.47884 0.76774 0.0
H403 H 0.19293 0.47119 0.78413 0.0
H404 H 0.09128 0.55607 0.95881 0.0
H405 H 0.13924 0.53822 0.97927 0.0
H406 H 0.04334 0.53086 0.9221 0.0
H407 H 0.0309 0.52322 0.86909 0.0
C408 C 0.52032 0.14102 0.82693 0.0
C409 C 0.50404 0.10033 0.8371 0.0
C410 C 0.48659 0.12455 0.90901 0.0
C411 C 0.50517 0.16446 0.89961 0.0
N412 N 0.54415 0.20976 0.85195 0.0
N413 N 0.47777 0.05079 0.88915 0.0
C414 C 0.52358 0.17233 0.8593 0.0
C415 C 0.48855 0.09144 0.87844 0.0
N416 N 0.53065 0.15034 0.78582 0.0
N417 N 0.46718 0.11821 0.94731 0.0
H418 H 0.47851 0.02559 0.86775 0.0
H419 H 0.47128 0.04105 0.92001 0.0
H420 H 0.46801 0.14018 0.97201 0.0
H421 H 0.44824 0.09207 0.95402 0.0
H422 H 0.53833 0.18065 0.77529 0.0
H423 H 0.52816 0.12843 0.76116 0.0
H424 H 0.56266 0.21543 0.82523 0.0
H425 H 0.54496 0.23456 0.87384 0.0
C426 C 0.88134 0.52971 0.83958 0.0
C427 C 0.90537 0.49198 0.83353 0.0
C428 C 0.86882 0.45901 0.89361 0.0
C429 C 0.84217 0.49523 0.89709 0.0
N430 N 0.81629 0.56053 0.86632 0.0
N431 N 0.91441 0.41731 0.84799 0.0
C432 C 0.84636 0.52924 0.86792 0.0
C433 C 0.89678 0.45555 0.85848 0.0
N434 N 0.89318 0.56672 0.82037 0.0
N435 N 0.86932 0.42897 0.92491 0.0
H436 H 0.93391 0.41318 0.82158 0.0
H437 H 0.90599 0.38895 0.8627 0.0
H438 H 0.85074 0.43094 0.95217 0.0
H439 H 0.8914 0.40433 0.92593 0.0
H440 H 0.87933 0.59592 0.82747 0.0
H441 H 0.91953 0.56931 0.80066 0.0
H442 H 0.81567 0.58375 0.84279 0.0
H443 H 0.78946 0.56069 0.88564 0.0
C444 C 0.48645 0.14774 0.16889 0.0
C445 C 0.50019 0.10581 0.15997 0.0
C446 C 0.51714 0.12598 0.0868 0.0
C447 C 0.50083 0.1672 0.09495 0.0
N448 N 0.4659 0.21683 0.1416 0.0
N449 N 0.52203 0.05259 0.1094 0.0
C450 C 0.4841 0.17789 0.13536 0.0
C451 C 0.51403 0.09428 0.1187 0.0
N452 N 0.47737 0.15909 0.20979 0.0
N453 N 0.53551 0.1171 0.04848 0.0
H454 H 0.51985 0.02829 0.13173 0.0
H455 H 0.52746 0.04132 0.07885 0.0
H456 H 0.53581 0.13838 0.02315 0.0
H457 H 0.55269 0.08952 0.04241 0.0
H458 H 0.47153 0.19016 0.21936 0.0
H459 H 0.47891 0.13782 0.23512 0.0
H460 H 0.44873 0.22489 0.16862 0.0
H461 H 0.4657 0.24061 0.11858 0.0
C462 C 0.91295 0.47992 0.12284 0.0
C463 C 0.90301 0.49731 0.1632 0.0
C464 C 0.83054 0.51266 0.13895 0.0
C465 C 0.84186 0.49906 0.09752 0.0
N466 N 0.89587 0.47704 0.04793 0.0
N467 N 0.85393 0.53389 0.20916 0.0
C468 C 0.88353 0.48435 0.08892 0.0
C469 C 0.86229 0.51494 0.17104 0.0
N470 N 0.95064 0.45935 0.11673 0.0
N471 N 0.78906 0.52143 0.14814 0.0
H472 H 0.87524 0.53361 0.2345 0.0
H473 H 0.82687 0.55196 0.21496 0.0
H474 H 0.76479 0.51934 0.12573 0.0
H475 H 0.77795 0.52715 0.17871 0.0
H476 H 0.95756 0.44161 0.08973 0.0
H477 H 0.97395 0.45728 0.14 0.0
H478 H 0.92709 0.47087 0.03912 0.0
H479 H 0.87582 0.48114 0.02191 0.0
C480 C 0.52797 0.87724 0.10216 0.0
C481 C 0.49874 0.84301 0.10161 0.0
C482 C 0.4613 0.87358 0.16272 0.0
C483 C 0.49233 0.90587 0.16498 0.0
N484 N 0.55885 0.93539 0.14172 0.0
N485 N 0.44243 0.8041 0.13572 0.0
C486 C 0.52683 0.9067 0.13621 0.0
C487 C 0.46659 0.83997 0.13303 0.0
N488 N 0.55538 0.88302 0.06906 0.0
N489 N 0.42653 0.87541 0.18852 0.0
H490 H 0.44613 0.77829 0.11535 0.0
H491 H 0.42142 0.79816 0.16046 0.0
H492 H 0.42246 0.8989 0.21151 0.0
H493 H 0.40041 0.85557 0.18519 0.0
H494 H 0.57362 0.91023 0.06515 0.0
H495 H 0.55746 0.86247 0.04328 0.0
H496 H 0.58725 0.93429 0.12494 0.0
H497 H 0.55861 0.95848 0.16543 0.0
C498 C 0.17035 0.53205 0.14374 0.0
C499 C 0.16489 0.5093 0.10524 0.0
C500 C 0.09806 0.48004 0.13163 0.0
C501 C 0.10129 0.50597 0.16831 0.0
N502 N 0.13811 0.5602 0.20774 0.0
N503 N 0.11871 0.47005 0.05845 0.0
C504 C 0.1366 0.53331 0.17374 0.0
C505 C 0.12745 0.48552 0.09806 0.0
N506 N 0.20851 0.55054 0.15268 0.0
N507 N 0.06712 0.4499 0.12874 0.0
H508 H 0.13847 0.47479 0.03237 0.0
H509 H 0.08972 0.45655 0.05028 0.0
H510 H 0.04448 0.44498 0.15218 0.0
H511 H 0.06627 0.42712 0.1048 0.0
H512 H 0.21597 0.56363 0.18206 0.0
H513 H 0.23427 0.54955 0.132 0.0
H514 H 0.16031 0.58441 0.21071 0.0
H515 H 0.1156 0.55999 0.23196 0.0
C516 C 0.82716 0.8593 0.48377 0.0
C517 C 0.83416 0.89912 0.50364 0.0
C518 C 0.90118 0.87255 0.53314 0.0
C519 C 0.89675 0.83495 0.50891 0.0
N520 N 0.85764 0.79339 0.45804 0.0
N521 N 0.88225 0.94655 0.53989 0.0
C522 C 0.86038 0.82863 0.48316 0.0
C523 C 0.87221 0.90649 0.52667 0.0
N524 N 0.78818 0.85002 0.46722 0.0
N525 N 0.93318 0.87608 0.56221 0.0
H526 H 0.86323 0.97293 0.5339 0.0
H527 H 0.91162 0.95454 0.55271 0.0
H528 H 0.95572 0.85239 0.56733 0.0
H529 H 0.93514 0.90093 0.58391 0.0
H530 H 0.77986 0.82006 0.45613 0.0
H531 H 0.76265 0.8711 0.46825 0.0
H532 H 0.83446 0.78949 0.43481 0.0
H533 H 0.8801 0.76903 0.45865 0.0
C534 C 0.86043 0.17037 0.47463 0.0
C535 C 0.89823 0.16326 0.49814 0.0
C536 C 0.86917 0.09671 0.52553 0.0
C537 C 0.83386 0.10116 0.49807 0.0
N538 N 0.7981 0.13933 0.44205 0.0
N539 N 0.94209 0.11544 0.53928 0.0
C540 C 0.82991 0.13731 0.47148 0.0
C541 C 0.90355 0.12533 0.52191 0.0
N542 N 0.85296 0.20913 0.45659 0.0
N543 N 0.86927 0.06589 0.55608 0.0
H544 H 0.96874 0.13464 0.53614 0.0
H545 H 0.94881 0.0861 0.55299 0.0
H546 H 0.84393 0.04518 0.56064 0.0
H547 H 0.89233 0.06381 0.57969 0.0
H548 H 0.82409 0.21756 0.44287 0.0
H549 H 0.87425 0.23431 0.4587 0.0
H550 H 0.79646 0.16257 0.41861 0.0
H551 H 0.77511 0.11583 0.43879 0.0
C552 C 0.08708 0.8827 0.52236 0.0
C553 C 0.0971 0.84061 0.5096 0.0
C554 C 0.17194 0.8602 0.5012 0.0
C555 C 0.16136 0.90278 0.51129 0.0
N556 N 0.10875 0.95643 0.52605 0.0
N557 N 0.14769 0.78932 0.48355 0.0
C558 C 0.11896 0.91451 0.52084 0.0
C559 C 0.13915 0.8294 0.49789 0.0
N560 N 0.04688 0.89239 0.5355 0.0
N561 N 0.21362 0.84897 0.49652 0.0
H562 H 0.12534 0.76501 0.48348 0.0
H563 H 0.17626 0.78049 0.46957 0.0
H564 H 0.2384 0.8707 0.49899 0.0
H565 H 0.22417 0.81782 0.49348 0.0
H566 H 0.03877 0.9206 0.55063 0.0
H567 H 0.02162 0.87132 0.5331 0.0
H568 H 0.07782 0.9678 0.52813 0.0
H569 H 0.13109 0.98074 0.52524 0.0
C570 C 0.11783 0.15071 0.46073 0.0
C571 C 0.10271 0.16704 0.49994 0.0
C572 C 0.14886 0.11761 0.53849 0.0
C573 C 0.16653 0.10379 0.4994 0.0
N574 N 0.17453 0.114 0.42398 0.0
N575 N 0.11125 0.17331 0.57576 0.0
C576 C 0.15303 0.12241 0.46067 0.0
C577 C 0.1205 0.15269 0.53873 0.0
N578 N 0.09728 0.16028 0.42371 0.0
N579 N 0.15709 0.09587 0.57515 0.0
H580 H 0.09146 0.19985 0.57709 0.0
H581 H 0.12666 0.16686 0.60431 0.0
H582 H 0.17637 0.069 0.57646 0.0
H583 H 0.14136 0.10193 0.60357 0.0
H584 H 0.10415 0.14551 0.39495 0.0
H585 H 0.0707 0.17994 0.42223 0.0
H586 H 0.16876 0.12999 0.39561 0.0
H587 H 0.20104 0.09415 0.42284 0.0
loop_
_geom_bond_atom_site_label_1
_geom_bond_atom_site_label_2
_geom_bond_distance
_geom_bond_site_symmetry_2
_ccdc_geom_bond_type
In0 O1 2.294 1_455 S
In0 O2 2.326 1_455 S
In0 O6 2.266 1_455 S
In0 O7 2.326 . S
In0 O8 2.266 . S
In0 O9 2.326 1_455 S
In0 O11 2.294 . S
In0 O12 2.326 . S
O1 In0 2.294 1_655 S
O1 C10 1.240 . S
O2 In0 2.326 1_655 S
O2 C10 1.252 . S
C3 O6 1.252 1_455 S
C3 O7 1.260 . S
C4 O11 1.240 . S
C4 O12 1.252 . S
C5 O8 1.252 1_655 S
C5 O9 1.260 . S
O6 In0 2.266 1_655 S
O6 C3 1.252 1_655 S
O7 In0 2.326 . S
O7 C3 1.260 . S
O8 In0 2.266 . S
O8 C5 1.252 1_455 S
O9 In0 2.326 1_655 S
O9 C5 1.260 . S
C10 O1 1.240 . S
C10 O2 1.252 . S
O11 In0 2.294 . S
O11 C4 1.240 . S
O12 In0 2.326 . S
O12 C4 1.252 . S
In13 O14 2.294 1_545 S
In13 O15 2.326 . S
In13 O19 2.266 1_545 S
In13 O20 2.326 1_545 S
In13 O21 2.266 . S
In13 O22 2.326 . S
In13 O24 2.294 . S
In13 O25 2.326 1_545 S
O14 In13 2.294 1_565 S
O14 C23 1.240 1_565 S
O15 In13 2.326 . S
O15 C23 1.252 . S
C16 O19 1.252 . S
C16 O20 1.260 . S
C17 O24 1.240 1_565 S
C17 O25 1.252 . S
C18 O21 1.252 . S
C18 O22 1.260 . S
O19 In13 2.266 1_565 S
O19 C16 1.252 . S
O20 In13 2.326 1_565 S
O20 C16 1.260 . S
O21 In13 2.266 . S
O21 C18 1.252 . S
O22 In13 2.326 . S
O22 C18 1.260 . S
C23 O14 1.240 1_545 S
C23 O15 1.252 . S
O24 In13 2.294 . S
O24 C17 1.240 1_545 S
O25 In13 2.326 1_565 S
O25 C17 1.252 . S
In26 O27 2.294 . S
In26 O28 2.326 1_455 S
In26 O32 2.266 . S
In26 O33 2.326 . S
In26 O34 2.266 1_455 S
In26 O35 2.326 1_455 S
In26 O37 2.294 1_455 S
In26 O38 2.326 . S
O27 In26 2.294 . S
O27 C36 1.240 1_455 S
O28 In26 2.326 1_655 S
O28 C36 1.252 . S
C29 O32 1.252 . S
C29 O33 1.260 . S
C30 O37 1.240 1_455 S
C30 O38 1.252 . S
C31 O34 1.252 . S
C31 O35 1.260 . S
O32 In26 2.266 . S
O32 C29 1.252 . S
O33 In26 2.326 . S
O33 C29 1.260 . S
O34 In26 2.266 1_655 S
O34 C31 1.252 . S
O35 In26 2.326 1_655 S
O35 C31 1.260 . S
C36 O27 1.240 1_655 S
C36 O28 1.252 . S
O37 In26 2.294 1_655 S
O37 C30 1.240 1_655 S
O38 In26 2.326 . S
O38 C30 1.252 . S
In39 O40 2.294 1_545 S
In39 O41 2.326 1_545 S
In39 O45 2.266 1_545 S
In39 O46 2.326 . S
In39 O47 2.266 . S
In39 O48 2.326 1_545 S
In39 O50 2.294 . S
In39 O51 2.326 . S
O40 In39 2.294 1_565 S
O40 C49 1.240 . S
O41 In39 2.326 1_565 S
O41 C49 1.252 . S
C42 O45 1.252 1_545 S
C42 O46 1.260 . S
C43 O50 1.240 . S
C43 O51 1.252 . S
C44 O47 1.252 1_565 S
C44 O48 1.260 . S
O45 In39 2.266 1_565 S
O45 C42 1.252 1_565 S
O46 In39 2.326 . S
O46 C42 1.260 . S
O47 In39 2.266 . S
O47 C44 1.252 1_545 S
O48 In39 2.326 1_565 S
O48 C44 1.260 . S
C49 O40 1.240 . S
C49 O41 1.252 . S
O50 In39 2.294 . S
O50 C43 1.240 . S
O51 In39 2.326 . S
O51 C43 1.252 . S
In52 O53 2.294 1_545 S
In52 O54 2.326 . S
In52 O58 2.266 1_545 S
In52 O59 2.326 1_545 S
In52 O60 2.266 . S
In52 O61 2.326 . S
In52 O63 2.294 . S
In52 O64 2.326 1_545 S
O53 In52 2.294 1_565 S
O53 C62 1.240 1_565 S
O54 In52 2.326 . S
O54 C62 1.252 . S
C55 O58 1.252 . S
C55 O59 1.260 . S
C56 O63 1.240 1_565 S
C56 O64 1.252 . S
C57 O60 1.252 . S
C57 O61 1.260 . S
O58 In52 2.266 1_565 S
O58 C55 1.252 . S
O59 In52 2.326 1_565 S
O59 C55 1.260 . S
O60 In52 2.266 . S
O60 C57 1.252 . S
O61 In52 2.326 . S
O61 C57 1.260 . S
C62 O53 1.240 1_545 S
C62 O54 1.252 . S
O63 In52 2.294 . S
O63 C56 1.240 1_545 S
O64 In52 2.326 1_565 S
O64 C56 1.252 . S
In65 O66 2.294 1_455 S
In65 O67 2.326 1_455 S
In65 O71 2.266 1_455 S
In65 O72 2.326 . S
In65 O73 2.266 . S
In65 O74 2.326 1_455 S
In65 O76 2.294 . S
In65 O77 2.326 . S
O66 In65 2.294 1_655 S
O66 C75 1.240 . S
O67 In65 2.326 1_655 S
O67 C75 1.252 . S
C68 O71 1.252 1_455 S
C68 O72 1.260 . S
C69 O76 1.240 . S
C69 O77 1.252 . S
C70 O73 1.252 1_655 S
C70 O74 1.260 . S
O71 In65 2.266 1_655 S
O71 C68 1.252 1_655 S
O72 In65 2.326 . S
O72 C68 1.260 . S
O73 In65 2.266 . S
O73 C70 1.252 1_455 S
O74 In65 2.326 1_655 S
O74 C70 1.260 . S
C75 O66 1.240 . S
C75 O67 1.252 . S
O76 In65 2.294 . S
O76 C69 1.240 . S
O77 In65 2.326 . S
O77 C69 1.252 . S
In78 O79 2.294 . S
In78 O80 2.326 1_545 S
In78 O84 2.266 . S
In78 O85 2.326 . S
In78 O86 2.266 1_545 S
In78 O87 2.326 1_545 S
In78 O89 2.294 1_545 S
In78 O90 2.326 . S
O79 In78 2.294 . S
O79 C88 1.240 1_545 S
O80 In78 2.326 1_565 S
O80 C88 1.252 . S
C81 O84 1.252 . S
C81 O85 1.260 . S
C82 O89 1.240 1_545 S
C82 O90 1.252 . S
C83 O86 1.252 . S
C83 O87 1.260 . S
O84 In78 2.266 . S
O84 C81 1.252 . S
O85 In78 2.326 . S
O85 C81 1.260 . S
O86 In78 2.266 1_565 S
O86 C83 1.252 . S
O87 In78 2.326 1_565 S
O87 C83 1.260 . S
C88 O79 1.240 1_565 S
C88 O80 1.252 . S
O89 In78 2.294 1_565 S
O89 C82 1.240 1_565 S
O90 In78 2.326 . S
O90 C82 1.252 . S
In91 O92 2.294 . S
In91 O93 2.326 . S
In91 O97 2.266 . S
In91 O98 2.326 1_455 S
In91 O99 2.266 1_455 S
In91 O100 2.326 . S
In91 O102 2.294 1_455 S
In91 O103 2.326 1_455 S
O92 In91 2.294 . S
O92 C101 1.240 . S
O93 In91 2.326 . S
O93 C101 1.252 . S
C94 O97 1.252 1_655 S
C94 O98 1.260 . S
C95 O102 1.240 . S
C95 O103 1.252 . S
C96 O99 1.252 1_455 S
C96 O100 1.260 . S
O97 In91 2.266 . S
O97 C94 1.252 1_455 S
O98 In91 2.326 1_655 S
O98 C94 1.260 . S
O99 In91 2.266 1_655 S
O99 C96 1.252 1_655 S
O100 In91 2.326 . S
O100 C96 1.260 . S
C101 O92 1.240 . S
C101 O93 1.252 . S
O102 In91 2.294 1_655 S
O102 C95 1.240 . S
O103 In91 2.326 1_655 S
O103 C95 1.252 . S
In104 O105 2.296 . S
In104 O106 2.327 . S
In104 O110 2.267 . S
In104 O111 2.324 1_554 S
In104 O112 2.266 1_554 S
In104 O113 2.327 . S
In104 O115 2.292 1_554 S
In104 O116 2.325 1_554 S
O105 In104 2.296 . S
O105 C114 1.240 . S
O106 In104 2.327 . S
O106 C114 1.252 . S
C107 O110 1.252 1_556 S
C107 O111 1.260 . S
C108 O115 1.240 . S
C108 O116 1.252 . S
C109 O112 1.252 1_554 S
C109 O113 1.260 . S
O110 In104 2.267 . S
O110 C107 1.252 1_554 S
O111 In104 2.324 1_556 S
O111 C107 1.260 . S
O112 In104 2.266 1_556 S
O112 C109 1.252 1_556 S
O113 In104 2.327 . S
O113 C109 1.260 . S
C114 O105 1.240 . S
C114 O106 1.252 . S
O115 In104 2.292 1_556 S
O115 C108 1.240 . S
O116 In104 2.325 1_556 S
O116 C108 1.252 . S
In117 O118 2.298 . S
In117 O119 2.328 . S
In117 O123 2.268 . S
In117 O124 2.323 1_554 S
In117 O125 2.265 1_554 S
In117 O126 2.328 . S
In117 O128 2.290 1_554 S
In117 O129 2.324 1_554 S
O118 In117 2.298 . S
O118 C127 1.240 . S
O119 In117 2.328 . S
O119 C127 1.252 . S
C120 O123 1.252 1_556 S
C120 O124 1.260 . S
C121 O128 1.240 . S
C121 O129 1.252 . S
C122 O125 1.252 1_554 S
C122 O126 1.260 . S
O123 In117 2.268 . S
O123 C120 1.252 1_554 S
O124 In117 2.323 1_556 S
O124 C120 1.260 . S
O125 In117 2.265 1_556 S
O125 C122 1.252 1_556 S
O126 In117 2.328 . S
O126 C122 1.260 . S
C127 O118 1.240 . S
C127 O119 1.252 . S
O128 In117 2.290 1_556 S
O128 C121 1.240 . S
O129 In117 2.324 1_556 S
O129 C121 1.252 . S
In130 O131 2.293 1_554 S
In130 O132 2.329 . S
In130 O136 2.262 1_554 S
In130 O137 2.324 1_554 S
In130 O138 2.270 . S
In130 O139 2.327 . S
In130 O141 2.295 . S
In130 O142 2.324 1_554 S
O131 In130 2.293 1_556 S
O131 C140 1.240 1_556 S
O132 In130 2.329 . S
O132 C140 1.252 . S
C133 O136 1.252 . S
C133 O137 1.260 . S
C134 O141 1.240 1_556 S
C134 O142 1.252 . S
C135 O138 1.252 . S
C135 O139 1.260 . S
O136 In130 2.262 1_556 S
O136 C133 1.252 . S
O137 In130 2.324 1_556 S
O137 C133 1.260 . S
O138 In130 2.270 . S
O138 C135 1.252 . S
O139 In130 2.327 . S
O139 C135 1.260 . S
C140 O131 1.240 1_554 S
C140 O132 1.252 . S
O141 In130 2.295 . S
O141 C134 1.240 1_554 S
O142 In130 2.324 1_556 S
O142 C134 1.252 . S
In143 O144 2.294 . S
In143 O145 2.325 1_554 S
In143 O149 2.268 . S
In143 O150 2.326 . S
In143 O151 2.264 1_554 S
In143 O152 2.325 1_554 S
In143 O154 2.293 1_554 S
In143 O155 2.327 . S
O144 In143 2.294 . S
O144 C153 1.240 1_554 S
O145 In143 2.325 1_556 S
O145 C153 1.252 . S
C146 O149 1.252 . S
C146 O150 1.260 . S
C147 O154 1.240 1_554 S
C147 O155 1.252 . S
C148 O151 1.252 . S
C148 O152 1.260 . S
O149 In143 2.268 . S
O149 C146 1.252 . S
O150 In143 2.326 . S
O150 C146 1.260 . S
O151 In143 2.264 1_556 S
O151 C148 1.252 . S
O152 In143 2.325 1_556 S
O152 C148 1.260 . S
C153 O144 1.240 1_556 S
C153 O145 1.252 . S
O154 In143 2.293 1_556 S
O154 C147 1.240 1_556 S
O155 In143 2.327 . S
O155 C147 1.252 . S
C156 C157 1.363 . S
C156 C162 1.379 . S
C156 N164 1.356 . S
C157 C156 1.363 . S
C157 C163 1.363 1_655 S
C158 C159 1.363 . S
C158 C163 1.379 . S
C158 N165 1.356 . S
C159 C158 1.363 . S
C159 C162 1.363 1_455 S
N160 C162 1.356 . S
N160 H172 0.984 . S
N160 H173 0.985 . S
N161 C163 1.356 . S
N161 H166 0.984 . S
N161 H167 0.985 . S
C162 C156 1.379 . S
C162 C159 1.363 1_655 S
C162 N160 1.356 . S
C163 C157 1.363 1_455 S
C163 C158 1.379 . S
C163 N161 1.356 . S
N164 C156 1.356 . S
N164 H170 0.984 . S
N164 H171 0.984 . S
N165 C158 1.356 . S
N165 H168 0.984 . S
N165 H169 0.985 . S
H166 N161 0.984 . S
H167 N161 0.985 . S
H168 N165 0.984 . S
H169 N165 0.985 . S
H170 N164 0.984 . S
H171 N164 0.984 . S
H172 N160 0.984 . S
H173 N160 0.985 . S
C174 C175 1.363 . S
C174 C180 1.379 . S
C174 N182 1.356 . S
C175 C174 1.363 . S
C175 C181 1.363 1_565 S
C176 C177 1.363 . S
C176 C181 1.379 . S
C176 N183 1.356 . S
C177 C176 1.363 . S
C177 C180 1.363 1_545 S
N178 C180 1.356 . S
N178 H190 0.984 . S
N178 H191 0.985 . S
N179 C181 1.356 . S
N179 H184 0.984 . S
N179 H185 0.985 . S
C180 C174 1.379 . S
C180 C177 1.363 1_565 S
C180 N178 1.356 . S
C181 C175 1.363 1_545 S
C181 C176 1.379 . S
C181 N179 1.356 . S
N182 C174 1.356 . S
N182 H188 0.984 . S
N182 H189 0.984 . S
N183 C176 1.356 . S
N183 H186 0.984 . S
N183 H187 0.985 . S
H184 N179 0.984 . S
H185 N179 0.985 . S
H186 N183 0.984 . S
H187 N183 0.985 . S
H188 N182 0.984 . S
H189 N182 0.984 . S
H190 N178 0.984 . S
H191 N178 0.985 . S
C192 C193 1.363 . S
C192 C198 1.379 . S
C192 N200 1.356 . S
C193 C192 1.363 . S
C193 C199 1.363 1_655 S
C194 C195 1.363 . S
C194 C199 1.379 . S
C194 N201 1.356 . S
C195 C194 1.363 . S
C195 C198 1.363 1_455 S
N196 C198 1.356 . S
N196 H208 0.984 . S
N196 H209 0.985 1_655 S
N197 C199 1.356 . S
N197 H202 0.984 . S
N197 H203 0.985 . S
C198 C192 1.379 . S
C198 C195 1.363 1_655 S
C198 N196 1.356 . S
C199 C193 1.363 1_455 S
C199 C194 1.379 . S
C199 N197 1.356 . S
N200 C192 1.356 . S
N200 H206 0.984 . S
N200 H207 0.984 . S
N201 C194 1.356 . S
N201 H204 0.984 . S
N201 H205 0.985 . S
H202 N197 0.984 . S
H203 N197 0.985 . S
H204 N201 0.984 . S
H205 N201 0.985 . S
H206 N200 0.984 . S
H207 N200 0.984 . S
H208 N196 0.984 . S
H209 N196 0.985 1_455 S
C210 C211 1.363 . S
C210 C216 1.379 . S
C210 N218 1.356 . S
C211 C210 1.363 . S
C211 C217 1.363 1_545 S
C212 C213 1.363 . S
C212 C217 1.379 . S
C212 N219 1.356 . S
C213 C212 1.363 . S
C213 C216 1.363 1_565 S
N214 C216 1.356 . S
N214 H226 0.984 . S
N214 H227 0.985 . S
N215 C217 1.356 . S
N215 H220 0.984 . S
N215 H221 0.985 . S
C216 C210 1.379 . S
C216 C213 1.363 1_545 S
C216 N214 1.356 . S
C217 C211 1.363 1_565 S
C217 C212 1.379 . S
C217 N215 1.356 . S
N218 C210 1.356 . S
N218 H224 0.984 . S
N218 H225 0.984 . S
N219 C212 1.356 . S
N219 H222 0.984 . S
N219 H223 0.985 . S
H220 N215 0.984 . S
H221 N215 0.985 . S
H222 N219 0.984 . S
H223 N219 0.985 . S
H224 N218 0.984 . S
H225 N218 0.984 . S
H226 N214 0.984 . S
H227 N214 0.985 . S
C228 C229 1.363 1_655 S
C228 C234 1.379 . S
C228 N236 1.356 . S
C229 C228 1.363 1_455 S
C229 C235 1.363 . S
C230 C231 1.363 1_455 S
C230 C235 1.379 . S
C230 N237 1.356 . S
C231 C230 1.363 1_655 S
C231 C234 1.363 . S
N232 C234 1.356 . S
N232 H244 0.984 . S
N232 H245 0.985 . S
N233 C235 1.356 . S
N233 H238 0.984 . S
N233 H239 0.985 . S
C234 C228 1.379 . S
C234 C231 1.363 . S
C234 N232 1.356 . S
C235 C229 1.363 . S
C235 C230 1.379 . S
C235 N233 1.356 . S
N236 C228 1.356 . S
N236 H242 0.984 . S
N236 H243 0.984 . S
N237 C230 1.356 . S
N237 H240 0.984 . S
N237 H241 0.985 . S
H238 N233 0.984 . S
H239 N233 0.985 . S
H240 N237 0.984 . S
H241 N237 0.985 . S
H242 N236 0.984 . S
H243 N236 0.984 . S
H244 N232 0.984 . S
H245 N232 0.985 . S
C246 C247 1.361 1_565 S
C246 C252 1.380 . S
C246 N254 1.356 1_565 S
C247 C246 1.361 1_545 S
C247 C253 1.363 . S
C248 C249 1.363 1_545 S
C248 C253 1.379 . S
C248 N255 1.356 . S
C249 C248 1.363 1_565 S
C249 C252 1.363 . S
N250 C252 1.356 . S
N250 H262 0.984 . S
N250 H263 0.985 . S
N251 C253 1.356 . S
N251 H256 0.984 . S
N251 H257 0.985 . S
C252 C246 1.380 . S
C252 C249 1.363 . S
C252 N250 1.356 . S
C253 C247 1.363 . S
C253 C248 1.379 . S
C253 N251 1.356 . S
N254 C246 1.356 1_545 S
N254 H260 0.984 1_545 S
N254 H261 0.984 . S
N255 C248 1.356 . S
N255 H258 0.984 1_545 S
N255 H259 0.985 . S
H256 N251 0.984 . S
H257 N251 0.985 . S
H258 N255 0.984 1_565 S
H259 N255 0.985 . S
H260 N254 0.984 1_565 S
H261 N254 0.984 . S
H262 N250 0.984 . S
H263 N250 0.985 . S
C264 C265 1.363 . S
C264 C270 1.379 . S
C264 N272 1.356 . S
C265 C264 1.363 . S
C265 C271 1.363 1_455 S
C266 C267 1.363 . S
C266 C271 1.379 . S
C266 N273 1.356 . S
C267 C266 1.363 . S
C267 C270 1.363 1_655 S
N268 C270 1.356 . S
N268 H280 0.984 . S
N268 H281 0.985 . S
N269 C271 1.356 . S
N269 H274 0.984 . S
N269 H275 0.985 . S
C270 C264 1.379 . S
C270 C267 1.363 1_455 S
C270 N268 1.356 . S
C271 C265 1.363 1_655 S
C271 C266 1.379 . S
C271 N269 1.356 . S
N272 C264 1.356 . S
N272 H278 0.984 . S
N272 H279 0.984 . S
N273 C266 1.356 . S
N273 H276 0.984 . S
N273 H277 0.985 . S
H274 N269 0.984 . S
H275 N269 0.985 . S
H276 N273 0.984 . S
H277 N273 0.985 . S
H278 N272 0.984 . S
H279 N272 0.984 . S
H280 N268 0.984 . S
H281 N268 0.985 . S
C282 C283 1.363 . S
C282 C288 1.379 1_565 S
C282 N290 1.356 . S
C283 C282 1.363 . S
C283 C289 1.363 . S
C284 C285 1.363 . S
C284 C289 1.379 1_545 S
C284 N291 1.356 . S
C285 C284 1.363 . S
C285 C288 1.363 . S
N286 C288 1.356 . S
N286 H298 0.984 . S
N286 H299 0.985 . S
N287 C289 1.356 . S
N287 H292 0.984 . S
N287 H293 0.985 . S
C288 C282 1.379 1_545 S
C288 C285 1.363 . S
C288 N286 1.356 . S
C289 C283 1.363 . S
C289 C284 1.379 1_565 S
C289 N287 1.356 . S
N290 C282 1.356 . S
N290 H296 0.984 . S
N290 H297 0.984 . S
N291 C284 1.356 . S
N291 H294 0.984 . S
N291 H295 0.985 . S
H292 N287 0.984 . S
H293 N287 0.985 . S
H294 N291 0.984 . S
H295 N291 0.985 . S
H296 N290 0.984 . S
H297 N290 0.984 . S
H298 N286 0.984 . S
H299 N286 0.985 . S
C300 C301 1.363 1_556 S
C300 C306 1.379 . S
C300 N308 1.356 . S
C301 C300 1.363 1_554 S
C301 C307 1.363 . S
C302 C303 1.363 1_554 S
C302 C307 1.379 . S
C302 N309 1.356 . S
C303 C302 1.363 1_556 S
C303 C306 1.363 . S
N304 C306 1.356 . S
N304 H316 0.984 . S
N304 H317 0.985 . S
N305 C307 1.356 . S
N305 H310 0.984 . S
N305 H311 0.985 . S
C306 C300 1.379 . S
C306 C303 1.363 . S
C306 N304 1.356 . S
C307 C301 1.363 . S
C307 C302 1.379 . S
C307 N305 1.356 . S
N308 C300 1.356 . S
N308 H314 0.984 . S
N308 H315 0.984 1_556 S
N309 C302 1.356 . S
N309 H312 0.984 1_554 S
N309 H313 0.985 . S
H310 N305 0.984 . S
H311 N305 0.985 . S
H312 N309 0.984 1_556 S
H313 N309 0.985 . S
H314 N308 0.984 . S
H315 N308 0.984 1_554 S
H316 N304 0.984 . S
H317 N304 0.985 . S
C318 C319 1.363 1_556 S
C318 C324 1.379 . S
C318 N326 1.356 . S
C319 C318 1.363 1_554 S
C319 C325 1.363 . S
C320 C321 1.363 1_554 S
C320 C325 1.379 . S
C320 N327 1.356 . S
C321 C320 1.363 1_556 S
C321 C324 1.363 . S
N322 C324 1.356 . S
N322 H334 0.984 . S
N322 H335 0.985 . S
N323 C325 1.356 . S
N323 H328 0.984 . S
N323 H329 0.985 . S
C324 C318 1.379 . S
C324 C321 1.363 . S
C324 N322 1.356 . S
C325 C319 1.363 . S
C325 C320 1.379 . S
C325 N323 1.356 . S
N326 C318 1.356 . S
N326 H332 0.984 . S
N326 H333 0.984 . S
N327 C320 1.356 . S
N327 H330 0.984 . S
N327 H331 0.985 . S
H328 N323 0.984 . S
H329 N323 0.985 . S
H330 N327 0.984 . S
H331 N327 0.985 . S
H332 N326 0.984 . S
H333 N326 0.984 . S
H334 N322 0.984 . S
H335 N322 0.985 . S
C336 C337 1.363 . S
C336 C342 1.379 . S
C336 N344 1.356 . S
C337 C336 1.363 . S
C337 C343 1.363 1_556 S
C338 C339 1.363 . S
C338 C343 1.379 . S
C338 N345 1.356 . S
C339 C338 1.363 . S
C339 C342 1.363 1_554 S
N340 C342 1.356 . S
N340 H352 0.984 . S
N340 H353 0.985 . S
N341 C343 1.356 . S
N341 H346 0.984 . S
N341 H347 0.985 . S
C342 C336 1.379 . S
C342 C339 1.363 1_556 S
C342 N340 1.356 . S
C343 C337 1.363 1_554 S
C343 C338 1.379 . S
C343 N341 1.356 . S
N344 C336 1.356 . S
N344 H350 0.984 . S
N344 H351 0.984 . S
N345 C338 1.356 . S
N345 H348 0.984 . S
N345 H349 0.985 . S
H346 N341 0.984 . S
H347 N341 0.985 . S
H348 N345 0.984 . S
H349 N345 0.985 . S
H350 N344 0.984 . S
H351 N344 0.984 . S
H352 N340 0.984 . S
H353 N340 0.985 . S
C354 C355 1.363 . S
C354 C360 1.379 . S
C354 N362 1.356 . S
C355 C354 1.363 . S
C355 C361 1.363 1_556 S
C356 C357 1.363 . S
C356 C361 1.379 . S
C356 N363 1.356 . S
C357 C356 1.363 . S
C357 C360 1.363 1_554 S
N358 C360 1.356 . S
N358 H370 0.984 . S
N358 H371 0.985 . S
N359 C361 1.356 . S
N359 H364 0.984 . S
N359 H365 0.985 . S
C360 C354 1.379 . S
C360 C357 1.363 1_556 S
C360 N358 1.356 . S
C361 C355 1.363 1_554 S
C361 C356 1.379 . S
C361 N359 1.356 . S
N362 C354 1.356 . S
N362 H368 0.984 . S
N362 H369 0.984 . S
N363 C356 1.356 . S
N363 H366 0.984 . S
N363 H367 0.985 . S
H364 N359 0.984 . S
H365 N359 0.985 . S
H366 N363 0.984 . S
H367 N363 0.985 . S
H368 N362 0.984 . S
H369 N362 0.984 . S
H370 N358 0.984 . S
H371 N358 0.985 . S
C372 C373 1.363 . S
C372 C378 1.379 . S
C372 N380 1.356 . S
C373 C372 1.363 . S
C373 C379 1.363 . S
C374 C375 1.363 . S
C374 C379 1.379 . S
C374 N381 1.356 . S
C375 C374 1.363 . S
C375 C378 1.363 . S
N376 C378 1.356 . S
N376 H388 0.984 . S
N376 H389 0.985 . S
N377 C379 1.356 . S
N377 H382 0.984 . S
N377 H383 0.985 . S
C378 C372 1.379 . S
C378 C375 1.363 . S
C378 N376 1.356 . S
C379 C373 1.363 . S
C379 C374 1.379 . S
C379 N377 1.356 . S
N380 C372 1.356 . S
N380 H386 0.984 . S
N380 H387 0.984 . S
N381 C374 1.356 . S
N381 H384 0.984 . S
N381 H385 0.985 . S
H382 N377 0.984 . S
H383 N377 0.985 . S
H384 N381 0.984 . S
H385 N381 0.985 . S
H386 N380 0.984 . S
H387 N380 0.984 . S
H388 N376 0.984 . S
H389 N376 0.985 . S
C390 C391 1.363 . S
C390 C396 1.379 . S
C390 N398 1.356 . S
C391 C390 1.363 . S
C391 C397 1.363 . S
C392 C393 1.363 . S
C392 C397 1.379 . S
C392 N399 1.356 . S
C393 C392 1.363 . S
C393 C396 1.363 . S
N394 C396 1.356 . S
N394 H406 0.984 . S
N394 H407 0.985 . S
N395 C397 1.356 . S
N395 H400 0.984 . S
N395 H401 0.985 . S
C396 C390 1.379 . S
C396 C393 1.363 . S
C396 N394 1.356 . S
C397 C391 1.363 . S
C397 C392 1.379 . S
C397 N395 1.356 . S
N398 C390 1.356 . S
N398 H404 0.984 . S
N398 H405 0.984 . S
N399 C392 1.356 . S
N399 H402 0.984 . S
N399 H403 0.985 . S
H400 N395 0.984 . S
H401 N395 0.985 . S
H402 N399 0.984 . S
H403 N399 0.985 . S
H404 N398 0.984 . S
H405 N398 0.984 . S
H406 N394 0.984 . S
H407 N394 0.985 . S
C408 C409 1.363 . S
C408 C414 1.379 . S
C408 N416 1.356 . S
C409 C408 1.363 . S
C409 C415 1.363 . S
C410 C411 1.363 . S
C410 C415 1.379 . S
C410 N417 1.356 . S
C411 C410 1.363 . S
C411 C414 1.363 . S
N412 C414 1.356 . S
N412 H424 0.984 . S
N412 H425 0.985 . S
N413 C415 1.356 . S
N413 H418 0.984 . S
N413 H419 0.985 . S
C414 C408 1.379 . S
C414 C411 1.363 . S
C414 N412 1.356 . S
C415 C409 1.363 . S
C415 C410 1.379 . S
C415 N413 1.356 . S
N416 C408 1.356 . S
N416 H422 0.984 . S
N416 H423 0.984 . S
N417 C410 1.356 . S
N417 H420 0.984 . S
N417 H421 0.985 . S
H418 N413 0.984 . S
H419 N413 0.985 . S
H420 N417 0.984 . S
H421 N417 0.985 . S
H422 N416 0.984 . S
H423 N416 0.984 . S
H424 N412 0.984 . S
H425 N412 0.985 . S
C426 C427 1.363 . S
C426 C432 1.379 . S
C426 N434 1.356 . S
C427 C426 1.363 . S
C427 C433 1.363 . S
C428 C429 1.363 . S
C428 C433 1.379 . S
C428 N435 1.356 . S
C429 C428 1.363 . S
C429 C432 1.363 . S
N430 C432 1.356 . S
N430 H442 0.984 . S
N430 H443 0.985 . S
N431 C433 1.356 . S
N431 H436 0.984 . S
N431 H437 0.985 . S
C432 C426 1.379 . S
C432 C429 1.363 . S
C432 N430 1.356 . S
C433 C427 1.363 . S
C433 C428 1.379 . S
C433 N431 1.356 . S
N434 C426 1.356 . S
N434 H440 0.984 . S
N434 H441 0.984 . S
N435 C428 1.356 . S
N435 H438 0.984 . S
N435 H439 0.985 . S
H436 N431 0.984 . S
H437 N431 0.985 . S
H438 N435 0.984 . S
H439 N435 0.985 . S
H440 N434 0.984 . S
H441 N434 0.984 . S
H442 N430 0.984 . S
H443 N430 0.985 . S
C444 C445 1.363 . S
C444 C450 1.379 . S
C444 N452 1.356 . S
C445 C444 1.363 . S
C445 C451 1.363 . S
C446 C447 1.363 . S
C446 C451 1.379 . S
C446 N453 1.356 . S
C447 C446 1.363 . S
C447 C450 1.363 . S
N448 C450 1.356 . S
N448 H460 0.984 . S
N448 H461 0.985 . S
N449 C451 1.356 . S
N449 H454 0.984 . S
N449 H455 0.985 . S
C450 C444 1.379 . S
C450 C447 1.363 . S
C450 N448 1.356 . S
C451 C445 1.363 . S
C451 C446 1.379 . S
C451 N449 1.356 . S
N452 C444 1.356 . S
N452 H458 0.984 . S
N452 H459 0.984 . S
N453 C446 1.356 . S
N453 H456 0.984 . S
N453 H457 0.985 . S
H454 N449 0.984 . S
H455 N449 0.985 . S
H456 N453 0.984 . S
H457 N453 0.985 . S
H458 N452 0.984 . S
H459 N452 0.984 . S
H460 N448 0.984 . S
H461 N448 0.985 . S
C462 C463 1.363 . S
C462 C468 1.379 . S
C462 N470 1.356 . S
C463 C462 1.363 . S
C463 C469 1.363 . S
C464 C465 1.363 . S
C464 C469 1.379 . S
C464 N471 1.356 . S
C465 C464 1.363 . S
C465 C468 1.363 . S
N466 C468 1.356 . S
N466 H478 0.984 . S
N466 H479 0.985 . S
N467 C469 1.356 . S
N467 H472 0.984 . S
N467 H473 0.985 . S
C468 C462 1.379 . S
C468 C465 1.363 . S
C468 N466 1.356 . S
C469 C463 1.363 . S
C469 C464 1.379 . S
C469 N467 1.356 . S
N470 C462 1.356 . S
N470 H476 0.984 . S
N470 H477 0.984 . S
N471 C464 1.356 . S
N471 H474 0.984 . S
N471 H475 0.985 . S
H472 N467 0.984 . S
H473 N467 0.985 . S
H474 N471 0.984 . S
H475 N471 0.985 . S
H476 N470 0.984 . S
H477 N470 0.984 . S
H478 N466 0.984 . S
H479 N466 0.985 . S
C480 C481 1.363 . S
C480 C486 1.379 . S
C480 N488 1.356 . S
C481 C480 1.363 . S
C481 C487 1.363 . S
C482 C483 1.363 . S
C482 C487 1.379 . S
C482 N489 1.356 . S
C483 C482 1.363 . S
C483 C486 1.363 . S
N484 C486 1.356 . S
N484 H496 0.984 . S
N484 H497 0.985 . S
N485 C487 1.356 . S
N485 H490 0.984 . S
N485 H491 0.985 . S
C486 C480 1.379 . S
C486 C483 1.363 . S
C486 N484 1.356 . S
C487 C481 1.363 . S
C487 C482 1.379 . S
C487 N485 1.356 . S
N488 C480 1.356 . S
N488 H494 0.984 . S
N488 H495 0.984 . S
N489 C482 1.356 . S
N489 H492 0.984 . S
N489 H493 0.985 . S
H490 N485 0.984 . S
H491 N485 0.985 . S
H492 N489 0.984 . S
H493 N489 0.985 . S
H494 N488 0.984 . S
H495 N488 0.984 . S
H496 N484 0.984 . S
H497 N484 0.985 . S
C498 C499 1.363 . S
C498 C504 1.379 . S
C498 N506 1.356 . S
C499 C498 1.363 . S
C499 C505 1.363 . S
C500 C501 1.363 . S
C500 C505 1.379 . S
C500 N507 1.356 . S
C501 C500 1.363 . S
C501 C504 1.363 . S
N502 C504 1.356 . S
N502 H514 0.984 . S
N502 H515 0.985 . S
N503 C505 1.356 . S
N503 H508 0.984 . S
N503 H509 0.985 . S
C504 C498 1.379 . S
C504 C501 1.363 . S
C504 N502 1.356 . S
C505 C499 1.363 . S
C505 C500 1.379 . S
C505 N503 1.356 . S
N506 C498 1.356 . S
N506 H512 0.984 . S
N506 H513 0.984 . S
N507 C500 1.356 . S
N507 H510 0.984 . S
N507 H511 0.985 . S
H508 N503 0.984 . S
H509 N503 0.985 . S
H510 N507 0.984 . S
H511 N507 0.985 . S
H512 N506 0.984 . S
H513 N506 0.984 . S
H514 N502 0.984 . S
H515 N502 0.985 . S
C516 C517 1.363 . S
C516 C522 1.379 . S
C516 N524 1.356 . S
C517 C516 1.363 . S
C517 C523 1.363 . S
C518 C519 1.363 . S
C518 C523 1.379 . S
C518 N525 1.356 . S
C519 C518 1.363 . S
C519 C522 1.363 . S
N520 C522 1.356 . S
N520 H532 0.984 . S
N520 H533 0.985 . S
N521 C523 1.356 . S
N521 H526 0.984 . S
N521 H527 0.985 . S
C522 C516 1.379 . S
C522 C519 1.363 . S
C522 N520 1.356 . S
C523 C517 1.363 . S
C523 C518 1.379 . S
C523 N521 1.356 . S
N524 C516 1.356 . S
N524 H530 0.984 . S
N524 H531 0.984 . S
N525 C518 1.356 . S
N525 H528 0.984 . S
N525 H529 0.985 . S
H526 N521 0.984 . S
H527 N521 0.985 . S
H528 N525 0.984 . S
H529 N525 0.985 . S
H530 N524 0.984 . S
H531 N524 0.984 . S
H532 N520 0.984 . S
H533 N520 0.985 . S
C534 C535 1.363 . S
C534 C540 1.379 . S
C534 N542 1.356 . S
C535 C534 1.363 . S
C535 C541 1.363 . S
C536 C537 1.363 . S
C536 C541 1.379 . S
C536 N543 1.356 . S
C537 C536 1.363 . S
C537 C540 1.363 . S
N538 C540 1.356 . S
N538 H550 0.984 . S
N538 H551 0.985 . S
N539 C541 1.356 . S
N539 H544 0.984 . S
N539 H545 0.985 . S
C540 C534 1.379 . S
C540 C537 1.363 . S
C540 N538 1.356 . S
C541 C535 1.363 . S
C541 C536 1.379 . S
C541 N539 1.356 . S
N542 C534 1.356 . S
N542 H548 0.984 . S
N542 H549 0.984 . S
N543 C536 1.356 . S
N543 H546 0.984 . S
N543 H547 0.985 . S
H544 N539 0.984 . S
H545 N539 0.985 . S
H546 N543 0.984 . S
H547 N543 0.985 . S
H548 N542 0.984 . S
H549 N542 0.984 . S
H550 N538 0.984 . S
H551 N538 0.985 . S
C552 C553 1.363 . S
C552 C558 1.379 . S
C552 N560 1.356 . S
C553 C552 1.363 . S
C553 C559 1.363 . S
C554 C555 1.363 . S
C554 C559 1.379 . S
C554 N561 1.356 . S
C555 C554 1.363 . S
C555 C558 1.363 . S
N556 C558 1.356 . S
N556 H568 0.984 . S
N556 H569 0.985 . S
N557 C559 1.356 . S
N557 H562 0.984 . S
N557 H563 0.985 . S
C558 C552 1.379 . S
C558 C555 1.363 . S
C558 N556 1.356 . S
C559 C553 1.363 . S
C559 C554 1.379 . S
C559 N557 1.356 . S
N560 C552 1.356 . S
N560 H566 0.984 . S
N560 H567 0.984 . S
N561 C554 1.356 . S
N561 H564 0.984 . S
N561 H565 0.985 . S
H562 N557 0.984 . S
H563 N557 0.985 . S
H564 N561 0.984 . S
H565 N561 0.985 . S
H566 N560 0.984 . S
H567 N560 0.984 . S
H568 N556 0.984 . S
H569 N556 0.985 . S
C570 C571 1.363 . S
C570 C576 1.379 . S
C570 N578 1.356 . S
C571 C570 1.363 . S
C571 C577 1.363 . S
C572 C573 1.363 . S
C572 C577 1.379 . S
C572 N579 1.356 . S
C573 C572 1.363 . S
C573 C576 1.363 . S
N574 C576 1.356 . S
N574 H586 0.984 . S
N574 H587 0.985 . S
N575 C577 1.356 . S
N575 H580 0.984 . S
N575 H581 0.985 . S
C576 C570 1.379 . S
C576 C573 1.363 . S
C576 N574 1.356 . S
C577 C571 1.363 . S
C577 C572 1.379 . S
C577 N575 1.356 . S
N578 C570 1.356 . S
N578 H584 0.984 . S
N578 H585 0.984 . S
N579 C572 1.356 . S
N579 H582 0.984 . S
N579 H583 0.985 . S
H580 N575 0.984 . S
H581 N575 0.985 . S
H582 N579 0.984 . S
H583 N579 0.985 . S
H584 N578 0.984 . S
H585 N578 0.984 . S
H586 N574 0.984 . S
H587 N574 0.985 . S
C157 C5 1.598 . S
C159 C68 1.598 . S
C175 C17 1.582 . S
C177 C62 1.583 . S
C193 C70 1.589 . S
C195 C30 1.583 . S
C211 C42 1.597 . S
C213 C56 1.591 . S
C229 C96 1.589 . S
C231 C36 1.583 . S
C247 C82 1.591 . S
C249 C44 1.597 . S
C265 C3 1.598 . S
C267 C94 1.598 . S
C283 C88 1.583 . S
C285 C23 1.582 . S
C301 C122 1.602 . S
C303 C107 1.602 . S
C319 C109 1.593 . S
C321 C153 1.587 . S
C337 C120 1.593 . S
C339 C140 1.587 . S
C355 C134 1.579 . S
C357 C147 1.579 . S
C373 C148 1.598 . S
C375 C83 1.598 . S
C391 C108 1.582 . S
C393 C101 1.583 . S
C409 C81 1.589 . S
C411 C121 1.583 . S
C427 C95 1.591 . S
C429 C133 1.597 . S
C445 C57 1.589 . S
C447 C127 1.583 . S
C463 C75 1.591 . S
C465 C135 1.597 . S
C481 C146 1.598 . S
C483 C55 1.598 . S
C499 C114 1.582 . S
C501 C69 1.583 . S
C517 C16 1.602 . S
C519 C31 1.602 . S
C535 C10 1.587 . S
C537 C18 1.593 . S
C553 C29 1.593 . S
C555 C49 1.587 . S
C571 C4 1.579 . S
C573 C43 1.579 . S
