# Generated by pormake.
# Topology smk, (6)-cn, num edge types: 1
# Building blocks:
#     Node 0, Type 0, BuildingBlock: FUNLAD_clean_sbu_0, # of connection points: 6
#     Node 1, Type 0, BuildingBlock: FUNLAD_clean_sbu_0, # of connection points: 6
#     Node 2, Type 0, BuildingBlock: FUNLAD_clean_sbu_0, # of connection points: 6
#     Node 3, Type 0, BuildingBlock: FUNLAD_clean_sbu_0, # of connection points: 6
#     Node 4, Type 0, BuildingBlock: FUNLAD_clean_sbu_0, # of connection points: 6
#     Node 5, Type 0, BuildingBlock: FUNLAD_clean_sbu_0, # of connection points: 6
#     Edge 6, Type (0, 0), BuildingBlock: TEMPAE_clean_linker_10, # of connection points: 2
#     Edge 7, Type (0, 0), BuildingBlock: TEMPAE_clean_linker_10, # of connection points: 2
#     Edge 8, Type (0, 0), BuildingBlock: TEMPAE_clean_linker_10, # of connection points: 2
#     Edge 9, Type (0, 0), BuildingBlock: TEMPAE_clean_linker_10, # of connection points: 2
#     Edge 10, Type (0, 0), BuildingBlock: TEMPAE_clean_linker_10, # of connection points: 2
#     Edge 11, Type (0, 0), BuildingBlock: TEMPAE_clean_linker_10, # of connection points: 2
#     Edge 12, Type (0, 0), BuildingBlock: TEMPAE_clean_linker_10, # of connection points: 2
#     Edge 13, Type (0, 0), BuildingBlock: TEMPAE_clean_linker_10, # of connection points: 2
#     Edge 14, Type (0, 0), BuildingBlock: TEMPAE_clean_linker_10, # of connection points: 2
#     Edge 15, Type (0, 0), BuildingBlock: TEMPAE_clean_linker_10, # of connection points: 2
#     Edge 16, Type (0, 0), BuildingBlock: TEMPAE_clean_linker_10, # of connection points: 2
#     Edge 17, Type (0, 0), BuildingBlock: TEMPAE_clean_linker_10, # of connection points: 2
#     Edge 18, Type (0, 0), BuildingBlock: TEMPAE_clean_linker_10, # of connection points: 2
#     Edge 19, Type (0, 0), BuildingBlock: TEMPAE_clean_linker_10, # of connection points: 2
#     Edge 20, Type (0, 0), BuildingBlock: TEMPAE_clean_linker_10, # of connection points: 2
#     Edge 21, Type (0, 0), BuildingBlock: TEMPAE_clean_linker_10, # of connection points: 2
#     Edge 22, Type (0, 0), BuildingBlock: TEMPAE_clean_linker_10, # of connection points: 2
#     Edge 23, Type (0, 0), BuildingBlock: TEMPAE_clean_linker_10, # of connection points: 2
# Relax obj value: 0.410
# Max RMSD: 0.247
# Mean RMSD: 0.247
data_MOF--net-smk--node1-FUNLAD_clean_sbu_0--edge1-TEMPAE_clean_linker_10
_symmetry_space_group_name_H-M    P1
_symmetry_Int_Tables_number       1
_symmetry_cell_setting            triclinic
loop_
_symmetry_equiv_pos_as_xyz
'x, y, z'
_cell_length_a     48.64884
_cell_length_b     48.598725
_cell_length_c     15.10398
_cell_angle_alpha  90.010821
_cell_angle_beta   90.471353
_cell_angle_gamma 120.00415
loop_
_atom_site_label
_atom_site_type_symbol
_atom_site_fract_x
_atom_site_fract_y
_atom_site_fract_z
_atom_type_partial_charge
C0 C 0.48062 0.28673 0.42487 0.0
N1 N 0.54043 0.36 0.58553 0.0
C2 C 0.56253 0.36082 0.52911 0.0
C3 C 0.58819 0.38951 0.50305 0.0
C4 C 0.59166 0.41801 0.53542 0.0
C5 C 0.56953 0.41696 0.59654 0.0
C6 C 0.54362 0.38735 0.62042 0.0
Zn7 Zn 0.50142 0.31509 0.5992 0.0
C8 C 0.43931 0.31381 0.59158 0.0
N9 N 0.42313 0.21858 0.60084 0.0
C10 C 0.42948 0.19943 0.54949 0.0
C11 C 0.3947 0.2068 0.64245 0.0
C12 C 0.37153 0.17449 0.63298 0.0
C13 C 0.37804 0.15438 0.58101 0.0
C14 C 0.40741 0.16745 0.53882 0.0
Zn15 Zn 0.45973 0.26525 0.60232 0.0
O16 O 0.50046 0.31154 0.46539 0.0
C17 C 0.52213 0.26707 0.62099 0.0
O18 O 0.46056 0.26263 0.4666 0.0
H19 H 0.38991 0.22239 0.68237 0.0
H20 H 0.55975 0.33913 0.50094 0.0
H21 H 0.45176 0.20896 0.51513 0.0
O22 O 0.53261 0.29661 0.61206 0.0
O23 O 0.49239 0.2482 0.61708 0.0
H24 H 0.52571 0.38631 0.6645 0.0
O25 O 0.4593 0.26915 0.73616 0.0
O26 O 0.50111 0.31791 0.73372 0.0
O27 O 0.42813 0.28382 0.5939 0.0
O28 O 0.46925 0.33254 0.59033 0.0
C29 C 0.47967 0.29436 0.77556 0.0
H30 H 0.60498 0.38945 0.45639 0.0
H31 H 0.57164 0.43867 0.62284 0.0
H32 H 0.34902 0.1653 0.66634 0.0
H33 H 0.41319 0.15314 0.49626 0.0
C34 C 0.29484 0.47575 0.86217 0.0
N35 N 0.37036 0.53513 0.70953 0.0
C36 C 0.37052 0.5568 0.76712 0.0
C37 C 0.39884 0.58278 0.79549 0.0
C38 C 0.42764 0.58712 0.76384 0.0
C39 C 0.42723 0.56538 0.7017 0.0
C40 C 0.39801 0.53907 0.67579 0.0
Zn41 Zn 0.32579 0.49595 0.68995 0.0
C42 C 0.32436 0.43415 0.70334 0.0
N43 N 0.22952 0.41706 0.67854 0.0
C44 C 0.20737 0.42301 0.71424 0.0
C45 C 0.22143 0.38718 0.65107 0.0
C46 C 0.19016 0.36195 0.66072 0.0
C47 C 0.16712 0.36788 0.69707 0.0
C48 C 0.17601 0.3989 0.72285 0.0
Zn49 Zn 0.27574 0.45473 0.68357 0.0
O50 O 0.32024 0.49455 0.8233 0.0
C51 C 0.2783 0.51713 0.65888 0.0
O52 O 0.27055 0.45621 0.81873 0.0
H53 H 0.23933 0.38267 0.62408 0.0
H54 H 0.34855 0.55356 0.79369 0.0
H55 H 0.21409 0.44633 0.73958 0.0
O56 O 0.30753 0.52716 0.67318 0.0
O57 O 0.25897 0.48742 0.66109 0.0
H58 H 0.39748 0.52156 0.63051 0.0
O59 O 0.28188 0.45364 0.55033 0.0
O60 O 0.33036 0.49573 0.55558 0.0
O61 O 0.29449 0.42343 0.69978 0.0
O62 O 0.34339 0.46404 0.70271 0.0
C63 C 0.30722 0.47383 0.5123 0.0
H64 H 0.39827 0.59931 0.84261 0.0
H65 H 0.44918 0.56821 0.67572 0.0
H66 H 0.18409 0.33816 0.64069 0.0
H67 H 0.15903 0.40423 0.75287 0.0
C68 C 0.81817 0.23797 0.74012 0.0
N69 N 0.74357 0.22245 0.89647 0.0
C70 C 0.74315 0.24422 0.84052 0.0
C71 C 0.71468 0.24205 0.81458 0.0
C72 C 0.68606 0.21748 0.84702 0.0
C73 C 0.68681 0.19593 0.90766 0.0
C74 C 0.71613 0.19869 0.93113 0.0
Zn75 Zn 0.78785 0.2271 0.9126 0.0
C76 C 0.78757 0.1661 0.897 0.0
N77 N 0.8834 0.24263 0.92121 0.0
C78 C 0.90554 0.27051 0.88435 0.0
C79 C 0.89133 0.22073 0.94863 0.0
C80 C 0.92247 0.22649 0.93804 0.0
C81 C 0.94549 0.25528 0.90074 0.0
C82 C 0.93677 0.27748 0.87475 0.0
Zn83 Zn 0.83747 0.23489 0.91867 0.0
O84 O 0.7929 0.23195 0.77876 0.0
C85 C 0.83637 0.29537 0.94481 0.0
O86 O 0.842 0.24146 0.78346 0.0
H87 H 0.87341 0.19847 -0.02353 0.0
H88 H 0.76499 0.26298 0.81333 0.0
H89 H 0.89893 0.28718 0.85907 0.0
O90 O 0.80699 0.27649 0.9316 0.0
O91 O 0.85534 0.2846 0.9413 0.0
H92 H 0.7169 0.18152 -0.02489 0.0
O93 O 0.832 0.22774 0.0521 0.0
O94 O 0.78364 0.2214 0.04722 0.0
O95 O 0.81757 0.18452 0.90216 0.0
O96 O 0.76927 0.17776 0.8972 0.0
C97 C 0.80664 0.22235 0.09046 0.0
H98 H 0.71501 0.25933 0.76861 0.0
H99 H 0.66503 0.17672 0.93419 0.0
H100 H 0.92845 0.20873 0.95819 0.0
H101 H 0.95379 0.29966 0.84415 0.0
C102 C 0.62721 0.86503 0.19154 0.0
N103 N 0.56315 0.87216 0.03146 0.0
C104 C 0.54264 0.85144 0.09204 0.0
C105 C 0.51574 0.85249 0.11668 0.0
C106 C 0.50923 0.87482 0.07832 0.0
C107 C 0.52984 0.89526 0.01321 0.0
C108 C 0.55711 0.89372 -0.00886 0.0
Zn109 Zn 0.60383 0.86904 0.01712 0.0
C110 C 0.66406 0.93119 0.01692 0.0
N111 N 0.68543 0.85626 0.01445 0.0
C112 C 0.68289 0.83325 0.07083 0.0
C113 C 0.71267 0.87437 -0.03145 0.0
C114 C 0.73885 0.86984 -0.01984 0.0
C115 C 0.73678 0.84691 0.0405 0.0
C116 C 0.70834 0.82833 0.08521 0.0
Zn117 Zn 0.64654 0.86257 0.01398 0.0
O118 O 0.6066 0.86884 0.15117 0.0
C119 C 0.58639 0.80042 0.00246 0.0
O120 O 0.64712 0.86083 0.1496 0.0
H121 H 0.71429 0.89262 0.92432 0.0
H122 H 0.54751 0.83439 0.12374 0.0
H123 H 0.66121 0.81898 0.10685 0.0
O124 O 0.57488 0.81868 0.0105 0.0
O125 O 0.61631 0.81239 0.00455 0.0
H126 H 0.57368 0.91009 0.94344 0.0
O127 O 0.64553 0.86518 0.88012 0.0
O128 O 0.60243 0.86992 0.88235 0.0
O129 O 0.67579 0.91289 0.01738 0.0
O130 O 0.63403 0.91938 0.01937 0.0
C131 C 0.62419 0.8684 0.84058 0.0
H132 H 0.50018 0.83602 0.16612 0.0
H133 H 0.5254 0.91274 -0.01804 0.0
H134 H 0.76055 0.88443 0.94424 0.0
H135 H 0.70589 0.8102 0.13145 0.0
C136 C 0.85462 0.61275 0.07213 0.0
N137 N 0.87248 0.55599 0.23442 0.0
C138 C 0.84966 0.53217 0.18388 0.0
C139 C 0.85275 0.50639 0.15825 0.0
C140 C 0.87937 0.50465 0.18545 0.0
C141 C 0.90197 0.52854 0.24116 0.0
C142 C 0.89817 0.55443 0.2645 0.0
Zn143 Zn 0.86728 0.5954 0.24651 0.0
C144 C 0.92827 0.65645 0.22963 0.0
N145 N 0.85182 0.6752 0.2477 0.0
C146 C 0.82573 0.66969 0.1997 0.0
C147 C 0.87141 0.70435 0.28415 0.0
C148 C 0.8649 0.72925 0.27232 0.0
C149 C 0.83788 0.7238 0.22337 0.0
C150 C 0.81828 0.69353 0.1871 0.0
Zn151 Zn 0.85998 0.63742 0.24956 0.0
O152 O 0.85859 0.59227 0.11259 0.0
C153 C 0.79949 0.57625 0.27797 0.0
O154 O 0.85534 0.63559 0.11399 0.0
H155 H 0.89229 0.70845 0.32106 0.0
H156 H 0.8295 0.5337 0.15982 0.0
H157 H 0.81086 0.64685 0.16869 0.0
O158 O 0.81829 0.56535 0.27215 0.0
O159 O 0.81023 0.60573 0.26583 0.0
H160 H 0.91619 0.57371 0.3039 0.0
O161 O 0.86436 0.63825 0.38377 0.0
O162 O 0.87546 0.59919 0.38116 0.0
O163 O 0.91006 0.66802 0.23954 0.0
O164 O 0.91644 0.62645 0.22489 0.0
C165 C 0.87112 0.61931 0.42334 0.0
H166 H 0.83475 0.48821 0.11582 0.0
H167 H 0.92281 0.52778 0.26335 0.0
H168 H 0.88067 0.75236 0.30118 0.0
H169 H 0.79766 0.68845 0.14714 0.0
C170 C 0.23598 0.8 0.49632 0.0
N171 N 0.22102 0.72729 0.33145 0.0
C172 C 0.19963 0.70738 0.39166 0.0
C173 C 0.20013 0.68031 0.42001 0.0
C174 C 0.22318 0.6737 0.3874 0.0
C175 C 0.24353 0.6934 0.32066 0.0
C176 C 0.24199 0.72016 0.29339 0.0
Zn177 Zn 0.22651 0.77215 0.32132 0.0
C178 C 0.16487 0.77143 0.32786 0.0
N179 N 0.24006 0.86687 0.32335 0.0
C180 C 0.26544 0.89159 0.28385 0.0
C181 C 0.22126 0.87208 0.37914 0.0
C182 C 0.22861 0.90297 0.40077 0.0
C183 C 0.25603 0.92902 0.36644 0.0
C184 C 0.27398 0.92295 0.30488 0.0
Zn185 Zn 0.2336 0.82156 0.31911 0.0
O186 O 0.231 0.77533 0.45505 0.0
C187 C 0.29493 0.82182 0.30198 0.0
O188 O 0.23769 0.8234 0.45487 0.0
H189 H 0.20147 0.85231 0.4112 0.0
H190 H 0.18344 0.71352 0.42254 0.0
H191 H 0.28023 0.88712 0.23993 0.0
O192 O 0.27624 0.79208 0.30922 0.0
O193 O 0.28372 0.84044 0.30769 0.0
H194 H 0.25896 0.73627 0.24605 0.0
O195 O 0.22985 0.81896 0.18464 0.0
O196 O 0.22289 0.77017 0.18648 0.0
O197 O 0.1833 0.80135 0.3249 0.0
O198 O 0.17658 0.75319 0.3301 0.0
C199 C 0.22538 0.79402 0.14498 0.0
H200 H 0.1835 0.6655 0.47009 0.0
H201 H 0.26181 0.68941 0.29374 0.0
H202 H 0.21357 0.9063 0.44684 0.0
H203 H 0.2955 0.94209 0.27704 0.0
C204 C 0.47284 0.26078 0.28042 0.0
C205 C 0.47896 0.28743 0.33014 0.0
C206 C 0.472 0.26195 0.18852 0.0
C207 C 0.47641 0.29008 0.14807 0.0
C208 C 0.48139 0.3166 0.19858 0.0
C209 C 0.4831 0.31509 0.28989 0.0
C210 C 0.46736 0.23365 0.13489 0.0
C211 C 0.48528 0.34653 0.15629 0.0
C212 C 0.5074 0.30717 0.91782 0.0
C213 C 0.47905 0.29552 0.87023 0.0
C214 C 0.50683 0.30529 0.00952 0.0
C215 C 0.47728 0.29238 0.05247 0.0
C216 C 0.4487 0.28175 0.0045 0.0
C217 C 0.4499 0.28302 0.91273 0.0
C218 C 0.53755 0.31623 0.06008 0.0
C219 C 0.41706 0.26884 0.04988 0.0
H220 H 0.46964 0.23954 0.31329 0.0
H221 H 0.48725 0.33537 0.33003 0.0
H222 H 0.44645 0.22534 0.09025 0.0
H223 H 0.48835 0.24066 0.09252 0.0
H224 H 0.4639 0.21353 0.17737 0.0
H225 H 0.48664 0.364 0.20612 0.0
H226 H 0.50726 0.35794 0.11648 0.0
H227 H 0.46511 0.34068 0.11052 0.0
H228 H 0.52973 0.31647 0.88314 0.0
H229 H 0.42819 0.27428 0.8741 0.0
H230 H 0.53606 0.29629 0.09964 0.0
H231 H 0.54167 0.33547 0.10712 0.0
H232 H 0.55834 0.32512 0.01563 0.0
H233 H 0.41152 0.24698 0.08688 0.0
H234 H 0.39738 0.26311 0.00223 0.0
H235 H 0.41809 0.2864 0.09872 0.0
C236 C 0.32186 0.50156 0.37051 0.0
C237 C 0.30837 0.47306 0.41723 0.0
C238 C 0.31888 0.50113 0.27887 0.0
C239 C 0.30283 0.47149 0.23475 0.0
C240 C 0.29042 0.44264 0.28156 0.0
C241 C 0.29302 0.4438 0.37332 0.0
C242 C 0.33199 0.53222 0.22969 0.0
C243 C 0.27408 0.41078 0.23501 0.0
C244 C 0.27048 0.47025 0.00799 0.0
C245 C 0.29568 0.4736 0.95695 0.0
C246 C 0.27236 0.46933 0.09995 0.0
C247 C 0.29958 0.47078 0.13903 0.0
C248 C 0.32444 0.47284 0.087 0.0
C249 C 0.32235 0.47468 -0.00411 0.0
C250 C 0.24586 0.46776 0.15518 0.0
C251 C 0.35333 0.47354 0.12746 0.0
H252 H 0.33332 0.52405 0.40589 0.0
H253 H 0.28281 0.42191 0.41091 0.0
H254 H 0.34982 0.53431 0.18085 0.0
H255 H 0.31262 0.53293 0.19226 0.0
H256 H 0.34333 0.55312 0.27484 0.0
H257 H 0.26701 0.39071 0.28165 0.0
H258 H 0.25253 0.40747 0.19979 0.0
H259 H 0.29 0.40979 0.18449 0.0
H260 H 0.24997 0.46935 -0.0238 0.0
H261 H 0.34145 0.47665 0.95479 0.0
H262 H 0.25525 0.48918 0.1981 0.0
H263 H 0.23618 0.4468 0.19936 0.0
H264 H 0.22617 0.46629 0.11384 0.0
H265 H 0.36693 0.49543 0.16785 0.0
H266 H 0.36937 0.47293 0.07654 0.0
H267 H 0.34599 0.45301 0.17236 0.0
C268 C 0.78578 0.22777 0.23301 0.0
C269 C 0.80501 0.21929 0.18579 0.0
C270 C 0.78749 0.22933 0.32495 0.0
C271 C 0.8085 0.22167 0.36895 0.0
C272 C 0.82657 0.2113 0.32179 0.0
C273 C 0.82475 0.21042 0.2299 0.0
C274 C 0.76803 0.24058 0.37457 0.0
C275 C 0.84857 0.20226 0.36808 0.0
C276 C 0.8385 0.25869 0.59224 0.0
C277 C 0.81712 0.23414 0.64588 0.0
C278 C 0.83603 0.2549 0.50055 0.0
C279 C 0.81231 0.22557 0.46446 0.0
C280 C 0.79154 0.20033 0.51929 0.0
C281 C 0.79394 0.20515 0.61019 0.0
C282 C 0.85805 0.28233 0.44246 0.0
C283 C 0.76663 0.16855 0.48206 0.0
H284 H 0.77061 0.23466 0.1981 0.0
H285 H 0.83926 0.20345 0.1925 0.0
H286 H 0.75342 0.22298 0.42552 0.0
H287 H 0.78407 0.2632 0.40955 0.0
H288 H 0.75204 0.2445 0.33 0.0
H289 H 0.85894 0.19227 0.32157 0.0
H290 H 0.86825 0.22351 0.40084 0.0
H291 H 0.83569 0.18452 0.4205 0.0
H292 H 0.85632 0.28095 0.62185 0.0
H293 H 0.77786 0.18623 0.65369 0.0
H294 H 0.84399 0.28933 0.39939 0.0
H295 H 0.87146 0.27506 0.39844 0.0
H296 H 0.87525 0.30341 0.48166 0.0
H297 H 0.74904 0.17151 0.44218 0.0
H298 H 0.75383 0.15087 0.53482 0.0
H299 H 0.77776 0.1589 0.43726 0.0
C300 C 0.63706 0.84827 0.33549 0.0
C301 C 0.62896 0.86748 0.2863 0.0
C302 C 0.6372 0.8496 0.42739 0.0
C303 C 0.62993 0.87127 0.46854 0.0
C304 C 0.62304 0.89163 0.41875 0.0
C305 C 0.62221 0.88916 0.32727 0.0
C306 C 0.64404 0.82725 0.48021 0.0
C307 C 0.61605 0.91552 0.46196 0.0
C308 C 0.5974 0.85252 0.69705 0.0
C309 C 0.62511 0.87064 0.74613 0.0
C310 C 0.59867 0.85242 0.60528 0.0
C311 C 0.62818 0.87169 0.56406 0.0
C312 C 0.656 0.89103 0.61375 0.0
C313 C 0.65418 0.88987 0.70537 0.0
C314 C 0.56882 0.83116 0.55275 0.0
C315 C 0.6875 0.91248 0.57034 0.0
H316 H 0.64222 0.83161 0.30217 0.0
H317 H 0.61648 0.90427 0.28765 0.0
H318 H 0.66425 0.84089 0.5264 0.0
H319 H 0.62312 0.81146 0.5209 0.0
H320 H 0.64974 0.81225 0.43723 0.0
H321 H 0.61349 0.93111 0.41279 0.0
H322 H 0.59376 0.90294 0.50016 0.0
H323 H 0.63532 0.93064 0.50936 0.0
H324 H 0.57515 0.8376 0.73052 0.0
H325 H 0.67536 0.90398 0.74527 0.0
H326 H 0.57241 0.81417 0.5123 0.0
H327 H 0.56342 0.84555 0.50637 0.0
H328 H 0.54794 0.81746 0.59591 0.0
H329 H 0.69528 0.89802 0.5327 0.0
H330 H 0.70635 0.9273 0.61931 0.0
H331 H 0.68503 0.92842 0.52235 0.0
C332 C 0.83809 0.61055 0.55153 0.0
C333 C 0.86704 0.61618 0.51746 0.0
C334 C 0.83265 0.60673 0.64191 0.0
C335 C 0.85729 0.6097 0.69808 0.0
C336 C 0.88647 0.61488 0.66355 0.0
C337 C 0.89083 0.61756 0.57225 0.0
C338 C 0.80098 0.60024 0.67723 0.0
C339 C 0.91327 0.61863 0.72302 0.0
C340 C 0.86064 0.63894 0.92881 0.0
C341 C 0.85154 0.61114 -0.02339 0.0
C342 C 0.86202 0.63863 0.83699 0.0
C343 C 0.85341 0.60967 0.79345 0.0
C344 C 0.84239 0.58115 0.84106 0.0
C345 C 0.84186 0.58228 0.933 0.0
C346 C 0.87408 0.66946 0.78704 0.0
C347 C 0.83226 0.54982 0.79523 0.0
H348 H 0.8196 0.60879 0.50715 0.0
H349 H 0.91296 0.62162 0.54389 0.0
H350 H 0.79117 0.57966 0.72285 0.0
H351 H 0.80414 0.62109 0.71568 0.0
H352 H 0.78337 0.59527 0.62341 0.0
H353 H 0.93404 0.62169 0.68488 0.0
H354 H 0.92107 0.63966 0.76675 0.0
H355 H 0.90504 0.59759 0.76635 0.0
H356 H 0.86815 0.66121 0.96327 0.0
H357 H 0.83446 0.56075 -0.02919 0.0
H358 H 0.85646 0.66712 0.73616 0.0
H359 H 0.89625 0.67512 0.752 0.0
H360 H 0.87904 0.68971 0.83137 0.0
H361 H 0.81479 0.54562 0.74178 0.0
H362 H 0.82157 0.52948 0.8418 0.0
H363 H 0.8531 0.55045 0.76384 0.0
C364 C 0.20403 0.79263 -0.00236 0.0
C365 C 0.2285 0.79498 0.05115 0.0
C366 C 0.20774 0.79495 0.90633 0.0
C367 C 0.23685 0.80049 0.87051 0.0
C368 C 0.26189 0.80361 0.9253 0.0
C369 C 0.25719 0.80042 0.01609 0.0
C370 C 0.18052 0.79103 0.84836 0.0
C371 C 0.29332 0.81009 0.88814 0.0
C372 C 0.23049 0.77281 0.63757 0.0
C373 C 0.23899 0.80095 0.59186 0.0
C374 C 0.23088 0.77261 0.72937 0.0
C375 C 0.2403 0.80131 0.77511 0.0
C376 C 0.25048 0.83013 0.72961 0.0
C377 C 0.24951 0.82957 0.63756 0.0
C378 C 0.21969 0.74149 0.77715 0.0
C379 C 0.26111 0.86111 0.77798 0.0
H380 H 0.18212 0.78873 0.02722 0.0
H381 H 0.27602 0.8027 0.05995 0.0
H382 H 0.18821 0.81244 0.80687 0.0
H383 H 0.17304 0.77052 0.80285 0.0
H384 H 0.15965 0.7871 0.88759 0.0
H385 H 0.31089 0.81381 0.94101 0.0
H386 H 0.28976 0.78985 0.84601 0.0
H387 H 0.30339 0.83147 0.84549 0.0
H388 H 0.22249 0.7507 0.6018 0.0
H389 H 0.25649 0.85137 0.60159 0.0
H390 H 0.19744 0.73498 0.81297 0.0
H391 H 0.23757 0.74385 0.82715 0.0
H392 H 0.21511 0.72176 0.73117 0.0
H393 H 0.24058 0.86025 0.81202 0.0
H394 H 0.27139 0.88179 0.73254 0.0
H395 H 0.27906 0.8649 0.82956 0.0
C396 C 0.36547 0.09805 0.5692 0.0
C397 C 0.3548 0.12005 0.5674 0.0
C398 C 0.346 0.06664 0.54059 0.0
C399 C 0.31473 0.05665 0.51072 0.0
C400 C 0.303 0.07809 0.51443 0.0
C401 C 0.32326 0.10967 0.54248 0.0
C402 C 0.35952 0.04462 0.53815 0.0
C403 C 0.26958 0.06811 0.48504 0.0
C404 C 0.28366 0.98841 0.34551 0.0
C405 C 0.26741 0.9619 0.40065 0.0
C406 C 0.29785 0.01948 0.37975 0.0
C407 C 0.29537 0.02429 0.4712 0.0
C408 C 0.27741 0.99778 0.52619 0.0
C409 C 0.26396 0.96697 0.49059 0.0
C410 C 0.31693 0.04712 0.31883 0.0
C411 C 0.2738 1.00184 0.62376 0.0
H412 H 0.38966 0.1058 0.59001 0.0
H413 H 0.3149 0.12657 0.54073 0.0
H414 H 0.34406 0.02252 0.57511 0.0
H415 H 0.36037 0.03769 0.46863 0.0
H416 H 0.38386 0.05573 0.5669 0.0
H417 H 0.2628 0.08613 0.50239 0.0
H418 H 0.26746 0.06458 0.41221 0.0
H419 H 0.25244 0.04513 0.51563 0.0
H420 H 0.28596 0.98491 0.27571 0.0
H421 H 0.25193 0.94687 0.53459 0.0
H422 H 0.3424 0.05888 0.33813 0.0
H423 H 0.30933 0.06507 0.325 0.0
H424 H 0.31457 0.03961 0.24838 0.0
H425 H 0.29667 1.00935 0.65851 0.0
H426 H 0.25528 0.97947 0.65432 0.0
H427 H 0.26762 0.02067 0.63466 0.0
C428 C 0.42457 0.35504 0.55636 0.0
C429 C 0.41811 0.32724 0.60117 0.0
C430 C 0.40681 0.37009 0.57267 0.0
C431 C 0.38292 0.3578 0.63819 0.0
C432 C 0.37614 0.3295 0.68304 0.0
C433 C 0.39344 0.31425 0.66281 0.0
C434 C 0.4141 0.39954 0.52106 0.0
C435 C 0.35171 0.3162 0.75543 0.0
C436 C 0.36576 0.41953 0.73833 0.0
C437 C 0.33713 0.41228 0.69629 0.0
C438 C 0.38007 0.40097 0.72339 0.0
C439 C 0.36609 0.37537 0.66206 0.0
C440 C 0.33688 0.36771 0.62045 0.0
C441 C 0.32248 0.38592 0.63929 0.0
C442 C 0.41058 0.40929 0.77163 0.0
C443 C 0.3217 0.34136 0.55251 0.0
H444 H 0.4437 0.36513 0.50885 0.0
H445 H 0.38884 0.29307 0.69875 0.0
H446 H 0.39193 0.3972 0.49245 0.0
H447 H 0.42447 0.42047 0.56594 0.0
H448 H 0.43106 0.40417 0.46657 0.0
H449 H 0.34849 0.29346 0.78192 0.0
H450 H 0.35914 0.33364 0.81062 0.0
H451 H 0.32848 0.31219 0.73055 0.0
H452 H 0.37712 0.43992 0.78236 0.0
H453 H 0.3006 0.38061 0.60551 0.0
H454 H 0.43043 0.41854 0.724 0.0
H455 H 0.40883 0.38776 0.8025 0.0
H456 H 0.41648 0.42753 0.82395 0.0
H457 H 0.33763 0.34725 0.49479 0.0
H458 H 0.29835 0.33753 0.52885 0.0
H459 H 0.31831 0.31878 0.58041 0.0
C460 C 0.98431 0.24565 0.81857 0.0
C461 C 0.97834 0.26247 0.88376 0.0
C462 C 1.01521 0.25712 0.78627 0.0
C463 C 0.04057 0.28589 0.82061 0.0
C464 C 0.03485 0.30149 0.89137 0.0
C465 C 1.00377 0.28973 0.92147 0.0
C466 C 1.02022 0.23979 0.71084 0.0
C467 C 0.06118 0.33195 0.93099 0.0
C468 C 0.12817 0.31791 0.77377 0.0
C469 C 0.13417 0.34222 0.71371 0.0
C470 C 0.0973 0.29785 0.8056 0.0
C471 C 0.07201 0.30218 0.7759 0.0
C472 C 0.07772 0.32517 0.71007 0.0
C473 C 0.10876 0.34506 0.68038 0.0
C474 C 0.09228 0.2737 0.87568 0.0
C475 C 0.05144 0.33032 0.67536 0.0
H476 H 0.96453 0.22477 0.78868 0.0
H477 H 0.99904 0.30276 -0.02837 0.0
H478 H 0.02345 0.25316 0.64859 0.0
H479 H 0.04199 0.23827 0.72189 0.0
H480 H 0.99969 0.21541 0.7018 0.0
H481 H 0.05362 0.33898 -0.00794 0.0
H482 H 0.08211 0.32944 0.94711 0.0
H483 H 0.06882 0.35141 0.88209 0.0
H484 H 0.1479 0.31595 0.80024 0.0
H485 H 0.11347 0.36389 0.63389 0.0
H486 H 0.07049 0.2507 0.86144 0.0
H487 H 0.08905 0.28226 0.94075 0.0
H488 H 0.11278 0.26966 0.88107 0.0
H489 H 0.03049 0.30735 0.65569 0.0
H490 H 0.05903 0.34652 0.61751 0.0
H491 H 0.04383 0.3408 0.7284 0.0
C492 C 0.71036 0.97635 0.94383 0.0
C493 C 0.68499 0.96567 0.00295 0.0
C494 C 0.72866 1.00868 0.92206 0.0
C495 C 0.72219 0.03103 0.96293 0.0
C496 C 0.69726 0.02044 0.02516 0.0
C497 C 0.67852 0.98778 0.04298 0.0
C498 C 0.75413 0.01872 0.85296 0.0
C499 C 0.69022 0.04357 0.0724 0.0
C500 C 0.78599 0.11856 0.96456 0.0
C501 C 0.77354 0.13129 0.90357 0.0
C502 C 0.76972 0.08592 -0.01597 0.0
C503 C 0.74088 0.06539 0.93907 0.0
C504 C 0.72921 0.07797 0.87367 0.0
C505 C 0.74533 0.11087 0.8581 0.0
C506 C 0.78249 0.07372 0.05607 0.0
C507 C 0.69924 0.05681 0.82178 0.0
H508 H 0.71503 0.95918 0.91159 0.0
H509 H 0.65889 0.97952 0.08862 0.0
H510 H 0.74872 0.02991 0.79648 0.0
H511 H 0.77744 0.03678 0.8808 0.0
H512 H 0.75624 0.99841 0.82752 0.0
H513 H 0.67181 0.03184 0.12395 0.0
H514 H 0.71217 0.06269 0.10411 0.0
H515 H 0.68186 0.05501 0.02406 0.0
H516 H 0.8075 0.13444 0.00101 0.0
H517 H 0.73565 0.12074 0.8111 0.0
H518 H 0.78532 0.05387 0.0308 0.0
H519 H 0.76531 0.06425 0.11126 0.0
H520 H 0.80573 0.09253 0.08268 0.0
H521 H 0.70026 0.03625 0.79364 0.0
H522 H 0.69527 0.0697 0.76693 0.0
H523 H 0.6785 0.04724 0.86637 0.0
C524 C 0.79817 0.74188 0.21475 0.0
C525 C 0.82978 0.74909 0.20711 0.0
C526 C 0.78856 0.76327 0.18675 0.0
C527 C 0.81119 0.79292 0.15086 0.0
C528 C 0.84352 0.80115 0.14736 0.0
C529 C 0.85247 0.77906 0.17545 0.0
C530 C 0.75386 0.75352 0.19256 0.0
C531 C 0.86839 0.83269 0.11074 0.0
C532 C 0.77024 0.82357 -0.0008 0.0
C533 C 0.76347 0.84136 0.05879 0.0
C534 C 0.78846 0.80988 0.02601 0.0
C535 C 0.80014 0.81428 0.11432 0.0
C536 C 0.79588 0.83484 0.17176 0.0
C537 C 0.77729 0.84789 0.14352 0.0
C538 C 0.79243 0.78814 0.9626 0.0
C539 C 0.80833 0.84066 0.26576 0.0
H540 H 0.78065 0.71894 0.24052 0.0
H541 H 0.87691 0.78469 0.16899 0.0
H542 H 0.75106 0.77135 0.23129 0.0
H543 H 0.74411 0.75254 0.12521 0.0
H544 H 0.73946 0.72993 0.22407 0.0
H545 H 0.89283 0.83715 0.12303 0.0
H546 H 0.86477 0.83313 0.03826 0.0
H547 H 0.86618 0.85237 0.14046 0.0
H548 H 0.75918 0.81826 0.93407 0.0
H549 H 0.77178 0.86152 0.18967 0.0
H550 H 0.77667 0.76309 -0.01732 0.0
H551 H 0.81717 0.79275 0.96454 0.0
H552 H 0.78629 0.79095 0.89345 0.0
H553 H 0.793 0.81953 0.30652 0.0
H554 H 0.80849 0.86162 0.2957 0.0
H555 H 0.83275 0.84435 0.26866 0.0
C556 C 0.98318 0.66959 0.18857 0.0
C557 C 0.96311 0.67719 0.23539 0.0
C558 C 1.01625 0.687 0.20157 0.0
C559 C 0.02941 0.71172 0.26564 0.0
C560 C 1.0092 0.71971 0.31231 0.0
C561 C 0.97634 0.7027 0.29543 0.0
C562 C 0.03703 0.67846 0.14809 0.0
C563 C 0.02207 0.74514 0.38316 0.0
C564 C 0.10925 0.72938 0.36163 0.0
C565 C 0.13017 0.75773 0.31882 0.0
C566 C 0.07629 0.71484 0.34751 0.0
C567 C 0.06412 0.72828 0.28627 0.0
C568 C 0.08524 0.75699 0.24304 0.0
C569 C 0.11797 0.77168 0.26111 0.0
C570 C 0.05454 0.68486 0.39731 0.0
C571 C 0.07341 0.77151 0.17506 0.0
H572 H 0.97295 0.64984 0.1422 0.0
H573 H 0.96078 0.70826 0.33283 0.0
H574 H 0.05663 0.70007 0.11749 0.0
H575 H 0.04797 0.66825 0.1921 0.0
H576 H 0.0235 0.66091 0.09494 0.0
H577 H 1.00335 0.74912 0.41163 0.0
H578 H 0.03291 0.73821 0.43735 0.0
H579 H 0.04102 0.76791 0.35597 0.0
H580 H 0.1187 0.71861 0.40624 0.0
H581 H 0.1342 0.79335 0.22682 0.0
H582 H 0.04272 0.66459 0.35039 0.0
H583 H 0.03563 0.68738 0.43045 0.0
H584 H 0.06749 0.67904 0.44806 0.0
H585 H 0.06179 0.75457 0.11934 0.0
H586 H 0.09285 0.79414 0.14822 0.0
H587 H 0.0553 0.77615 0.20441 0.0
C588 C 0.64377 0.46797 0.55609 0.0
C589 C 0.61806 0.4481 0.50127 0.0
C590 C 0.67222 0.49209 0.51966 0.0
C591 C 0.67472 0.49629 0.42651 0.0
C592 C 0.64786 0.47778 0.37191 0.0
C593 C 0.61991 0.45379 0.40996 0.0
C594 C 0.70029 0.51138 0.58016 0.0
C595 C 0.64932 0.48162 0.27256 0.0
C596 C 0.74696 0.56821 0.32907 0.0
C597 C 0.76647 0.55546 0.30852 0.0
C598 C 0.71696 0.5493 0.36721 0.0
C599 C 0.70623 0.51692 0.38526 0.0
C600 C 0.72555 0.5038 0.36294 0.0
C601 C 0.75534 0.52318 0.32482 0.0
C602 C 0.69697 0.56407 0.38961 0.0
C603 C 0.71497 0.46933 0.38063 0.0
H604 H 0.64238 0.46329 0.62658 0.0
H605 H 0.59995 0.43827 0.36771 0.0
H606 H 0.71821 0.50388 0.57085 0.0
H607 H 0.71182 0.53699 0.56364 0.0
H608 H 0.69341 0.50826 0.65097 0.0
H609 H 0.62542 0.46855 0.24104 0.0
H610 H 0.66049 0.50707 0.25454 0.0
H611 H 0.6642 0.4724 0.24469 0.0
H612 H 0.75541 0.59317 0.31723 0.0
H613 H 0.77022 0.5131 0.30941 0.0
H614 H 0.69307 0.56292 0.4621 0.0
H615 H 0.6733 0.55054 0.35728 0.0
H616 H 0.70821 0.58928 0.36858 0.0
H617 H 0.71068 0.46437 0.45243 0.0
H618 H 0.73276 0.4628 0.35918 0.0
H619 H 0.69225 0.45377 0.3454 0.0
C620 C 0.2901 0.57188 0.61845 0.0
C621 C 0.26773 0.53959 0.62978 0.0
C622 C 0.28144 0.59288 0.58066 0.0
C623 C 0.24956 0.58144 0.55387 0.0
C624 C 0.22663 0.54912 0.56778 0.0
C625 C 0.23599 0.52856 0.60541 0.0
C626 C 0.30664 0.62716 0.56719 0.0
C627 C 0.19235 0.53611 0.54097 0.0
C628 C 0.22524 0.64391 0.5208 0.0
C629 C 0.22778 0.64834 0.42862 0.0
C630 C 0.23132 0.62158 0.56204 0.0
C631 C 0.24052 0.60335 0.5102 0.0
C632 C 0.24264 0.60725 0.41705 0.0
C633 C 0.23621 0.62965 0.37739 0.0
C634 C 0.22878 0.61819 0.66148 0.0
C635 C 0.25242 0.58827 0.35945 0.0
H636 H 0.3147 0.58068 0.63687 0.0
H637 H 0.21854 0.50367 0.61372 0.0
H638 H 0.30904 0.6328 0.4955 0.0
H639 H 0.29964 0.64313 0.59999 0.0
H640 H 0.33017 0.6325 0.59379 0.0
H641 H 0.17717 0.51081 0.55992 0.0
H642 H 0.18286 0.55027 0.57223 0.0
H643 H 0.19058 0.53809 0.46822 0.0
H644 H 0.21941 0.65862 0.56148 0.0
H645 H 0.23793 0.63262 0.30617 0.0
H646 H 0.25254 0.6259 0.69079 0.0
H647 H 0.21315 0.59292 0.67962 0.0
H648 H 0.21926 0.63254 0.69163 0.0
H649 H 0.27689 0.59398 0.37741 0.0
H650 H 0.25175 0.59318 0.28787 0.0
H651 H 0.23658 0.56248 0.37083 0.0
C652 C 0.64975 0.2127 0.72372 0.0
C653 C 0.65607 0.21495 0.81494 0.0
C654 C 0.62516 0.21676 0.68925 0.0
C655 C 0.60678 0.22373 0.74744 0.0
C656 C 0.61185 0.2241 0.84019 0.0
C657 C 0.63643 0.21954 0.87297 0.0
C658 C 0.62031 0.21569 0.59017 0.0
C659 C 0.59282 0.23155 0.9044 0.0
C660 C 0.5764 0.27693 0.65954 0.0
C661 C 0.54405 0.25531 0.64538 0.0
C662 C 0.59697 0.26684 0.69226 0.0
C663 C 0.58501 0.23426 0.71083 0.0
C664 C 0.55258 0.21213 0.69431 0.0
C665 C 0.53245 0.22293 0.66197 0.0
C666 C 0.63143 0.29124 0.70868 0.0
C667 C 0.53905 0.17717 0.71233 0.0
H668 H 0.66501 0.20911 0.67897 0.0
H669 H 0.64156 0.22156 0.94343 0.0
H670 H 0.59475 0.20107 0.57289 0.0
H671 H 0.62861 0.24007 0.56538 0.0
H672 H 0.63355 0.20587 0.5552 0.0
H673 H 0.59718 0.22746 -0.02579 0.0
H674 H 0.5993 0.25681 0.89733 0.0
H675 H 0.56708 0.21683 0.88953 0.0
H676 H 0.58562 0.302 0.64714 0.0
H677 H 0.50747 0.20603 0.6514 0.0
H678 H 0.64691 0.28509 0.66995 0.0
H679 H 0.63747 0.29123 0.77968 0.0
H680 H 0.63699 0.31563 0.69044 0.0
H681 H 0.55276 0.16815 0.67633 0.0
H682 H 0.51368 0.16285 0.6923 0.0
H683 H 0.54117 0.17349 0.78398 0.0
C684 C 0.57801 0.74668 0.96057 0.0
C685 C 0.56531 0.7664 -0.02076 0.0
C686 C 0.55872 0.71573 0.92701 0.0
C687 C 0.52603 0.70429 0.91133 0.0
C688 C 0.51292 0.72371 0.93278 0.0
C689 C 0.53266 0.75441 0.9667 0.0
C690 C 0.57348 0.6956 0.90611 0.0
C691 C 0.47814 0.71242 0.91746 0.0
C692 C 0.47661 0.63979 0.74262 0.0
C693 C 0.4574 0.61441 0.79808 0.0
C694 C 0.50048 0.66882 0.77828 0.0
C695 C 0.50527 0.67226 0.87136 0.0
C696 C 0.48742 0.6458 0.92676 0.0
C697 C 0.46352 0.61727 0.88946 0.0
C698 C 0.51894 0.69647 0.71694 0.0
C699 C 0.49202 0.64822 0.02601 0.0
H700 H 0.60322 0.75572 -0.03012 0.0
H701 H 0.52258 0.7694 -0.01922 0.0
H702 H 0.5601 0.67214 0.93878 0.0
H703 H 0.57218 0.69117 0.83373 0.0
H704 H 0.59873 0.70709 0.92767 0.0
H705 H 0.47156 0.73021 0.93898 0.0
H706 H 0.47223 0.70728 0.84604 0.0
H707 H 0.46334 0.69001 0.95392 0.0
H708 H 0.47158 0.63762 0.67209 0.0
H709 H 0.44853 0.59756 0.93225 0.0
H710 H 0.54472 0.70811 0.73198 0.0
H711 H 0.51158 0.71448 0.72708 0.0
H712 H 0.51496 0.68908 0.64622 0.0
H713 H 0.51762 0.65999 0.04357 0.0
H714 H 0.47958 0.62455 0.0582 0.0
H715 H 0.4826 0.663 0.05358 0.0
C716 C 0.88508 0.47487 0.06008 0.0
C717 C 0.88327 0.47827 0.1516 0.0
C718 C 0.8824 0.44702 0.02405 0.0
C719 C 0.8772 0.42176 0.08097 0.0
C720 C 0.8773 0.4259 0.174 0.0
C721 C 0.8805 0.45429 0.20834 0.0
C722 C 0.88289 0.44383 0.92472 0.0
C723 C 0.87164 0.3995 0.23693 0.0
C724 C 0.8254 0.3384 -0.01049 0.0
C725 C 0.84757 0.32862 -0.02711 0.0
C726 C 0.83484 0.36857 0.02464 0.0
C727 C 0.86738 0.38982 0.04285 0.0
C728 C 0.89006 0.38051 0.02413 0.0
C729 C 0.87987 0.34993 -0.01025 0.0
C730 C 0.80983 0.37748 0.04374 0.0
C731 C 0.92497 0.40268 0.04146 0.0
H732 H 0.88722 0.49353 0.01637 0.0
H733 H 0.87883 0.45691 0.27907 0.0
H734 H 0.89808 0.43376 0.90599 0.0
H735 H 0.85851 0.42725 0.90008 0.0
H736 H 0.89169 0.467 0.89084 0.0
H737 H 0.87631 0.40773 0.30692 0.0
H738 H 0.8466 0.38008 0.23076 0.0
H739 H 0.88691 0.38934 0.22003 0.0
H740 H 0.80038 0.32213 -0.02292 0.0
H741 H 0.89717 0.34258 -0.02275 0.0
H742 H 0.81476 0.39899 0.0058 0.0
H743 H 0.81047 0.38328 0.11506 0.0
H744 H 0.78552 0.35812 0.02641 0.0
H745 H 0.93304 0.42541 0.00602 0.0
H746 H 0.93971 0.39233 0.02024 0.0
H747 H 0.92916 0.40837 0.11316 0.0
C748 C 0.45638 0.87064 0.04995 0.0
C749 C 0.48104 0.87622 0.10885 0.0
C750 C 0.42704 0.86554 0.08157 0.0
C751 C 0.42251 0.86635 0.17404 0.0
C752 C 0.44818 0.87419 0.233 0.0
C753 C 0.47704 0.87884 0.19972 0.0
C754 C 0.40026 0.8572 0.0165 0.0
C755 C 0.4446 0.87568 0.33182 0.0
C756 C 0.34873 0.86633 0.25819 0.0
C757 C 0.32853 0.83401 0.27681 0.0
C758 C 0.37945 0.87734 0.22509 0.0
C759 C 0.39019 0.85552 0.20992 0.0
C760 C 0.37011 0.82299 0.23012 0.0
C761 C 0.33966 0.81269 0.26344 0.0
C762 C 0.40024 0.91222 0.20508 0.0
C763 C 0.3806 0.79889 0.2152 0.0
H764 H 0.45939 0.86838 -0.02022 0.0
H765 H 0.4962 0.88331 0.24526 0.0
H766 H 0.38186 0.83186 0.02441 0.0
H767 H 0.3888 0.87158 0.02974 0.0
H768 H 0.40849 0.86102 0.94685 0.0
H769 H 0.46774 0.88583 0.36744 0.0
H770 H 0.4335 0.89022 0.34754 0.0
H771 H 0.42873 0.85139 0.35729 0.0
H772 H 0.34032 0.88298 0.26775 0.0
H773 H 0.32427 0.78766 0.27717 0.0
H774 H 0.40585 0.91542 0.13348 0.0
H775 H 0.4231 0.92193 0.24172 0.0
H776 H 0.38878 0.92628 0.22302 0.0
H777 H 0.3864 0.79867 0.14439 0.0
H778 H 0.36212 0.77448 0.23408 0.0
H779 H 0.40246 0.80551 0.2543 0.0
loop_
_geom_bond_atom_site_label_1
_geom_bond_atom_site_label_2
_geom_bond_distance
_geom_bond_site_symmetry_2
_ccdc_geom_bond_type
C0 O16 1.251 . S
C0 O18 1.254 . S
N1 C2 1.333 . S
N1 C6 1.307 . S
N1 Zn7 2.020 . S
C2 N1 1.333 . S
C2 C3 1.379 . S
C2 H20 0.952 . S
C3 C2 1.379 . S
C3 C4 1.390 . S
C3 H30 0.949 . S
C4 C3 1.390 . S
C4 C5 1.357 . S
C5 C4 1.357 . S
C5 C6 1.370 . S
C5 H31 0.950 . S
C6 N1 1.307 . S
C6 C5 1.370 . S
C6 H24 0.948 . S
Zn7 N1 2.020 . S
Zn7 O16 2.039 . S
Zn7 O22 2.034 . S
Zn7 O26 2.025 . S
Zn7 O28 2.024 . S
C8 O27 1.246 . S
C8 O28 1.249 . S
N9 C10 1.307 . S
N9 C11 1.333 . S
N9 Zn15 2.020 . S
C10 N9 1.307 . S
C10 C14 1.370 . S
C10 H21 0.948 . S
C11 N9 1.333 . S
C11 C12 1.379 . S
C11 H19 0.952 . S
C12 C11 1.379 . S
C12 C13 1.390 . S
C12 H32 0.949 . S
C13 C12 1.390 . S
C13 C14 1.357 . S
C14 C10 1.370 . S
C14 C13 1.357 . S
C14 H33 0.950 . S
Zn15 N9 2.020 . S
Zn15 O18 2.025 . S
Zn15 O23 2.024 . S
Zn15 O25 2.039 . S
Zn15 O27 2.034 . S
O16 C0 1.251 . S
O16 Zn7 2.039 . S
C17 O22 1.246 . S
C17 O23 1.249 . S
O18 C0 1.254 . S
O18 Zn15 2.025 . S
H19 C11 0.952 . S
H20 C2 0.952 . S
H21 C10 0.948 . S
O22 Zn7 2.034 . S
O22 C17 1.246 . S
O23 Zn15 2.024 . S
O23 C17 1.249 . S
H24 C6 0.948 . S
O25 Zn15 2.039 . S
O25 C29 1.251 . S
O26 Zn7 2.025 . S
O26 C29 1.254 . S
O27 C8 1.246 . S
O27 Zn15 2.034 . S
O28 Zn7 2.024 . S
O28 C8 1.249 . S
C29 O25 1.251 . S
C29 O26 1.254 . S
H30 C3 0.949 . S
H31 C5 0.950 . S
H32 C12 0.949 . S
H33 C14 0.950 . S
C34 O50 1.251 . S
C34 O52 1.254 . S
N35 C36 1.333 . S
N35 C40 1.307 . S
N35 Zn41 2.020 . S
C36 N35 1.333 . S
C36 C37 1.379 . S
C36 H54 0.952 . S
C37 C36 1.379 . S
C37 C38 1.390 . S
C37 H64 0.949 . S
C38 C37 1.390 . S
C38 C39 1.357 . S
C39 C38 1.357 . S
C39 C40 1.370 . S
C39 H65 0.950 . S
C40 N35 1.307 . S
C40 C39 1.370 . S
C40 H58 0.948 . S
Zn41 N35 2.020 . S
Zn41 O50 2.039 . S
Zn41 O56 2.034 . S
Zn41 O60 2.025 . S
Zn41 O62 2.024 . S
C42 O61 1.246 . S
C42 O62 1.249 . S
N43 C44 1.307 . S
N43 C45 1.333 . S
N43 Zn49 2.020 . S
C44 N43 1.307 . S
C44 C48 1.370 . S
C44 H55 0.948 . S
C45 N43 1.333 . S
C45 C46 1.379 . S
C45 H53 0.952 . S
C46 C45 1.379 . S
C46 C47 1.390 . S
C46 H66 0.949 . S
C47 C46 1.390 . S
C47 C48 1.357 . S
C48 C44 1.370 . S
C48 C47 1.357 . S
C48 H67 0.950 . S
Zn49 N43 2.020 . S
Zn49 O52 2.025 . S
Zn49 O57 2.024 . S
Zn49 O59 2.039 . S
Zn49 O61 2.034 . S
O50 C34 1.251 . S
O50 Zn41 2.039 . S
C51 O56 1.246 . S
C51 O57 1.249 . S
O52 C34 1.254 . S
O52 Zn49 2.025 . S
H53 C45 0.952 . S
H54 C36 0.952 . S
H55 C44 0.948 . S
O56 Zn41 2.034 . S
O56 C51 1.246 . S
O57 Zn49 2.024 . S
O57 C51 1.249 . S
H58 C40 0.948 . S
O59 Zn49 2.039 . S
O59 C63 1.251 . S
O60 Zn41 2.025 . S
O60 C63 1.254 . S
O61 C42 1.246 . S
O61 Zn49 2.034 . S
O62 Zn41 2.024 . S
O62 C42 1.249 . S
C63 O59 1.251 . S
C63 O60 1.254 . S
H64 C37 0.949 . S
H65 C39 0.950 . S
H66 C46 0.949 . S
H67 C48 0.950 . S
C68 O84 1.251 . S
C68 O86 1.254 . S
N69 C70 1.333 . S
N69 C74 1.307 . S
N69 Zn75 2.020 . S
C70 N69 1.333 . S
C70 C71 1.379 . S
C70 H88 0.952 . S
C71 C70 1.379 . S
C71 C72 1.390 . S
C71 H98 0.949 . S
C72 C71 1.390 . S
C72 C73 1.357 . S
C73 C72 1.357 . S
C73 C74 1.370 . S
C73 H99 0.950 1_556 S
C74 N69 1.307 . S
C74 C73 1.370 . S
C74 H92 0.948 1_556 S
Zn75 N69 2.020 . S
Zn75 O84 2.039 . S
Zn75 O90 2.034 . S
Zn75 O94 2.025 1_556 S
Zn75 O96 2.024 . S
C76 O95 1.246 . S
C76 O96 1.249 . S
N77 C78 1.307 . S
N77 C79 1.333 1_556 S
N77 Zn83 2.020 . S
C78 N77 1.307 . S
C78 C82 1.370 . S
C78 H89 0.948 . S
C79 N77 1.333 1_554 S
C79 C80 1.379 . S
C79 H87 0.952 . S
C80 C79 1.379 . S
C80 C81 1.390 1_554 S
C80 H100 0.949 . S
C81 C80 1.390 1_556 S
C81 C82 1.357 . S
C82 C78 1.370 . S
C82 C81 1.357 . S
C82 H101 0.950 . S
Zn83 N77 2.020 . S
Zn83 O86 2.025 . S
Zn83 O91 2.024 . S
Zn83 O93 2.039 1_556 S
Zn83 O95 2.034 . S
O84 C68 1.251 . S
O84 Zn75 2.039 . S
C85 O90 1.246 . S
C85 O91 1.249 . S
O86 C68 1.254 . S
O86 Zn83 2.025 . S
H87 C79 0.952 . S
H88 C70 0.952 . S
H89 C78 0.948 . S
O90 Zn75 2.034 . S
O90 C85 1.246 . S
O91 Zn83 2.024 . S
O91 C85 1.249 . S
H92 C74 0.948 1_554 S
O93 Zn83 2.039 1_554 S
O93 C97 1.251 . S
O94 Zn75 2.025 1_554 S
O94 C97 1.254 . S
O95 C76 1.246 . S
O95 Zn83 2.034 . S
O96 Zn75 2.024 . S
O96 C76 1.249 . S
C97 O93 1.251 . S
C97 O94 1.254 . S
H98 C71 0.949 . S
H99 C73 0.950 1_554 S
H100 C80 0.949 . S
H101 C82 0.950 . S
C102 O118 1.251 . S
C102 O120 1.254 . S
N103 C104 1.333 . S
N103 C108 1.307 . S
N103 Zn109 2.020 . S
C104 N103 1.333 . S
C104 C105 1.379 . S
C104 H122 0.952 . S
C105 C104 1.379 . S
C105 C106 1.390 . S
C105 H132 0.949 . S
C106 C105 1.390 . S
C106 C107 1.357 . S
C107 C106 1.357 . S
C107 C108 1.370 . S
C107 H133 0.950 1_554 S
C108 N103 1.307 . S
C108 C107 1.370 . S
C108 H126 0.948 1_554 S
Zn109 N103 2.020 . S
Zn109 O118 2.039 . S
Zn109 O124 2.034 . S
Zn109 O128 2.025 1_554 S
Zn109 O130 2.024 . S
C110 O129 1.246 . S
C110 O130 1.249 . S
N111 C112 1.307 . S
N111 C113 1.333 1_554 S
N111 Zn117 2.020 . S
C112 N111 1.307 . S
C112 C116 1.370 . S
C112 H123 0.948 . S
C113 N111 1.333 1_556 S
C113 C114 1.379 . S
C113 H121 0.952 . S
C114 C113 1.379 . S
C114 C115 1.390 1_556 S
C114 H134 0.949 . S
C115 C114 1.390 1_554 S
C115 C116 1.357 . S
C116 C112 1.370 . S
C116 C115 1.357 . S
C116 H135 0.950 . S
Zn117 N111 2.020 . S
Zn117 O120 2.025 . S
Zn117 O125 2.024 . S
Zn117 O127 2.039 1_554 S
Zn117 O129 2.034 . S
O118 C102 1.251 . S
O118 Zn109 2.039 . S
C119 O124 1.246 . S
C119 O125 1.249 . S
O120 C102 1.254 . S
O120 Zn117 2.025 . S
H121 C113 0.952 . S
H122 C104 0.952 . S
H123 C112 0.948 . S
O124 Zn109 2.034 . S
O124 C119 1.246 . S
O125 Zn117 2.024 . S
O125 C119 1.249 . S
H126 C108 0.948 1_556 S
O127 Zn117 2.039 1_556 S
O127 C131 1.251 . S
O128 Zn109 2.025 1_556 S
O128 C131 1.254 . S
O129 C110 1.246 . S
O129 Zn117 2.034 . S
O130 Zn109 2.024 . S
O130 C110 1.249 . S
C131 O127 1.251 . S
C131 O128 1.254 . S
H132 C105 0.949 . S
H133 C107 0.950 1_556 S
H134 C114 0.949 . S
H135 C116 0.950 . S
C136 O152 1.251 . S
C136 O154 1.254 . S
N137 C138 1.333 . S
N137 C142 1.307 . S
N137 Zn143 2.020 . S
C138 N137 1.333 . S
C138 C139 1.379 . S
C138 H156 0.952 . S
C139 C138 1.379 . S
C139 C140 1.390 . S
C139 H166 0.949 . S
C140 C139 1.390 . S
C140 C141 1.357 . S
C141 C140 1.357 . S
C141 C142 1.370 . S
C141 H167 0.950 . S
C142 N137 1.307 . S
C142 C141 1.370 . S
C142 H160 0.948 . S
Zn143 N137 2.020 . S
Zn143 O152 2.039 . S
Zn143 O158 2.034 . S
Zn143 O162 2.025 . S
Zn143 O164 2.024 . S
C144 O163 1.246 . S
C144 O164 1.249 . S
N145 C146 1.307 . S
N145 C147 1.333 . S
N145 Zn151 2.020 . S
C146 N145 1.307 . S
C146 C150 1.370 . S
C146 H157 0.948 . S
C147 N145 1.333 . S
C147 C148 1.379 . S
C147 H155 0.952 . S
C148 C147 1.379 . S
C148 C149 1.390 . S
C148 H168 0.949 . S
C149 C148 1.390 . S
C149 C150 1.357 . S
C150 C146 1.370 . S
C150 C149 1.357 . S
C150 H169 0.950 . S
Zn151 N145 2.020 . S
Zn151 O154 2.025 . S
Zn151 O159 2.024 . S
Zn151 O161 2.039 . S
Zn151 O163 2.034 . S
O152 C136 1.251 . S
O152 Zn143 2.039 . S
C153 O158 1.246 . S
C153 O159 1.249 . S
O154 C136 1.254 . S
O154 Zn151 2.025 . S
H155 C147 0.952 . S
H156 C138 0.952 . S
H157 C146 0.948 . S
O158 Zn143 2.034 . S
O158 C153 1.246 . S
O159 Zn151 2.024 . S
O159 C153 1.249 . S
H160 C142 0.948 . S
O161 Zn151 2.039 . S
O161 C165 1.251 . S
O162 Zn143 2.025 . S
O162 C165 1.254 . S
O163 C144 1.246 . S
O163 Zn151 2.034 . S
O164 Zn143 2.024 . S
O164 C144 1.249 . S
C165 O161 1.251 . S
C165 O162 1.254 . S
H166 C139 0.949 . S
H167 C141 0.950 . S
H168 C148 0.949 . S
H169 C150 0.950 . S
C170 O186 1.251 . S
C170 O188 1.254 . S
N171 C172 1.333 . S
N171 C176 1.307 . S
N171 Zn177 2.020 . S
C172 N171 1.333 . S
C172 C173 1.379 . S
C172 H190 0.952 . S
C173 C172 1.379 . S
C173 C174 1.390 . S
C173 H200 0.949 . S
C174 C173 1.390 . S
C174 C175 1.357 . S
C175 C174 1.357 . S
C175 C176 1.370 . S
C175 H201 0.950 . S
C176 N171 1.307 . S
C176 C175 1.370 . S
C176 H194 0.948 . S
Zn177 N171 2.020 . S
Zn177 O186 2.039 . S
Zn177 O192 2.034 . S
Zn177 O196 2.025 . S
Zn177 O198 2.024 . S
C178 O197 1.246 . S
C178 O198 1.249 . S
N179 C180 1.307 . S
N179 C181 1.333 . S
N179 Zn185 2.020 . S
C180 N179 1.307 . S
C180 C184 1.370 . S
C180 H191 0.948 . S
C181 N179 1.333 . S
C181 C182 1.379 . S
C181 H189 0.952 . S
C182 C181 1.379 . S
C182 C183 1.390 . S
C182 H202 0.949 . S
C183 C182 1.390 . S
C183 C184 1.357 . S
C184 C180 1.370 . S
C184 C183 1.357 . S
C184 H203 0.950 . S
Zn185 N179 2.020 . S
Zn185 O188 2.025 . S
Zn185 O193 2.024 . S
Zn185 O195 2.039 . S
Zn185 O197 2.034 . S
O186 C170 1.251 . S
O186 Zn177 2.039 . S
C187 O192 1.246 . S
C187 O193 1.249 . S
O188 C170 1.254 . S
O188 Zn185 2.025 . S
H189 C181 0.952 . S
H190 C172 0.952 . S
H191 C180 0.948 . S
O192 Zn177 2.034 . S
O192 C187 1.246 . S
O193 Zn185 2.024 . S
O193 C187 1.249 . S
H194 C176 0.948 . S
O195 Zn185 2.039 . S
O195 C199 1.251 . S
O196 Zn177 2.025 . S
O196 C199 1.254 . S
O197 C178 1.246 . S
O197 Zn185 2.034 . S
O198 Zn177 2.024 . S
O198 C178 1.249 . S
C199 O195 1.251 . S
C199 O196 1.254 . S
H200 C173 0.949 . S
H201 C175 0.950 . S
H202 C182 0.949 . S
H203 C184 0.950 . S
C204 C205 1.391 . S
C204 C206 1.394 . S
C204 H220 0.931 . S
C205 C204 1.391 . S
C205 C209 1.376 . S
C206 C204 1.394 . S
C206 C207 1.369 . S
C206 C210 1.531 . S
C207 C206 1.369 . S
C207 C208 1.410 . S
C207 C215 1.503 . S
C208 C207 1.410 . S
C208 C209 1.392 . S
C208 C211 1.511 . S
C209 C205 1.376 . S
C209 C208 1.392 . S
C209 H221 0.929 . S
C210 C206 1.531 . S
C210 H222 0.960 . S
C210 H223 0.962 . S
C210 H224 0.960 . S
C211 C208 1.511 . S
C211 H225 0.961 . S
C211 H226 0.961 . S
C211 H227 0.961 . S
C212 C213 1.370 . S
C212 C214 1.363 1_556 S
C212 H228 0.931 . S
C213 C212 1.370 . S
C213 C217 1.408 . S
C214 C212 1.363 1_554 S
C214 C215 1.370 . S
C214 C218 1.524 . S
C215 C207 1.503 . S
C215 C214 1.370 . S
C215 C216 1.403 1_554 S
C216 C215 1.403 1_556 S
C216 C217 1.404 . S
C216 C219 1.539 1_556 S
C217 C213 1.408 . S
C217 C216 1.404 . S
C217 H229 0.930 . S
C218 C214 1.524 . S
C218 H230 0.956 . S
C218 H231 0.961 . S
C218 H232 0.961 . S
C219 C216 1.539 1_554 S
C219 H233 0.958 . S
C219 H234 0.961 . S
C219 H235 0.960 . S
H220 C204 0.931 . S
H221 C209 0.929 . S
H222 C210 0.960 . S
H223 C210 0.962 . S
H224 C210 0.960 . S
H225 C211 0.961 . S
H226 C211 0.961 . S
H227 C211 0.961 . S
H228 C212 0.931 . S
H229 C217 0.930 . S
H230 C218 0.956 . S
H231 C218 0.961 . S
H232 C218 0.961 . S
H233 C219 0.958 . S
H234 C219 0.961 . S
H235 C219 0.960 . S
C236 C237 1.391 . S
C236 C238 1.394 . S
C236 H252 0.931 . S
C237 C236 1.391 . S
C237 C241 1.376 . S
C238 C236 1.394 . S
C238 C239 1.369 . S
C238 C242 1.531 . S
C239 C238 1.369 . S
C239 C240 1.410 . S
C239 C247 1.503 . S
C240 C239 1.410 . S
C240 C241 1.392 . S
C240 C243 1.511 . S
C241 C237 1.376 . S
C241 C240 1.392 . S
C241 H253 0.929 . S
C242 C238 1.531 . S
C242 H254 0.960 . S
C242 H255 0.962 . S
C242 H256 0.960 . S
C243 C240 1.511 . S
C243 H257 0.961 . S
C243 H258 0.961 . S
C243 H259 0.961 . S
C244 C245 1.370 1_554 S
C244 C246 1.363 . S
C244 H260 0.931 . S
C245 C244 1.370 1_556 S
C245 C249 1.408 1_556 S
C246 C244 1.363 . S
C246 C247 1.370 . S
C246 C250 1.524 . S
C247 C239 1.503 . S
C247 C246 1.370 . S
C247 C248 1.403 . S
C248 C247 1.403 . S
C248 C249 1.404 . S
C248 C251 1.539 . S
C249 C245 1.408 1_554 S
C249 C248 1.404 . S
C249 H261 0.930 1_554 S
C250 C246 1.524 . S
C250 H262 0.956 . S
C250 H263 0.961 . S
C250 H264 0.961 . S
C251 C248 1.539 . S
C251 H265 0.958 . S
C251 H266 0.961 . S
C251 H267 0.960 . S
H252 C236 0.931 . S
H253 C241 0.929 . S
H254 C242 0.960 . S
H255 C242 0.962 . S
H256 C242 0.960 . S
H257 C243 0.961 . S
H258 C243 0.961 . S
H259 C243 0.961 . S
H260 C244 0.931 . S
H261 C249 0.930 1_556 S
H262 C250 0.956 . S
H263 C250 0.961 . S
H264 C250 0.961 . S
H265 C251 0.958 . S
H266 C251 0.961 . S
H267 C251 0.960 . S
C268 C269 1.391 . S
C268 C270 1.394 . S
C268 H284 0.931 . S
C269 C268 1.391 . S
C269 C273 1.376 . S
C270 C268 1.394 . S
C270 C271 1.369 . S
C270 C274 1.531 . S
C271 C270 1.369 . S
C271 C272 1.410 . S
C271 C279 1.503 . S
C272 C271 1.410 . S
C272 C273 1.392 . S
C272 C275 1.511 . S
C273 C269 1.376 . S
C273 C272 1.392 . S
C273 H285 0.929 . S
C274 C270 1.531 . S
C274 H286 0.960 . S
C274 H287 0.962 . S
C274 H288 0.960 . S
C275 C272 1.511 . S
C275 H289 0.961 . S
C275 H290 0.961 . S
C275 H291 0.961 . S
C276 C277 1.370 . S
C276 C278 1.363 . S
C276 H292 0.931 . S
C277 C276 1.370 . S
C277 C281 1.408 . S
C278 C276 1.363 . S
C278 C279 1.370 . S
C278 C282 1.524 . S
C279 C271 1.503 . S
C279 C278 1.370 . S
C279 C280 1.403 . S
C280 C279 1.403 . S
C280 C281 1.404 . S
C280 C283 1.539 . S
C281 C277 1.408 . S
C281 C280 1.404 . S
C281 H293 0.930 . S
C282 C278 1.524 . S
C282 H294 0.956 . S
C282 H295 0.961 . S
C282 H296 0.961 . S
C283 C280 1.539 . S
C283 H297 0.958 . S
C283 H298 0.961 . S
C283 H299 0.960 . S
H284 C268 0.931 . S
H285 C273 0.929 . S
H286 C274 0.960 . S
H287 C274 0.962 . S
H288 C274 0.960 . S
H289 C275 0.961 . S
H290 C275 0.961 . S
H291 C275 0.961 . S
H292 C276 0.931 . S
H293 C281 0.930 . S
H294 C282 0.956 . S
H295 C282 0.961 . S
H296 C282 0.961 . S
H297 C283 0.958 . S
H298 C283 0.961 . S
H299 C283 0.960 . S
C300 C301 1.391 . S
C300 C302 1.394 . S
C300 H316 0.931 . S
C301 C300 1.391 . S
C301 C305 1.376 . S
C302 C300 1.394 . S
C302 C303 1.369 . S
C302 C306 1.531 . S
C303 C302 1.369 . S
C303 C304 1.410 . S
C303 C311 1.503 . S
C304 C303 1.410 . S
C304 C305 1.392 . S
C304 C307 1.511 . S
C305 C301 1.376 . S
C305 C304 1.392 . S
C305 H317 0.929 . S
C306 C302 1.531 . S
C306 H318 0.960 . S
C306 H319 0.962 . S
C306 H320 0.960 . S
C307 C304 1.511 . S
C307 H321 0.961 . S
C307 H322 0.961 . S
C307 H323 0.961 . S
C308 C309 1.370 . S
C308 C310 1.363 . S
C308 H324 0.931 . S
C309 C308 1.370 . S
C309 C313 1.408 . S
C310 C308 1.363 . S
C310 C311 1.370 . S
C310 C314 1.524 . S
C311 C303 1.503 . S
C311 C310 1.370 . S
C311 C312 1.403 . S
C312 C311 1.403 . S
C312 C313 1.404 . S
C312 C315 1.539 . S
C313 C309 1.408 . S
C313 C312 1.404 . S
C313 H325 0.930 . S
C314 C310 1.524 . S
C314 H326 0.956 . S
C314 H327 0.961 . S
C314 H328 0.961 . S
C315 C312 1.539 . S
C315 H329 0.958 . S
C315 H330 0.961 . S
C315 H331 0.960 . S
H316 C300 0.931 . S
H317 C305 0.929 . S
H318 C306 0.960 . S
H319 C306 0.962 . S
H320 C306 0.960 . S
H321 C307 0.961 . S
H322 C307 0.961 . S
H323 C307 0.961 . S
H324 C308 0.931 . S
H325 C313 0.930 . S
H326 C314 0.956 . S
H327 C314 0.961 . S
H328 C314 0.961 . S
H329 C315 0.958 . S
H330 C315 0.961 . S
H331 C315 0.960 . S
C332 C333 1.391 . S
C332 C334 1.394 . S
C332 H348 0.931 . S
C333 C332 1.391 . S
C333 C337 1.376 . S
C334 C332 1.394 . S
C334 C335 1.369 . S
C334 C338 1.531 . S
C335 C334 1.369 . S
C335 C336 1.410 . S
C335 C343 1.503 . S
C336 C335 1.410 . S
C336 C337 1.392 . S
C336 C339 1.511 . S
C337 C333 1.376 . S
C337 C336 1.392 . S
C337 H349 0.929 . S
C338 C334 1.531 . S
C338 H350 0.960 . S
C338 H351 0.962 . S
C338 H352 0.960 . S
C339 C336 1.511 . S
C339 H353 0.961 . S
C339 H354 0.961 . S
C339 H355 0.961 . S
C340 C341 1.370 1_556 S
C340 C342 1.363 . S
C340 H356 0.931 . S
C341 C340 1.370 1_554 S
C341 C345 1.408 1_554 S
C342 C340 1.363 . S
C342 C343 1.370 . S
C342 C346 1.524 . S
C343 C335 1.503 . S
C343 C342 1.370 . S
C343 C344 1.403 . S
C344 C343 1.403 . S
C344 C345 1.404 . S
C344 C347 1.539 . S
C345 C341 1.408 1_556 S
C345 C344 1.404 . S
C345 H357 0.930 1_556 S
C346 C342 1.524 . S
C346 H358 0.956 . S
C346 H359 0.961 . S
C346 H360 0.961 . S
C347 C344 1.539 . S
C347 H361 0.958 . S
C347 H362 0.961 . S
C347 H363 0.960 . S
H348 C332 0.931 . S
H349 C337 0.929 . S
H350 C338 0.960 . S
H351 C338 0.962 . S
H352 C338 0.960 . S
H353 C339 0.961 . S
H354 C339 0.961 . S
H355 C339 0.961 . S
H356 C340 0.931 . S
H357 C345 0.930 1_554 S
H358 C346 0.956 . S
H359 C346 0.961 . S
H360 C346 0.961 . S
H361 C347 0.958 . S
H362 C347 0.961 . S
H363 C347 0.960 . S
C364 C365 1.391 . S
C364 C366 1.385 1_554 S
C364 H380 0.931 . S
C365 C364 1.391 . S
C365 C369 1.376 . S
C366 C364 1.385 1_556 S
C366 C367 1.373 . S
C366 C370 1.535 . S
C367 C366 1.373 . S
C367 C368 1.410 . S
C367 C375 1.503 . S
C368 C367 1.410 . S
C368 C369 1.392 1_556 S
C368 C371 1.511 . S
C369 C365 1.376 . S
C369 C368 1.392 1_554 S
C369 H381 0.929 . S
C370 C366 1.535 . S
C370 H382 0.960 . S
C370 H383 0.962 . S
C370 H384 0.960 . S
C371 C368 1.511 . S
C371 H385 0.961 . S
C371 H386 0.961 . S
C371 H387 0.961 . S
C372 C373 1.370 . S
C372 C374 1.363 . S
C372 H388 0.931 . S
C373 C372 1.370 . S
C373 C377 1.408 . S
C374 C372 1.363 . S
C374 C375 1.370 . S
C374 C378 1.524 . S
C375 C367 1.503 . S
C375 C374 1.370 . S
C375 C376 1.403 . S
C376 C375 1.403 . S
C376 C377 1.404 . S
C376 C379 1.539 . S
C377 C373 1.408 . S
C377 C376 1.404 . S
C377 H389 0.930 . S
C378 C374 1.524 . S
C378 H390 0.956 . S
C378 H391 0.961 . S
C378 H392 0.961 . S
C379 C376 1.539 . S
C379 H393 0.958 . S
C379 H394 0.961 . S
C379 H395 0.960 . S
H380 C364 0.931 . S
H381 C369 0.929 . S
H382 C370 0.960 . S
H383 C370 0.962 . S
H384 C370 0.960 . S
H385 C371 0.961 . S
H386 C371 0.961 . S
H387 C371 0.961 . S
H388 C372 0.931 . S
H389 C377 0.930 . S
H390 C378 0.956 . S
H391 C378 0.961 . S
H392 C378 0.961 . S
H393 C379 0.958 . S
H394 C379 0.961 . S
H395 C379 0.960 . S
C396 C397 1.391 . S
C396 C398 1.394 . S
C396 H412 0.931 . S
C397 C396 1.391 . S
C397 C401 1.376 . S
C398 C396 1.394 . S
C398 C399 1.369 . S
C398 C402 1.531 . S
C399 C398 1.369 . S
C399 C400 1.410 . S
C399 C407 1.503 . S
C400 C399 1.410 . S
C400 C401 1.392 . S
C400 C403 1.511 . S
C401 C397 1.376 . S
C401 C400 1.392 . S
C401 H413 0.929 . S
C402 C398 1.531 . S
C402 H414 0.960 . S
C402 H415 0.962 . S
C402 H416 0.960 . S
C403 C400 1.511 . S
C403 H417 0.961 . S
C403 H418 0.961 . S
C403 H419 0.961 . S
C404 C405 1.370 . S
C404 C406 1.363 1_565 S
C404 H420 0.931 . S
C405 C404 1.370 . S
C405 C409 1.408 . S
C406 C404 1.363 1_545 S
C406 C407 1.370 . S
C406 C410 1.524 . S
C407 C399 1.503 . S
C407 C406 1.370 . S
C407 C408 1.403 1_545 S
C408 C407 1.403 1_565 S
C408 C409 1.404 . S
C408 C411 1.539 . S
C409 C405 1.408 . S
C409 C408 1.404 . S
C409 H421 0.930 . S
C410 C406 1.524 . S
C410 H422 0.956 . S
C410 H423 0.961 . S
C410 H424 0.961 . S
C411 C408 1.539 . S
C411 H425 0.958 . S
C411 H426 0.961 . S
C411 H427 0.960 1_565 S
H412 C396 0.931 . S
H413 C401 0.929 . S
H414 C402 0.960 . S
H415 C402 0.962 . S
H416 C402 0.960 . S
H417 C403 0.961 . S
H418 C403 0.961 . S
H419 C403 0.961 . S
H420 C404 0.931 . S
H421 C409 0.930 . S
H422 C410 0.956 . S
H423 C410 0.961 . S
H424 C410 0.961 . S
H425 C411 0.958 . S
H426 C411 0.961 . S
H427 C411 0.960 1_545 S
C428 C429 1.391 . S
C428 C430 1.394 . S
C428 H444 0.931 . S
C429 C428 1.391 . S
C429 C433 1.376 . S
C430 C428 1.394 . S
C430 C431 1.369 . S
C430 C434 1.531 . S
C431 C430 1.369 . S
C431 C432 1.410 . S
C431 C439 1.503 . S
C432 C431 1.410 . S
C432 C433 1.392 . S
C432 C435 1.511 . S
C433 C429 1.376 . S
C433 C432 1.392 . S
C433 H445 0.929 . S
C434 C430 1.531 . S
C434 H446 0.960 . S
C434 H447 0.962 . S
C434 H448 0.960 . S
C435 C432 1.511 . S
C435 H449 0.961 . S
C435 H450 0.961 . S
C435 H451 0.961 . S
C436 C437 1.370 . S
C436 C438 1.363 . S
C436 H452 0.931 . S
C437 C436 1.370 . S
C437 C441 1.408 . S
C438 C436 1.363 . S
C438 C439 1.370 . S
C438 C442 1.524 . S
C439 C431 1.503 . S
C439 C438 1.370 . S
C439 C440 1.403 . S
C440 C439 1.403 . S
C440 C441 1.404 . S
C440 C443 1.539 . S
C441 C437 1.408 . S
C441 C440 1.404 . S
C441 H453 0.930 . S
C442 C438 1.524 . S
C442 H454 0.956 . S
C442 H455 0.961 . S
C442 H456 0.961 . S
C443 C440 1.539 . S
C443 H457 0.958 . S
C443 H458 0.961 . S
C443 H459 0.960 . S
H444 C428 0.931 . S
H445 C433 0.929 . S
H446 C434 0.960 . S
H447 C434 0.962 . S
H448 C434 0.960 . S
H449 C435 0.961 . S
H450 C435 0.961 . S
H451 C435 0.961 . S
H452 C436 0.931 . S
H453 C441 0.930 . S
H454 C442 0.956 . S
H455 C442 0.961 . S
H456 C442 0.961 . S
H457 C443 0.958 . S
H458 C443 0.961 . S
H459 C443 0.960 . S
C460 C461 1.391 . S
C460 C462 1.394 . S
C460 H476 0.931 . S
C461 C460 1.391 . S
C461 C465 1.376 . S
C462 C460 1.394 . S
C462 C463 1.369 1_655 S
C462 C466 1.531 . S
C463 C462 1.369 1_455 S
C463 C464 1.410 . S
C463 C471 1.503 . S
C464 C463 1.410 . S
C464 C465 1.392 1_455 S
C464 C467 1.511 . S
C465 C461 1.376 . S
C465 C464 1.392 1_655 S
C465 H477 0.929 1_556 S
C466 C462 1.531 . S
C466 H478 0.960 1_655 S
C466 H479 0.962 1_655 S
C466 H480 0.960 . S
C467 C464 1.511 . S
C467 H481 0.961 1_556 S
C467 H482 0.961 . S
C467 H483 0.961 . S
C468 C469 1.370 . S
C468 C470 1.363 . S
C468 H484 0.931 . S
C469 C468 1.370 . S
C469 C473 1.408 . S
C470 C468 1.363 . S
C470 C471 1.370 . S
C470 C474 1.524 . S
C471 C463 1.503 . S
C471 C470 1.370 . S
C471 C472 1.403 . S
C472 C471 1.403 . S
C472 C473 1.404 . S
C472 C475 1.539 . S
C473 C469 1.408 . S
C473 C472 1.404 . S
C473 H485 0.930 . S
C474 C470 1.524 . S
C474 H486 0.956 . S
C474 H487 0.961 . S
C474 H488 0.961 . S
C475 C472 1.539 . S
C475 H489 0.958 . S
C475 H490 0.961 . S
C475 H491 0.960 . S
H476 C460 0.931 . S
H477 C465 0.929 1_554 S
H478 C466 0.960 1_455 S
H479 C466 0.962 1_455 S
H480 C466 0.960 . S
H481 C467 0.961 1_554 S
H482 C467 0.961 . S
H483 C467 0.961 . S
H484 C468 0.931 . S
H485 C473 0.930 . S
H486 C474 0.956 . S
H487 C474 0.961 . S
H488 C474 0.961 . S
H489 C475 0.958 . S
H490 C475 0.961 . S
H491 C475 0.960 . S
C492 C493 1.391 . S
C492 C494 1.394 1_554 S
C492 H508 0.931 . S
C493 C492 1.391 . S
C493 C497 1.376 . S
C494 C492 1.394 1_556 S
C494 C495 1.369 1_565 S
C494 C498 1.531 1_565 S
C495 C494 1.369 1_545 S
C495 C496 1.409 1_556 S
C495 C503 1.503 . S
C496 C495 1.409 1_554 S
C496 C497 1.388 1_545 S
C496 C499 1.516 . S
C497 C493 1.376 . S
C497 C496 1.388 1_565 S
C497 H509 0.929 . S
C498 C494 1.531 1_545 S
C498 H510 0.960 . S
C498 H511 0.962 . S
C498 H512 0.960 1_545 S
C499 C496 1.516 . S
C499 H513 0.961 . S
C499 H514 0.961 . S
C499 H515 0.961 1_554 S
C500 C501 1.370 1_554 S
C500 C502 1.363 . S
C500 H516 0.931 . S
C501 C500 1.370 1_556 S
C501 C505 1.408 . S
C502 C500 1.363 . S
C502 C503 1.370 1_554 S
C502 C506 1.524 . S
C503 C495 1.503 . S
C503 C502 1.370 1_556 S
C503 C504 1.403 . S
C504 C503 1.403 . S
C504 C505 1.404 . S
C504 C507 1.539 . S
C505 C501 1.408 . S
C505 C504 1.404 . S
C505 H517 0.930 . S
C506 C502 1.524 . S
C506 H518 0.956 . S
C506 H519 0.961 . S
C506 H520 0.961 . S
C507 C504 1.539 . S
C507 H521 0.958 . S
C507 H522 0.961 . S
C507 H523 0.960 . S
H508 C492 0.931 . S
H509 C497 0.929 . S
H510 C498 0.960 . S
H511 C498 0.962 . S
H512 C498 0.960 1_565 S
H513 C499 0.961 . S
H514 C499 0.961 . S
H515 C499 0.961 1_556 S
H516 C500 0.931 . S
H517 C505 0.930 . S
H518 C506 0.956 . S
H519 C506 0.961 . S
H520 C506 0.961 . S
H521 C507 0.958 . S
H522 C507 0.961 . S
H523 C507 0.960 . S
C524 C525 1.391 . S
C524 C526 1.394 . S
C524 H540 0.931 . S
C525 C524 1.391 . S
C525 C529 1.376 . S
C526 C524 1.394 . S
C526 C527 1.369 . S
C526 C530 1.531 . S
C527 C526 1.369 . S
C527 C528 1.410 . S
C527 C535 1.503 . S
C528 C527 1.410 . S
C528 C529 1.392 . S
C528 C531 1.511 . S
C529 C525 1.376 . S
C529 C528 1.392 . S
C529 H541 0.929 . S
C530 C526 1.531 . S
C530 H542 0.960 . S
C530 H543 0.962 . S
C530 H544 0.960 . S
C531 C528 1.511 . S
C531 H545 0.961 . S
C531 H546 0.961 . S
C531 H547 0.961 . S
C532 C533 1.370 . S
C532 C534 1.363 . S
C532 H548 0.931 1_554 S
C533 C532 1.370 . S
C533 C537 1.408 . S
C534 C532 1.363 . S
C534 C535 1.370 . S
C534 C538 1.524 . S
C535 C527 1.503 . S
C535 C534 1.370 . S
C535 C536 1.403 . S
C536 C535 1.403 . S
C536 C537 1.404 . S
C536 C539 1.539 . S
C537 C533 1.408 . S
C537 C536 1.404 . S
C537 H549 0.930 . S
C538 C534 1.524 . S
C538 H550 0.956 . S
C538 H551 0.961 . S
C538 H552 0.961 1_554 S
C539 C536 1.539 . S
C539 H553 0.958 . S
C539 H554 0.961 . S
C539 H555 0.960 . S
H540 C524 0.931 . S
H541 C529 0.929 . S
H542 C530 0.960 . S
H543 C530 0.962 . S
H544 C530 0.960 . S
H545 C531 0.961 . S
H546 C531 0.961 . S
H547 C531 0.961 . S
H548 C532 0.931 1_556 S
H549 C537 0.930 . S
H550 C538 0.956 . S
H551 C538 0.961 . S
H552 C538 0.961 1_556 S
H553 C539 0.958 . S
H554 C539 0.961 . S
H555 C539 0.960 . S
C556 C557 1.391 . S
C556 C558 1.394 1_655 S
C556 H572 0.931 . S
C557 C556 1.391 . S
C557 C561 1.376 . S
C558 C556 1.394 1_455 S
C558 C559 1.369 . S
C558 C562 1.531 . S
C559 C558 1.369 . S
C559 C560 1.410 1_455 S
C559 C567 1.503 . S
C560 C559 1.410 1_655 S
C560 C561 1.392 . S
C560 C563 1.511 1_655 S
C561 C557 1.376 . S
C561 C560 1.392 . S
C561 H573 0.929 . S
C562 C558 1.531 . S
C562 H574 0.960 . S
C562 H575 0.962 . S
C562 H576 0.960 . S
C563 C560 1.511 1_455 S
C563 H577 0.961 1_455 S
C563 H578 0.961 . S
C563 H579 0.961 . S
C564 C565 1.370 . S
C564 C566 1.363 . S
C564 H580 0.931 . S
C565 C564 1.370 . S
C565 C569 1.408 . S
C566 C564 1.363 . S
C566 C567 1.370 . S
C566 C570 1.524 . S
C567 C559 1.503 . S
C567 C566 1.370 . S
C567 C568 1.403 . S
C568 C567 1.403 . S
C568 C569 1.404 . S
C568 C571 1.539 . S
C569 C565 1.408 . S
C569 C568 1.404 . S
C569 H581 0.930 . S
C570 C566 1.524 . S
C570 H582 0.956 . S
C570 H583 0.961 . S
C570 H584 0.961 . S
C571 C568 1.539 . S
C571 H585 0.958 . S
C571 H586 0.961 . S
C571 H587 0.960 . S
H572 C556 0.931 . S
H573 C561 0.929 . S
H574 C562 0.960 . S
H575 C562 0.962 . S
H576 C562 0.960 . S
H577 C563 0.961 1_655 S
H578 C563 0.961 . S
H579 C563 0.961 . S
H580 C564 0.931 . S
H581 C569 0.930 . S
H582 C570 0.956 . S
H583 C570 0.961 . S
H584 C570 0.961 . S
H585 C571 0.958 . S
H586 C571 0.961 . S
H587 C571 0.960 . S
C588 C589 1.391 . S
C588 C590 1.394 . S
C588 H604 0.931 . S
C589 C588 1.391 . S
C589 C593 1.376 . S
C590 C588 1.394 . S
C590 C591 1.369 . S
C590 C594 1.531 . S
C591 C590 1.369 . S
C591 C592 1.410 . S
C591 C599 1.503 . S
C592 C591 1.410 . S
C592 C593 1.392 . S
C592 C595 1.511 . S
C593 C589 1.376 . S
C593 C592 1.392 . S
C593 H605 0.929 . S
C594 C590 1.531 . S
C594 H606 0.960 . S
C594 H607 0.962 . S
C594 H608 0.960 . S
C595 C592 1.511 . S
C595 H609 0.961 . S
C595 H610 0.961 . S
C595 H611 0.961 . S
C596 C597 1.370 . S
C596 C598 1.363 . S
C596 H612 0.931 . S
C597 C596 1.370 . S
C597 C601 1.408 . S
C598 C596 1.363 . S
C598 C599 1.370 . S
C598 C602 1.524 . S
C599 C591 1.503 . S
C599 C598 1.370 . S
C599 C600 1.403 . S
C600 C599 1.403 . S
C600 C601 1.404 . S
C600 C603 1.539 . S
C601 C597 1.408 . S
C601 C600 1.404 . S
C601 H613 0.930 . S
C602 C598 1.524 . S
C602 H614 0.956 . S
C602 H615 0.961 . S
C602 H616 0.961 . S
C603 C600 1.539 . S
C603 H617 0.958 . S
C603 H618 0.961 . S
C603 H619 0.960 . S
H604 C588 0.931 . S
H605 C593 0.929 . S
H606 C594 0.960 . S
H607 C594 0.962 . S
H608 C594 0.960 . S
H609 C595 0.961 . S
H610 C595 0.961 . S
H611 C595 0.961 . S
H612 C596 0.931 . S
H613 C601 0.930 . S
H614 C602 0.956 . S
H615 C602 0.961 . S
H616 C602 0.961 . S
H617 C603 0.958 . S
H618 C603 0.961 . S
H619 C603 0.960 . S
C620 C621 1.391 . S
C620 C622 1.394 . S
C620 H636 0.931 . S
C621 C620 1.391 . S
C621 C625 1.376 . S
C622 C620 1.394 . S
C622 C623 1.369 . S
C622 C626 1.531 . S
C623 C622 1.369 . S
C623 C624 1.410 . S
C623 C631 1.503 . S
C624 C623 1.410 . S
C624 C625 1.392 . S
C624 C627 1.511 . S
C625 C621 1.376 . S
C625 C624 1.392 . S
C625 H637 0.929 . S
C626 C622 1.531 . S
C626 H638 0.960 . S
C626 H639 0.962 . S
C626 H640 0.960 . S
C627 C624 1.511 . S
C627 H641 0.961 . S
C627 H642 0.961 . S
C627 H643 0.961 . S
C628 C629 1.370 . S
C628 C630 1.363 . S
C628 H644 0.931 . S
C629 C628 1.370 . S
C629 C633 1.408 . S
C630 C628 1.363 . S
C630 C631 1.370 . S
C630 C634 1.524 . S
C631 C623 1.503 . S
C631 C630 1.370 . S
C631 C632 1.403 . S
C632 C631 1.403 . S
C632 C633 1.404 . S
C632 C635 1.539 . S
C633 C629 1.408 . S
C633 C632 1.404 . S
C633 H645 0.930 . S
C634 C630 1.524 . S
C634 H646 0.956 . S
C634 H647 0.961 . S
C634 H648 0.961 . S
C635 C632 1.539 . S
C635 H649 0.958 . S
C635 H650 0.961 . S
C635 H651 0.960 . S
H636 C620 0.931 . S
H637 C625 0.929 . S
H638 C626 0.960 . S
H639 C626 0.962 . S
H640 C626 0.960 . S
H641 C627 0.961 . S
H642 C627 0.961 . S
H643 C627 0.961 . S
H644 C628 0.931 . S
H645 C633 0.930 . S
H646 C634 0.956 . S
H647 C634 0.961 . S
H648 C634 0.961 . S
H649 C635 0.958 . S
H650 C635 0.961 . S
H651 C635 0.960 . S
C652 C653 1.391 . S
C652 C654 1.394 . S
C652 H668 0.931 . S
C653 C652 1.391 . S
C653 C657 1.376 . S
C654 C652 1.394 . S
C654 C655 1.369 . S
C654 C658 1.531 . S
C655 C654 1.369 . S
C655 C656 1.410 . S
C655 C663 1.503 . S
C656 C655 1.410 . S
C656 C657 1.392 . S
C656 C659 1.511 . S
C657 C653 1.376 . S
C657 C656 1.392 . S
C657 H669 0.929 . S
C658 C654 1.531 . S
C658 H670 0.960 . S
C658 H671 0.962 . S
C658 H672 0.960 . S
C659 C656 1.511 . S
C659 H673 0.961 . S
C659 H674 0.961 . S
C659 H675 0.961 . S
C660 C661 1.370 . S
C660 C662 1.363 . S
C660 H676 0.931 . S
C661 C660 1.370 . S
C661 C665 1.408 . S
C662 C660 1.363 . S
C662 C663 1.370 . S
C662 C666 1.524 . S
C663 C655 1.503 . S
C663 C662 1.370 . S
C663 C664 1.403 . S
C664 C663 1.403 . S
C664 C665 1.404 . S
C664 C667 1.539 . S
C665 C661 1.408 . S
C665 C664 1.404 . S
C665 H677 0.930 . S
C666 C662 1.524 . S
C666 H678 0.956 . S
C666 H679 0.961 . S
C666 H680 0.961 . S
C667 C664 1.539 . S
C667 H681 0.958 . S
C667 H682 0.961 . S
C667 H683 0.960 . S
H668 C652 0.931 . S
H669 C657 0.929 . S
H670 C658 0.960 . S
H671 C658 0.962 . S
H672 C658 0.960 . S
H673 C659 0.961 . S
H674 C659 0.961 . S
H675 C659 0.961 . S
H676 C660 0.931 . S
H677 C665 0.930 . S
H678 C666 0.956 . S
H679 C666 0.961 . S
H680 C666 0.961 . S
H681 C667 0.958 . S
H682 C667 0.961 . S
H683 C667 0.960 . S
C684 C685 1.391 1_556 S
C684 C686 1.394 . S
C684 H700 0.931 . S
C685 C684 1.391 1_554 S
C685 C689 1.376 . S
C686 C684 1.394 . S
C686 C687 1.369 . S
C686 C690 1.531 . S
C687 C686 1.369 . S
C687 C688 1.410 1_556 S
C687 C695 1.503 . S
C688 C687 1.410 1_554 S
C688 C689 1.392 . S
C688 C691 1.511 . S
C689 C685 1.376 . S
C689 C688 1.392 . S
C689 H701 0.929 . S
C690 C686 1.531 . S
C690 H702 0.960 . S
C690 H703 0.962 . S
C690 H704 0.960 . S
C691 C688 1.511 . S
C691 H705 0.961 . S
C691 H706 0.961 . S
C691 H707 0.961 . S
C692 C693 1.370 . S
C692 C694 1.363 . S
C692 H708 0.931 . S
C693 C692 1.370 . S
C693 C697 1.408 . S
C694 C692 1.363 . S
C694 C695 1.370 . S
C694 C698 1.524 . S
C695 C687 1.503 . S
C695 C694 1.370 . S
C695 C696 1.403 . S
C696 C695 1.403 . S
C696 C697 1.404 . S
C696 C699 1.539 . S
C697 C693 1.408 . S
C697 C696 1.404 . S
C697 H709 0.930 . S
C698 C694 1.524 . S
C698 H710 0.956 . S
C698 H711 0.961 . S
C698 H712 0.961 . S
C699 C696 1.539 . S
C699 H713 0.958 . S
C699 H714 0.961 . S
C699 H715 0.960 . S
H700 C684 0.931 . S
H701 C689 0.929 . S
H702 C690 0.960 . S
H703 C690 0.962 . S
H704 C690 0.960 . S
H705 C691 0.961 . S
H706 C691 0.961 . S
H707 C691 0.961 . S
H708 C692 0.931 . S
H709 C697 0.930 . S
H710 C698 0.956 . S
H711 C698 0.961 . S
H712 C698 0.961 . S
H713 C699 0.958 . S
H714 C699 0.961 . S
H715 C699 0.960 . S
C716 C717 1.391 . S
C716 C718 1.394 . S
C716 H732 0.931 . S
C717 C716 1.391 . S
C717 C721 1.376 . S
C718 C716 1.394 . S
C718 C719 1.369 . S
C718 C722 1.531 . S
C719 C718 1.369 . S
C719 C720 1.410 . S
C719 C727 1.503 . S
C720 C719 1.410 . S
C720 C721 1.392 . S
C720 C723 1.511 . S
C721 C717 1.376 . S
C721 C720 1.392 . S
C721 H733 0.929 . S
C722 C718 1.531 . S
C722 H734 0.960 1_554 S
C722 H735 0.962 . S
C722 H736 0.960 1_554 S
C723 C720 1.511 . S
C723 H737 0.961 . S
C723 H738 0.961 . S
C723 H739 0.961 . S
C724 C725 1.370 1_554 S
C724 C726 1.363 . S
C724 H740 0.931 . S
C725 C724 1.370 1_556 S
C725 C729 1.408 . S
C726 C724 1.363 . S
C726 C727 1.370 . S
C726 C730 1.524 . S
C727 C719 1.503 . S
C727 C726 1.370 . S
C727 C728 1.403 1_554 S
C728 C727 1.403 1_556 S
C728 C729 1.404 . S
C728 C731 1.539 . S
C729 C725 1.408 . S
C729 C728 1.404 . S
C729 H741 0.930 . S
C730 C726 1.524 . S
C730 H742 0.956 . S
C730 H743 0.961 . S
C730 H744 0.961 . S
C731 C728 1.539 . S
C731 H745 0.958 . S
C731 H746 0.961 . S
C731 H747 0.960 . S
H732 C716 0.931 . S
H733 C721 0.929 . S
H734 C722 0.960 1_556 S
H735 C722 0.962 . S
H736 C722 0.960 1_556 S
H737 C723 0.961 . S
H738 C723 0.961 . S
H739 C723 0.961 . S
H740 C724 0.931 . S
H741 C729 0.930 . S
H742 C730 0.956 . S
H743 C730 0.961 . S
H744 C730 0.961 . S
H745 C731 0.958 . S
H746 C731 0.961 . S
H747 C731 0.960 . S
C748 C749 1.391 . S
C748 C750 1.394 . S
C748 H764 0.931 . S
C749 C748 1.391 . S
C749 C753 1.376 . S
C750 C748 1.394 . S
C750 C751 1.369 . S
C750 C754 1.531 . S
C751 C750 1.369 . S
C751 C752 1.410 . S
C751 C759 1.503 . S
C752 C751 1.410 . S
C752 C753 1.392 . S
C752 C755 1.511 . S
C753 C749 1.376 . S
C753 C752 1.392 . S
C753 H765 0.929 . S
C754 C750 1.531 . S
C754 H766 0.960 . S
C754 H767 0.962 . S
C754 H768 0.960 1_554 S
C755 C752 1.511 . S
C755 H769 0.961 . S
C755 H770 0.961 . S
C755 H771 0.961 . S
C756 C757 1.370 . S
C756 C758 1.363 . S
C756 H772 0.931 . S
C757 C756 1.370 . S
C757 C761 1.408 . S
C758 C756 1.363 . S
C758 C759 1.370 . S
C758 C762 1.524 . S
C759 C751 1.503 . S
C759 C758 1.370 . S
C759 C760 1.403 . S
C760 C759 1.403 . S
C760 C761 1.404 . S
C760 C763 1.539 . S
C761 C757 1.408 . S
C761 C760 1.404 . S
C761 H773 0.930 . S
C762 C758 1.524 . S
C762 H774 0.956 . S
C762 H775 0.961 . S
C762 H776 0.961 . S
C763 C760 1.539 . S
C763 H777 0.958 . S
C763 H778 0.961 . S
C763 H779 0.960 . S
H764 C748 0.931 . S
H765 C753 0.929 . S
H766 C754 0.960 . S
H767 C754 0.962 . S
H768 C754 0.960 1_556 S
H769 C755 0.961 . S
H770 C755 0.961 . S
H771 C755 0.961 . S
H772 C756 0.931 . S
H773 C761 0.930 . S
H774 C762 0.956 . S
H775 C762 0.961 . S
H776 C762 0.961 . S
H777 C763 0.958 . S
H778 C763 0.961 . S
H779 C763 0.960 . S
C205 C0 0.965 . S
C213 C29 0.967 . S
C237 C63 0.964 . S
C245 C34 0.968 . S
C269 C97 0.963 . S
C277 C68 0.968 . S
C301 C102 0.967 . S
C309 C131 0.966 . S
C333 C165 0.965 . S
C341 C136 0.968 . S
C365 C199 0.966 . S
C373 C170 0.966 . S
C397 C13 1.759 . S
C405 C183 1.725 . S
C429 C8 1.807 . S
C437 C42 1.808 . S
C461 C81 1.698 . S
C469 C47 1.730 . S
C493 C110 1.770 . S
C501 C76 1.806 . S
C525 C149 1.756 . S
C533 C115 1.722 . S
C557 C144 1.813 . S
C565 C178 1.804 . S
C589 C4 1.921 . S
C597 C153 2.023 . S
C621 C51 2.005 . S
C629 C174 1.959 . S
C653 C72 1.969 . S
C661 C17 2.016 . S
C685 C119 2.009 . S
C693 C38 1.960 . S
C717 C140 1.951 . S
C725 C85 2.022 . S
C749 C106 1.921 . S
C757 C187 2.023 . S
