# Generated by pormake.
# Topology vmc, (5)-cn, num edge types: 1
# Building blocks:
#     Node 0, Type 0, BuildingBlock: XOMCOT_clean_sbu_1, # of connection points: 5
#     Node 1, Type 0, BuildingBlock: XOMCOT_clean_sbu_1, # of connection points: 5
#     Node 2, Type 0, BuildingBlock: XOMCOT_clean_sbu_1, # of connection points: 5
#     Node 3, Type 0, BuildingBlock: XOMCOT_clean_sbu_1, # of connection points: 5
#     Node 4, Type 0, BuildingBlock: XOMCOT_clean_sbu_1, # of connection points: 5
#     Node 5, Type 0, BuildingBlock: XOMCOT_clean_sbu_1, # of connection points: 5
#     Node 6, Type 0, BuildingBlock: XOMCOT_clean_sbu_1, # of connection points: 5
#     Node 7, Type 0, BuildingBlock: XOMCOT_clean_sbu_1, # of connection points: 5
#     Edge 8, Type (0, 0), BuildingBlock: CIFDUS_clean_linker_0, # of connection points: 2
#     Edge 9, Type (0, 0), BuildingBlock: CIFDUS_clean_linker_0, # of connection points: 2
#     Edge 10, Type (0, 0), BuildingBlock: CIFDUS_clean_linker_0, # of connection points: 2
#     Edge 11, Type (0, 0), BuildingBlock: CIFDUS_clean_linker_0, # of connection points: 2
#     Edge 12, Type (0, 0), BuildingBlock: CIFDUS_clean_linker_0, # of connection points: 2
#     Edge 13, Type (0, 0), BuildingBlock: CIFDUS_clean_linker_0, # of connection points: 2
#     Edge 14, Type (0, 0), BuildingBlock: CIFDUS_clean_linker_0, # of connection points: 2
#     Edge 15, Type (0, 0), BuildingBlock: CIFDUS_clean_linker_0, # of connection points: 2
#     Edge 16, Type (0, 0), BuildingBlock: CIFDUS_clean_linker_0, # of connection points: 2
#     Edge 17, Type (0, 0), BuildingBlock: CIFDUS_clean_linker_0, # of connection points: 2
#     Edge 18, Type (0, 0), BuildingBlock: CIFDUS_clean_linker_0, # of connection points: 2
#     Edge 19, Type (0, 0), BuildingBlock: CIFDUS_clean_linker_0, # of connection points: 2
#     Edge 20, Type (0, 0), BuildingBlock: CIFDUS_clean_linker_0, # of connection points: 2
#     Edge 21, Type (0, 0), BuildingBlock: CIFDUS_clean_linker_0, # of connection points: 2
#     Edge 22, Type (0, 0), BuildingBlock: CIFDUS_clean_linker_0, # of connection points: 2
#     Edge 23, Type (0, 0), BuildingBlock: CIFDUS_clean_linker_0, # of connection points: 2
#     Edge 24, Type (0, 0), BuildingBlock: CIFDUS_clean_linker_0, # of connection points: 2
#     Edge 25, Type (0, 0), BuildingBlock: CIFDUS_clean_linker_0, # of connection points: 2
#     Edge 26, Type (0, 0), BuildingBlock: CIFDUS_clean_linker_0, # of connection points: 2
#     Edge 27, Type (0, 0), BuildingBlock: CIFDUS_clean_linker_0, # of connection points: 2
# Relax obj value: 0.405
# Max RMSD: 0.212
# Mean RMSD: 0.212
data_MOF--net-vmc--node1-XOMCOT_clean_sbu_1--edge1-CIFDUS_clean_linker_0
_symmetry_space_group_name_H-M    P1
_symmetry_Int_Tables_number       1
_symmetry_cell_setting            triclinic
loop_
_symmetry_equiv_pos_as_xyz
'x, y, z'
_cell_length_a     26.352064
_cell_length_b     43.61799
_cell_length_c     25.253463
_cell_angle_alpha  89.741321
_cell_angle_beta   97.433134
_cell_angle_gamma 90.159362
loop_
_atom_site_label
_atom_site_type_symbol
_atom_site_fract_x
_atom_site_fract_y
_atom_site_fract_z
_atom_type_partial_charge
C0 C 0.34597 0.3926 0.07595 0.0
C1 C 0.38436 0.3812 0.11263 0.0
N2 N 0.39138 0.40056 0.15437 0.0
N3 N 0.3282 0.41879 0.09479 0.0
C4 C 0.35701 0.42331 0.14242 0.0
H5 H 0.33215 0.38267 0.03761 0.0
Co6 Co 0.27838 0.44315 0.05662 0.0
C7 C 0.21347 0.46027 0.14008 0.0
O8 O 0.17309 0.45071 0.10832 0.0
N9 N 0.23021 0.46853 1.01494 0.0
C10 C 0.18373 0.50881 0.98284 0.0
C11 C 0.20545 0.49394 1.02833 0.0
C12 C 0.22462 0.4695 0.96084 0.0
N13 N 0.19626 0.49352 0.94032 0.0
O14 O 0.32783 0.47454 0.0564 0.0
H15 H 0.20685 0.50312 0.06807 0.0
H16 H 0.244 0.4541 0.93679 0.0
O17 O 0.25771 0.45895 0.12421 0.0
C18 C 0.35331 0.47152 1.01721 0.0
O19 O 0.33874 0.45075 0.98086 0.0
N20 N 0.2324 0.40968 0.05449 0.0
C21 C 0.20826 0.34745 0.04688 0.0
C22 C 0.21542 0.36187 0.09671 0.0
C23 C 0.22802 0.39296 0.09974 0.0
C24 C 0.22039 0.39652 1.00556 0.0
C25 C 0.20787 0.36549 1.00084 0.0
H26 H 0.24102 0.4022 0.13873 0.0
H27 H 0.22675 0.40869 0.96995 0.0
H28 H 0.35303 0.44293 0.16762 0.0
H29 H 0.40636 0.36065 0.10826 0.0
H30 H 0.16419 0.53066 0.98127 0.0
H31 H 0.217 0.34865 0.1333 0.0
H32 H 0.20242 0.35515 0.96158 0.0
C33 C 0.64319 0.3919 0.48404 0.0
C34 C 0.60526 0.38546 0.44285 0.0
N35 N 0.60275 0.40877 0.40734 0.0
N36 N 0.66508 0.41894 0.47425 0.0
C37 C 0.63953 0.42874 0.42742 0.0
H38 H 0.6529 0.37837 0.51991 0.0
Co39 Co 0.71187 0.4407 0.52198 0.0
C40 C 0.78062 0.45976 0.4399 0.0
O41 O 0.82123 0.4443 0.46045 0.0
N42 N 0.75562 0.46316 0.57158 0.0
C43 C 0.80991 0.49452 0.61986 0.0
C44 C 0.79916 0.47956 0.57149 0.0
C45 C 0.74104 0.46846 0.61994 0.0
N46 N 0.77276 0.48763 0.64999 0.0
O47 O 0.66456 0.47301 0.51896 0.0
H48 H 0.8208 0.48173 0.53825 0.0
H49 H 0.70717 0.45838 0.63278 0.0
O50 O 0.73994 0.45914 0.46228 0.0
C51 C 0.62717 0.46738 0.54457 0.0
O52 O 0.6266 0.4414 0.57111 0.0
N53 N 0.75685 0.40716 0.52705 0.0
C54 C 0.77288 0.34459 0.54102 0.0
C55 C 0.76903 0.35773 0.48975 0.0
C56 C 0.76166 0.38931 0.48365 0.0
C57 C 0.76797 0.39538 0.57731 0.0
C58 C 0.77718 0.3642 0.58516 0.0
H59 H 0.7517 0.39833 0.44373 0.0
H60 H 0.76336 0.40906 0.61178 0.0
H61 H 0.64661 0.45064 0.40949 0.0
H62 H 0.57981 0.36586 0.44074 0.0
H63 H 0.8413 0.51023 0.63095 0.0
H64 H 0.76559 0.34364 0.45429 0.0
H65 H 0.7821 0.35522 0.62555 0.0
C66 C 0.63156 0.61131 1.00447 0.0
C67 C 0.59013 0.61847 0.96762 0.0
N68 N 0.58664 0.59749 0.92823 0.0
N69 N 0.65457 0.58616 0.98814 0.0
C70 C 0.6262 0.5781 0.94184 0.0
H71 H 0.64351 0.62319 0.04152 0.0
Co72 Co 0.70827 0.56518 1.02748 0.0
C73 C 0.77588 0.55176 0.94527 0.0
O74 O 0.81484 0.56316 0.97691 0.0
N75 N 0.76032 0.5428 0.0696 0.0
C76 C 0.81054 0.50427 0.10257 0.0
C77 C 0.78734 0.51818 0.05677 0.0
C78 C 0.76638 0.54239 0.12364 0.0
N79 N 0.79683 0.51938 0.14475 0.0
O80 O 0.66409 0.53109 1.02889 0.0
H81 H 0.78626 0.50862 1.01732 0.0
H82 H 0.74537 0.55714 0.1472 0.0
O83 O 0.73157 0.55069 0.96096 0.0
C84 C 0.63858 0.53303 0.06825 0.0
O85 O 0.65079 0.55449 0.104 0.0
N86 N 0.74875 0.60105 1.02827 0.0
C87 C 0.76996 0.66363 0.03442 0.0
C88 C 0.76068 0.64916 0.98475 0.0
C89 C 0.74993 0.61784 0.98248 0.0
C90 C 0.7617 0.61453 0.0768 0.0
C91 C 0.77321 0.6457 0.08076 0.0
H92 H 0.73657 0.60811 0.94393 0.0
H93 H 0.75744 0.60237 0.11296 0.0
H94 H 0.63395 0.55807 0.91913 0.0
H95 H 0.56363 0.63709 0.97068 0.0
H96 H 0.83158 0.48293 0.10456 0.0
H97 H 0.75756 0.66237 0.94803 0.0
H98 H 0.77919 0.65618 0.1199 0.0
C99 C 0.33343 0.63053 0.59918 0.0
C100 C 0.36809 0.64047 0.6409 0.0
N101 N 0.37449 0.61806 0.67807 0.0
N102 N 0.31724 0.60215 0.61021 0.0
C103 C 0.34334 0.59498 0.65835 0.0
H104 H 0.32158 0.64289 0.56244 0.0
Co105 Co 0.2743 0.57801 0.56253 0.0
C106 C 0.20772 0.55462 0.64474 0.0
O107 O 0.16492 0.56777 0.62384 0.0
N108 N 0.23415 0.5536 0.51226 0.0
C109 C 0.18149 0.52156 0.46349 0.0
C110 C 0.19092 0.53685 0.51159 0.0
C111 C 0.24995 0.5481 0.46435 0.0
N112 N 0.21903 0.52856 0.43392 0.0
O113 O 0.32574 0.54821 0.56666 0.0
H114 H 0.16816 0.53495 0.54393 0.0
H115 H 0.28386 0.55844 0.45202 0.0
O116 O 0.24835 0.55778 0.6226 0.0
C117 C 0.36361 0.55486 0.5424 0.0
O118 O 0.36311 0.58073 0.51544 0.0
N119 N 0.22497 0.60914 0.55673 0.0
C120 C 0.19909 0.67071 0.54534 0.0
C121 C 0.20148 0.65632 0.59536 0.0
C122 C 0.21471 0.62538 0.6003 0.0
C123 C 0.21617 0.62183 0.50696 0.0
C124 C 0.2028 0.65261 0.50032 0.0
H125 H 0.22434 0.6161 0.64005 0.0
H126 H 0.22603 0.60944 0.47284 0.0
H127 H 0.3403 0.57307 0.67797 0.0
H128 H 0.38854 0.66207 0.64274 0.0
H129 H 0.15032 0.50574 0.45205 0.0
H130 H 0.19941 0.66954 0.63122 0.0
H131 H 0.20051 0.66283 0.46091 0.0
C132 C 0.8429 0.88947 0.0723 0.0
C133 C 0.88186 0.8833 0.11268 0.0
N134 N 0.88559 0.9069 0.14733 0.0
N135 N 0.82167 0.91664 0.08174 0.0
C136 C 0.8487 0.92681 0.12743 0.0
H137 H 0.83131 0.87536 0.03771 0.0
Co138 Co 0.77077 0.93697 0.03654 0.0
C139 C 0.70834 0.95838 0.12251 0.0
O140 O 0.66719 0.94282 0.10414 0.0
N141 N 0.72064 0.95793 0.98894 0.0
C142 C 0.64884 0.9729 0.93894 0.0
C143 C 0.66894 0.95748 0.98455 0.0
C144 C 0.73059 0.97354 0.94495 0.0
N145 N 0.68782 0.98281 0.91381 0.0
O146 O 0.81824 0.96907 1.03119 0.0
H147 H 0.64664 0.94461 1.00977 0.0
H148 H 0.76854 0.97727 0.93466 0.0
O149 O 0.74821 0.95723 0.0986 0.0
C150 C 0.84992 0.96178 0.99934 0.0
O151 O 0.84179 0.9366 0.97104 0.0
N152 N 0.7275 0.90316 0.03971 0.0
C153 C 0.70283 0.84123 0.03561 0.0
C154 C 0.71158 0.85634 0.08483 0.0
C155 C 0.72397 0.88748 0.08607 0.0
C156 C 0.71495 0.8893 0.9915 0.0
C157 C 0.70165 0.8584 0.98853 0.0
H158 H 0.73687 0.89784 0.12426 0.0
H159 H 0.72066 0.90127 0.95515 0.0
H160 H 0.84185 0.94864 0.14531 0.0
H161 H 0.90653 0.86342 0.1153 0.0
H162 H 0.60864 0.97483 0.92373 0.0
H163 H 0.71318 0.84366 0.12199 0.0
H164 H 0.69603 0.84739 0.94982 0.0
C165 C 0.13291 0.88842 0.48668 0.0
C166 C 0.09561 0.87697 0.44879 0.0
N167 N 0.08811 0.89718 0.40798 0.0
N168 N 0.14941 0.91554 0.46963 0.0
C169 C 0.12104 0.92047 0.42183 0.0
H170 H 0.14703 0.87777 0.52447 0.0
Co171 Co 0.19827 0.94032 0.50872 0.0
C172 C 0.25406 0.96191 0.41812 0.0
O173 O 0.29824 0.95105 0.44044 0.0
N174 N 0.2454 0.96576 0.5509 0.0
C175 C 0.2956 1.00397 0.58494 0.0
C176 C 0.27629 0.9889 0.53889 0.0
C177 C 0.2459 0.96791 0.60445 0.0
N178 N 0.27601 0.99088 0.62616 0.0
O179 O 0.14722 0.96985 0.51242 0.0
H180 H 0.28169 0.99645 0.49939 0.0
H181 H 0.22291 0.95353 0.62699 0.0
O182 O 0.21437 0.95918 0.44207 0.0
C183 C 0.11953 0.96414 0.54897 0.0
O184 O 0.13214 0.94131 0.58215 0.0
N185 N 0.24654 0.90881 0.50736 0.0
C186 C 0.2707 0.84682 0.51349 0.0
C187 C 0.26289 0.86168 0.46388 0.0
C188 C 0.25023 0.89274 0.46158 0.0
C189 C 0.26033 0.89543 0.55598 0.0
C190 C 0.27259 0.86437 0.55996 0.0
H191 H 0.23601 0.90228 0.42302 0.0
H192 H 0.25502 0.90743 0.59203 0.0
H193 H 0.12452 0.94072 0.39765 0.0
H194 H 0.07489 0.8557 0.45163 0.0
H195 H 0.31918 0.0244 0.5873 0.0
H196 H 0.26028 0.84873 0.42711 0.0
H197 H 0.2785 0.85357 0.59899 0.0
C198 C 0.1262 0.12591 0.98021 0.0
C199 C 0.08941 0.13626 0.9406 0.0
N200 N 0.08395 0.1154 0.90103 0.0
N201 N 0.14436 0.09885 0.96539 0.0
C202 C 0.1175 0.09284 0.91728 0.0
H203 H 0.13902 0.13733 1.01751 0.0
Co204 Co 0.19394 0.07535 1.00626 0.0
C205 C 0.25204 0.05522 0.9166 0.0
O206 O 0.29513 0.06784 0.93818 0.0
N207 N 0.24192 0.05113 0.04996 0.0
C208 C 0.29608 0.01525 0.08577 0.0
C209 C 0.27624 0.02979 0.03921 0.0
C210 C 0.24104 0.04847 0.10329 0.0
N211 N 0.27356 0.02689 0.12607 0.0
O212 O 0.14424 0.04462 1.01031 0.0
H213 H 0.28428 0.02317 1.00018 0.0
H214 H 0.21582 0.06164 0.1249 0.0
O215 O 0.21226 0.0566 0.94066 0.0
C216 C 0.11537 0.05029 0.04574 0.0
O217 O 0.12563 0.07419 0.07684 0.0
N218 N 0.24066 0.10793 1.00473 0.0
C219 C 0.26584 0.16993 1.01067 0.0
C220 C 0.25705 0.1553 0.96107 0.0
C221 C 0.24396 0.12427 0.95889 0.0
C222 C 0.25465 0.12114 0.05328 0.0
C223 C 0.2676 0.15213 0.05716 0.0
H224 H 0.22968 0.11478 0.9204 0.0
H225 H 0.24959 0.10894 0.08943 0.0
H226 H 0.12265 0.07242 0.89446 0.0
H227 H 0.06775 0.15727 0.94134 0.0
H228 H 0.32252 0.99618 0.08907 0.0
H229 H 0.25451 0.16838 0.92425 0.0
H230 H 0.27439 0.16266 0.09622 0.0
C231 C 0.84676 0.11304 0.55933 0.0
C232 C 0.88654 0.12008 0.59833 0.0
N233 N 0.88943 0.09799 0.63612 0.0
N234 N 0.82419 0.08691 0.57296 0.0
C235 C 0.85138 0.07812 0.61955 0.0
H236 H 0.83514 0.12597 0.52317 0.0
Co237 Co 0.77048 0.0662 0.53266 0.0
C238 C 0.71146 0.04973 0.62369 0.0
O239 O 0.67008 0.06457 0.60336 0.0
N240 N 0.71867 0.04448 0.48994 0.0
C241 C 0.66207 0.00982 0.45454 0.0
C242 C 0.68301 0.02393 0.50106 0.0
C243 C 0.71885 0.04202 0.43662 0.0
N244 N 0.68511 0.02108 0.414 0.0
O245 O 0.81514 0.03306 0.52809 0.0
H246 H 0.67505 0.01747 0.54037 0.0
H247 H 0.74471 0.0548 0.41496 0.0
O248 O 0.75038 0.04884 0.59835 0.0
C249 C 0.84351 0.03755 0.49168 0.0
O250 O 0.83484 0.06155 0.46022 0.0
N251 N 0.72891 0.10106 0.53466 0.0
C252 C 0.71846 0.16431 0.52639 0.0
C253 C 0.72588 0.1501 0.57672 0.0
C254 C 0.73085 0.11827 0.58004 0.0
C255 C 0.7147 0.11426 0.48596 0.0
C256 C 0.70867 0.14586 0.481 0.0
H257 H 0.74423 0.10834 0.61857 0.0
H258 H 0.71466 0.10123 0.44991 0.0
H259 H 0.84348 0.05745 0.64088 0.0
H260 H 0.91202 0.13958 0.59823 0.0
H261 H 0.63469 0.99117 0.45157 0.0
H262 H 0.7339 0.16346 0.61289 0.0
H263 H 0.70164 0.15594 0.44145 0.0
H264 H 0.13688 0.55415 0.71474 0.0
H265 H 0.28589 0.51927 0.69283 0.0
H266 H 0.29425 0.4958 0.78136 0.0
H267 H 0.26149 0.48746 0.867 0.0
H268 H 0.11406 0.52358 0.89063 0.0
H269 H 0.10287 0.54432 0.79962 0.0
C270 C 0.17096 0.54116 0.72907 0.0
C271 C 0.21067 0.53855 0.69702 0.0
C272 C 0.17595 0.52806 0.78055 0.0
C273 C 0.25473 0.52177 0.71656 0.0
C274 C 0.2596 0.50832 0.76729 0.0
C275 C 0.22653 0.49939 0.85194 0.0
C276 C 0.18853 0.50387 0.88551 0.0
C277 C 0.22075 0.51161 0.79988 0.0
C278 C 0.14396 0.52002 0.86567 0.0
C279 C 0.13754 0.53181 0.81363 0.0
H280 H 0.84575 0.5067 0.7281 0.0
H281 H 0.68248 0.49597 0.68824 0.0
H282 H 0.66908 0.51418 0.77626 0.0
H283 H 0.70335 0.53306 0.86504 0.0
H284 H 0.86645 0.54501 0.90493 0.0
H285 H 0.88007 0.52673 0.81673 0.0
C286 C 0.80728 0.50858 0.73858 0.0
C287 C 0.76536 0.49958 0.70167 0.0
C288 C 0.79968 0.51929 0.78947 0.0
C289 C 0.71566 0.50203 0.7161 0.0
C290 C 0.70784 0.51266 0.76643 0.0
C291 C 0.74189 0.5316 0.85453 0.0
C292 C 0.78374 0.54033 0.89173 0.0
C293 C 0.74955 0.52119 0.80358 0.0
C294 C 0.83342 0.53846 0.87718 0.0
C295 C 0.84133 0.52799 0.82666 0.0
H296 H 0.85216 0.45805 0.37047 0.0
H297 H 0.70624 0.49765 0.3922 0.0
H298 H 0.69972 0.52079 0.30377 0.0
H299 H 0.73233 0.52719 0.21836 0.0
H300 H 0.87766 0.48787 0.19479 0.0
H301 H 0.88733 0.46707 0.28573 0.0
C302 C 0.81922 0.47202 0.3561 0.0
C303 C 0.77966 0.47589 0.38798 0.0
C304 C 0.81536 0.48514 0.3047 0.0
C305 C 0.73717 0.49404 0.36854 0.0
C306 C 0.73333 0.50733 0.31786 0.0
C307 C 0.76669 0.51467 0.23328 0.0
C308 C 0.8043 0.50919 0.19967 0.0
C309 C 0.77181 0.50269 0.28534 0.0
C310 C 0.84794 0.49219 0.21964 0.0
C311 C 0.85353 0.48037 0.27168 0.0
H312 H 0.28723 0.4811 0.2185 0.0
H313 H 0.12418 0.46704 0.18243 0.0
H314 H 0.11152 0.48667 0.26981 0.0
H315 H 0.1462 0.50818 0.35677 0.0
H316 H 0.30907 0.52192 0.39373 0.0
H317 H 0.32202 0.50246 0.30612 0.0
C318 C 0.24893 0.48236 0.22971 0.0
C319 C 0.20681 0.47255 0.19363 0.0
C320 C 0.24171 0.49376 0.28039 0.0
C321 C 0.15746 0.47436 0.20912 0.0
C322 C 0.15006 0.48562 0.25925 0.0
C323 C 0.18456 0.50672 0.34587 0.0
C324 C 0.22644 0.51672 0.382 0.0
C325 C 0.19186 0.49536 0.29528 0.0
C326 C 0.27589 0.51493 0.36666 0.0
C327 C 0.28344 0.50359 0.31653 0.0
H328 H 0.75642 0.97896 0.84327 0.0
H329 H 0.6114 0.01894 0.86644 0.0
H330 H 0.60503 0.04264 0.77791 0.0
H331 H 0.64124 0.05245 0.69419 0.0
H332 H 0.78725 0.01296 0.67267 0.0
H333 H 0.79282 0.98899 0.76057 0.0
C334 C 0.7237 0.99318 0.82946 0.0
C335 C 0.68456 0.99724 0.86184 0.0
C336 C 0.72042 0.00683 0.77865 0.0
C337 C 0.64189 0.01519 0.84232 0.0
C338 C 0.63832 0.02886 0.79174 0.0
C339 C 0.67421 0.03851 0.70861 0.0
C340 C 0.71374 0.03457 0.67667 0.0
C341 C 0.67736 0.02483 0.75951 0.0
C342 C 0.75626 0.0165 0.69626 0.0
C343 C 0.75953 1.00274 0.74662 0.0
H344 H 0.32657 0.05217 0.85139 0.0
H345 H 0.17119 0.02393 0.86283 0.0
H346 H 0.16567 1.00029 0.77481 0.0
H347 H 0.20389 0.98917 0.69305 0.0
H348 H 0.35847 0.01825 0.68096 0.0
H349 H 0.36535 0.04004 0.77067 0.0
C350 C 0.29154 0.04072 0.83484 0.0
C351 C 0.24936 0.03992 0.86386 0.0
C352 C 0.28844 0.02735 0.78393 0.0
C353 C 0.20426 0.02501 0.8415 0.0
C354 C 0.20105 0.01144 0.79108 0.0
C355 C 0.23934 0.99985 0.71036 0.0
C356 C 0.28071 1.00201 0.68034 0.0
C357 C 0.24278 0.01262 0.76178 0.0
C358 C 0.32601 0.0165 0.70305 0.0
C359 C 0.32997 0.0289 0.75438 0.0
H360 H 0.20054 0.0253 0.19195 0.0
H361 H 0.35847 1.00315 0.1826 0.0
H362 H 0.36685 0.98168 0.27288 0.0
H363 H 0.32871 0.96796 0.3535 0.0
H364 H 0.17021 0.98942 0.36242 0.0
H365 H 0.16282 0.0126 0.27358 0.0
C366 C 0.23698 0.01619 0.20995 0.0
C367 C 0.27887 0.01588 0.18051 0.0
C368 C 0.24136 1.00363 0.26176 0.0
C369 C 0.32556 1.00342 0.20418 0.0
C370 C 0.33039 0.99122 0.25586 0.0
C371 C 0.29257 0.97782 0.3362 0.0
C372 C 0.25009 0.97685 0.36477 0.0
C373 C 0.28843 0.99095 0.28486 0.0
C374 C 0.20355 0.98973 0.34145 0.0
C375 C 0.19926 1.00303 0.29057 0.0
H376 H 0.75682 0.02308 0.34635 0.0
H377 H 0.6022 0.99383 0.3588 0.0
H378 H 0.59506 0.97275 0.26867 0.0
H379 H 0.63363 0.96126 0.18753 0.0
H380 H 0.78804 0.99116 0.17514 0.0
H381 H 0.79387 0.01389 0.26383 0.0
C382 C 0.72116 0.01263 0.32923 0.0
C383 C 0.68006 0.01012 0.35963 0.0
C384 C 0.71729 1.00061 0.27733 0.0
C385 C 0.63463 0.9958 0.33672 0.0
C386 C 0.63044 0.98385 0.28504 0.0
C387 C 0.66849 0.97293 0.20396 0.0
C388 C 0.71046 0.97426 0.17463 0.0
C389 C 0.6717 0.98589 0.25516 0.0
C390 C 0.75522 0.98957 0.19675 0.0
C391 C 0.75862 1.0026 0.24757 0.0
H392 H 0.42019 0.48607 0.10391 0.0
H393 H 0.40085 0.48645 0.9317 0.0
H394 H 0.48968 0.50298 0.93202 0.0
H395 H 0.5729 0.51692 0.98146 0.0
H396 H 0.59214 0.51663 0.15368 0.0
H397 H 0.50366 0.49946 0.15333 0.0
C398 C 0.43526 0.49033 0.06654 0.0
C399 C 0.40411 0.48557 1.01786 0.0
C400 C 0.48661 0.49897 0.06708 0.0
C401 C 0.42426 0.49031 0.96963 0.0
C402 C 0.47505 0.49947 0.96979 0.0
C403 C 0.55797 0.51244 1.01883 0.0
C404 C 0.58891 0.51757 0.06753 0.0
C405 C 0.50674 0.5035 1.01828 0.0
C406 C 0.5689 0.51249 0.11574 0.0
C407 C 0.51829 0.503 0.11557 0.0
H408 H 0.54042 0.45866 0.58866 0.0
H409 H 0.61455 0.52201 0.49124 0.0
H410 H 0.53864 0.55461 0.48147 0.0
H411 H 0.45124 0.56452 0.49972 0.0
H412 H 0.3773 0.50075 0.59664 0.0
H413 H 0.45351 0.46859 0.60711 0.0
C414 C 0.54014 0.47967 0.56547 0.0
C415 C 0.58291 0.48798 0.54076 0.0
C416 C 0.49646 0.49803 0.55963 0.0
C417 C 0.582 0.5152 0.51075 0.0
C418 C 0.53864 0.53377 0.50501 0.0
C419 C 0.45173 0.54355 0.52302 0.0
C420 C 0.40879 0.53496 0.54728 0.0
C421 C 0.4956 0.52528 0.52905 0.0
C422 C 0.40994 0.50779 0.57746 0.0
C423 C 0.45347 0.48944 0.58359 0.0
H424 H 0.06504 0.01566 0.96697 0.0
H425 H 0.0561 0.04899 0.12614 0.0
H426 H 0.97127 0.02607 0.12472 0.0
H427 H 0.89941 0.99687 0.07788 0.0
H428 H 0.9088 0.96333 0.91898 0.0
H429 H -0.00661 0.98653 0.92024 0.0
C430 C 0.04477 0.01756 1.00157 0.0
C431 C 0.06675 0.03379 0.04666 0.0
C432 C -0.00421 1.00479 1.00016 0.0
C433 C 0.03984 0.03651 0.09095 0.0
C434 C -0.0087 0.02357 0.0901 0.0
C435 C 0.91973 0.99508 0.04329 0.0
C436 C 0.89799 0.97872 0.99827 0.0
C437 C 0.9687 0.00792 0.04471 0.0
C438 C 0.92493 0.97597 0.95404 0.0
C439 C 0.97332 0.98906 0.95482 0.0
H440 H 0.89905 0.0105 0.57656 0.0
H441 H 0.8973 0.02941 0.40848 0.0
H442 H 0.98433 0.00961 0.41194 0.0
H443 H 0.06164 0.9887 0.46342 0.0
H444 H 0.06376 0.96984 0.63155 0.0
H445 H 0.97595 0.98856 0.62777 0.0
C446 C 0.91741 0.00968 0.54053 0.0
C447 C 0.89198 0.02108 0.49225 0.0
C448 C 0.96775 0.99904 0.54314 0.0
C449 C 0.91635 0.02056 0.44601 0.0
C450 C 0.96611 0.00949 0.44805 0.0
C451 C 0.04307 0.98911 0.49934 0.0
C452 C 0.06903 0.97834 0.54781 0.0
C453 C -0.00754 0.99921 0.49659 0.0
C454 C 0.04436 0.97827 0.59388 0.0
C455 C -0.00583 0.98875 0.59167 0.0
H456 H 0.26607 0.31396 0.98762 0.0
H457 H 0.15747 0.30512 0.10085 0.0
H458 H 0.16806 0.24935 0.10148 0.0
H459 H 0.20811 0.2034 0.06973 0.0
H460 H 0.31625 0.21215 0.95608 0.0
H461 H 0.30578 0.26796 0.95548 0.0
C462 C 0.24395 0.29978 1.01166 0.0
C463 C 0.21046 0.31357 0.04362 0.0
C464 C 0.25066 0.2679 1.01219 0.0
C465 C 0.18325 0.29499 0.07577 0.0
C466 C 0.18943 0.26317 0.07624 0.0
C467 C 0.23011 0.21758 0.04557 0.0
C468 C 0.26356 0.20379 1.0136 0.0
C469 C 0.22332 0.24945 0.04493 0.0
C470 C 0.2906 0.22233 0.98125 0.0
C471 C 0.28446 0.25415 0.98079 0.0
H472 H 0.80199 0.29643 0.48267 0.0
H473 H 0.71797 0.31797 0.61373 0.0
H474 H 0.69325 0.26463 0.62038 0.0
H475 H 0.6922 0.21192 0.58702 0.0
H476 H 0.77397 0.19056 0.4544 0.0
H477 H 0.80046 0.24384 0.44891 0.0
C478 C 0.77826 0.28951 0.51267 0.0
C479 C 0.76267 0.31134 0.54797 0.0
C480 C 0.76251 0.25884 0.51528 0.0
C481 C 0.73211 0.30172 0.58689 0.0
C482 C 0.7171 0.27119 0.59029 0.0
C483 C 0.71572 0.21896 0.55688 0.0
C484 C 0.73033 0.19734 0.52078 0.0
C485 C 0.73162 0.2496 0.55438 0.0
C486 C 0.76086 0.20686 0.48186 0.0
C487 C 0.77671 0.23728 0.47909 0.0
H488 H 0.7744 0.80452 0.08864 0.0
H489 H 0.63791 0.80277 0.97427 0.0
H490 H 0.64853 0.74759 0.96181 0.0
H491 H 0.6972 0.70027 0.98297 0.0
H492 H 0.83403 0.70206 0.09692 0.0
H493 H 0.82292 0.75714 0.11005 0.0
C494 C 0.74641 0.79189 0.06185 0.0
C495 C 0.70496 0.80744 0.033 0.0
C496 C 0.75336 0.76047 0.05424 0.0
C497 C 0.6698 0.7911 0.99718 0.0
C498 C 0.67605 0.75969 0.98987 0.0
C499 C 0.7251 0.71286 1.00992 0.0
C500 C 0.76682 0.69735 0.03838 0.0
C501 C 0.71801 0.74425 1.01775 0.0
C502 C 0.80187 0.71367 0.07436 0.0
C503 C 0.79537 0.74504 0.08202 0.0
H504 H 0.20658 0.81469 0.56762 0.0
H505 H 0.3222 0.80376 0.463 0.0
H506 H 0.30806 0.74816 0.46172 0.0
H507 H 0.2632 0.70309 0.49091 0.0
H508 H 0.14627 0.71409 0.59418 0.0
H509 H 0.1606 0.7696 0.5956 0.0
C510 C 0.2293 0.80003 0.54532 0.0
C511 C 0.2661 0.81308 0.51624 0.0
C512 C 0.22024 0.76836 0.54405 0.0
C513 C 0.29413 0.79407 0.4861 0.0
C514 C 0.28585 0.7624 0.4852 0.0
C515 C 0.24001 0.71767 0.51281 0.0
C516 C 0.20316 0.70455 0.54182 0.0
C517 C 0.24878 0.74937 0.51375 0.0
C518 C 0.17464 0.72368 0.57137 0.0
C519 C 0.18296 0.75534 0.57231 0.0
H520 H 0.55288 0.36404 0.34858 0.0
H521 H 0.56809 0.46235 0.36048 0.0
H522 H 0.50329 0.46867 0.28293 0.0
H523 H 0.4413 0.44611 0.21181 0.0
H524 H 0.42578 0.3478 0.20174 0.0
H525 H 0.49107 0.34166 0.27878 0.0
C526 C 0.54178 0.38687 0.33458 0.0
C527 C 0.56546 0.41261 0.36057 0.0
C528 C 0.50415 0.39035 0.29028 0.0
C529 C 0.55115 0.44205 0.34103 0.0
C530 C 0.5137 0.44571 0.29685 0.0
C531 C 0.4519 0.4234 0.22691 0.0
C532 C 0.42872 0.39744 0.20107 0.0
C533 C 0.48975 0.42002 0.27126 0.0
C534 C 0.44344 0.36811 0.22053 0.0
C535 C 0.48065 0.36459 0.2647 0.0
H536 H 0.42533 0.56985 0.72743 0.0
H537 H 0.40379 0.6675 0.73805 0.0
H538 H 0.46787 0.66969 0.81674 0.0
H539 H 0.53184 0.64435 0.88078 0.0
H540 H 0.5533 0.54658 0.87221 0.0
H541 H 0.48787 0.54397 0.79437 0.0
C542 C 0.4342 0.5915 0.74743 0.0
C543 C 0.40991 0.61851 0.72667 0.0
C544 C 0.47147 0.59263 0.79272 0.0
C545 C 0.42239 0.64647 0.7527 0.0
C546 C 0.45894 0.64773 0.79783 0.0
C547 C 0.52189 0.62239 0.86238 0.0
C548 C 0.54773 0.59576 0.88243 0.0
C549 C 0.48405 0.62103 0.81788 0.0
C550 C 0.53474 0.56756 0.85727 0.0
C551 C 0.49699 0.56601 0.81291 0.0
H552 H 0.04099 0.94301 0.34816 0.0
H553 H 0.05416 0.84457 0.35953 0.0
H554 H -0.00801 0.83893 0.27989 0.0
H555 H 0.93332 0.86175 0.20748 0.0
H556 H 0.92099 0.96016 0.1941 0.0
H557 H 0.98304 0.966 0.27406 0.0
C558 C 0.03064 0.92036 0.33289 0.0
C559 C 0.0522 0.89425 0.36 0.0
C560 C -0.00526 0.91725 0.28683 0.0
C561 C 0.0377 0.86503 0.34002 0.0
C562 C 0.0023 0.86178 0.29426 0.0
C563 C 0.94452 0.8845 0.22163 0.0
C564 C 0.92232 0.91042 0.19462 0.0
C565 C 0.98048 0.8877 0.26743 0.0
C566 C 0.93677 0.93974 0.21434 0.0
C567 C 0.9726 0.94312 0.25994 0.0
H568 H 0.04019 0.06797 0.84355 0.0
H569 H 0.04998 0.16668 0.84756 0.0
H570 H -0.00943 0.17 0.76523 0.0
H571 H 0.935 0.14496 0.6926 0.0
H572 H 0.92539 0.04628 0.68771 0.0
H573 H 0.98547 0.04282 0.76974 0.0
C574 C 0.02972 0.09018 0.82611 0.0
C575 C 0.0495 0.11704 0.85183 0.0
C576 C -0.00461 0.09193 0.77868 0.0
C577 C 0.03484 0.14567 0.82907 0.0
C578 C 0.00106 0.14759 0.7818 0.0
C579 C 0.94645 0.1227 0.70916 0.0
C580 C 0.92562 0.09596 0.68402 0.0
C581 C 0.98098 0.12089 0.75634 0.0
C582 C 0.94025 0.06726 0.70658 0.0
C583 C 0.97486 0.06525 0.75336 0.0
loop_
_geom_bond_atom_site_label_1
_geom_bond_atom_site_label_2
_geom_bond_distance
_geom_bond_site_symmetry_2
_ccdc_geom_bond_type
C0 C1 1.351 . S
C0 N3 1.368 . S
C0 H5 0.931 . S
C1 C0 1.351 . S
C1 N2 1.373 . S
C1 H29 0.930 . S
N2 C1 1.373 . S
N2 C4 1.340 . S
N3 C0 1.368 . S
N3 C4 1.321 . S
N3 Co6 2.135 . S
C4 N2 1.340 . S
C4 N3 1.321 . S
C4 H28 0.930 . S
H5 C0 0.931 . S
Co6 N3 2.135 . S
Co6 N9 2.121 1_554 S
Co6 O14 2.055 . S
Co6 O17 2.039 . S
Co6 N20 2.140 . S
C7 O8 1.227 . S
C7 O17 1.265 . S
O8 C7 1.227 . S
N9 Co6 2.121 1_556 S
N9 C11 1.375 . S
N9 C12 1.313 . S
C10 C11 1.338 . S
C10 N13 1.377 . S
C10 H30 0.930 . S
C11 N9 1.375 . S
C11 C10 1.338 . S
C11 H15 0.931 1_556 S
C12 N9 1.313 . S
C12 N13 1.344 . S
C12 H16 0.930 . S
N13 C10 1.377 . S
N13 C12 1.344 . S
O14 Co6 2.055 . S
O14 C18 1.253 1_554 S
H15 C11 0.931 1_554 S
H16 C12 0.930 . S
O17 Co6 2.039 . S
O17 C7 1.265 . S
C18 O14 1.253 1_556 S
C18 O19 1.227 . S
O19 C18 1.227 . S
N20 Co6 2.140 . S
N20 C23 1.346 . S
N20 C24 1.345 1_554 S
C21 C22 1.387 . S
C21 C25 1.391 1_554 S
C22 C21 1.387 . S
C22 C23 1.369 . S
C22 H31 0.929 . S
C23 N20 1.346 . S
C23 C22 1.369 . S
C23 H26 0.928 . S
C24 N20 1.345 1_556 S
C24 C25 1.371 . S
C24 H27 0.931 . S
C25 C21 1.391 1_556 S
C25 C24 1.371 . S
C25 H32 0.930 . S
H26 C23 0.928 . S
H27 C24 0.931 . S
H28 C4 0.930 . S
H29 C1 0.930 . S
H30 C10 0.930 . S
H31 C22 0.929 . S
H32 C25 0.930 . S
C33 C34 1.351 . S
C33 N36 1.368 . S
C33 H38 0.931 . S
C34 C33 1.351 . S
C34 N35 1.373 . S
C34 H62 0.930 . S
N35 C34 1.373 . S
N35 C37 1.340 . S
N36 C33 1.368 . S
N36 C37 1.321 . S
N36 Co39 2.135 . S
C37 N35 1.340 . S
C37 N36 1.321 . S
C37 H61 0.930 . S
H38 C33 0.931 . S
Co39 N36 2.135 . S
Co39 N42 2.121 . S
Co39 O47 2.055 . S
Co39 O50 2.039 . S
Co39 N53 2.140 . S
C40 O41 1.227 . S
C40 O50 1.265 . S
O41 C40 1.227 . S
N42 Co39 2.121 . S
N42 C44 1.375 . S
N42 C45 1.313 . S
C43 C44 1.338 . S
C43 N46 1.377 . S
C43 H63 0.930 . S
C44 N42 1.375 . S
C44 C43 1.338 . S
C44 H48 0.931 . S
C45 N42 1.313 . S
C45 N46 1.344 . S
C45 H49 0.930 . S
N46 C43 1.377 . S
N46 C45 1.344 . S
O47 Co39 2.055 . S
O47 C51 1.253 . S
H48 C44 0.931 . S
H49 C45 0.930 . S
O50 Co39 2.039 . S
O50 C40 1.265 . S
C51 O47 1.253 . S
C51 O52 1.227 . S
O52 C51 1.227 . S
N53 Co39 2.140 . S
N53 C56 1.346 . S
N53 C57 1.345 . S
C54 C55 1.387 . S
C54 C58 1.391 . S
C55 C54 1.387 . S
C55 C56 1.369 . S
C55 H64 0.929 . S
C56 N53 1.346 . S
C56 C55 1.369 . S
C56 H59 0.928 . S
C57 N53 1.345 . S
C57 C58 1.371 . S
C57 H60 0.931 . S
C58 C54 1.391 . S
C58 C57 1.371 . S
C58 H65 0.930 . S
H59 C56 0.928 . S
H60 C57 0.931 . S
H61 C37 0.930 . S
H62 C34 0.930 . S
H63 C43 0.930 . S
H64 C55 0.929 . S
H65 C58 0.930 . S
C66 C67 1.351 . S
C66 N69 1.368 . S
C66 H71 0.931 . S
C67 C66 1.351 . S
C67 N68 1.373 . S
C67 H95 0.930 . S
N68 C67 1.373 . S
N68 C70 1.340 . S
N69 C66 1.368 . S
N69 C70 1.321 . S
N69 Co72 2.135 . S
C70 N68 1.340 . S
C70 N69 1.321 . S
C70 H94 0.930 . S
H71 C66 0.931 . S
Co72 N69 2.135 . S
Co72 N75 2.121 1_556 S
Co72 O80 2.055 . S
Co72 O83 2.039 . S
Co72 N86 2.140 . S
C73 O74 1.227 . S
C73 O83 1.265 . S
O74 C73 1.227 . S
N75 Co72 2.121 1_554 S
N75 C77 1.375 . S
N75 C78 1.313 . S
C76 C77 1.338 . S
C76 N79 1.377 . S
C76 H96 0.930 . S
C77 N75 1.375 . S
C77 C76 1.338 . S
C77 H81 0.931 1_554 S
C78 N75 1.313 . S
C78 N79 1.344 . S
C78 H82 0.930 . S
N79 C76 1.377 . S
N79 C78 1.344 . S
O80 Co72 2.055 . S
O80 C84 1.253 1_556 S
H81 C77 0.931 1_556 S
H82 C78 0.930 . S
O83 Co72 2.039 . S
O83 C73 1.265 . S
C84 O80 1.253 1_554 S
C84 O85 1.227 . S
O85 C84 1.227 . S
N86 Co72 2.140 . S
N86 C89 1.346 . S
N86 C90 1.345 1_556 S
C87 C88 1.387 . S
C87 C91 1.391 1_556 S
C88 C87 1.387 . S
C88 C89 1.369 . S
C88 H97 0.929 . S
C89 N86 1.346 . S
C89 C88 1.369 . S
C89 H92 0.928 . S
C90 N86 1.345 1_554 S
C90 C91 1.371 . S
C90 H93 0.931 . S
C91 C87 1.391 1_554 S
C91 C90 1.371 . S
C91 H98 0.930 . S
H92 C89 0.928 . S
H93 C90 0.931 . S
H94 C70 0.930 . S
H95 C67 0.930 . S
H96 C76 0.930 . S
H97 C88 0.929 . S
H98 C91 0.930 . S
C99 C100 1.351 . S
C99 N102 1.368 . S
C99 H104 0.931 . S
C100 C99 1.351 . S
C100 N101 1.373 . S
C100 H128 0.930 . S
N101 C100 1.373 . S
N101 C103 1.340 . S
N102 C99 1.368 . S
N102 C103 1.321 . S
N102 Co105 2.135 . S
C103 N101 1.340 . S
C103 N102 1.321 . S
C103 H127 0.930 . S
H104 C99 0.931 . S
Co105 N102 2.135 . S
Co105 N108 2.121 . S
Co105 O113 2.055 . S
Co105 O116 2.039 . S
Co105 N119 2.140 . S
C106 O107 1.227 . S
C106 O116 1.265 . S
O107 C106 1.227 . S
N108 Co105 2.121 . S
N108 C110 1.375 . S
N108 C111 1.313 . S
C109 C110 1.338 . S
C109 N112 1.377 . S
C109 H129 0.930 . S
C110 N108 1.375 . S
C110 C109 1.338 . S
C110 H114 0.931 . S
C111 N108 1.313 . S
C111 N112 1.344 . S
C111 H115 0.930 . S
N112 C109 1.377 . S
N112 C111 1.344 . S
O113 Co105 2.055 . S
O113 C117 1.253 . S
H114 C110 0.931 . S
H115 C111 0.930 . S
O116 Co105 2.039 . S
O116 C106 1.265 . S
C117 O113 1.253 . S
C117 O118 1.227 . S
O118 C117 1.227 . S
N119 Co105 2.140 . S
N119 C122 1.346 . S
N119 C123 1.345 . S
C120 C121 1.387 . S
C120 C124 1.391 . S
C121 C120 1.387 . S
C121 C122 1.369 . S
C121 H130 0.929 . S
C122 N119 1.346 . S
C122 C121 1.369 . S
C122 H125 0.928 . S
C123 N119 1.345 . S
C123 C124 1.371 . S
C123 H126 0.931 . S
C124 C120 1.391 . S
C124 C123 1.371 . S
C124 H131 0.930 . S
H125 C122 0.928 . S
H126 C123 0.931 . S
H127 C103 0.930 . S
H128 C100 0.930 . S
H129 C109 0.930 . S
H130 C121 0.929 . S
H131 C124 0.930 . S
C132 C133 1.351 . S
C132 N135 1.368 . S
C132 H137 0.931 . S
C133 C132 1.351 . S
C133 N134 1.373 . S
C133 H161 0.930 . S
N134 C133 1.373 . S
N134 C136 1.340 . S
N135 C132 1.368 . S
N135 C136 1.321 . S
N135 Co138 2.135 . S
C136 N134 1.340 . S
C136 N135 1.321 . S
C136 H160 0.930 . S
H137 C132 0.931 . S
Co138 N135 2.135 . S
Co138 N141 2.121 1_554 S
Co138 O146 2.055 . S
Co138 O149 2.039 . S
Co138 N152 2.140 . S
C139 O140 1.227 . S
C139 O149 1.265 . S
O140 C139 1.227 . S
N141 Co138 2.121 1_556 S
N141 C143 1.375 . S
N141 C144 1.313 . S
C142 C143 1.338 . S
C142 N145 1.377 . S
C142 H162 0.930 . S
C143 N141 1.375 . S
C143 C142 1.338 . S
C143 H147 0.931 1_556 S
C144 N141 1.313 . S
C144 N145 1.344 . S
C144 H148 0.930 . S
N145 C142 1.377 . S
N145 C144 1.344 . S
O146 Co138 2.055 . S
O146 C150 1.253 1_554 S
H147 C143 0.931 1_554 S
H148 C144 0.930 . S
O149 Co138 2.039 . S
O149 C139 1.265 . S
C150 O146 1.253 1_556 S
C150 O151 1.227 . S
O151 C150 1.227 . S
N152 Co138 2.140 . S
N152 C155 1.346 . S
N152 C156 1.345 1_554 S
C153 C154 1.387 . S
C153 C157 1.391 1_554 S
C154 C153 1.387 . S
C154 C155 1.369 . S
C154 H163 0.929 . S
C155 N152 1.346 . S
C155 C154 1.369 . S
C155 H158 0.928 . S
C156 N152 1.345 1_556 S
C156 C157 1.371 . S
C156 H159 0.931 . S
C157 C153 1.391 1_556 S
C157 C156 1.371 . S
C157 H164 0.930 . S
H158 C155 0.928 . S
H159 C156 0.931 . S
H160 C136 0.930 . S
H161 C133 0.930 . S
H162 C142 0.930 . S
H163 C154 0.929 . S
H164 C157 0.930 . S
C165 C166 1.351 . S
C165 N168 1.368 . S
C165 H170 0.931 . S
C166 C165 1.351 . S
C166 N167 1.373 . S
C166 H194 0.930 . S
N167 C166 1.373 . S
N167 C169 1.340 . S
N168 C165 1.368 . S
N168 C169 1.321 . S
N168 Co171 2.135 . S
C169 N167 1.340 . S
C169 N168 1.321 . S
C169 H193 0.930 . S
H170 C165 0.931 . S
Co171 N168 2.135 . S
Co171 N174 2.121 . S
Co171 O179 2.055 . S
Co171 O182 2.039 . S
Co171 N185 2.140 . S
C172 O173 1.227 . S
C172 O182 1.265 . S
O173 C172 1.227 . S
N174 Co171 2.121 . S
N174 C176 1.375 . S
N174 C177 1.313 . S
C175 C176 1.338 . S
C175 N178 1.377 . S
C175 H195 0.930 . S
C176 N174 1.375 . S
C176 C175 1.338 . S
C176 H180 0.931 . S
C177 N174 1.313 . S
C177 N178 1.344 . S
C177 H181 0.930 . S
N178 C175 1.377 . S
N178 C177 1.344 . S
O179 Co171 2.055 . S
O179 C183 1.253 . S
H180 C176 0.931 . S
H181 C177 0.930 . S
O182 Co171 2.039 . S
O182 C172 1.265 . S
C183 O179 1.253 . S
C183 O184 1.227 . S
O184 C183 1.227 . S
N185 Co171 2.140 . S
N185 C188 1.346 . S
N185 C189 1.345 . S
C186 C187 1.387 . S
C186 C190 1.391 . S
C187 C186 1.387 . S
C187 C188 1.369 . S
C187 H196 0.929 . S
C188 N185 1.346 . S
C188 C187 1.369 . S
C188 H191 0.928 . S
C189 N185 1.345 . S
C189 C190 1.371 . S
C189 H192 0.931 . S
C190 C186 1.391 . S
C190 C189 1.371 . S
C190 H197 0.930 . S
H191 C188 0.928 . S
H192 C189 0.931 . S
H193 C169 0.930 . S
H194 C166 0.930 . S
H195 C175 0.930 . S
H196 C187 0.929 . S
H197 C190 0.930 . S
C198 C199 1.351 . S
C198 N201 1.368 . S
C198 H203 0.931 . S
C199 C198 1.351 . S
C199 N200 1.373 . S
C199 H227 0.930 . S
N200 C199 1.373 . S
N200 C202 1.340 . S
N201 C198 1.368 . S
N201 C202 1.321 . S
N201 Co204 2.135 . S
C202 N200 1.340 . S
C202 N201 1.321 . S
C202 H226 0.930 . S
H203 C198 0.931 . S
Co204 N201 2.135 . S
Co204 N207 2.121 1_556 S
Co204 O212 2.055 . S
Co204 O215 2.039 . S
Co204 N218 2.140 . S
C205 O206 1.227 . S
C205 O215 1.265 . S
O206 C205 1.227 . S
N207 Co204 2.121 1_554 S
N207 C209 1.375 . S
N207 C210 1.313 . S
C208 C209 1.338 . S
C208 N211 1.377 . S
C208 H228 0.930 . S
C209 N207 1.375 . S
C209 C208 1.338 . S
C209 H213 0.931 1_554 S
C210 N207 1.313 . S
C210 N211 1.344 . S
C210 H214 0.930 . S
N211 C208 1.377 . S
N211 C210 1.344 . S
O212 Co204 2.055 . S
O212 C216 1.253 1_556 S
H213 C209 0.931 1_556 S
H214 C210 0.930 . S
O215 Co204 2.039 . S
O215 C205 1.265 . S
C216 O212 1.253 1_554 S
C216 O217 1.227 . S
O217 C216 1.227 . S
N218 Co204 2.140 . S
N218 C221 1.346 . S
N218 C222 1.345 1_556 S
C219 C220 1.387 . S
C219 C223 1.391 1_556 S
C220 C219 1.387 . S
C220 C221 1.369 . S
C220 H229 0.929 . S
C221 N218 1.346 . S
C221 C220 1.369 . S
C221 H224 0.928 . S
C222 N218 1.345 1_554 S
C222 C223 1.371 . S
C222 H225 0.931 . S
C223 C219 1.391 1_554 S
C223 C222 1.371 . S
C223 H230 0.930 . S
H224 C221 0.928 . S
H225 C222 0.931 . S
H226 C202 0.930 . S
H227 C199 0.930 . S
H228 C208 0.930 . S
H229 C220 0.929 . S
H230 C223 0.930 . S
C231 C232 1.351 . S
C231 N234 1.368 . S
C231 H236 0.931 . S
C232 C231 1.351 . S
C232 N233 1.373 . S
C232 H260 0.930 . S
N233 C232 1.373 . S
N233 C235 1.340 . S
N234 C231 1.368 . S
N234 C235 1.321 . S
N234 Co237 2.135 . S
C235 N233 1.340 . S
C235 N234 1.321 . S
C235 H259 0.930 . S
H236 C231 0.931 . S
Co237 N234 2.135 . S
Co237 N240 2.121 . S
Co237 O245 2.055 . S
Co237 O248 2.039 . S
Co237 N251 2.140 . S
C238 O239 1.227 . S
C238 O248 1.265 . S
O239 C238 1.227 . S
N240 Co237 2.121 . S
N240 C242 1.375 . S
N240 C243 1.313 . S
C241 C242 1.338 . S
C241 N244 1.377 . S
C241 H261 0.930 . S
C242 N240 1.375 . S
C242 C241 1.338 . S
C242 H246 0.931 . S
C243 N240 1.313 . S
C243 N244 1.344 . S
C243 H247 0.930 . S
N244 C241 1.377 . S
N244 C243 1.344 . S
O245 Co237 2.055 . S
O245 C249 1.253 . S
H246 C242 0.931 . S
H247 C243 0.930 . S
O248 Co237 2.039 . S
O248 C238 1.265 . S
C249 O245 1.253 . S
C249 O250 1.227 . S
O250 C249 1.227 . S
N251 Co237 2.140 . S
N251 C254 1.346 . S
N251 C255 1.345 . S
C252 C253 1.387 . S
C252 C256 1.391 . S
C253 C252 1.387 . S
C253 C254 1.369 . S
C253 H262 0.929 . S
C254 N251 1.346 . S
C254 C253 1.369 . S
C254 H257 0.928 . S
C255 N251 1.345 . S
C255 C256 1.371 . S
C255 H258 0.931 . S
C256 C252 1.391 . S
C256 C255 1.371 . S
C256 H263 0.930 . S
H257 C254 0.928 . S
H258 C255 0.931 . S
H259 C235 0.930 . S
H260 C232 0.930 . S
H261 C241 0.930 . S
H262 C253 0.929 . S
H263 C256 0.930 . S
H264 C270 0.930 . S
H265 C273 0.930 . S
H266 C274 0.930 . S
H267 C275 0.930 . S
H268 C278 0.930 . S
H269 C279 0.930 . S
C270 H264 0.930 . S
C270 C271 1.355 . S
C270 C272 1.415 . S
C271 C270 1.355 . S
C271 C273 1.419 . S
C272 C270 1.415 . S
C272 C277 1.425 . S
C272 C279 1.409 . S
C273 H265 0.930 . S
C273 C271 1.419 . S
C273 C274 1.362 . S
C274 H266 0.930 . S
C274 C273 1.362 . S
C274 C277 1.409 . S
C275 H267 0.930 . S
C275 C276 1.355 . S
C275 C277 1.415 . S
C276 C275 1.355 . S
C276 C278 1.419 . S
C277 C272 1.425 . S
C277 C274 1.409 . S
C277 C275 1.415 . S
C278 H268 0.930 . S
C278 C276 1.419 . S
C278 C279 1.362 . S
C279 H269 0.930 . S
C279 C272 1.409 . S
C279 C278 1.362 . S
H280 C286 0.930 . S
H281 C289 0.930 . S
H282 C290 0.930 . S
H283 C291 0.930 . S
H284 C294 0.930 . S
H285 C295 0.930 . S
C286 H280 0.930 . S
C286 C287 1.355 . S
C286 C288 1.415 . S
C287 C286 1.355 . S
C287 C289 1.419 . S
C288 C286 1.415 . S
C288 C293 1.425 . S
C288 C295 1.409 . S
C289 H281 0.930 . S
C289 C287 1.419 . S
C289 C290 1.362 . S
C290 H282 0.930 . S
C290 C289 1.362 . S
C290 C293 1.409 . S
C291 H283 0.930 . S
C291 C292 1.355 . S
C291 C293 1.415 . S
C292 C291 1.355 . S
C292 C294 1.419 . S
C293 C288 1.425 . S
C293 C290 1.409 . S
C293 C291 1.415 . S
C294 H284 0.930 . S
C294 C292 1.419 . S
C294 C295 1.362 . S
C295 H285 0.930 . S
C295 C288 1.409 . S
C295 C294 1.362 . S
H296 C302 0.930 . S
H297 C305 0.930 . S
H298 C306 0.930 . S
H299 C307 0.930 . S
H300 C310 0.930 . S
H301 C311 0.930 . S
C302 H296 0.930 . S
C302 C303 1.355 . S
C302 C304 1.415 . S
C303 C302 1.355 . S
C303 C305 1.419 . S
C304 C302 1.415 . S
C304 C309 1.425 . S
C304 C311 1.409 . S
C305 H297 0.930 . S
C305 C303 1.419 . S
C305 C306 1.362 . S
C306 H298 0.930 . S
C306 C305 1.362 . S
C306 C309 1.409 . S
C307 H299 0.930 . S
C307 C308 1.355 . S
C307 C309 1.415 . S
C308 C307 1.355 . S
C308 C310 1.419 . S
C309 C304 1.425 . S
C309 C306 1.409 . S
C309 C307 1.415 . S
C310 H300 0.930 . S
C310 C308 1.419 . S
C310 C311 1.362 . S
C311 H301 0.930 . S
C311 C304 1.409 . S
C311 C310 1.362 . S
H312 C318 0.930 . S
H313 C321 0.930 . S
H314 C322 0.930 . S
H315 C323 0.930 . S
H316 C326 0.930 . S
H317 C327 0.930 . S
C318 H312 0.930 . S
C318 C319 1.355 . S
C318 C320 1.415 . S
C319 C318 1.355 . S
C319 C321 1.419 . S
C320 C318 1.415 . S
C320 C325 1.425 . S
C320 C327 1.409 . S
C321 H313 0.930 . S
C321 C319 1.419 . S
C321 C322 1.362 . S
C322 H314 0.930 . S
C322 C321 1.362 . S
C322 C325 1.409 . S
C323 H315 0.930 . S
C323 C324 1.355 . S
C323 C325 1.415 . S
C324 C323 1.355 . S
C324 C326 1.419 . S
C325 C320 1.425 . S
C325 C322 1.409 . S
C325 C323 1.415 . S
C326 H316 0.930 . S
C326 C324 1.419 . S
C326 C327 1.362 . S
C327 H317 0.930 . S
C327 C320 1.409 . S
C327 C326 1.362 . S
H328 C334 0.930 . S
H329 C337 0.930 . S
H330 C338 0.930 . S
H331 C339 0.930 . S
H332 C342 0.930 . S
H333 C343 0.930 . S
C334 H328 0.930 . S
C334 C335 1.355 . S
C334 C336 1.415 . S
C335 C334 1.355 . S
C335 C337 1.419 1_565 S
C336 C334 1.415 . S
C336 C341 1.425 1_565 S
C336 C343 1.409 . S
C337 H329 0.930 . S
C337 C335 1.419 1_545 S
C337 C338 1.362 . S
C338 H330 0.930 . S
C338 C337 1.362 . S
C338 C341 1.409 . S
C339 H331 0.930 . S
C339 C340 1.355 . S
C339 C341 1.415 . S
C340 C339 1.355 . S
C340 C342 1.419 1_545 S
C341 C336 1.425 1_545 S
C341 C338 1.409 . S
C341 C339 1.415 . S
C342 H332 0.930 . S
C342 C340 1.419 1_565 S
C342 C343 1.362 . S
C343 H333 0.930 . S
C343 C336 1.409 . S
C343 C342 1.362 . S
H344 C350 0.930 . S
H345 C353 0.930 . S
H346 C354 0.930 . S
H347 C355 0.930 . S
H348 C358 0.930 . S
H349 C359 0.930 . S
C350 H344 0.930 . S
C350 C351 1.355 . S
C350 C352 1.415 . S
C351 C350 1.355 . S
C351 C353 1.419 1_545 S
C352 C350 1.415 . S
C352 C357 1.425 1_545 S
C352 C359 1.409 . S
C353 H345 0.930 . S
C353 C351 1.419 1_565 S
C353 C354 1.362 . S
C354 H346 0.930 . S
C354 C353 1.362 . S
C354 C357 1.409 . S
C355 H347 0.930 . S
C355 C356 1.355 . S
C355 C357 1.415 . S
C356 C355 1.355 . S
C356 C358 1.419 1_565 S
C357 C352 1.425 1_565 S
C357 C354 1.409 . S
C357 C355 1.415 . S
C358 H348 0.930 . S
C358 C356 1.419 1_545 S
C358 C359 1.362 . S
C359 H349 0.930 . S
C359 C352 1.409 . S
C359 C358 1.362 . S
H360 C366 0.930 . S
H361 C369 0.930 . S
H362 C370 0.930 . S
H363 C371 0.930 . S
H364 C374 0.930 . S
H365 C375 0.930 . S
C366 H360 0.930 . S
C366 C367 1.355 . S
C366 C368 1.415 . S
C367 C366 1.355 . S
C367 C369 1.419 1_545 S
C368 C366 1.415 . S
C368 C373 1.425 1_545 S
C368 C375 1.409 . S
C369 H361 0.930 . S
C369 C367 1.419 1_565 S
C369 C370 1.362 . S
C370 H362 0.930 . S
C370 C369 1.362 . S
C370 C373 1.409 . S
C371 H363 0.930 . S
C371 C372 1.355 . S
C371 C373 1.415 . S
C372 C371 1.355 . S
C372 C374 1.419 1_565 S
C373 C368 1.425 1_565 S
C373 C370 1.409 . S
C373 C371 1.415 . S
C374 H364 0.930 . S
C374 C372 1.419 1_545 S
C374 C375 1.362 . S
C375 H365 0.930 . S
C375 C368 1.409 . S
C375 C374 1.362 . S
H376 C382 0.930 . S
H377 C385 0.930 . S
H378 C386 0.930 . S
H379 C387 0.930 . S
H380 C390 0.930 . S
H381 C391 0.930 . S
C382 H376 0.930 . S
C382 C383 1.355 . S
C382 C384 1.415 . S
C383 C382 1.355 . S
C383 C385 1.419 1_545 S
C384 C382 1.415 . S
C384 C389 1.425 1_545 S
C384 C391 1.409 . S
C385 H377 0.930 . S
C385 C383 1.419 1_565 S
C385 C386 1.362 . S
C386 H378 0.930 . S
C386 C385 1.362 . S
C386 C389 1.409 . S
C387 H379 0.930 . S
C387 C388 1.355 . S
C387 C389 1.415 . S
C388 C387 1.355 . S
C388 C390 1.419 1_565 S
C389 C384 1.425 1_565 S
C389 C386 1.409 . S
C389 C387 1.415 . S
C390 H380 0.930 . S
C390 C388 1.419 1_545 S
C390 C391 1.362 . S
C391 H381 0.930 . S
C391 C384 1.409 . S
C391 C390 1.362 . S
H392 C398 0.930 . S
H393 C401 0.930 . S
H394 C402 0.930 . S
H395 C403 0.930 . S
H396 C406 0.930 . S
H397 C407 0.930 . S
C398 H392 0.930 . S
C398 C399 1.355 . S
C398 C400 1.415 . S
C399 C398 1.355 . S
C399 C401 1.419 1_556 S
C400 C398 1.415 . S
C400 C405 1.425 1_556 S
C400 C407 1.409 . S
C401 H393 0.930 . S
C401 C399 1.419 1_554 S
C401 C402 1.362 . S
C402 H394 0.930 . S
C402 C401 1.362 . S
C402 C405 1.409 . S
C403 H395 0.930 . S
C403 C404 1.355 . S
C403 C405 1.415 . S
C404 C403 1.355 . S
C404 C406 1.419 1_554 S
C405 C400 1.425 1_554 S
C405 C402 1.409 . S
C405 C403 1.415 . S
C406 H396 0.930 . S
C406 C404 1.419 1_556 S
C406 C407 1.362 . S
C407 H397 0.930 . S
C407 C400 1.409 . S
C407 C406 1.362 . S
H408 C414 0.930 . S
H409 C417 0.930 . S
H410 C418 0.930 . S
H411 C419 0.930 . S
H412 C422 0.930 . S
H413 C423 0.930 . S
C414 H408 0.930 . S
C414 C415 1.355 . S
C414 C416 1.415 . S
C415 C414 1.355 . S
C415 C417 1.419 . S
C416 C414 1.415 . S
C416 C421 1.425 . S
C416 C423 1.409 . S
C417 H409 0.930 . S
C417 C415 1.419 . S
C417 C418 1.362 . S
C418 H410 0.930 . S
C418 C417 1.362 . S
C418 C421 1.409 . S
C419 H411 0.930 . S
C419 C420 1.355 . S
C419 C421 1.415 . S
C420 C419 1.355 . S
C420 C422 1.419 . S
C421 C416 1.425 . S
C421 C418 1.409 . S
C421 C419 1.415 . S
C422 H412 0.930 . S
C422 C420 1.419 . S
C422 C423 1.362 . S
C423 H413 0.930 . S
C423 C416 1.409 . S
C423 C422 1.362 . S
H424 C430 0.930 . S
H425 C433 0.930 . S
H426 C434 0.930 . S
H427 C435 0.930 . S
H428 C438 0.930 . S
H429 C439 0.930 . S
C430 H424 0.930 . S
C430 C431 1.355 1_556 S
C430 C432 1.415 . S
C431 C430 1.355 1_554 S
C431 C433 1.419 . S
C432 C430 1.415 . S
C432 C437 1.425 1_446 S
C432 C439 1.409 1_455 S
C433 H425 0.930 . S
C433 C431 1.419 . S
C433 C434 1.362 1_545 S
C434 H426 0.930 . S
C434 C433 1.362 1_565 S
C434 C437 1.409 1_455 S
C435 H427 0.930 . S
C435 C436 1.355 1_554 S
C435 C437 1.415 . S
C436 C435 1.355 1_556 S
C436 C438 1.419 . S
C437 C432 1.425 1_664 S
C437 C434 1.409 1_655 S
C437 C435 1.415 . S
C438 H428 0.930 . S
C438 C436 1.419 . S
C438 C439 1.362 1_565 S
C439 H429 0.930 . S
C439 C432 1.409 1_655 S
C439 C438 1.362 1_545 S
H440 C446 0.930 . S
H441 C449 0.930 . S
H442 C450 0.930 . S
H443 C451 0.930 . S
H444 C454 0.930 . S
H445 C455 0.930 . S
C446 H440 0.930 . S
C446 C447 1.355 . S
C446 C448 1.415 . S
C447 C446 1.355 . S
C447 C449 1.419 . S
C448 C446 1.415 . S
C448 C453 1.425 1_645 S
C448 C455 1.409 1_655 S
C449 H441 0.930 . S
C449 C447 1.419 . S
C449 C450 1.362 1_545 S
C450 H442 0.930 . S
C450 C449 1.362 1_565 S
C450 C453 1.409 1_655 S
C451 H443 0.930 . S
C451 C452 1.355 . S
C451 C453 1.415 . S
C452 C451 1.355 . S
C452 C454 1.419 . S
C453 C448 1.425 1_465 S
C453 C450 1.409 1_455 S
C453 C451 1.415 . S
C454 H444 0.930 . S
C454 C452 1.419 . S
C454 C455 1.362 1_565 S
C455 H445 0.930 . S
C455 C448 1.409 1_455 S
C455 C454 1.362 1_545 S
H456 C462 0.930 . S
H457 C465 0.930 . S
H458 C466 0.930 . S
H459 C467 0.930 . S
H460 C470 0.930 . S
H461 C471 0.930 . S
C462 H456 0.930 . S
C462 C463 1.355 1_556 S
C462 C464 1.415 . S
C463 C462 1.355 1_554 S
C463 C465 1.419 . S
C464 C462 1.415 . S
C464 C469 1.425 1_556 S
C464 C471 1.409 . S
C465 H457 0.930 . S
C465 C463 1.419 . S
C465 C466 1.362 . S
C466 H458 0.930 . S
C466 C465 1.362 . S
C466 C469 1.409 . S
C467 H459 0.930 . S
C467 C468 1.355 1_554 S
C467 C469 1.415 . S
C468 C467 1.355 1_556 S
C468 C470 1.419 . S
C469 C464 1.425 1_554 S
C469 C466 1.409 . S
C469 C467 1.415 . S
C470 H460 0.930 . S
C470 C468 1.419 . S
C470 C471 1.362 . S
C471 H461 0.930 . S
C471 C464 1.409 . S
C471 C470 1.362 . S
H472 C478 0.930 . S
H473 C481 0.930 . S
H474 C482 0.930 . S
H475 C483 0.930 . S
H476 C486 0.930 . S
H477 C487 0.930 . S
C478 H472 0.930 . S
C478 C479 1.355 . S
C478 C480 1.415 . S
C479 C478 1.355 . S
C479 C481 1.419 . S
C480 C478 1.415 . S
C480 C485 1.425 . S
C480 C487 1.409 . S
C481 H473 0.930 . S
C481 C479 1.419 . S
C481 C482 1.362 . S
C482 H474 0.930 . S
C482 C481 1.362 . S
C482 C485 1.409 . S
C483 H475 0.930 . S
C483 C484 1.355 . S
C483 C485 1.415 . S
C484 C483 1.355 . S
C484 C486 1.419 . S
C485 C480 1.425 . S
C485 C482 1.409 . S
C485 C483 1.415 . S
C486 H476 0.930 . S
C486 C484 1.419 . S
C486 C487 1.362 . S
C487 H477 0.930 . S
C487 C480 1.409 . S
C487 C486 1.362 . S
H488 C494 0.930 . S
H489 C497 0.930 . S
H490 C498 0.930 . S
H491 C499 0.930 . S
H492 C502 0.930 . S
H493 C503 0.930 . S
C494 H488 0.930 . S
C494 C495 1.361 . S
C494 C496 1.415 . S
C495 C494 1.361 . S
C495 C497 1.410 1_554 S
C496 C494 1.415 . S
C496 C501 1.425 1_554 S
C496 C503 1.409 . S
C497 H489 0.930 . S
C497 C495 1.410 1_556 S
C497 C498 1.362 . S
C498 H490 0.930 . S
C498 C497 1.362 . S
C498 C501 1.409 . S
C499 H491 0.930 . S
C499 C500 1.361 . S
C499 C501 1.415 . S
C500 C499 1.361 . S
C500 C502 1.410 1_556 S
C501 C496 1.425 1_556 S
C501 C498 1.409 . S
C501 C499 1.415 . S
C502 H492 0.930 . S
C502 C500 1.410 1_554 S
C502 C503 1.362 . S
C503 H493 0.930 . S
C503 C496 1.409 . S
C503 C502 1.362 . S
H504 C510 0.930 . S
H505 C513 0.930 . S
H506 C514 0.930 . S
H507 C515 0.930 . S
H508 C518 0.930 . S
H509 C519 0.930 . S
C510 H504 0.930 . S
C510 C511 1.355 . S
C510 C512 1.415 . S
C511 C510 1.355 . S
C511 C513 1.419 . S
C512 C510 1.415 . S
C512 C517 1.425 . S
C512 C519 1.409 . S
C513 H505 0.930 . S
C513 C511 1.419 . S
C513 C514 1.362 . S
C514 H506 0.930 . S
C514 C513 1.362 . S
C514 C517 1.409 . S
C515 H507 0.930 . S
C515 C516 1.355 . S
C515 C517 1.415 . S
C516 C515 1.355 . S
C516 C518 1.419 . S
C517 C512 1.425 . S
C517 C514 1.409 . S
C517 C515 1.415 . S
C518 H508 0.930 . S
C518 C516 1.419 . S
C518 C519 1.362 . S
C519 H509 0.930 . S
C519 C512 1.409 . S
C519 C518 1.362 . S
H520 C526 0.930 . S
H521 C529 0.930 . S
H522 C530 0.930 . S
H523 C531 0.930 . S
H524 C534 0.930 . S
H525 C535 0.930 . S
C526 H520 0.930 . S
C526 C527 1.355 . S
C526 C528 1.415 . S
C527 C526 1.355 . S
C527 C529 1.419 . S
C528 C526 1.415 . S
C528 C533 1.425 . S
C528 C535 1.409 . S
C529 H521 0.930 . S
C529 C527 1.419 . S
C529 C530 1.362 . S
C530 H522 0.930 . S
C530 C529 1.362 . S
C530 C533 1.409 . S
C531 H523 0.930 . S
C531 C532 1.355 . S
C531 C533 1.415 . S
C532 C531 1.355 . S
C532 C534 1.419 . S
C533 C528 1.425 . S
C533 C530 1.409 . S
C533 C531 1.415 . S
C534 H524 0.930 . S
C534 C532 1.419 . S
C534 C535 1.362 . S
C535 H525 0.930 . S
C535 C528 1.409 . S
C535 C534 1.362 . S
H536 C542 0.930 . S
H537 C545 0.930 . S
H538 C546 0.930 . S
H539 C547 0.930 . S
H540 C550 0.930 . S
H541 C551 0.930 . S
C542 H536 0.930 . S
C542 C543 1.355 . S
C542 C544 1.415 . S
C543 C542 1.355 . S
C543 C545 1.419 . S
C544 C542 1.415 . S
C544 C549 1.425 . S
C544 C551 1.409 . S
C545 H537 0.930 . S
C545 C543 1.419 . S
C545 C546 1.362 . S
C546 H538 0.930 . S
C546 C545 1.362 . S
C546 C549 1.409 . S
C547 H539 0.930 . S
C547 C548 1.355 . S
C547 C549 1.415 . S
C548 C547 1.355 . S
C548 C550 1.419 . S
C549 C544 1.425 . S
C549 C546 1.409 . S
C549 C547 1.415 . S
C550 H540 0.930 . S
C550 C548 1.419 . S
C550 C551 1.362 . S
C551 H541 0.930 . S
C551 C544 1.409 . S
C551 C550 1.362 . S
H552 C558 0.930 . S
H553 C561 0.930 . S
H554 C562 0.930 1_655 S
H555 C563 0.930 . S
H556 C566 0.930 . S
H557 C567 0.930 1_455 S
C558 H552 0.930 . S
C558 C559 1.355 . S
C558 C560 1.415 . S
C559 C558 1.355 . S
C559 C561 1.419 . S
C560 C558 1.415 . S
C560 C565 1.425 1_455 S
C560 C567 1.409 1_455 S
C561 H553 0.930 . S
C561 C559 1.419 . S
C561 C562 1.362 . S
C562 H554 0.930 1_455 S
C562 C561 1.362 . S
C562 C565 1.409 1_455 S
C563 H555 0.930 . S
C563 C564 1.355 . S
C563 C565 1.415 . S
C564 C563 1.355 . S
C564 C566 1.419 . S
C565 C560 1.425 1_655 S
C565 C562 1.409 1_655 S
C565 C563 1.415 . S
C566 H556 0.930 . S
C566 C564 1.419 . S
C566 C567 1.362 . S
C567 H557 0.930 1_655 S
C567 C560 1.409 1_655 S
C567 C566 1.362 . S
H568 C574 0.930 . S
H569 C577 0.930 . S
H570 C578 0.930 . S
H571 C579 0.930 . S
H572 C582 0.930 . S
H573 C583 0.930 . S
C574 H568 0.930 . S
C574 C575 1.355 . S
C574 C576 1.415 . S
C575 C574 1.355 . S
C575 C577 1.419 . S
C576 C574 1.415 . S
C576 C581 1.425 1_455 S
C576 C583 1.409 1_455 S
C577 H569 0.930 . S
C577 C575 1.419 . S
C577 C578 1.362 . S
C578 H570 0.930 . S
C578 C577 1.362 . S
C578 C581 1.409 1_455 S
C579 H571 0.930 . S
C579 C580 1.355 . S
C579 C581 1.415 . S
C580 C579 1.355 . S
C580 C582 1.419 . S
C581 C576 1.425 1_655 S
C581 C578 1.409 1_655 S
C581 C579 1.415 . S
C582 H572 0.930 . S
C582 C580 1.419 . S
C582 C583 1.362 . S
C583 H573 0.930 . S
C583 C576 1.409 1_655 S
C583 C582 1.362 . S
C271 C106 1.781 . S
C276 N13 1.913 . S
C287 N46 1.900 . S
C292 C73 1.786 . S
C303 C40 1.832 . S
C308 N79 1.901 . S
C319 C7 1.838 . S
C324 N112 1.888 . S
C335 N145 1.893 . S
C340 C238 1.844 . S
C351 C205 1.810 . S
C356 N178 1.909 . S
C367 N211 1.912 . S
C372 C172 1.792 . S
C383 N244 1.912 . S
C388 C139 1.796 . S
C399 C18 1.148 . S
C404 C84 1.148 . S
C415 C51 1.109 . S
C420 C117 1.109 . S
C431 C216 1.201 . S
C436 C150 1.201 . S
C447 C249 1.201 . S
C452 C183 1.201 . S
C463 C21 1.536 . S
C468 C219 1.536 . S
C479 C54 1.509 . S
C484 C252 1.509 . S
C495 C153 1.532 . S
C500 C87 1.532 . S
C511 C186 1.527 . S
C516 C120 1.527 . S
C527 N35 0.688 . S
C532 N2 0.758 . S
C543 N101 0.722 . S
C548 N68 0.672 . S
C559 N167 0.671 . S
C564 N134 0.684 . S
C575 N200 0.869 . S
C580 N233 0.799 . S
