# Generated by pormake.
# Topology unx, (4)-cn, num edge types: 1
# Building blocks:
#     Node 0, Type 0, BuildingBlock: GALJAG_clean_sbu_0, # of connection points: 4
#     Node 1, Type 0, BuildingBlock: GALJAG_clean_sbu_0, # of connection points: 4
#     Node 2, Type 0, BuildingBlock: GALJAG_clean_sbu_0, # of connection points: 4
#     Node 3, Type 0, BuildingBlock: GALJAG_clean_sbu_0, # of connection points: 4
#     Node 4, Type 0, BuildingBlock: GALJAG_clean_sbu_0, # of connection points: 4
#     Node 5, Type 0, BuildingBlock: GALJAG_clean_sbu_0, # of connection points: 4
#     Node 6, Type 0, BuildingBlock: GALJAG_clean_sbu_0, # of connection points: 4
#     Node 7, Type 0, BuildingBlock: GALJAG_clean_sbu_0, # of connection points: 4
#     Node 8, Type 0, BuildingBlock: GALJAG_clean_sbu_0, # of connection points: 4
#     Node 9, Type 0, BuildingBlock: GALJAG_clean_sbu_0, # of connection points: 4
#     Node 10, Type 0, BuildingBlock: GALJAG_clean_sbu_0, # of connection points: 4
#     Node 11, Type 0, BuildingBlock: GALJAG_clean_sbu_0, # of connection points: 4
#     Node 12, Type 0, BuildingBlock: GALJAG_clean_sbu_0, # of connection points: 4
#     Node 13, Type 0, BuildingBlock: GALJAG_clean_sbu_0, # of connection points: 4
#     Node 14, Type 0, BuildingBlock: GALJAG_clean_sbu_0, # of connection points: 4
#     Node 15, Type 0, BuildingBlock: GALJAG_clean_sbu_0, # of connection points: 4
#     Node 16, Type 0, BuildingBlock: GALJAG_clean_sbu_0, # of connection points: 4
#     Node 17, Type 0, BuildingBlock: GALJAG_clean_sbu_0, # of connection points: 4
#     Node 18, Type 0, BuildingBlock: GALJAG_clean_sbu_0, # of connection points: 4
#     Node 19, Type 0, BuildingBlock: GALJAG_clean_sbu_0, # of connection points: 4
#     Node 20, Type 0, BuildingBlock: GALJAG_clean_sbu_0, # of connection points: 4
#     Node 21, Type 0, BuildingBlock: GALJAG_clean_sbu_0, # of connection points: 4
#     Node 22, Type 0, BuildingBlock: GALJAG_clean_sbu_0, # of connection points: 4
#     Node 23, Type 0, BuildingBlock: GALJAG_clean_sbu_0, # of connection points: 4
#     Node 24, Type 0, BuildingBlock: GALJAG_clean_sbu_0, # of connection points: 4
#     Node 25, Type 0, BuildingBlock: GALJAG_clean_sbu_0, # of connection points: 4
#     Node 26, Type 0, BuildingBlock: GALJAG_clean_sbu_0, # of connection points: 4
#     Node 27, Type 0, BuildingBlock: GALJAG_clean_sbu_0, # of connection points: 4
#     Node 28, Type 0, BuildingBlock: GALJAG_clean_sbu_0, # of connection points: 4
#     Node 29, Type 0, BuildingBlock: GALJAG_clean_sbu_0, # of connection points: 4
#     Node 30, Type 0, BuildingBlock: GALJAG_clean_sbu_0, # of connection points: 4
#     Node 31, Type 0, BuildingBlock: GALJAG_clean_sbu_0, # of connection points: 4
#     Node 32, Type 0, BuildingBlock: GALJAG_clean_sbu_0, # of connection points: 4
#     Node 33, Type 0, BuildingBlock: GALJAG_clean_sbu_0, # of connection points: 4
#     Node 34, Type 0, BuildingBlock: GALJAG_clean_sbu_0, # of connection points: 4
#     Node 35, Type 0, BuildingBlock: GALJAG_clean_sbu_0, # of connection points: 4
#     Node 36, Type 0, BuildingBlock: GALJAG_clean_sbu_0, # of connection points: 4
#     Node 37, Type 0, BuildingBlock: GALJAG_clean_sbu_0, # of connection points: 4
#     Node 38, Type 0, BuildingBlock: GALJAG_clean_sbu_0, # of connection points: 4
#     Node 39, Type 0, BuildingBlock: GALJAG_clean_sbu_0, # of connection points: 4
#     Node 40, Type 0, BuildingBlock: GALJAG_clean_sbu_0, # of connection points: 4
#     Node 41, Type 0, BuildingBlock: GALJAG_clean_sbu_0, # of connection points: 4
#     Node 42, Type 0, BuildingBlock: GALJAG_clean_sbu_0, # of connection points: 4
#     Node 43, Type 0, BuildingBlock: GALJAG_clean_sbu_0, # of connection points: 4
#     Node 44, Type 0, BuildingBlock: GALJAG_clean_sbu_0, # of connection points: 4
#     Node 45, Type 0, BuildingBlock: GALJAG_clean_sbu_0, # of connection points: 4
#     Node 46, Type 0, BuildingBlock: GALJAG_clean_sbu_0, # of connection points: 4
#     Node 47, Type 0, BuildingBlock: GALJAG_clean_sbu_0, # of connection points: 4
#     Edge 48, Type (0, 0), BuildingBlock: AJUNOK_clean_linker_0, # of connection points: 2
#     Edge 49, Type (0, 0), BuildingBlock: AJUNOK_clean_linker_0, # of connection points: 2
#     Edge 50, Type (0, 0), BuildingBlock: AJUNOK_clean_linker_0, # of connection points: 2
#     Edge 51, Type (0, 0), BuildingBlock: AJUNOK_clean_linker_0, # of connection points: 2
#     Edge 52, Type (0, 0), BuildingBlock: AJUNOK_clean_linker_0, # of connection points: 2
#     Edge 53, Type (0, 0), BuildingBlock: AJUNOK_clean_linker_0, # of connection points: 2
#     Edge 54, Type (0, 0), BuildingBlock: AJUNOK_clean_linker_0, # of connection points: 2
#     Edge 55, Type (0, 0), BuildingBlock: AJUNOK_clean_linker_0, # of connection points: 2
#     Edge 56, Type (0, 0), BuildingBlock: AJUNOK_clean_linker_0, # of connection points: 2
#     Edge 57, Type (0, 0), BuildingBlock: AJUNOK_clean_linker_0, # of connection points: 2
#     Edge 58, Type (0, 0), BuildingBlock: AJUNOK_clean_linker_0, # of connection points: 2
#     Edge 59, Type (0, 0), BuildingBlock: AJUNOK_clean_linker_0, # of connection points: 2
#     Edge 60, Type (0, 0), BuildingBlock: AJUNOK_clean_linker_0, # of connection points: 2
#     Edge 61, Type (0, 0), BuildingBlock: AJUNOK_clean_linker_0, # of connection points: 2
#     Edge 62, Type (0, 0), BuildingBlock: AJUNOK_clean_linker_0, # of connection points: 2
#     Edge 63, Type (0, 0), BuildingBlock: AJUNOK_clean_linker_0, # of connection points: 2
#     Edge 64, Type (0, 0), BuildingBlock: AJUNOK_clean_linker_0, # of connection points: 2
#     Edge 65, Type (0, 0), BuildingBlock: AJUNOK_clean_linker_0, # of connection points: 2
#     Edge 66, Type (0, 0), BuildingBlock: AJUNOK_clean_linker_0, # of connection points: 2
#     Edge 67, Type (0, 0), BuildingBlock: AJUNOK_clean_linker_0, # of connection points: 2
#     Edge 68, Type (0, 0), BuildingBlock: AJUNOK_clean_linker_0, # of connection points: 2
#     Edge 69, Type (0, 0), BuildingBlock: AJUNOK_clean_linker_0, # of connection points: 2
#     Edge 70, Type (0, 0), BuildingBlock: AJUNOK_clean_linker_0, # of connection points: 2
#     Edge 71, Type (0, 0), BuildingBlock: AJUNOK_clean_linker_0, # of connection points: 2
#     Edge 72, Type (0, 0), BuildingBlock: AJUNOK_clean_linker_0, # of connection points: 2
#     Edge 73, Type (0, 0), BuildingBlock: AJUNOK_clean_linker_0, # of connection points: 2
#     Edge 74, Type (0, 0), BuildingBlock: AJUNOK_clean_linker_0, # of connection points: 2
#     Edge 75, Type (0, 0), BuildingBlock: AJUNOK_clean_linker_0, # of connection points: 2
#     Edge 76, Type (0, 0), BuildingBlock: AJUNOK_clean_linker_0, # of connection points: 2
#     Edge 77, Type (0, 0), BuildingBlock: AJUNOK_clean_linker_0, # of connection points: 2
#     Edge 78, Type (0, 0), BuildingBlock: AJUNOK_clean_linker_0, # of connection points: 2
#     Edge 79, Type (0, 0), BuildingBlock: AJUNOK_clean_linker_0, # of connection points: 2
#     Edge 80, Type (0, 0), BuildingBlock: AJUNOK_clean_linker_0, # of connection points: 2
#     Edge 81, Type (0, 0), BuildingBlock: AJUNOK_clean_linker_0, # of connection points: 2
#     Edge 82, Type (0, 0), BuildingBlock: AJUNOK_clean_linker_0, # of connection points: 2
#     Edge 83, Type (0, 0), BuildingBlock: AJUNOK_clean_linker_0, # of connection points: 2
#     Edge 84, Type (0, 0), BuildingBlock: AJUNOK_clean_linker_0, # of connection points: 2
#     Edge 85, Type (0, 0), BuildingBlock: AJUNOK_clean_linker_0, # of connection points: 2
#     Edge 86, Type (0, 0), BuildingBlock: AJUNOK_clean_linker_0, # of connection points: 2
#     Edge 87, Type (0, 0), BuildingBlock: AJUNOK_clean_linker_0, # of connection points: 2
#     Edge 88, Type (0, 0), BuildingBlock: AJUNOK_clean_linker_0, # of connection points: 2
#     Edge 89, Type (0, 0), BuildingBlock: AJUNOK_clean_linker_0, # of connection points: 2
#     Edge 90, Type (0, 0), BuildingBlock: AJUNOK_clean_linker_0, # of connection points: 2
#     Edge 91, Type (0, 0), BuildingBlock: AJUNOK_clean_linker_0, # of connection points: 2
#     Edge 92, Type (0, 0), BuildingBlock: AJUNOK_clean_linker_0, # of connection points: 2
#     Edge 93, Type (0, 0), BuildingBlock: AJUNOK_clean_linker_0, # of connection points: 2
#     Edge 94, Type (0, 0), BuildingBlock: AJUNOK_clean_linker_0, # of connection points: 2
#     Edge 95, Type (0, 0), BuildingBlock: AJUNOK_clean_linker_0, # of connection points: 2
#     Edge 96, Type (0, 0), BuildingBlock: AJUNOK_clean_linker_0, # of connection points: 2
#     Edge 97, Type (0, 0), BuildingBlock: AJUNOK_clean_linker_0, # of connection points: 2
#     Edge 98, Type (0, 0), BuildingBlock: AJUNOK_clean_linker_0, # of connection points: 2
#     Edge 99, Type (0, 0), BuildingBlock: AJUNOK_clean_linker_0, # of connection points: 2
#     Edge 100, Type (0, 0), BuildingBlock: AJUNOK_clean_linker_0, # of connection points: 2
#     Edge 101, Type (0, 0), BuildingBlock: AJUNOK_clean_linker_0, # of connection points: 2
#     Edge 102, Type (0, 0), BuildingBlock: AJUNOK_clean_linker_0, # of connection points: 2
#     Edge 103, Type (0, 0), BuildingBlock: AJUNOK_clean_linker_0, # of connection points: 2
#     Edge 104, Type (0, 0), BuildingBlock: AJUNOK_clean_linker_0, # of connection points: 2
#     Edge 105, Type (0, 0), BuildingBlock: AJUNOK_clean_linker_0, # of connection points: 2
#     Edge 106, Type (0, 0), BuildingBlock: AJUNOK_clean_linker_0, # of connection points: 2
#     Edge 107, Type (0, 0), BuildingBlock: AJUNOK_clean_linker_0, # of connection points: 2
#     Edge 108, Type (0, 0), BuildingBlock: AJUNOK_clean_linker_0, # of connection points: 2
#     Edge 109, Type (0, 0), BuildingBlock: AJUNOK_clean_linker_0, # of connection points: 2
#     Edge 110, Type (0, 0), BuildingBlock: AJUNOK_clean_linker_0, # of connection points: 2
#     Edge 111, Type (0, 0), BuildingBlock: AJUNOK_clean_linker_0, # of connection points: 2
#     Edge 112, Type (0, 0), BuildingBlock: AJUNOK_clean_linker_0, # of connection points: 2
#     Edge 113, Type (0, 0), BuildingBlock: AJUNOK_clean_linker_0, # of connection points: 2
#     Edge 114, Type (0, 0), BuildingBlock: AJUNOK_clean_linker_0, # of connection points: 2
#     Edge 115, Type (0, 0), BuildingBlock: AJUNOK_clean_linker_0, # of connection points: 2
#     Edge 116, Type (0, 0), BuildingBlock: AJUNOK_clean_linker_0, # of connection points: 2
#     Edge 117, Type (0, 0), BuildingBlock: AJUNOK_clean_linker_0, # of connection points: 2
#     Edge 118, Type (0, 0), BuildingBlock: AJUNOK_clean_linker_0, # of connection points: 2
#     Edge 119, Type (0, 0), BuildingBlock: AJUNOK_clean_linker_0, # of connection points: 2
#     Edge 120, Type (0, 0), BuildingBlock: AJUNOK_clean_linker_0, # of connection points: 2
#     Edge 121, Type (0, 0), BuildingBlock: AJUNOK_clean_linker_0, # of connection points: 2
#     Edge 122, Type (0, 0), BuildingBlock: AJUNOK_clean_linker_0, # of connection points: 2
#     Edge 123, Type (0, 0), BuildingBlock: AJUNOK_clean_linker_0, # of connection points: 2
#     Edge 124, Type (0, 0), BuildingBlock: AJUNOK_clean_linker_0, # of connection points: 2
#     Edge 125, Type (0, 0), BuildingBlock: AJUNOK_clean_linker_0, # of connection points: 2
#     Edge 126, Type (0, 0), BuildingBlock: AJUNOK_clean_linker_0, # of connection points: 2
#     Edge 127, Type (0, 0), BuildingBlock: AJUNOK_clean_linker_0, # of connection points: 2
#     Edge 128, Type (0, 0), BuildingBlock: AJUNOK_clean_linker_0, # of connection points: 2
#     Edge 129, Type (0, 0), BuildingBlock: AJUNOK_clean_linker_0, # of connection points: 2
#     Edge 130, Type (0, 0), BuildingBlock: AJUNOK_clean_linker_0, # of connection points: 2
#     Edge 131, Type (0, 0), BuildingBlock: AJUNOK_clean_linker_0, # of connection points: 2
#     Edge 132, Type (0, 0), BuildingBlock: AJUNOK_clean_linker_0, # of connection points: 2
#     Edge 133, Type (0, 0), BuildingBlock: AJUNOK_clean_linker_0, # of connection points: 2
#     Edge 134, Type (0, 0), BuildingBlock: AJUNOK_clean_linker_0, # of connection points: 2
#     Edge 135, Type (0, 0), BuildingBlock: AJUNOK_clean_linker_0, # of connection points: 2
#     Edge 136, Type (0, 0), BuildingBlock: AJUNOK_clean_linker_0, # of connection points: 2
#     Edge 137, Type (0, 0), BuildingBlock: AJUNOK_clean_linker_0, # of connection points: 2
#     Edge 138, Type (0, 0), BuildingBlock: AJUNOK_clean_linker_0, # of connection points: 2
#     Edge 139, Type (0, 0), BuildingBlock: AJUNOK_clean_linker_0, # of connection points: 2
#     Edge 140, Type (0, 0), BuildingBlock: AJUNOK_clean_linker_0, # of connection points: 2
#     Edge 141, Type (0, 0), BuildingBlock: AJUNOK_clean_linker_0, # of connection points: 2
#     Edge 142, Type (0, 0), BuildingBlock: AJUNOK_clean_linker_0, # of connection points: 2
#     Edge 143, Type (0, 0), BuildingBlock: AJUNOK_clean_linker_0, # of connection points: 2
# Relax obj value: 0.526
# Max RMSD: 0.260
# Mean RMSD: 0.214
data_MOF--net-unx--node1-GALJAG_clean_sbu_0--edge1-AJUNOK_clean_linker_0
_symmetry_space_group_name_H-M    P1
_symmetry_Int_Tables_number       1
_symmetry_cell_setting            triclinic
loop_
_symmetry_equiv_pos_as_xyz
'x, y, z'
_cell_length_a     40.196808
_cell_length_b     40.334128
_cell_length_c     39.698498
_cell_angle_alpha  89.893086
_cell_angle_beta   90.056963
_cell_angle_gamma 90.403337
loop_
_atom_site_label
_atom_site_type_symbol
_atom_site_fract_x
_atom_site_fract_y
_atom_site_fract_z
_atom_type_partial_charge
In0 In 0.21667 0.56081 0.2417 0.0
O1 O 0.26057 0.58978 0.26312 0.0
O2 O 0.25607 0.53789 0.27483 0.0
C3 C 0.17652 0.57925 0.19166 0.0
C4 C 0.25327 0.53745 0.19246 0.0
C5 C 0.16891 0.56318 0.28854 0.0
O6 O 0.19473 0.6001 0.20752 0.0
O7 O 0.17791 0.54955 0.20223 0.0
O8 O 0.18028 0.53572 0.27779 0.0
O9 O 0.18307 0.58899 0.27688 0.0
C10 C 0.27366 0.56417 0.27638 0.0
O11 O 0.23327 0.51823 0.20839 0.0
O12 O 0.25433 0.5675 0.20185 0.0
In13 In 0.6431 0.30188 0.48244 0.0
O14 O 0.59524 0.3118 0.4546 0.0
O15 O 0.63425 0.28853 0.42731 0.0
C16 C 0.6321 0.3594 0.51652 0.0
C17 C 0.63669 0.24117 0.51265 0.0
C18 C 0.69982 0.3264 0.45544 0.0
O19 O 0.61489 0.35074 0.49143 0.0
O20 O 0.652 0.3374 0.52663 0.0
O21 O 0.69339 0.32825 0.48645 0.0
O22 O 0.67994 0.30813 0.43922 0.0
C23 C 0.60542 0.30082 0.42662 0.0
O24 O 0.66444 0.25373 0.50492 0.0
O25 O 0.61237 0.25982 0.50691 0.0
In26 In 0.96009 0.90634 0.64451 0.0
O27 O 0.93563 0.89661 0.69542 0.0
O28 O 0.92669 0.94298 0.67096 0.0
C29 C 0.98649 0.85458 0.61342 0.0
C30 C 0.90389 0.89384 0.61213 0.0
C31 C 0.01904 0.93799 0.64716 0.0
O32 O 0.97987 0.85374 0.64479 0.0
O33 O 0.98025 0.88165 0.59861 0.0
O34 O 0.9963 0.94655 0.62666 0.0
O35 O 0.01027 0.91627 0.66862 0.0
C36 C 0.91817 0.92278 0.69401 0.0
O37 O 0.92109 0.91952 0.60448 0.0
O38 O 0.91631 0.87488 0.6341 0.0
In39 In 0.38729 0.0584 0.92519 0.0
O40 O 0.42826 0.09459 0.90928 0.0
O41 O 0.38172 0.09359 0.8822 0.0
C42 C 0.39035 0.00338 0.96324 0.0
C43 C 0.35412 0.10599 0.95705 0.0
C44 C 0.39853 0.02052 0.87262 0.0
O45 O 0.41387 0.0248 0.96334 0.0
O46 O 0.36441 0.01193 0.94717 0.0
O47 O 0.36922 0.03065 0.87924 0.0
O48 O 0.4214 0.02957 0.89279 0.0
C49 C 0.41046 0.10642 0.88541 0.0
O50 O 0.33982 0.0862 0.93655 0.0
O51 O 0.38385 0.0985 0.96475 0.0
In52 In 0.04947 0.41179 0.86869 0.0
O53 O 0.0284 0.35984 0.86434 0.0
O54 O 0.0271 0.38493 0.91218 0.0
C55 C 0.09213 0.43423 0.82239 0.0
C56 C 0.99021 0.44227 0.86497 0.0
C57 C 0.10453 0.39223 0.89984 0.0
O58 O 0.07427 0.40848 0.81751 0.0
O59 O 0.08423 0.45122 0.84807 0.0
O60 O 0.08877 0.41769 0.91024 0.0
O61 O 0.09153 0.37707 0.87517 0.0
C62 C 0.02084 0.35883 0.89551 0.0
O63 O 0.01145 0.44981 0.88762 0.0
O64 O 1.00082 0.42252 0.84263 0.0
In65 In 0.88199 0.46285 0.0814 0.0
O66 O 0.86388 0.48972 0.12757 0.0
O67 O 0.91607 0.4915 0.11461 0.0
C68 C 0.84767 0.41496 0.05124 0.0
C69 C 0.88373 0.51707 0.04229 0.0
C70 C 0.9051 0.41369 0.11927 0.0
O71 O 0.83405 0.43522 0.07148 0.0
O72 O 0.87714 0.42251 0.04232 0.0
O73 O 0.92324 0.42686 0.09629 0.0
O74 O 0.87648 0.42616 0.12295 0.0
C75 C 0.8932 0.49958 0.135 0.0
O76 O 0.90764 0.49644 0.04244 0.0
O77 O 0.85826 0.50822 0.05905 0.0
In78 In 0.7937 0.05608 0.27086 0.0
O79 O 0.8169 0.09966 0.29956 0.0
O80 O 0.83083 0.05005 0.31268 0.0
C81 C 0.73849 0.06159 0.23352 0.0
C82 C 0.84386 0.04532 0.22828 0.0
C83 C 0.75467 0.03411 0.31956 0.0
O84 O 0.75308 0.08689 0.24602 0.0
O85 O 0.75388 0.03446 0.2371 0.0
O86 O 0.77449 0.01439 0.30471 0.0
O87 O 0.75538 0.06401 0.30986 0.0
C88 C 0.83397 0.08073 0.31858 0.0
O89 O 0.82946 0.02204 0.24442 0.0
O90 O 0.83072 0.07366 0.2313 0.0
In91 In 0.11645 0.19748 0.52671 0.0
O92 O 0.16632 0.17256 0.51461 0.0
O93 O 0.15696 0.18635 0.56502 0.0
C94 C 0.11109 0.25665 0.49351 0.0
C95 C 0.09746 0.13848 0.49881 0.0
C96 C 0.0904 0.21412 0.5866 0.0
O97 O 0.13854 0.24252 0.49867 0.0
O98 O 0.08613 0.23997 0.50301 0.0
O99 O 0.07334 0.1989 0.56447 0.0
O100 O 0.1199 0.22087 0.57797 0.0
C101 C 0.17574 0.17137 0.5449 0.0
O102 O 0.08919 0.14655 0.52834 0.0
O103 O 0.11106 0.16173 0.48238 0.0
In104 In 0.12095 0.94374 0.42464 0.0
O105 O 0.16709 0.91556 0.43954 0.0
O106 O 0.12107 0.90246 0.46357 0.0
C107 C 0.1243 0.98249 0.3711 0.0
C108 C 0.09703 0.89685 0.3836 0.0
C109 C 0.11338 0.99843 0.4625 0.0
O110 O 0.15038 0.96888 0.3828 0.0
O111 O 0.09749 0.97652 0.38678 0.0
O112 O 0.08897 0.97885 0.45693 0.0
O113 O 0.14141 0.98765 0.45298 0.0
C114 C 0.15126 0.89513 0.45809 0.0
O115 O 0.07827 0.91027 0.40563 0.0
O116 O 0.12646 0.908 0.38244 0.0
In117 In 0.28244 0.44781 0.73128 0.0
O118 O 0.26255 0.48904 0.69744 0.0
O119 O 0.24312 0.43916 0.69321 0.0
C120 C 0.33407 0.45796 0.77288 0.0
C121 C 0.22785 0.44225 0.7698 0.0
C122 C 0.32064 0.42319 0.68216 0.0
O123 O 0.32048 0.48137 0.75646 0.0
O124 O 0.31966 0.42999 0.77049 0.0
O125 O 0.30393 0.40424 0.70171 0.0
O126 O 0.31838 0.45384 0.68839 0.0
C127 C 0.24235 0.46894 0.68315 0.0
O128 O 0.24218 0.41698 0.75738 0.0
O129 O 0.24323 0.46953 0.7655 0.0
In130 In 0.87284 0.71054 0.96174 0.0
O131 O 0.92047 0.71275 0.93004 0.0
O132 O 0.87371 0.71831 0.90554 0.0
C133 C 0.89208 0.6541 0.99381 0.0
C134 C 0.87409 0.7741 0.98516 0.0
C135 C 0.81398 0.68074 0.94897 0.0
O136 O 0.90234 0.66185 0.96476 0.0
O137 O 0.87541 0.67659 0.00802 0.0
O138 O 0.82427 0.68552 0.97863 0.0
O139 O 0.83144 0.69449 0.92654 0.0
C140 C 0.9049 0.71716 0.90264 0.0
O141 O 0.85061 0.7619 0.96813 0.0
O142 O 0.89647 0.75362 0.99284 0.0
In143 In 0.5579 0.09093 0.14095 0.0
O144 O 0.5834 0.09275 0.19174 0.0
O145 O 0.59308 0.05145 0.15917 0.0
C146 C 0.5278 0.14197 0.11335 0.0
C147 C 0.61219 0.11411 0.1109 0.0
C148 C 0.4989 0.06018 0.14592 0.0
O149 O 0.53611 0.14213 0.14438 0.0
O150 O 0.53439 0.11579 0.09705 0.0
O151 O 0.51991 0.05208 0.12337 0.0
O152 O 0.50976 0.08045 0.16785 0.0
C153 C 0.60133 0.0676 0.1854 0.0
O154 O 0.59732 0.08826 0.09955 0.0
O155 O 0.5987 0.12782 0.13609 0.0
In156 In 0.53387 0.30798 0.989 0.0
O157 O 0.58783 0.32708 0.98459 0.0
O158 O 0.57775 0.27626 0.97474 0.0
C159 C 0.51073 0.34735 0.03928 0.0
C160 C 0.51318 0.30986 0.92376 0.0
C161 C 0.52217 0.25593 0.02899 0.0
O162 O 0.5388 0.35214 0.02565 0.0
O163 O 0.49268 0.32645 0.02405 0.0
O164 O 0.50273 0.26303 0.00497 0.0
O165 O 0.54764 0.2742 0.03163 0.0
C166 C 0.59922 0.29905 0.97634 0.0
O167 O 0.51291 0.28428 0.94192 0.0
O168 O 0.52076 0.33624 0.93933 0.0
In169 In 0.0288 0.75716 0.2387 0.0
O170 O 0.99388 0.7265 0.27216 0.0
O171 O 0.04624 0.71719 0.27437 0.0
C172 C 0.0108 0.81225 0.20711 0.0
C173 C 0.05323 0.79791 0.28583 0.0
C174 C 0.0368 0.72444 0.1803 0.0
O175 O 0.98967 0.79507 0.22376 0.0
O176 O 0.03988 0.80054 0.20559 0.0
O177 O 0.0613 0.73601 0.19701 0.0
O178 O 0.00869 0.72721 0.19454 0.0
C179 C 0.01769 0.71144 0.28673 0.0
O180 O 0.07238 0.78146 0.26652 0.0
O181 O 0.0224 0.79326 0.28108 0.0
In182 In 0.40512 0.35679 0.49884 0.0
O183 O 0.35466 0.33823 0.48101 0.0
O184 O 0.36622 0.39037 0.47847 0.0
C185 C 0.44058 0.31745 0.53946 0.0
C186 C 0.43367 0.36312 0.43733 0.0
C187 C 0.3826 0.38089 0.55703 0.0
O188 O 0.4156 0.30675 0.52287 0.0
O189 O 0.45052 0.34631 0.53119 0.0
O190 O 0.40353 0.39752 0.53943 0.0
O191 O 0.37269 0.35394 0.5441 0.0
C192 C 0.34504 0.36743 0.4738 0.0
O193 O 0.43502 0.3863 0.45906 0.0
O194 O 0.42095 0.33625 0.44815 0.0
In195 In 0.98158 0.62155 0.74821 0.0
O196 O 0.95312 0.57244 0.75239 0.0
O197 O 0.92577 0.61641 0.74234 0.0
C198 C 0.01884 0.60564 0.80367 0.0
C199 C 0.00257 0.62213 0.6824 0.0
C200 C 0.9617 0.67804 0.77809 0.0
O201 O 0.99165 0.59147 0.79671 0.0
O202 O 0.02927 0.6246 0.78054 0.0
O203 O 0.9919 0.67027 0.77558 0.0
O204 O 0.94212 0.65932 0.76195 0.0
C205 C 0.92493 0.58552 0.7476 0.0
O206 O 0.99775 0.64805 0.69927 0.0
O207 O 0.99927 0.5958 0.69924 0.0
In208 In 0.09035 0.63283 0.00446 0.0
O209 O 0.09314 0.59359 0.04686 0.0
O210 O 0.1238 0.63741 0.04875 0.0
C211 C 0.05965 0.62337 0.94451 0.0
C212 C 0.05629 0.67416 0.04392 0.0
C213 C 0.15013 0.62343 0.97817 0.0
O214 O 0.05865 0.60151 0.9677 0.0
O215 O 0.07318 0.65057 0.95313 0.0
O216 O 0.13946 0.65243 0.9843 0.0
O217 O 0.13004 0.59987 0.98446 0.0
C218 C 0.11427 0.61111 0.06325 0.0
O219 O 0.08061 0.68401 0.02592 0.0
O220 O 0.04606 0.64499 0.03749 0.0
In221 In 0.4802 0.868 0.26141 0.0
O222 O 0.45664 0.91909 0.25844 0.0
O223 O 0.4251 0.87731 0.2677 0.0
C224 C 0.52016 0.88311 0.20772 0.0
C225 C 0.49975 0.86371 0.32757 0.0
C226 C 0.45664 0.81561 0.22655 0.0
O227 O 0.49425 0.89915 0.21469 0.0
O228 O 0.52833 0.86259 0.23033 0.0
O229 O 0.48721 0.81971 0.23252 0.0
O230 O 0.43795 0.83528 0.24222 0.0
C231 C 0.42732 0.90828 0.26311 0.0
O232 O 0.49182 0.83882 0.31009 0.0
O233 O 0.49995 0.89057 0.31131 0.0
In234 In 0.48157 0.23749 0.73406 0.0
O235 O 0.52104 0.19997 0.71804 0.0
O236 O 0.47009 0.19205 0.70392 0.0
C237 C 0.50134 0.28137 0.78099 0.0
C238 C 0.46925 0.26984 0.67572 0.0
C239 C 0.45567 0.20092 0.7841 0.0
O240 O 0.52166 0.2628 0.76551 0.0
O241 O 0.47186 0.28064 0.76964 0.0
O242 O 0.43688 0.21678 0.76389 0.0
O243 O 0.48642 0.20341 0.77819 0.0
C244 C 0.49959 0.18144 0.70367 0.0
O245 O 0.44611 0.25868 0.69449 0.0
O246 O 0.49829 0.2669 0.68782 0.0
In247 In 0.52385 0.37955 0.24994 0.0
O248 O 0.48994 0.40751 0.28735 0.0
O249 O 0.47903 0.35713 0.27699 0.0
C250 C 0.57579 0.42037 0.23891 0.0
C251 C 0.55537 0.34625 0.29859 0.0
C252 C 0.5062 0.36979 0.18434 0.0
O253 O 0.54736 0.43116 0.24729 0.0
O254 O 0.57716 0.38929 0.23483 0.0
O255 O 0.51759 0.3468 0.20276 0.0
O256 O 0.50144 0.39684 0.19962 0.0
C257 C 0.47391 0.38168 0.29597 0.0
O258 O 0.54341 0.33072 0.27344 0.0
O259 O 0.55408 0.37736 0.29669 0.0
In260 In 0.22065 0.99955 0.64431 0.0
O261 O 0.21734 0.02803 0.59456 0.0
O262 O 0.23386 0.05394 0.63822 0.0
C263 C 0.16035 0.97083 0.63121 0.0
C264 C 0.2804 0.9674 0.64074 0.0
C265 C 0.19935 0.02382 0.70371 0.0
O266 O 0.1701 0.99728 0.61735 0.0
O267 O 0.18249 0.9568 0.64867 0.0
O268 O 0.19396 0.99432 0.69473 0.0
O269 O 0.21856 0.03978 0.68437 0.0
C270 C 0.22647 0.05539 0.60732 0.0
O271 O 0.26644 0.9748 0.66806 0.0
O272 O 0.26357 0.97462 0.61501 0.0
In273 In 0.836 0.97327 0.9949 0.0
O274 O 0.86755 0.93427 0.9694 0.0
O275 O 0.86588 0.9323 0.02252 0.0
C276 C 0.81123 0.99643 0.93622 0.0
C277 C 0.78241 0.94103 0.01882 0.0
C278 C 0.85828 0.03262 0.01823 0.0
O279 O 0.8406 0.98603 0.93935 0.0
O280 O 0.79413 0.99496 0.96283 0.0
O281 O 0.83879 0.01418 0.03485 0.0
O282 O 0.86968 0.01924 0.99205 0.0
C283 C 0.87412 0.91789 0.99558 0.0
O284 O 0.79531 0.96507 0.03471 0.0
O285 O 0.79554 0.93474 0.99077 0.0
In286 In 0.97434 0.52989 0.32609 0.0
O287 O 0.93309 0.52547 0.36599 0.0
O288 O 0.93568 0.5697 0.33753 0.0
C289 C 0.9938 0.46598 0.32492 0.0
C290 C 0.94449 0.52969 0.2657 0.0
C291 C 0.03454 0.55873 0.33734 0.0
O292 O 0.97987 0.4787 0.35032 0.0
O293 O 0.99792 0.48559 0.30046 0.0
O294 O 0.01486 0.56833 0.31463 0.0
O295 O 0.02207 0.53753 0.35714 0.0
C296 C 0.91881 0.55197 0.35747 0.0
O297 O 0.96961 0.54776 0.27168 0.0
O298 O 0.93564 0.51105 0.28961 0.0
In299 In 0.23017 0.70195 0.47782 0.0
O300 O 0.21223 0.74511 0.44587 0.0
O301 O 0.1937 0.74104 0.49621 0.0
C302 C 0.27808 0.66704 0.44768 0.0
C303 C 0.27731 0.73411 0.51276 0.0
C304 C 0.18569 0.65144 0.4773 0.0
O305 O 0.26032 0.68764 0.4315 0.0
O306 O 0.27098 0.66398 0.47854 0.0
O307 O 0.19726 0.66323 0.50466 0.0
O308 O 0.19496 0.66667 0.451 0.0
C309 C 0.19533 0.75805 0.46937 0.0
O310 O 0.26023 0.71105 0.52654 0.0
O311 O 0.26978 0.74061 0.48261 0.0
In312 In 0.04398 0.01587 0.18497 0.0
O313 O 0.00241 0.044 0.21 0.0
O314 O 0.99391 0.02935 0.1595 0.0
C315 C 0.08186 0.01682 0.24061 0.0
C316 C 0.02377 0.95188 0.1854 0.0
C317 C 0.09424 0.04202 0.14801 0.0
O318 O 0.05961 0.03812 0.23512 0.0
O319 O 0.08434 0.99469 0.21835 0.0
O320 O 0.08245 0.01346 0.14247 0.0
O321 O 0.077 0.05906 0.16799 0.0
C322 C 0.98193 0.04161 0.18612 0.0
O323 O 0.03349 0.96602 0.15862 0.0
O324 O 0.02514 0.96976 0.21135 0.0
In325 In 0.73774 0.7988 0.52904 0.0
O326 O 0.70411 0.8351 0.50055 0.0
O327 O 0.70024 0.83185 0.55416 0.0
C328 C 0.78503 0.76524 0.497 0.0
C329 C 0.7835 0.83864 0.55655 0.0
C330 C 0.70713 0.74126 0.54261 0.0
O331 O 0.76668 0.7854 0.48074 0.0
O332 O 0.77941 0.76307 0.52817 0.0
O333 O 0.72311 0.75755 0.56471 0.0
O334 O 0.70338 0.75593 0.51458 0.0
C335 C 0.69148 0.84658 0.52747 0.0
O336 O 0.7665 0.81823 0.57398 0.0
O337 O 0.7769 0.83897 0.52541 0.0
In338 In 0.78751 0.49912 0.86282 0.0
O339 O 0.81209 0.48994 0.81175 0.0
O340 O 0.79534 0.53845 0.82238 0.0
C341 C 0.72735 0.46691 0.86725 0.0
C342 C 0.848 0.47232 0.8777 0.0
C343 C 0.77676 0.55583 0.89652 0.0
O344 O 0.7406 0.47519 0.83971 0.0
O345 O 0.74531 0.47286 0.89262 0.0
O346 O 0.78859 0.53036 0.9108 0.0
O347 O 0.76988 0.55208 0.8657 0.0
C348 C 0.81136 0.51993 0.80276 0.0
O349 O 0.83872 0.49981 0.88935 0.0
O350 O 0.82527 0.45659 0.86241 0.0
In351 In 0.33991 0.54886 1.00208 0.0
O352 O 0.34481 0.54751 0.05938 0.0
O353 O 0.30064 0.52793 0.03747 0.0
C354 C 0.37995 0.60195 0.98873 0.0
C355 C 0.35833 0.48652 0.98446 0.0
C356 C 0.28392 0.57831 0.9812 0.0
O357 O 0.3798 0.58732 0.01685 0.0
O358 O 0.36351 0.58706 0.96621 0.0
O359 O 0.29525 0.55292 0.9666 0.0
O360 O 0.30042 0.58799 0.00639 0.0
C361 C 0.31685 0.53369 0.06403 0.0
O362 O 0.34015 0.50438 0.96603 0.0
O363 O 0.37082 0.50175 0.00918 0.0
In364 In 0.27358 0.29846 0.98363 0.0
O365 O 0.24448 0.2907 0.03304 0.0
O366 O 0.23431 0.2598 0.99032 0.0
C367 C 0.31824 0.34877 0.98423 0.0
C368 C 0.30763 0.24202 0.97313 0.0
C369 C 0.22484 0.33387 0.95489 0.0
O370 O 0.30723 0.33581 0.01127 0.0
O371 O 0.30845 0.33465 0.95752 0.0
O372 O 0.24197 0.31326 0.93812 0.0
O373 O 0.23307 0.33673 0.98544 0.0
C374 C 0.2272 0.26734 0.02024 0.0
O375 O 0.29032 0.25571 0.95031 0.0
O376 O 0.30994 0.25838 1.00028 0.0
In377 In 0.29612 1.00131 0.14687 0.0
O378 O 0.24939 0.02313 0.17117 0.0
O379 O 0.25496 0.0298 0.11865 0.0
C380 C 0.31885 0.97902 0.20654 0.0
C381 C 0.28397 0.94796 0.10823 0.0
C382 C 0.35701 0.02813 0.13304 0.0
O383 O 0.31952 0.0093 0.19859 0.0
O384 O 0.30331 0.96075 0.18601 0.0
O385 O 0.34815 0.9998 0.12299 0.0
O386 O 0.33386 0.04445 0.14659 0.0
C387 C 0.23678 0.03368 0.14417 0.0
O388 O 0.29519 0.97491 0.09626 0.0
O389 O 0.27856 0.94831 0.13959 0.0
In390 In 0.67593 0.04573 0.5121 0.0
O391 O 0.63609 0.08472 0.50125 0.0
O392 O 0.65727 0.08407 0.55004 0.0
C393 C 0.69282 0.03085 0.44838 0.0
C394 C 0.7348 0.07368 0.52774 0.0
C395 C 0.65522 0.98415 0.53027 0.0
O396 O 0.66683 0.04682 0.45549 0.0
O397 O 0.71023 0.02269 0.47345 0.0
O398 O 0.67572 1.00078 0.5476 0.0
O399 O 0.64195 1.00034 0.50671 0.0
C400 C 0.63923 0.09929 0.52918 0.0
O401 O 0.7239 0.04843 0.54329 0.0
O402 O 0.71632 0.08404 0.50437 0.0
In403 In 0.53479 0.48219 0.82489 0.0
O404 O 0.55478 0.45934 0.77677 0.0
O405 O 0.57554 0.50526 0.79327 0.0
C406 C 0.47206 0.45825 0.81775 0.0
C407 C 0.58414 0.45671 0.86336 0.0
C408 C 0.5149 0.54574 0.8259 0.0
O409 O 0.4939 0.45732 0.79507 0.0
O410 O 0.48298 0.46703 0.84633 0.0
O411 O 0.52269 0.53059 0.85272 0.0
O412 O 0.51833 0.52917 0.79926 0.0
C413 C 0.57601 0.4821 0.77194 0.0
O414 O 0.57218 0.48511 0.86852 0.0
O415 O 0.56703 0.43923 0.84335 0.0
In416 In 0.53298 0.73832 0.77291 0.0
O417 O 0.5681 0.75719 0.8139 0.0
O418 O 0.51654 0.76936 0.81781 0.0
C419 C 0.55911 0.69753 0.72676 0.0
C420 C 0.50913 0.68463 0.80393 0.0
C421 C 0.52099 0.78388 0.72494 0.0
O422 O 0.57758 0.71396 0.74695 0.0
O423 O 0.52828 0.70205 0.73032 0.0
O424 O 0.49747 0.76891 0.74025 0.0
O425 O 0.54975 0.77829 0.73662 0.0
C426 C 0.5451 0.76998 0.83144 0.0
O427 O 0.49022 0.70284 0.78611 0.0
O428 O 0.53888 0.69455 0.80666 0.0
In429 In 0.03496 0.19248 0.01769 0.0
O430 O 0.99422 0.19678 0.05788 0.0
O431 O 0.03631 0.16779 0.06987 0.0
C432 C 0.0185 0.24332 0.97778 0.0
C433 C 0.09649 0.21441 0.03461 0.0
C434 C 0.02384 0.14862 0.96687 0.0
O435 O 0.00412 0.23874 0.00577 0.0
O436 O 0.04178 0.22363 0.97141 0.0
O437 O 0.05153 0.15176 0.98161 0.0
O438 O 1.00039 0.16324 0.98173 0.0
C439 C 0.00973 0.18073 0.08018 0.0
O440 O 0.09047 0.18456 0.02687 0.0
O441 O 0.07138 0.233 0.03405 0.0
In442 In 0.9238 0.1477 0.49921 0.0
O443 O 0.92345 0.10798 0.45751 0.0
O444 O 0.88977 0.14914 0.45507 0.0
C445 C 0.95797 0.1424 0.55769 0.0
C446 C 0.95175 0.19309 0.45883 0.0
C447 C 0.86638 0.1292 0.5266 0.0
O448 O 0.96234 0.12223 0.53346 0.0
O449 O 0.93865 0.16628 0.55108 0.0
O450 O 0.87307 0.15958 0.52073 0.0
O451 O 0.88919 0.10884 0.51948 0.0
C452 C 0.90092 0.12339 0.44108 0.0
O453 O 0.92721 0.1999 0.47776 0.0
O454 O 0.96531 0.16537 0.4649 0.0
In455 In 0.03974 0.14049 0.75373 0.0
O456 O 0.02342 0.18989 0.73135 0.0
O457 O 0.07503 0.18021 0.73488 0.0
C458 C 0.02331 0.14218 0.82051 0.0
C459 C 0.00605 0.1243 0.69626 0.0
C460 C 0.09323 0.10092 0.75551 0.0
O461 O 0.04416 0.16128 0.80678 0.0
O462 O 0.00828 0.12314 0.80015 0.0
O463 O 0.06384 0.08928 0.75532 0.0
O464 O 0.09508 0.13215 0.75516 0.0
C465 C 0.05251 0.19826 0.72267 0.0
O466 O 0.0348 0.11382 0.70298 0.0
O467 O 0.99235 0.13921 0.72062 0.0
In468 In 0.4714 0.80534 0.52342 0.0
O469 O 0.49662 0.75498 0.51588 0.0
O470 O 0.46475 0.77377 0.47752 0.0
C471 C 0.49538 0.81857 0.58619 0.0
C472 C 0.4933 0.84542 0.47273 0.0
C473 C 0.4074 0.7882 0.53607 0.0
O474 O 0.51025 0.8004 0.5653 0.0
O475 O 0.46962 0.83224 0.57462 0.0
O476 O 0.41561 0.81669 0.5253 0.0
O477 O 0.43153 0.76897 0.54107 0.0
C478 C 0.48414 0.75117 0.48684 0.0
O479 O 0.46425 0.84766 0.4847 0.0
O480 O 0.51223 0.82708 0.48979 0.0
In481 In 0.5973 0.86202 0.0085 0.0
O482 O 0.56272 0.88994 0.04468 0.0
O483 O 0.58126 0.84248 0.05961 0.0
C484 C 0.62229 0.88251 0.94983 0.0
C485 C 0.65562 0.87952 0.03413 0.0
C486 C 0.56536 0.81952 0.96827 0.0
O487 O 0.60008 0.89958 0.96492 0.0
O488 O 0.63207 0.85695 0.96539 0.0
O489 O 0.58916 0.81044 0.98731 0.0
O490 O 0.55433 0.84839 0.97417 0.0
C491 C 0.56516 0.86819 0.06788 0.0
O492 O 0.64804 0.84917 0.02924 0.0
O493 O 0.63294 0.90029 0.02761 0.0
In494 In 0.71626 0.50113 0.34945 0.0
O495 O 0.69168 0.51481 0.29956 0.0
O496 O 0.70681 0.46501 0.30648 0.0
C497 C 0.77605 0.53367 0.35423 0.0
C498 C 0.65586 0.52608 0.36711 0.0
C499 C 0.72856 0.44482 0.38364 0.0
O500 O 0.76397 0.5238 0.32665 0.0
O501 O 0.75726 0.52883 0.37919 0.0
O502 O 0.71915 0.47113 0.39798 0.0
O503 O 0.73211 0.44719 0.3521 0.0
C504 C 0.69092 0.48546 0.28862 0.0
O505 O 0.66451 0.49683 0.37379 0.0
O506 O 0.67903 0.54386 0.35508 0.0
In507 In 0.158 0.45194 0.49282 0.0
O508 O 0.16224 0.49673 0.4573 0.0
O509 O 0.12679 0.49922 0.49651 0.0
C510 C 0.21377 0.41991 0.47585 0.0
C511 C 0.17747 0.46833 0.55558 0.0
C512 C 0.11868 0.39897 0.47774 0.0
O513 O 0.20341 0.44444 0.45901 0.0
O514 O 0.19668 0.41266 0.50145 0.0
O515 O 0.11829 0.41285 0.50619 0.0
O516 O 0.13466 0.41499 0.45564 0.0
C517 C 0.14227 0.51459 0.4736 0.0
O518 O 0.14963 0.45476 0.54959 0.0
O519 O 0.19535 0.47322 0.52994 0.0
In520 In 0.47709 0.9773 0.68276 0.0
O521 O 0.48122 0.02766 0.65626 0.0
O522 O 0.50175 0.02289 0.70542 0.0
C523 C 0.42276 0.95316 0.64977 0.0
C524 C 0.53686 0.94718 0.6744 0.0
C525 C 0.44787 0.98118 0.74357 0.0
O526 O 0.43827 0.97875 0.64005 0.0
O527 O 0.43758 0.93738 0.67267 0.0
O528 O 0.47275 0.963 0.73827 0.0
O529 O 0.43831 0.99762 0.7184 0.0
C530 C 0.4964 0.04149 0.68046 0.0
O531 O 0.51536 0.9373 0.69529 0.0
O532 O 0.52672 0.96981 0.65506 0.0
In533 In 0.77685 0.21844 0.02897 0.0
O534 O 0.74661 0.20042 0.07413 0.0
O535 O 0.73724 0.17867 0.02594 0.0
C536 C 0.80906 0.27573 0.0405 0.0
C537 C 0.82237 0.1699 0.02633 0.0
C538 C 0.73039 0.25176 0.99536 0.0
O539 O 0.79344 0.26018 0.06346 0.0
O540 O 0.81149 0.26038 0.01278 0.0
O541 O 0.74804 0.23026 0.9803 0.0
O542 O 0.73643 0.25555 0.02629 0.0
C543 C 0.72978 0.17977 0.05682 0.0
O544 O 0.80969 0.18222 0.99978 0.0
O545 O 0.81407 0.18417 0.05336 0.0
In546 In 0.97582 0.27396 0.26202 0.0
O547 O 0.01704 0.311 0.27604 0.0
O548 O 0.96745 0.31737 0.29523 0.0
C549 C 0.98662 0.22665 0.21581 0.0
C550 C 0.96631 0.24294 0.32133 0.0
C551 C 0.95036 0.31387 0.21475 0.0
O552 O 0.01052 0.24234 0.22979 0.0
O553 O 0.95809 0.23288 0.22767 0.0
O554 O 0.93165 0.29738 0.23468 0.0
O555 O 0.98126 0.30976 0.21902 0.0
C556 C 0.99703 0.32812 0.29371 0.0
O557 O 0.94235 0.25472 0.30422 0.0
O558 O 0.99446 0.24424 0.30692 0.0
In559 In 0.97518 0.6869 0.48977 0.0
O560 O 1.00205 0.7364 0.49985 0.0
O561 O 0.96809 0.71748 0.53639 0.0
C562 C 0.9969 0.67485 0.42597 0.0
C563 C 0.99638 0.64416 0.53827 0.0
C564 C 0.91154 0.70481 0.47771 0.0
O565 O 0.01294 0.69255 0.44665 0.0
O566 O 0.97134 0.66112 0.43823 0.0
O567 O 0.91914 0.6764 0.48885 0.0
O568 O 0.93611 0.7237 0.4722 0.0
C569 C 0.9886 0.7399 0.52845 0.0
O570 O 0.96754 0.64231 0.52561 0.0
O571 O 0.01549 0.66412 0.52312 0.0
In572 In 0.72072 0.94077 0.76966 0.0
O573 O 0.68487 0.965 0.73212 0.0
O574 O 0.68482 0.91224 0.73606 0.0
C575 C 0.75065 0.98272 0.81149 0.0
C576 C 0.68483 0.9179 0.82214 0.0
C577 C 0.7796 0.92876 0.73911 0.0
O578 O 0.72779 0.99301 0.79199 0.0
O579 O 0.75764 0.95238 0.8093 0.0
O580 O 0.76483 0.90701 0.75694 0.0
O581 O 0.76292 0.95484 0.7341 0.0
C582 C 0.67154 0.93771 0.72334 0.0
O583 O 0.70495 0.89946 0.80623 0.0
O584 O 0.6825 0.94705 0.81079 0.0
In585 In 0.38311 0.80493 0.03136 0.0
O586 O 0.40949 0.85598 0.03448 0.0
O587 O 0.39029 0.84138 0.98718 0.0
C588 C 0.40837 0.79373 0.09314 0.0
C589 C 0.32254 0.83019 0.04418 0.0
C590 C 0.39004 0.74438 1.0013 0.0
O591 O 0.42627 0.80414 0.06899 0.0
O592 O 0.3782 0.78876 0.08571 0.0
O593 O 0.36232 0.75832 0.00499 0.0
O594 O 0.41451 0.76191 0.01039 0.0
C595 C 0.40311 0.8644 0.00456 0.0
O596 O 0.33505 0.83024 0.01506 0.0
O597 O 0.33866 0.81347 0.06543 0.0
In598 In 0.45469 0.58779 0.36764 0.0
O599 O 0.47621 0.63923 0.3701 0.0
O600 O 0.47473 0.60928 0.41528 0.0
C601 C 0.412 0.56573 0.32169 0.0
C602 C 0.51426 0.55955 0.36017 0.0
C603 C 0.39858 0.60826 0.39493 0.0
O604 O 0.42997 0.59144 0.31663 0.0
O605 O 0.42018 0.5484 0.34718 0.0
O606 O 0.41339 0.58268 0.4067 0.0
O607 O 0.41324 0.62345 0.3711 0.0
C608 C 0.48204 0.6369 0.40162 0.0
O609 O 0.49323 0.54854 0.38158 0.0
O610 O 0.50336 0.5819 0.34053 0.0
In611 In 0.64075 0.55361 0.59526 0.0
O612 O 0.61512 0.51709 0.55926 0.0
O613 O 0.66679 0.51076 0.57091 0.0
C614 C 0.61169 0.59965 0.63316 0.0
C615 C 0.63661 0.51479 0.64839 0.0
C616 C 0.6715 0.60255 0.56259 0.0
O617 O 0.59578 0.58534 0.60927 0.0
O618 O 0.64135 0.59018 0.63734 0.0
O619 O 0.68666 0.58391 0.58336 0.0
O620 O 0.64208 0.59339 0.5552 0.0
C621 C 0.64082 0.49885 0.55715 0.0
O622 O 0.6638 0.52974 0.64138 0.0
O623 O 0.61245 0.51971 0.62849 0.0
C624 C 0.31948 0.54044 0.12632 0.0
C625 C 0.30281 0.52775 0.09795 0.0
C626 C 0.30418 0.54068 0.15793 0.0
C627 C 0.27198 0.52766 0.16242 0.0
H628 H 0.3437 0.55213 0.12379 0.0
H629 H 0.31687 0.55286 0.17864 0.0
S630 S 0.21913 0.48801 0.09738 0.0
N631 N 0.25338 0.49899 0.07713 0.0
N632 N 0.22489 0.49933 0.13693 0.0
C633 C 0.25605 0.51249 0.13504 0.0
C634 C 0.27143 0.51257 0.10264 0.0
C635 C 0.72463 0.383 0.45512 0.0
C636 C 0.71903 0.35283 0.43813 0.0
C637 C 0.73014 0.41252 0.43728 0.0
C638 C 0.73091 0.41285 0.40188 0.0
H639 H 0.7215 0.38454 0.48218 0.0
H640 H 0.73166 0.43551 0.45129 0.0
S641 S 0.72548 0.33929 0.34602 0.0
N642 N 0.72019 0.3242 0.38436 0.0
N643 N 0.73134 0.37957 0.35078 0.0
C644 C 0.7295 0.38228 0.38484 0.0
C645 C 0.72347 0.35226 0.40302 0.0
C646 C 0.84883 0.86715 0.61832 0.0
C647 C 0.87091 0.88575 0.59817 0.0
C648 C 0.81961 0.85365 0.60503 0.0
C649 C 0.81139 0.85806 0.57097 0.0
H650 H 0.85475 0.86194 0.64445 0.0
H651 H 0.80417 0.83842 0.6213 0.0
S652 S 0.85879 0.90852 0.5087 0.0
N653 N 0.88117 0.91086 0.54355 0.0
N654 N 0.826 0.88538 0.51808 0.0
C655 C 0.83209 0.87861 0.55105 0.0
C656 C 0.86193 0.89256 0.5648 0.0
C657 C 0.40247 0.00289 0.77982 0.0
C658 C 0.43247 0.98528 0.77701 0.0
C659 C 0.38983 0.01182 0.81134 0.0
C660 C 0.40702 0.00374 0.84098 0.0
H661 H 0.38936 0.0111 0.75749 0.0
H662 H 0.36778 0.02709 0.81231 0.0
S663 S 0.48357 0.9534 0.8477 0.0
N664 N 0.47668 0.95651 0.8068 0.0
N665 N 0.45311 0.9738 0.86607 0.0
C666 C 0.43559 0.98402 0.83869 0.0
C667 C 0.44829 0.97462 0.80664 0.0
C668 C 0.18501 0.34455 0.90785 0.0
C669 C 0.19573 0.35158 0.94074 0.0
C670 C 0.15591 0.35854 0.8949 0.0
C671 C 0.13634 0.38031 0.91417 0.0
H672 H 0.19873 0.32748 0.89218 0.0
H673 H 0.14851 0.35184 0.86954 0.0
S674 S 0.15431 0.40827 1.00117 0.0
N675 N 0.1851 0.38293 0.99204 0.0
N676 N 0.13042 0.40931 0.96731 0.0
C677 C 0.14728 0.38852 0.94666 0.0
C678 C 0.17693 0.3741 0.96005 0.0
C679 C 0.9331 0.52993 0.17156 0.0
C680 C 0.90181 0.51451 0.1677 0.0
C681 C 0.94594 0.53693 0.20353 0.0
C682 C 0.92808 0.52826 0.23262 0.0
H683 H 0.94859 0.535 0.1498 0.0
H684 H 0.97085 0.5472 0.20544 0.0
S685 S 0.84276 0.49272 0.23609 0.0
N686 N 0.85144 0.49492 0.19549 0.0
N687 N 0.87582 0.50765 0.25573 0.0
C688 C 0.89566 0.51538 0.22909 0.0
C689 C 0.88239 0.50868 0.19651 0.0
C690 C 0.73401 0.00793 0.40772 0.0
C691 C 0.70417 0.02518 0.41349 0.0
C692 C 0.7489 0.00773 0.3758 0.0
C693 C 0.73443 0.02496 0.34888 0.0
H694 H 0.74701 0.99613 0.42838 0.0
H695 H 0.77311 0.99645 0.37294 0.0
S696 S 0.65367 0.06866 0.34902 0.0
N697 N 0.65842 0.05573 0.38821 0.0
N698 N 0.68678 0.05572 0.32844 0.0
C699 C 0.70324 0.03967 0.35351 0.0
C700 C 0.68794 0.03968 0.38582 0.0
C701 C 0.20321 0.11658 0.53908 0.0
C702 C 0.19925 0.14613 0.5574 0.0
C703 C 0.21465 0.08763 0.5548 0.0
C704 C 0.22302 0.08739 0.58923 0.0
H705 H 0.19449 0.11486 0.51334 0.0
H706 H 0.21476 0.06483 0.54042 0.0
S707 S 0.22358 0.16026 0.64635 0.0
N708 N 0.20927 0.17474 0.61025 0.0
N709 N 0.2315 0.1207 0.6397 0.0
C710 C 0.22281 0.11776 0.60673 0.0
C711 C 0.21077 0.14708 0.59081 0.0
C712 C 0.03551 0.21062 0.66396 0.0
C713 C 0.05868 0.2152 0.69025 0.0
C714 C 0.04538 0.21243 0.63013 0.0
C715 C 0.07854 0.21972 0.62147 0.0
H716 H 0.01047 0.20209 0.66938 0.0
H717 H 0.02744 0.20594 0.61081 0.0
S718 S 0.14678 0.24103 0.68105 0.0
N719 N 0.11466 0.23226 0.70545 0.0
N720 N 0.13315 0.23702 0.64201 0.0
C721 C 0.10085 0.22839 0.64751 0.0
C722 C 0.09088 0.22595 0.6819 0.0
C723 C 1.00111 0.30152 0.9677 0.0
C724 C 0.01089 0.27079 0.9548 0.0
C725 C 1.00146 0.32978 0.9472 0.0
C726 C 0.01132 0.32803 0.91318 0.0
H727 H 0.99561 0.30426 0.99426 0.0
H728 H 0.99608 0.35349 0.9587 0.0
S729 S 0.03184 0.25156 0.86602 0.0
N730 N 0.0253 0.23889 0.90504 0.0
N731 N 0.02577 0.29202 0.86636 0.0
C732 C 0.01757 0.29673 0.89921 0.0
C733 C 0.0175 0.26805 0.92015 0.0
C734 C 0.95014 0.38046 0.14671 0.0
C735 C 0.91616 0.38623 0.14141 0.0
C736 C 0.96079 0.3566 0.17006 0.0
C737 C 0.93789 0.33743 0.18891 0.0
H738 H 0.96867 0.39514 0.1335 0.0
H739 H 0.98731 0.35365 0.17379 0.0
S740 S 0.84598 0.34048 0.1815 0.0
N741 N 0.8595 0.36904 0.15492 0.0
N742 N 0.8796 0.32431 0.19869 0.0
C743 C 0.90382 0.34208 0.18284 0.0
C744 C 0.89296 0.36643 0.15914 0.0
C745 C 0.88602 0.07944 0.39882 0.0
C746 C 0.88774 0.11301 0.40782 0.0
C747 C 0.86949 0.06943 0.36928 0.0
C748 C 0.85429 0.09263 0.34753 0.0
H749 H 0.89623 0.0607 0.41536 0.0
H750 H 0.8678 0.04313 0.36403 0.0
S751 S 0.85628 0.18402 0.35749 0.0
N752 N 0.87598 0.16982 0.39098 0.0
N753 N 0.84513 0.15097 0.33564 0.0
C754 C 0.85756 0.12642 0.35537 0.0
C755 C 0.87422 0.13659 0.38546 0.0
C756 C 0.05226 0.86433 0.35392 0.0
C757 C 0.08615 0.87023 0.36015 0.0
C758 C 0.04198 0.84067 0.33008 0.0
C759 C 0.06519 0.8218 0.31169 0.0
H760 H 0.03352 0.87859 0.36695 0.0
H761 H 0.01554 0.8375 0.32576 0.0
S762 S 0.15696 0.82597 0.32059 0.0
N763 N 0.14302 0.85393 0.34729 0.0
N764 N 0.12359 0.80963 0.30271 0.0
C765 C 0.09914 0.82686 0.31835 0.0
C766 C 0.10963 0.85099 0.34252 0.0
C767 C 0.36909 0.42473 0.59972 0.0
C768 C 0.37003 0.39118 0.59054 0.0
C769 C 0.35397 0.43464 0.62995 0.0
C770 C 0.33941 0.41137 0.65226 0.0
H771 H 0.37901 0.44354 0.58293 0.0
H772 H 0.35293 0.46092 0.63537 0.0
S773 S 0.33947 0.32002 0.64184 0.0
N774 N 0.35802 0.33432 0.60766 0.0
N775 N 0.32974 0.35301 0.66423 0.0
C776 C 0.34173 0.37762 0.64411 0.0
C777 C 0.357 0.36754 0.61333 0.0
C778 C 0.9148 0.70328 0.8093 0.0
C779 C 0.94931 0.69905 0.80585 0.0
C780 C 0.90085 0.71184 0.84032 0.0
C781 C 0.92088 0.71627 0.8691 0.0
H782 H 0.89816 0.69727 0.78867 0.0
H783 H 0.87398 0.71251 0.8422 0.0
S784 S 0.01304 0.71646 0.87139 0.0
N785 N 0.00362 0.70638 0.83221 0.0
N786 N 0.97717 0.72198 0.89075 0.0
C787 C 0.95557 0.71594 0.86511 0.0
C788 C 0.96986 0.70757 0.83333 0.0
C789 C 0.52981 0.23048 0.08516 0.0
C790 C 0.51643 0.22837 0.05249 0.0
C791 C 0.5302 0.20287 0.10643 0.0
C792 C 0.51779 0.17216 0.09539 0.0
H793 H 0.54143 0.25325 0.09381 0.0
H794 H 0.54272 0.20502 0.13053 0.0
S795 S 0.47543 0.15508 0.01413 0.0
N796 N 0.48652 0.19454 0.01173 0.0
N797 N 0.48795 0.14213 0.05153 0.0
C798 C 0.50184 0.17043 0.06388 0.0
C799 C 0.50096 0.19874 0.04241 0.0
C800 C 0.02195 0.85953 0.16836 0.0
C801 C 0.00526 0.84687 0.19682 0.0
C802 C 0.02576 0.89382 0.16339 0.0
C803 C 0.01389 0.91649 0.1873 0.0
H804 H 0.03379 0.84277 0.15084 0.0
H805 H 0.04009 0.90245 0.14196 0.0
S806 S 0.96633 0.89583 0.2648 0.0
N807 N 0.9745 0.85954 0.24767 0.0
N808 N 0.98256 0.92384 0.23913 0.0
C809 C 0.99548 0.90411 0.21481 0.0
C810 C 0.99089 0.86929 0.21936 0.0
C811 C 0.30318 0.40666 0.4514 0.0
C812 C 0.31019 0.37579 0.46631 0.0
C813 C 0.27106 0.41982 0.45219 0.0
C814 C 0.24512 0.40274 0.46844 0.0
H815 H 0.32305 0.42168 0.44082 0.0
H816 H 0.26716 0.4445 0.44218 0.0
S817 S 0.24921 0.31864 0.50618 0.0
N818 N 0.28762 0.32654 0.49361 0.0
N819 N 0.22727 0.35153 0.49564 0.0
C820 C 0.25113 0.37063 0.48083 0.0
C821 C 0.28372 0.35702 0.47956 0.0
C822 C 0.86545 0.51663 0.77252 0.0
C823 C 0.83578 0.53395 0.7787 0.0
C824 C 0.89375 0.53302 0.76003 0.0
C825 C 0.89324 0.56718 0.75285 0.0
H826 H 0.86785 0.49097 0.78018 0.0
H827 H 0.9167 0.51925 0.75806 0.0
S828 S 0.81954 0.62202 0.75803 0.0
N829 N 0.80608 0.58576 0.77198 0.0
N830 N 0.85893 0.61652 0.74784 0.0
C831 C 0.86265 0.58387 0.75539 0.0
C832 C 0.83397 0.56723 0.76845 0.0
C833 C 0.22635 0.57355 0.95869 0.0
C834 C 0.25175 0.59331 0.97253 0.0
C835 C 0.19351 0.58481 0.95782 0.0
C836 C 0.18518 0.61634 0.97027 0.0
H837 H 0.23134 0.54834 0.95089 0.0
H838 H 0.17422 0.5679 0.94928 0.0
S839 S 0.24405 0.67986 1.00275 0.0
N840 N 0.26752 0.64748 0.99435 0.0
N841 N 0.20577 0.66886 0.99229 0.0
C842 C 0.21095 0.63759 0.98084 0.0
C843 C 0.24432 0.62595 0.98215 0.0
C844 C 0.36639 0.91341 0.25291 0.0
C845 C 0.39748 0.92895 0.25784 0.0
C846 C 0.33942 0.93089 0.23956 0.0
C847 C 0.34244 0.96462 0.23107 0.0
H848 H 0.36348 0.88696 0.25686 0.0
H849 H 0.31688 0.91726 0.23348 0.0
S850 S 0.41651 0.01827 0.24566 0.0
N851 N 0.42825 0.98105 0.25804 0.0
N852 N 0.37744 0.0141 0.23343 0.0
C853 C 0.3722 0.9813 0.23952 0.0
C854 C 0.39982 0.96338 0.25272 0.0
C855 C 0.41124 0.16596 0.81098 0.0
C856 C 0.44342 0.1796 0.81197 0.0
C857 C 0.40078 0.14282 0.83526 0.0
C858 C 0.42199 0.13256 0.86163 0.0
H859 H 0.3944 0.17231 0.79068 0.0
H860 H 0.37598 0.13241 0.83285 0.0
S861 S 0.50743 0.16401 0.87767 0.0
N862 N 0.49559 0.18335 0.84303 0.0
N863 N 0.4758 0.13999 0.8886 0.0
C864 C 0.45373 0.14714 0.86372 0.0
C865 C 0.46445 0.17061 0.83892 0.0
C866 C 0.58545 0.30318 0.33293 0.0
C867 C 0.56436 0.3307 0.33096 0.0
C868 C 0.59752 0.29222 0.36435 0.0
C869 C 0.58804 0.30794 0.39458 0.0
H870 H 0.59408 0.29131 0.31013 0.0
H871 H 0.61526 0.27214 0.36489 0.0
S872 S 0.53099 0.37933 0.40256 0.0
N873 N 0.53308 0.37218 0.36175 0.0
N874 N 0.55456 0.35097 0.42031 0.0
C875 C 0.56523 0.33406 0.39279 0.0
C876 C 0.55372 0.34561 0.36106 0.0
C877 C 0.74654 0.00669 0.8681 0.0
C878 C 0.76552 1.00193 0.83888 0.0
C879 C 0.7619 0.00818 0.89983 0.0
C880 C 0.79663 0.00486 0.90307 0.0
H881 H 0.71963 0.00524 0.86691 0.0
H882 H 0.74621 0.00885 0.92198 0.0
S883 S 0.85731 0.99964 0.83293 0.0
N884 N 0.82057 0.9995 0.8143 0.0
N885 N 0.84974 0.003 0.87367 0.0
C886 C 0.81596 0.00448 0.87355 0.0
C887 C 0.80027 0.00287 0.84143 0.0
C888 C 0.35669 0.61559 0.44098 0.0
C889 C 0.36612 0.62015 0.40728 0.0
C890 C 0.32759 0.6301 0.45355 0.0
C891 C 0.30675 0.64939 0.43275 0.0
H892 H 0.37251 0.60185 0.45805 0.0
H893 H 0.32192 0.62687 0.48002 0.0
S894 S 0.31824 0.66466 0.34133 0.0
N895 N 0.35084 0.64253 0.35247 0.0
N896 N 0.29616 0.66946 0.37599 0.0
C897 C 0.31508 0.65258 0.39856 0.0
C898 C 0.34476 0.63804 0.38586 0.0
C899 C 0.0874 0.03149 0.30101 0.0
C900 C 0.10014 0.01506 0.27271 0.0
C901 C 0.09842 0.02345 0.33337 0.0
C902 C 0.12286 0.9992 0.33833 0.0
H903 H 0.06682 0.04852 0.29852 0.0
H904 H 0.08582 0.03431 0.35477 0.0
S905 S 0.16939 0.95476 0.27204 0.0
N906 N 0.14244 0.97777 0.2512 0.0
N907 N 0.16331 0.96285 0.31233 0.0
C908 C 0.13871 0.98569 0.31012 0.0
C909 C 0.12721 0.99355 0.27711 0.0
C910 C 0.78642 0.59214 0.94664 0.0
C911 C 0.77616 0.58881 0.91291 0.0
C912 C 0.79429 0.62334 0.96013 0.0
C913 C 0.79258 0.65216 0.94015 0.0
H914 H 0.79081 0.57037 0.96199 0.0
H915 H 0.80508 0.62433 0.98514 0.0
S916 S 0.76033 0.65771 0.8529 0.0
N917 N 0.75905 0.61774 0.86186 0.0
N918 N 0.77474 0.67613 0.88709 0.0
C919 C 0.77878 0.64957 0.90778 0.0
C920 C 0.77038 0.6179 0.89414 0.0
C921 C 0.83902 0.76366 0.46627 0.0
C922 C 0.81307 0.74673 0.48265 0.0
C923 C 0.87043 0.74896 0.4627 0.0
C924 C 0.87677 0.71682 0.47523 0.0
H925 H 0.83593 0.7893 0.45878 0.0
H926 H 0.89038 0.76366 0.45183 0.0
S927 S 0.81489 0.66064 0.51539 0.0
N928 N 0.79425 0.69515 0.50803 0.0
N929 N 0.85286 0.66725 0.50088 0.0
C930 C 0.84998 0.69869 0.4889 0.0
C931 C 0.81822 0.71376 0.49275 0.0
C932 C 0.15801 0.20642 0.0337 0.0
C933 C 0.1308 0.2273 0.0398 0.0
C934 C 0.19038 0.21926 0.03118 0.0
C935 C 0.19683 0.25328 0.03539 0.0
H936 H 0.15411 0.18033 0.02843 0.0
H937 H 0.21018 0.20282 0.02349 0.0
S938 S 0.13523 0.3179 0.05613 0.0
N939 N 0.11308 0.28334 0.05348 0.0
N940 N 0.17418 0.30718 0.04901 0.0
C941 C 0.17047 0.27396 0.04455 0.0
C942 C 0.13733 0.26102 0.04669 0.0
C943 C 0.80505 0.13611 0.52443 0.0
C944 C 0.83255 0.11739 0.53483 0.0
C945 C 0.77309 0.12216 0.52393 0.0
C946 C 0.76745 0.08924 0.53437 0.0
H947 H 0.80849 0.16088 0.51436 0.0
H948 H 0.75285 0.13685 0.51397 0.0
S949 S 0.8304 0.03164 0.56884 0.0
N950 N 0.85167 0.06557 0.55933 0.0
N951 N 0.79131 0.03957 0.55901 0.0
C952 C 0.79424 0.07123 0.54756 0.0
C953 C 0.82691 0.08527 0.54761 0.0
C954 C 0.51615 0.6376 0.84357 0.0
C955 C 0.50053 0.65071 0.81476 0.0
C956 C 0.51821 0.60327 0.84872 0.0
C957 C 0.50543 0.58103 0.82474 0.0
H958 H 0.52891 0.65395 0.86103 0.0
H959 H 0.53223 0.59421 0.87012 0.0
S960 S 0.45834 0.60282 0.74743 0.0
N961 N 0.46875 0.63892 0.7641 0.0
N962 N 0.47312 0.57439 0.77331 0.0
C963 C 0.48736 0.59385 0.79731 0.0
C964 C 0.48472 0.62877 0.79245 0.0
C965 C 0.46704 0.7973 0.16777 0.0
C966 C 0.44503 0.79936 0.19528 0.0
C967 C 0.4551 0.79358 0.13478 0.0
C968 C 0.42081 0.79113 0.1282 0.0
H969 H 0.49346 0.80156 0.17126 0.0
H970 H 0.47278 0.79442 0.11421 0.0
S971 S 0.35342 0.78894 0.19218 0.0
N972 N 0.38784 0.79437 0.21428 0.0
N973 N 0.36531 0.78642 0.15247 0.0
C974 C 0.39883 0.78972 0.15583 0.0
C975 C 0.41099 0.794 0.18935 0.0
C976 C 0.34707 0.7958 0.52331 0.0
C977 C 0.37229 0.77661 0.53802 0.0
C978 C 0.31513 0.78264 0.51807 0.0
C979 C 0.30698 0.75002 0.52784 0.0
H980 H 0.35255 0.82037 0.51366 0.0
H981 H 0.29722 0.79747 0.5044 0.0
S982 S 0.36243 0.69113 0.57183 0.0
N983 N 0.3858 0.72446 0.56574 0.0
N984 N 0.32552 0.70002 0.55603 0.0
C985 C 0.33095 0.73159 0.54528 0.0
C986 C 0.3637 0.74482 0.5503 0.0
C987 C 0.7269 0.93915 0.04664 0.0
C988 C 0.75294 0.92254 0.03051 0.0
C989 C 0.69581 0.92373 0.05074 0.0
C990 C 0.69011 0.89109 0.03944 0.0
H991 H 0.72972 0.96496 0.0537 0.0
H992 H 0.67551 0.9382 0.06083 0.0
S993 S 0.75261 0.83521 1.00153 0.0
N994 N 0.77276 0.87054 0.00744 0.0
N995 N 0.71455 0.84129 0.01575 0.0
C996 C 0.71708 0.87317 0.02654 0.0
C997 C 0.74849 0.88905 0.02183 0.0
C998 C 0.63972 0.51458 0.71045 0.0
C999 C 0.63036 0.49836 0.68067 0.0
C1000 C 0.62351 0.50736 0.74078 0.0
C1001 C 0.59779 0.48351 0.74216 0.0
H1002 H 0.65717 0.53518 0.7097 0.0
H1003 H 0.62965 0.5221 0.76274 0.0
S1004 S 0.56984 0.42922 0.67218 0.0
N1005 N 0.59803 0.45401 0.65509 0.0
N1006 N 0.56794 0.43978 0.71231 0.0
C1007 C 0.59117 0.46441 0.71333 0.0
C1008 C 0.60742 0.47204 0.68244 0.0
C1009 C 0.28125 0.88629 0.10571 0.0
C1010 C 0.28286 0.91684 0.08858 0.0
C1011 C 0.28974 0.85673 0.08953 0.0
C1012 C 0.29996 0.8567 0.05564 0.0
H1013 H 0.27635 0.88545 0.13253 0.0
H1014 H 0.29147 0.83436 0.10457 0.0
S1015 S 0.29885 0.92882 0.99741 0.0
N1016 N 0.28847 0.94435 0.03435 0.0
N1017 N 0.30408 0.88872 1.00371 0.0
C1018 C 0.29688 0.88632 0.03708 0.0
C1019 C 0.28855 0.91651 0.05368 0.0
C1020 C 0.23618 0.49305 0.62594 0.0
C1021 C 0.22169 0.47745 0.65396 0.0
C1022 C 0.22058 0.49175 0.59435 0.0
C1023 C 0.18992 0.47506 0.58997 0.0
H1024 H 0.26088 0.50383 0.62779 0.0
H1025 H 0.23353 0.5023 0.57291 0.0
S1026 S 0.13949 0.43545 0.65735 0.0
N1027 N 0.1735 0.44857 0.67667 0.0
N1028 N 0.14375 0.44662 0.61754 0.0
C1029 C 0.17384 0.46217 0.61861 0.0
C1030 C 0.18989 0.46322 0.65059 0.0
C1031 C 0.66114 0.15192 0.11585 0.0
C1032 C 0.64347 0.12806 0.09691 0.0
C1033 C 0.68966 0.16757 0.10317 0.0
C1034 C 0.70167 0.1602 0.07088 0.0
H1035 H 0.65266 0.15902 0.1407 0.0
H1036 H 0.70182 0.18626 0.1185 0.0
S1037 S 0.66607 0.09779 0.01195 0.0
N1038 N 0.64116 0.09639 0.04498 0.0
N1039 N 0.6948 0.12593 0.02082 0.0
C1040 C 0.68495 0.13554 0.05203 0.0
C1041 C 0.65589 0.11941 0.06512 0.0
C1042 C 0.64484 0.26091 0.95943 0.0
C1043 C 0.63509 0.29169 0.97293 0.0
C1044 C 0.67752 0.24942 0.96303 0.0
C1045 C 0.7013 0.26825 0.98055 0.0
H1046 H 0.6266 0.24458 0.94791 0.0
H1047 H 0.68324 0.22448 0.9549 0.0
S1048 S 0.69029 0.35273 0.01527 0.0
N1049 N 0.65331 0.34269 1.00006 0.0
N1050 N 0.71454 0.32081 0.00733 0.0
C1051 C 0.69279 0.30032 0.9912 0.0
C1052 C 0.65967 0.31217 0.98723 0.0
C1053 C 0.63765 0.42489 0.24103 0.0
C1054 C 0.60655 0.4408 0.24102 0.0
C1055 C 0.66632 0.44103 0.25288 0.0
C1056 C 0.66507 0.47381 0.2647 0.0
H1057 H 0.63946 0.39886 0.23463 0.0
H1058 H 0.68896 0.4268 0.25543 0.0
S1059 S 0.59139 0.52885 0.26245 0.0
N1060 N 0.57741 0.49288 0.24834 0.0
N1061 N 0.63139 0.52349 0.27005 0.0
C1062 C 0.63509 0.49133 0.2607 0.0
C1063 C 0.60575 0.47471 0.24904 0.0
C1064 C 0.48601 0.13351 0.66685 0.0
C1065 C 0.50625 0.14734 0.69221 0.0
C1066 C 0.48496 0.09922 0.66133 0.0
C1067 C 0.50357 0.0775 0.68151 0.0
H1068 H 0.46944 0.14916 0.6524 0.0
H1069 H 0.46768 0.08959 0.64275 0.0
S1070 S 0.56355 0.10159 0.74843 0.0
N1071 N 0.54794 0.1371 0.73522 0.0
N1072 N 0.5456 0.07249 0.72535 0.0
C1073 C 0.52573 0.09121 0.70529 0.0
C1074 C 0.52721 0.12622 0.71049 0.0
C1075 C 0.0194 0.41859 0.29405 0.0
C1076 C 1.00138 0.4302 0.32207 0.0
C1077 C 0.02129 0.38459 0.28685 0.0
C1078 C 0.0049 0.36122 0.30725 0.0
H1079 H 0.03056 0.43595 0.27646 0.0
H1080 H 0.03315 0.3769 0.26367 0.0
S1081 S 0.95917 0.378 0.38637 0.0
N1082 N 0.97075 0.41502 0.37271 0.0
N1083 N 0.97375 0.35128 0.35869 0.0
C1084 C 0.9893 0.37221 0.33681 0.0
C1085 C 0.9877 0.4067 0.34439 0.0
C1086 C 0.14594 0.02639 0.73518 0.0
C1087 C 0.17688 0.04104 0.72727 0.0
C1088 C 0.11943 0.04557 0.7469 0.0
C1089 C 0.12307 0.07997 0.75141 0.0
H1090 H 0.14112 1.00055 0.72944 0.0
H1091 H 0.09538 0.03372 0.75017 0.0
S1092 S 0.2013 0.12866 0.74179 0.0
N1093 N 0.21127 0.09073 0.73019 0.0
N1094 N 0.16172 0.12677 0.75272 0.0
C1095 C 0.15498 0.09412 0.74739 0.0
C1096 C 0.18187 0.07461 0.73524 0.0
C1097 C 0.64934 0.93129 0.87222 0.0
C1098 C 0.66692 0.90757 0.85324 0.0
C1099 C 0.63416 0.92301 0.90303 0.0
C1100 C 0.63614 0.89074 0.91613 0.0
H1101 H 0.64786 0.95673 0.86361 0.0
H1102 H 0.62159 0.94223 0.91705 0.0
S1103 S 0.67615 0.81861 0.87473 0.0
N1104 N 0.68322 0.84989 0.84879 0.0
N1105 N 0.65484 0.83421 0.9064 0.0
C1106 C 0.6526 0.8665 0.8968 0.0
C1107 C 0.66795 0.87493 0.86547 0.0
C1108 C 0.48445 0.69784 0.40923 0.0
C1109 C 0.49054 0.66608 0.42226 0.0
C1110 C 0.48412 0.72549 0.4303 0.0
C1111 C 0.4904 0.72246 0.46503 0.0
H1112 H 0.47765 0.70118 0.38303 0.0
H1113 H 0.47754 0.74924 0.41947 0.0
S1114 S 0.51348 0.6457 0.51049 0.0
N1115 N 0.50712 0.63367 0.47123 0.0
N1116 N 0.50699 0.68609 0.51082 0.0
C1117 C 0.4995 0.69141 0.47788 0.0
C1118 C 0.49944 0.66306 0.45645 0.0
C1119 C 0.61828 0.6416 0.679 0.0
C1120 C 0.59741 0.62549 0.65542 0.0
C1121 C 0.60588 0.66529 0.70146 0.0
C1122 C 0.57211 0.67378 0.70148 0.0
H1123 H 0.64447 0.63574 0.68039 0.0
H1124 H 0.62292 0.6766 0.71933 0.0
S1125 S 0.50714 0.63988 0.64398 0.0
N1126 N 0.54145 0.62055 0.63282 0.0
N1127 N 0.51799 0.66489 0.67505 0.0
C1128 C 0.55098 0.6583 0.67763 0.0
C1129 C 0.56373 0.63424 0.65464 0.0
C1130 C 0.98501 0.76577 0.58501 0.0
C1131 C 0.99471 0.7683 0.55102 0.0
C1132 C 0.98526 0.79346 0.60614 0.0
C1133 C 0.99486 0.82474 0.59389 0.0
H1134 H 0.9758 0.74246 0.59507 0.0
H1135 H 0.97571 0.7907 0.63151 0.0
S1136 S 0.02752 0.84356 0.50846 0.0
N1137 N 0.0182 0.80363 0.50729 0.0
N1138 N 0.01833 0.85598 0.54695 0.0
C1139 C 0.00715 0.82711 0.56075 0.0
C1140 C 0.00719 0.79878 0.53929 0.0
C1141 C 0.12918 0.5702 0.10882 0.0
C1142 C 0.12686 0.60308 0.09745 0.0
C1143 C 0.14432 0.56278 0.13991 0.0
C1144 C 0.15744 0.588 0.16082 0.0
H1145 H 0.12039 0.55002 0.09311 0.0
H1146 H 0.14665 0.53697 0.14707 0.0
S1147 S 0.15341 0.67845 0.14444 0.0
N1148 N 0.1361 0.6613 0.11098 0.0
N1149 N 0.16422 0.64733 0.16908 0.0
C1150 C 0.15372 0.62104 0.1504 0.0
C1151 C 0.13851 0.62857 0.11883 0.0
C1152 C 0.33053 0.59018 0.28007 0.0
C1153 C 0.30894 0.56369 0.28812 0.0
C1154 C 0.36443 0.58949 0.2888 0.0
C1155 C 0.37826 0.56241 0.30627 0.0
H1156 H 0.32123 0.61172 0.26684 0.0
H1157 H 0.37957 0.61106 0.28294 0.0
S1158 S 0.33281 0.48606 0.33217 0.0
N1159 N 0.30427 0.50893 0.31352 0.0
N1160 N 0.36767 0.50786 0.33028 0.0
C1161 C 0.3571 0.53542 0.3138 0.0
C1162 C 0.3226 0.53603 0.30473 0.0
C1163 C 0.60786 0.41681 0.52137 0.0
C1164 C 0.63381 0.39447 0.52835 0.0
C1165 C 0.61046 0.45067 0.52994 0.0
C1166 C 0.63947 0.46376 0.54504 0.0
H1167 H 0.5853 0.40804 0.50928 0.0
H1168 H 0.58952 0.46666 0.52479 0.0
S1169 S 0.71543 0.41604 0.5667 0.0
N1170 N 0.68982 0.38821 0.55046 0.0
N1171 N 0.69513 0.45143 0.56561 0.0
C1172 C 0.66584 0.44171 0.55145 0.0
C1173 C 0.6629 0.40724 0.5434 0.0
C1174 C 0.8646 0.9529 0.70358 0.0
C1175 C 0.88467 0.92514 0.71025 0.0
C1176 C 0.83079 0.95348 0.71255 0.0
C1177 C 0.81526 0.92631 0.72862 0.0
H1178 H 0.87481 0.97416 0.69033 0.0
H1179 H 0.81669 0.97552 0.7066 0.0
S1180 S 0.8567 0.8479 0.75322 0.0
N1181 N 0.88645 0.86995 0.73501 0.0
N1182 N 0.82309 0.87118 0.75202 0.0
C1183 C 0.83515 0.89866 0.73626 0.0
C1184 C 0.86972 0.89807 0.72714 0.0
C1185 C 0.37832 0.94274 0.95747 0.0
C1186 C 0.39474 0.96845 0.97496 0.0
C1187 C 0.38272 0.90926 0.96614 0.0
C1188 C 0.40328 0.8998 0.99318 0.0
H1189 H 0.36202 0.94846 0.93653 0.0
H1190 H 0.36891 0.89071 0.95211 0.0
S1191 S 0.45249 0.95736 0.04688 0.0
N1192 N 0.43335 0.98205 0.01997 0.0
N1193 N 0.4407 0.91921 0.03723 0.0
C1194 C 0.42011 0.92524 0.01081 0.0
C1195 C 0.41612 0.95945 1.00145 0.0
C1196 C 0.13967 0.41183 0.78857 0.0
C1197 C 0.12511 0.43869 0.80565 0.0
C1198 C 0.17305 0.41287 0.77794 0.0
C1199 C 0.19334 0.44091 0.78366 0.0
H1200 H 0.12555 0.38925 0.78434 0.0
H1201 H 0.18293 0.3915 0.76495 0.0
S1202 S 0.16705 0.51848 0.82603 0.0
N1203 N 0.13357 0.49455 0.827 0.0
N1204 N 0.19593 0.49672 0.80668 0.0
C1205 C 0.17889 0.46826 0.80001 0.0
C1206 C 0.14495 0.46711 0.81104 0.0
C1207 C 0.86771 0.57683 0.04323 0.0
C1208 C 0.88683 0.55147 0.02867 0.0
C1209 C 0.87093 0.60999 0.03288 0.0
C1210 C 0.89304 0.61941 0.00705 0.0
H1211 H 0.85025 0.57114 0.06322 0.0
H1212 H 0.85517 0.62826 0.04473 0.0
S1213 S 0.94856 0.56257 0.96021 0.0
N1214 N 0.92896 0.5381 0.98719 0.0
N1215 N 0.93433 0.60032 0.96689 0.0
C1216 C 0.91237 0.59432 0.99218 0.0
C1217 C 0.90946 0.56046 1.00319 0.0
C1218 C 0.68317 0.08968 0.2282 0.0
C1219 C 0.70365 0.06252 0.22067 0.0
C1220 C 0.64946 0.09007 0.21873 0.0
C1221 C 0.63477 0.06344 0.20106 0.0
H1222 H 0.69316 0.11081 0.24175 0.0
H1223 H 0.63514 0.11203 0.22432 0.0
S1224 S 0.67724 0.98585 0.17602 0.0
N1225 N 0.7064 0.00775 0.1953 0.0
N1226 N 0.64335 0.00872 0.17716 0.0
C1227 C 0.65484 0.03587 0.19387 0.0
C1228 C 0.68912 0.03537 0.20371 0.0
C1229 C 0.07699 0.0787 0.49899 0.0
C1230 C 0.09975 0.10313 0.48784 0.0
C1231 C 0.08118 0.04484 0.49077 0.0
C1232 C 0.10918 0.03393 0.47261 0.0
H1233 H 0.05568 0.08582 0.5139 0.0
H1234 H 0.06255 0.02707 0.49893 0.0
S1235 S 0.17605 0.08802 0.43757 0.0
N1236 N 0.15079 0.11386 0.45681 0.0
N1237 N 0.15959 0.05085 0.44314 0.0
C1238 C 0.13211 0.05823 0.46156 0.0
C1239 C 0.1272 0.09257 0.46875 0.0
C1240 C 0.08498 0.31284 0.49772 0.0
C1241 C 0.10897 0.29205 0.48302 0.0
C1242 C 0.0867 0.34757 0.49402 0.0
C1243 C 0.11174 0.36277 0.4745 0.0
H1244 H 0.06611 0.30243 0.51417 0.0
H1245 H 0.06922 0.36271 0.5078 0.0
S1246 S 0.17857 0.3191 0.42802 0.0
N1247 N 0.15732 0.28906 0.44665 0.0
N1248 N 0.15973 0.35388 0.43836 0.0
C1249 C 0.1344 0.342 0.45769 0.0
C1250 C 0.13325 0.30679 0.46231 0.0
C1251 C 0.9419 0.47022 0.89424 0.0
C1252 C 0.95414 0.45134 0.8671 0.0
C1253 C 0.90756 0.47641 0.89803 0.0
C1254 C 0.8839 0.46314 0.87544 0.0
H1255 H 0.95889 0.48008 0.91293 0.0
H1256 H 0.89949 0.49159 0.91893 0.0
S1257 S 0.90265 0.41298 0.79951 0.0
N1258 N 0.93939 0.42046 0.81655 0.0
N1259 N 0.87541 0.43108 0.82435 0.0
C1260 C 0.89579 0.44423 0.84827 0.0
C1261 C 0.93067 0.4386 0.84395 0.0
C1262 C 0.84905 0.35979 0.02209 0.0
C1263 C 0.8344 0.38078 0.04612 0.0
C1264 C 0.84109 0.3258 0.02066 0.0
C1265 C 0.81876 0.31124 0.04375 0.0
H1266 H 0.86732 0.36957 0.00458 0.0
H1267 H 0.85286 0.31075 1.00157 0.0
S1268 S 0.77278 0.35528 0.11109 0.0
N1269 N 0.79556 0.38444 0.09295 0.0
N1270 N 0.78119 0.32075 0.09067 0.0
C1271 C 0.80364 0.33199 0.06766 0.0
C1272 C 0.81123 0.36667 0.06869 0.0
C1273 C 0.88953 0.06287 0.18821 0.0
C1274 C 0.87756 0.04135 0.21363 0.0
C1275 C 0.92314 0.06226 0.17788 0.0
C1276 C 0.9459 0.0409 0.19359 0.0
H1277 H 0.873 0.08077 0.17684 0.0
H1278 H 0.93159 0.07942 0.15865 0.0
S1279 S 0.92759 0.9807 0.26195 0.0
N1280 N 0.89148 0.99814 0.25386 0.0
N1281 N 0.95429 0.9979 0.23553 0.0
C1282 C 0.93413 0.01919 0.21868 0.0
C1283 C 0.90005 0.01917 0.22845 0.0
C1284 C 0.18955 0.84869 0.44398 0.0
C1285 C 0.16414 0.8612 0.46468 0.0
C1286 C 0.19864 0.81519 0.44511 0.0
C1287 C 0.18317 0.79275 0.46741 0.0
H1288 H 0.20182 0.86461 0.42576 0.0
H1289 H 0.21827 0.80691 0.42851 0.0
S1290 S 0.11589 0.81287 0.52782 0.0
N1291 N 0.12377 0.84837 0.50847 0.0
N1292 N 0.1417 0.78561 0.51141 0.0
C1293 C 0.15827 0.805 0.48888 0.0
C1294 C 0.14855 0.8391 0.48731 0.0
C1295 C 0.37793 0.44281 0.81586 0.0
C1296 C 0.3681 0.46111 0.78723 0.0
C1297 C 0.4114 0.44267 0.82681 0.0
C1298 C 0.43628 0.45939 0.8084 0.0
H1299 H 0.35968 0.42835 0.82969 0.0
H1300 H 0.41794 0.42862 0.84908 0.0
S1301 S 0.4234 0.51152 0.73231 0.0
N1302 N 0.3859 0.49751 0.74181 0.0
N1303 N 0.44845 0.49594 0.76113 0.0
C1304 C 0.42654 0.47812 0.78013 0.0
C1305 C 0.39258 0.47925 0.76981 0.0
C1306 C 0.87158 0.83065 0.96088 0.0
C1307 C 0.87785 0.81051 0.98903 0.0
C1308 C 0.87324 0.86525 0.96293 0.0
C1309 C 0.8803 0.88151 0.99354 0.0
H1310 H 0.865 0.81952 0.93692 0.0
H1311 H 0.86719 0.87933 0.94051 0.0
S1312 S 0.90028 0.83991 0.0745 0.0
N1313 N 0.89359 0.80894 0.04805 0.0
N1314 N 0.89503 0.87437 0.05256 0.0
C1315 C 0.88757 0.86161 0.02182 0.0
C1316 C 0.88679 0.82606 0.01941 0.0
C1317 C 0.41695 0.02131 0.11594 0.0
C1318 C 0.39276 0.0382 0.1349 0.0
C1319 C 0.45119 0.02804 0.11995 0.0
C1320 C 0.46277 0.05128 0.14376 0.0
H1321 H 0.40937 0.00266 0.09785 0.0
H1322 H 0.46867 0.01498 0.10417 0.0
S1323 S 0.40964 0.10217 0.19997 0.0
N1324 N 0.38296 0.07949 0.1782 0.0
N1325 N 0.44684 0.09144 0.18645 0.0
C1326 C 0.43876 0.06821 0.16299 0.0
C1327 C 0.40396 0.06189 0.15837 0.0
C1328 C 0.49208 0.33173 0.09741 0.0
C1329 C 0.50445 0.35626 0.07521 0.0
C1330 C 0.49187 0.33651 0.13258 0.0
C1331 C 0.50294 0.36646 0.14699 0.0
H1332 H 0.48429 0.3078 0.08771 0.0
H1333 H 0.48357 0.31636 0.14865 0.0
S1334 S 0.53629 0.43912 0.10004 0.0
N1335 N 0.52765 0.41171 0.07034 0.0
N1336 N 0.52556 0.42149 0.13607 0.0
C1337 C 0.51393 0.39174 0.12498 0.0
C1338 C 0.51516 0.38644 0.08924 0.0
C1339 C 0.06827 0.72129 0.12582 0.0
C1340 C 0.04032 0.71202 0.14509 0.0
C1341 C 0.07185 0.71106 0.09219 0.0
C1342 C 0.04795 0.69053 0.07647 0.0
H1343 H 0.08765 0.73665 0.13677 0.0
H1344 H 0.09439 0.71807 0.07896 0.0
S1345 S 0.96946 0.66024 0.1153 0.0
N1346 N 0.98746 0.68232 0.14531 0.0
N1347 N 0.99476 0.6622 0.08258 0.0
C1348 C 0.01954 0.68162 0.09521 0.0
C1349 C 0.0156 0.69254 0.12933 0.0
C1350 C 0.45726 0.40432 0.35309 0.0
C1351 C 0.45897 0.37743 0.33046 0.0
C1352 C 0.44926 0.39962 0.38747 0.0
C1353 C 0.44297 0.36776 0.40093 0.0
H1354 H 0.46316 0.42916 0.34444 0.0
H1355 H 0.44843 0.42114 0.40372 0.0
S1356 S 0.44347 0.28898 0.35255 0.0
N1357 N 0.45262 0.31769 0.32433 0.0
N1358 N 0.43827 0.30898 0.38835 0.0
C1359 C 0.44389 0.3408 0.37842 0.0
C1360 C 0.45166 0.34559 0.34347 0.0
C1361 C 0.02295 0.6537 0.59445 0.0
C1362 C 0.00343 0.63312 0.57343 0.0
C1363 C 0.02388 0.64902 0.62957 0.0
C1364 C 0.0063 0.6229 0.64507 0.0
H1365 H 0.03576 0.6751 0.58404 0.0
H1366 H 0.03756 0.66672 0.64483 0.0
S1367 S 0.95396 0.5602 0.6013 0.0
N1368 N 0.96746 0.58464 0.5707 0.0
N1369 N 0.97054 0.57482 0.63641 0.0
C1370 C 0.98853 0.6008 0.62417 0.0
C1371 C 0.98675 0.60617 0.58847 0.0
C1372 C 0.04988 0.63535 0.84951 0.0
C1373 C 0.03222 0.60701 0.83882 0.0
C1374 C 0.05803 0.64037 0.8836 0.0
C1375 C 0.04938 0.61708 0.90872 0.0
H1376 H 0.05645 0.65458 0.83159 0.0
H1377 H 0.07126 0.66291 0.89024 0.0
S1378 S 0.00642 0.53671 0.89346 0.0
N1379 N 0.00811 0.55423 0.85586 0.0
N1380 N 0.02451 0.56302 0.91968 0.0
C1381 C 0.03299 0.58788 0.89817 0.0
C1382 C 0.02415 0.58303 0.86339 0.0
C1383 C 0.48574 0.88099 0.42086 0.0
C1384 C 0.5007 0.85368 0.4368 0.0
C1385 C 0.48765 0.88539 0.38562 0.0
C1386 C 0.50347 0.86194 0.36487 0.0
H1387 H 0.47158 0.89852 0.43558 0.0
H1388 H 0.47489 0.90623 0.37436 0.0
S1389 S 0.54722 0.78653 0.39389 0.0
N1390 N 0.53338 0.80369 0.42886 0.0
N1391 N 0.53526 0.81114 0.36294 0.0
C1392 C 0.51917 0.83503 0.38053 0.0
C1393 C 0.51824 0.83113 0.41638 0.0
C1394 C 0.53 0.28065 0.87156 0.0
C1395 C 0.51229 0.30679 0.88646 0.0
C1396 C 0.52851 0.27462 0.83684 0.0
C1397 C 0.50847 0.29392 0.81549 0.0
H1398 H 0.54482 0.26422 0.88705 0.0
H1399 H 0.54158 0.25331 0.82705 0.0
S1400 S 0.45885 0.36671 0.84142 0.0
N1401 N 0.4761 0.35377 0.87686 0.0
N1402 N 0.47176 0.34138 0.81155 0.0
C1403 C 0.49143 0.32086 0.82982 0.0
C1404 C 0.49377 0.32761 0.86528 0.0
C1405 C 0.37146 0.96469 0.61549 0.0
C1406 C 0.38649 0.94862 0.64306 0.0
C1407 C 0.33667 0.96818 0.61341 0.0
C1408 C 0.31566 0.95653 0.63929 0.0
H1409 H 0.38679 0.97625 0.59628 0.0
H1410 H 0.32643 0.98226 0.59262 0.0
S1411 S 0.34184 0.90952 0.71502 0.0
N1412 N 0.37694 0.91787 0.69507 0.0
N1413 N 0.31202 0.92563 0.69165 0.0
C1414 C 0.33011 0.93864 0.66586 0.0
C1415 C 0.36539 0.93433 0.66758 0.0
C1416 C 0.85086 0.1234 0.99608 0.0
C1417 C 0.83996 0.13749 0.02649 0.0
C1418 C 0.86042 0.08997 0.99441 0.0
C1419 C 0.85874 0.06915 0.02295 0.0
H1420 H 0.85024 0.13774 0.97299 0.0
H1421 H 0.86646 0.07977 0.96996 0.0
S1422 S 0.83678 0.09493 0.1096 0.0
N1423 N 0.8324 0.12889 0.08679 0.0
N1424 N 0.84918 0.06597 0.08318 0.0
C1425 C 0.85049 0.08355 0.05396 0.0
C1426 C 0.84142 0.11774 0.05585 0.0
C1427 C 0.86471 0.54059 0.38726 0.0
C1428 C 0.88199 0.55518 0.36014 0.0
C1429 C 0.82992 0.5361 0.38625 0.0
C1430 C 0.81124 0.54498 0.35759 0.0
H1431 H 0.87835 0.53118 0.40876 0.0
H1432 H 0.81794 0.52351 0.40715 0.0
S1433 S 0.844 0.58593 0.28069 0.0
N1434 N 0.87709 0.58072 0.30473 0.0
N1435 N 0.81228 0.57087 0.30239 0.0
C1436 C 0.82795 0.56087 0.33097 0.0
C1437 C 0.86315 0.56637 0.33238 0.0
C1438 C 0.15807 0.56733 0.44397 0.0
C1439 C 0.14477 0.55147 0.47258 0.0
C1440 C 0.16887 0.60055 0.44516 0.0
C1441 C 0.16758 0.61908 0.47525 0.0
H1442 H 0.16176 0.55347 0.42093 0.0
H1443 H 0.18035 0.61101 0.42283 0.0
S1444 S 0.13127 0.5905 0.55615 0.0
N1445 N 0.12765 0.55812 0.53098 0.0
N1446 N 0.14886 0.62007 0.53335 0.0
C1447 C 0.15237 0.60424 0.50339 0.0
C1448 C 0.14069 0.57061 0.502 0.0
C1449 C 0.147 0.03604 0.11482 0.0
C1450 C 0.1303 0.04881 0.14304 0.0
C1451 C 0.18196 0.03411 0.11405 0.0
C1452 C 0.20138 0.04377 0.14199 0.0
H1453 H 0.13288 0.02583 0.09397 0.0
H1454 H 0.19362 0.02255 0.09251 0.0
S1455 S 0.17007 0.08068 0.22119 0.0
N1456 N 0.13627 0.07364 0.19859 0.0
N1457 N 0.20153 0.06853 0.19763 0.0
C1458 C 0.18513 0.05813 0.16958 0.0
C1459 C 0.14971 0.06105 0.16997 0.0
C1460 C 0.66539 0.93061 0.56033 0.0
C1461 C 0.65499 0.94729 0.5311 0.0
C1462 C 0.67425 0.89701 0.55939 0.0
C1463 C 0.67392 0.87893 0.52898 0.0
H1464 H 0.66853 0.94408 0.58372 0.0
H1465 H 0.68379 0.8859 0.58228 0.0
S1466 S 0.64453 0.90985 0.44623 0.0
N1467 N 0.64114 0.94206 0.4716 0.0
N1468 N 0.65886 0.87929 0.46975 0.0
C1469 C 0.66126 0.89461 0.50012 0.0
C1470 C 0.65149 0.92867 0.50122 0.0
C1471 C 0.67214 0.4676 0.89695 0.0
C1472 C 0.69167 0.45681 0.86965 0.0
C1473 C 0.63713 0.46512 0.89619 0.0
C1474 C 0.62036 0.45071 0.86865 0.0
H1475 H 0.68377 0.48033 0.91793 0.0
H1476 H 0.62303 0.47614 0.91648 0.0
S1477 S 0.66031 0.41546 0.79242 0.0
N1478 N 0.69176 0.42924 0.81538 0.0
N1479 N 0.62648 0.4232 0.8145 0.0
C1480 C 0.63987 0.43746 0.84245 0.0
C1481 C 0.67536 0.44089 0.84279 0.0
C1482 C 0.33479 0.40065 0.95354 0.0
C1483 C 0.33594 0.38138 0.9832 0.0
C1484 C 0.34473 0.43413 0.95336 0.0
C1485 C 0.3569 0.44961 0.98265 0.0
H1486 H 0.32401 0.39051 0.93072 0.0
H1487 H 0.34112 0.44845 0.93055 0.0
S1488 S 0.36994 0.40869 0.06555 0.0
N1489 N 0.35361 0.3793 0.04166 0.0
N1490 N 0.37313 0.44183 0.04124 0.0
C1491 C 0.36097 0.4298 0.0117 0.0
C1492 C 0.35024 0.39583 0.01202 0.0
C1493 C 0.36722 0.65893 0.9678 0.0
C1494 C 0.38858 0.6378 0.98593 0.0
C1495 C 0.36892 0.69359 0.97151 0.0
C1496 C 0.39273 0.70859 0.99264 0.0
H1497 H 0.34733 0.64859 0.95257 0.0
H1498 H 0.3506 0.70867 0.95874 0.0
S1499 S 0.45649 0.6646 0.04316 0.0
N1500 N 0.4354 0.63456 0.02438 0.0
N1501 N 0.43972 0.69963 0.03011 0.0
C1502 C 0.41576 0.68787 0.00903 0.0
C1503 C 0.41338 0.65253 0.00602 0.0
C1504 C 0.66467 0.65715 0.53298 0.0
C1505 C 0.68376 0.63643 0.55403 0.0
C1506 C 0.67226 0.69105 0.52932 0.0
C1507 C 0.69874 0.70569 0.54719 0.0
H1508 H 0.64312 0.64733 0.51987 0.0
H1509 H 0.65683 0.70605 0.51299 0.0
S1510 S 0.75859 0.66204 0.60272 0.0
N1511 N 0.73215 0.63286 0.59074 0.0
N1512 N 0.74585 0.69644 0.5844 0.0
C1513 C 0.71871 0.68512 0.56737 0.0
C1514 C 0.71141 0.65054 0.57059 0.0
C1515 C 0.3056 0.18587 0.94621 0.0
C1516 C 0.32012 0.20745 0.96997 0.0
C1517 C 0.31532 0.15256 0.94375 0.0
C1518 C 0.34036 0.13941 0.96461 0.0
H1519 H 0.28631 0.19468 0.92943 0.0
H1520 H 0.30383 0.13734 0.92447 0.0
S1521 S 0.38598 0.18529 0.03147 0.0
N1522 N 0.36026 0.21295 0.01549 0.0
N1523 N 0.37916 0.15069 0.01029 0.0
C1524 C 0.35488 0.16062 0.98876 0.0
C1525 C 0.34462 0.19448 0.99158 0.0
C1526 C 0.65819 0.19028 0.54139 0.0
C1527 C 0.63292 0.20588 0.52284 0.0
C1528 C 0.65799 0.15577 0.5464 0.0
C1529 C 0.63308 0.13542 0.53212 0.0
H1530 H 0.67896 0.20468 0.55101 0.0
H1531 H 0.67898 0.14477 0.55931 0.0
S1532 S 0.56017 0.16422 0.48327 0.0
N1533 N 0.58085 0.19859 0.49241 0.0
N1534 N 0.58149 0.13363 0.50039 0.0
C1535 C 0.60688 0.15086 0.51486 0.0
C1536 C 0.60654 0.18611 0.51061 0.0
C1537 C 0.53095 0.81327 0.91568 0.0
C1538 C 0.55795 0.80269 0.93559 0.0
C1539 C 0.52697 0.80261 0.88215 0.0
C1540 C 0.55024 0.78154 0.86677 0.0
H1541 H 0.51312 0.83061 0.92581 0.0
H1542 H 0.50582 0.81155 0.86794 0.0
S1543 S 0.62439 0.7451 0.90817 0.0
N1544 N 0.60748 0.76838 0.93761 0.0
N1545 N 0.60036 0.74908 0.87468 0.0
C1546 C 0.57695 0.7702 0.88655 0.0
C1547 C 0.58066 0.7805 0.92089 0.0
C1548 C 0.05149 0.13943 0.87622 0.0
C1549 C 0.02156 0.13913 0.85785 0.0
C1550 C 0.05175 0.13927 0.91154 0.0
C1551 C 0.02203 0.13978 0.93032 0.0
H1552 H 0.07512 0.14039 0.86311 0.0
H1553 H 0.07564 0.14079 0.92412 0.0
S1554 S 0.93674 0.13713 0.89424 0.0
N1555 N 0.96131 0.1369 0.86087 0.0
N1556 N 0.96155 0.1382 0.92747 0.0
C1557 C 0.99179 0.13819 0.91224 0.0
C1558 C 0.99161 0.13749 0.87601 0.0
C1559 C 0.55143 0.85369 0.16207 0.0
C1560 C 0.53422 0.88205 0.17284 0.0
C1561 C 0.56059 0.84936 0.12818 0.0
C1562 C 0.5533 0.87329 0.10332 0.0
H1563 H 0.55698 0.83402 0.17977 0.0
H1564 H 0.57356 0.82688 0.12146 0.0
S1565 S 0.51051 0.95316 0.11867 0.0
N1566 N 0.51119 0.93507 0.15601 0.0
N1567 N 0.52899 0.92734 0.09255 0.0
C1568 C 0.53677 0.90219 0.11388 0.0
C1569 C 0.52713 0.90645 0.14847 0.0
C1570 C 0.98458 0.201 0.40556 0.0
C1571 C 0.95764 0.21042 0.42605 0.0
C1572 C 0.98718 0.21162 0.37187 0.0
C1573 C 0.96263 0.23159 0.35694 0.0
H1574 H 0.00341 0.18446 0.41531 0.0
H1575 H 0.0083 0.20347 0.35719 0.0
S1576 S 0.88829 0.26533 0.40005 0.0
N1577 N 0.90687 0.2428 0.42918 0.0
N1578 N 0.91154 0.26218 0.36596 0.0
C1579 C 0.93607 0.24202 0.37735 0.0
C1580 C 0.93369 0.23167 0.41184 0.0
C1581 C 0.96366 0.14339 0.65376 0.0
C1582 C 0.99281 0.12551 0.66092 0.0
C1583 C 0.9531 0.14902 0.62042 0.0
C1584 C 0.97091 0.13672 0.59257 0.0
H1585 H 0.94924 0.15395 0.67407 0.0
H1586 H 0.93053 0.16303 0.61647 0.0
S1587 S 0.04947 0.08934 0.59695 0.0
N1588 N 0.03985 0.09619 0.63676 0.0
N1589 N 0.01946 0.10624 0.57441 0.0
C1590 C 0.99987 0.11852 0.59923 0.0
C1591 C 0.01092 0.11306 0.63322 0.0
C1592 C 0.42739 0.28301 0.59042 0.0
C1593 C 0.45066 0.30221 0.57218 0.0
C1594 C 0.43335 0.27336 0.62395 0.0
C1595 C 0.46311 0.28195 0.64065 0.0
H1596 H 0.40366 0.27647 0.57921 0.0
H1597 H 0.41443 0.25892 0.63684 0.0
S1598 S 0.53286 0.33083 0.60385 0.0
N1599 N 0.50496 0.32899 0.57331 0.0
N1600 N 0.51667 0.30999 0.63581 0.0
C1601 C 0.48702 0.30037 0.62243 0.0
C1602 C 0.48068 0.31069 0.58842 0.0
C1603 C 0.48407 0.80913 0.68061 0.0
C1604 C 0.51616 0.80044 0.69166 0.0
C1605 C 0.478 0.81806 0.64685 0.0
C1606 C 0.50368 0.81793 0.6227 0.0
H1607 H 0.46318 0.80745 0.69775 0.0
H1608 H 0.45259 0.8227 0.63915 0.0
S1609 S 0.59274 0.80109 0.63914 0.0
N1610 N 0.57455 0.79573 0.67604 0.0
N1611 N 0.56282 0.81169 0.61281 0.0
C1612 C 0.53615 0.81147 0.63383 0.0
C1613 C 0.54247 0.80296 0.66824 0.0
C1614 C 0.56158 0.52335 0.37987 0.0
C1615 C 0.55034 0.55074 0.36109 0.0
C1616 C 0.59575 0.51609 0.38256 0.0
C1617 C 0.6202 0.53631 0.3672 0.0
H1618 H 0.54384 0.50725 0.39247 0.0
H1619 H 0.60302 0.49428 0.39663 0.0
S1620 S 0.60413 0.6115 0.31574 0.0
N1621 N 0.5668 0.59838 0.32705 0.0
N1622 N 0.63053 0.58512 0.33268 0.0
C1623 C 0.60931 0.56404 0.34878 0.0
C1624 C 0.57458 0.57111 0.34555 0.0
C1625 C 0.59661 0.96479 0.67185 0.0
C1626 C 0.5728 0.93997 0.67912 0.0
C1627 C 0.62922 0.96306 0.6846 0.0
C1628 C 0.63954 0.93606 0.70442 0.0
H1629 H 0.58937 0.98701 0.65842 0.0
H1630 H 0.646 0.98375 0.68017 0.0
S1631 S 0.58795 0.86253 0.72702 0.0
N1632 N 0.56267 0.88621 0.70488 0.0
N1633 N 0.62402 0.88235 0.72793 0.0
C1634 C 0.61675 0.90976 0.70945 0.0
C1635 C 0.58338 0.91186 0.69703 0.0
C1636 C 0.11574 0.59181 0.30255 0.0
C1637 C 0.13764 0.56527 0.30838 0.0
C1638 C 0.08296 0.59109 0.31481 0.0
C1639 C 0.07104 0.56419 0.33404 0.0
H1640 H 0.12309 0.61216 0.28627 0.0
H1641 H 0.06624 0.61078 0.30741 0.0
S1642 S 0.12065 0.49177 0.36199 0.0
N1643 N 0.14658 0.51357 0.33831 0.0
N1644 N 0.08543 0.51263 0.36235 0.0
C1645 C 0.09381 0.53921 0.34298 0.0
C1646 C 0.12696 0.53958 0.3298 0.0
C1647 C 0.11325 0.93992 0.65872 0.0
C1648 C 0.12445 0.96128 0.63298 0.0
C1649 C 0.07917 0.93358 0.66376 0.0
C1650 C 0.05466 0.94818 0.6432 0.0
H1651 H 0.1309 0.92845 0.67568 0.0
H1652 H 0.07208 0.91676 0.68384 0.0
S1653 S 0.07083 0.00527 0.57153 0.0
N1654 N 0.1082 0.99676 0.58632 0.0
N1655 N 0.04431 0.98459 0.59549 0.0
C1656 C 0.06552 0.96944 0.61718 0.0
C1657 C 0.10029 0.97601 0.61214 0.0
C1658 C 0.02822 0.18672 0.1401 0.0
C1659 C 1.002 0.1843 0.11661 0.0
C1660 C 0.02282 0.19851 0.17298 0.0
C1661 C 0.99087 0.20762 0.18391 0.0
H1662 H 0.05355 0.18183 0.13233 0.0
H1663 H 0.0441 0.20198 0.18939 0.0
S1664 S 0.91303 0.20096 0.13353 0.0
N1665 N 0.94253 0.18878 0.10752 0.0
N1666 N 0.93197 0.20971 0.16939 0.0
C1667 C 0.96402 0.20255 0.16147 0.0
C1668 C 0.96968 0.19125 0.12781 0.0
C1669 C 0.98146 0.6875 0.33256 0.0
C1670 C 0.0135 0.6943 0.31988 0.0
C1671 C 0.97655 0.67826 0.36642 0.0
C1672 C 0.00343 0.67622 0.38913 0.0
H1673 H 0.95982 0.69094 0.31668 0.0
H1674 H 0.95129 0.67508 0.37541 0.0
S1675 S 0.09262 0.68669 0.36788 0.0
N1676 N 0.07295 0.69402 0.33212 0.0
N1677 N 0.06337 0.67809 0.3958 0.0
C1678 C 0.03568 0.68072 0.37634 0.0
C1679 C 0.0408 0.68933 0.34171 0.0
loop_
_geom_bond_atom_site_label_1
_geom_bond_atom_site_label_2
_geom_bond_distance
_geom_bond_site_symmetry_2
_ccdc_geom_bond_type
In0 O1 2.294 . S
In0 O2 2.326 . S
In0 O6 2.266 . S
In0 O7 2.326 . S
In0 O8 2.266 . S
In0 O9 2.326 . S
In0 O11 2.294 . S
In0 O12 2.326 . S
O1 In0 2.294 . S
O1 C10 1.240 . S
O2 In0 2.326 . S
O2 C10 1.252 . S
C3 O6 1.252 . S
C3 O7 1.260 . S
C4 O11 1.240 . S
C4 O12 1.252 . S
C5 O8 1.252 . S
C5 O9 1.260 . S
O6 In0 2.266 . S
O6 C3 1.252 . S
O7 In0 2.326 . S
O7 C3 1.260 . S
O8 In0 2.266 . S
O8 C5 1.252 . S
O9 In0 2.326 . S
O9 C5 1.260 . S
C10 O1 1.240 . S
C10 O2 1.252 . S
O11 In0 2.294 . S
O11 C4 1.240 . S
O12 In0 2.326 . S
O12 C4 1.252 . S
In13 O14 2.294 . S
In13 O15 2.326 . S
In13 O19 2.266 . S
In13 O20 2.326 . S
In13 O21 2.266 . S
In13 O22 2.326 . S
In13 O24 2.294 . S
In13 O25 2.326 . S
O14 In13 2.294 . S
O14 C23 1.240 . S
O15 In13 2.326 . S
O15 C23 1.252 . S
C16 O19 1.252 . S
C16 O20 1.260 . S
C17 O24 1.240 . S
C17 O25 1.252 . S
C18 O21 1.252 . S
C18 O22 1.260 . S
O19 In13 2.266 . S
O19 C16 1.252 . S
O20 In13 2.326 . S
O20 C16 1.260 . S
O21 In13 2.266 . S
O21 C18 1.252 . S
O22 In13 2.326 . S
O22 C18 1.260 . S
C23 O14 1.240 . S
C23 O15 1.252 . S
O24 In13 2.294 . S
O24 C17 1.240 . S
O25 In13 2.326 . S
O25 C17 1.252 . S
In26 O27 2.294 . S
In26 O28 2.326 . S
In26 O32 2.266 . S
In26 O33 2.326 . S
In26 O34 2.266 . S
In26 O35 2.326 . S
In26 O37 2.294 . S
In26 O38 2.326 . S
O27 In26 2.294 . S
O27 C36 1.240 . S
O28 In26 2.326 . S
O28 C36 1.252 . S
C29 O32 1.252 . S
C29 O33 1.260 . S
C30 O37 1.240 . S
C30 O38 1.252 . S
C31 O34 1.252 . S
C31 O35 1.260 . S
O32 In26 2.266 . S
O32 C29 1.252 . S
O33 In26 2.326 . S
O33 C29 1.260 . S
O34 In26 2.266 . S
O34 C31 1.252 . S
O35 In26 2.326 . S
O35 C31 1.260 . S
C36 O27 1.240 . S
C36 O28 1.252 . S
O37 In26 2.294 . S
O37 C30 1.240 . S
O38 In26 2.326 . S
O38 C30 1.252 . S
In39 O40 2.294 . S
In39 O41 2.326 . S
In39 O45 2.266 . S
In39 O46 2.326 . S
In39 O47 2.266 . S
In39 O48 2.326 . S
In39 O50 2.294 . S
In39 O51 2.326 . S
O40 In39 2.294 . S
O40 C49 1.240 . S
O41 In39 2.326 . S
O41 C49 1.252 . S
C42 O45 1.252 . S
C42 O46 1.260 . S
C43 O50 1.240 . S
C43 O51 1.252 . S
C44 O47 1.252 . S
C44 O48 1.260 . S
O45 In39 2.266 . S
O45 C42 1.252 . S
O46 In39 2.326 . S
O46 C42 1.260 . S
O47 In39 2.266 . S
O47 C44 1.252 . S
O48 In39 2.326 . S
O48 C44 1.260 . S
C49 O40 1.240 . S
C49 O41 1.252 . S
O50 In39 2.294 . S
O50 C43 1.240 . S
O51 In39 2.326 . S
O51 C43 1.252 . S
In52 O53 2.294 . S
In52 O54 2.326 . S
In52 O58 2.266 . S
In52 O59 2.326 . S
In52 O60 2.266 . S
In52 O61 2.326 . S
In52 O63 2.294 . S
In52 O64 2.326 . S
O53 In52 2.294 . S
O53 C62 1.240 . S
O54 In52 2.326 . S
O54 C62 1.252 . S
C55 O58 1.252 . S
C55 O59 1.260 . S
C56 O63 1.240 . S
C56 O64 1.252 . S
C57 O60 1.252 . S
C57 O61 1.260 . S
O58 In52 2.266 . S
O58 C55 1.252 . S
O59 In52 2.326 . S
O59 C55 1.260 . S
O60 In52 2.266 . S
O60 C57 1.252 . S
O61 In52 2.326 . S
O61 C57 1.260 . S
C62 O53 1.240 . S
C62 O54 1.252 . S
O63 In52 2.294 . S
O63 C56 1.240 . S
O64 In52 2.326 . S
O64 C56 1.252 . S
In65 O66 2.294 . S
In65 O67 2.326 . S
In65 O71 2.266 . S
In65 O72 2.326 . S
In65 O73 2.266 . S
In65 O74 2.326 . S
In65 O76 2.294 . S
In65 O77 2.326 . S
O66 In65 2.294 . S
O66 C75 1.240 . S
O67 In65 2.326 . S
O67 C75 1.252 . S
C68 O71 1.252 . S
C68 O72 1.260 . S
C69 O76 1.240 . S
C69 O77 1.252 . S
C70 O73 1.252 . S
C70 O74 1.260 . S
O71 In65 2.266 . S
O71 C68 1.252 . S
O72 In65 2.326 . S
O72 C68 1.260 . S
O73 In65 2.266 . S
O73 C70 1.252 . S
O74 In65 2.326 . S
O74 C70 1.260 . S
C75 O66 1.240 . S
C75 O67 1.252 . S
O76 In65 2.294 . S
O76 C69 1.240 . S
O77 In65 2.326 . S
O77 C69 1.252 . S
In78 O79 2.294 . S
In78 O80 2.326 . S
In78 O84 2.266 . S
In78 O85 2.326 1_545 S
In78 O86 2.266 1_545 S
In78 O87 2.326 . S
In78 O89 2.294 1_545 S
In78 O90 2.326 . S
O79 In78 2.294 . S
O79 C88 1.240 . S
O80 In78 2.326 . S
O80 C88 1.252 . S
C81 O84 1.252 . S
C81 O85 1.261 1_545 S
C82 O89 1.240 1_545 S
C82 O90 1.252 . S
C83 O86 1.252 1_545 S
C83 O87 1.260 . S
O84 In78 2.266 . S
O84 C81 1.252 . S
O85 In78 2.326 1_565 S
O85 C81 1.261 1_565 S
O86 In78 2.266 1_565 S
O86 C83 1.252 1_565 S
O87 In78 2.326 . S
O87 C83 1.260 . S
C88 O79 1.240 . S
C88 O80 1.252 . S
O89 In78 2.294 1_565 S
O89 C82 1.240 1_565 S
O90 In78 2.326 . S
O90 C82 1.252 . S
In91 O92 2.294 . S
In91 O93 2.326 . S
In91 O97 2.266 . S
In91 O98 2.326 . S
In91 O99 2.266 . S
In91 O100 2.326 . S
In91 O102 2.294 . S
In91 O103 2.326 . S
O92 In91 2.294 . S
O92 C101 1.240 . S
O93 In91 2.326 . S
O93 C101 1.252 . S
C94 O97 1.252 . S
C94 O98 1.260 . S
C95 O102 1.240 . S
C95 O103 1.252 . S
C96 O99 1.252 . S
C96 O100 1.260 . S
O97 In91 2.266 . S
O97 C94 1.252 . S
O98 In91 2.326 . S
O98 C94 1.260 . S
O99 In91 2.266 . S
O99 C96 1.252 . S
O100 In91 2.326 . S
O100 C96 1.260 . S
C101 O92 1.240 . S
C101 O93 1.252 . S
O102 In91 2.294 . S
O102 C95 1.240 . S
O103 In91 2.326 . S
O103 C95 1.252 . S
In104 O105 2.294 . S
In104 O106 2.326 . S
In104 O110 2.266 . S
In104 O111 2.326 . S
In104 O112 2.266 . S
In104 O113 2.326 . S
In104 O115 2.294 . S
In104 O116 2.326 . S
O105 In104 2.294 . S
O105 C114 1.240 . S
O106 In104 2.326 . S
O106 C114 1.252 . S
C107 O110 1.252 . S
C107 O111 1.260 . S
C108 O115 1.240 . S
C108 O116 1.252 . S
C109 O112 1.252 . S
C109 O113 1.260 . S
O110 In104 2.266 . S
O110 C107 1.252 . S
O111 In104 2.326 . S
O111 C107 1.260 . S
O112 In104 2.266 . S
O112 C109 1.252 . S
O113 In104 2.326 . S
O113 C109 1.260 . S
C114 O105 1.240 . S
C114 O106 1.252 . S
O115 In104 2.294 . S
O115 C108 1.240 . S
O116 In104 2.326 . S
O116 C108 1.252 . S
In117 O118 2.294 . S
In117 O119 2.326 . S
In117 O123 2.266 . S
In117 O124 2.326 . S
In117 O125 2.266 . S
In117 O126 2.326 . S
In117 O128 2.294 . S
In117 O129 2.326 . S
O118 In117 2.294 . S
O118 C127 1.240 . S
O119 In117 2.326 . S
O119 C127 1.252 . S
C120 O123 1.252 . S
C120 O124 1.260 . S
C121 O128 1.240 . S
C121 O129 1.252 . S
C122 O125 1.252 . S
C122 O126 1.260 . S
O123 In117 2.266 . S
O123 C120 1.252 . S
O124 In117 2.326 . S
O124 C120 1.260 . S
O125 In117 2.266 . S
O125 C122 1.252 . S
O126 In117 2.326 . S
O126 C122 1.260 . S
C127 O118 1.240 . S
C127 O119 1.252 . S
O128 In117 2.294 . S
O128 C121 1.240 . S
O129 In117 2.326 . S
O129 C121 1.252 . S
In130 O131 2.294 . S
In130 O132 2.326 . S
In130 O136 2.266 1_556 S
In130 O137 2.326 . S
In130 O138 2.266 . S
In130 O139 2.326 . S
In130 O141 2.294 . S
In130 O142 2.326 . S
O131 In130 2.294 . S
O131 C140 1.240 . S
O132 In130 2.326 . S
O132 C140 1.252 . S
C133 O136 1.252 . S
C133 O137 1.260 1_554 S
C134 O141 1.240 . S
C134 O142 1.252 . S
C135 O138 1.252 . S
C135 O139 1.260 . S
O136 In130 2.266 1_554 S
O136 C133 1.252 . S
O137 In130 2.326 . S
O137 C133 1.260 1_556 S
O138 In130 2.266 . S
O138 C135 1.252 . S
O139 In130 2.326 . S
O139 C135 1.260 . S
C140 O131 1.240 . S
C140 O132 1.252 . S
O141 In130 2.294 . S
O141 C134 1.240 . S
O142 In130 2.326 . S
O142 C134 1.252 . S
In143 O144 2.294 . S
In143 O145 2.326 . S
In143 O149 2.266 . S
In143 O150 2.326 . S
In143 O151 2.266 . S
In143 O152 2.326 . S
In143 O154 2.294 . S
In143 O155 2.326 . S
O144 In143 2.294 . S
O144 C153 1.240 . S
O145 In143 2.326 . S
O145 C153 1.252 . S
C146 O149 1.252 . S
C146 O150 1.260 . S
C147 O154 1.240 . S
C147 O155 1.252 . S
C148 O151 1.252 . S
C148 O152 1.260 . S
O149 In143 2.266 . S
O149 C146 1.252 . S
O150 In143 2.326 . S
O150 C146 1.260 . S
O151 In143 2.266 . S
O151 C148 1.252 . S
O152 In143 2.326 . S
O152 C148 1.260 . S
C153 O144 1.240 . S
C153 O145 1.252 . S
O154 In143 2.294 . S
O154 C147 1.240 . S
O155 In143 2.326 . S
O155 C147 1.252 . S
In156 O157 2.294 . S
In156 O158 2.326 . S
In156 O162 2.266 . S
In156 O163 2.326 . S
In156 O164 2.266 . S
In156 O165 2.326 . S
In156 O167 2.294 1_554 S
In156 O168 2.326 1_554 S
O157 In156 2.294 . S
O157 C166 1.240 . S
O158 In156 2.326 . S
O158 C166 1.252 . S
C159 O162 1.252 . S
C159 O163 1.260 . S
C160 O167 1.240 . S
C160 O168 1.252 . S
C161 O164 1.252 . S
C161 O165 1.260 . S
O162 In156 2.266 . S
O162 C159 1.252 . S
O163 In156 2.326 . S
O163 C159 1.260 . S
O164 In156 2.266 . S
O164 C161 1.252 . S
O165 In156 2.326 . S
O165 C161 1.260 . S
C166 O157 1.240 . S
C166 O158 1.252 . S
O167 In156 2.294 1_556 S
O167 C160 1.240 . S
O168 In156 2.326 1_556 S
O168 C160 1.252 . S
In169 O170 2.293 1_455 S
In169 O171 2.326 1_455 S
In169 O175 2.266 1_455 S
In169 O176 2.326 . S
In169 O177 2.267 . S
In169 O178 2.325 1_455 S
In169 O180 2.295 . S
In169 O181 2.326 . S
O170 In169 2.293 1_655 S
O170 C179 1.240 . S
O171 In169 2.326 1_655 S
O171 C179 1.266 . S
C172 O175 1.252 . S
C172 O176 1.260 1_655 S
C173 O180 1.240 . S
C173 O181 1.252 . S
C174 O177 1.252 . S
C174 O178 1.260 1_455 S
O175 In169 2.266 1_655 S
O175 C172 1.252 . S
O176 In169 2.326 . S
O176 C172 1.260 1_455 S
O177 In169 2.267 . S
O177 C174 1.252 . S
O178 In169 2.325 1_655 S
O178 C174 1.260 1_655 S
C179 O170 1.240 . S
C179 O171 1.266 . S
O180 In169 2.295 . S
O180 C173 1.240 . S
O181 In169 2.326 . S
O181 C173 1.252 . S
In182 O183 2.294 . S
In182 O184 2.326 . S
In182 O188 2.266 . S
In182 O189 2.326 . S
In182 O190 2.266 . S
In182 O191 2.326 . S
In182 O193 2.294 . S
In182 O194 2.326 . S
O183 In182 2.294 . S
O183 C192 1.240 . S
O184 In182 2.326 . S
O184 C192 1.252 . S
C185 O188 1.252 . S
C185 O189 1.260 . S
C186 O193 1.240 . S
C186 O194 1.252 . S
C187 O190 1.252 . S
C187 O191 1.260 . S
O188 In182 2.266 . S
O188 C185 1.252 . S
O189 In182 2.326 . S
O189 C185 1.260 . S
O190 In182 2.266 . S
O190 C187 1.252 . S
O191 In182 2.326 . S
O191 C187 1.260 . S
C192 O183 1.240 . S
C192 O184 1.252 . S
O193 In182 2.294 . S
O193 C186 1.240 . S
O194 In182 2.326 . S
O194 C186 1.252 . S
In195 O196 2.292 1_655 S
In195 O197 2.326 . S
In195 O201 2.266 1_655 S
In195 O202 2.326 1_655 S
In195 O203 2.266 . S
In195 O204 2.326 . S
In195 O206 2.294 . S
In195 O207 2.326 1_655 S
O196 In195 2.292 1_455 S
O196 C205 1.221 1_455 S
O197 In195 2.326 . S
O197 C205 1.252 . S
C198 O201 1.252 . S
C198 O202 1.260 . S
C199 O206 1.240 1_455 S
C199 O207 1.252 . S
C200 O203 1.252 . S
C200 O204 1.260 . S
O201 In195 2.266 1_455 S
O201 C198 1.252 . S
O202 In195 2.326 1_455 S
O202 C198 1.260 . S
O203 In195 2.266 . S
O203 C200 1.252 . S
O204 In195 2.326 . S
O204 C200 1.260 . S
C205 O196 1.221 1_655 S
C205 O197 1.252 . S
O206 In195 2.294 . S
O206 C199 1.240 1_655 S
O207 In195 2.326 1_455 S
O207 C199 1.252 . S
In208 O209 2.294 . S
In208 O210 2.326 . S
In208 O214 2.266 . S
In208 O215 2.326 . S
In208 O216 2.266 . S
In208 O217 2.326 . S
In208 O219 2.294 . S
In208 O220 2.326 . S
O209 In208 2.294 . S
O209 C218 1.240 . S
O210 In208 2.326 . S
O210 C218 1.252 . S
C211 O214 1.252 1_556 S
C211 O215 1.260 1_556 S
C212 O219 1.240 . S
C212 O220 1.252 . S
C213 O216 1.252 . S
C213 O217 1.260 . S
O214 In208 2.266 . S
O214 C211 1.252 1_554 S
O215 In208 2.326 . S
O215 C211 1.260 1_554 S
O216 In208 2.266 . S
O216 C213 1.252 . S
O217 In208 2.326 . S
O217 C213 1.260 . S
C218 O209 1.240 . S
C218 O210 1.252 . S
O219 In208 2.294 . S
O219 C212 1.240 . S
O220 In208 2.326 . S
O220 C212 1.252 . S
In221 O222 2.294 . S
In221 O223 2.326 . S
In221 O227 2.266 . S
In221 O228 2.326 . S
In221 O229 2.266 . S
In221 O230 2.326 . S
In221 O232 2.294 . S
In221 O233 2.326 . S
O222 In221 2.294 . S
O222 C231 1.240 . S
O223 In221 2.326 . S
O223 C231 1.252 . S
C224 O227 1.252 . S
C224 O228 1.260 . S
C225 O232 1.240 . S
C225 O233 1.252 . S
C226 O229 1.252 . S
C226 O230 1.260 . S
O227 In221 2.266 . S
O227 C224 1.252 . S
O228 In221 2.326 . S
O228 C224 1.260 . S
O229 In221 2.266 . S
O229 C226 1.252 . S
O230 In221 2.326 . S
O230 C226 1.260 . S
C231 O222 1.240 . S
C231 O223 1.252 . S
O232 In221 2.294 . S
O232 C225 1.240 . S
O233 In221 2.326 . S
O233 C225 1.252 . S
In234 O235 2.294 . S
In234 O236 2.326 . S
In234 O240 2.266 . S
In234 O241 2.326 . S
In234 O242 2.266 . S
In234 O243 2.326 . S
In234 O245 2.294 . S
In234 O246 2.326 . S
O235 In234 2.294 . S
O235 C244 1.240 . S
O236 In234 2.326 . S
O236 C244 1.252 . S
C237 O240 1.252 . S
C237 O241 1.260 . S
C238 O245 1.240 . S
C238 O246 1.252 . S
C239 O242 1.252 . S
C239 O243 1.260 . S
O240 In234 2.266 . S
O240 C237 1.252 . S
O241 In234 2.326 . S
O241 C237 1.260 . S
O242 In234 2.266 . S
O242 C239 1.252 . S
O243 In234 2.326 . S
O243 C239 1.260 . S
C244 O235 1.240 . S
C244 O236 1.252 . S
O245 In234 2.294 . S
O245 C238 1.240 . S
O246 In234 2.326 . S
O246 C238 1.252 . S
In247 O248 2.294 . S
In247 O249 2.326 . S
In247 O253 2.266 . S
In247 O254 2.326 . S
In247 O255 2.266 . S
In247 O256 2.326 . S
In247 O258 2.294 . S
In247 O259 2.326 . S
O248 In247 2.294 . S
O248 C257 1.240 . S
O249 In247 2.326 . S
O249 C257 1.252 . S
C250 O253 1.252 . S
C250 O254 1.260 . S
C251 O258 1.240 . S
C251 O259 1.252 . S
C252 O255 1.252 . S
C252 O256 1.260 . S
O253 In247 2.266 . S
O253 C250 1.252 . S
O254 In247 2.326 . S
O254 C250 1.260 . S
O255 In247 2.266 . S
O255 C252 1.252 . S
O256 In247 2.326 . S
O256 C252 1.260 . S
C257 O248 1.240 . S
C257 O249 1.252 . S
O258 In247 2.294 . S
O258 C251 1.240 . S
O259 In247 2.326 . S
O259 C251 1.252 . S
In260 O261 2.294 . S
In260 O262 2.327 . S
In260 O266 2.266 1_545 S
In260 O267 2.325 1_545 S
In260 O268 2.266 . S
In260 O269 2.326 . S
In260 O271 2.294 1_545 S
In260 O272 2.326 1_545 S
O261 In260 2.294 . S
O261 C270 1.240 . S
O262 In260 2.327 . S
O262 C270 1.252 . S
C263 O266 1.252 . S
C263 O267 1.260 . S
C264 O271 1.244 . S
C264 O272 1.252 . S
C265 O268 1.252 . S
C265 O269 1.260 . S
O266 In260 2.266 1_565 S
O266 C263 1.252 . S
O267 In260 2.325 1_565 S
O267 C263 1.260 . S
O268 In260 2.266 . S
O268 C265 1.252 . S
O269 In260 2.326 . S
O269 C265 1.260 . S
C270 O261 1.240 . S
C270 O262 1.252 . S
O271 In260 2.294 1_565 S
O271 C264 1.244 . S
O272 In260 2.326 1_565 S
O272 C264 1.252 . S
In273 O274 2.294 . S
In273 O275 2.327 1_556 S
In273 O279 2.265 . S
In273 O280 2.325 . S
In273 O281 2.267 1_556 S
In273 O282 2.326 1_556 S
In273 O284 2.295 1_556 S
In273 O285 2.326 . S
O274 In273 2.294 . S
O274 C283 1.240 1_556 S
O275 In273 2.327 1_554 S
O275 C283 1.252 . S
C276 O279 1.252 . S
C276 O280 1.260 . S
C277 O284 1.240 . S
C277 O285 1.252 1_554 S
C278 O281 1.252 . S
C278 O282 1.260 . S
O279 In273 2.265 . S
O279 C276 1.252 . S
O280 In273 2.325 . S
O280 C276 1.260 . S
O281 In273 2.267 1_554 S
O281 C278 1.252 . S
O282 In273 2.326 1_554 S
O282 C278 1.260 . S
C283 O274 1.240 1_554 S
C283 O275 1.252 . S
O284 In273 2.295 1_554 S
O284 C277 1.240 . S
O285 In273 2.326 . S
O285 C277 1.252 1_556 S
In286 O287 2.294 . S
In286 O288 2.326 . S
In286 O292 2.266 . S
In286 O293 2.326 . S
In286 O294 2.266 . S
In286 O295 2.326 . S
In286 O297 2.294 . S
In286 O298 2.326 . S
O287 In286 2.294 . S
O287 C296 1.240 . S
O288 In286 2.326 . S
O288 C296 1.252 . S
C289 O292 1.252 . S
C289 O293 1.260 . S
C290 O297 1.240 . S
C290 O298 1.252 . S
C291 O294 1.252 . S
C291 O295 1.260 . S
O292 In286 2.266 . S
O292 C289 1.252 . S
O293 In286 2.326 . S
O293 C289 1.260 . S
O294 In286 2.266 . S
O294 C291 1.252 . S
O295 In286 2.326 . S
O295 C291 1.260 . S
C296 O287 1.240 . S
C296 O288 1.252 . S
O297 In286 2.294 . S
O297 C290 1.240 . S
O298 In286 2.326 . S
O298 C290 1.252 . S
In299 O300 2.294 . S
In299 O301 2.326 . S
In299 O305 2.266 . S
In299 O306 2.326 . S
In299 O307 2.266 . S
In299 O308 2.326 . S
In299 O310 2.294 . S
In299 O311 2.326 . S
O300 In299 2.294 . S
O300 C309 1.240 . S
O301 In299 2.326 . S
O301 C309 1.252 . S
C302 O305 1.252 . S
C302 O306 1.260 . S
C303 O310 1.240 . S
C303 O311 1.252 . S
C304 O307 1.252 . S
C304 O308 1.260 . S
O305 In299 2.266 . S
O305 C302 1.252 . S
O306 In299 2.326 . S
O306 C302 1.260 . S
O307 In299 2.266 . S
O307 C304 1.252 . S
O308 In299 2.326 . S
O308 C304 1.260 . S
C309 O300 1.240 . S
C309 O301 1.252 . S
O310 In299 2.294 . S
O310 C303 1.240 . S
O311 In299 2.326 . S
O311 C303 1.252 . S
In312 O313 2.293 1_565 S
In312 O314 2.326 1_565 S
In312 O318 2.266 1_565 S
In312 O319 2.326 . S
In312 O320 2.266 1_565 S
In312 O321 2.325 1_565 S
In312 O323 2.295 . S
In312 O324 2.327 . S
O313 In312 2.293 1_545 S
O313 C322 1.240 . S
O314 In312 2.326 1_545 S
O314 C322 1.252 . S
C315 O318 1.252 1_565 S
C315 O319 1.260 . S
C316 O323 1.240 . S
C316 O324 1.252 . S
C317 O320 1.252 . S
C317 O321 1.260 . S
O318 In312 2.266 1_545 S
O318 C315 1.252 1_545 S
O319 In312 2.326 . S
O319 C315 1.260 . S
O320 In312 2.266 1_545 S
O320 C317 1.252 . S
O321 In312 2.325 1_545 S
O321 C317 1.260 . S
C322 O313 1.240 . S
C322 O314 1.252 . S
O323 In312 2.295 . S
O323 C316 1.240 . S
O324 In312 2.327 . S
O324 C316 1.252 . S
In325 O326 2.294 . S
In325 O327 2.326 . S
In325 O331 2.266 . S
In325 O332 2.326 . S
In325 O333 2.266 . S
In325 O334 2.326 . S
In325 O336 2.294 . S
In325 O337 2.326 . S
O326 In325 2.294 . S
O326 C335 1.240 . S
O327 In325 2.326 . S
O327 C335 1.252 . S
C328 O331 1.252 . S
C328 O332 1.260 . S
C329 O336 1.240 . S
C329 O337 1.252 . S
C330 O333 1.252 . S
C330 O334 1.260 . S
O331 In325 2.266 . S
O331 C328 1.252 . S
O332 In325 2.326 . S
O332 C328 1.260 . S
O333 In325 2.266 . S
O333 C330 1.252 . S
O334 In325 2.326 . S
O334 C330 1.260 . S
C335 O326 1.240 . S
C335 O327 1.252 . S
O336 In325 2.294 . S
O336 C329 1.240 . S
O337 In325 2.326 . S
O337 C329 1.252 . S
In338 O339 2.294 . S
In338 O340 2.326 . S
In338 O344 2.266 . S
In338 O345 2.326 . S
In338 O346 2.266 . S
In338 O347 2.326 . S
In338 O349 2.294 . S
In338 O350 2.326 . S
O339 In338 2.294 . S
O339 C348 1.240 . S
O340 In338 2.326 . S
O340 C348 1.252 . S
C341 O344 1.252 . S
C341 O345 1.260 . S
C342 O349 1.240 . S
C342 O350 1.252 . S
C343 O346 1.252 . S
C343 O347 1.260 . S
O344 In338 2.266 . S
O344 C341 1.252 . S
O345 In338 2.326 . S
O345 C341 1.260 . S
O346 In338 2.266 . S
O346 C343 1.252 . S
O347 In338 2.326 . S
O347 C343 1.260 . S
C348 O339 1.240 . S
C348 O340 1.252 . S
O349 In338 2.294 . S
O349 C342 1.240 . S
O350 In338 2.326 . S
O350 C342 1.252 . S
In351 O352 2.295 . S
In351 O353 2.327 . S
In351 O357 2.266 . S
In351 O358 2.324 1_554 S
In351 O359 2.265 1_554 S
In351 O360 2.326 . S
In351 O362 2.293 1_554 S
In351 O363 2.326 1_554 S
O352 In351 2.295 . S
O352 C361 1.240 . S
O353 In351 2.327 . S
O353 C361 1.252 . S
C354 O357 1.252 1_556 S
C354 O358 1.260 . S
C355 O362 1.240 . S
C355 O363 1.252 . S
C356 O359 1.252 . S
C356 O360 1.260 1_556 S
O357 In351 2.266 . S
O357 C354 1.252 1_554 S
O358 In351 2.324 1_556 S
O358 C354 1.260 . S
O359 In351 2.265 1_556 S
O359 C356 1.252 . S
O360 In351 2.326 . S
O360 C356 1.260 1_554 S
C361 O352 1.240 . S
C361 O353 1.252 . S
O362 In351 2.293 1_556 S
O362 C355 1.240 . S
O363 In351 2.326 1_556 S
O363 C355 1.252 . S
In364 O365 2.295 1_556 S
In364 O366 2.326 . S
In364 O370 2.267 1_556 S
In364 O371 2.325 . S
In364 O372 2.265 . S
In364 O373 2.325 . S
In364 O375 2.293 . S
In364 O376 2.327 1_556 S
O365 In364 2.295 1_554 S
O365 C374 1.240 . S
O366 In364 2.326 . S
O366 C374 1.252 1_556 S
C367 O370 1.252 . S
C367 O371 1.260 1_554 S
C368 O375 1.240 . S
C368 O376 1.252 1_556 S
C369 O372 1.252 . S
C369 O373 1.260 . S
O370 In364 2.267 1_554 S
O370 C367 1.252 . S
O371 In364 2.325 . S
O371 C367 1.260 1_556 S
O372 In364 2.265 . S
O372 C369 1.252 . S
O373 In364 2.325 . S
O373 C369 1.260 . S
C374 O365 1.240 . S
C374 O366 1.252 1_554 S
O375 In364 2.293 . S
O375 C368 1.240 . S
O376 In364 2.327 1_554 S
O376 C368 1.252 1_554 S
In377 O378 2.294 . S
In377 O379 2.326 1_565 S
In377 O383 2.266 . S
In377 O384 2.326 . S
In377 O385 2.266 1_565 S
In377 O386 2.325 1_565 S
In377 O388 2.294 . S
In377 O389 2.327 . S
O378 In377 2.294 . S
O378 C387 1.238 1_565 S
O379 In377 2.326 1_545 S
O379 C387 1.252 . S
C380 O383 1.252 . S
C380 O384 1.260 . S
C381 O388 1.240 . S
C381 O389 1.252 . S
C382 O385 1.252 . S
C382 O386 1.260 . S
O383 In377 2.266 . S
O383 C380 1.252 . S
O384 In377 2.326 . S
O384 C380 1.260 . S
O385 In377 2.266 1_545 S
O385 C382 1.252 . S
O386 In377 2.325 1_545 S
O386 C382 1.260 . S
C387 O378 1.238 1_545 S
C387 O379 1.252 . S
O388 In377 2.294 . S
O388 C381 1.240 . S
O389 In377 2.327 . S
O389 C381 1.252 . S
In390 O391 2.294 . S
In390 O392 2.326 . S
In390 O396 2.266 . S
In390 O397 2.326 . S
In390 O398 2.266 . S
In390 O399 2.326 . S
In390 O401 2.294 . S
In390 O402 2.326 . S
O391 In390 2.294 . S
O391 C400 1.240 . S
O392 In390 2.326 . S
O392 C400 1.252 . S
C393 O396 1.252 . S
C393 O397 1.260 . S
C394 O401 1.240 . S
C394 O402 1.252 . S
C395 O398 1.252 . S
C395 O399 1.260 . S
O396 In390 2.266 . S
O396 C393 1.252 . S
O397 In390 2.326 . S
O397 C393 1.260 . S
O398 In390 2.266 . S
O398 C395 1.252 . S
O399 In390 2.326 . S
O399 C395 1.260 . S
C400 O391 1.240 . S
C400 O392 1.252 . S
O401 In390 2.294 . S
O401 C394 1.240 . S
O402 In390 2.326 . S
O402 C394 1.252 . S
In403 O404 2.294 . S
In403 O405 2.326 . S
In403 O409 2.266 . S
In403 O410 2.326 . S
In403 O411 2.266 . S
In403 O412 2.326 . S
In403 O414 2.294 . S
In403 O415 2.326 . S
O404 In403 2.294 . S
O404 C413 1.240 . S
O405 In403 2.326 . S
O405 C413 1.252 . S
C406 O409 1.252 . S
C406 O410 1.260 . S
C407 O414 1.240 . S
C407 O415 1.252 . S
C408 O411 1.252 . S
C408 O412 1.260 . S
O409 In403 2.266 . S
O409 C406 1.252 . S
O410 In403 2.326 . S
O410 C406 1.260 . S
O411 In403 2.266 . S
O411 C408 1.252 . S
O412 In403 2.326 . S
O412 C408 1.260 . S
C413 O404 1.240 . S
C413 O405 1.252 . S
O414 In403 2.294 . S
O414 C407 1.240 . S
O415 In403 2.326 . S
O415 C407 1.252 . S
In416 O417 2.294 . S
In416 O418 2.326 . S
In416 O422 2.266 . S
In416 O423 2.326 . S
In416 O424 2.266 . S
In416 O425 2.326 . S
In416 O427 2.294 . S
In416 O428 2.326 . S
O417 In416 2.294 . S
O417 C426 1.240 . S
O418 In416 2.326 . S
O418 C426 1.252 . S
C419 O422 1.252 . S
C419 O423 1.260 . S
C420 O427 1.240 . S
C420 O428 1.252 . S
C421 O424 1.252 . S
C421 O425 1.260 . S
O422 In416 2.266 . S
O422 C419 1.252 . S
O423 In416 2.326 . S
O423 C419 1.260 . S
O424 In416 2.266 . S
O424 C421 1.252 . S
O425 In416 2.326 . S
O425 C421 1.260 . S
C426 O417 1.240 . S
C426 O418 1.252 . S
O427 In416 2.294 . S
O427 C420 1.240 . S
O428 In416 2.326 . S
O428 C420 1.252 . S
In429 O430 2.294 1_456 S
In429 O431 2.326 1_556 S
In429 O435 2.257 1_455 S
In429 O436 2.326 . S
In429 O437 2.266 . S
In429 O438 2.326 1_455 S
In429 O440 2.294 . S
In429 O441 2.326 . S
O430 In429 2.294 1_654 S
O430 C439 1.240 . S
O431 In429 2.326 1_554 S
O431 C439 1.252 1_455 S
C432 O435 1.236 1_455 S
C432 O436 1.260 . S
C433 O440 1.240 . S
C433 O441 1.252 . S
C434 O437 1.252 1_655 S
C434 O438 1.260 . S
O435 In429 2.257 1_655 S
O435 C432 1.236 1_655 S
O436 In429 2.326 . S
O436 C432 1.260 . S
O437 In429 2.266 . S
O437 C434 1.252 1_455 S
O438 In429 2.326 1_655 S
O438 C434 1.260 . S
C439 O430 1.240 . S
C439 O431 1.252 1_655 S
O440 In429 2.294 . S
O440 C433 1.240 . S
O441 In429 2.326 . S
O441 C433 1.252 . S
In442 O443 2.294 . S
In442 O444 2.326 . S
In442 O448 2.266 . S
In442 O449 2.326 . S
In442 O450 2.266 . S
In442 O451 2.326 . S
In442 O453 2.294 . S
In442 O454 2.326 . S
O443 In442 2.294 . S
O443 C452 1.240 . S
O444 In442 2.326 . S
O444 C452 1.252 . S
C445 O448 1.252 . S
C445 O449 1.260 . S
C446 O453 1.240 . S
C446 O454 1.252 . S
C447 O450 1.252 . S
C447 O451 1.260 . S
O448 In442 2.266 . S
O448 C445 1.252 . S
O449 In442 2.326 . S
O449 C445 1.260 . S
O450 In442 2.266 . S
O450 C447 1.252 . S
O451 In442 2.326 . S
O451 C447 1.260 . S
C452 O443 1.240 . S
C452 O444 1.252 . S
O453 In442 2.294 . S
O453 C446 1.240 . S
O454 In442 2.326 . S
O454 C446 1.252 . S
In455 O456 2.294 . S
In455 O457 2.326 . S
In455 O461 2.266 . S
In455 O462 2.326 1_455 S
In455 O463 2.266 . S
In455 O464 2.326 . S
In455 O466 2.294 1_455 S
In455 O467 2.326 1_455 S
O456 In455 2.294 . S
O456 C465 1.240 . S
O457 In455 2.326 . S
O457 C465 1.252 . S
C458 O461 1.252 1_655 S
C458 O462 1.260 . S
C459 O466 1.240 . S
C459 O467 1.252 . S
C460 O463 1.252 . S
C460 O464 1.260 . S
O461 In455 2.266 . S
O461 C458 1.252 1_455 S
O462 In455 2.326 1_655 S
O462 C458 1.260 . S
O463 In455 2.266 . S
O463 C460 1.252 . S
O464 In455 2.326 . S
O464 C460 1.260 . S
C465 O456 1.240 . S
C465 O457 1.252 . S
O466 In455 2.294 1_655 S
O466 C459 1.240 . S
O467 In455 2.326 1_655 S
O467 C459 1.252 . S
In468 O469 2.294 . S
In468 O470 2.326 . S
In468 O474 2.266 . S
In468 O475 2.326 . S
In468 O476 2.266 . S
In468 O477 2.326 . S
In468 O479 2.294 . S
In468 O480 2.326 . S
O469 In468 2.294 . S
O469 C478 1.240 . S
O470 In468 2.326 . S
O470 C478 1.252 . S
C471 O474 1.252 . S
C471 O475 1.260 . S
C472 O479 1.240 . S
C472 O480 1.252 . S
C473 O476 1.252 . S
C473 O477 1.260 . S
O474 In468 2.266 . S
O474 C471 1.252 . S
O475 In468 2.326 . S
O475 C471 1.260 . S
O476 In468 2.266 . S
O476 C473 1.252 . S
O477 In468 2.326 . S
O477 C473 1.260 . S
C478 O469 1.240 . S
C478 O470 1.252 . S
O479 In468 2.294 . S
O479 C472 1.240 . S
O480 In468 2.326 . S
O480 C472 1.252 . S
In481 O482 2.294 . S
In481 O483 2.320 1_556 S
In481 O487 2.266 . S
In481 O488 2.326 . S
In481 O489 2.266 . S
In481 O490 2.326 . S
In481 O492 2.294 . S
In481 O493 2.326 . S
O482 In481 2.294 . S
O482 C491 1.240 1_556 S
O483 In481 2.320 1_554 S
O483 C491 1.255 . S
C484 O487 1.252 . S
C484 O488 1.260 . S
C485 O492 1.240 . S
C485 O493 1.252 . S
C486 O489 1.252 . S
C486 O490 1.260 . S
O487 In481 2.266 . S
O487 C484 1.252 . S
O488 In481 2.326 . S
O488 C484 1.260 . S
O489 In481 2.266 . S
O489 C486 1.252 . S
O490 In481 2.326 . S
O490 C486 1.260 . S
C491 O482 1.240 1_554 S
C491 O483 1.255 . S
O492 In481 2.294 . S
O492 C485 1.240 . S
O493 In481 2.326 . S
O493 C485 1.252 . S
In494 O495 2.294 . S
In494 O496 2.326 . S
In494 O500 2.266 . S
In494 O501 2.326 . S
In494 O502 2.266 . S
In494 O503 2.326 . S
In494 O505 2.294 . S
In494 O506 2.326 . S
O495 In494 2.294 . S
O495 C504 1.240 . S
O496 In494 2.326 . S
O496 C504 1.252 . S
C497 O500 1.252 . S
C497 O501 1.260 . S
C498 O505 1.240 . S
C498 O506 1.252 . S
C499 O502 1.252 . S
C499 O503 1.260 . S
O500 In494 2.266 . S
O500 C497 1.252 . S
O501 In494 2.326 . S
O501 C497 1.260 . S
O502 In494 2.266 . S
O502 C499 1.252 . S
O503 In494 2.326 . S
O503 C499 1.260 . S
C504 O495 1.240 . S
C504 O496 1.252 . S
O505 In494 2.294 . S
O505 C498 1.240 . S
O506 In494 2.326 . S
O506 C498 1.252 . S
In507 O508 2.294 . S
In507 O509 2.326 . S
In507 O513 2.266 . S
In507 O514 2.326 . S
In507 O515 2.266 . S
In507 O516 2.326 . S
In507 O518 2.294 . S
In507 O519 2.326 . S
O508 In507 2.294 . S
O508 C517 1.240 . S
O509 In507 2.326 . S
O509 C517 1.252 . S
C510 O513 1.252 . S
C510 O514 1.260 . S
C511 O518 1.240 . S
C511 O519 1.252 . S
C512 O515 1.252 . S
C512 O516 1.260 . S
O513 In507 2.266 . S
O513 C510 1.252 . S
O514 In507 2.326 . S
O514 C510 1.260 . S
O515 In507 2.266 . S
O515 C512 1.252 . S
O516 In507 2.326 . S
O516 C512 1.260 . S
C517 O508 1.240 . S
C517 O509 1.252 . S
O518 In507 2.294 . S
O518 C511 1.240 . S
O519 In507 2.326 . S
O519 C511 1.252 . S
In520 O521 2.295 . S
In520 O522 2.327 . S
In520 O526 2.266 1_545 S
In520 O527 2.325 1_545 S
In520 O528 2.266 1_545 S
In520 O529 2.326 . S
In520 O531 2.293 1_545 S
In520 O532 2.326 1_545 S
O521 In520 2.295 . S
O521 C530 1.240 . S
O522 In520 2.327 . S
O522 C530 1.252 . S
C523 O526 1.252 . S
C523 O527 1.260 . S
C524 O531 1.240 . S
C524 O532 1.252 . S
C525 O528 1.252 1_545 S
C525 O529 1.260 . S
O526 In520 2.266 1_565 S
O526 C523 1.252 . S
O527 In520 2.325 1_565 S
O527 C523 1.260 . S
O528 In520 2.266 1_565 S
O528 C525 1.252 1_565 S
O529 In520 2.326 . S
O529 C525 1.260 . S
C530 O521 1.240 . S
C530 O522 1.252 . S
O531 In520 2.293 1_565 S
O531 C524 1.240 . S
O532 In520 2.326 1_565 S
O532 C524 1.252 . S
In533 O534 2.295 . S
In533 O535 2.327 . S
In533 O539 2.267 . S
In533 O540 2.325 1_554 S
In533 O541 2.265 1_554 S
In533 O542 2.326 . S
In533 O544 2.293 1_554 S
In533 O545 2.326 . S
O534 In533 2.295 . S
O534 C543 1.240 . S
O535 In533 2.327 . S
O535 C543 1.252 . S
C536 O539 1.252 . S
C536 O540 1.260 1_554 S
C537 O544 1.240 . S
C537 O545 1.252 1_556 S
C538 O541 1.252 . S
C538 O542 1.260 1_556 S
O539 In533 2.267 . S
O539 C536 1.252 . S
O540 In533 2.325 1_556 S
O540 C536 1.260 1_556 S
O541 In533 2.265 1_556 S
O541 C538 1.252 . S
O542 In533 2.326 . S
O542 C538 1.260 1_554 S
C543 O534 1.240 . S
C543 O535 1.252 . S
O544 In533 2.293 1_556 S
O544 C537 1.240 . S
O545 In533 2.326 . S
O545 C537 1.252 1_554 S
In546 O547 2.294 1_655 S
In546 O548 2.326 . S
In546 O552 2.267 1_655 S
In546 O553 2.325 1_655 S
In546 O554 2.266 . S
In546 O555 2.325 . S
In546 O557 2.294 . S
In546 O558 2.327 1_655 S
O547 In546 2.294 1_455 S
O547 C556 1.240 . S
O548 In546 2.326 . S
O548 C556 1.252 1_655 S
C549 O552 1.252 . S
C549 O553 1.277 . S
C550 O557 1.240 . S
C550 O558 1.252 1_655 S
C551 O554 1.252 . S
C551 O555 1.260 . S
O552 In546 2.267 1_455 S
O552 C549 1.252 . S
O553 In546 2.325 1_455 S
O553 C549 1.277 . S
O554 In546 2.266 . S
O554 C551 1.252 . S
O555 In546 2.325 . S
O555 C551 1.260 . S
C556 O547 1.240 . S
C556 O548 1.252 1_455 S
O557 In546 2.294 . S
O557 C550 1.240 . S
O558 In546 2.327 1_455 S
O558 C550 1.252 1_455 S
In559 O560 2.294 1_655 S
In559 O561 2.326 . S
In559 O565 2.266 1_655 S
In559 O566 2.326 . S
In559 O567 2.266 . S
In559 O568 2.326 . S
In559 O570 2.294 . S
In559 O571 2.326 1_655 S
O560 In559 2.294 1_455 S
O560 C569 1.240 1_455 S
O561 In559 2.326 . S
O561 C569 1.252 . S
C562 O565 1.252 . S
C562 O566 1.260 1_455 S
C563 O570 1.240 1_455 S
C563 O571 1.252 . S
C564 O567 1.252 . S
C564 O568 1.260 . S
O565 In559 2.266 1_455 S
O565 C562 1.252 . S
O566 In559 2.326 . S
O566 C562 1.260 1_655 S
O567 In559 2.266 . S
O567 C564 1.252 . S
O568 In559 2.326 . S
O568 C564 1.260 . S
C569 O560 1.240 1_655 S
C569 O561 1.252 . S
O570 In559 2.294 . S
O570 C563 1.240 1_655 S
O571 In559 2.326 1_455 S
O571 C563 1.252 . S
In572 O573 2.294 1_565 S
In572 O574 2.326 . S
In572 O578 2.266 1_565 S
In572 O579 2.326 . S
In572 O580 2.266 . S
In572 O581 2.328 . S
In572 O583 2.294 . S
In572 O584 2.326 . S
O573 In572 2.294 1_545 S
O573 C582 1.240 1_545 S
O574 In572 2.326 . S
O574 C582 1.252 . S
C575 O578 1.252 1_565 S
C575 O579 1.260 . S
C576 O583 1.240 . S
C576 O584 1.252 . S
C577 O580 1.252 . S
C577 O581 1.265 . S
O578 In572 2.266 1_545 S
O578 C575 1.252 1_545 S
O579 In572 2.326 . S
O579 C575 1.260 . S
O580 In572 2.266 . S
O580 C577 1.252 . S
O581 In572 2.328 . S
O581 C577 1.265 . S
C582 O573 1.240 1_565 S
C582 O574 1.252 . S
O583 In572 2.294 . S
O583 C576 1.240 . S
O584 In572 2.326 . S
O584 C576 1.252 . S
In585 O586 2.294 1_554 S
In585 O587 2.326 1_554 S
In585 O591 2.266 . S
In585 O592 2.326 . S
In585 O593 2.266 . S
In585 O594 2.326 1_554 S
In585 O596 2.294 . S
In585 O597 2.326 . S
O586 In585 2.294 1_556 S
O586 C595 1.240 . S
O587 In585 2.326 1_556 S
O587 C595 1.252 . S
C588 O591 1.252 . S
C588 O592 1.260 . S
C589 O596 1.240 . S
C589 O597 1.252 . S
C590 O593 1.252 . S
C590 O594 1.260 1_554 S
O591 In585 2.266 . S
O591 C588 1.252 . S
O592 In585 2.326 . S
O592 C588 1.260 . S
O593 In585 2.266 . S
O593 C590 1.252 . S
O594 In585 2.326 1_556 S
O594 C590 1.260 1_556 S
C595 O586 1.240 . S
C595 O587 1.252 . S
O596 In585 2.294 . S
O596 C589 1.240 . S
O597 In585 2.326 . S
O597 C589 1.252 . S
In598 O599 2.294 . S
In598 O600 2.326 . S
In598 O604 2.266 . S
In598 O605 2.326 . S
In598 O606 2.266 . S
In598 O607 2.326 . S
In598 O609 2.294 . S
In598 O610 2.326 . S
O599 In598 2.294 . S
O599 C608 1.240 . S
O600 In598 2.326 . S
O600 C608 1.252 . S
C601 O604 1.252 . S
C601 O605 1.260 . S
C602 O609 1.240 . S
C602 O610 1.252 . S
C603 O606 1.252 . S
C603 O607 1.260 . S
O604 In598 2.266 . S
O604 C601 1.252 . S
O605 In598 2.326 . S
O605 C601 1.260 . S
O606 In598 2.266 . S
O606 C603 1.252 . S
O607 In598 2.326 . S
O607 C603 1.260 . S
C608 O599 1.240 . S
C608 O600 1.252 . S
O609 In598 2.294 . S
O609 C602 1.240 . S
O610 In598 2.326 . S
O610 C602 1.252 . S
In611 O612 2.294 . S
In611 O613 2.326 . S
In611 O617 2.266 . S
In611 O618 2.326 . S
In611 O619 2.266 . S
In611 O620 2.326 . S
In611 O622 2.294 . S
In611 O623 2.326 . S
O612 In611 2.294 . S
O612 C621 1.240 . S
O613 In611 2.326 . S
O613 C621 1.252 . S
C614 O617 1.252 . S
C614 O618 1.260 . S
C615 O622 1.240 . S
C615 O623 1.252 . S
C616 O619 1.252 . S
C616 O620 1.260 . S
O617 In611 2.266 . S
O617 C614 1.252 . S
O618 In611 2.326 . S
O618 C614 1.260 . S
O619 In611 2.266 . S
O619 C616 1.252 . S
O620 In611 2.326 . S
O620 C616 1.260 . S
C621 O612 1.240 . S
C621 O613 1.252 . S
O622 In611 2.294 . S
O622 C615 1.240 . S
O623 In611 2.326 . S
O623 C615 1.252 . S
C624 C625 1.369 . S
C624 C626 1.419 . S
C624 H628 0.930 . S
C625 C624 1.369 . S
C625 C634 1.429 . S
C626 C624 1.419 . S
C626 C627 1.363 . S
C626 H629 0.929 . S
C627 C626 1.363 . S
C627 C633 1.428 . S
H628 C624 0.930 . S
H629 C626 0.929 . S
S630 N631 1.613 . S
S630 N632 1.610 . S
N631 S630 1.613 . S
N631 C634 1.350 . S
N632 S630 1.610 . S
N632 C633 1.351 . S
C633 C627 1.428 . S
C633 N632 1.351 . S
C633 C634 1.434 . S
C634 C625 1.429 . S
C634 N631 1.350 . S
C634 C633 1.434 . S
C635 C636 1.369 . S
C635 C637 1.419 . S
C635 H639 0.930 . S
C636 C635 1.369 . S
C636 C645 1.429 . S
C637 C635 1.419 . S
C637 C638 1.363 . S
C637 H640 0.929 . S
C638 C637 1.363 . S
C638 C644 1.428 . S
H639 C635 0.930 . S
H640 C637 0.929 . S
S641 N642 1.613 . S
S641 N643 1.610 . S
N642 S641 1.613 . S
N642 C645 1.350 . S
N643 S641 1.610 . S
N643 C644 1.351 . S
C644 C638 1.428 . S
C644 N643 1.351 . S
C644 C645 1.434 . S
C645 C636 1.429 . S
C645 N642 1.350 . S
C645 C644 1.434 . S
C646 C647 1.369 . S
C646 C648 1.419 . S
C646 H650 0.930 . S
C647 C646 1.369 . S
C647 C656 1.429 . S
C648 C646 1.419 . S
C648 C649 1.363 . S
C648 H651 0.929 . S
C649 C648 1.363 . S
C649 C655 1.428 . S
H650 C646 0.930 . S
H651 C648 0.929 . S
S652 N653 1.613 . S
S652 N654 1.610 . S
N653 S652 1.613 . S
N653 C656 1.350 . S
N654 S652 1.610 . S
N654 C655 1.351 . S
C655 C649 1.428 . S
C655 N654 1.351 . S
C655 C656 1.434 . S
C656 C647 1.429 . S
C656 N653 1.350 . S
C656 C655 1.434 . S
C657 C658 1.369 . S
C657 C659 1.419 . S
C657 H661 0.930 . S
C658 C657 1.369 . S
C658 C667 1.429 1_545 S
C659 C657 1.419 . S
C659 C660 1.363 . S
C659 H662 0.929 . S
C660 C659 1.363 . S
C660 C666 1.428 1_545 S
H661 C657 0.930 . S
H662 C659 0.929 . S
S663 N664 1.613 . S
S663 N665 1.610 . S
N664 S663 1.613 . S
N664 C667 1.350 . S
N665 S663 1.610 . S
N665 C666 1.351 . S
C666 C660 1.428 1_565 S
C666 N665 1.351 . S
C666 C667 1.434 . S
C667 C658 1.429 1_565 S
C667 N664 1.350 . S
C667 C666 1.434 . S
C668 C669 1.369 . S
C668 C670 1.419 . S
C668 H672 0.930 . S
C669 C668 1.369 . S
C669 C678 1.429 . S
C670 C668 1.419 . S
C670 C671 1.363 . S
C670 H673 0.929 . S
C671 C670 1.363 . S
C671 C677 1.428 . S
H672 C668 0.930 . S
H673 C670 0.929 . S
S674 N675 1.613 . S
S674 N676 1.610 . S
N675 S674 1.613 . S
N675 C678 1.350 . S
N676 S674 1.610 . S
N676 C677 1.351 . S
C677 C671 1.428 . S
C677 N676 1.351 . S
C677 C678 1.434 . S
C678 C669 1.429 . S
C678 N675 1.350 . S
C678 C677 1.434 . S
C679 C680 1.369 . S
C679 C681 1.419 . S
C679 H683 0.930 . S
C680 C679 1.369 . S
C680 C689 1.429 . S
C681 C679 1.419 . S
C681 C682 1.363 . S
C681 H684 0.929 . S
C682 C681 1.363 . S
C682 C688 1.428 . S
H683 C679 0.930 . S
H684 C681 0.929 . S
S685 N686 1.613 . S
S685 N687 1.610 . S
N686 S685 1.613 . S
N686 C689 1.350 . S
N687 S685 1.610 . S
N687 C688 1.351 . S
C688 C682 1.428 . S
C688 N687 1.351 . S
C688 C689 1.434 . S
C689 C680 1.429 . S
C689 N686 1.350 . S
C689 C688 1.434 . S
C690 C691 1.369 . S
C690 C692 1.419 . S
C690 H694 0.930 . S
C691 C690 1.369 . S
C691 C700 1.429 . S
C692 C690 1.419 . S
C692 C693 1.363 . S
C692 H695 0.929 . S
C693 C692 1.363 . S
C693 C699 1.428 . S
H694 C690 0.930 . S
H695 C692 0.929 . S
S696 N697 1.620 . S
S696 N698 1.608 1_545 S
N697 S696 1.620 . S
N697 C700 1.350 . S
N698 S696 1.608 1_565 S
N698 C699 1.351 1_565 S
C699 C693 1.428 . S
C699 N698 1.351 1_545 S
C699 C700 1.434 . S
C700 C691 1.429 . S
C700 N697 1.350 . S
C700 C699 1.434 . S
C701 C702 1.369 . S
C701 C703 1.419 . S
C701 H705 0.930 . S
C702 C701 1.369 . S
C702 C711 1.429 . S
C703 C701 1.419 . S
C703 C704 1.363 . S
C703 H706 0.929 . S
C704 C703 1.363 . S
C704 C710 1.428 . S
H705 C701 0.930 . S
H706 C703 0.929 . S
S707 N708 1.613 . S
S707 N709 1.610 . S
N708 S707 1.613 . S
N708 C711 1.350 . S
N709 S707 1.610 . S
N709 C710 1.351 . S
C710 C704 1.428 . S
C710 N709 1.351 . S
C710 C711 1.434 . S
C711 C702 1.429 . S
C711 N708 1.350 . S
C711 C710 1.434 . S
C712 C713 1.369 . S
C712 C714 1.419 . S
C712 H716 0.930 . S
C713 C712 1.369 . S
C713 C722 1.429 . S
C714 C712 1.419 . S
C714 C715 1.363 . S
C714 H717 0.929 . S
C715 C714 1.363 . S
C715 C721 1.428 . S
H716 C712 0.930 . S
H717 C714 0.929 . S
S718 N719 1.613 . S
S718 N720 1.610 . S
N719 S718 1.613 . S
N719 C722 1.350 . S
N720 S718 1.610 . S
N720 C721 1.351 . S
C721 C715 1.428 . S
C721 N720 1.351 . S
C721 C722 1.434 . S
C722 C713 1.429 . S
C722 N719 1.350 . S
C722 C721 1.434 . S
C723 C724 1.375 . S
C723 C725 1.421 . S
C723 H727 0.922 1_455 S
C724 C723 1.375 . S
C724 C733 1.429 . S
C725 C723 1.421 . S
C725 C726 1.363 . S
C725 H728 0.929 1_455 S
C726 C725 1.363 . S
C726 C732 1.428 . S
H727 C723 0.922 1_655 S
H728 C725 0.929 1_655 S
S729 N730 1.613 . S
S729 N731 1.610 . S
N730 S729 1.613 . S
N730 C733 1.350 . S
N731 S729 1.610 . S
N731 C732 1.351 . S
C732 C726 1.428 . S
C732 N731 1.351 . S
C732 C733 1.434 . S
C733 C724 1.429 . S
C733 N730 1.350 . S
C733 C732 1.434 . S
C734 C735 1.369 . S
C734 C736 1.419 . S
C734 H738 0.930 . S
C735 C734 1.369 . S
C735 C744 1.429 . S
C736 C734 1.419 . S
C736 C737 1.363 . S
C736 H739 0.929 . S
C737 C736 1.363 . S
C737 C743 1.428 . S
H738 C734 0.930 . S
H739 C736 0.929 . S
S740 N741 1.613 . S
S740 N742 1.610 . S
N741 S740 1.613 . S
N741 C744 1.350 . S
N742 S740 1.610 . S
N742 C743 1.351 . S
C743 C737 1.428 . S
C743 N742 1.351 . S
C743 C744 1.434 . S
C744 C735 1.429 . S
C744 N741 1.350 . S
C744 C743 1.434 . S
C745 C746 1.369 . S
C745 C747 1.419 . S
C745 H749 0.930 . S
C746 C745 1.369 . S
C746 C755 1.429 . S
C747 C745 1.419 . S
C747 C748 1.363 . S
C747 H750 0.929 . S
C748 C747 1.363 . S
C748 C754 1.428 . S
H749 C745 0.930 . S
H750 C747 0.929 . S
S751 N752 1.613 . S
S751 N753 1.610 . S
N752 S751 1.613 . S
N752 C755 1.350 . S
N753 S751 1.610 . S
N753 C754 1.351 . S
C754 C748 1.428 . S
C754 N753 1.351 . S
C754 C755 1.434 . S
C755 C746 1.429 . S
C755 N752 1.350 . S
C755 C754 1.434 . S
C756 C757 1.369 . S
C756 C758 1.419 . S
C756 H760 0.930 . S
C757 C756 1.369 . S
C757 C766 1.429 . S
C758 C756 1.419 . S
C758 C759 1.363 . S
C758 H761 0.929 . S
C759 C758 1.363 . S
C759 C765 1.428 . S
H760 C756 0.930 . S
H761 C758 0.929 . S
S762 N763 1.613 . S
S762 N764 1.610 . S
N763 S762 1.613 . S
N763 C766 1.350 . S
N764 S762 1.610 . S
N764 C765 1.351 . S
C765 C759 1.428 . S
C765 N764 1.351 . S
C765 C766 1.434 . S
C766 C757 1.429 . S
C766 N763 1.350 . S
C766 C765 1.434 . S
C767 C768 1.369 . S
C767 C769 1.419 . S
C767 H771 0.930 . S
C768 C767 1.369 . S
C768 C777 1.429 . S
C769 C767 1.419 . S
C769 C770 1.363 . S
C769 H772 0.929 . S
C770 C769 1.363 . S
C770 C776 1.428 . S
H771 C767 0.930 . S
H772 C769 0.929 . S
S773 N774 1.613 . S
S773 N775 1.610 . S
N774 S773 1.613 . S
N774 C777 1.350 . S
N775 S773 1.610 . S
N775 C776 1.351 . S
C776 C770 1.428 . S
C776 N775 1.351 . S
C776 C777 1.434 . S
C777 C768 1.429 . S
C777 N774 1.350 . S
C777 C776 1.434 . S
C778 C779 1.369 . S
C778 C780 1.419 . S
C778 H782 0.930 . S
C779 C778 1.369 . S
C779 C788 1.429 . S
C780 C778 1.419 . S
C780 C781 1.363 . S
C780 H783 0.929 . S
C781 C780 1.363 . S
C781 C787 1.428 . S
H782 C778 0.930 . S
H783 C780 0.929 . S
S784 N785 1.613 . S
S784 N786 1.610 . S
N785 S784 1.613 . S
N785 C788 1.350 . S
N786 S784 1.610 . S
N786 C787 1.351 . S
C787 C781 1.428 . S
C787 N786 1.351 . S
C787 C788 1.434 . S
C788 C779 1.429 . S
C788 N785 1.350 . S
C788 C787 1.434 . S
C789 C790 1.369 . S
C789 C791 1.419 . S
C789 H793 0.930 . S
C790 C789 1.369 . S
C790 C799 1.429 . S
C791 C789 1.419 . S
C791 C792 1.363 . S
C791 H794 0.929 . S
C792 C791 1.363 . S
C792 C798 1.428 . S
H793 C789 0.930 . S
H794 C791 0.929 . S
S795 N796 1.613 . S
S795 N797 1.610 . S
N796 S795 1.613 . S
N796 C799 1.350 . S
N797 S795 1.610 . S
N797 C798 1.351 . S
C798 C792 1.428 . S
C798 N797 1.351 . S
C798 C799 1.434 . S
C799 C790 1.429 . S
C799 N796 1.350 . S
C799 C798 1.434 . S
C800 C801 1.369 1_455 S
C800 C802 1.419 . S
C800 H804 0.930 . S
C801 C800 1.369 1_655 S
C801 C810 1.429 . S
C802 C800 1.419 . S
C802 C803 1.363 . S
C802 H805 0.929 . S
C803 C802 1.363 . S
C803 C809 1.428 1_455 S
H804 C800 0.930 . S
H805 C802 0.929 . S
S806 N807 1.613 . S
S806 N808 1.610 . S
N807 S806 1.613 . S
N807 C810 1.350 . S
N808 S806 1.610 . S
N808 C809 1.351 . S
C809 C803 1.428 1_655 S
C809 N808 1.351 . S
C809 C810 1.434 . S
C810 C801 1.429 . S
C810 N807 1.350 . S
C810 C809 1.434 . S
C811 C812 1.369 . S
C811 C813 1.419 . S
C811 H815 0.930 . S
C812 C811 1.369 . S
C812 C821 1.429 . S
C813 C811 1.419 . S
C813 C814 1.363 . S
C813 H816 0.929 . S
C814 C813 1.363 . S
C814 C820 1.428 . S
H815 C811 0.930 . S
H816 C813 0.929 . S
S817 N818 1.613 . S
S817 N819 1.610 . S
N818 S817 1.613 . S
N818 C821 1.350 . S
N819 S817 1.610 . S
N819 C820 1.351 . S
C820 C814 1.428 . S
C820 N819 1.351 . S
C820 C821 1.434 . S
C821 C812 1.429 . S
C821 N818 1.350 . S
C821 C820 1.434 . S
C822 C823 1.369 . S
C822 C824 1.419 . S
C822 H826 0.930 . S
C823 C822 1.369 . S
C823 C832 1.429 . S
C824 C822 1.419 . S
C824 C825 1.363 . S
C824 H827 0.929 . S
C825 C824 1.363 . S
C825 C831 1.428 . S
H826 C822 0.930 . S
H827 C824 0.929 . S
S828 N829 1.613 . S
S828 N830 1.610 . S
N829 S828 1.613 . S
N829 C832 1.350 . S
N830 S828 1.610 . S
N830 C831 1.351 . S
C831 C825 1.428 . S
C831 N830 1.351 . S
C831 C832 1.434 . S
C832 C823 1.429 . S
C832 N829 1.350 . S
C832 C831 1.434 . S
C833 C834 1.369 . S
C833 C835 1.419 . S
C833 H837 0.930 . S
C834 C833 1.369 . S
C834 C843 1.429 1_556 S
C835 C833 1.419 . S
C835 C836 1.363 1_556 S
C835 H838 0.929 . S
C836 C835 1.363 1_554 S
C836 C842 1.428 . S
H837 C833 0.930 . S
H838 C835 0.929 . S
S839 N840 1.613 . S
S839 N841 1.610 . S
N840 S839 1.613 . S
N840 C843 1.350 . S
N841 S839 1.610 . S
N841 C842 1.351 . S
C842 C836 1.428 . S
C842 N841 1.351 . S
C842 C843 1.434 . S
C843 C834 1.429 1_554 S
C843 N840 1.350 . S
C843 C842 1.434 . S
C844 C845 1.369 . S
C844 C846 1.419 . S
C844 H848 0.930 . S
C845 C844 1.369 . S
C845 C854 1.429 . S
C846 C844 1.419 . S
C846 C847 1.363 . S
C846 H849 0.929 . S
C847 C846 1.363 . S
C847 C853 1.428 . S
H848 C844 0.930 . S
H849 C846 0.929 . S
S850 N851 1.613 . S
S850 N852 1.610 . S
N851 S850 1.613 . S
N851 C854 1.350 . S
N852 S850 1.610 . S
N852 C853 1.351 . S
C853 C847 1.428 . S
C853 N852 1.351 . S
C853 C854 1.434 . S
C854 C845 1.429 . S
C854 N851 1.350 . S
C854 C853 1.434 . S
C855 C856 1.369 . S
C855 C857 1.419 . S
C855 H859 0.930 . S
C856 C855 1.369 . S
C856 C865 1.429 . S
C857 C855 1.419 . S
C857 C858 1.363 . S
C857 H860 0.929 . S
C858 C857 1.363 . S
C858 C864 1.428 . S
H859 C855 0.930 . S
H860 C857 0.929 . S
S861 N862 1.613 . S
S861 N863 1.610 . S
N862 S861 1.613 . S
N862 C865 1.350 . S
N863 S861 1.610 . S
N863 C864 1.351 . S
C864 C858 1.428 . S
C864 N863 1.351 . S
C864 C865 1.434 . S
C865 C856 1.429 . S
C865 N862 1.350 . S
C865 C864 1.434 . S
C866 C867 1.369 . S
C866 C868 1.419 . S
C866 H870 0.930 . S
C867 C866 1.369 . S
C867 C876 1.429 . S
C868 C866 1.419 . S
C868 C869 1.363 . S
C868 H871 0.929 . S
C869 C868 1.363 . S
C869 C875 1.428 . S
H870 C866 0.930 . S
H871 C868 0.929 . S
S872 N873 1.613 . S
S872 N874 1.610 . S
N873 S872 1.613 . S
N873 C876 1.350 . S
N874 S872 1.610 . S
N874 C875 1.351 . S
C875 C869 1.428 . S
C875 N874 1.351 . S
C875 C876 1.434 . S
C876 C867 1.429 . S
C876 N873 1.350 . S
C876 C875 1.434 . S
C877 C878 1.369 1_545 S
C877 C879 1.419 1_545 S
C877 H881 0.930 . S
C878 C877 1.369 1_565 S
C878 C887 1.429 . S
C879 C877 1.419 1_565 S
C879 C880 1.363 . S
C879 H882 0.929 . S
C880 C879 1.363 . S
C880 C886 1.428 . S
H881 C877 0.930 . S
H882 C879 0.929 . S
S883 N884 1.613 . S
S883 N885 1.610 . S
N884 S883 1.613 . S
N884 C887 1.350 . S
N885 S883 1.610 . S
N885 C886 1.351 . S
C886 C880 1.428 . S
C886 N885 1.351 . S
C886 C887 1.434 . S
C887 C878 1.429 . S
C887 N884 1.350 . S
C887 C886 1.434 . S
C888 C889 1.369 . S
C888 C890 1.419 . S
C888 H892 0.930 . S
C889 C888 1.369 . S
C889 C898 1.429 . S
C890 C888 1.419 . S
C890 C891 1.363 . S
C890 H893 0.929 . S
C891 C890 1.363 . S
C891 C897 1.428 . S
H892 C888 0.930 . S
H893 C890 0.929 . S
S894 N895 1.613 . S
S894 N896 1.610 . S
N895 S894 1.613 . S
N895 C898 1.350 . S
N896 S894 1.610 . S
N896 C897 1.351 . S
C897 C891 1.428 . S
C897 N896 1.351 . S
C897 C898 1.434 . S
C898 C889 1.429 . S
C898 N895 1.350 . S
C898 C897 1.434 . S
C899 C900 1.369 . S
C899 C901 1.419 . S
C899 H903 0.930 . S
C900 C899 1.369 . S
C900 C909 1.429 . S
C901 C899 1.419 . S
C901 C902 1.363 . S
C901 H904 0.929 . S
C902 C901 1.363 . S
C902 C908 1.428 . S
H903 C899 0.930 . S
H904 C901 0.929 . S
S905 N906 1.613 . S
S905 N907 1.610 . S
N906 S905 1.613 . S
N906 C909 1.350 . S
N907 S905 1.610 . S
N907 C908 1.351 . S
C908 C902 1.428 . S
C908 N907 1.351 . S
C908 C909 1.434 . S
C909 C900 1.429 . S
C909 N906 1.350 . S
C909 C908 1.434 . S
C910 C911 1.369 . S
C910 C912 1.419 . S
C910 H914 0.930 . S
C911 C910 1.369 . S
C911 C920 1.429 . S
C912 C910 1.419 . S
C912 C913 1.363 . S
C912 H915 0.929 . S
C913 C912 1.363 . S
C913 C919 1.428 . S
H914 C910 0.930 . S
H915 C912 0.929 . S
S916 N917 1.613 . S
S916 N918 1.610 . S
N917 S916 1.613 . S
N917 C920 1.350 . S
N918 S916 1.610 . S
N918 C919 1.351 . S
C919 C913 1.428 . S
C919 N918 1.351 . S
C919 C920 1.434 . S
C920 C911 1.429 . S
C920 N917 1.350 . S
C920 C919 1.434 . S
C921 C922 1.369 . S
C921 C923 1.419 . S
C921 H925 0.930 . S
C922 C921 1.369 . S
C922 C931 1.429 . S
C923 C921 1.419 . S
C923 C924 1.363 . S
C923 H926 0.929 . S
C924 C923 1.363 . S
C924 C930 1.428 . S
H925 C921 0.930 . S
H926 C923 0.929 . S
S927 N928 1.613 . S
S927 N929 1.610 . S
N928 S927 1.613 . S
N928 C931 1.350 . S
N929 S927 1.610 . S
N929 C930 1.351 . S
C930 C924 1.428 . S
C930 N929 1.351 . S
C930 C931 1.434 . S
C931 C922 1.429 . S
C931 N928 1.350 . S
C931 C930 1.434 . S
C932 C933 1.369 1_556 S
C932 C934 1.419 1_556 S
C932 H936 0.930 . S
C933 C932 1.369 1_554 S
C933 C942 1.429 . S
C934 C932 1.419 1_554 S
C934 C935 1.363 . S
C934 H937 0.929 . S
C935 C934 1.363 . S
C935 C941 1.428 . S
H936 C932 0.930 . S
H937 C934 0.929 . S
S938 N939 1.613 . S
S938 N940 1.610 . S
N939 S938 1.613 . S
N939 C942 1.350 . S
N940 S938 1.610 . S
N940 C941 1.351 . S
C941 C935 1.428 . S
C941 N940 1.351 . S
C941 C942 1.434 . S
C942 C933 1.429 . S
C942 N939 1.350 . S
C942 C941 1.434 . S
C943 C944 1.369 . S
C943 C945 1.419 . S
C943 H947 0.930 . S
C944 C943 1.369 . S
C944 C953 1.429 . S
C945 C943 1.419 . S
C945 C946 1.363 . S
C945 H948 0.929 . S
C946 C945 1.363 . S
C946 C952 1.428 . S
H947 C943 0.930 . S
H948 C945 0.929 . S
S949 N950 1.613 . S
S949 N951 1.610 . S
N950 S949 1.613 . S
N950 C953 1.350 . S
N951 S949 1.610 . S
N951 C952 1.351 . S
C952 C946 1.428 . S
C952 N951 1.351 . S
C952 C953 1.434 . S
C953 C944 1.429 . S
C953 N950 1.350 . S
C953 C952 1.434 . S
C954 C955 1.369 . S
C954 C956 1.419 . S
C954 H958 0.930 . S
C955 C954 1.369 . S
C955 C964 1.429 . S
C956 C954 1.419 . S
C956 C957 1.363 . S
C956 H959 0.929 . S
C957 C956 1.363 . S
C957 C963 1.428 . S
H958 C954 0.930 . S
H959 C956 0.929 . S
S960 N961 1.613 . S
S960 N962 1.610 . S
N961 S960 1.613 . S
N961 C964 1.350 . S
N962 S960 1.610 . S
N962 C963 1.351 . S
C963 C957 1.428 . S
C963 N962 1.351 . S
C963 C964 1.434 . S
C964 C955 1.429 . S
C964 N961 1.350 . S
C964 C963 1.434 . S
C965 C966 1.369 . S
C965 C967 1.419 . S
C965 H969 0.930 . S
C966 C965 1.369 . S
C966 C975 1.429 . S
C967 C965 1.419 . S
C967 C968 1.363 . S
C967 H970 0.929 . S
C968 C967 1.363 . S
C968 C974 1.428 . S
H969 C965 0.930 . S
H970 C967 0.929 . S
S971 N972 1.613 . S
S971 N973 1.610 . S
N972 S971 1.613 . S
N972 C975 1.350 . S
N973 S971 1.610 . S
N973 C974 1.351 . S
C974 C968 1.428 . S
C974 N973 1.351 . S
C974 C975 1.434 . S
C975 C966 1.429 . S
C975 N972 1.350 . S
C975 C974 1.434 . S
C976 C977 1.369 . S
C976 C978 1.419 . S
C976 H980 0.930 . S
C977 C976 1.369 . S
C977 C986 1.429 . S
C978 C976 1.419 . S
C978 C979 1.363 . S
C978 H981 0.929 . S
C979 C978 1.363 . S
C979 C985 1.428 . S
H980 C976 0.930 . S
H981 C978 0.929 . S
S982 N983 1.613 . S
S982 N984 1.610 . S
N983 S982 1.613 . S
N983 C986 1.350 . S
N984 S982 1.610 . S
N984 C985 1.351 . S
C985 C979 1.428 . S
C985 N984 1.351 . S
C985 C986 1.434 . S
C986 C977 1.429 . S
C986 N983 1.350 . S
C986 C985 1.434 . S
C987 C988 1.369 . S
C987 C989 1.419 1_554 S
C987 H991 0.928 1_554 S
C988 C987 1.369 . S
C988 C997 1.429 . S
C989 C987 1.419 1_556 S
C989 C990 1.363 . S
C989 H992 0.929 . S
C990 C989 1.363 . S
C990 C996 1.428 1_556 S
H991 C987 0.928 1_556 S
H992 C989 0.929 . S
S993 N994 1.613 . S
S993 N995 1.610 . S
N994 S993 1.613 . S
N994 C997 1.350 . S
N995 S993 1.610 . S
N995 C996 1.351 . S
C996 C990 1.428 1_554 S
C996 N995 1.351 . S
C996 C997 1.434 . S
C997 C988 1.429 . S
C997 N994 1.350 . S
C997 C996 1.434 . S
C998 C999 1.369 . S
C998 C1000 1.419 . S
C998 H1002 0.930 . S
C999 C998 1.369 . S
C999 C1008 1.429 . S
C1000 C998 1.419 . S
C1000 C1001 1.363 . S
C1000 H1003 0.929 . S
C1001 C1000 1.363 . S
C1001 C1007 1.428 . S
H1002 C998 0.930 . S
H1003 C1000 0.929 . S
S1004 N1005 1.613 . S
S1004 N1006 1.610 . S
N1005 S1004 1.613 . S
N1005 C1008 1.350 . S
N1006 S1004 1.610 . S
N1006 C1007 1.351 . S
C1007 C1001 1.428 . S
C1007 N1006 1.351 . S
C1007 C1008 1.434 . S
C1008 C999 1.429 . S
C1008 N1005 1.350 . S
C1008 C1007 1.434 . S
C1009 C1010 1.369 . S
C1009 C1011 1.419 . S
C1009 H1013 0.930 . S
C1010 C1009 1.369 . S
C1010 C1019 1.429 . S
C1011 C1009 1.419 . S
C1011 C1012 1.363 . S
C1011 H1014 0.929 . S
C1012 C1011 1.363 . S
C1012 C1018 1.428 . S
H1013 C1009 0.930 . S
H1014 C1011 0.929 . S
S1015 N1016 1.613 . S
S1015 N1017 1.610 . S
N1016 S1015 1.613 . S
N1016 C1019 1.350 . S
N1017 S1015 1.610 . S
N1017 C1018 1.351 . S
C1018 C1012 1.428 . S
C1018 N1017 1.351 . S
C1018 C1019 1.434 . S
C1019 C1010 1.429 . S
C1019 N1016 1.350 . S
C1019 C1018 1.434 . S
C1020 C1021 1.369 . S
C1020 C1022 1.419 . S
C1020 H1024 0.930 . S
C1021 C1020 1.369 . S
C1021 C1030 1.429 . S
C1022 C1020 1.419 . S
C1022 C1023 1.363 . S
C1022 H1025 0.929 . S
C1023 C1022 1.363 . S
C1023 C1029 1.428 . S
H1024 C1020 0.930 . S
H1025 C1022 0.929 . S
S1026 N1027 1.613 . S
S1026 N1028 1.610 . S
N1027 S1026 1.613 . S
N1027 C1030 1.350 . S
N1028 S1026 1.610 . S
N1028 C1029 1.351 . S
C1029 C1023 1.428 . S
C1029 N1028 1.351 . S
C1029 C1030 1.434 . S
C1030 C1021 1.429 . S
C1030 N1027 1.350 . S
C1030 C1029 1.434 . S
C1031 C1032 1.369 . S
C1031 C1033 1.419 . S
C1031 H1035 0.930 . S
C1032 C1031 1.369 . S
C1032 C1041 1.429 . S
C1033 C1031 1.419 . S
C1033 C1034 1.363 . S
C1033 H1036 0.929 . S
C1034 C1033 1.363 . S
C1034 C1040 1.428 . S
H1035 C1031 0.930 . S
H1036 C1033 0.929 . S
S1037 N1038 1.613 . S
S1037 N1039 1.610 . S
N1038 S1037 1.613 . S
N1038 C1041 1.350 . S
N1039 S1037 1.610 . S
N1039 C1040 1.351 . S
C1040 C1034 1.428 . S
C1040 N1039 1.351 . S
C1040 C1041 1.434 . S
C1041 C1032 1.429 . S
C1041 N1038 1.350 . S
C1041 C1040 1.434 . S
C1042 C1043 1.369 . S
C1042 C1044 1.419 . S
C1042 H1046 0.930 . S
C1043 C1042 1.369 . S
C1043 C1052 1.429 1_556 S
C1044 C1042 1.419 . S
C1044 C1045 1.363 . S
C1044 H1047 0.929 . S
C1045 C1044 1.363 . S
C1045 C1051 1.428 1_556 S
H1046 C1042 0.930 . S
H1047 C1044 0.929 . S
S1048 N1049 1.613 . S
S1048 N1050 1.610 . S
N1049 S1048 1.613 . S
N1049 C1052 1.350 . S
N1050 S1048 1.610 . S
N1050 C1051 1.351 . S
C1051 C1045 1.428 1_554 S
C1051 N1050 1.351 . S
C1051 C1052 1.434 . S
C1052 C1043 1.429 1_554 S
C1052 N1049 1.350 . S
C1052 C1051 1.434 . S
C1053 C1054 1.369 . S
C1053 C1055 1.419 . S
C1053 H1057 0.930 . S
C1054 C1053 1.369 . S
C1054 C1063 1.429 . S
C1055 C1053 1.419 . S
C1055 C1056 1.363 . S
C1055 H1058 0.929 . S
C1056 C1055 1.363 . S
C1056 C1062 1.428 . S
H1057 C1053 0.930 . S
H1058 C1055 0.929 . S
S1059 N1060 1.613 . S
S1059 N1061 1.610 . S
N1060 S1059 1.613 . S
N1060 C1063 1.350 . S
N1061 S1059 1.610 . S
N1061 C1062 1.351 . S
C1062 C1056 1.428 . S
C1062 N1061 1.351 . S
C1062 C1063 1.434 . S
C1063 C1054 1.429 . S
C1063 N1060 1.350 . S
C1063 C1062 1.434 . S
C1064 C1065 1.369 . S
C1064 C1066 1.419 . S
C1064 H1068 0.930 . S
C1065 C1064 1.369 . S
C1065 C1074 1.429 . S
C1066 C1064 1.419 . S
C1066 C1067 1.363 . S
C1066 H1069 0.929 . S
C1067 C1066 1.363 . S
C1067 C1073 1.428 . S
H1068 C1064 0.930 . S
H1069 C1066 0.929 . S
S1070 N1071 1.613 . S
S1070 N1072 1.610 . S
N1071 S1070 1.613 . S
N1071 C1074 1.350 . S
N1072 S1070 1.610 . S
N1072 C1073 1.351 . S
C1073 C1067 1.428 . S
C1073 N1072 1.351 . S
C1073 C1074 1.434 . S
C1074 C1065 1.429 . S
C1074 N1071 1.350 . S
C1074 C1073 1.434 . S
C1075 C1076 1.369 . S
C1075 C1077 1.419 . S
C1075 H1079 0.930 . S
C1076 C1075 1.369 . S
C1076 C1085 1.429 1_655 S
C1077 C1075 1.419 . S
C1077 C1078 1.363 1_655 S
C1077 H1080 0.929 . S
C1078 C1077 1.363 1_455 S
C1078 C1084 1.428 . S
H1079 C1075 0.930 . S
H1080 C1077 0.929 . S
S1081 N1082 1.613 . S
S1081 N1083 1.610 . S
N1082 S1081 1.613 . S
N1082 C1085 1.350 . S
N1083 S1081 1.610 . S
N1083 C1084 1.351 . S
C1084 C1078 1.428 . S
C1084 N1083 1.351 . S
C1084 C1085 1.434 . S
C1085 C1076 1.429 1_455 S
C1085 N1082 1.350 . S
C1085 C1084 1.434 . S
C1086 C1087 1.369 . S
C1086 C1088 1.419 . S
C1086 H1090 0.930 . S
C1087 C1086 1.369 . S
C1087 C1096 1.429 . S
C1088 C1086 1.419 . S
C1088 C1089 1.363 . S
C1088 H1091 0.929 . S
C1089 C1088 1.363 . S
C1089 C1095 1.428 . S
H1090 C1086 0.930 . S
H1091 C1088 0.929 . S
S1092 N1093 1.613 . S
S1092 N1094 1.610 . S
N1093 S1092 1.613 . S
N1093 C1096 1.350 . S
N1094 S1092 1.610 . S
N1094 C1095 1.351 . S
C1095 C1089 1.428 . S
C1095 N1094 1.351 . S
C1095 C1096 1.434 . S
C1096 C1087 1.429 . S
C1096 N1093 1.350 . S
C1096 C1095 1.434 . S
C1097 C1098 1.369 . S
C1097 C1099 1.419 . S
C1097 H1101 0.930 . S
C1098 C1097 1.369 . S
C1098 C1107 1.429 . S
C1099 C1097 1.419 . S
C1099 C1100 1.363 . S
C1099 H1102 0.929 . S
C1100 C1099 1.363 . S
C1100 C1106 1.428 . S
H1101 C1097 0.930 . S
H1102 C1099 0.929 . S
S1103 N1104 1.613 . S
S1103 N1105 1.610 . S
N1104 S1103 1.613 . S
N1104 C1107 1.350 . S
N1105 S1103 1.610 . S
N1105 C1106 1.351 . S
C1106 C1100 1.428 . S
C1106 N1105 1.351 . S
C1106 C1107 1.434 . S
C1107 C1098 1.429 . S
C1107 N1104 1.350 . S
C1107 C1106 1.434 . S
C1108 C1109 1.369 . S
C1108 C1110 1.419 . S
C1108 H1112 0.930 . S
C1109 C1108 1.369 . S
C1109 C1118 1.429 . S
C1110 C1108 1.419 . S
C1110 C1111 1.363 . S
C1110 H1113 0.929 . S
C1111 C1110 1.363 . S
C1111 C1117 1.428 . S
H1112 C1108 0.930 . S
H1113 C1110 0.929 . S
S1114 N1115 1.613 . S
S1114 N1116 1.610 . S
N1115 S1114 1.613 . S
N1115 C1118 1.350 . S
N1116 S1114 1.610 . S
N1116 C1117 1.351 . S
C1117 C1111 1.428 . S
C1117 N1116 1.351 . S
C1117 C1118 1.434 . S
C1118 C1109 1.429 . S
C1118 N1115 1.350 . S
C1118 C1117 1.434 . S
C1119 C1120 1.369 . S
C1119 C1121 1.419 . S
C1119 H1123 0.930 . S
C1120 C1119 1.369 . S
C1120 C1129 1.429 . S
C1121 C1119 1.419 . S
C1121 C1122 1.363 . S
C1121 H1124 0.929 . S
C1122 C1121 1.363 . S
C1122 C1128 1.428 . S
H1123 C1119 0.930 . S
H1124 C1121 0.929 . S
S1125 N1126 1.613 . S
S1125 N1127 1.610 . S
N1126 S1125 1.613 . S
N1126 C1129 1.350 . S
N1127 S1125 1.610 . S
N1127 C1128 1.351 . S
C1128 C1122 1.428 . S
C1128 N1127 1.351 . S
C1128 C1129 1.434 . S
C1129 C1120 1.429 . S
C1129 N1126 1.350 . S
C1129 C1128 1.434 . S
C1130 C1131 1.369 . S
C1130 C1132 1.419 . S
C1130 H1134 0.930 . S
C1131 C1130 1.369 . S
C1131 C1140 1.429 . S
C1132 C1130 1.419 . S
C1132 C1133 1.363 . S
C1132 H1135 0.929 . S
C1133 C1132 1.363 . S
C1133 C1139 1.428 . S
H1134 C1130 0.930 . S
H1135 C1132 0.929 . S
S1136 N1137 1.613 . S
S1136 N1138 1.610 1_455 S
N1137 S1136 1.613 . S
N1137 C1140 1.350 1_455 S
N1138 S1136 1.610 1_655 S
N1138 C1139 1.351 . S
C1139 C1133 1.428 . S
C1139 N1138 1.351 . S
C1139 C1140 1.434 . S
C1140 C1131 1.429 . S
C1140 N1137 1.350 1_655 S
C1140 C1139 1.434 . S
C1141 C1142 1.369 . S
C1141 C1143 1.419 . S
C1141 H1145 0.930 . S
C1142 C1141 1.369 . S
C1142 C1151 1.429 . S
C1143 C1141 1.419 . S
C1143 C1144 1.363 . S
C1143 H1146 0.929 . S
C1144 C1143 1.363 . S
C1144 C1150 1.428 . S
H1145 C1141 0.930 . S
H1146 C1143 0.929 . S
S1147 N1148 1.613 . S
S1147 N1149 1.610 . S
N1148 S1147 1.613 . S
N1148 C1151 1.350 . S
N1149 S1147 1.610 . S
N1149 C1150 1.351 . S
C1150 C1144 1.428 . S
C1150 N1149 1.351 . S
C1150 C1151 1.434 . S
C1151 C1142 1.429 . S
C1151 N1148 1.350 . S
C1151 C1150 1.434 . S
C1152 C1153 1.369 . S
C1152 C1154 1.419 . S
C1152 H1156 0.930 . S
C1153 C1152 1.369 . S
C1153 C1162 1.429 . S
C1154 C1152 1.419 . S
C1154 C1155 1.363 . S
C1154 H1157 0.929 . S
C1155 C1154 1.363 . S
C1155 C1161 1.428 . S
H1156 C1152 0.930 . S
H1157 C1154 0.929 . S
S1158 N1159 1.613 . S
S1158 N1160 1.610 . S
N1159 S1158 1.613 . S
N1159 C1162 1.350 . S
N1160 S1158 1.610 . S
N1160 C1161 1.351 . S
C1161 C1155 1.428 . S
C1161 N1160 1.351 . S
C1161 C1162 1.434 . S
C1162 C1153 1.429 . S
C1162 N1159 1.350 . S
C1162 C1161 1.434 . S
C1163 C1164 1.369 . S
C1163 C1165 1.419 . S
C1163 H1167 0.930 . S
C1164 C1163 1.369 . S
C1164 C1173 1.429 . S
C1165 C1163 1.419 . S
C1165 C1166 1.363 . S
C1165 H1168 0.929 . S
C1166 C1165 1.363 . S
C1166 C1172 1.428 . S
H1167 C1163 0.930 . S
H1168 C1165 0.929 . S
S1169 N1170 1.613 . S
S1169 N1171 1.610 . S
N1170 S1169 1.613 . S
N1170 C1173 1.350 . S
N1171 S1169 1.610 . S
N1171 C1172 1.351 . S
C1172 C1166 1.428 . S
C1172 N1171 1.351 . S
C1172 C1173 1.434 . S
C1173 C1164 1.429 . S
C1173 N1170 1.350 . S
C1173 C1172 1.434 . S
C1174 C1175 1.369 . S
C1174 C1176 1.419 . S
C1174 H1178 0.930 . S
C1175 C1174 1.369 . S
C1175 C1184 1.429 . S
C1176 C1174 1.419 . S
C1176 C1177 1.363 . S
C1176 H1179 0.929 . S
C1177 C1176 1.363 . S
C1177 C1183 1.428 . S
H1178 C1174 0.930 . S
H1179 C1176 0.929 . S
S1180 N1181 1.613 . S
S1180 N1182 1.610 . S
N1181 S1180 1.613 . S
N1181 C1184 1.350 . S
N1182 S1180 1.610 . S
N1182 C1183 1.351 . S
C1183 C1177 1.428 . S
C1183 N1182 1.351 . S
C1183 C1184 1.434 . S
C1184 C1175 1.429 . S
C1184 N1181 1.350 . S
C1184 C1183 1.434 . S
C1185 C1186 1.369 . S
C1185 C1187 1.419 . S
C1185 H1189 0.930 . S
C1186 C1185 1.369 . S
C1186 C1195 1.429 . S
C1187 C1185 1.419 . S
C1187 C1188 1.363 . S
C1187 H1190 0.929 . S
C1188 C1187 1.363 . S
C1188 C1194 1.428 . S
H1189 C1185 0.930 . S
H1190 C1187 0.929 . S
S1191 N1192 1.613 . S
S1191 N1193 1.610 . S
N1192 S1191 1.613 . S
N1192 C1195 1.350 1_554 S
N1193 S1191 1.610 . S
N1193 C1194 1.351 1_554 S
C1194 C1188 1.428 . S
C1194 N1193 1.351 1_556 S
C1194 C1195 1.434 . S
C1195 C1186 1.429 . S
C1195 N1192 1.350 1_556 S
C1195 C1194 1.434 . S
C1196 C1197 1.369 . S
C1196 C1198 1.419 . S
C1196 H1200 0.930 . S
C1197 C1196 1.369 . S
C1197 C1206 1.429 . S
C1198 C1196 1.419 . S
C1198 C1199 1.363 . S
C1198 H1201 0.929 . S
C1199 C1198 1.363 . S
C1199 C1205 1.428 . S
H1200 C1196 0.930 . S
H1201 C1198 0.929 . S
S1202 N1203 1.613 . S
S1202 N1204 1.610 . S
N1203 S1202 1.613 . S
N1203 C1206 1.350 . S
N1204 S1202 1.610 . S
N1204 C1205 1.351 . S
C1205 C1199 1.428 . S
C1205 N1204 1.351 . S
C1205 C1206 1.434 . S
C1206 C1197 1.429 . S
C1206 N1203 1.350 . S
C1206 C1205 1.434 . S
C1207 C1208 1.369 . S
C1207 C1209 1.419 . S
C1207 H1211 0.930 . S
C1208 C1207 1.369 . S
C1208 C1217 1.429 . S
C1209 C1207 1.419 . S
C1209 C1210 1.363 . S
C1209 H1212 0.929 . S
C1210 C1209 1.363 . S
C1210 C1216 1.428 . S
H1211 C1207 0.930 . S
H1212 C1209 0.929 . S
S1213 N1214 1.613 1_556 S
S1213 N1215 1.611 . S
N1214 S1213 1.613 1_554 S
N1214 C1217 1.350 . S
N1215 S1213 1.611 . S
N1215 C1216 1.348 1_556 S
C1216 C1210 1.428 . S
C1216 N1215 1.348 1_554 S
C1216 C1217 1.434 . S
C1217 C1208 1.429 . S
C1217 N1214 1.350 . S
C1217 C1216 1.434 . S
C1218 C1219 1.369 . S
C1218 C1220 1.419 . S
C1218 H1222 0.930 . S
C1219 C1218 1.369 . S
C1219 C1228 1.429 . S
C1220 C1218 1.419 . S
C1220 C1221 1.363 . S
C1220 H1223 0.929 . S
C1221 C1220 1.363 . S
C1221 C1227 1.428 . S
H1222 C1218 0.930 . S
H1223 C1220 0.929 . S
S1224 N1225 1.613 . S
S1224 N1226 1.610 1_565 S
N1225 S1224 1.613 . S
N1225 C1228 1.350 1_565 S
N1226 S1224 1.610 1_545 S
N1226 C1227 1.351 . S
C1227 C1221 1.428 . S
C1227 N1226 1.351 . S
C1227 C1228 1.434 . S
C1228 C1219 1.429 . S
C1228 N1225 1.350 1_545 S
C1228 C1227 1.434 . S
C1229 C1230 1.369 . S
C1229 C1231 1.419 . S
C1229 H1233 0.930 . S
C1230 C1229 1.369 . S
C1230 C1239 1.429 . S
C1231 C1229 1.419 . S
C1231 C1232 1.363 . S
C1231 H1234 0.929 . S
C1232 C1231 1.363 . S
C1232 C1238 1.428 . S
H1233 C1229 0.930 . S
H1234 C1231 0.929 . S
S1235 N1236 1.613 . S
S1235 N1237 1.610 . S
N1236 S1235 1.613 . S
N1236 C1239 1.350 . S
N1237 S1235 1.610 . S
N1237 C1238 1.351 . S
C1238 C1232 1.428 . S
C1238 N1237 1.351 . S
C1238 C1239 1.434 . S
C1239 C1230 1.429 . S
C1239 N1236 1.350 . S
C1239 C1238 1.434 . S
C1240 C1241 1.369 . S
C1240 C1242 1.419 . S
C1240 H1244 0.930 . S
C1241 C1240 1.369 . S
C1241 C1250 1.429 . S
C1242 C1240 1.419 . S
C1242 C1243 1.363 . S
C1242 H1245 0.929 . S
C1243 C1242 1.363 . S
C1243 C1249 1.428 . S
H1244 C1240 0.930 . S
H1245 C1242 0.929 . S
S1246 N1247 1.613 . S
S1246 N1248 1.610 . S
N1247 S1246 1.613 . S
N1247 C1250 1.350 . S
N1248 S1246 1.610 . S
N1248 C1249 1.351 . S
C1249 C1243 1.428 . S
C1249 N1248 1.351 . S
C1249 C1250 1.434 . S
C1250 C1241 1.429 . S
C1250 N1247 1.350 . S
C1250 C1249 1.434 . S
C1251 C1252 1.369 . S
C1251 C1253 1.419 . S
C1251 H1255 0.930 . S
C1252 C1251 1.369 . S
C1252 C1261 1.429 . S
C1253 C1251 1.419 . S
C1253 C1254 1.363 . S
C1253 H1256 0.929 . S
C1254 C1253 1.363 . S
C1254 C1260 1.428 . S
H1255 C1251 0.930 . S
H1256 C1253 0.929 . S
S1257 N1258 1.613 . S
S1257 N1259 1.610 . S
N1258 S1257 1.613 . S
N1258 C1261 1.350 . S
N1259 S1257 1.610 . S
N1259 C1260 1.351 . S
C1260 C1254 1.428 . S
C1260 N1259 1.351 . S
C1260 C1261 1.434 . S
C1261 C1252 1.429 . S
C1261 N1258 1.350 . S
C1261 C1260 1.434 . S
C1262 C1263 1.369 . S
C1262 C1264 1.419 . S
C1262 H1266 0.930 . S
C1263 C1262 1.369 . S
C1263 C1272 1.429 . S
C1264 C1262 1.419 . S
C1264 C1265 1.363 . S
C1264 H1267 0.915 1_554 S
C1265 C1264 1.363 . S
C1265 C1271 1.428 . S
H1266 C1262 0.930 . S
H1267 C1264 0.915 1_556 S
S1268 N1269 1.613 . S
S1268 N1270 1.610 . S
N1269 S1268 1.613 . S
N1269 C1272 1.350 . S
N1270 S1268 1.610 . S
N1270 C1271 1.351 . S
C1271 C1265 1.428 . S
C1271 N1270 1.351 . S
C1271 C1272 1.434 . S
C1272 C1263 1.429 . S
C1272 N1269 1.350 . S
C1272 C1271 1.434 . S
C1273 C1274 1.369 . S
C1273 C1275 1.419 . S
C1273 H1277 0.930 1_545 S
C1274 C1273 1.369 . S
C1274 C1283 1.429 . S
C1275 C1273 1.419 . S
C1275 C1276 1.363 . S
C1275 H1278 0.929 . S
C1276 C1275 1.363 . S
C1276 C1282 1.428 . S
H1277 C1273 0.930 1_565 S
H1278 C1275 0.929 . S
S1279 N1280 1.613 . S
S1279 N1281 1.610 . S
N1280 S1279 1.613 . S
N1280 C1283 1.350 . S
N1281 S1279 1.610 . S
N1281 C1282 1.351 . S
C1282 C1276 1.428 . S
C1282 N1281 1.351 . S
C1282 C1283 1.434 . S
C1283 C1274 1.429 . S
C1283 N1280 1.350 . S
C1283 C1282 1.434 . S
C1284 C1285 1.369 . S
C1284 C1286 1.419 . S
C1284 H1288 0.930 . S
C1285 C1284 1.369 . S
C1285 C1294 1.429 . S
C1286 C1284 1.419 . S
C1286 C1287 1.363 . S
C1286 H1289 0.929 . S
C1287 C1286 1.363 . S
C1287 C1293 1.428 . S
H1288 C1284 0.930 . S
H1289 C1286 0.929 . S
S1290 N1291 1.613 . S
S1290 N1292 1.610 . S
N1291 S1290 1.613 . S
N1291 C1294 1.350 . S
N1292 S1290 1.610 . S
N1292 C1293 1.351 . S
C1293 C1287 1.428 . S
C1293 N1292 1.351 . S
C1293 C1294 1.434 . S
C1294 C1285 1.429 . S
C1294 N1291 1.350 . S
C1294 C1293 1.434 . S
C1295 C1296 1.369 . S
C1295 C1297 1.419 . S
C1295 H1299 0.930 . S
C1296 C1295 1.369 . S
C1296 C1305 1.429 . S
C1297 C1295 1.419 . S
C1297 C1298 1.363 . S
C1297 H1300 0.929 . S
C1298 C1297 1.363 . S
C1298 C1304 1.428 . S
H1299 C1295 0.930 . S
H1300 C1297 0.929 . S
S1301 N1302 1.613 . S
S1301 N1303 1.610 . S
N1302 S1301 1.613 . S
N1302 C1305 1.350 . S
N1303 S1301 1.610 . S
N1303 C1304 1.351 . S
C1304 C1298 1.428 . S
C1304 N1303 1.351 . S
C1304 C1305 1.434 . S
C1305 C1296 1.429 . S
C1305 N1302 1.350 . S
C1305 C1304 1.434 . S
C1306 C1307 1.372 . S
C1306 C1308 1.419 1_556 S
C1306 H1310 0.930 . S
C1307 C1306 1.372 . S
C1307 C1316 1.419 1_556 S
C1308 C1306 1.419 1_554 S
C1308 C1309 1.363 . S
C1308 H1311 0.929 . S
C1309 C1308 1.363 . S
C1309 C1315 1.428 . S
H1310 C1306 0.930 . S
H1311 C1308 0.929 . S
S1312 N1313 1.613 . S
S1312 N1314 1.610 . S
N1313 S1312 1.613 . S
N1313 C1316 1.350 . S
N1314 S1312 1.610 . S
N1314 C1315 1.351 . S
C1315 C1309 1.428 . S
C1315 N1314 1.351 . S
C1315 C1316 1.434 . S
C1316 C1307 1.419 1_554 S
C1316 N1313 1.350 . S
C1316 C1315 1.434 . S
C1317 C1318 1.369 . S
C1317 C1319 1.419 . S
C1317 H1321 0.930 . S
C1318 C1317 1.369 . S
C1318 C1327 1.429 . S
C1319 C1317 1.419 . S
C1319 C1320 1.363 . S
C1319 H1322 0.929 . S
C1320 C1319 1.363 . S
C1320 C1326 1.428 . S
H1321 C1317 0.930 . S
H1322 C1319 0.929 . S
S1323 N1324 1.613 . S
S1323 N1325 1.610 . S
N1324 S1323 1.613 . S
N1324 C1327 1.350 . S
N1325 S1323 1.610 . S
N1325 C1326 1.351 . S
C1326 C1320 1.428 . S
C1326 N1325 1.351 . S
C1326 C1327 1.434 . S
C1327 C1318 1.429 . S
C1327 N1324 1.350 . S
C1327 C1326 1.434 . S
C1328 C1329 1.369 . S
C1328 C1330 1.419 . S
C1328 H1332 0.930 . S
C1329 C1328 1.369 . S
C1329 C1338 1.429 . S
C1330 C1328 1.419 . S
C1330 C1331 1.363 . S
C1330 H1333 0.929 . S
C1331 C1330 1.363 . S
C1331 C1337 1.428 . S
H1332 C1328 0.930 . S
H1333 C1330 0.929 . S
S1334 N1335 1.613 . S
S1334 N1336 1.610 . S
N1335 S1334 1.613 . S
N1335 C1338 1.350 . S
N1336 S1334 1.610 . S
N1336 C1337 1.351 . S
C1337 C1331 1.428 . S
C1337 N1336 1.351 . S
C1337 C1338 1.434 . S
C1338 C1329 1.429 . S
C1338 N1335 1.350 . S
C1338 C1337 1.434 . S
C1339 C1340 1.369 . S
C1339 C1341 1.419 . S
C1339 H1343 0.930 . S
C1340 C1339 1.369 . S
C1340 C1349 1.429 . S
C1341 C1339 1.419 . S
C1341 C1342 1.363 . S
C1341 H1344 0.929 . S
C1342 C1341 1.363 . S
C1342 C1348 1.428 . S
H1343 C1339 0.930 . S
H1344 C1341 0.929 . S
S1345 N1346 1.613 . S
S1345 N1347 1.611 1_655 S
N1346 S1345 1.613 . S
N1346 C1349 1.350 1_655 S
N1347 S1345 1.611 1_455 S
N1347 C1348 1.351 . S
C1348 C1342 1.428 . S
C1348 N1347 1.351 . S
C1348 C1349 1.434 . S
C1349 C1340 1.429 . S
C1349 N1346 1.350 1_455 S
C1349 C1348 1.434 . S
C1350 C1351 1.369 . S
C1350 C1352 1.419 . S
C1350 H1354 0.930 . S
C1351 C1350 1.369 . S
C1351 C1360 1.429 . S
C1352 C1350 1.419 . S
C1352 C1353 1.363 . S
C1352 H1355 0.929 . S
C1353 C1352 1.363 . S
C1353 C1359 1.428 . S
H1354 C1350 0.930 . S
H1355 C1352 0.929 . S
S1356 N1357 1.613 . S
S1356 N1358 1.610 . S
N1357 S1356 1.613 . S
N1357 C1360 1.350 . S
N1358 S1356 1.610 . S
N1358 C1359 1.351 . S
C1359 C1353 1.428 . S
C1359 N1358 1.351 . S
C1359 C1360 1.434 . S
C1360 C1351 1.429 . S
C1360 N1357 1.350 . S
C1360 C1359 1.434 . S
C1361 C1362 1.369 . S
C1361 C1363 1.419 . S
C1361 H1365 0.930 . S
C1362 C1361 1.369 . S
C1362 C1371 1.429 . S
C1363 C1361 1.419 . S
C1363 C1364 1.363 . S
C1363 H1366 0.929 . S
C1364 C1363 1.363 . S
C1364 C1370 1.428 . S
H1365 C1361 0.930 . S
H1366 C1363 0.929 . S
S1367 N1368 1.613 . S
S1367 N1369 1.610 . S
N1368 S1367 1.613 . S
N1368 C1371 1.350 . S
N1369 S1367 1.610 . S
N1369 C1370 1.351 . S
C1370 C1364 1.428 . S
C1370 N1369 1.351 . S
C1370 C1371 1.434 . S
C1371 C1362 1.429 . S
C1371 N1368 1.350 . S
C1371 C1370 1.434 . S
C1372 C1373 1.369 . S
C1372 C1374 1.419 . S
C1372 H1376 0.930 . S
C1373 C1372 1.369 . S
C1373 C1382 1.429 . S
C1374 C1372 1.419 . S
C1374 C1375 1.363 . S
C1374 H1377 0.929 . S
C1375 C1374 1.363 . S
C1375 C1381 1.428 . S
H1376 C1372 0.930 . S
H1377 C1374 0.929 . S
S1378 N1379 1.613 1_655 S
S1378 N1380 1.610 1_655 S
N1379 S1378 1.613 1_455 S
N1379 C1382 1.350 . S
N1380 S1378 1.610 1_455 S
N1380 C1381 1.351 . S
C1381 C1375 1.428 . S
C1381 N1380 1.351 . S
C1381 C1382 1.434 . S
C1382 C1373 1.429 . S
C1382 N1379 1.350 . S
C1382 C1381 1.434 . S
C1383 C1384 1.369 . S
C1383 C1385 1.419 . S
C1383 H1387 0.930 . S
C1384 C1383 1.369 . S
C1384 C1393 1.429 . S
C1385 C1383 1.419 . S
C1385 C1386 1.363 . S
C1385 H1388 0.929 . S
C1386 C1385 1.363 . S
C1386 C1392 1.428 . S
H1387 C1383 0.930 . S
H1388 C1385 0.929 . S
S1389 N1390 1.613 . S
S1389 N1391 1.610 . S
N1390 S1389 1.613 . S
N1390 C1393 1.350 . S
N1391 S1389 1.610 . S
N1391 C1392 1.351 . S
C1392 C1386 1.428 . S
C1392 N1391 1.351 . S
C1392 C1393 1.434 . S
C1393 C1384 1.429 . S
C1393 N1390 1.350 . S
C1393 C1392 1.434 . S
C1394 C1395 1.369 . S
C1394 C1396 1.419 . S
C1394 H1398 0.930 . S
C1395 C1394 1.369 . S
C1395 C1404 1.429 . S
C1396 C1394 1.419 . S
C1396 C1397 1.363 . S
C1396 H1399 0.929 . S
C1397 C1396 1.363 . S
C1397 C1403 1.428 . S
H1398 C1394 0.930 . S
H1399 C1396 0.929 . S
S1400 N1401 1.613 . S
S1400 N1402 1.610 . S
N1401 S1400 1.613 . S
N1401 C1404 1.350 . S
N1402 S1400 1.610 . S
N1402 C1403 1.351 . S
C1403 C1397 1.428 . S
C1403 N1402 1.351 . S
C1403 C1404 1.434 . S
C1404 C1395 1.429 . S
C1404 N1401 1.350 . S
C1404 C1403 1.434 . S
C1405 C1406 1.369 . S
C1405 C1407 1.419 . S
C1405 H1409 0.930 . S
C1406 C1405 1.369 . S
C1406 C1415 1.429 . S
C1407 C1405 1.419 . S
C1407 C1408 1.363 . S
C1407 H1410 0.929 . S
C1408 C1407 1.363 . S
C1408 C1414 1.428 . S
H1409 C1405 0.930 . S
H1410 C1407 0.929 . S
S1411 N1412 1.613 . S
S1411 N1413 1.610 . S
N1412 S1411 1.613 . S
N1412 C1415 1.350 . S
N1413 S1411 1.610 . S
N1413 C1414 1.351 . S
C1414 C1408 1.428 . S
C1414 N1413 1.351 . S
C1414 C1415 1.434 . S
C1415 C1406 1.429 . S
C1415 N1412 1.350 . S
C1415 C1414 1.434 . S
C1416 C1417 1.369 . S
C1416 C1418 1.419 . S
C1416 H1420 0.930 . S
C1417 C1416 1.369 . S
C1417 C1426 1.429 1_556 S
C1418 C1416 1.419 . S
C1418 C1419 1.363 1_556 S
C1418 H1421 0.929 . S
C1419 C1418 1.363 1_554 S
C1419 C1425 1.428 . S
H1420 C1416 0.930 . S
H1421 C1418 0.929 . S
S1422 N1423 1.613 . S
S1422 N1424 1.610 . S
N1423 S1422 1.613 . S
N1423 C1426 1.350 . S
N1424 S1422 1.610 . S
N1424 C1425 1.351 . S
C1425 C1419 1.428 . S
C1425 N1424 1.351 . S
C1425 C1426 1.434 . S
C1426 C1417 1.429 1_554 S
C1426 N1423 1.350 . S
C1426 C1425 1.434 . S
C1427 C1428 1.369 . S
C1427 C1429 1.419 . S
C1427 H1431 0.930 . S
C1428 C1427 1.369 . S
C1428 C1437 1.429 . S
C1429 C1427 1.419 . S
C1429 C1430 1.363 . S
C1429 H1432 0.929 . S
C1430 C1429 1.363 . S
C1430 C1436 1.428 . S
H1431 C1427 0.930 . S
H1432 C1429 0.929 . S
S1433 N1434 1.613 . S
S1433 N1435 1.610 . S
N1434 S1433 1.613 . S
N1434 C1437 1.350 . S
N1435 S1433 1.610 . S
N1435 C1436 1.351 . S
C1436 C1430 1.428 . S
C1436 N1435 1.351 . S
C1436 C1437 1.434 . S
C1437 C1428 1.429 . S
C1437 N1434 1.350 . S
C1437 C1436 1.434 . S
C1438 C1439 1.369 . S
C1438 C1440 1.419 . S
C1438 H1442 0.930 . S
C1439 C1438 1.369 . S
C1439 C1448 1.429 . S
C1440 C1438 1.419 . S
C1440 C1441 1.363 . S
C1440 H1443 0.929 . S
C1441 C1440 1.363 . S
C1441 C1447 1.428 . S
H1442 C1438 0.930 . S
H1443 C1440 0.929 . S
S1444 N1445 1.613 . S
S1444 N1446 1.610 . S
N1445 S1444 1.613 . S
N1445 C1448 1.350 . S
N1446 S1444 1.610 . S
N1446 C1447 1.351 . S
C1447 C1441 1.428 . S
C1447 N1446 1.351 . S
C1447 C1448 1.434 . S
C1448 C1439 1.429 . S
C1448 N1445 1.350 . S
C1448 C1447 1.434 . S
C1449 C1450 1.369 . S
C1449 C1451 1.419 . S
C1449 H1453 0.930 . S
C1450 C1449 1.369 . S
C1450 C1459 1.429 . S
C1451 C1449 1.419 . S
C1451 C1452 1.363 . S
C1451 H1454 0.929 . S
C1452 C1451 1.363 . S
C1452 C1458 1.428 . S
H1453 C1449 0.930 . S
H1454 C1451 0.929 . S
S1455 N1456 1.613 . S
S1455 N1457 1.610 . S
N1456 S1455 1.613 . S
N1456 C1459 1.350 . S
N1457 S1455 1.610 . S
N1457 C1458 1.351 . S
C1458 C1452 1.428 . S
C1458 N1457 1.351 . S
C1458 C1459 1.434 . S
C1459 C1450 1.429 . S
C1459 N1456 1.350 . S
C1459 C1458 1.434 . S
C1460 C1461 1.369 . S
C1460 C1462 1.419 . S
C1460 H1464 0.930 . S
C1461 C1460 1.369 . S
C1461 C1470 1.429 . S
C1462 C1460 1.419 . S
C1462 C1463 1.363 . S
C1462 H1465 0.929 . S
C1463 C1462 1.363 . S
C1463 C1469 1.428 . S
H1464 C1460 0.930 . S
H1465 C1462 0.929 . S
S1466 N1467 1.613 1_565 S
S1466 N1468 1.610 . S
N1467 S1466 1.613 1_545 S
N1467 C1470 1.350 1_545 S
N1468 S1466 1.610 . S
N1468 C1469 1.351 . S
C1469 C1463 1.428 . S
C1469 N1468 1.351 . S
C1469 C1470 1.434 . S
C1470 C1461 1.429 . S
C1470 N1467 1.350 1_565 S
C1470 C1469 1.434 . S
C1471 C1472 1.369 . S
C1471 C1473 1.419 . S
C1471 H1475 0.930 . S
C1472 C1471 1.369 . S
C1472 C1481 1.429 . S
C1473 C1471 1.419 . S
C1473 C1474 1.363 . S
C1473 H1476 0.929 . S
C1474 C1473 1.363 . S
C1474 C1480 1.428 . S
H1475 C1471 0.930 . S
H1476 C1473 0.929 . S
S1477 N1478 1.613 . S
S1477 N1479 1.610 . S
N1478 S1477 1.613 . S
N1478 C1481 1.350 . S
N1479 S1477 1.610 . S
N1479 C1480 1.351 . S
C1480 C1474 1.428 . S
C1480 N1479 1.351 . S
C1480 C1481 1.434 . S
C1481 C1472 1.429 . S
C1481 N1478 1.350 . S
C1481 C1480 1.434 . S
C1482 C1483 1.369 1_556 S
C1482 C1484 1.419 . S
C1482 H1486 0.930 . S
C1483 C1482 1.369 1_554 S
C1483 C1492 1.429 . S
C1484 C1482 1.419 . S
C1484 C1485 1.363 . S
C1484 H1487 0.929 . S
C1485 C1484 1.363 . S
C1485 C1491 1.428 1_556 S
H1486 C1482 0.930 . S
H1487 C1484 0.929 . S
S1488 N1489 1.613 . S
S1488 N1490 1.610 . S
N1489 S1488 1.613 . S
N1489 C1492 1.350 . S
N1490 S1488 1.610 . S
N1490 C1491 1.351 . S
C1491 C1485 1.428 1_554 S
C1491 N1490 1.351 . S
C1491 C1492 1.434 . S
C1492 C1483 1.429 . S
C1492 N1489 1.350 . S
C1492 C1491 1.434 . S
C1493 C1494 1.369 . S
C1493 C1495 1.419 . S
C1493 H1497 0.930 . S
C1494 C1493 1.369 . S
C1494 C1503 1.429 . S
C1495 C1493 1.419 . S
C1495 C1496 1.363 . S
C1495 H1498 0.929 . S
C1496 C1495 1.363 . S
C1496 C1502 1.430 . S
H1497 C1493 0.930 . S
H1498 C1495 0.929 . S
S1499 N1500 1.604 1_554 S
S1499 N1501 1.610 . S
N1500 S1499 1.604 1_556 S
N1500 C1503 1.356 . S
N1501 S1499 1.610 . S
N1501 C1502 1.346 1_554 S
C1502 C1496 1.430 . S
C1502 N1501 1.346 1_556 S
C1502 C1503 1.437 . S
C1503 C1494 1.429 . S
C1503 N1500 1.356 . S
C1503 C1502 1.437 . S
C1504 C1505 1.369 . S
C1504 C1506 1.419 . S
C1504 H1508 0.930 . S
C1505 C1504 1.369 . S
C1505 C1514 1.429 . S
C1506 C1504 1.419 . S
C1506 C1507 1.363 . S
C1506 H1509 0.929 . S
C1507 C1506 1.363 . S
C1507 C1513 1.428 . S
H1508 C1504 0.930 . S
H1509 C1506 0.929 . S
S1510 N1511 1.613 . S
S1510 N1512 1.610 . S
N1511 S1510 1.613 . S
N1511 C1514 1.350 . S
N1512 S1510 1.610 . S
N1512 C1513 1.351 . S
C1513 C1507 1.428 . S
C1513 N1512 1.351 . S
C1513 C1514 1.434 . S
C1514 C1505 1.429 . S
C1514 N1511 1.350 . S
C1514 C1513 1.434 . S
C1515 C1516 1.369 . S
C1515 C1517 1.419 . S
C1515 H1519 0.930 . S
C1516 C1515 1.369 . S
C1516 C1525 1.429 . S
C1517 C1515 1.419 . S
C1517 C1518 1.363 . S
C1517 H1520 0.929 . S
C1518 C1517 1.363 . S
C1518 C1524 1.428 . S
H1519 C1515 0.930 . S
H1520 C1517 0.929 . S
S1521 N1522 1.613 . S
S1521 N1523 1.610 1_554 S
N1522 S1521 1.613 . S
N1522 C1525 1.350 1_554 S
N1523 S1521 1.610 1_556 S
N1523 C1524 1.351 . S
C1524 C1518 1.428 . S
C1524 N1523 1.351 . S
C1524 C1525 1.434 . S
C1525 C1516 1.429 . S
C1525 N1522 1.350 1_556 S
C1525 C1524 1.434 . S
C1526 C1527 1.369 . S
C1526 C1528 1.419 . S
C1526 H1530 0.930 . S
C1527 C1526 1.369 . S
C1527 C1536 1.429 . S
C1528 C1526 1.419 . S
C1528 C1529 1.363 . S
C1528 H1531 0.929 . S
C1529 C1528 1.363 . S
C1529 C1535 1.428 . S
H1530 C1526 0.930 . S
H1531 C1528 0.929 . S
S1532 N1533 1.613 . S
S1532 N1534 1.610 . S
N1533 S1532 1.613 . S
N1533 C1536 1.350 . S
N1534 S1532 1.610 . S
N1534 C1535 1.351 . S
C1535 C1529 1.428 . S
C1535 N1534 1.351 . S
C1535 C1536 1.434 . S
C1536 C1527 1.429 . S
C1536 N1533 1.350 . S
C1536 C1535 1.434 . S
C1537 C1538 1.369 . S
C1537 C1539 1.419 . S
C1537 H1541 0.930 . S
C1538 C1537 1.369 . S
C1538 C1547 1.429 . S
C1539 C1537 1.419 . S
C1539 C1540 1.363 . S
C1539 H1542 0.929 . S
C1540 C1539 1.363 . S
C1540 C1546 1.428 . S
H1541 C1537 0.930 . S
H1542 C1539 0.929 . S
S1543 N1544 1.613 . S
S1543 N1545 1.610 . S
N1544 S1543 1.613 . S
N1544 C1547 1.350 . S
N1545 S1543 1.610 . S
N1545 C1546 1.351 . S
C1546 C1540 1.428 . S
C1546 N1545 1.351 . S
C1546 C1547 1.434 . S
C1547 C1538 1.429 . S
C1547 N1544 1.350 . S
C1547 C1546 1.434 . S
C1548 C1549 1.369 1_455 S
C1548 C1550 1.419 . S
C1548 H1552 0.930 . S
C1549 C1548 1.369 1_655 S
C1549 C1558 1.429 . S
C1550 C1548 1.419 . S
C1550 C1551 1.363 1_455 S
C1550 H1553 0.929 . S
C1551 C1550 1.363 1_655 S
C1551 C1557 1.428 . S
H1552 C1548 0.930 . S
H1553 C1550 0.929 . S
S1554 N1555 1.613 . S
S1554 N1556 1.610 . S
N1555 S1554 1.613 . S
N1555 C1558 1.350 . S
N1556 S1554 1.610 . S
N1556 C1557 1.351 . S
C1557 C1551 1.428 . S
C1557 N1556 1.351 . S
C1557 C1558 1.434 . S
C1558 C1549 1.429 . S
C1558 N1555 1.350 . S
C1558 C1557 1.434 . S
C1559 C1560 1.369 . S
C1559 C1561 1.419 . S
C1559 H1563 0.930 . S
C1560 C1559 1.369 . S
C1560 C1569 1.429 . S
C1561 C1559 1.419 . S
C1561 C1562 1.363 . S
C1561 H1564 0.929 . S
C1562 C1561 1.363 . S
C1562 C1568 1.428 . S
H1563 C1559 0.930 . S
H1564 C1561 0.929 . S
S1565 N1566 1.613 . S
S1565 N1567 1.610 . S
N1566 S1565 1.613 . S
N1566 C1569 1.350 . S
N1567 S1565 1.610 . S
N1567 C1568 1.351 . S
C1568 C1562 1.428 . S
C1568 N1567 1.351 . S
C1568 C1569 1.434 . S
C1569 C1560 1.429 . S
C1569 N1566 1.350 . S
C1569 C1568 1.434 . S
C1570 C1571 1.369 . S
C1570 C1572 1.419 . S
C1570 H1574 0.930 . S
C1571 C1570 1.369 . S
C1571 C1580 1.429 . S
C1572 C1570 1.419 . S
C1572 C1573 1.363 . S
C1572 H1575 0.929 1_655 S
C1573 C1572 1.363 . S
C1573 C1579 1.428 . S
H1574 C1570 0.930 . S
H1575 C1572 0.929 1_455 S
S1576 N1577 1.613 . S
S1576 N1578 1.610 . S
N1577 S1576 1.613 . S
N1577 C1580 1.350 . S
N1578 S1576 1.610 . S
N1578 C1579 1.351 . S
C1579 C1573 1.428 . S
C1579 N1578 1.351 . S
C1579 C1580 1.434 . S
C1580 C1571 1.429 . S
C1580 N1577 1.350 . S
C1580 C1579 1.434 . S
C1581 C1582 1.369 . S
C1581 C1583 1.419 . S
C1581 H1585 0.930 . S
C1582 C1581 1.369 . S
C1582 C1591 1.429 . S
C1583 C1581 1.419 . S
C1583 C1584 1.363 . S
C1583 H1586 0.929 . S
C1584 C1583 1.363 . S
C1584 C1590 1.428 . S
H1585 C1581 0.930 . S
H1586 C1583 0.929 . S
S1587 N1588 1.613 . S
S1587 N1589 1.610 . S
N1588 S1587 1.613 . S
N1588 C1591 1.350 . S
N1589 S1587 1.610 . S
N1589 C1590 1.351 . S
C1590 C1584 1.428 . S
C1590 N1589 1.351 . S
C1590 C1591 1.434 . S
C1591 C1582 1.429 . S
C1591 N1588 1.350 . S
C1591 C1590 1.434 . S
C1592 C1593 1.369 . S
C1592 C1594 1.419 . S
C1592 H1596 0.930 . S
C1593 C1592 1.369 . S
C1593 C1602 1.429 . S
C1594 C1592 1.419 . S
C1594 C1595 1.363 . S
C1594 H1597 0.929 . S
C1595 C1594 1.363 . S
C1595 C1601 1.428 . S
H1596 C1592 0.930 . S
H1597 C1594 0.929 . S
S1598 N1599 1.613 . S
S1598 N1600 1.610 . S
N1599 S1598 1.613 . S
N1599 C1602 1.350 . S
N1600 S1598 1.610 . S
N1600 C1601 1.351 . S
C1601 C1595 1.428 . S
C1601 N1600 1.351 . S
C1601 C1602 1.434 . S
C1602 C1593 1.429 . S
C1602 N1599 1.350 . S
C1602 C1601 1.434 . S
C1603 C1604 1.369 . S
C1603 C1605 1.419 . S
C1603 H1607 0.930 . S
C1604 C1603 1.369 . S
C1604 C1613 1.429 . S
C1605 C1603 1.419 . S
C1605 C1606 1.363 . S
C1605 H1608 0.929 . S
C1606 C1605 1.363 . S
C1606 C1612 1.428 . S
H1607 C1603 0.930 . S
H1608 C1605 0.929 . S
S1609 N1610 1.613 . S
S1609 N1611 1.610 . S
N1610 S1609 1.613 . S
N1610 C1613 1.350 . S
N1611 S1609 1.610 . S
N1611 C1612 1.351 . S
C1612 C1606 1.428 . S
C1612 N1611 1.351 . S
C1612 C1613 1.434 . S
C1613 C1604 1.429 . S
C1613 N1610 1.350 . S
C1613 C1612 1.434 . S
C1614 C1615 1.369 . S
C1614 C1616 1.419 . S
C1614 H1618 0.930 . S
C1615 C1614 1.369 . S
C1615 C1624 1.429 . S
C1616 C1614 1.419 . S
C1616 C1617 1.363 . S
C1616 H1619 0.929 . S
C1617 C1616 1.363 . S
C1617 C1623 1.428 . S
H1618 C1614 0.930 . S
H1619 C1616 0.929 . S
S1620 N1621 1.613 . S
S1620 N1622 1.610 . S
N1621 S1620 1.613 . S
N1621 C1624 1.350 . S
N1622 S1620 1.610 . S
N1622 C1623 1.351 . S
C1623 C1617 1.428 . S
C1623 N1622 1.351 . S
C1623 C1624 1.434 . S
C1624 C1615 1.429 . S
C1624 N1621 1.350 . S
C1624 C1623 1.434 . S
C1625 C1626 1.369 . S
C1625 C1627 1.419 1_565 S
C1625 H1629 0.930 1_565 S
C1626 C1625 1.369 . S
C1626 C1635 1.429 . S
C1627 C1625 1.419 1_545 S
C1627 C1628 1.363 1_545 S
C1627 H1630 0.929 . S
C1628 C1627 1.363 1_565 S
C1628 C1634 1.428 . S
H1629 C1625 0.930 1_545 S
H1630 C1627 0.929 . S
S1631 N1632 1.613 . S
S1631 N1633 1.610 . S
N1632 S1631 1.613 . S
N1632 C1635 1.350 . S
N1633 S1631 1.610 . S
N1633 C1634 1.351 . S
C1634 C1628 1.428 . S
C1634 N1633 1.351 . S
C1634 C1635 1.434 . S
C1635 C1626 1.429 . S
C1635 N1632 1.350 . S
C1635 C1634 1.434 . S
C1636 C1637 1.369 . S
C1636 C1638 1.419 . S
C1636 H1640 0.930 . S
C1637 C1636 1.369 . S
C1637 C1646 1.429 . S
C1638 C1636 1.419 . S
C1638 C1639 1.363 . S
C1638 H1641 0.929 . S
C1639 C1638 1.363 . S
C1639 C1645 1.428 . S
H1640 C1636 0.930 . S
H1641 C1638 0.929 . S
S1642 N1643 1.613 . S
S1642 N1644 1.610 . S
N1643 S1642 1.613 . S
N1643 C1646 1.350 . S
N1644 S1642 1.610 . S
N1644 C1645 1.351 . S
C1645 C1639 1.428 . S
C1645 N1644 1.351 . S
C1645 C1646 1.434 . S
C1646 C1637 1.429 . S
C1646 N1643 1.350 . S
C1646 C1645 1.434 . S
C1647 C1648 1.369 . S
C1647 C1649 1.419 . S
C1647 H1651 0.930 . S
C1648 C1647 1.369 . S
C1648 C1657 1.429 . S
C1649 C1647 1.419 . S
C1649 C1650 1.363 . S
C1649 H1652 0.929 . S
C1650 C1649 1.363 . S
C1650 C1656 1.428 . S
H1651 C1647 0.930 . S
H1652 C1649 0.929 . S
S1653 N1654 1.613 . S
S1653 N1655 1.610 . S
N1654 S1653 1.613 . S
N1654 C1657 1.350 . S
N1655 S1653 1.610 . S
N1655 C1656 1.351 . S
C1656 C1650 1.428 . S
C1656 N1655 1.351 . S
C1656 C1657 1.434 . S
C1657 C1648 1.429 . S
C1657 N1654 1.350 . S
C1657 C1656 1.434 . S
C1658 C1659 1.369 1_455 S
C1658 C1660 1.419 . S
C1658 H1662 0.930 . S
C1659 C1658 1.369 1_655 S
C1659 C1668 1.429 . S
C1660 C1658 1.419 . S
C1660 C1661 1.363 . S
C1660 H1663 0.929 . S
C1661 C1660 1.363 . S
C1661 C1667 1.428 1_455 S
H1662 C1658 0.930 . S
H1663 C1660 0.929 . S
S1664 N1665 1.613 . S
S1664 N1666 1.610 . S
N1665 S1664 1.613 . S
N1665 C1668 1.350 . S
N1666 S1664 1.610 . S
N1666 C1667 1.351 . S
C1667 C1661 1.428 1_655 S
C1667 N1666 1.351 . S
C1667 C1668 1.434 . S
C1668 C1659 1.429 . S
C1668 N1665 1.350 . S
C1668 C1667 1.434 . S
C1669 C1670 1.369 . S
C1669 C1671 1.419 . S
C1669 H1673 0.930 . S
C1670 C1669 1.369 . S
C1670 C1679 1.414 1_655 S
C1671 C1669 1.419 . S
C1671 C1672 1.363 1_655 S
C1671 H1674 0.929 . S
C1672 C1671 1.363 1_455 S
C1672 C1678 1.428 . S
H1673 C1669 0.930 . S
H1674 C1671 0.929 . S
S1675 N1676 1.613 . S
S1675 N1677 1.610 . S
N1676 S1675 1.613 . S
N1676 C1679 1.356 . S
N1677 S1675 1.610 . S
N1677 C1678 1.351 . S
C1678 C1672 1.428 . S
C1678 N1677 1.351 . S
C1678 C1679 1.443 . S
C1679 C1670 1.414 1_455 S
C1679 N1676 1.356 . S
C1679 C1678 1.443 . S
C625 C361 1.207 . S
C627 C4 1.135 . S
C636 C18 1.167 . S
C638 C499 1.222 . S
C647 C30 1.013 . S
C649 C329 1.025 . S
C658 C525 0.962 . S
C660 C44 0.925 . S
C669 C369 1.047 . S
C671 C57 1.030 . S
C680 C75 0.978 . S
C682 C290 1.013 . S
C691 C393 1.215 . S
C693 C83 1.138 . S
C702 C101 1.122 . S
C704 C270 1.161 . S
C713 C465 1.170 . S
C715 C96 1.175 . S
C724 C432 0.995 . S
C726 C62 0.971 . S
C735 C70 1.015 . S
C737 C551 1.028 . S
C746 C452 1.090 . S
C748 C88 1.091 . S
C757 C108 1.012 . S
C759 C173 1.026 . S
C768 C187 1.045 . S
C770 C122 1.044 . S
C779 C200 1.112 . S
C781 C140 1.126 . S
C790 C161 1.070 . S
C792 C146 1.039 . S
C801 C172 1.247 . S
C803 C316 1.300 . S
C812 C192 1.105 . S
C814 C510 1.148 . S
C823 C348 1.238 . S
C825 C205 1.265 . S
C834 C356 1.131 . S
C836 C213 1.064 . S
C845 C231 1.262 . S
C847 C380 1.217 . S
C856 C239 1.044 . S
C858 C49 1.033 . S
C867 C251 1.126 . S
C869 C23 1.139 . S
C878 C575 1.097 . S
C880 C276 1.170 . S
C889 C603 1.000 . S
C891 C302 1.021 . S
C900 C315 0.967 . S
C902 C107 0.925 . S
C911 C343 1.227 . S
C913 C135 1.183 . S
C922 C328 1.327 . S
C924 C564 1.397 . S
C933 C433 1.368 1_554 S
C935 C374 1.319 . S
C944 C447 1.053 . S
C946 C394 1.104 . S
C955 C420 1.301 . S
C957 C408 1.359 . S
C966 C226 1.155 . S
C968 C588 1.166 . S
C977 C473 1.410 . S
C979 C303 1.353 . S
C988 C277 1.092 . S
C990 C485 1.045 . S
C999 C615 0.953 . S
C1001 C413 0.994 . S
C1010 C381 1.169 . S
C1012 C589 1.133 . S
C1021 C127 1.144 . S
C1023 C511 1.220 . S
C1032 C147 1.046 . S
C1034 C543 1.057 . S
C1043 C166 1.359 1_556 S
C1045 C538 1.287 . S
C1054 C250 1.256 . S
C1056 C504 1.231 . S
C1065 C244 1.236 . S
C1067 C530 1.289 . S
C1076 C289 1.350 . S
C1078 C556 1.298 . S
C1087 C265 1.238 . S
C1089 C460 1.262 . S
C1098 C576 1.114 . S
C1100 C484 1.111 . S
C1109 C608 0.950 . S
C1111 C478 0.981 . S
C1120 C614 1.032 . S
C1122 C419 1.042 . S
C1131 C569 1.057 . S
C1133 C29 1.020 . S
C1142 C218 1.056 . S
C1144 C3 1.051 . S
C1153 C10 1.587 . S
C1155 C601 1.614 . S
C1164 C16 1.525 . S
C1166 C621 1.565 . S
C1175 C36 1.610 . S
C1177 C577 1.605 . S
C1186 C42 1.627 1_565 S
C1188 C595 1.539 . S
C1197 C55 1.616 . S
C1199 C121 1.601 . S
C1208 C69 1.552 . S
C1210 C133 1.498 . S
C1219 C81 1.617 . S
C1221 C153 1.616 . S
C1230 C95 1.547 . S
C1232 C109 1.611 1_545 S
C1241 C94 2.059 . S
C1243 C512 1.803 . S
C1252 C56 1.653 1_655 S
C1254 C342 1.531 . S
C1263 C68 1.777 . S
C1265 C536 1.720 . S
C1274 C82 2.050 . S
C1276 C322 1.889 1_655 S
C1285 C114 1.752 . S
C1287 C309 1.695 . S
C1296 C120 2.069 . S
C1298 C406 1.925 . S
C1307 C134 2.097 . S
C1309 C283 1.830 . S
C1318 C382 1.558 . S
C1320 C148 1.676 . S
C1329 C159 1.654 . S
C1331 C252 1.838 . S
C1340 C174 1.698 . S
C1342 C212 1.684 . S
C1351 C257 1.436 . S
C1353 C186 1.539 . S
C1362 C563 1.635 . S
C1364 C199 1.813 . S
C1373 C198 1.479 . S
C1375 C211 1.582 . S
C1384 C472 1.710 . S
C1386 C225 1.928 . S
C1395 C160 1.872 . S
C1397 C237 1.912 . S
C1406 C523 1.945 . S
C1408 C264 2.102 . S
C1417 C537 2.093 . S
C1419 C278 1.983 1_545 S
C1428 C296 1.884 . S
C1430 C497 2.091 . S
C1439 C517 2.022 . S
C1441 C304 2.157 . S
C1450 C317 1.943 . S
C1452 C387 2.115 . S
C1461 C395 2.024 1_565 S
C1463 C335 2.149 . S
C1472 C341 2.116 . S
C1474 C407 1.901 . S
C1483 C367 2.071 . S
C1485 C355 1.927 . S
C1494 C354 1.800 . S
C1496 C590 2.019 1_556 S
C1505 C616 1.780 . S
C1507 C330 1.729 . S
C1516 C368 1.657 . S
C1518 C43 1.722 . S
C1527 C17 2.116 . S
C1529 C400 1.845 . S
C1538 C486 1.672 . S
C1540 C426 1.646 . S
C1549 C458 1.938 . S
C1551 C434 1.725 . S
C1560 C224 1.481 . S
C1562 C491 1.570 . S
C1571 C446 1.671 . S
C1573 C550 1.654 . S
C1582 C459 1.444 . S
C1584 C445 1.558 . S
C1593 C185 1.729 . S
C1595 C238 1.710 . S
C1604 C421 1.926 . S
C1606 C471 1.877 . S
C1615 C602 1.671 . S
C1617 C498 1.543 . S
C1626 C524 1.858 . S
C1628 C582 2.020 . S
C1637 C5 2.059 . S
C1639 C291 1.910 1_455 S
C1648 C263 1.544 . S
C1650 C31 1.681 1_455 S
C1659 C439 1.874 . S
C1661 C549 1.938 . S
C1670 C179 1.878 . S
C1672 C562 1.866 . S
