# Generated by pormake.
# Topology wgr, (5)-cn, num edge types: 1
# Building blocks:
#     Node 0, Type 0, BuildingBlock: BEQFEK_clean_sbu_0, # of connection points: 5
#     Node 1, Type 0, BuildingBlock: BEQFEK_clean_sbu_0, # of connection points: 5
#     Node 2, Type 0, BuildingBlock: BEQFEK_clean_sbu_0, # of connection points: 5
#     Node 3, Type 0, BuildingBlock: BEQFEK_clean_sbu_0, # of connection points: 5
#     Node 4, Type 0, BuildingBlock: BEQFEK_clean_sbu_0, # of connection points: 5
#     Node 5, Type 0, BuildingBlock: BEQFEK_clean_sbu_0, # of connection points: 5
#     Node 6, Type 0, BuildingBlock: BEQFEK_clean_sbu_0, # of connection points: 5
#     Node 7, Type 0, BuildingBlock: BEQFEK_clean_sbu_0, # of connection points: 5
#     Node 8, Type 0, BuildingBlock: BEQFEK_clean_sbu_0, # of connection points: 5
#     Node 9, Type 0, BuildingBlock: BEQFEK_clean_sbu_0, # of connection points: 5
#     Node 10, Type 0, BuildingBlock: BEQFEK_clean_sbu_0, # of connection points: 5
#     Node 11, Type 0, BuildingBlock: BEQFEK_clean_sbu_0, # of connection points: 5
#     Node 12, Type 0, BuildingBlock: BEQFEK_clean_sbu_0, # of connection points: 5
#     Node 13, Type 0, BuildingBlock: BEQFEK_clean_sbu_0, # of connection points: 5
#     Node 14, Type 0, BuildingBlock: BEQFEK_clean_sbu_0, # of connection points: 5
#     Node 15, Type 0, BuildingBlock: BEQFEK_clean_sbu_0, # of connection points: 5
#     Node 16, Type 0, BuildingBlock: BEQFEK_clean_sbu_0, # of connection points: 5
#     Node 17, Type 0, BuildingBlock: BEQFEK_clean_sbu_0, # of connection points: 5
#     Node 18, Type 0, BuildingBlock: BEQFEK_clean_sbu_0, # of connection points: 5
#     Node 19, Type 0, BuildingBlock: BEQFEK_clean_sbu_0, # of connection points: 5
#     Node 20, Type 0, BuildingBlock: BEQFEK_clean_sbu_0, # of connection points: 5
#     Node 21, Type 0, BuildingBlock: BEQFEK_clean_sbu_0, # of connection points: 5
#     Node 22, Type 0, BuildingBlock: BEQFEK_clean_sbu_0, # of connection points: 5
#     Node 23, Type 0, BuildingBlock: BEQFEK_clean_sbu_0, # of connection points: 5
#     Node 24, Type 0, BuildingBlock: BEQFEK_clean_sbu_0, # of connection points: 5
#     Node 25, Type 0, BuildingBlock: BEQFEK_clean_sbu_0, # of connection points: 5
#     Node 26, Type 0, BuildingBlock: BEQFEK_clean_sbu_0, # of connection points: 5
#     Node 27, Type 0, BuildingBlock: BEQFEK_clean_sbu_0, # of connection points: 5
#     Node 28, Type 0, BuildingBlock: BEQFEK_clean_sbu_0, # of connection points: 5
#     Node 29, Type 0, BuildingBlock: BEQFEK_clean_sbu_0, # of connection points: 5
#     Node 30, Type 0, BuildingBlock: BEQFEK_clean_sbu_0, # of connection points: 5
#     Node 31, Type 0, BuildingBlock: BEQFEK_clean_sbu_0, # of connection points: 5
#     Edge 32, Type (0, 0), BuildingBlock: XIVTED_clean_linker_0, # of connection points: 2
#     Edge 33, Type (0, 0), BuildingBlock: XIVTED_clean_linker_0, # of connection points: 2
#     Edge 34, Type (0, 0), BuildingBlock: XIVTED_clean_linker_0, # of connection points: 2
#     Edge 35, Type (0, 0), BuildingBlock: XIVTED_clean_linker_0, # of connection points: 2
#     Edge 36, Type (0, 0), BuildingBlock: XIVTED_clean_linker_0, # of connection points: 2
#     Edge 37, Type (0, 0), BuildingBlock: XIVTED_clean_linker_0, # of connection points: 2
#     Edge 38, Type (0, 0), BuildingBlock: XIVTED_clean_linker_0, # of connection points: 2
#     Edge 39, Type (0, 0), BuildingBlock: XIVTED_clean_linker_0, # of connection points: 2
#     Edge 40, Type (0, 0), BuildingBlock: XIVTED_clean_linker_0, # of connection points: 2
#     Edge 41, Type (0, 0), BuildingBlock: XIVTED_clean_linker_0, # of connection points: 2
#     Edge 42, Type (0, 0), BuildingBlock: XIVTED_clean_linker_0, # of connection points: 2
#     Edge 43, Type (0, 0), BuildingBlock: XIVTED_clean_linker_0, # of connection points: 2
#     Edge 44, Type (0, 0), BuildingBlock: XIVTED_clean_linker_0, # of connection points: 2
#     Edge 45, Type (0, 0), BuildingBlock: XIVTED_clean_linker_0, # of connection points: 2
#     Edge 46, Type (0, 0), BuildingBlock: XIVTED_clean_linker_0, # of connection points: 2
#     Edge 47, Type (0, 0), BuildingBlock: XIVTED_clean_linker_0, # of connection points: 2
#     Edge 48, Type (0, 0), BuildingBlock: XIVTED_clean_linker_0, # of connection points: 2
#     Edge 49, Type (0, 0), BuildingBlock: XIVTED_clean_linker_0, # of connection points: 2
#     Edge 50, Type (0, 0), BuildingBlock: XIVTED_clean_linker_0, # of connection points: 2
#     Edge 51, Type (0, 0), BuildingBlock: XIVTED_clean_linker_0, # of connection points: 2
#     Edge 52, Type (0, 0), BuildingBlock: XIVTED_clean_linker_0, # of connection points: 2
#     Edge 53, Type (0, 0), BuildingBlock: XIVTED_clean_linker_0, # of connection points: 2
#     Edge 54, Type (0, 0), BuildingBlock: XIVTED_clean_linker_0, # of connection points: 2
#     Edge 55, Type (0, 0), BuildingBlock: XIVTED_clean_linker_0, # of connection points: 2
#     Edge 56, Type (0, 0), BuildingBlock: XIVTED_clean_linker_0, # of connection points: 2
#     Edge 57, Type (0, 0), BuildingBlock: XIVTED_clean_linker_0, # of connection points: 2
#     Edge 58, Type (0, 0), BuildingBlock: XIVTED_clean_linker_0, # of connection points: 2
#     Edge 59, Type (0, 0), BuildingBlock: XIVTED_clean_linker_0, # of connection points: 2
#     Edge 60, Type (0, 0), BuildingBlock: XIVTED_clean_linker_0, # of connection points: 2
#     Edge 61, Type (0, 0), BuildingBlock: XIVTED_clean_linker_0, # of connection points: 2
#     Edge 62, Type (0, 0), BuildingBlock: XIVTED_clean_linker_0, # of connection points: 2
#     Edge 63, Type (0, 0), BuildingBlock: XIVTED_clean_linker_0, # of connection points: 2
#     Edge 64, Type (0, 0), BuildingBlock: XIVTED_clean_linker_0, # of connection points: 2
#     Edge 65, Type (0, 0), BuildingBlock: XIVTED_clean_linker_0, # of connection points: 2
#     Edge 66, Type (0, 0), BuildingBlock: XIVTED_clean_linker_0, # of connection points: 2
#     Edge 67, Type (0, 0), BuildingBlock: XIVTED_clean_linker_0, # of connection points: 2
#     Edge 68, Type (0, 0), BuildingBlock: XIVTED_clean_linker_0, # of connection points: 2
#     Edge 69, Type (0, 0), BuildingBlock: XIVTED_clean_linker_0, # of connection points: 2
#     Edge 70, Type (0, 0), BuildingBlock: XIVTED_clean_linker_0, # of connection points: 2
#     Edge 71, Type (0, 0), BuildingBlock: XIVTED_clean_linker_0, # of connection points: 2
#     Edge 72, Type (0, 0), BuildingBlock: XIVTED_clean_linker_0, # of connection points: 2
#     Edge 73, Type (0, 0), BuildingBlock: XIVTED_clean_linker_0, # of connection points: 2
#     Edge 74, Type (0, 0), BuildingBlock: XIVTED_clean_linker_0, # of connection points: 2
#     Edge 75, Type (0, 0), BuildingBlock: XIVTED_clean_linker_0, # of connection points: 2
#     Edge 76, Type (0, 0), BuildingBlock: XIVTED_clean_linker_0, # of connection points: 2
#     Edge 77, Type (0, 0), BuildingBlock: XIVTED_clean_linker_0, # of connection points: 2
#     Edge 78, Type (0, 0), BuildingBlock: XIVTED_clean_linker_0, # of connection points: 2
#     Edge 79, Type (0, 0), BuildingBlock: XIVTED_clean_linker_0, # of connection points: 2
#     Edge 80, Type (0, 0), BuildingBlock: XIVTED_clean_linker_0, # of connection points: 2
#     Edge 81, Type (0, 0), BuildingBlock: XIVTED_clean_linker_0, # of connection points: 2
#     Edge 82, Type (0, 0), BuildingBlock: XIVTED_clean_linker_0, # of connection points: 2
#     Edge 83, Type (0, 0), BuildingBlock: XIVTED_clean_linker_0, # of connection points: 2
#     Edge 84, Type (0, 0), BuildingBlock: XIVTED_clean_linker_0, # of connection points: 2
#     Edge 85, Type (0, 0), BuildingBlock: XIVTED_clean_linker_0, # of connection points: 2
#     Edge 86, Type (0, 0), BuildingBlock: XIVTED_clean_linker_0, # of connection points: 2
#     Edge 87, Type (0, 0), BuildingBlock: XIVTED_clean_linker_0, # of connection points: 2
#     Edge 88, Type (0, 0), BuildingBlock: XIVTED_clean_linker_0, # of connection points: 2
#     Edge 89, Type (0, 0), BuildingBlock: XIVTED_clean_linker_0, # of connection points: 2
#     Edge 90, Type (0, 0), BuildingBlock: XIVTED_clean_linker_0, # of connection points: 2
#     Edge 91, Type (0, 0), BuildingBlock: XIVTED_clean_linker_0, # of connection points: 2
#     Edge 92, Type (0, 0), BuildingBlock: XIVTED_clean_linker_0, # of connection points: 2
#     Edge 93, Type (0, 0), BuildingBlock: XIVTED_clean_linker_0, # of connection points: 2
#     Edge 94, Type (0, 0), BuildingBlock: XIVTED_clean_linker_0, # of connection points: 2
#     Edge 95, Type (0, 0), BuildingBlock: XIVTED_clean_linker_0, # of connection points: 2
#     Edge 96, Type (0, 0), BuildingBlock: XIVTED_clean_linker_0, # of connection points: 2
#     Edge 97, Type (0, 0), BuildingBlock: XIVTED_clean_linker_0, # of connection points: 2
#     Edge 98, Type (0, 0), BuildingBlock: XIVTED_clean_linker_0, # of connection points: 2
#     Edge 99, Type (0, 0), BuildingBlock: XIVTED_clean_linker_0, # of connection points: 2
#     Edge 100, Type (0, 0), BuildingBlock: XIVTED_clean_linker_0, # of connection points: 2
#     Edge 101, Type (0, 0), BuildingBlock: XIVTED_clean_linker_0, # of connection points: 2
#     Edge 102, Type (0, 0), BuildingBlock: XIVTED_clean_linker_0, # of connection points: 2
#     Edge 103, Type (0, 0), BuildingBlock: XIVTED_clean_linker_0, # of connection points: 2
#     Edge 104, Type (0, 0), BuildingBlock: XIVTED_clean_linker_0, # of connection points: 2
#     Edge 105, Type (0, 0), BuildingBlock: XIVTED_clean_linker_0, # of connection points: 2
#     Edge 106, Type (0, 0), BuildingBlock: XIVTED_clean_linker_0, # of connection points: 2
#     Edge 107, Type (0, 0), BuildingBlock: XIVTED_clean_linker_0, # of connection points: 2
#     Edge 108, Type (0, 0), BuildingBlock: XIVTED_clean_linker_0, # of connection points: 2
#     Edge 109, Type (0, 0), BuildingBlock: XIVTED_clean_linker_0, # of connection points: 2
#     Edge 110, Type (0, 0), BuildingBlock: XIVTED_clean_linker_0, # of connection points: 2
#     Edge 111, Type (0, 0), BuildingBlock: XIVTED_clean_linker_0, # of connection points: 2
# Relax obj value: 0.175
# Max RMSD: 0.224
# Mean RMSD: 0.224
data_MOF--net-wgr--node1-BEQFEK_clean_sbu_0--edge1-XIVTED_clean_linker_0
_symmetry_space_group_name_H-M    P1
_symmetry_Int_Tables_number       1
_symmetry_cell_setting            triclinic
loop_
_symmetry_equiv_pos_as_xyz
'x, y, z'
_cell_length_a     27.61783
_cell_length_b     27.600627
_cell_length_c     155.16591
_cell_angle_alpha  90.001385
_cell_angle_beta   90.017418
_cell_angle_gamma 90.015591
loop_
_atom_site_label
_atom_site_type_symbol
_atom_site_fract_x
_atom_site_fract_y
_atom_site_fract_z
_atom_type_partial_charge
Co0 Co 0.34777 0.02633 0.20196 0.0
Co1 Co 0.34051 0.02693 0.1817 0.0
C2 C 0.26074 0.06626 0.19217 0.0
O3 O 0.28457 0.05641 0.19899 0.0
O4 O 0.27701 0.05525 0.18474 0.0
C5 C 0.31234 0.99741 0.21844 0.0
O6 O 0.27489 0.98335 0.21385 0.0
C7 C 0.31416 0.01486 0.16321 0.0
C8 C 0.38698 0.0074 0.15745 0.0
C9 C 0.33815 0.00777 0.15543 0.0
N10 N 0.34748 0.01793 0.16953 0.0
N11 N 0.39084 0.01363 0.16601 0.0
C12 C 0.26095 0.02134 0.16461 0.0
H13 H 0.25468 0.05375 0.16867 0.0
H14 H 0.24642 0.98945 0.16811 0.0
H15 H 0.24116 0.02599 0.15845 0.0
C16 C 0.36675 0.92249 0.19869 0.0
N17 N 0.35787 0.96782 0.19592 0.0
N18 N 0.35115 0.96721 0.18754 0.0
C19 C 0.35323 0.92101 0.18474 0.0
C20 C 0.36354 0.89087 0.19172 0.0
C21 C 0.37958 0.91025 0.2078 0.0
H22 H 0.40084 0.94014 0.21072 0.0
H23 H 0.34591 0.90551 0.21161 0.0
H24 H 0.40094 0.87623 0.20812 0.0
O25 O 0.39754 0.07415 0.1991 0.0
O26 O 0.38993 0.07661 0.18486 0.0
H27 H 0.37193 0.90888 0.17155 0.0
H28 H 0.32596 0.86823 0.1756 0.0
C29 C 0.33969 0.90595 0.17579 0.0
H30 H 0.3111 0.93016 0.17325 0.0
H31 H 0.42319 0.01479 0.16949 0.0
O32 O 0.3485 0.01618 0.21463 0.0
C33 C 0.40909 0.09195 0.19182 0.0
Co34 Co 0.21482 0.08915 0.45087 0.0
Co35 Co 0.21973 0.09743 0.43064 0.0
C36 C 0.17694 0.01064 0.43894 0.0
O37 O 0.18561 0.0278 0.44642 0.0
O38 O 0.18941 0.03339 0.43215 0.0
C39 C 0.20436 0.05141 0.46817 0.0
O40 O 0.17608 0.01906 0.46454 0.0
C41 C 0.23721 0.08011 0.41208 0.0
C42 C 0.25026 0.15487 0.40753 0.0
C43 C 0.2488 0.10709 0.40481 0.0
N44 N 0.23203 0.11071 0.41877 0.0
N45 N 0.23939 0.15532 0.41597 0.0
C46 C 0.23596 0.02609 0.4129 0.0
H47 H 0.24754 0.01495 0.41945 0.0
H48 H 0.25981 0.00871 0.40805 0.0
H49 H 0.1983 0.01332 0.41186 0.0
C50 C 0.31943 0.10949 0.44887 0.0
N51 N 0.27489 0.10303 0.44554 0.0
N52 N 0.27772 0.10296 0.43709 0.0
C53 C 0.32453 0.10722 0.43475 0.0
C54 C 0.35277 0.11201 0.44215 0.0
C55 C 0.32917 0.11445 0.45832 0.0
H56 H 0.30034 0.13661 0.46136 0.0
H57 H 0.3286 0.07803 0.46135 0.0
H58 H 0.36472 0.13187 0.45955 0.0
O59 O 0.16734 0.14079 0.44862 0.0
O60 O 0.17063 0.14561 0.43435 0.0
H61 H 0.33897 0.13562 0.42219 0.0
H62 H 0.38005 0.0881 0.42546 0.0
C63 C 0.34197 0.10068 0.42569 0.0
H64 H 0.31931 0.07346 0.42235 0.0
H65 H 0.23813 0.18602 0.4199 0.0
O66 O 0.22395 0.08395 0.46354 0.0
C67 C 0.15269 0.15885 0.44153 0.0
Co68 Co 0.16037 0.97714 0.70043 0.0
Co69 Co 0.15443 0.9694 0.68019 0.0
C70 C 0.2412 0.93438 0.6902 0.0
O71 O 0.22308 0.94809 0.69734 0.0
O72 O 0.21885 0.94107 0.68311 0.0
C73 C 0.18159 0.96125 0.71806 0.0
O74 O 0.20276 0.92284 0.71478 0.0
C75 C 0.17974 0.99155 0.66209 0.0
C76 C 0.11479 0.96453 0.6553 0.0
C77 C 0.15922 0.98657 0.65395 0.0
N78 N 0.14849 0.97373 0.66795 0.0
N79 N 0.10985 0.95756 0.66383 0.0
C80 C 0.2291 0.01037 0.66427 0.0
H81 H 0.24086 0.99722 0.67068 0.0
H82 H 0.22826 0.05051 0.66449 0.0
H83 H 0.25567 -0.00081 0.65929 0.0
C84 C 0.14645 0.08121 0.69615 0.0
N85 N 0.1492 0.03416 0.69389 0.0
N86 N 0.14342 0.03039 0.6855 0.0
C87 C 0.13399 0.07458 0.68222 0.0
C88 C 0.13648 0.10865 0.68882 0.0
C89 C 0.15865 0.09949 0.70498 0.0
H90 H 0.18496 0.07494 0.70814 0.0
H91 H 0.17443 0.1364 0.70471 0.0
H92 H 0.12519 0.10055 0.70893 0.0
O93 O 0.11013 0.92639 0.69833 0.0
O94 O 0.1063 0.92213 0.68406 0.0
H95 H 0.09926 0.11792 0.67241 0.0
H96 H 0.15288 0.08607 0.66901 0.0
C97 C 0.1199 0.08361 0.67304 0.0
H98 H 0.09726 0.05336 0.67063 0.0
H99 H 0.08003 0.94171 0.66685 0.0
O100 O 0.16035 0.99079 0.71304 0.0
C101 C 0.09288 0.90772 0.69147 0.0
Co102 Co 0.2743 0.91737 0.95085 0.0
Co103 Co 0.27859 0.90087 0.93077 0.0
C104 C 0.31559 0.99239 0.93934 0.0
O105 O 0.30293 0.97905 0.94686 0.0
O106 O 0.3077 0.96567 0.93279 0.0
C107 C 0.29071 0.94564 0.96824 0.0
O108 O 0.32746 0.9684 0.9647 0.0
C109 C 0.25348 0.92184 0.91266 0.0
C110 C 0.28096 0.85644 0.90607 0.0
C111 C 0.25821 0.90041 0.90459 0.0
N112 N 0.2722 0.89163 0.91861 0.0
N113 N 0.28853 0.85264 0.91461 0.0
C114 C 0.23423 0.97126 0.91469 0.0
H115 H 0.19411 0.9702 0.91477 0.0
H116 H 0.24579 0.99759 0.90968 0.0
H117 H 0.24659 0.98352 0.92111 0.0
C118 C 0.1695 0.90151 0.94728 0.0
N119 N 0.21618 0.90316 0.94476 0.0
N120 N 0.21866 0.89303 0.93649 0.0
C121 C 0.17407 0.88212 0.93357 0.0
C122 C 0.14103 0.88793 0.94026 0.0
C123 C 0.1525 0.9177 0.95597 0.0
H124 H 0.17726 0.94565 0.9586 0.0
H125 H 0.11537 0.93291 0.95566 0.0
H126 H 0.15246 0.88621 0.96042 0.0
O127 O 0.32484 0.86628 0.9492 0.0
O128 O 0.32589 0.85393 0.93506 0.0
H129 H 0.19382 0.84033 0.92245 0.0
H130 H 0.12954 0.84267 0.92453 0.0
C131 C 0.16375 0.86376 0.92468 0.0
H132 H 0.16036 0.89478 0.92019 0.0
H133 H 0.30526 0.82356 0.91772 0.0
O134 O 0.26219 0.92139 0.96346 0.0
C135 C 0.34189 0.84489 0.94258 0.0
Co136 Co 0.34117 0.97258 0.30026 0.0
Co137 Co 0.34763 0.96628 0.32047 0.0
C138 C 0.26028 0.93118 0.31083 0.0
O139 O 0.27887 0.94365 0.30366 0.0
O140 O 0.28236 0.93873 0.31793 0.0
C141 C 0.31796 0.95594 0.28271 0.0
O142 O 0.2968 0.91775 0.28608 0.0
C143 C 0.3247 0.98683 0.33862 0.0
C144 C 0.39464 0.97064 0.34492 0.0
C145 C 0.34815 0.98712 0.34654 0.0
N146 N 0.35606 0.97111 0.33262 0.0
N147 N 0.39757 0.9609 0.33644 0.0
C148 C 0.275 0.00511 0.33659 0.0
H149 H 0.24832 0.97598 0.33791 0.0
H150 H 0.27233 0.01524 0.32968 0.0
H151 H 0.26597 0.03679 0.34069 0.0
C152 C 0.3553 0.0769 0.30422 0.0
N153 N 0.35279 0.03007 0.30663 0.0
N154 N 0.35815 0.02712 0.31503 0.0
C155 C 0.36661 0.07179 0.3182 0.0
C156 C 0.36441 0.10515 0.31148 0.0
C157 C 0.3434 0.09417 0.29531 0.0
H158 H 0.31581 0.07022 0.29235 0.0
H159 H 0.32927 0.13176 0.29537 0.0
H160 H 0.3766 0.09288 0.29129 0.0
O161 O 0.39177 0.92229 0.30225 0.0
O162 O 0.39499 0.91843 0.31652 0.0
H163 H 0.39667 0.1177 0.32816 0.0
H164 H 0.3447 0.0821 0.33129 0.0
C165 C 0.37849 0.08207 0.32743 0.0
H166 H 0.40286 0.05361 0.32998 0.0
H167 H 0.42835 0.9485 0.33322 0.0
O168 O 0.33979 0.98551 0.28766 0.0
C169 C 0.40872 0.90381 0.30915 0.0
Co170 Co 0.28383 0.09308 0.54853 0.0
Co171 Co 0.27774 0.09612 0.56878 0.0
C172 C 0.32115 0.01156 0.55984 0.0
O173 O 0.31334 0.03095 0.55251 0.0
O174 O 0.3079 0.03227 0.5668 0.0
C175 C 0.26069 0.05227 0.5321 0.0
O176 O 0.24828 0.01458 0.53677 0.0
C177 C 0.26367 0.07477 0.58731 0.0
C178 C 0.24206 0.14665 0.59227 0.0
C179 C 0.24945 0.09901 0.59474 0.0
N180 N 0.26392 0.10654 0.58074 0.0
N181 N 0.25128 0.14946 0.58376 0.0
C182 C 0.28017 0.02338 0.5865 0.0
H183 H 0.31625 0.02297 0.58339 0.0
H184 H 0.25469 0.00319 0.58229 0.0
H185 H 0.28324 0.00512 0.59284 0.0
C186 C 0.1786 0.11125 0.55048 0.0
N187 N 0.2232 0.10508 0.55381 0.0
N188 N 0.22002 0.10242 0.56224 0.0
C189 C 0.17298 0.1041 0.56454 0.0
C190 C 0.14492 0.11026 0.55715 0.0
C191 C 0.16883 0.11934 0.5411 0.0
H192 H 0.19874 0.14051 0.53817 0.0
H193 H 0.16657 0.08385 0.53777 0.0
H194 H 0.13423 0.13906 0.54014 0.0
O195 O 0.33038 0.14454 0.55125 0.0
O196 O 0.32723 0.1454 0.56555 0.0
H197 H 0.15454 0.12721 0.57727 0.0
H198 H 0.11853 0.0772 0.57338 0.0
C199 C 0.15534 0.0932 0.57346 0.0
H200 H 0.18007 0.06723 0.57666 0.0
H201 H 0.24843 0.18065 0.57999 0.0
O202 O 0.27683 0.08996 0.53583 0.0
C203 C 0.34503 0.1607 0.55848 0.0
Co204 Co 0.14589 0.02587 0.79893 0.0
Co205 Co 0.14894 0.02177 0.81924 0.0
C206 C 0.23085 0.06347 0.80955 0.0
O207 O 0.20863 0.0551 0.80249 0.0
O208 O 0.21283 0.05101 0.81678 0.0
C209 C 0.18402 0.0017 0.78238 0.0
O210 O 0.22138 0.98779 0.78701 0.0
C211 C 0.173 0.00742 0.83774 0.0
C212 C 0.10084 0.98931 0.84299 0.0
C213 C 0.14901 0.99457 0.84529 0.0
N214 N 0.14046 0.00888 0.83128 0.0
N215 N 0.09742 0.99831 0.83449 0.0
C216 C 0.22515 0.02089 0.83671 0.0
H217 H 0.22776 0.05518 0.83303 0.0
H218 H 0.24397 0.99227 0.83297 0.0
H219 H 0.2434 0.026 0.84301 0.0
C220 C 0.1286 0.92087 0.8013 0.0
N221 N 0.13518 0.96581 0.80446 0.0
N222 N 0.14024 0.96339 0.81287 0.0
C223 C 0.13946 0.91647 0.81529 0.0
C224 C 0.13165 0.88771 0.80804 0.0
C225 C 0.11872 0.91024 0.792 0.0
H226 H 0.09704 0.93992 0.78911 0.0
H227 H 0.15351 0.90765 0.78847 0.0
H228 H 0.09887 0.87551 0.79127 0.0
O229 O 0.09562 0.07303 0.80193 0.0
O230 O 0.09983 0.07222 0.81622 0.0
H231 H 0.11984 0.8998 0.82828 0.0
H232 H 0.1681 0.86255 0.82408 0.0
C233 C 0.15267 0.89962 0.82417 0.0
H234 H 0.17982 0.9244 0.82703 0.0
H235 H 0.06569 0.99677 0.83085 0.0
O236 O 0.14699 0.01872 0.78619 0.0
C237 C 0.08237 0.08921 0.80924 0.0
Co238 Co 0.22401 0.9066 0.04907 0.0
Co239 Co 0.22539 0.91101 0.06936 0.0
C240 C 0.18603 0.99272 0.05932 0.0
O241 O 0.19508 0.96984 0.05236 0.0
O242 O 0.19741 0.97514 0.06664 0.0
C243 C 0.25103 0.94338 0.03255 0.0
O244 O 0.26543 0.98076 0.03713 0.0
C245 C 0.23865 0.93658 0.08779 0.0
C246 C 0.24685 0.86377 0.09354 0.0
C247 C 0.24621 0.91263 0.09556 0.0
N248 N 0.23552 0.90324 0.08148 0.0
N249 N 0.24031 0.85987 0.08498 0.0
C250 C 0.23136 0.98972 0.08638 0.0
H251 H 0.26077 0.0039 0.08221 0.0
H252 H 0.23032 0.01018 0.09252 0.0
H253 H 0.19662 0.99549 0.08296 0.0
C254 C 0.3277 0.88589 0.05193 0.0
N255 N 0.28285 0.89495 0.05489 0.0
N256 N 0.28444 0.90053 0.0633 0.0
C257 C 0.33091 0.8976 0.06592 0.0
C258 C 0.36012 0.88788 0.05879 0.0
C259 C 0.33871 0.87402 0.04272 0.0
H260 H 0.30834 0.85323 0.03985 0.0
H261 H 0.34313 0.9081 0.03902 0.0
H262 H 0.37251 0.85248 0.04219 0.0
O263 O 0.17597 0.85706 0.0519 0.0
O264 O 0.17488 0.86233 0.06617 0.0
H265 H 0.34452 0.87695 0.07897 0.0
H266 H 0.3849 0.92329 0.07497 0.0
C267 C 0.34711 0.90979 0.07487 0.0
H268 H 0.32338 0.93814 0.07763 0.0
H269 H 0.23916 0.82751 0.0815 0.0
O270 O 0.23287 0.90696 0.03638 0.0
C271 C 0.15873 0.84447 0.05916 0.0
Co272 Co 0.63968 0.97452 0.79913 0.0
Co273 Co 0.64707 0.97431 0.81934 0.0
C274 C 0.72634 0.93366 0.80887 0.0
O275 O 0.70275 0.94367 0.80203 0.0
O276 O 0.71021 0.94526 0.81629 0.0
C277 C 0.64482 0.95387 0.78106 0.0
O278 O 0.65046 0.90902 0.78371 0.0
C279 C 0.67383 0.98571 0.83774 0.0
C280 C 0.60206 0.00095 0.84343 0.0
C281 C 0.65072 0.99682 0.84545 0.0
N282 N 0.6403 0.98422 0.83145 0.0
N283 N 0.59751 0.99298 0.83492 0.0
C284 C 0.72624 0.97433 0.83637 0.0
H285 H 0.72954 0.94141 0.83233 0.0
H286 H 0.74369 0.00476 0.83288 0.0
H287 H 0.74538 0.96785 0.84254 0.0
C288 C 0.62286 0.07852 0.80231 0.0
N289 N 0.63039 0.03311 0.80515 0.0
N290 N 0.63722 0.03396 0.81352 0.0
C291 C 0.63644 0.08035 0.81625 0.0
C292 C 0.6269 0.11041 0.80922 0.0
C293 C 0.61136 0.09055 0.79312 0.0
H294 H 0.58697 0.06256 0.79038 0.0
H295 H 0.64534 0.09062 0.7893 0.0
H296 H 0.59365 0.1265 0.79258 0.0
O297 O 0.58954 0.92663 0.80196 0.0
O298 O 0.59735 0.92507 0.8162 0.0
H299 H 0.6188 0.09403 0.82943 0.0
H300 H 0.66582 0.13286 0.82523 0.0
C301 C 0.65092 0.09557 0.82515 0.0
H302 H 0.67885 0.07063 0.8277 0.0
H303 H 0.56519 0.9942 0.83143 0.0
O304 O 0.63925 0.98735 0.78659 0.0
C305 C 0.57813 0.90923 0.80928 0.0
Co306 Co 0.77586 0.9006 0.54865 0.0
Co307 Co 0.7827 0.8968 0.56891 0.0
C308 C 0.82106 0.98114 0.55862 0.0
O309 O 0.80735 0.96242 0.55154 0.0
O310 O 0.81317 0.95999 0.56579 0.0
C311 C 0.75636 0.93807 0.53176 0.0
O312 O 0.75602 0.97999 0.53577 0.0
C313 C 0.76242 0.92529 0.58694 0.0
C314 C 0.78411 0.85898 0.59392 0.0
C315 C 0.76563 0.90514 0.59515 0.0
N316 N 0.7778 0.89223 0.58118 0.0
N317 N 0.7908 0.85278 0.58541 0.0
C318 C 0.74729 0.97567 0.58458 0.0
H319 H 0.76134 0.98584 0.57816 0.0
H320 H 0.70721 0.97759 0.58431 0.0
H321 H 0.7603 0.00197 0.58948 0.0
C322 C 0.67138 0.8892 0.5528 0.0
N323 N 0.71829 0.89165 0.55515 0.0
N324 N 0.72146 0.88727 0.56357 0.0
C325 C 0.67687 0.87952 0.56681 0.0
C326 C 0.64332 0.88116 0.56013 0.0
C327 C 0.6541 0.90027 0.54386 0.0
H328 H 0.66292 0.86939 0.53956 0.0
H329 H 0.67326 0.93271 0.54142 0.0
H330 H 0.61474 0.90764 0.5436 0.0
O331 O 0.82458 0.84898 0.55091 0.0
O332 O 0.82857 0.84671 0.56519 0.0
H333 H 0.69565 0.84476 0.57872 0.0
H334 H 0.6314 0.85004 0.57687 0.0
C335 C 0.66685 0.86847 0.57609 0.0
H336 H 0.6664 0.90266 0.57983 0.0
H337 H 0.80427 0.82154 0.58247 0.0
O338 O 0.76286 0.89945 0.53607 0.0
C339 C 0.84261 0.83197 0.55784 0.0
Co340 Co 0.85269 0.02546 0.29879 0.0
Co341 Co 0.84568 0.0258 0.31898 0.0
C342 C 0.76581 0.06549 0.30864 0.0
O343 O 0.7896 0.05587 0.3018 0.0
O344 O 0.7821 0.05408 0.31604 0.0
C345 C 0.81606 0.99526 0.28257 0.0
O346 O 0.77938 0.98114 0.28734 0.0
C347 C 0.81958 0.01697 0.33741 0.0
C348 C 0.89083 -0.00072 0.34309 0.0
C349 C 0.84249 0.00586 0.34514 0.0
N350 N 0.85287 0.01618 0.33109 0.0
N351 N 0.89539 0.00596 0.33455 0.0
C352 C 0.7678 0.03097 0.33605 0.0
H353 H 0.76631 0.06471 0.3322 0.0
H354 H 0.74913 0.00204 0.33236 0.0
H355 H 0.74867 0.03739 0.34223 0.0
C356 C 0.87159 0.92137 0.30203 0.0
N357 N 0.86277 0.96676 0.30479 0.0
N358 N 0.85577 0.96613 0.31316 0.0
C359 C 0.8574 0.91992 0.31595 0.0
C360 C 0.86798 0.88976 0.309 0.0
C361 C 0.88483 0.90907 0.29294 0.0
H362 H 0.90576 0.93917 0.29001 0.0
H363 H 0.85134 0.90372 0.28911 0.0
H364 H 0.90665 0.87533 0.29268 0.0
O365 O 0.90274 0.07329 0.30159 0.0
O366 O 0.89504 0.07532 0.31582 0.0
H367 H 0.87517 0.90568 0.32912 0.0
H368 H 0.82744 0.86777 0.32491 0.0
C369 C 0.84291 0.90484 0.32486 0.0
H370 H 0.81542 0.93014 0.32746 0.0
H371 H 0.92749 0.00298 0.33104 0.0
O372 O 0.85245 0.01484 0.28618 0.0
C373 C 0.91423 0.0909 0.30888 0.0
Co374 Co 0.72359 0.08918 0.04892 0.0
Co375 Co 0.72504 0.09174 0.06912 0.0
C376 C 0.68594 0.00653 0.06006 0.0
O377 O 0.69511 0.02703 0.05288 0.0
O378 O 0.69702 0.02663 0.06719 0.0
C379 C 0.70137 0.08076 0.03097 0.0
O380 O 0.65629 0.08115 0.03367 0.0
C381 C 0.74157 0.0742 0.08776 0.0
C382 C 0.74827 0.14958 0.09242 0.0
C383 C 0.7502 0.10176 0.09511 0.0
N384 N 0.73493 0.10458 0.08107 0.0
N385 N 0.73853 0.1495 0.08394 0.0
C386 C 0.74409 0.02026 0.0869 0.0
H387 H 0.75435 0.00998 0.08023 0.0
H388 H 0.77069 0.00483 0.0915 0.0
H389 H 0.70793 0.00466 0.08831 0.0
C390 C 0.82667 0.11114 0.05142 0.0
N391 N 0.78207 0.10328 0.05458 0.0
N392 N 0.78416 0.10047 0.06302 0.0
C393 C 0.83084 0.10438 0.06551 0.0
C394 C 0.85958 0.11143 0.05821 0.0
C395 C 0.83694 0.11904 0.04205 0.0
H396 H 0.80786 0.14144 0.03915 0.0
H397 H 0.83743 0.08354 0.0387 0.0
H398 H 0.87222 0.1375 0.04109 0.0
O399 O 0.675 0.1395 0.05098 0.0
O400 O 0.67445 0.13871 0.06528 0.0
H401 H 0.84381 0.12983 0.0783 0.0
H402 H 0.88594 0.08385 0.07478 0.0
C403 C 0.84767 0.09583 0.07455 0.0
H404 H 0.82505 0.0676 0.07762 0.0
H405 H 0.73539 0.18017 0.08004 0.0
O406 O 0.7355 0.08374 0.03643 0.0
C407 C 0.65789 0.15419 0.05812 0.0
Co408 Co 0.65445 0.0239 0.70016 0.0
Co409 Co 0.65214 0.03364 0.67997 0.0
C410 C 0.73617 0.06956 0.69069 0.0
O411 O 0.71695 0.05487 0.69767 0.0
O412 O 0.71541 0.06296 0.68344 0.0
C413 C 0.65377 0.0405 0.71823 0.0
O414 O 0.65653 0.08591 0.71573 0.0
C415 C 0.68113 0.01451 0.66192 0.0
C416 C 0.61531 0.0375 0.65493 0.0
C417 C 0.66111 0.01819 0.6537 0.0
N418 N 0.64829 0.03033 0.66768 0.0
N419 N 0.60918 0.0442 0.66345 0.0
C420 C 0.73116 0.99842 0.66429 0.0
H421 H 0.74177 0.01304 0.67066 0.0
H422 H 0.73213 0.95833 0.66471 0.0
H423 H 0.75763 0.01026 0.65934 0.0
C424 C 0.64329 0.92043 0.69558 0.0
N425 N 0.64579 0.96757 0.69338 0.0
N426 N 0.64158 0.97172 0.68498 0.0
C427 C 0.63368 0.92748 0.68158 0.0
C428 C 0.6351 0.89318 0.68816 0.0
C429 C 0.6544 0.90204 0.70444 0.0
H430 H 0.68178 0.92557 0.70757 0.0
H431 H 0.66864 0.8645 0.70429 0.0
H432 H 0.62088 0.90284 0.70838 0.0
O433 O 0.60357 0.07368 0.69801 0.0
O434 O 0.60232 0.07968 0.68375 0.0
H435 H 0.60326 0.88359 0.67139 0.0
H436 H 0.65676 0.91747 0.66855 0.0
C437 C 0.62256 0.91852 0.67227 0.0
H438 H 0.59967 0.94815 0.6697 0.0
H439 H 0.5781 0.058 0.66638 0.0
O440 O 0.65234 0.00729 0.71257 0.0
C441 C 0.58731 0.09295 0.69113 0.0
Co442 Co 0.72044 0.90825 0.45034 0.0
Co443 Co 0.71274 0.90493 0.43014 0.0
C444 C 0.67683 0.99004 0.44045 0.0
O445 O 0.69095 0.97104 0.44748 0.0
O446 O 0.68343 0.96869 0.43326 0.0
C447 C 0.70403 0.9291 0.46786 0.0
O448 O 0.6659 0.95032 0.4645 0.0
C449 C 0.73387 0.93274 0.41217 0.0
C450 C 0.70745 0.86829 0.40514 0.0
C451 C 0.7287 0.91327 0.40396 0.0
N452 N 0.71685 0.90041 0.41791 0.0
N453 N 0.70105 0.86207 0.41366 0.0
C454 C 0.75207 0.9821 0.41453 0.0
H455 H 0.73909 0.99281 0.42101 0.0
H456 H 0.79219 0.98181 0.41469 0.0
H457 H 0.74027 0.0092 0.40968 0.0
C458 C 0.82459 0.89542 0.44608 0.0
N459 N 0.77762 0.89846 0.4438 0.0
N460 N 0.774 0.89412 0.43538 0.0
C461 C 0.81828 0.88546 0.43208 0.0
C462 C 0.85218 0.88681 0.43872 0.0
C463 C 0.84262 0.90591 0.45499 0.0
H464 H 0.81827 0.93203 0.45825 0.0
H465 H 0.87972 0.92127 0.45487 0.0
H466 H 0.84304 0.87178 0.45877 0.0
O467 O 0.67044 0.85759 0.44809 0.0
O468 O 0.6664 0.85545 0.43381 0.0
H469 H 0.7975 0.85063 0.42028 0.0
H470 H 0.86197 0.85277 0.4221 0.0
C471 C 0.82753 0.87306 0.42284 0.0
H472 H 0.82978 0.90679 0.41899 0.0
H473 H 0.68578 0.83161 0.41657 0.0
O474 O 0.73374 0.90751 0.46292 0.0
C475 C 0.6522 0.84084 0.44116 0.0
Co476 Co 0.84102 0.96876 0.20088 0.0
Co477 Co 0.84105 0.97166 0.18063 0.0
C478 C 0.75699 0.93182 0.18999 0.0
O479 O 0.77814 0.94095 0.19712 0.0
O480 O 0.77645 0.94284 0.1828 0.0
C481 C 0.81523 0.94993 0.21842 0.0
O482 O 0.79108 0.91368 0.215 0.0
C483 C 0.82077 0.98989 0.16211 0.0
C484 C 0.89544 0.99836 0.1572 0.0
C485 C 0.84732 -0.00016 0.1547 0.0
N486 N 0.85201 0.98298 0.16866 0.0
N487 N 0.89649 0.98764 0.16564 0.0
C488 C 0.76694 0.9914 0.16317 0.0
H489 H 0.75726 0.00072 0.1699 0.0
H490 H 0.75056 0.01825 0.15871 0.0
H491 H 0.7518 0.95512 0.16167 0.0
C492 C 0.86119 0.07259 0.19853 0.0
N493 N 0.85378 0.02795 0.19532 0.0
N494 N 0.85021 0.03038 0.18689 0.0
C495 C 0.85334 0.07723 0.18447 0.0
C496 C 0.86065 0.10578 0.19178 0.0
C497 C 0.86919 0.08264 0.2079 0.0
H498 H 0.89248 0.05401 0.21073 0.0
H499 H 0.83386 0.08192 0.21131 0.0
H500 H 0.8867 0.11838 0.20891 0.0
O501 O 0.8908 0.92041 0.19828 0.0
O502 O 0.88914 0.92111 0.18399 0.0
H503 H 0.87685 0.09036 0.17156 0.0
H504 H 0.83171 0.13273 0.17533 0.0
C505 C 0.84351 0.09437 0.17548 0.0
H506 H 0.81464 0.072 0.17254 0.0
H507 H 0.92764 0.98456 0.16942 0.0
O508 O 0.83911 0.97812 0.21353 0.0
C509 C 0.9052 0.90404 0.19106 0.0
Co510 Co 0.76999 0.08547 0.95023 0.0
Co511 Co 0.77978 0.09976 0.93028 0.0
C512 C 0.81548 0.00971 0.93955 0.0
O513 O 0.80062 0.02367 0.94691 0.0
O514 O 0.80894 0.03556 0.93285 0.0
C515 C 0.78588 0.0749 0.96814 0.0
O516 O 0.83086 0.06938 0.96556 0.0
C517 C 0.75827 0.07602 0.91225 0.0
C518 C 0.78716 0.14008 0.90542 0.0
C519 C 0.76408 0.0961 0.9041 0.0
N520 N 0.77657 0.10704 0.91809 0.0
N521 N 0.79386 0.14518 0.91396 0.0
C522 C 0.7382 0.02717 0.91447 0.0
H523 H 0.75076 0.01533 0.9209 0.0
H524 H 0.69812 0.02898 0.91465 0.0
H525 H 0.74891 8e-05 0.90953 0.0
C526 C 0.6664 0.10056 0.94576 0.0
N527 N 0.71361 0.0984 0.94361 0.0
N528 N 0.71821 0.1079 0.93535 0.0
C529 C 0.67446 0.11893 0.93206 0.0
C530 C 0.6398 0.11397 0.9385 0.0
C531 C 0.64719 0.08511 0.95435 0.0
H532 H 0.67036 0.05622 0.95711 0.0
H533 H 0.60962 0.07122 0.95384 0.0
H534 H 0.64762 0.11658 0.9588 0.0
O535 O 0.82067 0.13681 0.94892 0.0
O536 O 0.82531 0.14769 0.93477 0.0
H537 H 0.63276 0.15876 0.92266 0.0
H538 H 0.66312 0.10571 0.91862 0.0
C539 C 0.66642 0.13692 0.92307 0.0
H540 H 0.69749 0.15949 0.92099 0.0
H541 H 0.81038 0.17467 0.91698 0.0
O542 O 0.75304 0.0823 0.96257 0.0
C543 C 0.83932 0.15761 0.94237 0.0
Co544 Co 0.84156 0.53255 0.70187 0.0
Co545 Co 0.84725 0.5267 0.68164 0.0
C546 C 0.76133 0.56942 0.69025 0.0
O547 O 0.77963 0.56162 0.69768 0.0
O548 O 0.78311 0.55633 0.6834 0.0
C549 C 0.80069 0.50778 0.71828 0.0
O550 O 0.76368 0.49339 0.71361 0.0
C551 C 0.82703 0.509 0.66316 0.0
C552 C 0.90113 0.50007 0.65802 0.0
C553 C 0.8528 0.49977 0.65565 0.0
N554 N 0.85878 0.51396 0.66969 0.0
N555 N 0.90296 0.5087 0.66656 0.0
C556 C 0.77365 0.51652 0.66412 0.0
H557 H 0.75914 0.49102 0.66901 0.0
H558 H 0.75397 0.51205 0.65795 0.0
H559 H 0.76722 0.55378 0.6665 0.0
C560 C 0.86153 0.42738 0.69992 0.0
N561 N 0.85495 0.47198 0.6966 0.0
N562 N 0.85366 0.46891 0.68815 0.0
C563 C 0.85687 0.42196 0.68583 0.0
C564 C 0.86236 0.39382 0.69322 0.0
C565 C 0.86847 0.41746 0.70933 0.0
H566 H 0.88863 0.44768 0.71238 0.0
H567 H 0.83261 0.41435 0.71249 0.0
H568 H 0.88871 0.38319 0.71034 0.0
O569 O 0.89278 0.57988 0.69941 0.0
O570 O 0.8956 0.57657 0.68512 0.0
H571 H 0.88272 0.40717 0.67311 0.0
H572 H 0.83548 0.36648 0.67667 0.0
C573 C 0.84845 0.40446 0.67681 0.0
H574 H 0.82088 0.42738 0.67363 0.0
H575 H 0.93444 0.51096 0.67026 0.0
O576 O 0.83758 0.52556 0.71455 0.0
C577 C 0.90975 0.59463 0.69225 0.0
Co578 Co 0.72015 0.59024 0.95158 0.0
Co579 Co 0.71642 0.60383 0.93142 0.0
C580 C 0.67704 0.51463 0.94036 0.0
O581 O 0.68984 0.529 0.94782 0.0
O582 O 0.6856 0.53999 0.93367 0.0
C583 C 0.70521 0.56178 0.96905 0.0
O584 O 0.66865 0.5382 0.96562 0.0
C585 C 0.74012 0.58072 0.91331 0.0
C586 C 0.71558 0.64711 0.90666 0.0
C587 C 0.73625 0.60208 0.90522 0.0
N588 N 0.72291 0.61196 0.91923 0.0
N589 N 0.70833 0.65152 0.9152 0.0
C590 C 0.75714 0.53052 0.91537 0.0
H591 H 0.74422 0.51896 0.9218 0.0
H592 H 0.79726 0.52979 0.91547 0.0
H593 H 0.74443 0.50463 0.91039 0.0
C594 C 0.82536 0.6019 0.94795 0.0
N595 N 0.77865 0.60175 0.94543 0.0
N596 N 0.77656 0.61061 0.93712 0.0
C597 C 0.82154 0.61922 0.93415 0.0
C598 C 0.85432 0.61317 0.94087 0.0
C599 C 0.84173 0.58614 0.95671 0.0
H600 H 0.84216 0.618 0.96108 0.0
H601 H 0.81631 0.55891 0.95938 0.0
H602 H 0.87854 0.57014 0.95651 0.0
O603 O 0.67115 0.6427 0.94974 0.0
O604 O 0.67073 0.6527 0.93554 0.0
H605 H 0.80374 0.65991 0.9228 0.0
H606 H 0.86785 0.65475 0.92488 0.0
C607 C 0.83264 0.63542 0.92516 0.0
H608 H 0.83442 0.60348 0.92085 0.0
H609 H 0.69305 0.68147 0.91828 0.0
O610 O 0.73264 0.58681 0.9642 0.0
C611 C 0.65498 0.66357 0.943 0.0
Co612 Co 0.65112 0.47195 0.20126 0.0
Co613 Co 0.6572 0.4717 0.18106 0.0
C614 C 0.7374 0.43163 0.19133 0.0
O615 O 0.71405 0.44156 0.19819 0.0
O616 O 0.72076 0.44293 0.18393 0.0
C617 C 0.68738 0.50136 0.21761 0.0
O618 O 0.72461 0.51545 0.21298 0.0
C619 C 0.68267 0.4849 0.16263 0.0
C620 C 0.60959 0.49163 0.15693 0.0
C621 C 0.65838 0.49218 0.1549 0.0
N622 N 0.64955 0.48087 0.16895 0.0
N623 N 0.60603 0.48468 0.16548 0.0
C624 C 0.73602 0.47921 0.16399 0.0
H625 H 0.74294 0.44595 0.1678 0.0
H626 H 0.7499 0.51045 0.16776 0.0
H627 H 0.75593 0.4765 0.15781 0.0
C628 C 0.63175 0.57592 0.1981 0.0
N629 N 0.64078 0.53068 0.1953 0.0
N630 N 0.64706 0.53146 0.18691 0.0
C631 C 0.64451 0.5777 0.18414 0.0
C632 C 0.63436 0.60767 0.19114 0.0
C633 C 0.61906 0.58796 0.20723 0.0
H634 H 0.59819 0.55782 0.21016 0.0
H635 H 0.65278 0.59306 0.21101 0.0
H636 H 0.59734 0.62173 0.20757 0.0
O637 O 0.60098 0.42428 0.1985 0.0
O638 O 0.60774 0.42224 0.18426 0.0
H639 H 0.62475 0.58951 0.17099 0.0
H640 H 0.67034 0.6309 0.17494 0.0
C641 C 0.65721 0.59297 0.17516 0.0
H642 H 0.686 0.56922 0.17257 0.0
H643 H 0.5738 0.48283 0.16898 0.0
O644 O 0.65119 0.48223 0.21387 0.0
C645 C 0.58893 0.40673 0.19123 0.0
Co646 Co 0.77601 0.40711 0.45178 0.0
Co647 Co 0.77425 0.40881 0.43146 0.0
C648 C 0.81453 0.49149 0.44103 0.0
O649 O 0.80539 0.46931 0.44806 0.0
O650 O 0.80303 0.47333 0.43375 0.0
C651 C 0.75911 0.44862 0.46849 0.0
O652 O 0.75628 0.4893 0.46412 0.0
C653 C 0.75687 0.42825 0.41279 0.0
C654 C 0.74855 0.35314 0.40808 0.0
C655 C 0.74711 0.40105 0.40543 0.0
N656 N 0.76352 0.39756 0.41944 0.0
N657 N 0.75898 0.35281 0.41654 0.0
C658 C 0.7555 0.4822 0.41369 0.0
H659 H 0.74706 0.49257 0.42043 0.0
H660 H 0.72814 0.4981 0.40929 0.0
H661 H 0.79155 0.49719 0.412 0.0
C662 C 0.67239 0.38729 0.44915 0.0
N663 N 0.71715 0.39527 0.44607 0.0
N664 N 0.71526 0.39961 0.43765 0.0
C665 C 0.66862 0.39656 0.43511 0.0
C666 C 0.63967 0.38834 0.44233 0.0
C667 C 0.66181 0.37795 0.45847 0.0
H668 H 0.69113 0.35569 0.46133 0.0
H669 H 0.66049 0.41296 0.46198 0.0
H670 H 0.62678 0.3588 0.45929 0.0
O671 O 0.82344 0.35656 0.44922 0.0
O672 O 0.82452 0.36054 0.43493 0.0
H673 H 0.65546 0.37402 0.42214 0.0
H674 H 0.61397 0.41985 0.42596 0.0
C675 C 0.65205 0.40725 0.42612 0.0
H676 H 0.67508 0.43583 0.42326 0.0
H677 H 0.76189 0.32197 0.42039 0.0
O678 O 0.76674 0.4092 0.46447 0.0
C679 C 0.84055 0.3432 0.44199 0.0
Co680 Co 0.84231 0.46989 0.79968 0.0
Co681 Co 0.84003 0.4742 0.81997 0.0
C682 C 0.75735 0.43316 0.81034 0.0
O683 O 0.77934 0.44179 0.80328 0.0
O684 O 0.77581 0.44497 0.81757 0.0
C685 C 0.81531 0.45201 0.78213 0.0
O686 O 0.79022 0.41645 0.78555 0.0
C687 C 0.81663 0.49004 0.83846 0.0
C688 C 0.88942 0.50603 0.84366 0.0
C689 C 0.84114 0.50241 0.84598 0.0
N690 N 0.849 0.48726 0.83199 0.0
N691 N 0.8924 0.4966 0.83517 0.0
C692 C 0.764 0.47842 0.83746 0.0
H693 H 0.75997 0.44439 0.83374 0.0
H694 H 0.74606 0.50785 0.83378 0.0
H695 H 0.74581 0.47376 0.84377 0.0
C696 C 0.85958 0.57413 0.80187 0.0
N697 N 0.85368 0.52951 0.80517 0.0
N698 N 0.84894 0.53252 0.81358 0.0
C699 C 0.84958 0.57968 0.81587 0.0
C700 C 0.85657 0.60787 0.80851 0.0
C701 C 0.86787 0.58374 0.79248 0.0
H702 H 0.89265 0.55595 0.7898 0.0
H703 H 0.83289 0.58115 0.78899 0.0
H704 H 0.88383 0.62015 0.79143 0.0
O705 O 0.89212 0.42213 0.80259 0.0
O706 O 0.88887 0.42351 0.81689 0.0
H707 H 0.87014 0.59665 0.8288 0.0
H708 H 0.82227 0.6345 0.82462 0.0
C709 C 0.83709 0.59719 0.82473 0.0
H710 H 0.80979 0.57291 0.82768 0.0
H711 H 0.9241 0.49697 0.83151 0.0
O712 O 0.84078 0.47895 0.78699 0.0
C713 C 0.90575 0.40613 0.80989 0.0
Co714 Co 0.78197 0.59636 0.04963 0.0
Co715 Co 0.77897 0.59807 0.06989 0.0
C716 C 0.82104 0.51415 0.06058 0.0
O717 O 0.81217 0.53385 0.05331 0.0
O718 O 0.8087 0.53449 0.06762 0.0
C719 C 0.75613 0.55786 0.03311 0.0
O720 O 0.74224 0.52029 0.03768 0.0
C721 C 0.76477 0.57463 0.0883 0.0
C722 C 0.75487 0.64772 0.09385 0.0
C723 C 0.75612 0.59902 0.09597 0.0
N724 N 0.76793 0.6075 0.08192 0.0
N725 N 0.76216 0.65109 0.0853 0.0
C726 C 0.77343 0.5216 0.08704 0.0
H727 H 0.81059 0.51654 0.08451 0.0
H728 H 0.74783 0.50729 0.08215 0.0
H729 H 0.77009 0.5008 0.09311 0.0
C730 C 0.67675 0.61479 0.0522 0.0
N731 N 0.72194 0.60803 0.05524 0.0
N732 N 0.7203 0.60524 0.06369 0.0
C733 C 0.67382 0.60765 0.06629 0.0
C734 C 0.64438 0.61432 0.05909 0.0
C735 C 0.66521 0.62303 0.04289 0.0
H736 H 0.69483 0.64373 0.03977 0.0
H737 H 0.66176 0.58757 0.03958 0.0
H738 H 0.63073 0.64326 0.04215 0.0
O739 O 0.82927 0.64749 0.05228 0.0
O740 O 0.82781 0.64743 0.06657 0.0
H741 H 0.66083 0.63078 0.07923 0.0
H742 H 0.62021 0.58368 0.07559 0.0
C743 C 0.65796 0.59721 0.07533 0.0
H744 H 0.68171 0.56929 0.07821 0.0
H745 H 0.76308 0.68318 0.08174 0.0
O746 O 0.77376 0.59455 0.03694 0.0
C747 C 0.84482 0.66315 0.05948 0.0
Co748 Co 0.66035 0.52918 0.2991 0.0
Co749 Co 0.65904 0.52512 0.31937 0.0
C750 C 0.74331 0.56614 0.31024 0.0
O751 O 0.72259 0.55727 0.30307 0.0
O752 O 0.72356 0.55463 0.31738 0.0
C753 C 0.68782 0.54914 0.2817 0.0
O754 O 0.7114 0.58529 0.28527 0.0
C755 C 0.67842 0.50703 0.33797 0.0
C756 C 0.60364 0.49731 0.34273 0.0
C757 C 0.6516 0.49689 0.34535 0.0
N758 N 0.6475 0.51312 0.33134 0.0
N759 N 0.60293 0.50763 0.33427 0.0
C760 C 0.73233 0.50669 0.33703 0.0
H761 H 0.74264 0.4969 0.33034 0.0
H762 H 0.74904 0.48069 0.3416 0.0
H763 H 0.74652 0.54347 0.33843 0.0
C764 C 0.64096 0.42529 0.30121 0.0
N765 N 0.64769 0.46971 0.30454 0.0
N766 N 0.6509 0.46668 0.31297 0.0
C767 C 0.64826 0.4196 0.31527 0.0
C768 C 0.64171 0.39156 0.30787 0.0
C769 C 0.63349 0.41593 0.2918 0.0
H770 H 0.60993 0.44449 0.28902 0.0
H771 H 0.66894 0.41742 0.28844 0.0
H772 H 0.61651 0.38005 0.29067 0.0
O773 O 0.60982 0.57671 0.30161 0.0
O774 O 0.61064 0.57534 0.31591 0.0
H775 H 0.6239 0.40442 0.32805 0.0
H776 H 0.67066 0.36386 0.32428 0.0
C777 C 0.65776 0.40187 0.32423 0.0
H778 H 0.68558 0.42483 0.32734 0.0
H779 H 0.57197 0.51005 0.33043 0.0
O780 O 0.66356 0.52051 0.28644 0.0
C781 C 0.59477 0.59251 0.30882 0.0
Co782 Co 0.72062 0.41162 0.54985 0.0
Co783 Co 0.72525 0.40758 0.57015 0.0
C784 C 0.68378 0.49308 0.56121 0.0
O785 O 0.69173 0.47385 0.55387 0.0
O786 O 0.69649 0.47203 0.56817 0.0
C787 C 0.73493 0.4539 0.53308 0.0
O788 O 0.73741 0.49471 0.53741 0.0
C789 C 0.74285 0.42825 0.58865 0.0
C790 C 0.75016 0.35398 0.59382 0.0
C791 C 0.75148 0.40234 0.59617 0.0
N792 N 0.7373 0.39649 0.58214 0.0
N793 N 0.74156 0.35223 0.58529 0.0
C794 C 0.73684 0.48184 0.58767 0.0
H795 H 0.76507 0.49603 0.58325 0.0
H796 H 0.73865 0.50106 0.59393 0.0
H797 H 0.70115 0.48931 0.5847 0.0
C798 C 0.82494 0.39053 0.552 0.0
N799 N 0.78047 0.39818 0.55527 0.0
N800 N 0.78317 0.39965 0.56372 0.0
C801 C 0.82988 0.3952 0.56611 0.0
C802 C 0.85816 0.38877 0.55876 0.0
C803 C 0.83476 0.38384 0.54259 0.0
H804 H 0.80514 0.36251 0.53961 0.0
H805 H 0.83594 0.41982 0.53941 0.0
H806 H 0.86962 0.36483 0.5415 0.0
O807 O 0.67283 0.36105 0.55243 0.0
O808 O 0.67487 0.35964 0.56673 0.0
H809 H 0.84341 0.36907 0.57885 0.0
H810 H 0.88552 0.41515 0.57534 0.0
C811 C 0.84722 0.40322 0.57515 0.0
H812 H 0.82497 0.43149 0.57829 0.0
H813 H 0.73872 0.32074 0.5816 0.0
O814 O 0.72836 0.41441 0.53713 0.0
C815 C 0.65726 0.34499 0.5596 0.0
Co816 Co 0.16176 0.46885 0.29974 0.0
Co817 Co 0.1558 0.4731 0.32 0.0
C818 C 0.24159 0.43074 0.31131 0.0
O819 O 0.22347 0.43935 0.30389 0.0
O820 O 0.21978 0.44324 0.31819 0.0
C821 C 0.20401 0.48197 0.28284 0.0
O822 O 0.24541 0.48219 0.28702 0.0
C823 C 0.17483 0.49106 0.33857 0.0
C824 C 0.10008 0.50051 0.34336 0.0
C825 C 0.14808 0.50113 0.34596 0.0
N826 N 0.14384 0.48487 0.33196 0.0
N827 N 0.09928 0.49013 0.3349 0.0
C828 C 0.22873 0.49184 0.33759 0.0
H829 H 0.23885 0.5019 0.33091 0.0
H830 H 0.24537 0.51786 0.34217 0.0
H831 H 0.24321 0.45514 0.33896 0.0
C832 C 0.1417 0.57338 0.30187 0.0
N833 N 0.14845 0.52876 0.30514 0.0
N834 N 0.14919 0.53136 0.3136 0.0
C835 C 0.14511 0.57815 0.31599 0.0
C836 C 0.13979 0.60659 0.30862 0.0
C837 C 0.13598 0.58337 0.29244 0.0
H838 H 0.11407 0.55432 0.28941 0.0
H839 H 0.17218 0.58355 0.28934 0.0
H840 H 0.11798 0.61873 0.2913 0.0
O841 O 0.11061 0.42146 0.30215 0.0
O842 O 0.10753 0.42344 0.31644 0.0
H843 H 0.11788 0.59156 0.32866 0.0
H844 H 0.16437 0.63362 0.3253 0.0
C845 C 0.15235 0.59535 0.32505 0.0
H846 H 0.18025 0.57296 0.32826 0.0
H847 H 0.06828 0.4876 0.33107 0.0
O848 O 0.16479 0.47696 0.28703 0.0
C849 C 0.09354 0.40602 0.30925 0.0
Co850 Co 0.27828 0.40519 0.05032 0.0
Co851 Co 0.28323 0.39921 0.0706 0.0
C852 C 0.32172 0.48505 0.06098 0.0
O853 O 0.30952 0.46614 0.05382 0.0
O854 O 0.31272 0.46389 0.06812 0.0
C855 C 0.26638 0.44584 0.03335 0.0
O856 O 0.27256 0.48716 0.03741 0.0
C857 C 0.26296 0.42178 0.08886 0.0
C858 C 0.27677 0.35075 0.09496 0.0
C859 C 0.26195 0.39767 0.09673 0.0
N860 N 0.27753 0.39038 0.08276 0.0
N861 N 0.28626 0.3482 0.08647 0.0
C862 C 0.24662 0.47235 0.08699 0.0
H863 H 0.27673 0.49778 0.08839 0.0
H864 H 0.23665 0.47606 0.08009 0.0
H865 H 0.21532 0.48218 0.09112 0.0
C866 C 0.1736 0.3937 0.05406 0.0
N867 N 0.22023 0.39537 0.0566 0.0
N868 N 0.22241 0.39033 0.06502 0.0
C869 C 0.17732 0.38298 0.06807 0.0
C870 C 0.14459 0.38546 0.06126 0.0
C871 C 0.15746 0.4058 0.0451 0.0
H872 H 0.16267 0.3737 0.0409 0.0
H873 H 0.1798 0.43581 0.04253 0.0
H874 H 0.11899 0.41712 0.04488 0.0
O875 O 0.32656 0.35301 0.05241 0.0
O876 O 0.33013 0.35055 0.06669 0.0
H877 H 0.19344 0.34682 0.07995 0.0
H878 H 0.12976 0.35513 0.07799 0.0
C879 C 0.16602 0.37202 0.0773 0.0
H880 H 0.167 0.40605 0.0811 0.0
H881 H 0.2976 0.31727 0.08317 0.0
O882 O 0.26628 0.40659 0.03765 0.0
C883 C 0.34444 0.33597 0.05935 0.0
Co884 Co 0.34698 0.52214 0.80036 0.0
Co885 Co 0.34136 0.52354 0.8206 0.0
C886 C 0.2608 0.56279 0.81019 0.0
O887 O 0.28385 0.55225 0.80332 0.0
O888 O 0.27774 0.55216 0.8176 0.0
C889 C 0.3331 0.53856 0.78224 0.0
O890 O 0.31821 0.58158 0.78471 0.0
C891 C 0.31589 0.51032 0.83911 0.0
C892 C 0.38879 0.4997 0.84468 0.0
C893 C 0.34008 0.5006 0.84678 0.0
N894 N 0.34892 0.51411 0.83276 0.0
N895 N 0.39235 0.50807 0.83616 0.0
C896 C 0.26271 0.51796 0.83784 0.0
H897 H 0.25666 0.54904 0.83346 0.0
H898 H 0.24676 0.48525 0.8348 0.0
H899 H 0.24408 0.52531 0.84403 0.0
C900 C 0.36511 0.41905 0.80357 0.0
N901 N 0.35757 0.46433 0.80645 0.0
N902 N 0.3513 0.46348 0.81483 0.0
C903 C 0.35242 0.41699 0.81753 0.0
C904 C 0.36135 0.38705 0.81046 0.0
C905 C 0.37634 0.40721 0.79437 0.0
H906 H 0.40118 0.43492 0.79167 0.0
H907 H 0.34236 0.40781 0.79055 0.0
H908 H 0.39354 0.37104 0.79377 0.0
O909 O 0.39667 0.57039 0.80296 0.0
O910 O 0.39055 0.57339 0.81722 0.0
H911 H 0.37143 0.40456 0.83069 0.0
H912 H 0.32556 0.36382 0.82664 0.0
C913 C 0.33911 0.40161 0.82648 0.0
H914 H 0.31056 0.42574 0.82905 0.0
H915 H 0.42451 0.50899 0.83263 0.0
O916 O 0.34717 0.50828 0.78786 0.0
C917 C 0.40879 0.58865 0.81017 0.0
Co918 Co 0.22582 0.58424 0.55 0.0
Co919 Co 0.21928 0.59233 0.57022 0.0
C920 C 0.1839 0.50441 0.56083 0.0
O921 O 0.19612 0.52267 0.55361 0.0
O922 O 0.19192 0.52674 0.56788 0.0
C923 C 0.23705 0.54324 0.53303 0.0
O924 O 0.22866 0.50208 0.53701 0.0
C925 C 0.23967 0.57125 0.58846 0.0
C926 C 0.22283 0.64167 0.59454 0.0
C927 C 0.23957 0.59541 0.59632 0.0
N928 N 0.2239 0.60198 0.58235 0.0
N929 N 0.21332 0.64378 0.58605 0.0
C930 C 0.25827 0.52145 0.5866 0.0
H931 H 0.26866 0.51823 0.57971 0.0
H932 H 0.28982 0.51295 0.59077 0.0
H933 H 0.22925 0.49472 0.58795 0.0
C934 C 0.32986 0.60004 0.55396 0.0
N935 N 0.28313 0.59667 0.55638 0.0
N936 N 0.28006 0.60265 0.56477 0.0
C937 C 0.3245 0.61233 0.56791 0.0
C938 C 0.35787 0.61039 0.5612 0.0
C939 C 0.34733 0.588 0.54508 0.0
H940 H 0.32533 0.55813 0.54236 0.0
H941 H 0.38583 0.57669 0.54508 0.0
H942 H 0.34301 0.62025 0.54088 0.0
O943 O 0.17559 0.63508 0.5518 0.0
O944 O 0.17135 0.63908 0.56605 0.0
H945 H 0.36981 0.64407 0.5778 0.0
H946 H 0.33486 0.59192 0.58108 0.0
C947 C 0.33448 0.62532 0.57711 0.0
H948 H 0.30567 0.64959 0.57956 0.0
H949 H 0.20078 0.67419 0.58273 0.0
O950 O 0.23873 0.58227 0.53739 0.0
C951 C 0.15688 0.65235 0.55864 0.0
Co952 Co 0.15525 0.52893 0.2018 0.0
Co953 Co 0.15492 0.52492 0.1815 0.0
C954 C 0.23811 0.56711 0.19071 0.0
O955 O 0.21693 0.55838 0.19785 0.0
O956 O 0.21911 0.55492 0.18355 0.0
C957 C 0.19853 0.5122 0.21833 0.0
O958 O 0.23828 0.50776 0.21375 0.0
C959 C 0.17475 0.50707 0.16293 0.0
C960 C 0.10038 0.49388 0.15821 0.0
C961 C 0.14831 0.49518 0.1556 0.0
N962 N 0.14366 0.51248 0.16954 0.0
N963 N 0.09931 0.50501 0.16664 0.0
C964 C 0.22865 0.50868 0.16386 0.0
H965 H 0.23939 0.49837 0.1705 0.0
H966 H 0.24636 0.48404 0.15917 0.0
H967 H 0.24135 0.54619 0.16263 0.0
C968 C 0.13666 0.42456 0.1996 0.0
N969 N 0.1437 0.46916 0.19634 0.0
N970 N 0.14713 0.46646 0.18791 0.0
C971 C 0.14438 0.41952 0.18554 0.0
C972 C 0.13731 0.39119 0.19287 0.0
C973 C 0.12852 0.41469 0.20897 0.0
H974 H 0.10645 0.44411 0.21184 0.0
H975 H 0.16394 0.41379 0.21234 0.0
H976 H 0.10972 0.37958 0.20995 0.0
O977 O 0.10401 0.5757 0.19916 0.0
O978 O 0.10606 0.57476 0.18486 0.0
H979 H 0.12052 0.40456 0.17271 0.0
H980 H 0.16736 0.36417 0.1765 0.0
C981 C 0.15425 0.40211 0.17657 0.0
H982 H 0.18213 0.42524 0.17351 0.0
H983 H 0.06832 0.50638 0.17048 0.0
O984 O 0.15872 0.52091 0.21451 0.0
C985 C 0.08944 0.59159 0.19191 0.0
Co986 Co 0.2213 0.40418 0.95207 0.0
Co987 Co 0.2169 0.39047 0.93189 0.0
C988 C 0.17655 0.47905 0.94089 0.0
O989 O 0.18953 0.46482 0.94834 0.0
O990 O 0.18552 0.45387 0.93419 0.0
C991 C 0.23296 0.44685 0.96888 0.0
O992 O 0.22597 0.48763 0.9647 0.0
C993 C 0.24024 0.41473 0.91384 0.0
C994 C 0.2155 0.34893 0.90703 0.0
C995 C 0.23619 0.39407 0.90569 0.0
N996 N 0.22313 0.38299 0.91968 0.0
N997 N 0.20842 0.34378 0.91556 0.0
C998 C 0.25739 0.46471 0.91604 0.0
H999 H 0.24465 0.4757 0.92251 0.0
H1000 H 0.29752 0.46538 0.91611 0.0
H1001 H 0.24463 0.49109 0.91114 0.0
C1002 C 0.32663 0.39289 0.94826 0.0
N1003 N 0.27975 0.39317 0.94582 0.0
N1004 N 0.27722 0.38416 0.93751 0.0
C1005 C 0.32199 0.37534 0.93448 0.0
C1006 C 0.35515 0.38142 0.94113 0.0
C1007 C 0.34353 0.40847 0.957 0.0
H1008 H 0.31984 0.4377 0.95947 0.0
H1009 H 0.38133 0.42196 0.95685 0.0
H1010 H 0.34123 0.37725 0.96148 0.0
O1011 O 0.17272 0.35131 0.95023 0.0
O1012 O 0.17186 0.34115 0.93603 0.0
H1013 H 0.30338 0.33421 0.92321 0.0
H1014 H 0.36762 0.33921 0.92517 0.0
C1015 C 0.33252 0.35869 0.92549 0.0
H1016 H 0.33422 0.39044 0.92113 0.0
H1017 H 0.19315 0.31359 0.91857 0.0
O1018 O 0.23359 0.40717 0.96471 0.0
C1019 C 0.15645 0.33026 0.9435 0.0
Co1020 Co 0.33994 0.472 0.70125 0.0
Co1021 Co 0.34688 0.47515 0.68104 0.0
C1022 C 0.26041 0.43379 0.68959 0.0
O1023 O 0.27838 0.44262 0.69701 0.0
O1024 O 0.28253 0.44586 0.68271 0.0
C1025 C 0.3401 0.45154 0.71945 0.0
O1026 O 0.35179 0.40743 0.71705 0.0
C1027 C 0.3297 0.49083 0.6624 0.0
C1028 C 0.40448 0.50346 0.65785 0.0
C1029 C 0.35678 0.50179 0.65511 0.0
N1030 N 0.36018 0.48621 0.66912 0.0
N1031 N 0.4048 0.49333 0.66633 0.0
C1032 C 0.27571 0.48964 0.66319 0.0
H1033 H 0.26445 0.50191 0.66969 0.0
H1034 H 0.25841 0.51297 0.65825 0.0
H1035 H 0.26299 0.45185 0.66228 0.0
C1036 C 0.36089 0.5761 0.69897 0.0
N1037 N 0.35415 0.53139 0.69573 0.0
N1038 N 0.35323 0.53375 0.68729 0.0
C1039 C 0.35705 0.5805 0.68485 0.0
C1040 C 0.3624 0.60916 0.69219 0.0
C1041 C 0.36691 0.58635 0.70838 0.0
H1042 H 0.38904 0.55745 0.71141 0.0
H1043 H 0.33081 0.58647 0.71152 0.0
H1044 H 0.38483 0.6218 0.70948 0.0
O1045 O 0.39125 0.4238 0.69925 0.0
O1046 O 0.39435 0.42561 0.68495 0.0
H1047 H 0.38433 0.59499 0.67222 0.0
H1048 H 0.33627 0.63528 0.67554 0.0
C1049 C 0.34957 0.59743 0.67578 0.0
H1050 H 0.32266 0.57405 0.67252 0.0
H1051 H 0.43543 0.49243 0.67027 0.0
O1052 O 0.33304 0.48382 0.71376 0.0
C1053 C 0.40819 0.40814 0.69215 0.0
Co1054 Co 0.27545 0.59151 0.45193 0.0
Co1055 Co 0.27392 0.59205 0.43164 0.0
C1056 C 0.31403 0.50831 0.44093 0.0
O1057 O 0.30489 0.52959 0.44804 0.0
O1058 O 0.30254 0.5274 0.43373 0.0
C1059 C 0.25719 0.54861 0.46843 0.0
O1060 O 0.25191 0.50883 0.46388 0.0
C1061 C 0.25672 0.57329 0.41299 0.0
C1062 C 0.24912 0.64846 0.40827 0.0
C1063 C 0.24729 0.60055 0.40563 0.0
N1064 N 0.26357 0.60394 0.41964 0.0
N1065 N 0.25949 0.64873 0.41673 0.0
C1066 C 0.2547 0.51936 0.41391 0.0
H1067 H 0.24571 0.50914 0.42063 0.0
H1068 H 0.22742 0.50367 0.40946 0.0
H1069 H 0.29069 0.50398 0.41229 0.0
C1070 C 0.17163 0.61183 0.4493 0.0
N1071 N 0.21649 0.60395 0.44624 0.0
N1072 N 0.21486 0.60071 0.4378 0.0
C1073 C 0.16838 0.60447 0.43521 0.0
C1074 C 0.1392 0.61203 0.44243 0.0
C1075 C 0.16071 0.61999 0.45863 0.0
H1076 H 0.19023 0.64135 0.46165 0.0
H1077 H 0.15862 0.5845 0.46197 0.0
H1078 H 0.12593 0.63954 0.45948 0.0
O1079 O 0.32308 0.64231 0.44957 0.0
O1080 O 0.32405 0.63996 0.43527 0.0
H1081 H 0.15644 0.62862 0.4223 0.0
H1082 H 0.11379 0.58322 0.42588 0.0
C1083 C 0.15209 0.59507 0.42616 0.0
H1084 H 0.17466 0.5663 0.42325 0.0
H1085 H 0.26262 0.67955 0.42059 0.0
O1086 O 0.26649 0.5882 0.46459 0.0
C1087 C 0.34017 0.65649 0.44239 0.0
H1088 H 0.26097 0.95084 0.1508 0.0
H1089 H 0.30392 0.98912 0.10017 0.0
H1090 H 0.37175 0.04363 0.14026 0.0
H1091 H 0.20913 0.88007 0.11072 0.0
H1092 H 0.32129 0.01752 0.1148 0.0
H1093 H 0.23351 0.93251 0.13616 0.0
C1094 C 0.27877 0.96823 0.14541 0.0
C1095 C 0.31811 -0.00052 0.14673 0.0
C1096 C 0.29625 0.98774 0.11391 0.0
C1097 C 0.28785 0.97768 0.12997 0.0
C1098 C 0.28592 0.9719 0.10557 0.0
C1099 C 0.25432 0.93285 0.10425 0.0
C1100 C 0.27501 0.96414 0.121 0.0
C1101 C 0.23348 0.91053 0.11147 0.0
C1102 C 0.26346 0.95734 0.13705 0.0
C1103 C 0.34109 0.01954 0.1395 0.0
N1104 N 0.24416 0.92649 0.11954 0.0
N1105 N 0.32564 0.00832 0.13143 0.0
H1106 H 0.32123 0.14064 0.39465 0.0
H1107 H 0.25887 0.97405 0.35407 0.0
H1108 H 0.20556 0.03568 0.39514 0.0
H1109 H 0.39842 0.04038 0.35816 0.0
H1110 H 0.2327 0.00403 0.36822 0.0
H1111 H 0.3439 0.11231 0.38028 0.0
C1112 C 0.30062 0.11158 0.39171 0.0
C1113 C 0.26201 0.08988 0.39612 0.0
C1114 C 0.26897 0.01206 0.36599 0.0
C1115 C 0.28737 0.05761 0.37967 0.0
C1116 C 0.28373 0.9954 0.3579 0.0
C1117 C 0.33067 0.00528 0.35493 0.0
C1118 C 0.30126 0.03917 0.37106 0.0
C1119 C 0.36192 0.03199 0.36023 0.0
C1120 C 0.31366 0.09531 0.38354 0.0
C1121 C 0.23628 0.05256 0.39202 0.0
N1122 N 0.34657 0.04826 0.36801 0.0
N1123 N 0.24936 0.03759 0.384 0.0
H1124 H 0.21331 0.06728 0.6498 0.0
H1125 H 0.20439 0.01414 0.59913 0.0
H1126 H 0.14627 0.94083 0.63862 0.0
H1127 H 0.27151 0.1409 0.61014 0.0
H1128 H 0.18719 0.98434 0.61363 0.0
H1129 H 0.23967 0.09234 0.63547 0.0
C1130 C 0.2051 0.04414 0.64437 0.0
C1131 C 0.17836 0.00134 0.64544 0.0
C1132 C 0.20616 0.01843 0.61289 0.0
C1133 C 0.20705 0.0307 0.62895 0.0
C1134 C 0.21647 0.03518 0.60461 0.0
C1135 C 0.24057 0.0794 0.60346 0.0
C1136 C 0.21952 0.04641 0.62008 0.0
C1137 C 0.25328 0.10634 0.61078 0.0
C1138 C 0.21965 0.05883 0.63616 0.0
C1139 C 0.16696 0.97403 0.63809 0.0
N1140 N 0.24267 0.08941 0.61878 0.0
N1141 N 0.18132 0.98916 0.63016 0.0
H1142 H 0.23328 0.94777 0.84965 0.0
H1143 H 0.17772 0.95435 0.90026 0.0
H1144 H 0.10811 0.01742 0.86071 0.0
H1145 H 0.30418 0.88655 0.88928 0.0
H1146 H 0.15397 0.98162 0.88593 0.0
H1147 H 0.26224 0.92892 0.86416 0.0
C1148 C 0.21246 0.9601 0.85514 0.0
C1149 C 0.16884 0.98527 0.85399 0.0
C1150 C 0.1872 0.9612 0.88665 0.0
C1151 C 0.20083 0.9623 0.87061 0.0
C1152 C 0.20114 0.9461 0.89488 0.0
C1153 C 0.24363 0.91901 0.89601 0.0
C1154 C 0.21572 0.94878 0.87949 0.0
C1155 C 0.27122 0.90752 0.8887 0.0
C1156 C 0.22871 0.94881 0.86342 0.0
C1157 C 0.14217 0.99831 0.86132 0.0
N1158 N 0.25681 0.92245 0.88075 0.0
N1159 N 0.15857 0.98671 0.86932 0.0
H1160 H 0.68255 0.04338 0.90004 0.0
H1161 H 0.7345 0.04558 0.8494 0.0
H1162 H 0.81041 0.10686 0.88874 0.0
H1163 H 0.61283 0.97254 0.86102 0.0
H1164 H 0.76491 0.06539 0.86376 0.0
H1165 H 0.65827 0.0143 0.88587 0.0
C1166 C 0.70618 0.05023 0.89462 0.0
C1167 C 0.74924 0.07658 0.89562 0.0
C1168 C 0.73189 0.04448 0.86318 0.0
C1169 C 0.72066 0.04489 0.87927 0.0
C1170 C 0.71483 0.03264 0.85498 0.0
C1171 C 0.67173 0.00631 0.85404 0.0
C1172 C 0.70526 0.03046 0.87048 0.0
C1173 C 0.64645 0.99256 0.86148 0.0
C1174 C 0.69194 0.0341 0.88649 0.0
C1175 C 0.77704 0.08644 0.88826 0.0
N1176 N 0.66356 0.00483 0.86939 0.0
N1177 N 0.76227 0.07062 0.88039 0.0
H1178 H 0.72486 0.94394 0.64981 0.0
H1179 H 0.6933 0.97088 0.59913 0.0
H1180 H 0.64127 0.05849 0.63809 0.0
H1181 H 0.8065 0.88491 0.61071 0.0
H1182 H 0.67208 0.00181 0.61332 0.0
H1183 H 0.75374 0.92024 0.63561 0.0
C1184 C 0.71351 0.96504 0.64431 0.0
C1185 C 0.68149 0.00419 0.64522 0.0
C1186 C 0.702 0.97667 0.61274 0.0
C1187 C 0.71286 0.97566 0.62882 0.0
C1188 C 0.71462 0.95938 0.60459 0.0
C1189 C 0.75272 0.92616 0.60365 0.0
C1190 C 0.72701 0.95996 0.62004 0.0
C1191 C 0.77704 0.91068 0.61111 0.0
C1192 C 0.7296 0.951 0.63616 0.0
C1193 C 0.66613 0.02824 0.63772 0.0
N1194 N 0.76371 0.92758 0.61898 0.0
N1195 N 0.6818 0.01351 0.62985 0.0
H1196 H 0.80827 0.96919 0.39996 0.0
H1197 H 0.75746 0.96031 0.3493 0.0
H1198 H 0.68243 0.90177 0.38864 0.0
H1199 H 0.88107 0.03165 0.3606 0.0
H1200 H 0.72634 0.94374 0.36372 0.0
H1201 H 0.83244 0.9977 0.38573 0.0
C1202 C 0.78503 0.96138 0.39453 0.0
C1203 C 0.74272 0.93384 0.39552 0.0
C1204 C 0.75996 0.96359 0.36306 0.0
C1205 C 0.77113 0.96493 0.37914 0.0
C1206 C 0.77743 0.97357 0.35482 0.0
C1207 C 0.82129 0.99845 0.35377 0.0
C1208 C 0.78689 0.97801 0.37031 0.0
C1209 C 0.84688 0.0127 0.36115 0.0
C1210 C 0.79921 0.97718 0.38637 0.0
C1211 C 0.71529 0.92301 0.38816 0.0
N1212 N 0.82934 0.00224 0.36911 0.0
N1213 N 0.73001 0.93849 0.38028 0.0
H1214 H 0.76944 0.96435 0.14549 0.0
H1215 H 0.81464 0.14434 0.10587 0.0
H1216 H 0.8874 0.06653 0.14406 0.0
H1217 H 0.71516 0.02408 0.10443 0.0
H1218 H 0.83672 0.11963 0.12042 0.0
H1219 H 0.74409 0.98882 0.13096 0.0
C1220 C 0.78958 0.99235 0.14217 0.0
C1221 C 0.83015 0.014 0.14603 0.0
C1222 C 0.81025 0.09837 0.11692 0.0
C1223 C 0.80196 0.04149 0.12942 0.0
C1224 C 0.79752 0.11257 0.10862 0.0
C1225 C 0.76363 0.08575 0.10388 0.0
C1226 C 0.78852 0.0573 0.1206 0.0
C1227 C 0.74241 0.04503 0.10778 0.0
C1228 C 0.77541 0.00593 0.13386 0.0
C1229 C 0.85586 0.04897 0.14134 0.0
N1230 N 0.75515 0.03203 0.11593 0.0
N1231 N 0.84122 0.06175 0.13331 0.0
H1232 H 0.88674 0.53574 0.6405 0.0
H1233 H 0.71634 0.3679 0.61134 0.0
H1234 H 0.7794 0.43864 0.65091 0.0
H1235 H 0.81288 0.47571 0.60091 0.0
H1236 H 0.7381 0.39413 0.6259 0.0
H1237 H 0.85954 0.51513 0.62593 0.0
C1238 C 0.85706 0.51046 0.6397 0.0
C1239 C 0.83451 0.48966 0.64689 0.0
C1240 C 0.75413 0.41248 0.62044 0.0
C1241 C 0.80367 0.46527 0.63028 0.0
C1242 C 0.74173 0.3975 0.61213 0.0
C1243 C 0.76208 0.4204 0.60493 0.0
C1244 C 0.7878 0.45014 0.62155 0.0
C1245 C 0.79526 0.45811 0.60629 0.0
C1246 C 0.84151 0.49873 0.6314 0.0
C1247 C 0.79671 0.45662 0.64553 0.0
N1248 N 0.80722 0.47171 0.61444 0.0
N1249 N 0.78254 0.44534 0.63738 0.0
H1250 H 0.75855 0.55213 0.85032 0.0
H1251 H 0.81434 0.54466 0.90093 0.0
H1252 H 0.88151 0.47869 0.8614 0.0
H1253 H 0.69079 0.61749 0.8899 0.0
H1254 H 0.83689 0.51617 0.88661 0.0
H1255 H 0.73048 0.57241 0.86482 0.0
C1256 C 0.77904 0.53929 0.85582 0.0
C1257 C 0.82178 0.51264 0.85468 0.0
C1258 C 0.80455 0.53797 0.88733 0.0
C1259 C 0.79085 0.53717 0.87128 0.0
C1260 C 0.79128 0.55378 0.89554 0.0
C1261 C 0.74995 0.58264 0.89666 0.0
C1262 C 0.77655 0.55144 0.88016 0.0
C1263 C 0.72285 0.59514 0.88934 0.0
C1264 C 0.76332 0.55138 0.86409 0.0
C1265 C 0.84812 0.49895 0.86201 0.0
N1266 N 0.73659 0.57947 0.8814 0.0
N1267 N 0.83224 0.51133 0.87 0.0
H1268 H 0.79298 0.63086 0.1112 0.0
H1269 H 0.62606 0.45658 0.13964 0.0
H1270 H 0.69676 0.52383 0.10042 0.0
H1271 H 0.73346 0.55218 0.15049 0.0
H1272 H 0.6536 0.47871 0.12519 0.0
H1273 H 0.77367 0.60098 0.12566 0.0
C1274 C 0.76823 0.60065 0.1119 0.0
C1275 C 0.7472 0.57902 0.10463 0.0
C1276 C 0.67163 0.49439 0.13072 0.0
C1277 C 0.72433 0.54514 0.1211 0.0
C1278 C 0.65591 0.48176 0.13896 0.0
C1279 C 0.67813 0.50194 0.14624 0.0
C1280 C 0.7093 0.52817 0.12976 0.0
C1281 C 0.71627 0.53479 0.14504 0.0
C1282 C 0.75726 0.58357 0.12013 0.0
C1283 C 0.71487 0.54048 0.10585 0.0
N1284 N 0.7305 0.54712 0.13695 0.0
N1285 N 0.70427 0.52487 0.11393 0.0
H1286 H 0.68167 0.35885 0.39482 0.0
H1287 H 0.72852 0.53435 0.35462 0.0
H1288 H 0.78178 0.47867 0.39598 0.0
H1289 H 0.61137 0.43132 0.35619 0.0
H1290 H 0.75286 0.51217 0.36932 0.0
H1291 H 0.65967 0.38255 0.38023 0.0
C1292 C 0.69892 0.39036 0.39201 0.0
C1293 C 0.73311 0.41722 0.39668 0.0
C1294 C 0.72194 0.49438 0.36642 0.0
C1295 C 0.7083 0.44452 0.37987 0.0
C1296 C 0.70836 0.50662 0.358 0.0
C1297 C 0.66833 0.48404 0.35413 0.0
C1298 C 0.69533 0.45923 0.37096 0.0
C1299 C 0.64254 0.44955 0.35892 0.0
C1300 C 0.68624 0.40398 0.38367 0.0
C1301 C 0.75439 0.45764 0.39269 0.0
N1302 N 0.6566 0.43809 0.36704 0.0
N1303 N 0.74174 0.47003 0.38449 0.0
H1304 H 0.22517 0.46402 0.35518 0.0
H1305 H 0.18181 0.64282 0.39504 0.0
H1306 H 0.10835 0.56736 0.35673 0.0
H1307 H 0.28136 0.5226 0.39624 0.0
H1308 H 0.15877 0.61827 0.38053 0.0
H1309 H 0.25056 0.48737 0.36977 0.0
C1310 C 0.20528 0.49203 0.35854 0.0
C1311 C 0.16507 0.5144 0.35469 0.0
C1312 C 0.18545 0.59696 0.38396 0.0
C1313 C 0.19329 0.54058 0.37138 0.0
C1314 C 0.19873 0.61107 0.39225 0.0
C1315 C 0.23301 0.58429 0.3969 0.0
C1316 C 0.207 0.556 0.38022 0.0
C1317 C 0.25389 0.54356 0.39295 0.0
C1318 C 0.21947 0.50497 0.36689 0.0
C1319 C 0.13964 0.5493 0.35944 0.0
N1320 N 0.24063 0.53067 0.38481 0.0
N1321 N 0.1543 0.56145 0.3675 0.0
H1322 H 0.11405 0.42329 0.14539 0.0
H1323 H 0.27791 0.48609 0.1045 0.0
H1324 H 0.2209 0.53722 0.14597 0.0
H1325 H 0.20857 0.34777 0.10838 0.0
H1326 H 0.2504 0.51145 0.11887 0.0
H1327 H 0.14118 0.40111 0.13095 0.0
C1328 C 0.14335 0.44358 0.14247 0.0
C1329 C 0.16577 0.48165 0.14692 0.0
C1330 C 0.24117 0.47563 0.11654 0.0
C1331 C 0.1967 0.45683 0.13034 0.0
C1332 C 0.25639 0.46135 0.10832 0.0
C1333 C 0.24496 0.41498 0.10522 0.0
C1334 C 0.21394 0.44344 0.12162 0.0
C1335 C 0.21813 0.38385 0.11053 0.0
C1336 C 0.15892 0.43081 0.13424 0.0
C1337 C 0.20342 0.50692 0.14282 0.0
N1338 N 0.2033 0.39872 0.11843 0.0
N1339 N 0.21766 0.49416 0.13473 0.0
H1340 H 0.25909 0.4475 0.85092 0.0
H1341 H 0.31383 0.45245 0.90153 0.0
H1342 H 0.37801 0.52604 0.86231 0.0
H1343 H 0.19069 0.37961 0.89034 0.0
H1344 H 0.3357 0.48279 0.88731 0.0
H1345 H 0.23109 0.42553 0.86533 0.0
C1346 C 0.27863 0.46116 0.85646 0.0
C1347 C 0.32028 0.48966 0.85543 0.0
C1348 C 0.30358 0.4606 0.88797 0.0
C1349 C 0.2895 0.46311 0.87195 0.0
C1350 C 0.29069 0.44371 0.89613 0.0
C1351 C 0.24965 0.41435 0.89718 0.0
C1352 C 0.27554 0.44766 0.88077 0.0
C1353 C 0.22251 0.40234 0.88983 0.0
C1354 C 0.26298 0.44807 0.86469 0.0
C1355 C 0.34549 0.50432 0.86283 0.0
N1356 N 0.23591 0.41902 0.88195 0.0
N1357 N 0.32975 0.49087 0.87077 0.0
H1358 H 0.3906 0.57334 0.64477 0.0
H1359 H 0.22655 0.50668 0.60409 0.0
H1360 H 0.2856 0.45773 0.64549 0.0
H1361 H 0.29192 0.64699 0.6079 0.0
H1362 H 0.25569 0.48197 0.61839 0.0
H1363 H 0.36292 0.5946 0.63029 0.0
C1364 C 0.36166 0.55245 0.64186 0.0
C1365 C 0.33979 0.51426 0.64636 0.0
C1366 C 0.2637 0.51808 0.61606 0.0
C1367 C 0.30827 0.53799 0.62978 0.0
C1368 C 0.24753 0.53201 0.60788 0.0
C1369 C 0.25737 0.57874 0.60479 0.0
C1370 C 0.2903 0.551 0.62109 0.0
C1371 C 0.28358 0.61062 0.61005 0.0
C1372 C 0.34576 0.56469 0.63363 0.0
C1373 C 0.30262 0.48816 0.6423 0.0
N1374 N 0.29939 0.59608 0.61792 0.0
N1375 N 0.28804 0.50043 0.63421 0.0
H1376 H 0.28801 0.60039 0.20473 0.0
H1377 H 0.40194 0.82621 0.18003 0.0
H1378 H 0.28282 0.61189 0.17698 0.0
H1379 H 0.32165 0.8329 0.20386 0.0
H1380 H 0.38913 0.73788 0.17974 0.0
H1381 H 0.33601 0.67447 0.20525 0.0
C1382 C 0.2981 0.61759 0.19872 0.0
C1383 C 0.2799 0.60076 0.19081 0.0
C1384 C 0.37549 0.7589 0.18511 0.0
C1385 C 0.3349 0.68542 0.19141 0.0
C1386 C 0.38233 0.80914 0.18526 0.0
C1387 C 0.36251 0.83711 0.19195 0.0
C1388 C 0.34993 0.73663 0.19184 0.0
C1389 C 0.3384 0.81304 0.19865 0.0
C1390 C 0.32541 0.65995 0.19904 0.0
C1391 C 0.29518 0.62415 0.18323 0.0
N1392 N 0.3327 0.76429 0.19841 0.0
N1393 N 0.32099 0.66607 0.18373 0.0
H1394 H 0.41856 0.16072 0.43203 0.0
H1395 H 0.64434 0.03669 0.45489 0.0
H1396 H 0.40928 0.06154 0.45347 0.0
H1397 H 0.63075 0.03756 0.42715 0.0
H1398 H 0.56973 0.0835 0.45592 0.0
H1399 H 0.50692 0.14873 0.43179 0.0
C1400 C 0.43508 0.13712 0.43677 0.0
C1401 C 0.4064 0.11165 0.44273 0.0
C1402 C 0.58403 0.07461 0.44961 0.0
C1403 C 0.50685 0.10004 0.44274 0.0
C1404 C 0.62667 0.04795 0.44899 0.0
C1405 C 0.64299 0.03161 0.44092 0.0
C1406 C 0.55807 0.08575 0.44212 0.0
C1407 C 0.61887 0.04836 0.43352 0.0
C1408 C 0.48531 0.13073 0.43666 0.0
C1409 C 0.42975 0.0825 0.44885 0.0
N1410 N 0.57689 0.07379 0.4343 0.0
N1411 N 0.47857 0.07741 0.44869 0.0
H1412 H 0.20633 0.39422 0.70271 0.0
H1413 H 0.17984 0.16134 0.67612 0.0
H1414 H 0.22117 0.39403 0.675 0.0
H1415 H 0.09759 0.178 0.69957 0.0
H1416 H 0.1896 0.24853 0.67536 0.0
H1417 H 0.159 0.31961 0.70173 0.0
C1418 C 0.19848 0.3794 0.6964 0.0
C1419 C 0.21914 0.39966 0.68895 0.0
C1420 C 0.16853 0.23337 0.68059 0.0
C1421 C 0.16583 0.31394 0.68783 0.0
C1422 C 0.16268 0.18337 0.68101 0.0
C1423 C 0.13783 0.16217 0.68792 0.0
C1424 C 0.15081 0.26254 0.68729 0.0
C1425 C 0.11784 0.19281 0.69421 0.0
C1426 C 0.17146 0.3367 0.69586 0.0
C1427 C 0.20706 0.37914 0.68095 0.0
N1428 N 0.12562 0.24149 0.69385 0.0
N1429 N 0.18235 0.33666 0.68062 0.0
H1430 H 0.07367 0.85306 0.95179 0.0
H1431 H 0.85641 0.97028 0.9251 0.0
H1432 H 0.08639 0.9254 0.92724 0.0
H1433 H 0.85443 0.95637 0.95282 0.0
H1434 H 0.93114 0.92333 0.92471 0.0
H1435 H 0.98538 0.86454 0.95114 0.0
C1436 C 0.0579 0.8707 0.94622 0.0
C1437 C 0.08747 0.88859 0.93959 0.0
C1438 C 0.91369 0.92965 0.93086 0.0
C1439 C 0.98705 0.90031 0.93869 0.0
C1440 C 0.87086 0.95626 0.93109 0.0
C1441 C 0.84991 0.96869 0.93903 0.0
C1442 C 0.93568 0.91535 0.9386 0.0
C1443 C 0.86988 0.94858 0.94657 0.0
C1444 C 0.00765 0.87684 0.94583 0.0
C1445 C 0.06515 0.91031 0.93245 0.0
N1446 N 0.91237 0.92377 0.94619 0.0
N1447 N 0.01641 0.91577 0.93221 0.0
H1448 H 0.40554 0.17293 0.30071 0.0
H1449 H 0.28089 0.39154 0.32593 0.0
H1450 H 0.31891 0.15946 0.32373 0.0
H1451 H 0.29506 0.39006 0.29821 0.0
H1452 H 0.32745 0.3166 0.32663 0.0
H1453 H 0.39329 0.26126 0.30117 0.0
C1454 C 0.38461 0.18854 0.30592 0.0
C1455 C 0.36299 0.15875 0.31217 0.0
C1456 C 0.32135 0.33344 0.32042 0.0
C1457 C 0.3506 0.25917 0.31289 0.0
C1458 C 0.29497 0.3764 0.32 0.0
C1459 C 0.28261 0.39634 0.31197 0.0
C1460 C 0.33581 0.31055 0.31277 0.0
C1461 C 0.30272 0.37533 0.30453 0.0
C1462 C 0.37803 0.23878 0.3062 0.0
C1463 C 0.33699 0.18087 0.31886 0.0
N1464 N 0.32754 0.3329 0.30509 0.0
N1465 N 0.33141 0.22965 0.31903 0.0
H1466 H 0.86509 0.0285 0.57214 0.0
H1467 H 0.09183 0.06109 0.54515 0.0
H1468 H 0.85683 0.02686 0.54434 0.0
H1469 H 0.07597 0.15141 0.56767 0.0
H1470 H 0.00476 0.04936 0.54483 0.0
H1471 H 0.9393 0.07678 0.57114 0.0
C1472 C 0.87796 0.03942 0.56584 0.0
C1473 C 0.85544 0.0223 0.55831 0.0
C1474 C 0.02015 0.07259 0.54975 0.0
C1475 C 0.94046 0.07655 0.55716 0.0
C1476 C 0.07001 0.0796 0.5499 0.0
C1477 C 0.0914 0.10739 0.55644 0.0
C1478 C 0.99144 0.09206 0.55635 0.0
C1479 C 0.06102 0.12894 0.56261 0.0
C1480 C 0.92032 0.06698 0.56528 0.0
C1481 C 0.87351 0.03817 0.55033 0.0
N1482 N 0.01255 0.1199 0.56255 0.0
N1483 N 0.91575 0.06317 0.54995 0.0
H1484 H 0.17951 0.83449 0.79589 0.0
H1485 H 0.2084 0.60502 0.82331 0.0
H1486 H 0.0931 0.81885 0.81888 0.0
H1487 H 0.22054 0.60082 0.79557 0.0
H1488 H 0.16116 0.67967 0.82209 0.0
H1489 H 0.19189 0.74746 0.79563 0.0
C1490 C 0.16201 0.81268 0.80077 0.0
C1491 C 0.13509 0.83414 0.80741 0.0
C1492 C 0.17306 0.66157 0.81627 0.0
C1493 C 0.15106 0.73413 0.80736 0.0
C1494 C 0.19999 0.61884 0.81695 0.0
C1495 C 0.21978 0.59726 0.80954 0.0
C1496 C 0.16665 0.68302 0.80815 0.0
C1497 C 0.20711 0.6167 0.80148 0.0
C1498 C 0.16939 0.76282 0.80065 0.0
C1499 C 0.11481 0.80383 0.81373 0.0
N1500 N 0.18251 0.65916 0.80101 0.0
N1501 N 0.12405 0.75537 0.81366 0.0
H1502 H 0.41669 0.93094 0.04659 0.0
H1503 H 0.6419 0.96222 0.0739 0.0
H1504 H 0.42607 0.8477 0.07007 0.0
H1505 H 0.6515 0.95646 0.04614 0.0
H1506 H 0.56671 0.91543 0.07317 0.0
H1507 H 0.50413 0.93826 0.04644 0.0
C1508 C 0.43712 0.91303 0.05161 0.0
C1509 C 0.41382 0.88848 0.05834 0.0
C1510 C 0.58621 0.92314 0.06728 0.0
C1511 C 0.51444 0.89886 0.05841 0.0
C1512 C 0.62922 0.9498 0.06768 0.0
C1513 C 0.65222 0.96478 0.06004 0.0
C1514 C 0.56607 0.91221 0.0592 0.0
C1515 C 0.63432 0.94702 0.05218 0.0
C1516 C 0.48725 0.9175 0.05154 0.0
C1517 C 0.44255 0.86772 0.06485 0.0
N1518 N 0.59153 0.92294 0.05194 0.0
N1519 N 0.49144 0.87431 0.06484 0.0
H1520 H 0.70897 0.39962 0.79615 0.0
H1521 H 0.58954 0.17625 0.82077 0.0
H1522 H 0.7105 0.38909 0.82392 0.0
H1523 H 0.67105 0.16693 0.7971 0.0
H1524 H 0.60411 0.26428 0.82098 0.0
H1525 H 0.66081 0.32568 0.79552 0.0
C1526 C 0.69812 0.38265 0.80214 0.0
C1527 C 0.71536 0.39973 0.8101 0.0
C1528 C 0.61769 0.2428 0.81567 0.0
C1529 C 0.65999 0.31529 0.80937 0.0
C1530 C 0.60979 0.19272 0.81556 0.0
C1531 C 0.62936 0.16411 0.80893 0.0
C1532 C 0.64413 0.2643 0.80897 0.0
C1533 C 0.65448 0.1874 0.80226 0.0
C1534 C 0.67071 0.34036 0.80175 0.0
C1535 C 0.69896 0.37668 0.81763 0.0
N1536 N 0.66123 0.23604 0.80246 0.0
N1537 N 0.67296 0.3349 0.81708 0.0
H1538 H 0.57463 0.8378 0.5498 0.0
H1539 H 0.35775 0.96844 0.57437 0.0
H1540 H 0.59015 0.92965 0.57214 0.0
H1541 H 0.36285 0.96001 0.54659 0.0
H1542 H 0.43134 0.91999 0.5751 0.0
H1543 H 0.48664 0.85244 0.55012 0.0
C1544 C 0.55952 0.86041 0.55483 0.0
C1545 C 0.58981 0.88315 0.56088 0.0
C1546 C 0.41552 0.92777 0.56886 0.0
C1547 C 0.48981 0.89787 0.5615 0.0
C1548 C 0.37339 0.95538 0.56842 0.0
C1549 C 0.35491 0.9699 0.56039 0.0
C1550 C 0.43895 0.91403 0.56124 0.0
C1551 C 0.37646 0.95072 0.55292 0.0
C1552 C 0.50949 0.86832 0.55504 0.0
C1553 C 0.56831 0.91099 0.5674 0.0
N1554 N 0.41803 0.9245 0.55352 0.0
N1555 N 0.51969 0.91771 0.56751 0.0
H1556 H 0.79489 0.59801 0.29631 0.0
H1557 H 0.90553 0.82588 0.32089 0.0
H1558 H 0.78692 0.61173 0.32401 0.0
H1559 H 0.82784 0.83091 0.29677 0.0
H1560 H 0.89311 0.73757 0.32129 0.0
H1561 H 0.8427 0.6722 0.29576 0.0
C1562 C 0.80432 0.61573 0.30231 0.0
C1563 C 0.78533 0.59951 0.3102 0.0
C1564 C 0.87995 0.75821 0.31584 0.0
C1565 C 0.84023 0.68423 0.30956 0.0
C1566 C 0.88658 0.80846 0.31562 0.0
C1567 C 0.86733 0.83598 0.30881 0.0
C1568 C 0.8552 0.73545 0.30906 0.0
C1569 C 0.84411 0.81141 0.30207 0.0
C1570 C 0.83153 0.65814 0.30197 0.0
C1571 C 0.79987 0.6235 0.31776 0.0
N1572 N 0.83858 0.76265 0.30238 0.0
N1573 N 0.82565 0.66543 0.31725 0.0
H1574 H 0.14457 0.04322 0.07275 0.0
H1575 H 0.91373 0.06163 0.04653 0.0
H1576 H 0.14842 0.0361 0.04495 0.0
H1577 H 0.92758 0.15568 0.06861 0.0
H1578 H 0.00109 0.05372 0.046 0.0
H1579 H 0.06907 0.08924 0.07184 0.0
C1580 C 0.13055 0.0526 0.06645 0.0
C1581 C 0.15205 0.0342 0.05892 0.0
C1582 C 0.98521 0.07693 0.05086 0.0
C1583 C 0.06551 0.08597 0.05789 0.0
C1584 C 0.93516 0.08169 0.05115 0.0
C1585 C 0.91317 0.10967 0.05759 0.0
C1586 C 0.0137 0.0988 0.05725 0.0
C1587 C 0.94308 0.13316 0.06361 0.0
C1588 C 0.08736 0.07886 0.06595 0.0
C1589 C 0.13246 0.04824 0.05094 0.0
N1590 N 0.99193 0.12637 0.06342 0.0
N1591 N 0.0895 0.072 0.05064 0.0
H1592 H 0.6813 0.83991 0.67584 0.0
H1593 H 0.70809 0.61158 0.70324 0.0
H1594 H 0.59313 0.8245 0.69863 0.0
H1595 H 0.72085 0.60624 0.67552 0.0
H1596 H 0.66005 0.6856 0.70187 0.0
H1597 H 0.692 0.7526 0.67544 0.0
C1598 C 0.66309 0.8181 0.68064 0.0
C1599 C 0.63643 0.83966 0.6873 0.0
C1600 C 0.67224 0.66735 0.69609 0.0
C1601 C 0.65036 0.73943 0.68709 0.0
C1602 C 0.69968 0.62502 0.69685 0.0
C1603 C 0.71994 0.60337 0.68949 0.0
C1604 C 0.66583 0.68836 0.68793 0.0
C1605 C 0.70714 0.62219 0.68139 0.0
C1606 C 0.66945 0.76811 0.68043 0.0
C1607 C 0.61487 0.80938 0.69349 0.0
N1608 N 0.6821 0.66436 0.68084 0.0
N1609 N 0.62323 0.76079 0.69336 0.0
H1610 H 0.92052 0.84506 0.44931 0.0
H1611 H 0.13708 0.97369 0.42417 0.0
H1612 H 0.90587 0.93181 0.42633 0.0
H1613 H 0.13723 0.95462 0.4518 0.0
H1614 H 0.06255 0.92656 0.42334 0.0
H1615 H 0.0087 0.8575 0.44874 0.0
C1616 C 0.93582 0.86607 0.44409 0.0
C1617 C 0.90571 0.8878 0.4379 0.0
C1618 C 0.07964 0.93175 0.42955 0.0
C1619 C 0.00603 0.90045 0.43704 0.0
C1620 C 0.12237 0.95846 0.43005 0.0
C1621 C 0.14266 0.96959 0.43811 0.0
C1622 C 0.05727 0.91576 0.43715 0.0
C1623 C 0.1222 0.94801 0.44547 0.0
C1624 C 0.986 0.87276 0.44374 0.0
C1625 C 0.9275 0.91374 0.43116 0.0
N1626 N 0.07996 0.92292 0.44484 0.0
N1627 N 0.97623 0.91953 0.43094 0.0
H1628 H 0.90454 0.17358 0.18135 0.0
H1629 H 0.77759 0.39301 0.20591 0.0
H1630 H 0.81151 0.16019 0.20356 0.0
H1631 H 0.78997 0.39009 0.17816 0.0
H1632 H 0.82387 0.31792 0.20663 0.0
H1633 H 0.89175 0.26193 0.18163 0.0
C1634 C 0.88208 0.1892 0.18634 0.0
C1635 C 0.85882 0.15941 0.19241 0.0
C1636 C 0.81746 0.33451 0.20041 0.0
C1637 C 0.84599 0.25982 0.19297 0.0
C1638 C 0.7912 0.37751 0.19997 0.0
C1639 C 0.77839 0.39713 0.19193 0.0
C1640 C 0.83144 0.31124 0.19278 0.0
C1641 C 0.79801 0.3757 0.18449 0.0
C1642 C 0.8752 0.23943 0.18653 0.0
C1643 C 0.83089 0.18156 0.19884 0.0
N1644 N 0.82278 0.3332 0.18507 0.0
N1645 N 0.8252 0.23034 0.19894 0.0
H1646 H 0.35262 0.0512 0.95204 0.0
H1647 H 0.58711 0.07637 0.92524 0.0
H1648 H 0.35672 0.02745 0.92454 0.0
H1649 H 0.57091 0.15116 0.94948 0.0
H1650 H 0.49984 0.0678 0.92433 0.0
H1651 H 0.42684 0.09882 0.95091 0.0
C1652 C 0.36823 0.05714 0.94572 0.0
C1653 C 0.34926 0.03383 0.93841 0.0
C1654 C 0.51509 0.08698 0.92979 0.0
C1655 C 0.43462 0.08755 0.93713 0.0
C1656 C 0.56513 0.09213 0.93028 0.0
C1657 C 0.58643 0.11424 0.93748 0.0
C1658 C 0.48601 0.10278 0.93665 0.0
C1659 C 0.55595 0.13286 0.94391 0.0
C1660 C 0.41077 0.08429 0.94509 0.0
C1661 C 0.37072 0.04357 0.93039 0.0
N1662 N 0.50724 0.12582 0.94344 0.0
N1663 N 0.41296 0.0686 0.93 0.0
H1664 H 0.81154 0.33983 0.70486 0.0
H1665 H 0.78537 0.11445 0.67747 0.0
H1666 H 0.90705 0.32558 0.683 0.0
H1667 H 0.78005 0.10429 0.70524 0.0
H1668 H 0.83328 0.18874 0.67884 0.0
H1669 H 0.80077 0.25256 0.70502 0.0
C1670 C 0.83134 0.31833 0.70022 0.0
C1671 C 0.86026 0.34022 0.6939 0.0
C1672 C 0.8228 0.16931 0.68461 0.0
C1673 C 0.84611 0.24003 0.6938 0.0
C1674 C 0.79544 0.12689 0.68385 0.0
C1675 C 0.77737 0.10381 0.69125 0.0
C1676 C 0.83118 0.18895 0.69282 0.0
C1677 C 0.79214 0.12138 0.69934 0.0
C1678 C 0.8249 0.26836 0.70028 0.0
C1679 C 0.88362 0.31022 0.68788 0.0
N1680 N 0.81693 0.1637 0.69991 0.0
N1681 N 0.87511 0.26162 0.68783 0.0
H1682 H 0.13551 0.51602 0.92623 0.0
H1683 H 0.92333 0.64721 0.95216 0.0
H1684 H 0.13821 0.53502 0.95386 0.0
H1685 H 0.90694 0.57045 0.92812 0.0
H1686 H 0.01097 0.63141 0.95161 0.0
H1687 H 0.06216 0.565 0.92557 0.0
C1688 C 0.12149 0.53147 0.93214 0.0
C1689 C 0.14224 0.52005 0.94015 0.0
C1690 C 0.98808 0.61906 0.94638 0.0
C1691 C 0.0581 0.57584 0.93941 0.0
C1692 C 0.9382 0.62769 0.94672 0.0
C1693 C 0.90777 0.60985 0.94021 0.0
C1694 C 0.00747 0.59313 0.9394 0.0
C1695 C 0.92893 0.58558 0.93322 0.0
C1696 C 0.07945 0.55926 0.93175 0.0
C1697 C 0.12283 0.54197 0.94757 0.0
N1698 N 0.97736 0.57773 0.93303 0.0
N1699 N 0.08117 0.56805 0.94704 0.0
H1700 H 0.59448 0.67194 0.17954 0.0
H1701 H 0.70708 0.89908 0.20406 0.0
H1702 H 0.676 0.66612 0.20325 0.0
H1703 H 0.71166 0.88706 0.17632 0.0
H1704 H 0.65962 0.82468 0.20466 0.0
H1705 H 0.60617 0.76041 0.17924 0.0
C1706 C 0.61414 0.68922 0.18474 0.0
C1707 C 0.63469 0.66145 0.19139 0.0
C1708 C 0.66994 0.83917 0.19843 0.0
C1709 C 0.64595 0.7621 0.19128 0.0
C1710 C 0.69695 0.88172 0.19806 0.0
C1711 C 0.71495 0.89845 0.19014 0.0
C1712 C 0.66045 0.81347 0.19083 0.0
C1713 C 0.69953 0.87487 0.18258 0.0
C1714 C 0.62034 0.73954 0.18459 0.0
C1715 C 0.65877 0.68581 0.19807 0.0
N1716 N 0.674 0.8328 0.18312 0.0
N1717 N 0.66384 0.73463 0.19783 0.0
H1718 H 0.58419 0.43496 0.45426 0.0
H1719 H 0.35785 0.46242 0.42723 0.0
H1720 H 0.57287 0.34599 0.43148 0.0
H1721 H 0.34898 0.46017 0.45502 0.0
H1722 H 0.43298 0.41559 0.42808 0.0
H1723 H 0.49675 0.44306 0.45449 0.0
C1724 C 0.5633 0.41603 0.44942 0.0
C1725 C 0.58603 0.38958 0.44286 0.0
C1726 C 0.41364 0.4241 0.43396 0.0
C1727 C 0.48553 0.40073 0.44286 0.0
C1728 C 0.37069 0.45079 0.43349 0.0
C1729 C 0.34792 0.46673 0.44108 0.0
C1730 C 0.43396 0.41414 0.44206 0.0
C1731 C 0.366 0.44997 0.449 0.0
C1732 C 0.51322 0.42091 0.44953 0.0
C1733 C 0.55681 0.36743 0.43657 0.0
N1734 N 0.40876 0.42587 0.4493 0.0
N1735 N 0.50799 0.37442 0.4366 0.0
H1736 H 0.80504 0.65772 0.79642 0.0
H1737 H 0.78169 0.89532 0.82199 0.0
H1738 H 0.89513 0.67941 0.81881 0.0
H1739 H 0.76284 0.89071 0.79437 0.0
H1740 H 0.82817 0.82003 0.82119 0.0
H1741 H 0.79178 0.74449 0.79558 0.0
C1742 C 0.82308 0.68083 0.80105 0.0
C1743 C 0.85158 0.6612 0.80766 0.0
C1744 C 0.81495 0.83631 0.81529 0.0
C1745 C 0.83467 0.76096 0.80696 0.0
C1746 C 0.78842 0.87938 0.81573 0.0
C1747 C 0.76697 0.89871 0.80826 0.0
C1748 C 0.81933 0.81229 0.80735 0.0
C1749 C 0.77762 0.87667 0.80033 0.0
C1750 C 0.81524 0.73052 0.80059 0.0
C1751 C 0.87242 0.69307 0.81367 0.0
N1752 N 0.80192 0.83397 0.80011 0.0
N1753 N 0.86282 0.74143 0.81328 0.0
H1754 H 0.35299 0.53527 0.04686 0.0
H1755 H 0.57892 0.65722 0.07008 0.0
H1756 H 0.36912 0.52912 0.07453 0.0
H1757 H 0.5873 0.56677 0.04744 0.0
H1758 H 0.49102 0.64248 0.07061 0.0
H1759 H 0.42681 0.58341 0.046 0.0
C1760 C 0.3711 0.54519 0.05279 0.0
C1761 C 0.3556 0.52669 0.06077 0.0
C1762 C 0.51229 0.627 0.06544 0.0
C1763 C 0.43978 0.58224 0.05977 0.0
C1764 C 0.56228 0.63498 0.06515 0.0
C1765 C 0.59067 0.61271 0.05876 0.0
C1766 C 0.49059 0.59802 0.05911 0.0
C1767 C 0.5671 0.5853 0.05241 0.0
C1768 C 0.41329 0.57261 0.05227 0.0
C1769 C 0.38027 0.54173 0.06823 0.0
N1770 N 0.51849 0.57864 0.05276 0.0
N1771 N 0.42187 0.56793 0.06754 0.0
H1772 H 0.69311 0.33994 0.29604 0.0
H1773 H 0.71123 0.10481 0.32176 0.0
H1774 H 0.599 0.3214 0.31798 0.0
H1775 H 0.72735 0.10605 0.29407 0.0
H1776 H 0.66496 0.18017 0.32081 0.0
H1777 H 0.70354 0.25281 0.29526 0.0
C1778 C 0.6736 0.31749 0.30058 0.0
C1779 C 0.64487 0.3381 0.30706 0.0
C1780 C 0.67746 0.16309 0.31494 0.0
C1781 C 0.65853 0.23787 0.30643 0.0
C1782 C 0.7039 0.12 0.31546 0.0
C1783 C 0.72475 0.09987 0.30801 0.0
C1784 C 0.67258 0.18626 0.30694 0.0
C1785 C 0.71321 0.12086 0.30002 0.0
C1786 C 0.67979 0.26758 0.30015 0.0
C1787 C 0.62203 0.30698 0.31296 0.0
N1788 N 0.68912 0.16365 0.29972 0.0
N1789 N 0.63014 0.25833 0.31262 0.0
H1790 H 0.91508 0.43664 0.54717 0.0
H1791 H 0.13706 0.46149 0.57453 0.0
H1792 H 0.92357 0.34152 0.56919 0.0
H1793 H 0.15205 0.45305 0.54685 0.0
H1794 H 0.06184 0.41483 0.57345 0.0
H1795 H 0.00281 0.44315 0.54716 0.0
C1796 C 0.93537 0.41605 0.55187 0.0
C1797 C 0.9118 0.38847 0.55819 0.0
C1798 C 0.08259 0.42192 0.56766 0.0
C1799 C 0.01243 0.39776 0.55846 0.0
C1800 C 0.12556 0.44852 0.56826 0.0
C1801 C 0.1501 0.4627 0.56074 0.0
C1802 C 0.06399 0.41042 0.5595 0.0
C1803 C 0.13369 0.44425 0.55281 0.0
C1804 C 0.98556 0.42002 0.55189 0.0
C1805 C 0.94029 0.36399 0.56431 0.0
N1806 N 0.09079 0.42046 0.55237 0.0
N1807 N 0.9892 0.3702 0.56444 0.0
H1808 H 0.21587 0.8849 0.32445 0.0
H1809 H 0.19011 0.6625 0.29721 0.0
H1810 H 0.20979 0.89953 0.29675 0.0
H1811 H 0.09264 0.67307 0.31886 0.0
H1812 H 0.19819 0.75015 0.29718 0.0
H1813 H 0.16834 0.81022 0.3233 0.0
C1814 C 0.20328 0.87343 0.31816 0.0
C1815 C 0.21833 0.89769 0.31065 0.0
C1816 C 0.17422 0.73339 0.30183 0.0
C1817 C 0.16503 0.81219 0.30934 0.0
C1818 C 0.16935 0.68324 0.30183 0.0
C1819 C 0.1406 0.66027 0.30805 0.0
C1820 C 0.15168 0.76079 0.30829 0.0
C1821 C 0.11597 0.68931 0.31406 0.0
C1822 C 0.17617 0.83078 0.31752 0.0
C1823 C 0.20032 0.88135 0.30269 0.0
N1824 N 0.12303 0.73814 0.31419 0.0
N1825 N 0.17601 0.83873 0.30222 0.0
H1826 H 0.85685 0.46869 0.07493 0.0
H1827 H 0.07733 0.34423 0.05039 0.0
H1828 H 0.86444 0.46557 0.04714 0.0
H1829 H 0.08978 0.43278 0.0732 0.0
H1830 H 0.98928 0.35861 0.05042 0.0
H1831 H 0.93095 0.42104 0.07558 0.0
C1832 C 0.87315 0.45693 0.06895 0.0
C1833 C 0.85515 0.47271 0.06096 0.0
C1834 C 0.01147 0.37381 0.05551 0.0
C1835 C 0.93987 0.41784 0.06172 0.0
C1836 C 0.06153 0.36602 0.05547 0.0
C1837 C 0.09099 0.38771 0.06176 0.0
C1838 C 0.99088 0.40221 0.06204 0.0
C1839 C 0.06861 0.41472 0.0683 0.0
C1840 C 0.91558 0.4298 0.06935 0.0
C1841 C 0.8776 0.45523 0.05344 0.0
N1842 N 0.01997 0.42128 0.06825 0.0
N1843 N 0.91949 0.42947 0.054 0.0
H1844 H 0.2756 0.10248 0.79543 0.0
H1845 H 0.39873 0.31856 0.82157 0.0
H1846 H 0.28066 0.10291 0.82326 0.0
H1847 H 0.31386 0.33357 0.79837 0.0
H1848 H 0.38411 0.23042 0.82115 0.0
H1849 H 0.32352 0.17665 0.79531 0.0
C1850 C 0.28787 0.11726 0.80152 0.0
C1851 C 0.27254 0.09728 0.80939 0.0
C1852 C 0.36979 0.25323 0.81607 0.0
C1853 C 0.32734 0.18217 0.80924 0.0
C1854 C 0.37769 0.30334 0.81634 0.0
C1855 C 0.35751 0.33349 0.80999 0.0
C1856 C 0.34262 0.23339 0.80929 0.0
C1857 C 0.33113 0.31188 0.80329 0.0
C1858 C 0.31509 0.15973 0.80143 0.0
C1859 C 0.29058 0.11769 0.81705 0.0
N1860 N 0.32448 0.26327 0.80312 0.0
N1861 N 0.31622 0.15977 0.8168 0.0
H1862 H 0.64565 0.53496 0.57572 0.0
H1863 H 0.42431 0.65312 0.55037 0.0
H1864 H 0.64257 0.54481 0.54794 0.0
H1865 H 0.41346 0.56726 0.57353 0.0
H1866 H 0.5129 0.64318 0.5508 0.0
H1867 H 0.57061 0.58118 0.57633 0.0
C1868 C 0.63019 0.54804 0.56975 0.0
C1869 C 0.64966 0.53442 0.56175 0.0
C1870 C 0.49091 0.62762 0.55587 0.0
C1871 C 0.56369 0.58728 0.56245 0.0
C1872 C 0.44054 0.63286 0.5556 0.0
C1873 C 0.41144 0.61064 0.56188 0.0
C1874 C 0.51208 0.60103 0.56259 0.0
C1875 C 0.43431 0.58565 0.56862 0.0
C1876 C 0.58715 0.57426 0.57012 0.0
C1877 C 0.62819 0.55338 0.55425 0.0
N1878 N 0.4832 0.58139 0.56877 0.0
N1879 N 0.58563 0.578 0.55477 0.0
H1880 H 0.09336 0.32364 0.18241 0.0
H1881 H 0.22097 0.10414 0.20684 0.0
H1882 H 0.18551 0.33655 0.20476 0.0
H1883 H 0.20704 0.10753 0.17912 0.0
H1884 H 0.17415 0.17884 0.20769 0.0
H1885 H 0.10578 0.23529 0.1827 0.0
C1886 C 0.11555 0.30792 0.18744 0.0
C1887 C 0.13874 0.33758 0.19353 0.0
C1888 C 0.18034 0.16243 0.20145 0.0
C1889 C 0.15115 0.23714 0.1941 0.0
C1890 C 0.20691 0.11965 0.20094 0.0
C1891 C 0.21946 0.10033 0.19287 0.0
C1892 C 0.16583 0.18578 0.19385 0.0
C1893 C 0.19925 0.12173 0.18547 0.0
C1894 C 0.1222 0.25767 0.18763 0.0
C1895 C 0.16624 0.31529 0.20002 0.0
N1896 N 0.17423 0.16403 0.18612 0.0
N1897 N 0.17178 0.26649 0.20011 0.0
H1898 H 0.63508 0.47792 0.92576 0.0
H1899 H 0.42496 0.34648 0.95219 0.0
H1900 H 0.64048 0.45754 0.95335 0.0
H1901 H 0.40683 0.42429 0.92829 0.0
H1902 H 0.5127 0.36156 0.95136 0.0
H1903 H 0.56178 0.42876 0.92525 0.0
C1904 C 0.62168 0.46211 0.93169 0.0
C1905 C 0.64312 0.47327 0.93965 0.0
C1906 C 0.48939 0.37431 0.94623 0.0
C1907 C 0.55902 0.41732 0.93908 0.0
C1908 C 0.43946 0.3661 0.94672 0.0
C1909 C 0.40854 0.38448 0.94033 0.0
C1910 C 0.50829 0.40033 0.93922 0.0
C1911 C 0.42921 0.40882 0.9333 0.0
C1912 C 0.57967 0.43422 0.93139 0.0
C1913 C 0.62451 0.45086 0.94709 0.0
N1914 N 0.47767 0.41624 0.93296 0.0
N1915 N 0.58283 0.42476 0.94665 0.0
H1916 H 0.31177 0.66444 0.70364 0.0
H1917 H 0.28662 0.88895 0.67662 0.0
H1918 H 0.40816 0.67626 0.68186 0.0
H1919 H 0.28989 0.90104 0.70437 0.0
H1920 H 0.33378 0.81405 0.6777 0.0
H1921 H 0.30316 0.75199 0.70378 0.0
C1922 C 0.33219 0.68544 0.69902 0.0
C1923 C 0.3609 0.66283 0.69275 0.0
C1924 C 0.3254 0.83408 0.68351 0.0
C1925 C 0.34918 0.7633 0.69261 0.0
C1926 C 0.29849 0.87684 0.68291 0.0
C1927 C 0.28282 0.90052 0.69043 0.0
C1928 C 0.33572 0.81475 0.69167 0.0
C1929 C 0.29992 0.88339 0.6984 0.0
C1930 C 0.32701 0.73554 0.69907 0.0
C1931 C 0.38496 0.6922 0.68671 0.0
N1932 N 0.3241 0.84069 0.69883 0.0
N1933 N 0.37765 0.741 0.68665 0.0
H1934 H 0.84818 0.53834 0.45535 0.0
H1935 H 0.07425 0.65712 0.43159 0.0
H1936 H 0.85917 0.53904 0.42758 0.0
H1937 H 0.0817 0.5654 0.45408 0.0
H1938 H 0.98575 0.64583 0.43136 0.0
H1939 H 0.92287 0.58519 0.45616 0.0
C1940 C 0.86535 0.54956 0.4494 0.0
C1941 C 0.84824 0.5332 0.44139 0.0
C1942 C 0.007 0.62931 0.43644 0.0
C1943 C 0.93349 0.58704 0.44233 0.0
C1944 C 0.05731 0.6353 0.43655 0.0
C1945 C 0.08551 0.61179 0.44283 0.0
C1946 C 0.98492 0.60097 0.44282 0.0
C1947 C 0.06164 0.5849 0.44921 0.0
C1948 C 0.90806 0.57621 0.44989 0.0
C1949 C 0.87164 0.54991 0.43391 0.0
N1950 N 0.01281 0.58015 0.44903 0.0
N1951 N 0.91386 0.5751 0.43456 0.0
H1952 H 0.36839 0.02307 0.27324 0.0
H1953 H 0.24806 0.9465 0.22835 0.0
H1954 H 0.26489 0.90669 0.27069 0.0
H1955 H 0.37691 0.03453 0.23012 0.0
H1956 H 0.24872 0.9373 0.24402 0.0
H1957 H 0.36688 0.0338 0.25757 0.0
C1958 C 0.34528 -0.00014 0.26939 0.0
C1959 C 0.31685 0.9638 0.27328 0.0
C1960 C 0.27688 0.95858 0.24097 0.0
C1961 C 0.31481 0.97605 0.25537 0.0
C1962 C 0.27648 0.96394 0.23203 0.0
C1963 C 0.31253 0.99128 0.22791 0.0
C1964 C 0.31332 0.98111 0.24586 0.0
C1965 C 0.3485 0.01299 0.23302 0.0
C1966 C 0.34455 0.00591 0.26045 0.0
C1967 C 0.28757 0.93479 0.26797 0.0
N1968 N 0.34788 0.00757 0.24173 0.0
N1969 N 0.28723 0.94162 0.2593 0.0
H1970 H 0.28749 0.12182 0.52046 0.0
H1971 H 0.17135 0.98507 0.47993 0.0
H1972 H 0.21818 0.98192 0.52218 0.0
H1973 H 0.25754 0.11511 0.47786 0.0
H1974 H 0.18586 0.98443 0.49547 0.0
H1975 H 0.27461 0.12113 0.50489 0.0
C1976 C 0.26962 0.09089 0.51756 0.0
C1977 C 0.25391 0.05184 0.52264 0.0
C1978 C 0.20167 0.01305 0.49161 0.0
C1979 C 0.23887 0.05092 0.5048 0.0
C1980 C 0.19334 0.01349 0.48273 0.0
C1981 C 0.21317 0.05026 0.47758 0.0
C1982 C 0.22985 0.04977 0.49537 0.0
C1983 C 0.24145 0.08608 0.48158 0.0
C1984 C 0.26232 0.09051 0.50867 0.0
C1985 C 0.23098 0.01277 0.51853 0.0
N1986 N 0.24882 0.08499 0.49023 0.0
N1987 N 0.22402 0.01337 0.50985 0.0
H1988 H 0.13033 0.02826 0.72745 0.0
H1989 H 0.24994 0.95302 0.77248 0.0
H1990 H 0.23452 0.9127 0.73017 0.0
H1991 H 0.11957 0.03866 0.77065 0.0
H1992 H 0.25014 0.94449 0.7568 0.0
H1993 H 0.13124 0.03928 0.74312 0.0
C1994 C 0.15347 0.0053 0.73133 0.0
C1995 C 0.18226 0.96938 0.72749 0.0
C1996 C 0.22147 0.96513 0.75983 0.0
C1997 C 0.18364 0.98197 0.7454 0.0
C1998 C 0.2214 0.97013 0.76878 0.0
C1999 C 0.18463 0.99652 0.77289 0.0
C2000 C 0.18479 0.98707 0.75492 0.0
C2001 C 0.14853 0.01782 0.76775 0.0
C2002 C 0.15385 0.01152 0.74028 0.0
C2003 C 0.21155 0.94069 0.73285 0.0
N2004 N 0.14959 0.01276 0.75904 0.0
N2005 N 0.21157 0.94769 0.74152 0.0
H2006 H 0.21415 0.8781 0.02098 0.0
H2007 H 0.33873 0.00157 0.98002 0.0
H2008 H 0.29942 0.00894 0.02248 0.0
H2009 H 0.22703 0.89269 0.97801 0.0
H2010 H 0.3286 0.0016 0.99566 0.0
H2011 H 0.22256 0.87939 0.0053 0.0
C2012 C 0.2347 0.90708 0.01802 0.0
C2013 C 0.25611 0.9435 0.02306 0.0
C2014 C 0.3062 0.97782 0.99179 0.0
C2015 C 0.26596 0.94508 0.00511 0.0
C2016 C 0.31201 0.9777 0.98286 0.0
C2017 C 0.28375 0.947 0.97769 0.0
C2018 C 0.27219 0.94668 0.99561 0.0
C2019 C 0.24959 0.91697 0.98174 0.0
C2020 C 0.23934 0.90787 0.00906 0.0
C2021 C 0.28222 0.98019 0.01886 0.0
N2022 N 0.24495 0.91738 0.99046 0.0
N2023 N 0.28656 0.97994 0.01013 0.0
H2024 H 0.65192 0.10257 0.73198 0.0
H2025 H 0.65322 0.89139 0.7674 0.0
H2026 H 0.65252 0.95028 0.72562 0.0
H2027 H 0.63862 0.0433 0.77351 0.0
H2028 H 0.65541 0.91212 0.75208 0.0
H2029 H 0.64958 0.08144 0.74726 0.0
C2030 C 0.65157 0.06467 0.73379 0.0
C2031 C 0.65238 0.02816 0.7275 0.0
C2032 C 0.65166 0.9409 0.75678 0.0
C2033 C 0.64974 0.00367 0.745 0.0
C2034 C 0.65043 0.92909 0.76553 0.0
C2035 C 0.64572 0.96565 0.77176 0.0
C2036 C 0.64831 0.98964 0.75423 0.0
C2037 C 0.64226 0.01389 0.76895 0.0
C2038 C 0.65017 0.05262 0.74252 0.0
C2039 C 0.65186 0.97965 0.73024 0.0
N2040 N 0.64371 0.02446 0.7604 0.0
N2041 N 0.65063 0.96883 0.73878 0.0
H2042 H 0.66063 0.98873 0.47955 0.0
H2043 H 0.77571 0.86248 0.52087 0.0
H2044 H 0.76552 0.87332 0.47758 0.0
H2045 H 0.71975 0.00849 0.52122 0.0
H2046 H 0.76372 0.86011 0.50524 0.0
H2047 H 0.67349 0.99086 0.49513 0.0
C2048 C 0.68632 0.96376 0.4824 0.0
C2049 C 0.71205 0.93076 0.47727 0.0
C2050 C 0.75418 0.89264 0.50875 0.0
C2051 C 0.72659 0.93283 0.49509 0.0
C2052 C 0.76077 0.89397 0.51767 0.0
C2053 C 0.74874 0.93579 0.52235 0.0
C2054 C 0.7347 0.93312 0.50451 0.0
C2055 C 0.72969 0.97559 0.51786 0.0
C2056 C 0.69375 0.96516 0.49128 0.0
C2057 C 0.74504 0.89941 0.4813 0.0
N2058 N 0.72299 0.97318 0.5092 0.0
N2059 N 0.75115 0.90099 0.48999 0.0
H2060 H 0.75021 0.94405 0.27302 0.0
H2061 H 0.86922 0.01456 0.22774 0.0
H2062 H 0.87997 0.03025 0.27061 0.0
H2063 H 0.76101 0.90274 0.23058 0.0
H2064 H 0.86923 0.02578 0.24336 0.0
H2065 H 0.74936 0.93324 0.25737 0.0
C2066 C 0.77851 0.96073 0.2692 0.0
C2067 C 0.81523 0.98809 0.27313 0.0
C2068 C 0.84554 0.99874 0.24057 0.0
C2069 C 0.81434 0.97603 0.25523 0.0
C2070 C 0.84541 0.99239 0.23165 0.0
C2071 C 0.81516 0.95753 0.22785 0.0
C2072 C 0.81491 0.97034 0.24573 0.0
C2073 C 0.78505 0.9299 0.23323 0.0
C2074 C 0.77805 0.95445 0.26028 0.0
C2075 C 0.85103 0.00878 0.26786 0.0
N2076 N 0.78562 0.93697 0.2419 0.0
N2077 N 0.84959 0.00245 0.25919 0.0
H2078 H 0.63795 0.07879 0.01737 0.0
H2079 H 0.84768 0.06463 0.98181 0.0
H2080 H 0.79059 0.07569 0.02339 0.0
H2081 H 0.69622 0.08172 0.97559 0.0
H2082 H 0.82684 0.06395 0.99709 0.0
H2083 H 0.65803 0.0753 0.00203 0.0
C2084 C 0.67566 0.07728 0.01547 0.0
C2085 C 0.71263 0.07767 0.02167 0.0
C2086 C 0.79814 0.06781 0.99239 0.0
C2087 C 0.73585 0.07364 0.00414 0.0
C2088 C 0.81002 0.06815 0.98365 0.0
C2089 C 0.77367 0.0734 0.97741 0.0
C2090 C 0.74953 0.07265 0.99491 0.0
C2091 C 0.72546 0.07774 0.98018 0.0
C2092 C 0.68709 0.07533 0.00671 0.0
C2093 C 0.76087 0.0756 0.01884 0.0
N2094 N 0.71481 0.07732 0.98873 0.0
N2095 N 0.77105 0.07371 0.01029 0.0
H2096 H 0.86846 0.51706 0.77273 0.0
H2097 H 0.73531 0.45766 0.72814 0.0
H2098 H 0.75701 0.40826 0.77016 0.0
H2099 H 0.86674 0.54178 0.72995 0.0
H2100 H 0.73808 0.44467 0.74373 0.0
H2101 H 0.86391 0.53188 0.75722 0.0
C2102 C 0.84305 0.49625 0.7689 0.0
C2103 C 0.81319 0.46122 0.77274 0.0
C2104 C 0.76627 0.46599 0.74071 0.0
C2105 C 0.80761 0.47825 0.755 0.0
C2106 C 0.76463 0.47357 0.73181 0.0
C2107 C 0.80089 0.50079 0.72773 0.0
C2108 C 0.80424 0.48609 0.74556 0.0
C2109 C 0.83809 0.52043 0.73282 0.0
C2110 C 0.84051 0.50471 0.76005 0.0
C2111 C 0.78087 0.43546 0.76747 0.0
N2112 N 0.83876 0.51275 0.74146 0.0
N2113 N 0.77887 0.44456 0.75887 0.0
H2114 H 0.79096 0.62425 0.02155 0.0
H2115 H 0.65991 0.50417 0.98091 0.0
H2116 H 0.70735 0.49235 0.02307 0.0
H2117 H 0.76974 0.61478 0.97864 0.0
H2118 H 0.67314 0.50237 0.99647 0.0
H2119 H 0.77981 0.62453 0.00592 0.0
C2120 C 0.77026 0.59532 0.0186 0.0
C2121 C 0.75006 0.55819 0.02363 0.0
C2122 C 0.69445 0.52693 0.99256 0.0
C2123 C 0.737 0.55845 0.00574 0.0
C2124 C 0.68684 0.52808 0.98368 0.0
C2125 C 0.71369 0.55976 0.97846 0.0
C2126 C 0.72885 0.55799 0.99629 0.0
C2127 C 0.74821 0.58979 0.98241 0.0
C2128 C 0.76403 0.59545 0.00967 0.0
C2129 C 0.72367 0.52162 0.01945 0.0
N2130 N 0.75463 0.58833 0.9911 0.0
N2131 N 0.71773 0.52279 0.01076 0.0
H2132 H 0.62189 0.46632 0.22927 0.0
H2133 H 0.7434 0.5971 0.26983 0.0
H2134 H 0.75234 0.55196 0.22747 0.0
H2135 H 0.63466 0.48535 0.27205 0.0
H2136 H 0.74375 0.58555 0.2542 0.0
H2137 H 0.62235 0.47765 0.24488 0.0
C2138 C 0.65062 0.48756 0.23216 0.0
C2139 C 0.68718 0.50818 0.22706 0.0
C2140 C 0.7199 0.56351 0.25812 0.0
C2141 C 0.68782 0.52139 0.24493 0.0
C2142 C 0.71959 0.57014 0.26703 0.0
C2143 C 0.6889 0.54219 0.27225 0.0
C2144 C 0.689 0.52897 0.25438 0.0
C2145 C 0.65893 0.5077 0.26828 0.0
C2146 C 0.65093 0.49389 0.24107 0.0
C2147 C 0.72352 0.53529 0.23116 0.0
N2148 N 0.6596 0.50221 0.25958 0.0
N2149 N 0.72284 0.54124 0.23985 0.0
H2150 H 0.75762 0.37065 0.47941 0.0
H2151 H 0.74205 0.53201 0.52225 0.0
H2152 H 0.75042 0.5269 0.47924 0.0
H2153 H 0.73707 0.37567 0.52222 0.0
H2154 H 0.74742 0.53097 0.50652 0.0
H2155 H 0.75194 0.37185 0.49512 0.0
C2156 C 0.7548 0.40524 0.48267 0.0
C2157 C 0.75457 0.44876 0.478 0.0
C2158 C 0.74513 0.49689 0.50996 0.0
C2159 C 0.74816 0.45039 0.496 0.0
C2160 C 0.74216 0.49745 0.51894 0.0
C2161 C 0.73902 0.45386 0.52357 0.0
C2162 C 0.74514 0.45241 0.50555 0.0
C2163 C 0.73929 0.41017 0.51893 0.0
C2164 C 0.75153 0.40589 0.49165 0.0
C2165 C 0.75071 0.49246 0.48258 0.0
N2166 N 0.74232 0.41058 0.51018 0.0
N2167 N 0.74778 0.49216 0.49132 0.0
H2168 H 0.27813 0.50002 0.22865 0.0
H2169 H 0.12449 0.48899 0.27238 0.0
H2170 H 0.1225 0.51343 0.22967 0.0
H2171 H 0.28075 0.48661 0.27165 0.0
H2172 H 0.12313 0.49623 0.25671 0.0
H2173 H 0.27987 0.49302 0.24435 0.0
C2174 C 0.2443 0.50144 0.23217 0.0
C2175 C 0.20009 0.50739 0.22783 0.0
C2176 C 0.15774 0.49417 0.25997 0.0
C2177 C 0.20184 0.49939 0.24582 0.0
C2178 C 0.15856 0.48998 0.26893 0.0
C2179 C 0.20283 0.48709 0.27335 0.0
C2180 C 0.20149 0.49535 0.25536 0.0
C2181 C 0.24578 0.48873 0.26852 0.0
C2182 C 0.24534 0.49752 0.24114 0.0
C2183 C 0.15743 0.50901 0.23274 0.0
N2184 N 0.24404 0.49265 0.25979 0.0
N2185 N 0.15938 0.505 0.24146 0.0
H2186 H 0.23606 0.52528 0.97966 0.0
H2187 H 0.25703 0.36679 0.02276 0.0
H2188 H 0.24321 0.36902 0.97974 0.0
H2189 H 0.26229 0.52311 0.02232 0.0
H2190 H 0.24937 0.36666 0.00705 0.0
H2191 H 0.24367 0.52499 0.99533 0.0
C2192 C 0.23933 0.49087 0.98297 0.0
C2193 C 0.23896 0.44709 0.97837 0.0
C2194 C 0.25219 0.40098 0.0104 0.0
C2195 C 0.2475 0.4465 0.99635 0.0
C2196 C 0.25647 0.4011 0.01937 0.0
C2197 C 0.26039 0.44504 0.02387 0.0
C2198 C 0.25168 0.44512 0.00589 0.0
C2199 C 0.25944 0.48836 0.01913 0.0
C2200 C 0.24367 0.49074 0.99193 0.0
C2201 C 0.24334 0.40364 0.98301 0.0
N2202 N 0.25519 0.48729 0.01041 0.0
N2203 N 0.24732 0.40445 0.99175 0.0
H2204 H 0.35844 0.45151 0.7751 0.0
H2205 H 0.31544 0.53896 0.72654 0.0
H2206 H 0.30792 0.5946 0.76834 0.0
H2207 H 0.35738 0.39332 0.73344 0.0
H2208 H 0.31248 0.56003 0.7418 0.0
H2209 H 0.35852 0.42972 0.75987 0.0
C2210 C 0.34735 0.4784 0.77042 0.0
C2211 C 0.33321 0.52504 0.77301 0.0
C2212 C 0.32221 0.52343 0.73998 0.0
C2213 C 0.33325 0.50021 0.75553 0.0
C2214 C 0.32392 0.51133 0.73126 0.0
C2215 C 0.33678 0.46427 0.72869 0.0
C2216 C 0.33357 0.48829 0.74621 0.0
C2217 C 0.34732 0.43003 0.73511 0.0
C2218 C 0.34735 0.46587 0.76171 0.0
C2219 C 0.31914 0.55827 0.76664 0.0
N2220 N 0.34561 0.44277 0.74357 0.0
N2221 N 0.31961 0.54523 0.75819 0.0
H2222 H 0.2545 0.6219 0.5227 0.0
H2223 H 0.24164 0.46969 0.47878 0.0
H2224 H 0.2315 0.46725 0.52173 0.0
H2225 H 0.26533 0.62422 0.47978 0.0
H2226 H 0.23815 0.46799 0.49451 0.0
H2227 H 0.25968 0.62328 0.50699 0.0
C2228 C 0.25069 0.58819 0.51919 0.0
C2229 C 0.24242 0.5444 0.52355 0.0
C2230 C 0.24409 0.50228 0.49129 0.0
C2231 C 0.24816 0.54576 0.50554 0.0
C2232 C 0.24601 0.5033 0.4823 0.0
C2233 C 0.25381 0.54717 0.47795 0.0
C2234 C 0.24999 0.54546 0.49597 0.0
C2235 C 0.25928 0.58956 0.48286 0.0
C2236 C 0.2536 0.58902 0.51021 0.0
C2237 C 0.23785 0.50186 0.51865 0.0
N2238 N 0.25728 0.58763 0.4916 0.0
N2239 N 0.24067 0.50364 0.50991 0.0
H2240 H 0.55724 0.35618 0.17706 0.0
H2241 H 0.45116 0.13894 0.20543 0.0
H2242 H 0.55045 0.35716 0.20487 0.0
H2243 H 0.43734 0.14502 0.17771 0.0
H2244 H 0.49281 0.21665 0.20516 0.0
H2245 H 0.5155 0.27805 0.17701 0.0
C2246 C 0.54647 0.34034 0.18315 0.0
C2247 C 0.55758 0.36328 0.19099 0.0
C2248 C 0.48084 0.20094 0.19912 0.0
C2249 C 0.51058 0.27351 0.19097 0.0
C2250 C 0.45735 0.15629 0.19926 0.0
C2251 C 0.44045 0.1354 0.19158 0.0
C2252 C 0.48769 0.225 0.19125 0.0
C2253 C 0.44962 0.15976 0.1838 0.0
C2254 C 0.52288 0.29559 0.18311 0.0
C2255 C 0.54277 0.3409 0.19867 0.0
N2256 N 0.47244 0.2034 0.18383 0.0
N2257 N 0.52039 0.29715 0.19847 0.0
H2258 H 0.10763 0.20096 0.42768 0.0
H2259 H 0.88608 0.30073 0.45573 0.0
H2260 H 0.09893 0.18874 0.45539 0.0
H2261 H 0.89476 0.31495 0.42805 0.0
H2262 H 0.96338 0.25823 0.45566 0.0
H2263 H 0.0305 0.24408 0.42768 0.0
C2264 C 0.08986 0.20782 0.43378 0.0
C2265 C 0.10981 0.19097 0.44155 0.0
C2266 C 0.94829 0.27043 0.44959 0.0
C2267 C 0.02105 0.23974 0.44157 0.0
C2268 C 0.90393 0.29448 0.44962 0.0
C2269 C 0.88385 0.31165 0.44188 0.0
C2270 C 0.97293 0.26347 0.44178 0.0
C2271 C 0.90879 0.30241 0.43417 0.0
C2272 C 0.04562 0.2322 0.43377 0.0
C2273 C 0.08499 0.20094 0.44925 0.0
N2274 N 0.95216 0.27917 0.43432 0.0
N2275 N 0.0418 0.22441 0.44905 0.0
H2276 H 0.94637 0.64259 0.67824 0.0
H2277 H 0.06503 0.85683 0.70589 0.0
H2278 H 0.94472 0.64592 0.70607 0.0
H2279 H 0.05027 0.85877 0.67817 0.0
H2280 H 0.02261 0.77897 0.70622 0.0
H2281 H 0.98912 0.71983 0.6782 0.0
C2282 C 0.95548 0.65922 0.68435 0.0
C2283 C 0.94167 0.63772 0.69217 0.0
C2284 C 0.02843 0.79667 0.70008 0.0
C2285 C 0.99014 0.72673 0.69217 0.0
C2286 C 0.05235 0.84129 0.69989 0.0
C2287 C 0.06142 0.8644 0.69199 0.0
C2288 C 0.0137 0.77498 0.69232 0.0
C2289 C 0.04432 0.84233 0.68442 0.0
C2290 C 0.9796 0.70358 0.68433 0.0
C2291 C 0.9545 0.66115 0.69989 0.0
N2292 N 0.02161 0.7988 0.68477 0.0
N2293 N 0.97781 0.70451 0.69969 0.0
H2294 H 0.39269 0.82045 0.95727 0.0
H2295 H 0.61334 0.71532 0.93 0.0
H2296 H 0.39134 0.79971 0.92967 0.0
H2297 H 0.59936 0.68579 0.95723 0.0
H2298 H 0.53657 0.7581 0.93036 0.0
H2299 H 0.47126 0.77889 0.95791 0.0
C2300 C 0.40848 0.80668 0.95137 0.0
C2301 C 0.38538 0.81385 0.94339 0.0
C2302 C 0.55032 0.74244 0.93627 0.0
C2303 C 0.47538 0.76753 0.94408 0.0
C2304 C 0.59444 0.71826 0.9361 0.0
C2305 C 0.61272 0.69639 0.94359 0.0
C2306 C 0.52408 0.74516 0.944 0.0
C2307 C 0.58656 0.70193 0.9513 0.0
C2308 C 0.45337 0.78323 0.95174 0.0
C2309 C 0.40768 0.79533 0.93596 0.0
N2310 N 0.54328 0.7256 0.9513 0.0
N2311 N 0.45152 0.77352 0.93649 0.0
H2312 H 0.43621 0.85174 0.29485 0.0
H2313 H 0.56152 0.64275 0.32286 0.0
H2314 H 0.45238 0.8566 0.32253 0.0
H2315 H 0.55631 0.64132 0.29503 0.0
H2316 H 0.51802 0.71961 0.32281 0.0
H2317 H 0.47954 0.77443 0.29469 0.0
C2318 C 0.44937 0.83694 0.30087 0.0
C2319 C 0.44046 0.8607 0.30872 0.0
C2320 C 0.52621 0.70239 0.31671 0.0
C2321 C 0.48928 0.77191 0.30859 0.0
C2322 C 0.55077 0.65826 0.31674 0.0
C2323 C 0.56282 0.63553 0.30894 0.0
C2324 C 0.51352 0.72404 0.30883 0.0
C2325 C 0.54794 0.65752 0.30121 0.0
C2326 C 0.4738 0.79262 0.30078 0.0
C2327 C 0.45818 0.8396 0.31633 0.0
N2328 N 0.52427 0.70066 0.30135 0.0
N2329 N 0.48145 0.79635 0.31607 0.0
H2330 H 0.60763 0.30948 0.57357 0.0
H2331 H 0.39354 0.19996 0.54477 0.0
H2332 H 0.60686 0.3101 0.54573 0.0
H2333 H 0.39503 0.19391 0.57259 0.0
H2334 H 0.47044 0.24313 0.5451 0.0
H2335 H 0.52996 0.26708 0.57342 0.0
C2336 C 0.59149 0.30022 0.56742 0.0
C2337 C 0.61385 0.31355 0.55965 0.0
C2338 C 0.45386 0.2326 0.55114 0.0
C2339 C 0.52456 0.26568 0.55944 0.0
C2340 C 0.40971 0.20818 0.55096 0.0
C2341 C 0.38778 0.19302 0.55866 0.0
C2342 C 0.47645 0.24195 0.55907 0.0
C2343 C 0.41056 0.20481 0.56648 0.0
C2344 C 0.54696 0.27629 0.56735 0.0
C2345 C 0.59105 0.30068 0.55189 0.0
N2346 N 0.45381 0.22832 0.56649 0.0
N2347 N 0.54759 0.27771 0.55199 0.0
H2348 H 0.93719 0.35544 0.8241 0.0
H2349 H 0.0409 0.13704 0.79568 0.0
H2350 H 0.94341 0.3557 0.79628 0.0
H2351 H 0.05404 0.142 0.82341 0.0
H2352 H 8e-05 0.21512 0.796 0.0
H2353 H 0.97802 0.27674 0.82417 0.0
C2354 C 0.94766 0.33935 0.81801 0.0
C2355 C 0.93663 0.36228 0.81017 0.0
C2356 C 0.01168 0.1991 0.80202 0.0
C2357 C 0.98254 0.27185 0.81021 0.0
C2358 C 0.03473 0.15423 0.80186 0.0
C2359 C 0.05121 0.13287 0.80953 0.0
C2360 C 0.00488 0.22301 0.80992 0.0
C2361 C 0.04202 0.15705 0.81733 0.0
C2362 C 0.9707 0.29426 0.81806 0.0
C2363 C 0.95098 0.3395 0.80249 0.0
N2364 N 0.01967 0.20097 0.81732 0.0
N2365 N 0.97283 0.29549 0.80271 0.0
H2366 H 0.11276 0.80186 0.0455 0.0
H2367 H 0.89184 0.70085 0.07355 0.0
H2368 H 0.10427 0.81731 0.07316 0.0
H2369 H 0.89689 0.69712 0.04573 0.0
H2370 H 0.96945 0.74333 0.07364 0.0
H2371 H 0.03501 0.76033 0.04562 0.0
C2372 C 0.09485 0.79608 0.05162 0.0
C2373 C 0.11512 0.81334 0.05933 0.0
C2374 C 0.95338 0.73348 0.06752 0.0
C2375 C 0.02547 0.76622 0.0595 0.0
C2376 C 0.9089 0.70947 0.06745 0.0
C2377 C 0.88781 0.69514 0.05962 0.0
C2378 C 0.97706 0.74308 0.0597 0.0
C2379 C 0.91171 0.70731 0.05193 0.0
C2380 C 0.0502 0.77261 0.05168 0.0
C2381 C 0.09007 0.80468 0.06706 0.0
N2382 N 0.95517 0.73024 0.05217 0.0
N2383 N 0.04642 0.78191 0.06694 0.0
H2384 H 0.54622 0.86063 0.82363 0.0
H2385 H 0.4497 0.63462 0.79635 0.0
H2386 H 0.54209 0.85618 0.79581 0.0
H2387 H 0.4356 0.64469 0.82402 0.0
H2388 H 0.48839 0.71387 0.79622 0.0
H2389 H 0.50726 0.78118 0.82404 0.0
C2390 C 0.53656 0.84332 0.81761 0.0
C2391 C 0.54765 0.86517 0.80967 0.0
C2392 C 0.47705 0.69869 0.80233 0.0
C2393 C 0.50385 0.77378 0.81011 0.0
C2394 C 0.45527 0.65316 0.80242 0.0
C2395 C 0.4391 0.63291 0.81021 0.0
C2396 C 0.48289 0.72432 0.81007 0.0
C2397 C 0.4474 0.65884 0.81786 0.0
C2398 C 0.51457 0.79779 0.81785 0.0
C2399 C 0.53429 0.84087 0.80208 0.0
N2400 N 0.4685 0.70333 0.8176 0.0
N2401 N 0.51347 0.79636 0.80249 0.0
H2402 H 0.11046 0.69777 0.57188 0.0
H2403 H 0.89259 0.80111 0.54349 0.0
H2404 H 0.10339 0.67707 0.54431 0.0
H2405 H 0.89113 0.7905 0.57127 0.0
H2406 H 0.97066 0.75892 0.54332 0.0
H2407 H 0.03266 0.73862 0.5714 0.0
C2408 C 0.09281 0.70223 0.56569 0.0
C2409 C 0.11347 0.6836 0.55812 0.0
C2410 C 0.95292 0.76553 0.54943 0.0
C2411 C 0.02361 0.73008 0.55756 0.0
C2412 C 0.90823 0.78932 0.54954 0.0
C2413 C 0.88532 0.7997 0.55741 0.0
C2414 C 0.97488 0.75242 0.55726 0.0
C2415 C 0.90743 0.78365 0.56504 0.0
C2416 C 0.04809 0.72531 0.56544 0.0
C2417 C 0.08882 0.69083 0.5503 0.0
N2418 N 0.95107 0.76125 0.56477 0.0
N2419 N 0.04497 0.71334 0.55022 0.0
H2420 H 0.05904 0.35663 0.29524 0.0
H2421 H 0.94344 0.14208 0.32313 0.0
H2422 H 0.05731 0.35564 0.32308 0.0
H2423 H 0.95459 0.14022 0.29536 0.0
H2424 H 0.98472 0.22033 0.32331 0.0
H2425 H 0.0174 0.27883 0.29522 0.0
C2426 C 0.04941 0.34039 0.30135 0.0
C2427 C 0.06196 0.36272 0.30917 0.0
C2428 C 0.97838 0.20263 0.31718 0.0
C2429 C 0.01478 0.27306 0.30919 0.0
C2430 C 0.95507 0.15777 0.31707 0.0
C2431 C 0.94533 0.13451 0.30921 0.0
C2432 C 0.99191 0.2245 0.30938 0.0
C2433 C 0.96122 0.15673 0.30158 0.0
C2434 C 0.0259 0.29572 0.30134 0.0
C2435 C 0.04845 0.3398 0.31689 0.0
N2436 N 0.98343 0.20058 0.30185 0.0
N2437 N 0.02583 0.29608 0.31671 0.0
H2438 H 0.60912 0.1911 0.04417 0.0
H2439 H 0.3897 0.2905 0.07276 0.0
H2440 H 0.6055 0.18598 0.07199 0.0
H2441 H 0.39714 0.30844 0.04514 0.0
H2442 H 0.46661 0.24757 0.07239 0.0
H2443 H 0.53092 0.23241 0.04426 0.0
C2444 C 0.59222 0.19914 0.05031 0.0
C2445 C 0.61399 0.18492 0.05809 0.0
C2446 C 0.45136 0.26065 0.0664 0.0
C2447 C 0.52404 0.23151 0.05822 0.0
C2448 C 0.4072 0.28495 0.06659 0.0
C2449 C 0.38696 0.30344 0.05897 0.0
C2450 C 0.47568 0.2547 0.05853 0.0
C2451 C 0.41136 0.29488 0.05117 0.0
C2452 C 0.5474 0.22247 0.05034 0.0
C2453 C 0.59021 0.1962 0.06583 0.0
N2454 N 0.45463 0.27139 0.05116 0.0
N2455 N 0.54644 0.21856 0.06569 0.0
H2456 H 0.55666 0.14154 0.70562 0.0
H2457 H 0.44784 0.36176 0.67826 0.0
H2458 H 0.54699 0.14381 0.67784 0.0
H2459 H 0.43848 0.3541 0.70602 0.0
H2460 H 0.48896 0.28377 0.67818 0.0
H2461 H 0.51492 0.21973 0.70608 0.0
C2462 C 0.54518 0.15805 0.69963 0.0
C2463 C 0.55559 0.13607 0.69167 0.0
C2464 C 0.47811 0.29919 0.6843 0.0
C2465 C 0.5087 0.22589 0.69216 0.0
C2466 C 0.45491 0.344 0.68436 0.0
C2467 C 0.43943 0.36456 0.69216 0.0
C2468 C 0.48606 0.27459 0.69209 0.0
C2469 C 0.44971 0.33967 0.69985 0.0
C2470 C 0.52167 0.20286 0.69989 0.0
C2471 C 0.54001 0.15936 0.68412 0.0
N2472 N 0.47219 0.29586 0.69962 0.0
N2473 N 0.51771 0.20307 0.68455 0.0
H2474 H 0.38722 0.69639 0.45626 0.0
H2475 H 0.60738 0.79487 0.42775 0.0
H2476 H 0.39311 0.687 0.42848 0.0
H2477 H 0.59887 0.81414 0.45534 0.0
H2478 H 0.53059 0.75171 0.42809 0.0
H2479 H 0.46484 0.73875 0.45616 0.0
C2480 C 0.40449 0.70369 0.45013 0.0
C2481 C 0.38357 0.68793 0.44236 0.0
C2482 C 0.54557 0.76513 0.43409 0.0
C2483 C 0.47285 0.73579 0.44223 0.0
C2484 C 0.58965 0.78958 0.43391 0.0
C2485 C 0.60959 0.80844 0.44153 0.0
C2486 C 0.521 0.75943 0.44194 0.0
C2487 C 0.58491 0.80023 0.44931 0.0
C2488 C 0.44899 0.72765 0.45009 0.0
C2489 C 0.40777 0.6984 0.43463 0.0
N2490 N 0.54171 0.77658 0.4493 0.0
N2491 N 0.45122 0.72141 0.43477 0.0
H2492 H 0.93919 0.85405 0.177 0.0
H2493 H 0.04935 0.63947 0.20561 0.0
H2494 H 0.94126 0.85373 0.20484 0.0
H2495 H 0.05746 0.64256 0.17781 0.0
H2496 H 0.00615 0.71636 0.20532 0.0
H2497 H 0.9817 0.77639 0.17707 0.0
C2498 C 0.94904 0.838 0.18313 0.0
C2499 C 0.93647 0.8605 0.19093 0.0
C2500 C 0.01716 0.70014 0.19928 0.0
C2501 C 0.98446 0.77124 0.19104 0.0
C2502 C 0.04159 0.65599 0.19943 0.0
C2503 C 0.05732 0.6345 0.19173 0.0
C2504 C 0.0083 0.72316 0.19136 0.0
C2505 C 0.04612 0.65776 0.18392 0.0
C2506 C 0.97306 0.79349 0.18315 0.0
C2507 C 0.9501 0.83783 0.19866 0.0
N2508 N 0.02252 0.70097 0.18394 0.0
N2509 N 0.97308 0.79438 0.19851 0.0
H2510 H 0.88922 0.18004 0.95727 0.0
H2511 H 0.11554 0.27694 0.93064 0.0
H2512 H 0.89003 0.20372 0.92974 0.0
H2513 H 0.09951 0.31055 0.95769 0.0
H2514 H 0.03749 0.23647 0.93091 0.0
H2515 H 0.96905 0.21912 0.95817 0.0
C2516 C 0.9057 0.19405 0.95145 0.0
C2517 C 0.88293 0.18825 0.94341 0.0
C2518 C 0.0511 0.25249 0.9368 0.0
C2519 C 0.97431 0.23153 0.94439 0.0
C2520 C 0.09594 0.2753 0.93668 0.0
C2521 C 0.11395 0.2978 0.94413 0.0
C2522 C 0.02388 0.25178 0.94443 0.0
C2523 C 0.08691 0.29391 0.95178 0.0
C2524 C 0.95131 0.21601 0.95197 0.0
C2525 C 0.90613 0.20697 0.93608 0.0
N2526 N 0.04291 0.27161 0.95173 0.0
N2527 N 0.95065 0.2272 0.93674 0.0
loop_
_geom_bond_atom_site_label_1
_geom_bond_atom_site_label_2
_geom_bond_distance
_geom_bond_site_symmetry_2
_ccdc_geom_bond_type
Co0 O3 1.970 . S
Co0 N17 1.989 . S
Co0 O25 1.967 . S
Co0 O32 1.920 . S
Co1 O4 1.966 . S
Co1 N10 2.022 . S
Co1 N18 1.993 . S
Co1 O26 1.941 . S
C2 O3 1.258 . S
C2 O4 1.263 . S
O3 Co0 1.970 . S
O3 C2 1.258 . S
O4 Co1 1.966 . S
O4 C2 1.263 . S
C5 O6 1.235 . S
C5 O32 1.289 . S
O6 C5 1.235 . S
C7 C9 1.400 . S
C7 N10 1.351 . S
C7 C12 1.501 . S
C8 C9 1.387 . S
C8 N11 1.341 . S
C9 C7 1.400 . S
C9 C8 1.387 . S
N10 Co1 2.022 . S
N10 C7 1.351 . S
N10 N11 1.365 . S
N11 C8 1.341 . S
N11 N10 1.365 . S
N11 H31 0.862 . S
C12 C7 1.501 . S
C12 H13 0.961 . S
C12 H14 0.961 . S
C12 H15 0.960 . S
H13 C12 0.961 . S
H14 C12 0.961 . S
H15 C12 0.960 . S
C16 N17 1.342 1_565 S
C16 C20 1.401 . S
C16 C21 1.499 . S
N17 Co0 1.989 . S
N17 C16 1.342 1_545 S
N17 N18 1.388 . S
N18 Co1 1.993 . S
N18 N17 1.388 . S
N18 C19 1.346 1_545 S
C19 N18 1.346 1_565 S
C19 C20 1.396 . S
C19 C29 1.510 . S
C20 C16 1.401 . S
C20 C19 1.396 . S
C21 C16 1.499 . S
C21 H22 0.959 . S
C21 H23 0.960 . S
C21 H24 0.961 . S
H22 C21 0.959 . S
H23 C21 0.960 . S
H24 C21 0.961 . S
O25 Co0 1.967 . S
O25 C33 1.258 . S
O26 Co1 1.941 . S
O26 C33 1.266 . S
H27 C29 0.959 . S
H28 C29 0.961 . S
C29 C19 1.510 . S
C29 H27 0.959 . S
C29 H28 0.961 . S
C29 H30 0.960 . S
H30 C29 0.960 . S
H31 N11 0.862 . S
O32 Co0 1.920 . S
O32 C5 1.289 . S
C33 O25 1.258 . S
C33 O26 1.266 . S
Co34 O37 1.970 . S
Co34 N51 1.989 . S
Co34 O59 1.967 . S
Co34 O66 1.920 . S
Co35 O38 1.966 . S
Co35 N44 2.022 . S
Co35 N52 1.993 . S
Co35 O60 1.941 . S
C36 O37 1.258 . S
C36 O38 1.263 . S
O37 Co34 1.970 . S
O37 C36 1.258 . S
O38 Co35 1.966 . S
O38 C36 1.263 . S
C39 O40 1.235 . S
C39 O66 1.289 . S
O40 C39 1.235 . S
C41 C43 1.400 . S
C41 N44 1.351 . S
C41 C46 1.501 1_545 S
C42 C43 1.387 . S
C42 N45 1.341 . S
C43 C41 1.400 . S
C43 C42 1.387 . S
N44 Co35 2.022 . S
N44 C41 1.351 . S
N44 N45 1.365 . S
N45 C42 1.341 . S
N45 N44 1.365 . S
N45 H65 0.862 . S
C46 C41 1.501 1_565 S
C46 H47 0.961 . S
C46 H48 0.961 . S
C46 H49 0.960 . S
H47 C46 0.961 . S
H48 C46 0.961 . S
H49 C46 0.960 . S
C50 N51 1.342 . S
C50 C54 1.401 . S
C50 C55 1.499 . S
N51 Co34 1.989 . S
N51 C50 1.342 . S
N51 N52 1.388 . S
N52 Co35 1.993 . S
N52 N51 1.388 . S
N52 C53 1.346 . S
C53 N52 1.346 . S
C53 C54 1.396 . S
C53 C63 1.510 . S
C54 C50 1.401 . S
C54 C53 1.396 . S
C55 C50 1.499 . S
C55 H56 0.959 . S
C55 H57 0.960 . S
C55 H58 0.961 . S
H56 C55 0.959 . S
H57 C55 0.960 . S
H58 C55 0.961 . S
O59 Co34 1.967 . S
O59 C67 1.258 . S
O60 Co35 1.941 . S
O60 C67 1.266 . S
H61 C63 0.959 . S
H62 C63 0.961 . S
C63 C53 1.510 . S
C63 H61 0.959 . S
C63 H62 0.961 . S
C63 H64 0.960 . S
H64 C63 0.960 . S
H65 N45 0.862 . S
O66 Co34 1.920 . S
O66 C39 1.289 . S
C67 O59 1.258 . S
C67 O60 1.266 . S
Co68 O71 1.970 . S
Co68 N85 1.989 . S
Co68 O93 1.967 . S
Co68 O100 1.920 . S
Co69 O72 1.966 . S
Co69 N78 2.022 . S
Co69 N86 1.993 . S
Co69 O94 1.941 . S
C70 O71 1.258 . S
C70 O72 1.263 . S
O71 Co68 1.970 . S
O71 C70 1.258 . S
O72 Co69 1.966 . S
O72 C70 1.263 . S
C73 O74 1.235 . S
C73 O100 1.289 . S
O74 C73 1.235 . S
C75 C77 1.400 . S
C75 N78 1.351 . S
C75 C80 1.501 . S
C76 C77 1.387 . S
C76 N79 1.341 . S
C77 C75 1.400 . S
C77 C76 1.387 . S
N78 Co69 2.022 . S
N78 C75 1.351 . S
N78 N79 1.365 . S
N79 C76 1.341 . S
N79 N78 1.365 . S
N79 H99 0.862 . S
C80 C75 1.501 . S
C80 H81 0.961 . S
C80 H82 0.961 . S
C80 H83 0.960 . S
H81 C80 0.961 . S
H82 C80 0.961 . S
H83 C80 0.960 . S
C84 N85 1.342 1_545 S
C84 C88 1.401 . S
C84 C89 1.499 . S
N85 Co68 1.989 . S
N85 C84 1.342 1_565 S
N85 N86 1.388 . S
N86 Co69 1.993 . S
N86 N85 1.388 . S
N86 C87 1.346 1_565 S
C87 N86 1.346 1_545 S
C87 C88 1.396 . S
C87 C97 1.510 . S
C88 C84 1.401 . S
C88 C87 1.396 . S
C89 C84 1.499 . S
C89 H90 0.959 . S
C89 H91 0.960 . S
C89 H92 0.961 . S
H90 C89 0.959 . S
H91 C89 0.960 . S
H92 C89 0.961 . S
O93 Co68 1.967 . S
O93 C101 1.258 . S
O94 Co69 1.941 . S
O94 C101 1.266 . S
H95 C97 0.959 . S
H96 C97 0.961 . S
C97 C87 1.510 . S
C97 H95 0.959 . S
C97 H96 0.961 . S
C97 H98 0.960 . S
H98 C97 0.960 . S
H99 N79 0.862 . S
O100 Co68 1.920 . S
O100 C73 1.289 . S
C101 O93 1.258 . S
C101 O94 1.266 . S
Co102 O105 1.970 . S
Co102 N119 1.989 . S
Co102 O127 1.967 . S
Co102 O134 1.920 . S
Co103 O106 1.966 . S
Co103 N112 2.022 . S
Co103 N120 1.993 . S
Co103 O128 1.941 . S
C104 O105 1.258 . S
C104 O106 1.263 . S
O105 Co102 1.970 . S
O105 C104 1.258 . S
O106 Co103 1.966 . S
O106 C104 1.263 . S
C107 O108 1.235 . S
C107 O134 1.289 . S
O108 C107 1.235 . S
C109 C111 1.400 . S
C109 N112 1.351 . S
C109 C114 1.501 1_565 S
C110 C111 1.387 . S
C110 N113 1.341 . S
C111 C109 1.400 . S
C111 C110 1.387 . S
N112 Co103 2.022 . S
N112 C109 1.351 . S
N112 N113 1.365 . S
N113 C110 1.341 . S
N113 N112 1.365 . S
N113 H133 0.862 . S
C114 C109 1.501 1_545 S
C114 H115 0.961 . S
C114 H116 0.961 . S
C114 H117 0.960 . S
H115 C114 0.961 . S
H116 C114 0.961 . S
H117 C114 0.960 . S
C118 N119 1.342 . S
C118 C122 1.401 . S
C118 C123 1.499 . S
N119 Co102 1.989 . S
N119 C118 1.342 . S
N119 N120 1.388 . S
N120 Co103 1.993 . S
N120 N119 1.388 . S
N120 C121 1.346 . S
C121 N120 1.346 . S
C121 C122 1.396 . S
C121 C131 1.510 . S
C122 C118 1.401 . S
C122 C121 1.396 . S
C123 C118 1.499 . S
C123 H124 0.959 . S
C123 H125 0.960 . S
C123 H126 0.961 . S
H124 C123 0.959 . S
H125 C123 0.960 . S
H126 C123 0.961 . S
O127 Co102 1.967 . S
O127 C135 1.258 . S
O128 Co103 1.941 . S
O128 C135 1.266 . S
H129 C131 0.959 . S
H130 C131 0.961 . S
C131 C121 1.510 . S
C131 H129 0.959 . S
C131 H130 0.961 . S
C131 H132 0.960 . S
H132 C131 0.960 . S
H133 N113 0.862 . S
O134 Co102 1.920 . S
O134 C107 1.289 . S
C135 O127 1.258 . S
C135 O128 1.266 . S
Co136 O139 1.970 . S
Co136 N153 1.989 . S
Co136 O161 1.967 . S
Co136 O168 1.920 . S
Co137 O140 1.966 . S
Co137 N146 2.022 . S
Co137 N154 1.993 . S
Co137 O162 1.941 . S
C138 O139 1.258 . S
C138 O140 1.263 . S
O139 Co136 1.970 . S
O139 C138 1.258 . S
O140 Co137 1.966 . S
O140 C138 1.263 . S
C141 O142 1.235 . S
C141 O168 1.289 . S
O142 C141 1.235 . S
C143 C145 1.400 . S
C143 N146 1.351 . S
C143 C148 1.501 . S
C144 C145 1.387 . S
C144 N147 1.341 . S
C145 C143 1.400 . S
C145 C144 1.387 . S
N146 Co137 2.022 . S
N146 C143 1.351 . S
N146 N147 1.365 . S
N147 C144 1.341 . S
N147 N146 1.365 . S
N147 H167 0.862 . S
C148 C143 1.501 . S
C148 H149 0.961 . S
C148 H150 0.961 . S
C148 H151 0.960 . S
H149 C148 0.961 . S
H150 C148 0.961 . S
H151 C148 0.960 . S
C152 N153 1.342 1_545 S
C152 C156 1.401 . S
C152 C157 1.499 . S
N153 Co136 1.989 . S
N153 C152 1.342 1_565 S
N153 N154 1.388 . S
N154 Co137 1.993 . S
N154 N153 1.388 . S
N154 C155 1.346 1_565 S
C155 N154 1.346 1_545 S
C155 C156 1.396 . S
C155 C165 1.510 . S
C156 C152 1.401 . S
C156 C155 1.396 . S
C157 C152 1.499 . S
C157 H158 0.959 . S
C157 H159 0.960 . S
C157 H160 0.961 . S
H158 C157 0.959 . S
H159 C157 0.960 . S
H160 C157 0.961 . S
O161 Co136 1.967 . S
O161 C169 1.258 . S
O162 Co137 1.941 . S
O162 C169 1.266 . S
H163 C165 0.959 . S
H164 C165 0.961 . S
C165 C155 1.510 . S
C165 H163 0.959 . S
C165 H164 0.961 . S
C165 H166 0.960 . S
H166 C165 0.960 . S
H167 N147 0.862 . S
O168 Co136 1.920 . S
O168 C141 1.289 . S
C169 O161 1.258 . S
C169 O162 1.266 . S
Co170 O173 1.970 . S
Co170 N187 1.989 . S
Co170 O195 1.967 . S
Co170 O202 1.920 . S
Co171 O174 1.966 . S
Co171 N180 2.022 . S
Co171 N188 1.993 . S
Co171 O196 1.941 . S
C172 O173 1.258 . S
C172 O174 1.263 . S
O173 Co170 1.970 . S
O173 C172 1.258 . S
O174 Co171 1.966 . S
O174 C172 1.263 . S
C175 O176 1.235 . S
C175 O202 1.289 . S
O176 C175 1.235 . S
C177 C179 1.400 . S
C177 N180 1.351 . S
C177 C182 1.501 1_545 S
C178 C179 1.387 . S
C178 N181 1.341 . S
C179 C177 1.400 . S
C179 C178 1.387 . S
N180 Co171 2.022 . S
N180 C177 1.351 . S
N180 N181 1.365 . S
N181 C178 1.341 . S
N181 N180 1.365 . S
N181 H201 0.862 . S
C182 C177 1.501 1_565 S
C182 H183 0.961 . S
C182 H184 0.961 . S
C182 H185 0.960 . S
H183 C182 0.961 . S
H184 C182 0.961 . S
H185 C182 0.960 . S
C186 N187 1.342 . S
C186 C190 1.401 . S
C186 C191 1.499 . S
N187 Co170 1.989 . S
N187 C186 1.342 . S
N187 N188 1.388 . S
N188 Co171 1.993 . S
N188 N187 1.388 . S
N188 C189 1.346 . S
C189 N188 1.346 . S
C189 C190 1.396 . S
C189 C199 1.510 . S
C190 C186 1.401 . S
C190 C189 1.396 . S
C191 C186 1.499 . S
C191 H192 0.959 . S
C191 H193 0.960 . S
C191 H194 0.961 . S
H192 C191 0.959 . S
H193 C191 0.960 . S
H194 C191 0.961 . S
O195 Co170 1.967 . S
O195 C203 1.258 . S
O196 Co171 1.941 . S
O196 C203 1.266 . S
H197 C199 0.959 . S
H198 C199 0.961 . S
C199 C189 1.510 . S
C199 H197 0.959 . S
C199 H198 0.961 . S
C199 H200 0.960 . S
H200 C199 0.960 . S
H201 N181 0.862 . S
O202 Co170 1.920 . S
O202 C175 1.289 . S
C203 O195 1.258 . S
C203 O196 1.266 . S
Co204 O207 1.970 . S
Co204 N221 1.989 . S
Co204 O229 1.967 . S
Co204 O236 1.920 . S
Co205 O208 1.966 . S
Co205 N214 2.022 . S
Co205 N222 1.993 . S
Co205 O230 1.941 . S
C206 O207 1.258 . S
C206 O208 1.263 . S
O207 Co204 1.970 . S
O207 C206 1.258 . S
O208 Co205 1.966 . S
O208 C206 1.263 . S
C209 O210 1.235 . S
C209 O236 1.289 . S
O210 C209 1.235 . S
C211 C213 1.400 . S
C211 N214 1.351 . S
C211 C216 1.501 . S
C212 C213 1.387 . S
C212 N215 1.341 . S
C213 C211 1.400 . S
C213 C212 1.387 . S
N214 Co205 2.022 . S
N214 C211 1.351 . S
N214 N215 1.365 . S
N215 C212 1.341 . S
N215 N214 1.365 . S
N215 H235 0.862 . S
C216 C211 1.501 . S
C216 H217 0.961 . S
C216 H218 0.961 . S
C216 H219 0.960 . S
H217 C216 0.961 . S
H218 C216 0.961 . S
H219 C216 0.960 . S
C220 N221 1.342 1_565 S
C220 C224 1.401 . S
C220 C225 1.499 . S
N221 Co204 1.989 . S
N221 C220 1.342 1_545 S
N221 N222 1.388 . S
N222 Co205 1.993 . S
N222 N221 1.388 . S
N222 C223 1.346 1_545 S
C223 N222 1.346 1_565 S
C223 C224 1.396 . S
C223 C233 1.510 . S
C224 C220 1.401 . S
C224 C223 1.396 . S
C225 C220 1.499 . S
C225 H226 0.959 . S
C225 H227 0.960 . S
C225 H228 0.961 . S
H226 C225 0.959 . S
H227 C225 0.960 . S
H228 C225 0.961 . S
O229 Co204 1.967 . S
O229 C237 1.258 . S
O230 Co205 1.941 . S
O230 C237 1.266 . S
H231 C233 0.959 . S
H232 C233 0.961 . S
C233 C223 1.510 . S
C233 H231 0.959 . S
C233 H232 0.961 . S
C233 H234 0.960 . S
H234 C233 0.960 . S
H235 N215 0.862 . S
O236 Co204 1.920 . S
O236 C209 1.289 . S
C237 O229 1.258 . S
C237 O230 1.266 . S
Co238 O241 1.970 . S
Co238 N255 1.989 . S
Co238 O263 1.967 . S
Co238 O270 1.920 . S
Co239 O242 1.966 . S
Co239 N248 2.022 . S
Co239 N256 1.993 . S
Co239 O264 1.941 . S
C240 O241 1.258 . S
C240 O242 1.263 . S
O241 Co238 1.970 . S
O241 C240 1.258 . S
O242 Co239 1.966 . S
O242 C240 1.263 . S
C243 O244 1.235 . S
C243 O270 1.289 . S
O244 C243 1.235 . S
C245 C247 1.400 . S
C245 N248 1.351 . S
C245 C250 1.501 1_565 S
C246 C247 1.387 . S
C246 N249 1.341 . S
C247 C245 1.400 . S
C247 C246 1.387 . S
N248 Co239 2.022 . S
N248 C245 1.351 . S
N248 N249 1.365 . S
N249 C246 1.341 . S
N249 N248 1.365 . S
N249 H269 0.862 . S
C250 C245 1.501 1_545 S
C250 H251 0.961 . S
C250 H252 0.961 . S
C250 H253 0.960 . S
H251 C250 0.961 . S
H252 C250 0.961 . S
H253 C250 0.960 . S
C254 N255 1.342 . S
C254 C258 1.401 . S
C254 C259 1.499 . S
N255 Co238 1.989 . S
N255 C254 1.342 . S
N255 N256 1.388 . S
N256 Co239 1.993 . S
N256 N255 1.388 . S
N256 C257 1.346 . S
C257 N256 1.346 . S
C257 C258 1.396 . S
C257 C267 1.510 . S
C258 C254 1.401 . S
C258 C257 1.396 . S
C259 C254 1.499 . S
C259 H260 0.959 . S
C259 H261 0.960 . S
C259 H262 0.961 . S
H260 C259 0.959 . S
H261 C259 0.960 . S
H262 C259 0.961 . S
O263 Co238 1.967 . S
O263 C271 1.258 . S
O264 Co239 1.941 . S
O264 C271 1.266 . S
H265 C267 0.959 . S
H266 C267 0.961 . S
C267 C257 1.510 . S
C267 H265 0.959 . S
C267 H266 0.961 . S
C267 H268 0.960 . S
H268 C267 0.960 . S
H269 N249 0.862 . S
O270 Co238 1.920 . S
O270 C243 1.289 . S
C271 O263 1.258 . S
C271 O264 1.266 . S
Co272 O275 1.970 . S
Co272 N289 1.989 . S
Co272 O297 1.967 . S
Co272 O304 1.920 . S
Co273 O276 1.966 . S
Co273 N282 2.022 . S
Co273 N290 1.993 . S
Co273 O298 1.941 . S
C274 O275 1.258 . S
C274 O276 1.263 . S
O275 Co272 1.970 . S
O275 C274 1.258 . S
O276 Co273 1.966 . S
O276 C274 1.263 . S
C277 O278 1.235 . S
C277 O304 1.289 . S
O278 C277 1.235 . S
C279 C281 1.400 . S
C279 N282 1.351 . S
C279 C284 1.501 . S
C280 C281 1.387 . S
C280 N283 1.341 . S
C281 C279 1.400 . S
C281 C280 1.387 . S
N282 Co273 2.022 . S
N282 C279 1.351 . S
N282 N283 1.365 . S
N283 C280 1.341 . S
N283 N282 1.365 . S
N283 H303 0.862 . S
C284 C279 1.501 . S
C284 H285 0.961 . S
C284 H286 0.961 . S
C284 H287 0.960 . S
H285 C284 0.961 . S
H286 C284 0.961 . S
H287 C284 0.960 . S
C288 N289 1.342 1_545 S
C288 C292 1.401 . S
C288 C293 1.499 . S
N289 Co272 1.989 . S
N289 C288 1.342 1_565 S
N289 N290 1.388 . S
N290 Co273 1.993 . S
N290 N289 1.388 . S
N290 C291 1.346 1_565 S
C291 N290 1.346 1_545 S
C291 C292 1.396 . S
C291 C301 1.510 . S
C292 C288 1.401 . S
C292 C291 1.396 . S
C293 C288 1.499 . S
C293 H294 0.959 . S
C293 H295 0.960 . S
C293 H296 0.961 . S
H294 C293 0.959 . S
H295 C293 0.960 . S
H296 C293 0.961 . S
O297 Co272 1.967 . S
O297 C305 1.258 . S
O298 Co273 1.941 . S
O298 C305 1.266 . S
H299 C301 0.959 . S
H300 C301 0.961 . S
C301 C291 1.510 . S
C301 H299 0.959 . S
C301 H300 0.961 . S
C301 H302 0.960 . S
H302 C301 0.960 . S
H303 N283 0.862 . S
O304 Co272 1.920 . S
O304 C277 1.289 . S
C305 O297 1.258 . S
C305 O298 1.266 . S
Co306 O309 1.970 . S
Co306 N323 1.989 . S
Co306 O331 1.967 . S
Co306 O338 1.920 . S
Co307 O310 1.966 . S
Co307 N316 2.022 . S
Co307 N324 1.993 . S
Co307 O332 1.941 . S
C308 O309 1.258 . S
C308 O310 1.263 . S
O309 Co306 1.970 . S
O309 C308 1.258 . S
O310 Co307 1.966 . S
O310 C308 1.263 . S
C311 O312 1.235 . S
C311 O338 1.289 . S
O312 C311 1.235 . S
C313 C315 1.400 . S
C313 N316 1.351 . S
C313 C318 1.501 1_565 S
C314 C315 1.387 . S
C314 N317 1.341 . S
C315 C313 1.400 . S
C315 C314 1.387 . S
N316 Co307 2.022 . S
N316 C313 1.351 . S
N316 N317 1.365 . S
N317 C314 1.341 . S
N317 N316 1.365 . S
N317 H337 0.862 . S
C318 C313 1.501 1_545 S
C318 H319 0.961 . S
C318 H320 0.961 . S
C318 H321 0.960 . S
H319 C318 0.961 . S
H320 C318 0.961 . S
H321 C318 0.960 . S
C322 N323 1.342 . S
C322 C326 1.401 . S
C322 C327 1.499 . S
N323 Co306 1.989 . S
N323 C322 1.342 . S
N323 N324 1.388 . S
N324 Co307 1.993 . S
N324 N323 1.388 . S
N324 C325 1.346 . S
C325 N324 1.346 . S
C325 C326 1.396 . S
C325 C335 1.510 . S
C326 C322 1.401 . S
C326 C325 1.396 . S
C327 C322 1.499 . S
C327 H328 0.959 . S
C327 H329 0.960 . S
C327 H330 0.961 . S
H328 C327 0.959 . S
H329 C327 0.960 . S
H330 C327 0.961 . S
O331 Co306 1.967 . S
O331 C339 1.258 . S
O332 Co307 1.941 . S
O332 C339 1.266 . S
H333 C335 0.959 . S
H334 C335 0.961 . S
C335 C325 1.510 . S
C335 H333 0.959 . S
C335 H334 0.961 . S
C335 H336 0.960 . S
H336 C335 0.960 . S
H337 N317 0.862 . S
O338 Co306 1.920 . S
O338 C311 1.289 . S
C339 O331 1.258 . S
C339 O332 1.266 . S
Co340 O343 1.970 . S
Co340 N357 1.989 . S
Co340 O365 1.967 . S
Co340 O372 1.920 . S
Co341 O344 1.966 . S
Co341 N350 2.022 . S
Co341 N358 1.993 . S
Co341 O366 1.941 . S
C342 O343 1.258 . S
C342 O344 1.263 . S
O343 Co340 1.970 . S
O343 C342 1.258 . S
O344 Co341 1.966 . S
O344 C342 1.263 . S
C345 O346 1.235 . S
C345 O372 1.289 . S
O346 C345 1.235 . S
C347 C349 1.400 . S
C347 N350 1.351 . S
C347 C352 1.501 . S
C348 C349 1.387 . S
C348 N351 1.341 . S
C349 C347 1.400 . S
C349 C348 1.387 . S
N350 Co341 2.022 . S
N350 C347 1.351 . S
N350 N351 1.365 . S
N351 C348 1.341 . S
N351 N350 1.365 . S
N351 H371 0.862 . S
C352 C347 1.501 . S
C352 H353 0.961 . S
C352 H354 0.961 . S
C352 H355 0.960 . S
H353 C352 0.961 . S
H354 C352 0.961 . S
H355 C352 0.960 . S
C356 N357 1.342 1_565 S
C356 C360 1.401 . S
C356 C361 1.499 . S
N357 Co340 1.989 . S
N357 C356 1.342 1_545 S
N357 N358 1.388 . S
N358 Co341 1.993 . S
N358 N357 1.388 . S
N358 C359 1.346 1_545 S
C359 N358 1.346 1_565 S
C359 C360 1.396 . S
C359 C369 1.510 . S
C360 C356 1.401 . S
C360 C359 1.396 . S
C361 C356 1.499 . S
C361 H362 0.959 . S
C361 H363 0.960 . S
C361 H364 0.961 . S
H362 C361 0.959 . S
H363 C361 0.960 . S
H364 C361 0.961 . S
O365 Co340 1.967 . S
O365 C373 1.258 . S
O366 Co341 1.941 . S
O366 C373 1.266 . S
H367 C369 0.959 . S
H368 C369 0.961 . S
C369 C359 1.510 . S
C369 H367 0.959 . S
C369 H368 0.961 . S
C369 H370 0.960 . S
H370 C369 0.960 . S
H371 N351 0.862 . S
O372 Co340 1.920 . S
O372 C345 1.289 . S
C373 O365 1.258 . S
C373 O366 1.266 . S
Co374 O377 1.970 . S
Co374 N391 1.989 . S
Co374 O399 1.967 . S
Co374 O406 1.920 . S
Co375 O378 1.966 . S
Co375 N384 2.022 . S
Co375 N392 1.993 . S
Co375 O400 1.941 . S
C376 O377 1.258 . S
C376 O378 1.263 . S
O377 Co374 1.970 . S
O377 C376 1.258 . S
O378 Co375 1.966 . S
O378 C376 1.263 . S
C379 O380 1.235 . S
C379 O406 1.289 . S
O380 C379 1.235 . S
C381 C383 1.400 . S
C381 N384 1.351 . S
C381 C386 1.501 1_545 S
C382 C383 1.387 . S
C382 N385 1.341 . S
C383 C381 1.400 . S
C383 C382 1.387 . S
N384 Co375 2.022 . S
N384 C381 1.351 . S
N384 N385 1.365 . S
N385 C382 1.341 . S
N385 N384 1.365 . S
N385 H405 0.862 . S
C386 C381 1.501 1_565 S
C386 H387 0.961 . S
C386 H388 0.961 . S
C386 H389 0.960 . S
H387 C386 0.961 . S
H388 C386 0.961 . S
H389 C386 0.960 . S
C390 N391 1.342 . S
C390 C394 1.401 . S
C390 C395 1.499 . S
N391 Co374 1.989 . S
N391 C390 1.342 . S
N391 N392 1.388 . S
N392 Co375 1.993 . S
N392 N391 1.388 . S
N392 C393 1.346 . S
C393 N392 1.346 . S
C393 C394 1.396 . S
C393 C403 1.510 . S
C394 C390 1.401 . S
C394 C393 1.396 . S
C395 C390 1.499 . S
C395 H396 0.959 . S
C395 H397 0.960 . S
C395 H398 0.961 . S
H396 C395 0.959 . S
H397 C395 0.960 . S
H398 C395 0.961 . S
O399 Co374 1.967 . S
O399 C407 1.258 . S
O400 Co375 1.941 . S
O400 C407 1.266 . S
H401 C403 0.959 . S
H402 C403 0.961 . S
C403 C393 1.510 . S
C403 H401 0.959 . S
C403 H402 0.961 . S
C403 H404 0.960 . S
H404 C403 0.960 . S
H405 N385 0.862 . S
O406 Co374 1.920 . S
O406 C379 1.289 . S
C407 O399 1.258 . S
C407 O400 1.266 . S
Co408 O411 1.970 . S
Co408 N425 1.989 . S
Co408 O433 1.967 . S
Co408 O440 1.920 . S
Co409 O412 1.966 . S
Co409 N418 2.022 . S
Co409 N426 1.993 . S
Co409 O434 1.941 . S
C410 O411 1.258 . S
C410 O412 1.263 . S
O411 Co408 1.970 . S
O411 C410 1.258 . S
O412 Co409 1.966 . S
O412 C410 1.263 . S
C413 O414 1.235 . S
C413 O440 1.289 . S
O414 C413 1.235 . S
C415 C417 1.400 . S
C415 N418 1.351 . S
C415 C420 1.501 . S
C416 C417 1.387 . S
C416 N419 1.341 . S
C417 C415 1.400 . S
C417 C416 1.387 . S
N418 Co409 2.022 . S
N418 C415 1.351 . S
N418 N419 1.365 . S
N419 C416 1.341 . S
N419 N418 1.365 . S
N419 H439 0.862 . S
C420 C415 1.501 . S
C420 H421 0.961 . S
C420 H422 0.961 . S
C420 H423 0.960 . S
H421 C420 0.961 . S
H422 C420 0.961 . S
H423 C420 0.960 . S
C424 N425 1.342 1_565 S
C424 C428 1.401 . S
C424 C429 1.499 . S
N425 Co408 1.989 . S
N425 C424 1.342 1_545 S
N425 N426 1.388 . S
N426 Co409 1.993 . S
N426 N425 1.388 . S
N426 C427 1.346 1_545 S
C427 N426 1.346 1_565 S
C427 C428 1.396 . S
C427 C437 1.510 . S
C428 C424 1.401 . S
C428 C427 1.396 . S
C429 C424 1.499 . S
C429 H430 0.959 . S
C429 H431 0.960 . S
C429 H432 0.961 . S
H430 C429 0.959 . S
H431 C429 0.960 . S
H432 C429 0.961 . S
O433 Co408 1.967 . S
O433 C441 1.258 . S
O434 Co409 1.941 . S
O434 C441 1.266 . S
H435 C437 0.959 . S
H436 C437 0.961 . S
C437 C427 1.510 . S
C437 H435 0.959 . S
C437 H436 0.961 . S
C437 H438 0.960 . S
H438 C437 0.960 . S
H439 N419 0.862 . S
O440 Co408 1.920 . S
O440 C413 1.289 . S
C441 O433 1.258 . S
C441 O434 1.266 . S
Co442 O445 1.970 . S
Co442 N459 1.989 . S
Co442 O467 1.967 . S
Co442 O474 1.920 . S
Co443 O446 1.966 . S
Co443 N452 2.022 . S
Co443 N460 1.993 . S
Co443 O468 1.941 . S
C444 O445 1.258 . S
C444 O446 1.263 . S
O445 Co442 1.970 . S
O445 C444 1.258 . S
O446 Co443 1.966 . S
O446 C444 1.263 . S
C447 O448 1.235 . S
C447 O474 1.289 . S
O448 C447 1.235 . S
C449 C451 1.400 . S
C449 N452 1.351 . S
C449 C454 1.501 1_565 S
C450 C451 1.387 . S
C450 N453 1.341 . S
C451 C449 1.400 . S
C451 C450 1.387 . S
N452 Co443 2.022 . S
N452 C449 1.351 . S
N452 N453 1.365 . S
N453 C450 1.341 . S
N453 N452 1.365 . S
N453 H473 0.862 . S
C454 C449 1.501 1_545 S
C454 H455 0.961 . S
C454 H456 0.961 . S
C454 H457 0.960 . S
H455 C454 0.961 . S
H456 C454 0.961 . S
H457 C454 0.960 . S
C458 N459 1.342 . S
C458 C462 1.401 . S
C458 C463 1.499 . S
N459 Co442 1.989 . S
N459 C458 1.342 . S
N459 N460 1.388 . S
N460 Co443 1.993 . S
N460 N459 1.388 . S
N460 C461 1.346 . S
C461 N460 1.346 . S
C461 C462 1.396 . S
C461 C471 1.510 . S
C462 C458 1.401 . S
C462 C461 1.396 . S
C463 C458 1.499 . S
C463 H464 0.959 . S
C463 H465 0.960 . S
C463 H466 0.961 . S
H464 C463 0.959 . S
H465 C463 0.960 . S
H466 C463 0.961 . S
O467 Co442 1.967 . S
O467 C475 1.258 . S
O468 Co443 1.941 . S
O468 C475 1.266 . S
H469 C471 0.959 . S
H470 C471 0.961 . S
C471 C461 1.510 . S
C471 H469 0.959 . S
C471 H470 0.961 . S
C471 H472 0.960 . S
H472 C471 0.960 . S
H473 N453 0.862 . S
O474 Co442 1.920 . S
O474 C447 1.289 . S
C475 O467 1.258 . S
C475 O468 1.266 . S
Co476 O479 1.970 . S
Co476 N493 1.989 . S
Co476 O501 1.967 . S
Co476 O508 1.920 . S
Co477 O480 1.966 . S
Co477 N486 2.022 . S
Co477 N494 1.993 . S
Co477 O502 1.941 . S
C478 O479 1.258 . S
C478 O480 1.263 . S
O479 Co476 1.970 . S
O479 C478 1.258 . S
O480 Co477 1.966 . S
O480 C478 1.263 . S
C481 O482 1.235 . S
C481 O508 1.289 . S
O482 C481 1.235 . S
C483 C485 1.400 . S
C483 N486 1.351 . S
C483 C488 1.501 . S
C484 C485 1.387 . S
C484 N487 1.341 . S
C485 C483 1.400 . S
C485 C484 1.387 . S
N486 Co477 2.022 . S
N486 C483 1.351 . S
N486 N487 1.365 . S
N487 C484 1.341 . S
N487 N486 1.365 . S
N487 H507 0.862 . S
C488 C483 1.501 . S
C488 H489 0.961 . S
C488 H490 0.961 . S
C488 H491 0.960 . S
H489 C488 0.961 . S
H490 C488 0.961 . S
H491 C488 0.960 . S
C492 N493 1.342 1_545 S
C492 C496 1.401 . S
C492 C497 1.499 . S
N493 Co476 1.989 . S
N493 C492 1.342 1_565 S
N493 N494 1.388 . S
N494 Co477 1.993 . S
N494 N493 1.388 . S
N494 C495 1.346 1_565 S
C495 N494 1.346 1_545 S
C495 C496 1.396 . S
C495 C505 1.510 . S
C496 C492 1.401 . S
C496 C495 1.396 . S
C497 C492 1.499 . S
C497 H498 0.959 . S
C497 H499 0.960 . S
C497 H500 0.961 . S
H498 C497 0.959 . S
H499 C497 0.960 . S
H500 C497 0.961 . S
O501 Co476 1.967 . S
O501 C509 1.258 . S
O502 Co477 1.941 . S
O502 C509 1.266 . S
H503 C505 0.959 . S
H504 C505 0.961 . S
C505 C495 1.510 . S
C505 H503 0.959 . S
C505 H504 0.961 . S
C505 H506 0.960 . S
H506 C505 0.960 . S
H507 N487 0.862 . S
O508 Co476 1.920 . S
O508 C481 1.289 . S
C509 O501 1.258 . S
C509 O502 1.266 . S
Co510 O513 1.970 . S
Co510 N527 1.989 . S
Co510 O535 1.967 . S
Co510 O542 1.920 . S
Co511 O514 1.966 . S
Co511 N520 2.022 . S
Co511 N528 1.993 . S
Co511 O536 1.941 . S
C512 O513 1.258 . S
C512 O514 1.263 . S
O513 Co510 1.970 . S
O513 C512 1.258 . S
O514 Co511 1.966 . S
O514 C512 1.263 . S
C515 O516 1.235 . S
C515 O542 1.289 . S
O516 C515 1.235 . S
C517 C519 1.400 . S
C517 N520 1.351 . S
C517 C522 1.501 1_545 S
C518 C519 1.387 . S
C518 N521 1.341 . S
C519 C517 1.400 . S
C519 C518 1.387 . S
N520 Co511 2.022 . S
N520 C517 1.351 . S
N520 N521 1.365 . S
N521 C518 1.341 . S
N521 N520 1.365 . S
N521 H541 0.862 . S
C522 C517 1.501 1_565 S
C522 H523 0.961 . S
C522 H524 0.961 . S
C522 H525 0.960 . S
H523 C522 0.961 . S
H524 C522 0.961 . S
H525 C522 0.960 . S
C526 N527 1.342 . S
C526 C530 1.401 . S
C526 C531 1.499 . S
N527 Co510 1.989 . S
N527 C526 1.342 . S
N527 N528 1.388 . S
N528 Co511 1.993 . S
N528 N527 1.388 . S
N528 C529 1.346 . S
C529 N528 1.346 . S
C529 C530 1.396 . S
C529 C539 1.510 . S
C530 C526 1.401 . S
C530 C529 1.396 . S
C531 C526 1.499 . S
C531 H532 0.959 . S
C531 H533 0.960 . S
C531 H534 0.961 . S
H532 C531 0.959 . S
H533 C531 0.960 . S
H534 C531 0.961 . S
O535 Co510 1.967 . S
O535 C543 1.258 . S
O536 Co511 1.941 . S
O536 C543 1.266 . S
H537 C539 0.959 . S
H538 C539 0.961 . S
C539 C529 1.510 . S
C539 H537 0.959 . S
C539 H538 0.961 . S
C539 H540 0.960 . S
H540 C539 0.960 . S
H541 N521 0.862 . S
O542 Co510 1.920 . S
O542 C515 1.289 . S
C543 O535 1.258 . S
C543 O536 1.266 . S
Co544 O547 1.970 . S
Co544 N561 1.989 . S
Co544 O569 1.967 . S
Co544 O576 1.920 . S
Co545 O548 1.966 . S
Co545 N554 2.022 . S
Co545 N562 1.993 . S
Co545 O570 1.941 . S
C546 O547 1.258 . S
C546 O548 1.263 . S
O547 Co544 1.970 . S
O547 C546 1.258 . S
O548 Co545 1.966 . S
O548 C546 1.263 . S
C549 O550 1.235 . S
C549 O576 1.289 . S
O550 C549 1.235 . S
C551 C553 1.400 . S
C551 N554 1.351 . S
C551 C556 1.501 . S
C552 C553 1.387 . S
C552 N555 1.341 . S
C553 C551 1.400 . S
C553 C552 1.387 . S
N554 Co545 2.022 . S
N554 C551 1.351 . S
N554 N555 1.365 . S
N555 C552 1.341 . S
N555 N554 1.365 . S
N555 H575 0.862 . S
C556 C551 1.501 . S
C556 H557 0.961 . S
C556 H558 0.961 . S
C556 H559 0.960 . S
H557 C556 0.961 . S
H558 C556 0.961 . S
H559 C556 0.960 . S
C560 N561 1.342 . S
C560 C564 1.401 . S
C560 C565 1.499 . S
N561 Co544 1.989 . S
N561 C560 1.342 . S
N561 N562 1.388 . S
N562 Co545 1.993 . S
N562 N561 1.388 . S
N562 C563 1.346 . S
C563 N562 1.346 . S
C563 C564 1.396 . S
C563 C573 1.510 . S
C564 C560 1.401 . S
C564 C563 1.396 . S
C565 C560 1.499 . S
C565 H566 0.959 . S
C565 H567 0.960 . S
C565 H568 0.961 . S
H566 C565 0.959 . S
H567 C565 0.960 . S
H568 C565 0.961 . S
O569 Co544 1.967 . S
O569 C577 1.258 . S
O570 Co545 1.941 . S
O570 C577 1.266 . S
H571 C573 0.959 . S
H572 C573 0.961 . S
C573 C563 1.510 . S
C573 H571 0.959 . S
C573 H572 0.961 . S
C573 H574 0.960 . S
H574 C573 0.960 . S
H575 N555 0.862 . S
O576 Co544 1.920 . S
O576 C549 1.289 . S
C577 O569 1.258 . S
C577 O570 1.266 . S
Co578 O581 1.970 . S
Co578 N595 1.989 . S
Co578 O603 1.967 . S
Co578 O610 1.920 . S
Co579 O582 1.966 . S
Co579 N588 2.022 . S
Co579 N596 1.993 . S
Co579 O604 1.941 . S
C580 O581 1.258 . S
C580 O582 1.263 . S
O581 Co578 1.970 . S
O581 C580 1.258 . S
O582 Co579 1.966 . S
O582 C580 1.263 . S
C583 O584 1.235 . S
C583 O610 1.289 . S
O584 C583 1.235 . S
C585 C587 1.400 . S
C585 N588 1.351 . S
C585 C590 1.501 . S
C586 C587 1.387 . S
C586 N589 1.341 . S
C587 C585 1.400 . S
C587 C586 1.387 . S
N588 Co579 2.022 . S
N588 C585 1.351 . S
N588 N589 1.365 . S
N589 C586 1.341 . S
N589 N588 1.365 . S
N589 H609 0.862 . S
C590 C585 1.501 . S
C590 H591 0.961 . S
C590 H592 0.961 . S
C590 H593 0.960 . S
H591 C590 0.961 . S
H592 C590 0.961 . S
H593 C590 0.960 . S
C594 N595 1.342 . S
C594 C598 1.401 . S
C594 C599 1.499 . S
N595 Co578 1.989 . S
N595 C594 1.342 . S
N595 N596 1.388 . S
N596 Co579 1.993 . S
N596 N595 1.388 . S
N596 C597 1.346 . S
C597 N596 1.346 . S
C597 C598 1.396 . S
C597 C607 1.510 . S
C598 C594 1.401 . S
C598 C597 1.396 . S
C599 C594 1.499 . S
C599 H600 0.959 . S
C599 H601 0.960 . S
C599 H602 0.961 . S
H600 C599 0.959 . S
H601 C599 0.960 . S
H602 C599 0.961 . S
O603 Co578 1.967 . S
O603 C611 1.258 . S
O604 Co579 1.941 . S
O604 C611 1.266 . S
H605 C607 0.959 . S
H606 C607 0.961 . S
C607 C597 1.510 . S
C607 H605 0.959 . S
C607 H606 0.961 . S
C607 H608 0.960 . S
H608 C607 0.960 . S
H609 N589 0.862 . S
O610 Co578 1.920 . S
O610 C583 1.289 . S
C611 O603 1.258 . S
C611 O604 1.266 . S
Co612 O615 1.970 . S
Co612 N629 1.989 . S
Co612 O637 1.967 . S
Co612 O644 1.920 . S
Co613 O616 1.966 . S
Co613 N622 2.022 . S
Co613 N630 1.993 . S
Co613 O638 1.941 . S
C614 O615 1.258 . S
C614 O616 1.263 . S
O615 Co612 1.970 . S
O615 C614 1.258 . S
O616 Co613 1.966 . S
O616 C614 1.263 . S
C617 O618 1.235 . S
C617 O644 1.289 . S
O618 C617 1.235 . S
C619 C621 1.400 . S
C619 N622 1.351 . S
C619 C624 1.501 . S
C620 C621 1.387 . S
C620 N623 1.341 . S
C621 C619 1.400 . S
C621 C620 1.387 . S
N622 Co613 2.022 . S
N622 C619 1.351 . S
N622 N623 1.365 . S
N623 C620 1.341 . S
N623 N622 1.365 . S
N623 H643 0.862 . S
C624 C619 1.501 . S
C624 H625 0.961 . S
C624 H626 0.961 . S
C624 H627 0.960 . S
H625 C624 0.961 . S
H626 C624 0.961 . S
H627 C624 0.960 . S
C628 N629 1.342 . S
C628 C632 1.401 . S
C628 C633 1.499 . S
N629 Co612 1.989 . S
N629 C628 1.342 . S
N629 N630 1.388 . S
N630 Co613 1.993 . S
N630 N629 1.388 . S
N630 C631 1.346 . S
C631 N630 1.346 . S
C631 C632 1.396 . S
C631 C641 1.510 . S
C632 C628 1.401 . S
C632 C631 1.396 . S
C633 C628 1.499 . S
C633 H634 0.959 . S
C633 H635 0.960 . S
C633 H636 0.961 . S
H634 C633 0.959 . S
H635 C633 0.960 . S
H636 C633 0.961 . S
O637 Co612 1.967 . S
O637 C645 1.258 . S
O638 Co613 1.941 . S
O638 C645 1.266 . S
H639 C641 0.959 . S
H640 C641 0.961 . S
C641 C631 1.510 . S
C641 H639 0.959 . S
C641 H640 0.961 . S
C641 H642 0.960 . S
H642 C641 0.960 . S
H643 N623 0.862 . S
O644 Co612 1.920 . S
O644 C617 1.289 . S
C645 O637 1.258 . S
C645 O638 1.266 . S
Co646 O649 1.970 . S
Co646 N663 1.989 . S
Co646 O671 1.967 . S
Co646 O678 1.920 . S
Co647 O650 1.966 . S
Co647 N656 2.022 . S
Co647 N664 1.993 . S
Co647 O672 1.941 . S
C648 O649 1.258 . S
C648 O650 1.263 . S
O649 Co646 1.970 . S
O649 C648 1.258 . S
O650 Co647 1.966 . S
O650 C648 1.263 . S
C651 O652 1.235 . S
C651 O678 1.289 . S
O652 C651 1.235 . S
C653 C655 1.400 . S
C653 N656 1.351 . S
C653 C658 1.501 . S
C654 C655 1.387 . S
C654 N657 1.341 . S
C655 C653 1.400 . S
C655 C654 1.387 . S
N656 Co647 2.022 . S
N656 C653 1.351 . S
N656 N657 1.365 . S
N657 C654 1.341 . S
N657 N656 1.365 . S
N657 H677 0.862 . S
C658 C653 1.501 . S
C658 H659 0.961 . S
C658 H660 0.961 . S
C658 H661 0.960 . S
H659 C658 0.961 . S
H660 C658 0.961 . S
H661 C658 0.960 . S
C662 N663 1.342 . S
C662 C666 1.401 . S
C662 C667 1.499 . S
N663 Co646 1.989 . S
N663 C662 1.342 . S
N663 N664 1.388 . S
N664 Co647 1.993 . S
N664 N663 1.388 . S
N664 C665 1.346 . S
C665 N664 1.346 . S
C665 C666 1.396 . S
C665 C675 1.510 . S
C666 C662 1.401 . S
C666 C665 1.396 . S
C667 C662 1.499 . S
C667 H668 0.959 . S
C667 H669 0.960 . S
C667 H670 0.961 . S
H668 C667 0.959 . S
H669 C667 0.960 . S
H670 C667 0.961 . S
O671 Co646 1.967 . S
O671 C679 1.258 . S
O672 Co647 1.941 . S
O672 C679 1.266 . S
H673 C675 0.959 . S
H674 C675 0.961 . S
C675 C665 1.510 . S
C675 H673 0.959 . S
C675 H674 0.961 . S
C675 H676 0.960 . S
H676 C675 0.960 . S
H677 N657 0.862 . S
O678 Co646 1.920 . S
O678 C651 1.289 . S
C679 O671 1.258 . S
C679 O672 1.266 . S
Co680 O683 1.970 . S
Co680 N697 1.989 . S
Co680 O705 1.967 . S
Co680 O712 1.920 . S
Co681 O684 1.966 . S
Co681 N690 2.022 . S
Co681 N698 1.993 . S
Co681 O706 1.941 . S
C682 O683 1.258 . S
C682 O684 1.263 . S
O683 Co680 1.970 . S
O683 C682 1.258 . S
O684 Co681 1.966 . S
O684 C682 1.263 . S
C685 O686 1.235 . S
C685 O712 1.289 . S
O686 C685 1.235 . S
C687 C689 1.400 . S
C687 N690 1.351 . S
C687 C692 1.501 . S
C688 C689 1.387 . S
C688 N691 1.341 . S
C689 C687 1.400 . S
C689 C688 1.387 . S
N690 Co681 2.022 . S
N690 C687 1.351 . S
N690 N691 1.365 . S
N691 C688 1.341 . S
N691 N690 1.365 . S
N691 H711 0.862 . S
C692 C687 1.501 . S
C692 H693 0.961 . S
C692 H694 0.961 . S
C692 H695 0.960 . S
H693 C692 0.961 . S
H694 C692 0.961 . S
H695 C692 0.960 . S
C696 N697 1.342 . S
C696 C700 1.401 . S
C696 C701 1.499 . S
N697 Co680 1.989 . S
N697 C696 1.342 . S
N697 N698 1.388 . S
N698 Co681 1.993 . S
N698 N697 1.388 . S
N698 C699 1.346 . S
C699 N698 1.346 . S
C699 C700 1.396 . S
C699 C709 1.510 . S
C700 C696 1.401 . S
C700 C699 1.396 . S
C701 C696 1.499 . S
C701 H702 0.959 . S
C701 H703 0.960 . S
C701 H704 0.961 . S
H702 C701 0.959 . S
H703 C701 0.960 . S
H704 C701 0.961 . S
O705 Co680 1.967 . S
O705 C713 1.258 . S
O706 Co681 1.941 . S
O706 C713 1.266 . S
H707 C709 0.959 . S
H708 C709 0.961 . S
C709 C699 1.510 . S
C709 H707 0.959 . S
C709 H708 0.961 . S
C709 H710 0.960 . S
H710 C709 0.960 . S
H711 N691 0.862 . S
O712 Co680 1.920 . S
O712 C685 1.289 . S
C713 O705 1.258 . S
C713 O706 1.266 . S
Co714 O717 1.970 . S
Co714 N731 1.989 . S
Co714 O739 1.967 . S
Co714 O746 1.920 . S
Co715 O718 1.966 . S
Co715 N724 2.022 . S
Co715 N732 1.993 . S
Co715 O740 1.941 . S
C716 O717 1.258 . S
C716 O718 1.263 . S
O717 Co714 1.970 . S
O717 C716 1.258 . S
O718 Co715 1.966 . S
O718 C716 1.263 . S
C719 O720 1.235 . S
C719 O746 1.289 . S
O720 C719 1.235 . S
C721 C723 1.400 . S
C721 N724 1.351 . S
C721 C726 1.501 . S
C722 C723 1.387 . S
C722 N725 1.341 . S
C723 C721 1.400 . S
C723 C722 1.387 . S
N724 Co715 2.022 . S
N724 C721 1.351 . S
N724 N725 1.365 . S
N725 C722 1.341 . S
N725 N724 1.365 . S
N725 H745 0.862 . S
C726 C721 1.501 . S
C726 H727 0.961 . S
C726 H728 0.961 . S
C726 H729 0.960 . S
H727 C726 0.961 . S
H728 C726 0.961 . S
H729 C726 0.960 . S
C730 N731 1.342 . S
C730 C734 1.401 . S
C730 C735 1.499 . S
N731 Co714 1.989 . S
N731 C730 1.342 . S
N731 N732 1.388 . S
N732 Co715 1.993 . S
N732 N731 1.388 . S
N732 C733 1.346 . S
C733 N732 1.346 . S
C733 C734 1.396 . S
C733 C743 1.510 . S
C734 C730 1.401 . S
C734 C733 1.396 . S
C735 C730 1.499 . S
C735 H736 0.959 . S
C735 H737 0.960 . S
C735 H738 0.961 . S
H736 C735 0.959 . S
H737 C735 0.960 . S
H738 C735 0.961 . S
O739 Co714 1.967 . S
O739 C747 1.258 . S
O740 Co715 1.941 . S
O740 C747 1.266 . S
H741 C743 0.959 . S
H742 C743 0.961 . S
C743 C733 1.510 . S
C743 H741 0.959 . S
C743 H742 0.961 . S
C743 H744 0.960 . S
H744 C743 0.960 . S
H745 N725 0.862 . S
O746 Co714 1.920 . S
O746 C719 1.289 . S
C747 O739 1.258 . S
C747 O740 1.266 . S
Co748 O751 1.970 . S
Co748 N765 1.989 . S
Co748 O773 1.967 . S
Co748 O780 1.920 . S
Co749 O752 1.966 . S
Co749 N758 2.022 . S
Co749 N766 1.993 . S
Co749 O774 1.941 . S
C750 O751 1.258 . S
C750 O752 1.263 . S
O751 Co748 1.970 . S
O751 C750 1.258 . S
O752 Co749 1.966 . S
O752 C750 1.263 . S
C753 O754 1.235 . S
C753 O780 1.289 . S
O754 C753 1.235 . S
C755 C757 1.400 . S
C755 N758 1.351 . S
C755 C760 1.501 . S
C756 C757 1.387 . S
C756 N759 1.341 . S
C757 C755 1.400 . S
C757 C756 1.387 . S
N758 Co749 2.022 . S
N758 C755 1.351 . S
N758 N759 1.365 . S
N759 C756 1.341 . S
N759 N758 1.365 . S
N759 H779 0.862 . S
C760 C755 1.501 . S
C760 H761 0.961 . S
C760 H762 0.961 . S
C760 H763 0.960 . S
H761 C760 0.961 . S
H762 C760 0.961 . S
H763 C760 0.960 . S
C764 N765 1.342 . S
C764 C768 1.401 . S
C764 C769 1.499 . S
N765 Co748 1.989 . S
N765 C764 1.342 . S
N765 N766 1.388 . S
N766 Co749 1.993 . S
N766 N765 1.388 . S
N766 C767 1.346 . S
C767 N766 1.346 . S
C767 C768 1.396 . S
C767 C777 1.510 . S
C768 C764 1.401 . S
C768 C767 1.396 . S
C769 C764 1.499 . S
C769 H770 0.959 . S
C769 H771 0.960 . S
C769 H772 0.961 . S
H770 C769 0.959 . S
H771 C769 0.960 . S
H772 C769 0.961 . S
O773 Co748 1.967 . S
O773 C781 1.258 . S
O774 Co749 1.941 . S
O774 C781 1.266 . S
H775 C777 0.959 . S
H776 C777 0.961 . S
C777 C767 1.510 . S
C777 H775 0.959 . S
C777 H776 0.961 . S
C777 H778 0.960 . S
H778 C777 0.960 . S
H779 N759 0.862 . S
O780 Co748 1.920 . S
O780 C753 1.289 . S
C781 O773 1.258 . S
C781 O774 1.266 . S
Co782 O785 1.970 . S
Co782 N799 1.989 . S
Co782 O807 1.967 . S
Co782 O814 1.920 . S
Co783 O786 1.966 . S
Co783 N792 2.022 . S
Co783 N800 1.993 . S
Co783 O808 1.941 . S
C784 O785 1.258 . S
C784 O786 1.263 . S
O785 Co782 1.970 . S
O785 C784 1.258 . S
O786 Co783 1.966 . S
O786 C784 1.263 . S
C787 O788 1.235 . S
C787 O814 1.289 . S
O788 C787 1.235 . S
C789 C791 1.400 . S
C789 N792 1.351 . S
C789 C794 1.501 . S
C790 C791 1.387 . S
C790 N793 1.341 . S
C791 C789 1.400 . S
C791 C790 1.387 . S
N792 Co783 2.022 . S
N792 C789 1.351 . S
N792 N793 1.365 . S
N793 C790 1.341 . S
N793 N792 1.365 . S
N793 H813 0.862 . S
C794 C789 1.501 . S
C794 H795 0.961 . S
C794 H796 0.961 . S
C794 H797 0.960 . S
H795 C794 0.961 . S
H796 C794 0.961 . S
H797 C794 0.960 . S
C798 N799 1.342 . S
C798 C802 1.401 . S
C798 C803 1.499 . S
N799 Co782 1.989 . S
N799 C798 1.342 . S
N799 N800 1.388 . S
N800 Co783 1.993 . S
N800 N799 1.388 . S
N800 C801 1.346 . S
C801 N800 1.346 . S
C801 C802 1.396 . S
C801 C811 1.510 . S
C802 C798 1.401 . S
C802 C801 1.396 . S
C803 C798 1.499 . S
C803 H804 0.959 . S
C803 H805 0.960 . S
C803 H806 0.961 . S
H804 C803 0.959 . S
H805 C803 0.960 . S
H806 C803 0.961 . S
O807 Co782 1.967 . S
O807 C815 1.258 . S
O808 Co783 1.941 . S
O808 C815 1.266 . S
H809 C811 0.959 . S
H810 C811 0.961 . S
C811 C801 1.510 . S
C811 H809 0.959 . S
C811 H810 0.961 . S
C811 H812 0.960 . S
H812 C811 0.960 . S
H813 N793 0.862 . S
O814 Co782 1.920 . S
O814 C787 1.289 . S
C815 O807 1.258 . S
C815 O808 1.266 . S
Co816 O819 1.970 . S
Co816 N833 1.989 . S
Co816 O841 1.967 . S
Co816 O848 1.920 . S
Co817 O820 1.966 . S
Co817 N826 2.022 . S
Co817 N834 1.993 . S
Co817 O842 1.941 . S
C818 O819 1.258 . S
C818 O820 1.263 . S
O819 Co816 1.970 . S
O819 C818 1.258 . S
O820 Co817 1.966 . S
O820 C818 1.263 . S
C821 O822 1.235 . S
C821 O848 1.289 . S
O822 C821 1.235 . S
C823 C825 1.400 . S
C823 N826 1.351 . S
C823 C828 1.501 . S
C824 C825 1.387 . S
C824 N827 1.341 . S
C825 C823 1.400 . S
C825 C824 1.387 . S
N826 Co817 2.022 . S
N826 C823 1.351 . S
N826 N827 1.365 . S
N827 C824 1.341 . S
N827 N826 1.365 . S
N827 H847 0.862 . S
C828 C823 1.501 . S
C828 H829 0.961 . S
C828 H830 0.961 . S
C828 H831 0.960 . S
H829 C828 0.961 . S
H830 C828 0.961 . S
H831 C828 0.960 . S
C832 N833 1.342 . S
C832 C836 1.401 . S
C832 C837 1.499 . S
N833 Co816 1.989 . S
N833 C832 1.342 . S
N833 N834 1.388 . S
N834 Co817 1.993 . S
N834 N833 1.388 . S
N834 C835 1.346 . S
C835 N834 1.346 . S
C835 C836 1.396 . S
C835 C845 1.510 . S
C836 C832 1.401 . S
C836 C835 1.396 . S
C837 C832 1.499 . S
C837 H838 0.959 . S
C837 H839 0.960 . S
C837 H840 0.961 . S
H838 C837 0.959 . S
H839 C837 0.960 . S
H840 C837 0.961 . S
O841 Co816 1.967 . S
O841 C849 1.258 . S
O842 Co817 1.941 . S
O842 C849 1.266 . S
H843 C845 0.959 . S
H844 C845 0.961 . S
C845 C835 1.510 . S
C845 H843 0.959 . S
C845 H844 0.961 . S
C845 H846 0.960 . S
H846 C845 0.960 . S
H847 N827 0.862 . S
O848 Co816 1.920 . S
O848 C821 1.289 . S
C849 O841 1.258 . S
C849 O842 1.266 . S
Co850 O853 1.970 . S
Co850 N867 1.989 . S
Co850 O875 1.967 . S
Co850 O882 1.920 . S
Co851 O854 1.966 . S
Co851 N860 2.022 . S
Co851 N868 1.993 . S
Co851 O876 1.941 . S
C852 O853 1.258 . S
C852 O854 1.263 . S
O853 Co850 1.970 . S
O853 C852 1.258 . S
O854 Co851 1.966 . S
O854 C852 1.263 . S
C855 O856 1.235 . S
C855 O882 1.289 . S
O856 C855 1.235 . S
C857 C859 1.400 . S
C857 N860 1.351 . S
C857 C862 1.501 . S
C858 C859 1.387 . S
C858 N861 1.341 . S
C859 C857 1.400 . S
C859 C858 1.387 . S
N860 Co851 2.022 . S
N860 C857 1.351 . S
N860 N861 1.365 . S
N861 C858 1.341 . S
N861 N860 1.365 . S
N861 H881 0.862 . S
C862 C857 1.501 . S
C862 H863 0.961 . S
C862 H864 0.961 . S
C862 H865 0.960 . S
H863 C862 0.961 . S
H864 C862 0.961 . S
H865 C862 0.960 . S
C866 N867 1.342 . S
C866 C870 1.401 . S
C866 C871 1.499 . S
N867 Co850 1.989 . S
N867 C866 1.342 . S
N867 N868 1.388 . S
N868 Co851 1.993 . S
N868 N867 1.388 . S
N868 C869 1.346 . S
C869 N868 1.346 . S
C869 C870 1.396 . S
C869 C879 1.510 . S
C870 C866 1.401 . S
C870 C869 1.396 . S
C871 C866 1.499 . S
C871 H872 0.959 . S
C871 H873 0.960 . S
C871 H874 0.961 . S
H872 C871 0.959 . S
H873 C871 0.960 . S
H874 C871 0.961 . S
O875 Co850 1.967 . S
O875 C883 1.258 . S
O876 Co851 1.941 . S
O876 C883 1.266 . S
H877 C879 0.959 . S
H878 C879 0.961 . S
C879 C869 1.510 . S
C879 H877 0.959 . S
C879 H878 0.961 . S
C879 H880 0.960 . S
H880 C879 0.960 . S
H881 N861 0.862 . S
O882 Co850 1.920 . S
O882 C855 1.289 . S
C883 O875 1.258 . S
C883 O876 1.266 . S
Co884 O887 1.970 . S
Co884 N901 1.989 . S
Co884 O909 1.967 . S
Co884 O916 1.920 . S
Co885 O888 1.966 . S
Co885 N894 2.022 . S
Co885 N902 1.993 . S
Co885 O910 1.941 . S
C886 O887 1.258 . S
C886 O888 1.263 . S
O887 Co884 1.970 . S
O887 C886 1.258 . S
O888 Co885 1.966 . S
O888 C886 1.263 . S
C889 O890 1.235 . S
C889 O916 1.289 . S
O890 C889 1.235 . S
C891 C893 1.400 . S
C891 N894 1.351 . S
C891 C896 1.501 . S
C892 C893 1.387 . S
C892 N895 1.341 . S
C893 C891 1.400 . S
C893 C892 1.387 . S
N894 Co885 2.022 . S
N894 C891 1.351 . S
N894 N895 1.365 . S
N895 C892 1.341 . S
N895 N894 1.365 . S
N895 H915 0.862 . S
C896 C891 1.501 . S
C896 H897 0.961 . S
C896 H898 0.961 . S
C896 H899 0.960 . S
H897 C896 0.961 . S
H898 C896 0.961 . S
H899 C896 0.960 . S
C900 N901 1.342 . S
C900 C904 1.401 . S
C900 C905 1.499 . S
N901 Co884 1.989 . S
N901 C900 1.342 . S
N901 N902 1.388 . S
N902 Co885 1.993 . S
N902 N901 1.388 . S
N902 C903 1.346 . S
C903 N902 1.346 . S
C903 C904 1.396 . S
C903 C913 1.510 . S
C904 C900 1.401 . S
C904 C903 1.396 . S
C905 C900 1.499 . S
C905 H906 0.959 . S
C905 H907 0.960 . S
C905 H908 0.961 . S
H906 C905 0.959 . S
H907 C905 0.960 . S
H908 C905 0.961 . S
O909 Co884 1.967 . S
O909 C917 1.258 . S
O910 Co885 1.941 . S
O910 C917 1.266 . S
H911 C913 0.959 . S
H912 C913 0.961 . S
C913 C903 1.510 . S
C913 H911 0.959 . S
C913 H912 0.961 . S
C913 H914 0.960 . S
H914 C913 0.960 . S
H915 N895 0.862 . S
O916 Co884 1.920 . S
O916 C889 1.289 . S
C917 O909 1.258 . S
C917 O910 1.266 . S
Co918 O921 1.970 . S
Co918 N935 1.989 . S
Co918 O943 1.967 . S
Co918 O950 1.920 . S
Co919 O922 1.966 . S
Co919 N928 2.022 . S
Co919 N936 1.993 . S
Co919 O944 1.941 . S
C920 O921 1.258 . S
C920 O922 1.263 . S
O921 Co918 1.970 . S
O921 C920 1.258 . S
O922 Co919 1.966 . S
O922 C920 1.263 . S
C923 O924 1.235 . S
C923 O950 1.289 . S
O924 C923 1.235 . S
C925 C927 1.400 . S
C925 N928 1.351 . S
C925 C930 1.501 . S
C926 C927 1.387 . S
C926 N929 1.341 . S
C927 C925 1.400 . S
C927 C926 1.387 . S
N928 Co919 2.022 . S
N928 C925 1.351 . S
N928 N929 1.365 . S
N929 C926 1.341 . S
N929 N928 1.365 . S
N929 H949 0.862 . S
C930 C925 1.501 . S
C930 H931 0.961 . S
C930 H932 0.961 . S
C930 H933 0.960 . S
H931 C930 0.961 . S
H932 C930 0.961 . S
H933 C930 0.960 . S
C934 N935 1.342 . S
C934 C938 1.401 . S
C934 C939 1.499 . S
N935 Co918 1.989 . S
N935 C934 1.342 . S
N935 N936 1.388 . S
N936 Co919 1.993 . S
N936 N935 1.388 . S
N936 C937 1.346 . S
C937 N936 1.346 . S
C937 C938 1.396 . S
C937 C947 1.510 . S
C938 C934 1.401 . S
C938 C937 1.396 . S
C939 C934 1.499 . S
C939 H940 0.959 . S
C939 H941 0.960 . S
C939 H942 0.961 . S
H940 C939 0.959 . S
H941 C939 0.960 . S
H942 C939 0.961 . S
O943 Co918 1.967 . S
O943 C951 1.258 . S
O944 Co919 1.941 . S
O944 C951 1.266 . S
H945 C947 0.959 . S
H946 C947 0.961 . S
C947 C937 1.510 . S
C947 H945 0.959 . S
C947 H946 0.961 . S
C947 H948 0.960 . S
H948 C947 0.960 . S
H949 N929 0.862 . S
O950 Co918 1.920 . S
O950 C923 1.289 . S
C951 O943 1.258 . S
C951 O944 1.266 . S
Co952 O955 1.970 . S
Co952 N969 1.989 . S
Co952 O977 1.967 . S
Co952 O984 1.920 . S
Co953 O956 1.966 . S
Co953 N962 2.022 . S
Co953 N970 1.993 . S
Co953 O978 1.941 . S
C954 O955 1.258 . S
C954 O956 1.263 . S
O955 Co952 1.970 . S
O955 C954 1.258 . S
O956 Co953 1.966 . S
O956 C954 1.263 . S
C957 O958 1.235 . S
C957 O984 1.289 . S
O958 C957 1.235 . S
C959 C961 1.400 . S
C959 N962 1.351 . S
C959 C964 1.501 . S
C960 C961 1.387 . S
C960 N963 1.341 . S
C961 C959 1.400 . S
C961 C960 1.387 . S
N962 Co953 2.022 . S
N962 C959 1.351 . S
N962 N963 1.365 . S
N963 C960 1.341 . S
N963 N962 1.365 . S
N963 H983 0.862 . S
C964 C959 1.501 . S
C964 H965 0.961 . S
C964 H966 0.961 . S
C964 H967 0.960 . S
H965 C964 0.961 . S
H966 C964 0.961 . S
H967 C964 0.960 . S
C968 N969 1.342 . S
C968 C972 1.401 . S
C968 C973 1.499 . S
N969 Co952 1.989 . S
N969 C968 1.342 . S
N969 N970 1.388 . S
N970 Co953 1.993 . S
N970 N969 1.388 . S
N970 C971 1.346 . S
C971 N970 1.346 . S
C971 C972 1.396 . S
C971 C981 1.510 . S
C972 C968 1.401 . S
C972 C971 1.396 . S
C973 C968 1.499 . S
C973 H974 0.959 . S
C973 H975 0.960 . S
C973 H976 0.961 . S
H974 C973 0.959 . S
H975 C973 0.960 . S
H976 C973 0.961 . S
O977 Co952 1.967 . S
O977 C985 1.258 . S
O978 Co953 1.941 . S
O978 C985 1.266 . S
H979 C981 0.959 . S
H980 C981 0.961 . S
C981 C971 1.510 . S
C981 H979 0.959 . S
C981 H980 0.961 . S
C981 H982 0.960 . S
H982 C981 0.960 . S
H983 N963 0.862 . S
O984 Co952 1.920 . S
O984 C957 1.289 . S
C985 O977 1.258 . S
C985 O978 1.266 . S
Co986 O989 1.970 . S
Co986 N1003 1.989 . S
Co986 O1011 1.967 . S
Co986 O1018 1.920 . S
Co987 O990 1.966 . S
Co987 N996 2.022 . S
Co987 N1004 1.993 . S
Co987 O1012 1.941 . S
C988 O989 1.258 . S
C988 O990 1.263 . S
O989 Co986 1.970 . S
O989 C988 1.258 . S
O990 Co987 1.966 . S
O990 C988 1.263 . S
C991 O992 1.235 . S
C991 O1018 1.289 . S
O992 C991 1.235 . S
C993 C995 1.400 . S
C993 N996 1.351 . S
C993 C998 1.501 . S
C994 C995 1.387 . S
C994 N997 1.341 . S
C995 C993 1.400 . S
C995 C994 1.387 . S
N996 Co987 2.022 . S
N996 C993 1.351 . S
N996 N997 1.365 . S
N997 C994 1.341 . S
N997 N996 1.365 . S
N997 H1017 0.862 . S
C998 C993 1.501 . S
C998 H999 0.961 . S
C998 H1000 0.961 . S
C998 H1001 0.960 . S
H999 C998 0.961 . S
H1000 C998 0.961 . S
H1001 C998 0.960 . S
C1002 N1003 1.342 . S
C1002 C1006 1.401 . S
C1002 C1007 1.499 . S
N1003 Co986 1.989 . S
N1003 C1002 1.342 . S
N1003 N1004 1.388 . S
N1004 Co987 1.993 . S
N1004 N1003 1.388 . S
N1004 C1005 1.346 . S
C1005 N1004 1.346 . S
C1005 C1006 1.396 . S
C1005 C1015 1.510 . S
C1006 C1002 1.401 . S
C1006 C1005 1.396 . S
C1007 C1002 1.499 . S
C1007 H1008 0.959 . S
C1007 H1009 0.960 . S
C1007 H1010 0.961 . S
H1008 C1007 0.959 . S
H1009 C1007 0.960 . S
H1010 C1007 0.961 . S
O1011 Co986 1.967 . S
O1011 C1019 1.258 . S
O1012 Co987 1.941 . S
O1012 C1019 1.266 . S
H1013 C1015 0.959 . S
H1014 C1015 0.961 . S
C1015 C1005 1.510 . S
C1015 H1013 0.959 . S
C1015 H1014 0.961 . S
C1015 H1016 0.960 . S
H1016 C1015 0.960 . S
H1017 N997 0.862 . S
O1018 Co986 1.920 . S
O1018 C991 1.289 . S
C1019 O1011 1.258 . S
C1019 O1012 1.266 . S
Co1020 O1023 1.970 . S
Co1020 N1037 1.989 . S
Co1020 O1045 1.967 . S
Co1020 O1052 1.920 . S
Co1021 O1024 1.966 . S
Co1021 N1030 2.022 . S
Co1021 N1038 1.993 . S
Co1021 O1046 1.941 . S
C1022 O1023 1.258 . S
C1022 O1024 1.263 . S
O1023 Co1020 1.970 . S
O1023 C1022 1.258 . S
O1024 Co1021 1.966 . S
O1024 C1022 1.263 . S
C1025 O1026 1.235 . S
C1025 O1052 1.289 . S
O1026 C1025 1.235 . S
C1027 C1029 1.400 . S
C1027 N1030 1.351 . S
C1027 C1032 1.501 . S
C1028 C1029 1.387 . S
C1028 N1031 1.341 . S
C1029 C1027 1.400 . S
C1029 C1028 1.387 . S
N1030 Co1021 2.022 . S
N1030 C1027 1.351 . S
N1030 N1031 1.365 . S
N1031 C1028 1.341 . S
N1031 N1030 1.365 . S
N1031 H1051 0.862 . S
C1032 C1027 1.501 . S
C1032 H1033 0.961 . S
C1032 H1034 0.961 . S
C1032 H1035 0.960 . S
H1033 C1032 0.961 . S
H1034 C1032 0.961 . S
H1035 C1032 0.960 . S
C1036 N1037 1.342 . S
C1036 C1040 1.401 . S
C1036 C1041 1.499 . S
N1037 Co1020 1.989 . S
N1037 C1036 1.342 . S
N1037 N1038 1.388 . S
N1038 Co1021 1.993 . S
N1038 N1037 1.388 . S
N1038 C1039 1.346 . S
C1039 N1038 1.346 . S
C1039 C1040 1.396 . S
C1039 C1049 1.510 . S
C1040 C1036 1.401 . S
C1040 C1039 1.396 . S
C1041 C1036 1.499 . S
C1041 H1042 0.959 . S
C1041 H1043 0.960 . S
C1041 H1044 0.961 . S
H1042 C1041 0.959 . S
H1043 C1041 0.960 . S
H1044 C1041 0.961 . S
O1045 Co1020 1.967 . S
O1045 C1053 1.258 . S
O1046 Co1021 1.941 . S
O1046 C1053 1.266 . S
H1047 C1049 0.959 . S
H1048 C1049 0.961 . S
C1049 C1039 1.510 . S
C1049 H1047 0.959 . S
C1049 H1048 0.961 . S
C1049 H1050 0.960 . S
H1050 C1049 0.960 . S
H1051 N1031 0.862 . S
O1052 Co1020 1.920 . S
O1052 C1025 1.289 . S
C1053 O1045 1.258 . S
C1053 O1046 1.266 . S
Co1054 O1057 1.970 . S
Co1054 N1071 1.989 . S
Co1054 O1079 1.967 . S
Co1054 O1086 1.920 . S
Co1055 O1058 1.966 . S
Co1055 N1064 2.022 . S
Co1055 N1072 1.993 . S
Co1055 O1080 1.941 . S
C1056 O1057 1.258 . S
C1056 O1058 1.263 . S
O1057 Co1054 1.970 . S
O1057 C1056 1.258 . S
O1058 Co1055 1.966 . S
O1058 C1056 1.263 . S
C1059 O1060 1.235 . S
C1059 O1086 1.289 . S
O1060 C1059 1.235 . S
C1061 C1063 1.400 . S
C1061 N1064 1.351 . S
C1061 C1066 1.501 . S
C1062 C1063 1.387 . S
C1062 N1065 1.341 . S
C1063 C1061 1.400 . S
C1063 C1062 1.387 . S
N1064 Co1055 2.022 . S
N1064 C1061 1.351 . S
N1064 N1065 1.365 . S
N1065 C1062 1.341 . S
N1065 N1064 1.365 . S
N1065 H1085 0.862 . S
C1066 C1061 1.501 . S
C1066 H1067 0.961 . S
C1066 H1068 0.961 . S
C1066 H1069 0.960 . S
H1067 C1066 0.961 . S
H1068 C1066 0.961 . S
H1069 C1066 0.960 . S
C1070 N1071 1.342 . S
C1070 C1074 1.401 . S
C1070 C1075 1.499 . S
N1071 Co1054 1.989 . S
N1071 C1070 1.342 . S
N1071 N1072 1.388 . S
N1072 Co1055 1.993 . S
N1072 N1071 1.388 . S
N1072 C1073 1.346 . S
C1073 N1072 1.346 . S
C1073 C1074 1.396 . S
C1073 C1083 1.510 . S
C1074 C1070 1.401 . S
C1074 C1073 1.396 . S
C1075 C1070 1.499 . S
C1075 H1076 0.959 . S
C1075 H1077 0.960 . S
C1075 H1078 0.961 . S
H1076 C1075 0.959 . S
H1077 C1075 0.960 . S
H1078 C1075 0.961 . S
O1079 Co1054 1.967 . S
O1079 C1087 1.258 . S
O1080 Co1055 1.941 . S
O1080 C1087 1.266 . S
H1081 C1083 0.959 . S
H1082 C1083 0.961 . S
C1083 C1073 1.510 . S
C1083 H1081 0.959 . S
C1083 H1082 0.961 . S
C1083 H1084 0.960 . S
H1084 C1083 0.960 . S
H1085 N1065 0.862 . S
O1086 Co1054 1.920 . S
O1086 C1059 1.289 . S
C1087 O1079 1.258 . S
C1087 O1080 1.266 . S
H1088 C1094 0.930 . S
H1089 C1098 0.930 . S
H1090 C1103 0.929 . S
H1091 C1101 0.929 . S
H1092 C1096 0.929 . S
H1093 C1102 0.929 . S
C1094 H1088 0.930 . S
C1094 C1095 1.367 1_565 S
C1094 C1102 1.378 . S
C1095 C1094 1.367 1_545 S
C1095 C1103 1.433 . S
C1096 H1092 0.929 . S
C1096 C1098 1.378 . S
C1096 C1100 1.350 . S
C1097 C1100 1.463 . S
C1097 C1102 1.350 1_545 S
C1097 N1105 1.427 . S
C1098 H1089 0.930 . S
C1098 C1096 1.378 . S
C1098 C1099 1.367 1_545 S
C1099 C1098 1.367 1_565 S
C1099 C1101 1.433 . S
C1100 C1096 1.350 . S
C1100 C1097 1.463 . S
C1100 N1104 1.427 1_545 S
C1101 H1091 0.929 . S
C1101 C1099 1.433 . S
C1101 N1104 1.384 . S
C1102 H1093 0.929 . S
C1102 C1094 1.378 . S
C1102 C1097 1.350 1_565 S
C1103 H1090 0.929 . S
C1103 C1095 1.433 . S
C1103 N1105 1.384 . S
N1104 C1100 1.427 1_565 S
N1104 C1101 1.384 . S
N1105 C1097 1.427 . S
N1105 C1103 1.384 . S
H1106 C1112 0.930 . S
H1107 C1116 0.930 . S
H1108 C1121 0.929 . S
H1109 C1119 0.929 . S
H1110 C1114 0.929 . S
H1111 C1120 0.929 . S
C1112 H1106 0.930 . S
C1112 C1113 1.367 . S
C1112 C1120 1.378 . S
C1113 C1112 1.367 . S
C1113 C1121 1.433 1_545 S
C1114 H1110 0.929 . S
C1114 C1116 1.378 . S
C1114 C1118 1.350 . S
C1115 C1118 1.463 . S
C1115 C1120 1.350 1_565 S
C1115 N1123 1.427 . S
C1116 H1107 0.930 . S
C1116 C1114 1.378 . S
C1116 C1117 1.367 . S
C1117 C1116 1.367 . S
C1117 C1119 1.433 1_565 S
C1118 C1114 1.350 . S
C1118 C1115 1.463 . S
C1118 N1122 1.427 1_565 S
C1119 H1109 0.929 . S
C1119 C1117 1.433 1_545 S
C1119 N1122 1.384 . S
C1120 H1111 0.929 . S
C1120 C1112 1.378 . S
C1120 C1115 1.350 1_545 S
C1121 H1108 0.929 . S
C1121 C1113 1.433 1_565 S
C1121 N1123 1.384 . S
N1122 C1118 1.427 1_545 S
N1122 C1119 1.384 . S
N1123 C1115 1.427 . S
N1123 C1121 1.384 . S
H1124 C1130 0.930 . S
H1125 C1134 0.930 . S
H1126 C1139 0.929 . S
H1127 C1137 0.929 . S
H1128 C1132 0.929 . S
H1129 C1138 0.929 . S
C1130 H1124 0.930 . S
C1130 C1131 1.367 1_545 S
C1130 C1138 1.378 . S
C1131 C1130 1.367 1_565 S
C1131 C1139 1.433 . S
C1132 H1128 0.929 . S
C1132 C1134 1.378 . S
C1132 C1136 1.350 . S
C1133 C1136 1.463 . S
C1133 C1138 1.350 1_565 S
C1133 N1141 1.427 . S
C1134 H1125 0.930 . S
C1134 C1132 1.378 . S
C1134 C1135 1.367 1_565 S
C1135 C1134 1.367 1_545 S
C1135 C1137 1.433 . S
C1136 C1132 1.350 . S
C1136 C1133 1.463 . S
C1136 N1140 1.427 1_565 S
C1137 H1127 0.929 . S
C1137 C1135 1.433 . S
C1137 N1140 1.384 . S
C1138 H1129 0.929 . S
C1138 C1130 1.378 . S
C1138 C1133 1.350 1_545 S
C1139 H1126 0.929 . S
C1139 C1131 1.433 . S
C1139 N1141 1.384 . S
N1140 C1136 1.427 1_545 S
N1140 C1137 1.384 . S
N1141 C1133 1.427 . S
N1141 C1139 1.384 . S
H1142 C1148 0.930 . S
H1143 C1152 0.930 . S
H1144 C1157 0.929 . S
H1145 C1155 0.929 . S
H1146 C1150 0.929 . S
H1147 C1156 0.929 . S
C1148 H1142 0.930 . S
C1148 C1149 1.367 . S
C1148 C1156 1.378 . S
C1149 C1148 1.367 . S
C1149 C1157 1.433 . S
C1150 H1146 0.929 . S
C1150 C1152 1.378 . S
C1150 C1154 1.350 . S
C1151 C1154 1.463 . S
C1151 C1156 1.350 . S
C1151 N1159 1.427 . S
C1152 H1143 0.930 . S
C1152 C1150 1.378 . S
C1152 C1153 1.367 1_545 S
C1153 C1152 1.367 1_565 S
C1153 C1155 1.433 . S
C1154 C1150 1.350 . S
C1154 C1151 1.463 . S
C1154 N1158 1.427 1_545 S
C1155 H1145 0.929 . S
C1155 C1153 1.433 . S
C1155 N1158 1.384 . S
C1156 H1147 0.929 . S
C1156 C1148 1.378 . S
C1156 C1151 1.350 . S
C1157 H1144 0.929 . S
C1157 C1149 1.433 . S
C1157 N1159 1.384 . S
N1158 C1154 1.427 1_565 S
N1158 C1155 1.384 . S
N1159 C1151 1.427 . S
N1159 C1157 1.384 . S
H1160 C1166 0.930 . S
H1161 C1170 0.930 . S
H1162 C1175 0.929 . S
H1163 C1173 0.929 . S
H1164 C1168 0.929 . S
H1165 C1174 0.928 . S
C1166 H1160 0.930 . S
C1166 C1167 1.367 . S
C1166 C1174 1.380 . S
C1167 C1166 1.367 . S
C1167 C1175 1.430 1_545 S
C1168 H1164 0.929 . S
C1168 C1170 1.378 . S
C1168 C1172 1.350 . S
C1169 C1172 1.463 . S
C1169 C1174 1.347 1_565 S
C1169 N1177 1.427 . S
C1170 H1161 0.930 . S
C1170 C1168 1.378 . S
C1170 C1171 1.367 . S
C1171 C1170 1.367 . S
C1171 C1173 1.433 . S
C1172 C1168 1.350 . S
C1172 C1169 1.463 . S
C1172 N1176 1.427 . S
C1173 H1163 0.929 . S
C1173 C1171 1.433 . S
C1173 N1176 1.384 . S
C1174 H1165 0.928 . S
C1174 C1166 1.380 . S
C1174 C1169 1.347 1_545 S
C1175 H1162 0.929 . S
C1175 C1167 1.430 1_565 S
C1175 N1177 1.387 . S
N1176 C1172 1.427 . S
N1176 C1173 1.384 . S
N1177 C1169 1.427 . S
N1177 C1175 1.387 . S
H1178 C1184 0.930 . S
H1179 C1188 0.930 . S
H1180 C1193 0.929 . S
H1181 C1191 0.929 . S
H1182 C1186 0.929 . S
H1183 C1192 0.929 . S
C1184 H1178 0.930 . S
C1184 C1185 1.367 1_565 S
C1184 C1192 1.378 . S
C1185 C1184 1.367 1_545 S
C1185 C1193 1.433 . S
C1186 H1182 0.929 . S
C1186 C1188 1.378 . S
C1186 C1190 1.350 . S
C1187 C1190 1.463 . S
C1187 C1192 1.350 1_545 S
C1187 N1195 1.427 . S
C1188 H1179 0.930 . S
C1188 C1186 1.378 . S
C1188 C1189 1.367 1_545 S
C1189 C1188 1.367 1_565 S
C1189 C1191 1.433 . S
C1190 C1186 1.350 . S
C1190 C1187 1.463 . S
C1190 N1194 1.427 1_545 S
C1191 H1181 0.929 . S
C1191 C1189 1.433 . S
C1191 N1194 1.384 . S
C1192 H1183 0.929 . S
C1192 C1184 1.378 . S
C1192 C1187 1.350 1_565 S
C1193 H1180 0.929 . S
C1193 C1185 1.433 . S
C1193 N1195 1.384 . S
N1194 C1190 1.427 1_565 S
N1194 C1191 1.384 . S
N1195 C1187 1.427 . S
N1195 C1193 1.384 . S
H1196 C1202 0.930 . S
H1197 C1206 0.930 . S
H1198 C1211 0.929 . S
H1199 C1209 0.929 . S
H1200 C1204 0.929 . S
H1201 C1210 0.929 . S
C1202 H1196 0.930 . S
C1202 C1203 1.366 . S
C1202 C1210 1.378 1_565 S
C1203 C1202 1.366 . S
C1203 C1211 1.433 . S
C1204 H1200 0.929 . S
C1204 C1206 1.378 . S
C1204 C1208 1.350 . S
C1205 C1208 1.463 . S
C1205 C1210 1.350 . S
C1205 N1213 1.428 . S
C1206 H1197 0.930 . S
C1206 C1204 1.378 . S
C1206 C1207 1.367 . S
C1207 C1206 1.367 . S
C1207 C1209 1.433 . S
C1208 C1204 1.350 . S
C1208 C1205 1.463 . S
C1208 N1212 1.427 . S
C1209 H1199 0.929 . S
C1209 C1207 1.433 . S
C1209 N1212 1.384 . S
C1210 H1201 0.929 . S
C1210 C1202 1.378 1_545 S
C1210 C1205 1.350 . S
C1211 H1198 0.929 . S
C1211 C1203 1.433 . S
C1211 N1213 1.383 1_565 S
N1212 C1208 1.427 . S
N1212 C1209 1.384 . S
N1213 C1205 1.428 . S
N1213 C1211 1.383 1_545 S
H1214 C1220 0.930 . S
H1215 C1224 0.930 . S
H1216 C1229 0.929 1_545 S
H1217 C1227 0.929 . S
H1218 C1222 0.929 . S
H1219 C1228 0.929 . S
C1220 H1214 0.930 . S
C1220 C1221 1.367 . S
C1220 C1228 1.378 . S
C1221 C1220 1.367 . S
C1221 C1229 1.433 . S
C1222 H1218 0.929 . S
C1222 C1224 1.378 . S
C1222 C1226 1.350 1_545 S
C1223 C1226 1.463 . S
C1223 C1228 1.350 . S
C1223 N1231 1.427 1_565 S
C1224 H1215 0.930 . S
C1224 C1222 1.378 . S
C1224 C1225 1.367 . S
C1225 C1224 1.367 . S
C1225 C1227 1.433 1_545 S
C1226 C1222 1.350 1_565 S
C1226 C1223 1.463 . S
C1226 N1230 1.427 . S
C1227 H1217 0.929 . S
C1227 C1225 1.433 1_565 S
C1227 N1230 1.384 . S
C1228 H1219 0.929 . S
C1228 C1220 1.378 . S
C1228 C1223 1.350 . S
C1229 H1216 0.929 1_565 S
C1229 C1221 1.433 . S
C1229 N1231 1.384 1_565 S
N1230 C1226 1.427 . S
N1230 C1227 1.384 . S
N1231 C1223 1.427 1_545 S
N1231 C1229 1.384 1_545 S
H1232 C1238 0.930 . S
H1233 C1242 0.930 . S
H1234 C1247 0.929 . S
H1235 C1245 0.929 . S
H1236 C1240 0.929 . S
H1237 C1246 0.929 . S
C1238 H1232 0.930 . S
C1238 C1239 1.367 . S
C1238 C1246 1.378 . S
C1239 C1238 1.367 . S
C1239 C1247 1.433 . S
C1240 H1236 0.929 . S
C1240 C1242 1.378 . S
C1240 C1244 1.350 . S
C1241 C1244 1.463 . S
C1241 C1246 1.350 . S
C1241 N1249 1.427 . S
C1242 H1233 0.930 . S
C1242 C1240 1.378 . S
C1242 C1243 1.367 . S
C1243 C1242 1.367 . S
C1243 C1245 1.433 . S
C1244 C1240 1.350 . S
C1244 C1241 1.463 . S
C1244 N1248 1.427 . S
C1245 H1235 0.929 . S
C1245 C1243 1.433 . S
C1245 N1248 1.384 . S
C1246 H1237 0.929 . S
C1246 C1238 1.378 . S
C1246 C1241 1.350 . S
C1247 H1234 0.929 . S
C1247 C1239 1.433 . S
C1247 N1249 1.384 . S
N1248 C1244 1.427 . S
N1248 C1245 1.384 . S
N1249 C1241 1.427 . S
N1249 C1247 1.384 . S
H1250 C1256 0.930 . S
H1251 C1260 0.930 . S
H1252 C1265 0.929 . S
H1253 C1263 0.929 . S
H1254 C1258 0.929 . S
H1255 C1264 0.929 . S
C1256 H1250 0.930 . S
C1256 C1257 1.367 . S
C1256 C1264 1.378 . S
C1257 C1256 1.367 . S
C1257 C1265 1.433 . S
C1258 H1254 0.929 . S
C1258 C1260 1.378 . S
C1258 C1262 1.350 . S
C1259 C1262 1.463 . S
C1259 C1264 1.350 . S
C1259 N1267 1.427 . S
C1260 H1251 0.930 . S
C1260 C1258 1.378 . S
C1260 C1261 1.367 . S
C1261 C1260 1.367 . S
C1261 C1263 1.433 . S
C1262 C1258 1.350 . S
C1262 C1259 1.463 . S
C1262 N1266 1.427 . S
C1263 H1253 0.929 . S
C1263 C1261 1.433 . S
C1263 N1266 1.384 . S
C1264 H1255 0.929 . S
C1264 C1256 1.378 . S
C1264 C1259 1.350 . S
C1265 H1252 0.929 . S
C1265 C1257 1.433 . S
C1265 N1267 1.384 . S
N1266 C1262 1.427 . S
N1266 C1263 1.384 . S
N1267 C1259 1.427 . S
N1267 C1265 1.384 . S
H1268 C1274 0.930 . S
H1269 C1278 0.930 . S
H1270 C1283 0.929 . S
H1271 C1281 0.929 . S
H1272 C1276 0.929 . S
H1273 C1282 0.929 . S
C1274 H1268 0.930 . S
C1274 C1275 1.367 . S
C1274 C1282 1.378 . S
C1275 C1274 1.367 . S
C1275 C1283 1.433 . S
C1276 H1272 0.929 . S
C1276 C1278 1.378 . S
C1276 C1280 1.350 . S
C1277 C1280 1.463 . S
C1277 C1282 1.350 . S
C1277 N1285 1.427 . S
C1278 H1269 0.930 . S
C1278 C1276 1.378 . S
C1278 C1279 1.367 . S
C1279 C1278 1.367 . S
C1279 C1281 1.433 . S
C1280 C1276 1.350 . S
C1280 C1277 1.463 . S
C1280 N1284 1.427 . S
C1281 H1271 0.929 . S
C1281 C1279 1.433 . S
C1281 N1284 1.384 . S
C1282 H1273 0.929 . S
C1282 C1274 1.378 . S
C1282 C1277 1.350 . S
C1283 H1270 0.929 . S
C1283 C1275 1.433 . S
C1283 N1285 1.384 . S
N1284 C1280 1.427 . S
N1284 C1281 1.384 . S
N1285 C1277 1.427 . S
N1285 C1283 1.384 . S
H1286 C1292 0.930 . S
H1287 C1296 0.930 . S
H1288 C1301 0.929 . S
H1289 C1299 0.929 . S
H1290 C1294 0.929 . S
H1291 C1300 0.929 . S
C1292 H1286 0.930 . S
C1292 C1293 1.367 . S
C1292 C1300 1.378 . S
C1293 C1292 1.367 . S
C1293 C1301 1.433 . S
C1294 H1290 0.929 . S
C1294 C1296 1.378 . S
C1294 C1298 1.350 . S
C1295 C1298 1.463 . S
C1295 C1300 1.350 . S
C1295 N1303 1.427 . S
C1296 H1287 0.930 . S
C1296 C1294 1.378 . S
C1296 C1297 1.367 . S
C1297 C1296 1.367 . S
C1297 C1299 1.433 . S
C1298 C1294 1.350 . S
C1298 C1295 1.463 . S
C1298 N1302 1.427 . S
C1299 H1289 0.929 . S
C1299 C1297 1.433 . S
C1299 N1302 1.384 . S
C1300 H1291 0.929 . S
C1300 C1292 1.378 . S
C1300 C1295 1.350 . S
C1301 H1288 0.929 . S
C1301 C1293 1.433 . S
C1301 N1303 1.384 . S
N1302 C1298 1.427 . S
N1302 C1299 1.384 . S
N1303 C1295 1.427 . S
N1303 C1301 1.384 . S
H1304 C1310 0.930 . S
H1305 C1314 0.930 . S
H1306 C1319 0.929 . S
H1307 C1317 0.929 . S
H1308 C1312 0.929 . S
H1309 C1318 0.929 . S
C1310 H1304 0.930 . S
C1310 C1311 1.367 . S
C1310 C1318 1.378 . S
C1311 C1310 1.367 . S
C1311 C1319 1.433 . S
C1312 H1308 0.929 . S
C1312 C1314 1.378 . S
C1312 C1316 1.350 . S
C1313 C1316 1.463 . S
C1313 C1318 1.350 . S
C1313 N1321 1.427 . S
C1314 H1305 0.930 . S
C1314 C1312 1.378 . S
C1314 C1315 1.367 . S
C1315 C1314 1.367 . S
C1315 C1317 1.433 . S
C1316 C1312 1.350 . S
C1316 C1313 1.463 . S
C1316 N1320 1.427 . S
C1317 H1307 0.929 . S
C1317 C1315 1.433 . S
C1317 N1320 1.384 . S
C1318 H1309 0.929 . S
C1318 C1310 1.378 . S
C1318 C1313 1.350 . S
C1319 H1306 0.929 . S
C1319 C1311 1.433 . S
C1319 N1321 1.384 . S
N1320 C1316 1.427 . S
N1320 C1317 1.384 . S
N1321 C1313 1.427 . S
N1321 C1319 1.384 . S
H1322 C1328 0.930 . S
H1323 C1332 0.930 . S
H1324 C1337 0.929 . S
H1325 C1335 0.929 . S
H1326 C1330 0.929 . S
H1327 C1336 0.929 . S
C1328 H1322 0.930 . S
C1328 C1329 1.367 . S
C1328 C1336 1.378 . S
C1329 C1328 1.367 . S
C1329 C1337 1.433 . S
C1330 H1326 0.929 . S
C1330 C1332 1.378 . S
C1330 C1334 1.350 . S
C1331 C1334 1.463 . S
C1331 C1336 1.350 . S
C1331 N1339 1.427 . S
C1332 H1323 0.930 . S
C1332 C1330 1.378 . S
C1332 C1333 1.367 . S
C1333 C1332 1.367 . S
C1333 C1335 1.433 . S
C1334 C1330 1.350 . S
C1334 C1331 1.463 . S
C1334 N1338 1.427 . S
C1335 H1325 0.929 . S
C1335 C1333 1.433 . S
C1335 N1338 1.384 . S
C1336 H1327 0.929 . S
C1336 C1328 1.378 . S
C1336 C1331 1.350 . S
C1337 H1324 0.929 . S
C1337 C1329 1.433 . S
C1337 N1339 1.384 . S
N1338 C1334 1.427 . S
N1338 C1335 1.384 . S
N1339 C1331 1.427 . S
N1339 C1337 1.384 . S
H1340 C1346 0.930 . S
H1341 C1350 0.930 . S
H1342 C1355 0.929 . S
H1343 C1353 0.929 . S
H1344 C1348 0.929 . S
H1345 C1354 0.929 . S
C1346 H1340 0.930 . S
C1346 C1347 1.367 . S
C1346 C1354 1.378 . S
C1347 C1346 1.367 . S
C1347 C1355 1.433 . S
C1348 H1344 0.929 . S
C1348 C1350 1.378 . S
C1348 C1352 1.350 . S
C1349 C1352 1.463 . S
C1349 C1354 1.350 . S
C1349 N1357 1.427 . S
C1350 H1341 0.930 . S
C1350 C1348 1.378 . S
C1350 C1351 1.367 . S
C1351 C1350 1.367 . S
C1351 C1353 1.433 . S
C1352 C1348 1.350 . S
C1352 C1349 1.463 . S
C1352 N1356 1.427 . S
C1353 H1343 0.929 . S
C1353 C1351 1.433 . S
C1353 N1356 1.384 . S
C1354 H1345 0.929 . S
C1354 C1346 1.378 . S
C1354 C1349 1.350 . S
C1355 H1342 0.929 . S
C1355 C1347 1.433 . S
C1355 N1357 1.384 . S
N1356 C1352 1.427 . S
N1356 C1353 1.384 . S
N1357 C1349 1.427 . S
N1357 C1355 1.384 . S
H1358 C1364 0.930 . S
H1359 C1368 0.930 . S
H1360 C1373 0.929 . S
H1361 C1371 0.929 . S
H1362 C1366 0.929 . S
H1363 C1372 0.929 . S
C1364 H1358 0.930 . S
C1364 C1365 1.367 . S
C1364 C1372 1.378 . S
C1365 C1364 1.367 . S
C1365 C1373 1.433 . S
C1366 H1362 0.929 . S
C1366 C1368 1.378 . S
C1366 C1370 1.350 . S
C1367 C1370 1.463 . S
C1367 C1372 1.350 . S
C1367 N1375 1.427 . S
C1368 H1359 0.930 . S
C1368 C1366 1.378 . S
C1368 C1369 1.367 . S
C1369 C1368 1.367 . S
C1369 C1371 1.433 . S
C1370 C1366 1.350 . S
C1370 C1367 1.463 . S
C1370 N1374 1.427 . S
C1371 H1361 0.929 . S
C1371 C1369 1.433 . S
C1371 N1374 1.384 . S
C1372 H1363 0.929 . S
C1372 C1364 1.378 . S
C1372 C1367 1.350 . S
C1373 H1360 0.929 . S
C1373 C1365 1.433 . S
C1373 N1375 1.384 . S
N1374 C1370 1.427 . S
N1374 C1371 1.384 . S
N1375 C1367 1.427 . S
N1375 C1373 1.384 . S
H1376 C1382 0.930 . S
H1377 C1386 0.930 . S
H1378 C1391 0.929 . S
H1379 C1389 0.929 . S
H1380 C1384 0.929 . S
H1381 C1390 0.929 . S
C1382 H1376 0.930 . S
C1382 C1383 1.367 . S
C1382 C1390 1.378 . S
C1383 C1382 1.367 . S
C1383 C1391 1.433 . S
C1384 H1380 0.929 . S
C1384 C1386 1.378 . S
C1384 C1388 1.350 . S
C1385 C1388 1.463 . S
C1385 C1390 1.350 . S
C1385 N1393 1.427 . S
C1386 H1377 0.930 . S
C1386 C1384 1.378 . S
C1386 C1387 1.367 . S
C1387 C1386 1.367 . S
C1387 C1389 1.433 . S
C1388 C1384 1.350 . S
C1388 C1385 1.463 . S
C1388 N1392 1.427 . S
C1389 H1379 0.929 . S
C1389 C1387 1.433 . S
C1389 N1392 1.384 . S
C1390 H1381 0.929 . S
C1390 C1382 1.378 . S
C1390 C1385 1.350 . S
C1391 H1378 0.929 . S
C1391 C1383 1.433 . S
C1391 N1393 1.384 . S
N1392 C1388 1.427 . S
N1392 C1389 1.384 . S
N1393 C1385 1.427 . S
N1393 C1391 1.384 . S
H1394 C1400 0.930 . S
H1395 C1404 0.930 . S
H1396 C1409 0.929 . S
H1397 C1407 0.929 . S
H1398 C1402 0.929 . S
H1399 C1408 0.929 . S
C1400 H1394 0.930 . S
C1400 C1401 1.367 . S
C1400 C1408 1.378 . S
C1401 C1400 1.367 . S
C1401 C1409 1.433 . S
C1402 H1398 0.929 . S
C1402 C1404 1.378 . S
C1402 C1406 1.350 1_565 S
C1403 C1406 1.463 . S
C1403 C1408 1.350 . S
C1403 N1411 1.427 . S
C1404 H1395 0.930 . S
C1404 C1402 1.378 . S
C1404 C1405 1.367 . S
C1405 C1404 1.367 . S
C1405 C1407 1.433 1_565 S
C1406 C1402 1.350 1_545 S
C1406 C1403 1.463 . S
C1406 N1410 1.427 . S
C1407 H1397 0.929 . S
C1407 C1405 1.433 1_545 S
C1407 N1410 1.384 . S
C1408 H1399 0.929 . S
C1408 C1400 1.378 . S
C1408 C1403 1.350 . S
C1409 H1396 0.929 . S
C1409 C1401 1.433 . S
C1409 N1411 1.384 . S
N1410 C1406 1.427 . S
N1410 C1407 1.384 . S
N1411 C1403 1.427 . S
N1411 C1409 1.384 . S
H1412 C1418 0.930 . S
H1413 C1422 0.930 . S
H1414 C1427 0.929 . S
H1415 C1425 0.929 . S
H1416 C1420 0.929 . S
H1417 C1426 0.929 . S
C1418 H1412 0.930 . S
C1418 C1419 1.367 . S
C1418 C1426 1.378 . S
C1419 C1418 1.367 . S
C1419 C1427 1.433 . S
C1420 H1416 0.929 . S
C1420 C1422 1.378 . S
C1420 C1424 1.350 . S
C1421 C1424 1.463 . S
C1421 C1426 1.350 . S
C1421 N1429 1.427 . S
C1422 H1413 0.930 . S
C1422 C1420 1.378 . S
C1422 C1423 1.367 . S
C1423 C1422 1.367 . S
C1423 C1425 1.433 . S
C1424 C1420 1.350 . S
C1424 C1421 1.463 . S
C1424 N1428 1.427 . S
C1425 H1415 0.929 . S
C1425 C1423 1.433 . S
C1425 N1428 1.384 . S
C1426 H1417 0.929 . S
C1426 C1418 1.378 . S
C1426 C1421 1.350 . S
C1427 H1414 0.929 . S
C1427 C1419 1.433 . S
C1427 N1429 1.384 . S
N1428 C1424 1.427 . S
N1428 C1425 1.384 . S
N1429 C1421 1.427 . S
N1429 C1427 1.384 . S
H1430 C1436 0.930 . S
H1431 C1440 0.930 . S
H1432 C1445 0.929 1_545 S
H1433 C1443 0.929 . S
H1434 C1438 0.929 1_455 S
H1435 C1444 0.929 . S
C1436 H1430 0.930 . S
C1436 C1437 1.367 . S
C1436 C1444 1.378 . S
C1437 C1436 1.367 . S
C1437 C1445 1.433 . S
C1438 H1434 0.929 1_655 S
C1438 C1440 1.378 . S
C1438 C1442 1.350 1_645 S
C1439 C1442 1.463 . S
C1439 C1444 1.350 . S
C1439 N1447 1.427 1_565 S
C1440 H1431 0.930 . S
C1440 C1438 1.378 . S
C1440 C1441 1.367 . S
C1441 C1440 1.367 . S
C1441 C1443 1.433 1_545 S
C1442 C1438 1.350 1_465 S
C1442 C1439 1.463 . S
C1442 N1446 1.427 1_455 S
C1443 H1433 0.929 . S
C1443 C1441 1.433 1_565 S
C1443 N1446 1.384 . S
C1444 H1435 0.929 . S
C1444 C1436 1.378 . S
C1444 C1439 1.350 . S
C1445 H1432 0.929 1_565 S
C1445 C1437 1.433 . S
C1445 N1447 1.384 1_565 S
N1446 C1442 1.427 1_655 S
N1446 C1443 1.384 . S
N1447 C1439 1.427 1_545 S
N1447 C1445 1.384 1_545 S
H1448 C1454 0.930 . S
H1449 C1458 0.930 . S
H1450 C1463 0.929 . S
H1451 C1461 0.929 . S
H1452 C1456 0.929 . S
H1453 C1462 0.929 . S
C1454 H1448 0.930 . S
C1454 C1455 1.367 . S
C1454 C1462 1.378 . S
C1455 C1454 1.367 . S
C1455 C1463 1.433 . S
C1456 H1452 0.929 . S
C1456 C1458 1.378 . S
C1456 C1460 1.350 . S
C1457 C1460 1.463 . S
C1457 C1462 1.350 . S
C1457 N1465 1.427 . S
C1458 H1449 0.930 . S
C1458 C1456 1.378 . S
C1458 C1459 1.367 . S
C1459 C1458 1.367 . S
C1459 C1461 1.433 . S
C1460 C1456 1.350 . S
C1460 C1457 1.463 . S
C1460 N1464 1.427 . S
C1461 H1451 0.929 . S
C1461 C1459 1.433 . S
C1461 N1464 1.384 . S
C1462 H1453 0.929 . S
C1462 C1454 1.378 . S
C1462 C1457 1.350 . S
C1463 H1450 0.929 . S
C1463 C1455 1.433 . S
C1463 N1465 1.384 . S
N1464 C1460 1.427 . S
N1464 C1461 1.384 . S
N1465 C1457 1.427 . S
N1465 C1463 1.384 . S
H1466 C1472 0.930 . S
H1467 C1476 0.930 1_565 S
H1468 C1481 0.929 . S
H1469 C1479 0.929 . S
H1470 C1474 0.929 . S
H1471 C1480 0.929 . S
C1472 H1466 0.930 . S
C1472 C1473 1.367 1_545 S
C1472 C1480 1.378 . S
C1473 C1472 1.367 1_565 S
C1473 C1481 1.433 . S
C1474 H1470 0.929 . S
C1474 C1476 1.378 1_565 S
C1474 C1478 1.350 1_565 S
C1475 C1478 1.463 . S
C1475 C1480 1.350 1_455 S
C1475 N1483 1.427 1_445 S
C1476 H1467 0.930 1_545 S
C1476 C1474 1.378 1_545 S
C1476 C1477 1.367 . S
C1477 C1476 1.367 . S
C1477 C1479 1.433 . S
C1478 C1474 1.350 1_545 S
C1478 C1475 1.463 . S
C1478 N1482 1.427 . S
C1479 H1469 0.929 . S
C1479 C1477 1.433 . S
C1479 N1482 1.384 . S
C1480 H1471 0.929 . S
C1480 C1472 1.378 . S
C1480 C1475 1.350 1_655 S
C1481 H1468 0.929 . S
C1481 C1473 1.433 . S
C1481 N1483 1.384 . S
N1482 C1478 1.427 . S
N1482 C1479 1.384 . S
N1483 C1475 1.427 1_665 S
N1483 C1481 1.384 . S
H1484 C1490 0.930 . S
H1485 C1494 0.930 . S
H1486 C1499 0.929 . S
H1487 C1497 0.929 . S
H1488 C1492 0.929 . S
H1489 C1498 0.929 . S
C1490 H1484 0.930 . S
C1490 C1491 1.367 . S
C1490 C1498 1.378 . S
C1491 C1490 1.367 . S
C1491 C1499 1.433 . S
C1492 H1488 0.929 . S
C1492 C1494 1.378 . S
C1492 C1496 1.350 . S
C1493 C1496 1.463 . S
C1493 C1498 1.350 . S
C1493 N1501 1.427 . S
C1494 H1485 0.930 . S
C1494 C1492 1.378 . S
C1494 C1495 1.367 . S
C1495 C1494 1.367 . S
C1495 C1497 1.433 . S
C1496 C1492 1.350 . S
C1496 C1493 1.463 . S
C1496 N1500 1.427 . S
C1497 H1487 0.929 . S
C1497 C1495 1.433 . S
C1497 N1500 1.384 . S
C1498 H1489 0.929 . S
C1498 C1490 1.378 . S
C1498 C1493 1.350 . S
C1499 H1486 0.929 . S
C1499 C1491 1.433 . S
C1499 N1501 1.384 . S
N1500 C1496 1.427 . S
N1500 C1497 1.384 . S
N1501 C1493 1.427 . S
N1501 C1499 1.384 . S
H1502 C1508 0.930 1_545 S
H1503 C1512 0.930 . S
H1504 C1517 0.929 . S
H1505 C1515 0.929 . S
H1506 C1510 0.929 . S
H1507 C1516 0.929 . S
C1508 H1502 0.930 1_565 S
C1508 C1509 1.367 . S
C1508 C1516 1.378 1_565 S
C1509 C1508 1.367 . S
C1509 C1517 1.433 . S
C1510 H1506 0.929 . S
C1510 C1512 1.378 . S
C1510 C1514 1.350 . S
C1511 C1514 1.463 . S
C1511 C1516 1.350 1_565 S
C1511 N1519 1.427 . S
C1512 H1503 0.930 . S
C1512 C1510 1.378 . S
C1512 C1513 1.367 1_565 S
C1513 C1512 1.367 1_545 S
C1513 C1515 1.433 . S
C1514 C1510 1.350 . S
C1514 C1511 1.463 . S
C1514 N1518 1.427 1_565 S
C1515 H1505 0.929 . S
C1515 C1513 1.433 . S
C1515 N1518 1.384 . S
C1516 H1507 0.929 . S
C1516 C1508 1.378 1_545 S
C1516 C1511 1.350 1_545 S
C1517 H1504 0.929 . S
C1517 C1509 1.433 . S
C1517 N1519 1.384 . S
N1518 C1514 1.427 1_545 S
N1518 C1515 1.384 . S
N1519 C1511 1.427 . S
N1519 C1517 1.384 . S
H1520 C1526 0.930 . S
H1521 C1530 0.930 . S
H1522 C1535 0.929 . S
H1523 C1533 0.929 . S
H1524 C1528 0.929 . S
H1525 C1534 0.929 . S
C1526 H1520 0.930 . S
C1526 C1527 1.367 . S
C1526 C1534 1.378 . S
C1527 C1526 1.367 . S
C1527 C1535 1.433 . S
C1528 H1524 0.929 . S
C1528 C1530 1.378 . S
C1528 C1532 1.350 . S
C1529 C1532 1.463 . S
C1529 C1534 1.350 . S
C1529 N1537 1.427 . S
C1530 H1521 0.930 . S
C1530 C1528 1.378 . S
C1530 C1531 1.367 . S
C1531 C1530 1.367 . S
C1531 C1533 1.433 . S
C1532 C1528 1.350 . S
C1532 C1529 1.463 . S
C1532 N1536 1.427 . S
C1533 H1523 0.929 . S
C1533 C1531 1.433 . S
C1533 N1536 1.384 . S
C1534 H1525 0.929 . S
C1534 C1526 1.378 . S
C1534 C1529 1.350 . S
C1535 H1522 0.929 . S
C1535 C1527 1.433 . S
C1535 N1537 1.384 . S
N1536 C1532 1.427 . S
N1536 C1533 1.384 . S
N1537 C1529 1.427 . S
N1537 C1535 1.384 . S
H1538 C1544 0.930 . S
H1539 C1548 0.930 . S
H1540 C1553 0.929 1_545 S
H1541 C1551 0.929 . S
H1542 C1546 0.929 . S
H1543 C1552 0.929 . S
C1544 H1538 0.930 . S
C1544 C1545 1.367 . S
C1544 C1552 1.378 . S
C1545 C1544 1.367 . S
C1545 C1553 1.433 . S
C1546 H1542 0.929 . S
C1546 C1548 1.378 . S
C1546 C1550 1.350 1_545 S
C1547 C1550 1.463 . S
C1547 C1552 1.350 . S
C1547 N1555 1.427 1_565 S
C1548 H1539 0.930 . S
C1548 C1546 1.378 . S
C1548 C1549 1.367 . S
C1549 C1548 1.367 . S
C1549 C1551 1.433 1_545 S
C1550 C1546 1.350 1_565 S
C1550 C1547 1.463 . S
C1550 N1554 1.427 . S
C1551 H1541 0.929 . S
C1551 C1549 1.433 1_565 S
C1551 N1554 1.384 . S
C1552 H1543 0.929 . S
C1552 C1544 1.378 . S
C1552 C1547 1.350 . S
C1553 H1540 0.929 1_565 S
C1553 C1545 1.433 . S
C1553 N1555 1.384 1_565 S
N1554 C1550 1.427 . S
N1554 C1551 1.384 . S
N1555 C1547 1.427 1_545 S
N1555 C1553 1.384 1_545 S
H1556 C1562 0.930 . S
H1557 C1566 0.930 . S
H1558 C1571 0.929 . S
H1559 C1569 0.929 . S
H1560 C1564 0.929 . S
H1561 C1570 0.929 . S
C1562 H1556 0.930 . S
C1562 C1563 1.367 . S
C1562 C1570 1.378 . S
C1563 C1562 1.367 . S
C1563 C1571 1.433 . S
C1564 H1560 0.929 . S
C1564 C1566 1.378 . S
C1564 C1568 1.350 . S
C1565 C1568 1.463 . S
C1565 C1570 1.350 . S
C1565 N1573 1.427 . S
C1566 H1557 0.930 . S
C1566 C1564 1.378 . S
C1566 C1567 1.367 . S
C1567 C1566 1.367 . S
C1567 C1569 1.433 . S
C1568 C1564 1.350 . S
C1568 C1565 1.463 . S
C1568 N1572 1.427 . S
C1569 H1559 0.929 . S
C1569 C1567 1.433 . S
C1569 N1572 1.384 . S
C1570 H1561 0.929 . S
C1570 C1562 1.378 . S
C1570 C1565 1.350 . S
C1571 H1558 0.929 . S
C1571 C1563 1.433 . S
C1571 N1573 1.384 . S
N1572 C1568 1.427 . S
N1572 C1569 1.384 . S
N1573 C1565 1.427 . S
N1573 C1571 1.384 . S
H1574 C1580 0.930 . S
H1575 C1584 0.930 . S
H1576 C1589 0.929 . S
H1577 C1587 0.929 . S
H1578 C1582 0.929 . S
H1579 C1588 0.929 . S
C1580 H1574 0.930 . S
C1580 C1581 1.367 1_545 S
C1580 C1588 1.378 . S
C1581 C1580 1.367 1_565 S
C1581 C1589 1.433 . S
C1582 H1578 0.929 . S
C1582 C1584 1.378 . S
C1582 C1586 1.350 . S
C1583 C1586 1.463 . S
C1583 C1588 1.350 1_655 S
C1583 N1591 1.427 1_655 S
C1584 H1575 0.930 . S
C1584 C1582 1.378 . S
C1584 C1585 1.367 . S
C1585 C1584 1.367 . S
C1585 C1587 1.433 . S
C1586 C1582 1.350 . S
C1586 C1583 1.463 . S
C1586 N1590 1.427 . S
C1587 H1577 0.929 . S
C1587 C1585 1.433 . S
C1587 N1590 1.384 . S
C1588 H1579 0.929 . S
C1588 C1580 1.378 . S
C1588 C1583 1.350 1_455 S
C1589 H1576 0.929 . S
C1589 C1581 1.433 . S
C1589 N1591 1.384 1_565 S
N1590 C1586 1.427 . S
N1590 C1587 1.384 . S
N1591 C1583 1.427 1_455 S
N1591 C1589 1.384 1_545 S
H1592 C1598 0.930 . S
H1593 C1602 0.930 . S
H1594 C1607 0.929 . S
H1595 C1605 0.929 . S
H1596 C1600 0.929 . S
H1597 C1606 0.929 . S
C1598 H1592 0.930 . S
C1598 C1599 1.367 . S
C1598 C1606 1.378 . S
C1599 C1598 1.367 . S
C1599 C1607 1.433 . S
C1600 H1596 0.929 . S
C1600 C1602 1.378 . S
C1600 C1604 1.350 . S
C1601 C1604 1.463 . S
C1601 C1606 1.350 . S
C1601 N1609 1.427 . S
C1602 H1593 0.930 . S
C1602 C1600 1.378 . S
C1602 C1603 1.367 . S
C1603 C1602 1.367 . S
C1603 C1605 1.433 . S
C1604 C1600 1.350 . S
C1604 C1601 1.463 . S
C1604 N1608 1.427 . S
C1605 H1595 0.929 . S
C1605 C1603 1.433 . S
C1605 N1608 1.384 . S
C1606 H1597 0.929 . S
C1606 C1598 1.378 . S
C1606 C1601 1.350 . S
C1607 H1594 0.929 . S
C1607 C1599 1.433 . S
C1607 N1609 1.384 . S
N1608 C1604 1.427 . S
N1608 C1605 1.384 . S
N1609 C1601 1.427 . S
N1609 C1607 1.384 . S
H1610 C1616 0.930 . S
H1611 C1620 0.930 . S
H1612 C1625 0.929 1_545 S
H1613 C1623 0.929 . S
H1614 C1618 0.929 1_655 S
H1615 C1624 0.929 . S
C1616 H1610 0.930 . S
C1616 C1617 1.367 . S
C1616 C1624 1.378 . S
C1617 C1616 1.367 . S
C1617 C1625 1.433 . S
C1618 H1614 0.929 1_455 S
C1618 C1620 1.378 . S
C1618 C1622 1.350 1_445 S
C1619 C1622 1.463 . S
C1619 C1624 1.350 . S
C1619 N1627 1.427 . S
C1620 H1611 0.930 . S
C1620 C1618 1.378 . S
C1620 C1621 1.367 . S
C1621 C1620 1.367 . S
C1621 C1623 1.433 1_545 S
C1622 C1618 1.350 1_665 S
C1622 C1619 1.463 . S
C1622 N1626 1.427 1_655 S
C1623 H1613 0.929 . S
C1623 C1621 1.433 1_565 S
C1623 N1626 1.384 . S
C1624 H1615 0.929 . S
C1624 C1616 1.378 . S
C1624 C1619 1.350 . S
C1625 H1612 0.929 1_565 S
C1625 C1617 1.433 . S
C1625 N1627 1.384 . S
N1626 C1622 1.427 1_455 S
N1626 C1623 1.384 . S
N1627 C1619 1.427 . S
N1627 C1625 1.384 . S
H1628 C1634 0.930 . S
H1629 C1638 0.930 . S
H1630 C1643 0.929 . S
H1631 C1641 0.929 . S
H1632 C1636 0.929 . S
H1633 C1642 0.929 . S
C1634 H1628 0.930 . S
C1634 C1635 1.367 . S
C1634 C1642 1.378 . S
C1635 C1634 1.367 . S
C1635 C1643 1.433 . S
C1636 H1632 0.929 . S
C1636 C1638 1.378 . S
C1636 C1640 1.350 . S
C1637 C1640 1.463 . S
C1637 C1642 1.350 . S
C1637 N1645 1.427 . S
C1638 H1629 0.930 . S
C1638 C1636 1.378 . S
C1638 C1639 1.367 . S
C1639 C1638 1.367 . S
C1639 C1641 1.433 . S
C1640 C1636 1.350 . S
C1640 C1637 1.463 . S
C1640 N1644 1.427 . S
C1641 H1631 0.929 . S
C1641 C1639 1.433 . S
C1641 N1644 1.384 . S
C1642 H1633 0.929 . S
C1642 C1634 1.378 . S
C1642 C1637 1.350 . S
C1643 H1630 0.929 . S
C1643 C1635 1.433 . S
C1643 N1645 1.384 . S
N1644 C1640 1.427 . S
N1644 C1641 1.384 . S
N1645 C1637 1.427 . S
N1645 C1643 1.384 . S
H1646 C1652 0.930 . S
H1647 C1656 0.930 . S
H1648 C1661 0.929 . S
H1649 C1659 0.929 . S
H1650 C1654 0.929 . S
H1651 C1660 0.929 . S
C1652 H1646 0.930 . S
C1652 C1653 1.367 1_545 S
C1652 C1660 1.378 . S
C1653 C1652 1.367 1_565 S
C1653 C1661 1.433 . S
C1654 H1650 0.929 . S
C1654 C1656 1.378 . S
C1654 C1658 1.350 . S
C1655 C1658 1.463 . S
C1655 C1660 1.350 . S
C1655 N1663 1.427 1_545 S
C1656 H1647 0.930 . S
C1656 C1654 1.378 . S
C1656 C1657 1.367 . S
C1657 C1656 1.367 . S
C1657 C1659 1.433 . S
C1658 C1654 1.350 . S
C1658 C1655 1.463 . S
C1658 N1662 1.427 . S
C1659 H1649 0.929 . S
C1659 C1657 1.433 . S
C1659 N1662 1.384 . S
C1660 H1651 0.929 . S
C1660 C1652 1.378 . S
C1660 C1655 1.350 . S
C1661 H1648 0.929 . S
C1661 C1653 1.433 . S
C1661 N1663 1.384 . S
N1662 C1658 1.427 . S
N1662 C1659 1.384 . S
N1663 C1655 1.427 1_565 S
N1663 C1661 1.384 . S
H1664 C1670 0.930 . S
H1665 C1674 0.930 . S
H1666 C1679 0.929 . S
H1667 C1677 0.929 . S
H1668 C1672 0.929 . S
H1669 C1678 0.929 . S
C1670 H1664 0.930 . S
C1670 C1671 1.367 . S
C1670 C1678 1.378 . S
C1671 C1670 1.367 . S
C1671 C1679 1.433 . S
C1672 H1668 0.929 . S
C1672 C1674 1.378 . S
C1672 C1676 1.350 . S
C1673 C1676 1.463 . S
C1673 C1678 1.350 . S
C1673 N1681 1.427 . S
C1674 H1665 0.930 . S
C1674 C1672 1.378 . S
C1674 C1675 1.367 . S
C1675 C1674 1.367 . S
C1675 C1677 1.433 . S
C1676 C1672 1.350 . S
C1676 C1673 1.463 . S
C1676 N1680 1.427 . S
C1677 H1667 0.929 . S
C1677 C1675 1.433 . S
C1677 N1680 1.384 . S
C1678 H1669 0.929 . S
C1678 C1670 1.378 . S
C1678 C1673 1.350 . S
C1679 H1666 0.929 . S
C1679 C1671 1.433 . S
C1679 N1681 1.384 . S
N1680 C1676 1.427 . S
N1680 C1677 1.384 . S
N1681 C1673 1.427 . S
N1681 C1679 1.384 . S
H1682 C1688 0.930 . S
H1683 C1692 0.930 . S
H1684 C1697 0.929 . S
H1685 C1695 0.929 . S
H1686 C1690 0.929 . S
H1687 C1696 0.929 1_655 S
C1688 H1682 0.930 . S
C1688 C1689 1.367 . S
C1688 C1696 1.378 . S
C1689 C1688 1.367 . S
C1689 C1697 1.433 . S
C1690 H1686 0.929 . S
C1690 C1692 1.378 . S
C1690 C1694 1.350 . S
C1691 C1694 1.463 . S
C1691 C1696 1.350 1_655 S
C1691 N1699 1.427 1_655 S
C1692 H1683 0.930 . S
C1692 C1690 1.378 . S
C1692 C1693 1.367 . S
C1693 C1692 1.367 . S
C1693 C1695 1.433 . S
C1694 C1690 1.350 . S
C1694 C1691 1.463 . S
C1694 N1698 1.427 . S
C1695 H1685 0.929 . S
C1695 C1693 1.433 . S
C1695 N1698 1.384 . S
C1696 H1687 0.929 1_455 S
C1696 C1688 1.378 . S
C1696 C1691 1.350 1_455 S
C1697 H1684 0.929 . S
C1697 C1689 1.433 . S
C1697 N1699 1.384 . S
N1698 C1694 1.427 . S
N1698 C1695 1.384 . S
N1699 C1691 1.427 1_455 S
N1699 C1697 1.384 . S
H1700 C1706 0.930 . S
H1701 C1710 0.930 . S
H1702 C1715 0.929 . S
H1703 C1713 0.929 . S
H1704 C1708 0.929 . S
H1705 C1714 0.929 . S
C1706 H1700 0.930 . S
C1706 C1707 1.367 . S
C1706 C1714 1.378 . S
C1707 C1706 1.367 . S
C1707 C1715 1.433 . S
C1708 H1704 0.929 . S
C1708 C1710 1.378 . S
C1708 C1712 1.350 . S
C1709 C1712 1.463 . S
C1709 C1714 1.350 . S
C1709 N1717 1.427 . S
C1710 H1701 0.930 . S
C1710 C1708 1.378 . S
C1710 C1711 1.367 . S
C1711 C1710 1.367 . S
C1711 C1713 1.433 . S
C1712 C1708 1.350 . S
C1712 C1709 1.463 . S
C1712 N1716 1.427 . S
C1713 H1703 0.929 . S
C1713 C1711 1.433 . S
C1713 N1716 1.384 . S
C1714 H1705 0.929 . S
C1714 C1706 1.378 . S
C1714 C1709 1.350 . S
C1715 H1702 0.929 . S
C1715 C1707 1.433 . S
C1715 N1717 1.384 . S
N1716 C1712 1.427 . S
N1716 C1713 1.384 . S
N1717 C1709 1.427 . S
N1717 C1715 1.384 . S
H1718 C1724 0.930 . S
H1719 C1728 0.930 . S
H1720 C1733 0.929 . S
H1721 C1731 0.929 . S
H1722 C1726 0.929 . S
H1723 C1732 0.929 . S
C1724 H1718 0.930 . S
C1724 C1725 1.367 . S
C1724 C1732 1.378 . S
C1725 C1724 1.367 . S
C1725 C1733 1.433 . S
C1726 H1722 0.929 . S
C1726 C1728 1.378 . S
C1726 C1730 1.350 . S
C1727 C1730 1.463 . S
C1727 C1732 1.350 . S
C1727 N1735 1.427 . S
C1728 H1719 0.930 . S
C1728 C1726 1.378 . S
C1728 C1729 1.367 . S
C1729 C1728 1.367 . S
C1729 C1731 1.433 . S
C1730 C1726 1.350 . S
C1730 C1727 1.463 . S
C1730 N1734 1.427 . S
C1731 H1721 0.929 . S
C1731 C1729 1.433 . S
C1731 N1734 1.384 . S
C1732 H1723 0.929 . S
C1732 C1724 1.378 . S
C1732 C1727 1.350 . S
C1733 H1720 0.929 . S
C1733 C1725 1.433 . S
C1733 N1735 1.384 . S
N1734 C1730 1.427 . S
N1734 C1731 1.384 . S
N1735 C1727 1.427 . S
N1735 C1733 1.384 . S
H1736 C1742 0.930 . S
H1737 C1746 0.930 . S
H1738 C1751 0.929 . S
H1739 C1749 0.929 . S
H1740 C1744 0.929 . S
H1741 C1750 0.929 . S
C1742 H1736 0.930 . S
C1742 C1743 1.367 . S
C1742 C1750 1.378 . S
C1743 C1742 1.367 . S
C1743 C1751 1.433 . S
C1744 H1740 0.929 . S
C1744 C1746 1.378 . S
C1744 C1748 1.350 . S
C1745 C1748 1.463 . S
C1745 C1750 1.350 . S
C1745 N1753 1.427 . S
C1746 H1737 0.930 . S
C1746 C1744 1.378 . S
C1746 C1747 1.367 . S
C1747 C1746 1.367 . S
C1747 C1749 1.433 . S
C1748 C1744 1.350 . S
C1748 C1745 1.463 . S
C1748 N1752 1.427 . S
C1749 H1739 0.929 . S
C1749 C1747 1.433 . S
C1749 N1752 1.384 . S
C1750 H1741 0.929 . S
C1750 C1742 1.378 . S
C1750 C1745 1.350 . S
C1751 H1738 0.929 . S
C1751 C1743 1.433 . S
C1751 N1753 1.384 . S
N1752 C1748 1.427 . S
N1752 C1749 1.384 . S
N1753 C1745 1.427 . S
N1753 C1751 1.384 . S
H1754 C1760 0.930 . S
H1755 C1764 0.930 . S
H1756 C1769 0.929 . S
H1757 C1767 0.929 . S
H1758 C1762 0.929 . S
H1759 C1768 0.929 . S
C1760 H1754 0.930 . S
C1760 C1761 1.367 . S
C1760 C1768 1.378 . S
C1761 C1760 1.367 . S
C1761 C1769 1.433 . S
C1762 H1758 0.929 . S
C1762 C1764 1.378 . S
C1762 C1766 1.350 . S
C1763 C1766 1.463 . S
C1763 C1768 1.350 . S
C1763 N1771 1.427 . S
C1764 H1755 0.930 . S
C1764 C1762 1.378 . S
C1764 C1765 1.367 . S
C1765 C1764 1.367 . S
C1765 C1767 1.433 . S
C1766 C1762 1.350 . S
C1766 C1763 1.463 . S
C1766 N1770 1.427 . S
C1767 H1757 0.929 . S
C1767 C1765 1.433 . S
C1767 N1770 1.384 . S
C1768 H1759 0.929 . S
C1768 C1760 1.378 . S
C1768 C1763 1.350 . S
C1769 H1756 0.929 . S
C1769 C1761 1.433 . S
C1769 N1771 1.384 . S
N1770 C1766 1.427 . S
N1770 C1767 1.384 . S
N1771 C1763 1.427 . S
N1771 C1769 1.384 . S
H1772 C1778 0.930 . S
H1773 C1782 0.930 . S
H1774 C1787 0.929 . S
H1775 C1785 0.929 . S
H1776 C1780 0.929 . S
H1777 C1786 0.929 . S
C1778 H1772 0.930 . S
C1778 C1779 1.367 . S
C1778 C1786 1.378 . S
C1779 C1778 1.367 . S
C1779 C1787 1.433 . S
C1780 H1776 0.929 . S
C1780 C1782 1.378 . S
C1780 C1784 1.350 . S
C1781 C1784 1.463 . S
C1781 C1786 1.350 . S
C1781 N1789 1.427 . S
C1782 H1773 0.930 . S
C1782 C1780 1.378 . S
C1782 C1783 1.367 . S
C1783 C1782 1.367 . S
C1783 C1785 1.433 . S
C1784 C1780 1.350 . S
C1784 C1781 1.463 . S
C1784 N1788 1.427 . S
C1785 H1775 0.929 . S
C1785 C1783 1.433 . S
C1785 N1788 1.384 . S
C1786 H1777 0.929 . S
C1786 C1778 1.378 . S
C1786 C1781 1.350 . S
C1787 H1774 0.929 . S
C1787 C1779 1.433 . S
C1787 N1789 1.384 . S
N1788 C1784 1.427 . S
N1788 C1785 1.384 . S
N1789 C1781 1.427 . S
N1789 C1787 1.384 . S
H1790 C1796 0.930 . S
H1791 C1800 0.930 . S
H1792 C1805 0.929 . S
H1793 C1803 0.929 . S
H1794 C1798 0.929 . S
H1795 C1804 0.929 . S
C1796 H1790 0.930 . S
C1796 C1797 1.367 . S
C1796 C1804 1.378 . S
C1797 C1796 1.367 . S
C1797 C1805 1.433 . S
C1798 H1794 0.929 . S
C1798 C1800 1.378 . S
C1798 C1802 1.350 1_455 S
C1799 C1802 1.463 . S
C1799 C1804 1.350 . S
C1799 N1807 1.427 . S
C1800 H1791 0.930 . S
C1800 C1798 1.378 . S
C1800 C1801 1.367 . S
C1801 C1800 1.367 . S
C1801 C1803 1.433 . S
C1802 C1798 1.350 1_655 S
C1802 C1799 1.463 . S
C1802 N1806 1.427 1_655 S
C1803 H1793 0.929 . S
C1803 C1801 1.433 . S
C1803 N1806 1.384 . S
C1804 H1795 0.929 . S
C1804 C1796 1.378 . S
C1804 C1799 1.350 . S
C1805 H1792 0.929 . S
C1805 C1797 1.433 . S
C1805 N1807 1.384 . S
N1806 C1802 1.427 1_455 S
N1806 C1803 1.384 . S
N1807 C1799 1.427 . S
N1807 C1805 1.384 . S
H1808 C1814 0.930 . S
H1809 C1818 0.930 . S
H1810 C1823 0.929 . S
H1811 C1821 0.929 . S
H1812 C1816 0.929 . S
H1813 C1822 0.929 . S
C1814 H1808 0.930 . S
C1814 C1815 1.367 . S
C1814 C1822 1.378 . S
C1815 C1814 1.367 . S
C1815 C1823 1.433 . S
C1816 H1812 0.929 . S
C1816 C1818 1.378 . S
C1816 C1820 1.350 . S
C1817 C1820 1.463 . S
C1817 C1822 1.350 . S
C1817 N1825 1.427 . S
C1818 H1809 0.930 . S
C1818 C1816 1.378 . S
C1818 C1819 1.367 . S
C1819 C1818 1.367 . S
C1819 C1821 1.433 . S
C1820 C1816 1.350 . S
C1820 C1817 1.463 . S
C1820 N1824 1.427 . S
C1821 H1811 0.929 . S
C1821 C1819 1.433 . S
C1821 N1824 1.384 . S
C1822 H1813 0.929 . S
C1822 C1814 1.378 . S
C1822 C1817 1.350 . S
C1823 H1810 0.929 . S
C1823 C1815 1.433 . S
C1823 N1825 1.384 . S
N1824 C1820 1.427 . S
N1824 C1821 1.384 . S
N1825 C1817 1.427 . S
N1825 C1823 1.384 . S
H1826 C1832 0.930 . S
H1827 C1836 0.930 . S
H1828 C1841 0.929 . S
H1829 C1839 0.929 . S
H1830 C1834 0.929 . S
H1831 C1840 0.929 1_455 S
C1832 H1826 0.930 . S
C1832 C1833 1.367 . S
C1832 C1840 1.378 . S
C1833 C1832 1.367 . S
C1833 C1841 1.433 . S
C1834 H1830 0.929 . S
C1834 C1836 1.378 . S
C1834 C1838 1.350 . S
C1835 C1838 1.463 . S
C1835 C1840 1.350 1_455 S
C1835 N1843 1.427 1_455 S
C1836 H1827 0.930 . S
C1836 C1834 1.378 . S
C1836 C1837 1.367 . S
C1837 C1836 1.367 . S
C1837 C1839 1.433 . S
C1838 C1834 1.350 . S
C1838 C1835 1.463 . S
C1838 N1842 1.427 . S
C1839 H1829 0.929 . S
C1839 C1837 1.433 . S
C1839 N1842 1.384 . S
C1840 H1831 0.929 1_655 S
C1840 C1832 1.378 . S
C1840 C1835 1.350 1_655 S
C1841 H1828 0.929 . S
C1841 C1833 1.433 . S
C1841 N1843 1.384 . S
N1842 C1838 1.427 . S
N1842 C1839 1.384 . S
N1843 C1835 1.427 1_655 S
N1843 C1841 1.384 . S
H1844 C1850 0.930 . S
H1845 C1854 0.930 . S
H1846 C1859 0.929 . S
H1847 C1857 0.929 . S
H1848 C1852 0.929 . S
H1849 C1858 0.929 . S
C1850 H1844 0.930 . S
C1850 C1851 1.367 . S
C1850 C1858 1.378 . S
C1851 C1850 1.367 . S
C1851 C1859 1.433 . S
C1852 H1848 0.929 . S
C1852 C1854 1.378 . S
C1852 C1856 1.350 . S
C1853 C1856 1.463 . S
C1853 C1858 1.350 . S
C1853 N1861 1.427 . S
C1854 H1845 0.930 . S
C1854 C1852 1.378 . S
C1854 C1855 1.367 . S
C1855 C1854 1.367 . S
C1855 C1857 1.433 . S
C1856 C1852 1.350 . S
C1856 C1853 1.463 . S
C1856 N1860 1.427 . S
C1857 H1847 0.929 . S
C1857 C1855 1.433 . S
C1857 N1860 1.384 . S
C1858 H1849 0.929 . S
C1858 C1850 1.378 . S
C1858 C1853 1.350 . S
C1859 H1846 0.929 . S
C1859 C1851 1.433 . S
C1859 N1861 1.384 . S
N1860 C1856 1.427 . S
N1860 C1857 1.384 . S
N1861 C1853 1.427 . S
N1861 C1859 1.384 . S
H1862 C1868 0.930 . S
H1863 C1872 0.930 . S
H1864 C1877 0.929 . S
H1865 C1875 0.929 . S
H1866 C1870 0.929 . S
H1867 C1876 0.929 . S
C1868 H1862 0.930 . S
C1868 C1869 1.367 . S
C1868 C1876 1.378 . S
C1869 C1868 1.367 . S
C1869 C1877 1.433 . S
C1870 H1866 0.929 . S
C1870 C1872 1.378 . S
C1870 C1874 1.350 . S
C1871 C1874 1.463 . S
C1871 C1876 1.350 . S
C1871 N1879 1.427 . S
C1872 H1863 0.930 . S
C1872 C1870 1.378 . S
C1872 C1873 1.367 . S
C1873 C1872 1.367 . S
C1873 C1875 1.433 . S
C1874 C1870 1.350 . S
C1874 C1871 1.463 . S
C1874 N1878 1.427 . S
C1875 H1865 0.929 . S
C1875 C1873 1.433 . S
C1875 N1878 1.384 . S
C1876 H1867 0.929 . S
C1876 C1868 1.378 . S
C1876 C1871 1.350 . S
C1877 H1864 0.929 . S
C1877 C1869 1.433 . S
C1877 N1879 1.384 . S
N1878 C1874 1.427 . S
N1878 C1875 1.384 . S
N1879 C1871 1.427 . S
N1879 C1877 1.384 . S
H1880 C1886 0.930 . S
H1881 C1890 0.930 . S
H1882 C1895 0.929 . S
H1883 C1893 0.929 . S
H1884 C1888 0.929 . S
H1885 C1894 0.929 . S
C1886 H1880 0.930 . S
C1886 C1887 1.367 . S
C1886 C1894 1.378 . S
C1887 C1886 1.367 . S
C1887 C1895 1.433 . S
C1888 H1884 0.929 . S
C1888 C1890 1.378 . S
C1888 C1892 1.350 . S
C1889 C1892 1.463 . S
C1889 C1894 1.350 . S
C1889 N1897 1.427 . S
C1890 H1881 0.930 . S
C1890 C1888 1.378 . S
C1890 C1891 1.367 . S
C1891 C1890 1.367 . S
C1891 C1893 1.433 . S
C1892 C1888 1.350 . S
C1892 C1889 1.463 . S
C1892 N1896 1.427 . S
C1893 H1883 0.929 . S
C1893 C1891 1.433 . S
C1893 N1896 1.384 . S
C1894 H1885 0.929 . S
C1894 C1886 1.378 . S
C1894 C1889 1.350 . S
C1895 H1882 0.929 . S
C1895 C1887 1.433 . S
C1895 N1897 1.384 . S
N1896 C1892 1.427 . S
N1896 C1893 1.384 . S
N1897 C1889 1.427 . S
N1897 C1895 1.384 . S
H1898 C1904 0.930 . S
H1899 C1908 0.930 . S
H1900 C1913 0.929 . S
H1901 C1911 0.929 . S
H1902 C1906 0.929 . S
H1903 C1912 0.929 . S
C1904 H1898 0.930 . S
C1904 C1905 1.367 . S
C1904 C1912 1.378 . S
C1905 C1904 1.367 . S
C1905 C1913 1.433 . S
C1906 H1902 0.929 . S
C1906 C1908 1.378 . S
C1906 C1910 1.350 . S
C1907 C1910 1.463 . S
C1907 C1912 1.350 . S
C1907 N1915 1.427 . S
C1908 H1899 0.930 . S
C1908 C1906 1.378 . S
C1908 C1909 1.367 . S
C1909 C1908 1.367 . S
C1909 C1911 1.433 . S
C1910 C1906 1.350 . S
C1910 C1907 1.463 . S
C1910 N1914 1.427 . S
C1911 H1901 0.929 . S
C1911 C1909 1.433 . S
C1911 N1914 1.384 . S
C1912 H1903 0.929 . S
C1912 C1904 1.378 . S
C1912 C1907 1.350 . S
C1913 H1900 0.929 . S
C1913 C1905 1.433 . S
C1913 N1915 1.384 . S
N1914 C1910 1.427 . S
N1914 C1911 1.384 . S
N1915 C1907 1.427 . S
N1915 C1913 1.384 . S
H1916 C1922 0.930 . S
H1917 C1926 0.930 . S
H1918 C1931 0.929 . S
H1919 C1929 0.929 . S
H1920 C1924 0.929 . S
H1921 C1930 0.929 . S
C1922 H1916 0.930 . S
C1922 C1923 1.367 . S
C1922 C1930 1.378 . S
C1923 C1922 1.367 . S
C1923 C1931 1.433 . S
C1924 H1920 0.929 . S
C1924 C1926 1.378 . S
C1924 C1928 1.350 . S
C1925 C1928 1.463 . S
C1925 C1930 1.350 . S
C1925 N1933 1.427 . S
C1926 H1917 0.930 . S
C1926 C1924 1.378 . S
C1926 C1927 1.367 . S
C1927 C1926 1.367 . S
C1927 C1929 1.433 . S
C1928 C1924 1.350 . S
C1928 C1925 1.463 . S
C1928 N1932 1.427 . S
C1929 H1919 0.929 . S
C1929 C1927 1.433 . S
C1929 N1932 1.384 . S
C1930 H1921 0.929 . S
C1930 C1922 1.378 . S
C1930 C1925 1.350 . S
C1931 H1918 0.929 . S
C1931 C1923 1.433 . S
C1931 N1933 1.384 . S
N1932 C1928 1.427 . S
N1932 C1929 1.384 . S
N1933 C1925 1.427 . S
N1933 C1931 1.384 . S
H1934 C1940 0.930 . S
H1935 C1944 0.930 . S
H1936 C1949 0.929 . S
H1937 C1947 0.929 . S
H1938 C1942 0.929 . S
H1939 C1948 0.929 1_455 S
C1940 H1934 0.930 . S
C1940 C1941 1.367 . S
C1940 C1948 1.378 . S
C1941 C1940 1.367 . S
C1941 C1949 1.433 . S
C1942 H1938 0.929 . S
C1942 C1944 1.378 . S
C1942 C1946 1.350 . S
C1943 C1946 1.463 . S
C1943 C1948 1.350 1_455 S
C1943 N1951 1.427 1_455 S
C1944 H1935 0.930 . S
C1944 C1942 1.378 . S
C1944 C1945 1.367 . S
C1945 C1944 1.367 . S
C1945 C1947 1.433 . S
C1946 C1942 1.350 . S
C1946 C1943 1.463 . S
C1946 N1950 1.427 . S
C1947 H1937 0.929 . S
C1947 C1945 1.433 . S
C1947 N1950 1.384 . S
C1948 H1939 0.929 1_655 S
C1948 C1940 1.378 . S
C1948 C1943 1.350 1_655 S
C1949 H1936 0.929 . S
C1949 C1941 1.433 . S
C1949 N1951 1.384 . S
N1950 C1946 1.427 . S
N1950 C1947 1.384 . S
N1951 C1943 1.427 1_655 S
N1951 C1949 1.384 . S
H1952 C1958 0.930 1_545 S
H1953 C1962 0.930 1_565 S
H1954 C1967 0.929 . S
H1955 C1965 0.929 . S
H1956 C1960 0.929 . S
H1957 C1966 0.929 . S
C1958 H1952 0.930 1_565 S
C1958 C1959 1.367 . S
C1958 C1966 1.378 1_565 S
C1959 C1958 1.367 . S
C1959 C1967 1.433 . S
C1960 H1956 0.929 . S
C1960 C1962 1.378 1_565 S
C1960 C1964 1.350 1_565 S
C1961 C1964 1.463 1_565 S
C1961 C1966 1.350 1_565 S
C1961 N1969 1.427 . S
C1962 H1953 0.930 1_545 S
C1962 C1960 1.378 1_545 S
C1962 C1963 1.367 . S
C1963 C1962 1.367 . S
C1963 C1965 1.433 . S
C1964 C1960 1.350 1_545 S
C1964 C1961 1.463 1_545 S
C1964 N1968 1.427 . S
C1965 H1955 0.929 . S
C1965 C1963 1.433 . S
C1965 N1968 1.384 . S
C1966 H1957 0.929 . S
C1966 C1958 1.378 1_545 S
C1966 C1961 1.350 1_545 S
C1967 H1954 0.929 . S
C1967 C1959 1.433 . S
C1967 N1969 1.384 . S
N1968 C1964 1.427 . S
N1968 C1965 1.384 . S
N1969 C1961 1.427 . S
N1969 C1967 1.384 . S
H1970 C1976 0.930 . S
H1971 C1980 0.930 . S
H1972 C1985 0.929 . S
H1973 C1983 0.929 . S
H1974 C1978 0.929 . S
H1975 C1984 0.929 . S
C1976 H1970 0.930 . S
C1976 C1977 1.367 . S
C1976 C1984 1.378 . S
C1977 C1976 1.367 . S
C1977 C1985 1.433 . S
C1978 H1974 0.929 . S
C1978 C1980 1.378 . S
C1978 C1982 1.350 . S
C1979 C1982 1.463 . S
C1979 C1984 1.350 . S
C1979 N1987 1.427 . S
C1980 H1971 0.930 . S
C1980 C1978 1.378 . S
C1980 C1981 1.367 . S
C1981 C1980 1.367 . S
C1981 C1983 1.433 . S
C1982 C1978 1.350 . S
C1982 C1979 1.463 . S
C1982 N1986 1.427 . S
C1983 H1973 0.929 . S
C1983 C1981 1.433 . S
C1983 N1986 1.384 . S
C1984 H1975 0.929 . S
C1984 C1976 1.378 . S
C1984 C1979 1.350 . S
C1985 H1972 0.929 . S
C1985 C1977 1.433 . S
C1985 N1987 1.384 . S
N1986 C1982 1.427 . S
N1986 C1983 1.384 . S
N1987 C1979 1.427 . S
N1987 C1985 1.384 . S
H1988 C1994 0.930 1_545 S
H1989 C1998 0.930 1_565 S
H1990 C2003 0.929 . S
H1991 C2001 0.929 . S
H1992 C1996 0.929 . S
H1993 C2002 0.929 . S
C1994 H1988 0.930 1_565 S
C1994 C1995 1.367 . S
C1994 C2002 1.378 1_565 S
C1995 C1994 1.367 . S
C1995 C2003 1.433 . S
C1996 H1992 0.929 . S
C1996 C1998 1.378 1_565 S
C1996 C2000 1.350 1_565 S
C1997 C2000 1.463 1_565 S
C1997 C2002 1.350 1_565 S
C1997 N2005 1.427 . S
C1998 H1989 0.930 1_545 S
C1998 C1996 1.378 1_545 S
C1998 C1999 1.367 . S
C1999 C1998 1.367 . S
C1999 C2001 1.433 . S
C2000 C1996 1.350 1_545 S
C2000 C1997 1.463 1_545 S
C2000 N2004 1.427 . S
C2001 H1991 0.929 . S
C2001 C1999 1.433 . S
C2001 N2004 1.384 . S
C2002 H1993 0.929 . S
C2002 C1994 1.378 1_545 S
C2002 C1997 1.350 1_545 S
C2003 H1990 0.929 . S
C2003 C1995 1.433 . S
C2003 N2005 1.384 . S
N2004 C2000 1.427 . S
N2004 C2001 1.384 . S
N2005 C1997 1.427 . S
N2005 C2003 1.384 . S
H2006 C2012 0.930 . S
H2007 C2016 0.930 . S
H2008 C2021 0.929 . S
H2009 C2019 0.929 . S
H2010 C2014 0.929 . S
H2011 C2020 0.929 . S
C2012 H2006 0.930 . S
C2012 C2013 1.367 . S
C2012 C2020 1.378 . S
C2013 C2012 1.367 . S
C2013 C2021 1.433 . S
C2014 H2010 0.929 . S
C2014 C2016 1.378 . S
C2014 C2018 1.350 . S
C2015 C2018 1.463 1_554 S
C2015 C2020 1.350 . S
C2015 N2023 1.427 . S
C2016 H2007 0.930 . S
C2016 C2014 1.378 . S
C2016 C2017 1.367 . S
C2017 C2016 1.367 . S
C2017 C2019 1.433 . S
C2018 C2014 1.350 . S
C2018 C2015 1.463 1_556 S
C2018 N2022 1.427 . S
C2019 H2009 0.929 . S
C2019 C2017 1.433 . S
C2019 N2022 1.384 . S
C2020 H2011 0.929 . S
C2020 C2012 1.378 . S
C2020 C2015 1.350 . S
C2021 H2008 0.929 . S
C2021 C2013 1.433 . S
C2021 N2023 1.384 . S
N2022 C2018 1.427 . S
N2022 C2019 1.384 . S
N2023 C2015 1.427 . S
N2023 C2021 1.384 . S
H2024 C2030 0.930 . S
H2025 C2034 0.930 . S
H2026 C2039 0.929 . S
H2027 C2037 0.929 . S
H2028 C2032 0.929 . S
H2029 C2038 0.929 . S
C2030 H2024 0.930 . S
C2030 C2031 1.367 . S
C2030 C2038 1.378 . S
C2031 C2030 1.367 . S
C2031 C2039 1.433 1_545 S
C2032 H2028 0.929 . S
C2032 C2034 1.378 . S
C2032 C2036 1.350 . S
C2033 C2036 1.463 1_545 S
C2033 C2038 1.350 . S
C2033 N2041 1.427 1_545 S
C2034 H2025 0.930 . S
C2034 C2032 1.378 . S
C2034 C2035 1.367 . S
C2035 C2034 1.367 . S
C2035 C2037 1.433 1_565 S
C2036 C2032 1.350 . S
C2036 C2033 1.463 1_565 S
C2036 N2040 1.427 1_565 S
C2037 H2027 0.929 . S
C2037 C2035 1.433 1_545 S
C2037 N2040 1.384 . S
C2038 H2029 0.929 . S
C2038 C2030 1.378 . S
C2038 C2033 1.350 . S
C2039 H2026 0.929 . S
C2039 C2031 1.433 1_565 S
C2039 N2041 1.384 . S
N2040 C2036 1.427 1_545 S
N2040 C2037 1.384 . S
N2041 C2033 1.427 1_565 S
N2041 C2039 1.384 . S
H2042 C2048 0.930 1_545 S
H2043 C2052 0.930 . S
H2044 C2057 0.929 . S
H2045 C2055 0.929 1_545 S
H2046 C2050 0.929 . S
H2047 C2056 0.929 1_545 S
C2048 H2042 0.930 1_565 S
C2048 C2049 1.367 . S
C2048 C2056 1.378 . S
C2049 C2048 1.367 . S
C2049 C2057 1.433 . S
C2050 H2046 0.929 . S
C2050 C2052 1.378 . S
C2050 C2054 1.350 . S
C2051 C2054 1.463 . S
C2051 C2056 1.350 . S
C2051 N2059 1.427 . S
C2052 H2043 0.930 . S
C2052 C2050 1.378 . S
C2052 C2053 1.367 . S
C2053 C2052 1.367 . S
C2053 C2055 1.433 . S
C2054 C2050 1.350 . S
C2054 C2051 1.463 . S
C2054 N2058 1.427 . S
C2055 H2045 0.929 1_565 S
C2055 C2053 1.433 . S
C2055 N2058 1.384 . S
C2056 H2047 0.929 1_565 S
C2056 C2048 1.378 . S
C2056 C2051 1.350 . S
C2057 H2044 0.929 . S
C2057 C2049 1.433 . S
C2057 N2059 1.384 . S
N2058 C2054 1.427 . S
N2058 C2055 1.384 . S
N2059 C2051 1.427 . S
N2059 C2057 1.384 . S
H2060 C2066 0.930 1_565 S
H2061 C2070 0.930 1_545 S
H2062 C2075 0.929 . S
H2063 C2073 0.929 . S
H2064 C2068 0.929 . S
H2065 C2074 0.929 . S
C2066 H2060 0.930 1_545 S
C2066 C2067 1.367 . S
C2066 C2074 1.378 1_545 S
C2067 C2066 1.367 . S
C2067 C2075 1.433 . S
C2068 H2064 0.929 . S
C2068 C2070 1.378 1_545 S
C2068 C2072 1.350 1_545 S
C2069 C2072 1.463 1_545 S
C2069 C2074 1.350 1_545 S
C2069 N2077 1.427 . S
C2070 H2061 0.930 1_565 S
C2070 C2068 1.378 1_565 S
C2070 C2071 1.367 . S
C2071 C2070 1.367 . S
C2071 C2073 1.433 . S
C2072 C2068 1.350 1_565 S
C2072 C2069 1.463 1_565 S
C2072 N2076 1.427 . S
C2073 H2063 0.929 . S
C2073 C2071 1.433 . S
C2073 N2076 1.384 . S
C2074 H2065 0.929 . S
C2074 C2066 1.378 1_565 S
C2074 C2069 1.350 1_565 S
C2075 H2062 0.929 . S
C2075 C2067 1.433 . S
C2075 N2077 1.384 . S
N2076 C2072 1.427 . S
N2076 C2073 1.384 . S
N2077 C2069 1.427 . S
N2077 C2075 1.384 . S
H2078 C2084 0.930 . S
H2079 C2088 0.930 . S
H2080 C2093 0.929 . S
H2081 C2091 0.929 . S
H2082 C2086 0.929 . S
H2083 C2092 0.929 . S
C2084 H2078 0.930 . S
C2084 C2085 1.367 . S
C2084 C2092 1.378 . S
C2085 C2084 1.367 . S
C2085 C2093 1.433 . S
C2086 H2082 0.929 . S
C2086 C2088 1.378 . S
C2086 C2090 1.350 . S
C2087 C2090 1.463 1_554 S
C2087 C2092 1.350 . S
C2087 N2095 1.427 . S
C2088 H2079 0.930 . S
C2088 C2086 1.378 . S
C2088 C2089 1.367 . S
C2089 C2088 1.367 . S
C2089 C2091 1.433 . S
C2090 C2086 1.350 . S
C2090 C2087 1.463 1_556 S
C2090 N2094 1.427 . S
C2091 H2081 0.929 . S
C2091 C2089 1.433 . S
C2091 N2094 1.384 . S
C2092 H2083 0.929 . S
C2092 C2084 1.378 . S
C2092 C2087 1.350 . S
C2093 H2080 0.929 . S
C2093 C2085 1.433 . S
C2093 N2095 1.384 . S
N2094 C2090 1.427 . S
N2094 C2091 1.384 . S
N2095 C2087 1.427 . S
N2095 C2093 1.384 . S
H2096 C2102 0.930 . S
H2097 C2106 0.930 . S
H2098 C2111 0.929 . S
H2099 C2109 0.929 . S
H2100 C2104 0.929 . S
H2101 C2110 0.929 . S
C2102 H2096 0.930 . S
C2102 C2103 1.367 . S
C2102 C2110 1.378 . S
C2103 C2102 1.367 . S
C2103 C2111 1.433 . S
C2104 H2100 0.929 . S
C2104 C2106 1.378 . S
C2104 C2108 1.350 . S
C2105 C2108 1.463 . S
C2105 C2110 1.350 . S
C2105 N2113 1.427 . S
C2106 H2097 0.930 . S
C2106 C2104 1.378 . S
C2106 C2107 1.367 . S
C2107 C2106 1.367 . S
C2107 C2109 1.433 . S
C2108 C2104 1.350 . S
C2108 C2105 1.463 . S
C2108 N2112 1.427 . S
C2109 H2099 0.929 . S
C2109 C2107 1.433 . S
C2109 N2112 1.384 . S
C2110 H2101 0.929 . S
C2110 C2102 1.378 . S
C2110 C2105 1.350 . S
C2111 H2098 0.929 . S
C2111 C2103 1.433 . S
C2111 N2113 1.384 . S
N2112 C2108 1.427 . S
N2112 C2109 1.384 . S
N2113 C2105 1.427 . S
N2113 C2111 1.384 . S
H2114 C2120 0.930 . S
H2115 C2124 0.930 . S
H2116 C2129 0.929 . S
H2117 C2127 0.929 . S
H2118 C2122 0.929 . S
H2119 C2128 0.929 . S
C2120 H2114 0.930 . S
C2120 C2121 1.367 . S
C2120 C2128 1.378 . S
C2121 C2120 1.367 . S
C2121 C2129 1.433 . S
C2122 H2118 0.929 . S
C2122 C2124 1.378 . S
C2122 C2126 1.350 . S
C2123 C2126 1.463 1_554 S
C2123 C2128 1.350 . S
C2123 N2131 1.427 . S
C2124 H2115 0.930 . S
C2124 C2122 1.378 . S
C2124 C2125 1.367 . S
C2125 C2124 1.367 . S
C2125 C2127 1.433 . S
C2126 C2122 1.350 . S
C2126 C2123 1.463 1_556 S
C2126 N2130 1.427 . S
C2127 H2117 0.929 . S
C2127 C2125 1.433 . S
C2127 N2130 1.384 . S
C2128 H2119 0.929 . S
C2128 C2120 1.378 . S
C2128 C2123 1.350 . S
C2129 H2116 0.929 . S
C2129 C2121 1.433 . S
C2129 N2131 1.384 . S
N2130 C2126 1.427 . S
N2130 C2127 1.384 . S
N2131 C2123 1.427 . S
N2131 C2129 1.384 . S
H2132 C2138 0.930 . S
H2133 C2142 0.930 . S
H2134 C2147 0.929 . S
H2135 C2145 0.929 . S
H2136 C2140 0.929 . S
H2137 C2146 0.929 . S
C2138 H2132 0.930 . S
C2138 C2139 1.367 . S
C2138 C2146 1.378 . S
C2139 C2138 1.367 . S
C2139 C2147 1.433 . S
C2140 H2136 0.929 . S
C2140 C2142 1.378 . S
C2140 C2144 1.350 . S
C2141 C2144 1.463 . S
C2141 C2146 1.350 . S
C2141 N2149 1.427 . S
C2142 H2133 0.930 . S
C2142 C2140 1.378 . S
C2142 C2143 1.367 . S
C2143 C2142 1.367 . S
C2143 C2145 1.433 . S
C2144 C2140 1.350 . S
C2144 C2141 1.463 . S
C2144 N2148 1.427 . S
C2145 H2135 0.929 . S
C2145 C2143 1.433 . S
C2145 N2148 1.384 . S
C2146 H2137 0.929 . S
C2146 C2138 1.378 . S
C2146 C2141 1.350 . S
C2147 H2134 0.929 . S
C2147 C2139 1.433 . S
C2147 N2149 1.384 . S
N2148 C2144 1.427 . S
N2148 C2145 1.384 . S
N2149 C2141 1.427 . S
N2149 C2147 1.384 . S
H2150 C2156 0.930 . S
H2151 C2160 0.930 . S
H2152 C2165 0.929 . S
H2153 C2163 0.929 . S
H2154 C2158 0.929 . S
H2155 C2164 0.929 . S
C2156 H2150 0.930 . S
C2156 C2157 1.367 . S
C2156 C2164 1.378 . S
C2157 C2156 1.367 . S
C2157 C2165 1.433 . S
C2158 H2154 0.929 . S
C2158 C2160 1.378 . S
C2158 C2162 1.350 . S
C2159 C2162 1.463 . S
C2159 C2164 1.350 . S
C2159 N2167 1.427 . S
C2160 H2151 0.930 . S
C2160 C2158 1.378 . S
C2160 C2161 1.367 . S
C2161 C2160 1.367 . S
C2161 C2163 1.433 . S
C2162 C2158 1.350 . S
C2162 C2159 1.463 . S
C2162 N2166 1.427 . S
C2163 H2153 0.929 . S
C2163 C2161 1.433 . S
C2163 N2166 1.384 . S
C2164 H2155 0.929 . S
C2164 C2156 1.378 . S
C2164 C2159 1.350 . S
C2165 H2152 0.929 . S
C2165 C2157 1.433 . S
C2165 N2167 1.384 . S
N2166 C2162 1.427 . S
N2166 C2163 1.384 . S
N2167 C2159 1.427 . S
N2167 C2165 1.384 . S
H2168 C2174 0.930 . S
H2169 C2178 0.930 . S
H2170 C2183 0.929 . S
H2171 C2181 0.929 . S
H2172 C2176 0.929 . S
H2173 C2182 0.929 . S
C2174 H2168 0.930 . S
C2174 C2175 1.367 . S
C2174 C2182 1.378 . S
C2175 C2174 1.367 . S
C2175 C2183 1.433 . S
C2176 H2172 0.929 . S
C2176 C2178 1.378 . S
C2176 C2180 1.350 . S
C2177 C2180 1.463 . S
C2177 C2182 1.350 . S
C2177 N2185 1.427 . S
C2178 H2169 0.930 . S
C2178 C2176 1.378 . S
C2178 C2179 1.367 . S
C2179 C2178 1.367 . S
C2179 C2181 1.433 . S
C2180 C2176 1.350 . S
C2180 C2177 1.463 . S
C2180 N2184 1.427 . S
C2181 H2171 0.929 . S
C2181 C2179 1.433 . S
C2181 N2184 1.384 . S
C2182 H2173 0.929 . S
C2182 C2174 1.378 . S
C2182 C2177 1.350 . S
C2183 H2170 0.929 . S
C2183 C2175 1.433 . S
C2183 N2185 1.384 . S
N2184 C2180 1.427 . S
N2184 C2181 1.384 . S
N2185 C2177 1.427 . S
N2185 C2183 1.384 . S
H2186 C2192 0.930 . S
H2187 C2196 0.930 . S
H2188 C2201 0.929 . S
H2189 C2199 0.929 . S
H2190 C2194 0.929 . S
H2191 C2200 0.929 . S
C2192 H2186 0.930 . S
C2192 C2193 1.367 . S
C2192 C2200 1.378 . S
C2193 C2192 1.367 . S
C2193 C2201 1.433 . S
C2194 H2190 0.929 . S
C2194 C2196 1.378 . S
C2194 C2198 1.350 . S
C2195 C2198 1.463 1_556 S
C2195 C2200 1.350 . S
C2195 N2203 1.427 . S
C2196 H2187 0.930 . S
C2196 C2194 1.378 . S
C2196 C2197 1.367 . S
C2197 C2196 1.367 . S
C2197 C2199 1.433 . S
C2198 C2194 1.350 . S
C2198 C2195 1.463 1_554 S
C2198 N2202 1.427 . S
C2199 H2189 0.929 . S
C2199 C2197 1.433 . S
C2199 N2202 1.384 . S
C2200 H2191 0.929 . S
C2200 C2192 1.378 . S
C2200 C2195 1.350 . S
C2201 H2188 0.929 . S
C2201 C2193 1.433 . S
C2201 N2203 1.384 . S
N2202 C2198 1.427 . S
N2202 C2199 1.384 . S
N2203 C2195 1.427 . S
N2203 C2201 1.384 . S
H2204 C2210 0.930 . S
H2205 C2214 0.930 . S
H2206 C2219 0.929 . S
H2207 C2217 0.929 . S
H2208 C2212 0.929 . S
H2209 C2218 0.929 . S
C2210 H2204 0.930 . S
C2210 C2211 1.367 . S
C2210 C2218 1.378 . S
C2211 C2210 1.367 . S
C2211 C2219 1.433 . S
C2212 H2208 0.929 . S
C2212 C2214 1.378 . S
C2212 C2216 1.350 . S
C2213 C2216 1.463 . S
C2213 C2218 1.350 . S
C2213 N2221 1.427 . S
C2214 H2205 0.930 . S
C2214 C2212 1.378 . S
C2214 C2215 1.367 . S
C2215 C2214 1.367 . S
C2215 C2217 1.433 . S
C2216 C2212 1.350 . S
C2216 C2213 1.463 . S
C2216 N2220 1.427 . S
C2217 H2207 0.929 . S
C2217 C2215 1.433 . S
C2217 N2220 1.384 . S
C2218 H2209 0.929 . S
C2218 C2210 1.378 . S
C2218 C2213 1.350 . S
C2219 H2206 0.929 . S
C2219 C2211 1.433 . S
C2219 N2221 1.384 . S
N2220 C2216 1.427 . S
N2220 C2217 1.384 . S
N2221 C2213 1.427 . S
N2221 C2219 1.384 . S
H2222 C2228 0.930 . S
H2223 C2232 0.930 . S
H2224 C2237 0.929 . S
H2225 C2235 0.929 . S
H2226 C2230 0.929 . S
H2227 C2236 0.929 . S
C2228 H2222 0.930 . S
C2228 C2229 1.367 . S
C2228 C2236 1.378 . S
C2229 C2228 1.367 . S
C2229 C2237 1.433 . S
C2230 H2226 0.929 . S
C2230 C2232 1.378 . S
C2230 C2234 1.350 . S
C2231 C2234 1.463 . S
C2231 C2236 1.350 . S
C2231 N2239 1.427 . S
C2232 H2223 0.930 . S
C2232 C2230 1.378 . S
C2232 C2233 1.367 . S
C2233 C2232 1.367 . S
C2233 C2235 1.433 . S
C2234 C2230 1.350 . S
C2234 C2231 1.463 . S
C2234 N2238 1.427 . S
C2235 H2225 0.929 . S
C2235 C2233 1.433 . S
C2235 N2238 1.384 . S
C2236 H2227 0.929 . S
C2236 C2228 1.378 . S
C2236 C2231 1.350 . S
C2237 H2224 0.929 . S
C2237 C2229 1.433 . S
C2237 N2239 1.384 . S
N2238 C2234 1.427 . S
N2238 C2235 1.384 . S
N2239 C2231 1.427 . S
N2239 C2237 1.384 . S
H2240 C2246 0.930 . S
H2241 C2250 0.930 . S
H2242 C2255 0.929 . S
H2243 C2253 0.929 . S
H2244 C2248 0.929 . S
H2245 C2254 0.929 . S
C2246 H2240 0.930 . S
C2246 C2247 1.367 . S
C2246 C2254 1.378 . S
C2247 C2246 1.367 . S
C2247 C2255 1.433 . S
C2248 H2244 0.929 . S
C2248 C2250 1.378 . S
C2248 C2252 1.350 . S
C2249 C2252 1.463 . S
C2249 C2254 1.350 . S
C2249 N2257 1.427 . S
C2250 H2241 0.930 . S
C2250 C2248 1.378 . S
C2250 C2251 1.367 . S
C2251 C2250 1.367 . S
C2251 C2253 1.433 . S
C2252 C2248 1.350 . S
C2252 C2249 1.463 . S
C2252 N2256 1.427 . S
C2253 H2243 0.929 . S
C2253 C2251 1.433 . S
C2253 N2256 1.384 . S
C2254 H2245 0.929 . S
C2254 C2246 1.378 . S
C2254 C2249 1.350 . S
C2255 H2242 0.929 . S
C2255 C2247 1.433 . S
C2255 N2257 1.384 . S
N2256 C2252 1.427 . S
N2256 C2253 1.384 . S
N2257 C2249 1.427 . S
N2257 C2255 1.384 . S
H2258 C2264 0.930 . S
H2259 C2268 0.930 . S
H2260 C2273 0.929 . S
H2261 C2271 0.929 . S
H2262 C2266 0.929 . S
H2263 C2272 0.929 . S
C2264 H2258 0.930 . S
C2264 C2265 1.367 . S
C2264 C2272 1.378 . S
C2265 C2264 1.367 . S
C2265 C2273 1.433 . S
C2266 H2262 0.929 . S
C2266 C2268 1.378 . S
C2266 C2270 1.350 . S
C2267 C2270 1.463 1_455 S
C2267 C2272 1.350 . S
C2267 N2275 1.427 . S
C2268 H2259 0.930 . S
C2268 C2266 1.378 . S
C2268 C2269 1.367 . S
C2269 C2268 1.367 . S
C2269 C2271 1.433 . S
C2270 C2266 1.350 . S
C2270 C2267 1.463 1_655 S
C2270 N2274 1.427 . S
C2271 H2261 0.929 . S
C2271 C2269 1.433 . S
C2271 N2274 1.384 . S
C2272 H2263 0.929 . S
C2272 C2264 1.378 . S
C2272 C2267 1.350 . S
C2273 H2260 0.929 . S
C2273 C2265 1.433 . S
C2273 N2275 1.384 . S
N2274 C2270 1.427 . S
N2274 C2271 1.384 . S
N2275 C2267 1.427 . S
N2275 C2273 1.384 . S
H2276 C2282 0.930 . S
H2277 C2286 0.930 . S
H2278 C2291 0.929 . S
H2279 C2289 0.929 . S
H2280 C2284 0.929 1_655 S
H2281 C2290 0.929 1_455 S
C2282 H2276 0.930 . S
C2282 C2283 1.367 . S
C2282 C2290 1.378 . S
C2283 C2282 1.367 . S
C2283 C2291 1.433 . S
C2284 H2280 0.929 1_455 S
C2284 C2286 1.378 . S
C2284 C2288 1.350 . S
C2285 C2288 1.463 1_655 S
C2285 C2290 1.350 . S
C2285 N2293 1.427 . S
C2286 H2277 0.930 . S
C2286 C2284 1.378 . S
C2286 C2287 1.367 . S
C2287 C2286 1.367 . S
C2287 C2289 1.433 . S
C2288 C2284 1.350 . S
C2288 C2285 1.463 1_455 S
C2288 N2292 1.427 . S
C2289 H2279 0.929 . S
C2289 C2287 1.433 . S
C2289 N2292 1.384 . S
C2290 H2281 0.929 1_655 S
C2290 C2282 1.378 . S
C2290 C2285 1.350 . S
C2291 H2278 0.929 . S
C2291 C2283 1.433 . S
C2291 N2293 1.384 . S
N2292 C2288 1.427 . S
N2292 C2289 1.384 . S
N2293 C2285 1.427 . S
N2293 C2291 1.384 . S
H2294 C2300 0.930 . S
H2295 C2304 0.930 . S
H2296 C2309 0.929 . S
H2297 C2307 0.929 . S
H2298 C2302 0.929 . S
H2299 C2308 0.929 . S
C2300 H2294 0.930 . S
C2300 C2301 1.367 . S
C2300 C2308 1.378 . S
C2301 C2300 1.367 . S
C2301 C2309 1.433 . S
C2302 H2298 0.929 . S
C2302 C2304 1.378 . S
C2302 C2306 1.350 . S
C2303 C2306 1.463 . S
C2303 C2308 1.350 . S
C2303 N2311 1.427 . S
C2304 H2295 0.930 . S
C2304 C2302 1.378 . S
C2304 C2305 1.367 . S
C2305 C2304 1.367 . S
C2305 C2307 1.433 . S
C2306 C2302 1.350 . S
C2306 C2303 1.463 . S
C2306 N2310 1.427 . S
C2307 H2297 0.929 . S
C2307 C2305 1.433 . S
C2307 N2310 1.384 . S
C2308 H2299 0.929 . S
C2308 C2300 1.378 . S
C2308 C2303 1.350 . S
C2309 H2296 0.929 . S
C2309 C2301 1.433 . S
C2309 N2311 1.384 . S
N2310 C2306 1.427 . S
N2310 C2307 1.384 . S
N2311 C2303 1.427 . S
N2311 C2309 1.384 . S
H2312 C2318 0.930 . S
H2313 C2322 0.930 . S
H2314 C2327 0.929 . S
H2315 C2325 0.929 . S
H2316 C2320 0.929 . S
H2317 C2326 0.929 . S
C2318 H2312 0.930 . S
C2318 C2319 1.367 . S
C2318 C2326 1.378 . S
C2319 C2318 1.367 . S
C2319 C2327 1.433 . S
C2320 H2316 0.929 . S
C2320 C2322 1.378 . S
C2320 C2324 1.350 . S
C2321 C2324 1.463 . S
C2321 C2326 1.350 . S
C2321 N2329 1.427 . S
C2322 H2313 0.930 . S
C2322 C2320 1.378 . S
C2322 C2323 1.367 . S
C2323 C2322 1.367 . S
C2323 C2325 1.433 . S
C2324 C2320 1.350 . S
C2324 C2321 1.463 . S
C2324 N2328 1.427 . S
C2325 H2315 0.929 . S
C2325 C2323 1.433 . S
C2325 N2328 1.384 . S
C2326 H2317 0.929 . S
C2326 C2318 1.378 . S
C2326 C2321 1.350 . S
C2327 H2314 0.929 . S
C2327 C2319 1.433 . S
C2327 N2329 1.384 . S
N2328 C2324 1.427 . S
N2328 C2325 1.384 . S
N2329 C2321 1.427 . S
N2329 C2327 1.384 . S
H2330 C2336 0.930 . S
H2331 C2340 0.930 . S
H2332 C2345 0.929 . S
H2333 C2343 0.929 . S
H2334 C2338 0.929 . S
H2335 C2344 0.929 . S
C2336 H2330 0.930 . S
C2336 C2337 1.367 . S
C2336 C2344 1.378 . S
C2337 C2336 1.367 . S
C2337 C2345 1.433 . S
C2338 H2334 0.929 . S
C2338 C2340 1.378 . S
C2338 C2342 1.350 . S
C2339 C2342 1.463 . S
C2339 C2344 1.350 . S
C2339 N2347 1.427 . S
C2340 H2331 0.930 . S
C2340 C2338 1.378 . S
C2340 C2341 1.367 . S
C2341 C2340 1.367 . S
C2341 C2343 1.433 . S
C2342 C2338 1.350 . S
C2342 C2339 1.463 . S
C2342 N2346 1.427 . S
C2343 H2333 0.929 . S
C2343 C2341 1.433 . S
C2343 N2346 1.384 . S
C2344 H2335 0.929 . S
C2344 C2336 1.378 . S
C2344 C2339 1.350 . S
C2345 H2332 0.929 . S
C2345 C2337 1.433 . S
C2345 N2347 1.384 . S
N2346 C2342 1.427 . S
N2346 C2343 1.384 . S
N2347 C2339 1.427 . S
N2347 C2345 1.384 . S
H2348 C2354 0.930 1_455 S
H2349 C2358 0.930 1_655 S
H2350 C2363 0.929 . S
H2351 C2361 0.929 . S
H2352 C2356 0.929 . S
H2353 C2362 0.929 . S
C2354 H2348 0.930 1_655 S
C2354 C2355 1.367 . S
C2354 C2362 1.378 1_655 S
C2355 C2354 1.367 . S
C2355 C2363 1.433 . S
C2356 H2352 0.929 . S
C2356 C2358 1.378 1_655 S
C2356 C2360 1.350 1_655 S
C2357 C2360 1.463 1_655 S
C2357 C2362 1.350 1_655 S
C2357 N2365 1.427 . S
C2358 H2349 0.930 1_455 S
C2358 C2356 1.378 1_455 S
C2358 C2359 1.367 . S
C2359 C2358 1.367 . S
C2359 C2361 1.433 . S
C2360 C2356 1.350 1_455 S
C2360 C2357 1.463 1_455 S
C2360 N2364 1.427 . S
C2361 H2351 0.929 . S
C2361 C2359 1.433 . S
C2361 N2364 1.384 . S
C2362 H2353 0.929 . S
C2362 C2354 1.378 1_455 S
C2362 C2357 1.350 1_455 S
C2363 H2350 0.929 . S
C2363 C2355 1.433 . S
C2363 N2365 1.384 . S
N2364 C2360 1.427 . S
N2364 C2361 1.384 . S
N2365 C2357 1.427 . S
N2365 C2363 1.384 . S
H2366 C2372 0.930 . S
H2367 C2376 0.930 . S
H2368 C2381 0.929 . S
H2369 C2379 0.929 . S
H2370 C2374 0.929 . S
H2371 C2380 0.929 . S
C2372 H2366 0.930 . S
C2372 C2373 1.367 . S
C2372 C2380 1.378 . S
C2373 C2372 1.367 . S
C2373 C2381 1.433 . S
C2374 H2370 0.929 . S
C2374 C2376 1.378 . S
C2374 C2378 1.350 . S
C2375 C2378 1.463 1_455 S
C2375 C2380 1.350 . S
C2375 N2383 1.427 . S
C2376 H2367 0.930 . S
C2376 C2374 1.378 . S
C2376 C2377 1.367 . S
C2377 C2376 1.367 . S
C2377 C2379 1.433 . S
C2378 C2374 1.350 . S
C2378 C2375 1.463 1_655 S
C2378 N2382 1.427 . S
C2379 H2369 0.929 . S
C2379 C2377 1.433 . S
C2379 N2382 1.384 . S
C2380 H2371 0.929 . S
C2380 C2372 1.378 . S
C2380 C2375 1.350 . S
C2381 H2368 0.929 . S
C2381 C2373 1.433 . S
C2381 N2383 1.384 . S
N2382 C2378 1.427 . S
N2382 C2379 1.384 . S
N2383 C2375 1.427 . S
N2383 C2381 1.384 . S
H2384 C2390 0.930 . S
H2385 C2394 0.930 . S
H2386 C2399 0.929 . S
H2387 C2397 0.929 . S
H2388 C2392 0.929 . S
H2389 C2398 0.929 . S
C2390 H2384 0.930 . S
C2390 C2391 1.367 . S
C2390 C2398 1.378 . S
C2391 C2390 1.367 . S
C2391 C2399 1.433 . S
C2392 H2388 0.929 . S
C2392 C2394 1.378 . S
C2392 C2396 1.350 . S
C2393 C2396 1.463 . S
C2393 C2398 1.350 . S
C2393 N2401 1.427 . S
C2394 H2385 0.930 . S
C2394 C2392 1.378 . S
C2394 C2395 1.367 . S
C2395 C2394 1.367 . S
C2395 C2397 1.433 . S
C2396 C2392 1.350 . S
C2396 C2393 1.463 . S
C2396 N2400 1.427 . S
C2397 H2387 0.929 . S
C2397 C2395 1.433 . S
C2397 N2400 1.384 . S
C2398 H2389 0.929 . S
C2398 C2390 1.378 . S
C2398 C2393 1.350 . S
C2399 H2386 0.929 . S
C2399 C2391 1.433 . S
C2399 N2401 1.384 . S
N2400 C2396 1.427 . S
N2400 C2397 1.384 . S
N2401 C2393 1.427 . S
N2401 C2399 1.384 . S
H2402 C2408 0.930 . S
H2403 C2412 0.930 . S
H2404 C2417 0.929 . S
H2405 C2415 0.929 . S
H2406 C2410 0.929 . S
H2407 C2416 0.929 . S
C2408 H2402 0.930 . S
C2408 C2409 1.367 . S
C2408 C2416 1.378 . S
C2409 C2408 1.367 . S
C2409 C2417 1.433 . S
C2410 H2406 0.929 . S
C2410 C2412 1.378 . S
C2410 C2414 1.350 . S
C2411 C2414 1.463 1_455 S
C2411 C2416 1.350 . S
C2411 N2419 1.427 . S
C2412 H2403 0.930 . S
C2412 C2410 1.378 . S
C2412 C2413 1.367 . S
C2413 C2412 1.367 . S
C2413 C2415 1.433 . S
C2414 C2410 1.350 . S
C2414 C2411 1.463 1_655 S
C2414 N2418 1.427 . S
C2415 H2405 0.929 . S
C2415 C2413 1.433 . S
C2415 N2418 1.384 . S
C2416 H2407 0.929 . S
C2416 C2408 1.378 . S
C2416 C2411 1.350 . S
C2417 H2404 0.929 . S
C2417 C2409 1.433 . S
C2417 N2419 1.384 . S
N2418 C2414 1.427 . S
N2418 C2415 1.384 . S
N2419 C2411 1.427 . S
N2419 C2417 1.384 . S
H2420 C2426 0.930 . S
H2421 C2430 0.930 . S
H2422 C2435 0.929 . S
H2423 C2433 0.929 . S
H2424 C2428 0.929 . S
H2425 C2434 0.929 . S
C2426 H2420 0.930 . S
C2426 C2427 1.367 . S
C2426 C2434 1.378 . S
C2427 C2426 1.367 . S
C2427 C2435 1.433 . S
C2428 H2424 0.929 . S
C2428 C2430 1.378 . S
C2428 C2432 1.350 . S
C2429 C2432 1.463 1_455 S
C2429 C2434 1.350 . S
C2429 N2437 1.427 . S
C2430 H2421 0.930 . S
C2430 C2428 1.378 . S
C2430 C2431 1.367 . S
C2431 C2430 1.367 . S
C2431 C2433 1.433 . S
C2432 C2428 1.350 . S
C2432 C2429 1.463 1_655 S
C2432 N2436 1.427 . S
C2433 H2423 0.929 . S
C2433 C2431 1.433 . S
C2433 N2436 1.384 . S
C2434 H2425 0.929 . S
C2434 C2426 1.378 . S
C2434 C2429 1.350 . S
C2435 H2422 0.929 . S
C2435 C2427 1.433 . S
C2435 N2437 1.384 . S
N2436 C2432 1.427 . S
N2436 C2433 1.384 . S
N2437 C2429 1.427 . S
N2437 C2435 1.384 . S
H2438 C2444 0.930 . S
H2439 C2448 0.930 . S
H2440 C2453 0.929 . S
H2441 C2451 0.929 . S
H2442 C2446 0.929 . S
H2443 C2452 0.929 . S
C2444 H2438 0.930 . S
C2444 C2445 1.367 . S
C2444 C2452 1.378 . S
C2445 C2444 1.367 . S
C2445 C2453 1.433 . S
C2446 H2442 0.929 . S
C2446 C2448 1.378 . S
C2446 C2450 1.350 . S
C2447 C2450 1.463 . S
C2447 C2452 1.350 . S
C2447 N2455 1.427 . S
C2448 H2439 0.930 . S
C2448 C2446 1.378 . S
C2448 C2449 1.367 . S
C2449 C2448 1.367 . S
C2449 C2451 1.433 . S
C2450 C2446 1.350 . S
C2450 C2447 1.463 . S
C2450 N2454 1.427 . S
C2451 H2441 0.929 . S
C2451 C2449 1.433 . S
C2451 N2454 1.384 . S
C2452 H2443 0.929 . S
C2452 C2444 1.378 . S
C2452 C2447 1.350 . S
C2453 H2440 0.929 . S
C2453 C2445 1.433 . S
C2453 N2455 1.384 . S
N2454 C2450 1.427 . S
N2454 C2451 1.384 . S
N2455 C2447 1.427 . S
N2455 C2453 1.384 . S
H2456 C2462 0.930 . S
H2457 C2466 0.930 . S
H2458 C2471 0.929 . S
H2459 C2469 0.929 . S
H2460 C2464 0.929 . S
H2461 C2470 0.929 . S
C2462 H2456 0.930 . S
C2462 C2463 1.367 . S
C2462 C2470 1.378 . S
C2463 C2462 1.367 . S
C2463 C2471 1.433 . S
C2464 H2460 0.929 . S
C2464 C2466 1.378 . S
C2464 C2468 1.350 . S
C2465 C2468 1.463 . S
C2465 C2470 1.350 . S
C2465 N2473 1.427 . S
C2466 H2457 0.930 . S
C2466 C2464 1.378 . S
C2466 C2467 1.367 . S
C2467 C2466 1.367 . S
C2467 C2469 1.433 . S
C2468 C2464 1.350 . S
C2468 C2465 1.463 . S
C2468 N2472 1.427 . S
C2469 H2459 0.929 . S
C2469 C2467 1.433 . S
C2469 N2472 1.384 . S
C2470 H2461 0.929 . S
C2470 C2462 1.378 . S
C2470 C2465 1.350 . S
C2471 H2458 0.929 . S
C2471 C2463 1.433 . S
C2471 N2473 1.384 . S
N2472 C2468 1.427 . S
N2472 C2469 1.384 . S
N2473 C2465 1.427 . S
N2473 C2471 1.384 . S
H2474 C2480 0.930 . S
H2475 C2484 0.930 . S
H2476 C2489 0.929 . S
H2477 C2487 0.929 . S
H2478 C2482 0.929 . S
H2479 C2488 0.929 . S
C2480 H2474 0.930 . S
C2480 C2481 1.367 . S
C2480 C2488 1.378 . S
C2481 C2480 1.367 . S
C2481 C2489 1.433 . S
C2482 H2478 0.929 . S
C2482 C2484 1.378 . S
C2482 C2486 1.350 . S
C2483 C2486 1.463 . S
C2483 C2488 1.350 . S
C2483 N2491 1.427 . S
C2484 H2475 0.930 . S
C2484 C2482 1.378 . S
C2484 C2485 1.367 . S
C2485 C2484 1.367 . S
C2485 C2487 1.433 . S
C2486 C2482 1.350 . S
C2486 C2483 1.463 . S
C2486 N2490 1.427 . S
C2487 H2477 0.929 . S
C2487 C2485 1.433 . S
C2487 N2490 1.384 . S
C2488 H2479 0.929 . S
C2488 C2480 1.378 . S
C2488 C2483 1.350 . S
C2489 H2476 0.929 . S
C2489 C2481 1.433 . S
C2489 N2491 1.384 . S
N2490 C2486 1.427 . S
N2490 C2487 1.384 . S
N2491 C2483 1.427 . S
N2491 C2489 1.384 . S
H2492 C2498 0.930 . S
H2493 C2502 0.930 . S
H2494 C2507 0.929 . S
H2495 C2505 0.929 . S
H2496 C2500 0.929 . S
H2497 C2506 0.929 . S
C2498 H2492 0.930 . S
C2498 C2499 1.367 . S
C2498 C2506 1.378 . S
C2499 C2498 1.367 . S
C2499 C2507 1.433 . S
C2500 H2496 0.929 . S
C2500 C2502 1.378 . S
C2500 C2504 1.350 . S
C2501 C2504 1.463 1_655 S
C2501 C2506 1.350 . S
C2501 N2509 1.427 . S
C2502 H2493 0.930 . S
C2502 C2500 1.378 . S
C2502 C2503 1.367 . S
C2503 C2502 1.367 . S
C2503 C2505 1.433 . S
C2504 C2500 1.350 . S
C2504 C2501 1.463 1_455 S
C2504 N2508 1.427 . S
C2505 H2495 0.929 . S
C2505 C2503 1.433 . S
C2505 N2508 1.384 . S
C2506 H2497 0.929 . S
C2506 C2498 1.378 . S
C2506 C2501 1.350 . S
C2507 H2494 0.929 . S
C2507 C2499 1.433 . S
C2507 N2509 1.384 . S
N2508 C2504 1.427 . S
N2508 C2505 1.384 . S
N2509 C2501 1.427 . S
N2509 C2507 1.384 . S
H2510 C2516 0.930 . S
H2511 C2520 0.930 . S
H2512 C2525 0.929 . S
H2513 C2523 0.929 . S
H2514 C2518 0.929 . S
H2515 C2524 0.929 . S
C2516 H2510 0.930 . S
C2516 C2517 1.367 . S
C2516 C2524 1.378 . S
C2517 C2516 1.367 . S
C2517 C2525 1.433 . S
C2518 H2514 0.929 . S
C2518 C2520 1.378 . S
C2518 C2522 1.350 . S
C2519 C2522 1.463 1_655 S
C2519 C2524 1.350 . S
C2519 N2527 1.427 . S
C2520 H2511 0.930 . S
C2520 C2518 1.378 . S
C2520 C2521 1.367 . S
C2521 C2520 1.367 . S
C2521 C2523 1.433 . S
C2522 C2518 1.350 . S
C2522 C2519 1.463 1_455 S
C2522 N2526 1.427 . S
C2523 H2513 0.929 . S
C2523 C2521 1.433 . S
C2523 N2526 1.384 . S
C2524 H2515 0.929 . S
C2524 C2516 1.378 . S
C2524 C2519 1.350 . S
C2525 H2512 0.929 . S
C2525 C2517 1.433 . S
C2525 N2527 1.384 . S
N2526 C2522 1.427 . S
N2526 C2523 1.384 . S
N2527 C2519 1.427 . S
N2527 C2525 1.384 . S
C1095 C9 1.516 . S
C1099 C247 1.520 . S
C1113 C43 1.507 . S
C1117 C145 1.520 . S
C1131 C77 1.516 . S
C1135 C179 1.520 . S
C1149 C213 1.521 . S
C1153 C111 1.514 . S
C1167 C519 1.511 . S
C1171 C281 1.522 . S
C1185 C417 1.509 . S
C1189 C315 1.522 . S
C1203 C451 1.513 . S
C1207 C349 1.521 . S
C1221 C485 1.521 . S
C1225 C383 1.508 . S
C1239 C553 1.512 . S
C1243 C791 1.510 . S
C1257 C689 1.516 . S
C1261 C587 1.520 . S
C1275 C723 1.507 . S
C1279 C621 1.519 . S
C1293 C655 1.507 . S
C1297 C757 1.521 . S
C1311 C825 1.521 . S
C1315 C1063 1.508 . S
C1329 C961 1.507 . S
C1333 C859 1.521 . S
C1347 C893 1.513 . S
C1351 C995 1.522 . S
C1365 C1029 1.509 . S
C1369 C927 1.522 . S
C1383 C954 0.679 . S
C1387 C20 0.692 . S
C1401 C54 0.690 . S
C1405 C444 0.684 . S
C1419 C1022 0.690 . S
C1423 C88 0.687 . S
C1437 C122 0.691 . S
C1441 C512 0.679 . S
C1455 C156 0.686 . S
C1459 C818 0.689 . S
C1473 C308 0.698 . S
C1477 C190 0.680 . S
C1491 C224 0.681 . S
C1495 C886 0.697 . S
C1509 C258 0.680 . S
C1513 C376 0.698 . S
C1527 C682 0.681 . S
C1531 C292 0.692 . S
C1545 C326 0.691 . S
C1549 C172 0.680 . S
C1563 C750 0.686 . S
C1567 C360 0.689 . S
C1581 C240 0.691 . S
C1585 C394 0.684 . S
C1599 C428 0.685 . S
C1603 C546 0.694 . S
C1617 C462 0.689 . S
C1621 C36 0.682 . S
C1635 C496 0.692 . S
C1639 C614 0.681 . S
C1653 C104 0.691 . S
C1657 C530 0.686 . S
C1671 C564 0.680 . S
C1675 C410 0.698 . S
C1689 C988 0.678 . S
C1693 C598 0.691 . S
C1707 C632 0.688 . S
C1711 C478 0.687 . S
C1725 C666 0.684 . S
C1729 C1056 0.688 . S
C1743 C700 0.680 . S
C1747 C274 0.698 . S
C1761 C852 0.678 . S
C1765 C734 0.691 . S
C1779 C768 0.680 . S
C1783 C342 0.698 . S
C1797 C802 0.684 . S
C1801 C920 0.689 . S
C1815 C138 0.698 . S
C1819 C836 0.680 . S
C1833 C716 0.679 . S
C1837 C870 0.690 . S
C1851 C206 0.686 . S
C1855 C904 0.689 . S
C1869 C784 0.685 . S
C1873 C938 0.686 . S
C1887 C972 0.690 . S
C1891 C2 0.683 . S
C1905 C580 0.681 . S
C1909 C1006 0.689 . S
C1923 C1040 0.681 . S
C1927 C70 0.697 . S
C1941 C648 0.681 . S
C1945 C1074 0.690 . S
C1959 C141 1.666 . S
C1963 C5 1.662 . S
C1977 C175 1.672 . S
C1981 C39 1.668 . S
C1995 C73 1.665 . S
C1999 C209 1.661 . S
C2013 C243 1.671 . S
C2017 C107 1.668 . S
C2031 C413 1.671 . S
C2035 C277 1.670 . S
C2049 C447 1.667 . S
C2053 C311 1.671 . S
C2067 C345 1.662 . S
C2071 C481 1.665 . S
C2085 C379 1.670 . S
C2089 C515 1.671 . S
C2103 C685 1.664 . S
C2107 C549 1.661 . S
C2121 C719 1.671 . S
C2125 C583 1.668 . S
C2139 C617 1.672 . S
C2143 C753 1.668 . S
C2157 C651 1.670 . S
C2161 C787 1.664 . S
C2175 C957 1.665 . S
C2179 C821 1.670 . S
C2193 C991 1.665 . S
C2197 C855 1.670 . S
C2211 C889 1.662 . S
C2215 C1025 1.662 . S
C2229 C923 1.671 . S
C2233 C1059 1.666 . S
C2247 C645 1.505 . S
C2251 C33 1.507 . S
C2265 C67 1.500 . S
C2269 C679 1.502 . S
C2283 C577 1.502 . S
C2287 C101 1.505 . S
C2301 C135 1.509 . S
C2305 C611 1.508 . S
C2319 C169 1.497 . S
C2323 C781 1.495 . S
C2337 C815 1.508 . S
C2341 C203 1.509 . S
C2355 C713 1.508 . S
C2359 C237 1.509 . S
C2373 C271 1.504 . S
C2377 C747 1.501 . S
C2391 C305 1.495 . S
C2395 C917 1.497 . S
C2409 C951 1.503 . S
C2413 C339 1.505 . S
C2427 C849 1.498 . S
C2431 C373 1.496 . S
C2445 C407 1.510 . S
C2449 C883 1.510 . S
C2463 C441 1.509 . S
C2467 C1053 1.509 . S
C2481 C1087 1.507 . S
C2485 C475 1.504 . S
C2499 C509 1.495 . S
C2503 C985 1.497 . S
C2517 C543 1.498 . S
C2521 C1019 1.496 . S
