# Generated by pormake.
# Topology uol, (4)-cn, num edge types: 1
# Building blocks:
#     Node 0, Type 0, BuildingBlock: MUDLON_clean_sbu_0, # of connection points: 4
#     Node 1, Type 0, BuildingBlock: MUDLON_clean_sbu_0, # of connection points: 4
#     Node 2, Type 0, BuildingBlock: MUDLON_clean_sbu_0, # of connection points: 4
#     Node 3, Type 0, BuildingBlock: MUDLON_clean_sbu_0, # of connection points: 4
#     Node 4, Type 0, BuildingBlock: MUDLON_clean_sbu_0, # of connection points: 4
#     Node 5, Type 0, BuildingBlock: MUDLON_clean_sbu_0, # of connection points: 4
#     Node 6, Type 0, BuildingBlock: MUDLON_clean_sbu_0, # of connection points: 4
#     Node 7, Type 0, BuildingBlock: MUDLON_clean_sbu_0, # of connection points: 4
#     Node 8, Type 0, BuildingBlock: MUDLON_clean_sbu_0, # of connection points: 4
#     Node 9, Type 0, BuildingBlock: MUDLON_clean_sbu_0, # of connection points: 4
#     Node 10, Type 0, BuildingBlock: MUDLON_clean_sbu_0, # of connection points: 4
#     Node 11, Type 0, BuildingBlock: MUDLON_clean_sbu_0, # of connection points: 4
#     Edge 12, Type (0, 0), BuildingBlock: EZIPEK_clean_linker_0, # of connection points: 2
#     Edge 13, Type (0, 0), BuildingBlock: EZIPEK_clean_linker_0, # of connection points: 2
#     Edge 14, Type (0, 0), BuildingBlock: EZIPEK_clean_linker_0, # of connection points: 2
#     Edge 15, Type (0, 0), BuildingBlock: EZIPEK_clean_linker_0, # of connection points: 2
#     Edge 16, Type (0, 0), BuildingBlock: EZIPEK_clean_linker_0, # of connection points: 2
#     Edge 17, Type (0, 0), BuildingBlock: EZIPEK_clean_linker_0, # of connection points: 2
#     Edge 18, Type (0, 0), BuildingBlock: EZIPEK_clean_linker_0, # of connection points: 2
#     Edge 19, Type (0, 0), BuildingBlock: EZIPEK_clean_linker_0, # of connection points: 2
#     Edge 20, Type (0, 0), BuildingBlock: EZIPEK_clean_linker_0, # of connection points: 2
#     Edge 21, Type (0, 0), BuildingBlock: EZIPEK_clean_linker_0, # of connection points: 2
#     Edge 22, Type (0, 0), BuildingBlock: EZIPEK_clean_linker_0, # of connection points: 2
#     Edge 23, Type (0, 0), BuildingBlock: EZIPEK_clean_linker_0, # of connection points: 2
#     Edge 24, Type (0, 0), BuildingBlock: EZIPEK_clean_linker_0, # of connection points: 2
#     Edge 25, Type (0, 0), BuildingBlock: EZIPEK_clean_linker_0, # of connection points: 2
#     Edge 26, Type (0, 0), BuildingBlock: EZIPEK_clean_linker_0, # of connection points: 2
#     Edge 27, Type (0, 0), BuildingBlock: EZIPEK_clean_linker_0, # of connection points: 2
#     Edge 28, Type (0, 0), BuildingBlock: EZIPEK_clean_linker_0, # of connection points: 2
#     Edge 29, Type (0, 0), BuildingBlock: EZIPEK_clean_linker_0, # of connection points: 2
#     Edge 30, Type (0, 0), BuildingBlock: EZIPEK_clean_linker_0, # of connection points: 2
#     Edge 31, Type (0, 0), BuildingBlock: EZIPEK_clean_linker_0, # of connection points: 2
#     Edge 32, Type (0, 0), BuildingBlock: EZIPEK_clean_linker_0, # of connection points: 2
#     Edge 33, Type (0, 0), BuildingBlock: EZIPEK_clean_linker_0, # of connection points: 2
#     Edge 34, Type (0, 0), BuildingBlock: EZIPEK_clean_linker_0, # of connection points: 2
#     Edge 35, Type (0, 0), BuildingBlock: EZIPEK_clean_linker_0, # of connection points: 2
# Relax obj value: 0.129
# Max RMSD: 0.264
# Mean RMSD: 0.264
data_MOF--net-uol--node1-MUDLON_clean_sbu_0--edge1-EZIPEK_clean_linker_0
_symmetry_space_group_name_H-M    P1
_symmetry_Int_Tables_number       1
_symmetry_cell_setting            triclinic
loop_
_symmetry_equiv_pos_as_xyz
'x, y, z'
_cell_length_a     24.8552
_cell_length_b     24.714862
_cell_length_c     52.464166
_cell_angle_alpha  90.311746
_cell_angle_beta   89.204358
_cell_angle_gamma 120.39464
loop_
_atom_site_label
_atom_site_type_symbol
_atom_site_fract_x
_atom_site_fract_y
_atom_site_fract_z
_atom_type_partial_charge
Mg0 Mg 0.13246 0.33159 0.12872 0.0
C1 C 0.02464 0.28173 0.16519 0.0
O2 O 0.05509 0.34168 0.17095 0.0
C3 C 0.20044 0.33601 0.08124 0.0
O4 O 0.24301 0.38453 0.09392 0.0
C5 C 0.15229 0.45813 0.11058 0.0
O6 O 0.16308 0.44018 0.08845 0.0
O7 O 0.13953 0.42303 0.13001 0.0
O8 O 0.04417 0.26255 0.14667 0.0
O9 O 0.20596 0.3307 0.15024 0.0
C10 C 0.19928 0.31877 0.17396 0.0
O11 O 0.15199 0.31648 0.18637 0.0
O12 O 0.14549 0.30469 0.09055 0.0
Mg13 Mg 0.80114 0.12991 0.29847 0.0
C14 C 0.91644 0.21157 0.32699 0.0
O15 O 0.93531 0.18245 0.3115 0.0
C16 C 0.66839 0.09011 0.28569 0.0
O17 O 0.66562 0.0359 0.28293 0.0
C18 C 0.83453 0.14537 0.2416 0.0
O19 O 0.77468 0.12453 0.2392 0.0
O20 O 0.85653 0.14779 0.26359 0.0
O21 O 0.86102 0.20112 0.32543 0.0
O22 O 0.77103 0.04158 0.31823 0.0
C23 C 0.80534 0.018 0.32205 0.0
O24 O 0.8607 0.04313 0.31111 0.0
O25 O 0.71967 0.13834 0.29175 0.0
Mg26 Mg 0.67235 0.8058 0.46021 0.0
C27 C 0.71688 0.92289 0.48836 0.0
O28 O 0.76434 0.9339 0.47351 0.0
C29 C 0.5408 0.71111 0.43976 0.0
O30 O 0.54807 0.75722 0.42504 0.0
C31 C 0.71286 0.83371 0.40316 0.0
O32 O 0.68814 0.77278 0.40074 0.0
O33 O 0.71349 0.85709 0.42487 0.0
O34 O 0.66585 0.87121 0.48608 0.0
O35 O 0.72972 0.77871 0.48132 0.0
C36 C 0.78883 0.80821 0.48255 0.0
O37 O 0.82237 0.85812 0.46836 0.0
O38 O 0.58346 0.71964 0.45513 0.0
Mg39 Mg 0.90527 0.71088 0.62111 0.0
C40 C 1.00864 0.74875 0.65895 0.0
O41 O 0.98256 0.68749 0.66032 0.0
C42 C 0.86079 0.72008 0.56971 0.0
O43 O 0.8188 0.66233 0.57604 0.0
C44 C 0.85965 0.57053 0.62667 0.0
O45 O 0.81814 0.57092 0.6423 0.0
O46 O 0.89923 0.62071 0.61536 0.0
O47 O 0.98808 0.77263 0.64316 0.0
O48 O 0.82734 0.70581 0.64246 0.0
C49 C 0.82318 0.6974 0.66642 0.0
O50 O 0.86143 0.68348 0.67772 0.0
O51 O 0.90585 0.75233 0.58463 0.0
Mg52 Mg 0.21324 0.8711 0.79606 0.0
C53 C 0.09621 0.807 0.82501 0.0
O54 O 0.09199 0.85002 0.81206 0.0
C55 C 0.34317 0.90288 0.78187 0.0
O56 O 0.34581 0.95562 0.77574 0.0
C57 C 0.18792 0.87365 0.73849 0.0
O58 O 0.24855 0.91021 0.73602 0.0
O59 O 0.16338 0.85511 0.76047 0.0
O60 O 0.14461 0.8024 0.8222 0.0
O61 O 0.24393 0.9618 0.8139 0.0
C62 C 0.26079 0.96506 0.83691 0.0
O63 O 0.25966 0.91629 0.84729 0.0
O64 O 0.29261 0.85772 0.79083 0.0
Mg65 Mg 0.36958 0.23061 0.96061 0.0
C66 C 0.31491 0.10695 0.98739 0.0
O67 O 0.27129 0.09463 0.97073 0.0
C68 C 0.47974 0.35262 0.94302 0.0
O69 O 0.43453 0.35861 0.93339 0.0
C70 C 0.34549 0.14972 0.91526 0.0
O71 O 0.39034 0.14634 0.92673 0.0
O72 O 0.32662 0.18488 0.92466 0.0
O73 O 0.36484 0.16004 0.9867 0.0
O74 O 0.32517 0.27552 0.98104 0.0
C75 C 0.27585 0.2435 0.99438 0.0
O76 O 0.2463 0.1821 0.99322 0.0
O77 O 0.4667 0.30249 0.95476 0.0
Mg78 Mg 0.68712 0.90152 0.75369 0.0
C79 C 0.70326 0.79158 0.73394 0.0
O80 O 0.68532 0.76783 0.75691 0.0
C81 C 0.57706 0.90806 0.77051 0.0
O82 O 0.62066 0.94801 0.7858 0.0
C83 C 0.75134 0.8794 0.79839 0.0
O84 O 0.78884 0.88036 0.78032 0.0
O85 O 0.70932 0.89216 0.79295 0.0
O86 O 0.70414 0.8419 0.72807 0.0
O87 O 0.74074 0.99417 0.73644 0.0
C88 C 0.79887 0.01967 0.73174 0.0
O89 O 0.8301 0.99445 0.74089 0.0
O90 O 0.59052 0.87839 0.75418 0.0
Mg91 Mg 0.8119 0.71583 0.9312 0.0
C92 C 0.77122 0.75878 0.88794 0.0
O93 O 0.75918 0.70249 0.88126 0.0
C94 C 0.88177 0.72915 0.97847 0.0
O95 O 0.89176 0.68976 0.96524 0.0
C96 C 0.72625 0.5729 0.93772 0.0
O97 O 0.77817 0.5735 0.94271 0.0
O98 O 0.72771 0.62371 0.93233 0.0
O99 O 0.79166 0.77876 0.91017 0.0
O100 O 0.88781 0.72122 0.90844 0.0
C101 C 0.88497 0.68137 0.89234 0.0
O102 O 0.83343 0.62689 0.89013 0.0
O103 O 0.84743 0.74854 0.96929 0.0
Mg104 Mg 0.14179 0.79946 0.09272 0.0
C105 C 0.2152 0.92038 0.06608 0.0
O106 O 0.17858 0.9308 0.08099 0.0
C107 C 0.14756 0.68957 0.11605 0.0
O108 O 0.13752 0.71075 0.13752 0.0
C109 C 0.20243 0.87404 0.13894 0.0
O110 O 0.24946 0.8763 0.12625 0.0
O111 O 0.14783 0.84235 0.12987 0.0
O112 O 0.21434 0.86876 0.06803 0.0
O113 O 0.05728 0.77122 0.07122 0.0
C114 C 0.03006 0.80276 0.06906 0.0
O115 O 0.04757 0.85306 0.08303 0.0
O116 O 0.15221 0.71771 0.09523 0.0
Mg117 Mg 0.34998 0.13817 0.26274 0.0
C118 C 0.30389 0.20752 0.23547 0.0
O119 O 0.25703 0.1688 0.25019 0.0
C120 C 0.44109 0.09731 0.27465 0.0
O121 O 0.38855 0.04512 0.27948 0.0
C122 C 0.32001 0.13971 0.32059 0.0
O123 O 0.34067 0.10078 0.32393 0.0
O124 O 0.3171 0.15779 0.29829 0.0
O125 O 0.35505 0.2078 0.23646 0.0
O126 O 0.28601 0.04916 0.24461 0.0
C127 C 0.303 0.04459 0.2221 0.0
O128 O 0.35591 0.09028 0.2129 0.0
O129 O 0.43996 0.14554 0.26724 0.0
Mg130 Mg 0.21283 0.33754 0.42736 0.0
C131 C 0.25048 0.27459 0.38942 0.0
O132 O 0.23344 0.30706 0.37539 0.0
C133 C 0.15957 0.34974 0.47769 0.0
O134 O 0.18023 0.4065 0.46869 0.0
C135 C 0.32657 0.45996 0.44182 0.0
O136 O 0.3237 0.42573 0.46142 0.0
O137 O 0.28582 0.43566 0.42452 0.0
O138 O 0.24825 0.27794 0.41359 0.0
O139 O 0.13708 0.31605 0.40177 0.0
C140 C 0.10895 0.3465 0.39914 0.0
O141 O 0.1255 0.39745 0.41254 0.0
O142 O 0.1699 0.31164 0.46517 0.0
Mg143 Mg 0.87251 0.2314 0.59435 0.0
C144 C 0.80313 0.10902 0.56723 0.0
O145 O 0.83221 0.09589 0.5847 0.0
C146 C 0.88983 0.35579 0.61039 0.0
O147 O 0.94545 0.36487 0.61534 0.0
C148 C 0.88783 0.20415 0.65079 0.0
O149 O 0.9236 0.26517 0.65312 0.0
O150 O 0.86484 0.18049 0.62926 0.0
O151 O 0.80784 0.16271 0.56739 0.0
O152 O 0.96375 0.27689 0.57523 0.0
C153 C 0.97988 0.24595 0.56072 0.0
O154 O 0.9453 0.18464 0.55991 0.0
O155 O 0.84823 0.30319 0.60164 0.0
C156 C 0.19737 0.62626 0.12707 0.0
C157 C 0.14789 0.62983 0.11562 0.0
C158 C 0.10264 0.52172 0.10016 0.0
C159 C 0.15061 0.5171 0.11256 0.0
N160 N 0.23938 0.56118 0.14036 0.0
N161 N 0.04751 0.57868 0.09543 0.0
C162 C 0.19653 0.56819 0.12691 0.0
C163 C 0.09899 0.57698 0.1032 0.0
N164 N 0.24659 0.67918 0.13705 0.0
N165 N 0.06039 0.47316 0.0855 0.0
H166 H 0.04267 0.61798 0.09764 0.0
H167 H 1.00715 0.53972 0.08881 0.0
H168 H 0.058 0.42987 0.0844 0.0
H169 H 0.02966 0.47666 0.07327 0.0
H170 H 0.2875 0.68179 0.14312 0.0
H171 H 0.2486 0.72237 0.13762 0.0
H172 H 0.26921 0.59364 0.15361 0.0
H173 H 0.24292 0.52093 0.13943 0.0
C174 C 0.58086 0.07922 0.25869 0.0
C175 C 0.61148 0.09439 0.28253 0.0
C176 C 0.53465 0.11967 0.29997 0.0
C177 C 0.50101 0.09887 0.27696 0.0
N178 N 0.48749 0.05326 0.23514 0.0
N179 N 0.61261 0.11946 0.32714 0.0
C180 C 0.52281 0.07702 0.25651 0.0
C181 C 0.58733 0.11249 0.30351 0.0
N182 N 0.60852 0.0694 0.23787 0.0
N183 N 0.51642 0.14669 0.31838 0.0
H184 H 0.65045 0.11348 0.33069 0.0
H185 H 0.59287 0.12573 0.34371 0.0
H186 H 0.47707 0.15115 0.31669 0.0
H187 H 0.54281 0.16908 0.33438 0.0
H188 H 0.59219 0.06512 0.21938 0.0
H189 H 0.65099 0.07065 0.23867 0.0
H190 H 0.49671 0.02944 0.22091 0.0
H191 H 0.44637 0.05391 0.2323 0.0
C192 C 0.42472 0.63824 0.44433 0.0
C193 C 0.48453 0.64776 0.43773 0.0
C194 C 0.44018 0.53413 0.43302 0.0
C195 C 0.38013 0.52474 0.43893 0.0
N196 N 0.31259 0.56726 0.44564 0.0
N197 N 0.54722 0.6071 0.42029 0.0
C198 C 0.37155 0.57672 0.44299 0.0
C199 C 0.4917 0.59628 0.43053 0.0
N200 N 0.4192 0.68733 0.45324 0.0
N201 N 0.44806 0.48355 0.42998 0.0
H202 H 0.58553 0.65206 0.41765 0.0
H203 H 0.55379 0.57227 0.41223 0.0
H204 H 0.411 0.43734 0.42989 0.0
H205 H 0.49155 0.48699 0.42893 0.0
H206 H 0.37825 0.68226 0.46115 0.0
H207 H 0.45692 0.73297 0.45458 0.0
H208 H 0.30269 0.60346 0.4458 0.0
H209 H 0.27275 0.52278 0.44577 0.0
C210 C 0.8532 0.48566 0.59819 0.0
C211 C 0.86234 0.51245 0.62288 0.0
C212 C 0.87836 0.42944 0.63987 0.0
C213 C 0.87656 0.40722 0.61474 0.0
N214 N 0.87021 0.41853 0.5694 0.0
N215 N 0.89203 0.51544 0.66672 0.0
C216 C 0.86571 0.43622 0.59371 0.0
C217 C 0.87677 0.48563 0.64366 0.0
N218 N 0.83088 0.50634 0.57919 0.0
N219 N 0.87997 0.39586 0.66018 0.0
H220 H 0.89178 0.55683 0.67033 0.0
H221 H 0.91001 0.50213 0.68167 0.0
H222 H 0.88086 0.35433 0.6581 0.0
H223 H 0.87462 0.40588 0.67904 0.0
H224 H 0.81704 0.48438 0.56155 0.0
H225 H 0.82075 0.54213 0.58184 0.0
H226 H 0.87001 0.44278 0.55326 0.0
H227 H 0.87921 0.38251 0.56528 0.0
C228 C 0.4872 0.91274 0.75132 0.0
C229 C 0.51344 0.89899 0.77243 0.0
C230 C 0.42719 0.88656 0.79988 0.0
C231 C 0.39924 0.89689 0.77847 0.0
N232 N 0.39456 0.90445 0.73284 0.0
N233 N 0.50119 0.85805 0.81507 0.0
C234 C 0.4268 0.90525 0.75386 0.0
C235 C 0.48114 0.88131 0.7962 0.0
N236 N 0.52114 0.93626 0.72929 0.0
N237 N 0.40434 0.88505 0.82389 0.0
H238 H 0.53983 0.85236 0.81284 0.0
H239 H 0.47603 0.83856 0.83187 0.0
H240 H 0.36544 0.88953 0.82753 0.0
H241 H 0.42713 0.88483 0.84036 0.0
H242 H 0.50707 0.95384 0.71441 0.0
H243 H 0.56593 0.94345 0.72665 0.0
H244 H 0.40956 0.90389 0.71425 0.0
H245 H 0.34972 0.89785 0.73396 0.0
C246 C 0.57639 0.4358 0.9645 0.0
C247 C 0.54487 0.40596 0.94171 0.0
C248 C 0.63259 0.48571 0.91621 0.0
C249 C 0.66543 0.51349 0.93898 0.0
N250 N 0.67354 0.51004 0.98465 0.0
N251 N 0.54686 0.39475 0.89612 0.0
C252 C 0.639 0.48664 0.96307 0.0
C253 C 0.57407 0.42881 0.9176 0.0
N254 N 0.54524 0.41821 0.98741 0.0
N255 N 0.65703 0.51414 0.89325 0.0
H256 H 0.50446 0.35245 0.89649 0.0
H257 H 0.5686 0.40523 0.87827 0.0
H258 H 0.70121 0.55387 0.89128 0.0
H259 H 0.6322 0.50068 0.87633 0.0
H260 H 0.56316 0.44284 1.00429 0.0
H261 H 0.49904 0.38205 0.98935 0.0
H262 H 0.65973 0.48796 1.00234 0.0
H263 H 0.71829 0.5493 0.98462 0.0
C264 C 0.278 0.22646 0.19205 0.0
C265 C 0.29458 0.24748 0.21739 0.0
C266 C 0.26718 0.32845 0.21047 0.0
C267 C 0.23925 0.29938 0.18708 0.0
N268 N 0.21152 0.21491 0.15685 0.0
N269 N 0.30621 0.31849 0.25127 0.0
C270 C 0.24391 0.24758 0.17785 0.0
C271 C 0.29016 0.29901 0.22669 0.0
N272 N 0.29364 0.18529 0.18176 0.0
N273 N 0.27247 0.38459 0.2169 0.0
H274 H 0.32649 0.30012 0.26312 0.0
H275 H 0.2969 0.35061 0.26025 0.0
H276 H 0.25718 0.40781 0.20509 0.0
H277 H 0.29712 0.41092 0.23263 0.0
H278 H 0.2879 0.17274 0.16257 0.0
H279 H 0.31805 0.16852 0.19186 0.0
H280 H 0.20766 0.17263 0.1512 0.0
H281 H 0.18334 0.22616 0.1463 0.0
C282 C 0.94974 0.23221 0.37249 0.0
C283 C 0.95909 0.25339 0.34684 0.0
C284 C 0.05906 0.34603 0.358 0.0
C285 C 0.0538 0.32003 0.38255 0.0
N286 N 0.99529 0.23992 0.41396 0.0
N287 N 0.02026 0.33017 0.31471 0.0
C288 C 0.999 0.26395 0.39014 0.0
C289 C 1.01283 0.31071 0.33953 0.0
N290 N 0.89408 0.18143 0.37985 0.0
N291 N 0.10851 0.40419 0.35239 0.0
H292 H 0.98559 0.30737 0.30113 0.0
H293 H 0.06127 0.36729 0.30721 0.0
H294 H 0.1437 0.43044 0.36537 0.0
H295 H 0.11273 0.4286 0.33569 0.0
H296 H 0.88174 0.16717 0.3987 0.0
H297 H 0.85783 0.15545 0.36728 0.0
H298 H 0.96063 0.19545 0.4198 0.0
H299 H 0.02891 0.26367 0.42783 0.0
C300 C 0.73033 0.99883 0.5533 0.0
C301 C 0.76998 0.0628 0.54662 0.0
C302 C 0.75426 0.03336 0.50148 0.0
C303 C 0.72586 0.96925 0.50841 0.0
N304 N 0.6947 0.89128 0.54179 0.0
N305 N 0.82721 0.14003 0.51358 0.0
C306 C 0.71508 0.95174 0.53455 0.0
C307 C 0.78337 0.08021 0.52048 0.0
N308 N 0.70682 0.98305 0.57755 0.0
N309 N 0.75336 0.04951 0.47669 0.0
H310 H 0.85215 0.17588 0.52654 0.0
H311 H 0.84336 0.1527 0.49489 0.0
H312 H 0.73126 0.01614 0.4624 0.0
H313 H 0.76841 0.09535 0.47094 0.0
H314 H 0.67331 0.93751 0.58286 0.0
H315 H 0.71562 0.01657 0.59157 0.0
H316 H 0.69327 0.87816 0.56074 0.0
H317 H 0.68483 0.85521 0.52898 0.0
C318 C 0.73146 0.67784 0.6941 0.0
C319 C 0.78894 0.72046 0.68204 0.0
C320 C 0.79289 0.8072 0.70612 0.0
C321 C 0.73228 0.76616 0.71624 0.0
N322 N 0.63928 0.66381 0.71665 0.0
N323 N 0.86736 0.8277 0.67221 0.0
C324 C 0.7002 0.70166 0.7094 0.0
C325 C 0.81719 0.78576 0.68655 0.0
N326 N 0.70707 0.61476 0.69109 0.0
N327 N 0.82943 0.86536 0.71642 0.0
H328 H 0.88786 0.81444 0.65791 0.0
H329 H 0.88509 0.87596 0.67299 0.0
H330 H 0.81538 0.88188 0.73191 0.0
H331 H 0.87632 0.89438 0.71153 0.0
H332 H 0.66896 0.58117 0.70159 0.0
H333 H 0.72756 0.59606 0.67918 0.0
H334 H 0.61161 0.61801 0.71017 0.0
H335 H 0.6146 0.67991 0.7274 0.0
C336 C 0.99885 0.72476 0.8843 0.0
C337 C 0.93817 0.70082 0.87435 0.0
C338 C 0.98309 0.72963 0.83129 0.0
C339 C 0.04353 0.76369 0.8418 0.0
N340 N 0.1093 0.79844 0.87884 0.0
N341 N 0.87275 0.68755 0.8383 0.0
C342 C 0.05179 0.76185 0.86843 0.0
C343 C 0.93007 0.70418 0.84776 0.0
N344 N 1.0057 0.71161 0.9089 0.0
N345 N 0.97643 0.7212 0.80551 0.0
H346 H 0.83246 0.6699 0.84951 0.0
H347 H 0.86606 0.69642 0.81957 0.0
H348 H 1.0145 0.7384 0.79294 0.0
H349 H 0.93376 0.69172 0.79693 0.0
H350 H 0.04856 0.72286 0.91658 0.0
H351 H 0.96767 0.68376 0.92084 0.0
H352 H 0.11656 0.80469 0.89841 0.0
H353 H 0.14927 0.82655 0.86799 0.0
C354 C 0.28912 0.03079 0.05298 0.0
C355 C 0.25252 0.96687 0.04602 0.0
C356 C 0.277 0.99674 1.00108 0.0
C357 C 0.30236 0.06062 1.00787 0.0
N358 N 0.32442 0.13775 0.04096 0.0
N359 N 0.20422 0.88923 1.01267 0.0
C360 C 0.30727 0.07783 0.03402 0.0
C361 C 0.2451 0.94954 1.01987 0.0
N362 N 0.30647 0.04654 0.07776 0.0
N363 N 0.28359 0.98118 0.97667 0.0
H364 H 0.17777 0.8531 1.02551 0.0
H365 H 0.19205 0.87628 0.99375 0.0
H366 H 0.30802 1.01484 0.96259 0.0
H367 H 0.27083 0.93565 0.97121 0.0
H368 H 0.33789 0.09222 0.08351 0.0
H369 H 0.2947 1.01297 0.09204 0.0
H370 H 0.32159 0.15051 0.05968 0.0
H371 H 0.33568 0.17358 0.02795 0.0
C372 C 0.26978 0.3021 0.06045 0.0
C373 C 0.21926 0.3132 0.05847 0.0
C374 C 0.20536 0.27857 1.01383 0.0
C375 C 0.25959 0.27346 1.0153 0.0
N376 N 0.35101 0.29302 0.03855 0.0
N377 N 0.14494 0.32175 0.03225 0.0
C378 C 0.29438 0.2896 0.0381 0.0
C379 C 0.18848 0.304 0.03487 0.0
N380 N 0.29179 0.29935 0.08388 0.0
N381 N 0.16973 0.25861 0.99244 0.0
H382 H 0.13195 0.34111 0.04713 0.0
H383 H 0.12551 0.32223 1.01486 0.0
H384 H 0.18247 0.24274 0.97626 0.0
H385 H 0.12593 0.2543 0.99127 0.0
H386 H 0.32393 0.2847 0.08657 0.0
H387 H 0.27289 0.3046 0.10095 0.0
H388 H 0.38111 0.31108 0.05394 0.0
H389 H 0.37071 0.28341 1.02279 0.0
C390 C 0.91889 0.15242 0.21235 0.0
C391 C 0.87781 0.17414 0.21948 0.0
C392 C 0.92201 0.25275 0.18532 0.0
C393 C 0.96963 0.2381 0.18108 0.0
N394 N 1.01688 0.17669 0.19223 0.0
N395 N 0.84673 0.25193 0.21517 0.0
C396 C 0.96869 0.18808 0.19479 0.0
C397 C 0.88052 0.22575 0.20644 0.0
N398 N 0.90959 0.09704 0.22202 0.0
N399 N 0.91596 0.29205 0.1689 0.0
H400 H 0.81744 0.23562 0.23116 0.0
H401 H 0.85243 0.29383 0.20806 0.0
H402 H 0.94486 0.3116 0.15291 0.0
H403 H 0.87844 0.29974 0.16958 0.0
H404 H 0.93393 0.07541 0.21559 0.0
H405 H 0.87333 0.06961 0.23477 0.0
H406 H 0.02254 0.14639 0.20413 0.0
H407 H 0.05383 0.20058 0.17941 0.0
C408 C 0.8216 0.97644 0.36325 0.0
C409 C 0.78521 0.96699 0.34121 0.0
C410 C 0.70109 0.86846 0.35942 0.0
C411 C 0.73912 0.87605 0.38068 0.0
N412 N 0.84099 0.92901 0.39961 0.0
N413 N 0.69666 0.89758 0.31575 0.0
C414 C 0.80112 0.92751 0.38156 0.0
C415 C 0.72689 0.91088 0.3385 0.0
N416 N 0.87372 0.03337 0.36761 0.0
N417 N 0.63935 0.82319 0.35976 0.0
H418 H 0.7146 0.92726 0.29996 0.0
H419 H 0.65715 0.85456 0.31178 0.0
H420 H 0.61801 0.79184 0.37483 0.0
H421 H 0.60792 0.82022 0.34612 0.0
H422 H 0.89756 0.04495 0.38479 0.0
H423 H 0.89003 0.0713 0.35516 0.0
H424 H 0.88847 0.96215 0.39962 0.0
H425 H 0.82802 0.89332 0.41301 0.0
C426 C 0.84018 0.79942 0.54918 0.0
C427 C 0.85149 0.74873 0.54664 0.0
C428 C 0.82727 0.74067 0.50107 0.0
C429 C 0.81786 0.79245 0.50351 0.0
N430 N 0.82719 0.87926 0.52827 0.0
N431 N 0.86824 0.67927 0.51967 0.0
C432 C 0.82864 0.82472 0.52704 0.0
C433 C 0.84878 0.7218 0.52238 0.0
N434 N 0.83604 0.82055 0.57288 0.0
N435 N 0.81408 0.70863 0.47854 0.0
H436 H 0.88482 0.665 0.53486 0.0
H437 H 0.87313 0.66222 0.50213 0.0
H438 H 0.80115 0.72311 0.46225 0.0
H439 H 0.81266 0.66605 0.47633 0.0
H440 H 0.82042 0.85197 0.57611 0.0
H441 H 0.84296 0.80283 0.58971 0.0
H442 H 0.84115 0.9085 0.54415 0.0
H443 H 0.81699 0.89827 0.51266 0.0
C444 C 0.1556 0.81054 0.69797 0.0
C445 C 0.1477 0.84964 0.71575 0.0
C446 C 0.04998 0.82579 0.69536 0.0
C447 C 0.05912 0.78874 0.67692 0.0
N448 N 0.12749 0.75803 0.65701 0.0
N449 N 0.09608 0.90639 0.72777 0.0
C450 C 0.11422 0.78504 0.67708 0.0
C451 C 0.0976 0.86106 0.71325 0.0
N452 N 0.20013 0.79458 0.7018 0.0
N453 N 0.99438 0.82442 0.69684 0.0
H454 H 0.13059 0.93345 0.74091 0.0
H455 H 0.06421 0.92135 0.72503 0.0
H456 H 0.95797 0.79863 0.68439 0.0
H457 H 0.98231 0.8445 0.71171 0.0
H458 H 0.20315 0.7605 0.69115 0.0
H459 H 0.23101 0.81136 0.71697 0.0
H460 H 0.16993 0.75953 0.65476 0.0
H461 H 0.09843 0.73945 0.6413 0.0
C462 C 0.35945 0.12001 0.87111 0.0
C463 C 0.31848 0.11235 0.89168 0.0
C464 C 0.23423 0.0195 0.87068 0.0
C465 C 0.27825 0.02115 0.85278 0.0
N466 N 0.38254 0.07208 0.83528 0.0
N467 N 0.21588 0.05565 0.91113 0.0
C468 C 0.34065 0.07175 0.85253 0.0
C469 C 0.25513 0.06308 0.89124 0.0
N470 N 0.41603 0.17408 0.86925 0.0
N471 N 0.17238 0.97611 0.8679 0.0
H472 H 0.22797 0.08815 0.92577 0.0
H473 H 0.17207 0.01598 0.91377 0.0
H474 H 0.15603 0.9435 0.85308 0.0
H475 H 0.13682 0.97569 0.87876 0.0
H476 H 0.44613 0.18534 0.85364 0.0
H477 H 0.43024 0.21065 0.88234 0.0
H478 H 0.43038 0.10333 0.83599 0.0
H479 H 0.36967 0.03866 0.82087 0.0
C480 C 0.81113 0.88356 0.83716 0.0
C481 C 0.75356 0.85587 0.82414 0.0
C482 C 0.70495 0.77771 0.85835 0.0
C483 C 0.76451 0.79869 0.86877 0.0
N484 N 0.87608 0.86861 0.86698 0.0
N485 N 0.64637 0.77098 0.82094 0.0
C486 C 0.81812 0.85142 0.85812 0.0
C487 C 0.70024 0.80198 0.83453 0.0
N488 N 0.85884 0.94106 0.82968 0.0
N489 N 0.65279 0.73448 0.87134 0.0
H490 H 0.64048 0.78536 0.80311 0.0
H491 H 0.60897 0.72747 0.82632 0.0
H492 H 0.65495 0.71605 0.8889 0.0
H493 H 0.60768 0.72188 0.86605 0.0
H494 H 0.8999 0.9664 0.83988 0.0
H495 H 0.8548 0.96622 0.81465 0.0
H496 H 0.91723 0.90165 0.85791 0.0
H497 H 0.88337 0.84671 0.88238 0.0
C498 C 0.96576 0.81349 1.00491 0.0
C499 C 0.91303 0.75222 1.0033 0.0
C500 C 0.92955 0.73049 0.04725 0.0
C501 C 0.98668 0.78844 0.04758 0.0
N502 N 0.06346 0.88256 1.02573 0.0
N503 N 0.84447 0.65108 1.0222 0.0
C504 C 1.00555 0.82981 1.02631 0.0
C505 C 0.89464 0.71042 1.02435 0.0
N506 N 0.9784 0.85588 0.98581 0.0
N507 N 0.90826 0.69539 0.06904 0.0
H508 H 0.81565 0.6362 1.00633 0.0
H509 H 0.83294 0.61567 0.03551 0.0
H510 H 0.93277 0.70917 0.08609 0.0
H511 H 0.8643 0.65554 0.07094 0.0
H512 H 1.01183 0.90329 0.9872 0.0
H513 H 0.95217 0.84497 0.96926 0.0
H514 H 0.08317 0.91014 1.00953 0.0
H515 H 0.09443 0.89645 0.04083 0.0
C516 C 0.20143 0.95798 0.16638 0.0
C517 C 0.21449 0.90848 0.16349 0.0
C518 C 0.27497 0.94068 0.20293 0.0
C519 C 0.26321 0.99087 0.20538 0.0
N520 N 0.2022 0.03747 0.19411 0.0
N521 N 0.24848 0.84226 0.18229 0.0
C522 C 0.22174 0.99595 0.18867 0.0
C523 C 0.24645 0.89651 0.18289 0.0
N524 N 0.17365 0.97165 0.14715 0.0
N525 N 0.31515 0.93663 0.21927 0.0
H526 H 0.22691 0.8085 0.16811 0.0
H527 H 0.26622 0.8279 0.19696 0.0
H528 H 0.33366 0.96603 0.23503 0.0
H529 H 0.33218 0.9062 0.21665 0.0
H530 H 0.17021 1.01191 0.14677 0.0
H531 H 0.1576 0.94507 0.1306 0.0
H532 H 0.16769 0.03982 0.18399 0.0
H533 H 0.2165 0.06572 0.21033 0.0
C534 C 0.23675 0.14895 0.34418 0.0
C535 C 0.29979 0.16364 0.34253 0.0
C536 C 0.3288 0.24385 0.37578 0.0
C537 C 0.26623 0.23064 0.37666 0.0
N538 N 0.15802 0.16136 0.36707 0.0
N539 N 0.40324 0.21488 0.36014 0.0
C540 C 0.21934 0.18009 0.36252 0.0
C541 C 0.34485 0.20736 0.35966 0.0
N542 N 0.1939 0.10622 0.32775 0.0
N543 N 0.37348 0.29379 0.38911 0.0
H544 H 0.41771 0.19137 0.34782 0.0
H545 H 0.43612 0.2409 0.3739 0.0
H546 H 0.36312 0.32052 0.40149 0.0
H547 H 0.42113 0.3111 0.38698 0.0
H548 H 0.14928 0.09923 0.32553 0.0
H549 H 0.20387 0.07906 0.31543 0.0
H550 H 0.12086 0.12145 0.35916 0.0
H551 H 0.14398 0.18285 0.38067 0.0
C552 C 0.13078 0.30518 0.52211 0.0
C553 C 0.11579 0.32699 0.49986 0.0
C554 C 1.01694 0.30589 0.51973 0.0
C555 C 0.02919 0.27852 0.54097 0.0
N556 N 0.09445 0.24657 0.5618 0.0
N557 N 0.0401 0.33814 0.47556 0.0
C558 C 0.08523 0.27657 0.54199 0.0
C559 C 0.05794 0.32529 0.49823 0.0
N560 N 0.18928 0.31372 0.52456 0.0
N561 N 0.96566 0.31277 0.51987 0.0
H562 H 0.06789 0.35147 0.45914 0.0
H563 H 0.99541 0.33001 0.47222 0.0
H564 H 0.93182 0.29553 0.5343 0.0
H565 H 0.95876 0.33962 0.50652 0.0
H566 H 0.20548 0.30479 0.54129 0.0
H567 H 0.22369 0.33468 0.51042 0.0
H568 H 0.13056 0.23684 0.56224 0.0
H569 H 0.0637 0.22814 0.57731 0.0
C570 C 0.82626 0.12657 0.71587 0.0
C571 C 0.82804 0.07054 0.71239 0.0
C572 C 0.88262 0.11055 0.67144 0.0
C573 C 0.87246 0.16196 0.67317 0.0
N574 N 0.82608 0.2143 0.69565 0.0
N575 N 0.84698 1.00385 0.68423 0.0
C576 C 0.84251 0.16922 0.69513 0.0
C577 C 0.85375 0.06118 0.68956 0.0
N578 N 0.80997 0.1395 0.73913 0.0
N579 N 0.92073 0.10931 0.6527 0.0
H580 H 0.82307 0.96507 0.69617 0.0
H581 H 0.85917 0.99286 0.66669 0.0
H582 H 0.94377 0.14536 0.63939 0.0
H583 H 0.93462 0.07598 0.65204 0.0
H584 H 0.81389 0.18247 0.74357 0.0
H585 H 0.79819 0.10944 0.75475 0.0
H586 H 0.79808 0.21709 0.70994 0.0
H587 H 0.83549 0.24556 0.6807 0.0
loop_
_geom_bond_atom_site_label_1
_geom_bond_atom_site_label_2
_geom_bond_distance
_geom_bond_site_symmetry_2
_ccdc_geom_bond_type
Mg0 O7 2.141 . S
Mg0 O8 2.048 . S
Mg0 O9 2.048 . S
Mg0 O12 2.141 . S
C1 O2 1.313 . S
C1 O8 1.195 . S
O2 C1 1.313 . S
C3 O4 1.245 . S
C3 O12 1.289 . S
O4 C3 1.245 . S
C5 O6 1.245 . S
C5 O7 1.289 . S
O6 C5 1.245 . S
O7 Mg0 2.141 . S
O7 C5 1.289 . S
O8 Mg0 2.048 . S
O8 C1 1.195 . S
O9 Mg0 2.048 . S
O9 C10 1.195 . S
C10 O9 1.195 . S
C10 O11 1.313 . S
O11 C10 1.313 . S
O12 Mg0 2.141 . S
O12 C3 1.289 . S
Mg13 O20 2.141 . S
Mg13 O21 2.048 . S
Mg13 O22 2.048 . S
Mg13 O25 2.141 . S
C14 O15 1.313 . S
C14 O21 1.195 . S
O15 C14 1.313 . S
C16 O17 1.245 . S
C16 O25 1.289 . S
O17 C16 1.245 . S
C18 O19 1.245 . S
C18 O20 1.289 . S
O19 C18 1.245 . S
O20 Mg13 2.141 . S
O20 C18 1.289 . S
O21 Mg13 2.048 . S
O21 C14 1.195 . S
O22 Mg13 2.048 . S
O22 C23 1.195 . S
C23 O22 1.195 . S
C23 O24 1.313 . S
O24 C23 1.313 . S
O25 Mg13 2.141 . S
O25 C16 1.289 . S
Mg26 O33 2.141 . S
Mg26 O34 2.048 . S
Mg26 O35 2.048 . S
Mg26 O38 2.141 . S
C27 O28 1.313 . S
C27 O34 1.195 . S
O28 C27 1.313 . S
C29 O30 1.245 . S
C29 O38 1.289 . S
O30 C29 1.245 . S
C31 O32 1.245 . S
C31 O33 1.289 . S
O32 C31 1.245 . S
O33 Mg26 2.141 . S
O33 C31 1.289 . S
O34 Mg26 2.048 . S
O34 C27 1.195 . S
O35 Mg26 2.048 . S
O35 C36 1.195 . S
C36 O35 1.195 . S
C36 O37 1.313 . S
O37 C36 1.313 . S
O38 Mg26 2.141 . S
O38 C29 1.289 . S
Mg39 O46 2.141 . S
Mg39 O47 2.048 . S
Mg39 O48 2.048 . S
Mg39 O51 2.141 . S
C40 O41 1.313 . S
C40 O47 1.195 . S
O41 C40 1.313 . S
C42 O43 1.245 . S
C42 O51 1.289 . S
O43 C42 1.245 . S
C44 O45 1.245 . S
C44 O46 1.289 . S
O45 C44 1.245 . S
O46 Mg39 2.141 . S
O46 C44 1.289 . S
O47 Mg39 2.048 . S
O47 C40 1.195 . S
O48 Mg39 2.048 . S
O48 C49 1.195 . S
C49 O48 1.195 . S
C49 O50 1.313 . S
O50 C49 1.313 . S
O51 Mg39 2.141 . S
O51 C42 1.289 . S
Mg52 O59 2.141 . S
Mg52 O60 2.048 . S
Mg52 O61 2.048 . S
Mg52 O64 2.141 . S
C53 O54 1.313 . S
C53 O60 1.195 . S
O54 C53 1.313 . S
C55 O56 1.245 . S
C55 O64 1.289 . S
O56 C55 1.245 . S
C57 O58 1.245 . S
C57 O59 1.289 . S
O58 C57 1.245 . S
O59 Mg52 2.141 . S
O59 C57 1.289 . S
O60 Mg52 2.048 . S
O60 C53 1.195 . S
O61 Mg52 2.048 . S
O61 C62 1.195 . S
C62 O61 1.195 . S
C62 O63 1.313 . S
O63 C62 1.313 . S
O64 Mg52 2.141 . S
O64 C55 1.289 . S
Mg65 O72 2.141 . S
Mg65 O73 2.048 . S
Mg65 O74 2.048 . S
Mg65 O77 2.141 . S
C66 O67 1.313 . S
C66 O73 1.195 . S
O67 C66 1.313 . S
C68 O69 1.245 . S
C68 O77 1.289 . S
O69 C68 1.245 . S
C70 O71 1.245 . S
C70 O72 1.289 . S
O71 C70 1.245 . S
O72 Mg65 2.141 . S
O72 C70 1.289 . S
O73 Mg65 2.048 . S
O73 C66 1.195 . S
O74 Mg65 2.048 . S
O74 C75 1.195 . S
C75 O74 1.195 . S
C75 O76 1.313 . S
O76 C75 1.313 . S
O77 Mg65 2.141 . S
O77 C68 1.289 . S
Mg78 O85 2.141 . S
Mg78 O86 2.048 . S
Mg78 O87 2.048 . S
Mg78 O90 2.141 . S
C79 O80 1.313 . S
C79 O86 1.195 . S
O80 C79 1.313 . S
C81 O82 1.245 . S
C81 O90 1.289 . S
O82 C81 1.245 . S
C83 O84 1.245 . S
C83 O85 1.289 . S
O84 C83 1.245 . S
O85 Mg78 2.141 . S
O85 C83 1.289 . S
O86 Mg78 2.048 . S
O86 C79 1.195 . S
O87 Mg78 2.048 . S
O87 C88 1.195 . S
C88 O87 1.195 . S
C88 O89 1.313 . S
O89 C88 1.313 . S
O90 Mg78 2.141 . S
O90 C81 1.289 . S
Mg91 O98 2.141 . S
Mg91 O99 2.048 . S
Mg91 O100 2.048 . S
Mg91 O103 2.141 . S
C92 O93 1.313 . S
C92 O99 1.195 . S
O93 C92 1.313 . S
C94 O95 1.245 . S
C94 O103 1.289 . S
O95 C94 1.245 . S
C96 O97 1.245 . S
C96 O98 1.289 . S
O97 C96 1.245 . S
O98 Mg91 2.141 . S
O98 C96 1.289 . S
O99 Mg91 2.048 . S
O99 C92 1.195 . S
O100 Mg91 2.048 . S
O100 C101 1.195 . S
C101 O100 1.195 . S
C101 O102 1.313 . S
O102 C101 1.313 . S
O103 Mg91 2.141 . S
O103 C94 1.289 . S
Mg104 O111 2.141 . S
Mg104 O112 2.048 . S
Mg104 O113 2.048 . S
Mg104 O116 2.141 . S
C105 O106 1.313 . S
C105 O112 1.195 . S
O106 C105 1.313 . S
C107 O108 1.245 . S
C107 O116 1.289 . S
O108 C107 1.245 . S
C109 O110 1.245 . S
C109 O111 1.289 . S
O110 C109 1.245 . S
O111 Mg104 2.141 . S
O111 C109 1.289 . S
O112 Mg104 2.048 . S
O112 C105 1.195 . S
O113 Mg104 2.048 . S
O113 C114 1.195 . S
C114 O113 1.195 . S
C114 O115 1.313 . S
O115 C114 1.313 . S
O116 Mg104 2.141 . S
O116 C107 1.289 . S
Mg117 O124 2.141 . S
Mg117 O125 2.048 . S
Mg117 O126 2.048 . S
Mg117 O129 2.141 . S
C118 O119 1.313 . S
C118 O125 1.195 . S
O119 C118 1.313 . S
C120 O121 1.245 . S
C120 O129 1.289 . S
O121 C120 1.245 . S
C122 O123 1.245 . S
C122 O124 1.289 . S
O123 C122 1.245 . S
O124 Mg117 2.141 . S
O124 C122 1.289 . S
O125 Mg117 2.048 . S
O125 C118 1.195 . S
O126 Mg117 2.048 . S
O126 C127 1.195 . S
C127 O126 1.195 . S
C127 O128 1.313 . S
O128 C127 1.313 . S
O129 Mg117 2.141 . S
O129 C120 1.289 . S
Mg130 O137 2.141 . S
Mg130 O138 2.048 . S
Mg130 O139 2.048 . S
Mg130 O142 2.141 . S
C131 O132 1.313 . S
C131 O138 1.195 . S
O132 C131 1.313 . S
C133 O134 1.245 . S
C133 O142 1.289 . S
O134 C133 1.245 . S
C135 O136 1.245 . S
C135 O137 1.289 . S
O136 C135 1.245 . S
O137 Mg130 2.141 . S
O137 C135 1.289 . S
O138 Mg130 2.048 . S
O138 C131 1.195 . S
O139 Mg130 2.048 . S
O139 C140 1.195 . S
C140 O139 1.195 . S
C140 O141 1.313 . S
O141 C140 1.313 . S
O142 Mg130 2.141 . S
O142 C133 1.289 . S
Mg143 O150 2.141 . S
Mg143 O151 2.048 . S
Mg143 O152 2.048 . S
Mg143 O155 2.141 . S
C144 O145 1.313 . S
C144 O151 1.195 . S
O145 C144 1.313 . S
C146 O147 1.245 . S
C146 O155 1.289 . S
O147 C146 1.245 . S
C148 O149 1.245 . S
C148 O150 1.289 . S
O149 C148 1.245 . S
O150 Mg143 2.141 . S
O150 C148 1.289 . S
O151 Mg143 2.048 . S
O151 C144 1.195 . S
O152 Mg143 2.048 . S
O152 C153 1.195 . S
C153 O152 1.195 . S
C153 O154 1.313 . S
O154 C153 1.313 . S
O155 Mg143 2.141 . S
O155 C146 1.289 . S
C156 C157 1.363 . S
C156 C162 1.379 . S
C156 N164 1.356 . S
C157 C156 1.363 . S
C157 C163 1.363 . S
C158 C159 1.363 . S
C158 C163 1.379 . S
C158 N165 1.356 . S
C159 C158 1.363 . S
C159 C162 1.363 . S
N160 C162 1.356 . S
N160 H172 0.984 . S
N160 H173 0.985 . S
N161 C163 1.356 . S
N161 H166 0.984 . S
N161 H167 0.985 1_455 S
C162 C156 1.379 . S
C162 C159 1.363 . S
C162 N160 1.356 . S
C163 C157 1.363 . S
C163 C158 1.379 . S
C163 N161 1.356 . S
N164 C156 1.356 . S
N164 H170 0.984 . S
N164 H171 0.984 . S
N165 C158 1.356 . S
N165 H168 0.984 . S
N165 H169 0.985 1_455 S
H166 N161 0.984 . S
H167 N161 0.985 1_655 S
H168 N165 0.984 . S
H169 N165 0.985 1_655 S
H170 N164 0.984 . S
H171 N164 0.984 . S
H172 N160 0.984 . S
H173 N160 0.985 . S
C174 C175 1.363 . S
C174 C180 1.379 . S
C174 N182 1.356 . S
C175 C174 1.363 . S
C175 C181 1.363 . S
C176 C177 1.363 . S
C176 C181 1.379 . S
C176 N183 1.356 . S
C177 C176 1.363 . S
C177 C180 1.363 . S
N178 C180 1.356 . S
N178 H190 0.984 1_545 S
N178 H191 0.985 . S
N179 C181 1.356 . S
N179 H184 0.984 . S
N179 H185 0.985 . S
C180 C174 1.379 . S
C180 C177 1.363 . S
C180 N178 1.356 . S
C181 C175 1.363 . S
C181 C176 1.379 . S
C181 N179 1.356 . S
N182 C174 1.356 . S
N182 H188 0.984 1_545 S
N182 H189 0.984 . S
N183 C176 1.356 . S
N183 H186 0.984 . S
N183 H187 0.985 . S
H184 N179 0.984 . S
H185 N179 0.985 . S
H186 N183 0.984 . S
H187 N183 0.985 . S
H188 N182 0.984 1_565 S
H189 N182 0.984 . S
H190 N178 0.984 1_565 S
H191 N178 0.985 . S
C192 C193 1.363 . S
C192 C198 1.379 . S
C192 N200 1.356 . S
C193 C192 1.363 . S
C193 C199 1.363 . S
C194 C195 1.363 . S
C194 C199 1.379 . S
C194 N201 1.356 . S
C195 C194 1.363 . S
C195 C198 1.363 . S
N196 C198 1.356 . S
N196 H208 0.984 . S
N196 H209 0.985 . S
N197 C199 1.356 . S
N197 H202 0.984 . S
N197 H203 0.985 . S
C198 C192 1.379 . S
C198 C195 1.363 . S
C198 N196 1.356 . S
C199 C193 1.363 . S
C199 C194 1.379 . S
C199 N197 1.356 . S
N200 C192 1.356 . S
N200 H206 0.984 . S
N200 H207 0.984 . S
N201 C194 1.356 . S
N201 H204 0.984 . S
N201 H205 0.985 . S
H202 N197 0.984 . S
H203 N197 0.985 . S
H204 N201 0.984 . S
H205 N201 0.985 . S
H206 N200 0.984 . S
H207 N200 0.984 . S
H208 N196 0.984 . S
H209 N196 0.985 . S
C210 C211 1.363 . S
C210 C216 1.379 . S
C210 N218 1.356 . S
C211 C210 1.363 . S
C211 C217 1.363 . S
C212 C213 1.363 . S
C212 C217 1.379 . S
C212 N219 1.356 . S
C213 C212 1.363 . S
C213 C216 1.363 . S
N214 C216 1.356 . S
N214 H226 0.984 . S
N214 H227 0.985 . S
N215 C217 1.356 . S
N215 H220 0.984 . S
N215 H221 0.985 . S
C216 C210 1.379 . S
C216 C213 1.363 . S
C216 N214 1.356 . S
C217 C211 1.363 . S
C217 C212 1.379 . S
C217 N215 1.356 . S
N218 C210 1.356 . S
N218 H224 0.984 . S
N218 H225 0.984 . S
N219 C212 1.356 . S
N219 H222 0.984 . S
N219 H223 0.985 . S
H220 N215 0.984 . S
H221 N215 0.985 . S
H222 N219 0.984 . S
H223 N219 0.985 . S
H224 N218 0.984 . S
H225 N218 0.984 . S
H226 N214 0.984 . S
H227 N214 0.985 . S
C228 C229 1.363 . S
C228 C234 1.379 . S
C228 N236 1.356 . S
C229 C228 1.363 . S
C229 C235 1.363 . S
C230 C231 1.363 . S
C230 C235 1.379 . S
C230 N237 1.356 . S
C231 C230 1.363 . S
C231 C234 1.363 . S
N232 C234 1.356 . S
N232 H244 0.984 . S
N232 H245 0.985 . S
N233 C235 1.356 . S
N233 H238 0.984 . S
N233 H239 0.985 1_565 S
C234 C228 1.379 . S
C234 C231 1.363 . S
C234 N232 1.356 . S
C235 C229 1.363 . S
C235 C230 1.379 . S
C235 N233 1.356 . S
N236 C228 1.356 . S
N236 H242 0.984 . S
N236 H243 0.984 . S
N237 C230 1.356 . S
N237 H240 0.984 . S
N237 H241 0.985 1_565 S
H238 N233 0.984 . S
H239 N233 0.985 1_545 S
H240 N237 0.984 . S
H241 N237 0.985 1_545 S
H242 N236 0.984 . S
H243 N236 0.984 . S
H244 N232 0.984 . S
H245 N232 0.985 . S
C246 C247 1.363 . S
C246 C252 1.379 . S
C246 N254 1.356 . S
C247 C246 1.363 . S
C247 C253 1.363 . S
C248 C249 1.363 . S
C248 C253 1.379 . S
C248 N255 1.356 . S
C249 C248 1.363 . S
C249 C252 1.363 . S
N250 C252 1.356 . S
N250 H262 0.984 . S
N250 H263 0.985 . S
N251 C253 1.356 . S
N251 H256 0.984 . S
N251 H257 0.985 . S
C252 C246 1.379 . S
C252 C249 1.363 . S
C252 N250 1.356 . S
C253 C247 1.363 . S
C253 C248 1.379 . S
C253 N251 1.356 . S
N254 C246 1.356 . S
N254 H260 0.984 . S
N254 H261 0.984 . S
N255 C248 1.356 . S
N255 H258 0.984 . S
N255 H259 0.985 . S
H256 N251 0.984 . S
H257 N251 0.985 . S
H258 N255 0.984 . S
H259 N255 0.985 . S
H260 N254 0.984 . S
H261 N254 0.984 . S
H262 N250 0.984 . S
H263 N250 0.985 . S
C264 C265 1.363 . S
C264 C270 1.379 . S
C264 N272 1.356 . S
C265 C264 1.363 . S
C265 C271 1.363 . S
C266 C267 1.363 . S
C266 C271 1.379 . S
C266 N273 1.356 . S
C267 C266 1.363 . S
C267 C270 1.363 . S
N268 C270 1.356 . S
N268 H280 0.984 . S
N268 H281 0.985 . S
N269 C271 1.356 . S
N269 H274 0.984 . S
N269 H275 0.985 . S
C270 C264 1.379 . S
C270 C267 1.363 . S
C270 N268 1.356 . S
C271 C265 1.363 . S
C271 C266 1.379 . S
C271 N269 1.356 . S
N272 C264 1.356 . S
N272 H278 0.984 . S
N272 H279 0.984 . S
N273 C266 1.356 . S
N273 H276 0.984 . S
N273 H277 0.985 . S
H274 N269 0.984 . S
H275 N269 0.985 . S
H276 N273 0.984 . S
H277 N273 0.985 . S
H278 N272 0.984 . S
H279 N272 0.984 . S
H280 N268 0.984 . S
H281 N268 0.985 . S
C282 C283 1.363 . S
C282 C288 1.379 . S
C282 N290 1.356 . S
C283 C282 1.363 . S
C283 C289 1.363 1_655 S
C284 C285 1.363 . S
C284 C289 1.379 . S
C284 N291 1.356 . S
C285 C284 1.363 . S
C285 C288 1.363 1_455 S
N286 C288 1.356 . S
N286 H298 0.984 . S
N286 H299 0.985 1_655 S
N287 C289 1.356 . S
N287 H292 0.984 1_455 S
N287 H293 0.985 . S
C288 C282 1.379 . S
C288 C285 1.363 1_655 S
C288 N286 1.356 . S
C289 C283 1.363 1_455 S
C289 C284 1.379 . S
C289 N287 1.356 . S
N290 C282 1.356 . S
N290 H296 0.984 . S
N290 H297 0.984 . S
N291 C284 1.356 . S
N291 H294 0.984 . S
N291 H295 0.985 . S
H292 N287 0.984 1_655 S
H293 N287 0.985 . S
H294 N291 0.984 . S
H295 N291 0.985 . S
H296 N290 0.984 . S
H297 N290 0.984 . S
H298 N286 0.984 . S
H299 N286 0.985 1_455 S
C300 C301 1.363 1_565 S
C300 C306 1.379 . S
C300 N308 1.356 1_565 S
C301 C300 1.363 1_545 S
C301 C307 1.363 . S
C302 C303 1.363 1_545 S
C302 C307 1.379 . S
C302 N309 1.356 1_545 S
C303 C302 1.363 1_565 S
C303 C306 1.363 . S
N304 C306 1.356 . S
N304 H316 0.984 . S
N304 H317 0.985 . S
N305 C307 1.356 . S
N305 H310 0.984 . S
N305 H311 0.985 . S
C306 C300 1.379 . S
C306 C303 1.363 . S
C306 N304 1.356 . S
C307 C301 1.363 . S
C307 C302 1.379 . S
C307 N305 1.356 . S
N308 C300 1.356 1_545 S
N308 H314 0.984 1_545 S
N308 H315 0.984 . S
N309 C302 1.356 1_565 S
N309 H312 0.984 . S
N309 H313 0.985 1_565 S
H310 N305 0.984 . S
H311 N305 0.985 . S
H312 N309 0.984 . S
H313 N309 0.985 1_545 S
H314 N308 0.984 1_565 S
H315 N308 0.984 . S
H316 N304 0.984 . S
H317 N304 0.985 . S
C318 C319 1.363 . S
C318 C324 1.379 . S
C318 N326 1.356 . S
C319 C318 1.363 . S
C319 C325 1.363 . S
C320 C321 1.363 . S
C320 C325 1.379 . S
C320 N327 1.356 . S
C321 C320 1.363 . S
C321 C324 1.363 . S
N322 C324 1.356 . S
N322 H334 0.984 . S
N322 H335 0.985 . S
N323 C325 1.356 . S
N323 H328 0.984 . S
N323 H329 0.985 . S
C324 C318 1.379 . S
C324 C321 1.363 . S
C324 N322 1.356 . S
C325 C319 1.363 . S
C325 C320 1.379 . S
C325 N323 1.356 . S
N326 C318 1.356 . S
N326 H332 0.984 . S
N326 H333 0.984 . S
N327 C320 1.356 . S
N327 H330 0.984 . S
N327 H331 0.985 . S
H328 N323 0.984 . S
H329 N323 0.985 . S
H330 N327 0.984 . S
H331 N327 0.985 . S
H332 N326 0.984 . S
H333 N326 0.984 . S
H334 N322 0.984 . S
H335 N322 0.985 . S
C336 C337 1.363 . S
C336 C342 1.379 1_655 S
C336 N344 1.356 . S
C337 C336 1.363 . S
C337 C343 1.363 . S
C338 C339 1.363 . S
C338 C343 1.379 1_455 S
C338 N345 1.356 . S
C339 C338 1.363 . S
C339 C342 1.363 . S
N340 C342 1.356 . S
N340 H352 0.984 . S
N340 H353 0.985 . S
N341 C343 1.356 . S
N341 H346 0.984 . S
N341 H347 0.985 . S
C342 C336 1.379 1_455 S
C342 C339 1.363 . S
C342 N340 1.356 . S
C343 C337 1.363 . S
C343 C338 1.379 1_655 S
C343 N341 1.356 . S
N344 C336 1.356 . S
N344 H350 0.984 . S
N344 H351 0.984 . S
N345 C338 1.356 . S
N345 H348 0.984 . S
N345 H349 0.985 . S
H346 N341 0.984 . S
H347 N341 0.985 . S
H348 N345 0.984 . S
H349 N345 0.985 . S
H350 N344 0.984 . S
H351 N344 0.984 . S
H352 N340 0.984 . S
H353 N340 0.985 . S
C354 C355 1.363 1_545 S
C354 C360 1.379 . S
C354 N362 1.356 1_545 S
C355 C354 1.363 1_565 S
C355 C361 1.363 1_554 S
C356 C357 1.363 1_565 S
C356 C361 1.379 . S
C356 N363 1.356 1_565 S
C357 C356 1.363 1_545 S
C357 C360 1.363 1_556 S
N358 C360 1.353 1_556 S
N358 H370 0.967 1_556 S
N358 H371 1.006 . S
N359 C361 1.353 1_554 S
N359 H364 1.006 . S
N359 H365 0.967 1_554 S
C360 C354 1.379 . S
C360 C357 1.363 1_554 S
C360 N358 1.353 1_554 S
C361 C355 1.363 1_556 S
C361 C356 1.379 . S
C361 N359 1.353 1_556 S
N362 C354 1.356 1_565 S
N362 H368 0.984 1_565 S
N362 H369 0.984 . S
N363 C356 1.356 1_545 S
N363 H366 0.984 . S
N363 H367 0.985 1_545 S
H364 N359 1.006 . S
H365 N359 0.967 1_556 S
H366 N363 0.984 . S
H367 N363 0.985 1_565 S
H368 N362 0.984 1_545 S
H369 N362 0.984 . S
H370 N358 0.967 1_554 S
H371 N358 1.006 . S
C372 C373 1.363 . S
C372 C378 1.379 . S
C372 N380 1.356 . S
C373 C372 1.363 . S
C373 C379 1.363 . S
C374 C375 1.363 . S
C374 C379 1.379 . S
C374 N381 1.356 1_554 S
C375 C374 1.363 . S
C375 C378 1.363 . S
N376 C378 1.356 . S
N376 H388 0.984 . S
N376 H389 0.985 . S
N377 C379 1.356 . S
N377 H382 0.984 . S
N377 H383 0.985 . S
C378 C372 1.379 . S
C378 C375 1.363 . S
C378 N376 1.356 . S
C379 C373 1.363 . S
C379 C374 1.379 . S
C379 N377 1.356 . S
N380 C372 1.356 . S
N380 H386 0.984 . S
N380 H387 0.984 . S
N381 C374 1.356 1_556 S
N381 H384 0.984 . S
N381 H385 0.985 . S
H382 N377 0.984 . S
H383 N377 0.985 . S
H384 N381 0.984 . S
H385 N381 0.985 . S
H386 N380 0.984 . S
H387 N380 0.984 . S
H388 N376 0.984 . S
H389 N376 0.985 . S
C390 C391 1.363 . S
C390 C396 1.379 . S
C390 N398 1.356 . S
C391 C390 1.363 . S
C391 C397 1.363 . S
C392 C393 1.364 . S
C392 C397 1.379 . S
C392 N399 1.357 . S
C393 C392 1.364 . S
C393 C396 1.363 . S
N394 C396 1.356 1_455 S
N394 H406 0.984 . S
N394 H407 0.985 . S
N395 C397 1.356 . S
N395 H400 0.984 . S
N395 H401 0.985 . S
C396 C390 1.379 . S
C396 C393 1.363 . S
C396 N394 1.356 1_655 S
C397 C391 1.363 . S
C397 C392 1.379 . S
C397 N395 1.356 . S
N398 C390 1.356 . S
N398 H404 0.984 . S
N398 H405 0.984 . S
N399 C392 1.357 . S
N399 H402 0.975 1_655 S
N399 H403 0.994 . S
H400 N395 0.984 . S
H401 N395 0.985 . S
H402 N399 0.975 1_455 S
H403 N399 0.994 . S
H404 N398 0.984 . S
H405 N398 0.984 . S
H406 N394 0.984 . S
H407 N394 0.985 . S
C408 C409 1.363 1_545 S
C408 C414 1.379 1_545 S
C408 N416 1.356 . S
C409 C408 1.363 1_565 S
C409 C415 1.364 . S
C410 C411 1.363 . S
C410 C415 1.379 . S
C410 N417 1.356 . S
C411 C410 1.363 . S
C411 C414 1.363 . S
N412 C414 1.356 . S
N412 H424 0.984 . S
N412 H425 0.985 . S
N413 C415 1.356 . S
N413 H418 0.984 . S
N413 H419 0.985 . S
C414 C408 1.379 1_565 S
C414 C411 1.363 . S
C414 N412 1.356 . S
C415 C409 1.364 . S
C415 C410 1.379 . S
C415 N413 1.356 . S
N416 C408 1.356 . S
N416 H422 0.984 . S
N416 H423 0.984 . S
N417 C410 1.356 . S
N417 H420 0.984 . S
N417 H421 0.985 . S
H418 N413 0.984 . S
H419 N413 0.985 . S
H420 N417 0.984 . S
H421 N417 0.985 . S
H422 N416 0.984 . S
H423 N416 0.984 . S
H424 N412 0.984 . S
H425 N412 0.985 . S
C426 C427 1.363 . S
C426 C432 1.379 . S
C426 N434 1.356 . S
C427 C426 1.363 . S
C427 C433 1.363 . S
C428 C429 1.363 . S
C428 C433 1.379 . S
C428 N435 1.356 . S
C429 C428 1.363 . S
C429 C432 1.363 . S
N430 C432 1.356 . S
N430 H442 0.984 . S
N430 H443 0.985 . S
N431 C433 1.356 . S
N431 H436 0.984 . S
N431 H437 0.985 . S
C432 C426 1.379 . S
C432 C429 1.363 . S
C432 N430 1.356 . S
C433 C427 1.363 . S
C433 C428 1.379 . S
C433 N431 1.356 . S
N434 C426 1.356 . S
N434 H440 0.984 . S
N434 H441 0.984 . S
N435 C428 1.356 . S
N435 H438 0.984 . S
N435 H439 0.985 . S
H436 N431 0.984 . S
H437 N431 0.985 . S
H438 N435 0.984 . S
H439 N435 0.985 . S
H440 N434 0.984 . S
H441 N434 0.984 . S
H442 N430 0.984 . S
H443 N430 0.985 . S
C444 C445 1.363 . S
C444 C450 1.379 . S
C444 N452 1.356 . S
C445 C444 1.363 . S
C445 C451 1.363 . S
C446 C447 1.363 . S
C446 C451 1.379 . S
C446 N453 1.356 1_455 S
C447 C446 1.363 . S
C447 C450 1.364 . S
N448 C450 1.356 . S
N448 H460 0.984 . S
N448 H461 0.985 1_455 S
N449 C451 1.356 . S
N449 H454 0.984 . S
N449 H455 0.985 . S
C450 C444 1.379 . S
C450 C447 1.364 . S
C450 N448 1.356 . S
C451 C445 1.363 . S
C451 C446 1.379 . S
C451 N449 1.356 . S
N452 C444 1.356 . S
N452 H458 0.984 . S
N452 H459 0.984 . S
N453 C446 1.356 1_655 S
N453 H456 0.984 . S
N453 H457 0.985 . S
H454 N449 0.984 . S
H455 N449 0.985 . S
H456 N453 0.984 . S
H457 N453 0.985 . S
H458 N452 0.984 . S
H459 N452 0.984 . S
H460 N448 0.984 . S
H461 N448 0.985 1_655 S
C462 C463 1.363 . S
C462 C468 1.379 1_545 S
C462 N470 1.356 . S
C463 C462 1.363 . S
C463 C469 1.363 . S
C464 C465 1.364 . S
C464 C469 1.379 . S
C464 N471 1.356 . S
C465 C464 1.364 . S
C465 C468 1.363 1_545 S
N466 C468 1.356 . S
N466 H478 0.984 . S
N466 H479 0.985 . S
N467 C469 1.356 . S
N467 H472 0.984 . S
N467 H473 0.985 . S
C468 C462 1.379 1_565 S
C468 C465 1.363 1_565 S
C468 N466 1.356 . S
C469 C463 1.363 . S
C469 C464 1.379 . S
C469 N467 1.356 . S
N470 C462 1.356 . S
N470 H476 0.984 . S
N470 H477 0.984 . S
N471 C464 1.356 . S
N471 H474 0.984 1_545 S
N471 H475 0.985 . S
H472 N467 0.984 . S
H473 N467 0.985 . S
H474 N471 0.984 1_565 S
H475 N471 0.985 . S
H476 N470 0.984 . S
H477 N470 0.984 . S
H478 N466 0.984 . S
H479 N466 0.985 . S
C480 C481 1.363 . S
C480 C486 1.379 . S
C480 N488 1.356 . S
C481 C480 1.363 . S
C481 C487 1.363 . S
C482 C483 1.363 . S
C482 C487 1.379 . S
C482 N489 1.356 . S
C483 C482 1.363 . S
C483 C486 1.363 . S
N484 C486 1.356 . S
N484 H496 0.984 . S
N484 H497 0.985 . S
N485 C487 1.356 . S
N485 H490 0.984 . S
N485 H491 0.985 . S
C486 C480 1.379 . S
C486 C483 1.363 . S
C486 N484 1.356 . S
C487 C481 1.363 . S
C487 C482 1.379 . S
C487 N485 1.356 . S
N488 C480 1.356 . S
N488 H494 0.984 . S
N488 H495 0.984 . S
N489 C482 1.356 . S
N489 H492 0.984 . S
N489 H493 0.985 . S
H490 N485 0.984 . S
H491 N485 0.985 . S
H492 N489 0.984 . S
H493 N489 0.985 . S
H494 N488 0.984 . S
H495 N488 0.984 . S
H496 N484 0.984 . S
H497 N484 0.985 . S
C498 C499 1.363 . S
C498 C504 1.379 1_655 S
C498 N506 1.356 . S
C499 C498 1.363 . S
C499 C505 1.363 . S
C500 C501 1.364 . S
C500 C505 1.379 . S
C500 N507 1.356 1_556 S
C501 C500 1.364 . S
C501 C504 1.363 1_655 S
N502 C504 1.356 . S
N502 H514 0.984 . S
N502 H515 0.985 . S
N503 C505 1.356 . S
N503 H508 0.984 . S
N503 H509 0.985 . S
C504 C498 1.379 1_455 S
C504 C501 1.363 1_455 S
C504 N502 1.356 . S
C505 C499 1.363 . S
C505 C500 1.379 . S
C505 N503 1.356 . S
N506 C498 1.356 . S
N506 H512 0.984 . S
N506 H513 0.984 . S
N507 C500 1.356 1_554 S
N507 H510 0.984 . S
N507 H511 0.985 . S
H508 N503 0.984 . S
H509 N503 0.985 . S
H510 N507 0.984 . S
H511 N507 0.985 . S
H512 N506 0.984 . S
H513 N506 0.984 . S
H514 N502 0.984 . S
H515 N502 0.985 . S
C516 C517 1.363 . S
C516 C522 1.379 . S
C516 N524 1.356 . S
C517 C516 1.363 . S
C517 C523 1.363 . S
C518 C519 1.364 1_545 S
C518 C523 1.378 1_545 S
C518 N525 1.357 . S
C519 C518 1.364 1_565 S
C519 C522 1.363 . S
N520 C522 1.356 . S
N520 H532 0.984 . S
N520 H533 0.985 1_565 S
N521 C523 1.356 . S
N521 H526 0.984 . S
N521 H527 0.985 . S
C522 C516 1.379 . S
C522 C519 1.363 . S
C522 N520 1.356 . S
C523 C517 1.363 . S
C523 C518 1.378 1_565 S
C523 N521 1.356 . S
N524 C516 1.356 . S
N524 H530 0.984 . S
N524 H531 0.984 . S
N525 C518 1.357 . S
N525 H528 0.984 . S
N525 H529 0.985 . S
H526 N521 0.984 . S
H527 N521 0.985 . S
H528 N525 0.984 . S
H529 N525 0.985 . S
H530 N524 0.984 . S
H531 N524 0.984 . S
H532 N520 0.984 . S
H533 N520 0.985 1_545 S
C534 C535 1.363 . S
C534 C540 1.379 . S
C534 N542 1.356 . S
C535 C534 1.363 . S
C535 C541 1.363 . S
C536 C537 1.363 . S
C536 C541 1.379 . S
C536 N543 1.356 . S
C537 C536 1.363 . S
C537 C540 1.363 . S
N538 C540 1.356 . S
N538 H550 0.984 . S
N538 H551 0.985 . S
N539 C541 1.356 . S
N539 H544 0.984 . S
N539 H545 0.985 . S
C540 C534 1.379 . S
C540 C537 1.363 . S
C540 N538 1.356 . S
C541 C535 1.363 . S
C541 C536 1.379 . S
C541 N539 1.356 . S
N542 C534 1.356 . S
N542 H548 0.984 . S
N542 H549 0.984 . S
N543 C536 1.356 . S
N543 H546 0.984 . S
N543 H547 0.985 . S
H544 N539 0.984 . S
H545 N539 0.985 . S
H546 N543 0.984 . S
H547 N543 0.985 . S
H548 N542 0.984 . S
H549 N542 0.984 . S
H550 N538 0.984 . S
H551 N538 0.985 . S
C552 C553 1.363 . S
C552 C558 1.379 . S
C552 N560 1.356 . S
C553 C552 1.363 . S
C553 C559 1.363 . S
C554 C555 1.363 1_655 S
C554 C559 1.379 1_655 S
C554 N561 1.356 . S
C555 C554 1.363 1_455 S
C555 C558 1.364 . S
N556 C558 1.356 . S
N556 H568 0.984 . S
N556 H569 0.985 . S
N557 C559 1.356 . S
N557 H562 0.984 . S
N557 H563 0.985 . S
C558 C552 1.379 . S
C558 C555 1.364 . S
C558 N556 1.356 . S
C559 C553 1.363 . S
C559 C554 1.379 1_455 S
C559 N557 1.356 . S
N560 C552 1.356 . S
N560 H566 0.984 . S
N560 H567 0.984 . S
N561 C554 1.356 . S
N561 H564 0.984 . S
N561 H565 0.985 . S
H562 N557 0.984 . S
H563 N557 0.985 . S
H564 N561 0.984 . S
H565 N561 0.985 . S
H566 N560 0.984 . S
H567 N560 0.984 . S
H568 N556 0.984 . S
H569 N556 0.985 . S
C570 C571 1.364 . S
C570 C576 1.379 . S
C570 N578 1.356 . S
C571 C570 1.364 . S
C571 C577 1.363 1_545 S
C572 C573 1.363 . S
C572 C577 1.379 1_545 S
C572 N579 1.356 . S
C573 C572 1.363 . S
C573 C576 1.363 . S
N574 C576 1.356 . S
N574 H586 0.984 . S
N574 H587 0.985 . S
N575 C577 1.356 . S
N575 H580 0.984 . S
N575 H581 0.985 . S
C576 C570 1.379 . S
C576 C573 1.363 . S
C576 N574 1.356 . S
C577 C571 1.363 1_565 S
C577 C572 1.379 1_565 S
C577 N575 1.356 . S
N578 C570 1.356 . S
N578 H584 0.984 . S
N578 H585 0.990 . S
N579 C572 1.356 . S
N579 H582 0.984 . S
N579 H583 0.985 . S
H580 N575 0.984 . S
H581 N575 0.985 . S
H582 N579 0.984 . S
H583 N579 0.985 . S
H584 N578 0.984 . S
H585 N578 0.990 . S
H586 N574 0.984 . S
H587 N574 0.985 . S
C157 C107 1.685 . S
C159 C5 1.604 . S
C175 C16 1.685 . S
C177 C120 1.685 . S
C193 C29 1.685 . S
C195 C135 1.603 . S
C211 C44 1.604 . S
C213 C146 1.685 . S
C229 C81 1.685 . S
C231 C55 1.685 . S
C247 C68 1.685 . S
C249 C96 1.603 . S
C265 C118 1.501 . S
C267 C10 1.458 . S
C283 C14 1.501 . S
C285 C140 1.458 . S
C301 C144 1.501 . S
C303 C27 1.501 . S
C319 C49 1.458 . S
C321 C79 1.501 . S
C337 C101 1.458 . S
C339 C53 1.501 . S
C355 C105 1.501 . S
C357 C66 1.501 . S
C373 C3 1.839 . S
C375 C75 1.774 1_554 S
C391 C18 1.809 . S
C393 C1 1.834 1_655 S
C409 C23 1.774 1_565 S
C411 C31 1.809 . S
C427 C42 1.839 . S
C429 C36 1.774 . S
C445 C57 1.809 . S
C447 C40 1.834 1_455 S
C463 C70 1.809 . S
C465 C62 1.774 1_545 S
C481 C83 1.809 . S
C483 C92 1.834 . S
C499 C94 1.839 . S
C501 C114 1.774 1_656 S
C517 C109 1.809 . S
C519 C127 1.774 1_565 S
C535 C122 1.809 . S
C537 C131 1.834 . S
C553 C133 1.839 . S
C555 C153 1.774 1_455 S
C571 C88 1.774 1_545 S
C573 C148 1.809 . S
