# Generated by pormake.
# Topology uky, (4)-cn, num edge types: 1
# Building blocks:
#     Node 0, Type 0, BuildingBlock: CEKHIL_clean_sbu_0, # of connection points: 4
#     Node 1, Type 0, BuildingBlock: CEKHIL_clean_sbu_0, # of connection points: 4
#     Node 2, Type 0, BuildingBlock: CEKHIL_clean_sbu_0, # of connection points: 4
#     Node 3, Type 0, BuildingBlock: CEKHIL_clean_sbu_0, # of connection points: 4
#     Node 4, Type 0, BuildingBlock: CEKHIL_clean_sbu_0, # of connection points: 4
#     Node 5, Type 0, BuildingBlock: CEKHIL_clean_sbu_0, # of connection points: 4
#     Node 6, Type 0, BuildingBlock: CEKHIL_clean_sbu_0, # of connection points: 4
#     Node 7, Type 0, BuildingBlock: CEKHIL_clean_sbu_0, # of connection points: 4
#     Node 8, Type 0, BuildingBlock: CEKHIL_clean_sbu_0, # of connection points: 4
#     Node 9, Type 0, BuildingBlock: CEKHIL_clean_sbu_0, # of connection points: 4
#     Node 10, Type 0, BuildingBlock: CEKHIL_clean_sbu_0, # of connection points: 4
#     Node 11, Type 0, BuildingBlock: CEKHIL_clean_sbu_0, # of connection points: 4
#     Node 12, Type 0, BuildingBlock: CEKHIL_clean_sbu_0, # of connection points: 4
#     Node 13, Type 0, BuildingBlock: CEKHIL_clean_sbu_0, # of connection points: 4
#     Node 14, Type 0, BuildingBlock: CEKHIL_clean_sbu_0, # of connection points: 4
#     Node 15, Type 0, BuildingBlock: CEKHIL_clean_sbu_0, # of connection points: 4
#     Node 16, Type 0, BuildingBlock: CEKHIL_clean_sbu_0, # of connection points: 4
#     Node 17, Type 0, BuildingBlock: CEKHIL_clean_sbu_0, # of connection points: 4
#     Node 18, Type 0, BuildingBlock: CEKHIL_clean_sbu_0, # of connection points: 4
#     Node 19, Type 0, BuildingBlock: CEKHIL_clean_sbu_0, # of connection points: 4
#     Node 20, Type 0, BuildingBlock: CEKHIL_clean_sbu_0, # of connection points: 4
#     Node 21, Type 0, BuildingBlock: CEKHIL_clean_sbu_0, # of connection points: 4
#     Node 22, Type 0, BuildingBlock: CEKHIL_clean_sbu_0, # of connection points: 4
#     Node 23, Type 0, BuildingBlock: CEKHIL_clean_sbu_0, # of connection points: 4
#     Node 24, Type 0, BuildingBlock: CEKHIL_clean_sbu_0, # of connection points: 4
#     Node 25, Type 0, BuildingBlock: CEKHIL_clean_sbu_0, # of connection points: 4
#     Node 26, Type 0, BuildingBlock: CEKHIL_clean_sbu_0, # of connection points: 4
#     Node 27, Type 0, BuildingBlock: CEKHIL_clean_sbu_0, # of connection points: 4
#     Node 28, Type 0, BuildingBlock: CEKHIL_clean_sbu_0, # of connection points: 4
#     Node 29, Type 0, BuildingBlock: CEKHIL_clean_sbu_0, # of connection points: 4
#     Node 30, Type 0, BuildingBlock: CEKHIL_clean_sbu_0, # of connection points: 4
#     Node 31, Type 0, BuildingBlock: CEKHIL_clean_sbu_0, # of connection points: 4
#     Node 32, Type 0, BuildingBlock: CEKHIL_clean_sbu_0, # of connection points: 4
#     Node 33, Type 0, BuildingBlock: CEKHIL_clean_sbu_0, # of connection points: 4
#     Node 34, Type 0, BuildingBlock: CEKHIL_clean_sbu_0, # of connection points: 4
#     Node 35, Type 0, BuildingBlock: CEKHIL_clean_sbu_0, # of connection points: 4
#     Node 36, Type 0, BuildingBlock: CEKHIL_clean_sbu_0, # of connection points: 4
#     Node 37, Type 0, BuildingBlock: CEKHIL_clean_sbu_0, # of connection points: 4
#     Node 38, Type 0, BuildingBlock: CEKHIL_clean_sbu_0, # of connection points: 4
#     Node 39, Type 0, BuildingBlock: CEKHIL_clean_sbu_0, # of connection points: 4
#     Node 40, Type 0, BuildingBlock: CEKHIL_clean_sbu_0, # of connection points: 4
#     Node 41, Type 0, BuildingBlock: CEKHIL_clean_sbu_0, # of connection points: 4
#     Node 42, Type 0, BuildingBlock: CEKHIL_clean_sbu_0, # of connection points: 4
#     Node 43, Type 0, BuildingBlock: CEKHIL_clean_sbu_0, # of connection points: 4
#     Node 44, Type 0, BuildingBlock: CEKHIL_clean_sbu_0, # of connection points: 4
#     Node 45, Type 0, BuildingBlock: CEKHIL_clean_sbu_0, # of connection points: 4
#     Node 46, Type 0, BuildingBlock: CEKHIL_clean_sbu_0, # of connection points: 4
#     Node 47, Type 0, BuildingBlock: CEKHIL_clean_sbu_0, # of connection points: 4
#     Edge 48, Type (0, 0), BuildingBlock: KIFKEQ_clean_linker_1, # of connection points: 2
#     Edge 49, Type (0, 0), BuildingBlock: KIFKEQ_clean_linker_1, # of connection points: 2
#     Edge 50, Type (0, 0), BuildingBlock: KIFKEQ_clean_linker_1, # of connection points: 2
#     Edge 51, Type (0, 0), BuildingBlock: KIFKEQ_clean_linker_1, # of connection points: 2
#     Edge 52, Type (0, 0), BuildingBlock: KIFKEQ_clean_linker_1, # of connection points: 2
#     Edge 53, Type (0, 0), BuildingBlock: KIFKEQ_clean_linker_1, # of connection points: 2
#     Edge 54, Type (0, 0), BuildingBlock: KIFKEQ_clean_linker_1, # of connection points: 2
#     Edge 55, Type (0, 0), BuildingBlock: KIFKEQ_clean_linker_1, # of connection points: 2
#     Edge 56, Type (0, 0), BuildingBlock: KIFKEQ_clean_linker_1, # of connection points: 2
#     Edge 57, Type (0, 0), BuildingBlock: KIFKEQ_clean_linker_1, # of connection points: 2
#     Edge 58, Type (0, 0), BuildingBlock: KIFKEQ_clean_linker_1, # of connection points: 2
#     Edge 59, Type (0, 0), BuildingBlock: KIFKEQ_clean_linker_1, # of connection points: 2
#     Edge 60, Type (0, 0), BuildingBlock: KIFKEQ_clean_linker_1, # of connection points: 2
#     Edge 61, Type (0, 0), BuildingBlock: KIFKEQ_clean_linker_1, # of connection points: 2
#     Edge 62, Type (0, 0), BuildingBlock: KIFKEQ_clean_linker_1, # of connection points: 2
#     Edge 63, Type (0, 0), BuildingBlock: KIFKEQ_clean_linker_1, # of connection points: 2
#     Edge 64, Type (0, 0), BuildingBlock: KIFKEQ_clean_linker_1, # of connection points: 2
#     Edge 65, Type (0, 0), BuildingBlock: KIFKEQ_clean_linker_1, # of connection points: 2
#     Edge 66, Type (0, 0), BuildingBlock: KIFKEQ_clean_linker_1, # of connection points: 2
#     Edge 67, Type (0, 0), BuildingBlock: KIFKEQ_clean_linker_1, # of connection points: 2
#     Edge 68, Type (0, 0), BuildingBlock: KIFKEQ_clean_linker_1, # of connection points: 2
#     Edge 69, Type (0, 0), BuildingBlock: KIFKEQ_clean_linker_1, # of connection points: 2
#     Edge 70, Type (0, 0), BuildingBlock: KIFKEQ_clean_linker_1, # of connection points: 2
#     Edge 71, Type (0, 0), BuildingBlock: KIFKEQ_clean_linker_1, # of connection points: 2
#     Edge 72, Type (0, 0), BuildingBlock: KIFKEQ_clean_linker_1, # of connection points: 2
#     Edge 73, Type (0, 0), BuildingBlock: KIFKEQ_clean_linker_1, # of connection points: 2
#     Edge 74, Type (0, 0), BuildingBlock: KIFKEQ_clean_linker_1, # of connection points: 2
#     Edge 75, Type (0, 0), BuildingBlock: KIFKEQ_clean_linker_1, # of connection points: 2
#     Edge 76, Type (0, 0), BuildingBlock: KIFKEQ_clean_linker_1, # of connection points: 2
#     Edge 77, Type (0, 0), BuildingBlock: KIFKEQ_clean_linker_1, # of connection points: 2
#     Edge 78, Type (0, 0), BuildingBlock: KIFKEQ_clean_linker_1, # of connection points: 2
#     Edge 79, Type (0, 0), BuildingBlock: KIFKEQ_clean_linker_1, # of connection points: 2
#     Edge 80, Type (0, 0), BuildingBlock: KIFKEQ_clean_linker_1, # of connection points: 2
#     Edge 81, Type (0, 0), BuildingBlock: KIFKEQ_clean_linker_1, # of connection points: 2
#     Edge 82, Type (0, 0), BuildingBlock: KIFKEQ_clean_linker_1, # of connection points: 2
#     Edge 83, Type (0, 0), BuildingBlock: KIFKEQ_clean_linker_1, # of connection points: 2
#     Edge 84, Type (0, 0), BuildingBlock: KIFKEQ_clean_linker_1, # of connection points: 2
#     Edge 85, Type (0, 0), BuildingBlock: KIFKEQ_clean_linker_1, # of connection points: 2
#     Edge 86, Type (0, 0), BuildingBlock: KIFKEQ_clean_linker_1, # of connection points: 2
#     Edge 87, Type (0, 0), BuildingBlock: KIFKEQ_clean_linker_1, # of connection points: 2
#     Edge 88, Type (0, 0), BuildingBlock: KIFKEQ_clean_linker_1, # of connection points: 2
#     Edge 89, Type (0, 0), BuildingBlock: KIFKEQ_clean_linker_1, # of connection points: 2
#     Edge 90, Type (0, 0), BuildingBlock: KIFKEQ_clean_linker_1, # of connection points: 2
#     Edge 91, Type (0, 0), BuildingBlock: KIFKEQ_clean_linker_1, # of connection points: 2
#     Edge 92, Type (0, 0), BuildingBlock: KIFKEQ_clean_linker_1, # of connection points: 2
#     Edge 93, Type (0, 0), BuildingBlock: KIFKEQ_clean_linker_1, # of connection points: 2
#     Edge 94, Type (0, 0), BuildingBlock: KIFKEQ_clean_linker_1, # of connection points: 2
#     Edge 95, Type (0, 0), BuildingBlock: KIFKEQ_clean_linker_1, # of connection points: 2
#     Edge 96, Type (0, 0), BuildingBlock: KIFKEQ_clean_linker_1, # of connection points: 2
#     Edge 97, Type (0, 0), BuildingBlock: KIFKEQ_clean_linker_1, # of connection points: 2
#     Edge 98, Type (0, 0), BuildingBlock: KIFKEQ_clean_linker_1, # of connection points: 2
#     Edge 99, Type (0, 0), BuildingBlock: KIFKEQ_clean_linker_1, # of connection points: 2
#     Edge 100, Type (0, 0), BuildingBlock: KIFKEQ_clean_linker_1, # of connection points: 2
#     Edge 101, Type (0, 0), BuildingBlock: KIFKEQ_clean_linker_1, # of connection points: 2
#     Edge 102, Type (0, 0), BuildingBlock: KIFKEQ_clean_linker_1, # of connection points: 2
#     Edge 103, Type (0, 0), BuildingBlock: KIFKEQ_clean_linker_1, # of connection points: 2
#     Edge 104, Type (0, 0), BuildingBlock: KIFKEQ_clean_linker_1, # of connection points: 2
#     Edge 105, Type (0, 0), BuildingBlock: KIFKEQ_clean_linker_1, # of connection points: 2
#     Edge 106, Type (0, 0), BuildingBlock: KIFKEQ_clean_linker_1, # of connection points: 2
#     Edge 107, Type (0, 0), BuildingBlock: KIFKEQ_clean_linker_1, # of connection points: 2
#     Edge 108, Type (0, 0), BuildingBlock: KIFKEQ_clean_linker_1, # of connection points: 2
#     Edge 109, Type (0, 0), BuildingBlock: KIFKEQ_clean_linker_1, # of connection points: 2
#     Edge 110, Type (0, 0), BuildingBlock: KIFKEQ_clean_linker_1, # of connection points: 2
#     Edge 111, Type (0, 0), BuildingBlock: KIFKEQ_clean_linker_1, # of connection points: 2
#     Edge 112, Type (0, 0), BuildingBlock: KIFKEQ_clean_linker_1, # of connection points: 2
#     Edge 113, Type (0, 0), BuildingBlock: KIFKEQ_clean_linker_1, # of connection points: 2
#     Edge 114, Type (0, 0), BuildingBlock: KIFKEQ_clean_linker_1, # of connection points: 2
#     Edge 115, Type (0, 0), BuildingBlock: KIFKEQ_clean_linker_1, # of connection points: 2
#     Edge 116, Type (0, 0), BuildingBlock: KIFKEQ_clean_linker_1, # of connection points: 2
#     Edge 117, Type (0, 0), BuildingBlock: KIFKEQ_clean_linker_1, # of connection points: 2
#     Edge 118, Type (0, 0), BuildingBlock: KIFKEQ_clean_linker_1, # of connection points: 2
#     Edge 119, Type (0, 0), BuildingBlock: KIFKEQ_clean_linker_1, # of connection points: 2
#     Edge 120, Type (0, 0), BuildingBlock: KIFKEQ_clean_linker_1, # of connection points: 2
#     Edge 121, Type (0, 0), BuildingBlock: KIFKEQ_clean_linker_1, # of connection points: 2
#     Edge 122, Type (0, 0), BuildingBlock: KIFKEQ_clean_linker_1, # of connection points: 2
#     Edge 123, Type (0, 0), BuildingBlock: KIFKEQ_clean_linker_1, # of connection points: 2
#     Edge 124, Type (0, 0), BuildingBlock: KIFKEQ_clean_linker_1, # of connection points: 2
#     Edge 125, Type (0, 0), BuildingBlock: KIFKEQ_clean_linker_1, # of connection points: 2
#     Edge 126, Type (0, 0), BuildingBlock: KIFKEQ_clean_linker_1, # of connection points: 2
#     Edge 127, Type (0, 0), BuildingBlock: KIFKEQ_clean_linker_1, # of connection points: 2
#     Edge 128, Type (0, 0), BuildingBlock: KIFKEQ_clean_linker_1, # of connection points: 2
#     Edge 129, Type (0, 0), BuildingBlock: KIFKEQ_clean_linker_1, # of connection points: 2
#     Edge 130, Type (0, 0), BuildingBlock: KIFKEQ_clean_linker_1, # of connection points: 2
#     Edge 131, Type (0, 0), BuildingBlock: KIFKEQ_clean_linker_1, # of connection points: 2
#     Edge 132, Type (0, 0), BuildingBlock: KIFKEQ_clean_linker_1, # of connection points: 2
#     Edge 133, Type (0, 0), BuildingBlock: KIFKEQ_clean_linker_1, # of connection points: 2
#     Edge 134, Type (0, 0), BuildingBlock: KIFKEQ_clean_linker_1, # of connection points: 2
#     Edge 135, Type (0, 0), BuildingBlock: KIFKEQ_clean_linker_1, # of connection points: 2
#     Edge 136, Type (0, 0), BuildingBlock: KIFKEQ_clean_linker_1, # of connection points: 2
#     Edge 137, Type (0, 0), BuildingBlock: KIFKEQ_clean_linker_1, # of connection points: 2
#     Edge 138, Type (0, 0), BuildingBlock: KIFKEQ_clean_linker_1, # of connection points: 2
#     Edge 139, Type (0, 0), BuildingBlock: KIFKEQ_clean_linker_1, # of connection points: 2
#     Edge 140, Type (0, 0), BuildingBlock: KIFKEQ_clean_linker_1, # of connection points: 2
#     Edge 141, Type (0, 0), BuildingBlock: KIFKEQ_clean_linker_1, # of connection points: 2
#     Edge 142, Type (0, 0), BuildingBlock: KIFKEQ_clean_linker_1, # of connection points: 2
#     Edge 143, Type (0, 0), BuildingBlock: KIFKEQ_clean_linker_1, # of connection points: 2
# Relax obj value: 0.313
# Max RMSD: 0.250
# Mean RMSD: 0.250
data_MOF--net-uky--node1-CEKHIL_clean_sbu_0--edge1-KIFKEQ_clean_linker_1
_symmetry_space_group_name_H-M    P1
_symmetry_Int_Tables_number       1
_symmetry_cell_setting            triclinic
loop_
_symmetry_equiv_pos_as_xyz
'x, y, z'
_cell_length_a     61.659294
_cell_length_b     61.693791
_cell_length_c     61.590083
_cell_angle_alpha  89.99171
_cell_angle_beta   89.915041
_cell_angle_gamma 89.9323
loop_
_atom_site_label
_atom_site_type_symbol
_atom_site_fract_x
_atom_site_fract_y
_atom_site_fract_z
_atom_type_partial_charge
Co0 Co 0.20346 0.19182 0.37381 0.0
O1 O 0.17628 0.18096 0.38403 0.0
O2 O 0.20074 0.16168 0.36575 0.0
C3 C 0.19038 0.22242 0.35896 0.0
O4 O 0.23254 0.19784 0.3594 0.0
Co5 Co 0.22286 0.23495 0.39115 0.0
O6 O 0.24299 0.23211 0.36633 0.0
C7 C 0.22528 0.19535 0.41795 0.0
C8 C 0.18178 0.16282 0.37489 0.0
C9 C 0.24504 0.21424 0.3562 0.0
O10 O 0.21736 0.18391 0.40241 0.0
O11 O 0.22768 0.21592 0.41701 0.0
O12 O 0.18925 0.20415 0.34859 0.0
O13 O 0.19736 0.22127 0.37875 0.0
Co14 Co 0.0525 0.97268 0.62008 0.0
O15 O 0.04958 0.94334 0.62924 0.0
O16 O 0.08077 0.95876 0.62 0.0
C17 C 0.02454 0.97117 0.59674 0.0
O18 O 0.06092 0.00227 0.60807 0.0
Co19 Co 0.01467 0.005 0.62876 0.0
O20 O 0.03195 0.02456 0.61019 0.0
C21 C 0.04165 0.98928 0.66478 0.0
C22 C 0.07018 0.94139 0.62561 0.0
C23 C 0.05127 0.02038 0.60414 0.0
O24 O 0.05609 0.9824 0.65131 0.0
O25 O 0.0231 -0.00355 0.65886 0.0
O26 O 0.04355 0.96419 0.59094 0.0
O27 O 0.02271 0.97718 0.61673 0.0
Co28 Co 0.26844 0.79136 0.87361 0.0
O29 O 0.29882 0.79398 0.87855 0.0
O30 O 0.27787 0.82026 0.86552 0.0
C31 C 0.27143 0.75943 0.85652 0.0
O32 O 0.23664 0.79371 0.8648 0.0
Co33 Co 0.24228 0.75373 0.89387 0.0
O34 O 0.22041 0.76194 0.87209 0.0
C35 C 0.25372 0.79154 0.92077 0.0
C36 C 0.29716 0.81331 0.87052 0.0
C37 C 0.22056 0.7805 0.86308 0.0
O38 O 0.2622 0.80106 0.90426 0.0
O39 O 0.24578 0.7724 0.92017 0.0
O40 O 0.27456 0.77744 0.84616 0.0
O41 O 0.268 0.76098 0.87721 0.0
Co42 Co 0.44962 0.00827 0.12314 0.0
O43 O 0.45439 0.03453 0.13885 0.0
O44 O 0.42313 0.02496 0.12385 0.0
C45 C 0.47974 0.01065 0.10282 0.0
O46 O 0.43899 0.98314 0.10461 0.0
Co47 Co 0.48121 0.96982 0.12819 0.0
O48 O 0.46377 0.95629 0.10506 0.0
C49 C 0.4515 0.98041 0.16382 0.0
C50 C 0.43429 0.03918 0.13471 0.0
C51 C 0.4461 0.96457 0.09834 0.0
O52 O 0.44138 0.99347 0.15112 0.0
O53 O 0.46885 0.97044 0.1583 0.0
O54 O 0.46228 0.02109 0.09742 0.0
O55 O 0.47915 0.00055 0.12126 0.0
Co56 Co 0.2227 0.7877 0.11408 0.0
O57 O 0.19696 0.79492 0.09851 0.0
O58 O 0.2146 0.81732 0.1206 0.0
C59 C 0.21082 0.7557 0.12657 0.0
O60 O 0.24929 0.78537 0.13349 0.0
Co61 Co 0.25014 0.74761 0.10048 0.0
O62 O 0.26708 0.75413 0.12683 0.0
C63 C 0.25097 0.78719 0.0737 0.0
C64 C 0.19833 0.81378 0.10768 0.0
C65 C 0.26445 0.77158 0.13754 0.0
O66 O 0.24052 0.79752 0.08851 0.0
O67 O 0.25506 0.76687 0.07473 0.0
O68 O 0.20553 0.77357 0.13637 0.0
O69 O 0.22143 0.75779 0.10855 0.0
Co70 Co 0.45238 0.96559 0.36905 0.0
O71 O 0.43964 0.93788 0.36449 0.0
O72 O 0.42154 0.96725 0.3751 0.0
C73 C 0.48063 0.95279 0.38811 0.0
O74 O 0.46064 -0.00342 0.37693 0.0
Co75 Co 0.49798 0.97662 0.35096 0.0
O76 O 0.49675 -0.00033 0.37321 0.0
C77 C 0.46015 0.97724 0.32165 0.0
C78 C 0.42154 0.94665 0.37063 0.0
C79 C 0.47865 0.00653 0.38046 0.0
O80 O 0.4473 0.97339 0.33765 0.0
O81 O 0.4808 0.97831 0.32344 0.0
O82 O 0.4621 0.95627 0.39755 0.0
O83 O 0.48109 0.9557 0.36732 0.0
Co84 Co 0.2739 0.19013 0.61349 0.0
O85 O 0.30078 0.18589 0.59863 0.0
O86 O 0.2831 0.16033 0.61691 0.0
C87 C 0.28362 0.2209 0.63037 0.0
O88 O 0.24617 0.18894 0.63149 0.0
Co89 Co 0.24553 0.23034 0.60299 0.0
O90 O 0.22674 0.21953 0.62656 0.0
C91 C 0.24748 0.19412 0.57198 0.0
C92 C 0.29982 0.16599 0.60535 0.0
C93 C 0.22976 0.20121 0.63557 0.0
O94 O 0.25804 0.1827 0.58587 0.0
O95 O 0.24221 0.21393 0.57513 0.0
O96 O 0.28905 0.20218 0.63831 0.0
O97 O 0.2742 0.22055 0.6116 0.0
Co98 Co 0.04454 0.02988 0.86862 0.0
O99 O 0.0529 0.05912 0.86308 0.0
O100 O 0.07549 0.03287 0.87318 0.0
C101 C 0.01556 0.0385 0.8892 0.0
O102 O 0.04125 -0.00175 0.87714 0.0
Co103 Co -0.00024 0.01269 0.85297 0.0
O104 O 0.00637 0.98844 0.87303 0.0
C105 C 0.0352 0.02008 0.82154 0.0
C106 C 0.0723 0.05319 0.86854 0.0
C107 C 0.02549 0.98486 0.88 0.0
O108 O 0.04904 0.02213 0.83703 0.0
O109 O 0.01474 0.01844 0.82467 0.0
O110 O 0.03484 0.0382 0.89764 0.0
O111 O 0.0147 0.0354 0.86849 0.0
Co112 Co 0.36909 0.21545 0.20014 0.0
O113 O 0.38361 0.18879 0.2061 0.0
O114 O 0.36956 0.19781 0.17421 0.0
C115 C 0.34824 0.21503 0.22989 0.0
O116 O 0.35172 0.24111 0.18869 0.0
Co117 Co 0.37594 0.25432 0.23118 0.0
O118 O 0.35267 0.26769 0.2138 0.0
C119 C 0.41098 0.24137 0.20177 0.0
C120 C 0.37964 0.18357 0.18611 0.0
C121 C 0.34578 0.25971 0.19606 0.0
O122 O 0.39772 0.22878 0.19185 0.0
O123 O 0.40594 0.25196 0.21891 0.0
O124 O 0.3427 0.20414 0.21275 0.0
O125 O 0.36715 0.22412 0.22933 0.0
Co126 Co 0.02405 0.12288 0.44566 0.0
O127 O 0.04989 0.13577 0.43425 0.0
O128 O 0.02694 0.11535 0.4154 0.0
C129 C 0.03978 0.10951 0.47572 0.0
O130 O -0.0036 0.10603 0.45176 0.0
Co131 Co 0.0036 0.1368 0.48948 0.0
O132 O 0.98545 0.11064 0.48622 0.0
C133 C -0.00168 0.16449 0.45054 0.0
C134 C 0.04493 0.12624 0.41614 0.0
C135 C 0.98393 0.10134 0.46785 0.0
O136 O 0.00733 0.15002 0.43849 0.0
O137 O -0.00359 0.16272 0.47117 0.0
O138 O 0.0411 0.09915 0.45744 0.0
O139 O 0.03028 0.12821 0.47509 0.0
Co140 Co 0.11252 0.77081 0.70151 0.0
O141 O 0.09873 0.798 0.6963 0.0
O142 O 0.11836 0.77995 0.67198 0.0
C143 C 0.12733 0.78018 0.73339 0.0
O144 O 0.12982 0.74263 0.70176 0.0
Co145 Co 0.09824 0.74305 0.74096 0.0
O146 O 0.12273 0.72419 0.73257 0.0
C147 C 0.07028 0.74545 0.70235 0.0
C148 C 0.10685 0.79695 0.67692 0.0
C149 C 0.13301 0.7266 0.71479 0.0
O150 O 0.08525 0.75563 0.69205 0.0
O151 O 0.07171 0.74021 0.72241 0.0
O152 O 0.13677 0.78519 0.71523 0.0
O153 O 0.10833 0.77141 0.73175 0.0
Co154 Co 0.459 0.86448 0.93696 0.0
O155 O 0.43488 0.84705 0.92845 0.0
O156 O 0.45416 0.86788 0.90617 0.0
C157 C 0.44265 0.87909 0.96618 0.0
O158 O 0.48433 0.88544 0.94003 0.0
Co159 Co 0.48198 0.85836 0.98137 0.0
O160 O 0.49269 0.88799 0.97543 0.0
C161 C 0.48921 0.82675 0.94579 0.0
C162 C 0.43794 0.85476 0.90908 0.0
C163 C 0.49378 0.89496 0.95601 0.0
O164 O 0.47886 0.83885 0.93227 0.0
O165 O 0.49117 0.83123 0.966 0.0
O166 O 0.4393 0.88718 0.947 0.0
O167 O 0.45438 0.86175 0.96682 0.0
Co168 Co 0.37277 0.78249 0.30299 0.0
O169 O 0.38336 0.81155 0.30326 0.0
O170 O 0.36588 0.79584 0.33055 0.0
C171 C 0.35711 0.7849 0.27032 0.0
O172 O 0.35784 0.75342 0.30769 0.0
Co173 Co 0.3892 0.74954 0.26851 0.0
O174 O 0.36476 0.73186 0.27894 0.0
C175 C 0.41685 0.76025 0.30596 0.0
C176 C 0.37458 0.81321 0.32235 0.0
C177 C 0.3547 0.73609 0.29649 0.0
O178 O 0.40153 0.77165 0.31443 0.0
O179 O 0.41549 0.75118 0.28734 0.0
O180 O 0.3473 0.79219 0.28747 0.0
O181 O 0.37681 0.77814 0.27302 0.0
Co182 Co 0.47087 0.1245 0.53734 0.0
O183 O 0.44029 0.12908 0.53818 0.0
O184 O 0.45977 0.11628 0.56568 0.0
C185 C 0.47099 0.10768 0.50516 0.0
O186 O 0.50256 0.11599 0.54138 0.0
Co187 Co 0.49901 0.14582 0.50158 0.0
O188 O 0.51936 0.12244 0.50964 0.0
C189 C 0.48561 0.17165 0.53951 0.0
C190 C 0.44088 0.12132 0.55772 0.0
C191 C 0.51853 0.11325 0.52813 0.0
O192 O 0.47614 0.15506 0.54782 0.0
O193 O 0.49497 0.17149 0.52096 0.0
O194 O 0.46646 0.09709 0.5228 0.0
O195 O 0.47335 0.12843 0.50712 0.0
Co196 Co 0.11541 0.21059 0.79274 0.0
O197 O 0.10449 0.18347 0.80307 0.0
O198 O 0.12277 0.2073 0.82304 0.0
C199 C 0.13055 0.19747 0.76229 0.0
O200 O 0.13019 0.2396 0.78738 0.0
Co201 Co 0.09902 0.23077 0.74955 0.0
O202 O 0.12414 0.25025 0.753 0.0
C203 C 0.07177 0.23337 0.7889 0.0
C204 C 0.11327 0.18858 0.8215 0.0
C205 C 0.13383 0.25223 0.77112 0.0
O206 O 0.08698 0.22492 0.80039 0.0
O207 O 0.07301 0.23604 0.76833 0.0
O208 O 0.14058 0.19599 0.78073 0.0
O209 O 0.11094 0.20497 0.76308 0.0
Co210 Co 0.02764 0.86317 0.03283 0.0
O211 O 0.05331 0.84592 0.0344 0.0
O212 O 0.04036 0.86596 0.06137 0.0
C213 C 0.03574 0.87864 0.00081 0.0
O214 O 0.00231 0.88405 0.03664 0.0
Co215 Co 0.99402 0.85687 -0.004 0.0
O216 O 0.98622 0.88695 0.00406 0.0
C217 C -0.00462 0.8259 0.03264 0.0
C218 C 0.0556 0.85336 0.05397 0.0
C219 C 0.98986 0.89397 0.02314 0.0
O220 O 0.00968 0.83758 0.04232 0.0
O221 O 0.98787 0.83032 0.01377 0.0
O222 O 0.0439 0.88611 0.01872 0.0
O223 O 0.02446 0.86105 0.0026 0.0
Co224 Co 0.19508 0.3756 0.2221 0.0
O225 O 0.18926 0.39131 0.19607 0.0
O226 O 0.16407 0.37677 0.21744 0.0
C227 C 0.22132 0.35472 0.20765 0.0
O228 O 0.19528 0.35759 0.24983 0.0
Co229 Co 0.24046 0.3786 0.24376 0.0
O230 O 0.22934 0.35524 0.26269 0.0
C231 C 0.21018 0.41567 0.24605 0.0
C232 C 0.16895 0.38745 0.1999 0.0
C233 C 0.20936 0.35004 0.26329 0.0
O234 O 0.19463 0.40373 0.2389 0.0
O235 O 0.22983 0.40906 0.24732 0.0
O236 O 0.20109 0.34944 0.20528 0.0
O237 O 0.22486 0.37304 0.21713 0.0
Co238 Co 0.69643 0.11782 0.76847 0.0
O239 O 0.69733 0.10913 0.79824 0.0
O240 O 0.66894 0.12451 0.78227 0.0
C241 C 0.72866 0.13433 0.76932 0.0
O242 O 0.69047 0.13085 0.73857 0.0
Co243 Co 0.73016 0.10083 0.73535 0.0
O244 O 0.7191 0.12432 0.71678 0.0
C245 C 0.69467 0.07228 0.74955 0.0
C246 C 0.67797 0.11717 0.79988 0.0
C247 C 0.70127 0.13387 0.72089 0.0
O248 O 0.68577 0.08808 0.75989 0.0
O249 O 0.7129 0.07379 0.73974 0.0
O250 O 0.71138 0.14422 0.77615 0.0
O251 O 0.72641 0.11426 0.76366 0.0
Co252 Co 0.11871 0.45655 0.02977 0.0
O253 O 0.12427 0.45765 0.06015 0.0
O254 O 0.11526 0.4278 0.0422 0.0
C255 C 0.09709 0.48589 0.02988 0.0
O256 O 0.1102 0.45017 -0.00154 0.0
Co257 Co 0.13347 0.49486 0.00055 0.0
O258 O 0.11385 0.48103 0.97931 0.0
C259 C 0.16561 0.46357 0.0168 0.0
C260 C 0.1194 0.43726 0.06063 0.0
C261 C 0.10717 0.46158 0.98118 0.0
O262 O 0.15046 0.451 0.02367 0.0
O263 O 0.16226 0.48244 0.00889 0.0
O264 O 0.0894 0.46698 0.03496 0.0
O265 O 0.11776 0.48673 0.02651 0.0
Co266 Co 0.79679 0.86874 0.27046 0.0
O267 O 0.79611 0.87249 0.30112 0.0
O268 O 0.82595 0.86571 0.28203 0.0
C269 C 0.76826 0.84617 0.26965 0.0
O270 O 0.80266 0.86228 0.23857 0.0
Co271 Co 0.75727 0.88459 0.24343 0.0
O272 O 0.77137 0.86731 0.22039 0.0
C273 C 0.78714 0.91616 0.26274 0.0
C274 C 0.81673 0.86855 0.30086 0.0
C275 C 0.79087 0.8605 0.22139 0.0
O276 O 0.80101 0.90099 0.26633 0.0
O277 O 0.76794 0.91257 0.25577 0.0
O278 O 0.78746 0.83881 0.27416 0.0
O279 O 0.76667 0.86696 0.26766 0.0
Co280 Co 0.86715 0.04312 0.0317 0.0
O281 O 0.85484 0.04973 0.05932 0.0
O282 O 0.8655 0.07431 0.03516 0.0
C283 C 0.89108 0.01852 0.04396 0.0
O284 O 0.88175 0.04188 0.00205 0.0
Co285 Co 0.86305 -0.00365 0.0132 0.0
O286 O 0.88473 0.0069 0.99196 0.0
C287 C 0.82482 0.02515 0.01473 0.0
C288 C 0.85765 0.06992 0.05428 0.0
C289 C 0.88911 0.02693 0.98943 0.0
O290 O 0.837 0.04165 0.01868 0.0
O291 O 0.83199 0.00568 0.01409 0.0
O292 O 0.89562 0.03903 0.04486 0.0
O293 O 0.87167 0.01378 0.03775 0.0
Co294 Co 0.29215 0.61075 0.71717 0.0
O295 O 0.29786 0.59981 0.68863 0.0
O296 O 0.32178 0.61724 0.70911 0.0
C297 C 0.2606 0.62688 0.70878 0.0
O298 O 0.29153 0.62571 0.74668 0.0
Co299 Co 0.25192 0.5952 0.7434 0.0
O300 O 0.25972 0.61888 0.7634 0.0
C301 C 0.29054 0.56709 0.74036 0.0
C302 C 0.31702 0.60818 0.69067 0.0
C303 C 0.27783 0.62867 0.76222 0.0
O304 O 0.30104 0.58206 0.73029 0.0
O305 O 0.27058 0.56878 0.74583 0.0
O306 O 0.2789 0.63633 0.70456 0.0
O307 O 0.26184 0.60721 0.71602 0.0
Co308 Co 0.11963 0.54224 0.46368 0.0
O309 O 0.12708 0.54616 0.43386 0.0
O310 O 0.11294 0.57169 0.45503 0.0
C311 C 0.10251 0.51063 0.45814 0.0
O312 O 0.1083 0.54353 0.49474 0.0
Co313 Co 0.13705 0.50323 0.48993 0.0
O314 O 0.11577 0.51231 0.5121 0.0
C315 C 0.16541 0.54091 0.48209 0.0
C316 C 0.11953 0.56567 0.43588 0.0
C317 C 0.10655 0.53074 0.51117 0.0
O318 O 0.14979 0.5511 0.47277 0.0
O319 O 0.16388 0.52144 0.48906 0.0
O320 O 0.09257 0.52892 0.455 0.0
O321 O 0.12284 0.51191 0.46318 0.0
Co322 Co 0.362 0.46135 0.96051 0.0
O323 O 0.34744 0.45312 0.93441 0.0
O324 O 0.36328 0.43019 0.95728 0.0
C325 C 0.3818 0.48838 0.94615 0.0
O326 O 0.37938 0.46421 0.98842 0.0
Co327 Co 0.35492 0.50742 0.98006 0.0
O328 O 0.37824 0.49877 0.00032 0.0
C329 C 0.32062 0.47432 0.98409 0.0
C330 C 0.35278 0.43337 0.93927 0.0
C331 C 0.38524 0.47938 0.00153 0.0
O332 O 0.33361 0.45956 0.97697 0.0
O333 O 0.32559 0.49446 0.98461 0.0
O334 O 0.38818 0.46841 0.9442 0.0
O335 O 0.36273 0.49104 0.95445 0.0
Co336 Co 0.72925 0.68651 0.87727 0.0
O337 O 0.69979 0.68287 0.88589 0.0
O338 O 0.72024 0.65707 0.87112 0.0
C339 C 0.72314 0.71778 0.85968 0.0
O340 O 0.75983 0.68502 0.86484 0.0
Co341 Co 0.75602 0.72582 0.89318 0.0
O342 O 0.77566 0.7175 0.86932 0.0
C343 C 0.7488 0.68874 0.92255 0.0
C344 C 0.70139 0.66338 0.87824 0.0
C345 C 0.77513 0.69867 0.86091 0.0
O346 O 0.73931 0.67817 0.90729 0.0
O347 O 0.75566 0.7082 0.92044 0.0
O348 O 0.71949 0.69933 0.85029 0.0
O349 O 0.72895 0.71694 0.87986 0.0
Co350 Co 0.54263 0.46414 0.12154 0.0
O351 O 0.53958 0.43495 0.13145 0.0
O352 O 0.56974 0.4488 0.11742 0.0
C353 C 0.51159 0.4644 0.10262 0.0
O354 O 0.55112 0.49298 0.10782 0.0
Co355 Co 0.50932 0.49946 0.13496 0.0
O356 O 0.52402 0.51704 0.11267 0.0
C357 C 0.54283 0.48576 0.16613 0.0
C358 C 0.55936 0.43203 0.12487 0.0
C359 C 0.54207 0.51147 0.10433 0.0
O360 O 0.55179 0.47375 0.15156 0.0
O361 O 0.52522 0.49629 0.16305 0.0
O362 O 0.52905 0.45601 0.09437 0.0
O363 O 0.51282 0.47072 0.12262 0.0
Co364 Co 0.77404 0.30264 0.37084 0.0
O365 O 0.80306 0.30958 0.37873 0.0
O366 O 0.77954 0.33295 0.36454 0.0
C367 C 0.78278 0.2719 0.35334 0.0
O368 O 0.74319 0.30043 0.35921 0.0
Co369 Co 0.75253 0.26045 0.38811 0.0
O370 O 0.73178 0.2662 0.36444 0.0
C371 C 0.75501 0.29891 0.41648 0.0
C372 C 0.79907 0.32885 0.37138 0.0
C373 C 0.7297 0.28485 0.35583 0.0
O374 O 0.76354 0.31014 0.40107 0.0
O375 O 0.75034 0.27878 0.41479 0.0
O376 O 0.78451 0.2905 0.34365 0.0
O377 O 0.77766 0.2726 0.37369 0.0
Co378 Co 0.95309 0.52437 0.62971 0.0
O379 O 0.94525 0.55126 0.64321 0.0
O380 O 0.92347 0.5314 0.62249 0.0
C381 C 0.98489 0.53555 0.61601 0.0
O382 O 0.95568 0.49651 0.61218 0.0
Co383 Co 0.99368 0.49831 0.64449 0.0
O384 O 0.98712 0.47939 0.61954 0.0
C385 C 0.95418 0.49823 0.67154 0.0
C386 C 0.92656 0.54888 0.63384 0.0
C387 C 0.96954 0.48123 0.60891 0.0
O388 O 0.94364 0.50838 0.65668 0.0
O389 O 0.97444 0.49392 0.67031 0.0
O390 O 0.96686 0.53995 0.60611 0.0
O391 O 0.98311 0.52638 0.63484 0.0
Co392 Co 0.71485 0.29885 0.61467 0.0
O393 O 0.68606 0.3031 0.60404 0.0
O394 O 0.70561 0.32824 0.62081 0.0
C395 C 0.7074 0.2672 0.63117 0.0
O396 O 0.74446 0.29982 0.62931 0.0
Co397 Co 0.74256 0.25965 0.59977 0.0
O398 O 0.76272 0.26885 0.62279 0.0
C399 C 0.73783 0.2975 0.57085 0.0
C400 C 0.6873 0.32243 0.61216 0.0
C401 C 0.76077 0.28709 0.63221 0.0
O402 O 0.72726 0.30781 0.58564 0.0
O403 O 0.74426 0.27789 0.57295 0.0
O404 O 0.70304 0.28549 0.6406 0.0
O405 O 0.71465 0.26843 0.61146 0.0
Co406 Co 0.95002 0.45592 0.86881 0.0
O407 O 0.94219 0.42781 0.85834 0.0
O408 O 0.91986 0.45073 0.87516 0.0
C409 C 0.98092 0.44566 0.88518 0.0
O410 O 0.95227 0.48554 0.88288 0.0
Co411 Co 0.99178 0.47943 0.85365 0.0
O412 O 0.98433 0.50143 0.87578 0.0
C413 C 0.95369 0.47779 0.82473 0.0
C414 C 0.92305 0.432 0.86609 0.0
C415 C 0.96602 0.50098 0.88531 0.0
O416 O 0.94234 0.46882 0.83975 0.0
O417 O 0.97387 0.48219 0.82668 0.0
O418 O 0.96233 0.44315 0.8948 0.0
O419 O 0.98017 0.45254 0.86534 0.0
Co420 Co 0.76769 0.697 0.12275 0.0
O421 O 0.79693 0.69008 0.11542 0.0
O422 O 0.77374 0.66724 0.13093 0.0
C423 C 0.7764 0.72894 0.13787 0.0
O424 O 0.73672 0.69898 0.1341 0.0
Co425 Co 0.74457 0.73696 0.1035 0.0
O426 O 0.72167 0.73093 0.12506 0.0
C427 C 0.74955 0.69749 0.07691 0.0
C428 C 0.7932 0.67117 0.12379 0.0
C429 C 0.72123 0.71295 0.13517 0.0
O430 O 0.75775 0.68731 0.09315 0.0
O431 O 0.74428 0.71755 0.07744 0.0
O432 O 0.77773 0.71109 0.14896 0.0
O433 O 0.77086 0.72693 0.11771 0.0
Co434 Co 0.54603 0.5187 0.36558 0.0
O435 O 0.55087 0.54636 0.35262 0.0
O436 O 0.5761 0.52694 0.36956 0.0
C437 C 0.51547 0.52806 0.38327 0.0
O438 O 0.54636 0.48991 0.38177 0.0
Co439 Co 0.50486 0.49249 0.35336 0.0
O440 O 0.51447 0.47281 0.3767 0.0
C441 C 0.54134 0.49473 0.32255 0.0
C442 C 0.57071 0.54457 0.3593 0.0
C443 C 0.53304 0.47429 0.38557 0.0
O444 O 0.55301 0.50439 0.33689 0.0
O445 O 0.52139 0.48988 0.3255 0.0
O446 O 0.53434 0.53238 0.3915 0.0
O447 O 0.51564 0.52011 0.36383 0.0
Co448 Co 0.87279 0.71248 0.69245 0.0
O449 O 0.8825 0.68418 0.68461 0.0
O450 O 0.86464 0.70651 0.66264 0.0
C451 C 0.85843 0.70217 0.72432 0.0
O452 O 0.859 0.74241 0.69563 0.0
Co453 Co 0.89084 0.73544 0.73352 0.0
O454 O 0.86733 0.75649 0.72832 0.0
C455 C 0.91739 0.73317 0.69365 0.0
C456 C 0.87352 0.68767 0.66593 0.0
C457 C 0.85693 0.75697 0.71049 0.0
O458 O 0.90154 0.72488 0.68297 0.0
O459 O 0.91668 0.73735 0.71399 0.0
O460 O 0.8475 0.70001 0.70645 0.0
O461 O 0.87812 0.70902 0.72224 0.0
Co462 Co 0.53421 0.62727 0.94816 0.0
O463 O 0.56169 0.63998 0.94147 0.0
O464 O 0.54008 0.62372 0.9176 0.0
C465 C 0.54552 0.60895 0.97758 0.0
O466 O 0.50532 0.61143 0.94917 0.0
Co467 Co 0.51038 0.63762 0.99138 0.0
O468 O 0.49109 0.61357 0.98274 0.0
C469 C 0.51231 0.67048 0.95648 0.0
C470 C 0.5583 0.63342 0.92175 0.0
C471 C 0.49106 0.60606 0.96347 0.0
O472 O 0.51979 0.65626 0.94312 0.0
O473 O 0.50913 0.66654 0.97666 0.0
O474 O 0.54859 0.60105 0.95829 0.0
O475 O 0.53744 0.62827 0.97839 0.0
Co476 Co 0.61212 0.26525 0.19954 0.0
O477 O 0.59848 0.2924 0.19405 0.0
O478 O 0.61494 0.27232 0.16897 0.0
C479 C 0.63021 0.27609 0.22917 0.0
O480 O 0.62864 0.23657 0.2 0.0
Co481 Co 0.60095 0.24074 0.24216 0.0
O482 O 0.6258 0.22243 0.23359 0.0
C483 C 0.56912 0.24236 0.20669 0.0
C484 C 0.60421 0.28981 0.17397 0.0
C485 C 0.63387 0.22246 0.21453 0.0
O486 O 0.58355 0.25049 0.19403 0.0
O487 O 0.57238 0.23857 0.22685 0.0
O488 O 0.63805 0.27976 0.20993 0.0
O489 O 0.61095 0.26785 0.22977 0.0
Co490 Co 0.96527 0.36463 0.44839 0.0
O491 O 0.93522 0.35749 0.44648 0.0
O492 O 0.9549 0.37073 0.41937 0.0
C493 C 0.96214 0.38298 0.47962 0.0
O494 O -0.00367 0.37546 0.44508 0.0
Co495 Co 0.99324 0.34748 0.48658 0.0
O496 O 0.01375 0.36986 0.47665 0.0
C497 C 0.9831 0.31854 0.44992 0.0
C498 C 0.93604 0.36475 0.42673 0.0
C499 C 0.01262 0.37834 0.45784 0.0
O500 O 0.97349 0.33409 0.43987 0.0
O501 O 0.99115 0.32034 0.46896 0.0
O502 O 0.95757 0.3922 0.46128 0.0
O503 O 0.96671 0.3625 0.47884 0.0
Co504 Co 0.87416 0.27405 0.7907 0.0
O505 O 0.88333 0.30226 0.79951 0.0
O506 O 0.86643 0.27848 0.82078 0.0
C507 C 0.85878 0.28486 0.75956 0.0
O508 O 0.86087 0.24416 0.78693 0.0
Co509 Co 0.89183 0.2522 0.74886 0.0
O510 O 0.86843 0.23095 0.75371 0.0
C511 C 0.91887 0.25329 0.78833 0.0
C512 C 0.87467 0.29767 0.81816 0.0
C513 C 0.85842 0.23003 0.77177 0.0
O514 O 0.90321 0.26169 0.79926 0.0
O515 O 0.91792 0.24933 0.76797 0.0
O516 O 0.84842 0.28665 0.77782 0.0
O517 O 0.8787 0.27829 0.76076 0.0
Co518 Co 0.94984 0.628 0.03325 0.0
O519 O 0.92048 0.63665 0.03828 0.0
O520 O 0.942 0.62169 0.06298 0.0
C521 C 0.94324 0.61073 0.00194 0.0
O522 O 0.98042 0.61541 0.03346 0.0
Co523 Co 0.97543 0.64456 0.99295 0.0
O524 O -0.00417 0.62123 0.00085 0.0
C525 C 0.97016 0.67298 0.03113 0.0
C526 C 0.92288 0.62886 0.05771 0.0
C527 C -0.00439 0.61219 0.01943 0.0
O528 O 0.96052 0.65778 0.04168 0.0
O529 O 0.97638 0.67121 0.01139 0.0
O530 O 0.93951 0.60129 0.02039 0.0
O531 O 0.94892 0.63089 0.00287 0.0
Co532 Co 0.60609 0.71748 0.28992 0.0
O533 O 0.58933 0.69219 0.29609 0.0
O534 O 0.61394 0.70631 0.31819 0.0
C535 C 0.61604 0.70777 0.25624 0.0
O536 O 0.62736 0.74271 0.28828 0.0
Co537 Co 0.5917 0.74894 0.25313 0.0
O538 O 0.61975 0.76312 0.25885 0.0
C539 C 0.56775 0.74824 0.29452 0.0
C540 C 0.60005 0.69098 0.31417 0.0
C541 C 0.63158 0.75834 0.27507 0.0
O542 O 0.58243 0.73603 0.30294 0.0
O543 O 0.56774 0.7539 0.27453 0.0
O544 O 0.62622 0.70022 0.27303 0.0
O545 O 0.59883 0.71913 0.2603 0.0
Co546 Co 0.51712 0.36521 0.54709 0.0
O547 O 0.5436 0.3503 0.55335 0.0
O548 O 0.52553 0.37102 0.57674 0.0
C549 C 0.5281 0.3794 0.51538 0.0
O550 O 0.48984 0.38384 0.54599 0.0
Co551 Co 0.48972 0.35253 0.50667 0.0
O552 O 0.47169 0.37765 0.51484 0.0
C553 C 0.48968 0.32434 0.54535 0.0
C554 C 0.54234 0.35901 0.57248 0.0
C555 C 0.47423 0.38774 0.53268 0.0
O556 O 0.50031 0.33866 0.55614 0.0
O557 O 0.48521 0.32623 0.52515 0.0
O558 O 0.53325 0.38861 0.53359 0.0
O559 O 0.51823 0.36096 0.51689 0.0
Co560 Co 0.70089 0.87563 0.72824 0.0
O561 O 0.69642 0.89091 0.70166 0.0
O562 O 0.67138 0.87121 0.71854 0.0
C563 C 0.73239 0.8601 0.71885 0.0
O564 O 0.70033 0.85687 0.75547 0.0
Co565 Co 0.74004 0.88804 0.7573 0.0
O566 O 0.73079 0.86289 0.77479 0.0
C567 C 0.70272 0.91744 0.75428 0.0
C568 C 0.6768 0.88338 0.70216 0.0
C569 C 0.71309 0.85282 0.77151 0.0
O570 O 0.69194 0.90247 0.74462 0.0
O571 O 0.72276 0.91552 0.75928 0.0
O572 O 0.71411 0.85175 0.71267 0.0
O573 O 0.7312 0.87872 0.72849 0.0
Co574 Co 0.19597 0.62141 0.27462 0.0
O575 O 0.19249 0.61515 0.30473 0.0
O576 O 0.16565 0.62412 0.28247 0.0
C577 C 0.22458 0.64328 0.27955 0.0
O578 O 0.19404 0.63061 0.24297 0.0
Co579 Co 0.23801 0.60764 0.25069 0.0
O580 O 0.22623 0.62515 0.22651 0.0
C581 C 0.20641 0.57488 0.26439 0.0
C582 C 0.17213 0.6196 0.30206 0.0
C583 C 0.2069 0.63244 0.22659 0.0
O584 O 0.19208 0.58974 0.26731 0.0
O585 O 0.22631 0.57884 0.26009 0.0
O586 O 0.205 0.65064 0.28202 0.0
O587 O 0.2263 0.62275 0.27573 0.0
Co588 Co 0.62493 0.94651 0.52956 0.0
O589 O 0.63332 0.94677 0.55932 0.0
O590 O 0.61902 0.91839 0.54242 0.0
C591 C 0.60731 0.97837 0.53145 0.0
O592 O 0.61272 0.9411 0.4993 0.0
Co593 Co 0.64107 0.98229 0.4982 0.0
O594 O 0.61785 0.97118 0.4793 0.0
C595 C 0.67016 0.94606 0.50959 0.0
C596 C 0.62601 0.92713 0.56032 0.0
C597 C 0.60933 0.95261 0.48218 0.0
O598 O 0.65502 0.93695 0.5207 0.0
O599 O 0.66809 0.96448 0.50027 0.0
O600 O 0.59782 0.96053 0.5373 0.0
O601 O 0.62752 0.97668 0.52606 0.0
Co602 Co 0.29552 0.36743 0.77098 0.0
O603 O 0.29411 0.3768 0.80044 0.0
O604 O 0.32355 0.36315 0.78476 0.0
C605 C 0.26456 0.34841 0.77244 0.0
O606 O 0.30194 0.35436 0.74121 0.0
Co607 Co 0.2597 0.38184 0.7387 0.0
O608 O 0.27247 0.35919 0.72009 0.0
C609 C 0.29449 0.41237 0.75019 0.0
C610 C 0.31402 0.37036 0.80221 0.0
C611 C 0.29099 0.35083 0.72374 0.0
O612 O 0.30407 0.39759 0.76139 0.0
O613 O 0.27617 0.40962 0.74087 0.0
O614 O 0.28262 0.34006 0.77927 0.0
O615 O 0.26535 0.36857 0.76669 0.0
Co616 Co 0.36203 0.54834 0.52052 0.0
O617 O 0.34862 0.55523 0.54767 0.0
O618 O 0.3676 0.57841 0.52763 0.0
C619 C 0.37766 0.51744 0.53175 0.0
O620 O 0.37908 0.54629 0.49207 0.0
Co621 Co 0.3483 0.50652 0.49585 0.0
O622 O 0.37436 0.51279 0.47839 0.0
C623 C 0.31968 0.54483 0.49532 0.0
C624 C 0.35675 0.57443 0.54532 0.0
C625 C 0.38375 0.53116 0.47836 0.0
O626 O 0.33422 0.55616 0.50506 0.0
O627 O 0.32172 0.52458 0.49131 0.0
O628 O 0.38673 0.53599 0.53567 0.0
O629 O 0.35856 0.51825 0.52312 0.0
Co630 Co 0.79474 0.11213 0.22323 0.0
O631 O 0.80196 0.09703 0.19718 0.0
O632 O 0.82498 0.11709 0.21626 0.0
C633 C 0.76414 0.12731 0.21037 0.0
O634 O 0.7925 0.13087 0.2504 0.0
Co635 Co 0.75213 0.10126 0.24802 0.0
O636 O 0.75848 0.12851 0.26348 0.0
C637 C 0.7901 0.07216 0.25178 0.0
C638 C 0.82118 0.10527 0.1992 0.0
C639 C 0.77725 0.13712 0.26329 0.0
O640 O 0.8019 0.0853 0.24066 0.0
O641 O 0.76987 0.07514 0.25544 0.0
O642 O 0.78287 0.13603 0.20641 0.0
O643 O 0.76463 0.10879 0.2202 0.0
Co644 Co 0.62414 0.0401 0.95913 0.0
O645 O 0.63523 0.04972 0.93189 0.0
O646 O 0.62541 0.07151 0.95896 0.0
C647 C 0.60004 0.01631 0.94592 0.0
O648 O 0.61086 0.03525 0.98904 0.0
Co649 Co 0.63138 0.99192 0.9722 0.0
O650 O 0.61131 -0.00064 -0.00379 0.0
C651 C 0.66807 0.02221 0.97204 0.0
C652 C 0.63283 0.06922 0.9393 0.0
C653 C 0.60564 0.01872 0.00073 0.0
O654 O 0.65478 0.03825 0.97076 0.0
O655 O 0.66204 0.00242 0.97055 0.0
O656 O 0.59524 0.03679 0.94689 0.0
O657 O 0.61992 0.0114 0.9504 0.0
Co658 Co 0.86452 0.94636 0.4668 0.0
O659 O 0.84876 0.94032 0.4408 0.0
O660 O 0.86943 0.91659 0.45841 0.0
C661 C 0.87955 0.97763 0.45601 0.0
O662 O 0.88408 0.9474 0.49339 0.0
Co663 Co 0.85258 0.98698 0.49437 0.0
O664 O 0.87951 0.97969 0.51001 0.0
C665 C 0.82409 0.94881 0.49529 0.0
C666 C 0.85697 0.92098 0.44197 0.0
C667 C 0.88932 0.96167 0.5077 0.0
O668 O 0.83821 0.9379 0.48444 0.0
O669 O 0.82615 0.96897 0.49966 0.0
O670 O 0.88786 0.9592 0.45013 0.0
O671 O 0.861 0.97655 0.46584 0.0
H672 H 0.21125 0.20035 0.54778 0.0
H673 H 0.27294 0.16717 0.54786 0.0
H674 H 0.20632 0.19106 0.50956 0.0
H675 H 0.26828 0.15846 0.50927 0.0
H676 H 0.26191 0.20046 0.44145 0.0
H677 H 0.26706 0.19081 0.47955 0.0
H678 H 0.20497 0.15856 0.47991 0.0
H679 H 0.20018 0.1676 0.44135 0.0
C680 C 0.22347 0.19059 0.53972 0.0
C681 C 0.24253 0.18462 0.55062 0.0
C682 C 0.22058 0.18512 0.51794 0.0
C683 C 0.23694 0.17406 0.50656 0.0
C684 C 0.25541 0.16689 0.5178 0.0
C685 C 0.25805 0.17187 0.5398 0.0
C686 C 0.24979 0.19056 0.44946 0.0
C687 C 0.23064 0.18482 0.43865 0.0
C688 C 0.25277 0.18495 0.47119 0.0
C689 C 0.23637 0.174 0.48259 0.0
C690 C 0.21786 0.16691 0.47136 0.0
C691 C 0.21515 0.17204 0.44939 0.0
H692 H 0.01336 0.98022 0.69668 0.0
H693 H 0.07969 -0.00015 0.68579 0.0
H694 H 0.01697 0.98841 0.73506 0.0
H695 H 0.08326 0.00836 0.72481 0.0
H696 H 0.07082 -0.00147 0.80535 0.0
H697 H 0.07724 0.98939 0.76688 0.0
H698 H 0.02256 0.02914 0.74869 0.0
H699 H 0.01602 0.0379 0.78663 0.0
C700 C 0.02887 0.98592 0.70262 0.0
C701 C 0.04613 0.98975 0.68827 0.0
C702 C 0.03092 0.99065 0.72456 0.0
C703 C 0.05022 -0.00053 0.73269 0.0
C704 C 0.06819 0.00166 0.7188 0.0
C705 C 0.06616 -0.00324 0.6966 0.0
C706 C 0.06065 0.00576 0.79299 0.0
C707 C 0.04271 0.0186 0.79886 0.0
C708 C 0.0643 0.00053 0.77108 0.0
C709 C 0.0501 0.00824 0.75501 0.0
C710 C 0.03349 0.02269 0.76086 0.0
C711 C 0.02976 0.02771 0.78254 0.0
H712 H 0.22049 0.79496 0.94914 0.0
H713 H 0.28782 0.81173 0.9402 0.0
H714 H 0.22297 0.80451 0.98743 0.0
H715 H 0.29056 0.82077 0.97894 0.0
H716 H 0.28418 0.77839 0.04589 0.0
H717 H 0.28701 0.79018 0.00825 0.0
H718 H 0.23218 0.8328 0.01745 0.0
H719 H 0.22953 0.82125 0.05534 0.0
C720 C 0.23563 0.80137 0.95531 0.0
C721 C 0.25401 0.80245 0.94195 0.0
C722 C 0.23703 0.807 0.97716 0.0
C723 C 0.25699 0.81329 0.98612 0.0
C724 C 0.27499 0.81601 0.97235 0.0
C725 C 0.27343 0.81087 0.95028 0.0
C726 C 0.27323 0.79085 0.0401 0.0
C727 C 0.25638 0.79859 0.05336 0.0
C728 C 0.27498 0.79777 0.01861 0.0
C729 C 0.25967 0.81224 0.00994 0.0
C730 C 0.24414 0.8216 0.02379 0.0
C731 C 0.24264 0.81497 0.04544 0.0
H732 H 0.42987 0.95185 0.30192 0.0
H733 H 0.47057 0.00788 0.29206 0.0
H734 H 0.42045 0.95205 0.2631 0.0
H735 H 0.46055 0.00858 0.2537 0.0
H736 H 0.45702 0.94619 0.19137 0.0
H737 H 0.45142 0.94615 0.23068 0.0
H738 H 0.42482 0.01075 0.22712 0.0
H739 H 0.42984 0.01068 0.1877 0.0
C740 C 0.43618 0.96459 0.29158 0.0
C741 C 0.45101 0.97979 0.29977 0.0
C742 C 0.43084 0.96467 0.26949 0.0
C743 C 0.43974 0.98037 0.25558 0.0
C744 C 0.45331 -0.00353 0.26418 0.0
C745 C 0.45912 -0.00399 0.28604 0.0
C746 C 0.44938 0.96011 0.19889 0.0
C747 C 0.44407 0.97851 0.18654 0.0
C748 C 0.44603 0.96002 0.22133 0.0
C749 C 0.43775 0.97847 0.23179 0.0
C750 C 0.43115 -0.00367 0.21932 0.0
C751 C 0.43403 -0.00376 0.19681 0.0
H752 H 0.54825 0.26668 0.17632 0.0
H753 H 0.54007 0.21138 0.21855 0.0
H754 H 0.50935 0.26617 0.16818 0.0
H755 H 0.50141 0.21052 0.20988 0.0
H756 H 0.43956 0.27483 0.2056 0.0
H757 H 0.47871 0.27348 0.19943 0.0
H758 H 0.47304 0.20778 0.17611 0.0
H759 H 0.43374 0.20924 0.18171 0.0
C760 C 0.53828 0.25399 0.18326 0.0
C761 C 0.54704 0.23916 0.19821 0.0
C762 C 0.51609 0.25376 0.17863 0.0
C763 C 0.50254 0.23832 0.18843 0.0
C764 C 0.51162 0.22245 0.202 0.0
C765 C 0.53366 0.22301 0.20704 0.0
C766 C 0.4466 0.26033 0.1986 0.0
C767 C 0.43369 0.2421 0.19429 0.0
C768 C 0.46893 0.25961 0.19493 0.0
C769 C 0.47875 0.24051 0.18734 0.0
C770 C 0.46574 0.22268 0.18191 0.0
C771 C 0.44331 0.22357 0.18509 0.0
H772 H 0.9505 0.29576 0.43075 0.0
H773 H 0.01852 0.29294 0.44685 0.0
H774 H 0.95111 0.2569 0.42195 0.0
H775 H 0.01933 0.25454 0.43748 0.0
H776 H 0.0178 0.18624 0.41728 0.0
H777 H 0.01222 0.22446 0.40789 0.0
H778 H 0.95819 0.22747 0.45244 0.0
H779 H 0.96404 0.1896 0.46216 0.0
C780 C 0.96571 0.28699 0.43156 0.0
C781 C 0.98443 0.2971 0.43962 0.0
C782 C 0.96606 0.26486 0.42656 0.0
C783 C 0.98527 0.2528 0.42902 0.0
C784 C 0.00438 0.2635 0.43518 0.0
C785 C 0.0039 0.2854 0.44069 0.0
C786 C 0.00428 0.1949 0.42446 0.0
C787 C 0.99153 0.18516 0.44067 0.0
C788 C 0.00111 0.21671 0.4191 0.0
C789 C 0.98485 0.22885 0.42951 0.0
C790 C 0.97072 0.21843 0.44403 0.0
C791 C 0.97417 0.19682 0.44973 0.0
H792 H 0.04307 0.71141 0.70883 0.0
H793 H 0.05086 0.76986 0.67101 0.0
H794 H 0.00584 0.70808 0.69599 0.0
H795 H 0.01326 0.76677 0.65855 0.0
H796 H 0.9422 0.76921 0.69465 0.0
H797 H 0.98092 0.77098 0.68673 0.0
H798 H 0.97908 0.70543 0.66226 0.0
H799 H 0.93997 0.70396 0.6696 0.0
C800 C 0.03696 0.72322 0.69733 0.0
C801 C 0.04968 0.74102 0.69112 0.0
C802 C 0.01575 0.7212 0.6898 0.0
C803 C 0.00675 0.73719 0.6763 0.0
C804 C 0.01993 0.75419 0.66887 0.0
C805 C 0.04137 0.75595 0.67602 0.0
C806 C 0.94991 0.75558 0.68664 0.0
C807 C 0.93831 0.73644 0.68279 0.0
C808 C 0.97201 0.7566 0.68203 0.0
C809 C 0.98293 0.73827 0.67402 0.0
C810 C 0.97094 0.71976 0.66838 0.0
C811 C 0.94864 0.71895 0.6725 0.0
H812 H 0.47257 0.80038 0.91416 0.0
H813 H 0.52342 0.80444 0.96218 0.0
H814 H 0.47918 0.76125 0.91075 0.0
H815 H 0.52993 0.76561 0.9586 0.0
H816 H 0.48947 0.7019 0.97738 0.0
H817 H 0.48669 0.74003 0.96789 0.0
H818 H 0.52272 0.72857 0.90896 0.0
H819 H 0.5258 0.6899 0.91842 0.0
C820 C 0.48576 0.79314 0.92323 0.0
C821 C 0.49728 0.80535 0.93867 0.0
C822 C 0.48951 0.7708 0.92126 0.0
C823 C 0.505 0.76064 0.93447 0.0
C824 C 0.51798 0.77323 0.9482 0.0
C825 C 0.51417 0.79539 0.95029 0.0
C826 C 0.49662 0.70729 0.96224 0.0
C827 C 0.50809 0.69285 0.94879 0.0
C828 C 0.49494 0.72911 0.95682 0.0
C829 C 0.50458 0.73703 0.93782 0.0
C830 C 0.51513 0.72264 0.92368 0.0
C831 C 0.51685 0.70061 0.92912 0.0
H832 H 0.54992 0.72568 0.32829 0.0
H833 H 0.54211 0.78386 0.29006 0.0
H834 H 0.51311 0.73015 0.34249 0.0
H835 H 0.50558 0.78836 0.30428 0.0
H836 H 0.44237 0.72475 0.30946 0.0
H837 H 0.4809 0.72435 0.31776 0.0
H838 H 0.47794 0.79226 0.33464 0.0
H839 H 0.43899 0.79249 0.32657 0.0
C840 C 0.54068 0.73987 0.32359 0.0
C841 C 0.54864 0.75418 0.30771 0.0
C842 C 0.51961 0.7424 0.3317 0.0
C843 C 0.50639 0.75944 0.32429 0.0
C844 C 0.51537 0.77513 0.31041 0.0
C845 C 0.53625 0.77243 0.30207 0.0
C846 C 0.44979 0.73936 0.31578 0.0
C847 C 0.43789 0.75871 0.31711 0.0
C848 C 0.47184 0.73912 0.32071 0.0
C849 C 0.48249 0.75835 0.32663 0.0
C850 C 0.47012 0.77724 0.33002 0.0
C851 C 0.44787 0.77736 0.32547 0.0
H852 H 0.45537 0.29818 0.53661 0.0
H853 H 0.51212 0.3034 0.57728 0.0
H854 H 0.45226 0.25996 0.54579 0.0
H855 H 0.50911 0.2649 0.58634 0.0
H856 H 0.51892 0.19959 0.54422 0.0
H857 H 0.51693 0.23701 0.55651 0.0
H858 H 0.44936 0.22828 0.5729 0.0
H859 H 0.45158 0.19035 0.56094 0.0
C860 C 0.46673 0.2913 0.54811 0.0
C861 C 0.48424 0.30358 0.55587 0.0
C862 C 0.46484 0.26944 0.55355 0.0
C863 C 0.48063 0.25942 0.56655 0.0
C864 C 0.4968 0.27225 0.57618 0.0
C865 C 0.4985 0.29427 0.57101 0.0
C866 C 0.50384 0.20549 0.5511 0.0
C867 C 0.48533 0.19233 0.55138 0.0
C868 C 0.50274 0.22684 0.55836 0.0
C869 C 0.48295 0.23557 0.56558 0.0
C870 C 0.4648 0.2219 0.56742 0.0
C871 C 0.46606 0.20028 0.56058 0.0
H872 H 0.94323 0.21692 0.78568 0.0
H873 H 0.94144 0.28061 0.81457 0.0
H874 H 0.98121 0.21309 0.79612 0.0
H875 H 0.9799 0.2771 0.82438 0.0
H876 H 0.04744 0.26927 0.78203 0.0
H877 H 0.00953 0.27444 0.7922 0.0
H878 H 0.0109 0.21444 0.82822 0.0
H879 H 0.04926 0.20962 0.8186 0.0
C880 C 0.95086 0.2298 0.79487 0.0
C881 C 0.93963 0.24909 0.79922 0.0
C882 C 0.9725 0.22757 0.80098 0.0
C883 C 0.98341 0.24483 0.81101 0.0
C884 C 0.97174 0.26355 0.81677 0.0
C885 C 0.94983 0.26554 0.81117 0.0
C886 C 0.03985 0.25763 0.7928 0.0
C887 C 0.05108 0.23898 0.79939 0.0
C888 C 0.01824 0.26066 0.79876 0.0
C889 C 0.00736 0.2448 0.81094 0.0
C890 C 0.01904 0.22692 0.81892 0.0
C891 C 0.0409 0.22419 0.81342 0.0
H892 H 0.94139 0.69736 0.05439 0.0
H893 H 0.00737 0.6959 0.03101 0.0
H894 H 0.94572 0.73576 0.06412 0.0
H895 H 0.0119 0.73378 0.0411 0.0
H896 H 0.01816 0.80109 0.06149 0.0
H897 H 0.01107 0.76318 0.07066 0.0
H898 H 0.95068 0.76603 0.0354 0.0
H899 H 0.95777 0.80372 0.02608 0.0
C900 C 0.95702 0.70506 0.05211 0.0
C901 C 0.974 0.69393 0.04178 0.0
C902 C 0.95948 0.72695 0.05762 0.0
C903 C 0.97912 0.73771 0.05332 0.0
C904 C -0.00334 0.72587 0.04484 0.0
C905 C 0.99404 0.70425 0.0389 0.0
C906 C 0.00304 0.79383 0.05631 0.0
C907 C 0.98871 0.8052 0.04269 0.0
C908 C -0.00099 0.77215 0.06156 0.0
C909 C 0.98043 0.76166 0.05358 0.0
C910 C 0.96506 0.77373 0.04189 0.0
C911 C 0.96923 0.79526 0.03637 0.0
H912 H 0.23853 0.44445 0.26363 0.0
H913 H 0.17181 0.4386 0.24287 0.0
H914 H 0.233 0.48237 0.2711 0.0
H915 H 0.16603 0.47702 0.25118 0.0
H916 H 0.17976 0.55169 0.23788 0.0
H917 H 0.17684 0.51208 0.23656 0.0
H918 H 0.21617 0.50753 0.29448 0.0
H919 H 0.21994 0.54685 0.29488 0.0
C920 C 0.22251 0.45115 0.26097 0.0
C921 C 0.20565 0.43839 0.25252 0.0
C922 C 0.21926 0.47299 0.26551 0.0
C923 C 0.19899 0.4828 0.26195 0.0
C924 C 0.18187 0.46999 0.254 0.0
C925 C 0.18516 0.44796 0.24936 0.0
C926 C 0.18727 0.5421 0.25055 0.0
C927 C 0.2002 0.55205 0.26637 0.0
C928 C 0.18557 0.51946 0.24988 0.0
C929 C 0.19666 0.50658 0.26517 0.0
C930 C 0.20793 0.5169 0.28211 0.0
C931 C 0.20996 0.53939 0.28249 0.0
H932 H 0.67612 0.05268 0.78458 0.0
H933 H 0.6919 0.04291 0.71699 0.0
H934 H 0.66947 0.01368 0.78862 0.0
H935 H 0.68479 0.00425 0.72084 0.0
H936 H 0.71256 0.94771 0.78496 0.0
H937 H 0.70098 0.98551 0.78547 0.0
H938 H 0.65821 0.97334 0.73142 0.0
H939 H 0.66954 0.93533 0.73106 0.0
C940 C 0.67726 0.04233 0.77041 0.0
C941 C 0.68472 0.05063 0.75053 0.0
C942 C 0.67354 0.02007 0.77274 0.0
C943 C 0.67674 0.00599 0.75507 0.0
C944 C 0.68202 0.01473 0.73468 0.0
C945 C 0.68621 0.03683 0.73249 0.0
C946 C 0.7002 0.95294 0.77361 0.0
C947 C 0.69219 0.93867 0.75779 0.0
C948 C 0.69342 0.97453 0.77403 0.0
C949 C 0.67879 0.98233 0.7584 0.0
C950 C 0.66952 0.96769 0.74363 0.0
C951 C 0.676 0.94596 0.74346 0.0
H952 H 0.19531 0.4748 0.04672 0.0
H953 H 0.18665 0.43764 0.98814 0.0
H954 H 0.23463 0.47217 0.04262 0.0
H955 H 0.22607 0.4355 0.98347 0.0
H956 H 0.30051 0.4343 0.98297 0.0
H957 H 0.26365 0.42561 -0.00465 0.0
H958 H 0.25489 0.49213 0.01547 0.0
H959 H 0.29116 0.50066 0.00368 0.0
C960 C 0.20194 0.46541 0.03339 0.0
C961 C 0.18821 0.45635 0.01777 0.0
C962 C 0.22438 0.46405 0.0309 0.0
C963 C 0.23344 0.45403 0.01246 0.0
C964 C 0.21962 0.44325 -0.00212 0.0
C965 C 0.19709 0.44446 0.00051 0.0
C966 C 0.29074 0.44695 0.99028 0.0
C967 C 0.29883 0.4682 0.99225 0.0
C968 C 0.26967 0.44198 -0.00267 0.0
C969 C 0.25646 0.45811 0.00665 0.0
C970 C 0.26477 0.47916 0.0089 0.0
C971 C 0.2856 0.48412 0.00184 0.0
H972 H 0.81786 0.04521 0.23015 0.0
H973 H 0.78261 0.05243 0.2903 0.0
H974 H 0.82316 0.00664 0.23794 0.0
H975 H 0.78853 0.01424 0.29848 0.0
H976 H 0.76047 0.9484 0.27542 0.0
H977 H 0.76832 0.98671 0.2779 0.0
H978 H 0.83527 0.97438 0.26108 0.0
H979 H 0.82725 0.93536 0.25864 0.0
C980 C 0.81213 0.03875 0.24548 0.0
C981 C 0.79941 0.05155 0.25942 0.0
C982 C 0.81521 0.0167 0.24998 0.0
C983 C 0.80577 0.00735 0.26856 0.0
C984 C 0.79555 0.02092 0.28379 0.0
C985 C 0.79219 0.04276 0.27915 0.0
C986 C 0.77695 0.95375 0.27254 0.0
C987 C 0.79319 0.93895 0.26663 0.0
C988 C 0.78154 0.97573 0.27421 0.0
C989 C 0.80247 0.98358 0.26983 0.0
C990 C 0.81901 0.96874 0.26458 0.0
C991 C 0.81445 0.94649 0.26324 0.0
H992 H 0.68715 0.05789 0.99108 0.0
H993 H 0.70172 -0.00419 0.96199 0.0
H994 H 0.72537 0.06156 0.00184 0.0
H995 H 0.73946 -0.00031 0.97221 0.0
H996 H 0.79313 -0.00464 0.01979 0.0
H997 H 0.75557 -0.00225 0.00883 0.0
H998 H 0.76528 0.06396 0.98828 0.0
H999 H 0.80348 0.06168 -0.00027 0.0
C1000 C 0.69854 0.04524 0.98668 0.0
C1001 C 0.69135 0.02632 0.97614 0.0
C1002 C 0.72037 0.04738 0.99278 0.0
C1003 C 0.73525 0.03067 0.98831 0.0
C1004 C 0.72825 0.01256 0.97644 0.0
C1005 C 0.7066 0.01035 0.97055 0.0
C1006 C 0.78737 0.01052 0.01303 0.0
C1007 C 0.80143 0.0282 0.01023 0.0
C1008 C 0.7658 0.01185 0.00668 0.0
C1009 C 0.75763 0.03084 -0.00284 0.0
C1010 C 0.77123 0.04907 -0.00455 0.0
C1011 C 0.79304 0.04776 0.00197 0.0
H1012 H 0.31607 0.43489 0.78167 0.0
H1013 H 0.29448 0.43882 0.71514 0.0
H1014 H 0.32455 0.47376 0.78107 0.0
H1015 H 0.30323 0.47727 0.71439 0.0
H1016 H 0.32055 0.54603 0.71535 0.0
H1017 H 0.33109 0.50782 0.71857 0.0
H1018 H 0.29501 0.50308 0.77853 0.0
H1019 H 0.28432 0.54092 0.77517 0.0
C1020 C 0.31387 0.4439 0.76673 0.0
C1021 C 0.30432 0.43405 0.74855 0.0
C1022 C 0.31869 0.46608 0.76639 0.0
C1023 C 0.31447 0.47851 0.74771 0.0
C1024 C 0.30687 0.46809 0.72894 0.0
C1025 C 0.30165 0.44613 0.72943 0.0
C1026 C 0.31551 0.53696 0.72955 0.0
C1027 C 0.30132 0.54622 0.74482 0.0
C1028 C 0.32151 0.51515 0.73138 0.0
C1029 C 0.31373 0.50248 0.74871 0.0
C1030 C 0.30139 0.51245 0.76509 0.0
C1031 C 0.29508 0.53406 0.76306 0.0
H1032 H 0.29485 0.53749 0.45977 0.0
H1033 H 0.29685 0.574 0.51952 0.0
H1034 H 0.2565 0.54623 0.45568 0.0
H1035 H 0.25815 0.58236 0.51567 0.0
H1036 H 0.19164 0.54006 0.5172 0.0
H1037 H 0.22959 0.55094 0.5188 0.0
H1038 H 0.22546 0.57558 0.45332 0.0
H1039 H 0.18702 0.56516 0.45196 0.0
C1040 C 0.2872 0.54797 0.47165 0.0
C1041 C 0.29865 0.55487 0.49007 0.0
C1042 C 0.2653 0.55311 0.46923 0.0
C1043 C 0.25438 0.56485 0.48544 0.0
C1044 C 0.26627 0.5733 0.50296 0.0
C1045 C 0.28836 0.56855 0.50513 0.0
C1046 C 0.19867 0.54843 0.50341 0.0
C1047 C 0.1866 0.5516 0.48439 0.0
C1048 C 0.22031 0.55483 0.50439 0.0
C1049 C 0.23042 0.56407 0.48616 0.0
C1050 C 0.21796 0.56856 0.46759 0.0
C1051 C 0.19606 0.56261 0.46682 0.0
H1052 H 0.77705 0.66781 0.05891 0.0
H1053 H 0.71694 0.70199 0.04783 0.0
H1054 H 0.77714 0.65575 0.02094 0.0
H1055 H 0.71673 0.68955 0.01028 0.0
H1056 H 0.71856 0.66437 0.94367 0.0
H1057 H 0.71766 0.65695 0.9828 0.0
H1058 H 0.78189 0.68395 0.98923 0.0
H1059 H 0.78256 0.69181 0.95046 0.0
C1060 C 0.76349 0.67206 0.04858 0.0
C1061 C 0.74715 0.68608 0.05607 0.0
C1062 C 0.76354 0.66516 0.02693 0.0
C1063 C 0.74696 0.67176 0.01275 0.0
C1064 C 0.72958 0.68404 0.02091 0.0
C1065 C 0.7298 0.69133 0.04233 0.0
C1066 C 0.73276 0.66797 0.95337 0.0
C1067 C 0.75052 0.67892 0.94425 0.0
C1068 C 0.73222 0.66375 0.97569 0.0
C1069 C 0.74966 0.66997 0.98897 0.0
C1070 C 0.76832 0.67881 0.97935 0.0
C1071 C 0.76864 0.68347 0.95721 0.0
H1072 H 0.57168 0.51834 0.30045 0.0
H1073 H 0.53171 0.4611 0.29584 0.0
H1074 H 0.58075 0.51502 0.26182 0.0
H1075 H 0.54099 0.45763 0.25754 0.0
H1076 H 0.56232 0.45314 0.18898 0.0
H1077 H 0.57042 0.45324 0.22799 0.0
H1078 H 0.55273 0.5209 0.23136 0.0
H1079 H 0.54434 0.52068 0.19274 0.0
C1080 C 0.56544 0.50467 0.29137 0.0
C1081 C 0.55074 0.49015 0.30098 0.0
C1082 C 0.5706 0.5028 0.2693 0.0
C1083 C 0.56149 0.48613 0.2567 0.0
C1084 C 0.5484 0.47052 0.26687 0.0
C1085 C 0.54292 0.47262 0.28875 0.0
C1086 C 0.56082 0.46815 0.19799 0.0
C1087 C 0.55243 0.48682 0.18801 0.0
C1088 C 0.5654 0.46819 0.22026 0.0
C1089 C 0.56211 0.48705 0.23268 0.0
C1090 C 0.55562 0.50619 0.22219 0.0
C1091 C 0.55063 0.50602 0.20012 0.0
H1092 H 0.71904 0.29475 0.44119 0.0
H1093 H 0.78191 0.32536 0.43962 0.0
H1094 H 0.71514 0.30421 0.4794 0.0
H1095 H 0.77826 0.33444 0.4783 0.0
H1096 H 0.77402 0.29419 0.54611 0.0
H1097 H 0.7779 0.30437 0.50808 0.0
H1098 H 0.71437 0.33384 0.5095 0.0
H1099 H 0.71068 0.32399 0.54795 0.0
C1100 C 0.73175 0.30407 0.44895 0.0
C1101 C 0.75085 0.30916 0.43765 0.0
C1102 C 0.72945 0.30965 0.47076 0.0
C1103 C 0.74644 0.31998 0.48181 0.0
C1104 C 0.76493 0.3265 0.4701 0.0
C1105 C 0.76701 0.32134 0.44804 0.0
C1106 C 0.76119 0.30346 0.53848 0.0
C1107 C 0.74195 0.30807 0.54979 0.0
C1108 C 0.76348 0.30947 0.51678 0.0
C1109 C 0.74639 0.3198 0.50585 0.0
C1110 C 0.72778 0.32589 0.51761 0.0
C1111 C 0.72568 0.32028 0.53955 0.0
H1112 H 0.9583 0.46137 0.69512 0.0
H1113 H 0.92611 0.52353 0.69441 0.0
H1114 H 0.94813 0.45648 0.7331 0.0
H1115 H 0.91648 0.51892 0.7328 0.0
H1116 H 0.95897 0.5136 0.79993 0.0
H1117 H 0.9488 0.51794 0.76192 0.0
H1118 H 0.91661 0.45586 0.76339 0.0
H1119 H 0.92622 0.45184 0.80188 0.0
C1120 C 0.94842 0.47363 0.70294 0.0
C1121 C 0.94314 0.49288 0.69203 0.0
C1122 C 0.94247 0.47079 0.72461 0.0
C1123 C 0.93162 0.48739 0.73583 0.0
C1124 C 0.92477 0.50589 0.72441 0.0
C1125 C 0.93026 0.50849 0.70252 0.0
C1126 C 0.94909 0.50125 0.79232 0.0
C1127 C 0.94353 0.48232 0.80363 0.0
C1128 C 0.94311 0.5038 0.77065 0.0
C1129 C 0.93194 0.48721 0.7598 0.0
C1130 C 0.92511 0.4689 0.77151 0.0
C1131 C 0.93061 0.46661 0.79343 0.0
H1132 H 0.7987 0.95793 0.53023 0.0
H1133 H 0.80274 0.91654 0.47381 0.0
H1134 H 0.76102 0.94738 0.53546 0.0
H1135 H 0.76475 0.90616 0.47893 0.0
H1136 H 0.69559 0.94291 0.47396 0.0
H1137 H 0.73402 0.93385 0.47299 0.0
H1138 H 0.73193 0.91776 0.54121 0.0
H1139 H 0.69306 0.92645 0.54201 0.0
C1140 C 0.79169 0.94607 0.51933 0.0
C1141 C 0.80349 0.93831 0.50143 0.0
C1142 C 0.77016 0.93987 0.52244 0.0
C1143 C 0.75994 0.92607 0.5075 0.0
C1144 C 0.77228 0.91685 0.49065 0.0
C1145 C 0.79399 0.92277 0.48775 0.0
C1146 C 0.70319 0.93672 0.48855 0.0
C1147 C 0.69155 0.93559 0.50811 0.0
C1148 C 0.72514 0.93136 0.48798 0.0
C1149 C 0.73596 0.92521 0.50707 0.0
C1150 C 0.72392 0.92246 0.52629 0.0
C1151 C 0.70175 0.92738 0.52674 0.0
H1152 H 0.17117 0.32727 0.26539 0.0
H1153 H 0.23185 0.33715 0.29907 0.0
H1154 H 0.16172 0.29866 0.29121 0.0
H1155 H 0.22255 0.30858 0.32445 0.0
H1156 H 0.19787 0.26325 0.37445 0.0
H1157 H 0.19793 0.29695 0.35359 0.0
H1158 H 0.17664 0.26189 0.29677 0.0
H1159 H 0.17628 0.22841 0.31761 0.0
C1160 C 0.18235 0.32356 0.27842 0.0
C1161 C 0.20239 0.33429 0.28 0.0
C1162 C 0.17696 0.30716 0.29315 0.0
C1163 C 0.19141 0.30136 0.30981 0.0
C1164 C 0.21094 0.31283 0.31197 0.0
C1165 C 0.21637 0.32907 0.29723 0.0
C1166 C 0.19284 0.26285 0.35761 0.0
C1167 C 0.18742 0.24319 0.34754 0.0
C1168 C 0.19291 0.2821 0.34568 0.0
C1169 C 0.1875 0.28201 0.3235 0.0
C1170 C 0.18072 0.26254 0.31386 0.0
C1171 C 0.18071 0.24332 0.32576 0.0
H1172 H 0.01873 0.94353 0.5629 0.0
H1173 H 0.98771 -0.00484 0.59864 0.0
H1174 H 0.98573 0.9381 0.5419 0.0
H1175 H 0.95519 0.99089 0.57678 0.0
H1176 H 0.89265 0.96744 0.55104 0.0
H1177 H 0.92579 0.96816 0.57243 0.0
H1178 H 0.96287 0.95144 0.51506 0.0
H1179 H 0.92932 0.94925 0.49422 0.0
C1180 C 0.00494 0.95401 0.56591 0.0
C1181 C 0.00561 0.96967 0.58241 0.0
C1182 C 0.98602 0.95095 0.55386 0.0
C1183 C 0.96757 0.96382 0.55779 0.0
C1184 C 0.96874 0.98014 0.57375 0.0
C1185 C 0.98746 0.98282 0.58612 0.0
C1186 C 0.90789 0.96337 0.54326 0.0
C1187 C 0.90858 0.95817 0.52114 0.0
C1188 C 0.92694 0.96412 0.55537 0.0
C1189 C 0.94717 0.96039 0.54541 0.0
C1190 C 0.94765 0.95424 0.52338 0.0
C1191 C 0.92846 0.95293 0.5114 0.0
H1192 H 0.24684 0.72287 0.85923 0.0
H1193 H 0.3044 0.74948 0.82975 0.0
H1194 H 0.2514 0.68971 0.83808 0.0
H1195 H 0.31029 0.71589 0.81001 0.0
H1196 H 0.29684 0.66769 0.75561 0.0
H1197 H 0.29718 0.69825 0.78038 0.0
H1198 H 0.26937 0.65786 0.83075 0.0
H1199 H 0.26762 0.62779 0.80516 0.0
C1200 C 0.26073 0.72131 0.84855 0.0
C1201 C 0.27509 0.73862 0.84575 0.0
C1202 C 0.26354 0.70227 0.83654 0.0
C1203 C 0.28117 0.70005 0.82205 0.0
C1204 C 0.29616 0.71714 0.82038 0.0
C1205 C 0.29292 0.73635 0.83181 0.0
C1206 C 0.29122 0.66531 0.77212 0.0
C1207 C 0.28213 0.64552 0.7785 0.0
C1208 C 0.29145 0.68282 0.78644 0.0
C1209 C 0.2831 0.68072 0.80767 0.0
C1210 C 0.27536 0.66035 0.81441 0.0
C1211 C 0.2746 0.64302 0.79987 0.0
H1212 H 0.57006 0.04445 0.00152 0.0
H1213 H 0.60621 -0.00141 0.04002 0.0
H1214 H 0.5406 0.04334 0.02765 0.0
H1215 H 0.57752 -0.0014 0.06728 0.0
H1216 H 0.51147 0.98058 0.09582 0.0
H1217 H 0.54357 0.9846 0.07294 0.0
H1218 H 0.52587 0.05141 0.06044 0.0
H1219 H 0.49308 0.04654 0.08173 0.0
C1220 C 0.572 0.03477 0.01608 0.0
C1221 C 0.59033 0.02163 0.01883 0.0
C1222 C 0.5551 0.0341 0.03117 0.0
C1223 C 0.55641 0.02068 0.04967 0.0
C1224 C 0.57553 0.00863 0.05301 0.0
C1225 C 0.59215 0.00885 0.03758 0.0
C1226 C 0.51459 -0.00396 0.08809 0.0
C1227 C 0.4998 0.01315 0.0902 0.0
C1228 C 0.53309 -0.00149 0.07514 0.0
C1229 C 0.53746 0.01837 0.0646 0.0
C1230 C 0.5229 0.03569 0.06764 0.0
C1231 C 0.50413 0.03298 0.07998 0.0
H1232 H 0.23529 0.719 0.12557 0.0
H1233 H 0.17481 0.74507 0.14923 0.0
H1234 H 0.22943 0.68616 0.14654 0.0
H1235 H 0.16774 0.71154 0.1688 0.0
H1236 H 0.18217 0.66869 0.22808 0.0
H1237 H 0.17924 0.69616 0.20023 0.0
H1238 H 0.21295 0.65409 0.15508 0.0
H1239 H 0.21729 0.62729 0.18383 0.0
C1240 C 0.22041 0.71734 0.13479 0.0
C1241 C 0.20569 0.73457 0.13619 0.0
C1242 C 0.21686 0.69841 0.1467 0.0
C1243 C 0.19818 0.69612 0.15976 0.0
C1244 C 0.18265 0.71287 0.1596 0.0
C1245 C 0.18657 0.73204 0.14826 0.0
C1246 C 0.18846 0.66513 0.21204 0.0
C1247 C 0.20021 0.64605 0.20815 0.0
C1248 C 0.18673 0.68089 0.1959 0.0
C1249 C 0.19625 0.67768 0.17532 0.0
C1250 C 0.20609 0.65755 0.17089 0.0
C1251 C 0.20836 0.64204 0.18726 0.0
H1252 H 0.60592 0.96603 0.4403 0.0
H1253 H 0.57682 0.92276 0.4872 0.0
H1254 H 0.57549 0.96051 0.41608 0.0
H1255 H 0.54634 0.91683 0.46255 0.0
H1256 H 0.48417 0.94825 0.43191 0.0
H1257 H 0.51699 0.94172 0.45278 0.0
H1258 H 0.55394 0.93701 0.39326 0.0
H1259 H 0.52107 0.94408 0.37236 0.0
C1260 C 0.59325 0.95488 0.4452 0.0
C1261 C 0.59355 0.94515 0.46583 0.0
C1262 C 0.57587 0.95157 0.4312 0.0
C1263 C 0.55837 0.93846 0.43752 0.0
C1264 C 0.55947 0.9273 0.45741 0.0
C1265 C 0.57698 0.93056 0.47144 0.0
C1266 C 0.49926 0.9456 0.42328 0.0
C1267 C 0.50016 0.94701 0.40055 0.0
C1268 C 0.51803 0.9416 0.43522 0.0
C1269 C 0.53808 0.93888 0.42467 0.0
C1270 C 0.53876 0.93927 0.40185 0.0
C1271 C 0.51997 0.94334 0.3899 0.0
H1272 H 0.31543 0.22739 0.65999 0.0
H1273 H 0.26325 0.25993 0.62659 0.0
H1274 H 0.32344 0.26043 0.68001 0.0
H1275 H 0.27016 0.29263 0.64754 0.0
H1276 H 0.30822 0.31146 0.73296 0.0
H1277 H 0.30972 0.28057 0.70851 0.0
H1278 H 0.29201 0.32224 0.65481 0.0
H1279 H 0.28915 0.35274 0.67978 0.0
C1280 C 0.3056 0.24165 0.65706 0.0
C1281 C 0.28864 0.24115 0.64189 0.0
C1282 C 0.31012 0.26058 0.66859 0.0
C1283 C 0.29744 0.2793 0.66558 0.0
C1284 C 0.28065 0.27878 0.65005 0.0
C1285 C 0.27647 0.25996 0.63815 0.0
C1286 C 0.30535 0.31407 0.7158 0.0
C1287 C 0.29846 0.33435 0.70821 0.0
C1288 C 0.30615 0.29635 0.7017 0.0
C1289 C 0.30049 0.29871 0.67965 0.0
C1290 C 0.29574 0.31959 0.67178 0.0
C1291 C 0.29443 0.33716 0.68598 0.0
H1292 H 0.89785 0.00432 0.95252 0.0
H1293 H 0.91582 0.06227 0.98754 0.0
H1294 H 0.92731 0.01049 0.92694 0.0
H1295 H 0.94543 0.06845 0.96176 0.0
H1296 H 0.01297 0.04664 0.93266 0.0
H1297 H 0.98032 0.04759 0.95514 0.0
H1298 H 0.94099 0.03595 0.89837 0.0
H1299 H 0.9736 0.03494 0.87588 0.0
C1300 C 0.90787 0.0186 0.95452 0.0
C1301 C 0.90461 0.03275 0.9721 0.0
C1302 C 0.92467 0.02219 0.9398 0.0
C1303 C 0.9387 0.03989 0.94245 0.0
C1304 C 0.93491 0.05459 0.95947 0.0
C1305 C 0.91788 0.05115 0.97409 0.0
C1306 C -0.00266 0.04448 0.92497 0.0
C1307 C -0.00418 0.04049 0.90258 0.0
C1308 C 0.97865 0.04521 0.9378 0.0
C1309 C 0.95815 0.04182 0.92847 0.0
C1310 C 0.95661 0.03846 0.90598 0.0
C1311 C 0.97527 0.03789 0.89313 0.0
H1312 H 0.34256 0.24715 0.25987 0.0
H1313 H 0.32371 0.18179 0.24382 0.0
H1314 H 0.31812 0.24654 0.29117 0.0
H1315 H 0.30074 0.18031 0.27576 0.0
H1316 H 0.24263 0.19176 0.31852 0.0
H1317 H 0.2681 0.19232 0.28849 0.0
H1318 H 0.31094 0.23358 0.32574 0.0
H1319 H 0.28447 0.23415 0.35518 0.0
C1320 C 0.33341 0.23256 0.26333 0.0
C1321 C 0.33472 0.21462 0.24947 0.0
C1322 C 0.31954 0.23208 0.28132 0.0
C1323 C 0.30722 0.2134 0.28602 0.0
C1324 C 0.30935 0.19522 0.2724 0.0
C1325 C 0.32266 0.19597 0.25416 0.0
C1326 C 0.25761 0.20075 0.32032 0.0
C1327 C 0.26167 0.21283 0.33913 0.0
C1328 C 0.27233 0.20103 0.30313 0.0
C1329 C 0.29176 0.21294 0.30459 0.0
C1330 C 0.29601 0.22457 0.32377 0.0
C1331 C 0.28098 0.22473 0.34076 0.0
H1332 H 0.05331 0.06424 0.60774 0.0
H1333 H 0.06991 0.01093 0.56562 0.0
H1334 H 0.0581 0.08953 0.57771 0.0
H1335 H 0.07295 0.0356 0.53519 0.0
H1336 H 0.02504 0.11677 0.51669 0.0
H1337 H 0.03551 0.09781 0.54952 0.0
H1338 H 0.08492 0.06306 0.5135 0.0
H1339 H 0.07303 0.08101 0.48034 0.0
C1340 C 0.05859 0.05807 0.59213 0.0
C1341 C 0.06112 0.03573 0.58884 0.0
C1342 C 0.06097 0.07247 0.5748 0.0
C1343 C 0.06506 0.06465 0.5537 0.0
C1344 C 0.06982 0.04244 0.55106 0.0
C1345 C 0.0681 0.02816 0.56856 0.0
C1346 C 0.03825 0.1052 0.5159 0.0
C1347 C 0.04795 0.1 0.49601 0.0
C1348 C 0.04453 0.09445 0.53482 0.0
C1349 C 0.06108 0.07864 0.53434 0.0
C1350 C 0.07175 0.07463 0.51452 0.0
C1351 C 0.06502 0.08496 0.4955 0.0
H1352 H 0.11066 0.77412 0.77417 0.0
H1353 H 0.16786 0.79577 0.73989 0.0
H1354 H 0.12926 0.77981 0.80875 0.0
H1355 H 0.18657 0.80075 0.77408 0.0
H1356 H 0.21624 0.81592 0.83642 0.0
H1357 H 0.18983 0.8205 0.80733 0.0
H1358 H 0.15786 0.76142 0.82725 0.0
H1359 H 0.18351 0.7573 0.85662 0.0
C1360 C 0.12716 0.78015 0.77405 0.0
C1361 C 0.13791 0.78429 0.75439 0.0
C1362 C 0.1378 0.78342 0.79381 0.0
C1363 C 0.1594 0.79075 0.7942 0.0
C1364 C 0.16981 0.79551 0.77446 0.0
C1365 C 0.15917 0.79237 0.7548 0.0
C1366 C 0.20323 0.80424 0.83493 0.0
C1367 C 0.20231 0.78597 0.84852 0.0
C1368 C 0.18818 0.80678 0.81818 0.0
C1369 C 0.17203 0.79106 0.81467 0.0
C1370 C 0.17001 0.77388 0.82948 0.0
C1371 C 0.18492 0.77141 0.84625 0.0
H1372 H 0.45336 0.86848 0.00749 0.0
H1373 H 0.41693 0.91513 0.97003 0.0
H1374 H 0.44641 0.88895 0.04013 0.0
H1375 H 0.40883 0.93535 0.0032 0.0
H1376 H 0.43243 0.9229 0.09874 0.0
H1377 H 0.42319 0.90114 0.06703 0.0
H1378 H 0.42796 0.95838 0.02665 0.0
H1379 H 0.43549 0.98015 0.05873 0.0
C1380 C 0.44344 0.88293 0.00632 0.0
C1381 C 0.43599 0.8904 0.98617 0.0
C1382 C 0.43915 0.8946 0.02517 0.0
C1383 C 0.42698 0.9139 0.02444 0.0
C1384 C 0.41852 0.92075 0.00436 0.0
C1385 C 0.42309 0.90916 0.98536 0.0
C1386 C 0.43059 0.93084 0.08315 0.0
C1387 C 0.43477 0.95303 0.08097 0.0
C1388 C 0.42558 0.9184 0.06494 0.0
C1389 C 0.42558 0.92783 0.04412 0.0
C1390 C 0.42776 0.95049 0.04235 0.0
C1391 C 0.43213 0.96303 0.06072 0.0
H1392 H 0.32867 0.81448 0.25546 0.0
H1393 H 0.36063 0.75468 0.23819 0.0
H1394 H 0.30812 0.81347 0.22187 0.0
H1395 H 0.33885 0.75252 0.20523 0.0
H1396 H 0.30696 0.76035 0.14024 0.0
H1397 H 0.33129 0.76552 0.17088 0.0
H1398 H 0.27904 0.7958 0.20689 0.0
H1399 H 0.25536 0.79191 0.17562 0.0
C1400 C 0.33116 0.80104 0.2444 0.0
C1401 C 0.34607 0.78461 0.2493 0.0
C1402 C 0.31924 0.80031 0.22524 0.0
C1403 C 0.32148 0.78274 0.21088 0.0
C1404 C 0.33685 0.76649 0.21567 0.0
C1405 C 0.34927 0.76759 0.23461 0.0
C1406 C 0.30084 0.76833 0.15468 0.0
C1407 C 0.27935 0.77577 0.15565 0.0
C1408 C 0.31471 0.77113 0.17232 0.0
C1409 C 0.3072 0.78097 0.19151 0.0
C1410 C 0.28565 0.78858 0.19229 0.0
C1411 C 0.27196 0.78625 0.17443 0.0
H1412 H 0.51359 0.02529 0.39982 0.0
H1413 H 0.44392 0.03107 0.39376 0.0
H1414 H 0.51339 0.05323 0.42775 0.0
H1415 H 0.44399 0.05941 0.42162 0.0
H1416 H 0.46068 0.12124 0.46428 0.0
H1417 H 0.46348 0.09985 0.43061 0.0
H1418 H 0.49257 0.04734 0.46665 0.0
H1419 H 0.48916 0.06826 0.50014 0.0
C1420 C 0.49829 0.03286 0.40403 0.0
C1421 C 0.47871 0.02578 0.39473 0.0
C1422 C 0.49824 0.04884 0.42001 0.0
C1423 C 0.4787 0.05832 0.42671 0.0
C1424 C 0.45927 0.05237 0.4165 0.0
C1425 C 0.45924 0.03608 0.40071 0.0
C1426 C 0.46787 0.10522 0.46482 0.0
C1427 C 0.47459 0.09622 0.48464 0.0
C1428 C 0.46938 0.09304 0.4457 0.0
C1429 C 0.47826 0.07209 0.44622 0.0
C1430 C 0.48579 0.06354 0.46592 0.0
C1431 C 0.48374 0.07542 0.48502 0.0
H1432 H 0.16291 0.16854 0.75569 0.0
H1433 H 0.12405 0.21663 0.72295 0.0
H1434 H 0.18485 0.16389 0.72316 0.0
H1435 H 0.14698 0.21361 0.69105 0.0
H1436 H 0.186 0.20223 0.63229 0.0
H1437 H 0.15965 0.19604 0.66111 0.0
H1438 H 0.21219 0.18128 0.70538 0.0
H1439 H 0.23808 0.18572 0.67591 0.0
C1440 C 0.15912 0.17812 0.74144 0.0
C1441 C 0.14199 0.19309 0.74182 0.0
C1442 C 0.17181 0.17565 0.72284 0.0
C1443 C 0.1681 0.18864 0.70442 0.0
C1444 C 0.1503 0.20302 0.70465 0.0
C1445 C 0.13718 0.20497 0.72305 0.0
C1446 C 0.19171 0.19713 0.64812 0.0
C1447 C 0.21394 0.19447 0.65204 0.0
C1448 C 0.17668 0.19383 0.66474 0.0
C1449 C 0.18365 0.18855 0.68585 0.0
C1450 C 0.20598 0.18499 0.68938 0.0
C1451 C 0.22094 0.18764 0.67254 0.0
H1452 H 0.05772 0.91611 0.99384 0.0
H1453 H 0.01688 0.86912 0.96181 0.0
H1454 H 0.05745 0.93853 0.96143 0.0
H1455 H 0.01695 0.89146 0.92901 0.0
H1456 H -0.0043 0.95472 0.89298 0.0
H1457 H 0.00063 0.92614 0.91959 0.0
H1458 H 0.06881 0.94164 0.92381 0.0
H1459 H 0.06384 0.97071 0.8975 0.0
C1460 C 0.04894 0.91042 0.97973 0.0
C1461 C 0.03714 0.89099 0.9804 0.0
C1462 C 0.04895 0.92317 0.96107 0.0
C1463 C 0.03717 0.91677 0.94264 0.0
C1464 C 0.026 0.89691 0.94304 0.0
C1465 C 0.02601 0.88411 0.96177 0.0
C1466 C 0.01184 0.95186 0.89927 0.0
C1467 C 0.0293 0.96527 0.89334 0.0
C1468 C 0.01469 0.93533 0.91445 0.0
C1469 C 0.03506 0.93178 0.92398 0.0
C1470 C 0.05283 0.94426 0.91702 0.0
C1471 C 0.04998 0.96086 0.90188 0.0
H1472 H 0.21878 0.31795 0.18292 0.0
H1473 H 0.26425 0.3602 0.21526 0.0
H1474 H 0.24878 0.29483 0.171 0.0
H1475 H 0.29389 0.33695 0.20423 0.0
H1476 H 0.30476 0.2459 0.19004 0.0
H1477 H 0.27328 0.2696 0.187 0.0
H1478 H 0.31576 0.32421 0.17564 0.0
H1479 H 0.34713 0.30053 0.18014 0.0
C1480 C 0.23518 0.32228 0.18746 0.0
C1481 C 0.23921 0.34079 0.20011 0.0
C1482 C 0.25235 0.30906 0.18063 0.0
C1483 C 0.27382 0.31408 0.18645 0.0
C1484 C 0.2777 0.33283 0.19887 0.0
C1485 C 0.26064 0.34606 0.2055 0.0
C1486 C 0.30723 0.2628 0.18594 0.0
C1487 C 0.32819 0.27154 0.18543 0.0
C1488 C 0.2892 0.27645 0.18425 0.0
C1489 C 0.29201 0.29896 0.18176 0.0
C1490 C 0.31306 0.30707 0.17831 0.0
C1491 C 0.33103 0.29352 0.18053 0.0
H1492 H 0.76054 0.13687 0.73881 0.0
H1493 H 0.74421 0.15456 0.80454 0.0
H1494 H 0.79402 0.15789 0.74137 0.0
H1495 H 0.7783 0.174 0.80802 0.0
H1496 H 0.82187 0.23207 0.79617 0.0
H1497 H 0.79216 0.20648 0.79675 0.0
H1498 H 0.82865 0.16322 0.75507 0.0
H1499 H 0.85788 0.18976 0.75342 0.0
C1500 C 0.76449 0.14488 0.75395 0.0
C1501 C 0.74991 0.14454 0.77137 0.0
C1502 C 0.78371 0.15677 0.75556 0.0
C1503 C 0.78883 0.16796 0.77485 0.0
C1504 C 0.77465 0.16626 0.79268 0.0
C1505 C 0.75521 0.15501 0.7908 0.0
C1506 C 0.82366 0.21694 0.78741 0.0
C1507 C 0.84208 0.21292 0.77467 0.0
C1508 C 0.80665 0.20213 0.78781 0.0
C1509 C 0.80788 0.18268 0.77589 0.0
C1510 C 0.82688 0.1782 0.76404 0.0
C1511 C 0.84372 0.1933 0.76324 0.0
H1512 H -0.00257 0.58293 0.05291 0.0
H1513 H 0.03269 0.60509 -0.00364 0.0
H1514 H 0.02342 0.55336 0.05729 0.0
H1515 H 0.05817 0.5754 0.00047 0.0
H1516 H 0.1095 0.52765 0.02243 0.0
H1517 H 0.08662 0.55997 0.02295 0.0
H1518 H 0.03062 0.52013 0.03662 0.0
H1519 H 0.05353 0.48795 0.03655 0.0
C1520 C 0.01086 0.5817 0.04162 0.0
C1521 C 0.01286 0.59624 0.02417 0.0
C1522 C 0.02562 0.56467 0.04402 0.0
C1523 C 0.04268 0.56194 0.02907 0.0
C1524 C 0.0453 0.57715 0.01233 0.0
C1525 C 0.03057 0.5941 0.00992 0.0
C1526 C 0.0923 0.52584 0.02554 0.0
C1527 C 0.08326 0.50533 0.02939 0.0
C1528 C 0.07922 0.54431 0.02584 0.0
C1529 C 0.05685 0.54259 0.02996 0.0
C1530 C 0.04786 0.52203 0.03382 0.0
C1531 C 0.06094 0.50358 0.03354 0.0
H1532 H 0.67222 0.74269 0.28147 0.0
H1533 H 0.63582 0.80188 0.27356 0.0
H1534 H 0.70605 0.76304 0.27909 0.0
H1535 H 0.66933 0.8226 0.27284 0.0
H1536 H 0.76309 0.80825 0.2913 0.0
H1537 H 0.7301 0.78694 0.29471 0.0
H1538 H 0.69776 0.83048 0.25006 0.0
H1539 H 0.73038 0.85256 0.24811 0.0
C1540 C 0.67155 0.76018 0.27993 0.0
C1541 C 0.65159 0.77083 0.27776 0.0
C1542 C 0.6909 0.77189 0.27855 0.0
C1543 C 0.69056 0.79453 0.27546 0.0
C1544 C 0.67037 0.80516 0.27448 0.0
C1545 C 0.65112 0.79339 0.27526 0.0
C1546 C 0.7489 0.81313 0.28216 0.0
C1547 C 0.74911 0.83208 0.26958 0.0
C1548 C 0.72998 0.80087 0.28402 0.0
C1549 C 0.71103 0.80705 0.2729 0.0
C1550 C 0.71172 0.82555 0.25948 0.0
C1551 C 0.73048 0.83811 0.25811 0.0
H1552 H 0.93462 0.02312 0.03839 0.0
H1553 H 0.88512 0.97615 0.05409 0.0
H1554 H 0.96172 0.99407 0.03704 0.0
H1555 H 0.91234 0.94726 0.05328 0.0
H1556 H 0.98163 0.92897 -0.00186 0.0
H1557 H 0.96035 0.96097 0.0077 0.0
H1558 H 0.9512 0.93585 0.07247 0.0
H1559 H 0.97315 0.90387 0.06307 0.0
C1560 C 0.92968 0.00669 0.04211 0.0
C1561 C 0.90784 0.00176 0.04623 0.0
C1562 C 0.94513 0.99015 0.04132 0.0
C1563 C 0.93901 0.96859 0.04517 0.0
C1564 C 0.91741 0.96384 0.05052 0.0
C1565 C 0.90188 0.9803 0.05083 0.0
C1566 C 0.97534 0.93044 0.01451 0.0
C1567 C 0.97881 0.91398 0.02985 0.0
C1568 C 0.96336 0.94878 0.02001 0.0
C1569 C 0.95427 0.95075 0.04079 0.0
C1570 C 0.95817 0.93459 0.05637 0.0
C1571 C 0.97068 0.91642 0.05102 0.0
H1572 H 0.25103 0.65739 0.67886 0.0
H1573 H 0.22418 0.62306 0.73364 0.0
H1574 H 0.21843 0.67947 0.67648 0.0
H1575 H 0.19222 0.64623 0.73262 0.0
H1576 H 0.13133 0.68319 0.72154 0.0
H1577 H 0.16042 0.65693 0.71664 0.0
H1578 H 0.20236 0.70825 0.69345 0.0
H1579 H 0.17262 0.73395 0.69688 0.0
C1580 C 0.23806 0.65466 0.69043 0.0
C1581 C 0.24004 0.63867 0.70648 0.0
C1582 C 0.21944 0.66745 0.68924 0.0
C1583 C 0.20266 0.665 0.70455 0.0
C1584 C 0.20452 0.64847 0.72029 0.0
C1585 C 0.22292 0.63524 0.72103 0.0
C1586 C 0.14672 0.68866 0.71502 0.0
C1587 C 0.14984 0.71052 0.70959 0.0
C1588 C 0.16349 0.67368 0.71242 0.0
C1589 C 0.18399 0.68037 0.70491 0.0
C1590 C 0.18679 0.70226 0.6989 0.0
C1591 C 0.16979 0.7171 0.70095 0.0
H1592 H 0.01224 0.40806 0.42472 0.0
H1593 H 0.05184 0.38388 0.47732 0.0
H1594 H 0.03694 0.43865 0.42034 0.0
H1595 H 0.07593 0.4146 0.47342 0.0
H1596 H 0.12031 0.47006 0.45908 0.0
H1597 H 0.10175 0.4356 0.4531 0.0
H1598 H 0.04137 0.46999 0.44354 0.0
H1599 H 0.05997 0.50425 0.4489 0.0
C1600 C 0.02644 0.40899 0.43501 0.0
C1601 C 0.02981 0.39382 0.45168 0.0
C1602 C 0.04048 0.42659 0.43263 0.0
C1603 C 0.05811 0.42929 0.44685 0.0
C1604 C 0.06255 0.41303 0.46216 0.0
C1605 C 0.04858 0.39547 0.46452 0.0
C1606 C 0.10309 0.47019 0.4556 0.0
C1607 C 0.09152 0.48977 0.45465 0.0
C1608 C 0.09249 0.4505 0.45212 0.0
C1609 C 0.07011 0.45006 0.44775 0.0
C1610 C 0.0587 0.46975 0.44642 0.0
C1611 C 0.0693 0.48938 0.44979 0.0
H1612 H 0.48974 0.57918 0.92802 0.0
H1613 H 0.45382 0.59728 0.98561 0.0
H1614 H 0.46232 0.55178 0.9197 0.0
H1615 H 0.42677 0.56996 0.97739 0.0
H1616 H 0.37261 0.53132 0.94999 0.0
H1617 H 0.39833 0.56129 0.95051 0.0
H1618 H 0.4507 0.51673 0.93689 0.0
H1619 H 0.42492 0.48673 0.93608 0.0
C1620 C 0.47593 0.57747 0.93877 0.0
C1621 C 0.474 0.59035 0.95752 0.0
C1622 C 0.46032 0.56174 0.93405 0.0
C1623 C 0.4424 0.55882 0.94785 0.0
C1624 C 0.44024 0.57206 0.96627 0.0
C1625 C 0.45587 0.5876 0.97108 0.0
C1626 C 0.38957 0.52797 0.94677 0.0
C1627 C 0.39683 0.50668 0.94328 0.0
C1628 C 0.40428 0.5451 0.94713 0.0
C1629 C 0.42652 0.54127 0.94401 0.0
C1630 C 0.43362 0.52016 0.93922 0.0
C1631 C 0.41888 0.50299 0.93886 0.0
H1632 H 0.69356 0.72493 0.82816 0.0
H1633 H 0.74312 0.75664 0.86591 0.0
H1634 H 0.68632 0.75855 0.80892 0.0
H1635 H 0.73723 0.79001 0.84559 0.0
H1636 H 0.71682 0.8516 0.81533 0.0
H1637 H 0.71568 0.81957 0.83844 0.0
H1638 H 0.70026 0.78029 0.78227 0.0
H1639 H 0.69982 0.81267 0.75977 0.0
C1640 C 0.70307 0.73914 0.83214 0.0
C1641 C 0.71898 0.73829 0.84836 0.0
C1642 C 0.69902 0.75841 0.82103 0.0
C1643 C 0.71124 0.77712 0.82548 0.0
C1644 C 0.72711 0.77617 0.84195 0.0
C1645 C 0.73071 0.75701 0.85349 0.0
C1646 C 0.71259 0.83612 0.80818 0.0
C1647 C 0.70836 0.83446 0.78588 0.0
C1648 C 0.71224 0.8177 0.82131 0.0
C1649 C 0.70835 0.79713 0.81225 0.0
C1650 C 0.70306 0.79577 0.79002 0.0
C1651 C 0.70282 0.81432 0.77703 0.0
H1652 H 0.49601 0.43337 0.07617 0.0
H1653 H 0.48199 0.49715 0.10112 0.0
H1654 H 0.46338 0.43457 0.05414 0.0
H1655 H 0.45027 0.49948 0.07764 0.0
H1656 H 0.42054 0.45342 -0.00258 0.0
H1657 H 0.45011 0.44912 0.02306 0.0
H1658 H 0.41565 0.48934 0.06935 0.0
H1659 H 0.38699 0.49491 0.04277 0.0
C1660 C 0.48592 0.44776 0.07671 0.0
C1661 C 0.4914 0.46522 0.09015 0.0
C1662 C 0.4673 0.44858 0.06393 0.0
C1663 C 0.45416 0.46725 0.06371 0.0
C1664 C 0.45964 0.48464 0.07755 0.0
C1665 C 0.47792 0.48346 0.0909 0.0
C1666 C 0.41928 0.46112 0.01319 0.0
C1667 C 0.40162 0.47454 0.01815 0.0
C1668 C 0.43618 0.45859 0.02803 0.0
C1669 C 0.43548 0.46893 0.04844 0.0
C1670 C 0.41717 0.48157 0.05366 0.0
C1671 C 0.4006 0.4846 0.03855 0.0
H1672 H 0.77731 0.23095 0.36904 0.0
H1673 H 0.79362 0.2665 0.31081 0.0
H1674 H 0.77931 0.19702 0.34875 0.0
H1675 H 0.79531 0.23263 0.29049 0.0
H1676 H 0.81109 0.16603 0.26317 0.0
H1677 H 0.81541 0.19784 0.2865 0.0
H1678 H 0.75633 0.18119 0.32035 0.0
H1679 H 0.75213 0.14949 0.29751 0.0
C1680 C 0.78143 0.23149 0.35195 0.0
C1681 C 0.78512 0.25134 0.34144 0.0
C1682 C 0.78254 0.2121 0.34034 0.0
C1683 C 0.78741 0.21221 0.31803 0.0
C1684 C 0.79178 0.23203 0.30771 0.0
C1685 C 0.79062 0.25142 0.31931 0.0
C1686 C 0.79921 0.16903 0.2758 0.0
C1687 C 0.7812 0.15531 0.27838 0.0
C1688 C 0.80162 0.18727 0.28905 0.0
C1689 C 0.78619 0.19198 0.3052 0.0
C1690 C 0.76863 0.17785 0.30823 0.0
C1691 C 0.76615 0.15976 0.29497 0.0
H1692 H -0.00432 0.56885 0.58971 0.0
H1693 H 0.02081 0.50984 0.61756 0.0
H1694 H 0.0282 0.57248 0.5676 0.0
H1695 H 0.05252 0.51219 0.59419 0.0
H1696 H 0.11126 0.52139 0.55411 0.0
H1697 H 0.08471 0.52696 0.58292 0.0
H1698 H 0.04156 0.55737 0.53657 0.0
H1699 H 0.06879 0.55318 0.50846 0.0
C1700 C 0.00829 0.55668 0.59108 0.0
C1701 C 0.00578 0.53898 0.60511 0.0
C1702 C 0.02685 0.5586 0.57826 0.0
C1703 C 0.04294 0.5424 0.57861 0.0
C1704 C 0.04075 0.52519 0.59353 0.0
C1705 C 0.02246 0.52368 0.60688 0.0
C1706 C 0.09624 0.5297 0.55033 0.0
C1707 C 0.09198 0.5368 0.52911 0.0
C1708 C 0.08091 0.53272 0.56677 0.0
C1709 C 0.06071 0.54233 0.56217 0.0
C1710 C 0.05696 0.55025 0.54102 0.0
C1711 C 0.07255 0.54775 0.52476 0.0
H1712 H 0.67639 0.25931 0.66123 0.0
H1713 H 0.72806 0.22853 0.62536 0.0
H1714 H 0.66914 0.22556 0.68027 0.0
H1715 H 0.72207 0.19505 0.64547 0.0
H1716 H 0.70414 0.13362 0.67683 0.0
H1717 H 0.70134 0.16486 0.65278 0.0
H1718 H 0.68316 0.2048 0.70769 0.0
H1719 H 0.68451 0.17321 0.73114 0.0
C1720 C 0.68631 0.24526 0.65758 0.0
C1721 C 0.70289 0.24646 0.642 0.0
C1722 C 0.68224 0.22591 0.66856 0.0
C1723 C 0.6951 0.20746 0.66468 0.0
C1724 C 0.71148 0.20869 0.6487 0.0
C1725 C 0.71514 0.22793 0.63728 0.0
C1726 C 0.69885 0.149 0.6835 0.0
C1727 C 0.69454 0.15108 0.70578 0.0
C1728 C 0.69756 0.167 0.66982 0.0
C1729 C 0.69255 0.18761 0.67827 0.0
C1730 C 0.68686 0.18927 0.70039 0.0
C1731 C 0.68761 0.17113 0.71394 0.0
H1732 H 0.10113 0.4787 0.94084 0.0
H1733 H 0.08193 0.42491 0.98154 0.0
H1734 H 0.0727 0.46979 0.91535 0.0
H1735 H 0.05373 0.41549 0.95544 0.0
H1736 H 0.98618 0.43498 0.92767 0.0
H1737 H 0.01982 0.43323 0.94801 0.0
H1738 H 0.05603 0.44651 0.88933 0.0
H1739 H 0.0221 0.44896 0.86905 0.0
C1740 C 0.0912 0.4646 0.94409 0.0
C1741 C 0.09349 0.45284 0.96352 0.0
C1742 C 0.07496 0.45934 0.9293 0.0
C1743 C 0.06067 0.44213 0.93352 0.0
C1744 C 0.0642 0.42915 0.95197 0.0
C1745 C 0.08047 0.43445 0.96685 0.0
C1746 C 0.00133 0.4373 0.91905 0.0
C1747 C 0.00152 0.44245 0.89685 0.0
C1748 C 0.02068 0.43604 0.93068 0.0
C1749 C 0.04067 0.43978 0.92033 0.0
C1750 C 0.04089 0.44383 0.89784 0.0
C1751 C 0.02148 0.44522 0.88623 0.0
H1752 H 0.77485 0.85887 0.18024 0.0
H1753 H 0.82354 0.83036 0.22184 0.0
H1754 H 0.77696 0.82782 0.15631 0.0
H1755 H 0.82625 0.79947 0.19731 0.0
H1756 H 0.78787 0.73716 0.17959 0.0
H1757 H 0.79916 0.77145 0.19516 0.0
H1758 H 0.79324 0.80205 0.13227 0.0
H1759 H 0.78126 0.76763 0.11677 0.0
C1760 C 0.78666 0.84635 0.18381 0.0
C1761 C 0.79845 0.84667 0.20333 0.0
C1762 C 0.78797 0.82854 0.16997 0.0
C1763 C 0.80123 0.81081 0.17533 0.0
C1764 C 0.81537 0.81262 0.19315 0.0
C1765 C 0.81399 0.83044 0.20709 0.0
C1766 C 0.78905 0.75118 0.16906 0.0
C1767 C 0.78338 0.74982 0.14706 0.0
C1768 C 0.79588 0.77079 0.1779 0.0
C1769 C 0.79731 0.7895 0.16492 0.0
C1770 C 0.7922 0.78797 0.14272 0.0
C1771 C 0.78524 0.76831 0.13388 0.0
H1772 H 0.41428 0.56369 0.47665 0.0
H1773 H 0.39282 0.50587 0.44335 0.0
H1774 H 0.4452 0.56617 0.45178 0.0
H1775 H 0.42367 0.50801 0.41922 0.0
H1776 H 0.47383 0.52285 0.36925 0.0
H1777 H 0.44058 0.52762 0.39025 0.0
H1778 H 0.47851 0.54562 0.44638 0.0
H1779 H 0.51163 0.54147 0.42521 0.0
C1780 C 0.41599 0.55169 0.46393 0.0
C1781 C 0.40118 0.53449 0.46214 0.0
C1782 C 0.43377 0.55301 0.44979 0.0
C1783 C 0.43696 0.53722 0.43358 0.0
C1784 C 0.42161 0.52061 0.4313 0.0
C1785 C 0.40396 0.51928 0.44534 0.0
C1786 C 0.47502 0.52797 0.38602 0.0
C1787 C 0.4953 0.53159 0.39565 0.0
C1788 C 0.456 0.53069 0.39807 0.0
C1789 C 0.45689 0.53692 0.42003 0.0
C1790 C 0.47721 0.54111 0.42944 0.0
C1791 C 0.49621 0.5385 0.41736 0.0
H1792 H 0.81239 0.72073 0.85227 0.0
H1793 H 0.77538 0.66473 0.83217 0.0
H1794 H 0.83525 0.71713 0.82047 0.0
H1795 H 0.79883 0.66077 0.80045 0.0
H1796 H 0.81716 0.68915 0.73267 0.0
H1797 H 0.80048 0.68307 0.76792 0.0
H1798 H 0.86151 0.69716 0.79934 0.0
H1799 H 0.87809 0.70382 0.76394 0.0
C1800 C 0.80946 0.7073 0.84134 0.0
C1801 C 0.79175 0.69331 0.84449 0.0
C1802 C 0.82273 0.70512 0.82317 0.0
C1803 C 0.81863 0.68886 0.80777 0.0
C1804 C 0.80209 0.67372 0.81186 0.0
C1805 C 0.78877 0.6759 0.8301 0.0
C1806 C 0.82706 0.6908 0.7471 0.0
C1807 C 0.84882 0.69726 0.74563 0.0
C1808 C 0.81757 0.68704 0.7673 0.0
C1809 C 0.82969 0.68961 0.78643 0.0
C1810 C 0.85172 0.69527 0.78488 0.0
C1811 C 0.86119 0.6991 0.76465 0.0
H1812 H 0.55653 0.50092 0.06419 0.0
H1813 H 0.54727 0.55496 0.10762 0.0
H1814 H 0.5615 0.5258 0.03398 0.0
H1815 H 0.55389 0.58013 0.07785 0.0
H1816 H 0.5727 0.57442 0.98169 0.0
H1817 H 0.57879 0.55227 0.0139 0.0
H1818 H 0.53281 0.59185 0.04941 0.0
H1819 H 0.52806 0.61464 0.01771 0.0
C1820 C 0.55656 0.5182 0.06738 0.0
C1821 C 0.55138 0.52613 0.08806 0.0
C1822 C 0.55942 0.53255 0.05007 0.0
C1823 C 0.5576 0.5551 0.05328 0.0
C1824 C 0.55463 0.56291 0.07456 0.0
C1825 C 0.55116 0.54855 0.0917 0.0
C1826 C 0.56414 0.57844 -0.00347 0.0
C1827 C 0.54982 0.59613 -0.00276 0.0
C1828 C 0.56754 0.56571 0.01498 0.0
C1829 C 0.55627 0.57011 0.03438 0.0
C1830 C 0.54223 0.58814 0.03504 0.0
C1831 C 0.53925 0.60114 0.01675 0.0
H1832 H 0.6171 0.27138 0.27121 0.0
H1833 H 0.67145 0.29147 0.23171 0.0
H1834 H 0.63841 0.27789 0.30393 0.0
H1835 H 0.69291 0.29744 0.2643 0.0
H1836 H 0.72409 0.3178 0.32639 0.0
H1837 H 0.69749 0.31922 0.29705 0.0
H1838 H 0.66887 0.25968 0.32036 0.0
H1839 H 0.69484 0.25854 0.34978 0.0
C1840 C 0.63358 0.27724 0.26954 0.0
C1841 C 0.64271 0.28074 0.24896 0.0
C1842 C 0.64577 0.28096 0.28825 0.0
C1843 C 0.66735 0.28816 0.2867 0.0
C1844 C 0.67623 0.29223 0.26607 0.0
C1845 C 0.66402 0.28858 0.24739 0.0
C1846 C 0.7118 0.30531 0.32551 0.0
C1847 C 0.71176 0.28792 0.34025 0.0
C1848 C 0.69668 0.30603 0.30862 0.0
C1849 C 0.68123 0.28944 0.30626 0.0
C1850 C 0.68041 0.27282 0.3218 0.0
C1851 C 0.69547 0.27208 0.3386 0.0
H1852 H 0.95269 0.48951 0.56917 0.0
H1853 H 0.97794 0.43801 0.60923 0.0
H1854 H 0.95011 0.46473 0.53866 0.0
H1855 H 0.97378 0.41253 0.57931 0.0
H1856 H 0.93379 0.41459 0.48984 0.0
H1857 H 0.93277 0.43654 0.52253 0.0
H1858 H 0.98898 0.40216 0.54695 0.0
H1859 H 0.98855 0.379 0.51488 0.0
C1860 C 0.95712 0.47267 0.57153 0.0
C1861 C 0.96553 0.4656 0.59141 0.0
C1862 C 0.95554 0.45835 0.55409 0.0
C1863 C 0.96175 0.43646 0.55636 0.0
C1864 C 0.96935 0.4293 0.57668 0.0
C1865 C 0.97153 0.44381 0.59392 0.0
C1866 C 0.94574 0.41165 0.50239 0.0
C1867 C 0.96131 0.39527 0.49995 0.0
C1868 C 0.94533 0.42436 0.52106 0.0
C1869 C 0.96099 0.42148 0.53741 0.0
C1870 C 0.9764 0.40473 0.53499 0.0
C1871 C 0.97633 0.39152 0.51655 0.0
H1872 H 0.82973 0.31663 0.75162 0.0
H1873 H 0.86332 0.26327 0.72129 0.0
H1874 H 0.80891 0.32253 0.71862 0.0
H1875 H 0.84126 0.26765 0.68889 0.0
H1876 H 0.80433 0.2812 0.62923 0.0
H1877 H 0.83095 0.28538 0.6581 0.0
H1878 H 0.78006 0.30781 0.70119 0.0
H1879 H 0.75412 0.30524 0.67172 0.0
C1880 C 0.83256 0.30614 0.73778 0.0
C1881 C 0.84791 0.28942 0.7389 0.0
C1882 C 0.8205 0.30935 0.71892 0.0
C1883 C 0.82297 0.29536 0.70103 0.0
C1884 C 0.839 0.27904 0.70205 0.0
C1885 C 0.85158 0.27633 0.72071 0.0
C1886 C 0.7991 0.28754 0.64479 0.0
C1887 C 0.77727 0.29287 0.64838 0.0
C1888 C 0.81426 0.28971 0.66144 0.0
C1889 C 0.80775 0.29654 0.68227 0.0
C1890 C 0.78596 0.30281 0.68541 0.0
C1891 C 0.77096 0.30126 0.66854 0.0
H1892 H 0.94623 0.49713 0.92422 0.0
H1893 H 0.97364 0.54416 0.88025 0.0
H1894 H 0.93889 0.52548 0.95043 0.0
H1895 H 0.96464 0.57317 0.90563 0.0
H1896 H 0.97037 0.61481 0.96712 0.0
H1897 H 0.97454 0.58918 0.93745 0.0
H1898 H 0.91825 0.55404 0.96058 0.0
H1899 H 0.91583 0.57842 0.99144 0.0
C1900 C 0.95022 0.51372 0.92004 0.0
C1901 C 0.96052 0.51856 0.90037 0.0
C1902 C 0.9458 0.53011 0.93495 0.0
C1903 C 0.95095 0.55186 0.93023 0.0
C1904 C 0.96078 0.55666 0.91013 0.0
C1905 C 0.96583 0.5401 0.89549 0.0
C1906 C 0.95892 0.60162 0.96573 0.0
C1907 C 0.94313 0.59819 0.98174 0.0
C1908 C 0.96112 0.58697 0.94857 0.0
C1909 C 0.94704 0.56908 0.94673 0.0
C1910 C 0.93002 0.56698 0.96186 0.0
C1911 C 0.92839 0.58111 0.97941 0.0
H1912 H 0.63685 0.67269 0.24053 0.0
H1913 H 0.61671 0.7374 0.22331 0.0
H1914 H 0.65848 0.67043 0.20756 0.0
H1915 H 0.63977 0.73609 0.19121 0.0
H1916 H 0.67989 0.72843 0.13152 0.0
H1917 H 0.65012 0.7238 0.15718 0.0
H1918 H 0.69164 0.68412 0.19759 0.0
H1919 H 0.72067 0.68771 0.17131 0.0
C1920 C 0.63698 0.68638 0.2295 0.0
C1921 C 0.62544 0.70532 0.23449 0.0
C1922 C 0.64956 0.68522 0.21073 0.0
C1923 C 0.65149 0.7033 0.19694 0.0
C1924 C 0.63869 0.72176 0.20129 0.0
C1925 C 0.62553 0.72263 0.21978 0.0
C1926 C 0.68244 0.71844 0.14576 0.0
C1927 C 0.7026 0.7085 0.14951 0.0
C1928 C 0.66543 0.71589 0.16055 0.0
C1929 C 0.66838 0.70371 0.17964 0.0
C1930 C 0.68844 0.69324 0.18293 0.0
C1931 C 0.70525 0.69542 0.16792 0.0
H1932 H 0.5524 0.48112 0.4245 0.0
H1933 H 0.52528 0.43106 0.38393 0.0
H1934 H 0.55417 0.45586 0.45473 0.0
H1935 H 0.52847 0.40513 0.41358 0.0
H1936 H 0.56153 0.40619 0.50603 0.0
H1937 H 0.56783 0.42617 0.47253 0.0
H1938 H 0.50988 0.39766 0.44506 0.0
H1939 H 0.50476 0.37656 0.47802 0.0
C1940 C 0.54757 0.46444 0.42189 0.0
C1941 C 0.53853 0.45801 0.40207 0.0
C1942 C 0.54863 0.44985 0.4392 0.0
C1943 C 0.54114 0.42839 0.43682 0.0
C1944 C 0.53373 0.42164 0.41631 0.0
C1945 C 0.53213 0.43639 0.39922 0.0
C1946 C 0.55038 0.40404 0.49262 0.0
C1947 C 0.53259 0.39002 0.49453 0.0
C1948 C 0.55387 0.41559 0.47347 0.0
C1949 C 0.53925 0.41385 0.45604 0.0
C1950 C 0.52177 0.39923 0.45787 0.0
C1951 C 0.51865 0.38722 0.47684 0.0
H1952 H 0.74262 0.83569 0.68401 0.0
H1953 H 0.76787 0.85832 0.74519 0.0
H1954 H 0.77481 0.81356 0.67858 0.0
H1955 H 0.79945 0.83489 0.74081 0.0
H1956 H 0.81787 0.75456 0.69027 0.0
H1957 H 0.78914 0.78153 0.69066 0.0
H1958 H 0.83171 0.8263 0.72393 0.0
H1959 H 0.85983 0.79857 0.72477 0.0
C1960 C 0.75517 0.83585 0.69631 0.0
C1961 C 0.75286 0.84856 0.71504 0.0
C1962 C 0.77354 0.823 0.69334 0.0
C1963 C 0.78972 0.82203 0.70939 0.0
C1964 C 0.78759 0.83537 0.72789 0.0
C1965 C 0.76944 0.84873 0.73054 0.0
C1966 C 0.82112 0.7703 0.69734 0.0
C1967 C 0.84096 0.77448 0.70757 0.0
C1968 C 0.80468 0.78589 0.69753 0.0
C1969 C 0.80793 0.80621 0.70748 0.0
C1970 C 0.82833 0.81071 0.71663 0.0
C1971 C 0.84455 0.79491 0.71692 0.0
H1972 H 0.22648 0.67803 0.3064 0.0
H1973 H 0.26543 0.63841 0.26374 0.0
H1974 H 0.25837 0.69895 0.31633 0.0
H1975 H 0.29714 0.66023 0.27226 0.0
H1976 H 0.35494 0.69217 0.29791 0.0
H1977 H 0.32321 0.66866 0.29755 0.0
H1978 H 0.2818 0.72505 0.304 0.0
H1979 H 0.31368 0.74805 0.30608 0.0
C1980 C 0.24188 0.67408 0.29887 0.0
C1981 C 0.2436 0.65673 0.28425 0.0
C1982 C 0.26018 0.68608 0.30453 0.0
C1983 C 0.28049 0.68133 0.29522 0.0
C1984 C 0.28199 0.66406 0.2803 0.0
C1985 C 0.26379 0.6517 0.27512 0.0
C1986 C 0.33901 0.69929 0.30008 0.0
C1987 C 0.33661 0.72179 0.30211 0.0
C1988 C 0.32079 0.68593 0.29948 0.0
C1989 C 0.29981 0.69493 0.30009 0.0
C1990 C 0.2976 0.71739 0.30364 0.0
C1991 C 0.31587 0.73066 0.30489 0.0
H1992 H 0.51926 0.084 0.56167 0.0
H1993 H 0.55581 0.10528 0.50561 0.0
H1994 H 0.54308 0.0526 0.56505 0.0
H1995 H 0.579 0.0737 0.50858 0.0
H1996 H 0.62447 0.01868 0.52511 0.0
H1997 H 0.60584 0.05349 0.52841 0.0
H1998 H 0.54607 0.02004 0.54331 0.0
H1999 H 0.56478 0.98544 0.5406 0.0
C2000 C 0.5326 0.08224 0.55034 0.0
C2001 C 0.53541 0.09698 0.53319 0.0
C2002 C 0.54611 0.06414 0.55214 0.0
C2003 C 0.56265 0.06044 0.53682 0.0
C2004 C 0.56647 0.07606 0.5207 0.0
C2005 C 0.55304 0.09415 0.51893 0.0
C2006 C 0.60736 0.01883 0.52911 0.0
C2007 C 0.59605 -0.00061 0.53255 0.0
C2008 C 0.5967 0.03873 0.53102 0.0
C2009 C 0.57452 0.03954 0.53631 0.0
C2010 C 0.56327 0.02003 0.53972 0.0
C2011 C 0.57393 0.00018 0.5379 0.0
H2012 H 0.2594 0.30693 0.78593 0.0
H2013 H 0.22417 0.36137 0.7593 0.0
H2014 H 0.22616 0.28588 0.78712 0.0
H2015 H 0.19061 0.34021 0.76073 0.0
H2016 H 0.14496 0.28288 0.74107 0.0
H2017 H 0.17545 0.30779 0.74235 0.0
H2018 H 0.19128 0.28512 0.80677 0.0
H2019 H 0.16097 0.25984 0.80545 0.0
C2020 C 0.24452 0.31442 0.78037 0.0
C2021 C 0.24434 0.33578 0.77251 0.0
C2022 C 0.22544 0.30242 0.78126 0.0
C2023 C 0.20578 0.31149 0.77425 0.0
C2024 C 0.20559 0.33282 0.7662 0.0
C2025 C 0.22474 0.34491 0.76539 0.0
C2026 C 0.15477 0.28333 0.75563 0.0
C2027 C 0.15068 0.26914 0.77306 0.0
C2028 C 0.17216 0.29773 0.75639 0.0
C2029 C 0.18583 0.29823 0.77456 0.0
C2030 C 0.18117 0.2848 0.79241 0.0
C2031 C 0.16374 0.27041 0.79168 0.0
H2032 H 0.37281 0.47926 0.51011 0.0
H2033 H 0.40902 0.50986 0.56153 0.0
H2034 H 0.39529 0.44708 0.5133 0.0
H2035 H 0.4305 0.47708 0.56613 0.0
H2036 H 0.4833 0.42806 0.54772 0.0
H2037 H 0.45846 0.45868 0.5499 0.0
H2038 H 0.40525 0.41659 0.53193 0.0
H2039 H 0.43061 0.38656 0.52814 0.0
C2040 C 0.38529 0.47885 0.52245 0.0
C2041 C 0.3894 0.49704 0.53539 0.0
C2042 C 0.39812 0.46031 0.52447 0.0
C2043 C 0.41492 0.45936 0.53995 0.0
C2044 C 0.41818 0.47732 0.55364 0.0
C2045 C 0.40575 0.49606 0.55116 0.0
C2046 C 0.46622 0.42543 0.54457 0.0
C2047 C 0.45879 0.40515 0.53763 0.0
C2048 C 0.45188 0.44293 0.5459 0.0
C2049 C 0.42974 0.44029 0.54085 0.0
C2050 C 0.42222 0.41949 0.53528 0.0
C2051 C 0.43667 0.4022 0.53334 0.0
H2052 H 0.64408 0.18693 0.23861 0.0
H2053 H 0.66145 0.22041 0.1794 0.0
H2054 H 0.67409 0.16221 0.23357 0.0
H2055 H 0.69147 0.19498 0.17402 0.0
H2056 H 0.75949 0.16846 0.1951 0.0
H2057 H 0.72611 0.18931 0.19201 0.0
H2058 H 0.68928 0.13331 0.21245 0.0
H2059 H 0.72283 0.11265 0.21619 0.0
C2060 C 0.6541 0.18883 0.22429 0.0
C2061 C 0.65051 0.20587 0.20956 0.0
C2062 C 0.67124 0.17444 0.22128 0.0
C2063 C 0.68523 0.17663 0.20341 0.0
C2064 C 0.6811 0.19304 0.18809 0.0
C2065 C 0.66384 0.20752 0.1911 0.0
C2066 C 0.74424 0.16054 0.1987 0.0
C2067 C 0.74375 0.13905 0.20621 0.0
C2068 C 0.72508 0.17243 0.19673 0.0
C2069 C 0.70504 0.16302 0.20213 0.0
C2070 C 0.70451 0.14113 0.20852 0.0
C2071 C 0.72369 0.12928 0.21062 0.0
H2072 H 0.60559 0.97385 0.93529 0.0
H2073 H 0.55657 0.02123 0.95165 0.0
H2074 H 0.57784 0.94548 0.93471 0.0
H2075 H 0.52898 0.99279 0.95146 0.0
H2076 H 0.50173 0.92826 0.98363 0.0
H2077 H 0.52603 0.95896 0.97798 0.0
H2078 H 0.54094 0.93568 0.91358 0.0
H2079 H 0.5162 0.90501 0.91902 0.0
C2080 C 0.58886 0.9782 0.93849 0.0
C2081 C 0.58318 -0.00035 0.94353 0.0
C2082 C 0.57303 0.96205 0.93804 0.0
C2083 C 0.55138 0.96706 0.94303 0.0
C2084 C 0.54561 0.9886 0.94756 0.0
C2085 C 0.56136 0.00482 0.9476 0.0
C2086 C 0.51004 0.92979 0.96819 0.0
C2087 C 0.50724 0.91422 0.9518 0.0
C2088 C 0.52379 0.94741 0.96493 0.0
C2089 C 0.53528 0.94956 0.94537 0.0
C2090 C 0.53223 0.93425 0.9288 0.0
C2091 C 0.51807 0.91682 0.93189 0.0
H2092 H 0.97375 0.0796 0.43053 0.0
H2093 H 0.95554 0.08551 0.49814 0.0
H2094 H 0.94631 0.0517 0.42567 0.0
H2095 H 0.92841 0.05731 0.49328 0.0
H2096 H 0.8701 0.01724 0.47374 0.0
H2097 H 0.89385 0.04895 0.4751 0.0
H2098 H 0.9421 0.01435 0.43772 0.0
H2099 H 0.91838 0.983 0.43606 0.0
C2100 C 0.96392 0.07498 0.44436 0.0
C2101 C 0.96695 0.08472 0.46476 0.0
C2102 C 0.94821 0.05897 0.44156 0.0
C2103 C 0.93523 0.05232 0.45909 0.0
C2104 C 0.93796 0.06232 0.47939 0.0
C2105 C 0.95365 0.07836 0.4822 0.0
C2106 C 0.88565 0.01658 0.46556 0.0
C2107 C 0.89246 -0.00235 0.45491 0.0
C2108 C 0.89928 0.03465 0.46646 0.0
C2109 C 0.91986 0.03407 0.4566 0.0
C2110 C 0.92625 0.01539 0.44526 0.0
C2111 C 0.9127 -0.00263 0.44442 0.0
H2112 H 0.06623 0.09058 0.4026 0.0
H2113 H 0.06081 0.15954 0.39257 0.0
H2114 H 0.10148 0.09058 0.38402 0.0
H2115 H 0.09535 0.15943 0.37311 0.0
H2116 H 0.16902 0.13303 0.4045 0.0
H2117 H 0.1333 0.11585 0.40499 0.0
H2118 H 0.12066 0.14033 0.3406 0.0
H2119 H 0.15678 0.15679 0.33986 0.0
C2120 C 0.07203 0.10546 0.39527 0.0
C2121 C 0.06101 0.12507 0.39877 0.0
C2122 C 0.09212 0.10544 0.38473 0.0
C2123 C 0.10094 0.12496 0.3771 0.0
C2124 C 0.08867 0.14412 0.37855 0.0
C2125 C 0.06898 0.14424 0.38967 0.0
C2126 C 0.15912 0.1335 0.38999 0.0
C2127 C 0.16545 0.14598 0.37211 0.0
C2128 C 0.13874 0.12369 0.39021 0.0
C2129 C 0.12434 0.1269 0.37282 0.0
C2130 C 0.13162 0.13749 0.35404 0.0
C2131 C 0.15221 0.14686 0.35364 0.0
H2132 H 0.10985 0.9285 0.64152 0.0
H2133 H 0.05213 0.90549 0.60943 0.0
H2134 H 0.12142 0.89075 0.64745 0.0
H2135 H 0.06386 0.86821 0.6146 0.0
H2136 H 0.06912 0.81725 0.67011 0.0
H2137 H 0.06345 0.85138 0.65137 0.0
H2138 H 0.13087 0.85228 0.63207 0.0
H2139 H 0.13644 0.81745 0.65092 0.0
C2140 C 0.10006 0.9154 0.63518 0.0
C2141 C 0.0799 0.91968 0.62558 0.0
C2142 C 0.1067 0.89387 0.6384 0.0
C2143 C 0.0933 0.87662 0.63177 0.0
C2144 C 0.07427 0.88119 0.6202 0.0
C2145 C 0.06754 0.90249 0.61734 0.0
C2146 C 0.08257 0.82444 0.66135 0.0
C2147 C 0.10314 0.81485 0.66179 0.0
C2148 C 0.07936 0.84394 0.65056 0.0
C2149 C 0.09675 0.85446 0.64024 0.0
C2150 C 0.11724 0.84445 0.63992 0.0
C2151 C 0.12036 0.82454 0.65046 0.0
H2152 H 0.42126 0.81605 0.89818 0.0
H2153 H 0.41755 0.88432 0.88356 0.0
H2154 H 0.38746 0.80998 0.8789 0.0
H2155 H 0.38306 0.87841 0.86452 0.0
H2156 H 0.3098 0.85352 0.88425 0.0
H2157 H 0.34727 0.86691 0.88377 0.0
H2158 H 0.36631 0.81238 0.84406 0.0
H2159 H 0.32918 0.79889 0.84508 0.0
C2160 C 0.41355 0.8296 0.89005 0.0
C2161 C 0.42184 0.85057 0.8922 0.0
C2162 C 0.39422 0.82618 0.87897 0.0
C2163 C 0.3826 0.84379 0.87029 0.0
C2164 C 0.39175 0.86462 0.87106 0.0
C2165 C 0.41148 0.86795 0.88176 0.0
C2166 C 0.32188 0.84501 0.87472 0.0
C2167 C 0.31696 0.82511 0.86499 0.0
C2168 C 0.34326 0.85266 0.87432 0.0
C2169 C 0.35969 0.84044 0.86413 0.0
C2170 C 0.354 0.82194 0.85221 0.0
C2171 C 0.33282 0.81423 0.85283 0.0
H2172 H 0.39964 0.1517 0.20867 0.0
H2173 H 0.37418 0.16697 0.14508 0.0
H2174 H 0.41116 0.11645 0.19572 0.0
H2175 H 0.38618 0.13134 0.13194 0.0
H2176 H 0.39384 0.05563 0.12606 0.0
H2177 H 0.37927 0.09078 0.13775 0.0
H2178 H 0.43973 0.10477 0.17019 0.0
H2179 H 0.45407 0.06994 0.15892 0.0
C2180 C 0.39654 0.14755 0.19187 0.0
C2181 C 0.38619 0.16218 0.17781 0.0
C2182 C 0.40319 0.12735 0.18446 0.0
C2183 C 0.39974 0.12129 0.16279 0.0
C2184 C 0.38893 0.13564 0.14876 0.0
C2185 C 0.38223 0.15602 0.15622 0.0
C2186 C 0.40392 0.06624 0.13576 0.0
C2187 C 0.42502 0.06002 0.14172 0.0
C2188 C 0.39566 0.08636 0.14228 0.0
C2189 C 0.40836 0.10037 0.15495 0.0
C2190 C 0.42947 0.09414 0.1607 0.0
C2191 C 0.4377 0.0742 0.15417 0.0
H2192 H 0.167 0.82602 0.13597 0.0
H2193 H 0.19031 0.83513 0.07058 0.0
H2194 H 0.1313 0.83998 0.12525 0.0
H2195 H 0.15505 0.84963 0.05996 0.0
H2196 H 0.08759 0.82555 0.04284 0.0
H2197 H 0.12357 0.82291 0.0583 0.0
H2198 H 0.1065 0.87017 0.10715 0.0
H2199 H 0.06993 0.87298 0.09144 0.0
C2200 C 0.16478 0.83218 0.11964 0.0
C2201 C 0.18115 0.82962 0.104 0.0
C2202 C 0.14439 0.84006 0.1135 0.0
C2203 C 0.1404 0.84535 0.0917 0.0
C2204 C 0.15769 0.84527 0.0768 0.0
C2205 C 0.17787 0.8372 0.08286 0.0
C2206 C 0.09134 0.83531 0.05696 0.0
C2207 C 0.076 0.84961 0.06581 0.0
C2208 C 0.11205 0.83397 0.06567 0.0
C2209 C 0.11796 0.84685 0.08348 0.0
C2210 C 0.10235 0.86033 0.0932 0.0
C2211 C 0.08147 0.86179 0.08433 0.0
H2212 H 0.4168 0.91303 0.39767 0.0
H2213 H 0.38441 0.94866 0.34698 0.0
H2214 H 0.39475 0.88141 0.38992 0.0
H2215 H 0.36189 0.91695 0.3392 0.0
H2216 H 0.38184 0.85218 0.30385 0.0
H2217 H 0.38155 0.88741 0.32084 0.0
H2218 H 0.36292 0.85826 0.38191 0.0
H2219 H 0.36324 0.8224 0.36458 0.0
C2220 C 0.40399 0.91441 0.38571 0.0
C2221 C 0.40236 0.93295 0.37267 0.0
C2222 C 0.39127 0.89631 0.38129 0.0
C2223 C 0.37707 0.89652 0.3635 0.0
C2224 C 0.37304 0.91629 0.35275 0.0
C2225 C 0.38578 0.93447 0.35727 0.0
C2226 C 0.37746 0.85321 0.32086 0.0
C2227 C 0.37308 0.8345 0.33304 0.0
C2228 C 0.37684 0.87353 0.33053 0.0
C2229 C 0.372 0.87569 0.35271 0.0
C2230 C 0.36661 0.85706 0.36476 0.0
C2231 C 0.36699 0.83658 0.35493 0.0
H2232 H 0.40539 0.10223 0.54168 0.0
H2233 H 0.43044 0.13273 0.59944 0.0
H2234 H 0.36869 0.10462 0.55617 0.0
H2235 H 0.39337 0.13579 0.61384 0.0
H2236 H 0.32112 0.13812 0.63249 0.0
H2237 H 0.35533 0.11901 0.62436 0.0
H2238 H 0.35197 0.14199 0.55816 0.0
H2239 H 0.31853 0.16115 0.5664 0.0
C2240 C 0.40302 0.10887 0.5578 0.0
C2241 C 0.42048 0.11766 0.56936 0.0
C2242 C 0.38207 0.11019 0.56609 0.0
C2243 C 0.37821 0.12075 0.58589 0.0
C2244 C 0.39596 0.12748 0.59855 0.0
C2245 C 0.41711 0.12585 0.59032 0.0
C2246 C 0.32753 0.13845 0.61611 0.0
C2247 C 0.31741 0.15097 0.59999 0.0
C2248 C 0.34705 0.1277 0.61152 0.0
C2249 C 0.35618 0.12895 0.59064 0.0
C2250 C 0.34516 0.14044 0.57431 0.0
C2251 C 0.32609 0.15149 0.57901 0.0
H2252 H 0.1477 0.1641 0.83281 0.0
H2253 H 0.08033 0.176 0.84732 0.0
H2254 H 0.14601 0.12971 0.8528 0.0
H2255 H 0.0786 0.14214 0.86761 0.0
H2256 H 0.07433 0.08246 0.90054 0.0
H2257 H 0.09199 0.11778 0.89794 0.0
H2258 H 0.1237 0.09734 0.83879 0.0
H2259 H 0.10611 0.06194 0.84165 0.0
C2260 C 0.13287 0.15979 0.84123 0.0
C2261 C 0.11415 0.17251 0.83885 0.0
C2262 C 0.13188 0.14016 0.85252 0.0
C2263 C 0.11221 0.13327 0.86173 0.0
C2264 C 0.09409 0.14716 0.86099 0.0
C2265 C 0.09499 0.16652 0.84937 0.0
C2266 C 0.086 0.08522 0.88765 0.0
C2267 C 0.08897 0.06974 0.87125 0.0
C2268 C 0.09602 0.1054 0.88613 0.0
C2269 C 0.10889 0.11038 0.868 0.0
C2270 C 0.11396 0.09388 0.85302 0.0
C2271 C 0.10393 0.07363 0.8546 0.0
H2272 H 0.16431 0.42719 0.18307 0.0
H2273 H 0.13863 0.36227 0.18004 0.0
H2274 H 0.1445 0.43678 0.15036 0.0
H2275 H 0.11885 0.37172 0.14663 0.0
H2276 H 0.13084 0.39553 0.0714 0.0
H2277 H 0.13508 0.3815 0.10852 0.0
H2278 H 0.1074 0.4406 0.13402 0.0
H2279 H 0.10376 0.45468 0.09732 0.0
C2280 C 0.15378 0.41522 0.1757 0.0
C2281 C 0.15273 0.39415 0.18398 0.0
C2282 C 0.14242 0.42065 0.157 0.0
C2283 C 0.13014 0.40495 0.14597 0.0
C2284 C 0.1282 0.38407 0.15488 0.0
C2285 C 0.13928 0.37876 0.17401 0.0
C2286 C 0.12513 0.40515 0.08497 0.0
C2287 C 0.11754 0.42633 0.08172 0.0
C2288 C 0.1274 0.39712 0.10615 0.0
C2289 C 0.12186 0.41018 0.12408 0.0
C2290 C 0.11209 0.43038 0.12049 0.0
C2291 C 0.11012 0.43844 0.09952 0.0
H2292 H 0.69709 0.13364 0.83526 0.0
H2293 H 0.63689 0.10624 0.81274 0.0
H2294 H 0.68406 0.13227 0.87257 0.0
H2295 H 0.62412 0.10354 0.85034 0.0
H2296 H 0.60516 0.09669 0.91885 0.0
H2297 H 0.61385 0.11723 0.88585 0.0
H2298 H 0.68155 0.10066 0.89405 0.0
H2299 H 0.67272 0.08069 0.92676 0.0
C2300 C 0.6809 0.12755 0.8384 0.0
C2301 C 0.66808 0.11962 0.8214 0.0
C2302 C 0.67344 0.12675 0.85972 0.0
C2303 C 0.65328 0.11731 0.86454 0.0
C2304 C 0.6397 0.11102 0.84724 0.0
C2305 C 0.64701 0.11235 0.82573 0.0
C2306 C 0.62197 0.09851 0.91405 0.0
C2307 C 0.63838 0.08746 0.92527 0.0
C2308 C 0.62692 0.10995 0.89504 0.0
C2309 C 0.64834 0.11041 0.88712 0.0
C2310 C 0.66491 0.10098 0.8997 0.0
C2311 C 0.65993 0.08951 0.91851 0.0
H2312 H 0.80211 0.84892 0.33677 0.0
H2313 H 0.8568 0.88462 0.31161 0.0
H2314 H 0.81526 0.85419 0.37364 0.0
H2315 H 0.86991 0.89027 0.34889 0.0
H2316 H 0.88623 0.89399 0.42251 0.0
H2317 H 0.88069 0.8738 0.38844 0.0
H2318 H 0.8135 0.8937 0.3882 0.0
H2319 H 0.81918 0.91409 0.42151 0.0
C2320 C 0.81734 0.85734 0.33917 0.0
C2321 C 0.82829 0.86678 0.32157 0.0
C2322 C 0.82487 0.86027 0.36022 0.0
C2323 C 0.84334 0.87291 0.36403 0.0
C2324 C 0.85565 0.88036 0.34628 0.0
C2325 C 0.84816 0.87723 0.32503 0.0
C2326 C 0.8702 0.89346 0.41536 0.0
C2327 C 0.85306 0.90544 0.42445 0.0
C2328 C 0.8671 0.8821 0.39591 0.0
C2329 C 0.84668 0.88216 0.38585 0.0
C2330 C 0.82934 0.89315 0.39578 0.0
C2331 C 0.83256 0.90486 0.41478 0.0
H2332 H 0.84225 0.13814 0.17866 0.0
H2333 H 0.83214 0.06896 0.17779 0.0
H2334 H 0.85459 0.13677 0.14064 0.0
H2335 H 0.84481 0.06755 0.14028 0.0
H2336 H 0.82008 0.08027 0.07374 0.0
H2337 H 0.81712 0.09402 0.11078 0.0
H2338 H 0.88579 0.10724 0.1115 0.0
H2339 H 0.88866 0.09387 0.07399 0.0
C2340 C 0.84383 0.12255 0.17072 0.0
C2341 C 0.83629 0.10362 0.18094 0.0
C2342 C 0.8507 0.12182 0.14902 0.0
C2343 C 0.85023 0.10212 0.13769 0.0
C2344 C 0.84509 0.08293 0.14878 0.0
C2345 C 0.83803 0.08369 0.17021 0.0
C2346 C 0.83426 0.08734 0.08134 0.0
C2347 C 0.85451 0.08627 0.07113 0.0
C2348 C 0.83263 0.09501 0.10252 0.0
C2349 C 0.85131 0.10135 0.11386 0.0
C2350 C 0.87122 0.10253 0.10291 0.0
C2351 C 0.87279 0.09507 0.08148 0.0
H2352 H 0.32093 0.59401 0.56101 0.0
H2353 H 0.38968 0.58681 0.57134 0.0
H2354 H 0.31692 0.60928 0.59739 0.0
H2355 H 0.38566 0.60149 0.6082 0.0
H2356 H 0.34872 0.5811 0.67605 0.0
H2357 H 0.36358 0.58067 0.63906 0.0
H2358 H 0.32888 0.63973 0.6245 0.0
H2359 H 0.31434 0.6402 0.6615 0.0
C2360 C 0.33528 0.59663 0.57079 0.0
C2361 C 0.35562 0.58967 0.56345 0.0
C2362 C 0.33304 0.60528 0.59159 0.0
C2363 C 0.35101 0.60648 0.60556 0.0
C2364 C 0.37162 0.60079 0.59767 0.0
C2365 C 0.37394 0.59261 0.57661 0.0
C2366 C 0.34514 0.59443 0.66517 0.0
C2367 C 0.33065 0.61076 0.67142 0.0
C2368 C 0.35361 0.59425 0.64408 0.0
C2369 C 0.34729 0.61017 0.62898 0.0
C2370 C 0.334 0.62733 0.63586 0.0
C2371 C 0.32577 0.62763 0.65696 0.0
H2372 H 0.12859 0.61058 0.30369 0.0
H2373 H 0.18321 0.62973 0.343 0.0
H2374 H 0.10715 0.60456 0.33681 0.0
H2375 H 0.1621 0.62393 0.37569 0.0
H2376 H 0.12508 0.60968 0.43349 0.0
H2377 H 0.13015 0.63075 0.4 0.0
H2378 H 0.11544 0.57372 0.36205 0.0
H2379 H 0.11064 0.55296 0.39515 0.0
C2380 C 0.13574 0.61409 0.31935 0.0
C2381 C 0.15762 0.62003 0.32096 0.0
C2382 C 0.12352 0.61075 0.33823 0.0
C2383 C 0.13301 0.61366 0.35881 0.0
C2384 C 0.15422 0.62175 0.36014 0.0
C2385 C 0.16644 0.62474 0.3414 0.0
C2386 C 0.12232 0.60197 0.41794 0.0
C2387 C 0.11805 0.57969 0.41671 0.0
C2388 C 0.12514 0.61396 0.39885 0.0
C2389 C 0.12334 0.60381 0.37844 0.0
C2390 C 0.11676 0.58207 0.37746 0.0
C2391 C 0.11433 0.57009 0.39642 0.0
H2392 H 0.31467 0.4257 0.9198 0.0
H2393 H 0.38072 0.4029 0.92346 0.0
H2394 H 0.30829 0.40252 0.88853 0.0
H2395 H 0.37454 0.37978 0.89145 0.0
H2396 H 0.35471 0.38407 0.81392 0.0
H2397 H 0.36643 0.39204 0.85122 0.0
H2398 H 0.30738 0.36356 0.8759 0.0
H2399 H 0.29558 0.35623 0.83892 0.0
C2400 C 0.32762 0.41519 0.9142 0.0
C2401 C 0.34807 0.41587 0.92394 0.0
C2402 C 0.32401 0.40188 0.89635 0.0
C2403 C 0.34096 0.38935 0.88759 0.0
C2404 C 0.36124 0.38927 0.89796 0.0
C2405 C 0.3647 0.40229 0.91627 0.0
C2406 C 0.34469 0.37891 0.82742 0.0
C2407 C 0.32411 0.37002 0.82375 0.0
C2408 C 0.35139 0.38333 0.84871 0.0
C2409 C 0.33758 0.37871 0.86635 0.0
C2410 C 0.31815 0.36756 0.86258 0.0
C2411 C 0.3114 0.36344 0.84145 0.0
H2412 H 0.5797 0.6696 0.91029 0.0
H2413 H 0.57655 0.60074 0.89867 0.0
H2414 H 0.61414 0.67134 0.89082 0.0
H2415 H 0.61174 0.60226 0.87979 0.0
H2416 H 0.68761 0.6268 0.89904 0.0
H2417 H 0.6496 0.61507 0.9011 0.0
H2418 H 0.63249 0.66208 0.85211 0.0
H2419 H 0.67028 0.67366 0.85008 0.0
C2420 C 0.58612 0.655 0.9029 0.0
C2421 C 0.57562 0.63512 0.90566 0.0
C2422 C 0.60575 0.65594 0.89177 0.0
C2423 C 0.61544 0.6369 0.88382 0.0
C2424 C 0.60441 0.61711 0.88566 0.0
C2425 C 0.58435 0.61629 0.89628 0.0
C2426 C 0.67586 0.63372 0.88797 0.0
C2427 C 0.68156 0.65107 0.87447 0.0
C2428 C 0.6542 0.62704 0.88907 0.0
C2429 C 0.63826 0.63785 0.87683 0.0
C2430 C 0.64454 0.65353 0.86163 0.0
C2431 C 0.66608 0.66013 0.86051 0.0
H2432 H 0.56487 0.30718 0.16933 0.0
H2433 H 0.63009 0.31018 0.14411 0.0
H2434 H 0.55572 0.34031 0.15041 0.0
H2435 H 0.62096 0.34392 0.12475 0.0
H2436 H 0.6008 0.41887 0.13432 0.0
H2437 H 0.61307 0.38124 0.13869 0.0
H2438 H 0.55061 0.3586 0.11643 0.0
H2439 H 0.5382 0.3959 0.11328 0.0
C2440 C 0.57704 0.31468 0.15907 0.0
C2441 C 0.5981 0.3063 0.15806 0.0
C2442 C 0.57182 0.33364 0.14812 0.0
C2443 C 0.58765 0.34481 0.13608 0.0
C2444 C 0.60849 0.33568 0.13399 0.0
C2445 C 0.61365 0.31636 0.14483 0.0
C2446 C 0.58994 0.40575 0.13008 0.0
C2447 C 0.56843 0.41006 0.12414 0.0
C2448 C 0.59698 0.38426 0.13233 0.0
C2449 C 0.58263 0.36697 0.12827 0.0
C2450 C 0.56185 0.37156 0.12019 0.0
C2451 C 0.55472 0.39287 0.11846 0.0
H2452 H 0.83653 0.32321 0.35019 0.0
H2453 H 0.80181 0.36859 0.39057 0.0
H2454 H 0.87048 0.34126 0.3585 0.0
H2455 H 0.83601 0.38702 0.39901 0.0
H2456 H 0.89542 0.36637 0.44289 0.0
H2457 H 0.86161 0.36782 0.42317 0.0
H2458 H 0.89682 0.37146 0.36254 0.0
H2459 H 0.9312 0.37 0.38264 0.0
C2460 C 0.83614 0.33777 0.36004 0.0
C2461 C 0.81683 0.34446 0.37002 0.0
C2462 C 0.85557 0.34822 0.3647 0.0
C2463 C 0.85596 0.36527 0.37978 0.0
C2464 C 0.83615 0.37371 0.38754 0.0
C2465 C 0.8166 0.3633 0.38267 0.0
C2466 C 0.89603 0.36773 0.42536 0.0
C2467 C 0.9159 0.3675 0.41422 0.0
C2468 C 0.8766 0.36901 0.41405 0.0
C2469 C 0.87651 0.36987 0.39128 0.0
C2470 C 0.89644 0.37084 0.38012 0.0
C2471 C 0.91605 0.36985 0.39155 0.0
H2472 H 0.84397 0.65605 0.66771 0.0
H2473 H 0.90016 0.67788 0.63223 0.0
H2474 H 0.84991 0.61917 0.65444 0.0
H2475 H 0.90586 0.64099 0.61853 0.0
H2476 H 0.914 0.57141 0.66917 0.0
H2477 H 0.89293 0.60498 0.66969 0.0
H2478 H 0.8839 0.60067 0.60036 0.0
H2479 H 0.90427 0.56628 0.59999 0.0
C2480 C 0.85674 0.65317 0.65594 0.0
C2481 C 0.87154 0.66962 0.65075 0.0
C2482 C 0.86014 0.63212 0.64842 0.0
C2483 C 0.87828 0.62742 0.63552 0.0
C2484 C 0.89156 0.64441 0.62819 0.0
C2485 C 0.8883 0.66547 0.63596 0.0
C2486 C 0.90686 0.57726 0.6542 0.0
C2487 C 0.91053 0.56638 0.6346 0.0
C2488 C 0.89482 0.59635 0.65447 0.0
C2489 C 0.8868 0.60516 0.63506 0.0
C2490 C 0.88977 0.59393 0.6155 0.0
C2491 C 0.9013 0.57435 0.61533 0.0
H2492 H 0.56516 0.39132 0.59171 0.0
H2493 H 0.56109 0.32182 0.58543 0.0
H2494 H 0.60121 0.38765 0.60841 0.0
H2495 H 0.59647 0.31805 0.60269 0.0
H2496 H 0.65548 0.31356 0.64014 0.0
H2497 H 0.61814 0.32668 0.63828 0.0
H2498 H 0.63654 0.37147 0.58764 0.0
H2499 H 0.67411 0.35823 0.58962 0.0
C2500 C 0.57162 0.37527 0.59479 0.0
C2501 C 0.56052 0.35679 0.58753 0.0
C2502 C 0.5922 0.37321 0.60415 0.0
C2503 C 0.60149 0.3526 0.60685 0.0
C2504 C 0.58953 0.33411 0.60105 0.0
C2505 C 0.56934 0.33621 0.59119 0.0
C2506 C 0.65166 0.32684 0.62926 0.0
C2507 C 0.6674 0.33498 0.61501 0.0
C2508 C 0.63037 0.3343 0.6282 0.0
C2509 C 0.62453 0.34994 0.61275 0.0
C2510 C 0.64075 0.35956 0.59987 0.0
C2511 C 0.66216 0.35201 0.60092 0.0
H2512 H 0.84448 0.3289 0.81819 0.0
H2513 H 0.90028 0.30528 0.85305 0.0
H2514 H 0.84737 0.36377 0.83681 0.0
H2515 H 0.90344 0.34017 0.87161 0.0
H2516 H 0.90993 0.40564 0.89856 0.0
H2517 H 0.88928 0.37191 0.89416 0.0
H2518 H 0.87885 0.38768 0.82658 0.0
H2519 H 0.89963 0.42095 0.83107 0.0
C2520 C 0.85674 0.33094 0.83062 0.0
C2521 C 0.87221 0.31471 0.83434 0.0
C2522 C 0.85842 0.35083 0.8412 0.0
C2523 C 0.87578 0.35473 0.85539 0.0
C2524 C 0.88978 0.33754 0.86088 0.0
C2525 C 0.88807 0.31762 0.85026 0.0
C2526 C 0.90242 0.40214 0.88306 0.0
C2527 C 0.90612 0.41561 0.86511 0.0
C2528 C 0.89071 0.38293 0.88054 0.0
C2529 C 0.8825 0.37721 0.86007 0.0
C2530 C 0.88468 0.39181 0.84264 0.0
C2531 C 0.89663 0.41078 0.84511 0.0
H2532 H 0.83286 0.67776 0.14022 0.0
H2533 H 0.79332 0.62979 0.10836 0.0
H2534 H 0.86544 0.65803 0.13004 0.0
H2535 H 0.82614 0.60983 0.09788 0.0
H2536 H 0.88082 0.62747 0.04596 0.0
H2537 H 0.84918 0.6277 0.06929 0.0
H2538 H 0.89049 0.62585 0.12589 0.0
H2539 H 0.92259 0.62538 0.10216 0.0
C2540 C 0.8312 0.66238 0.13189 0.0
C2541 C 0.81083 0.65534 0.12472 0.0
C2542 C 0.84983 0.65097 0.12618 0.0
C2543 C 0.84832 0.63264 0.11279 0.0
C2544 C 0.8277 0.62407 0.10805 0.0
C2545 C 0.80895 0.63539 0.11407 0.0
C2546 C 0.8832 0.6268 0.06338 0.0
C2547 C 0.9041 0.62697 0.07232 0.0
C2548 C 0.86504 0.6265 0.07676 0.0
C2549 C 0.86735 0.62667 0.09943 0.0
C2550 C 0.88829 0.62562 0.10844 0.0
C2551 C 0.90659 0.62554 0.09493 0.0
H2552 H 0.63072 0.67316 0.34106 0.0
H2553 H 0.56554 0.66437 0.317 0.0
H2554 H 0.6303 0.6359 0.3555 0.0
H2555 H 0.5652 0.62762 0.33136 0.0
H2556 H 0.58477 0.55986 0.32109 0.0
H2557 H 0.59647 0.59707 0.3145 0.0
H2558 H 0.59907 0.60864 0.38352 0.0
H2559 H 0.58766 0.571 0.39014 0.0
C2560 C 0.61612 0.66355 0.33951 0.0
C2561 C 0.59823 0.67144 0.32771 0.0
C2562 C 0.61596 0.64231 0.34765 0.0
C2563 C 0.59789 0.629 0.34406 0.0
C2564 C 0.57942 0.6376 0.33396 0.0
C2565 C 0.57959 0.6586 0.32584 0.0
C2566 C 0.589 0.57 0.33482 0.0
C2567 C 0.58552 0.56274 0.35606 0.0
C2568 C 0.59555 0.59125 0.33108 0.0
C2569 C 0.59837 0.60558 0.34854 0.0
C2570 C 0.59712 0.59773 0.36988 0.0
C2571 C 0.59072 0.57626 0.37364 0.0
H2572 H 0.61074 0.94515 0.59674 0.0
H2573 H 0.63777 0.88569 0.57158 0.0
H2574 H 0.61549 0.932 0.63369 0.0
H2575 H 0.64321 0.87261 0.60892 0.0
H2576 H 0.64763 0.85644 0.68233 0.0
H2577 H 0.62795 0.86396 0.64832 0.0
H2578 H 0.65364 0.9291 0.64834 0.0
H2579 H 0.67326 0.9215 0.68162 0.0
C2580 C 0.61723 0.929 0.5992 0.0
C2581 C 0.62432 0.91653 0.58154 0.0
C2582 C 0.61988 0.92147 0.6203 0.0
C2583 C 0.63008 0.90151 0.6241 0.0
C2584 C 0.63523 0.88804 0.60637 0.0
C2585 C 0.63225 0.89552 0.58507 0.0
C2586 C 0.64851 0.87247 0.67521 0.0
C2587 C 0.66187 0.88845 0.68439 0.0
C2588 C 0.63743 0.8767 0.65579 0.0
C2589 C 0.63922 0.89711 0.64582 0.0
C2590 C 0.65169 0.91332 0.65581 0.0
C2591 C 0.66301 0.90898 0.67479 0.0
loop_
_geom_bond_atom_site_label_1
_geom_bond_atom_site_label_2
_geom_bond_distance
_geom_bond_site_symmetry_2
_ccdc_geom_bond_type
Co0 O1 2.216 . S
Co0 O2 2.091 . S
Co0 O4 2.004 . S
Co0 O10 2.021 . S
Co0 O12 2.137 . S
Co0 O13 2.244 . S
O1 Co0 2.216 . S
O1 C8 1.247 . S
O2 Co0 2.091 . S
O2 C8 1.261 . S
C3 O12 1.247 . S
C3 O13 1.272 . S
O4 Co0 2.004 . S
O4 C9 1.259 . S
Co5 O6 2.061 . S
Co5 O11 2.052 . S
Co5 O13 2.135 . S
O6 Co5 2.061 . S
O6 C9 1.235 . S
C7 O10 1.238 . S
C7 O11 1.241 . S
C8 O1 1.247 . S
C8 O2 1.261 . S
C9 O4 1.259 . S
C9 O6 1.235 . S
O10 Co0 2.021 . S
O10 C7 1.238 . S
O11 Co5 2.052 . S
O11 C7 1.241 . S
O12 Co0 2.137 . S
O12 C3 1.247 . S
O13 Co0 2.244 . S
O13 C3 1.272 . S
O13 Co5 2.135 . S
Co14 O15 2.216 . S
Co14 O16 2.091 . S
Co14 O18 2.004 . S
Co14 O24 2.021 . S
Co14 O26 2.137 . S
Co14 O27 2.244 . S
O15 Co14 2.216 . S
O15 C22 1.247 . S
O16 Co14 2.091 . S
O16 C22 1.261 . S
C17 O26 1.247 . S
C17 O27 1.272 . S
O18 Co14 2.004 . S
O18 C23 1.259 1_565 S
Co19 O20 2.061 1_655 S
Co19 O25 2.052 1_655 S
Co19 O27 2.135 1_645 S
O20 Co19 2.061 1_455 S
O20 C23 1.235 . S
C21 O24 1.238 . S
C21 O25 1.241 1_565 S
C22 O15 1.247 . S
C22 O16 1.261 . S
C23 O18 1.259 1_545 S
C23 O20 1.235 . S
O24 Co14 2.021 . S
O24 C21 1.238 . S
O25 Co19 2.052 1_455 S
O25 C21 1.241 1_545 S
O26 Co14 2.137 . S
O26 C17 1.247 . S
O27 Co14 2.244 . S
O27 C17 1.272 . S
O27 Co19 2.135 1_465 S
Co28 O29 2.216 . S
Co28 O30 2.091 . S
Co28 O32 2.004 . S
Co28 O38 2.021 . S
Co28 O40 2.137 . S
Co28 O41 2.244 . S
O29 Co28 2.216 . S
O29 C36 1.247 . S
O30 Co28 2.091 . S
O30 C36 1.261 . S
C31 O40 1.247 . S
C31 O41 1.272 . S
O32 Co28 2.004 . S
O32 C37 1.259 . S
Co33 O34 2.061 . S
Co33 O39 2.052 . S
Co33 O41 2.135 . S
O34 Co33 2.061 . S
O34 C37 1.235 . S
C35 O38 1.238 . S
C35 O39 1.241 . S
C36 O29 1.247 . S
C36 O30 1.261 . S
C37 O32 1.259 . S
C37 O34 1.235 . S
O38 Co28 2.021 . S
O38 C35 1.238 . S
O39 Co33 2.052 . S
O39 C35 1.241 . S
O40 Co28 2.137 . S
O40 C31 1.247 . S
O41 Co28 2.244 . S
O41 C31 1.272 . S
O41 Co33 2.135 . S
Co42 O43 2.216 . S
Co42 O44 2.091 . S
Co42 O46 2.004 . S
Co42 O52 2.021 . S
Co42 O54 2.137 . S
Co42 O55 2.244 . S
O43 Co42 2.216 . S
O43 C50 1.247 . S
O44 Co42 2.091 . S
O44 C50 1.261 . S
C45 O54 1.247 . S
C45 O55 1.272 . S
O46 Co42 2.004 . S
O46 C51 1.259 1_545 S
Co47 O48 2.061 . S
Co47 O53 2.052 . S
Co47 O55 2.135 1_565 S
O48 Co47 2.061 . S
O48 C51 1.235 . S
C49 O52 1.238 . S
C49 O53 1.241 1_545 S
C50 O43 1.247 . S
C50 O44 1.261 . S
C51 O46 1.259 1_565 S
C51 O48 1.235 . S
O52 Co42 2.021 . S
O52 C49 1.238 . S
O53 Co47 2.052 . S
O53 C49 1.241 1_565 S
O54 Co42 2.137 . S
O54 C45 1.247 . S
O55 Co42 2.244 . S
O55 C45 1.272 . S
O55 Co47 2.135 1_545 S
Co56 O57 2.216 . S
Co56 O58 2.091 . S
Co56 O60 2.004 . S
Co56 O66 2.021 . S
Co56 O68 2.137 . S
Co56 O69 2.244 . S
O57 Co56 2.216 . S
O57 C64 1.247 . S
O58 Co56 2.091 . S
O58 C64 1.261 . S
C59 O68 1.247 . S
C59 O69 1.272 . S
O60 Co56 2.004 . S
O60 C65 1.259 . S
Co61 O62 2.061 . S
Co61 O67 2.052 . S
Co61 O69 2.135 . S
O62 Co61 2.061 . S
O62 C65 1.235 . S
C63 O66 1.238 . S
C63 O67 1.241 . S
C64 O57 1.247 . S
C64 O58 1.261 . S
C65 O60 1.259 . S
C65 O62 1.235 . S
O66 Co56 2.021 . S
O66 C63 1.238 . S
O67 Co61 2.052 . S
O67 C63 1.241 . S
O68 Co56 2.137 . S
O68 C59 1.247 . S
O69 Co56 2.244 . S
O69 C59 1.272 . S
O69 Co61 2.135 . S
Co70 O71 2.216 . S
Co70 O72 2.091 . S
Co70 O74 2.004 . S
Co70 O80 2.021 . S
Co70 O82 2.137 . S
Co70 O83 2.244 . S
O71 Co70 2.216 . S
O71 C78 1.247 . S
O72 Co70 2.091 . S
O72 C78 1.261 . S
C73 O82 1.247 . S
C73 O83 1.272 . S
O74 Co70 2.004 . S
O74 C79 1.259 1_565 S
Co75 O76 2.061 . S
Co75 O81 2.052 . S
Co75 O83 2.135 1_545 S
O76 Co75 2.061 . S
O76 C79 1.235 . S
C77 O80 1.238 . S
C77 O81 1.241 1_565 S
C78 O71 1.247 . S
C78 O72 1.261 . S
C79 O74 1.259 1_545 S
C79 O76 1.235 . S
O80 Co70 2.021 . S
O80 C77 1.238 . S
O81 Co75 2.052 . S
O81 C77 1.241 1_545 S
O82 Co70 2.137 . S
O82 C73 1.247 . S
O83 Co70 2.244 . S
O83 C73 1.272 . S
O83 Co75 2.135 1_565 S
Co84 O85 2.216 . S
Co84 O86 2.091 . S
Co84 O88 2.004 . S
Co84 O94 2.021 . S
Co84 O96 2.137 . S
Co84 O97 2.244 . S
O85 Co84 2.216 . S
O85 C92 1.247 . S
O86 Co84 2.091 . S
O86 C92 1.261 . S
C87 O96 1.247 . S
C87 O97 1.272 . S
O88 Co84 2.004 . S
O88 C93 1.259 . S
Co89 O90 2.061 . S
Co89 O95 2.052 . S
Co89 O97 2.135 . S
O90 Co89 2.061 . S
O90 C93 1.235 . S
C91 O94 1.238 . S
C91 O95 1.241 . S
C92 O85 1.247 . S
C92 O86 1.261 . S
C93 O88 1.259 . S
C93 O90 1.235 . S
O94 Co84 2.021 . S
O94 C91 1.238 . S
O95 Co89 2.052 . S
O95 C91 1.241 . S
O96 Co84 2.137 . S
O96 C87 1.247 . S
O97 Co84 2.244 . S
O97 C87 1.272 . S
O97 Co89 2.135 . S
Co98 O99 2.216 . S
Co98 O100 2.091 . S
Co98 O102 2.004 . S
Co98 O108 2.021 . S
Co98 O110 2.137 . S
Co98 O111 2.244 . S
O99 Co98 2.216 . S
O99 C106 1.247 . S
O100 Co98 2.091 . S
O100 C106 1.261 . S
C101 O110 1.247 . S
C101 O111 1.272 . S
O102 Co98 2.004 . S
O102 C107 1.259 1_545 S
Co103 O104 2.061 1_655 S
Co103 O109 2.052 1_655 S
Co103 O111 2.135 1_665 S
O104 Co103 2.061 1_455 S
O104 C107 1.235 . S
C105 O108 1.238 . S
C105 O109 1.241 1_545 S
C106 O99 1.247 . S
C106 O100 1.261 . S
C107 O102 1.259 1_565 S
C107 O104 1.235 . S
O108 Co98 2.021 . S
O108 C105 1.238 . S
O109 Co103 2.052 1_455 S
O109 C105 1.241 1_565 S
O110 Co98 2.137 . S
O110 C101 1.247 . S
O111 Co98 2.244 . S
O111 C101 1.272 . S
O111 Co103 2.135 1_445 S
Co112 O113 2.216 . S
Co112 O114 2.091 . S
Co112 O116 2.004 . S
Co112 O122 2.021 . S
Co112 O124 2.137 . S
Co112 O125 2.244 . S
O113 Co112 2.216 . S
O113 C120 1.247 . S
O114 Co112 2.091 . S
O114 C120 1.261 . S
C115 O124 1.247 . S
C115 O125 1.272 . S
O116 Co112 2.004 . S
O116 C121 1.259 . S
Co117 O118 2.061 . S
Co117 O123 2.052 . S
Co117 O125 2.135 . S
O118 Co117 2.061 . S
O118 C121 1.235 . S
C119 O122 1.238 . S
C119 O123 1.241 . S
C120 O113 1.247 . S
C120 O114 1.261 . S
C121 O116 1.259 . S
C121 O118 1.235 . S
O122 Co112 2.021 . S
O122 C119 1.238 . S
O123 Co117 2.052 . S
O123 C119 1.241 . S
O124 Co112 2.137 . S
O124 C115 1.247 . S
O125 Co112 2.244 . S
O125 C115 1.272 . S
O125 Co117 2.135 . S
Co126 O127 2.216 . S
Co126 O128 2.091 . S
Co126 O130 2.004 . S
Co126 O136 2.021 . S
Co126 O138 2.137 . S
Co126 O139 2.244 . S
O127 Co126 2.216 . S
O127 C134 1.247 . S
O128 Co126 2.091 . S
O128 C134 1.261 . S
C129 O138 1.247 . S
C129 O139 1.272 . S
O130 Co126 2.004 . S
O130 C135 1.259 1_455 S
Co131 O132 2.061 . S
Co131 O137 2.052 . S
Co131 O139 2.135 1_655 S
O132 Co131 2.061 . S
O132 C135 1.235 . S
C133 O136 1.238 . S
C133 O137 1.241 1_455 S
C134 O127 1.247 . S
C134 O128 1.261 . S
C135 O130 1.259 1_655 S
C135 O132 1.235 . S
O136 Co126 2.021 . S
O136 C133 1.238 . S
O137 Co131 2.052 . S
O137 C133 1.241 1_655 S
O138 Co126 2.137 . S
O138 C129 1.247 . S
O139 Co126 2.244 . S
O139 C129 1.272 . S
O139 Co131 2.135 1_455 S
Co140 O141 2.216 . S
Co140 O142 2.091 . S
Co140 O144 2.004 . S
Co140 O150 2.021 . S
Co140 O152 2.137 . S
Co140 O153 2.244 . S
O141 Co140 2.216 . S
O141 C148 1.247 . S
O142 Co140 2.091 . S
O142 C148 1.261 . S
C143 O152 1.247 . S
C143 O153 1.272 . S
O144 Co140 2.004 . S
O144 C149 1.259 . S
Co145 O146 2.061 . S
Co145 O151 2.052 . S
Co145 O153 2.135 . S
O146 Co145 2.061 . S
O146 C149 1.235 . S
C147 O150 1.238 . S
C147 O151 1.241 . S
C148 O141 1.247 . S
C148 O142 1.261 . S
C149 O144 1.259 . S
C149 O146 1.235 . S
O150 Co140 2.021 . S
O150 C147 1.238 . S
O151 Co145 2.052 . S
O151 C147 1.241 . S
O152 Co140 2.137 . S
O152 C143 1.247 . S
O153 Co140 2.244 . S
O153 C143 1.272 . S
O153 Co145 2.135 . S
Co154 O155 2.216 . S
Co154 O156 2.091 . S
Co154 O158 2.004 . S
Co154 O164 2.021 . S
Co154 O166 2.137 . S
Co154 O167 2.244 . S
O155 Co154 2.216 . S
O155 C162 1.247 . S
O156 Co154 2.091 . S
O156 C162 1.261 . S
C157 O166 1.247 . S
C157 O167 1.272 . S
O158 Co154 2.004 . S
O158 C163 1.259 . S
Co159 O160 2.061 1_554 S
Co159 O165 2.052 1_554 S
Co159 O167 2.135 1_554 S
O160 Co159 2.061 1_556 S
O160 C163 1.235 . S
C161 O164 1.238 . S
C161 O165 1.241 . S
C162 O155 1.247 . S
C162 O156 1.261 . S
C163 O158 1.259 . S
C163 O160 1.235 . S
O164 Co154 2.021 . S
O164 C161 1.238 . S
O165 Co159 2.052 1_556 S
O165 C161 1.241 . S
O166 Co154 2.137 . S
O166 C157 1.247 . S
O167 Co154 2.244 . S
O167 C157 1.272 . S
O167 Co159 2.135 1_556 S
Co168 O169 2.216 . S
Co168 O170 2.091 . S
Co168 O172 2.004 . S
Co168 O178 2.021 . S
Co168 O180 2.137 . S
Co168 O181 2.244 . S
O169 Co168 2.216 . S
O169 C176 1.247 . S
O170 Co168 2.091 . S
O170 C176 1.261 . S
C171 O180 1.247 . S
C171 O181 1.272 . S
O172 Co168 2.004 . S
O172 C177 1.259 . S
Co173 O174 2.061 . S
Co173 O179 2.052 . S
Co173 O181 2.135 . S
O174 Co173 2.061 . S
O174 C177 1.235 . S
C175 O178 1.238 . S
C175 O179 1.241 . S
C176 O169 1.247 . S
C176 O170 1.261 . S
C177 O172 1.259 . S
C177 O174 1.235 . S
O178 Co168 2.021 . S
O178 C175 1.238 . S
O179 Co173 2.052 . S
O179 C175 1.241 . S
O180 Co168 2.137 . S
O180 C171 1.247 . S
O181 Co168 2.244 . S
O181 C171 1.272 . S
O181 Co173 2.135 . S
Co182 O183 2.216 . S
Co182 O184 2.091 . S
Co182 O186 2.004 . S
Co182 O192 2.021 . S
Co182 O194 2.137 . S
Co182 O195 2.244 . S
O183 Co182 2.216 . S
O183 C190 1.247 . S
O184 Co182 2.091 . S
O184 C190 1.261 . S
C185 O194 1.247 . S
C185 O195 1.272 . S
O186 Co182 2.004 . S
O186 C191 1.259 . S
Co187 O188 2.061 . S
Co187 O193 2.052 . S
Co187 O195 2.135 . S
O188 Co187 2.061 . S
O188 C191 1.235 . S
C189 O192 1.238 . S
C189 O193 1.241 . S
C190 O183 1.247 . S
C190 O184 1.261 . S
C191 O186 1.259 . S
C191 O188 1.235 . S
O192 Co182 2.021 . S
O192 C189 1.238 . S
O193 Co187 2.052 . S
O193 C189 1.241 . S
O194 Co182 2.137 . S
O194 C185 1.247 . S
O195 Co182 2.244 . S
O195 C185 1.272 . S
O195 Co187 2.135 . S
Co196 O197 2.216 . S
Co196 O198 2.091 . S
Co196 O200 2.004 . S
Co196 O206 2.021 . S
Co196 O208 2.137 . S
Co196 O209 2.244 . S
O197 Co196 2.216 . S
O197 C204 1.247 . S
O198 Co196 2.091 . S
O198 C204 1.261 . S
C199 O208 1.247 . S
C199 O209 1.272 . S
O200 Co196 2.004 . S
O200 C205 1.259 . S
Co201 O202 2.061 . S
Co201 O207 2.052 . S
Co201 O209 2.135 . S
O202 Co201 2.061 . S
O202 C205 1.235 . S
C203 O206 1.238 . S
C203 O207 1.241 . S
C204 O197 1.247 . S
C204 O198 1.261 . S
C205 O200 1.259 . S
C205 O202 1.235 . S
O206 Co196 2.021 . S
O206 C203 1.238 . S
O207 Co201 2.052 . S
O207 C203 1.241 . S
O208 Co196 2.137 . S
O208 C199 1.247 . S
O209 Co196 2.244 . S
O209 C199 1.272 . S
O209 Co201 2.135 . S
Co210 O211 2.216 . S
Co210 O212 2.091 . S
Co210 O214 2.004 . S
Co210 O220 2.021 . S
Co210 O222 2.137 . S
Co210 O223 2.244 . S
O211 Co210 2.216 . S
O211 C218 1.247 . S
O212 Co210 2.091 . S
O212 C218 1.261 . S
C213 O222 1.247 . S
C213 O223 1.272 . S
O214 Co210 2.004 . S
O214 C219 1.259 1_455 S
Co215 O216 2.061 1_556 S
Co215 O221 2.052 1_556 S
Co215 O223 2.135 1_656 S
O216 Co215 2.061 1_554 S
O216 C219 1.235 . S
C217 O220 1.238 . S
C217 O221 1.241 1_455 S
C218 O211 1.247 . S
C218 O212 1.261 . S
C219 O214 1.259 1_655 S
C219 O216 1.235 . S
O220 Co210 2.021 . S
O220 C217 1.238 . S
O221 Co215 2.052 1_554 S
O221 C217 1.241 1_655 S
O222 Co210 2.137 . S
O222 C213 1.247 . S
O223 Co210 2.244 . S
O223 C213 1.272 . S
O223 Co215 2.135 1_454 S
Co224 O225 2.216 . S
Co224 O226 2.091 . S
Co224 O228 2.004 . S
Co224 O234 2.021 . S
Co224 O236 2.137 . S
Co224 O237 2.244 . S
O225 Co224 2.216 . S
O225 C232 1.247 . S
O226 Co224 2.091 . S
O226 C232 1.261 . S
C227 O236 1.247 . S
C227 O237 1.272 . S
O228 Co224 2.004 . S
O228 C233 1.259 . S
Co229 O230 2.061 . S
Co229 O235 2.052 . S
Co229 O237 2.135 . S
O230 Co229 2.061 . S
O230 C233 1.235 . S
C231 O234 1.238 . S
C231 O235 1.241 . S
C232 O225 1.247 . S
C232 O226 1.261 . S
C233 O228 1.259 . S
C233 O230 1.235 . S
O234 Co224 2.021 . S
O234 C231 1.238 . S
O235 Co229 2.052 . S
O235 C231 1.241 . S
O236 Co224 2.137 . S
O236 C227 1.247 . S
O237 Co224 2.244 . S
O237 C227 1.272 . S
O237 Co229 2.135 . S
Co238 O239 2.216 . S
Co238 O240 2.091 . S
Co238 O242 2.004 . S
Co238 O248 2.021 . S
Co238 O250 2.137 . S
Co238 O251 2.244 . S
O239 Co238 2.216 . S
O239 C246 1.247 . S
O240 Co238 2.091 . S
O240 C246 1.261 . S
C241 O250 1.247 . S
C241 O251 1.272 . S
O242 Co238 2.004 . S
O242 C247 1.259 . S
Co243 O244 2.061 . S
Co243 O249 2.052 . S
Co243 O251 2.135 . S
O244 Co243 2.061 . S
O244 C247 1.235 . S
C245 O248 1.238 . S
C245 O249 1.241 . S
C246 O239 1.247 . S
C246 O240 1.261 . S
C247 O242 1.259 . S
C247 O244 1.235 . S
O248 Co238 2.021 . S
O248 C245 1.238 . S
O249 Co243 2.052 . S
O249 C245 1.241 . S
O250 Co238 2.137 . S
O250 C241 1.247 . S
O251 Co238 2.244 . S
O251 C241 1.272 . S
O251 Co243 2.135 . S
Co252 O253 2.216 . S
Co252 O254 2.091 . S
Co252 O256 2.004 . S
Co252 O262 2.021 . S
Co252 O264 2.137 . S
Co252 O265 2.244 . S
O253 Co252 2.216 . S
O253 C260 1.247 . S
O254 Co252 2.091 . S
O254 C260 1.261 . S
C255 O264 1.247 . S
C255 O265 1.272 . S
O256 Co252 2.004 . S
O256 C261 1.259 1_554 S
Co257 O258 2.061 . S
Co257 O263 2.052 . S
Co257 O265 2.135 1_556 S
O258 Co257 2.061 . S
O258 C261 1.235 . S
C259 O262 1.238 . S
C259 O263 1.241 1_554 S
C260 O253 1.247 . S
C260 O254 1.261 . S
C261 O256 1.259 1_556 S
C261 O258 1.235 . S
O262 Co252 2.021 . S
O262 C259 1.238 . S
O263 Co257 2.052 . S
O263 C259 1.241 1_556 S
O264 Co252 2.137 . S
O264 C255 1.247 . S
O265 Co252 2.244 . S
O265 C255 1.272 . S
O265 Co257 2.135 1_554 S
Co266 O267 2.216 . S
Co266 O268 2.091 . S
Co266 O270 2.004 . S
Co266 O276 2.021 . S
Co266 O278 2.137 . S
Co266 O279 2.244 . S
O267 Co266 2.216 . S
O267 C274 1.247 . S
O268 Co266 2.091 . S
O268 C274 1.261 . S
C269 O278 1.247 . S
C269 O279 1.272 . S
O270 Co266 2.004 . S
O270 C275 1.259 . S
Co271 O272 2.061 . S
Co271 O277 2.052 . S
Co271 O279 2.135 . S
O272 Co271 2.061 . S
O272 C275 1.235 . S
C273 O276 1.238 . S
C273 O277 1.241 . S
C274 O267 1.247 . S
C274 O268 1.261 . S
C275 O270 1.259 . S
C275 O272 1.235 . S
O276 Co266 2.021 . S
O276 C273 1.238 . S
O277 Co271 2.052 . S
O277 C273 1.241 . S
O278 Co266 2.137 . S
O278 C269 1.247 . S
O279 Co266 2.244 . S
O279 C269 1.272 . S
O279 Co271 2.135 . S
Co280 O281 2.216 . S
Co280 O282 2.091 . S
Co280 O284 2.004 . S
Co280 O290 2.021 . S
Co280 O292 2.137 . S
Co280 O293 2.244 . S
O281 Co280 2.216 . S
O281 C288 1.247 . S
O282 Co280 2.091 . S
O282 C288 1.261 . S
C283 O292 1.247 . S
C283 O293 1.272 . S
O284 Co280 2.004 . S
O284 C289 1.259 1_554 S
Co285 O286 2.061 1_565 S
Co285 O291 2.052 1_565 S
Co285 O293 2.135 1_566 S
O286 Co285 2.061 1_545 S
O286 C289 1.235 . S
C287 O290 1.238 . S
C287 O291 1.241 1_554 S
C288 O281 1.247 . S
C288 O282 1.261 . S
C289 O284 1.259 1_556 S
C289 O286 1.235 . S
O290 Co280 2.021 . S
O290 C287 1.238 . S
O291 Co285 2.052 1_545 S
O291 C287 1.241 1_556 S
O292 Co280 2.137 . S
O292 C283 1.247 . S
O293 Co280 2.244 . S
O293 C283 1.272 . S
O293 Co285 2.135 1_544 S
Co294 O295 2.216 . S
Co294 O296 2.091 . S
Co294 O298 2.004 . S
Co294 O304 2.021 . S
Co294 O306 2.137 . S
Co294 O307 2.244 . S
O295 Co294 2.216 . S
O295 C302 1.247 . S
O296 Co294 2.091 . S
O296 C302 1.261 . S
C297 O306 1.247 . S
C297 O307 1.272 . S
O298 Co294 2.004 . S
O298 C303 1.259 . S
Co299 O300 2.061 . S
Co299 O305 2.052 . S
Co299 O307 2.135 . S
O300 Co299 2.061 . S
O300 C303 1.235 . S
C301 O304 1.238 . S
C301 O305 1.241 . S
C302 O295 1.247 . S
C302 O296 1.261 . S
C303 O298 1.259 . S
C303 O300 1.235 . S
O304 Co294 2.021 . S
O304 C301 1.238 . S
O305 Co299 2.052 . S
O305 C301 1.241 . S
O306 Co294 2.137 . S
O306 C297 1.247 . S
O307 Co294 2.244 . S
O307 C297 1.272 . S
O307 Co299 2.135 . S
Co308 O309 2.216 . S
Co308 O310 2.091 . S
Co308 O312 2.004 . S
Co308 O318 2.021 . S
Co308 O320 2.137 . S
Co308 O321 2.244 . S
O309 Co308 2.216 . S
O309 C316 1.247 . S
O310 Co308 2.091 . S
O310 C316 1.261 . S
C311 O320 1.247 . S
C311 O321 1.272 . S
O312 Co308 2.004 . S
O312 C317 1.259 . S
Co313 O314 2.061 . S
Co313 O319 2.052 . S
Co313 O321 2.135 . S
O314 Co313 2.061 . S
O314 C317 1.235 . S
C315 O318 1.238 . S
C315 O319 1.241 . S
C316 O309 1.247 . S
C316 O310 1.261 . S
C317 O312 1.259 . S
C317 O314 1.235 . S
O318 Co308 2.021 . S
O318 C315 1.238 . S
O319 Co313 2.052 . S
O319 C315 1.241 . S
O320 Co308 2.137 . S
O320 C311 1.247 . S
O321 Co308 2.244 . S
O321 C311 1.272 . S
O321 Co313 2.135 . S
Co322 O323 2.216 . S
Co322 O324 2.091 . S
Co322 O326 2.004 . S
Co322 O332 2.021 . S
Co322 O334 2.137 . S
Co322 O335 2.244 . S
O323 Co322 2.216 . S
O323 C330 1.247 . S
O324 Co322 2.091 . S
O324 C330 1.261 . S
C325 O334 1.247 . S
C325 O335 1.272 . S
O326 Co322 2.004 . S
O326 C331 1.259 1_556 S
Co327 O328 2.061 . S
Co327 O333 2.052 . S
Co327 O335 2.135 1_554 S
O328 Co327 2.061 . S
O328 C331 1.235 . S
C329 O332 1.238 . S
C329 O333 1.241 1_556 S
C330 O323 1.247 . S
C330 O324 1.261 . S
C331 O326 1.259 1_554 S
C331 O328 1.235 . S
O332 Co322 2.021 . S
O332 C329 1.238 . S
O333 Co327 2.052 . S
O333 C329 1.241 1_554 S
O334 Co322 2.137 . S
O334 C325 1.247 . S
O335 Co322 2.244 . S
O335 C325 1.272 . S
O335 Co327 2.135 1_556 S
Co336 O337 2.216 . S
Co336 O338 2.091 . S
Co336 O340 2.004 . S
Co336 O346 2.021 . S
Co336 O348 2.137 . S
Co336 O349 2.244 . S
O337 Co336 2.216 . S
O337 C344 1.247 . S
O338 Co336 2.091 . S
O338 C344 1.261 . S
C339 O348 1.247 . S
C339 O349 1.272 . S
O340 Co336 2.004 . S
O340 C345 1.259 . S
Co341 O342 2.061 . S
Co341 O347 2.052 . S
Co341 O349 2.135 . S
O342 Co341 2.061 . S
O342 C345 1.235 . S
C343 O346 1.238 . S
C343 O347 1.241 . S
C344 O337 1.247 . S
C344 O338 1.261 . S
C345 O340 1.259 . S
C345 O342 1.235 . S
O346 Co336 2.021 . S
O346 C343 1.238 . S
O347 Co341 2.052 . S
O347 C343 1.241 . S
O348 Co336 2.137 . S
O348 C339 1.247 . S
O349 Co336 2.244 . S
O349 C339 1.272 . S
O349 Co341 2.135 . S
Co350 O351 2.216 . S
Co350 O352 2.091 . S
Co350 O354 2.004 . S
Co350 O360 2.021 . S
Co350 O362 2.137 . S
Co350 O363 2.244 . S
O351 Co350 2.216 . S
O351 C358 1.247 . S
O352 Co350 2.091 . S
O352 C358 1.261 . S
C353 O362 1.247 . S
C353 O363 1.272 . S
O354 Co350 2.004 . S
O354 C359 1.259 . S
Co355 O356 2.061 . S
Co355 O361 2.052 . S
Co355 O363 2.135 . S
O356 Co355 2.061 . S
O356 C359 1.235 . S
C357 O360 1.238 . S
C357 O361 1.241 . S
C358 O351 1.247 . S
C358 O352 1.261 . S
C359 O354 1.259 . S
C359 O356 1.235 . S
O360 Co350 2.021 . S
O360 C357 1.238 . S
O361 Co355 2.052 . S
O361 C357 1.241 . S
O362 Co350 2.137 . S
O362 C353 1.247 . S
O363 Co350 2.244 . S
O363 C353 1.272 . S
O363 Co355 2.135 . S
Co364 O365 2.216 . S
Co364 O366 2.091 . S
Co364 O368 2.004 . S
Co364 O374 2.021 . S
Co364 O376 2.137 . S
Co364 O377 2.244 . S
O365 Co364 2.216 . S
O365 C372 1.247 . S
O366 Co364 2.091 . S
O366 C372 1.261 . S
C367 O376 1.247 . S
C367 O377 1.272 . S
O368 Co364 2.004 . S
O368 C373 1.259 . S
Co369 O370 2.061 . S
Co369 O375 2.052 . S
Co369 O377 2.135 . S
O370 Co369 2.061 . S
O370 C373 1.235 . S
C371 O374 1.238 . S
C371 O375 1.241 . S
C372 O365 1.247 . S
C372 O366 1.261 . S
C373 O368 1.259 . S
C373 O370 1.235 . S
O374 Co364 2.021 . S
O374 C371 1.238 . S
O375 Co369 2.052 . S
O375 C371 1.241 . S
O376 Co364 2.137 . S
O376 C367 1.247 . S
O377 Co364 2.244 . S
O377 C367 1.272 . S
O377 Co369 2.135 . S
Co378 O379 2.216 . S
Co378 O380 2.091 . S
Co378 O382 2.004 . S
Co378 O388 2.021 . S
Co378 O390 2.137 . S
Co378 O391 2.244 . S
O379 Co378 2.216 . S
O379 C386 1.247 . S
O380 Co378 2.091 . S
O380 C386 1.261 . S
C381 O390 1.247 . S
C381 O391 1.272 . S
O382 Co378 2.004 . S
O382 C387 1.259 . S
Co383 O384 2.061 1_455 S
Co383 O389 2.052 1_455 S
Co383 O391 2.135 1_455 S
O384 Co383 2.061 1_655 S
O384 C387 1.235 . S
C385 O388 1.238 . S
C385 O389 1.241 . S
C386 O379 1.247 . S
C386 O380 1.261 . S
C387 O382 1.259 . S
C387 O384 1.235 . S
O388 Co378 2.021 . S
O388 C385 1.238 . S
O389 Co383 2.052 1_655 S
O389 C385 1.241 . S
O390 Co378 2.137 . S
O390 C381 1.247 . S
O391 Co378 2.244 . S
O391 C381 1.272 . S
O391 Co383 2.135 1_655 S
Co392 O393 2.216 . S
Co392 O394 2.091 . S
Co392 O396 2.004 . S
Co392 O402 2.021 . S
Co392 O404 2.137 . S
Co392 O405 2.244 . S
O393 Co392 2.216 . S
O393 C400 1.247 . S
O394 Co392 2.091 . S
O394 C400 1.261 . S
C395 O404 1.247 . S
C395 O405 1.272 . S
O396 Co392 2.004 . S
O396 C401 1.259 . S
Co397 O398 2.061 . S
Co397 O403 2.052 . S
Co397 O405 2.135 . S
O398 Co397 2.061 . S
O398 C401 1.235 . S
C399 O402 1.238 . S
C399 O403 1.241 . S
C400 O393 1.247 . S
C400 O394 1.261 . S
C401 O396 1.259 . S
C401 O398 1.235 . S
O402 Co392 2.021 . S
O402 C399 1.238 . S
O403 Co397 2.052 . S
O403 C399 1.241 . S
O404 Co392 2.137 . S
O404 C395 1.247 . S
O405 Co392 2.244 . S
O405 C395 1.272 . S
O405 Co397 2.135 . S
Co406 O407 2.216 . S
Co406 O408 2.091 . S
Co406 O410 2.004 . S
Co406 O416 2.021 . S
Co406 O418 2.137 . S
Co406 O419 2.244 . S
O407 Co406 2.216 . S
O407 C414 1.247 . S
O408 Co406 2.091 . S
O408 C414 1.261 . S
C409 O418 1.247 . S
C409 O419 1.272 . S
O410 Co406 2.004 . S
O410 C415 1.259 . S
Co411 O412 2.061 1_455 S
Co411 O417 2.052 1_455 S
Co411 O419 2.135 1_455 S
O412 Co411 2.061 1_655 S
O412 C415 1.235 . S
C413 O416 1.238 . S
C413 O417 1.241 . S
C414 O407 1.247 . S
C414 O408 1.261 . S
C415 O410 1.259 . S
C415 O412 1.235 . S
O416 Co406 2.021 . S
O416 C413 1.238 . S
O417 Co411 2.052 1_655 S
O417 C413 1.241 . S
O418 Co406 2.137 . S
O418 C409 1.247 . S
O419 Co406 2.244 . S
O419 C409 1.272 . S
O419 Co411 2.135 1_655 S
Co420 O421 2.216 . S
Co420 O422 2.091 . S
Co420 O424 2.004 . S
Co420 O430 2.021 . S
Co420 O432 2.137 . S
Co420 O433 2.244 . S
O421 Co420 2.216 . S
O421 C428 1.247 . S
O422 Co420 2.091 . S
O422 C428 1.261 . S
C423 O432 1.247 . S
C423 O433 1.272 . S
O424 Co420 2.004 . S
O424 C429 1.259 . S
Co425 O426 2.061 . S
Co425 O431 2.052 . S
Co425 O433 2.135 . S
O426 Co425 2.061 . S
O426 C429 1.235 . S
C427 O430 1.238 . S
C427 O431 1.241 . S
C428 O421 1.247 . S
C428 O422 1.261 . S
C429 O424 1.259 . S
C429 O426 1.235 . S
O430 Co420 2.021 . S
O430 C427 1.238 . S
O431 Co425 2.052 . S
O431 C427 1.241 . S
O432 Co420 2.137 . S
O432 C423 1.247 . S
O433 Co420 2.244 . S
O433 C423 1.272 . S
O433 Co425 2.135 . S
Co434 O435 2.216 . S
Co434 O436 2.091 . S
Co434 O438 2.004 . S
Co434 O444 2.021 . S
Co434 O446 2.137 . S
Co434 O447 2.244 . S
O435 Co434 2.216 . S
O435 C442 1.247 . S
O436 Co434 2.091 . S
O436 C442 1.261 . S
C437 O446 1.247 . S
C437 O447 1.272 . S
O438 Co434 2.004 . S
O438 C443 1.259 . S
Co439 O440 2.061 . S
Co439 O445 2.052 . S
Co439 O447 2.135 . S
O440 Co439 2.061 . S
O440 C443 1.235 . S
C441 O444 1.238 . S
C441 O445 1.241 . S
C442 O435 1.247 . S
C442 O436 1.261 . S
C443 O438 1.259 . S
C443 O440 1.235 . S
O444 Co434 2.021 . S
O444 C441 1.238 . S
O445 Co439 2.052 . S
O445 C441 1.241 . S
O446 Co434 2.137 . S
O446 C437 1.247 . S
O447 Co434 2.244 . S
O447 C437 1.272 . S
O447 Co439 2.135 . S
Co448 O449 2.216 . S
Co448 O450 2.091 . S
Co448 O452 2.004 . S
Co448 O458 2.021 . S
Co448 O460 2.137 . S
Co448 O461 2.244 . S
O449 Co448 2.216 . S
O449 C456 1.247 . S
O450 Co448 2.091 . S
O450 C456 1.261 . S
C451 O460 1.247 . S
C451 O461 1.272 . S
O452 Co448 2.004 . S
O452 C457 1.259 . S
Co453 O454 2.061 . S
Co453 O459 2.052 . S
Co453 O461 2.135 . S
O454 Co453 2.061 . S
O454 C457 1.235 . S
C455 O458 1.238 . S
C455 O459 1.241 . S
C456 O449 1.247 . S
C456 O450 1.261 . S
C457 O452 1.259 . S
C457 O454 1.235 . S
O458 Co448 2.021 . S
O458 C455 1.238 . S
O459 Co453 2.052 . S
O459 C455 1.241 . S
O460 Co448 2.137 . S
O460 C451 1.247 . S
O461 Co448 2.244 . S
O461 C451 1.272 . S
O461 Co453 2.135 . S
Co462 O463 2.216 . S
Co462 O464 2.091 . S
Co462 O466 2.004 . S
Co462 O472 2.021 . S
Co462 O474 2.137 . S
Co462 O475 2.244 . S
O463 Co462 2.216 . S
O463 C470 1.247 . S
O464 Co462 2.091 . S
O464 C470 1.261 . S
C465 O474 1.247 . S
C465 O475 1.272 . S
O466 Co462 2.004 . S
O466 C471 1.259 . S
Co467 O468 2.061 1_554 S
Co467 O473 2.052 1_554 S
Co467 O475 2.135 1_554 S
O468 Co467 2.061 1_556 S
O468 C471 1.235 . S
C469 O472 1.238 . S
C469 O473 1.241 . S
C470 O463 1.247 . S
C470 O464 1.261 . S
C471 O466 1.259 . S
C471 O468 1.235 . S
O472 Co462 2.021 . S
O472 C469 1.238 . S
O473 Co467 2.052 1_556 S
O473 C469 1.241 . S
O474 Co462 2.137 . S
O474 C465 1.247 . S
O475 Co462 2.244 . S
O475 C465 1.272 . S
O475 Co467 2.135 1_556 S
Co476 O477 2.216 . S
Co476 O478 2.091 . S
Co476 O480 2.004 . S
Co476 O486 2.021 . S
Co476 O488 2.137 . S
Co476 O489 2.244 . S
O477 Co476 2.216 . S
O477 C484 1.247 . S
O478 Co476 2.091 . S
O478 C484 1.261 . S
C479 O488 1.247 . S
C479 O489 1.272 . S
O480 Co476 2.004 . S
O480 C485 1.259 . S
Co481 O482 2.061 . S
Co481 O487 2.052 . S
Co481 O489 2.135 . S
O482 Co481 2.061 . S
O482 C485 1.235 . S
C483 O486 1.238 . S
C483 O487 1.241 . S
C484 O477 1.247 . S
C484 O478 1.261 . S
C485 O480 1.259 . S
C485 O482 1.235 . S
O486 Co476 2.021 . S
O486 C483 1.238 . S
O487 Co481 2.052 . S
O487 C483 1.241 . S
O488 Co476 2.137 . S
O488 C479 1.247 . S
O489 Co476 2.244 . S
O489 C479 1.272 . S
O489 Co481 2.135 . S
Co490 O491 2.216 . S
Co490 O492 2.091 . S
Co490 O494 2.004 . S
Co490 O500 2.021 . S
Co490 O502 2.137 . S
Co490 O503 2.244 . S
O491 Co490 2.216 . S
O491 C498 1.247 . S
O492 Co490 2.091 . S
O492 C498 1.261 . S
C493 O502 1.247 . S
C493 O503 1.272 . S
O494 Co490 2.004 . S
O494 C499 1.259 1_655 S
Co495 O496 2.061 . S
Co495 O501 2.052 . S
Co495 O503 2.135 1_455 S
O496 Co495 2.061 . S
O496 C499 1.235 . S
C497 O500 1.238 . S
C497 O501 1.241 1_655 S
C498 O491 1.247 . S
C498 O492 1.261 . S
C499 O494 1.259 1_455 S
C499 O496 1.235 . S
O500 Co490 2.021 . S
O500 C497 1.238 . S
O501 Co495 2.052 . S
O501 C497 1.241 1_455 S
O502 Co490 2.137 . S
O502 C493 1.247 . S
O503 Co490 2.244 . S
O503 C493 1.272 . S
O503 Co495 2.135 1_655 S
Co504 O505 2.216 . S
Co504 O506 2.091 . S
Co504 O508 2.004 . S
Co504 O514 2.021 . S
Co504 O516 2.137 . S
Co504 O517 2.244 . S
O505 Co504 2.216 . S
O505 C512 1.247 . S
O506 Co504 2.091 . S
O506 C512 1.261 . S
C507 O516 1.247 . S
C507 O517 1.272 . S
O508 Co504 2.004 . S
O508 C513 1.259 . S
Co509 O510 2.061 . S
Co509 O515 2.052 . S
Co509 O517 2.135 . S
O510 Co509 2.061 . S
O510 C513 1.235 . S
C511 O514 1.238 . S
C511 O515 1.241 . S
C512 O505 1.247 . S
C512 O506 1.261 . S
C513 O508 1.259 . S
C513 O510 1.235 . S
O514 Co504 2.021 . S
O514 C511 1.238 . S
O515 Co509 2.052 . S
O515 C511 1.241 . S
O516 Co504 2.137 . S
O516 C507 1.247 . S
O517 Co504 2.244 . S
O517 C507 1.272 . S
O517 Co509 2.135 . S
Co518 O519 2.216 . S
Co518 O520 2.091 . S
Co518 O522 2.004 . S
Co518 O528 2.021 . S
Co518 O530 2.137 . S
Co518 O531 2.244 . S
O519 Co518 2.216 . S
O519 C526 1.247 . S
O520 Co518 2.091 . S
O520 C526 1.261 . S
C521 O530 1.247 . S
C521 O531 1.272 . S
O522 Co518 2.004 . S
O522 C527 1.259 1_655 S
Co523 O524 2.061 1_556 S
Co523 O529 2.052 1_556 S
Co523 O531 2.135 1_456 S
O524 Co523 2.061 1_554 S
O524 C527 1.235 . S
C525 O528 1.238 . S
C525 O529 1.241 1_655 S
C526 O519 1.247 . S
C526 O520 1.261 . S
C527 O522 1.259 1_455 S
C527 O524 1.235 . S
O528 Co518 2.021 . S
O528 C525 1.238 . S
O529 Co523 2.052 1_554 S
O529 C525 1.241 1_455 S
O530 Co518 2.137 . S
O530 C521 1.247 . S
O531 Co518 2.244 . S
O531 C521 1.272 . S
O531 Co523 2.135 1_654 S
Co532 O533 2.216 . S
Co532 O534 2.091 . S
Co532 O536 2.004 . S
Co532 O542 2.021 . S
Co532 O544 2.137 . S
Co532 O545 2.244 . S
O533 Co532 2.216 . S
O533 C540 1.247 . S
O534 Co532 2.091 . S
O534 C540 1.261 . S
C535 O544 1.247 . S
C535 O545 1.272 . S
O536 Co532 2.004 . S
O536 C541 1.259 . S
Co537 O538 2.061 . S
Co537 O543 2.052 . S
Co537 O545 2.135 . S
O538 Co537 2.061 . S
O538 C541 1.235 . S
C539 O542 1.238 . S
C539 O543 1.241 . S
C540 O533 1.247 . S
C540 O534 1.261 . S
C541 O536 1.259 . S
C541 O538 1.235 . S
O542 Co532 2.021 . S
O542 C539 1.238 . S
O543 Co537 2.052 . S
O543 C539 1.241 . S
O544 Co532 2.137 . S
O544 C535 1.247 . S
O545 Co532 2.244 . S
O545 C535 1.272 . S
O545 Co537 2.135 . S
Co546 O547 2.216 . S
Co546 O548 2.091 . S
Co546 O550 2.004 . S
Co546 O556 2.021 . S
Co546 O558 2.137 . S
Co546 O559 2.244 . S
O547 Co546 2.216 . S
O547 C554 1.247 . S
O548 Co546 2.091 . S
O548 C554 1.261 . S
C549 O558 1.247 . S
C549 O559 1.272 . S
O550 Co546 2.004 . S
O550 C555 1.259 . S
Co551 O552 2.061 . S
Co551 O557 2.052 . S
Co551 O559 2.135 . S
O552 Co551 2.061 . S
O552 C555 1.235 . S
C553 O556 1.238 . S
C553 O557 1.241 . S
C554 O547 1.247 . S
C554 O548 1.261 . S
C555 O550 1.259 . S
C555 O552 1.235 . S
O556 Co546 2.021 . S
O556 C553 1.238 . S
O557 Co551 2.052 . S
O557 C553 1.241 . S
O558 Co546 2.137 . S
O558 C549 1.247 . S
O559 Co546 2.244 . S
O559 C549 1.272 . S
O559 Co551 2.135 . S
Co560 O561 2.216 . S
Co560 O562 2.091 . S
Co560 O564 2.004 . S
Co560 O570 2.021 . S
Co560 O572 2.137 . S
Co560 O573 2.244 . S
O561 Co560 2.216 . S
O561 C568 1.247 . S
O562 Co560 2.091 . S
O562 C568 1.261 . S
C563 O572 1.247 . S
C563 O573 1.272 . S
O564 Co560 2.004 . S
O564 C569 1.259 . S
Co565 O566 2.061 . S
Co565 O571 2.052 . S
Co565 O573 2.135 . S
O566 Co565 2.061 . S
O566 C569 1.235 . S
C567 O570 1.238 . S
C567 O571 1.241 . S
C568 O561 1.247 . S
C568 O562 1.261 . S
C569 O564 1.259 . S
C569 O566 1.235 . S
O570 Co560 2.021 . S
O570 C567 1.238 . S
O571 Co565 2.052 . S
O571 C567 1.241 . S
O572 Co560 2.137 . S
O572 C563 1.247 . S
O573 Co560 2.244 . S
O573 C563 1.272 . S
O573 Co565 2.135 . S
Co574 O575 2.216 . S
Co574 O576 2.091 . S
Co574 O578 2.004 . S
Co574 O584 2.021 . S
Co574 O586 2.137 . S
Co574 O587 2.244 . S
O575 Co574 2.216 . S
O575 C582 1.247 . S
O576 Co574 2.091 . S
O576 C582 1.261 . S
C577 O586 1.247 . S
C577 O587 1.272 . S
O578 Co574 2.004 . S
O578 C583 1.259 . S
Co579 O580 2.061 . S
Co579 O585 2.052 . S
Co579 O587 2.135 . S
O580 Co579 2.061 . S
O580 C583 1.235 . S
C581 O584 1.238 . S
C581 O585 1.241 . S
C582 O575 1.247 . S
C582 O576 1.261 . S
C583 O578 1.259 . S
C583 O580 1.235 . S
O584 Co574 2.021 . S
O584 C581 1.238 . S
O585 Co579 2.052 . S
O585 C581 1.241 . S
O586 Co574 2.137 . S
O586 C577 1.247 . S
O587 Co574 2.244 . S
O587 C577 1.272 . S
O587 Co579 2.135 . S
Co588 O589 2.216 . S
Co588 O590 2.091 . S
Co588 O592 2.004 . S
Co588 O598 2.021 . S
Co588 O600 2.137 . S
Co588 O601 2.244 . S
O589 Co588 2.216 . S
O589 C596 1.247 . S
O590 Co588 2.091 . S
O590 C596 1.261 . S
C591 O600 1.247 . S
C591 O601 1.272 . S
O592 Co588 2.004 . S
O592 C597 1.259 . S
Co593 O594 2.061 1_545 S
Co593 O599 2.052 1_545 S
Co593 O601 2.135 1_545 S
O594 Co593 2.061 1_565 S
O594 C597 1.235 . S
C595 O598 1.238 . S
C595 O599 1.241 . S
C596 O589 1.247 . S
C596 O590 1.261 . S
C597 O592 1.259 . S
C597 O594 1.235 . S
O598 Co588 2.021 . S
O598 C595 1.238 . S
O599 Co593 2.052 1_565 S
O599 C595 1.241 . S
O600 Co588 2.137 . S
O600 C591 1.247 . S
O601 Co588 2.244 . S
O601 C591 1.272 . S
O601 Co593 2.135 1_565 S
Co602 O603 2.216 . S
Co602 O604 2.091 . S
Co602 O606 2.004 . S
Co602 O612 2.021 . S
Co602 O614 2.137 . S
Co602 O615 2.244 . S
O603 Co602 2.216 . S
O603 C610 1.247 . S
O604 Co602 2.091 . S
O604 C610 1.261 . S
C605 O614 1.247 . S
C605 O615 1.272 . S
O606 Co602 2.004 . S
O606 C611 1.259 . S
Co607 O608 2.061 . S
Co607 O613 2.052 . S
Co607 O615 2.135 . S
O608 Co607 2.061 . S
O608 C611 1.235 . S
C609 O612 1.238 . S
C609 O613 1.241 . S
C610 O603 1.247 . S
C610 O604 1.261 . S
C611 O606 1.259 . S
C611 O608 1.235 . S
O612 Co602 2.021 . S
O612 C609 1.238 . S
O613 Co607 2.052 . S
O613 C609 1.241 . S
O614 Co602 2.137 . S
O614 C605 1.247 . S
O615 Co602 2.244 . S
O615 C605 1.272 . S
O615 Co607 2.135 . S
Co616 O617 2.216 . S
Co616 O618 2.091 . S
Co616 O620 2.004 . S
Co616 O626 2.021 . S
Co616 O628 2.137 . S
Co616 O629 2.244 . S
O617 Co616 2.216 . S
O617 C624 1.247 . S
O618 Co616 2.091 . S
O618 C624 1.261 . S
C619 O628 1.247 . S
C619 O629 1.272 . S
O620 Co616 2.004 . S
O620 C625 1.259 . S
Co621 O622 2.061 . S
Co621 O627 2.052 . S
Co621 O629 2.135 . S
O622 Co621 2.061 . S
O622 C625 1.235 . S
C623 O626 1.238 . S
C623 O627 1.241 . S
C624 O617 1.247 . S
C624 O618 1.261 . S
C625 O620 1.259 . S
C625 O622 1.235 . S
O626 Co616 2.021 . S
O626 C623 1.238 . S
O627 Co621 2.052 . S
O627 C623 1.241 . S
O628 Co616 2.137 . S
O628 C619 1.247 . S
O629 Co616 2.244 . S
O629 C619 1.272 . S
O629 Co621 2.135 . S
Co630 O631 2.216 . S
Co630 O632 2.091 . S
Co630 O634 2.004 . S
Co630 O640 2.021 . S
Co630 O642 2.137 . S
Co630 O643 2.244 . S
O631 Co630 2.216 . S
O631 C638 1.247 . S
O632 Co630 2.091 . S
O632 C638 1.261 . S
C633 O642 1.247 . S
C633 O643 1.272 . S
O634 Co630 2.004 . S
O634 C639 1.259 . S
Co635 O636 2.061 . S
Co635 O641 2.052 . S
Co635 O643 2.135 . S
O636 Co635 2.061 . S
O636 C639 1.235 . S
C637 O640 1.238 . S
C637 O641 1.241 . S
C638 O631 1.247 . S
C638 O632 1.261 . S
C639 O634 1.259 . S
C639 O636 1.235 . S
O640 Co630 2.021 . S
O640 C637 1.238 . S
O641 Co635 2.052 . S
O641 C637 1.241 . S
O642 Co630 2.137 . S
O642 C633 1.247 . S
O643 Co630 2.244 . S
O643 C633 1.272 . S
O643 Co635 2.135 . S
Co644 O645 2.216 . S
Co644 O646 2.091 . S
Co644 O648 2.004 . S
Co644 O654 2.021 . S
Co644 O656 2.137 . S
Co644 O657 2.244 . S
O645 Co644 2.216 . S
O645 C652 1.247 . S
O646 Co644 2.091 . S
O646 C652 1.261 . S
C647 O656 1.247 . S
C647 O657 1.272 . S
O648 Co644 2.004 . S
O648 C653 1.259 1_556 S
Co649 O650 2.061 1_565 S
Co649 O655 2.052 1_565 S
Co649 O657 2.135 1_564 S
O650 Co649 2.061 1_545 S
O650 C653 1.235 . S
C651 O654 1.238 . S
C651 O655 1.241 1_556 S
C652 O645 1.247 . S
C652 O646 1.261 . S
C653 O648 1.259 1_554 S
C653 O650 1.235 . S
O654 Co644 2.021 . S
O654 C651 1.238 . S
O655 Co649 2.052 1_545 S
O655 C651 1.241 1_554 S
O656 Co644 2.137 . S
O656 C647 1.247 . S
O657 Co644 2.244 . S
O657 C647 1.272 . S
O657 Co649 2.135 1_546 S
Co658 O659 2.216 . S
Co658 O660 2.091 . S
Co658 O662 2.004 . S
Co658 O668 2.021 . S
Co658 O670 2.137 . S
Co658 O671 2.244 . S
O659 Co658 2.216 . S
O659 C666 1.247 . S
O660 Co658 2.091 . S
O660 C666 1.261 . S
C661 O670 1.247 . S
C661 O671 1.272 . S
O662 Co658 2.004 . S
O662 C667 1.259 . S
Co663 O664 2.061 1_545 S
Co663 O669 2.052 1_545 S
Co663 O671 2.135 1_545 S
O664 Co663 2.061 1_565 S
O664 C667 1.235 . S
C665 O668 1.238 . S
C665 O669 1.241 . S
C666 O659 1.247 . S
C666 O660 1.261 . S
C667 O662 1.259 . S
C667 O664 1.235 . S
O668 Co658 2.021 . S
O668 C665 1.238 . S
O669 Co663 2.052 1_565 S
O669 C665 1.241 . S
O670 Co658 2.137 . S
O670 C661 1.247 . S
O671 Co658 2.244 . S
O671 C661 1.272 . S
O671 Co663 2.135 1_565 S
H672 C680 0.950 . S
H673 C685 0.950 . S
H674 C682 0.950 . S
H675 C684 0.950 . S
H676 C686 0.950 . S
H677 C688 0.950 . S
H678 C690 0.950 . S
H679 C691 0.950 . S
C680 H672 0.950 . S
C680 C681 1.386 . S
C680 C682 1.391 . S
C681 C680 1.386 . S
C681 C685 1.393 . S
C682 H674 0.950 . S
C682 C680 1.391 . S
C682 C683 1.400 . S
C683 C682 1.400 . S
C683 C684 1.398 . S
C683 C689 1.491 . S
C684 H675 0.950 . S
C684 C683 1.398 . S
C684 C685 1.391 . S
C685 H673 0.950 . S
C685 C681 1.393 . S
C685 C684 1.391 . S
C686 H676 0.950 . S
C686 C687 1.386 . S
C686 C688 1.391 . S
C687 C686 1.386 . S
C687 C691 1.393 . S
C688 H677 0.950 . S
C688 C686 1.391 . S
C688 C689 1.400 . S
C689 C683 1.491 . S
C689 C688 1.400 . S
C689 C690 1.398 . S
C690 H678 0.950 . S
C690 C689 1.398 . S
C690 C691 1.391 . S
C691 H679 0.950 . S
C691 C687 1.393 . S
C691 C690 1.391 . S
H692 C700 0.982 . S
H693 C705 0.950 . S
H694 C702 0.975 . S
H695 C704 0.950 . S
H696 C706 0.950 . S
H697 C708 0.950 . S
H698 C710 0.975 . S
H699 C711 0.966 . S
C700 H692 0.982 . S
C700 C701 1.386 . S
C700 C702 1.391 . S
C701 C700 1.386 . S
C701 C705 1.393 . S
C702 H694 0.975 . S
C702 C700 1.391 . S
C702 C703 1.400 . S
C703 C702 1.400 . S
C703 C704 1.398 . S
C703 C709 1.491 1_565 S
C704 H695 0.950 . S
C704 C703 1.398 . S
C704 C705 1.391 . S
C705 H693 0.950 . S
C705 C701 1.393 . S
C705 C704 1.391 . S
C706 H696 0.950 . S
C706 C707 1.386 . S
C706 C708 1.391 . S
C707 C706 1.386 . S
C707 C711 1.393 . S
C708 H697 0.950 . S
C708 C706 1.391 . S
C708 C709 1.400 . S
C709 C703 1.491 1_545 S
C709 C708 1.400 . S
C709 C710 1.398 . S
C710 H698 0.975 . S
C710 C709 1.398 . S
C710 C711 1.391 . S
C711 H699 0.966 . S
C711 C707 1.393 . S
C711 C710 1.391 . S
H712 C720 0.950 . S
H713 C725 0.950 . S
H714 C722 0.950 . S
H715 C724 0.950 . S
H716 C726 0.950 . S
H717 C728 0.950 . S
H718 C730 0.950 . S
H719 C731 0.950 . S
C720 H712 0.950 . S
C720 C721 1.386 . S
C720 C722 1.391 . S
C721 C720 1.386 . S
C721 C725 1.393 . S
C722 H714 0.950 . S
C722 C720 1.391 . S
C722 C723 1.400 . S
C723 C722 1.400 . S
C723 C724 1.398 . S
C723 C729 1.491 1_556 S
C724 H715 0.950 . S
C724 C723 1.398 . S
C724 C725 1.391 . S
C725 H713 0.950 . S
C725 C721 1.393 . S
C725 C724 1.391 . S
C726 H716 0.950 . S
C726 C727 1.386 . S
C726 C728 1.391 . S
C727 C726 1.386 . S
C727 C731 1.393 . S
C728 H717 0.950 . S
C728 C726 1.391 . S
C728 C729 1.400 . S
C729 C723 1.491 1_554 S
C729 C728 1.400 . S
C729 C730 1.398 . S
C730 H718 0.950 . S
C730 C729 1.398 . S
C730 C731 1.391 . S
C731 H719 0.950 . S
C731 C727 1.393 . S
C731 C730 1.391 . S
H732 C740 0.950 . S
H733 C745 0.950 . S
H734 C742 0.950 . S
H735 C744 0.950 . S
H736 C746 0.950 . S
H737 C748 0.950 . S
H738 C750 0.950 . S
H739 C751 0.950 . S
C740 H732 0.950 . S
C740 C741 1.386 . S
C740 C742 1.391 . S
C741 C740 1.386 . S
C741 C745 1.393 1_565 S
C742 H734 0.950 . S
C742 C740 1.391 . S
C742 C743 1.410 . S
C743 C742 1.410 . S
C743 C744 1.389 1_565 S
C743 C749 1.490 1_565 S
C744 H735 0.950 . S
C744 C743 1.389 1_545 S
C744 C745 1.391 . S
C745 H733 0.950 . S
C745 C741 1.393 1_545 S
C745 C744 1.391 . S
C746 H736 0.950 . S
C746 C747 1.386 . S
C746 C748 1.391 . S
C747 C746 1.386 . S
C747 C751 1.393 1_545 S
C748 H737 0.950 . S
C748 C746 1.391 . S
C748 C749 1.410 . S
C749 C743 1.490 1_545 S
C749 C748 1.410 . S
C749 C750 1.389 1_545 S
C750 H738 0.950 . S
C750 C749 1.389 1_565 S
C750 C751 1.391 . S
C751 H739 0.950 . S
C751 C747 1.393 1_565 S
C751 C750 1.391 . S
H752 C760 0.950 . S
H753 C765 0.950 . S
H754 C762 0.950 . S
H755 C764 0.950 . S
H756 C766 0.950 . S
H757 C768 0.950 . S
H758 C770 0.950 . S
H759 C771 0.950 . S
C760 H752 0.950 . S
C760 C761 1.386 . S
C760 C762 1.391 . S
C761 C760 1.386 . S
C761 C765 1.393 . S
C762 H754 0.950 . S
C762 C760 1.391 . S
C762 C763 1.400 . S
C763 C762 1.400 . S
C763 C764 1.398 . S
C763 C769 1.491 . S
C764 H755 0.950 . S
C764 C763 1.398 . S
C764 C765 1.391 . S
C765 H753 0.950 . S
C765 C761 1.393 . S
C765 C764 1.391 . S
C766 H756 0.950 . S
C766 C767 1.386 . S
C766 C768 1.391 . S
C767 C766 1.386 . S
C767 C771 1.393 . S
C768 H757 0.950 . S
C768 C766 1.391 . S
C768 C769 1.400 . S
C769 C763 1.491 . S
C769 C768 1.400 . S
C769 C770 1.398 . S
C770 H758 0.950 . S
C770 C769 1.398 . S
C770 C771 1.391 . S
C771 H759 0.950 . S
C771 C767 1.393 . S
C771 C770 1.391 . S
H772 C780 0.950 . S
H773 C785 0.950 . S
H774 C782 0.950 . S
H775 C784 0.950 . S
H776 C786 0.950 . S
H777 C788 0.950 . S
H778 C790 0.950 . S
H779 C791 0.950 . S
C780 H772 0.950 . S
C780 C781 1.386 . S
C780 C782 1.391 . S
C781 C780 1.386 . S
C781 C785 1.393 1_655 S
C782 H774 0.950 . S
C782 C780 1.391 . S
C782 C783 1.400 . S
C783 C782 1.400 . S
C783 C784 1.398 1_655 S
C783 C789 1.491 1_655 S
C784 H775 0.950 . S
C784 C783 1.398 1_455 S
C784 C785 1.391 . S
C785 H773 0.950 . S
C785 C781 1.393 1_455 S
C785 C784 1.391 . S
C786 H776 0.950 . S
C786 C787 1.386 . S
C786 C788 1.391 . S
C787 C786 1.386 . S
C787 C791 1.393 1_455 S
C788 H777 0.950 . S
C788 C786 1.391 . S
C788 C789 1.400 . S
C789 C783 1.491 1_455 S
C789 C788 1.400 . S
C789 C790 1.398 1_455 S
C790 H778 0.950 . S
C790 C789 1.398 1_655 S
C790 C791 1.391 . S
C791 H779 0.950 . S
C791 C787 1.393 1_655 S
C791 C790 1.391 . S
H792 C800 0.950 . S
H793 C805 0.950 . S
H794 C802 0.950 . S
H795 C804 0.950 . S
H796 C806 0.950 . S
H797 C808 0.950 . S
H798 C810 0.950 . S
H799 C811 0.950 . S
C800 H792 0.950 . S
C800 C801 1.386 . S
C800 C802 1.391 . S
C801 C800 1.386 . S
C801 C805 1.393 . S
C802 H794 0.950 . S
C802 C800 1.391 . S
C802 C803 1.400 . S
C803 C802 1.400 . S
C803 C804 1.398 . S
C803 C809 1.491 1_455 S
C804 H795 0.950 . S
C804 C803 1.398 . S
C804 C805 1.391 . S
C805 H793 0.950 . S
C805 C801 1.393 . S
C805 C804 1.391 . S
C806 H796 0.950 . S
C806 C807 1.386 . S
C806 C808 1.391 . S
C807 C806 1.386 . S
C807 C811 1.393 . S
C808 H797 0.950 . S
C808 C806 1.391 . S
C808 C809 1.400 . S
C809 C803 1.491 1_655 S
C809 C808 1.400 . S
C809 C810 1.398 . S
C810 H798 0.950 . S
C810 C809 1.398 . S
C810 C811 1.391 . S
C811 H799 0.950 . S
C811 C807 1.393 . S
C811 C810 1.391 . S
H812 C820 0.950 . S
H813 C825 0.950 . S
H814 C822 0.950 . S
H815 C824 0.950 . S
H816 C826 0.950 . S
H817 C828 0.950 . S
H818 C830 0.950 . S
H819 C831 0.950 . S
C820 H812 0.950 . S
C820 C821 1.386 . S
C820 C822 1.391 . S
C821 C820 1.386 . S
C821 C825 1.393 . S
C822 H814 0.950 . S
C822 C820 1.391 . S
C822 C823 1.400 . S
C823 C822 1.400 . S
C823 C824 1.398 . S
C823 C829 1.491 . S
C824 H815 0.950 . S
C824 C823 1.398 . S
C824 C825 1.391 . S
C825 H813 0.950 . S
C825 C821 1.393 . S
C825 C824 1.391 . S
C826 H816 0.950 . S
C826 C827 1.386 . S
C826 C828 1.391 . S
C827 C826 1.386 . S
C827 C831 1.393 . S
C828 H817 0.950 . S
C828 C826 1.391 . S
C828 C829 1.400 . S
C829 C823 1.491 . S
C829 C828 1.400 . S
C829 C830 1.398 . S
C830 H818 0.950 . S
C830 C829 1.398 . S
C830 C831 1.391 . S
C831 H819 0.950 . S
C831 C827 1.393 . S
C831 C830 1.391 . S
H832 C840 0.950 . S
H833 C845 0.950 . S
H834 C842 0.950 . S
H835 C844 0.950 . S
H836 C846 0.950 . S
H837 C848 0.950 . S
H838 C850 0.950 . S
H839 C851 0.950 . S
C840 H832 0.950 . S
C840 C841 1.386 . S
C840 C842 1.391 . S
C841 C840 1.386 . S
C841 C845 1.393 . S
C842 H834 0.950 . S
C842 C840 1.391 . S
C842 C843 1.400 . S
C843 C842 1.400 . S
C843 C844 1.398 . S
C843 C849 1.491 . S
C844 H835 0.950 . S
C844 C843 1.398 . S
C844 C845 1.391 . S
C845 H833 0.950 . S
C845 C841 1.393 . S
C845 C844 1.391 . S
C846 H836 0.950 . S
C846 C847 1.386 . S
C846 C848 1.391 . S
C847 C846 1.386 . S
C847 C851 1.393 . S
C848 H837 0.950 . S
C848 C846 1.391 . S
C848 C849 1.400 . S
C849 C843 1.491 . S
C849 C848 1.400 . S
C849 C850 1.398 . S
C850 H838 0.950 . S
C850 C849 1.398 . S
C850 C851 1.391 . S
C851 H839 0.950 . S
C851 C847 1.393 . S
C851 C850 1.391 . S
H852 C860 0.950 . S
H853 C865 0.950 . S
H854 C862 0.950 . S
H855 C864 0.950 . S
H856 C866 0.950 . S
H857 C868 0.950 . S
H858 C870 0.950 . S
H859 C871 0.950 . S
C860 H852 0.950 . S
C860 C861 1.386 . S
C860 C862 1.391 . S
C861 C860 1.386 . S
C861 C865 1.393 . S
C862 H854 0.950 . S
C862 C860 1.391 . S
C862 C863 1.400 . S
C863 C862 1.400 . S
C863 C864 1.398 . S
C863 C869 1.491 . S
C864 H855 0.950 . S
C864 C863 1.398 . S
C864 C865 1.391 . S
C865 H853 0.950 . S
C865 C861 1.393 . S
C865 C864 1.391 . S
C866 H856 0.950 . S
C866 C867 1.386 . S
C866 C868 1.391 . S
C867 C866 1.386 . S
C867 C871 1.393 . S
C868 H857 0.950 . S
C868 C866 1.391 . S
C868 C869 1.400 . S
C869 C863 1.491 . S
C869 C868 1.400 . S
C869 C870 1.398 . S
C870 H858 0.950 . S
C870 C869 1.398 . S
C870 C871 1.391 . S
C871 H859 0.950 . S
C871 C867 1.393 . S
C871 C870 1.391 . S
H872 C880 0.950 . S
H873 C885 0.950 . S
H874 C882 0.950 . S
H875 C884 0.950 . S
H876 C886 0.950 . S
H877 C888 0.950 . S
H878 C890 0.950 . S
H879 C891 0.950 . S
C880 H872 0.950 . S
C880 C881 1.386 . S
C880 C882 1.391 . S
C881 C880 1.386 . S
C881 C885 1.393 . S
C882 H874 0.950 . S
C882 C880 1.391 . S
C882 C883 1.400 . S
C883 C882 1.400 . S
C883 C884 1.398 . S
C883 C889 1.491 1_655 S
C884 H875 0.950 . S
C884 C883 1.398 . S
C884 C885 1.391 . S
C885 H873 0.950 . S
C885 C881 1.393 . S
C885 C884 1.391 . S
C886 H876 0.950 . S
C886 C887 1.386 . S
C886 C888 1.391 . S
C887 C886 1.386 . S
C887 C891 1.393 . S
C888 H877 0.950 . S
C888 C886 1.391 . S
C888 C889 1.400 . S
C889 C883 1.491 1_455 S
C889 C888 1.400 . S
C889 C890 1.398 . S
C890 H878 0.950 . S
C890 C889 1.398 . S
C890 C891 1.391 . S
C891 H879 0.950 . S
C891 C887 1.393 . S
C891 C890 1.391 . S
H892 C900 0.950 . S
H893 C905 0.950 . S
H894 C902 0.950 . S
H895 C904 0.950 . S
H896 C906 0.950 . S
H897 C908 0.950 . S
H898 C910 0.950 . S
H899 C911 0.950 . S
C900 H892 0.950 . S
C900 C901 1.386 . S
C900 C902 1.391 . S
C901 C900 1.386 . S
C901 C905 1.393 1_655 S
C902 H894 0.950 . S
C902 C900 1.391 . S
C902 C903 1.400 . S
C903 C902 1.400 . S
C903 C904 1.398 1_655 S
C903 C909 1.491 1_655 S
C904 H895 0.950 . S
C904 C903 1.398 1_455 S
C904 C905 1.391 . S
C905 H893 0.950 . S
C905 C901 1.393 1_455 S
C905 C904 1.391 . S
C906 H896 0.950 . S
C906 C907 1.386 . S
C906 C908 1.391 . S
C907 C906 1.386 . S
C907 C911 1.393 1_455 S
C908 H897 0.950 . S
C908 C906 1.391 . S
C908 C909 1.400 . S
C909 C903 1.491 1_455 S
C909 C908 1.400 . S
C909 C910 1.398 1_455 S
C910 H898 0.950 . S
C910 C909 1.398 1_655 S
C910 C911 1.391 . S
C911 H899 0.950 . S
C911 C907 1.393 1_655 S
C911 C910 1.391 . S
H912 C920 0.950 . S
H913 C925 0.950 . S
H914 C922 0.950 . S
H915 C924 0.950 . S
H916 C926 0.950 . S
H917 C928 0.950 . S
H918 C930 0.950 . S
H919 C931 0.950 . S
C920 H912 0.950 . S
C920 C921 1.386 . S
C920 C922 1.391 . S
C921 C920 1.386 . S
C921 C925 1.393 . S
C922 H914 0.950 . S
C922 C920 1.391 . S
C922 C923 1.400 . S
C923 C922 1.400 . S
C923 C924 1.398 . S
C923 C929 1.491 . S
C924 H915 0.950 . S
C924 C923 1.398 . S
C924 C925 1.391 . S
C925 H913 0.950 . S
C925 C921 1.393 . S
C925 C924 1.391 . S
C926 H916 0.950 . S
C926 C927 1.386 . S
C926 C928 1.391 . S
C927 C926 1.386 . S
C927 C931 1.393 . S
C928 H917 0.950 . S
C928 C926 1.391 . S
C928 C929 1.400 . S
C929 C923 1.491 . S
C929 C928 1.400 . S
C929 C930 1.398 . S
C930 H918 0.950 . S
C930 C929 1.398 . S
C930 C931 1.391 . S
C931 H919 0.950 . S
C931 C927 1.393 . S
C931 C930 1.391 . S
H932 C940 0.950 . S
H933 C945 0.950 . S
H934 C942 0.950 . S
H935 C944 0.950 . S
H936 C946 0.950 . S
H937 C948 0.950 . S
H938 C950 0.950 . S
H939 C951 0.950 . S
C940 H932 0.950 . S
C940 C941 1.386 . S
C940 C942 1.391 . S
C941 C940 1.386 . S
C941 C945 1.393 . S
C942 H934 0.950 . S
C942 C940 1.391 . S
C942 C943 1.400 . S
C943 C942 1.400 . S
C943 C944 1.398 . S
C943 C949 1.491 1_545 S
C944 H935 0.950 . S
C944 C943 1.398 . S
C944 C945 1.391 . S
C945 H933 0.950 . S
C945 C941 1.393 . S
C945 C944 1.391 . S
C946 H936 0.950 . S
C946 C947 1.386 . S
C946 C948 1.391 . S
C947 C946 1.386 . S
C947 C951 1.393 . S
C948 H937 0.950 . S
C948 C946 1.391 . S
C948 C949 1.400 . S
C949 C943 1.491 1_565 S
C949 C948 1.400 . S
C949 C950 1.398 . S
C950 H938 0.950 . S
C950 C949 1.398 . S
C950 C951 1.391 . S
C951 H939 0.950 . S
C951 C947 1.393 . S
C951 C950 1.391 . S
H952 C960 0.950 . S
H953 C965 0.950 . S
H954 C962 0.950 . S
H955 C964 0.950 . S
H956 C966 0.950 . S
H957 C968 0.950 . S
H958 C970 0.950 . S
H959 C971 0.950 . S
C960 H952 0.950 . S
C960 C961 1.386 1_556 S
C960 C962 1.391 . S
C961 C960 1.386 1_554 S
C961 C965 1.393 . S
C962 H954 0.950 . S
C962 C960 1.391 . S
C962 C963 1.400 1_556 S
C963 C962 1.400 1_554 S
C963 C964 1.398 . S
C963 C969 1.491 1_554 S
C964 H955 0.950 . S
C964 C963 1.398 . S
C964 C965 1.391 . S
C965 H953 0.950 . S
C965 C961 1.393 . S
C965 C964 1.391 . S
C966 H956 0.950 . S
C966 C967 1.386 1_554 S
C966 C968 1.391 . S
C967 C966 1.386 1_556 S
C967 C971 1.393 . S
C968 H957 0.950 . S
C968 C966 1.391 . S
C968 C969 1.400 1_554 S
C969 C963 1.491 1_556 S
C969 C968 1.400 1_556 S
C969 C970 1.398 . S
C970 H958 0.950 . S
C970 C969 1.398 . S
C970 C971 1.391 . S
C971 H959 0.950 . S
C971 C967 1.393 . S
C971 C970 1.391 . S
H972 C980 0.950 . S
H973 C985 0.950 . S
H974 C982 0.950 . S
H975 C984 0.950 . S
H976 C986 0.950 . S
H977 C988 0.950 . S
H978 C990 0.950 . S
H979 C991 0.950 . S
C980 H972 0.950 . S
C980 C981 1.386 . S
C980 C982 1.391 . S
C981 C980 1.386 . S
C981 C985 1.393 . S
C982 H974 0.950 . S
C982 C980 1.391 . S
C982 C983 1.400 . S
C983 C982 1.400 . S
C983 C984 1.398 . S
C983 C989 1.491 1_545 S
C984 H975 0.950 . S
C984 C983 1.398 . S
C984 C985 1.391 . S
C985 H973 0.950 . S
C985 C981 1.393 . S
C985 C984 1.391 . S
C986 H976 0.950 . S
C986 C987 1.386 . S
C986 C988 1.391 . S
C987 C986 1.386 . S
C987 C991 1.393 . S
C988 H977 0.950 . S
C988 C986 1.391 . S
C988 C989 1.400 . S
C989 C983 1.491 1_565 S
C989 C988 1.400 . S
C989 C990 1.398 . S
C990 H978 0.950 . S
C990 C989 1.398 . S
C990 C991 1.391 . S
C991 H979 0.950 . S
C991 C987 1.393 . S
C991 C990 1.391 . S
H992 C1000 0.950 . S
H993 C1005 0.965 . S
H994 C1002 0.948 1_554 S
H995 C1004 0.973 . S
H996 C1006 0.985 . S
H997 C1008 0.976 1_556 S
H998 C1010 0.951 . S
H999 C1011 0.950 . S
C1000 H992 0.950 . S
C1000 C1001 1.386 . S
C1000 C1002 1.393 . S
C1001 C1000 1.386 . S
C1001 C1005 1.393 . S
C1002 H994 0.948 1_556 S
C1002 C1000 1.393 . S
C1002 C1003 1.400 . S
C1003 C1002 1.400 . S
C1003 C1004 1.399 . S
C1003 C1009 1.490 1_556 S
C1004 H995 0.973 . S
C1004 C1003 1.399 . S
C1004 C1005 1.391 . S
C1005 H993 0.965 . S
C1005 C1001 1.393 . S
C1005 C1004 1.391 . S
C1006 H996 0.985 . S
C1006 C1007 1.386 . S
C1006 C1008 1.393 . S
C1007 C1006 1.386 . S
C1007 C1011 1.393 . S
C1008 H997 0.976 1_554 S
C1008 C1006 1.393 . S
C1008 C1009 1.400 . S
C1009 C1003 1.490 1_554 S
C1009 C1008 1.400 . S
C1009 C1010 1.399 . S
C1010 H998 0.951 . S
C1010 C1009 1.399 . S
C1010 C1011 1.391 . S
C1011 H999 0.950 . S
C1011 C1007 1.393 . S
C1011 C1010 1.391 . S
H1012 C1020 0.950 . S
H1013 C1025 0.950 . S
H1014 C1022 0.950 . S
H1015 C1024 0.950 . S
H1016 C1026 0.950 . S
H1017 C1028 0.950 . S
H1018 C1030 0.950 . S
H1019 C1031 0.950 . S
C1020 H1012 0.950 . S
C1020 C1021 1.386 . S
C1020 C1022 1.391 . S
C1021 C1020 1.386 . S
C1021 C1025 1.393 . S
C1022 H1014 0.950 . S
C1022 C1020 1.391 . S
C1022 C1023 1.400 . S
C1023 C1022 1.400 . S
C1023 C1024 1.398 . S
C1023 C1029 1.491 . S
C1024 H1015 0.950 . S
C1024 C1023 1.398 . S
C1024 C1025 1.391 . S
C1025 H1013 0.950 . S
C1025 C1021 1.393 . S
C1025 C1024 1.391 . S
C1026 H1016 0.950 . S
C1026 C1027 1.386 . S
C1026 C1028 1.391 . S
C1027 C1026 1.386 . S
C1027 C1031 1.393 . S
C1028 H1017 0.950 . S
C1028 C1026 1.391 . S
C1028 C1029 1.400 . S
C1029 C1023 1.491 . S
C1029 C1028 1.400 . S
C1029 C1030 1.398 . S
C1030 H1018 0.950 . S
C1030 C1029 1.398 . S
C1030 C1031 1.391 . S
C1031 H1019 0.950 . S
C1031 C1027 1.393 . S
C1031 C1030 1.391 . S
H1032 C1040 0.950 . S
H1033 C1045 0.950 . S
H1034 C1042 0.950 . S
H1035 C1044 0.950 . S
H1036 C1046 0.950 . S
H1037 C1048 0.950 . S
H1038 C1050 0.950 . S
H1039 C1051 0.950 . S
C1040 H1032 0.950 . S
C1040 C1041 1.386 . S
C1040 C1042 1.391 . S
C1041 C1040 1.386 . S
C1041 C1045 1.393 . S
C1042 H1034 0.950 . S
C1042 C1040 1.391 . S
C1042 C1043 1.400 . S
C1043 C1042 1.400 . S
C1043 C1044 1.398 . S
C1043 C1049 1.491 . S
C1044 H1035 0.950 . S
C1044 C1043 1.398 . S
C1044 C1045 1.391 . S
C1045 H1033 0.950 . S
C1045 C1041 1.393 . S
C1045 C1044 1.391 . S
C1046 H1036 0.950 . S
C1046 C1047 1.386 . S
C1046 C1048 1.391 . S
C1047 C1046 1.386 . S
C1047 C1051 1.393 . S
C1048 H1037 0.950 . S
C1048 C1046 1.391 . S
C1048 C1049 1.400 . S
C1049 C1043 1.491 . S
C1049 C1048 1.400 . S
C1049 C1050 1.398 . S
C1050 H1038 0.950 . S
C1050 C1049 1.398 . S
C1050 C1051 1.391 . S
C1051 H1039 0.950 . S
C1051 C1047 1.393 . S
C1051 C1050 1.391 . S
H1052 C1060 0.950 . S
H1053 C1065 0.950 . S
H1054 C1062 0.950 . S
H1055 C1064 0.950 . S
H1056 C1066 0.950 . S
H1057 C1068 0.950 . S
H1058 C1070 0.950 . S
H1059 C1071 0.950 . S
C1060 H1052 0.950 . S
C1060 C1061 1.386 . S
C1060 C1062 1.391 . S
C1061 C1060 1.386 . S
C1061 C1065 1.393 . S
C1062 H1054 0.950 . S
C1062 C1060 1.391 . S
C1062 C1063 1.400 . S
C1063 C1062 1.400 . S
C1063 C1064 1.398 . S
C1063 C1069 1.491 1_554 S
C1064 H1055 0.950 . S
C1064 C1063 1.398 . S
C1064 C1065 1.391 . S
C1065 H1053 0.950 . S
C1065 C1061 1.393 . S
C1065 C1064 1.391 . S
C1066 H1056 0.950 . S
C1066 C1067 1.386 . S
C1066 C1068 1.391 . S
C1067 C1066 1.386 . S
C1067 C1071 1.393 . S
C1068 H1057 0.950 . S
C1068 C1066 1.391 . S
C1068 C1069 1.400 . S
C1069 C1063 1.491 1_556 S
C1069 C1068 1.400 . S
C1069 C1070 1.398 . S
C1070 H1058 0.950 . S
C1070 C1069 1.398 . S
C1070 C1071 1.391 . S
C1071 H1059 0.950 . S
C1071 C1067 1.393 . S
C1071 C1070 1.391 . S
H1072 C1080 0.950 . S
H1073 C1085 0.950 . S
H1074 C1082 0.950 . S
H1075 C1084 0.950 . S
H1076 C1086 0.950 . S
H1077 C1088 0.950 . S
H1078 C1090 0.950 . S
H1079 C1091 0.950 . S
C1080 H1072 0.950 . S
C1080 C1081 1.386 . S
C1080 C1082 1.391 . S
C1081 C1080 1.386 . S
C1081 C1085 1.393 . S
C1082 H1074 0.950 . S
C1082 C1080 1.391 . S
C1082 C1083 1.400 . S
C1083 C1082 1.400 . S
C1083 C1084 1.398 . S
C1083 C1089 1.491 . S
C1084 H1075 0.950 . S
C1084 C1083 1.398 . S
C1084 C1085 1.391 . S
C1085 H1073 0.950 . S
C1085 C1081 1.393 . S
C1085 C1084 1.391 . S
C1086 H1076 0.950 . S
C1086 C1087 1.386 . S
C1086 C1088 1.391 . S
C1087 C1086 1.386 . S
C1087 C1091 1.393 . S
C1088 H1077 0.950 . S
C1088 C1086 1.391 . S
C1088 C1089 1.400 . S
C1089 C1083 1.491 . S
C1089 C1088 1.400 . S
C1089 C1090 1.398 . S
C1090 H1078 0.950 . S
C1090 C1089 1.398 . S
C1090 C1091 1.391 . S
C1091 H1079 0.950 . S
C1091 C1087 1.393 . S
C1091 C1090 1.391 . S
H1092 C1100 0.950 . S
H1093 C1105 0.950 . S
H1094 C1102 0.950 . S
H1095 C1104 0.950 . S
H1096 C1106 0.950 . S
H1097 C1108 0.950 . S
H1098 C1110 0.950 . S
H1099 C1111 0.950 . S
C1100 H1092 0.950 . S
C1100 C1101 1.386 . S
C1100 C1102 1.391 . S
C1101 C1100 1.386 . S
C1101 C1105 1.393 . S
C1102 H1094 0.950 . S
C1102 C1100 1.391 . S
C1102 C1103 1.400 . S
C1103 C1102 1.400 . S
C1103 C1104 1.398 . S
C1103 C1109 1.491 . S
C1104 H1095 0.950 . S
C1104 C1103 1.398 . S
C1104 C1105 1.391 . S
C1105 H1093 0.950 . S
C1105 C1101 1.393 . S
C1105 C1104 1.391 . S
C1106 H1096 0.950 . S
C1106 C1107 1.386 . S
C1106 C1108 1.391 . S
C1107 C1106 1.386 . S
C1107 C1111 1.393 . S
C1108 H1097 0.950 . S
C1108 C1106 1.391 . S
C1108 C1109 1.400 . S
C1109 C1103 1.491 . S
C1109 C1108 1.400 . S
C1109 C1110 1.398 . S
C1110 H1098 0.950 . S
C1110 C1109 1.398 . S
C1110 C1111 1.391 . S
C1111 H1099 0.950 . S
C1111 C1107 1.393 . S
C1111 C1110 1.391 . S
H1112 C1120 0.950 . S
H1113 C1125 0.950 . S
H1114 C1122 0.950 . S
H1115 C1124 0.950 . S
H1116 C1126 0.950 . S
H1117 C1128 0.950 . S
H1118 C1130 0.950 . S
H1119 C1131 0.950 . S
C1120 H1112 0.950 . S
C1120 C1121 1.386 . S
C1120 C1122 1.391 . S
C1121 C1120 1.386 . S
C1121 C1125 1.393 . S
C1122 H1114 0.950 . S
C1122 C1120 1.391 . S
C1122 C1123 1.400 . S
C1123 C1122 1.400 . S
C1123 C1124 1.398 . S
C1123 C1129 1.491 . S
C1124 H1115 0.950 . S
C1124 C1123 1.398 . S
C1124 C1125 1.391 . S
C1125 H1113 0.950 . S
C1125 C1121 1.393 . S
C1125 C1124 1.391 . S
C1126 H1116 0.950 . S
C1126 C1127 1.386 . S
C1126 C1128 1.391 . S
C1127 C1126 1.386 . S
C1127 C1131 1.393 . S
C1128 H1117 0.950 . S
C1128 C1126 1.391 . S
C1128 C1129 1.400 . S
C1129 C1123 1.491 . S
C1129 C1128 1.400 . S
C1129 C1130 1.398 . S
C1130 H1118 0.950 . S
C1130 C1129 1.398 . S
C1130 C1131 1.391 . S
C1131 H1119 0.950 . S
C1131 C1127 1.393 . S
C1131 C1130 1.391 . S
H1132 C1140 0.950 . S
H1133 C1145 0.950 . S
H1134 C1142 0.950 . S
H1135 C1144 0.950 . S
H1136 C1146 0.950 . S
H1137 C1148 0.950 . S
H1138 C1150 0.950 . S
H1139 C1151 0.950 . S
C1140 H1132 0.950 . S
C1140 C1141 1.386 . S
C1140 C1142 1.391 . S
C1141 C1140 1.386 . S
C1141 C1145 1.393 . S
C1142 H1134 0.950 . S
C1142 C1140 1.391 . S
C1142 C1143 1.400 . S
C1143 C1142 1.400 . S
C1143 C1144 1.398 . S
C1143 C1149 1.491 . S
C1144 H1135 0.950 . S
C1144 C1143 1.398 . S
C1144 C1145 1.391 . S
C1145 H1133 0.950 . S
C1145 C1141 1.393 . S
C1145 C1144 1.391 . S
C1146 H1136 0.950 . S
C1146 C1147 1.386 . S
C1146 C1148 1.391 . S
C1147 C1146 1.386 . S
C1147 C1151 1.393 . S
C1148 H1137 0.950 . S
C1148 C1146 1.391 . S
C1148 C1149 1.400 . S
C1149 C1143 1.491 . S
C1149 C1148 1.400 . S
C1149 C1150 1.398 . S
C1150 H1138 0.950 . S
C1150 C1149 1.398 . S
C1150 C1151 1.391 . S
C1151 H1139 0.950 . S
C1151 C1147 1.393 . S
C1151 C1150 1.391 . S
H1152 C1160 0.950 . S
H1153 C1165 0.950 . S
H1154 C1162 0.950 . S
H1155 C1164 0.950 . S
H1156 C1166 0.950 . S
H1157 C1168 0.950 . S
H1158 C1170 0.950 . S
H1159 C1171 0.950 . S
C1160 H1152 0.950 . S
C1160 C1161 1.386 . S
C1160 C1162 1.391 . S
C1161 C1160 1.386 . S
C1161 C1165 1.393 . S
C1162 H1154 0.950 . S
C1162 C1160 1.391 . S
C1162 C1163 1.400 . S
C1163 C1162 1.400 . S
C1163 C1164 1.398 . S
C1163 C1169 1.491 . S
C1164 H1155 0.950 . S
C1164 C1163 1.398 . S
C1164 C1165 1.391 . S
C1165 H1153 0.950 . S
C1165 C1161 1.393 . S
C1165 C1164 1.391 . S
C1166 H1156 0.950 . S
C1166 C1167 1.386 . S
C1166 C1168 1.391 . S
C1167 C1166 1.386 . S
C1167 C1171 1.393 . S
C1168 H1157 0.950 . S
C1168 C1166 1.391 . S
C1168 C1169 1.400 . S
C1169 C1163 1.491 . S
C1169 C1168 1.400 . S
C1169 C1170 1.398 . S
C1170 H1158 0.950 . S
C1170 C1169 1.398 . S
C1170 C1171 1.391 . S
C1171 H1159 0.950 . S
C1171 C1167 1.393 . S
C1171 C1170 1.391 . S
H1172 C1180 0.950 . S
H1173 C1185 0.950 . S
H1174 C1182 0.950 . S
H1175 C1184 0.950 . S
H1176 C1186 0.950 . S
H1177 C1188 0.950 . S
H1178 C1190 0.950 . S
H1179 C1191 0.950 . S
C1180 H1172 0.950 . S
C1180 C1181 1.386 . S
C1180 C1182 1.391 . S
C1181 C1180 1.386 . S
C1181 C1185 1.393 . S
C1182 H1174 0.950 . S
C1182 C1180 1.391 . S
C1182 C1183 1.400 . S
C1183 C1182 1.400 . S
C1183 C1184 1.398 . S
C1183 C1189 1.491 . S
C1184 H1175 0.950 . S
C1184 C1183 1.398 . S
C1184 C1185 1.391 . S
C1185 H1173 0.950 . S
C1185 C1181 1.393 . S
C1185 C1184 1.391 . S
C1186 H1176 0.950 . S
C1186 C1187 1.386 . S
C1186 C1188 1.391 . S
C1187 C1186 1.386 . S
C1187 C1191 1.393 . S
C1188 H1177 0.950 . S
C1188 C1186 1.391 . S
C1188 C1189 1.400 . S
C1189 C1183 1.491 . S
C1189 C1188 1.400 . S
C1189 C1190 1.398 . S
C1190 H1178 0.950 . S
C1190 C1189 1.398 . S
C1190 C1191 1.391 . S
C1191 H1179 0.950 . S
C1191 C1187 1.393 . S
C1191 C1190 1.391 . S
H1192 C1200 0.950 . S
H1193 C1205 0.950 . S
H1194 C1202 0.950 . S
H1195 C1204 0.950 . S
H1196 C1206 0.950 . S
H1197 C1208 0.950 . S
H1198 C1210 0.950 . S
H1199 C1211 0.950 . S
C1200 H1192 0.950 . S
C1200 C1201 1.386 . S
C1200 C1202 1.391 . S
C1201 C1200 1.386 . S
C1201 C1205 1.393 . S
C1202 H1194 0.950 . S
C1202 C1200 1.391 . S
C1202 C1203 1.400 . S
C1203 C1202 1.400 . S
C1203 C1204 1.398 . S
C1203 C1209 1.491 . S
C1204 H1195 0.950 . S
C1204 C1203 1.398 . S
C1204 C1205 1.391 . S
C1205 H1193 0.950 . S
C1205 C1201 1.393 . S
C1205 C1204 1.391 . S
C1206 H1196 0.950 . S
C1206 C1207 1.386 . S
C1206 C1208 1.391 . S
C1207 C1206 1.386 . S
C1207 C1211 1.393 . S
C1208 H1197 0.950 . S
C1208 C1206 1.391 . S
C1208 C1209 1.400 . S
C1209 C1203 1.491 . S
C1209 C1208 1.400 . S
C1209 C1210 1.398 . S
C1210 H1198 0.950 . S
C1210 C1209 1.398 . S
C1210 C1211 1.391 . S
C1211 H1199 0.950 . S
C1211 C1207 1.393 . S
C1211 C1210 1.391 . S
H1212 C1220 0.950 . S
H1213 C1225 0.950 . S
H1214 C1222 0.950 . S
H1215 C1224 0.950 . S
H1216 C1226 0.950 . S
H1217 C1228 0.950 . S
H1218 C1230 0.950 . S
H1219 C1231 0.950 . S
C1220 H1212 0.950 . S
C1220 C1221 1.386 . S
C1220 C1222 1.391 . S
C1221 C1220 1.386 . S
C1221 C1225 1.393 . S
C1222 H1214 0.950 . S
C1222 C1220 1.391 . S
C1222 C1223 1.400 . S
C1223 C1222 1.400 . S
C1223 C1224 1.398 . S
C1223 C1229 1.491 . S
C1224 H1215 0.950 . S
C1224 C1223 1.398 . S
C1224 C1225 1.391 . S
C1225 H1213 0.950 . S
C1225 C1221 1.393 . S
C1225 C1224 1.391 . S
C1226 H1216 0.950 . S
C1226 C1227 1.386 . S
C1226 C1228 1.391 . S
C1227 C1226 1.386 . S
C1227 C1231 1.393 . S
C1228 H1217 0.950 . S
C1228 C1226 1.391 . S
C1228 C1229 1.400 . S
C1229 C1223 1.491 . S
C1229 C1228 1.400 . S
C1229 C1230 1.398 . S
C1230 H1218 0.950 . S
C1230 C1229 1.398 . S
C1230 C1231 1.391 . S
C1231 H1219 0.950 . S
C1231 C1227 1.393 . S
C1231 C1230 1.391 . S
H1232 C1240 0.950 . S
H1233 C1245 0.950 . S
H1234 C1242 0.950 . S
H1235 C1244 0.950 . S
H1236 C1246 0.950 . S
H1237 C1248 0.950 . S
H1238 C1250 0.950 . S
H1239 C1251 0.950 . S
C1240 H1232 0.950 . S
C1240 C1241 1.386 . S
C1240 C1242 1.391 . S
C1241 C1240 1.386 . S
C1241 C1245 1.393 . S
C1242 H1234 0.950 . S
C1242 C1240 1.391 . S
C1242 C1243 1.400 . S
C1243 C1242 1.400 . S
C1243 C1244 1.398 . S
C1243 C1249 1.491 . S
C1244 H1235 0.950 . S
C1244 C1243 1.398 . S
C1244 C1245 1.391 . S
C1245 H1233 0.950 . S
C1245 C1241 1.393 . S
C1245 C1244 1.391 . S
C1246 H1236 0.950 . S
C1246 C1247 1.386 . S
C1246 C1248 1.391 . S
C1247 C1246 1.386 . S
C1247 C1251 1.393 . S
C1248 H1237 0.950 . S
C1248 C1246 1.391 . S
C1248 C1249 1.400 . S
C1249 C1243 1.491 . S
C1249 C1248 1.400 . S
C1249 C1250 1.398 . S
C1250 H1238 0.950 . S
C1250 C1249 1.398 . S
C1250 C1251 1.391 . S
C1251 H1239 0.950 . S
C1251 C1247 1.393 . S
C1251 C1250 1.391 . S
H1252 C1260 0.950 . S
H1253 C1265 0.950 . S
H1254 C1262 0.950 . S
H1255 C1264 0.950 . S
H1256 C1266 0.950 . S
H1257 C1268 0.950 . S
H1258 C1270 0.950 . S
H1259 C1271 0.950 . S
C1260 H1252 0.950 . S
C1260 C1261 1.386 . S
C1260 C1262 1.391 . S
C1261 C1260 1.386 . S
C1261 C1265 1.393 . S
C1262 H1254 0.950 . S
C1262 C1260 1.391 . S
C1262 C1263 1.400 . S
C1263 C1262 1.400 . S
C1263 C1264 1.398 . S
C1263 C1269 1.491 . S
C1264 H1255 0.950 . S
C1264 C1263 1.398 . S
C1264 C1265 1.391 . S
C1265 H1253 0.950 . S
C1265 C1261 1.393 . S
C1265 C1264 1.391 . S
C1266 H1256 0.950 . S
C1266 C1267 1.386 . S
C1266 C1268 1.391 . S
C1267 C1266 1.386 . S
C1267 C1271 1.393 . S
C1268 H1257 0.950 . S
C1268 C1266 1.391 . S
C1268 C1269 1.400 . S
C1269 C1263 1.491 . S
C1269 C1268 1.400 . S
C1269 C1270 1.398 . S
C1270 H1258 0.950 . S
C1270 C1269 1.398 . S
C1270 C1271 1.391 . S
C1271 H1259 0.950 . S
C1271 C1267 1.393 . S
C1271 C1270 1.391 . S
H1272 C1280 0.950 . S
H1273 C1285 0.950 . S
H1274 C1282 0.950 . S
H1275 C1284 0.950 . S
H1276 C1286 0.950 . S
H1277 C1288 0.950 . S
H1278 C1290 0.950 . S
H1279 C1291 0.950 . S
C1280 H1272 0.950 . S
C1280 C1281 1.386 . S
C1280 C1282 1.391 . S
C1281 C1280 1.386 . S
C1281 C1285 1.393 . S
C1282 H1274 0.950 . S
C1282 C1280 1.391 . S
C1282 C1283 1.400 . S
C1283 C1282 1.400 . S
C1283 C1284 1.398 . S
C1283 C1289 1.491 . S
C1284 H1275 0.950 . S
C1284 C1283 1.398 . S
C1284 C1285 1.391 . S
C1285 H1273 0.950 . S
C1285 C1281 1.393 . S
C1285 C1284 1.391 . S
C1286 H1276 0.950 . S
C1286 C1287 1.386 . S
C1286 C1288 1.391 . S
C1287 C1286 1.386 . S
C1287 C1291 1.393 . S
C1288 H1277 0.950 . S
C1288 C1286 1.391 . S
C1288 C1289 1.400 . S
C1289 C1283 1.491 . S
C1289 C1288 1.400 . S
C1289 C1290 1.398 . S
C1290 H1278 0.950 . S
C1290 C1289 1.398 . S
C1290 C1291 1.391 . S
C1291 H1279 0.950 . S
C1291 C1287 1.393 . S
C1291 C1290 1.391 . S
H1292 C1300 0.950 . S
H1293 C1305 0.950 . S
H1294 C1302 0.950 . S
H1295 C1304 0.950 . S
H1296 C1306 0.950 . S
H1297 C1308 0.950 . S
H1298 C1310 0.950 . S
H1299 C1311 0.950 . S
C1300 H1292 0.950 . S
C1300 C1301 1.386 . S
C1300 C1302 1.391 . S
C1301 C1300 1.386 . S
C1301 C1305 1.393 . S
C1302 H1294 0.950 . S
C1302 C1300 1.391 . S
C1302 C1303 1.400 . S
C1303 C1302 1.400 . S
C1303 C1304 1.398 . S
C1303 C1309 1.491 . S
C1304 H1295 0.950 . S
C1304 C1303 1.398 . S
C1304 C1305 1.391 . S
C1305 H1293 0.950 . S
C1305 C1301 1.393 . S
C1305 C1304 1.391 . S
C1306 H1296 0.950 . S
C1306 C1307 1.386 . S
C1306 C1308 1.391 . S
C1307 C1306 1.386 . S
C1307 C1311 1.393 . S
C1308 H1297 0.950 . S
C1308 C1306 1.391 . S
C1308 C1309 1.400 . S
C1309 C1303 1.491 . S
C1309 C1308 1.400 . S
C1309 C1310 1.398 . S
C1310 H1298 0.950 . S
C1310 C1309 1.398 . S
C1310 C1311 1.391 . S
C1311 H1299 0.950 . S
C1311 C1307 1.393 . S
C1311 C1310 1.391 . S
H1312 C1320 0.950 . S
H1313 C1325 0.950 . S
H1314 C1322 0.950 . S
H1315 C1324 0.950 . S
H1316 C1326 0.950 . S
H1317 C1328 0.950 . S
H1318 C1330 0.950 . S
H1319 C1331 0.950 . S
C1320 H1312 0.950 . S
C1320 C1321 1.386 . S
C1320 C1322 1.391 . S
C1321 C1320 1.386 . S
C1321 C1325 1.393 . S
C1322 H1314 0.950 . S
C1322 C1320 1.391 . S
C1322 C1323 1.400 . S
C1323 C1322 1.400 . S
C1323 C1324 1.398 . S
C1323 C1329 1.491 . S
C1324 H1315 0.950 . S
C1324 C1323 1.398 . S
C1324 C1325 1.391 . S
C1325 H1313 0.950 . S
C1325 C1321 1.393 . S
C1325 C1324 1.391 . S
C1326 H1316 0.950 . S
C1326 C1327 1.386 . S
C1326 C1328 1.391 . S
C1327 C1326 1.386 . S
C1327 C1331 1.393 . S
C1328 H1317 0.950 . S
C1328 C1326 1.391 . S
C1328 C1329 1.400 . S
C1329 C1323 1.491 . S
C1329 C1328 1.400 . S
C1329 C1330 1.398 . S
C1330 H1318 0.950 . S
C1330 C1329 1.398 . S
C1330 C1331 1.391 . S
C1331 H1319 0.950 . S
C1331 C1327 1.393 . S
C1331 C1330 1.391 . S
H1332 C1340 0.950 . S
H1333 C1345 0.950 . S
H1334 C1342 0.950 . S
H1335 C1344 0.950 . S
H1336 C1346 0.950 . S
H1337 C1348 0.950 . S
H1338 C1350 0.950 . S
H1339 C1351 0.950 . S
C1340 H1332 0.950 . S
C1340 C1341 1.386 . S
C1340 C1342 1.391 . S
C1341 C1340 1.386 . S
C1341 C1345 1.393 . S
C1342 H1334 0.950 . S
C1342 C1340 1.391 . S
C1342 C1343 1.400 . S
C1343 C1342 1.400 . S
C1343 C1344 1.398 . S
C1343 C1349 1.491 . S
C1344 H1335 0.950 . S
C1344 C1343 1.398 . S
C1344 C1345 1.391 . S
C1345 H1333 0.950 . S
C1345 C1341 1.393 . S
C1345 C1344 1.391 . S
C1346 H1336 0.950 . S
C1346 C1347 1.386 . S
C1346 C1348 1.391 . S
C1347 C1346 1.386 . S
C1347 C1351 1.393 . S
C1348 H1337 0.950 . S
C1348 C1346 1.391 . S
C1348 C1349 1.400 . S
C1349 C1343 1.491 . S
C1349 C1348 1.400 . S
C1349 C1350 1.398 . S
C1350 H1338 0.950 . S
C1350 C1349 1.398 . S
C1350 C1351 1.391 . S
C1351 H1339 0.950 . S
C1351 C1347 1.393 . S
C1351 C1350 1.391 . S
H1352 C1360 0.950 . S
H1353 C1365 0.950 . S
H1354 C1362 0.950 . S
H1355 C1364 0.950 . S
H1356 C1366 0.950 . S
H1357 C1368 0.950 . S
H1358 C1370 0.950 . S
H1359 C1371 0.950 . S
C1360 H1352 0.950 . S
C1360 C1361 1.386 . S
C1360 C1362 1.391 . S
C1361 C1360 1.386 . S
C1361 C1365 1.393 . S
C1362 H1354 0.950 . S
C1362 C1360 1.391 . S
C1362 C1363 1.400 . S
C1363 C1362 1.400 . S
C1363 C1364 1.398 . S
C1363 C1369 1.491 . S
C1364 H1355 0.950 . S
C1364 C1363 1.398 . S
C1364 C1365 1.391 . S
C1365 H1353 0.950 . S
C1365 C1361 1.393 . S
C1365 C1364 1.391 . S
C1366 H1356 0.950 . S
C1366 C1367 1.386 . S
C1366 C1368 1.391 . S
C1367 C1366 1.386 . S
C1367 C1371 1.393 . S
C1368 H1357 0.950 . S
C1368 C1366 1.391 . S
C1368 C1369 1.400 . S
C1369 C1363 1.491 . S
C1369 C1368 1.400 . S
C1369 C1370 1.398 . S
C1370 H1358 0.950 . S
C1370 C1369 1.398 . S
C1370 C1371 1.391 . S
C1371 H1359 0.950 . S
C1371 C1367 1.393 . S
C1371 C1370 1.391 . S
H1372 C1380 0.950 . S
H1373 C1385 0.950 . S
H1374 C1382 0.950 . S
H1375 C1384 0.950 . S
H1376 C1386 0.950 . S
H1377 C1388 0.950 . S
H1378 C1390 0.950 . S
H1379 C1391 0.950 . S
C1380 H1372 0.950 . S
C1380 C1381 1.386 . S
C1380 C1382 1.391 . S
C1381 C1380 1.386 . S
C1381 C1385 1.393 . S
C1382 H1374 0.950 . S
C1382 C1380 1.391 . S
C1382 C1383 1.400 . S
C1383 C1382 1.400 . S
C1383 C1384 1.398 . S
C1383 C1389 1.491 . S
C1384 H1375 0.950 . S
C1384 C1383 1.398 . S
C1384 C1385 1.391 . S
C1385 H1373 0.950 . S
C1385 C1381 1.393 . S
C1385 C1384 1.391 . S
C1386 H1376 0.950 . S
C1386 C1387 1.386 . S
C1386 C1388 1.391 . S
C1387 C1386 1.386 . S
C1387 C1391 1.393 . S
C1388 H1377 0.950 . S
C1388 C1386 1.391 . S
C1388 C1389 1.400 . S
C1389 C1383 1.491 . S
C1389 C1388 1.400 . S
C1389 C1390 1.398 . S
C1390 H1378 0.950 . S
C1390 C1389 1.398 . S
C1390 C1391 1.391 . S
C1391 H1379 0.950 . S
C1391 C1387 1.393 . S
C1391 C1390 1.391 . S
H1392 C1400 0.950 . S
H1393 C1405 0.950 . S
H1394 C1402 0.950 . S
H1395 C1404 0.950 . S
H1396 C1406 0.950 . S
H1397 C1408 0.950 . S
H1398 C1410 0.950 . S
H1399 C1411 0.950 . S
C1400 H1392 0.950 . S
C1400 C1401 1.386 . S
C1400 C1402 1.391 . S
C1401 C1400 1.386 . S
C1401 C1405 1.393 . S
C1402 H1394 0.950 . S
C1402 C1400 1.391 . S
C1402 C1403 1.400 . S
C1403 C1402 1.400 . S
C1403 C1404 1.398 . S
C1403 C1409 1.491 . S
C1404 H1395 0.950 . S
C1404 C1403 1.398 . S
C1404 C1405 1.391 . S
C1405 H1393 0.950 . S
C1405 C1401 1.393 . S
C1405 C1404 1.391 . S
C1406 H1396 0.950 . S
C1406 C1407 1.386 . S
C1406 C1408 1.391 . S
C1407 C1406 1.386 . S
C1407 C1411 1.393 . S
C1408 H1397 0.950 . S
C1408 C1406 1.391 . S
C1408 C1409 1.400 . S
C1409 C1403 1.491 . S
C1409 C1408 1.400 . S
C1409 C1410 1.398 . S
C1410 H1398 0.950 . S
C1410 C1409 1.398 . S
C1410 C1411 1.391 . S
C1411 H1399 0.950 . S
C1411 C1407 1.393 . S
C1411 C1410 1.391 . S
H1412 C1420 0.950 . S
H1413 C1425 0.950 . S
H1414 C1422 0.950 . S
H1415 C1424 0.950 . S
H1416 C1426 0.950 . S
H1417 C1428 0.950 . S
H1418 C1430 0.950 . S
H1419 C1431 0.950 . S
C1420 H1412 0.950 . S
C1420 C1421 1.386 . S
C1420 C1422 1.391 . S
C1421 C1420 1.386 . S
C1421 C1425 1.393 . S
C1422 H1414 0.950 . S
C1422 C1420 1.391 . S
C1422 C1423 1.400 . S
C1423 C1422 1.400 . S
C1423 C1424 1.398 . S
C1423 C1429 1.491 . S
C1424 H1415 0.950 . S
C1424 C1423 1.398 . S
C1424 C1425 1.391 . S
C1425 H1413 0.950 . S
C1425 C1421 1.393 . S
C1425 C1424 1.391 . S
C1426 H1416 0.950 . S
C1426 C1427 1.386 . S
C1426 C1428 1.391 . S
C1427 C1426 1.386 . S
C1427 C1431 1.393 . S
C1428 H1417 0.950 . S
C1428 C1426 1.391 . S
C1428 C1429 1.400 . S
C1429 C1423 1.491 . S
C1429 C1428 1.400 . S
C1429 C1430 1.398 . S
C1430 H1418 0.950 . S
C1430 C1429 1.398 . S
C1430 C1431 1.391 . S
C1431 H1419 0.950 . S
C1431 C1427 1.393 . S
C1431 C1430 1.391 . S
H1432 C1440 0.950 . S
H1433 C1445 0.950 . S
H1434 C1442 0.950 . S
H1435 C1444 0.950 . S
H1436 C1446 0.950 . S
H1437 C1448 0.950 . S
H1438 C1450 0.950 . S
H1439 C1451 0.950 . S
C1440 H1432 0.950 . S
C1440 C1441 1.386 . S
C1440 C1442 1.391 . S
C1441 C1440 1.386 . S
C1441 C1445 1.393 . S
C1442 H1434 0.950 . S
C1442 C1440 1.391 . S
C1442 C1443 1.400 . S
C1443 C1442 1.400 . S
C1443 C1444 1.398 . S
C1443 C1449 1.491 . S
C1444 H1435 0.950 . S
C1444 C1443 1.398 . S
C1444 C1445 1.391 . S
C1445 H1433 0.950 . S
C1445 C1441 1.393 . S
C1445 C1444 1.391 . S
C1446 H1436 0.950 . S
C1446 C1447 1.386 . S
C1446 C1448 1.391 . S
C1447 C1446 1.386 . S
C1447 C1451 1.393 . S
C1448 H1437 0.950 . S
C1448 C1446 1.391 . S
C1448 C1449 1.400 . S
C1449 C1443 1.491 . S
C1449 C1448 1.400 . S
C1449 C1450 1.398 . S
C1450 H1438 0.950 . S
C1450 C1449 1.398 . S
C1450 C1451 1.391 . S
C1451 H1439 0.950 . S
C1451 C1447 1.393 . S
C1451 C1450 1.391 . S
H1452 C1460 0.950 . S
H1453 C1465 0.950 . S
H1454 C1462 0.950 . S
H1455 C1464 0.950 . S
H1456 C1466 0.950 . S
H1457 C1468 0.950 . S
H1458 C1470 0.950 . S
H1459 C1471 0.950 . S
C1460 H1452 0.950 . S
C1460 C1461 1.386 . S
C1460 C1462 1.391 . S
C1461 C1460 1.386 . S
C1461 C1465 1.393 . S
C1462 H1454 0.950 . S
C1462 C1460 1.391 . S
C1462 C1463 1.400 . S
C1463 C1462 1.400 . S
C1463 C1464 1.398 . S
C1463 C1469 1.491 . S
C1464 H1455 0.950 . S
C1464 C1463 1.398 . S
C1464 C1465 1.391 . S
C1465 H1453 0.950 . S
C1465 C1461 1.393 . S
C1465 C1464 1.391 . S
C1466 H1456 0.950 . S
C1466 C1467 1.386 . S
C1466 C1468 1.391 . S
C1467 C1466 1.386 . S
C1467 C1471 1.393 . S
C1468 H1457 0.950 . S
C1468 C1466 1.391 . S
C1468 C1469 1.400 . S
C1469 C1463 1.491 . S
C1469 C1468 1.400 . S
C1469 C1470 1.398 . S
C1470 H1458 0.950 . S
C1470 C1469 1.398 . S
C1470 C1471 1.391 . S
C1471 H1459 0.950 . S
C1471 C1467 1.393 . S
C1471 C1470 1.391 . S
H1472 C1480 0.950 . S
H1473 C1485 0.950 . S
H1474 C1482 0.950 . S
H1475 C1484 0.950 . S
H1476 C1486 0.950 . S
H1477 C1488 0.950 . S
H1478 C1490 0.950 . S
H1479 C1491 0.950 . S
C1480 H1472 0.950 . S
C1480 C1481 1.386 . S
C1480 C1482 1.391 . S
C1481 C1480 1.386 . S
C1481 C1485 1.393 . S
C1482 H1474 0.950 . S
C1482 C1480 1.391 . S
C1482 C1483 1.400 . S
C1483 C1482 1.400 . S
C1483 C1484 1.398 . S
C1483 C1489 1.491 . S
C1484 H1475 0.950 . S
C1484 C1483 1.398 . S
C1484 C1485 1.391 . S
C1485 H1473 0.950 . S
C1485 C1481 1.393 . S
C1485 C1484 1.391 . S
C1486 H1476 0.950 . S
C1486 C1487 1.386 . S
C1486 C1488 1.391 . S
C1487 C1486 1.386 . S
C1487 C1491 1.393 . S
C1488 H1477 0.950 . S
C1488 C1486 1.391 . S
C1488 C1489 1.400 . S
C1489 C1483 1.491 . S
C1489 C1488 1.400 . S
C1489 C1490 1.398 . S
C1490 H1478 0.950 . S
C1490 C1489 1.398 . S
C1490 C1491 1.391 . S
C1491 H1479 0.950 . S
C1491 C1487 1.393 . S
C1491 C1490 1.391 . S
H1492 C1500 0.950 . S
H1493 C1505 0.950 . S
H1494 C1502 0.950 . S
H1495 C1504 0.950 . S
H1496 C1506 0.950 . S
H1497 C1508 0.950 . S
H1498 C1510 0.950 . S
H1499 C1511 0.950 . S
C1500 H1492 0.950 . S
C1500 C1501 1.386 . S
C1500 C1502 1.391 . S
C1501 C1500 1.386 . S
C1501 C1505 1.393 . S
C1502 H1494 0.950 . S
C1502 C1500 1.391 . S
C1502 C1503 1.400 . S
C1503 C1502 1.400 . S
C1503 C1504 1.398 . S
C1503 C1509 1.491 . S
C1504 H1495 0.950 . S
C1504 C1503 1.398 . S
C1504 C1505 1.391 . S
C1505 H1493 0.950 . S
C1505 C1501 1.393 . S
C1505 C1504 1.391 . S
C1506 H1496 0.950 . S
C1506 C1507 1.386 . S
C1506 C1508 1.391 . S
C1507 C1506 1.386 . S
C1507 C1511 1.393 . S
C1508 H1497 0.950 . S
C1508 C1506 1.391 . S
C1508 C1509 1.400 . S
C1509 C1503 1.491 . S
C1509 C1508 1.400 . S
C1509 C1510 1.398 . S
C1510 H1498 0.950 . S
C1510 C1509 1.398 . S
C1510 C1511 1.391 . S
C1511 H1499 0.950 . S
C1511 C1507 1.393 . S
C1511 C1510 1.391 . S
H1512 C1520 0.950 . S
H1513 C1525 0.950 . S
H1514 C1522 0.950 . S
H1515 C1524 0.950 . S
H1516 C1526 0.950 . S
H1517 C1528 0.950 . S
H1518 C1530 0.950 . S
H1519 C1531 0.950 . S
C1520 H1512 0.950 . S
C1520 C1521 1.386 . S
C1520 C1522 1.391 . S
C1521 C1520 1.386 . S
C1521 C1525 1.393 . S
C1522 H1514 0.950 . S
C1522 C1520 1.391 . S
C1522 C1523 1.400 . S
C1523 C1522 1.400 . S
C1523 C1524 1.398 . S
C1523 C1529 1.491 . S
C1524 H1515 0.950 . S
C1524 C1523 1.398 . S
C1524 C1525 1.391 . S
C1525 H1513 0.950 . S
C1525 C1521 1.393 . S
C1525 C1524 1.391 . S
C1526 H1516 0.950 . S
C1526 C1527 1.386 . S
C1526 C1528 1.391 . S
C1527 C1526 1.386 . S
C1527 C1531 1.393 . S
C1528 H1517 0.950 . S
C1528 C1526 1.391 . S
C1528 C1529 1.400 . S
C1529 C1523 1.491 . S
C1529 C1528 1.400 . S
C1529 C1530 1.398 . S
C1530 H1518 0.950 . S
C1530 C1529 1.398 . S
C1530 C1531 1.391 . S
C1531 H1519 0.950 . S
C1531 C1527 1.393 . S
C1531 C1530 1.391 . S
H1532 C1540 0.950 . S
H1533 C1545 0.950 . S
H1534 C1542 0.950 . S
H1535 C1544 0.950 . S
H1536 C1546 0.950 . S
H1537 C1548 0.950 . S
H1538 C1550 0.950 . S
H1539 C1551 0.950 . S
C1540 H1532 0.950 . S
C1540 C1541 1.386 . S
C1540 C1542 1.391 . S
C1541 C1540 1.386 . S
C1541 C1545 1.393 . S
C1542 H1534 0.950 . S
C1542 C1540 1.391 . S
C1542 C1543 1.400 . S
C1543 C1542 1.400 . S
C1543 C1544 1.398 . S
C1543 C1549 1.491 . S
C1544 H1535 0.950 . S
C1544 C1543 1.398 . S
C1544 C1545 1.391 . S
C1545 H1533 0.950 . S
C1545 C1541 1.393 . S
C1545 C1544 1.391 . S
C1546 H1536 0.950 . S
C1546 C1547 1.386 . S
C1546 C1548 1.391 . S
C1547 C1546 1.386 . S
C1547 C1551 1.393 . S
C1548 H1537 0.950 . S
C1548 C1546 1.391 . S
C1548 C1549 1.400 . S
C1549 C1543 1.491 . S
C1549 C1548 1.400 . S
C1549 C1550 1.398 . S
C1550 H1538 0.950 . S
C1550 C1549 1.398 . S
C1550 C1551 1.391 . S
C1551 H1539 0.950 . S
C1551 C1547 1.393 . S
C1551 C1550 1.391 . S
H1552 C1560 0.950 . S
H1553 C1565 0.950 . S
H1554 C1562 0.950 . S
H1555 C1564 0.950 . S
H1556 C1566 0.950 . S
H1557 C1568 0.950 . S
H1558 C1570 0.950 . S
H1559 C1571 0.950 . S
C1560 H1552 0.950 . S
C1560 C1561 1.386 . S
C1560 C1562 1.391 . S
C1561 C1560 1.386 . S
C1561 C1565 1.393 . S
C1562 H1554 0.950 . S
C1562 C1560 1.391 . S
C1562 C1563 1.400 . S
C1563 C1562 1.400 . S
C1563 C1564 1.398 . S
C1563 C1569 1.491 . S
C1564 H1555 0.950 . S
C1564 C1563 1.398 . S
C1564 C1565 1.391 . S
C1565 H1553 0.950 . S
C1565 C1561 1.393 . S
C1565 C1564 1.391 . S
C1566 H1556 0.950 . S
C1566 C1567 1.386 . S
C1566 C1568 1.391 . S
C1567 C1566 1.386 . S
C1567 C1571 1.393 . S
C1568 H1557 0.950 . S
C1568 C1566 1.391 . S
C1568 C1569 1.400 . S
C1569 C1563 1.491 . S
C1569 C1568 1.400 . S
C1569 C1570 1.398 . S
C1570 H1558 0.950 . S
C1570 C1569 1.398 . S
C1570 C1571 1.391 . S
C1571 H1559 0.950 . S
C1571 C1567 1.393 . S
C1571 C1570 1.391 . S
H1572 C1580 0.950 . S
H1573 C1585 0.950 . S
H1574 C1582 0.950 . S
H1575 C1584 0.950 . S
H1576 C1586 0.950 . S
H1577 C1588 0.950 . S
H1578 C1590 0.950 . S
H1579 C1591 0.950 . S
C1580 H1572 0.950 . S
C1580 C1581 1.386 . S
C1580 C1582 1.391 . S
C1581 C1580 1.386 . S
C1581 C1585 1.393 . S
C1582 H1574 0.950 . S
C1582 C1580 1.391 . S
C1582 C1583 1.400 . S
C1583 C1582 1.400 . S
C1583 C1584 1.398 . S
C1583 C1589 1.491 . S
C1584 H1575 0.950 . S
C1584 C1583 1.398 . S
C1584 C1585 1.391 . S
C1585 H1573 0.950 . S
C1585 C1581 1.393 . S
C1585 C1584 1.391 . S
C1586 H1576 0.950 . S
C1586 C1587 1.386 . S
C1586 C1588 1.391 . S
C1587 C1586 1.386 . S
C1587 C1591 1.393 . S
C1588 H1577 0.950 . S
C1588 C1586 1.391 . S
C1588 C1589 1.400 . S
C1589 C1583 1.491 . S
C1589 C1588 1.400 . S
C1589 C1590 1.398 . S
C1590 H1578 0.950 . S
C1590 C1589 1.398 . S
C1590 C1591 1.391 . S
C1591 H1579 0.950 . S
C1591 C1587 1.393 . S
C1591 C1590 1.391 . S
H1592 C1600 0.950 . S
H1593 C1605 0.950 . S
H1594 C1602 0.950 . S
H1595 C1604 0.950 . S
H1596 C1606 0.950 . S
H1597 C1608 0.950 . S
H1598 C1610 0.950 . S
H1599 C1611 0.950 . S
C1600 H1592 0.950 . S
C1600 C1601 1.386 . S
C1600 C1602 1.391 . S
C1601 C1600 1.386 . S
C1601 C1605 1.393 . S
C1602 H1594 0.950 . S
C1602 C1600 1.391 . S
C1602 C1603 1.400 . S
C1603 C1602 1.400 . S
C1603 C1604 1.398 . S
C1603 C1609 1.491 . S
C1604 H1595 0.950 . S
C1604 C1603 1.398 . S
C1604 C1605 1.391 . S
C1605 H1593 0.950 . S
C1605 C1601 1.393 . S
C1605 C1604 1.391 . S
C1606 H1596 0.950 . S
C1606 C1607 1.386 . S
C1606 C1608 1.391 . S
C1607 C1606 1.386 . S
C1607 C1611 1.393 . S
C1608 H1597 0.950 . S
C1608 C1606 1.391 . S
C1608 C1609 1.400 . S
C1609 C1603 1.491 . S
C1609 C1608 1.400 . S
C1609 C1610 1.398 . S
C1610 H1598 0.950 . S
C1610 C1609 1.398 . S
C1610 C1611 1.391 . S
C1611 H1599 0.950 . S
C1611 C1607 1.393 . S
C1611 C1610 1.391 . S
H1612 C1620 0.950 . S
H1613 C1625 0.950 . S
H1614 C1622 0.950 . S
H1615 C1624 0.950 . S
H1616 C1626 0.950 . S
H1617 C1628 0.950 . S
H1618 C1630 0.950 . S
H1619 C1631 0.950 . S
C1620 H1612 0.950 . S
C1620 C1621 1.386 . S
C1620 C1622 1.391 . S
C1621 C1620 1.386 . S
C1621 C1625 1.393 . S
C1622 H1614 0.950 . S
C1622 C1620 1.391 . S
C1622 C1623 1.400 . S
C1623 C1622 1.400 . S
C1623 C1624 1.398 . S
C1623 C1629 1.491 . S
C1624 H1615 0.950 . S
C1624 C1623 1.398 . S
C1624 C1625 1.391 . S
C1625 H1613 0.950 . S
C1625 C1621 1.393 . S
C1625 C1624 1.391 . S
C1626 H1616 0.950 . S
C1626 C1627 1.386 . S
C1626 C1628 1.391 . S
C1627 C1626 1.386 . S
C1627 C1631 1.393 . S
C1628 H1617 0.950 . S
C1628 C1626 1.391 . S
C1628 C1629 1.400 . S
C1629 C1623 1.491 . S
C1629 C1628 1.400 . S
C1629 C1630 1.398 . S
C1630 H1618 0.950 . S
C1630 C1629 1.398 . S
C1630 C1631 1.391 . S
C1631 H1619 0.950 . S
C1631 C1627 1.393 . S
C1631 C1630 1.391 . S
H1632 C1640 0.950 . S
H1633 C1645 0.950 . S
H1634 C1642 0.950 . S
H1635 C1644 0.950 . S
H1636 C1646 0.950 . S
H1637 C1648 0.950 . S
H1638 C1650 0.950 . S
H1639 C1651 0.950 . S
C1640 H1632 0.950 . S
C1640 C1641 1.386 . S
C1640 C1642 1.391 . S
C1641 C1640 1.386 . S
C1641 C1645 1.393 . S
C1642 H1634 0.950 . S
C1642 C1640 1.391 . S
C1642 C1643 1.400 . S
C1643 C1642 1.400 . S
C1643 C1644 1.398 . S
C1643 C1649 1.491 . S
C1644 H1635 0.950 . S
C1644 C1643 1.398 . S
C1644 C1645 1.391 . S
C1645 H1633 0.950 . S
C1645 C1641 1.393 . S
C1645 C1644 1.391 . S
C1646 H1636 0.950 . S
C1646 C1647 1.386 . S
C1646 C1648 1.391 . S
C1647 C1646 1.386 . S
C1647 C1651 1.393 . S
C1648 H1637 0.950 . S
C1648 C1646 1.391 . S
C1648 C1649 1.400 . S
C1649 C1643 1.491 . S
C1649 C1648 1.400 . S
C1649 C1650 1.398 . S
C1650 H1638 0.950 . S
C1650 C1649 1.398 . S
C1650 C1651 1.391 . S
C1651 H1639 0.950 . S
C1651 C1647 1.393 . S
C1651 C1650 1.391 . S
H1652 C1660 0.950 . S
H1653 C1665 0.950 . S
H1654 C1662 0.950 . S
H1655 C1664 0.950 . S
H1656 C1666 0.950 . S
H1657 C1668 0.950 . S
H1658 C1670 0.950 . S
H1659 C1671 0.950 . S
C1660 H1652 0.950 . S
C1660 C1661 1.386 . S
C1660 C1662 1.391 . S
C1661 C1660 1.386 . S
C1661 C1665 1.393 . S
C1662 H1654 0.950 . S
C1662 C1660 1.391 . S
C1662 C1663 1.400 . S
C1663 C1662 1.400 . S
C1663 C1664 1.398 . S
C1663 C1669 1.491 . S
C1664 H1655 0.950 . S
C1664 C1663 1.398 . S
C1664 C1665 1.391 . S
C1665 H1653 0.950 . S
C1665 C1661 1.393 . S
C1665 C1664 1.391 . S
C1666 H1656 0.950 . S
C1666 C1667 1.386 . S
C1666 C1668 1.391 . S
C1667 C1666 1.386 . S
C1667 C1671 1.393 . S
C1668 H1657 0.950 . S
C1668 C1666 1.391 . S
C1668 C1669 1.400 . S
C1669 C1663 1.491 . S
C1669 C1668 1.400 . S
C1669 C1670 1.398 . S
C1670 H1658 0.950 . S
C1670 C1669 1.398 . S
C1670 C1671 1.391 . S
C1671 H1659 0.950 . S
C1671 C1667 1.393 . S
C1671 C1670 1.391 . S
H1672 C1680 0.950 . S
H1673 C1685 0.950 . S
H1674 C1682 0.950 . S
H1675 C1684 0.950 . S
H1676 C1686 0.950 . S
H1677 C1688 0.950 . S
H1678 C1690 0.950 . S
H1679 C1691 0.950 . S
C1680 H1672 0.950 . S
C1680 C1681 1.386 . S
C1680 C1682 1.391 . S
C1681 C1680 1.386 . S
C1681 C1685 1.393 . S
C1682 H1674 0.950 . S
C1682 C1680 1.391 . S
C1682 C1683 1.400 . S
C1683 C1682 1.400 . S
C1683 C1684 1.398 . S
C1683 C1689 1.491 . S
C1684 H1675 0.950 . S
C1684 C1683 1.398 . S
C1684 C1685 1.391 . S
C1685 H1673 0.950 . S
C1685 C1681 1.393 . S
C1685 C1684 1.391 . S
C1686 H1676 0.950 . S
C1686 C1687 1.386 . S
C1686 C1688 1.391 . S
C1687 C1686 1.386 . S
C1687 C1691 1.393 . S
C1688 H1677 0.950 . S
C1688 C1686 1.391 . S
C1688 C1689 1.400 . S
C1689 C1683 1.491 . S
C1689 C1688 1.400 . S
C1689 C1690 1.398 . S
C1690 H1678 0.950 . S
C1690 C1689 1.398 . S
C1690 C1691 1.391 . S
C1691 H1679 0.950 . S
C1691 C1687 1.393 . S
C1691 C1690 1.391 . S
H1692 C1700 0.950 1_655 S
H1693 C1705 0.950 . S
H1694 C1702 0.950 . S
H1695 C1704 0.950 . S
H1696 C1706 0.950 . S
H1697 C1708 0.950 . S
H1698 C1710 0.950 . S
H1699 C1711 0.950 . S
C1700 H1692 0.950 1_455 S
C1700 C1701 1.386 . S
C1700 C1702 1.391 . S
C1701 C1700 1.386 . S
C1701 C1705 1.393 . S
C1702 H1694 0.950 . S
C1702 C1700 1.391 . S
C1702 C1703 1.400 . S
C1703 C1702 1.400 . S
C1703 C1704 1.398 . S
C1703 C1709 1.491 . S
C1704 H1695 0.950 . S
C1704 C1703 1.398 . S
C1704 C1705 1.391 . S
C1705 H1693 0.950 . S
C1705 C1701 1.393 . S
C1705 C1704 1.391 . S
C1706 H1696 0.950 . S
C1706 C1707 1.386 . S
C1706 C1708 1.391 . S
C1707 C1706 1.386 . S
C1707 C1711 1.393 . S
C1708 H1697 0.950 . S
C1708 C1706 1.391 . S
C1708 C1709 1.400 . S
C1709 C1703 1.491 . S
C1709 C1708 1.400 . S
C1709 C1710 1.398 . S
C1710 H1698 0.950 . S
C1710 C1709 1.398 . S
C1710 C1711 1.391 . S
C1711 H1699 0.950 . S
C1711 C1707 1.393 . S
C1711 C1710 1.391 . S
H1712 C1720 0.950 . S
H1713 C1725 0.950 . S
H1714 C1722 0.950 . S
H1715 C1724 0.950 . S
H1716 C1726 0.950 . S
H1717 C1728 0.950 . S
H1718 C1730 0.950 . S
H1719 C1731 0.950 . S
C1720 H1712 0.950 . S
C1720 C1721 1.386 . S
C1720 C1722 1.391 . S
C1721 C1720 1.386 . S
C1721 C1725 1.393 . S
C1722 H1714 0.950 . S
C1722 C1720 1.391 . S
C1722 C1723 1.400 . S
C1723 C1722 1.400 . S
C1723 C1724 1.398 . S
C1723 C1729 1.491 . S
C1724 H1715 0.950 . S
C1724 C1723 1.398 . S
C1724 C1725 1.391 . S
C1725 H1713 0.950 . S
C1725 C1721 1.393 . S
C1725 C1724 1.391 . S
C1726 H1716 0.950 . S
C1726 C1727 1.386 . S
C1726 C1728 1.391 . S
C1727 C1726 1.386 . S
C1727 C1731 1.393 . S
C1728 H1717 0.950 . S
C1728 C1726 1.391 . S
C1728 C1729 1.400 . S
C1729 C1723 1.491 . S
C1729 C1728 1.400 . S
C1729 C1730 1.398 . S
C1730 H1718 0.950 . S
C1730 C1729 1.398 . S
C1730 C1731 1.391 . S
C1731 H1719 0.950 . S
C1731 C1727 1.393 . S
C1731 C1730 1.391 . S
H1732 C1740 0.950 . S
H1733 C1745 0.950 . S
H1734 C1742 0.950 . S
H1735 C1744 0.950 . S
H1736 C1746 0.950 1_655 S
H1737 C1748 0.950 . S
H1738 C1750 0.950 . S
H1739 C1751 0.950 . S
C1740 H1732 0.950 . S
C1740 C1741 1.386 . S
C1740 C1742 1.391 . S
C1741 C1740 1.386 . S
C1741 C1745 1.393 . S
C1742 H1734 0.950 . S
C1742 C1740 1.391 . S
C1742 C1743 1.400 . S
C1743 C1742 1.400 . S
C1743 C1744 1.398 . S
C1743 C1749 1.491 . S
C1744 H1735 0.950 . S
C1744 C1743 1.398 . S
C1744 C1745 1.391 . S
C1745 H1733 0.950 . S
C1745 C1741 1.393 . S
C1745 C1744 1.391 . S
C1746 H1736 0.950 1_455 S
C1746 C1747 1.386 . S
C1746 C1748 1.391 . S
C1747 C1746 1.386 . S
C1747 C1751 1.393 . S
C1748 H1737 0.950 . S
C1748 C1746 1.391 . S
C1748 C1749 1.400 . S
C1749 C1743 1.491 . S
C1749 C1748 1.400 . S
C1749 C1750 1.398 . S
C1750 H1738 0.950 . S
C1750 C1749 1.398 . S
C1750 C1751 1.391 . S
C1751 H1739 0.950 . S
C1751 C1747 1.393 . S
C1751 C1750 1.391 . S
H1752 C1760 0.950 . S
H1753 C1765 0.950 . S
H1754 C1762 0.950 . S
H1755 C1764 0.950 . S
H1756 C1766 0.950 . S
H1757 C1768 0.950 . S
H1758 C1770 0.950 . S
H1759 C1771 0.950 . S
C1760 H1752 0.950 . S
C1760 C1761 1.386 . S
C1760 C1762 1.391 . S
C1761 C1760 1.386 . S
C1761 C1765 1.393 . S
C1762 H1754 0.950 . S
C1762 C1760 1.391 . S
C1762 C1763 1.400 . S
C1763 C1762 1.400 . S
C1763 C1764 1.398 . S
C1763 C1769 1.491 . S
C1764 H1755 0.950 . S
C1764 C1763 1.398 . S
C1764 C1765 1.391 . S
C1765 H1753 0.950 . S
C1765 C1761 1.393 . S
C1765 C1764 1.391 . S
C1766 H1756 0.950 . S
C1766 C1767 1.386 . S
C1766 C1768 1.391 . S
C1767 C1766 1.386 . S
C1767 C1771 1.393 . S
C1768 H1757 0.950 . S
C1768 C1766 1.391 . S
C1768 C1769 1.400 . S
C1769 C1763 1.491 . S
C1769 C1768 1.400 . S
C1769 C1770 1.398 . S
C1770 H1758 0.950 . S
C1770 C1769 1.398 . S
C1770 C1771 1.391 . S
C1771 H1759 0.950 . S
C1771 C1767 1.393 . S
C1771 C1770 1.391 . S
H1772 C1780 0.950 . S
H1773 C1785 0.950 . S
H1774 C1782 0.950 . S
H1775 C1784 0.950 . S
H1776 C1786 0.950 . S
H1777 C1788 0.950 . S
H1778 C1790 0.950 . S
H1779 C1791 0.950 . S
C1780 H1772 0.950 . S
C1780 C1781 1.386 . S
C1780 C1782 1.391 . S
C1781 C1780 1.386 . S
C1781 C1785 1.393 . S
C1782 H1774 0.950 . S
C1782 C1780 1.391 . S
C1782 C1783 1.400 . S
C1783 C1782 1.400 . S
C1783 C1784 1.398 . S
C1783 C1789 1.491 . S
C1784 H1775 0.950 . S
C1784 C1783 1.398 . S
C1784 C1785 1.391 . S
C1785 H1773 0.950 . S
C1785 C1781 1.393 . S
C1785 C1784 1.391 . S
C1786 H1776 0.950 . S
C1786 C1787 1.386 . S
C1786 C1788 1.391 . S
C1787 C1786 1.386 . S
C1787 C1791 1.393 . S
C1788 H1777 0.950 . S
C1788 C1786 1.391 . S
C1788 C1789 1.400 . S
C1789 C1783 1.491 . S
C1789 C1788 1.400 . S
C1789 C1790 1.398 . S
C1790 H1778 0.950 . S
C1790 C1789 1.398 . S
C1790 C1791 1.391 . S
C1791 H1779 0.950 . S
C1791 C1787 1.393 . S
C1791 C1790 1.391 . S
H1792 C1800 0.950 . S
H1793 C1805 0.950 . S
H1794 C1802 0.950 . S
H1795 C1804 0.950 . S
H1796 C1806 0.950 . S
H1797 C1808 0.950 . S
H1798 C1810 0.950 . S
H1799 C1811 0.950 . S
C1800 H1792 0.950 . S
C1800 C1801 1.386 . S
C1800 C1802 1.391 . S
C1801 C1800 1.386 . S
C1801 C1805 1.393 . S
C1802 H1794 0.950 . S
C1802 C1800 1.391 . S
C1802 C1803 1.400 . S
C1803 C1802 1.400 . S
C1803 C1804 1.398 . S
C1803 C1809 1.491 . S
C1804 H1795 0.950 . S
C1804 C1803 1.398 . S
C1804 C1805 1.391 . S
C1805 H1793 0.950 . S
C1805 C1801 1.393 . S
C1805 C1804 1.391 . S
C1806 H1796 0.950 . S
C1806 C1807 1.386 . S
C1806 C1808 1.391 . S
C1807 C1806 1.386 . S
C1807 C1811 1.393 . S
C1808 H1797 0.950 . S
C1808 C1806 1.391 . S
C1808 C1809 1.400 . S
C1809 C1803 1.491 . S
C1809 C1808 1.400 . S
C1809 C1810 1.398 . S
C1810 H1798 0.950 . S
C1810 C1809 1.398 . S
C1810 C1811 1.391 . S
C1811 H1799 0.950 . S
C1811 C1807 1.393 . S
C1811 C1810 1.391 . S
H1812 C1820 0.950 . S
H1813 C1825 0.950 . S
H1814 C1822 0.950 . S
H1815 C1824 0.950 . S
H1816 C1826 0.950 . S
H1817 C1828 0.950 . S
H1818 C1830 0.950 . S
H1819 C1831 0.950 . S
C1820 H1812 0.950 . S
C1820 C1821 1.386 . S
C1820 C1822 1.391 . S
C1821 C1820 1.386 . S
C1821 C1825 1.393 . S
C1822 H1814 0.950 . S
C1822 C1820 1.391 . S
C1822 C1823 1.400 . S
C1823 C1822 1.400 . S
C1823 C1824 1.398 . S
C1823 C1829 1.491 . S
C1824 H1815 0.950 . S
C1824 C1823 1.398 . S
C1824 C1825 1.391 . S
C1825 H1813 0.950 . S
C1825 C1821 1.393 . S
C1825 C1824 1.391 . S
C1826 H1816 0.950 . S
C1826 C1827 1.386 . S
C1826 C1828 1.391 . S
C1827 C1826 1.386 . S
C1827 C1831 1.393 . S
C1828 H1817 0.950 . S
C1828 C1826 1.391 . S
C1828 C1829 1.400 . S
C1829 C1823 1.491 . S
C1829 C1828 1.400 . S
C1829 C1830 1.398 . S
C1830 H1818 0.950 . S
C1830 C1829 1.398 . S
C1830 C1831 1.391 . S
C1831 H1819 0.950 . S
C1831 C1827 1.393 . S
C1831 C1830 1.391 . S
H1832 C1840 0.950 . S
H1833 C1845 0.950 . S
H1834 C1842 0.950 . S
H1835 C1844 0.950 . S
H1836 C1846 0.950 . S
H1837 C1848 0.950 . S
H1838 C1850 0.950 . S
H1839 C1851 0.950 . S
C1840 H1832 0.950 . S
C1840 C1841 1.386 . S
C1840 C1842 1.391 . S
C1841 C1840 1.386 . S
C1841 C1845 1.393 . S
C1842 H1834 0.950 . S
C1842 C1840 1.391 . S
C1842 C1843 1.400 . S
C1843 C1842 1.400 . S
C1843 C1844 1.398 . S
C1843 C1849 1.491 . S
C1844 H1835 0.950 . S
C1844 C1843 1.398 . S
C1844 C1845 1.391 . S
C1845 H1833 0.950 . S
C1845 C1841 1.393 . S
C1845 C1844 1.391 . S
C1846 H1836 0.950 . S
C1846 C1847 1.386 . S
C1846 C1848 1.391 . S
C1847 C1846 1.386 . S
C1847 C1851 1.393 . S
C1848 H1837 0.950 . S
C1848 C1846 1.391 . S
C1848 C1849 1.400 . S
C1849 C1843 1.491 . S
C1849 C1848 1.400 . S
C1849 C1850 1.398 . S
C1850 H1838 0.950 . S
C1850 C1849 1.398 . S
C1850 C1851 1.391 . S
C1851 H1839 0.950 . S
C1851 C1847 1.393 . S
C1851 C1850 1.391 . S
H1852 C1860 0.950 . S
H1853 C1865 0.950 . S
H1854 C1862 0.950 . S
H1855 C1864 0.950 . S
H1856 C1866 0.950 . S
H1857 C1868 0.950 . S
H1858 C1870 0.950 . S
H1859 C1871 0.950 . S
C1860 H1852 0.950 . S
C1860 C1861 1.386 . S
C1860 C1862 1.391 . S
C1861 C1860 1.386 . S
C1861 C1865 1.393 . S
C1862 H1854 0.950 . S
C1862 C1860 1.391 . S
C1862 C1863 1.400 . S
C1863 C1862 1.400 . S
C1863 C1864 1.398 . S
C1863 C1869 1.491 . S
C1864 H1855 0.950 . S
C1864 C1863 1.398 . S
C1864 C1865 1.391 . S
C1865 H1853 0.950 . S
C1865 C1861 1.393 . S
C1865 C1864 1.391 . S
C1866 H1856 0.950 . S
C1866 C1867 1.386 . S
C1866 C1868 1.391 . S
C1867 C1866 1.386 . S
C1867 C1871 1.393 . S
C1868 H1857 0.950 . S
C1868 C1866 1.391 . S
C1868 C1869 1.400 . S
C1869 C1863 1.491 . S
C1869 C1868 1.400 . S
C1869 C1870 1.398 . S
C1870 H1858 0.950 . S
C1870 C1869 1.398 . S
C1870 C1871 1.391 . S
C1871 H1859 0.950 . S
C1871 C1867 1.393 . S
C1871 C1870 1.391 . S
H1872 C1880 0.950 . S
H1873 C1885 0.950 . S
H1874 C1882 0.950 . S
H1875 C1884 0.950 . S
H1876 C1886 0.950 . S
H1877 C1888 0.950 . S
H1878 C1890 0.950 . S
H1879 C1891 0.950 . S
C1880 H1872 0.950 . S
C1880 C1881 1.386 . S
C1880 C1882 1.391 . S
C1881 C1880 1.386 . S
C1881 C1885 1.393 . S
C1882 H1874 0.950 . S
C1882 C1880 1.391 . S
C1882 C1883 1.400 . S
C1883 C1882 1.400 . S
C1883 C1884 1.398 . S
C1883 C1889 1.491 . S
C1884 H1875 0.950 . S
C1884 C1883 1.398 . S
C1884 C1885 1.391 . S
C1885 H1873 0.950 . S
C1885 C1881 1.393 . S
C1885 C1884 1.391 . S
C1886 H1876 0.950 . S
C1886 C1887 1.386 . S
C1886 C1888 1.391 . S
C1887 C1886 1.386 . S
C1887 C1891 1.393 . S
C1888 H1877 0.950 . S
C1888 C1886 1.391 . S
C1888 C1889 1.400 . S
C1889 C1883 1.491 . S
C1889 C1888 1.400 . S
C1889 C1890 1.398 . S
C1890 H1878 0.950 . S
C1890 C1889 1.398 . S
C1890 C1891 1.391 . S
C1891 H1879 0.950 . S
C1891 C1887 1.393 . S
C1891 C1890 1.391 . S
H1892 C1900 0.950 . S
H1893 C1905 0.950 . S
H1894 C1902 0.950 . S
H1895 C1904 0.950 . S
H1896 C1906 0.950 . S
H1897 C1908 0.950 . S
H1898 C1910 0.950 . S
H1899 C1911 0.950 1_554 S
C1900 H1892 0.950 . S
C1900 C1901 1.386 . S
C1900 C1902 1.391 . S
C1901 C1900 1.386 . S
C1901 C1905 1.393 . S
C1902 H1894 0.950 . S
C1902 C1900 1.391 . S
C1902 C1903 1.400 . S
C1903 C1902 1.400 . S
C1903 C1904 1.398 . S
C1903 C1909 1.491 . S
C1904 H1895 0.950 . S
C1904 C1903 1.398 . S
C1904 C1905 1.391 . S
C1905 H1893 0.950 . S
C1905 C1901 1.393 . S
C1905 C1904 1.391 . S
C1906 H1896 0.950 . S
C1906 C1907 1.386 . S
C1906 C1908 1.391 . S
C1907 C1906 1.386 . S
C1907 C1911 1.393 . S
C1908 H1897 0.950 . S
C1908 C1906 1.391 . S
C1908 C1909 1.400 . S
C1909 C1903 1.491 . S
C1909 C1908 1.400 . S
C1909 C1910 1.398 . S
C1910 H1898 0.950 . S
C1910 C1909 1.398 . S
C1910 C1911 1.391 . S
C1911 H1899 0.950 1_556 S
C1911 C1907 1.393 . S
C1911 C1910 1.391 . S
H1912 C1920 0.950 . S
H1913 C1925 0.950 . S
H1914 C1922 0.950 . S
H1915 C1924 0.950 . S
H1916 C1926 0.950 . S
H1917 C1928 0.950 . S
H1918 C1930 0.950 . S
H1919 C1931 0.950 . S
C1920 H1912 0.950 . S
C1920 C1921 1.386 . S
C1920 C1922 1.391 . S
C1921 C1920 1.386 . S
C1921 C1925 1.393 . S
C1922 H1914 0.950 . S
C1922 C1920 1.391 . S
C1922 C1923 1.400 . S
C1923 C1922 1.400 . S
C1923 C1924 1.398 . S
C1923 C1929 1.491 . S
C1924 H1915 0.950 . S
C1924 C1923 1.398 . S
C1924 C1925 1.391 . S
C1925 H1913 0.950 . S
C1925 C1921 1.393 . S
C1925 C1924 1.391 . S
C1926 H1916 0.950 . S
C1926 C1927 1.386 . S
C1926 C1928 1.391 . S
C1927 C1926 1.386 . S
C1927 C1931 1.393 . S
C1928 H1917 0.950 . S
C1928 C1926 1.391 . S
C1928 C1929 1.400 . S
C1929 C1923 1.491 . S
C1929 C1928 1.400 . S
C1929 C1930 1.398 . S
C1930 H1918 0.950 . S
C1930 C1929 1.398 . S
C1930 C1931 1.391 . S
C1931 H1919 0.950 . S
C1931 C1927 1.393 . S
C1931 C1930 1.391 . S
H1932 C1940 0.950 . S
H1933 C1945 0.950 . S
H1934 C1942 0.950 . S
H1935 C1944 0.950 . S
H1936 C1946 0.950 . S
H1937 C1948 0.950 . S
H1938 C1950 0.950 . S
H1939 C1951 0.950 . S
C1940 H1932 0.950 . S
C1940 C1941 1.386 . S
C1940 C1942 1.391 . S
C1941 C1940 1.386 . S
C1941 C1945 1.393 . S
C1942 H1934 0.950 . S
C1942 C1940 1.391 . S
C1942 C1943 1.400 . S
C1943 C1942 1.400 . S
C1943 C1944 1.398 . S
C1943 C1949 1.491 . S
C1944 H1935 0.950 . S
C1944 C1943 1.398 . S
C1944 C1945 1.391 . S
C1945 H1933 0.950 . S
C1945 C1941 1.393 . S
C1945 C1944 1.391 . S
C1946 H1936 0.950 . S
C1946 C1947 1.386 . S
C1946 C1948 1.391 . S
C1947 C1946 1.386 . S
C1947 C1951 1.393 . S
C1948 H1937 0.950 . S
C1948 C1946 1.391 . S
C1948 C1949 1.400 . S
C1949 C1943 1.491 . S
C1949 C1948 1.400 . S
C1949 C1950 1.398 . S
C1950 H1938 0.950 . S
C1950 C1949 1.398 . S
C1950 C1951 1.391 . S
C1951 H1939 0.950 . S
C1951 C1947 1.393 . S
C1951 C1950 1.391 . S
H1952 C1960 0.950 . S
H1953 C1965 0.950 . S
H1954 C1962 0.950 . S
H1955 C1964 0.950 . S
H1956 C1966 0.950 . S
H1957 C1968 0.950 . S
H1958 C1970 0.950 . S
H1959 C1971 0.950 . S
C1960 H1952 0.950 . S
C1960 C1961 1.386 . S
C1960 C1962 1.391 . S
C1961 C1960 1.386 . S
C1961 C1965 1.393 . S
C1962 H1954 0.950 . S
C1962 C1960 1.391 . S
C1962 C1963 1.400 . S
C1963 C1962 1.400 . S
C1963 C1964 1.398 . S
C1963 C1969 1.491 . S
C1964 H1955 0.950 . S
C1964 C1963 1.398 . S
C1964 C1965 1.391 . S
C1965 H1953 0.950 . S
C1965 C1961 1.393 . S
C1965 C1964 1.391 . S
C1966 H1956 0.950 . S
C1966 C1967 1.386 . S
C1966 C1968 1.391 . S
C1967 C1966 1.386 . S
C1967 C1971 1.393 . S
C1968 H1957 0.950 . S
C1968 C1966 1.391 . S
C1968 C1969 1.400 . S
C1969 C1963 1.491 . S
C1969 C1968 1.400 . S
C1969 C1970 1.398 . S
C1970 H1958 0.950 . S
C1970 C1969 1.398 . S
C1970 C1971 1.391 . S
C1971 H1959 0.950 . S
C1971 C1967 1.393 . S
C1971 C1970 1.391 . S
H1972 C1980 0.950 . S
H1973 C1985 0.950 . S
H1974 C1982 0.950 . S
H1975 C1984 0.950 . S
H1976 C1986 0.950 . S
H1977 C1988 0.950 . S
H1978 C1990 0.950 . S
H1979 C1991 0.950 . S
C1980 H1972 0.950 . S
C1980 C1981 1.386 . S
C1980 C1982 1.391 . S
C1981 C1980 1.386 . S
C1981 C1985 1.393 . S
C1982 H1974 0.950 . S
C1982 C1980 1.391 . S
C1982 C1983 1.400 . S
C1983 C1982 1.400 . S
C1983 C1984 1.398 . S
C1983 C1989 1.491 . S
C1984 H1975 0.950 . S
C1984 C1983 1.398 . S
C1984 C1985 1.391 . S
C1985 H1973 0.950 . S
C1985 C1981 1.393 . S
C1985 C1984 1.391 . S
C1986 H1976 0.950 . S
C1986 C1987 1.386 . S
C1986 C1988 1.391 . S
C1987 C1986 1.386 . S
C1987 C1991 1.393 . S
C1988 H1977 0.950 . S
C1988 C1986 1.391 . S
C1988 C1989 1.400 . S
C1989 C1983 1.491 . S
C1989 C1988 1.400 . S
C1989 C1990 1.398 . S
C1990 H1978 0.950 . S
C1990 C1989 1.398 . S
C1990 C1991 1.391 . S
C1991 H1979 0.950 . S
C1991 C1987 1.393 . S
C1991 C1990 1.391 . S
H1992 C2000 0.950 . S
H1993 C2005 0.950 . S
H1994 C2002 0.950 . S
H1995 C2004 0.950 . S
H1996 C2006 0.950 . S
H1997 C2008 0.950 . S
H1998 C2010 0.950 . S
H1999 C2011 0.950 1_565 S
C2000 H1992 0.950 . S
C2000 C2001 1.386 . S
C2000 C2002 1.391 . S
C2001 C2000 1.386 . S
C2001 C2005 1.393 . S
C2002 H1994 0.950 . S
C2002 C2000 1.391 . S
C2002 C2003 1.400 . S
C2003 C2002 1.400 . S
C2003 C2004 1.398 . S
C2003 C2009 1.491 . S
C2004 H1995 0.950 . S
C2004 C2003 1.398 . S
C2004 C2005 1.391 . S
C2005 H1993 0.950 . S
C2005 C2001 1.393 . S
C2005 C2004 1.391 . S
C2006 H1996 0.950 . S
C2006 C2007 1.386 . S
C2006 C2008 1.391 . S
C2007 C2006 1.386 . S
C2007 C2011 1.393 . S
C2008 H1997 0.950 . S
C2008 C2006 1.391 . S
C2008 C2009 1.400 . S
C2009 C2003 1.491 . S
C2009 C2008 1.400 . S
C2009 C2010 1.398 . S
C2010 H1998 0.950 . S
C2010 C2009 1.398 . S
C2010 C2011 1.391 . S
C2011 H1999 0.950 1_545 S
C2011 C2007 1.393 . S
C2011 C2010 1.391 . S
H2012 C2020 0.950 . S
H2013 C2025 0.950 . S
H2014 C2022 0.950 . S
H2015 C2024 0.950 . S
H2016 C2026 0.950 . S
H2017 C2028 0.950 . S
H2018 C2030 0.950 . S
H2019 C2031 0.950 . S
C2020 H2012 0.950 . S
C2020 C2021 1.386 . S
C2020 C2022 1.391 . S
C2021 C2020 1.386 . S
C2021 C2025 1.393 . S
C2022 H2014 0.950 . S
C2022 C2020 1.391 . S
C2022 C2023 1.400 . S
C2023 C2022 1.400 . S
C2023 C2024 1.398 . S
C2023 C2029 1.491 . S
C2024 H2015 0.950 . S
C2024 C2023 1.398 . S
C2024 C2025 1.391 . S
C2025 H2013 0.950 . S
C2025 C2021 1.393 . S
C2025 C2024 1.391 . S
C2026 H2016 0.950 . S
C2026 C2027 1.386 . S
C2026 C2028 1.391 . S
C2027 C2026 1.386 . S
C2027 C2031 1.393 . S
C2028 H2017 0.950 . S
C2028 C2026 1.391 . S
C2028 C2029 1.400 . S
C2029 C2023 1.491 . S
C2029 C2028 1.400 . S
C2029 C2030 1.398 . S
C2030 H2018 0.950 . S
C2030 C2029 1.398 . S
C2030 C2031 1.391 . S
C2031 H2019 0.950 . S
C2031 C2027 1.393 . S
C2031 C2030 1.391 . S
H2032 C2040 0.950 . S
H2033 C2045 0.950 . S
H2034 C2042 0.950 . S
H2035 C2044 0.950 . S
H2036 C2046 0.950 . S
H2037 C2048 0.950 . S
H2038 C2050 0.950 . S
H2039 C2051 0.950 . S
C2040 H2032 0.950 . S
C2040 C2041 1.386 . S
C2040 C2042 1.391 . S
C2041 C2040 1.386 . S
C2041 C2045 1.393 . S
C2042 H2034 0.950 . S
C2042 C2040 1.391 . S
C2042 C2043 1.400 . S
C2043 C2042 1.400 . S
C2043 C2044 1.398 . S
C2043 C2049 1.491 . S
C2044 H2035 0.950 . S
C2044 C2043 1.398 . S
C2044 C2045 1.391 . S
C2045 H2033 0.950 . S
C2045 C2041 1.393 . S
C2045 C2044 1.391 . S
C2046 H2036 0.950 . S
C2046 C2047 1.386 . S
C2046 C2048 1.391 . S
C2047 C2046 1.386 . S
C2047 C2051 1.393 . S
C2048 H2037 0.950 . S
C2048 C2046 1.391 . S
C2048 C2049 1.400 . S
C2049 C2043 1.491 . S
C2049 C2048 1.400 . S
C2049 C2050 1.398 . S
C2050 H2038 0.950 . S
C2050 C2049 1.398 . S
C2050 C2051 1.391 . S
C2051 H2039 0.950 . S
C2051 C2047 1.393 . S
C2051 C2050 1.391 . S
H2052 C2060 0.950 . S
H2053 C2065 0.950 . S
H2054 C2062 0.950 . S
H2055 C2064 0.950 . S
H2056 C2066 0.950 . S
H2057 C2068 0.950 . S
H2058 C2070 0.950 . S
H2059 C2071 0.950 . S
C2060 H2052 0.950 . S
C2060 C2061 1.386 . S
C2060 C2062 1.391 . S
C2061 C2060 1.386 . S
C2061 C2065 1.393 . S
C2062 H2054 0.950 . S
C2062 C2060 1.391 . S
C2062 C2063 1.400 . S
C2063 C2062 1.400 . S
C2063 C2064 1.398 . S
C2063 C2069 1.491 . S
C2064 H2055 0.950 . S
C2064 C2063 1.398 . S
C2064 C2065 1.391 . S
C2065 H2053 0.950 . S
C2065 C2061 1.393 . S
C2065 C2064 1.391 . S
C2066 H2056 0.950 . S
C2066 C2067 1.386 . S
C2066 C2068 1.391 . S
C2067 C2066 1.386 . S
C2067 C2071 1.393 . S
C2068 H2057 0.950 . S
C2068 C2066 1.391 . S
C2068 C2069 1.400 . S
C2069 C2063 1.491 . S
C2069 C2068 1.400 . S
C2069 C2070 1.398 . S
C2070 H2058 0.950 . S
C2070 C2069 1.398 . S
C2070 C2071 1.391 . S
C2071 H2059 0.950 . S
C2071 C2067 1.393 . S
C2071 C2070 1.391 . S
H2072 C2080 0.950 . S
H2073 C2085 0.950 1_545 S
H2074 C2082 0.950 . S
H2075 C2084 0.950 . S
H2076 C2086 0.950 . S
H2077 C2088 0.950 . S
H2078 C2090 0.950 . S
H2079 C2091 0.950 . S
C2080 H2072 0.950 . S
C2080 C2081 1.386 . S
C2080 C2082 1.391 . S
C2081 C2080 1.386 . S
C2081 C2085 1.393 . S
C2082 H2074 0.950 . S
C2082 C2080 1.391 . S
C2082 C2083 1.400 . S
C2083 C2082 1.400 . S
C2083 C2084 1.398 . S
C2083 C2089 1.491 . S
C2084 H2075 0.950 . S
C2084 C2083 1.398 . S
C2084 C2085 1.391 . S
C2085 H2073 0.950 1_565 S
C2085 C2081 1.393 . S
C2085 C2084 1.391 . S
C2086 H2076 0.950 . S
C2086 C2087 1.386 . S
C2086 C2088 1.391 . S
C2087 C2086 1.386 . S
C2087 C2091 1.393 . S
C2088 H2077 0.950 . S
C2088 C2086 1.391 . S
C2088 C2089 1.400 . S
C2089 C2083 1.491 . S
C2089 C2088 1.400 . S
C2089 C2090 1.398 . S
C2090 H2078 0.950 . S
C2090 C2089 1.398 . S
C2090 C2091 1.391 . S
C2091 H2079 0.950 . S
C2091 C2087 1.393 . S
C2091 C2090 1.391 . S
H2092 C2100 0.950 . S
H2093 C2105 0.950 . S
H2094 C2102 0.950 . S
H2095 C2104 0.950 . S
H2096 C2106 0.950 . S
H2097 C2108 0.950 . S
H2098 C2110 0.950 . S
H2099 C2111 0.950 1_565 S
C2100 H2092 0.950 . S
C2100 C2101 1.386 . S
C2100 C2102 1.391 . S
C2101 C2100 1.386 . S
C2101 C2105 1.393 . S
C2102 H2094 0.950 . S
C2102 C2100 1.391 . S
C2102 C2103 1.400 . S
C2103 C2102 1.400 . S
C2103 C2104 1.398 . S
C2103 C2109 1.491 . S
C2104 H2095 0.950 . S
C2104 C2103 1.398 . S
C2104 C2105 1.391 . S
C2105 H2093 0.950 . S
C2105 C2101 1.393 . S
C2105 C2104 1.391 . S
C2106 H2096 0.950 . S
C2106 C2107 1.386 . S
C2106 C2108 1.391 . S
C2107 C2106 1.386 . S
C2107 C2111 1.393 . S
C2108 H2097 0.950 . S
C2108 C2106 1.391 . S
C2108 C2109 1.400 . S
C2109 C2103 1.491 . S
C2109 C2108 1.400 . S
C2109 C2110 1.398 . S
C2110 H2098 0.950 . S
C2110 C2109 1.398 . S
C2110 C2111 1.391 . S
C2111 H2099 0.950 1_545 S
C2111 C2107 1.393 . S
C2111 C2110 1.391 . S
H2112 C2120 0.950 . S
H2113 C2125 0.950 . S
H2114 C2122 0.950 . S
H2115 C2124 0.950 . S
H2116 C2126 0.950 . S
H2117 C2128 0.950 . S
H2118 C2130 0.950 . S
H2119 C2131 0.950 . S
C2120 H2112 0.950 . S
C2120 C2121 1.386 . S
C2120 C2122 1.391 . S
C2121 C2120 1.386 . S
C2121 C2125 1.393 . S
C2122 H2114 0.950 . S
C2122 C2120 1.391 . S
C2122 C2123 1.400 . S
C2123 C2122 1.400 . S
C2123 C2124 1.398 . S
C2123 C2129 1.491 . S
C2124 H2115 0.950 . S
C2124 C2123 1.398 . S
C2124 C2125 1.391 . S
C2125 H2113 0.950 . S
C2125 C2121 1.393 . S
C2125 C2124 1.391 . S
C2126 H2116 0.950 . S
C2126 C2127 1.386 . S
C2126 C2128 1.391 . S
C2127 C2126 1.386 . S
C2127 C2131 1.393 . S
C2128 H2117 0.950 . S
C2128 C2126 1.391 . S
C2128 C2129 1.400 . S
C2129 C2123 1.491 . S
C2129 C2128 1.400 . S
C2129 C2130 1.398 . S
C2130 H2118 0.950 . S
C2130 C2129 1.398 . S
C2130 C2131 1.391 . S
C2131 H2119 0.950 . S
C2131 C2127 1.393 . S
C2131 C2130 1.391 . S
H2132 C2140 0.950 . S
H2133 C2145 0.950 . S
H2134 C2142 0.950 . S
H2135 C2144 0.950 . S
H2136 C2146 0.950 . S
H2137 C2148 0.950 . S
H2138 C2150 0.950 . S
H2139 C2151 0.950 . S
C2140 H2132 0.950 . S
C2140 C2141 1.386 . S
C2140 C2142 1.391 . S
C2141 C2140 1.386 . S
C2141 C2145 1.393 . S
C2142 H2134 0.950 . S
C2142 C2140 1.391 . S
C2142 C2143 1.400 . S
C2143 C2142 1.400 . S
C2143 C2144 1.398 . S
C2143 C2149 1.491 . S
C2144 H2135 0.950 . S
C2144 C2143 1.398 . S
C2144 C2145 1.391 . S
C2145 H2133 0.950 . S
C2145 C2141 1.393 . S
C2145 C2144 1.391 . S
C2146 H2136 0.950 . S
C2146 C2147 1.386 . S
C2146 C2148 1.391 . S
C2147 C2146 1.386 . S
C2147 C2151 1.393 . S
C2148 H2137 0.950 . S
C2148 C2146 1.391 . S
C2148 C2149 1.400 . S
C2149 C2143 1.491 . S
C2149 C2148 1.400 . S
C2149 C2150 1.398 . S
C2150 H2138 0.950 . S
C2150 C2149 1.398 . S
C2150 C2151 1.391 . S
C2151 H2139 0.950 . S
C2151 C2147 1.393 . S
C2151 C2150 1.391 . S
H2152 C2160 0.950 . S
H2153 C2165 0.950 . S
H2154 C2162 0.950 . S
H2155 C2164 0.950 . S
H2156 C2166 0.950 . S
H2157 C2168 0.950 . S
H2158 C2170 0.950 . S
H2159 C2171 0.950 . S
C2160 H2152 0.950 . S
C2160 C2161 1.386 . S
C2160 C2162 1.391 . S
C2161 C2160 1.386 . S
C2161 C2165 1.393 . S
C2162 H2154 0.950 . S
C2162 C2160 1.391 . S
C2162 C2163 1.400 . S
C2163 C2162 1.400 . S
C2163 C2164 1.398 . S
C2163 C2169 1.491 . S
C2164 H2155 0.950 . S
C2164 C2163 1.398 . S
C2164 C2165 1.391 . S
C2165 H2153 0.950 . S
C2165 C2161 1.393 . S
C2165 C2164 1.391 . S
C2166 H2156 0.950 . S
C2166 C2167 1.386 . S
C2166 C2168 1.391 . S
C2167 C2166 1.386 . S
C2167 C2171 1.393 . S
C2168 H2157 0.950 . S
C2168 C2166 1.391 . S
C2168 C2169 1.400 . S
C2169 C2163 1.491 . S
C2169 C2168 1.400 . S
C2169 C2170 1.398 . S
C2170 H2158 0.950 . S
C2170 C2169 1.398 . S
C2170 C2171 1.391 . S
C2171 H2159 0.950 . S
C2171 C2167 1.393 . S
C2171 C2170 1.391 . S
H2172 C2180 0.950 . S
H2173 C2185 0.950 . S
H2174 C2182 0.950 . S
H2175 C2184 0.950 . S
H2176 C2186 0.950 . S
H2177 C2188 0.950 . S
H2178 C2190 0.950 . S
H2179 C2191 0.950 . S
C2180 H2172 0.950 . S
C2180 C2181 1.386 . S
C2180 C2182 1.391 . S
C2181 C2180 1.386 . S
C2181 C2185 1.393 . S
C2182 H2174 0.950 . S
C2182 C2180 1.391 . S
C2182 C2183 1.400 . S
C2183 C2182 1.400 . S
C2183 C2184 1.398 . S
C2183 C2189 1.491 . S
C2184 H2175 0.950 . S
C2184 C2183 1.398 . S
C2184 C2185 1.391 . S
C2185 H2173 0.950 . S
C2185 C2181 1.393 . S
C2185 C2184 1.391 . S
C2186 H2176 0.950 . S
C2186 C2187 1.386 . S
C2186 C2188 1.391 . S
C2187 C2186 1.386 . S
C2187 C2191 1.393 . S
C2188 H2177 0.950 . S
C2188 C2186 1.391 . S
C2188 C2189 1.400 . S
C2189 C2183 1.491 . S
C2189 C2188 1.400 . S
C2189 C2190 1.398 . S
C2190 H2178 0.950 . S
C2190 C2189 1.398 . S
C2190 C2191 1.391 . S
C2191 H2179 0.950 . S
C2191 C2187 1.393 . S
C2191 C2190 1.391 . S
H2192 C2200 0.950 . S
H2193 C2205 0.950 . S
H2194 C2202 0.950 . S
H2195 C2204 0.950 . S
H2196 C2206 0.950 . S
H2197 C2208 0.950 . S
H2198 C2210 0.950 . S
H2199 C2211 0.950 . S
C2200 H2192 0.950 . S
C2200 C2201 1.386 . S
C2200 C2202 1.391 . S
C2201 C2200 1.386 . S
C2201 C2205 1.393 . S
C2202 H2194 0.950 . S
C2202 C2200 1.391 . S
C2202 C2203 1.400 . S
C2203 C2202 1.400 . S
C2203 C2204 1.398 . S
C2203 C2209 1.491 . S
C2204 H2195 0.950 . S
C2204 C2203 1.398 . S
C2204 C2205 1.391 . S
C2205 H2193 0.950 . S
C2205 C2201 1.393 . S
C2205 C2204 1.391 . S
C2206 H2196 0.950 . S
C2206 C2207 1.386 . S
C2206 C2208 1.391 . S
C2207 C2206 1.386 . S
C2207 C2211 1.393 . S
C2208 H2197 0.950 . S
C2208 C2206 1.391 . S
C2208 C2209 1.400 . S
C2209 C2203 1.491 . S
C2209 C2208 1.400 . S
C2209 C2210 1.398 . S
C2210 H2198 0.950 . S
C2210 C2209 1.398 . S
C2210 C2211 1.391 . S
C2211 H2199 0.950 . S
C2211 C2207 1.393 . S
C2211 C2210 1.391 . S
H2212 C2220 0.950 . S
H2213 C2225 0.950 . S
H2214 C2222 0.950 . S
H2215 C2224 0.950 . S
H2216 C2226 0.950 . S
H2217 C2228 0.950 . S
H2218 C2230 0.950 . S
H2219 C2231 0.950 . S
C2220 H2212 0.950 . S
C2220 C2221 1.386 . S
C2220 C2222 1.391 . S
C2221 C2220 1.386 . S
C2221 C2225 1.393 . S
C2222 H2214 0.950 . S
C2222 C2220 1.391 . S
C2222 C2223 1.400 . S
C2223 C2222 1.400 . S
C2223 C2224 1.398 . S
C2223 C2229 1.491 . S
C2224 H2215 0.950 . S
C2224 C2223 1.398 . S
C2224 C2225 1.391 . S
C2225 H2213 0.950 . S
C2225 C2221 1.393 . S
C2225 C2224 1.391 . S
C2226 H2216 0.950 . S
C2226 C2227 1.386 . S
C2226 C2228 1.391 . S
C2227 C2226 1.386 . S
C2227 C2231 1.393 . S
C2228 H2217 0.950 . S
C2228 C2226 1.391 . S
C2228 C2229 1.400 . S
C2229 C2223 1.491 . S
C2229 C2228 1.400 . S
C2229 C2230 1.398 . S
C2230 H2218 0.950 . S
C2230 C2229 1.398 . S
C2230 C2231 1.391 . S
C2231 H2219 0.950 . S
C2231 C2227 1.393 . S
C2231 C2230 1.391 . S
H2232 C2240 0.950 . S
H2233 C2245 0.950 . S
H2234 C2242 0.950 . S
H2235 C2244 0.950 . S
H2236 C2246 0.950 . S
H2237 C2248 0.950 . S
H2238 C2250 0.950 . S
H2239 C2251 0.950 . S
C2240 H2232 0.950 . S
C2240 C2241 1.386 . S
C2240 C2242 1.391 . S
C2241 C2240 1.386 . S
C2241 C2245 1.393 . S
C2242 H2234 0.950 . S
C2242 C2240 1.391 . S
C2242 C2243 1.400 . S
C2243 C2242 1.400 . S
C2243 C2244 1.398 . S
C2243 C2249 1.491 . S
C2244 H2235 0.950 . S
C2244 C2243 1.398 . S
C2244 C2245 1.391 . S
C2245 H2233 0.950 . S
C2245 C2241 1.393 . S
C2245 C2244 1.391 . S
C2246 H2236 0.950 . S
C2246 C2247 1.386 . S
C2246 C2248 1.391 . S
C2247 C2246 1.386 . S
C2247 C2251 1.393 . S
C2248 H2237 0.950 . S
C2248 C2246 1.391 . S
C2248 C2249 1.400 . S
C2249 C2243 1.491 . S
C2249 C2248 1.400 . S
C2249 C2250 1.398 . S
C2250 H2238 0.950 . S
C2250 C2249 1.398 . S
C2250 C2251 1.391 . S
C2251 H2239 0.950 . S
C2251 C2247 1.393 . S
C2251 C2250 1.391 . S
H2252 C2260 0.950 . S
H2253 C2265 0.950 . S
H2254 C2262 0.950 . S
H2255 C2264 0.950 . S
H2256 C2266 0.950 . S
H2257 C2268 0.950 . S
H2258 C2270 0.950 . S
H2259 C2271 0.950 . S
C2260 H2252 0.950 . S
C2260 C2261 1.386 . S
C2260 C2262 1.391 . S
C2261 C2260 1.386 . S
C2261 C2265 1.393 . S
C2262 H2254 0.950 . S
C2262 C2260 1.391 . S
C2262 C2263 1.400 . S
C2263 C2262 1.400 . S
C2263 C2264 1.398 . S
C2263 C2269 1.491 . S
C2264 H2255 0.950 . S
C2264 C2263 1.398 . S
C2264 C2265 1.391 . S
C2265 H2253 0.950 . S
C2265 C2261 1.393 . S
C2265 C2264 1.391 . S
C2266 H2256 0.950 . S
C2266 C2267 1.386 . S
C2266 C2268 1.391 . S
C2267 C2266 1.386 . S
C2267 C2271 1.393 . S
C2268 H2257 0.950 . S
C2268 C2266 1.391 . S
C2268 C2269 1.400 . S
C2269 C2263 1.491 . S
C2269 C2268 1.400 . S
C2269 C2270 1.398 . S
C2270 H2258 0.950 . S
C2270 C2269 1.398 . S
C2270 C2271 1.391 . S
C2271 H2259 0.950 . S
C2271 C2267 1.393 . S
C2271 C2270 1.391 . S
H2272 C2280 0.950 . S
H2273 C2285 0.950 . S
H2274 C2282 0.950 . S
H2275 C2284 0.950 . S
H2276 C2286 0.950 . S
H2277 C2288 0.950 . S
H2278 C2290 0.950 . S
H2279 C2291 0.950 . S
C2280 H2272 0.950 . S
C2280 C2281 1.386 . S
C2280 C2282 1.391 . S
C2281 C2280 1.386 . S
C2281 C2285 1.393 . S
C2282 H2274 0.950 . S
C2282 C2280 1.391 . S
C2282 C2283 1.400 . S
C2283 C2282 1.400 . S
C2283 C2284 1.398 . S
C2283 C2289 1.491 . S
C2284 H2275 0.950 . S
C2284 C2283 1.398 . S
C2284 C2285 1.391 . S
C2285 H2273 0.950 . S
C2285 C2281 1.393 . S
C2285 C2284 1.391 . S
C2286 H2276 0.950 . S
C2286 C2287 1.386 . S
C2286 C2288 1.391 . S
C2287 C2286 1.386 . S
C2287 C2291 1.393 . S
C2288 H2277 0.950 . S
C2288 C2286 1.391 . S
C2288 C2289 1.400 . S
C2289 C2283 1.491 . S
C2289 C2288 1.400 . S
C2289 C2290 1.398 . S
C2290 H2278 0.950 . S
C2290 C2289 1.398 . S
C2290 C2291 1.391 . S
C2291 H2279 0.950 . S
C2291 C2287 1.393 . S
C2291 C2290 1.391 . S
H2292 C2300 0.950 . S
H2293 C2305 0.950 . S
H2294 C2302 0.950 . S
H2295 C2304 0.950 . S
H2296 C2306 0.950 . S
H2297 C2308 0.950 . S
H2298 C2310 0.950 . S
H2299 C2311 0.950 . S
C2300 H2292 0.950 . S
C2300 C2301 1.386 . S
C2300 C2302 1.391 . S
C2301 C2300 1.386 . S
C2301 C2305 1.393 . S
C2302 H2294 0.950 . S
C2302 C2300 1.391 . S
C2302 C2303 1.400 . S
C2303 C2302 1.400 . S
C2303 C2304 1.398 . S
C2303 C2309 1.491 . S
C2304 H2295 0.950 . S
C2304 C2303 1.398 . S
C2304 C2305 1.391 . S
C2305 H2293 0.950 . S
C2305 C2301 1.393 . S
C2305 C2304 1.391 . S
C2306 H2296 0.950 . S
C2306 C2307 1.386 . S
C2306 C2308 1.391 . S
C2307 C2306 1.386 . S
C2307 C2311 1.393 . S
C2308 H2297 0.950 . S
C2308 C2306 1.391 . S
C2308 C2309 1.400 . S
C2309 C2303 1.491 . S
C2309 C2308 1.400 . S
C2309 C2310 1.398 . S
C2310 H2298 0.950 . S
C2310 C2309 1.398 . S
C2310 C2311 1.391 . S
C2311 H2299 0.950 . S
C2311 C2307 1.393 . S
C2311 C2310 1.391 . S
H2312 C2320 0.950 . S
H2313 C2325 0.950 . S
H2314 C2322 0.950 . S
H2315 C2324 0.950 . S
H2316 C2326 0.950 . S
H2317 C2328 0.950 . S
H2318 C2330 0.950 . S
H2319 C2331 0.950 . S
C2320 H2312 0.950 . S
C2320 C2321 1.386 . S
C2320 C2322 1.391 . S
C2321 C2320 1.386 . S
C2321 C2325 1.393 . S
C2322 H2314 0.950 . S
C2322 C2320 1.391 . S
C2322 C2323 1.400 . S
C2323 C2322 1.400 . S
C2323 C2324 1.398 . S
C2323 C2329 1.491 . S
C2324 H2315 0.950 . S
C2324 C2323 1.398 . S
C2324 C2325 1.391 . S
C2325 H2313 0.950 . S
C2325 C2321 1.393 . S
C2325 C2324 1.391 . S
C2326 H2316 0.950 . S
C2326 C2327 1.386 . S
C2326 C2328 1.391 . S
C2327 C2326 1.386 . S
C2327 C2331 1.393 . S
C2328 H2317 0.950 . S
C2328 C2326 1.391 . S
C2328 C2329 1.400 . S
C2329 C2323 1.491 . S
C2329 C2328 1.400 . S
C2329 C2330 1.398 . S
C2330 H2318 0.950 . S
C2330 C2329 1.398 . S
C2330 C2331 1.391 . S
C2331 H2319 0.950 . S
C2331 C2327 1.393 . S
C2331 C2330 1.391 . S
H2332 C2340 0.950 . S
H2333 C2345 0.950 . S
H2334 C2342 0.950 . S
H2335 C2344 0.950 . S
H2336 C2346 0.950 . S
H2337 C2348 0.950 . S
H2338 C2350 0.950 . S
H2339 C2351 0.950 . S
C2340 H2332 0.950 . S
C2340 C2341 1.386 . S
C2340 C2342 1.391 . S
C2341 C2340 1.386 . S
C2341 C2345 1.393 . S
C2342 H2334 0.950 . S
C2342 C2340 1.391 . S
C2342 C2343 1.400 . S
C2343 C2342 1.400 . S
C2343 C2344 1.398 . S
C2343 C2349 1.491 . S
C2344 H2335 0.950 . S
C2344 C2343 1.398 . S
C2344 C2345 1.391 . S
C2345 H2333 0.950 . S
C2345 C2341 1.393 . S
C2345 C2344 1.391 . S
C2346 H2336 0.950 . S
C2346 C2347 1.386 . S
C2346 C2348 1.391 . S
C2347 C2346 1.386 . S
C2347 C2351 1.393 . S
C2348 H2337 0.950 . S
C2348 C2346 1.391 . S
C2348 C2349 1.400 . S
C2349 C2343 1.491 . S
C2349 C2348 1.400 . S
C2349 C2350 1.398 . S
C2350 H2338 0.950 . S
C2350 C2349 1.398 . S
C2350 C2351 1.391 . S
C2351 H2339 0.950 . S
C2351 C2347 1.393 . S
C2351 C2350 1.391 . S
H2352 C2360 0.950 . S
H2353 C2365 0.950 . S
H2354 C2362 0.950 . S
H2355 C2364 0.950 . S
H2356 C2366 0.950 . S
H2357 C2368 0.950 . S
H2358 C2370 0.950 . S
H2359 C2371 0.950 . S
C2360 H2352 0.950 . S
C2360 C2361 1.386 . S
C2360 C2362 1.391 . S
C2361 C2360 1.386 . S
C2361 C2365 1.393 . S
C2362 H2354 0.950 . S
C2362 C2360 1.391 . S
C2362 C2363 1.400 . S
C2363 C2362 1.400 . S
C2363 C2364 1.398 . S
C2363 C2369 1.491 . S
C2364 H2355 0.950 . S
C2364 C2363 1.398 . S
C2364 C2365 1.391 . S
C2365 H2353 0.950 . S
C2365 C2361 1.393 . S
C2365 C2364 1.391 . S
C2366 H2356 0.950 . S
C2366 C2367 1.386 . S
C2366 C2368 1.391 . S
C2367 C2366 1.386 . S
C2367 C2371 1.393 . S
C2368 H2357 0.950 . S
C2368 C2366 1.391 . S
C2368 C2369 1.400 . S
C2369 C2363 1.491 . S
C2369 C2368 1.400 . S
C2369 C2370 1.398 . S
C2370 H2358 0.950 . S
C2370 C2369 1.398 . S
C2370 C2371 1.391 . S
C2371 H2359 0.950 . S
C2371 C2367 1.393 . S
C2371 C2370 1.391 . S
H2372 C2380 0.950 . S
H2373 C2385 0.950 . S
H2374 C2382 0.950 . S
H2375 C2384 0.950 . S
H2376 C2386 0.950 . S
H2377 C2388 0.950 . S
H2378 C2390 0.950 . S
H2379 C2391 0.950 . S
C2380 H2372 0.950 . S
C2380 C2381 1.386 . S
C2380 C2382 1.391 . S
C2381 C2380 1.386 . S
C2381 C2385 1.393 . S
C2382 H2374 0.950 . S
C2382 C2380 1.391 . S
C2382 C2383 1.400 . S
C2383 C2382 1.400 . S
C2383 C2384 1.398 . S
C2383 C2389 1.491 . S
C2384 H2375 0.950 . S
C2384 C2383 1.398 . S
C2384 C2385 1.391 . S
C2385 H2373 0.950 . S
C2385 C2381 1.393 . S
C2385 C2384 1.391 . S
C2386 H2376 0.950 . S
C2386 C2387 1.386 . S
C2386 C2388 1.391 . S
C2387 C2386 1.386 . S
C2387 C2391 1.393 . S
C2388 H2377 0.950 . S
C2388 C2386 1.391 . S
C2388 C2389 1.400 . S
C2389 C2383 1.491 . S
C2389 C2388 1.400 . S
C2389 C2390 1.398 . S
C2390 H2378 0.950 . S
C2390 C2389 1.398 . S
C2390 C2391 1.391 . S
C2391 H2379 0.950 . S
C2391 C2387 1.393 . S
C2391 C2390 1.391 . S
H2392 C2400 0.950 . S
H2393 C2405 0.950 . S
H2394 C2402 0.950 . S
H2395 C2404 0.950 . S
H2396 C2406 0.950 . S
H2397 C2408 0.950 . S
H2398 C2410 0.950 . S
H2399 C2411 0.950 . S
C2400 H2392 0.950 . S
C2400 C2401 1.386 . S
C2400 C2402 1.391 . S
C2401 C2400 1.386 . S
C2401 C2405 1.393 . S
C2402 H2394 0.950 . S
C2402 C2400 1.391 . S
C2402 C2403 1.400 . S
C2403 C2402 1.400 . S
C2403 C2404 1.398 . S
C2403 C2409 1.491 . S
C2404 H2395 0.950 . S
C2404 C2403 1.398 . S
C2404 C2405 1.391 . S
C2405 H2393 0.950 . S
C2405 C2401 1.393 . S
C2405 C2404 1.391 . S
C2406 H2396 0.950 . S
C2406 C2407 1.386 . S
C2406 C2408 1.391 . S
C2407 C2406 1.386 . S
C2407 C2411 1.393 . S
C2408 H2397 0.950 . S
C2408 C2406 1.391 . S
C2408 C2409 1.400 . S
C2409 C2403 1.491 . S
C2409 C2408 1.400 . S
C2409 C2410 1.398 . S
C2410 H2398 0.950 . S
C2410 C2409 1.398 . S
C2410 C2411 1.391 . S
C2411 H2399 0.950 . S
C2411 C2407 1.393 . S
C2411 C2410 1.391 . S
H2412 C2420 0.950 . S
H2413 C2425 0.950 . S
H2414 C2422 0.950 . S
H2415 C2424 0.950 . S
H2416 C2426 0.950 . S
H2417 C2428 0.950 . S
H2418 C2430 0.950 . S
H2419 C2431 0.950 . S
C2420 H2412 0.950 . S
C2420 C2421 1.386 . S
C2420 C2422 1.391 . S
C2421 C2420 1.386 . S
C2421 C2425 1.393 . S
C2422 H2414 0.950 . S
C2422 C2420 1.391 . S
C2422 C2423 1.400 . S
C2423 C2422 1.400 . S
C2423 C2424 1.398 . S
C2423 C2429 1.491 . S
C2424 H2415 0.950 . S
C2424 C2423 1.398 . S
C2424 C2425 1.391 . S
C2425 H2413 0.950 . S
C2425 C2421 1.393 . S
C2425 C2424 1.391 . S
C2426 H2416 0.950 . S
C2426 C2427 1.386 . S
C2426 C2428 1.391 . S
C2427 C2426 1.386 . S
C2427 C2431 1.393 . S
C2428 H2417 0.950 . S
C2428 C2426 1.391 . S
C2428 C2429 1.400 . S
C2429 C2423 1.491 . S
C2429 C2428 1.400 . S
C2429 C2430 1.398 . S
C2430 H2418 0.950 . S
C2430 C2429 1.398 . S
C2430 C2431 1.391 . S
C2431 H2419 0.950 . S
C2431 C2427 1.393 . S
C2431 C2430 1.391 . S
H2432 C2440 0.950 . S
H2433 C2445 0.950 . S
H2434 C2442 0.950 . S
H2435 C2444 0.950 . S
H2436 C2446 0.950 . S
H2437 C2448 0.950 . S
H2438 C2450 0.950 . S
H2439 C2451 0.950 . S
C2440 H2432 0.950 . S
C2440 C2441 1.386 . S
C2440 C2442 1.391 . S
C2441 C2440 1.386 . S
C2441 C2445 1.393 . S
C2442 H2434 0.950 . S
C2442 C2440 1.391 . S
C2442 C2443 1.400 . S
C2443 C2442 1.400 . S
C2443 C2444 1.398 . S
C2443 C2449 1.491 . S
C2444 H2435 0.950 . S
C2444 C2443 1.398 . S
C2444 C2445 1.391 . S
C2445 H2433 0.950 . S
C2445 C2441 1.393 . S
C2445 C2444 1.391 . S
C2446 H2436 0.950 . S
C2446 C2447 1.386 . S
C2446 C2448 1.391 . S
C2447 C2446 1.386 . S
C2447 C2451 1.393 . S
C2448 H2437 0.950 . S
C2448 C2446 1.391 . S
C2448 C2449 1.400 . S
C2449 C2443 1.491 . S
C2449 C2448 1.400 . S
C2449 C2450 1.398 . S
C2450 H2438 0.950 . S
C2450 C2449 1.398 . S
C2450 C2451 1.391 . S
C2451 H2439 0.950 . S
C2451 C2447 1.393 . S
C2451 C2450 1.391 . S
H2452 C2460 0.950 . S
H2453 C2465 0.950 . S
H2454 C2462 0.950 . S
H2455 C2464 0.950 . S
H2456 C2466 0.950 . S
H2457 C2468 0.950 . S
H2458 C2470 0.950 . S
H2459 C2471 0.950 . S
C2460 H2452 0.950 . S
C2460 C2461 1.386 . S
C2460 C2462 1.391 . S
C2461 C2460 1.386 . S
C2461 C2465 1.393 . S
C2462 H2454 0.950 . S
C2462 C2460 1.391 . S
C2462 C2463 1.400 . S
C2463 C2462 1.400 . S
C2463 C2464 1.398 . S
C2463 C2469 1.491 . S
C2464 H2455 0.950 . S
C2464 C2463 1.398 . S
C2464 C2465 1.391 . S
C2465 H2453 0.950 . S
C2465 C2461 1.393 . S
C2465 C2464 1.391 . S
C2466 H2456 0.950 . S
C2466 C2467 1.386 . S
C2466 C2468 1.391 . S
C2467 C2466 1.386 . S
C2467 C2471 1.393 . S
C2468 H2457 0.950 . S
C2468 C2466 1.391 . S
C2468 C2469 1.400 . S
C2469 C2463 1.491 . S
C2469 C2468 1.400 . S
C2469 C2470 1.398 . S
C2470 H2458 0.950 . S
C2470 C2469 1.398 . S
C2470 C2471 1.391 . S
C2471 H2459 0.950 . S
C2471 C2467 1.393 . S
C2471 C2470 1.391 . S
H2472 C2480 0.950 . S
H2473 C2485 0.950 . S
H2474 C2482 0.950 . S
H2475 C2484 0.950 . S
H2476 C2486 0.950 . S
H2477 C2488 0.950 . S
H2478 C2490 0.950 . S
H2479 C2491 0.950 . S
C2480 H2472 0.950 . S
C2480 C2481 1.386 . S
C2480 C2482 1.391 . S
C2481 C2480 1.386 . S
C2481 C2485 1.393 . S
C2482 H2474 0.950 . S
C2482 C2480 1.391 . S
C2482 C2483 1.400 . S
C2483 C2482 1.400 . S
C2483 C2484 1.398 . S
C2483 C2489 1.491 . S
C2484 H2475 0.950 . S
C2484 C2483 1.398 . S
C2484 C2485 1.391 . S
C2485 H2473 0.950 . S
C2485 C2481 1.393 . S
C2485 C2484 1.391 . S
C2486 H2476 0.950 . S
C2486 C2487 1.386 . S
C2486 C2488 1.391 . S
C2487 C2486 1.386 . S
C2487 C2491 1.393 . S
C2488 H2477 0.950 . S
C2488 C2486 1.391 . S
C2488 C2489 1.400 . S
C2489 C2483 1.491 . S
C2489 C2488 1.400 . S
C2489 C2490 1.398 . S
C2490 H2478 0.950 . S
C2490 C2489 1.398 . S
C2490 C2491 1.391 . S
C2491 H2479 0.950 . S
C2491 C2487 1.393 . S
C2491 C2490 1.391 . S
H2492 C2500 0.950 . S
H2493 C2505 0.950 . S
H2494 C2502 0.950 . S
H2495 C2504 0.950 . S
H2496 C2506 0.950 . S
H2497 C2508 0.950 . S
H2498 C2510 0.950 . S
H2499 C2511 0.950 . S
C2500 H2492 0.950 . S
C2500 C2501 1.386 . S
C2500 C2502 1.391 . S
C2501 C2500 1.386 . S
C2501 C2505 1.393 . S
C2502 H2494 0.950 . S
C2502 C2500 1.391 . S
C2502 C2503 1.400 . S
C2503 C2502 1.400 . S
C2503 C2504 1.398 . S
C2503 C2509 1.491 . S
C2504 H2495 0.950 . S
C2504 C2503 1.398 . S
C2504 C2505 1.391 . S
C2505 H2493 0.950 . S
C2505 C2501 1.393 . S
C2505 C2504 1.391 . S
C2506 H2496 0.950 . S
C2506 C2507 1.386 . S
C2506 C2508 1.391 . S
C2507 C2506 1.386 . S
C2507 C2511 1.393 . S
C2508 H2497 0.950 . S
C2508 C2506 1.391 . S
C2508 C2509 1.400 . S
C2509 C2503 1.491 . S
C2509 C2508 1.400 . S
C2509 C2510 1.398 . S
C2510 H2498 0.950 . S
C2510 C2509 1.398 . S
C2510 C2511 1.391 . S
C2511 H2499 0.950 . S
C2511 C2507 1.393 . S
C2511 C2510 1.391 . S
H2512 C2520 0.950 . S
H2513 C2525 0.950 . S
H2514 C2522 0.950 . S
H2515 C2524 0.950 . S
H2516 C2526 0.950 . S
H2517 C2528 0.950 . S
H2518 C2530 0.950 . S
H2519 C2531 0.950 . S
C2520 H2512 0.950 . S
C2520 C2521 1.386 . S
C2520 C2522 1.391 . S
C2521 C2520 1.386 . S
C2521 C2525 1.393 . S
C2522 H2514 0.950 . S
C2522 C2520 1.391 . S
C2522 C2523 1.400 . S
C2523 C2522 1.400 . S
C2523 C2524 1.398 . S
C2523 C2529 1.491 . S
C2524 H2515 0.950 . S
C2524 C2523 1.398 . S
C2524 C2525 1.391 . S
C2525 H2513 0.950 . S
C2525 C2521 1.393 . S
C2525 C2524 1.391 . S
C2526 H2516 0.950 . S
C2526 C2527 1.386 . S
C2526 C2528 1.391 . S
C2527 C2526 1.386 . S
C2527 C2531 1.393 . S
C2528 H2517 0.950 . S
C2528 C2526 1.391 . S
C2528 C2529 1.400 . S
C2529 C2523 1.491 . S
C2529 C2528 1.400 . S
C2529 C2530 1.398 . S
C2530 H2518 0.950 . S
C2530 C2529 1.398 . S
C2530 C2531 1.391 . S
C2531 H2519 0.950 . S
C2531 C2527 1.393 . S
C2531 C2530 1.391 . S
H2532 C2540 0.950 . S
H2533 C2545 0.950 . S
H2534 C2542 0.950 . S
H2535 C2544 0.950 . S
H2536 C2546 0.950 . S
H2537 C2548 0.950 . S
H2538 C2550 0.950 . S
H2539 C2551 0.950 . S
C2540 H2532 0.950 . S
C2540 C2541 1.386 . S
C2540 C2542 1.391 . S
C2541 C2540 1.386 . S
C2541 C2545 1.393 . S
C2542 H2534 0.950 . S
C2542 C2540 1.391 . S
C2542 C2543 1.400 . S
C2543 C2542 1.400 . S
C2543 C2544 1.398 . S
C2543 C2549 1.491 . S
C2544 H2535 0.950 . S
C2544 C2543 1.398 . S
C2544 C2545 1.391 . S
C2545 H2533 0.950 . S
C2545 C2541 1.393 . S
C2545 C2544 1.391 . S
C2546 H2536 0.950 . S
C2546 C2547 1.386 . S
C2546 C2548 1.391 . S
C2547 C2546 1.386 . S
C2547 C2551 1.393 . S
C2548 H2537 0.950 . S
C2548 C2546 1.391 . S
C2548 C2549 1.400 . S
C2549 C2543 1.491 . S
C2549 C2548 1.400 . S
C2549 C2550 1.398 . S
C2550 H2538 0.950 . S
C2550 C2549 1.398 . S
C2550 C2551 1.391 . S
C2551 H2539 0.950 . S
C2551 C2547 1.393 . S
C2551 C2550 1.391 . S
H2552 C2560 0.950 . S
H2553 C2565 0.950 . S
H2554 C2562 0.950 . S
H2555 C2564 0.950 . S
H2556 C2566 0.950 . S
H2557 C2568 0.950 . S
H2558 C2570 0.950 . S
H2559 C2571 0.950 . S
C2560 H2552 0.950 . S
C2560 C2561 1.386 . S
C2560 C2562 1.391 . S
C2561 C2560 1.386 . S
C2561 C2565 1.393 . S
C2562 H2554 0.950 . S
C2562 C2560 1.391 . S
C2562 C2563 1.400 . S
C2563 C2562 1.400 . S
C2563 C2564 1.398 . S
C2563 C2569 1.491 . S
C2564 H2555 0.950 . S
C2564 C2563 1.398 . S
C2564 C2565 1.391 . S
C2565 H2553 0.950 . S
C2565 C2561 1.393 . S
C2565 C2564 1.391 . S
C2566 H2556 0.950 . S
C2566 C2567 1.386 . S
C2566 C2568 1.391 . S
C2567 C2566 1.386 . S
C2567 C2571 1.393 . S
C2568 H2557 0.950 . S
C2568 C2566 1.391 . S
C2568 C2569 1.400 . S
C2569 C2563 1.491 . S
C2569 C2568 1.400 . S
C2569 C2570 1.398 . S
C2570 H2558 0.950 . S
C2570 C2569 1.398 . S
C2570 C2571 1.391 . S
C2571 H2559 0.950 . S
C2571 C2567 1.393 . S
C2571 C2570 1.391 . S
H2572 C2580 0.950 . S
H2573 C2585 0.950 . S
H2574 C2582 0.950 . S
H2575 C2584 0.950 . S
H2576 C2586 0.950 . S
H2577 C2588 0.950 . S
H2578 C2590 0.950 . S
H2579 C2591 0.950 . S
C2580 H2572 0.950 . S
C2580 C2581 1.386 . S
C2580 C2582 1.391 . S
C2581 C2580 1.386 . S
C2581 C2585 1.393 . S
C2582 H2574 0.950 . S
C2582 C2580 1.391 . S
C2582 C2583 1.400 . S
C2583 C2582 1.400 . S
C2583 C2584 1.398 . S
C2583 C2589 1.491 . S
C2584 H2575 0.950 . S
C2584 C2583 1.398 . S
C2584 C2585 1.391 . S
C2585 H2573 0.950 . S
C2585 C2581 1.393 . S
C2585 C2584 1.391 . S
C2586 H2576 0.950 . S
C2586 C2587 1.386 . S
C2586 C2588 1.391 . S
C2587 C2586 1.386 . S
C2587 C2591 1.393 . S
C2588 H2577 0.950 . S
C2588 C2586 1.391 . S
C2588 C2589 1.400 . S
C2589 C2583 1.491 . S
C2589 C2588 1.400 . S
C2589 C2590 1.398 . S
C2590 H2578 0.950 . S
C2590 C2589 1.398 . S
C2590 C2591 1.391 . S
C2591 H2579 0.950 . S
C2591 C2587 1.393 . S
C2591 C2590 1.391 . S
C681 C91 1.129 . S
C687 C7 1.144 . S
C701 C21 1.137 . S
C707 C105 1.135 . S
C721 C35 1.129 . S
C727 C63 1.145 . S
C741 C77 1.141 . S
C747 C49 1.135 . S
C761 C483 1.142 . S
C767 C119 1.133 . S
C781 C497 1.143 . S
C787 C133 1.130 . S
C801 C147 1.130 . S
C807 C455 1.142 . S
C821 C161 1.142 . S
C827 C469 1.132 . S
C841 C539 1.139 . S
C847 C175 1.136 . S
C861 C553 1.130 . S
C867 C189 1.141 . S
C881 C511 1.130 . S
C887 C203 1.143 . S
C901 C525 1.141 . S
C907 C217 1.130 . S
C921 C231 1.137 . S
C927 C581 1.135 . S
C941 C245 1.143 . S
C947 C567 1.132 . S
C961 C259 1.134 . S
C967 C329 1.138 . S
C981 C637 1.140 . S
C987 C273 1.136 . S
C1001 C651 1.136 . S
C1007 C287 1.139 . S
C1021 C609 1.145 . S
C1027 C301 1.128 . S
C1041 C623 1.128 . S
C1047 C315 1.145 . S
C1061 C427 1.145 . S
C1067 C343 1.129 . S
C1081 C441 1.145 . S
C1087 C357 1.128 . S
C1101 C371 1.128 . S
C1107 C399 1.144 . S
C1121 C385 1.129 . S
C1127 C413 1.143 . S
C1141 C665 1.130 . S
C1147 C595 1.142 . S
C1161 C233 1.108 . S
C1167 C3 1.166 . S
C1181 C17 1.176 1_655 S
C1187 C667 1.103 . S
C1201 C31 1.163 . S
C1207 C303 1.135 . S
C1221 C653 1.098 . S
C1227 C45 1.176 . S
C1241 C59 1.162 . S
C1247 C583 1.131 . S
C1261 C597 1.126 . S
C1267 C73 1.172 . S
C1281 C87 1.171 . S
C1287 C611 1.127 . S
C1301 C289 1.127 . S
C1307 C101 1.171 1_655 S
C1321 C115 1.162 . S
C1327 C9 1.129 . S
C1341 C23 1.121 . S
C1347 C129 1.173 . S
C1361 C143 1.164 . S
C1367 C37 1.137 . S
C1381 C157 1.167 1_554 S
C1387 C51 1.107 . S
C1401 C171 1.175 . S
C1407 C65 1.096 . S
C1421 C79 1.132 . S
C1427 C185 1.162 . S
C1441 C199 1.176 . S
C1447 C93 1.103 . S
C1461 C213 1.176 1_556 S
C1467 C107 1.107 . S
C1481 C227 1.172 . S
C1487 C121 1.124 . S
C1501 C241 1.162 . S
C1507 C513 1.132 . S
C1521 C527 1.108 . S
C1527 C255 1.167 . S
C1541 C541 1.114 . S
C1547 C269 1.165 . S
C1561 C283 1.173 1_565 S
C1567 C219 1.122 . S
C1581 C297 1.176 . S
C1587 C149 1.100 . S
C1601 C499 1.097 . S
C1607 C311 1.172 . S
C1621 C471 1.097 . S
C1627 C325 1.172 . S
C1641 C339 1.176 . S
C1647 C569 1.098 . S
C1661 C353 1.175 . S
C1667 C331 1.115 . S
C1681 C367 1.163 . S
C1687 C639 1.121 . S
C1701 C381 1.175 1_455 S
C1707 C317 1.097 . S
C1721 C395 1.175 . S
C1727 C247 1.097 . S
C1741 C261 1.133 . S
C1747 C409 1.168 1_455 S
C1761 C275 1.132 . S
C1767 C423 1.169 . S
C1781 C625 1.099 . S
C1787 C437 1.171 . S
C1801 C345 1.131 . S
C1807 C451 1.170 . S
C1821 C359 1.117 . S
C1827 C465 1.164 1_554 S
C1841 C479 1.166 . S
C1847 C373 1.136 . S
C1861 C387 1.120 . S
C1867 C493 1.163 . S
C1881 C507 1.176 . S
C1887 C401 1.099 . S
C1901 C415 1.096 . S
C1907 C521 1.174 1_556 S
C1921 C535 1.176 . S
C1927 C429 1.097 . S
C1941 C443 1.115 . S
C1947 C549 1.164 . S
C1961 C563 1.174 . S
C1967 C457 1.119 . S
C1981 C577 1.175 . S
C1987 C177 1.096 . S
C2001 C191 1.098 . S
C2007 C591 1.171 1_545 S
C2021 C605 1.176 . S
C2027 C205 1.105 . S
C2041 C619 1.163 . S
C2047 C555 1.136 . S
C2061 C485 1.131 . S
C2067 C633 1.169 . S
C2081 C647 1.163 1_565 S
C2087 C163 1.136 . S
C2101 C135 1.097 . S
C2107 C661 1.172 1_545 S
C2121 C134 0.681 . S
C2127 C8 0.686 . S
C2141 C22 0.681 . S
C2147 C148 0.689 . S
C2161 C162 0.687 . S
C2167 C36 0.693 . S
C2181 C120 0.688 . S
C2187 C50 0.693 . S
C2201 C64 0.689 . S
C2207 C218 0.681 . S
C2221 C78 0.690 . S
C2227 C176 0.681 . S
C2241 C190 0.693 . S
C2247 C92 0.689 . S
C2261 C204 0.686 . S
C2267 C106 0.681 . S
C2281 C232 0.688 . S
C2287 C260 0.693 . S
C2301 C246 0.693 . S
C2307 C652 0.684 . S
C2321 C274 0.694 . S
C2327 C666 0.685 . S
C2341 C638 0.682 . S
C2347 C288 0.684 . S
C2361 C624 0.685 . S
C2367 C302 0.694 . S
C2381 C582 0.681 . S
C2387 C316 0.687 . S
C2401 C330 0.687 . S
C2407 C610 0.693 . S
C2421 C470 0.687 . S
C2427 C344 0.693 . S
C2441 C484 0.687 . S
C2447 C358 0.693 . S
C2461 C372 0.689 . S
C2467 C498 0.681 . S
C2481 C456 0.683 . S
C2487 C386 0.683 . S
C2501 C554 0.688 . S
C2507 C400 0.681 . S
C2521 C512 0.694 . S
C2527 C414 0.686 . S
C2541 C428 0.690 . S
C2547 C526 0.681 . S
C2561 C540 0.683 . S
C2567 C442 0.684 . S
C2581 C596 0.693 . S
C2587 C568 0.689 . S
