# Generated by pormake.
# Topology uoo, (4)-cn, num edge types: 1
# Building blocks:
#     Node 0, Type 0, BuildingBlock: CEKHIL_clean_sbu_0, # of connection points: 4
#     Node 1, Type 0, BuildingBlock: CEKHIL_clean_sbu_0, # of connection points: 4
#     Node 2, Type 0, BuildingBlock: CEKHIL_clean_sbu_0, # of connection points: 4
#     Node 3, Type 0, BuildingBlock: CEKHIL_clean_sbu_0, # of connection points: 4
#     Node 4, Type 0, BuildingBlock: CEKHIL_clean_sbu_0, # of connection points: 4
#     Node 5, Type 0, BuildingBlock: CEKHIL_clean_sbu_0, # of connection points: 4
#     Edge 6, Type (0, 0), BuildingBlock: FUNLAD_clean_linker_1, # of connection points: 2
#     Edge 7, Type (0, 0), BuildingBlock: FUNLAD_clean_linker_1, # of connection points: 2
#     Edge 8, Type (0, 0), BuildingBlock: FUNLAD_clean_linker_1, # of connection points: 2
#     Edge 9, Type (0, 0), BuildingBlock: FUNLAD_clean_linker_1, # of connection points: 2
#     Edge 10, Type (0, 0), BuildingBlock: FUNLAD_clean_linker_1, # of connection points: 2
#     Edge 11, Type (0, 0), BuildingBlock: FUNLAD_clean_linker_1, # of connection points: 2
#     Edge 12, Type (0, 0), BuildingBlock: FUNLAD_clean_linker_1, # of connection points: 2
#     Edge 13, Type (0, 0), BuildingBlock: FUNLAD_clean_linker_1, # of connection points: 2
#     Edge 14, Type (0, 0), BuildingBlock: FUNLAD_clean_linker_1, # of connection points: 2
#     Edge 15, Type (0, 0), BuildingBlock: FUNLAD_clean_linker_1, # of connection points: 2
#     Edge 16, Type (0, 0), BuildingBlock: FUNLAD_clean_linker_1, # of connection points: 2
#     Edge 17, Type (0, 0), BuildingBlock: FUNLAD_clean_linker_1, # of connection points: 2
# Relax obj value: 0.249
# Max RMSD: 0.171
# Mean RMSD: 0.171
data_MOF--net-uoo--node1-CEKHIL_clean_sbu_0--edge1-FUNLAD_clean_linker_1
_symmetry_space_group_name_H-M    P1
_symmetry_Int_Tables_number       1
_symmetry_cell_setting            triclinic
loop_
_symmetry_equiv_pos_as_xyz
'x, y, z'
_cell_length_a     25.216918
_cell_length_b     25.21497
_cell_length_c     40.01974
_cell_angle_alpha  90.161774
_cell_angle_beta   90.065851
_cell_angle_gamma 119.66619
loop_
_atom_site_label
_atom_site_type_symbol
_atom_site_fract_x
_atom_site_fract_y
_atom_site_fract_z
_atom_type_partial_charge
Co0 Co 0.14511 0.31583 0.99372 0.0
O1 O 0.06605 0.30829 0.98625 0.0
O2 O 0.14956 0.39363 0.00101 0.0
C3 C 0.14776 0.26507 0.94822 0.0
O4 O 0.2346 0.34244 0.00209 0.0
Co5 Co 0.15993 0.20236 0.00683 0.0
O6 O 0.24809 0.2606 0.0008 0.0
C7 C 0.11234 0.24772 0.06007 0.0
C8 C 0.09168 0.3659 0.99379 0.0
C9 C 0.269 0.31802 0.00174 0.0
O10 O 0.1238 0.29428 0.04209 0.0
O11 O 0.11976 0.20364 0.04991 0.0
O12 O 0.16093 0.32174 0.9459 0.0
O13 O 0.12688 0.23923 0.97674 0.0
Co14 Co 0.83582 0.15416 0.3311 0.0
O15 O 0.76689 0.07672 0.31804 0.0
O16 O 0.76349 0.15954 0.33421 0.0
C17 C 0.89746 0.16157 0.28901 0.0
O18 O 0.89122 0.24122 0.34441 0.0
Co19 Co 0.96328 0.17889 0.3516 0.0
O20 O 0.98962 0.26758 0.3486 0.0
C21 C 0.85923 0.11275 0.39741 0.0
C22 C 0.73496 0.10356 0.32391 0.0
C23 C 0.9473 0.28117 0.34805 0.0
O24 O 0.82646 0.12638 0.37868 0.0
O25 O 0.91364 0.12537 0.38992 0.0
O26 O 0.85531 0.17636 0.28464 0.0
O27 O 0.89905 0.13935 0.31786 0.0
Co28 Co 0.67844 0.83575 0.66925 0.0
O29 O 0.67615 0.75834 0.66394 0.0
O30 O 0.60019 0.77098 0.6826 0.0
C31 C 0.72145 0.8759 0.61988 0.0
O32 O 0.65891 0.90359 0.67642 0.0
Co33 Co 0.79533 0.96228 0.67127 0.0
O34 O 0.73915 0.99624 0.66706 0.0
C35 C 0.76561 0.87703 0.72758 0.0
C36 C 0.62024 0.73422 0.6747 0.0
C37 C 0.68247 0.96135 0.67241 0.0
O38 O 0.71116 0.84381 0.71606 0.0
O39 O 0.80752 0.92265 0.71188 0.0
O40 O 0.66319 0.83746 0.62156 0.0
O41 O 0.75219 0.88513 0.64715 0.0
Co42 Co 0.84561 0.6954 0.00576 0.0
O43 O 0.92853 0.7117 0.00098 0.0
O44 O 0.84987 0.62286 0.01582 0.0
C45 C 0.84032 0.73888 0.95796 0.0
O46 O 0.75377 0.65963 0.01156 0.0
Co47 Co 0.81379 0.79952 0.01255 0.0
O48 O 0.72944 0.73336 0.00358 0.0
C49 C 0.86469 0.76754 0.0704 0.0
C50 C 0.90773 0.65497 0.00909 0.0
C51 C 0.71447 0.67758 0.00723 0.0
O52 O 0.8621 0.72228 0.05402 0.0
O53 O 0.84999 0.8052 0.05801 0.0
O54 O 0.83336 0.68425 0.95762 0.0
O55 O 0.85638 0.76756 0.9862 0.0
Co56 Co 0.17439 0.83556 0.32991 0.0
O57 O 0.24847 0.90217 0.31196 0.0
O58 O 0.24158 0.82532 0.34247 0.0
C59 C 0.11846 0.81436 0.28314 0.0
O60 O 0.11119 0.75832 0.35166 0.0
Co61 Co 0.05143 0.83075 0.33789 0.0
O62 O 0.01727 0.74048 0.33953 0.0
C63 C 0.15059 0.90184 0.38627 0.0
C64 C 0.27508 0.87468 0.32579 0.0
C65 C 0.05372 0.72262 0.34949 0.0
O66 O 0.18376 0.88326 0.37175 0.0
O67 O 0.09718 0.88844 0.37601 0.0
O68 O 0.15646 0.79423 0.28716 0.0
O69 O 0.11771 0.85 0.30638 0.0
Co70 Co 0.31704 0.1632 0.66376 0.0
O71 O 0.32097 0.24153 0.65998 0.0
O72 O 0.39602 0.22652 0.67767 0.0
C73 C 0.27304 0.12521 0.61398 0.0
O74 O 0.33441 0.0937 0.66946 0.0
Co75 Co 0.19789 0.03845 0.66484 0.0
O76 O 0.25184 0.00165 0.66198 0.0
C77 C 0.23004 0.12364 0.72148 0.0
C78 C 0.37682 0.26434 0.67078 0.0
C79 C 0.30902 0.03553 0.66645 0.0
O80 O 0.28518 0.15411 0.71076 0.0
O81 O 0.18674 0.08054 0.70484 0.0
O82 O 0.3315 0.16281 0.61586 0.0
O83 O 0.24276 0.11577 0.64137 0.0
H84 H 0.16972 0.13773 0.75527 0.0
C85 C 0.21427 0.14104 0.75345 0.0
H86 H 0.29589 0.1616 0.77813 0.0
H87 H 0.29012 0.34222 0.8853 0.0
H88 H 0.39111 0.39993 0.8614 0.0
H89 H 0.42243 0.35851 0.81426 0.0
H90 H 0.35277 0.26014 0.79026 0.0
C91 C 0.25189 0.15941 0.78003 0.0
C92 C 0.23601 0.18084 0.81137 0.0
C93 C 0.27703 0.2396 0.82443 0.0
C94 C 0.25864 0.2639 0.8513 0.0
C95 C 0.30107 0.32202 0.86443 0.0
C96 C 0.35939 0.3556 0.85106 0.0
C97 C 0.37695 0.3324 0.82446 0.0
C98 C 0.33638 0.27544 0.81102 0.0
H99 H 0.15991 0.19092 0.92712 0.0
C100 C 0.16232 0.2342 0.92149 0.0
H101 H 0.18275 0.30251 0.88556 0.0
H102 H 0.15473 0.05948 0.80081 0.0
H103 H 0.05217 0.00242 0.82329 0.0
H104 H 0.01366 0.05094 0.86261 0.0
H105 H 0.07823 0.15514 0.88108 0.0
C106 C 0.179 0.25853 0.89088 0.0
C107 C 0.19875 0.23026 0.86447 0.0
C108 C 0.15839 0.17075 0.8521 0.0
C109 C 0.17843 0.14482 0.82693 0.0
C110 C 0.13993 0.08291 0.81785 0.0
C111 C 0.08128 0.04943 0.83086 0.0
C112 C 0.05975 0.07656 0.85319 0.0
C113 C 0.09763 0.13643 0.86381 0.0
H114 H 0.97434 0.15447 0.26765 0.0
C115 C 0.94033 0.16791 0.26242 0.0
H116 H 0.90327 0.2014 0.2262 0.0
H117 H 0.15561 0.31159 0.14555 0.0
H118 H 0.18126 0.39978 0.18067 0.0
H119 H 0.11371 0.39351 0.22692 0.0
H120 H 0.02073 0.29868 0.23865 0.0
C121 C 0.93683 0.18758 0.23186 0.0
C122 C 0.97824 0.19078 0.20473 0.0
C123 C 0.03145 0.24682 0.19775 0.0
C124 C 0.06918 0.25097 0.1704 0.0
C125 C 0.12384 0.3067 0.16504 0.0
C126 C 0.13941 0.35748 0.18524 0.0
C127 C 0.10148 0.35391 0.21133 0.0
C128 C 0.04819 0.29927 0.21773 0.0
H129 H 0.06825 0.27458 0.09873 0.0
C130 C 0.08679 0.24459 0.09353 0.0
H131 H 0.10289 0.17569 0.11227 0.0
H132 H 0.88182 0.07542 0.21326 0.0
H133 H 0.85757 0.98639 0.17927 0.0
H134 H 0.92178 0.99375 0.1311 0.0
H135 H 0.01032 0.08999 0.11655 0.0
C136 C 0.0847 0.206 0.11725 0.0
C137 C 0.05202 0.1996 0.14927 0.0
C138 C 0.00068 0.14256 0.15752 0.0
C139 C 0.96364 0.13822 0.18528 0.0
C140 C 0.91177 0.08116 0.19258 0.0
C141 C 0.89723 0.0297 0.17324 0.0
C142 C 0.93336 0.03385 0.14611 0.0
C143 C 0.98426 0.08952 0.13808 0.0
H144 H 0.7866 0.0738 0.43524 0.0
C145 C 0.83119 0.08009 0.42863 0.0
H146 H 0.89975 0.0585 0.44126 0.0
H147 H 0.7384 0.01199 0.58132 0.0
H148 H 0.78402 0.12213 0.58334 0.0
H149 H 0.84968 0.18614 0.53751 0.0
H150 H 0.86928 0.14022 0.48915 0.0
C151 C 0.8567 0.05556 0.44814 0.0
C152 C 0.82313 0.01802 0.47753 0.0
C153 C 0.81385 0.04581 0.5061 0.0
C154 C 0.7781 0.00912 0.53312 0.0
C155 C 0.7671 0.0378 0.56064 0.0
C156 C 0.79266 0.10099 0.56203 0.0
C157 C 0.82944 0.137 0.53618 0.0
C158 C 0.84005 0.11001 0.50847 0.0
H159 H 0.79982 0.94405 0.59133 0.0
C160 C 0.75118 0.91167 0.58987 0.0
H161 H 0.67264 0.87364 0.55908 0.0
H162 H 0.83241 0.95046 0.42652 0.0
H163 H 0.78916 0.84049 0.42521 0.0
H164 H 0.72961 0.77711 0.47281 0.0
H165 H 0.71263 0.82328 0.52196 0.0
C166 C 0.72086 0.90689 0.56147 0.0
C167 C 0.7538 0.94494 0.53209 0.0
C168 C 0.76331 0.91721 0.50361 0.0
C169 C 0.79812 0.95382 0.47631 0.0
C170 C 0.80668 0.9249 0.44807 0.0
C171 C 0.78209 0.8618 0.44698 0.0
C172 C 0.74853 0.82611 0.47377 0.0
C173 C 0.73913 0.85322 0.50183 0.0
H174 H 0.80668 0.79519 0.93414 0.0
C175 C 0.82299 0.7633 0.92928 0.0
H176 H 0.84406 0.71555 0.89346 0.0
H177 H 0.68575 0.70728 0.77223 0.0
H178 H 0.65204 0.60066 0.78218 0.0
H179 H 0.68427 0.56839 0.83271 0.0
H180 H 0.75257 0.64274 0.87289 0.0
C181 C 0.82729 0.74725 0.89779 0.0
C182 C 0.80527 0.7675 0.86844 0.0
C183 C 0.76256 0.72297 0.84605 0.0
C184 C 0.74156 0.74132 0.81769 0.0
C185 C 0.7019 0.69606 0.7947 0.0
C186 C 0.68204 0.63451 0.80008 0.0
C187 C 0.70046 0.61638 0.82844 0.0
C188 C 0.74006 0.65977 0.85126 0.0
H189 H 0.83092 0.88158 0.76544 0.0
C190 C 0.78254 0.86124 0.75976 0.0
H191 H 0.69288 0.80168 0.77617 0.0
H192 H 0.89748 0.86657 0.90122 0.0
H193 H 0.92435 0.9722 0.89433 0.0
H194 H 0.87344 0.00192 0.85159 0.0
H195 H 0.79665 0.92594 0.81488 0.0
C196 C 0.74132 0.82287 0.78178 0.0
C197 C 0.76093 0.80395 0.81259 0.0
C198 C 0.80128 0.84819 0.83589 0.0
C199 C 0.82634 0.83041 0.86258 0.0
C200 C 0.87288 0.87663 0.88248 0.0
C201 C 0.88956 0.93774 0.87842 0.0
C202 C 0.86113 0.95448 0.85427 0.0
C203 C 0.81754 0.91045 0.83315 0.0
H204 H 0.089 0.77385 0.23329 0.0
C205 C 0.07996 0.79794 0.25307 0.0
H206 H 0.02662 0.83691 0.26832 0.0
H207 H 0.98367 0.88114 0.11667 0.0
H208 H 0.03637 0.9837 0.13897 0.0
H209 H 0.0736 0.00317 0.19716 0.0
H210 H 0.05886 0.91994 0.23317 0.0
C211 C 0.03545 0.81191 0.24901 0.0
C212 C 0.00165 0.79848 0.21669 0.0
C213 C 0.00832 0.8474 0.1964 0.0
C214 C 0.98463 0.83585 0.16323 0.0
C215 C 0.99697 0.88637 0.14264 0.0
C216 C 0.02815 0.94585 0.15499 0.0
C217 C 0.04928 0.95683 0.1877 0.0
C218 C 0.04031 0.9085 0.20814 0.0
H219 H 0.8724 0.80304 0.12165 0.0
C220 C 0.88636 0.77773 0.10527 0.0
H221 H 0.94119 0.73673 0.09984 0.0
H222 H 0.97164 0.69363 0.25117 0.0
H223 H 0.9158 0.59017 0.22975 0.0
H224 H 0.87477 0.56974 0.17226 0.0
H225 H 0.88914 0.65255 0.136 0.0
C226 C 0.9267 0.76157 0.11627 0.0
C227 C 0.95138 0.77482 0.15105 0.0
C228 C 0.94266 0.72574 0.17193 0.0
C229 C 0.96722 0.73752 0.20487 0.0
C230 C 0.95605 0.68748 0.22552 0.0
C231 C 0.92346 0.62775 0.21366 0.0
C232 C 0.9003 0.61627 0.18133 0.0
C233 C 0.90919 0.66439 0.1607 0.0
H234 H 0.19454 0.0569 0.58505 0.0
C235 C 0.24262 0.09102 0.58344 0.0
H236 H 0.31928 0.13506 0.55176 0.0
H237 H 0.13893 0.87195 0.47406 0.0
H238 H 0.16536 0.82577 0.51949 0.0
H239 H 0.22771 0.88802 0.56703 0.0
H240 H 0.26294 0.99647 0.56972 0.0
C241 C 0.27182 0.09977 0.55425 0.0
C242 C 0.23892 0.06316 0.52426 0.0
C243 C 0.22062 0.00019 0.52255 0.0
C244 C 0.18707 0.96487 0.49443 0.0
C245 C 0.16666 0.90145 0.49416 0.0
C246 C 0.18113 0.87425 0.5202 0.0
C247 C 0.21603 0.90924 0.54702 0.0
C248 C 0.23567 0.97146 0.54833 0.0
H249 H 0.22205 0.94973 0.42411 0.0
C250 C 0.17626 0.93903 0.41672 0.0
H251 H 0.10034 0.94936 0.42923 0.0
H252 H 0.26615 0.18228 0.52006 0.0
H253 H 0.24123 0.22883 0.47411 0.0
H254 H 0.18576 0.16822 0.42454 0.0
H255 H 0.15454 0.06057 0.42067 0.0
C256 C 0.14558 0.95798 0.43623 0.0
C257 C 0.17433 0.99316 0.46736 0.0
C258 C 0.19214 0.05593 0.46923 0.0
C259 C 0.22457 0.091 0.49769 0.0
C260 C 0.24175 0.15361 0.49893 0.0
C261 C 0.22772 0.18089 0.47274 0.0
C262 C 0.19647 0.14676 0.44484 0.0
C263 C 0.17883 0.08502 0.44293 0.0
H264 H 0.36354 0.33551 0.00548 0.0
C265 C 0.33582 0.35734 0.00294 0.0
H266 H 0.33654 0.44121 -0.00128 0.0
H267 H 0.59468 0.59369 0.06802 0.0
H268 H 0.52799 0.59567 0.111 0.0
H269 H 0.4161 0.53413 0.1052 0.0
H270 H 0.37028 0.47 0.05648 0.0
C271 C 0.36335 0.41834 0.00055 0.0
C272 C 0.43084 0.45655 0.0032 0.0
C273 C 0.45678 0.49459 0.03158 0.0
C274 C 0.52123 0.53082 0.03468 0.0
C275 C 0.54599 0.56668 0.06388 0.0
C276 C 0.50823 0.56787 0.0889 0.0
C277 C 0.44525 0.53316 0.08565 0.0
C278 C 0.41957 0.49666 0.05748 0.0
H279 H 0.61713 0.65 0.00395 0.0
C280 C 0.64877 0.63277 0.00704 0.0
H281 H 0.65699 0.55369 0.01238 0.0
H282 H 0.39598 0.39133 0.94446 0.0
H283 H 0.46298 0.38807 0.90214 0.0
H284 H 0.57476 0.44993 0.90798 0.0
H285 H 0.62033 0.51513 0.95639 0.0
C286 C 0.62654 0.57249 0.0104 0.0
C287 C 0.55954 0.52997 0.009 0.0
C288 C 0.53371 0.49104 0.98094 0.0
C289 C 0.4692 0.45474 0.97781 0.0
C290 C 0.44461 0.4184 0.94873 0.0
C291 C 0.48255 0.41655 0.92402 0.0
C292 C 0.54551 0.45138 0.92731 0.0
C293 C 0.57105 0.48854 0.95527 0.0
H294 H 0.91947 0.34916 0.35586 0.0
C295 C 0.95938 0.34397 0.3518 0.0
H296 H 0.05383 0.39118 0.34123 0.0
H297 H 0.0166 0.60379 0.27871 0.0
H298 H 0.04976 0.56924 0.23078 0.0
H299 H 0.06669 0.48112 0.23501 0.0
H300 H 0.05138 0.42765 0.28748 0.0
C301 C 0.01353 0.3942 0.34757 0.0
C302 C 0.01479 0.45384 0.34666 0.0
C303 C 0.02377 0.48449 0.31579 0.0
C304 C 0.01294 0.53462 0.31325 0.0
C305 C 0.0233 0.565 0.28216 0.0
C306 C 0.0424 0.54563 0.25434 0.0
C307 C 0.05193 0.49604 0.25672 0.0
C308 C 0.04282 0.46565 0.287 0.0
H309 H 0.06125 0.65161 0.37599 0.0
C310 C 0.03254 0.65915 0.35851 0.0
H311 H 0.96624 0.61953 0.3206 0.0
H312 H 0.00244 0.41125 0.41058 0.0
H313 H 0.96421 0.44206 0.45823 0.0
H314 H 0.93529 0.52189 0.45248 0.0
H315 H 0.94587 0.57234 0.39929 0.0
C316 C 0.9914 0.61201 0.34034 0.0
C317 C 0.9927 0.55363 0.34161 0.0
C318 C 0.98288 0.52224 0.37234 0.0
C319 C 0.99624 0.47398 0.37518 0.0
C320 C 0.99027 0.44637 0.40676 0.0
C321 C 0.96882 0.46391 0.43432 0.0
C322 C 0.95279 0.50901 0.43112 0.0
C323 C 0.95956 0.53793 0.40055 0.0
H324 H 0.32743 0.95809 0.66767 0.0
C325 C 0.34842 0.00754 0.66795 0.0
H326 H 0.43089 0.09192 0.6697 0.0
H327 H 0.59927 0.00317 0.73364 0.0
H328 H 0.58759 0.05856 0.78002 0.0
H329 H 0.51344 0.09532 0.77715 0.0
H330 H 0.45031 0.07663 0.72795 0.0
C331 C 0.40968 0.04247 0.66885 0.0
C332 C 0.45133 0.0167 0.67093 0.0
C333 C 0.48835 0.02856 0.69979 0.0
C334 C 0.5314 0.00776 0.70138 0.0
C335 C 0.56662 0.01886 0.73084 0.0
C336 C 0.56019 0.05039 0.75773 0.0
C337 C 0.51844 0.07107 0.75612 0.0
C338 C 0.48267 0.06024 0.72763 0.0
H339 H 0.66088 0.0366 0.67093 0.0
C340 C 0.64146 0.98752 0.67336 0.0
H341 H 0.56046 0.90203 0.67694 0.0
H342 H 0.39141 0.99077 0.61057 0.0
H343 H 0.40257 0.9346 0.56455 0.0
H344 H 0.47527 0.89609 0.568 0.0
H345 H 0.53767 0.91413 0.61747 0.0
C346 C 0.58055 0.95134 0.67586 0.0
C347 C 0.53763 0.97555 0.67399 0.0
C348 C 0.5004 0.96333 0.64522 0.0
C349 C 0.45766 0.98454 0.64349 0.0
C350 C 0.42322 0.97417 0.61377 0.0
C351 C 0.42949 0.9423 0.58699 0.0
C352 C 0.47045 0.92068 0.58892 0.0
C353 C 0.50582 0.93117 0.61754 0.0
H354 H 0.46364 0.34483 0.6847 0.0
C355 C 0.41847 0.33024 0.67447 0.0
H356 H 0.36058 0.35878 0.65254 0.0
H357 H 0.58439 0.60373 0.73026 0.0
H358 H 0.53593 0.55132 0.78163 0.0
H359 H 0.4473 0.4474 0.78027 0.0
H360 H 0.40733 0.39433 0.72761 0.0
C361 C 0.40436 0.37231 0.66428 0.0
C362 C 0.4515 0.43803 0.66515 0.0
C363 C 0.47328 0.46872 0.69615 0.0
C364 C 0.52253 0.52977 0.69685 0.0
C365 C 0.54541 0.5583 0.7282 0.0
C366 C 0.5184 0.52855 0.7579 0.0
C367 C 0.46865 0.46985 0.75715 0.0
C368 C 0.44631 0.43991 0.72674 0.0
H369 H 0.5334 0.65256 0.68649 0.0
C370 C 0.5792 0.66808 0.67707 0.0
H371 H 0.63915 0.6414 0.65596 0.0
H372 H 0.4197 0.3926 0.60155 0.0
H373 H 0.46408 0.44703 0.55007 0.0
H374 H 0.54691 0.55428 0.55118 0.0
H375 H 0.58624 0.60758 0.60377 0.0
C376 C 0.59459 0.62689 0.66683 0.0
C377 C 0.54794 0.56094 0.66648 0.0
C378 C 0.52555 0.53052 0.63549 0.0
C379 C 0.47726 0.46896 0.63483 0.0
C380 C 0.45599 0.4395 0.60353 0.0
C381 C 0.48106 0.4702 0.57376 0.0
C382 C 0.52771 0.53057 0.57439 0.0
C383 C 0.54988 0.56062 0.60479 0.0
H384 H 0.99646 0.65808 0.00452 0.0
C385 C 0.94813 0.62821 0.00929 0.0
H386 H 0.87809 0.53727 0.01715 0.0
H387 H 0.04656 0.45164 0.93964 0.0
H388 H 0.98773 0.45467 0.89253 0.0
H389 H 0.91808 0.49643 0.89875 0.0
H390 H 0.90761 0.53626 0.95209 0.0
C391 C 0.92653 0.56814 0.01341 0.0
C392 C 0.96719 0.54133 0.01018 0.0
C393 C 0.97141 0.51651 0.97914 0.0
C394 C 0.01008 0.49061 0.97585 0.0
C395 C 0.01595 0.46939 0.94401 0.0
C396 C 0.98285 0.4714 0.91662 0.0
C397 C 0.94375 0.49504 0.9201 0.0
C398 C 0.93812 0.51766 0.95088 0.0
H399 H 0.00679 0.37043 0.99005 0.0
C400 C 0.05556 0.39736 0.99477 0.0
H401 H 0.12909 0.48422 0.00718 0.0
H402 H 0.96971 0.58559 0.07293 0.0
H403 H 0.02766 0.5819 0.12047 0.0
H404 H 0.09265 0.53457 0.11539 0.0
H405 H 0.1003 0.49083 0.06282 0.0
C406 C 0.08068 0.4573 0.00149 0.0
C407 C 0.04269 0.48746 0.00404 0.0
C408 C 0.03896 0.51304 0.035 0.0
C409 C 0.00122 0.54007 0.03804 0.0
C410 C 0.99784 0.56472 0.06928 0.0
C411 C 0.03077 0.56281 0.09677 0.0
C412 C 0.06738 0.53617 0.09391 0.0
C413 C 0.07147 0.51136 0.06351 0.0
H414 H 0.64702 0.09937 0.32813 0.0
C415 C 0.66881 0.07334 0.32034 0.0
H416 H 0.65404 0.9893 0.30004 0.0
H417 H 0.40526 0.96678 0.3739 0.0
H418 H 0.45663 0.96669 0.42514 0.0
H419 H 0.55809 0.97444 0.42359 0.0
H420 H 0.60925 0.98402 0.37068 0.0
C421 C 0.63426 0.01637 0.30901 0.0
C422 C 0.56734 0.99119 0.3087 0.0
C423 C 0.53636 0.98109 0.33955 0.0
C424 C 0.4766 0.97282 0.34027 0.0
C425 C 0.44921 0.96933 0.37172 0.0
C426 C 0.47851 0.96996 0.40138 0.0
C427 C 0.5357 0.9746 0.40052 0.0
C428 C 0.56463 0.98036 0.37004 0.0
H429 H 0.35669 0.86691 0.33277 0.0
C430 C 0.34032 0.89642 0.32293 0.0
H431 H 0.36506 0.98064 0.29965 0.0
H432 H 0.61388 0.00694 0.24562 0.0
H433 H 0.56137 0.00345 0.19395 0.0
H434 H 0.45497 0.98284 0.19476 0.0
H435 H 0.40068 0.96648 0.24715 0.0
C436 C 0.38023 0.95077 0.31028 0.0
C437 C 0.44594 0.96924 0.30984 0.0
C438 C 0.47634 0.97762 0.27891 0.0
C439 C 0.53736 0.98881 0.27838 0.0
C440 C 0.56742 0.99828 0.24731 0.0
C441 C 0.53777 0.99617 0.21752 0.0
C442 C 0.47784 0.98454 0.21797 0.0
C443 C 0.44718 0.97518 0.24823 0.0
loop_
_geom_bond_atom_site_label_1
_geom_bond_atom_site_label_2
_geom_bond_distance
_geom_bond_site_symmetry_2
_ccdc_geom_bond_type
Co0 O1 2.216 . S
Co0 O2 2.091 . S
Co0 O4 2.004 1_556 S
Co0 O10 2.020 1_556 S
Co0 O12 2.138 . S
Co0 O13 2.244 . S
O1 Co0 2.216 . S
O1 C8 1.247 . S
O2 Co0 2.091 . S
O2 C8 1.261 . S
C3 O12 1.247 . S
C3 O13 1.272 . S
O4 Co0 2.004 1_554 S
O4 C9 1.259 . S
Co5 O6 2.061 . S
Co5 O11 2.052 . S
Co5 O13 2.135 1_554 S
O6 Co5 2.061 . S
O6 C9 1.235 . S
C7 O10 1.238 . S
C7 O11 1.241 . S
C8 O1 1.247 . S
C8 O2 1.261 . S
C9 O4 1.259 . S
C9 O6 1.235 . S
O10 Co0 2.020 1_554 S
O10 C7 1.238 . S
O11 Co5 2.052 . S
O11 C7 1.241 . S
O12 Co0 2.138 . S
O12 C3 1.247 . S
O13 Co0 2.244 . S
O13 C3 1.272 . S
O13 Co5 2.135 1_556 S
Co14 O15 2.216 . S
Co14 O16 2.091 . S
Co14 O18 2.004 . S
Co14 O24 2.021 . S
Co14 O26 2.137 . S
Co14 O27 2.244 . S
O15 Co14 2.216 . S
O15 C22 1.247 . S
O16 Co14 2.091 . S
O16 C22 1.261 . S
C17 O26 1.247 . S
C17 O27 1.272 . S
O18 Co14 2.004 . S
O18 C23 1.259 . S
Co19 O20 2.061 . S
Co19 O25 2.052 . S
Co19 O27 2.135 . S
O20 Co19 2.061 . S
O20 C23 1.235 . S
C21 O24 1.238 . S
C21 O25 1.241 . S
C22 O15 1.247 . S
C22 O16 1.261 . S
C23 O18 1.259 . S
C23 O20 1.235 . S
O24 Co14 2.021 . S
O24 C21 1.238 . S
O25 Co19 2.052 . S
O25 C21 1.241 . S
O26 Co14 2.137 . S
O26 C17 1.247 . S
O27 Co14 2.244 . S
O27 C17 1.272 . S
O27 Co19 2.135 . S
Co28 O29 2.216 . S
Co28 O30 2.091 . S
Co28 O32 2.004 . S
Co28 O38 2.021 . S
Co28 O40 2.137 . S
Co28 O41 2.244 . S
O29 Co28 2.216 . S
O29 C36 1.247 . S
O30 Co28 2.091 . S
O30 C36 1.261 . S
C31 O40 1.247 . S
C31 O41 1.272 . S
O32 Co28 2.004 . S
O32 C37 1.259 . S
Co33 O34 2.061 . S
Co33 O39 2.052 . S
Co33 O41 2.135 . S
O34 Co33 2.061 . S
O34 C37 1.235 . S
C35 O38 1.238 . S
C35 O39 1.241 . S
C36 O29 1.247 . S
C36 O30 1.261 . S
C37 O32 1.259 . S
C37 O34 1.235 . S
O38 Co28 2.021 . S
O38 C35 1.238 . S
O39 Co33 2.052 . S
O39 C35 1.241 . S
O40 Co28 2.137 . S
O40 C31 1.247 . S
O41 Co28 2.244 . S
O41 C31 1.272 . S
O41 Co33 2.135 . S
Co42 O43 2.216 . S
Co42 O44 2.091 . S
Co42 O46 2.004 1_556 S
Co42 O52 2.020 1_556 S
Co42 O54 2.138 . S
Co42 O55 2.244 . S
O43 Co42 2.216 . S
O43 C50 1.247 . S
O44 Co42 2.091 . S
O44 C50 1.261 . S
C45 O54 1.247 . S
C45 O55 1.272 . S
O46 Co42 2.004 1_554 S
O46 C51 1.259 . S
Co47 O48 2.061 . S
Co47 O53 2.052 . S
Co47 O55 2.135 1_554 S
O48 Co47 2.061 . S
O48 C51 1.235 . S
C49 O52 1.238 . S
C49 O53 1.241 . S
C50 O43 1.247 . S
C50 O44 1.261 . S
C51 O46 1.259 . S
C51 O48 1.235 . S
O52 Co42 2.020 1_554 S
O52 C49 1.238 . S
O53 Co47 2.052 . S
O53 C49 1.241 . S
O54 Co42 2.138 . S
O54 C45 1.247 . S
O55 Co42 2.244 . S
O55 C45 1.272 . S
O55 Co47 2.135 1_556 S
Co56 O57 2.216 . S
Co56 O58 2.091 . S
Co56 O60 2.004 . S
Co56 O66 2.021 . S
Co56 O68 2.137 . S
Co56 O69 2.244 . S
O57 Co56 2.216 . S
O57 C64 1.247 . S
O58 Co56 2.091 . S
O58 C64 1.261 . S
C59 O68 1.247 . S
C59 O69 1.272 . S
O60 Co56 2.004 . S
O60 C65 1.259 . S
Co61 O62 2.061 . S
Co61 O67 2.052 . S
Co61 O69 2.135 . S
O62 Co61 2.061 . S
O62 C65 1.235 . S
C63 O66 1.238 . S
C63 O67 1.241 . S
C64 O57 1.247 . S
C64 O58 1.261 . S
C65 O60 1.259 . S
C65 O62 1.235 . S
O66 Co56 2.021 . S
O66 C63 1.238 . S
O67 Co61 2.052 . S
O67 C63 1.241 . S
O68 Co56 2.137 . S
O68 C59 1.247 . S
O69 Co56 2.244 . S
O69 C59 1.272 . S
O69 Co61 2.135 . S
Co70 O71 2.216 . S
Co70 O72 2.091 . S
Co70 O74 2.004 . S
Co70 O80 2.021 . S
Co70 O82 2.137 . S
Co70 O83 2.244 . S
O71 Co70 2.216 . S
O71 C78 1.247 . S
O72 Co70 2.091 . S
O72 C78 1.261 . S
C73 O82 1.247 . S
C73 O83 1.272 . S
O74 Co70 2.004 . S
O74 C79 1.259 . S
Co75 O76 2.061 . S
Co75 O81 2.052 . S
Co75 O83 2.135 . S
O76 Co75 2.061 . S
O76 C79 1.235 . S
C77 O80 1.238 . S
C77 O81 1.241 . S
C78 O71 1.247 . S
C78 O72 1.261 . S
C79 O74 1.259 . S
C79 O76 1.235 . S
O80 Co70 2.021 . S
O80 C77 1.238 . S
O81 Co75 2.052 . S
O81 C77 1.241 . S
O82 Co70 2.137 . S
O82 C73 1.247 . S
O83 Co70 2.244 . S
O83 C73 1.272 . S
O83 Co75 2.135 . S
H84 C85 0.951 . S
C85 H84 0.951 . S
C85 C91 1.265 . S
H86 C91 0.950 . S
H87 C95 0.949 . S
H88 C96 0.950 . S
H89 C97 0.951 . S
H90 C98 0.951 . S
C91 C85 1.265 . S
C91 H86 0.950 . S
C91 C92 1.478 . S
C92 C91 1.478 . S
C92 C93 1.397 . S
C92 C109 1.394 . S
C93 C92 1.397 . S
C93 C94 1.438 . S
C93 C98 1.429 . S
C94 C93 1.438 . S
C94 C95 1.428 . S
C94 C107 1.394 . S
C95 H87 0.949 . S
C95 C94 1.428 . S
C95 C96 1.345 . S
C96 H88 0.950 . S
C96 C95 1.345 . S
C96 C97 1.424 . S
C97 H89 0.951 . S
C97 C96 1.424 . S
C97 C98 1.347 . S
C98 H90 0.951 . S
C98 C93 1.429 . S
C98 C97 1.347 . S
H99 C100 0.951 . S
C100 H99 0.951 . S
C100 C106 1.265 . S
H101 C106 0.950 . S
H102 C110 0.949 . S
H103 C111 0.950 . S
H104 C112 0.951 1_655 S
H105 C113 0.951 . S
C106 C100 1.265 . S
C106 H101 0.950 . S
C106 C107 1.478 . S
C107 C94 1.394 . S
C107 C106 1.478 . S
C107 C108 1.397 . S
C108 C107 1.397 . S
C108 C109 1.438 . S
C108 C113 1.429 . S
C109 C92 1.394 . S
C109 C108 1.438 . S
C109 C110 1.428 . S
C110 H102 0.949 . S
C110 C109 1.428 . S
C110 C111 1.345 . S
C111 H103 0.950 . S
C111 C110 1.345 . S
C111 C112 1.424 . S
C112 H104 0.951 1_455 S
C112 C111 1.424 . S
C112 C113 1.347 . S
C113 H105 0.951 . S
C113 C108 1.429 . S
C113 C112 1.347 . S
H114 C115 0.951 . S
C115 H114 0.951 . S
C115 C121 1.265 . S
H116 C121 0.950 . S
H117 C125 0.949 . S
H118 C126 0.950 . S
H119 C127 0.951 . S
H120 C128 0.951 . S
C121 C115 1.265 . S
C121 H116 0.950 . S
C121 C122 1.478 . S
C122 C121 1.478 . S
C122 C123 1.397 1_655 S
C122 C139 1.394 . S
C123 C122 1.397 1_455 S
C123 C124 1.438 . S
C123 C128 1.429 . S
C124 C123 1.438 . S
C124 C125 1.428 . S
C124 C137 1.394 . S
C125 H117 0.949 . S
C125 C124 1.428 . S
C125 C126 1.345 . S
C126 H118 0.950 . S
C126 C125 1.345 . S
C126 C127 1.424 . S
C127 H119 0.951 . S
C127 C126 1.424 . S
C127 C128 1.347 . S
C128 H120 0.951 . S
C128 C123 1.429 . S
C128 C127 1.347 . S
H129 C130 0.951 . S
C130 H129 0.951 . S
C130 C136 1.265 . S
H131 C136 0.950 . S
H132 C140 0.949 . S
H133 C141 0.950 1_565 S
H134 C142 0.951 1_565 S
H135 C143 0.951 . S
C136 C130 1.265 . S
C136 H131 0.950 . S
C136 C137 1.478 . S
C137 C124 1.394 . S
C137 C136 1.478 . S
C137 C138 1.397 1_455 S
C138 C137 1.397 1_655 S
C138 C139 1.438 . S
C138 C143 1.429 . S
C139 C122 1.394 . S
C139 C138 1.438 . S
C139 C140 1.428 . S
C140 H132 0.949 . S
C140 C139 1.428 . S
C140 C141 1.345 . S
C141 H133 0.950 1_545 S
C141 C140 1.345 . S
C141 C142 1.424 . S
C142 H134 0.951 1_545 S
C142 C141 1.424 . S
C142 C143 1.347 . S
C143 H135 0.951 . S
C143 C138 1.429 . S
C143 C142 1.347 . S
H144 C145 0.951 . S
C145 H144 0.951 . S
C145 C151 1.265 . S
H146 C151 0.950 . S
H147 C155 0.949 . S
H148 C156 0.950 . S
H149 C157 0.951 . S
H150 C158 0.951 . S
C151 C145 1.265 . S
C151 H146 0.950 . S
C151 C152 1.478 . S
C152 C151 1.478 . S
C152 C153 1.397 . S
C152 C169 1.394 1_545 S
C153 C152 1.397 . S
C153 C154 1.438 . S
C153 C158 1.429 . S
C154 C153 1.438 . S
C154 C155 1.428 . S
C154 C167 1.394 1_545 S
C155 H147 0.949 . S
C155 C154 1.428 . S
C155 C156 1.345 . S
C156 H148 0.950 . S
C156 C155 1.345 . S
C156 C157 1.424 . S
C157 H149 0.951 . S
C157 C156 1.424 . S
C157 C158 1.347 . S
C158 H150 0.951 . S
C158 C153 1.429 . S
C158 C157 1.347 . S
H159 C160 0.951 . S
C160 H159 0.951 . S
C160 C166 1.265 . S
H161 C166 0.950 . S
H162 C170 0.949 . S
H163 C171 0.950 . S
H164 C172 0.951 . S
H165 C173 0.951 . S
C166 C160 1.265 . S
C166 H161 0.950 . S
C166 C167 1.478 . S
C167 C154 1.394 1_565 S
C167 C166 1.478 . S
C167 C168 1.397 . S
C168 C167 1.397 . S
C168 C169 1.438 . S
C168 C173 1.429 . S
C169 C152 1.394 1_565 S
C169 C168 1.438 . S
C169 C170 1.428 . S
C170 H162 0.949 . S
C170 C169 1.428 . S
C170 C171 1.345 . S
C171 H163 0.950 . S
C171 C170 1.345 . S
C171 C172 1.424 . S
C172 H164 0.951 . S
C172 C171 1.424 . S
C172 C173 1.347 . S
C173 H165 0.951 . S
C173 C168 1.429 . S
C173 C172 1.347 . S
H174 C175 0.951 . S
C175 H174 0.951 . S
C175 C181 1.265 . S
H176 C181 0.950 . S
H177 C185 0.949 . S
H178 C186 0.950 . S
H179 C187 0.951 . S
H180 C188 0.951 . S
C181 C175 1.265 . S
C181 H176 0.950 . S
C181 C182 1.478 . S
C182 C181 1.478 . S
C182 C183 1.397 . S
C182 C199 1.394 . S
C183 C182 1.397 . S
C183 C184 1.438 . S
C183 C188 1.429 . S
C184 C183 1.438 . S
C184 C185 1.428 . S
C184 C197 1.394 . S
C185 H177 0.949 . S
C185 C184 1.428 . S
C185 C186 1.345 . S
C186 H178 0.950 . S
C186 C185 1.345 . S
C186 C187 1.424 . S
C187 H179 0.951 . S
C187 C186 1.424 . S
C187 C188 1.347 . S
C188 H180 0.951 . S
C188 C183 1.429 . S
C188 C187 1.347 . S
H189 C190 0.951 . S
C190 H189 0.951 . S
C190 C196 1.265 . S
H191 C196 0.950 . S
H192 C200 0.949 . S
H193 C201 0.950 . S
H194 C202 0.951 1_545 S
H195 C203 0.951 . S
C196 C190 1.265 . S
C196 H191 0.950 . S
C196 C197 1.478 . S
C197 C184 1.394 . S
C197 C196 1.478 . S
C197 C198 1.397 . S
C198 C197 1.397 . S
C198 C199 1.438 . S
C198 C203 1.429 . S
C199 C182 1.394 . S
C199 C198 1.438 . S
C199 C200 1.428 . S
C200 H192 0.949 . S
C200 C199 1.428 . S
C200 C201 1.345 . S
C201 H193 0.950 . S
C201 C200 1.345 . S
C201 C202 1.424 . S
C202 H194 0.951 1_565 S
C202 C201 1.424 . S
C202 C203 1.347 . S
C203 H195 0.951 . S
C203 C198 1.429 . S
C203 C202 1.347 . S
H204 C205 0.951 . S
C205 H204 0.951 . S
C205 C211 1.265 . S
H206 C211 0.950 . S
H207 C215 0.949 . S
H208 C216 0.950 . S
H209 C217 0.951 . S
H210 C218 0.951 . S
C211 C205 1.265 . S
C211 H206 0.950 . S
C211 C212 1.478 . S
C212 C211 1.478 . S
C212 C213 1.397 . S
C212 C229 1.394 . S
C213 C212 1.397 . S
C213 C214 1.438 1_455 S
C213 C218 1.429 . S
C214 C213 1.438 1_655 S
C214 C215 1.428 . S
C214 C227 1.394 . S
C215 H207 0.949 . S
C215 C214 1.428 . S
C215 C216 1.345 . S
C216 H208 0.950 . S
C216 C215 1.345 . S
C216 C217 1.424 . S
C217 H209 0.951 . S
C217 C216 1.424 . S
C217 C218 1.347 1_655 S
C218 H210 0.951 . S
C218 C213 1.429 . S
C218 C217 1.347 1_455 S
H219 C220 0.951 . S
C220 H219 0.951 . S
C220 C226 1.265 . S
H221 C226 0.950 . S
H222 C230 0.949 . S
H223 C231 0.950 . S
H224 C232 0.942 . S
H225 C233 0.951 . S
C226 C220 1.265 . S
C226 H221 0.950 . S
C226 C227 1.478 . S
C227 C214 1.394 . S
C227 C226 1.478 . S
C227 C228 1.397 . S
C228 C227 1.397 . S
C228 C229 1.438 1_655 S
C228 C233 1.429 . S
C229 C212 1.394 . S
C229 C228 1.438 1_455 S
C229 C230 1.428 . S
C230 H222 0.949 . S
C230 C229 1.428 . S
C230 C231 1.345 . S
C231 H223 0.950 . S
C231 C230 1.345 . S
C231 C232 1.420 1_455 S
C232 H224 0.942 . S
C232 C231 1.420 1_655 S
C232 C233 1.360 . S
C233 H225 0.951 . S
C233 C228 1.429 . S
C233 C232 1.360 . S
H234 C235 0.951 . S
C235 H234 0.951 . S
C235 C241 1.265 . S
H236 C241 0.950 . S
H237 C245 0.949 . S
H238 C246 0.950 . S
H239 C247 0.951 . S
H240 C248 0.951 . S
C241 C235 1.265 . S
C241 H236 0.950 . S
C241 C242 1.478 . S
C242 C241 1.478 . S
C242 C243 1.397 1_545 S
C242 C259 1.394 . S
C243 C242 1.397 1_565 S
C243 C244 1.438 . S
C243 C248 1.429 . S
C244 C243 1.438 . S
C244 C245 1.428 . S
C244 C257 1.394 . S
C245 H237 0.949 . S
C245 C244 1.428 . S
C245 C246 1.345 . S
C246 H238 0.950 . S
C246 C245 1.345 . S
C246 C247 1.424 . S
C247 H239 0.951 . S
C247 C246 1.424 . S
C247 C248 1.347 . S
C248 H240 0.951 . S
C248 C243 1.429 . S
C248 C247 1.347 . S
H249 C250 0.951 . S
C250 H249 0.951 . S
C250 C256 1.265 . S
H251 C256 0.950 . S
H252 C260 0.949 . S
H253 C261 0.950 . S
H254 C262 0.951 . S
H255 C263 0.951 . S
C256 C250 1.265 . S
C256 H251 0.950 . S
C256 C257 1.478 . S
C257 C244 1.394 . S
C257 C256 1.478 . S
C257 C258 1.397 1_565 S
C258 C257 1.397 1_545 S
C258 C259 1.438 . S
C258 C263 1.429 . S
C259 C242 1.394 . S
C259 C258 1.438 . S
C259 C260 1.428 . S
C260 H252 0.949 . S
C260 C259 1.428 . S
C260 C261 1.345 . S
C261 H253 0.950 . S
C261 C260 1.345 . S
C261 C262 1.424 . S
C262 H254 0.951 . S
C262 C261 1.424 . S
C262 C263 1.347 . S
C263 H255 0.951 . S
C263 C258 1.429 . S
C263 C262 1.347 . S
H264 C265 0.951 . S
C265 H264 0.951 . S
C265 C271 1.265 . S
H266 C271 0.950 . S
H267 C275 0.949 . S
H268 C276 0.950 . S
H269 C277 0.951 . S
H270 C278 0.951 . S
C271 C265 1.265 . S
C271 H266 0.950 . S
C271 C272 1.478 . S
C272 C271 1.478 . S
C272 C273 1.397 . S
C272 C289 1.394 1_554 S
C273 C272 1.397 . S
C273 C274 1.438 . S
C273 C278 1.429 . S
C274 C273 1.438 . S
C274 C275 1.428 . S
C274 C287 1.394 . S
C275 H267 0.949 . S
C275 C274 1.428 . S
C275 C276 1.345 . S
C276 H268 0.950 . S
C276 C275 1.345 . S
C276 C277 1.424 . S
C277 H269 0.951 . S
C277 C276 1.424 . S
C277 C278 1.347 . S
C278 H270 0.951 . S
C278 C273 1.429 . S
C278 C277 1.347 . S
H279 C280 0.951 . S
C280 H279 0.951 . S
C280 C286 1.265 . S
H281 C286 0.950 . S
H282 C290 0.949 . S
H283 C291 0.950 . S
H284 C292 0.951 . S
H285 C293 0.951 . S
C286 C280 1.265 . S
C286 H281 0.950 . S
C286 C287 1.478 . S
C287 C274 1.394 . S
C287 C286 1.478 . S
C287 C288 1.397 1_554 S
C288 C287 1.397 1_556 S
C288 C289 1.438 . S
C288 C293 1.429 . S
C289 C272 1.394 1_556 S
C289 C288 1.438 . S
C289 C290 1.428 . S
C290 H282 0.949 . S
C290 C289 1.428 . S
C290 C291 1.345 . S
C291 H283 0.950 . S
C291 C290 1.345 . S
C291 C292 1.424 . S
C292 H284 0.951 . S
C292 C291 1.424 . S
C292 C293 1.347 . S
C293 H285 0.951 . S
C293 C288 1.429 . S
C293 C292 1.347 . S
H294 C295 0.951 . S
C295 H294 0.951 . S
C295 C301 1.265 . S
H296 C301 0.950 1_455 S
H297 C305 0.949 . S
H298 C306 0.950 . S
H299 C307 0.951 . S
H300 C308 0.951 . S
C301 C295 1.265 . S
C301 H296 0.950 1_655 S
C301 C302 1.478 . S
C302 C301 1.478 . S
C302 C303 1.397 1_655 S
C302 C319 1.394 . S
C303 C302 1.397 1_455 S
C303 C304 1.438 . S
C303 C308 1.429 . S
C304 C303 1.438 . S
C304 C305 1.428 . S
C304 C317 1.394 . S
C305 H297 0.949 . S
C305 C304 1.428 . S
C305 C306 1.345 . S
C306 H298 0.950 . S
C306 C305 1.345 . S
C306 C307 1.424 . S
C307 H299 0.951 . S
C307 C306 1.424 . S
C307 C308 1.347 . S
C308 H300 0.951 . S
C308 C303 1.429 . S
C308 C307 1.347 . S
H309 C310 0.951 . S
C310 H309 0.951 . S
C310 C316 1.265 . S
H311 C316 0.950 1_655 S
H312 C320 0.949 . S
H313 C321 0.950 . S
H314 C322 0.951 . S
H315 C323 0.951 . S
C316 C310 1.265 . S
C316 H311 0.950 1_455 S
C316 C317 1.478 . S
C317 C304 1.394 . S
C317 C316 1.478 . S
C317 C318 1.397 1_455 S
C318 C317 1.397 1_655 S
C318 C319 1.438 . S
C318 C323 1.429 . S
C319 C302 1.394 . S
C319 C318 1.438 . S
C319 C320 1.428 . S
C320 H312 0.949 . S
C320 C319 1.428 . S
C320 C321 1.345 . S
C321 H313 0.950 . S
C321 C320 1.345 . S
C321 C322 1.424 . S
C322 H314 0.951 . S
C322 C321 1.424 . S
C322 C323 1.347 . S
C323 H315 0.951 . S
C323 C318 1.429 . S
C323 C322 1.347 . S
H324 C325 0.951 1_565 S
C325 H324 0.951 1_545 S
C325 C331 1.265 . S
H326 C331 0.950 . S
H327 C335 0.949 1_565 S
H328 C336 0.950 . S
H329 C337 0.951 . S
H330 C338 0.951 . S
C331 C325 1.265 . S
C331 H326 0.950 . S
C331 C332 1.478 . S
C332 C331 1.478 . S
C332 C333 1.397 . S
C332 C349 1.394 1_545 S
C333 C332 1.397 . S
C333 C334 1.438 . S
C333 C338 1.429 . S
C334 C333 1.438 . S
C334 C335 1.428 . S
C334 C347 1.394 1_545 S
C335 H327 0.949 1_545 S
C335 C334 1.428 . S
C335 C336 1.345 . S
C336 H328 0.950 . S
C336 C335 1.345 . S
C336 C337 1.424 . S
C337 H329 0.951 . S
C337 C336 1.424 . S
C337 C338 1.347 . S
C338 H330 0.951 . S
C338 C333 1.429 . S
C338 C337 1.347 . S
H339 C340 0.951 1_545 S
C340 H339 0.951 1_565 S
C340 C346 1.265 . S
H341 C346 0.950 . S
H342 C350 0.949 1_545 S
H343 C351 0.950 . S
H344 C352 0.951 . S
H345 C353 0.951 . S
C346 C340 1.265 . S
C346 H341 0.950 . S
C346 C347 1.478 . S
C347 C334 1.394 1_565 S
C347 C346 1.478 . S
C347 C348 1.397 . S
C348 C347 1.397 . S
C348 C349 1.438 . S
C348 C353 1.429 . S
C349 C332 1.394 1_565 S
C349 C348 1.438 . S
C349 C350 1.428 . S
C350 H342 0.949 1_565 S
C350 C349 1.428 . S
C350 C351 1.345 . S
C351 H343 0.950 . S
C351 C350 1.345 . S
C351 C352 1.424 . S
C352 H344 0.951 . S
C352 C351 1.424 . S
C352 C353 1.347 . S
C353 H345 0.951 . S
C353 C348 1.429 . S
C353 C352 1.347 . S
H354 C355 0.951 . S
C355 H354 0.951 . S
C355 C361 1.265 . S
H356 C361 0.950 . S
H357 C365 0.949 . S
H358 C366 0.950 . S
H359 C367 0.951 . S
H360 C368 0.951 . S
C361 C355 1.265 . S
C361 H356 0.950 . S
C361 C362 1.478 . S
C362 C361 1.478 . S
C362 C363 1.397 . S
C362 C379 1.394 . S
C363 C362 1.397 . S
C363 C364 1.438 . S
C363 C368 1.429 . S
C364 C363 1.438 . S
C364 C365 1.428 . S
C364 C377 1.394 . S
C365 H357 0.949 . S
C365 C364 1.428 . S
C365 C366 1.345 . S
C366 H358 0.950 . S
C366 C365 1.345 . S
C366 C367 1.424 . S
C367 H359 0.951 . S
C367 C366 1.424 . S
C367 C368 1.347 . S
C368 H360 0.951 . S
C368 C363 1.429 . S
C368 C367 1.347 . S
H369 C370 0.951 . S
C370 H369 0.951 . S
C370 C376 1.265 . S
H371 C376 0.950 . S
H372 C380 0.949 . S
H373 C381 0.950 . S
H374 C382 0.951 . S
H375 C383 0.951 . S
C376 C370 1.265 . S
C376 H371 0.950 . S
C376 C377 1.478 . S
C377 C364 1.394 . S
C377 C376 1.478 . S
C377 C378 1.397 . S
C378 C377 1.397 . S
C378 C379 1.438 . S
C378 C383 1.429 . S
C379 C362 1.394 . S
C379 C378 1.438 . S
C379 C380 1.428 . S
C380 H372 0.949 . S
C380 C379 1.428 . S
C380 C381 1.345 . S
C381 H373 0.950 . S
C381 C380 1.345 . S
C381 C382 1.424 . S
C382 H374 0.951 . S
C382 C381 1.424 . S
C382 C383 1.347 . S
C383 H375 0.951 . S
C383 C378 1.429 . S
C383 C382 1.347 . S
H384 C385 0.951 1_455 S
C385 H384 0.951 1_655 S
C385 C391 1.265 . S
H386 C391 0.950 . S
H387 C395 0.949 1_455 S
H388 C396 0.950 . S
H389 C397 0.951 . S
H390 C398 0.951 . S
C391 C385 1.265 . S
C391 H386 0.950 . S
C391 C392 1.478 . S
C392 C391 1.478 . S
C392 C393 1.397 . S
C392 C409 1.394 1_656 S
C393 C392 1.397 . S
C393 C394 1.438 . S
C393 C398 1.429 . S
C394 C393 1.438 . S
C394 C395 1.428 . S
C394 C407 1.394 1_655 S
C395 H387 0.949 1_655 S
C395 C394 1.428 . S
C395 C396 1.345 . S
C396 H388 0.950 . S
C396 C395 1.345 . S
C396 C397 1.424 . S
C397 H389 0.951 . S
C397 C396 1.424 . S
C397 C398 1.347 . S
C398 H390 0.951 . S
C398 C393 1.429 . S
C398 C397 1.347 . S
H399 C400 0.951 1_655 S
C400 H399 0.951 1_455 S
C400 C406 1.265 . S
H401 C406 0.950 . S
H402 C410 0.949 1_655 S
H403 C411 0.950 . S
H404 C412 0.951 . S
H405 C413 0.951 . S
C406 C400 1.265 . S
C406 H401 0.950 . S
C406 C407 1.478 . S
C407 C394 1.394 1_455 S
C407 C406 1.478 . S
C407 C408 1.397 1_556 S
C408 C407 1.397 1_554 S
C408 C409 1.438 . S
C408 C413 1.429 . S
C409 C392 1.394 1_454 S
C409 C408 1.438 . S
C409 C410 1.428 . S
C410 H402 0.949 1_455 S
C410 C409 1.428 . S
C410 C411 1.345 . S
C411 H403 0.950 . S
C411 C410 1.345 . S
C411 C412 1.424 . S
C412 H404 0.951 . S
C412 C411 1.424 . S
C412 C413 1.347 . S
C413 H405 0.951 . S
C413 C408 1.429 . S
C413 C412 1.347 . S
H414 C415 0.951 . S
C415 H414 0.951 . S
C415 C421 1.265 . S
H416 C421 0.950 1_565 S
H417 C425 0.949 . S
H418 C426 0.950 . S
H419 C427 0.951 . S
H420 C428 0.951 . S
C421 C415 1.265 . S
C421 H416 0.950 1_545 S
C421 C422 1.478 . S
C422 C421 1.478 . S
C422 C423 1.397 1_545 S
C422 C439 1.394 . S
C423 C422 1.397 1_565 S
C423 C424 1.438 . S
C423 C428 1.429 . S
C424 C423 1.438 . S
C424 C425 1.428 . S
C424 C437 1.394 . S
C425 H417 0.949 . S
C425 C424 1.428 . S
C425 C426 1.345 . S
C426 H418 0.950 . S
C426 C425 1.345 . S
C426 C427 1.424 . S
C427 H419 0.951 . S
C427 C426 1.424 . S
C427 C428 1.347 . S
C428 H420 0.951 . S
C428 C423 1.429 . S
C428 C427 1.347 . S
H429 C430 0.951 . S
C430 H429 0.951 . S
C430 C436 1.265 . S
H431 C436 0.950 1_545 S
H432 C440 0.949 . S
H433 C441 0.950 . S
H434 C442 0.951 . S
H435 C443 0.951 . S
C436 C430 1.265 . S
C436 H431 0.950 1_565 S
C436 C437 1.478 . S
C437 C424 1.394 . S
C437 C436 1.478 . S
C437 C438 1.397 1_565 S
C438 C437 1.397 1_545 S
C438 C439 1.438 . S
C438 C443 1.429 . S
C439 C422 1.394 . S
C439 C438 1.438 . S
C439 C440 1.428 . S
C440 H432 0.949 . S
C440 C439 1.428 . S
C440 C441 1.345 . S
C441 H433 0.950 . S
C441 C440 1.345 . S
C441 C442 1.424 . S
C442 H434 0.951 . S
C442 C441 1.424 . S
C442 C443 1.347 . S
C443 H435 0.951 . S
C443 C438 1.429 . S
C443 C442 1.347 . S
C85 C77 1.247 . S
C100 C3 1.221 . S
C115 C17 1.259 . S
C130 C7 1.250 . S
C145 C21 1.250 . S
C160 C31 1.257 . S
C175 C45 1.212 . S
C190 C35 1.245 . S
C205 C59 1.208 . S
C220 C49 1.234 . S
C235 C73 1.261 . S
C250 C63 1.248 . S
C265 C9 1.466 . S
C280 C51 1.458 . S
C295 C23 1.446 . S
C310 C65 1.443 . S
C325 C79 1.463 . S
C340 C37 1.462 . S
C355 C78 1.346 . S
C370 C36 1.335 . S
C385 C50 1.415 . S
C400 C8 1.415 . S
C415 C22 1.335 . S
C430 C64 1.336 . S
