# Generated by pormake.
# Topology whz, (6)-cn, num edge types: 1
# Building blocks:
#     Node 0, Type 0, BuildingBlock: PAMTOO_clean_sbu_0, # of connection points: 6
#     Node 1, Type 0, BuildingBlock: PAMTOO_clean_sbu_0, # of connection points: 6
#     Node 2, Type 0, BuildingBlock: PAMTOO_clean_sbu_0, # of connection points: 6
#     Node 3, Type 0, BuildingBlock: PAMTOO_clean_sbu_0, # of connection points: 6
#     Node 4, Type 0, BuildingBlock: PAMTOO_clean_sbu_0, # of connection points: 6
#     Node 5, Type 0, BuildingBlock: PAMTOO_clean_sbu_0, # of connection points: 6
#     Node 6, Type 0, BuildingBlock: PAMTOO_clean_sbu_0, # of connection points: 6
#     Node 7, Type 0, BuildingBlock: PAMTOO_clean_sbu_0, # of connection points: 6
#     Node 8, Type 0, BuildingBlock: PAMTOO_clean_sbu_0, # of connection points: 6
#     Node 9, Type 0, BuildingBlock: PAMTOO_clean_sbu_0, # of connection points: 6
#     Node 10, Type 0, BuildingBlock: PAMTOO_clean_sbu_0, # of connection points: 6
#     Node 11, Type 0, BuildingBlock: PAMTOO_clean_sbu_0, # of connection points: 6
#     Node 12, Type 0, BuildingBlock: PAMTOO_clean_sbu_0, # of connection points: 6
#     Node 13, Type 0, BuildingBlock: PAMTOO_clean_sbu_0, # of connection points: 6
#     Node 14, Type 0, BuildingBlock: PAMTOO_clean_sbu_0, # of connection points: 6
#     Node 15, Type 0, BuildingBlock: PAMTOO_clean_sbu_0, # of connection points: 6
#     Edge 16, Type (0, 0), BuildingBlock: KIFKEQ_clean_linker_1, # of connection points: 2
#     Edge 17, Type (0, 0), BuildingBlock: KIFKEQ_clean_linker_1, # of connection points: 2
#     Edge 18, Type (0, 0), BuildingBlock: KIFKEQ_clean_linker_1, # of connection points: 2
#     Edge 19, Type (0, 0), BuildingBlock: KIFKEQ_clean_linker_1, # of connection points: 2
#     Edge 20, Type (0, 0), BuildingBlock: KIFKEQ_clean_linker_1, # of connection points: 2
#     Edge 21, Type (0, 0), BuildingBlock: KIFKEQ_clean_linker_1, # of connection points: 2
#     Edge 22, Type (0, 0), BuildingBlock: KIFKEQ_clean_linker_1, # of connection points: 2
#     Edge 23, Type (0, 0), BuildingBlock: KIFKEQ_clean_linker_1, # of connection points: 2
#     Edge 24, Type (0, 0), BuildingBlock: KIFKEQ_clean_linker_1, # of connection points: 2
#     Edge 25, Type (0, 0), BuildingBlock: KIFKEQ_clean_linker_1, # of connection points: 2
#     Edge 26, Type (0, 0), BuildingBlock: KIFKEQ_clean_linker_1, # of connection points: 2
#     Edge 27, Type (0, 0), BuildingBlock: KIFKEQ_clean_linker_1, # of connection points: 2
#     Edge 28, Type (0, 0), BuildingBlock: KIFKEQ_clean_linker_1, # of connection points: 2
#     Edge 29, Type (0, 0), BuildingBlock: KIFKEQ_clean_linker_1, # of connection points: 2
#     Edge 30, Type (0, 0), BuildingBlock: KIFKEQ_clean_linker_1, # of connection points: 2
#     Edge 31, Type (0, 0), BuildingBlock: KIFKEQ_clean_linker_1, # of connection points: 2
#     Edge 32, Type (0, 0), BuildingBlock: KIFKEQ_clean_linker_1, # of connection points: 2
#     Edge 33, Type (0, 0), BuildingBlock: KIFKEQ_clean_linker_1, # of connection points: 2
#     Edge 34, Type (0, 0), BuildingBlock: KIFKEQ_clean_linker_1, # of connection points: 2
#     Edge 35, Type (0, 0), BuildingBlock: KIFKEQ_clean_linker_1, # of connection points: 2
#     Edge 36, Type (0, 0), BuildingBlock: KIFKEQ_clean_linker_1, # of connection points: 2
#     Edge 37, Type (0, 0), BuildingBlock: KIFKEQ_clean_linker_1, # of connection points: 2
#     Edge 38, Type (0, 0), BuildingBlock: KIFKEQ_clean_linker_1, # of connection points: 2
#     Edge 39, Type (0, 0), BuildingBlock: KIFKEQ_clean_linker_1, # of connection points: 2
#     Edge 40, Type (0, 0), BuildingBlock: KIFKEQ_clean_linker_1, # of connection points: 2
#     Edge 41, Type (0, 0), BuildingBlock: KIFKEQ_clean_linker_1, # of connection points: 2
#     Edge 42, Type (0, 0), BuildingBlock: KIFKEQ_clean_linker_1, # of connection points: 2
#     Edge 43, Type (0, 0), BuildingBlock: KIFKEQ_clean_linker_1, # of connection points: 2
#     Edge 44, Type (0, 0), BuildingBlock: KIFKEQ_clean_linker_1, # of connection points: 2
#     Edge 45, Type (0, 0), BuildingBlock: KIFKEQ_clean_linker_1, # of connection points: 2
#     Edge 46, Type (0, 0), BuildingBlock: KIFKEQ_clean_linker_1, # of connection points: 2
#     Edge 47, Type (0, 0), BuildingBlock: KIFKEQ_clean_linker_1, # of connection points: 2
#     Edge 48, Type (0, 0), BuildingBlock: KIFKEQ_clean_linker_1, # of connection points: 2
#     Edge 49, Type (0, 0), BuildingBlock: KIFKEQ_clean_linker_1, # of connection points: 2
#     Edge 50, Type (0, 0), BuildingBlock: KIFKEQ_clean_linker_1, # of connection points: 2
#     Edge 51, Type (0, 0), BuildingBlock: KIFKEQ_clean_linker_1, # of connection points: 2
#     Edge 52, Type (0, 0), BuildingBlock: KIFKEQ_clean_linker_1, # of connection points: 2
#     Edge 53, Type (0, 0), BuildingBlock: KIFKEQ_clean_linker_1, # of connection points: 2
#     Edge 54, Type (0, 0), BuildingBlock: KIFKEQ_clean_linker_1, # of connection points: 2
#     Edge 55, Type (0, 0), BuildingBlock: KIFKEQ_clean_linker_1, # of connection points: 2
#     Edge 56, Type (0, 0), BuildingBlock: KIFKEQ_clean_linker_1, # of connection points: 2
#     Edge 57, Type (0, 0), BuildingBlock: KIFKEQ_clean_linker_1, # of connection points: 2
#     Edge 58, Type (0, 0), BuildingBlock: KIFKEQ_clean_linker_1, # of connection points: 2
#     Edge 59, Type (0, 0), BuildingBlock: KIFKEQ_clean_linker_1, # of connection points: 2
#     Edge 60, Type (0, 0), BuildingBlock: KIFKEQ_clean_linker_1, # of connection points: 2
#     Edge 61, Type (0, 0), BuildingBlock: KIFKEQ_clean_linker_1, # of connection points: 2
#     Edge 62, Type (0, 0), BuildingBlock: KIFKEQ_clean_linker_1, # of connection points: 2
#     Edge 63, Type (0, 0), BuildingBlock: KIFKEQ_clean_linker_1, # of connection points: 2
# Relax obj value: 0.650
# Max RMSD: 0.306
# Mean RMSD: 0.306
data_MOF--net-whz--node1-PAMTOO_clean_sbu_0--edge1-KIFKEQ_clean_linker_1
_symmetry_space_group_name_H-M    P1
_symmetry_Int_Tables_number       1
_symmetry_cell_setting            triclinic
loop_
_symmetry_equiv_pos_as_xyz
'x, y, z'
_cell_length_a     35.319141
_cell_length_b     34.996416
_cell_length_c     72.101312
_cell_angle_alpha  89.577998
_cell_angle_beta   90.047552
_cell_angle_gamma 90.216816
loop_
_atom_site_label
_atom_site_type_symbol
_atom_site_fract_x
_atom_site_fract_y
_atom_site_fract_z
_atom_type_partial_charge
Dy0 Dy 0.3011 0.18337 0.14483 0.0
Dy1 Dy 0.28634 0.24032 0.17967 0.0
C2 C 0.27064 0.26595 0.1409 0.0
O3 O 0.35612 0.21502 0.1493 0.0
O4 O 0.34939 0.2406 0.17851 0.0
O5 O 0.32608 0.18143 0.11759 0.0
O6 O 0.29305 0.13325 0.12741 0.0
O7 O 0.29424 0.18337 0.19275 0.0
O8 O 0.32781 0.15298 0.16964 0.0
O9 O 0.23114 0.20992 0.17425 0.0
O10 O 0.25133 0.15666 0.15881 0.0
O11 O 0.25611 0.29195 0.18597 0.0
O12 O 0.28917 0.26346 0.20737 0.0
C13 C 0.37033 0.23197 0.16406 0.0
O14 O 0.25997 0.23068 0.13805 0.0
O15 O 0.297 0.27077 0.15318 0.0
C16 C 0.29416 0.14541 0.09458 0.0
C17 C 0.27087 0.14164 0.05677 0.0
C18 C 0.26299 0.17408 0.0676 0.0
C19 C 0.27456 0.17597 0.08625 0.0
C20 C 0.30092 0.1126 0.08406 0.0
C21 C 0.28951 0.11071 0.06545 0.0
C22 C 0.3111 0.14853 0.1134 0.0
C23 C 0.31629 0.15562 0.18712 0.0
C24 C 0.22584 0.1745 0.16872 0.0
C25 C 0.22962 0.28746 0.21583 0.0
C26 C 0.17005 0.27185 0.24071 0.0
C27 C 0.2035 0.2899 0.24683 0.0
C28 C 0.23306 0.29752 0.23449 0.0
C29 C 0.1953 0.27181 0.20943 0.0
C30 C 0.16582 0.2639 0.22178 0.0
C31 C 0.26308 0.28883 0.20371 0.0
H32 H 0.24897 0.19863 0.06154 0.0
H33 H 0.26908 0.20175 0.09401 0.0
H34 H 0.31595 0.08863 0.09013 0.0
H35 H 0.29536 0.0848 0.05789 0.0
H36 H 0.20791 0.29586 0.2614 0.0
H37 H 0.25932 0.30944 0.23971 0.0
H38 H 0.19185 0.26409 0.19501 0.0
H39 H 0.14035 0.25021 0.21667 0.0
Dy40 Dy 0.63102 0.56773 0.3983 0.0
Dy41 Dy 0.5819 0.56742 0.43637 0.0
C42 C 0.55641 0.51711 0.40311 0.0
O43 O 0.6107 0.62763 0.40304 0.0
O44 O 0.55579 0.61053 0.4171 0.0
O45 O 0.6418 0.5958 0.37198 0.0
O46 O 0.67426 0.54608 0.37972 0.0
O47 O 0.62589 0.61216 0.43954 0.0
O48 O 0.67095 0.58384 0.42183 0.0
O49 O 0.62752 0.52375 0.44172 0.0
O50 O 0.6416 0.5103 0.41124 0.0
O51 O 0.57379 0.58136 0.46533 0.0
O52 O 0.52858 0.55499 0.44941 0.0
C53 C 0.57617 0.63618 0.40824 0.0
O54 O 0.57317 0.542 0.39195 0.0
O55 O 0.56475 0.51613 0.42072 0.0
C56 C 0.66758 0.55986 0.34732 0.0
C57 C 0.66648 0.54134 0.309 0.0
C58 C 0.64205 0.52269 0.32171 0.0
C59 C 0.64254 0.53192 0.34065 0.0
C60 C 0.69224 0.57809 0.33481 0.0
C61 C 0.69174 0.56902 0.31592 0.0
C62 C 0.66789 0.57186 0.36697 0.0
C63 C 0.6615 0.60553 0.436 0.0
C64 C 0.64345 0.50188 0.42909 0.0
C65 C 0.51121 0.60235 0.47074 0.0
C66 C 0.45433 0.65161 0.48368 0.0
C67 C 0.48128 0.63588 0.49597 0.0
C68 C 0.50934 0.61141 0.48955 0.0
C69 C 0.48625 0.62024 0.45817 0.0
C70 C 0.45786 0.6445 0.46462 0.0
C71 C 0.53782 0.5728 0.46459 0.0
H72 H 0.62275 0.50065 0.31706 0.0
H73 H 0.62327 0.51743 0.35006 0.0
H74 H 0.71172 0.59986 0.33963 0.0
H75 H 0.71071 0.58433 0.3067 0.0
H76 H 0.47906 0.64008 0.51079 0.0
H77 H 0.52848 0.59816 0.49941 0.0
H78 H 0.48758 0.61416 0.44348 0.0
H79 H 0.43757 0.65617 0.45485 0.0
Dy80 Dy 0.22576 0.88301 0.64548 0.0
Dy81 Dy 0.23029 0.85249 0.68846 0.0
C82 C 0.25801 0.80013 0.65655 0.0
O83 O 0.17585 0.84432 0.64914 0.0
O84 O 0.16913 0.85349 0.68016 0.0
O85 O 0.21263 0.87226 0.61676 0.0
O86 O 0.22941 0.9292 0.62512 0.0
O87 O 0.23505 0.91514 0.68772 0.0
O88 O 0.1926 0.92248 0.66474 0.0
O89 O 0.29042 0.86849 0.68224 0.0
O90 O 0.282 0.90416 0.65547 0.0
O91 O 0.25708 0.83186 0.71368 0.0
O92 O 0.19711 0.84428 0.71313 0.0
C93 C 0.1553 0.84227 0.66422 0.0
O94 O 0.26402 0.83116 0.64641 0.0
O95 O 0.2361 0.80096 0.6712 0.0
C96 C 0.24102 0.91178 0.59348 0.0
C97 C 0.27289 0.9186 0.55735 0.0
C98 C 0.28128 0.88696 0.56887 0.0
C99 C 0.26552 0.88357 0.5867 0.0
C100 C 0.23329 0.94372 0.58222 0.0
C101 C 0.249 0.94714 0.56442 0.0
C102 C 0.22039 0.90703 0.6113 0.0
C103 C 0.20785 0.93476 0.68032 0.0
C104 C 0.30313 0.89238 0.66946 0.0
C105 C 0.23015 0.86514 0.73927 0.0
C106 C 0.23336 0.92184 0.76704 0.0
C107 C 0.19891 0.90383 0.76251 0.0
C108 C 0.1974 0.87576 0.74892 0.0
C109 C 0.26466 0.88299 0.74364 0.0
C110 C 0.26628 0.91082 0.75743 0.0
C111 C 0.22677 0.83862 0.7235 0.0
H112 H 0.2992 0.86417 0.56393 0.0
H113 H 0.27182 0.85847 0.595 0.0
H114 H 0.21435 0.96579 0.58707 0.0
H115 H 0.24233 0.97223 0.55618 0.0
H116 H 0.17287 0.91114 0.76947 0.0
H117 H 0.1703 0.86275 0.74572 0.0
H118 H 0.29043 0.87568 0.73637 0.0
H119 H 0.29365 0.9229 0.76081 0.0
Dy120 Dy 0.9179 0.47675 0.90059 0.0
Dy121 Dy 0.96657 0.47252 0.93913 0.0
C122 C 0.99902 0.51876 0.90462 0.0
O123 O 0.93749 0.41631 0.90559 0.0
O124 O 0.99304 0.43546 0.91786 0.0
O125 O 0.91059 0.45599 0.87269 0.0
O126 O 0.87097 0.49704 0.88366 0.0
O127 O 0.91793 0.43334 0.94336 0.0
O128 O 0.87601 0.4621 0.92353 0.0
O129 O 0.92152 0.51666 0.94348 0.0
O130 O 0.91696 0.53532 0.913 0.0
O131 O 0.99684 0.43596 0.95821 0.0
O132 O 0.99407 0.49699 0.96299 0.0
C133 C 0.97272 0.40872 0.91007 0.0
O134 O 0.97583 0.50051 0.89336 0.0
O135 O 0.99599 0.51676 0.92264 0.0
C136 C 0.87987 0.49639 0.85077 0.0
C137 C 0.87693 0.52578 0.81392 0.0
C138 C 0.91033 0.52864 0.82461 0.0
C139 C 0.91176 0.51419 0.84284 0.0
C140 C 0.84645 0.49407 0.84033 0.0
C141 C 0.84495 0.50852 0.82218 0.0
C142 C 0.88129 0.47743 0.86922 0.0
C143 C 0.88317 0.44089 0.93834 0.0
C144 C 0.91198 0.54211 0.93078 0.0
C145 C 0.05168 0.46626 0.96895 0.0
C146 C 0.13038 0.47593 0.97315 0.0
C147 C 0.10797 0.46127 0.9878 0.0
C148 C 0.06903 0.45655 0.9857 0.0
C149 C 0.07391 0.47854 0.95386 0.0
C150 C 0.11301 0.48345 0.95596 0.0
C151 C 1.01036 0.46481 0.96745 0.0
H152 H 0.93541 0.54221 0.81893 0.0
H153 H 0.93792 0.51637 0.85063 0.0
H154 H 0.8216 0.48014 0.84609 0.0
H155 H 0.8189 0.50503 0.81444 0.0
H156 H 0.11992 0.45591 1.0014 0.0
H157 H 0.05226 0.44679 0.9974 0.0
H158 H 0.06083 0.48565 0.94069 0.0
H159 H 0.12931 0.49465 0.9444 0.0
Dy160 Dy 0.73738 0.80547 0.90475 0.0
Dy161 Dy 0.72341 0.85981 0.94093 0.0
C162 C 0.70522 0.89057 0.89902 0.0
O163 O 0.79466 0.83061 0.9115 0.0
O164 O 0.77551 0.8833 0.92786 0.0
O165 O 0.72937 0.74876 0.89381 0.0
O166 O 0.76188 0.79077 0.87837 0.0
O167 O 0.76703 0.81468 0.94783 0.0
O168 O 0.73542 0.77189 0.93093 0.0
O169 O 0.67163 0.82302 0.93694 0.0
O170 O 0.67473 0.81205 0.90574 0.0
O171 O 0.70061 0.86004 0.96866 0.0
O172 O 0.72766 0.91102 0.95784 0.0
C173 C 0.80119 0.86494 0.91828 0.0
O174 O 0.72355 0.86149 0.89201 0.0
O175 O 0.69723 0.89341 0.91696 0.0
C176 C 0.78233 0.72723 0.87745 0.0
C177 C 0.84495 0.68018 0.86988 0.0
C178 C 0.81225 0.67925 0.85859 0.0
C179 C 0.78134 0.70257 0.86235 0.0
C180 C 0.81352 0.72671 0.88952 0.0
C181 C 0.84463 0.70343 0.88574 0.0
C182 C 0.75187 0.75499 0.87982 0.0
C183 C 0.76032 0.77893 0.94371 0.0
C184 C 0.65543 0.81288 0.92127 0.0
C185 C 0.73006 0.90042 0.99069 0.0
C186 C 0.75767 0.90899 1.02752 0.0
C187 C 0.7687 0.8777 1.01655 0.0
C188 C 0.75508 0.87348 0.99837 0.0
C189 C 0.71954 0.93197 1.00141 0.0
C190 C 0.73316 0.93625 1.01957 0.0
C191 C 0.71218 0.8946 0.97228 0.0
H192 H 0.81128 0.66267 0.84599 0.0
H193 H 0.75737 0.70261 0.85296 0.0
H194 H 0.81446 0.74549 0.9014 0.0
H195 H 0.86908 0.70519 0.89471 0.0
H196 H 0.78714 0.85583 1.02216 0.0
H197 H 0.76344 0.84871 0.99045 0.0
H198 H 0.70016 0.95306 0.99583 0.0
H199 H 0.72447 0.96104 1.02736 0.0
Dy200 Dy 0.45182 0.49094 0.6474 0.0
Dy201 Dy 0.42647 0.48218 0.69076 0.0
C202 C 0.37358 0.46337 0.65695 0.0
O203 O 0.43866 0.55084 0.65568 0.0
O204 O 0.40275 0.53872 0.68172 0.0
O205 O 0.48006 0.517 0.62394 0.0
O206 O 0.44195 0.46879 0.62003 0.0
O207 O 0.47896 0.51974 0.68974 0.0
O208 O 0.50511 0.49482 0.66342 0.0
O209 O 0.46377 0.43192 0.68608 0.0
O210 O 0.46049 0.42882 0.65433 0.0
O211 O 0.43937 0.46931 0.7194 0.0
O212 O 0.38158 0.48196 0.71138 0.0
C213 C 0.41439 0.56186 0.66837 0.0
O214 O 0.38992 0.49413 0.65092 0.0
O215 O 0.38896 0.44663 0.6715 0.0
C216 C 0.43566 0.5205 0.5992 0.0
C217 C 0.38619 0.56448 0.57686 0.0
C218 C 0.38165 0.52463 0.5783 0.0
C219 C 0.40611 0.50289 0.58931 0.0
C220 C 0.44015 0.56032 0.59783 0.0
C221 C 0.41576 0.582 0.5868 0.0
C222 C 0.45912 0.49785 0.61221 0.0
C223 C 0.50835 0.51467 0.6787 0.0
C224 C 0.46913 0.4135 0.67051 0.0
C225 C 0.39917 0.49512 0.743 0.0
C226 C 0.38738 0.52399 0.7794 0.0
C227 C 0.42421 0.51995 0.7722 0.0
C228 C 0.43004 0.50562 0.75428 0.0
C229 C 0.3624 0.50008 0.74999 0.0
C230 C 0.35657 0.51443 0.76787 0.0
C231 C 0.40477 0.4748 0.7251 0.0
H232 H 0.35944 0.51016 0.57075 0.0
H233 H 0.40164 0.47228 0.59021 0.0
H234 H 0.46247 0.57491 0.6053 0.0
H235 H 0.42098 0.61243 0.58563 0.0
H236 H 0.44871 0.5266 0.78064 0.0
H237 H 0.45883 0.50177 0.74951 0.0
H238 H 0.33801 0.49193 0.74178 0.0
H239 H 0.32776 0.51776 0.7727 0.0
Dy240 Dy 0.82229 0.23356 0.40458 0.0
Dy241 Dy 0.82688 0.17961 0.44152 0.0
C242 C 0.85516 0.14942 0.40117 0.0
O243 O 0.77984 0.18663 0.39976 0.0
O244 O 0.76817 0.17191 0.43036 0.0
O245 O 0.85237 0.27073 0.38558 0.0
O246 O 0.79167 0.26343 0.38308 0.0
O247 O 0.80498 0.23756 0.45082 0.0
O248 O 0.77864 0.25596 0.42325 0.0
O249 O 0.88557 0.1972 0.43315 0.0
O250 O 0.86675 0.25578 0.42401 0.0
O251 O 0.85487 0.16985 0.46776 0.0
O252 O 0.80957 0.13213 0.45927 0.0
C253 C 0.75881 0.17021 0.41268 0.0
O254 O 0.85744 0.18498 0.39543 0.0
O255 O 0.84023 0.14002 0.41744 0.0
C256 C 0.81616 0.32575 0.37798 0.0
C257 C 0.80715 0.40538 0.37325 0.0
C258 C 0.84276 0.39006 0.3778 0.0
C259 C 0.84727 0.3506 0.38004 0.0
C260 C 0.78013 0.34134 0.37496 0.0
C261 C 0.77563 0.38064 0.37273 0.0
C262 C 0.82113 0.28378 0.37831 0.0
C263 C 0.78168 0.25932 0.44114 0.0
C264 C 0.89394 0.23293 0.42945 0.0
C265 C 0.81923 0.14026 0.49181 0.0
C266 C 0.79738 0.13835 0.52983 0.0
C267 C 0.79234 0.17159 0.51885 0.0
C268 C 0.80309 0.17251 0.50009 0.0
C269 C 0.82421 0.10713 0.50256 0.0
C270 C 0.81363 0.10619 0.52129 0.0
C271 C 0.83327 0.14109 0.47243 0.0
H272 H 0.86756 0.4083 0.37841 0.0
H273 H 0.8754 0.33952 0.38262 0.0
H274 H 0.75552 0.32305 0.37343 0.0
H275 H 0.74781 0.39107 0.36897 0.0
H276 H 0.78076 0.19733 0.52478 0.0
H277 H 0.79929 0.19858 0.49212 0.0
H278 H 0.83668 0.0819 0.49649 0.0
H279 H 0.81772 0.07981 0.52892 0.0
Dy280 Dy 0.08094 0.58291 0.14626 0.0
Dy281 Dy 0.10974 0.56839 0.18905 0.0
C282 C 0.16017 0.60708 0.15745 0.0
O283 O 0.12091 0.53314 0.14644 0.0
O284 O 0.11148 0.51066 0.17601 0.0
O285 O 0.06139 0.56376 0.11953 0.0
O286 O 0.07863 0.62275 0.12326 0.0
O287 O 0.05137 0.54096 0.18865 0.0
O288 O 0.03292 0.55032 0.15806 0.0
O289 O 0.0903 0.62985 0.18582 0.0
O290 O 0.0458 0.62163 0.16313 0.0
O291 O 0.10196 0.57683 0.21852 0.0
O292 O 0.15466 0.55327 0.20841 0.0
C293 C 0.12242 0.5053 0.15879 0.0
O294 O 0.1278 0.62216 0.15332 0.0
O295 O 0.16033 0.57955 0.16996 0.0
C296 C 0.09931 0.59249 0.0962 0.0
C297 C 0.15424 0.58781 0.06788 0.0
C298 C 0.13447 0.62208 0.07094 0.0
C299 C 0.10717 0.6243 0.0849 0.0
C300 C 0.12007 0.55876 0.0937 0.0
C301 C 0.14698 0.55636 0.07964 0.0
C302 C 0.07173 0.59564 0.11142 0.0
C303 C 1.02673 0.53705 0.1749 0.0
C304 C 0.06057 0.6422 0.17643 0.0
C305 C 0.13989 0.54184 0.24073 0.0
C306 C 0.1524 0.51288 0.27731 0.0
C307 C 0.11544 0.52012 0.27081 0.0
C308 C 0.10927 0.53463 0.2528 0.0
C309 C 0.17658 0.53318 0.24699 0.0
C310 C 0.18276 0.51888 0.26495 0.0
C311 C 0.13522 0.56343 0.22294 0.0
H312 H 0.13981 0.64718 0.06247 0.0
H313 H 0.09223 0.65093 0.08691 0.0
H314 H 0.11534 0.53396 0.10248 0.0
H315 H 0.16101 0.52927 0.07763 0.0
H316 H 0.09134 0.51606 0.2799 0.0
H317 H 0.08062 0.5414 0.24857 0.0
H318 H 0.20084 0.53878 0.23817 0.0
H319 H 0.21156 0.51302 0.26925 0.0
Dy320 Dy 0.82233 0.67927 0.64947 0.0
Dy321 Dy 0.82064 0.71715 0.69089 0.0
C322 C 0.78116 0.76101 0.65781 0.0
O323 O 0.88106 0.70133 0.65526 0.0
O324 O 0.86398 0.74959 0.6746 0.0
O325 O 0.8427 0.68048 0.62124 0.0
O326 O 0.81 0.63194 0.63099 0.0
O327 O 0.86646 0.67473 0.68919 0.0
O328 O 0.83309 0.63397 0.67186 0.0
O329 O 0.7716 0.67581 0.68913 0.0
O330 O 0.76173 0.6766 0.65771 0.0
O331 O 0.81017 0.70736 0.71993 0.0
O332 O 0.83368 0.7615 0.71069 0.0
C333 C 0.88874 0.73389 0.66348 0.0
O334 O 0.79893 0.73932 0.64562 0.0
O335 O 0.78008 0.75299 0.67559 0.0
C336 C 0.80944 0.64493 0.59836 0.0
C337 C 0.78159 0.64018 0.56146 0.0
C338 C 0.77211 0.67132 0.57287 0.0
C339 C 0.78596 0.67372 0.59112 0.0
C340 C 0.81835 0.61359 0.58717 0.0
C341 C 0.80465 0.61121 0.56898 0.0
C342 C 0.82724 0.64785 0.61691 0.0
C343 C 0.85695 0.63979 0.6856 0.0
C344 C 0.75008 0.66872 0.6746 0.0
C345 C 0.85766 0.73412 0.73818 0.0
C346 C 0.91108 0.71469 0.76556 0.0
C347 C 0.9151 0.70094 0.74744 0.0
C348 C 0.88874 0.7109 0.73381 0.0
C349 C 0.85453 0.74935 0.75595 0.0
C350 C 0.88113 0.73987 0.76953 0.0
C351 C 0.82676 0.73907 0.72481 0.0
H352 H 0.7547 0.69434 0.56757 0.0
H353 H 0.77888 0.69832 0.59944 0.0
H354 H 0.83649 0.59109 0.59244 0.0
H355 H 0.81206 0.58649 0.56081 0.0
H356 H 0.93783 0.68154 0.74401 0.0
H357 H 0.89175 0.69919 0.72008 0.0
H358 H 0.83066 0.76717 0.75956 0.0
H359 H 0.87685 0.7504 0.78346 0.0
Dy360 Dy 0.11397 0.06625 0.89572 0.0
Dy361 Dy 0.07665 0.0598 0.93694 0.0
C362 C 0.0321 1.02922 0.90295 0.0
O363 O 0.07454 0.11589 0.89871 0.0
O364 O 0.08136 0.12209 0.92981 0.0
O365 O 0.1062 0.08349 0.86723 0.0
O366 O 0.16062 0.06152 0.87601 0.0
O367 O 0.13857 0.06024 0.94043 0.0
O368 O 0.15132 0.09961 0.91604 0.0
O369 O 0.09473 0.99989 0.93069 0.0
O370 O 0.138 1.01213 0.90751 0.0
O371 O 0.05944 1.0292 0.96176 0.0
O372 O 0.05346 0.09048 0.96015 0.0
C373 C 0.07182 0.13664 0.91369 0.0
O374 O 0.0649 1.02433 0.89455 0.0
O375 O 0.0293 0.05207 0.91718 0.0
C376 C 0.14474 0.05652 0.84358 0.0
C377 C 0.15079 0.03413 0.80581 0.0
C378 C 0.11805 1.02548 0.81625 0.0
C379 C 0.11503 0.03659 0.83489 0.0
C380 C 0.17787 0.06393 0.83343 0.0
C381 C 0.18096 0.05278 0.81487 0.0
C382 C 0.14029 0.07413 0.86215 0.0
C383 C 0.15991 0.08615 0.93271 0.0
C384 C 0.12351 0.98938 0.92033 0.0
C385 C 0.08157 0.06556 0.98726 0.0
C386 C 0.13747 0.07632 1.01482 0.0
C387 C 0.11714 0.1076 1.00771 0.0
C388 C 0.08943 0.10227 0.99414 0.0
C389 C 0.10178 0.03426 0.99446 0.0
C390 C 0.12942 0.03959 1.00805 0.0
C391 C 0.05617 0.06083 0.97108 0.0
H392 H 0.09407 1.01143 0.80984 0.0
H393 H 0.08897 1.03071 0.84231 0.0
H394 H 0.20116 0.07933 0.83975 0.0
H395 H 0.20703 0.05914 0.80757 0.0
H396 H 0.12259 0.13623 1.01266 0.0
H397 H 0.07464 0.12707 0.98879 0.0
H398 H 0.09663 1.00561 0.98944 0.0
H399 H 0.14382 1.01473 1.01358 0.0
Dy400 Dy 0.71181 0.37216 0.14982 0.0
Dy401 Dy 0.71338 0.3378 0.19204 0.0
C402 C 0.74688 0.28719 0.15885 0.0
O403 O 0.65364 0.34916 0.15658 0.0
O404 O 0.6689 0.3031 0.17804 0.0
O405 O 0.68934 0.36989 0.12188 0.0
O406 O 0.72503 0.41732 0.13014 0.0
O407 O 0.66961 0.3822 0.18978 0.0
O408 O 0.70197 0.42057 0.17043 0.0
O409 O 0.75965 0.38198 0.18876 0.0
O410 O 0.77239 0.37292 0.15818 0.0
O411 O 0.7447 0.32041 0.21641 0.0
O412 O 0.6839 0.32748 0.2178 0.0
C413 C 0.64496 0.31795 0.16606 0.0
O414 O 0.73823 0.31362 0.14632 0.0
O415 O 0.74061 0.29113 0.17668 0.0
C416 C 0.72389 0.40136 0.09778 0.0
C417 C 0.75333 0.40666 0.06117 0.0
C418 C 0.7769 0.41242 0.07672 0.0
C419 C 0.76236 0.40983 0.09482 0.0
C420 C 0.70049 0.39519 0.08233 0.0
C421 C 0.71497 0.39772 0.06428 0.0
C422 C 0.70666 0.40108 0.11657 0.0
C423 C 0.67921 0.4165 0.18477 0.0
C424 C 0.78306 0.38452 0.17462 0.0
C425 C 0.72033 0.35379 0.24216 0.0
C426 C 0.73179 0.41319 0.26785 0.0
C427 C 0.69549 0.40588 0.26075 0.0
C428 C 0.68981 0.37656 0.24798 0.0
C429 C 0.75649 0.36082 0.24952 0.0
C430 C 0.76218 0.39031 0.26215 0.0
C431 C 0.71544 0.3255 0.22717 0.0
H432 H 0.80649 0.41976 0.07493 0.0
H433 H 0.78111 0.41496 0.10644 0.0
H434 H 0.67069 0.38877 0.08421 0.0
H435 H 0.69603 0.39246 0.05275 0.0
H436 H 0.67154 0.42295 0.26501 0.0
H437 H 0.66158 0.37215 0.24251 0.0
H438 H 0.78056 0.34384 0.24534 0.0
H439 H 0.79031 0.39465 0.26777 0.0
Dy440 Dy 0.4377 0.98393 0.39545 0.0
Dy441 Dy 0.4888 0.97962 0.43306 0.0
C442 C 0.52064 1.02329 0.39807 0.0
O443 O 0.4531 0.92255 0.40093 0.0
O444 O 0.51063 0.93833 0.41212 0.0
O445 O 0.42952 0.96443 0.36737 0.0
O446 O 0.38928 1.00372 0.37936 0.0
O447 O 0.43971 0.9424 0.43941 0.0
O448 O 0.39716 0.96956 0.41919 0.0
O449 O 0.44409 1.02409 0.43793 0.0
O450 O 0.43753 0.04269 0.40757 0.0
O451 O 0.52569 0.94519 0.45024 0.0
O452 O 0.5143 1.004 0.45745 0.0
C453 C 0.48791 0.91264 0.40503 0.0
O454 O 0.4968 1.00431 0.3874 0.0
O455 O 0.51709 1.02365 0.41605 0.0
C456 C 0.39519 1.00431 0.34616 0.0
C457 C 0.38376 1.0322 0.30938 0.0
C458 C 0.42056 1.0252 0.31618 0.0
C459 C 0.42621 1.01129 0.33434 0.0
C460 C 0.35867 1.01245 0.33959 0.0
C461 C 0.353 1.02624 0.3215 0.0
C462 C 0.39942 0.98517 0.36455 0.0
C463 C 0.40481 0.94947 0.43438 0.0
C464 C 0.43322 0.04935 0.42539 0.0
C465 C 0.57751 0.98213 0.46074 0.0
C466 C 0.6559 0.99651 0.46469 0.0
C467 C 0.64219 0.95884 0.46316 0.0
C468 C 0.60336 0.95173 0.46137 0.0
C469 C 0.59145 1.01976 0.46071 0.0
C470 C 0.63009 1.02685 0.46264 0.0
C471 C 0.53631 0.97455 0.45999 0.0
H472 H 0.44495 1.02927 0.30729 0.0
H473 H 0.45475 1.00514 0.33895 0.0
H474 H 0.33424 1.00725 0.34835 0.0
H475 H 0.32433 1.032 0.31699 0.0
H476 H 0.66122 0.93476 0.46438 0.0
H477 H 0.59347 0.9224 0.46104 0.0
H478 H 0.57245 0.04394 0.45992 0.0
H479 H 0.6391 0.05631 0.46397 0.0
Dy480 Dy 0.25288 0.30709 0.40622 0.0
Dy481 Dy 0.24122 0.36377 0.44171 0.0
C482 C 0.22355 0.39247 0.39986 0.0
O483 O 0.31015 0.3339 0.41139 0.0
O484 O 0.29193 0.38775 0.42717 0.0
O485 O 0.25214 0.29107 0.3775 0.0
O486 O 0.27314 0.25127 0.39821 0.0
O487 O 0.28276 0.31633 0.44785 0.0
O488 O 0.24579 0.2758 0.43281 0.0
O489 O 0.18552 0.33278 0.4383 0.0
O490 O 0.18987 0.30809 0.40886 0.0
O491 O 0.22027 0.36459 0.46976 0.0
O492 O 0.24856 0.4147 0.45864 0.0
C493 C 0.31684 0.36901 0.4172 0.0
O494 O 0.24521 0.36478 0.39388 0.0
O495 O 0.213 0.39481 0.41748 0.0
C496 C 0.23745 0.227 0.37321 0.0
C497 C 0.18134 0.18991 0.35225 0.0
C498 C 0.17324 0.20269 0.37027 0.0
C499 C 0.20115 0.22122 0.38067 0.0
C500 C 0.24681 0.21053 0.35626 0.0
C501 C 0.21908 0.19195 0.34588 0.0
C502 C 0.26261 0.25608 0.38101 0.0
C503 C 0.27294 0.28091 0.44467 0.0
C504 C 0.17006 0.31622 0.42375 0.0
C505 C 0.25034 0.40468 0.49172 0.0
C506 C 0.27609 0.41182 0.52904 0.0
C507 C 0.29154 0.38406 0.51712 0.0
C508 C 0.27874 0.38047 0.4987 0.0
C509 C 0.23543 0.43274 0.50339 0.0
C510 C 0.248 0.43625 0.52175 0.0
C511 C 0.23282 0.39888 0.47319 0.0
H512 H 0.14469 0.20113 0.3757 0.0
H513 H 0.19363 0.23365 0.39386 0.0
H514 H 0.27468 0.21486 0.3503 0.0
H515 H 0.22656 0.18289 0.33204 0.0
H516 H 0.31351 0.36499 0.52201 0.0
H517 H 0.29051 0.35834 0.49003 0.0
H518 H 0.21309 0.45136 0.49845 0.0
H519 H 0.23472 0.45751 0.53039 0.0
Dy520 Dy 0.96106 0.98527 0.15213 0.0
Dy521 Dy 0.91264 0.97955 0.19081 0.0
C522 C 0.8796 0.94792 0.15168 0.0
O523 O 0.91323 1.02735 0.14942 0.0
O524 O 0.90859 0.03957 0.18047 0.0
O525 O 0.99364 0.95553 0.13145 0.0
O526 O 0.98676 1.01696 0.12966 0.0
O527 O 0.97042 1.00315 0.19868 0.0
O528 O 0.98771 1.02778 0.17031 0.0
O529 O 0.93405 0.92122 0.18415 0.0
O530 O 0.98858 0.94278 0.17114 0.0
O531 O 0.90656 0.95412 0.21804 0.0
O532 O 0.86552 0.99546 0.20846 0.0
C533 C 0.90195 0.04929 0.16312 0.0
O534 O 0.91446 0.9452 0.14579 0.0
O535 O 0.87134 0.965 0.16749 0.0
C536 C 0.04616 0.99161 0.12181 0.0
C537 C 0.12434 1.00394 0.11665 0.0
C538 C 0.10267 0.98407 0.10336 0.0
C539 C 0.06402 0.97802 0.10593 0.0
C540 C 0.06779 1.00946 0.13568 0.0
C541 C 0.10659 1.01576 0.13308 0.0
C542 C 1.00503 0.98721 0.12365 0.0
C543 C 0.99193 1.02546 0.18824 0.0
C544 C 0.96912 0.91517 0.17907 0.0
C545 C 0.87662 0.9913 0.24105 0.0
C546 C 0.8767 1.01993 0.27782 0.0
C547 C 0.9056 1.03013 0.26518 0.0
C548 C 0.90558 1.01593 0.247 0.0
C549 C 0.84766 0.98133 0.25349 0.0
C550 C 0.84765 0.99543 0.27164 0.0
C551 C 0.87689 0.97422 0.22232 0.0
H552 H 0.11491 0.97524 0.09031 0.0
H553 H 0.04781 0.96386 0.0952 0.0
H554 H 0.05447 1.01955 0.14825 0.0
H555 H 0.12236 1.03107 0.14356 0.0
H556 H 0.92867 0.04856 0.26943 0.0
H557 H 0.92838 1.02381 0.23767 0.0
H558 H 0.82506 0.96232 0.2492 0.0
H559 H 0.82462 0.98738 0.28079 0.0
Dy560 Dy 0.29674 0.73221 0.90872 0.0
Dy561 Dy 0.31263 0.67542 0.94372 0.0
C562 C 0.32578 0.64775 0.90116 0.0
O563 O 0.24263 0.69949 0.91342 0.0
O564 O 0.26188 0.64822 0.93111 0.0
O565 O 0.30472 0.76479 0.88343 0.0
O566 O 0.25571 0.7747 0.90112 0.0
O567 O 0.27084 0.72235 0.95027 0.0
O568 O 0.30887 0.76108 0.93515 0.0
O569 O 0.36793 0.70626 0.93822 0.0
O570 O 0.35954 0.73268 0.90913 0.0
O571 O 0.33861 0.67449 0.97076 0.0
O572 O 0.30659 0.62527 0.96167 0.0
C573 C 0.23684 0.6651 0.92041 0.0
O574 O 0.30495 0.67636 0.89517 0.0
O575 O 0.33709 0.64451 0.9187 0.0
C576 C 0.27924 0.82779 0.8848 0.0
C577 C 0.28481 0.90663 0.877 0.0
C578 C 0.31714 0.88571 0.88226 0.0
C579 C 0.31439 0.84648 0.88612 0.0
C580 C 0.2467 0.8491 0.88106 0.0
C581 C 0.24937 0.88801 0.87719 0.0
C582 C 0.27519 0.78617 0.88675 0.0
C583 C 0.28161 0.75748 0.94698 0.0
C584 C 0.38127 0.72382 0.9233 0.0
C585 C 0.30779 0.6383 0.99433 0.0
C586 C 0.28344 0.63366 1.03202 0.0
C587 C 0.27962 0.6678 1.02162 0.0
C588 C 0.2915 0.67004 1.00306 0.0
C589 C 0.31122 0.60412 1.00447 0.0
C590 C 0.29932 0.60181 1.02302 0.0
C591 C 0.32448 0.64133 0.97543 0.0
H592 H 0.34479 0.89917 0.8824 0.0
H593 H 0.33982 0.83062 0.88944 0.0
H594 H 0.21923 0.83526 0.88027 0.0
H595 H 0.22378 0.90265 0.87297 0.0
H596 H 0.26835 0.69333 1.02789 0.0
H597 H 0.28872 0.69694 0.99566 0.0
H598 H 0.32381 0.57925 0.99813 0.0
H599 H 0.30246 0.57478 1.03022 0.0
Dy600 Dy 0.59719 0.08161 0.64575 0.0
Dy601 Dy 0.62831 0.07626 0.68862 0.0
C602 C 0.67555 0.11235 0.65524 0.0
O603 O 0.63886 0.03328 0.64754 0.0
O604 O 0.63072 1.01676 0.67804 0.0
O605 O 0.57919 0.05663 0.61992 0.0
O606 O 0.58959 0.11762 0.62162 0.0
O607 O 0.57121 0.04673 0.68997 0.0
O608 O 0.55047 0.05041 0.6594 0.0
O609 O 0.60587 0.13581 0.68297 0.0
O610 O 0.56035 0.12036 0.66179 0.0
O611 O 0.62185 0.09128 0.71747 0.0
O612 O 0.6731 0.0632 0.70842 0.0
C613 C 0.64166 1.00823 0.66117 0.0
O614 O 0.64229 0.12437 0.65042 0.0
O615 O 0.67766 0.0871 0.6688 0.0
C616 C 0.61341 0.08628 0.59543 0.0
C617 C 0.67022 0.08436 0.56791 0.0
C618 C 0.65074 0.11845 0.57166 0.0
C619 C 0.62257 0.11934 0.58523 0.0
C620 C 0.63327 0.05238 0.59194 0.0
C621 C 0.66118 0.0514 0.57831 0.0
C622 C 0.58576 0.08828 0.61072 0.0
C623 C 0.54598 0.04002 0.6768 0.0
C624 C 0.57447 0.14425 0.6739 0.0
C625 C 0.65592 0.05539 0.74049 0.0
C626 C 0.66038 1.02373 0.77696 0.0
C627 C 0.62565 1.0248 0.76729 0.0
C628 C 0.62341 0.04057 0.7493 0.0
C629 C 0.69068 0.05328 0.74989 0.0
C630 C 0.69292 0.03767 0.76783 0.0
C631 C 0.65415 0.07648 0.72249 0.0
H632 H 0.65706 0.14449 0.56407 0.0
H633 H 0.60812 0.14601 0.58788 0.0
H634 H 0.62733 1.02644 0.59971 0.0
H635 H 0.67475 1.02435 0.57558 0.0
H636 H 0.59992 1.01457 0.77383 0.0
H637 H 0.59611 0.04194 0.74248 0.0
H638 H 0.71616 0.0646 0.74351 0.0
H639 H 0.72031 0.03672 0.77457 0.0
H640 H 0.13702 0.20103 0.24168 0.0
H641 H 0.14193 0.30783 0.27115 0.0
H642 H 0.11087 0.1696 0.26907 0.0
H643 H 0.11768 0.27655 0.29865 0.0
H644 H 0.1785 0.13802 0.32381 0.0
H645 H 0.14906 0.15211 0.29432 0.0
H646 H 0.08227 0.24043 0.31996 0.0
H647 H 0.11396 0.22821 0.34918 0.0
C648 C 0.13117 0.21816 0.25379 0.0
C649 C 0.14279 0.25661 0.25455 0.0
C650 C 0.1164 0.20004 0.26956 0.0
C651 C 0.11353 0.21998 0.28638 0.0
C652 C 0.11968 0.25982 0.28613 0.0
C653 C 0.13417 0.2779 0.27037 0.0
C654 C 0.15657 0.15957 0.32331 0.0
C655 C 0.1505 0.18363 0.33852 0.0
C656 C 0.13919 0.1675 0.30634 0.0
C657 C 0.11497 0.19921 0.30449 0.0
C658 C 0.1023 0.2171 0.32073 0.0
C659 C 0.1203 0.20972 0.33763 0.0
H660 H 0.36193 0.54239 0.54255 0.0
H661 H 0.35947 0.63816 0.58001 0.0
H662 H 0.34809 0.58403 0.51703 0.0
H663 H 0.34591 0.68084 0.55397 0.0
H664 H 0.38122 0.63642 0.47338 0.0
H665 H 0.3302 0.63215 0.4958 0.0
H666 H 0.39723 0.69736 0.53456 0.0
H667 H 0.447 0.70331 0.51183 0.0
C668 C 0.35675 0.57219 0.54554 0.0
C669 C 0.36396 0.58721 0.56319 0.0
C670 C 0.34847 0.59649 0.53073 0.0
C671 C 0.34798 0.63642 0.5332 0.0
C672 C 0.34778 0.65044 0.55144 0.0
C673 C 0.35596 0.626 0.56634 0.0
C674 C 0.38409 0.65202 0.48622 0.0
C675 C 0.4191 0.66791 0.49146 0.0
C676 C 0.35475 0.6494 0.49918 0.0
C677 C 0.36112 0.66119 0.51754 0.0
C678 C 0.39188 0.686 0.52087 0.0
C679 C 0.42088 0.68925 0.50784 0.0
H680 H 0.19001 0.92238 0.79869 0.0
H681 H 0.28199 0.98328 0.77187 0.0
H682 H 0.20459 0.95318 0.82734 0.0
H683 H 0.2984 1.01237 0.80151 0.0
H684 H 0.23677 0.96867 0.87833 0.0
H685 H 0.2218 1.00478 0.85036 0.0
H686 H 0.32608 0.96692 0.82551 0.0
H687 H 0.34014 0.92975 0.85282 0.0
C688 C 0.21257 0.94335 0.79858 0.0
C689 C 0.23585 0.9488 0.78296 0.0
C690 C 0.22092 0.96139 0.81523 0.0
C691 C 0.25339 0.98447 0.81686 0.0
C692 C 0.27355 0.99421 0.80071 0.0
C693 C 0.26457 0.97683 0.78384 0.0
C694 C 0.25743 0.96961 0.86724 0.0
C695 C 0.28812 0.94405 0.86719 0.0
C696 C 0.249 0.99074 0.85125 0.0
C697 C 0.27162 0.98676 0.83536 0.0
C698 C 0.30737 0.96966 0.83732 0.0
C699 C 0.31548 0.94802 0.85315 0.0
H700 H 0.16507 0.54204 0.96073 0.0
H701 H 0.18514 0.44248 0.99495 0.0
H702 H 0.20661 0.57923 0.98039 0.0
H703 H 0.22315 0.48026 1.01561 0.0
H704 H 0.14612 0.62101 1.03361 0.0
H705 H 0.17374 0.60055 1.00525 0.0
H706 H 0.24735 0.52351 1.03553 0.0
H707 H 0.21922 0.54476 0.0644 0.0
C708 C 0.17942 0.52753 0.97202 0.0
C709 C 0.16916 0.49015 0.97735 0.0
C710 C 0.20301 0.54912 0.98351 0.0
C711 C 0.21417 0.53407 1.00085 0.0
C712 C 0.21283 0.49404 1.00314 0.0
C713 C 0.19051 0.47209 0.99129 0.0
C714 C 0.16912 0.60073 1.03445 0.0
C715 C 0.17893 0.58313 0.05132 0.0
C716 C 0.18547 0.58885 1.01792 0.0
C717 C 0.2116 0.55845 1.01776 0.0
C718 C 0.22579 0.54536 1.03492 0.0
C719 C 0.20941 0.55736 0.05152 0.0
H720 H 0.85437 0.61382 0.84997 0.0
H721 H 0.91855 0.70628 0.87412 0.0
H722 H 0.90006 0.60929 0.8255 0.0
H723 H 0.96742 0.69775 0.85114 0.0
H724 H 0.92924 0.63991 0.77249 0.0
H725 H 0.94394 0.61344 0.8029 0.0
H726 H 0.95698 0.72835 0.82402 0.0
H727 H 0.94473 0.75391 0.79361 0.0
C728 C 0.8792 0.63205 0.85057 0.0
C729 C 0.88076 0.66297 0.86288 0.0
C730 C 0.90626 0.62888 0.83661 0.0
C731 C 0.93603 0.65571 0.83527 0.0
C732 C 0.94314 0.67879 0.85082 0.0
C733 C 0.91509 0.68332 0.86429 0.0
C734 C 0.93718 0.65931 0.78349 0.0
C735 C 0.93404 0.69905 0.78101 0.0
C736 C 0.94522 0.64414 0.80105 0.0
C737 C 0.94888 0.66855 0.81643 0.0
C738 C 0.95309 0.7081 0.81293 0.0
C739 C 0.94562 0.72315 0.79538 0.0
H740 H 0.68845 0.42485 0.29842 0.0
H741 H 0.78825 0.46678 0.27034 0.0
H742 H 0.70729 0.4574 0.32622 0.0
H743 H 0.80678 0.50152 0.29811 0.0
H744 H 0.75012 0.45911 0.37646 0.0
H745 H 0.72888 0.49591 0.34964 0.0
H746 H 0.83595 0.4742 0.32274 0.0
H747 H 0.85695 0.43905 0.34924 0.0
C748 C 0.71381 0.44235 0.29801 0.0
C749 C 0.73777 0.44191 0.28254 0.0
C750 C 0.72467 0.46159 0.31402 0.0
C751 C 0.75983 0.48084 0.31489 0.0
C752 C 0.78055 0.48543 0.29833 0.0
C753 C 0.77003 0.46549 0.28241 0.0
C754 C 0.76974 0.46397 0.36514 0.0
C755 C 0.80397 0.44363 0.3643 0.0
C756 C 0.75751 0.48493 0.34968 0.0
C757 C 0.77909 0.48458 0.33326 0.0
C758 C 0.81729 0.47342 0.33463 0.0
C759 C 0.82965 0.45291 0.35009 0.0
H760 H 0.15601 0.07473 0.12314 0.0
H761 H 0.18087 0.96595 0.09826 0.0
H762 H 0.19556 0.10651 0.10024 0.0
H763 H 0.21716 0.99775 0.07446 0.0
H764 H 0.12801 0.12162 0.04496 0.0
H765 H 0.1589 0.11515 0.07434 0.0
H766 H 0.23831 0.0352 0.05061 0.0
H767 H 0.20651 0.04206 1.02074 0.0
C768 C 0.1711 0.05726 0.11329 0.0
C769 C 0.16259 1.01819 0.11136 0.0
C770 C 0.19361 0.07562 0.09996 0.0
C771 C 0.20529 0.0553 0.08417 0.0
C772 C 0.20619 1.01511 0.08557 0.0
C773 C 0.18488 0.99658 0.09923 0.0
C774 C 0.15288 0.10368 0.04576 0.0
C775 C 0.16362 0.08089 1.03077 0.0
C776 C 0.17111 0.09999 0.06279 0.0
C777 C 0.20008 0.07277 0.06535 0.0
C778 C 0.21484 0.05489 0.04949 0.0
C779 C 0.19652 0.05863 1.03237 0.0
H780 H 0.6941 0.95411 0.49067 0.0
H781 H 0.7049 0.057 0.45757 0.0
H782 H 0.73029 0.98286 0.51489 0.0
H783 H 0.74126 0.08647 0.48244 0.0
H784 H 0.73516 0.04133 0.56489 0.0
H785 H 0.76506 1.02213 0.53596 0.0
H786 H 0.69614 0.10389 0.50613 0.0
H787 H 0.66565 0.12165 0.53447 0.0
C788 C 0.70595 0.98218 0.488 0.0
C789 C 0.6939 1.00443 0.4728 0.0
C790 C 0.72714 0.99891 0.50209 0.0
C791 C 0.73584 0.03813 0.5012 0.0
C792 C 0.73286 0.05679 0.48392 0.0
C793 C 0.71176 0.03996 0.46971 0.0
C794 C 0.72682 0.05552 0.55214 0.0
C795 C 0.69657 0.0816 0.5519 0.0
C796 C 0.74438 0.0449 0.53561 0.0
C797 C 0.73213 0.06037 0.51859 0.0
C798 C 0.70633 0.09094 0.51886 0.0
C799 C 0.68844 0.10112 0.53529 0.0
H800 H 0.21602 0.04816 0.94983 0.0
H801 H 0.16507 0.15944 0.94564 0.0
H802 H 0.2462 0.06591 0.97877 0.0
H803 H 0.19631 0.17821 0.97462 0.0
H804 H 0.20804 0.17212 1.03913 0.0
H805 H 0.18882 0.1651 1.0069 0.0
H806 H 0.29033 0.10072 0.99598 0.0
H807 H 0.30947 0.10765 1.02812 0.0
C808 C 0.21301 0.07728 0.95463 0.0
C809 C 0.18904 0.10271 0.94512 0.0
C810 C 0.23012 0.08748 0.97141 0.0
C811 C 0.22373 0.12356 0.97933 0.0
C812 C 0.20164 0.15 0.96916 0.0
C813 C 0.18446 0.13967 0.95226 0.0
C814 C 0.22666 0.15698 1.02984 0.0
C815 C 0.2601 0.13988 1.03656 0.0
C816 C 0.21559 0.15298 1.01121 0.0
C817 C 0.23764 0.13186 0.99865 0.0
C818 C 0.27191 0.1163 1.0052 0.0
C819 C 0.28291 0.12021 1.02379 0.0
H820 H 0.60516 0.5239 0.28699 0.0
H821 H 0.72637 0.53841 0.28455 0.0
H822 H 0.60462 0.50458 0.25479 0.0
H823 H 0.7265 0.51636 0.25277 0.0
H824 H 0.72169 0.48089 0.19325 0.0
H825 H 0.71614 0.51906 0.22148 0.0
H826 H 0.61637 0.45409 0.23693 0.0
H827 H 0.62055 0.41892 0.20852 0.0
C828 C 0.63188 0.52238 0.27969 0.0
C829 C 0.66594 0.53167 0.28873 0.0
C830 C 0.63168 0.51107 0.26108 0.0
C831 C 0.66567 0.50766 0.25092 0.0
C832 C 0.69954 0.51873 0.25976 0.0
C833 C 0.69956 0.53105 0.27825 0.0
C834 C 0.69772 0.47615 0.20235 0.0
C835 C 0.6715 0.44694 0.19855 0.0
C836 C 0.69489 0.49744 0.21882 0.0
C837 C 0.66602 0.4897 0.23196 0.0
C838 C 0.63867 0.46197 0.22735 0.0
C839 C 0.64118 0.44136 0.21092 0.0
H840 H 0.34371 0.8985 0.5451 0.0
H841 H 0.23802 0.94578 0.52563 0.0
H842 H 0.36938 0.90311 0.51389 0.0
H843 H 0.26386 0.95048 0.49426 0.0
H844 H 0.34518 0.99321 0.44615 0.0
H845 H 0.31008 0.98462 0.47523 0.0
H846 H 0.3647 0.87566 0.48379 0.0
H847 H 0.40017 0.88489 0.45516 0.0
C848 C 0.3257 0.90948 0.53414 0.0
C849 C 0.28865 0.92164 0.53804 0.0
C850 C 0.34045 0.91209 0.51613 0.0
C851 C 0.31866 0.92686 0.50136 0.0
C852 C 0.28166 0.93925 0.50524 0.0
C853 C 0.26685 0.93661 0.5233 0.0
C854 C 0.34855 0.96684 0.45393 0.0
C855 C 0.37531 0.93965 0.44831 0.0
C856 C 0.32868 0.96199 0.47072 0.0
C857 C 0.33513 0.92979 0.48219 0.0
C858 C 0.35971 0.90132 0.47569 0.0
C859 C 0.37965 0.90631 0.45908 0.0
H860 H 0.92033 0.63262 0.70631 0.0
H861 H 0.80746 0.58697 0.70041 0.0
H862 H 0.92584 0.60268 0.73676 0.0
H863 H 0.81306 0.55614 0.73097 0.0
H864 H 0.81739 0.55965 0.79536 0.0
H865 H 0.81409 0.57974 0.76299 0.0
H866 H 0.92986 0.54446 0.75504 0.0
H867 H 0.93308 0.52371 0.78735 0.0
C868 C 0.89721 0.61483 0.71124 0.0
C869 C 0.86365 0.61177 0.70081 0.0
C870 C 0.9003 0.59776 0.72879 0.0
C871 C 0.86979 0.57722 0.73651 0.0
C872 C 0.83697 0.57219 0.72559 0.0
C873 C 0.83397 0.58918 0.70789 0.0
C874 C 0.84208 0.55562 0.78671 0.0
C875 C 0.87547 0.53972 0.79415 0.0
C876 C 0.84012 0.56713 0.76806 0.0
C877 C 0.87155 0.56339 0.75624 0.0
C878 C 0.9051 0.54799 0.7637 0.0
C879 C 0.90701 0.53625 0.78234 0.0
H880 H 0.81863 0.98878 0.13896 0.0
H881 H 0.87708 0.88182 0.13262 0.0
H882 H 0.7854 0.97793 0.10955 0.0
H883 H 0.84351 0.87034 0.10366 0.0
H884 H 0.82799 0.89199 1.04164 0.0
H885 H 0.85048 0.8979 0.07335 0.0
H886 H 0.74158 0.9415 0.09 0.0
H887 H 0.71885 0.93534 0.05812 0.0
C888 C 0.823 0.96211 0.13174 0.0
C889 C 0.85021 0.93598 0.13818 0.0
C890 C 0.80426 0.95601 0.11475 0.0
C891 C 0.8124 0.92364 0.1039 0.0
C892 C 0.83723 0.89609 0.11129 0.0
C893 C 0.85602 0.90231 0.12809 0.0
C894 C 0.80855 0.90237 0.05204 0.0
C895 C 0.77146 0.91299 0.04715 0.0
C896 C 0.82147 0.90573 0.07034 0.0
C897 C 0.79778 0.91981 0.08443 0.0
C898 C 0.76076 0.93077 0.07956 0.0
C899 C 0.74776 0.92732 0.06121 0.0
H900 H 0.27909 0.61391 0.87668 0.0
H901 H 0.39659 0.62036 0.89259 0.0
H902 H 0.29619 0.57993 0.84861 0.0
H903 H 0.41415 0.58595 0.86421 0.0
H904 H 0.42661 0.57885 0.79906 0.0
H905 H 0.41432 0.60159 0.83043 0.0
H906 H 0.32151 0.52164 0.83554 0.0
H907 H 0.33391 0.49866 0.80434 0.0
C908 C 0.3086 0.60698 0.87439 0.0
C909 C 0.33646 0.61939 0.88692 0.0
C910 C 0.31847 0.58749 0.85826 0.0
C911 C 0.35662 0.58027 0.854 0.0
C912 C 0.38452 0.5913 0.86696 0.0
C913 C 0.37449 0.61047 0.88334 0.0
C914 C 0.4039 0.56569 0.80694 0.0
C915 C 0.38099 0.53716 0.79892 0.0
C916 C 0.39693 0.57869 0.825 0.0
C917 C 0.36679 0.56362 0.83557 0.0
C918 C 0.34458 0.53439 0.82775 0.0
C919 C 0.3516 0.52133 0.80975 0.0
H920 H 0.82813 0.09659 0.55903 0.0
H921 H 0.73842 0.17654 0.54661 0.0
H922 H 0.80551 0.09134 0.59084 0.0
H923 H 0.71712 0.17242 0.57845 0.0
H924 H 0.69568 0.17896 0.63881 0.0
H925 H 0.72997 0.18712 0.60974 0.0
H926 H 0.75357 0.0661 0.60913 0.0
H927 H 0.72026 0.05847 0.63874 0.0
C928 C 0.80358 0.11308 0.56293 0.0
C929 C 0.78518 0.1369 0.54987 0.0
C930 C 0.79068 0.11012 0.58133 0.0
C931 C 0.75934 0.13134 0.58739 0.0
C932 C 0.74168 0.15597 0.57451 0.0
C933 C 0.75417 0.15852 0.5561 0.0
C934 C 0.70955 0.15438 0.63284 0.0
C935 C 0.70592 0.11825 0.64129 0.0
C936 C 0.72863 0.15888 0.61594 0.0
C937 C 0.74412 0.1272 0.60677 0.0
C938 C 0.74243 0.09129 0.61579 0.0
C939 C 0.72361 0.08689 0.63289 0.0
H940 H 0.15173 0.41941 0.39223 0.0
H941 H 0.26778 0.42616 0.37407 0.0
H942 H 0.13165 0.45292 0.36373 0.0
H943 H 0.24825 0.45881 0.34584 0.0
H944 H 0.20893 0.53695 0.30061 0.0
H945 H 0.22334 0.51514 0.33193 0.0
H946 H 0.12693 0.43901 0.33043 0.0
H947 H 0.11227 0.46123 0.29896 0.0
C948 C 0.17301 0.42915 0.38246 0.0
C949 C 0.21139 0.4206 0.38551 0.0
C950 C 0.16153 0.44777 0.36597 0.0
C951 C 0.18824 0.45855 0.3523 0.0
C952 C 0.22675 0.45159 0.35599 0.0
C953 C 0.23805 0.4328 0.37225 0.0
C954 C 0.1908 0.51543 0.30687 0.0
C955 C 0.15974 0.50048 0.297 0.0
C956 C 0.19904 0.50294 0.32494 0.0
C957 C 0.17659 0.47493 0.33381 0.0
C958 C 0.14471 0.46088 0.32421 0.0
C959 C 0.13636 0.47352 0.30608 0.0
H960 H 0.71154 0.65932 0.54774 0.0
H961 H 0.81995 0.61541 0.53055 0.0
H962 H 0.68836 0.65423 0.51608 0.0
H963 H 0.7968 0.6105 0.49873 0.0
H964 H 0.72199 0.56476 0.44946 0.0
H965 H 0.75408 0.57497 0.47916 0.0
H966 H 0.69332 0.68091 0.48585 0.0
H967 H 0.66074 0.66996 0.45659 0.0
C968 C 0.73066 0.64906 0.53717 0.0
C969 C 0.76767 0.63781 0.54183 0.0
C970 C 0.71738 0.64618 0.51891 0.0
C971 C 0.74071 0.63215 0.50464 0.0
C972 C 0.7778 0.62103 0.50928 0.0
C973 C 0.79108 0.62383 0.5276 0.0
C974 C 0.71656 0.59084 0.457 0.0
C975 C 0.68893 0.61661 0.45064 0.0
C976 C 0.73474 0.59663 0.47413 0.0
C977 C 0.72576 0.62841 0.48523 0.0
C978 C 0.70025 0.65555 0.47805 0.0
C979 C 0.68195 0.64959 0.4611 0.0
H980 H 0.18428 0.07637 0.77797 0.0
H981 H 0.12223 0.97143 0.78723 0.0
H982 H 0.19081 0.0608 0.7454 0.0
H983 H 0.1284 0.95599 0.75451 0.0
H984 H 0.13496 0.93627 0.69341 0.0
H985 H 0.11556 0.96531 0.72275 0.0
H986 H 0.22514 1.0201 0.72682 0.0
H987 H 0.24328 0.99247 0.69747 0.0
C988 C 0.17224 0.04975 0.77314 0.0
C989 C 0.15326 1.02493 0.78551 0.0
C990 C 0.17588 0.04082 0.75431 0.0
C991 C 0.16073 1.00669 0.74713 0.0
C992 C 0.14035 0.98264 0.75933 0.0
C993 C 0.13682 0.99151 0.77823 0.0
C994 C 0.1539 0.95633 0.70011 0.0
C995 C 0.1903 0.96287 0.69288 0.0
C996 C 0.14325 0.97222 0.71722 0.0
C997 C 0.16886 0.99485 0.7275 0.0
C998 C 0.20418 1.00349 0.71942 0.0
C999 C 0.21463 0.98781 0.7024 0.0
H1000 H 0.82246 0.3834 0.04806 0.0
H1001 H 0.71886 0.43762 1.03022 0.0
H1002 H 0.84765 0.38949 1.01682 0.0
H1003 H 0.7435 0.44217 0.99864 0.0
H1004 H 0.8248 0.48514 0.95082 0.0
H1005 H 0.78996 0.47554 0.97987 0.0
H1006 H 0.84154 0.3645 0.98642 0.0
H1007 H 0.87697 0.37481 0.95785 0.0
C1008 C 0.80496 0.39661 1.03749 0.0
C1009 C 0.76855 0.41 1.04181 0.0
C1010 C 0.81922 0.39959 1.01942 0.0
C1011 C 0.79752 0.41596 1.00501 0.0
C1012 C 0.76113 0.4295 1.00931 0.0
C1013 C 0.74684 0.42651 1.02744 0.0
C1014 C 0.8275 0.45813 0.95814 0.0
C1015 C 0.85346 0.43064 0.95202 0.0
C1016 C 0.80778 0.45269 0.97491 0.0
C1017 C 0.81354 0.41956 0.98582 0.0
C1018 C 0.83715 0.39084 0.97875 0.0
C1019 C 0.85703 0.39644 0.96219 0.0
H1020 H 0.38732 0.12662 0.19471 0.0
H1021 H 0.2713 0.12391 0.2132 0.0
H1022 H 0.40652 0.09222 0.22311 0.0
H1023 H 0.29002 0.09025 0.24129 0.0
H1024 H 0.32746 1.00905 0.2857 0.0
H1025 H 0.31374 1.0319 0.25447 0.0
H1026 H 0.41121 0.10652 0.25669 0.0
H1027 H 0.42504 0.08354 0.2881 0.0
C1028 C 0.36583 0.11765 0.20455 0.0
C1029 C 0.32776 0.12762 0.20164 0.0
C1030 C 0.37684 0.09848 0.22096 0.0
C1031 C 0.34988 0.08848 0.23464 0.0
C1032 C 0.31162 0.0969 0.23111 0.0
C1033 C 0.30081 0.11629 0.21494 0.0
C1034 C 0.34597 1.03046 0.27963 0.0
C1035 C 0.37706 0.04482 0.28968 0.0
C1036 C 0.33815 0.0435 0.26161 0.0
C1037 C 0.36111 0.0714 0.25299 0.0
C1038 C 0.39306 0.08477 0.26274 0.0
C1039 C 0.40094 0.07165 0.28083 0.0
H1040 H 0.30672 0.48748 0.64326 0.0
H1041 H 0.38955 0.39838 0.6377 0.0
H1042 H 0.28012 0.47126 0.61313 0.0
H1043 H 0.36403 0.38275 0.60707 0.0
H1044 H 0.29708 0.35445 0.55367 0.0
H1045 H 0.3152 0.36034 0.58626 0.0
H1046 H 0.30029 0.48252 0.58248 0.0
H1047 H 0.28343 0.47689 0.55004 0.0
C1048 C 0.31821 0.46327 0.6359 0.0
C1049 C 0.34958 0.44359 0.64312 0.0
C1050 C 0.30358 0.4545 0.61836 0.0
C1051 C 0.32038 0.42624 0.60728 0.0
C1052 C 0.35007 0.40456 0.61511 0.0
C1053 C 0.36449 0.41315 0.63283 0.0
C1054 C 0.29814 0.38268 0.55969 0.0
C1055 C 0.28844 0.41514 0.549 0.0
C1056 C 0.3084 0.38602 0.5785 0.0
C1057 C 0.309 0.42189 0.58726 0.0
C1058 C 0.2995 0.45425 0.5765 0.0
C1059 C 0.28968 0.45099 0.55774 0.0
H1060 H 0.85688 0.98233 0.31018 0.0
H1061 H 0.89601 0.09178 0.2897 0.0
H1062 H 0.8557 1.00743 0.34171 0.0
H1063 H 0.89471 0.11681 0.32103 0.0
H1064 H 0.91689 0.1495 0.379 0.0
H1065 H 0.92515 0.1142 0.35032 0.0
H1066 H 0.82226 0.05109 0.36167 0.0
H1067 H 0.8149 0.0859 0.39083 0.0
C1068 C 0.86507 1.01181 0.31235 0.0
C1069 C 0.87662 0.03494 0.29727 0.0
C1070 C 0.86443 1.0262 0.33049 0.0
C1071 C 0.87538 0.06414 0.3341 0.0
C1072 C 0.88695 0.08718 0.31899 0.0
C1073 C 0.88763 0.07281 0.30091 0.0
C1074 C 0.89676 0.12713 0.37567 0.0
C1075 C 0.86542 0.12027 0.38724 0.0
C1076 C 0.90111 0.10727 0.35905 0.0
C1077 C 0.87387 0.08037 0.35331 0.0
C1078 C 0.84391 0.07149 0.36557 0.0
C1079 C 0.83978 0.09121 0.3824 0.0
H1080 H 0.18261 0.67322 0.14126 0.0
H1081 H 0.20264 0.55187 0.1403 0.0
H1082 H 0.21703 0.68093 0.11221 0.0
H1083 H 0.23611 0.55915 0.11069 0.0
H1084 H 0.31231 0.58925 0.06081 0.0
H1085 H 0.2892 0.5833 0.09255 0.0
H1086 H 0.20342 0.66756 0.0808 0.0
H1087 H 0.22512 0.6724 0.04906 0.0
C1088 C 0.19543 0.64828 0.13508 0.0
C1089 C 0.19039 0.61205 0.14327 0.0
C1090 C 0.21461 0.65256 0.1182 0.0
C1091 C 0.22891 0.62063 0.10877 0.0
C1092 C 0.22586 0.58453 0.11754 0.0
C1093 C 0.2069 0.58031 0.13463 0.0
C1094 C 0.28825 0.60632 0.06484 0.0
C1095 C 0.27073 0.63129 0.05199 0.0
C1096 C 0.27506 0.60295 0.08319 0.0
C1097 C 0.24434 0.6249 0.08942 0.0
C1098 C 0.22754 0.65056 0.07675 0.0
C1099 C 0.24028 0.65351 0.05838 0.0
H1100 H 0.62348 0.9619 0.79286 0.0
H1101 H 0.70271 0.05211 0.80578 0.0
H1102 H 0.63051 0.93622 0.82428 0.0
H1103 H 0.70965 1.02659 0.83709 0.0
H1104 H 0.75236 0.93696 0.88004 0.0
H1105 H 0.73856 0.97257 0.8517 0.0
H1106 H 0.61997 0.94421 0.85743 0.0
H1107 H 0.63437 0.90801 0.88593 0.0
C1108 C 0.64202 0.97661 0.80244 0.0
C1109 C 0.66288 1.00889 0.79656 0.0
C1110 C 0.64598 0.96191 0.82055 0.0
C1111 C 0.67087 0.97908 0.83335 0.0
C1112 C 0.69077 1.01205 0.82761 0.0
C1113 C 0.68685 1.02668 0.80955 0.0
C1114 C 0.72314 0.9396 0.87561 0.0
C1115 C 0.69433 0.92058 0.88545 0.0
C1116 C 0.71516 0.9599 0.85927 0.0
C1117 C 0.67809 0.96131 0.85207 0.0
C1118 C 0.6489 0.94352 0.8624 0.0
C1119 C 0.65695 0.92337 0.87892 0.0
H1120 H 0.41956 0.23389 0.13465 0.0
H1121 H 0.41398 0.2543 0.1936 0.0
H1122 H 0.4863 0.25243 0.13465 0.0
H1123 H 0.48075 0.27276 0.19355 0.0
H1124 H 0.61049 0.26618 0.18937 0.0
H1125 H 0.54486 0.24399 0.18866 0.0
H1126 H 0.52484 0.31185 0.13942 0.0
H1127 H 0.59045 0.33417 0.1401 0.0
C1128 C 0.43253 0.2422 0.14763 0.0
C1129 C 0.41123 0.24265 0.16412 0.0
C1130 C 0.47079 0.25303 0.1476 0.0
C1131 C 0.48892 0.26409 0.16409 0.0
C1132 C 0.46778 0.26406 0.18063 0.0
C1133 C 0.42939 0.2537 0.18063 0.0
C1134 C 0.59225 0.27614 0.17828 0.0
C1135 C 0.60586 0.30205 0.1648 0.0
C1136 C 0.5545 0.26362 0.17796 0.0
C1137 C 0.5295 0.27626 0.16403 0.0
C1138 C 0.54338 0.30134 0.15027 0.0
C1139 C 0.58099 0.31424 0.15071 0.0
H1140 H 0.61294 0.69793 0.3929 0.0
H1141 H 0.50679 0.66517 0.4182 0.0
H1142 H 0.59127 0.76387 0.39069 0.0
H1143 H 0.48528 0.73133 0.4162 0.0
H1144 H 0.44581 0.84935 0.39557 0.0
H1145 H 0.46608 0.7826 0.395 0.0
H1146 H 0.57888 0.81721 0.41098 0.0
H1147 H 0.55878 0.88372 0.41136 0.0
C1148 C 0.58487 0.70468 0.39792 0.0
C1149 C 0.56171 0.676 0.40576 0.0
C1150 C 0.57251 0.74268 0.39677 0.0
C1151 C 0.53653 0.75323 0.40335 0.0
C1152 C 0.51299 0.72437 0.4108 0.0
C1153 C 0.52544 0.68634 0.41203 0.0
C1154 C 0.47503 0.84277 0.3988 0.0
C1155 C 0.50062 0.87211 0.40346 0.0
C1156 C 0.48661 0.80438 0.39862 0.0
C1157 C 0.52418 0.79426 0.40297 0.0
C1158 C 0.54987 0.82376 0.40732 0.0
C1159 C 0.53826 0.86204 0.40761 0.0
H1160 H 0.91397 0.80014 0.6792 0.0
H1161 H 0.95048 0.70755 0.64423 0.0
H1162 H 0.97752 0.82705 0.67848 0.0
H1163 H 1.0145 0.73435 0.64378 0.0
H1164 H 0.11762 0.81327 0.63405 0.0
H1165 H 0.05297 0.78836 0.63279 0.0
H1166 H 0.03924 0.81199 0.6911 0.0
H1167 H 0.10344 0.83739 0.69232 0.0
C1168 C 0.9355 0.78552 0.67128 0.0
C1169 C 0.92701 0.75151 0.66183 0.0
C1170 C 0.9721 0.80088 0.67099 0.0
C1171 C 1.00132 0.78273 0.66122 0.0
C1172 C 0.99266 0.74926 0.65134 0.0
C1173 C 0.95595 0.7338 0.65165 0.0
C1174 C 0.10077 0.81328 0.6466 0.0
C1175 C 0.11581 0.82746 0.66328 0.0
C1176 C 0.06375 0.79876 0.64589 0.0
C1177 C 0.04077 0.79821 0.66182 0.0
C1178 C 0.05585 0.81247 0.67848 0.0
C1179 C 0.09284 0.82686 0.67921 0.0
H1180 H 0.04068 0.38277 0.92311 0.0
H1181 H 0.93991 0.34497 0.89452 0.0
H1182 H 0.06465 0.31765 0.92333 0.0
H1183 H 0.96409 0.27943 0.89478 0.0
H1184 H 0.03921 0.17297 0.88382 0.0
H1185 H 1.01568 0.23854 0.88197 0.0
H1186 H 0.04887 0.25658 0.93888 0.0
H1187 H 0.07242 0.19121 0.94075 0.0
C1188 C 1.02367 0.36064 0.91673 0.0
C1189 C 0.98824 0.36926 0.90881 0.0
C1190 C 0.03737 0.32315 0.91699 0.0
C1191 C 1.01623 0.29315 0.90921 0.0
C1192 C 0.98123 0.30185 0.90082 0.0
C1193 C 0.96731 0.33943 0.9007 0.0
C1194 C 0.04157 0.19093 0.89594 0.0
C1195 C 0.05782 0.17671 0.91243 0.0
C1196 C 1.02784 0.22848 0.8949 0.0
C1197 C 0.03041 0.25295 0.91025 0.0
C1198 C 0.04681 0.23873 0.92671 0.0
C1199 C 0.06016 0.20111 0.92781 0.0
H1200 H 0.60621 0.81078 0.95067 0.0
H1201 H 0.61311 0.78605 0.89216 0.0
H1202 H 0.54059 0.789 0.951 0.0
H1203 H 0.54778 0.76347 0.89259 0.0
H1204 H 0.41822 0.76381 0.89587 0.0
H1205 H 0.48377 0.78544 0.89541 0.0
H1206 H 0.50235 0.73209 0.94884 0.0
H1207 H 0.43645 0.71112 0.94951 0.0
C1208 C 0.59381 0.80062 0.93786 0.0
C1209 C 0.6151 0.80025 0.92138 0.0
C1210 C 0.55618 0.78783 0.93809 0.0
C1211 C 0.53874 0.77428 0.92184 0.0
C1212 C 0.56 0.7741 0.90533 0.0
C1213 C 0.59765 0.78693 0.90509 0.0
C1214 C 0.43624 0.75652 0.90754 0.0
C1215 C 0.42183 0.73568 0.92276 0.0
C1216 C 0.47401 0.76882 0.90722 0.0
C1217 C 0.49854 0.76061 0.9221 0.0
C1218 C 0.48423 0.73947 0.93726 0.0
C1219 C 0.4464 0.72717 0.93759 0.0
H1220 H 0.49562 0.37487 0.70106 0.0
H1221 H 0.47826 0.36259 0.64207 0.0
H1222 H 0.52018 0.30995 0.70277 0.0
H1223 H 0.50334 0.29779 0.64378 0.0
H1224 H 0.5109 0.17059 0.65644 0.0
H1225 H 0.48577 0.23515 0.65606 0.0
H1226 H 0.57447 0.27111 0.69339 0.0
H1227 H 0.59959 0.20607 0.69395 0.0
C1228 C 0.49712 0.35842 0.68842 0.0
C1229 C 0.48482 0.37409 0.67141 0.0
C1230 C 0.51146 0.32119 0.68941 0.0
C1231 C 0.51369 0.29851 0.67344 0.0
C1232 C 0.50156 0.31423 0.65642 0.0
C1233 C 0.48738 0.35154 0.6554 0.0
C1234 C 0.52502 0.1921 0.6647 0.0
C1235 C 0.55746 0.183 0.67518 0.0
C1236 C 0.51071 0.22929 0.66435 0.0
C1237 C 0.52829 0.25853 0.67451 0.0
C1238 C 0.56007 0.24927 0.68545 0.0
C1239 C 0.57453 0.21196 0.68576 0.0
H1240 H 0.11502 0.34268 0.44726 0.0
H1241 H 0.13197 0.2651 0.40174 0.0
H1242 H 0.04826 0.32371 0.44878 0.0
H1243 H 0.06553 0.24569 0.40356 0.0
H1244 H 0.95782 0.18901 0.42921 0.0
H1245 H 1.0238 0.21002 0.42757 0.0
H1246 H 0.98773 0.32762 0.42807 0.0
H1247 H 0.9214 0.30663 0.42934 0.0
C1248 C 0.1046 0.32156 0.43759 0.0
C1249 C 0.1291 0.30537 0.42442 0.0
C1250 C 0.06626 0.31084 0.43842 0.0
C1251 C 0.05156 0.28306 0.42635 0.0
C1252 C 0.076 0.26691 0.41317 0.0
C1253 C 0.11412 0.27819 0.41209 0.0
C1254 C 0.96385 0.21938 0.42906 0.0
C1255 C 0.93418 0.24611 0.42946 0.0
C1256 C 1.00173 0.2314 0.42799 0.0
C1257 C 1.01109 0.2705 0.42764 0.0
C1258 C 0.9815 0.2973 0.42841 0.0
C1259 C 0.94349 0.28526 0.4291 0.0
H1260 H 0.06712 0.68944 0.20675 0.0
H1261 H 1.02417 0.68581 0.15067 0.0
H1262 H 0.0465 0.75644 0.20909 0.0
H1263 H 1.00496 0.75245 0.15291 0.0
H1264 H 1.02692 0.88452 0.15894 0.0
H1265 H 0.04986 0.81856 0.15972 0.0
H1266 H 0.97213 0.79186 0.20406 0.0
H1267 H 0.94816 0.85763 0.20297 0.0
C1268 C 0.0533 0.70283 0.19499 0.0
C1269 C 0.0471 0.68216 0.17858 0.0
C1270 C 0.04152 0.74106 0.19633 0.0
C1271 C 1.02436 0.75953 0.18113 0.0
C1272 C 1.01828 0.73892 0.16478 0.0
C1273 C 0.02911 0.70064 0.16359 0.0
C1274 C 1.01499 0.86477 0.16902 0.0
C1275 C 0.98561 0.8763 0.18086 0.0
C1276 C 1.02809 0.82703 0.16942 0.0
C1277 C 1.01279 0.80025 0.18198 0.0
C1278 C 0.98453 0.81206 0.19434 0.0
C1279 C 0.97075 0.84961 0.19364 0.0
H1280 H 0.19334 0.26718 0.14313 0.0
H1281 H 0.29085 0.33868 0.13266 0.0
H1282 H 0.15352 0.32429 0.14538 0.0
H1283 H 0.25117 0.39555 0.13456 0.0
H1284 H 0.16346 0.48973 0.12759 0.0
H1285 H 0.19553 0.43037 0.1197 0.0
H1286 H 0.15295 0.37767 0.16985 0.0
H1287 H 0.12102 0.4372 0.17791 0.0
C1288 C 0.20595 0.295 0.14061 0.0
C1289 C 0.24507 0.29858 0.13749 0.0
C1290 C 0.18329 0.32768 0.14215 0.0
C1291 C 0.19926 0.36441 0.14023 0.0
C1292 C 0.23796 0.3677 0.13595 0.0
C1293 C 0.26066 0.33516 0.13479 0.0
C1294 C 0.16061 0.46544 0.1369 0.0
C1295 C 0.13984 0.46836 0.15348 0.0
C1296 C 0.17907 0.43144 0.13236 0.0
C1297 C 0.17672 0.39933 0.14412 0.0
C1298 C 0.15494 0.4018 0.16039 0.0
C1299 C 0.13691 0.436 0.16508 0.0
H1300 H 0.38118 0.3386 0.40154 0.0
H1301 H 0.33366 0.44497 0.42044 0.0
H1302 H 0.43962 0.37223 0.3929 0.0
H1303 H 0.39173 0.47826 0.41191 0.0
H1304 H 0.49066 0.53673 0.38532 0.0
H1305 H 0.43185 0.49905 0.38549 0.0
H1306 H 0.49195 0.40375 0.40973 0.0
H1307 H 0.55017 0.44138 0.40956 0.0
C1308 C 0.38309 0.3691 0.40382 0.0
C1309 C 0.35271 0.38891 0.41187 0.0
C1310 C 0.4166 0.3884 0.39885 0.0
C1311 C 0.42038 0.42808 0.40157 0.0
C1312 C 0.3897 0.44788 0.4093 0.0
C1313 C 0.35647 0.42859 0.41443 0.0
C1314 C 0.49151 0.5072 0.3899 0.0
C1315 C 0.52503 0.49181 0.39721 0.0
C1316 C 0.45774 0.48577 0.3903 0.0
C1317 C 0.457 0.44844 0.39786 0.0
C1318 C 0.49136 0.43218 0.40371 0.0
C1319 C 0.52483 0.45371 0.40354 0.0
H1320 H 0.32919 0.79259 0.64158 0.0
H1321 H 0.2371 0.72801 0.6658 0.0
H1322 H 0.36983 0.73595 0.64367 0.0
H1323 H 0.27704 0.67174 0.66758 0.0
H1324 H 0.4191 0.61174 0.63881 0.0
H1325 H 0.38155 0.6693 0.63347 0.0
H1326 H 0.33004 0.6549 0.68739 0.0
H1327 H 0.36686 0.59726 0.69261 0.0
C1328 C 0.31734 0.76606 0.64684 0.0
C1329 C 0.28009 0.7648 0.65368 0.0
C1330 C 0.34064 0.73369 0.64813 0.0
C1331 C 0.32697 0.69959 0.65625 0.0
C1332 C 0.28887 0.69783 0.6618 0.0
C1333 C 0.26582 0.73 0.6606 0.0
C1334 C 0.40014 0.62114 0.64965 0.0
C1335 C 0.39583 0.59964 0.66612 0.0
C1336 C 0.3786 0.65416 0.64655 0.0
C1337 C 0.35226 0.66634 0.65984 0.0
C1338 C 0.34933 0.64578 0.67664 0.0
C1339 C 0.37073 0.61285 0.67972 0.0
H1340 H 0.06751 0.49143 0.89497 0.0
H1341 H 1.00443 0.59545 0.90179 0.0
H1342 H 0.12686 0.52767 0.8962 0.0
H1343 H 0.06346 0.63191 0.90318 0.0
H1344 H 0.17912 0.68942 0.8978 0.0
H1345 H 0.12231 0.65434 0.88874 0.0
H1346 H 0.15759 0.55863 0.92265 0.0
H1347 H 0.21458 0.59334 0.93152 0.0
C1348 C 0.0664 0.52232 0.89576 0.0
C1349 C 0.03154 0.54087 0.89777 0.0
C1350 C 0.10032 0.54301 0.89687 0.0
C1351 C 0.09995 0.58264 0.90008 0.0
C1352 C 0.06485 0.60152 0.90056 0.0
C1353 C 0.03099 0.58075 0.89957 0.0
C1354 C 0.17481 0.6609 0.90335 0.0
C1355 C 0.2015 0.64432 0.91545 0.0
C1356 C 0.1422 0.64078 0.89812 0.0
C1357 C 0.13553 0.60351 0.90479 0.0
C1358 C 0.1622 0.58695 0.9169 0.0
C1359 C 0.19474 0.60708 0.92217 0.0
H1360 H 0.83777 0.77961 0.94448 0.0
H1361 H 0.74067 0.70652 0.95284 0.0
H1362 H 0.87905 0.72327 0.94444 0.0
H1363 H 0.78161 0.65049 0.95312 0.0
H1364 H 0.86818 0.5561 0.96129 0.0
H1365 H 0.83519 0.61546 0.96898 0.0
H1366 H 0.88461 0.67034 0.92097 0.0
H1367 H 0.91637 0.6109 0.91291 0.0
C1368 C 0.82549 0.75167 0.94709 0.0
C1369 C 0.7861 0.74741 0.94891 0.0
C1370 C 0.849 0.71938 0.94682 0.0
C1371 C 0.8336 0.68234 0.94871 0.0
C1372 C 0.79448 0.67853 0.95183 0.0
C1373 C 0.77101 0.71063 0.95171 0.0
C1374 C 0.8722 0.58099 0.95247 0.0
C1375 C 0.89457 0.57875 0.9364 0.0
C1376 C 0.85326 0.61493 0.95685 0.0
C1377 C 0.85707 0.64763 0.9455 0.0
C1378 C 0.88098 0.64577 0.92995 0.0
C1379 C 0.89905 0.61162 0.9253 0.0
H1380 H 0.70235 0.64351 0.64751 0.0
H1381 H 0.71396 0.6482 0.70714 0.0
H1382 H 0.6446 0.60628 0.65097 0.0
H1383 H 0.65547 0.61063 0.71053 0.0
H1384 H 0.52416 0.57459 0.70237 0.0
H1385 H 0.58247 0.61326 0.70313 0.0
H1386 H 0.63289 0.53908 0.66257 0.0
H1387 H 0.57557 0.50077 0.66182 0.0
C1388 C 0.69251 0.63688 0.66139 0.0
C1389 C 0.71312 0.64871 0.67704 0.0
C1390 C 0.65941 0.61532 0.66336 0.0
C1391 C 0.64571 0.60509 0.68102 0.0
C1392 C 0.66534 0.61809 0.69675 0.0
C1393 C 0.69888 0.6395 0.69478 0.0
C1394 C 0.54799 0.56618 0.6939 0.0
C1395 C 0.54492 0.53485 0.68185 0.0
C1396 C 0.58132 0.58835 0.69432 0.0
C1397 C 0.61195 0.57963 0.68262 0.0
C1398 C 0.60949 0.54707 0.67143 0.0
C1399 C 0.57656 0.52499 0.67107 0.0
H1400 H 0.80644 0.32479 0.45796 0.0
H1401 H 0.70598 0.26503 0.44027 0.0
H1402 H 0.77061 0.38496 0.45857 0.0
H1403 H 0.67045 0.32465 0.44074 0.0
H1404 H 0.6551 0.43899 0.40795 0.0
H1405 H 0.6862 0.3795 0.41657 0.0
H1406 H 0.70714 0.42283 0.47149 0.0
H1407 H 0.67506 0.48287 0.46294 0.0
C1408 C 0.77627 0.32413 0.45525 0.0
C1409 C 0.75882 0.29016 0.44934 0.0
C1410 C 0.75585 0.35863 0.45538 0.0
C1411 C 0.71788 0.35955 0.44941 0.0
C1412 C 0.69973 0.32488 0.44524 0.0
C1413 C 0.71995 0.29064 0.44522 0.0
C1414 C 0.66617 0.43599 0.42191 0.0
C1415 C 0.66243 0.46572 0.43477 0.0
C1416 C 0.68381 0.40174 0.42687 0.0
C1417 C 0.6988 0.39634 0.44477 0.0
C1418 C 0.69571 0.42618 0.45764 0.0
C1419 C 0.67725 0.4604 0.45275 0.0
H1420 H 0.81436 0.417 0.20589 0.0
H1421 H 0.83657 0.39627 0.1479 0.0
H1422 H 0.8737 0.45349 0.20805 0.0
H1423 H 0.89534 0.43218 0.15015 0.0
H1424 H 0.96485 0.5394 0.1526 0.0
H1425 H 0.9077 0.50138 0.15433 0.0
H1426 H 0.94707 0.44884 0.20509 0.0
H1427 H 1.00544 0.48755 0.20341 0.0
C1428 C 0.83198 0.41987 0.19367 0.0
C1429 C 0.82037 0.40402 0.17666 0.0
C1430 C 0.86604 0.44063 0.19495 0.0
C1431 C 0.889 0.44617 0.17922 0.0
C1432 C 0.87799 0.42906 0.16245 0.0
C1433 C 0.84425 0.40831 0.16119 0.0
C1434 C 0.96165 0.51989 0.16423 0.0
C1435 C 0.99026 0.51621 0.17773 0.0
C1436 C 0.92873 0.49791 0.16516 0.0
C1437 C 0.92311 0.47146 0.17962 0.0
C1438 C 0.95068 0.46891 0.19372 0.0
C1439 C 0.98406 0.49106 0.19277 0.0
H1440 H 0.7254 0.77838 0.63217 0.0
H1441 H 0.80076 0.82787 0.67258 0.0
H1442 H 0.69045 0.83937 0.63033 0.0
H1443 H 0.76643 0.88794 0.67078 0.0
H1444 H 0.66177 0.95498 0.68708 0.0
H1445 H 0.69675 0.89616 0.68251 0.0
H1446 H 0.69949 0.91718 0.6235 0.0
H1447 H 0.6644 0.97695 0.62801 0.0
C1448 C 0.7352 0.80262 0.64012 0.0
C1449 C 0.76561 0.7986 0.65255 0.0
C1450 C 0.71519 0.83733 0.63916 0.0
C1451 C 0.72541 0.86805 0.65068 0.0
C1452 C 0.75757 0.86457 0.66198 0.0
C1453 C 0.77734 0.83029 0.66292 0.0
C1454 C 0.66948 0.94717 0.67308 0.0
C1455 C 0.66049 0.97097 0.65794 0.0
C1456 C 0.68965 0.91345 0.67048 0.0
C1457 C 0.70113 0.90233 0.65267 0.0
C1458 C 0.69094 0.92513 0.63736 0.0
C1459 C 0.67102 0.95936 0.63999 0.0
H1460 H 0.82918 0.92631 0.93663 0.0
H1461 H 0.85615 0.84915 0.89209 0.0
H1462 H 0.88491 0.964 0.92956 0.0
H1463 H 0.9125 0.88789 0.88471 0.0
H1464 H 0.03099 0.95286 0.89436 0.0
H1465 H 0.97585 0.91 0.89645 0.0
H1466 H 0.90363 1.00755 0.90522 0.0
H1467 H 0.95848 0.04969 0.90374 0.0
C1468 C 0.84704 0.91731 0.92527 0.0
C1469 C 0.83783 0.88484 0.91481 0.0
C1470 C 0.87898 0.93922 0.9211 0.0
C1471 C 0.90277 0.92965 0.90623 0.0
C1472 C 0.89466 0.8962 0.89619 0.0
C1473 C 0.86244 0.87399 0.90044 0.0
C1474 C 1.00311 0.96507 0.89616 0.0
C1475 C 0.99897 1.00456 0.899 0.0
C1476 C 0.97154 0.94054 0.89746 0.0
C1477 C 0.93542 0.95521 0.90151 0.0
C1478 C 0.93115 0.99509 0.90266 0.0
C1479 C 0.96252 1.01935 0.9016 0.0
H1480 H 0.87194 0.09718 0.18866 0.0
H1481 H 0.88223 0.08229 0.12941 0.0
H1482 H 0.83306 0.15311 0.1836 0.0
H1483 H 0.84279 0.1394 0.12438 0.0
H1484 H 0.80565 0.27475 0.13434 0.0
H1485 H 0.8437 0.21588 0.13238 0.0
H1486 H 0.76614 0.1593 0.16986 0.0
H1487 H 0.72885 0.21736 0.1719 0.0
C1488 C 0.86611 0.10585 0.1745 0.0
C1489 C 0.88009 0.08485 0.15944 0.0
C1490 C 0.84361 0.13797 0.17161 0.0
C1491 C 0.83444 0.15036 0.1536 0.0
C1492 C 0.84938 0.1304 0.13842 0.0
C1493 C 0.87183 0.09771 0.14132 0.0
C1494 C 0.79622 0.24926 0.14163 0.0
C1495 C 0.76456 0.25065 0.15342 0.0
C1496 C 0.818 0.21569 0.14056 0.0
C1497 C 0.80825 0.18328 0.15127 0.0
C1498 C 0.77476 0.184 0.16173 0.0
C1499 C 0.75332 0.21723 0.16284 0.0
H1500 H 0.53066 0.0954 0.38417 0.0
H1501 H 0.58988 0.99222 0.39898 0.0
H1502 H 0.59072 0.13109 0.38488 0.0
H1503 H 0.64957 1.02763 0.4 0.0
H1504 H 0.72208 0.11546 0.433 0.0
H1505 H 0.66628 0.07835 0.42448 0.0
H1506 H 0.66103 0.13757 0.37184 0.0
H1507 H 0.7177 0.17459 0.38025 0.0
C1508 C 0.55678 0.08002 0.38658 0.0
C1509 C 0.55582 0.04086 0.391 0.0
C1510 C 0.5911 0.10048 0.38722 0.0
C1511 C 0.6248 0.08223 0.39273 0.0
C1512 C 0.62408 0.04254 0.39584 0.0
C1513 C 0.59001 1.02212 0.39494 0.0
C1514 C 0.70917 0.12066 0.41958 0.0
C1515 C 0.72443 0.1481 0.40732 0.0
C1516 C 0.67731 0.09913 0.41464 0.0
C1517 C 0.65941 0.1048 0.39741 0.0
C1518 C 0.67426 0.13253 0.38519 0.0
C1519 C 0.70673 0.15365 0.39 0.0
H1520 H 0.35047 0.28248 0.44383 0.0
H1521 H 0.25506 0.20642 0.4508 0.0
H1522 H 0.39273 0.22721 0.44147 0.0
H1523 H 0.29734 0.15132 0.44894 0.0
H1524 H 0.39213 0.06152 0.457 0.0
H1525 H 0.35602 0.11871 0.46523 0.0
H1526 H 0.3948 0.17486 0.41524 0.0
H1527 H 0.43013 0.11756 0.40679 0.0
C1528 C 0.33873 0.25403 0.44554 0.0
C1529 C 0.29949 0.24874 0.44768 0.0
C1530 C 0.36285 0.2224 0.44398 0.0
C1531 C 0.34832 0.18493 0.44496 0.0
C1532 C 0.30942 0.17979 0.44827 0.0
C1533 C 0.28524 0.21132 0.44938 0.0
C1534 C 0.39331 0.08625 0.44789 0.0
C1535 C 0.41395 0.08499 0.43123 0.0
C1536 C 0.37254 0.1189 0.45258 0.0
C1537 C 0.37273 0.15134 0.44093 0.0
C1538 C 0.39443 0.1505 0.4246 0.0
C1539 C 0.41446 0.11758 0.4197 0.0
H1540 H 0.06065 0.99858 0.1986 0.0
H1541 H 0.99625 0.1019 0.19153 0.0
H1542 H 0.11951 0.03561 0.197 0.0
H1543 H 0.05463 0.13904 0.18966 0.0
H1544 H 0.16856 0.19918 0.19141 0.0
H1545 H 0.11339 0.16341 0.20225 0.0
H1546 H 0.1495 0.06592 0.17051 0.0
H1547 H 0.20478 0.10141 0.1599 0.0
C1548 C 0.05911 1.02946 0.19774 0.0
C1549 C 1.02396 0.04753 0.19565 0.0
C1550 C 0.09279 0.05064 0.19637 0.0
C1551 C 0.0919 0.0903 0.19283 0.0
C1552 C 0.05655 0.10869 0.1925 0.0
C1553 C 1.02298 0.08747 0.19378 0.0
C1554 C 0.16473 0.17018 0.18669 0.0
C1555 C 0.19115 0.15341 0.17466 0.0
C1556 C 0.13305 0.14959 0.19296 0.0
C1557 C 0.12698 0.1116 0.18738 0.0
C1558 C 0.15351 0.09482 0.1754 0.0
C1559 C 0.18509 0.11541 0.16912 0.0
H1560 H 0.18856 0.96195 0.90494 0.0
H1561 H 0.1025 0.93331 0.94536 0.0
H1562 H 0.22419 0.90566 0.91409 0.0
H1563 H 0.13848 0.87648 0.95445 0.0
H1564 H 0.20354 0.7575 0.94896 0.0
H1565 H 0.1623 0.81266 0.94306 0.0
H1566 H 0.26043 0.88658 0.94152 0.0
H1567 H 0.30121 0.83192 0.94723 0.0
C1568 C 0.17694 0.94346 0.91563 0.0
C1569 C 0.14265 0.95244 0.92445 0.0
C1570 C 0.19757 0.91122 0.92097 0.0
C1571 C 0.18445 0.88677 0.93517 0.0
C1572 C 0.14937 0.89471 0.94347 0.0
C1573 C 0.1288 0.92733 0.93825 0.0
C1574 C 0.21607 0.78575 0.94797 0.0
C1575 C 0.25562 0.79042 0.94856 0.0
C1576 C 0.1925 0.81729 0.94445 0.0
C1577 C 0.20817 0.85389 0.9414 0.0
C1578 C 0.24748 0.85869 0.94333 0.0
C1579 C 0.27084 0.82742 0.94685 0.0
H1580 H 0.34983 0.88984 0.70005 0.0
H1581 H 0.3427 0.93468 0.64414 0.0
H1582 H 0.40872 0.92567 0.70481 0.0
H1583 H 0.40135 0.96963 0.6488 0.0
H1584 H 0.47645 0.06304 0.66688 0.0
H1585 H 0.41848 1.02536 0.66684 0.0
H1586 H 0.47666 0.93314 0.69486 0.0
H1587 H 0.53499 0.9719 0.69531 0.0
C1588 C 0.36107 0.9068 0.68868 0.0
C1589 C 0.34126 0.9097 0.67176 0.0
C1590 C 0.39481 0.92733 0.69144 0.0
C1591 C 0.4093 0.95117 0.67734 0.0
C1592 C 0.39041 0.95242 0.66016 0.0
C1593 C 0.35685 0.9321 0.65742 0.0
C1594 C 0.4766 0.03508 0.67345 0.0
C1595 C 0.51007 1.02028 0.68106 0.0
C1596 C 0.44353 1.01328 0.67324 0.0
C1597 C 0.44321 0.9758 0.68036 0.0
C1598 C 0.47605 0.96187 0.6892 0.0
C1599 C 0.50933 0.98405 0.68956 0.0
loop_
_geom_bond_atom_site_label_1
_geom_bond_atom_site_label_2
_geom_bond_distance
_geom_bond_site_symmetry_2
_ccdc_geom_bond_type
Dy0 O3 2.307 . S
Dy0 O5 2.395 . S
Dy0 O6 2.379 . S
Dy0 O8 2.339 . S
Dy0 O10 2.298 . S
Dy0 O14 2.275 . S
Dy0 C22 2.738 . S
Dy1 O4 2.298 . S
Dy1 O7 2.275 . S
Dy1 O9 2.307 . S
Dy1 O11 2.395 . S
Dy1 O12 2.379 . S
Dy1 O15 2.339 . S
Dy1 C31 2.738 . S
C2 O14 1.254 . S
C2 O15 1.257 . S
O3 Dy0 2.307 . S
O3 C13 1.266 . S
O4 Dy1 2.298 . S
O4 C13 1.236 . S
O5 Dy0 2.395 . S
O5 C22 1.255 . S
O6 Dy0 2.379 . S
O6 C22 1.249 . S
O7 Dy1 2.275 . S
O7 C23 1.254 . S
O8 Dy0 2.339 . S
O8 C23 1.257 . S
O9 Dy1 2.307 . S
O9 C24 1.266 . S
O10 Dy0 2.298 . S
O10 C24 1.236 . S
O11 Dy1 2.395 . S
O11 C31 1.255 . S
O12 Dy1 2.379 . S
O12 C31 1.249 . S
C13 O3 1.266 . S
C13 O4 1.236 . S
O14 Dy0 2.275 . S
O14 C2 1.254 . S
O15 Dy1 2.339 . S
O15 C2 1.257 . S
C16 C19 1.344 . S
C16 C20 1.328 . S
C16 C22 1.516 . S
C17 C18 1.304 . S
C17 C21 1.323 . S
C18 C17 1.304 . S
C18 C19 1.371 . S
C18 H32 0.930 . S
C19 C16 1.344 . S
C19 C18 1.371 . S
C19 H33 0.931 . S
C20 C16 1.328 . S
C20 C21 1.433 . S
C20 H34 0.931 . S
C21 C17 1.323 . S
C21 C20 1.433 . S
C21 H35 0.933 . S
C22 Dy0 2.738 . S
C22 O5 1.255 . S
C22 O6 1.249 . S
C22 C16 1.516 . S
C23 O7 1.254 . S
C23 O8 1.257 . S
C24 O9 1.266 . S
C24 O10 1.236 . S
C25 C28 1.344 . S
C25 C29 1.328 . S
C25 C31 1.516 . S
C26 C27 1.304 . S
C26 C30 1.323 . S
C27 C26 1.304 . S
C27 C28 1.371 . S
C27 H36 0.930 . S
C28 C25 1.344 . S
C28 C27 1.371 . S
C28 H37 0.931 . S
C29 C25 1.328 . S
C29 C30 1.433 . S
C29 H38 0.931 . S
C30 C26 1.323 . S
C30 C29 1.433 . S
C30 H39 0.933 . S
C31 Dy1 2.738 . S
C31 O11 1.255 . S
C31 O12 1.249 . S
C31 C25 1.516 . S
H32 C18 0.930 . S
H33 C19 0.931 . S
H34 C20 0.931 . S
H35 C21 0.933 . S
H36 C27 0.930 . S
H37 C28 0.931 . S
H38 C29 0.931 . S
H39 C30 0.933 . S
Dy40 O43 2.307 . S
Dy40 O45 2.395 . S
Dy40 O46 2.379 . S
Dy40 O48 2.339 . S
Dy40 O50 2.298 . S
Dy40 O54 2.275 . S
Dy40 C62 2.738 . S
Dy41 O44 2.298 . S
Dy41 O47 2.275 . S
Dy41 O49 2.307 . S
Dy41 O51 2.395 . S
Dy41 O52 2.379 . S
Dy41 O55 2.339 . S
Dy41 C71 2.738 . S
C42 O54 1.254 . S
C42 O55 1.257 . S
O43 Dy40 2.307 . S
O43 C53 1.266 . S
O44 Dy41 2.298 . S
O44 C53 1.236 . S
O45 Dy40 2.395 . S
O45 C62 1.255 . S
O46 Dy40 2.379 . S
O46 C62 1.249 . S
O47 Dy41 2.275 . S
O47 C63 1.254 . S
O48 Dy40 2.339 . S
O48 C63 1.257 . S
O49 Dy41 2.307 . S
O49 C64 1.266 . S
O50 Dy40 2.298 . S
O50 C64 1.236 . S
O51 Dy41 2.395 . S
O51 C71 1.255 . S
O52 Dy41 2.379 . S
O52 C71 1.249 . S
C53 O43 1.266 . S
C53 O44 1.236 . S
O54 Dy40 2.275 . S
O54 C42 1.254 . S
O55 Dy41 2.339 . S
O55 C42 1.257 . S
C56 C59 1.344 . S
C56 C60 1.328 . S
C56 C62 1.516 . S
C57 C58 1.304 . S
C57 C61 1.323 . S
C58 C57 1.304 . S
C58 C59 1.371 . S
C58 H72 0.930 . S
C59 C56 1.344 . S
C59 C58 1.371 . S
C59 H73 0.931 . S
C60 C56 1.328 . S
C60 C61 1.433 . S
C60 H74 0.931 . S
C61 C57 1.323 . S
C61 C60 1.433 . S
C61 H75 0.933 . S
C62 Dy40 2.738 . S
C62 O45 1.255 . S
C62 O46 1.249 . S
C62 C56 1.516 . S
C63 O47 1.254 . S
C63 O48 1.257 . S
C64 O49 1.266 . S
C64 O50 1.236 . S
C65 C68 1.344 . S
C65 C69 1.328 . S
C65 C71 1.516 . S
C66 C67 1.304 . S
C66 C70 1.323 . S
C67 C66 1.304 . S
C67 C68 1.371 . S
C67 H76 0.930 . S
C68 C65 1.344 . S
C68 C67 1.371 . S
C68 H77 0.931 . S
C69 C65 1.328 . S
C69 C70 1.433 . S
C69 H78 0.931 . S
C70 C66 1.323 . S
C70 C69 1.433 . S
C70 H79 0.933 . S
C71 Dy41 2.738 . S
C71 O51 1.255 . S
C71 O52 1.249 . S
C71 C65 1.516 . S
H72 C58 0.930 . S
H73 C59 0.931 . S
H74 C60 0.931 . S
H75 C61 0.933 . S
H76 C67 0.930 . S
H77 C68 0.931 . S
H78 C69 0.931 . S
H79 C70 0.933 . S
Dy80 O83 2.307 . S
Dy80 O85 2.395 . S
Dy80 O86 2.379 . S
Dy80 O88 2.339 . S
Dy80 O90 2.298 . S
Dy80 O94 2.275 . S
Dy80 C102 2.738 . S
Dy81 O84 2.298 . S
Dy81 O87 2.275 . S
Dy81 O89 2.307 . S
Dy81 O91 2.395 . S
Dy81 O92 2.379 . S
Dy81 O95 2.339 . S
Dy81 C111 2.738 . S
C82 O94 1.254 . S
C82 O95 1.257 . S
O83 Dy80 2.307 . S
O83 C93 1.266 . S
O84 Dy81 2.298 . S
O84 C93 1.236 . S
O85 Dy80 2.395 . S
O85 C102 1.255 . S
O86 Dy80 2.379 . S
O86 C102 1.249 . S
O87 Dy81 2.275 . S
O87 C103 1.254 . S
O88 Dy80 2.339 . S
O88 C103 1.257 . S
O89 Dy81 2.307 . S
O89 C104 1.266 . S
O90 Dy80 2.298 . S
O90 C104 1.236 . S
O91 Dy81 2.395 . S
O91 C111 1.255 . S
O92 Dy81 2.379 . S
O92 C111 1.249 . S
C93 O83 1.266 . S
C93 O84 1.236 . S
O94 Dy80 2.275 . S
O94 C82 1.254 . S
O95 Dy81 2.339 . S
O95 C82 1.257 . S
C96 C99 1.344 . S
C96 C100 1.328 . S
C96 C102 1.516 . S
C97 C98 1.304 . S
C97 C101 1.323 . S
C98 C97 1.304 . S
C98 C99 1.371 . S
C98 H112 0.930 . S
C99 C96 1.344 . S
C99 C98 1.371 . S
C99 H113 0.931 . S
C100 C96 1.328 . S
C100 C101 1.433 . S
C100 H114 0.931 . S
C101 C97 1.323 . S
C101 C100 1.433 . S
C101 H115 0.933 . S
C102 Dy80 2.738 . S
C102 O85 1.255 . S
C102 O86 1.249 . S
C102 C96 1.516 . S
C103 O87 1.254 . S
C103 O88 1.257 . S
C104 O89 1.266 . S
C104 O90 1.236 . S
C105 C108 1.344 . S
C105 C109 1.328 . S
C105 C111 1.516 . S
C106 C107 1.304 . S
C106 C110 1.323 . S
C107 C106 1.304 . S
C107 C108 1.371 . S
C107 H116 0.930 . S
C108 C105 1.344 . S
C108 C107 1.371 . S
C108 H117 0.931 . S
C109 C105 1.328 . S
C109 C110 1.433 . S
C109 H118 0.931 . S
C110 C106 1.323 . S
C110 C109 1.433 . S
C110 H119 0.933 . S
C111 Dy81 2.738 . S
C111 O91 1.255 . S
C111 O92 1.249 . S
C111 C105 1.516 . S
H112 C98 0.930 . S
H113 C99 0.931 . S
H114 C100 0.931 . S
H115 C101 0.933 . S
H116 C107 0.930 . S
H117 C108 0.931 . S
H118 C109 0.931 . S
H119 C110 0.933 . S
Dy120 O123 2.307 . S
Dy120 O125 2.395 . S
Dy120 O126 2.379 . S
Dy120 O128 2.339 . S
Dy120 O130 2.298 . S
Dy120 O134 2.275 . S
Dy120 C142 2.738 . S
Dy121 O124 2.298 . S
Dy121 O127 2.275 . S
Dy121 O129 2.307 . S
Dy121 O131 2.395 . S
Dy121 O132 2.379 . S
Dy121 O135 2.339 . S
Dy121 C151 2.738 . S
C122 O134 1.254 . S
C122 O135 1.257 . S
O123 Dy120 2.307 . S
O123 C133 1.266 . S
O124 Dy121 2.298 . S
O124 C133 1.236 . S
O125 Dy120 2.395 . S
O125 C142 1.255 . S
O126 Dy120 2.379 . S
O126 C142 1.249 . S
O127 Dy121 2.275 . S
O127 C143 1.254 . S
O128 Dy120 2.339 . S
O128 C143 1.257 . S
O129 Dy121 2.307 . S
O129 C144 1.266 . S
O130 Dy120 2.298 . S
O130 C144 1.236 . S
O131 Dy121 2.395 . S
O131 C151 1.255 . S
O132 Dy121 2.379 . S
O132 C151 1.249 . S
C133 O123 1.266 . S
C133 O124 1.236 . S
O134 Dy120 2.275 . S
O134 C122 1.254 . S
O135 Dy121 2.339 . S
O135 C122 1.257 . S
C136 C139 1.344 . S
C136 C140 1.328 . S
C136 C142 1.516 . S
C137 C138 1.304 . S
C137 C141 1.323 . S
C138 C137 1.304 . S
C138 C139 1.371 . S
C138 H152 0.930 . S
C139 C136 1.344 . S
C139 C138 1.371 . S
C139 H153 0.931 . S
C140 C136 1.328 . S
C140 C141 1.433 . S
C140 H154 0.931 . S
C141 C137 1.323 . S
C141 C140 1.433 . S
C141 H155 0.933 . S
C142 Dy120 2.738 . S
C142 O125 1.255 . S
C142 O126 1.249 . S
C142 C136 1.516 . S
C143 O127 1.254 . S
C143 O128 1.257 . S
C144 O129 1.266 . S
C144 O130 1.236 . S
C145 C148 1.344 . S
C145 C149 1.299 1_655 S
C145 C151 1.516 . S
C146 C147 1.317 . S
C146 C150 1.317 1_655 S
C147 C146 1.317 . S
C147 C148 1.371 . S
C147 H156 0.930 . S
C148 C145 1.344 . S
C148 C147 1.371 . S
C148 H157 0.931 . S
C149 C145 1.299 1_455 S
C149 C150 1.445 . S
C149 H158 0.948 . S
C150 C146 1.317 1_455 S
C150 C149 1.445 . S
C150 H159 0.933 . S
C151 Dy121 2.738 . S
C151 O131 1.255 . S
C151 O132 1.249 . S
C151 C145 1.516 . S
H152 C138 0.930 . S
H153 C139 0.931 . S
H154 C140 0.931 . S
H155 C141 0.933 . S
H156 C147 0.930 . S
H157 C148 0.931 . S
H158 C149 0.948 . S
H159 C150 0.933 . S
Dy160 O163 2.307 . S
Dy160 O165 2.395 . S
Dy160 O166 2.379 . S
Dy160 O168 2.339 . S
Dy160 O170 2.298 . S
Dy160 O174 2.275 . S
Dy160 C182 2.738 . S
Dy161 O164 2.298 . S
Dy161 O167 2.275 . S
Dy161 O169 2.307 . S
Dy161 O171 2.395 . S
Dy161 O172 2.379 . S
Dy161 O175 2.339 . S
Dy161 C191 2.738 . S
C162 O174 1.254 . S
C162 O175 1.257 . S
O163 Dy160 2.307 . S
O163 C173 1.266 . S
O164 Dy161 2.298 . S
O164 C173 1.236 . S
O165 Dy160 2.395 . S
O165 C182 1.255 . S
O166 Dy160 2.379 . S
O166 C182 1.249 . S
O167 Dy161 2.275 . S
O167 C183 1.254 . S
O168 Dy160 2.339 . S
O168 C183 1.257 . S
O169 Dy161 2.307 . S
O169 C184 1.266 . S
O170 Dy160 2.298 . S
O170 C184 1.236 . S
O171 Dy161 2.395 . S
O171 C191 1.255 . S
O172 Dy161 2.379 . S
O172 C191 1.249 . S
C173 O163 1.266 . S
C173 O164 1.236 . S
O174 Dy160 2.275 . S
O174 C162 1.254 . S
O175 Dy161 2.339 . S
O175 C162 1.257 . S
C176 C179 1.344 . S
C176 C180 1.328 . S
C176 C182 1.516 . S
C177 C178 1.304 . S
C177 C181 1.323 . S
C178 C177 1.304 . S
C178 C179 1.371 . S
C178 H192 0.930 . S
C179 C176 1.344 . S
C179 C178 1.371 . S
C179 H193 0.931 . S
C180 C176 1.328 . S
C180 C181 1.433 . S
C180 H194 0.931 . S
C181 C177 1.323 . S
C181 C180 1.433 . S
C181 H195 0.933 . S
C182 Dy160 2.738 . S
C182 O165 1.255 . S
C182 O166 1.249 . S
C182 C176 1.516 . S
C183 O167 1.254 . S
C183 O168 1.257 . S
C184 O169 1.266 . S
C184 O170 1.236 . S
C185 C188 1.344 . S
C185 C189 1.328 . S
C185 C191 1.516 . S
C186 C187 1.304 . S
C186 C190 1.323 . S
C187 C186 1.304 . S
C187 C188 1.371 . S
C187 H196 0.930 . S
C188 C185 1.344 . S
C188 C187 1.371 . S
C188 H197 0.931 . S
C189 C185 1.328 . S
C189 C190 1.433 . S
C189 H198 0.931 . S
C190 C186 1.323 . S
C190 C189 1.433 . S
C190 H199 0.933 . S
C191 Dy161 2.738 . S
C191 O171 1.255 . S
C191 O172 1.249 . S
C191 C185 1.516 . S
H192 C178 0.930 . S
H193 C179 0.931 . S
H194 C180 0.931 . S
H195 C181 0.933 . S
H196 C187 0.930 . S
H197 C188 0.931 . S
H198 C189 0.931 . S
H199 C190 0.933 . S
Dy200 O203 2.307 . S
Dy200 O205 2.395 . S
Dy200 O206 2.379 . S
Dy200 O208 2.339 . S
Dy200 O210 2.298 . S
Dy200 O214 2.275 . S
Dy200 C222 2.738 . S
Dy201 O204 2.298 . S
Dy201 O207 2.275 . S
Dy201 O209 2.307 . S
Dy201 O211 2.395 . S
Dy201 O212 2.379 . S
Dy201 O215 2.339 . S
Dy201 C231 2.738 . S
C202 O214 1.254 . S
C202 O215 1.257 . S
O203 Dy200 2.307 . S
O203 C213 1.266 . S
O204 Dy201 2.298 . S
O204 C213 1.236 . S
O205 Dy200 2.395 . S
O205 C222 1.255 . S
O206 Dy200 2.379 . S
O206 C222 1.249 . S
O207 Dy201 2.275 . S
O207 C223 1.254 . S
O208 Dy200 2.339 . S
O208 C223 1.257 . S
O209 Dy201 2.307 . S
O209 C224 1.266 . S
O210 Dy200 2.298 . S
O210 C224 1.236 . S
O211 Dy201 2.395 . S
O211 C231 1.255 . S
O212 Dy201 2.379 . S
O212 C231 1.249 . S
C213 O203 1.266 . S
C213 O204 1.236 . S
O214 Dy200 2.275 . S
O214 C202 1.254 . S
O215 Dy201 2.339 . S
O215 C202 1.257 . S
C216 C219 1.344 . S
C216 C220 1.328 . S
C216 C222 1.516 . S
C217 C218 1.304 . S
C217 C221 1.323 . S
C218 C217 1.304 . S
C218 C219 1.371 . S
C218 H232 0.930 . S
C219 C216 1.344 . S
C219 C218 1.371 . S
C219 H233 0.931 . S
C220 C216 1.328 . S
C220 C221 1.433 . S
C220 H234 0.931 . S
C221 C217 1.323 . S
C221 C220 1.433 . S
C221 H235 0.933 . S
C222 Dy200 2.738 . S
C222 O205 1.255 . S
C222 O206 1.249 . S
C222 C216 1.516 . S
C223 O207 1.254 . S
C223 O208 1.257 . S
C224 O209 1.266 . S
C224 O210 1.236 . S
C225 C228 1.344 . S
C225 C229 1.328 . S
C225 C231 1.516 . S
C226 C227 1.304 . S
C226 C230 1.323 . S
C227 C226 1.304 . S
C227 C228 1.371 . S
C227 H236 0.930 . S
C228 C225 1.344 . S
C228 C227 1.371 . S
C228 H237 0.931 . S
C229 C225 1.328 . S
C229 C230 1.433 . S
C229 H238 0.931 . S
C230 C226 1.323 . S
C230 C229 1.433 . S
C230 H239 0.933 . S
C231 Dy201 2.738 . S
C231 O211 1.255 . S
C231 O212 1.249 . S
C231 C225 1.516 . S
H232 C218 0.930 . S
H233 C219 0.931 . S
H234 C220 0.931 . S
H235 C221 0.933 . S
H236 C227 0.930 . S
H237 C228 0.931 . S
H238 C229 0.931 . S
H239 C230 0.933 . S
Dy240 O243 2.307 . S
Dy240 O245 2.395 . S
Dy240 O246 2.379 . S
Dy240 O248 2.339 . S
Dy240 O250 2.298 . S
Dy240 O254 2.275 . S
Dy240 C262 2.738 . S
Dy241 O244 2.298 . S
Dy241 O247 2.275 . S
Dy241 O249 2.307 . S
Dy241 O251 2.395 . S
Dy241 O252 2.379 . S
Dy241 O255 2.339 . S
Dy241 C271 2.738 . S
C242 O254 1.254 . S
C242 O255 1.257 . S
O243 Dy240 2.307 . S
O243 C253 1.266 . S
O244 Dy241 2.298 . S
O244 C253 1.236 . S
O245 Dy240 2.395 . S
O245 C262 1.255 . S
O246 Dy240 2.379 . S
O246 C262 1.249 . S
O247 Dy241 2.275 . S
O247 C263 1.254 . S
O248 Dy240 2.339 . S
O248 C263 1.257 . S
O249 Dy241 2.307 . S
O249 C264 1.266 . S
O250 Dy240 2.298 . S
O250 C264 1.236 . S
O251 Dy241 2.395 . S
O251 C271 1.255 . S
O252 Dy241 2.379 . S
O252 C271 1.249 . S
C253 O243 1.266 . S
C253 O244 1.236 . S
O254 Dy240 2.275 . S
O254 C242 1.254 . S
O255 Dy241 2.339 . S
O255 C242 1.257 . S
C256 C259 1.344 . S
C256 C260 1.328 . S
C256 C262 1.516 . S
C257 C258 1.304 . S
C257 C261 1.323 . S
C258 C257 1.304 . S
C258 C259 1.371 . S
C258 H272 0.930 . S
C259 C256 1.344 . S
C259 C258 1.371 . S
C259 H273 0.931 . S
C260 C256 1.328 . S
C260 C261 1.433 . S
C260 H274 0.931 . S
C261 C257 1.323 . S
C261 C260 1.433 . S
C261 H275 0.933 . S
C262 Dy240 2.738 . S
C262 O245 1.255 . S
C262 O246 1.249 . S
C262 C256 1.516 . S
C263 O247 1.254 . S
C263 O248 1.257 . S
C264 O249 1.266 . S
C264 O250 1.236 . S
C265 C268 1.344 . S
C265 C269 1.328 . S
C265 C271 1.516 . S
C266 C267 1.304 . S
C266 C270 1.323 . S
C267 C266 1.304 . S
C267 C268 1.371 . S
C267 H276 0.930 . S
C268 C265 1.344 . S
C268 C267 1.371 . S
C268 H277 0.931 . S
C269 C265 1.328 . S
C269 C270 1.433 . S
C269 H278 0.931 . S
C270 C266 1.323 . S
C270 C269 1.433 . S
C270 H279 0.933 . S
C271 Dy241 2.738 . S
C271 O251 1.255 . S
C271 O252 1.249 . S
C271 C265 1.516 . S
H272 C258 0.930 . S
H273 C259 0.931 . S
H274 C260 0.931 . S
H275 C261 0.933 . S
H276 C267 0.930 . S
H277 C268 0.931 . S
H278 C269 0.931 . S
H279 C270 0.933 . S
Dy280 O283 2.307 . S
Dy280 O285 2.395 . S
Dy280 O286 2.379 . S
Dy280 O288 2.339 . S
Dy280 O290 2.298 . S
Dy280 O294 2.275 . S
Dy280 C302 2.738 . S
Dy281 O284 2.298 . S
Dy281 O287 2.275 . S
Dy281 O289 2.307 . S
Dy281 O291 2.395 . S
Dy281 O292 2.379 . S
Dy281 O295 2.339 . S
Dy281 C311 2.738 . S
C282 O294 1.254 . S
C282 O295 1.257 . S
O283 Dy280 2.307 . S
O283 C293 1.266 . S
O284 Dy281 2.298 . S
O284 C293 1.236 . S
O285 Dy280 2.395 . S
O285 C302 1.255 . S
O286 Dy280 2.379 . S
O286 C302 1.249 . S
O287 Dy281 2.275 . S
O287 C303 1.254 . S
O288 Dy280 2.339 . S
O288 C303 1.257 . S
O289 Dy281 2.307 . S
O289 C304 1.266 . S
O290 Dy280 2.298 . S
O290 C304 1.236 . S
O291 Dy281 2.395 . S
O291 C311 1.255 . S
O292 Dy281 2.379 . S
O292 C311 1.249 . S
C293 O283 1.266 . S
C293 O284 1.236 . S
O294 Dy280 2.275 . S
O294 C282 1.254 . S
O295 Dy281 2.339 . S
O295 C282 1.257 . S
C296 C299 1.344 . S
C296 C300 1.299 1_455 S
C296 C302 1.516 . S
C297 C298 1.317 . S
C297 C301 1.317 1_455 S
C298 C297 1.317 . S
C298 C299 1.371 . S
C298 H312 0.930 . S
C299 C296 1.344 . S
C299 C298 1.371 . S
C299 H313 0.931 . S
C300 C296 1.299 1_655 S
C300 C301 1.445 . S
C300 H314 0.948 . S
C301 C297 1.317 1_655 S
C301 C300 1.445 . S
C301 H315 0.933 . S
C302 Dy280 2.738 . S
C302 O285 1.255 . S
C302 O286 1.249 . S
C302 C296 1.516 . S
C303 O287 1.254 . S
C303 O288 1.257 . S
C304 O289 1.266 . S
C304 O290 1.236 . S
C305 C308 1.344 . S
C305 C309 1.328 . S
C305 C311 1.516 . S
C306 C307 1.304 . S
C306 C310 1.323 . S
C307 C306 1.304 . S
C307 C308 1.371 . S
C307 H316 0.930 . S
C308 C305 1.344 . S
C308 C307 1.371 . S
C308 H317 0.931 . S
C309 C305 1.328 . S
C309 C310 1.433 . S
C309 H318 0.931 . S
C310 C306 1.323 . S
C310 C309 1.433 . S
C310 H319 0.933 . S
C311 Dy281 2.738 . S
C311 O291 1.255 . S
C311 O292 1.249 . S
C311 C305 1.516 . S
H312 C298 0.930 . S
H313 C299 0.931 . S
H314 C300 0.948 . S
H315 C301 0.933 . S
H316 C307 0.930 . S
H317 C308 0.931 . S
H318 C309 0.931 . S
H319 C310 0.933 . S
Dy320 O323 2.307 . S
Dy320 O325 2.395 . S
Dy320 O326 2.379 . S
Dy320 O328 2.339 . S
Dy320 O330 2.298 . S
Dy320 O334 2.275 . S
Dy320 C342 2.738 . S
Dy321 O324 2.298 . S
Dy321 O327 2.275 . S
Dy321 O329 2.307 . S
Dy321 O331 2.395 . S
Dy321 O332 2.379 . S
Dy321 O335 2.339 . S
Dy321 C351 2.738 . S
C322 O334 1.254 . S
C322 O335 1.257 . S
O323 Dy320 2.307 . S
O323 C333 1.266 . S
O324 Dy321 2.298 . S
O324 C333 1.236 . S
O325 Dy320 2.395 . S
O325 C342 1.255 . S
O326 Dy320 2.379 . S
O326 C342 1.249 . S
O327 Dy321 2.275 . S
O327 C343 1.254 . S
O328 Dy320 2.339 . S
O328 C343 1.257 . S
O329 Dy321 2.307 . S
O329 C344 1.266 . S
O330 Dy320 2.298 . S
O330 C344 1.236 . S
O331 Dy321 2.395 . S
O331 C351 1.255 . S
O332 Dy321 2.379 . S
O332 C351 1.249 . S
C333 O323 1.266 . S
C333 O324 1.236 . S
O334 Dy320 2.275 . S
O334 C322 1.254 . S
O335 Dy321 2.339 . S
O335 C322 1.257 . S
C336 C339 1.344 . S
C336 C340 1.328 . S
C336 C342 1.516 . S
C337 C338 1.304 . S
C337 C341 1.323 . S
C338 C337 1.304 . S
C338 C339 1.371 . S
C338 H352 0.930 . S
C339 C336 1.344 . S
C339 C338 1.371 . S
C339 H353 0.931 . S
C340 C336 1.328 . S
C340 C341 1.433 . S
C340 H354 0.931 . S
C341 C337 1.323 . S
C341 C340 1.433 . S
C341 H355 0.933 . S
C342 Dy320 2.738 . S
C342 O325 1.255 . S
C342 O326 1.249 . S
C342 C336 1.516 . S
C343 O327 1.254 . S
C343 O328 1.257 . S
C344 O329 1.266 . S
C344 O330 1.236 . S
C345 C348 1.344 . S
C345 C349 1.328 . S
C345 C351 1.516 . S
C346 C347 1.304 . S
C346 C350 1.323 . S
C347 C346 1.304 . S
C347 C348 1.371 . S
C347 H356 0.930 . S
C348 C345 1.344 . S
C348 C347 1.371 . S
C348 H357 0.931 . S
C349 C345 1.328 . S
C349 C350 1.433 . S
C349 H358 0.931 . S
C350 C346 1.323 . S
C350 C349 1.433 . S
C350 H359 0.933 . S
C351 Dy321 2.738 . S
C351 O331 1.255 . S
C351 O332 1.249 . S
C351 C345 1.516 . S
H352 C338 0.930 . S
H353 C339 0.931 . S
H354 C340 0.931 . S
H355 C341 0.933 . S
H356 C347 0.930 . S
H357 C348 0.931 . S
H358 C349 0.931 . S
H359 C350 0.933 . S
Dy360 O363 2.307 . S
Dy360 O365 2.395 . S
Dy360 O366 2.379 . S
Dy360 O368 2.339 . S
Dy360 O370 2.298 1_545 S
Dy360 O374 2.275 . S
Dy360 C382 2.738 . S
Dy361 O364 2.298 . S
Dy361 O367 2.275 . S
Dy361 O369 2.307 1_545 S
Dy361 O371 2.395 . S
Dy361 O372 2.379 . S
Dy361 O375 2.339 1_545 S
Dy361 C391 2.738 . S
C362 O374 1.254 1_565 S
C362 O375 1.257 . S
O363 Dy360 2.307 . S
O363 C373 1.266 . S
O364 Dy361 2.298 . S
O364 C373 1.236 . S
O365 Dy360 2.395 . S
O365 C382 1.255 . S
O366 Dy360 2.379 . S
O366 C382 1.249 . S
O367 Dy361 2.275 . S
O367 C383 1.254 . S
O368 Dy360 2.339 . S
O368 C383 1.257 . S
O369 Dy361 2.307 1_565 S
O369 C384 1.266 . S
O370 Dy360 2.298 1_565 S
O370 C384 1.236 . S
O371 Dy361 2.395 . S
O371 C391 1.255 . S
O372 Dy361 2.379 . S
O372 C391 1.249 . S
C373 O363 1.266 . S
C373 O364 1.236 . S
O374 Dy360 2.275 . S
O374 C362 1.254 1_545 S
O375 Dy361 2.339 1_565 S
O375 C362 1.257 . S
C376 C379 1.344 1_545 S
C376 C380 1.328 . S
C376 C382 1.516 . S
C377 C378 1.304 . S
C377 C381 1.323 1_565 S
C378 C377 1.304 . S
C378 C379 1.371 . S
C378 H392 0.930 . S
C379 C376 1.344 1_565 S
C379 C378 1.371 . S
C379 H393 0.931 . S
C380 C376 1.328 . S
C380 C381 1.433 . S
C380 H394 0.931 . S
C381 C377 1.323 1_545 S
C381 C380 1.433 . S
C381 H395 0.933 . S
C382 Dy360 2.738 . S
C382 O365 1.255 . S
C382 O366 1.249 . S
C382 C376 1.516 . S
C383 O367 1.254 . S
C383 O368 1.257 . S
C384 O369 1.266 . S
C384 O370 1.236 . S
C385 C388 1.344 . S
C385 C389 1.299 1_455 S
C385 C391 1.516 . S
C386 C387 1.317 . S
C386 C390 1.317 1_455 S
C387 C386 1.317 . S
C387 C388 1.371 . S
C387 H396 0.930 . S
C388 C385 1.344 . S
C388 C387 1.371 . S
C388 H397 0.931 . S
C389 C385 1.299 1_655 S
C389 C390 1.445 . S
C389 H398 0.947 . S
C390 C386 1.317 1_655 S
C390 C389 1.445 . S
C390 H399 0.933 . S
C391 Dy361 2.738 . S
C391 O371 1.255 . S
C391 O372 1.249 . S
C391 C385 1.516 . S
H392 C378 0.930 . S
H393 C379 0.931 . S
H394 C380 0.931 . S
H395 C381 0.933 . S
H396 C387 0.930 . S
H397 C388 0.931 . S
H398 C389 0.947 . S
H399 C390 0.933 . S
Dy400 O403 2.307 . S
Dy400 O405 2.395 . S
Dy400 O406 2.379 . S
Dy400 O408 2.339 . S
Dy400 O410 2.298 . S
Dy400 O414 2.275 . S
Dy400 C422 2.738 . S
Dy401 O404 2.298 . S
Dy401 O407 2.275 . S
Dy401 O409 2.307 . S
Dy401 O411 2.395 . S
Dy401 O412 2.379 . S
Dy401 O415 2.339 . S
Dy401 C431 2.738 . S
C402 O414 1.254 . S
C402 O415 1.257 . S
O403 Dy400 2.307 . S
O403 C413 1.266 . S
O404 Dy401 2.298 . S
O404 C413 1.236 . S
O405 Dy400 2.395 . S
O405 C422 1.255 . S
O406 Dy400 2.379 . S
O406 C422 1.249 . S
O407 Dy401 2.275 . S
O407 C423 1.254 . S
O408 Dy400 2.339 . S
O408 C423 1.257 . S
O409 Dy401 2.307 . S
O409 C424 1.266 . S
O410 Dy400 2.298 . S
O410 C424 1.236 . S
O411 Dy401 2.395 . S
O411 C431 1.255 . S
O412 Dy401 2.379 . S
O412 C431 1.249 . S
C413 O403 1.266 . S
C413 O404 1.236 . S
O414 Dy400 2.275 . S
O414 C402 1.254 . S
O415 Dy401 2.339 . S
O415 C402 1.257 . S
C416 C419 1.344 . S
C416 C420 1.328 . S
C416 C422 1.516 . S
C417 C418 1.304 . S
C417 C421 1.323 . S
C418 C417 1.304 . S
C418 C419 1.371 . S
C418 H432 0.930 . S
C419 C416 1.344 . S
C419 C418 1.371 . S
C419 H433 0.931 . S
C420 C416 1.328 . S
C420 C421 1.433 . S
C420 H434 0.931 . S
C421 C417 1.323 . S
C421 C420 1.433 . S
C421 H435 0.933 . S
C422 Dy400 2.738 . S
C422 O405 1.255 . S
C422 O406 1.249 . S
C422 C416 1.516 . S
C423 O407 1.254 . S
C423 O408 1.257 . S
C424 O409 1.266 . S
C424 O410 1.236 . S
C425 C428 1.344 . S
C425 C429 1.328 . S
C425 C431 1.516 . S
C426 C427 1.304 . S
C426 C430 1.323 . S
C427 C426 1.304 . S
C427 C428 1.371 . S
C427 H436 0.930 . S
C428 C425 1.344 . S
C428 C427 1.371 . S
C428 H437 0.931 . S
C429 C425 1.328 . S
C429 C430 1.433 . S
C429 H438 0.931 . S
C430 C426 1.323 . S
C430 C429 1.433 . S
C430 H439 0.933 . S
C431 Dy401 2.738 . S
C431 O411 1.255 . S
C431 O412 1.249 . S
C431 C425 1.516 . S
H432 C418 0.930 . S
H433 C419 0.931 . S
H434 C420 0.931 . S
H435 C421 0.933 . S
H436 C427 0.930 . S
H437 C428 0.931 . S
H438 C429 0.931 . S
H439 C430 0.933 . S
Dy440 O443 2.307 . S
Dy440 O445 2.395 . S
Dy440 O446 2.379 . S
Dy440 O448 2.339 . S
Dy440 O450 2.298 1_565 S
Dy440 O454 2.275 . S
Dy440 C462 2.738 . S
Dy441 O444 2.298 . S
Dy441 O447 2.275 . S
Dy441 O449 2.307 1_565 S
Dy441 O451 2.395 . S
Dy441 O452 2.379 . S
Dy441 O455 2.339 1_565 S
Dy441 C471 2.738 . S
C442 O454 1.254 1_545 S
C442 O455 1.257 . S
O443 Dy440 2.307 . S
O443 C453 1.266 . S
O444 Dy441 2.298 . S
O444 C453 1.236 . S
O445 Dy440 2.395 . S
O445 C462 1.255 . S
O446 Dy440 2.379 . S
O446 C462 1.249 . S
O447 Dy441 2.275 . S
O447 C463 1.254 . S
O448 Dy440 2.339 . S
O448 C463 1.257 . S
O449 Dy441 2.307 1_545 S
O449 C464 1.266 . S
O450 Dy440 2.298 1_545 S
O450 C464 1.236 . S
O451 Dy441 2.395 . S
O451 C471 1.255 . S
O452 Dy441 2.379 . S
O452 C471 1.249 . S
C453 O443 1.266 . S
C453 O444 1.236 . S
O454 Dy440 2.275 . S
O454 C442 1.254 1_565 S
O455 Dy441 2.339 1_545 S
O455 C442 1.257 . S
C456 C459 1.344 1_565 S
C456 C460 1.328 . S
C456 C462 1.516 . S
C457 C458 1.304 . S
C457 C461 1.323 1_545 S
C458 C457 1.304 . S
C458 C459 1.371 . S
C458 H472 0.930 . S
C459 C456 1.344 1_545 S
C459 C458 1.371 . S
C459 H473 0.931 . S
C460 C456 1.328 . S
C460 C461 1.433 . S
C460 H474 0.931 . S
C461 C457 1.323 1_565 S
C461 C460 1.433 . S
C461 H475 0.933 . S
C462 Dy440 2.738 . S
C462 O445 1.255 . S
C462 O446 1.249 . S
C462 C456 1.516 . S
C463 O447 1.254 . S
C463 O448 1.257 . S
C464 O449 1.266 . S
C464 O450 1.236 . S
C465 C468 1.344 . S
C465 C469 1.328 . S
C465 C471 1.516 . S
C466 C467 1.304 . S
C466 C470 1.323 . S
C467 C466 1.304 . S
C467 C468 1.371 . S
C467 H476 0.930 . S
C468 C465 1.344 . S
C468 C467 1.371 . S
C468 H477 0.931 . S
C469 C465 1.328 . S
C469 C470 1.433 . S
C469 H478 0.931 . S
C470 C466 1.323 . S
C470 C469 1.433 . S
C470 H479 0.933 . S
C471 Dy441 2.738 . S
C471 O451 1.255 . S
C471 O452 1.249 . S
C471 C465 1.516 . S
H472 C458 0.930 . S
H473 C459 0.931 . S
H474 C460 0.931 . S
H475 C461 0.933 . S
H476 C467 0.930 . S
H477 C468 0.931 . S
H478 C469 0.931 . S
H479 C470 0.933 . S
Dy480 O483 2.307 . S
Dy480 O485 2.395 . S
Dy480 O486 2.379 . S
Dy480 O488 2.339 . S
Dy480 O490 2.298 . S
Dy480 O494 2.275 . S
Dy480 C502 2.738 . S
Dy481 O484 2.298 . S
Dy481 O487 2.275 . S
Dy481 O489 2.307 . S
Dy481 O491 2.395 . S
Dy481 O492 2.379 . S
Dy481 O495 2.339 . S
Dy481 C511 2.738 . S
C482 O494 1.254 . S
C482 O495 1.257 . S
O483 Dy480 2.307 . S
O483 C493 1.266 . S
O484 Dy481 2.298 . S
O484 C493 1.236 . S
O485 Dy480 2.395 . S
O485 C502 1.255 . S
O486 Dy480 2.379 . S
O486 C502 1.249 . S
O487 Dy481 2.275 . S
O487 C503 1.254 . S
O488 Dy480 2.339 . S
O488 C503 1.257 . S
O489 Dy481 2.307 . S
O489 C504 1.266 . S
O490 Dy480 2.298 . S
O490 C504 1.236 . S
O491 Dy481 2.395 . S
O491 C511 1.255 . S
O492 Dy481 2.379 . S
O492 C511 1.249 . S
C493 O483 1.266 . S
C493 O484 1.236 . S
O494 Dy480 2.275 . S
O494 C482 1.254 . S
O495 Dy481 2.339 . S
O495 C482 1.257 . S
C496 C499 1.344 . S
C496 C500 1.328 . S
C496 C502 1.516 . S
C497 C498 1.304 . S
C497 C501 1.323 . S
C498 C497 1.304 . S
C498 C499 1.371 . S
C498 H512 0.930 . S
C499 C496 1.344 . S
C499 C498 1.371 . S
C499 H513 0.931 . S
C500 C496 1.328 . S
C500 C501 1.433 . S
C500 H514 0.931 . S
C501 C497 1.323 . S
C501 C500 1.433 . S
C501 H515 0.933 . S
C502 Dy480 2.738 . S
C502 O485 1.255 . S
C502 O486 1.249 . S
C502 C496 1.516 . S
C503 O487 1.254 . S
C503 O488 1.257 . S
C504 O489 1.266 . S
C504 O490 1.236 . S
C505 C508 1.344 . S
C505 C509 1.328 . S
C505 C511 1.516 . S
C506 C507 1.304 . S
C506 C510 1.323 . S
C507 C506 1.304 . S
C507 C508 1.371 . S
C507 H516 0.930 . S
C508 C505 1.344 . S
C508 C507 1.371 . S
C508 H517 0.931 . S
C509 C505 1.328 . S
C509 C510 1.433 . S
C509 H518 0.931 . S
C510 C506 1.323 . S
C510 C509 1.433 . S
C510 H519 0.933 . S
C511 Dy481 2.738 . S
C511 O491 1.255 . S
C511 O492 1.249 . S
C511 C505 1.516 . S
H512 C498 0.930 . S
H513 C499 0.931 . S
H514 C500 0.931 . S
H515 C501 0.933 . S
H516 C507 0.930 . S
H517 C508 0.931 . S
H518 C509 0.931 . S
H519 C510 0.933 . S
Dy520 O523 2.307 1_565 S
Dy520 O525 2.395 . S
Dy520 O526 2.379 . S
Dy520 O528 2.339 1_565 S
Dy520 O530 2.298 . S
Dy520 O534 2.275 . S
Dy520 C542 2.738 . S
Dy521 O524 2.298 1_565 S
Dy521 O527 2.275 . S
Dy521 O529 2.307 . S
Dy521 O531 2.395 . S
Dy521 O532 2.379 . S
Dy521 O535 2.339 . S
Dy521 C551 2.738 . S
C522 O534 1.254 . S
C522 O535 1.257 . S
O523 Dy520 2.307 1_545 S
O523 C533 1.266 . S
O524 Dy521 2.298 1_545 S
O524 C533 1.236 . S
O525 Dy520 2.395 . S
O525 C542 1.255 . S
O526 Dy520 2.379 . S
O526 C542 1.249 . S
O527 Dy521 2.275 . S
O527 C543 1.254 1_565 S
O528 Dy520 2.339 1_545 S
O528 C543 1.257 . S
O529 Dy521 2.307 . S
O529 C544 1.266 . S
O530 Dy520 2.298 . S
O530 C544 1.236 . S
O531 Dy521 2.395 . S
O531 C551 1.255 . S
O532 Dy521 2.379 . S
O532 C551 1.249 . S
C533 O523 1.266 . S
C533 O524 1.236 . S
O534 Dy520 2.275 . S
O534 C522 1.254 . S
O535 Dy521 2.339 . S
O535 C522 1.257 . S
C536 C539 1.344 . S
C536 C540 1.299 1_655 S
C536 C542 1.516 . S
C537 C538 1.317 . S
C537 C541 1.317 1_655 S
C538 C537 1.317 . S
C538 C539 1.371 . S
C538 H552 0.930 . S
C539 C536 1.344 . S
C539 C538 1.371 . S
C539 H553 0.931 . S
C540 C536 1.299 1_455 S
C540 C541 1.445 . S
C540 H554 0.947 . S
C541 C537 1.317 1_455 S
C541 C540 1.445 . S
C541 H555 0.933 . S
C542 Dy520 2.738 . S
C542 O525 1.255 . S
C542 O526 1.249 . S
C542 C536 1.516 . S
C543 O527 1.254 1_545 S
C543 O528 1.257 . S
C544 O529 1.266 . S
C544 O530 1.236 . S
C545 C548 1.344 1_565 S
C545 C549 1.328 . S
C545 C551 1.516 . S
C546 C547 1.304 . S
C546 C550 1.323 1_545 S
C547 C546 1.304 . S
C547 C548 1.371 . S
C547 H556 0.930 . S
C548 C545 1.344 1_545 S
C548 C547 1.371 . S
C548 H557 0.931 . S
C549 C545 1.328 . S
C549 C550 1.433 . S
C549 H558 0.931 . S
C550 C546 1.323 1_565 S
C550 C549 1.433 . S
C550 H559 0.933 . S
C551 Dy521 2.738 . S
C551 O531 1.255 . S
C551 O532 1.249 . S
C551 C545 1.516 . S
H552 C538 0.930 . S
H553 C539 0.931 . S
H554 C540 0.947 . S
H555 C541 0.933 . S
H556 C547 0.930 . S
H557 C548 0.931 . S
H558 C549 0.931 . S
H559 C550 0.933 . S
Dy560 O563 2.307 . S
Dy560 O565 2.395 . S
Dy560 O566 2.379 . S
Dy560 O568 2.339 . S
Dy560 O570 2.298 . S
Dy560 O574 2.275 . S
Dy560 C582 2.738 . S
Dy561 O564 2.298 . S
Dy561 O567 2.275 . S
Dy561 O569 2.307 . S
Dy561 O571 2.395 . S
Dy561 O572 2.379 . S
Dy561 O575 2.339 . S
Dy561 C591 2.738 . S
C562 O574 1.254 . S
C562 O575 1.257 . S
O563 Dy560 2.307 . S
O563 C573 1.266 . S
O564 Dy561 2.298 . S
O564 C573 1.236 . S
O565 Dy560 2.395 . S
O565 C582 1.255 . S
O566 Dy560 2.379 . S
O566 C582 1.249 . S
O567 Dy561 2.275 . S
O567 C583 1.254 . S
O568 Dy560 2.339 . S
O568 C583 1.257 . S
O569 Dy561 2.307 . S
O569 C584 1.266 . S
O570 Dy560 2.298 . S
O570 C584 1.236 . S
O571 Dy561 2.395 . S
O571 C591 1.255 . S
O572 Dy561 2.379 . S
O572 C591 1.249 . S
C573 O563 1.266 . S
C573 O564 1.236 . S
O574 Dy560 2.275 . S
O574 C562 1.254 . S
O575 Dy561 2.339 . S
O575 C562 1.257 . S
C576 C579 1.344 . S
C576 C580 1.328 . S
C576 C582 1.516 . S
C577 C578 1.304 . S
C577 C581 1.323 . S
C578 C577 1.304 . S
C578 C579 1.371 . S
C578 H592 0.930 . S
C579 C576 1.344 . S
C579 C578 1.371 . S
C579 H593 0.931 . S
C580 C576 1.328 . S
C580 C581 1.433 . S
C580 H594 0.931 . S
C581 C577 1.323 . S
C581 C580 1.433 . S
C581 H595 0.933 . S
C582 Dy560 2.738 . S
C582 O565 1.255 . S
C582 O566 1.249 . S
C582 C576 1.516 . S
C583 O567 1.254 . S
C583 O568 1.257 . S
C584 O569 1.266 . S
C584 O570 1.236 . S
C585 C588 1.344 . S
C585 C589 1.328 . S
C585 C591 1.516 . S
C586 C587 1.304 . S
C586 C590 1.323 . S
C587 C586 1.304 . S
C587 C588 1.371 . S
C587 H596 0.930 . S
C588 C585 1.344 . S
C588 C587 1.371 . S
C588 H597 0.931 . S
C589 C585 1.328 . S
C589 C590 1.433 . S
C589 H598 0.931 . S
C590 C586 1.323 . S
C590 C589 1.433 . S
C590 H599 0.933 . S
C591 Dy561 2.738 . S
C591 O571 1.255 . S
C591 O572 1.249 . S
C591 C585 1.516 . S
H592 C578 0.930 . S
H593 C579 0.931 . S
H594 C580 0.931 . S
H595 C581 0.933 . S
H596 C587 0.930 . S
H597 C588 0.931 . S
H598 C589 0.931 . S
H599 C590 0.933 . S
Dy600 O603 2.307 1_545 S
Dy600 O605 2.395 . S
Dy600 O606 2.379 . S
Dy600 O608 2.339 1_545 S
Dy600 O610 2.298 . S
Dy600 O614 2.275 . S
Dy600 C622 2.738 . S
Dy601 O604 2.298 1_545 S
Dy601 O607 2.275 . S
Dy601 O609 2.307 . S
Dy601 O611 2.395 . S
Dy601 O612 2.379 . S
Dy601 O615 2.339 . S
Dy601 C631 2.738 . S
C602 O614 1.254 . S
C602 O615 1.257 . S
O603 Dy600 2.307 1_565 S
O603 C613 1.266 . S
O604 Dy601 2.298 1_565 S
O604 C613 1.236 . S
O605 Dy600 2.395 . S
O605 C622 1.255 . S
O606 Dy600 2.379 . S
O606 C622 1.249 . S
O607 Dy601 2.275 . S
O607 C623 1.254 1_545 S
O608 Dy600 2.339 1_565 S
O608 C623 1.257 . S
O609 Dy601 2.307 . S
O609 C624 1.266 . S
O610 Dy600 2.298 . S
O610 C624 1.236 . S
O611 Dy601 2.395 . S
O611 C631 1.255 . S
O612 Dy601 2.379 . S
O612 C631 1.249 . S
C613 O603 1.266 . S
C613 O604 1.236 . S
O614 Dy600 2.275 . S
O614 C602 1.254 . S
O615 Dy601 2.339 . S
O615 C602 1.257 . S
C616 C619 1.344 . S
C616 C620 1.328 . S
C616 C622 1.516 . S
C617 C618 1.304 . S
C617 C621 1.323 . S
C618 C617 1.304 . S
C618 C619 1.371 . S
C618 H632 0.930 . S
C619 C616 1.344 . S
C619 C618 1.371 . S
C619 H633 0.931 . S
C620 C616 1.328 . S
C620 C621 1.433 . S
C620 H634 0.931 . S
C621 C617 1.323 . S
C621 C620 1.433 . S
C621 H635 0.933 . S
C622 Dy600 2.738 . S
C622 O605 1.255 . S
C622 O606 1.249 . S
C622 C616 1.516 . S
C623 O607 1.254 1_565 S
C623 O608 1.257 . S
C624 O609 1.266 . S
C624 O610 1.236 . S
C625 C628 1.344 1_545 S
C625 C629 1.328 . S
C625 C631 1.516 . S
C626 C627 1.304 . S
C626 C630 1.323 1_565 S
C627 C626 1.304 . S
C627 C628 1.371 . S
C627 H636 0.930 . S
C628 C625 1.344 1_565 S
C628 C627 1.371 . S
C628 H637 0.931 . S
C629 C625 1.328 . S
C629 C630 1.433 . S
C629 H638 0.931 . S
C630 C626 1.323 1_545 S
C630 C629 1.433 . S
C630 H639 0.933 . S
C631 Dy601 2.738 . S
C631 O611 1.255 . S
C631 O612 1.249 . S
C631 C625 1.516 . S
H632 C618 0.930 . S
H633 C619 0.931 . S
H634 C620 0.931 . S
H635 C621 0.933 . S
H636 C627 0.930 . S
H637 C628 0.931 . S
H638 C629 0.931 . S
H639 C630 0.933 . S
H640 C648 0.950 . S
H641 C653 0.950 . S
H642 C650 0.950 . S
H643 C652 0.950 . S
H644 C654 0.950 . S
H645 C656 0.950 . S
H646 C658 0.950 . S
H647 C659 0.950 . S
C648 H640 0.950 . S
C648 C649 1.386 . S
C648 C650 1.391 . S
C649 C648 1.386 . S
C649 C653 1.393 . S
C650 H642 0.950 . S
C650 C648 1.391 . S
C650 C651 1.400 . S
C651 C650 1.400 . S
C651 C652 1.398 . S
C651 C657 1.491 . S
C652 H643 0.950 . S
C652 C651 1.398 . S
C652 C653 1.391 . S
C653 H641 0.950 . S
C653 C649 1.393 . S
C653 C652 1.391 . S
C654 H644 0.950 . S
C654 C655 1.386 . S
C654 C656 1.391 . S
C655 C654 1.386 . S
C655 C659 1.393 . S
C656 H645 0.950 . S
C656 C654 1.391 . S
C656 C657 1.400 . S
C657 C651 1.491 . S
C657 C656 1.400 . S
C657 C658 1.398 . S
C658 H646 0.950 . S
C658 C657 1.398 . S
C658 C659 1.391 . S
C659 H647 0.950 . S
C659 C655 1.393 . S
C659 C658 1.391 . S
H660 C668 0.950 . S
H661 C673 0.950 . S
H662 C670 0.950 . S
H663 C672 0.950 . S
H664 C674 0.950 . S
H665 C676 0.950 . S
H666 C678 0.950 . S
H667 C679 0.950 . S
C668 H660 0.950 . S
C668 C669 1.386 . S
C668 C670 1.391 . S
C669 C668 1.386 . S
C669 C673 1.393 . S
C670 H662 0.950 . S
C670 C668 1.391 . S
C670 C671 1.400 . S
C671 C670 1.400 . S
C671 C672 1.398 . S
C671 C677 1.491 . S
C672 H663 0.950 . S
C672 C671 1.398 . S
C672 C673 1.391 . S
C673 H661 0.950 . S
C673 C669 1.393 . S
C673 C672 1.391 . S
C674 H664 0.950 . S
C674 C675 1.386 . S
C674 C676 1.391 . S
C675 C674 1.386 . S
C675 C679 1.393 . S
C676 H665 0.950 . S
C676 C674 1.391 . S
C676 C677 1.400 . S
C677 C671 1.491 . S
C677 C676 1.400 . S
C677 C678 1.398 . S
C678 H666 0.950 . S
C678 C677 1.398 . S
C678 C679 1.391 . S
C679 H667 0.950 . S
C679 C675 1.393 . S
C679 C678 1.391 . S
H680 C688 0.950 . S
H681 C693 0.950 . S
H682 C690 0.950 . S
H683 C692 0.950 . S
H684 C694 0.950 . S
H685 C696 0.950 . S
H686 C698 0.950 . S
H687 C699 0.950 . S
C688 H680 0.950 . S
C688 C689 1.386 . S
C688 C690 1.391 . S
C689 C688 1.386 . S
C689 C693 1.393 . S
C690 H682 0.950 . S
C690 C688 1.391 . S
C690 C691 1.400 . S
C691 C690 1.400 . S
C691 C692 1.398 . S
C691 C697 1.491 . S
C692 H683 0.950 . S
C692 C691 1.398 . S
C692 C693 1.391 . S
C693 H681 0.950 . S
C693 C689 1.393 . S
C693 C692 1.391 . S
C694 H684 0.950 . S
C694 C695 1.386 . S
C694 C696 1.391 . S
C695 C694 1.386 . S
C695 C699 1.393 . S
C696 H685 0.950 . S
C696 C694 1.391 . S
C696 C697 1.400 . S
C697 C691 1.491 . S
C697 C696 1.400 . S
C697 C698 1.398 . S
C698 H686 0.950 . S
C698 C697 1.398 . S
C698 C699 1.391 . S
C699 H687 0.950 . S
C699 C695 1.393 . S
C699 C698 1.391 . S
H700 C708 0.950 . S
H701 C713 0.950 1_654 S
H702 C710 0.950 . S
H703 C712 0.950 . S
H704 C714 0.950 . S
H705 C716 0.950 . S
H706 C718 0.950 . S
H707 C719 0.950 1_456 S
C708 H700 0.950 . S
C708 C709 1.386 . S
C708 C710 1.391 . S
C709 C708 1.386 . S
C709 C713 1.393 . S
C710 H702 0.950 . S
C710 C708 1.391 . S
C710 C711 1.400 . S
C711 C710 1.400 . S
C711 C712 1.398 1_456 S
C711 C717 1.491 1_456 S
C712 H703 0.950 . S
C712 C711 1.398 1_654 S
C712 C713 1.391 1_654 S
C713 H701 0.950 1_456 S
C713 C709 1.393 . S
C713 C712 1.391 1_456 S
C714 H704 0.950 . S
C714 C715 1.386 . S
C714 C716 1.391 . S
C715 C714 1.386 . S
C715 C719 1.393 . S
C716 H705 0.950 . S
C716 C714 1.391 . S
C716 C717 1.400 . S
C717 C711 1.491 1_654 S
C717 C716 1.400 . S
C717 C718 1.398 1_654 S
C718 H706 0.950 . S
C718 C717 1.398 1_456 S
C718 C719 1.391 1_456 S
C719 H707 0.950 1_654 S
C719 C715 1.393 . S
C719 C718 1.391 1_654 S
H720 C728 0.950 . S
H721 C733 0.950 . S
H722 C730 0.950 . S
H723 C732 0.950 . S
H724 C734 0.950 . S
H725 C736 0.950 . S
H726 C738 0.950 . S
H727 C739 0.950 . S
C728 H720 0.950 . S
C728 C729 1.386 . S
C728 C730 1.391 . S
C729 C728 1.386 . S
C729 C733 1.393 . S
C730 H722 0.950 . S
C730 C728 1.391 . S
C730 C731 1.400 . S
C731 C730 1.400 . S
C731 C732 1.398 . S
C731 C737 1.491 . S
C732 H723 0.950 . S
C732 C731 1.398 . S
C732 C733 1.391 . S
C733 H721 0.950 . S
C733 C729 1.393 . S
C733 C732 1.391 . S
C734 H724 0.950 . S
C734 C735 1.386 . S
C734 C736 1.391 . S
C735 C734 1.386 . S
C735 C739 1.393 . S
C736 H725 0.950 . S
C736 C734 1.391 . S
C736 C737 1.400 . S
C737 C731 1.491 . S
C737 C736 1.400 . S
C737 C738 1.398 . S
C738 H726 0.950 . S
C738 C737 1.398 . S
C738 C739 1.391 . S
C739 H727 0.950 . S
C739 C735 1.393 . S
C739 C738 1.391 . S
H740 C748 0.950 . S
H741 C753 0.950 . S
H742 C750 0.950 . S
H743 C752 0.950 . S
H744 C754 0.950 . S
H745 C756 0.950 . S
H746 C758 0.950 . S
H747 C759 0.950 . S
C748 H740 0.950 . S
C748 C749 1.386 . S
C748 C750 1.391 . S
C749 C748 1.386 . S
C749 C753 1.393 . S
C750 H742 0.950 . S
C750 C748 1.391 . S
C750 C751 1.400 . S
C751 C750 1.400 . S
C751 C752 1.398 . S
C751 C757 1.491 . S
C752 H743 0.950 . S
C752 C751 1.398 . S
C752 C753 1.391 . S
C753 H741 0.950 . S
C753 C749 1.393 . S
C753 C752 1.391 . S
C754 H744 0.950 . S
C754 C755 1.386 . S
C754 C756 1.391 . S
C755 C754 1.386 . S
C755 C759 1.393 . S
C756 H745 0.950 . S
C756 C754 1.391 . S
C756 C757 1.400 . S
C757 C751 1.491 . S
C757 C756 1.400 . S
C757 C758 1.398 . S
C758 H746 0.950 . S
C758 C757 1.398 . S
C758 C759 1.391 . S
C759 H747 0.950 . S
C759 C755 1.393 . S
C759 C758 1.391 . S
H760 C768 0.950 1_556 S
H761 C773 0.950 . S
H762 C770 0.950 . S
H763 C772 0.950 . S
H764 C774 0.950 1_554 S
H765 C776 0.950 . S
H766 C778 0.950 . S
H767 C779 0.950 . S
C768 H760 0.950 1_554 S
C768 C769 1.386 . S
C768 C770 1.391 1_554 S
C769 C768 1.386 . S
C769 C773 1.393 1_455 S
C770 H762 0.950 . S
C770 C768 1.391 1_556 S
C770 C771 1.400 1_556 S
C771 C770 1.400 1_554 S
C771 C772 1.398 1_455 S
C771 C777 1.491 1_464 S
C772 H763 0.950 . S
C772 C771 1.398 1_655 S
C772 C773 1.391 . S
C773 H761 0.950 . S
C773 C769 1.393 1_655 S
C773 C772 1.391 . S
C774 H764 0.950 1_556 S
C774 C775 1.386 . S
C774 C776 1.391 1_556 S
C775 C774 1.386 . S
C775 C779 1.393 1_655 S
C776 H765 0.950 . S
C776 C774 1.391 1_554 S
C776 C777 1.400 1_554 S
C777 C771 1.491 1_646 S
C777 C776 1.400 1_556 S
C777 C778 1.398 1_655 S
C778 H766 0.950 . S
C778 C777 1.398 1_455 S
C778 C779 1.391 . S
C779 H767 0.950 . S
C779 C775 1.393 1_455 S
C779 C778 1.391 . S
H780 C788 0.950 . S
H781 C793 0.950 . S
H782 C790 0.950 . S
H783 C792 0.950 . S
H784 C794 0.950 . S
H785 C796 0.950 . S
H786 C798 0.950 . S
H787 C799 0.950 . S
C788 H780 0.950 . S
C788 C789 1.386 . S
C788 C790 1.391 . S
C789 C788 1.386 . S
C789 C793 1.393 . S
C790 H782 0.950 . S
C790 C788 1.391 . S
C790 C791 1.400 . S
C791 C790 1.400 . S
C791 C792 1.398 . S
C791 C797 1.491 1_565 S
C792 H783 0.950 . S
C792 C791 1.398 . S
C792 C793 1.391 . S
C793 H781 0.950 . S
C793 C789 1.393 . S
C793 C792 1.391 . S
C794 H784 0.950 . S
C794 C795 1.386 . S
C794 C796 1.391 . S
C795 C794 1.386 . S
C795 C799 1.393 . S
C796 H785 0.950 . S
C796 C794 1.391 . S
C796 C797 1.400 . S
C797 C791 1.491 1_545 S
C797 C796 1.400 . S
C797 C798 1.398 . S
C798 H786 0.950 . S
C798 C797 1.398 . S
C798 C799 1.391 . S
C799 H787 0.950 . S
C799 C795 1.393 . S
C799 C798 1.391 . S
H800 C808 0.950 . S
H801 C813 0.950 . S
H802 C810 0.950 . S
H803 C812 0.950 . S
H804 C814 0.962 . S
H805 C816 0.950 . S
H806 C818 0.950 . S
H807 C819 0.950 . S
C808 H800 0.950 . S
C808 C809 1.386 . S
C808 C810 1.391 . S
C809 C808 1.386 . S
C809 C813 1.393 . S
C810 H802 0.950 . S
C810 C808 1.391 . S
C810 C811 1.400 . S
C811 C810 1.400 . S
C811 C812 1.398 . S
C811 C817 1.491 . S
C812 H803 0.950 . S
C812 C811 1.398 . S
C812 C813 1.391 . S
C813 H801 0.950 . S
C813 C809 1.393 . S
C813 C812 1.391 . S
C814 H804 0.962 . S
C814 C815 1.392 . S
C814 C816 1.373 1_554 S
C815 C814 1.392 . S
C815 C819 1.393 1_554 S
C816 H805 0.950 . S
C816 C814 1.373 1_556 S
C816 C817 1.400 . S
C817 C811 1.491 . S
C817 C816 1.400 . S
C817 C818 1.398 . S
C818 H806 0.950 . S
C818 C817 1.398 . S
C818 C819 1.391 . S
C819 H807 0.950 . S
C819 C815 1.393 1_556 S
C819 C818 1.391 . S
H820 C828 0.950 . S
H821 C833 0.950 . S
H822 C830 0.950 . S
H823 C832 0.950 . S
H824 C834 0.950 . S
H825 C836 0.950 . S
H826 C838 0.950 . S
H827 C839 0.950 . S
C828 H820 0.950 . S
C828 C829 1.386 . S
C828 C830 1.391 . S
C829 C828 1.386 . S
C829 C833 1.393 . S
C830 H822 0.950 . S
C830 C828 1.391 . S
C830 C831 1.400 . S
C831 C830 1.400 . S
C831 C832 1.398 . S
C831 C837 1.491 . S
C832 H823 0.950 . S
C832 C831 1.398 . S
C832 C833 1.391 . S
C833 H821 0.950 . S
C833 C829 1.393 . S
C833 C832 1.391 . S
C834 H824 0.950 . S
C834 C835 1.386 . S
C834 C836 1.391 . S
C835 C834 1.386 . S
C835 C839 1.393 . S
C836 H825 0.950 . S
C836 C834 1.391 . S
C836 C837 1.400 . S
C837 C831 1.491 . S
C837 C836 1.400 . S
C837 C838 1.398 . S
C838 H826 0.950 . S
C838 C837 1.398 . S
C838 C839 1.391 . S
C839 H827 0.950 . S
C839 C835 1.393 . S
C839 C838 1.391 . S
H840 C848 0.950 . S
H841 C853 0.950 1_545 S
H842 C850 0.950 . S
H843 C852 0.950 . S
H844 C854 0.950 . S
H845 C856 0.950 . S
H846 C858 0.950 . S
H847 C859 0.950 . S
C848 H840 0.950 . S
C848 C849 1.386 . S
C848 C850 1.391 . S
C849 C848 1.386 . S
C849 C853 1.393 . S
C850 H842 0.950 . S
C850 C848 1.391 . S
C850 C851 1.400 . S
C851 C850 1.400 . S
C851 C852 1.398 . S
C851 C857 1.491 . S
C852 H843 0.950 . S
C852 C851 1.398 . S
C852 C853 1.391 . S
C853 H841 0.950 1_565 S
C853 C849 1.393 . S
C853 C852 1.391 . S
C854 H844 0.950 . S
C854 C855 1.386 . S
C854 C856 1.391 . S
C855 C854 1.386 . S
C855 C859 1.393 . S
C856 H845 0.950 . S
C856 C854 1.391 . S
C856 C857 1.400 . S
C857 C851 1.491 . S
C857 C856 1.400 . S
C857 C858 1.398 . S
C858 H846 0.950 . S
C858 C857 1.398 . S
C858 C859 1.391 . S
C859 H847 0.950 . S
C859 C855 1.393 . S
C859 C858 1.391 . S
H860 C868 0.950 . S
H861 C873 0.950 . S
H862 C870 0.950 . S
H863 C872 0.950 . S
H864 C874 0.950 . S
H865 C876 0.950 . S
H866 C878 0.950 . S
H867 C879 0.950 . S
C868 H860 0.950 . S
C868 C869 1.386 . S
C868 C870 1.391 . S
C869 C868 1.386 . S
C869 C873 1.393 . S
C870 H862 0.950 . S
C870 C868 1.391 . S
C870 C871 1.400 . S
C871 C870 1.400 . S
C871 C872 1.398 . S
C871 C877 1.491 . S
C872 H863 0.950 . S
C872 C871 1.398 . S
C872 C873 1.391 . S
C873 H861 0.950 . S
C873 C869 1.393 . S
C873 C872 1.391 . S
C874 H864 0.950 . S
C874 C875 1.386 . S
C874 C876 1.391 . S
C875 C874 1.386 . S
C875 C879 1.393 . S
C876 H865 0.950 . S
C876 C874 1.391 . S
C876 C877 1.400 . S
C877 C871 1.491 . S
C877 C876 1.400 . S
C877 C878 1.398 . S
C878 H866 0.950 . S
C878 C877 1.398 . S
C878 C879 1.391 . S
C879 H867 0.950 . S
C879 C875 1.393 . S
C879 C878 1.391 . S
H880 C888 0.950 . S
H881 C893 0.950 . S
H882 C890 0.950 . S
H883 C892 0.950 . S
H884 C894 0.950 . S
H885 C896 0.950 . S
H886 C898 0.950 . S
H887 C899 0.950 . S
C888 H880 0.950 . S
C888 C889 1.386 . S
C888 C890 1.391 . S
C889 C888 1.386 . S
C889 C893 1.393 . S
C890 H882 0.950 . S
C890 C888 1.391 . S
C890 C891 1.400 . S
C891 C890 1.400 . S
C891 C892 1.398 . S
C891 C897 1.491 . S
C892 H883 0.950 . S
C892 C891 1.398 . S
C892 C893 1.391 . S
C893 H881 0.950 . S
C893 C889 1.393 . S
C893 C892 1.391 . S
C894 H884 0.950 . S
C894 C895 1.386 . S
C894 C896 1.391 1_556 S
C895 C894 1.386 . S
C895 C899 1.393 1_556 S
C896 H885 0.950 . S
C896 C894 1.391 1_554 S
C896 C897 1.400 . S
C897 C891 1.491 . S
C897 C896 1.400 . S
C897 C898 1.398 . S
C898 H886 0.950 . S
C898 C897 1.398 . S
C898 C899 1.391 . S
C899 H887 0.950 . S
C899 C895 1.393 1_554 S
C899 C898 1.391 . S
H900 C908 0.950 . S
H901 C913 0.950 . S
H902 C910 0.950 . S
H903 C912 0.950 . S
H904 C914 0.950 . S
H905 C916 0.950 . S
H906 C918 0.950 . S
H907 C919 0.950 . S
C908 H900 0.950 . S
C908 C909 1.386 . S
C908 C910 1.391 . S
C909 C908 1.386 . S
C909 C913 1.393 . S
C910 H902 0.950 . S
C910 C908 1.391 . S
C910 C911 1.400 . S
C911 C910 1.400 . S
C911 C912 1.398 . S
C911 C917 1.491 . S
C912 H903 0.950 . S
C912 C911 1.398 . S
C912 C913 1.391 . S
C913 H901 0.950 . S
C913 C909 1.393 . S
C913 C912 1.391 . S
C914 H904 0.950 . S
C914 C915 1.386 . S
C914 C916 1.391 . S
C915 C914 1.386 . S
C915 C919 1.393 . S
C916 H905 0.950 . S
C916 C914 1.391 . S
C916 C917 1.400 . S
C917 C911 1.491 . S
C917 C916 1.400 . S
C917 C918 1.398 . S
C918 H906 0.950 . S
C918 C917 1.398 . S
C918 C919 1.391 . S
C919 H907 0.950 . S
C919 C915 1.393 . S
C919 C918 1.391 . S
H920 C928 0.950 . S
H921 C933 0.950 . S
H922 C930 0.950 . S
H923 C932 0.950 . S
H924 C934 0.950 . S
H925 C936 0.950 . S
H926 C938 0.950 . S
H927 C939 0.950 . S
C928 H920 0.950 . S
C928 C929 1.386 . S
C928 C930 1.391 . S
C929 C928 1.386 . S
C929 C933 1.393 . S
C930 H922 0.950 . S
C930 C928 1.391 . S
C930 C931 1.400 . S
C931 C930 1.400 . S
C931 C932 1.398 . S
C931 C937 1.491 . S
C932 H923 0.950 . S
C932 C931 1.398 . S
C932 C933 1.391 . S
C933 H921 0.950 . S
C933 C929 1.393 . S
C933 C932 1.391 . S
C934 H924 0.950 . S
C934 C935 1.386 . S
C934 C936 1.391 . S
C935 C934 1.386 . S
C935 C939 1.393 . S
C936 H925 0.950 . S
C936 C934 1.391 . S
C936 C937 1.400 . S
C937 C931 1.491 . S
C937 C936 1.400 . S
C937 C938 1.398 . S
C938 H926 0.950 . S
C938 C937 1.398 . S
C938 C939 1.391 . S
C939 H927 0.950 . S
C939 C935 1.393 . S
C939 C938 1.391 . S
H940 C948 0.950 . S
H941 C953 0.950 . S
H942 C950 0.950 . S
H943 C952 0.950 . S
H944 C954 0.950 . S
H945 C956 0.950 . S
H946 C958 0.950 . S
H947 C959 0.950 . S
C948 H940 0.950 . S
C948 C949 1.386 . S
C948 C950 1.391 . S
C949 C948 1.386 . S
C949 C953 1.393 . S
C950 H942 0.950 . S
C950 C948 1.391 . S
C950 C951 1.400 . S
C951 C950 1.400 . S
C951 C952 1.398 . S
C951 C957 1.491 . S
C952 H943 0.950 . S
C952 C951 1.398 . S
C952 C953 1.391 . S
C953 H941 0.950 . S
C953 C949 1.393 . S
C953 C952 1.391 . S
C954 H944 0.950 . S
C954 C955 1.386 . S
C954 C956 1.391 . S
C955 C954 1.386 . S
C955 C959 1.393 . S
C956 H945 0.950 . S
C956 C954 1.391 . S
C956 C957 1.400 . S
C957 C951 1.491 . S
C957 C956 1.400 . S
C957 C958 1.398 . S
C958 H946 0.950 . S
C958 C957 1.398 . S
C958 C959 1.391 . S
C959 H947 0.950 . S
C959 C955 1.393 . S
C959 C958 1.391 . S
H960 C968 0.950 . S
H961 C973 0.950 . S
H962 C970 0.950 . S
H963 C972 0.950 . S
H964 C974 0.950 . S
H965 C976 0.950 . S
H966 C978 0.950 . S
H967 C979 0.950 . S
C968 H960 0.950 . S
C968 C969 1.386 . S
C968 C970 1.391 . S
C969 C968 1.386 . S
C969 C973 1.393 . S
C970 H962 0.950 . S
C970 C968 1.391 . S
C970 C971 1.400 . S
C971 C970 1.400 . S
C971 C972 1.398 . S
C971 C977 1.491 . S
C972 H963 0.950 . S
C972 C971 1.398 . S
C972 C973 1.391 . S
C973 H961 0.950 . S
C973 C969 1.393 . S
C973 C972 1.391 . S
C974 H964 0.950 . S
C974 C975 1.386 . S
C974 C976 1.391 . S
C975 C974 1.386 . S
C975 C979 1.393 . S
C976 H965 0.950 . S
C976 C974 1.391 . S
C976 C977 1.400 . S
C977 C971 1.491 . S
C977 C976 1.400 . S
C977 C978 1.398 . S
C978 H966 0.950 . S
C978 C977 1.398 . S
C978 C979 1.391 . S
C979 H967 0.950 . S
C979 C975 1.393 . S
C979 C978 1.391 . S
H980 C988 0.950 . S
H981 C993 0.950 . S
H982 C990 0.950 1_545 S
H983 C992 0.950 . S
H984 C994 0.950 . S
H985 C996 0.950 . S
H986 C998 0.950 . S
H987 C999 0.950 . S
C988 H980 0.950 . S
C988 C989 1.386 1_545 S
C988 C990 1.391 1_545 S
C989 C988 1.386 1_565 S
C989 C993 1.393 . S
C990 H982 0.950 1_565 S
C990 C988 1.391 1_565 S
C990 C991 1.400 . S
C991 C990 1.400 . S
C991 C992 1.398 . S
C991 C997 1.491 . S
C992 H983 0.950 . S
C992 C991 1.398 . S
C992 C993 1.391 . S
C993 H981 0.950 . S
C993 C989 1.393 . S
C993 C992 1.391 . S
C994 H984 0.950 . S
C994 C995 1.386 . S
C994 C996 1.391 . S
C995 C994 1.386 . S
C995 C999 1.393 . S
C996 H985 0.950 . S
C996 C994 1.391 . S
C996 C997 1.400 . S
C997 C991 1.491 . S
C997 C996 1.400 . S
C997 C998 1.398 . S
C998 H986 0.950 . S
C998 C997 1.398 . S
C998 C999 1.391 . S
C999 H987 0.950 . S
C999 C995 1.393 . S
C999 C998 1.391 . S
H1000 C1008 0.942 1_554 S
H1001 C1013 0.950 . S
H1002 C1010 0.950 . S
H1003 C1012 0.950 . S
H1004 C1014 0.950 . S
H1005 C1016 0.950 . S
H1006 C1018 0.950 . S
H1007 C1019 0.950 . S
C1008 H1000 0.942 1_556 S
C1008 C1009 1.381 1_556 S
C1008 C1010 1.403 . S
C1009 C1008 1.381 1_554 S
C1009 C1013 1.393 1_554 S
C1010 H1002 0.950 . S
C1010 C1008 1.403 . S
C1010 C1011 1.400 . S
C1011 C1010 1.400 . S
C1011 C1012 1.398 . S
C1011 C1017 1.491 . S
C1012 H1003 0.950 . S
C1012 C1011 1.398 . S
C1012 C1013 1.391 . S
C1013 H1001 0.950 . S
C1013 C1009 1.393 1_556 S
C1013 C1012 1.391 . S
C1014 H1004 0.950 . S
C1014 C1015 1.386 . S
C1014 C1016 1.391 . S
C1015 C1014 1.386 . S
C1015 C1019 1.393 . S
C1016 H1005 0.950 . S
C1016 C1014 1.391 . S
C1016 C1017 1.400 . S
C1017 C1011 1.491 . S
C1017 C1016 1.400 . S
C1017 C1018 1.398 . S
C1018 H1006 0.950 . S
C1018 C1017 1.398 . S
C1018 C1019 1.391 . S
C1019 H1007 0.950 . S
C1019 C1015 1.393 . S
C1019 C1018 1.391 . S
H1020 C1028 0.950 . S
H1021 C1033 0.950 . S
H1022 C1030 0.950 . S
H1023 C1032 0.950 . S
H1024 C1034 0.975 . S
H1025 C1036 0.950 1_565 S
H1026 C1038 0.950 . S
H1027 C1039 0.950 . S
C1028 H1020 0.950 . S
C1028 C1029 1.386 . S
C1028 C1030 1.391 . S
C1029 C1028 1.386 . S
C1029 C1033 1.393 . S
C1030 H1022 0.950 . S
C1030 C1028 1.391 . S
C1030 C1031 1.400 . S
C1031 C1030 1.400 . S
C1031 C1032 1.398 . S
C1031 C1037 1.491 . S
C1032 H1023 0.950 . S
C1032 C1031 1.398 . S
C1032 C1033 1.391 . S
C1033 H1021 0.950 . S
C1033 C1029 1.393 . S
C1033 C1032 1.391 . S
C1034 H1024 0.975 . S
C1034 C1035 1.367 1_565 S
C1034 C1036 1.385 1_565 S
C1035 C1034 1.367 1_545 S
C1035 C1039 1.393 . S
C1036 H1025 0.950 1_545 S
C1036 C1034 1.385 1_545 S
C1036 C1037 1.400 . S
C1037 C1031 1.491 . S
C1037 C1036 1.400 . S
C1037 C1038 1.398 . S
C1038 H1026 0.950 . S
C1038 C1037 1.398 . S
C1038 C1039 1.391 . S
C1039 H1027 0.950 . S
C1039 C1035 1.393 . S
C1039 C1038 1.391 . S
H1040 C1048 0.950 . S
H1041 C1053 0.950 . S
H1042 C1050 0.950 . S
H1043 C1052 0.950 . S
H1044 C1054 0.950 . S
H1045 C1056 0.950 . S
H1046 C1058 0.950 . S
H1047 C1059 0.950 . S
C1048 H1040 0.950 . S
C1048 C1049 1.386 . S
C1048 C1050 1.391 . S
C1049 C1048 1.386 . S
C1049 C1053 1.393 . S
C1050 H1042 0.950 . S
C1050 C1048 1.391 . S
C1050 C1051 1.400 . S
C1051 C1050 1.400 . S
C1051 C1052 1.398 . S
C1051 C1057 1.491 . S
C1052 H1043 0.950 . S
C1052 C1051 1.398 . S
C1052 C1053 1.391 . S
C1053 H1041 0.950 . S
C1053 C1049 1.393 . S
C1053 C1052 1.391 . S
C1054 H1044 0.950 . S
C1054 C1055 1.386 . S
C1054 C1056 1.391 . S
C1055 C1054 1.386 . S
C1055 C1059 1.393 . S
C1056 H1045 0.950 . S
C1056 C1054 1.391 . S
C1056 C1057 1.400 . S
C1057 C1051 1.491 . S
C1057 C1056 1.400 . S
C1057 C1058 1.398 . S
C1058 H1046 0.950 . S
C1058 C1057 1.398 . S
C1058 C1059 1.391 . S
C1059 H1047 0.950 . S
C1059 C1055 1.393 . S
C1059 C1058 1.391 . S
H1060 C1068 0.950 1_565 S
H1061 C1073 0.950 . S
H1062 C1070 0.950 . S
H1063 C1072 0.950 . S
H1064 C1074 0.950 . S
H1065 C1076 0.950 . S
H1066 C1078 0.950 . S
H1067 C1079 0.950 . S
C1068 H1060 0.950 1_545 S
C1068 C1069 1.386 . S
C1068 C1070 1.391 . S
C1069 C1068 1.386 . S
C1069 C1073 1.393 . S
C1070 H1062 0.950 . S
C1070 C1068 1.391 . S
C1070 C1071 1.400 . S
C1071 C1070 1.400 . S
C1071 C1072 1.398 . S
C1071 C1077 1.491 . S
C1072 H1063 0.950 . S
C1072 C1071 1.398 . S
C1072 C1073 1.391 . S
C1073 H1061 0.950 . S
C1073 C1069 1.393 . S
C1073 C1072 1.391 . S
C1074 H1064 0.950 . S
C1074 C1075 1.386 . S
C1074 C1076 1.391 . S
C1075 C1074 1.386 . S
C1075 C1079 1.393 . S
C1076 H1065 0.950 . S
C1076 C1074 1.391 . S
C1076 C1077 1.400 . S
C1077 C1071 1.491 . S
C1077 C1076 1.400 . S
C1077 C1078 1.398 . S
C1078 H1066 0.950 . S
C1078 C1077 1.398 . S
C1078 C1079 1.391 . S
C1079 H1067 0.950 . S
C1079 C1075 1.393 . S
C1079 C1078 1.391 . S
H1080 C1088 0.950 . S
H1081 C1093 0.950 . S
H1082 C1090 0.950 . S
H1083 C1092 0.950 . S
H1084 C1094 0.950 . S
H1085 C1096 0.950 . S
H1086 C1098 0.950 . S
H1087 C1099 0.996 . S
C1088 H1080 0.950 . S
C1088 C1089 1.386 . S
C1088 C1090 1.391 . S
C1089 C1088 1.386 . S
C1089 C1093 1.393 . S
C1090 H1082 0.950 . S
C1090 C1088 1.391 . S
C1090 C1091 1.400 . S
C1091 C1090 1.400 . S
C1091 C1092 1.398 . S
C1091 C1097 1.491 . S
C1092 H1083 0.950 . S
C1092 C1091 1.398 . S
C1092 C1093 1.391 . S
C1093 H1081 0.950 . S
C1093 C1089 1.393 . S
C1093 C1092 1.391 . S
C1094 H1084 0.950 . S
C1094 C1095 1.386 1_554 S
C1094 C1096 1.391 . S
C1095 C1094 1.386 1_556 S
C1095 C1099 1.413 . S
C1096 H1085 0.950 . S
C1096 C1094 1.391 . S
C1096 C1097 1.400 . S
C1097 C1091 1.491 . S
C1097 C1096 1.400 . S
C1097 C1098 1.398 . S
C1098 H1086 0.950 . S
C1098 C1097 1.398 . S
C1098 C1099 1.327 1_554 S
C1099 H1087 0.996 . S
C1099 C1095 1.413 . S
C1099 C1098 1.327 1_556 S
H1100 C1108 0.950 . S
H1101 C1113 0.939 1_545 S
H1102 C1110 0.950 . S
H1103 C1112 0.950 . S
H1104 C1114 0.950 . S
H1105 C1116 0.950 . S
H1106 C1118 0.950 . S
H1107 C1119 0.950 . S
C1108 H1100 0.950 . S
C1108 C1109 1.386 . S
C1108 C1110 1.391 . S
C1109 C1108 1.386 . S
C1109 C1113 1.393 . S
C1110 H1102 0.950 . S
C1110 C1108 1.391 . S
C1110 C1111 1.400 . S
C1111 C1110 1.400 . S
C1111 C1112 1.398 . S
C1111 C1117 1.491 . S
C1112 H1103 0.950 . S
C1112 C1111 1.398 . S
C1112 C1113 1.391 . S
C1113 H1101 0.939 1_565 S
C1113 C1109 1.393 . S
C1113 C1112 1.391 . S
C1114 H1104 0.950 . S
C1114 C1115 1.386 . S
C1114 C1116 1.391 . S
C1115 C1114 1.386 . S
C1115 C1119 1.393 . S
C1116 H1105 0.950 . S
C1116 C1114 1.391 . S
C1116 C1117 1.400 . S
C1117 C1111 1.491 . S
C1117 C1116 1.400 . S
C1117 C1118 1.398 . S
C1118 H1106 0.950 . S
C1118 C1117 1.398 . S
C1118 C1119 1.391 . S
C1119 H1107 0.950 . S
C1119 C1115 1.393 . S
C1119 C1118 1.391 . S
H1120 C1128 0.950 . S
H1121 C1133 0.950 . S
H1122 C1130 0.950 . S
H1123 C1132 0.950 . S
H1124 C1134 0.950 . S
H1125 C1136 0.950 . S
H1126 C1138 0.950 . S
H1127 C1139 0.950 . S
C1128 H1120 0.950 . S
C1128 C1129 1.386 . S
C1128 C1130 1.391 . S
C1129 C1128 1.386 . S
C1129 C1133 1.393 . S
C1130 H1122 0.950 . S
C1130 C1128 1.391 . S
C1130 C1131 1.400 . S
C1131 C1130 1.400 . S
C1131 C1132 1.398 . S
C1131 C1137 1.491 . S
C1132 H1123 0.950 . S
C1132 C1131 1.398 . S
C1132 C1133 1.391 . S
C1133 H1121 0.950 . S
C1133 C1129 1.393 . S
C1133 C1132 1.391 . S
C1134 H1124 0.950 . S
C1134 C1135 1.386 . S
C1134 C1136 1.391 . S
C1135 C1134 1.386 . S
C1135 C1139 1.393 . S
C1136 H1125 0.950 . S
C1136 C1134 1.391 . S
C1136 C1137 1.400 . S
C1137 C1131 1.491 . S
C1137 C1136 1.400 . S
C1137 C1138 1.398 . S
C1138 H1126 0.950 . S
C1138 C1137 1.398 . S
C1138 C1139 1.391 . S
C1139 H1127 0.950 . S
C1139 C1135 1.393 . S
C1139 C1138 1.391 . S
H1140 C1148 0.950 . S
H1141 C1153 0.950 . S
H1142 C1150 0.950 . S
H1143 C1152 0.950 . S
H1144 C1154 0.950 . S
H1145 C1156 0.950 . S
H1146 C1158 0.950 . S
H1147 C1159 0.950 . S
C1148 H1140 0.950 . S
C1148 C1149 1.386 . S
C1148 C1150 1.391 . S
C1149 C1148 1.386 . S
C1149 C1153 1.393 . S
C1150 H1142 0.950 . S
C1150 C1148 1.391 . S
C1150 C1151 1.400 . S
C1151 C1150 1.400 . S
C1151 C1152 1.398 . S
C1151 C1157 1.491 . S
C1152 H1143 0.950 . S
C1152 C1151 1.398 . S
C1152 C1153 1.391 . S
C1153 H1141 0.950 . S
C1153 C1149 1.393 . S
C1153 C1152 1.391 . S
C1154 H1144 0.950 . S
C1154 C1155 1.386 . S
C1154 C1156 1.391 . S
C1155 C1154 1.386 . S
C1155 C1159 1.393 . S
C1156 H1145 0.950 . S
C1156 C1154 1.391 . S
C1156 C1157 1.400 . S
C1157 C1151 1.491 . S
C1157 C1156 1.400 . S
C1157 C1158 1.398 . S
C1158 H1146 0.950 . S
C1158 C1157 1.398 . S
C1158 C1159 1.391 . S
C1159 H1147 0.950 . S
C1159 C1155 1.393 . S
C1159 C1158 1.391 . S
H1160 C1168 0.950 . S
H1161 C1173 0.950 . S
H1162 C1170 0.950 . S
H1163 C1172 0.950 . S
H1164 C1174 0.950 . S
H1165 C1176 0.950 . S
H1166 C1178 0.950 . S
H1167 C1179 0.950 . S
C1168 H1160 0.950 . S
C1168 C1169 1.386 . S
C1168 C1170 1.391 . S
C1169 C1168 1.386 . S
C1169 C1173 1.393 . S
C1170 H1162 0.950 . S
C1170 C1168 1.391 . S
C1170 C1171 1.400 . S
C1171 C1170 1.400 . S
C1171 C1172 1.398 . S
C1171 C1177 1.491 1_655 S
C1172 H1163 0.950 . S
C1172 C1171 1.398 . S
C1172 C1173 1.391 . S
C1173 H1161 0.950 . S
C1173 C1169 1.393 . S
C1173 C1172 1.391 . S
C1174 H1164 0.950 . S
C1174 C1175 1.386 . S
C1174 C1176 1.391 . S
C1175 C1174 1.386 . S
C1175 C1179 1.393 . S
C1176 H1165 0.950 . S
C1176 C1174 1.391 . S
C1176 C1177 1.400 . S
C1177 C1171 1.491 1_455 S
C1177 C1176 1.400 . S
C1177 C1178 1.398 . S
C1178 H1166 0.950 . S
C1178 C1177 1.398 . S
C1178 C1179 1.391 . S
C1179 H1167 0.950 . S
C1179 C1175 1.393 . S
C1179 C1178 1.391 . S
H1180 C1188 0.950 . S
H1181 C1193 0.950 . S
H1182 C1190 0.944 1_455 S
H1183 C1192 0.950 . S
H1184 C1194 0.950 . S
H1185 C1196 0.944 1_655 S
H1186 C1198 0.950 . S
H1187 C1199 0.950 . S
C1188 H1180 0.950 . S
C1188 C1189 1.386 . S
C1188 C1190 1.391 . S
C1189 C1188 1.386 . S
C1189 C1193 1.393 . S
C1190 H1182 0.944 1_655 S
C1190 C1188 1.391 . S
C1190 C1191 1.400 . S
C1191 C1190 1.400 . S
C1191 C1192 1.398 . S
C1191 C1197 1.491 1_655 S
C1192 H1183 0.950 . S
C1192 C1191 1.398 . S
C1192 C1193 1.391 . S
C1193 H1181 0.950 . S
C1193 C1189 1.393 . S
C1193 C1192 1.391 . S
C1194 H1184 0.950 . S
C1194 C1195 1.386 . S
C1194 C1196 1.391 . S
C1195 C1194 1.386 . S
C1195 C1199 1.393 . S
C1196 H1185 0.944 1_455 S
C1196 C1194 1.391 . S
C1196 C1197 1.400 . S
C1197 C1191 1.491 1_455 S
C1197 C1196 1.400 . S
C1197 C1198 1.398 . S
C1198 H1186 0.950 . S
C1198 C1197 1.398 . S
C1198 C1199 1.391 . S
C1199 H1187 0.950 . S
C1199 C1195 1.393 . S
C1199 C1198 1.391 . S
H1200 C1208 0.950 . S
H1201 C1213 0.950 . S
H1202 C1210 0.950 . S
H1203 C1212 0.950 . S
H1204 C1214 0.950 . S
H1205 C1216 0.950 . S
H1206 C1218 0.950 . S
H1207 C1219 0.950 . S
C1208 H1200 0.950 . S
C1208 C1209 1.386 . S
C1208 C1210 1.391 . S
C1209 C1208 1.386 . S
C1209 C1213 1.393 . S
C1210 H1202 0.950 . S
C1210 C1208 1.391 . S
C1210 C1211 1.400 . S
C1211 C1210 1.400 . S
C1211 C1212 1.398 . S
C1211 C1217 1.491 . S
C1212 H1203 0.950 . S
C1212 C1211 1.398 . S
C1212 C1213 1.391 . S
C1213 H1201 0.950 . S
C1213 C1209 1.393 . S
C1213 C1212 1.391 . S
C1214 H1204 0.950 . S
C1214 C1215 1.386 . S
C1214 C1216 1.391 . S
C1215 C1214 1.386 . S
C1215 C1219 1.393 . S
C1216 H1205 0.950 . S
C1216 C1214 1.391 . S
C1216 C1217 1.400 . S
C1217 C1211 1.491 . S
C1217 C1216 1.400 . S
C1217 C1218 1.398 . S
C1218 H1206 0.950 . S
C1218 C1217 1.398 . S
C1218 C1219 1.391 . S
C1219 H1207 0.950 . S
C1219 C1215 1.393 . S
C1219 C1218 1.391 . S
H1220 C1228 0.950 . S
H1221 C1233 0.950 . S
H1222 C1230 0.950 . S
H1223 C1232 0.950 . S
H1224 C1234 0.950 . S
H1225 C1236 0.950 . S
H1226 C1238 0.950 . S
H1227 C1239 0.950 . S
C1228 H1220 0.950 . S
C1228 C1229 1.386 . S
C1228 C1230 1.391 . S
C1229 C1228 1.386 . S
C1229 C1233 1.393 . S
C1230 H1222 0.950 . S
C1230 C1228 1.391 . S
C1230 C1231 1.400 . S
C1231 C1230 1.400 . S
C1231 C1232 1.398 . S
C1231 C1237 1.491 . S
C1232 H1223 0.950 . S
C1232 C1231 1.398 . S
C1232 C1233 1.391 . S
C1233 H1221 0.950 . S
C1233 C1229 1.393 . S
C1233 C1232 1.391 . S
C1234 H1224 0.950 . S
C1234 C1235 1.386 . S
C1234 C1236 1.391 . S
C1235 C1234 1.386 . S
C1235 C1239 1.393 . S
C1236 H1225 0.950 . S
C1236 C1234 1.391 . S
C1236 C1237 1.400 . S
C1237 C1231 1.491 . S
C1237 C1236 1.400 . S
C1237 C1238 1.398 . S
C1238 H1226 0.950 . S
C1238 C1237 1.398 . S
C1238 C1239 1.391 . S
C1239 H1227 0.950 . S
C1239 C1235 1.393 . S
C1239 C1238 1.391 . S
H1240 C1248 0.950 . S
H1241 C1253 0.950 . S
H1242 C1250 0.950 . S
H1243 C1252 0.950 . S
H1244 C1254 0.950 . S
H1245 C1256 0.950 . S
H1246 C1258 0.950 . S
H1247 C1259 0.950 . S
C1248 H1240 0.950 . S
C1248 C1249 1.386 . S
C1248 C1250 1.391 . S
C1249 C1248 1.386 . S
C1249 C1253 1.393 . S
C1250 H1242 0.950 . S
C1250 C1248 1.391 . S
C1250 C1251 1.400 . S
C1251 C1250 1.400 . S
C1251 C1252 1.398 . S
C1251 C1257 1.491 1_455 S
C1252 H1243 0.950 . S
C1252 C1251 1.398 . S
C1252 C1253 1.391 . S
C1253 H1241 0.950 . S
C1253 C1249 1.393 . S
C1253 C1252 1.391 . S
C1254 H1244 0.950 . S
C1254 C1255 1.386 . S
C1254 C1256 1.391 . S
C1255 C1254 1.386 . S
C1255 C1259 1.393 . S
C1256 H1245 0.950 . S
C1256 C1254 1.391 . S
C1256 C1257 1.400 . S
C1257 C1251 1.491 1_655 S
C1257 C1256 1.400 . S
C1257 C1258 1.398 . S
C1258 H1246 0.950 . S
C1258 C1257 1.398 . S
C1258 C1259 1.391 . S
C1259 H1247 0.950 . S
C1259 C1255 1.393 . S
C1259 C1258 1.391 . S
H1260 C1268 0.950 . S
H1261 C1273 0.950 . S
H1262 C1270 0.950 1_655 S
H1263 C1272 0.950 . S
H1264 C1274 0.950 . S
H1265 C1276 0.950 1_455 S
H1266 C1278 0.950 . S
H1267 C1279 0.950 . S
C1268 H1260 0.950 . S
C1268 C1269 1.386 . S
C1268 C1270 1.391 . S
C1269 C1268 1.386 . S
C1269 C1273 1.393 . S
C1270 H1262 0.950 1_455 S
C1270 C1268 1.391 . S
C1270 C1271 1.400 . S
C1271 C1270 1.400 . S
C1271 C1272 1.398 . S
C1271 C1277 1.491 1_455 S
C1272 H1263 0.950 . S
C1272 C1271 1.398 . S
C1272 C1273 1.391 . S
C1273 H1261 0.950 . S
C1273 C1269 1.393 . S
C1273 C1272 1.391 . S
C1274 H1264 0.950 . S
C1274 C1275 1.386 . S
C1274 C1276 1.391 . S
C1275 C1274 1.386 . S
C1275 C1279 1.393 . S
C1276 H1265 0.950 1_655 S
C1276 C1274 1.391 . S
C1276 C1277 1.400 . S
C1277 C1271 1.491 1_655 S
C1277 C1276 1.400 . S
C1277 C1278 1.398 . S
C1278 H1266 0.950 . S
C1278 C1277 1.398 . S
C1278 C1279 1.391 . S
C1279 H1267 0.950 . S
C1279 C1275 1.393 . S
C1279 C1278 1.391 . S
H1280 C1288 0.950 . S
H1281 C1293 0.950 . S
H1282 C1290 0.950 . S
H1283 C1292 0.950 . S
H1284 C1294 0.950 . S
H1285 C1296 0.950 . S
H1286 C1298 0.950 . S
H1287 C1299 0.950 . S
C1288 H1280 0.950 . S
C1288 C1289 1.386 . S
C1288 C1290 1.391 . S
C1289 C1288 1.386 . S
C1289 C1293 1.393 . S
C1290 H1282 0.950 . S
C1290 C1288 1.391 . S
C1290 C1291 1.400 . S
C1291 C1290 1.400 . S
C1291 C1292 1.398 . S
C1291 C1297 1.491 . S
C1292 H1283 0.950 . S
C1292 C1291 1.398 . S
C1292 C1293 1.391 . S
C1293 H1281 0.950 . S
C1293 C1289 1.393 . S
C1293 C1292 1.391 . S
C1294 H1284 0.950 . S
C1294 C1295 1.386 . S
C1294 C1296 1.391 . S
C1295 C1294 1.386 . S
C1295 C1299 1.393 . S
C1296 H1285 0.950 . S
C1296 C1294 1.391 . S
C1296 C1297 1.400 . S
C1297 C1291 1.491 . S
C1297 C1296 1.400 . S
C1297 C1298 1.398 . S
C1298 H1286 0.950 . S
C1298 C1297 1.398 . S
C1298 C1299 1.391 . S
C1299 H1287 0.950 . S
C1299 C1295 1.393 . S
C1299 C1298 1.391 . S
H1300 C1308 0.950 . S
H1301 C1313 0.950 . S
H1302 C1310 0.950 . S
H1303 C1312 0.950 . S
H1304 C1314 0.950 . S
H1305 C1316 0.950 . S
H1306 C1318 0.950 . S
H1307 C1319 0.950 . S
C1308 H1300 0.950 . S
C1308 C1309 1.386 . S
C1308 C1310 1.391 . S
C1309 C1308 1.386 . S
C1309 C1313 1.393 . S
C1310 H1302 0.950 . S
C1310 C1308 1.391 . S
C1310 C1311 1.400 . S
C1311 C1310 1.400 . S
C1311 C1312 1.398 . S
C1311 C1317 1.491 . S
C1312 H1303 0.950 . S
C1312 C1311 1.398 . S
C1312 C1313 1.391 . S
C1313 H1301 0.950 . S
C1313 C1309 1.393 . S
C1313 C1312 1.391 . S
C1314 H1304 0.950 . S
C1314 C1315 1.386 . S
C1314 C1316 1.391 . S
C1315 C1314 1.386 . S
C1315 C1319 1.393 . S
C1316 H1305 0.950 . S
C1316 C1314 1.391 . S
C1316 C1317 1.400 . S
C1317 C1311 1.491 . S
C1317 C1316 1.400 . S
C1317 C1318 1.398 . S
C1318 H1306 0.950 . S
C1318 C1317 1.398 . S
C1318 C1319 1.391 . S
C1319 H1307 0.950 . S
C1319 C1315 1.393 . S
C1319 C1318 1.391 . S
H1320 C1328 0.950 . S
H1321 C1333 0.950 . S
H1322 C1330 0.950 . S
H1323 C1332 0.950 . S
H1324 C1334 0.950 . S
H1325 C1336 0.950 . S
H1326 C1338 0.950 . S
H1327 C1339 0.950 . S
C1328 H1320 0.950 . S
C1328 C1329 1.386 . S
C1328 C1330 1.391 . S
C1329 C1328 1.386 . S
C1329 C1333 1.393 . S
C1330 H1322 0.950 . S
C1330 C1328 1.391 . S
C1330 C1331 1.400 . S
C1331 C1330 1.400 . S
C1331 C1332 1.398 . S
C1331 C1337 1.491 . S
C1332 H1323 0.950 . S
C1332 C1331 1.398 . S
C1332 C1333 1.391 . S
C1333 H1321 0.950 . S
C1333 C1329 1.393 . S
C1333 C1332 1.391 . S
C1334 H1324 0.950 . S
C1334 C1335 1.386 . S
C1334 C1336 1.391 . S
C1335 C1334 1.386 . S
C1335 C1339 1.393 . S
C1336 H1325 0.950 . S
C1336 C1334 1.391 . S
C1336 C1337 1.400 . S
C1337 C1331 1.491 . S
C1337 C1336 1.400 . S
C1337 C1338 1.398 . S
C1338 H1326 0.950 . S
C1338 C1337 1.398 . S
C1338 C1339 1.391 . S
C1339 H1327 0.950 . S
C1339 C1335 1.393 . S
C1339 C1338 1.391 . S
H1340 C1348 0.950 . S
H1341 C1353 0.950 1_655 S
H1342 C1350 0.950 . S
H1343 C1352 0.950 . S
H1344 C1354 0.950 . S
H1345 C1356 0.950 . S
H1346 C1358 0.950 . S
H1347 C1359 0.950 . S
C1348 H1340 0.950 . S
C1348 C1349 1.386 1_455 S
C1348 C1350 1.391 . S
C1349 C1348 1.386 1_655 S
C1349 C1353 1.393 1_655 S
C1350 H1342 0.950 . S
C1350 C1348 1.391 . S
C1350 C1351 1.400 . S
C1351 C1350 1.400 . S
C1351 C1352 1.398 . S
C1351 C1357 1.491 . S
C1352 H1343 0.950 . S
C1352 C1351 1.398 . S
C1352 C1353 1.391 . S
C1353 H1341 0.950 1_455 S
C1353 C1349 1.393 1_455 S
C1353 C1352 1.391 . S
C1354 H1344 0.950 . S
C1354 C1355 1.386 . S
C1354 C1356 1.391 . S
C1355 C1354 1.386 . S
C1355 C1359 1.393 . S
C1356 H1345 0.950 . S
C1356 C1354 1.391 . S
C1356 C1357 1.400 . S
C1357 C1351 1.491 . S
C1357 C1356 1.400 . S
C1357 C1358 1.398 . S
C1358 H1346 0.950 . S
C1358 C1357 1.398 . S
C1358 C1359 1.391 . S
C1359 H1347 0.950 . S
C1359 C1355 1.393 . S
C1359 C1358 1.391 . S
H1360 C1368 0.950 . S
H1361 C1373 0.950 . S
H1362 C1370 0.950 . S
H1363 C1372 0.950 . S
H1364 C1374 0.950 . S
H1365 C1376 0.950 . S
H1366 C1378 0.950 . S
H1367 C1379 0.950 . S
C1368 H1360 0.950 . S
C1368 C1369 1.386 . S
C1368 C1370 1.391 . S
C1369 C1368 1.386 . S
C1369 C1373 1.393 . S
C1370 H1362 0.950 . S
C1370 C1368 1.391 . S
C1370 C1371 1.400 . S
C1371 C1370 1.400 . S
C1371 C1372 1.398 . S
C1371 C1377 1.491 . S
C1372 H1363 0.950 . S
C1372 C1371 1.398 . S
C1372 C1373 1.391 . S
C1373 H1361 0.950 . S
C1373 C1369 1.393 . S
C1373 C1372 1.391 . S
C1374 H1364 0.950 . S
C1374 C1375 1.386 . S
C1374 C1376 1.391 . S
C1375 C1374 1.386 . S
C1375 C1379 1.393 . S
C1376 H1365 0.950 . S
C1376 C1374 1.391 . S
C1376 C1377 1.400 . S
C1377 C1371 1.491 . S
C1377 C1376 1.400 . S
C1377 C1378 1.398 . S
C1378 H1366 0.950 . S
C1378 C1377 1.398 . S
C1378 C1379 1.391 . S
C1379 H1367 0.950 . S
C1379 C1375 1.393 . S
C1379 C1378 1.391 . S
H1380 C1388 0.950 . S
H1381 C1393 0.950 . S
H1382 C1390 0.950 . S
H1383 C1392 0.950 . S
H1384 C1394 0.950 . S
H1385 C1396 0.950 . S
H1386 C1398 0.950 . S
H1387 C1399 0.950 . S
C1388 H1380 0.950 . S
C1388 C1389 1.386 . S
C1388 C1390 1.391 . S
C1389 C1388 1.386 . S
C1389 C1393 1.393 . S
C1390 H1382 0.950 . S
C1390 C1388 1.391 . S
C1390 C1391 1.400 . S
C1391 C1390 1.400 . S
C1391 C1392 1.398 . S
C1391 C1397 1.491 . S
C1392 H1383 0.950 . S
C1392 C1391 1.398 . S
C1392 C1393 1.391 . S
C1393 H1381 0.950 . S
C1393 C1389 1.393 . S
C1393 C1392 1.391 . S
C1394 H1384 0.950 . S
C1394 C1395 1.386 . S
C1394 C1396 1.391 . S
C1395 C1394 1.386 . S
C1395 C1399 1.393 . S
C1396 H1385 0.950 . S
C1396 C1394 1.391 . S
C1396 C1397 1.400 . S
C1397 C1391 1.491 . S
C1397 C1396 1.400 . S
C1397 C1398 1.398 . S
C1398 H1386 0.950 . S
C1398 C1397 1.398 . S
C1398 C1399 1.391 . S
C1399 H1387 0.950 . S
C1399 C1395 1.393 . S
C1399 C1398 1.391 . S
H1400 C1408 0.950 . S
H1401 C1413 0.950 . S
H1402 C1410 0.950 . S
H1403 C1412 0.950 . S
H1404 C1414 0.950 . S
H1405 C1416 0.950 . S
H1406 C1418 0.950 . S
H1407 C1419 0.950 . S
C1408 H1400 0.950 . S
C1408 C1409 1.386 . S
C1408 C1410 1.391 . S
C1409 C1408 1.386 . S
C1409 C1413 1.393 . S
C1410 H1402 0.950 . S
C1410 C1408 1.391 . S
C1410 C1411 1.400 . S
C1411 C1410 1.400 . S
C1411 C1412 1.398 . S
C1411 C1417 1.491 . S
C1412 H1403 0.950 . S
C1412 C1411 1.398 . S
C1412 C1413 1.391 . S
C1413 H1401 0.950 . S
C1413 C1409 1.393 . S
C1413 C1412 1.391 . S
C1414 H1404 0.950 . S
C1414 C1415 1.386 . S
C1414 C1416 1.391 . S
C1415 C1414 1.386 . S
C1415 C1419 1.393 . S
C1416 H1405 0.950 . S
C1416 C1414 1.391 . S
C1416 C1417 1.400 . S
C1417 C1411 1.491 . S
C1417 C1416 1.400 . S
C1417 C1418 1.398 . S
C1418 H1406 0.950 . S
C1418 C1417 1.398 . S
C1418 C1419 1.391 . S
C1419 H1407 0.950 . S
C1419 C1415 1.393 . S
C1419 C1418 1.391 . S
H1420 C1428 0.950 . S
H1421 C1433 0.950 . S
H1422 C1430 0.950 . S
H1423 C1432 0.950 . S
H1424 C1434 0.950 1_455 S
H1425 C1436 0.950 . S
H1426 C1438 0.950 . S
H1427 C1439 0.950 . S
C1428 H1420 0.950 . S
C1428 C1429 1.386 . S
C1428 C1430 1.391 . S
C1429 C1428 1.386 . S
C1429 C1433 1.393 . S
C1430 H1422 0.950 . S
C1430 C1428 1.391 . S
C1430 C1431 1.400 . S
C1431 C1430 1.400 . S
C1431 C1432 1.398 . S
C1431 C1437 1.491 . S
C1432 H1423 0.950 . S
C1432 C1431 1.398 . S
C1432 C1433 1.391 . S
C1433 H1421 0.950 . S
C1433 C1429 1.393 . S
C1433 C1432 1.391 . S
C1434 H1424 0.950 1_655 S
C1434 C1435 1.386 1_655 S
C1434 C1436 1.391 . S
C1435 C1434 1.386 1_455 S
C1435 C1439 1.393 1_455 S
C1436 H1425 0.950 . S
C1436 C1434 1.391 . S
C1436 C1437 1.400 . S
C1437 C1431 1.491 . S
C1437 C1436 1.400 . S
C1437 C1438 1.398 . S
C1438 H1426 0.950 . S
C1438 C1437 1.398 . S
C1438 C1439 1.391 . S
C1439 H1427 0.950 . S
C1439 C1435 1.393 1_655 S
C1439 C1438 1.391 . S
H1440 C1448 0.950 . S
H1441 C1453 0.950 . S
H1442 C1450 0.950 . S
H1443 C1452 0.950 . S
H1444 C1454 0.950 . S
H1445 C1456 0.950 . S
H1446 C1458 0.950 . S
H1447 C1459 0.950 . S
C1448 H1440 0.950 . S
C1448 C1449 1.386 . S
C1448 C1450 1.391 . S
C1449 C1448 1.386 . S
C1449 C1453 1.393 . S
C1450 H1442 0.950 . S
C1450 C1448 1.391 . S
C1450 C1451 1.400 . S
C1451 C1450 1.400 . S
C1451 C1452 1.398 . S
C1451 C1457 1.491 . S
C1452 H1443 0.950 . S
C1452 C1451 1.398 . S
C1452 C1453 1.391 . S
C1453 H1441 0.950 . S
C1453 C1449 1.393 . S
C1453 C1452 1.391 . S
C1454 H1444 0.950 . S
C1454 C1455 1.386 . S
C1454 C1456 1.391 . S
C1455 C1454 1.386 . S
C1455 C1459 1.393 . S
C1456 H1445 0.950 . S
C1456 C1454 1.391 . S
C1456 C1457 1.400 . S
C1457 C1451 1.491 . S
C1457 C1456 1.400 . S
C1457 C1458 1.398 . S
C1458 H1446 0.950 . S
C1458 C1457 1.398 . S
C1458 C1459 1.391 . S
C1459 H1447 0.950 . S
C1459 C1455 1.393 . S
C1459 C1458 1.391 . S
H1460 C1468 0.950 . S
H1461 C1473 0.950 . S
H1462 C1470 0.950 . S
H1463 C1472 0.950 . S
H1464 C1474 0.950 . S
H1465 C1476 0.950 . S
H1466 C1478 0.968 . S
H1467 C1479 0.950 1_545 S
C1468 H1460 0.950 . S
C1468 C1469 1.386 . S
C1468 C1470 1.391 . S
C1469 C1468 1.386 . S
C1469 C1473 1.393 . S
C1470 H1462 0.950 . S
C1470 C1468 1.391 . S
C1470 C1471 1.400 . S
C1471 C1470 1.400 . S
C1471 C1472 1.398 . S
C1471 C1477 1.491 . S
C1472 H1463 0.950 . S
C1472 C1471 1.398 . S
C1472 C1473 1.391 . S
C1473 H1461 0.950 . S
C1473 C1469 1.393 . S
C1473 C1472 1.391 . S
C1474 H1464 0.950 . S
C1474 C1475 1.386 . S
C1474 C1476 1.391 1_455 S
C1475 C1474 1.386 . S
C1475 C1479 1.393 1_455 S
C1476 H1465 0.950 . S
C1476 C1474 1.391 1_655 S
C1476 C1477 1.400 . S
C1477 C1471 1.491 . S
C1477 C1476 1.400 . S
C1477 C1478 1.398 . S
C1478 H1466 0.968 . S
C1478 C1477 1.398 . S
C1478 C1479 1.391 . S
C1479 H1467 0.950 1_565 S
C1479 C1475 1.393 1_655 S
C1479 C1478 1.391 . S
H1480 C1488 0.950 . S
H1481 C1493 0.950 . S
H1482 C1490 0.950 . S
H1483 C1492 0.950 . S
H1484 C1494 0.950 . S
H1485 C1496 0.950 . S
H1486 C1498 0.950 . S
H1487 C1499 0.950 . S
C1488 H1480 0.950 . S
C1488 C1489 1.386 . S
C1488 C1490 1.391 . S
C1489 C1488 1.386 . S
C1489 C1493 1.393 . S
C1490 H1482 0.950 . S
C1490 C1488 1.391 . S
C1490 C1491 1.400 . S
C1491 C1490 1.400 . S
C1491 C1492 1.398 . S
C1491 C1497 1.491 . S
C1492 H1483 0.950 . S
C1492 C1491 1.398 . S
C1492 C1493 1.391 . S
C1493 H1481 0.950 . S
C1493 C1489 1.393 . S
C1493 C1492 1.391 . S
C1494 H1484 0.950 . S
C1494 C1495 1.386 . S
C1494 C1496 1.391 . S
C1495 C1494 1.386 . S
C1495 C1499 1.393 . S
C1496 H1485 0.950 . S
C1496 C1494 1.391 . S
C1496 C1497 1.400 . S
C1497 C1491 1.491 . S
C1497 C1496 1.400 . S
C1497 C1498 1.398 . S
C1498 H1486 0.950 . S
C1498 C1497 1.398 . S
C1498 C1499 1.391 . S
C1499 H1487 0.950 . S
C1499 C1495 1.393 . S
C1499 C1498 1.391 . S
H1500 C1508 0.950 . S
H1501 C1513 0.950 1_565 S
H1502 C1510 0.950 . S
H1503 C1512 0.950 . S
H1504 C1514 0.950 . S
H1505 C1516 0.950 . S
H1506 C1518 0.950 . S
H1507 C1519 0.950 . S
C1508 H1500 0.950 . S
C1508 C1509 1.386 . S
C1508 C1510 1.391 . S
C1509 C1508 1.386 . S
C1509 C1513 1.393 . S
C1510 H1502 0.950 . S
C1510 C1508 1.391 . S
C1510 C1511 1.400 . S
C1511 C1510 1.400 . S
C1511 C1512 1.398 . S
C1511 C1517 1.491 . S
C1512 H1503 0.950 . S
C1512 C1511 1.398 . S
C1512 C1513 1.391 . S
C1513 H1501 0.950 1_545 S
C1513 C1509 1.393 . S
C1513 C1512 1.391 . S
C1514 H1504 0.950 . S
C1514 C1515 1.386 . S
C1514 C1516 1.391 . S
C1515 C1514 1.386 . S
C1515 C1519 1.393 . S
C1516 H1505 0.950 . S
C1516 C1514 1.391 . S
C1516 C1517 1.400 . S
C1517 C1511 1.491 . S
C1517 C1516 1.400 . S
C1517 C1518 1.398 . S
C1518 H1506 0.950 . S
C1518 C1517 1.398 . S
C1518 C1519 1.391 . S
C1519 H1507 0.950 . S
C1519 C1515 1.393 . S
C1519 C1518 1.391 . S
H1520 C1528 0.950 . S
H1521 C1533 0.950 . S
H1522 C1530 0.950 . S
H1523 C1532 0.950 . S
H1524 C1534 0.950 . S
H1525 C1536 0.950 . S
H1526 C1538 0.950 . S
H1527 C1539 0.950 . S
C1528 H1520 0.950 . S
C1528 C1529 1.386 . S
C1528 C1530 1.391 . S
C1529 C1528 1.386 . S
C1529 C1533 1.393 . S
C1530 H1522 0.950 . S
C1530 C1528 1.391 . S
C1530 C1531 1.400 . S
C1531 C1530 1.400 . S
C1531 C1532 1.398 . S
C1531 C1537 1.491 . S
C1532 H1523 0.950 . S
C1532 C1531 1.398 . S
C1532 C1533 1.391 . S
C1533 H1521 0.950 . S
C1533 C1529 1.393 . S
C1533 C1532 1.391 . S
C1534 H1524 0.950 . S
C1534 C1535 1.386 . S
C1534 C1536 1.391 . S
C1535 C1534 1.386 . S
C1535 C1539 1.393 . S
C1536 H1525 0.950 . S
C1536 C1534 1.391 . S
C1536 C1537 1.400 . S
C1537 C1531 1.491 . S
C1537 C1536 1.400 . S
C1537 C1538 1.398 . S
C1538 H1526 0.950 . S
C1538 C1537 1.398 . S
C1538 C1539 1.391 . S
C1539 H1527 0.950 . S
C1539 C1535 1.393 . S
C1539 C1538 1.391 . S
H1540 C1548 0.950 1_565 S
H1541 C1553 0.950 . S
H1542 C1550 0.950 . S
H1543 C1552 0.950 . S
H1544 C1554 0.950 . S
H1545 C1556 0.950 . S
H1546 C1558 0.950 . S
H1547 C1559 0.950 . S
C1548 H1540 0.950 1_545 S
C1548 C1549 1.386 1_455 S
C1548 C1550 1.391 . S
C1549 C1548 1.386 1_655 S
C1549 C1553 1.393 . S
C1550 H1542 0.950 . S
C1550 C1548 1.391 . S
C1550 C1551 1.400 . S
C1551 C1550 1.400 . S
C1551 C1552 1.398 . S
C1551 C1557 1.491 . S
C1552 H1543 0.950 . S
C1552 C1551 1.398 . S
C1552 C1553 1.391 1_455 S
C1553 H1541 0.950 . S
C1553 C1549 1.393 . S
C1553 C1552 1.391 1_655 S
C1554 H1544 0.950 . S
C1554 C1555 1.386 . S
C1554 C1556 1.391 . S
C1555 C1554 1.386 . S
C1555 C1559 1.393 . S
C1556 H1545 0.950 . S
C1556 C1554 1.391 . S
C1556 C1557 1.400 . S
C1557 C1551 1.491 . S
C1557 C1556 1.400 . S
C1557 C1558 1.398 . S
C1558 H1546 0.950 . S
C1558 C1557 1.398 . S
C1558 C1559 1.391 . S
C1559 H1547 0.950 . S
C1559 C1555 1.393 . S
C1559 C1558 1.391 . S
H1560 C1568 0.950 . S
H1561 C1573 0.950 . S
H1562 C1570 0.950 . S
H1563 C1572 0.950 . S
H1564 C1574 0.950 . S
H1565 C1576 0.950 . S
H1566 C1578 0.950 . S
H1567 C1579 0.950 . S
C1568 H1560 0.950 . S
C1568 C1569 1.386 . S
C1568 C1570 1.391 . S
C1569 C1568 1.386 . S
C1569 C1573 1.393 . S
C1570 H1562 0.950 . S
C1570 C1568 1.391 . S
C1570 C1571 1.400 . S
C1571 C1570 1.400 . S
C1571 C1572 1.398 . S
C1571 C1577 1.491 . S
C1572 H1563 0.950 . S
C1572 C1571 1.398 . S
C1572 C1573 1.391 . S
C1573 H1561 0.950 . S
C1573 C1569 1.393 . S
C1573 C1572 1.391 . S
C1574 H1564 0.950 . S
C1574 C1575 1.386 . S
C1574 C1576 1.391 . S
C1575 C1574 1.386 . S
C1575 C1579 1.393 . S
C1576 H1565 0.950 . S
C1576 C1574 1.391 . S
C1576 C1577 1.400 . S
C1577 C1571 1.491 . S
C1577 C1576 1.400 . S
C1577 C1578 1.398 . S
C1578 H1566 0.950 . S
C1578 C1577 1.398 . S
C1578 C1579 1.391 . S
C1579 H1567 0.950 . S
C1579 C1575 1.393 . S
C1579 C1578 1.391 . S
H1580 C1588 0.950 . S
H1581 C1593 0.950 . S
H1582 C1590 0.950 . S
H1583 C1592 0.950 . S
H1584 C1594 0.950 1_545 S
H1585 C1596 0.950 . S
H1586 C1598 0.950 . S
H1587 C1599 0.950 . S
C1588 H1580 0.950 . S
C1588 C1589 1.386 . S
C1588 C1590 1.391 . S
C1589 C1588 1.386 . S
C1589 C1593 1.393 . S
C1590 H1582 0.950 . S
C1590 C1588 1.391 . S
C1590 C1591 1.400 . S
C1591 C1590 1.400 . S
C1591 C1592 1.398 . S
C1591 C1597 1.491 . S
C1592 H1583 0.950 . S
C1592 C1591 1.398 . S
C1592 C1593 1.391 . S
C1593 H1581 0.950 . S
C1593 C1589 1.393 . S
C1593 C1592 1.391 . S
C1594 H1584 0.950 1_565 S
C1594 C1595 1.386 . S
C1594 C1596 1.391 . S
C1595 C1594 1.386 . S
C1595 C1599 1.393 . S
C1596 H1585 0.950 . S
C1596 C1594 1.391 . S
C1596 C1597 1.400 . S
C1597 C1591 1.491 . S
C1597 C1596 1.400 . S
C1597 C1598 1.398 . S
C1598 H1586 0.950 . S
C1598 C1597 1.398 . S
C1598 C1599 1.391 . S
C1599 H1587 0.950 . S
C1599 C1595 1.393 . S
C1599 C1598 1.391 . S
C649 C26 0.979 . S
C655 C497 0.979 . S
C669 C217 1.021 . S
C675 C66 1.021 . S
C689 C106 0.978 . S
C695 C577 0.978 . S
C709 C146 0.978 1_455 S
C715 C297 0.978 1_655 S
C729 C177 0.973 . S
C735 C346 0.973 . S
C749 C426 0.994 . S
C755 C257 0.994 . S
C769 C537 0.996 1_455 S
C775 C386 0.996 1_655 S
C789 C466 1.026 . S
C795 C617 1.026 . S
C809 C383 2.159 . S
C815 C17 2.129 . S
C829 C57 2.128 . S
C835 C423 2.157 . S
C849 C97 2.114 . S
C855 C463 2.147 . S
C869 C343 2.155 . S
C875 C137 2.127 . S
C889 C522 2.147 . S
C895 C186 2.109 . S
C909 C562 2.147 . S
C915 C226 2.109 . S
C929 C266 2.108 . S
C935 C602 2.148 . S
C949 C482 2.162 . S
C955 C306 2.129 . S
C969 C337 2.114 . S
C975 C63 2.147 . S
C989 C377 2.129 . S
C995 C103 2.162 . S
C1009 C417 2.119 . S
C1015 C143 2.149 . S
C1029 C23 2.147 . S
C1035 C457 2.109 . S
C1049 C202 2.157 . S
C1055 C506 2.128 . S
C1069 C546 2.113 . S
C1075 C242 2.147 . S
C1089 C282 2.163 . S
C1095 C586 2.123 . S
C1109 C626 2.124 . S
C1115 C162 2.163 . S
C1129 C13 3.094 . S
C1135 C413 3.095 . S
C1149 C53 3.093 . S
C1155 C453 3.099 . S
C1169 C333 3.097 . S
C1175 C93 3.095 . S
C1189 C133 3.097 . S
C1195 C373 3.096 . S
C1209 C184 3.097 . S
C1215 C584 3.096 . S
C1229 C224 3.096 . S
C1235 C624 3.097 . S
C1249 C504 3.099 . S
C1255 C264 3.093 . S
C1269 C304 3.096 . S
C1275 C544 3.097 . S
C1289 C2 1.628 . S
C1295 C293 1.876 . S
C1309 C493 1.874 . S
C1315 C42 1.624 . S
C1329 C82 1.639 . S
C1335 C213 1.881 . S
C1349 C122 1.657 . S
C1355 C573 1.887 . S
C1369 C183 1.662 . S
C1375 C144 1.887 . S
C1389 C344 1.873 . S
C1395 C223 1.624 . S
C1409 C263 1.628 . S
C1415 C64 1.876 . S
C1429 C424 1.884 . S
C1435 C303 1.646 . S
C1449 C322 1.633 . S
C1455 C613 1.875 . S
C1469 C173 1.888 . S
C1475 C362 1.663 . S
C1489 C533 1.883 . S
C1495 C402 1.645 . S
C1509 C442 1.626 . S
C1515 C253 1.873 . S
C1529 C503 1.659 . S
C1535 C464 1.885 . S
C1549 C543 1.623 . S
C1555 C24 1.873 . S
C1569 C384 1.875 . S
C1575 C583 1.625 . S
C1589 C104 1.885 . S
C1595 C623 1.658 . S
