# Generated by pormake.
# Topology fny, (5)-cn, num edge types: 1
# Building blocks:
#     Node 0, Type 0, BuildingBlock: XOMCOT_clean_sbu_1, # of connection points: 5
#     Node 1, Type 0, BuildingBlock: XOMCOT_clean_sbu_1, # of connection points: 5
#     Node 2, Type 0, BuildingBlock: XOMCOT_clean_sbu_1, # of connection points: 5
#     Node 3, Type 0, BuildingBlock: XOMCOT_clean_sbu_1, # of connection points: 5
#     Node 4, Type 0, BuildingBlock: XOMCOT_clean_sbu_1, # of connection points: 5
#     Node 5, Type 0, BuildingBlock: XOMCOT_clean_sbu_1, # of connection points: 5
#     Node 6, Type 0, BuildingBlock: XOMCOT_clean_sbu_1, # of connection points: 5
#     Node 7, Type 0, BuildingBlock: XOMCOT_clean_sbu_1, # of connection points: 5
#     Node 8, Type 0, BuildingBlock: XOMCOT_clean_sbu_1, # of connection points: 5
#     Node 9, Type 0, BuildingBlock: XOMCOT_clean_sbu_1, # of connection points: 5
#     Node 10, Type 0, BuildingBlock: XOMCOT_clean_sbu_1, # of connection points: 5
#     Node 11, Type 0, BuildingBlock: XOMCOT_clean_sbu_1, # of connection points: 5
#     Edge 12, Type (0, 0), BuildingBlock: OJICUG_clean_linker_0, # of connection points: 2
#     Edge 13, Type (0, 0), BuildingBlock: OJICUG_clean_linker_0, # of connection points: 2
#     Edge 14, Type (0, 0), BuildingBlock: OJICUG_clean_linker_0, # of connection points: 2
#     Edge 15, Type (0, 0), BuildingBlock: OJICUG_clean_linker_0, # of connection points: 2
#     Edge 16, Type (0, 0), BuildingBlock: OJICUG_clean_linker_0, # of connection points: 2
#     Edge 17, Type (0, 0), BuildingBlock: OJICUG_clean_linker_0, # of connection points: 2
#     Edge 18, Type (0, 0), BuildingBlock: OJICUG_clean_linker_0, # of connection points: 2
#     Edge 19, Type (0, 0), BuildingBlock: OJICUG_clean_linker_0, # of connection points: 2
#     Edge 20, Type (0, 0), BuildingBlock: OJICUG_clean_linker_0, # of connection points: 2
#     Edge 21, Type (0, 0), BuildingBlock: OJICUG_clean_linker_0, # of connection points: 2
#     Edge 22, Type (0, 0), BuildingBlock: OJICUG_clean_linker_0, # of connection points: 2
#     Edge 23, Type (0, 0), BuildingBlock: OJICUG_clean_linker_0, # of connection points: 2
#     Edge 24, Type (0, 0), BuildingBlock: OJICUG_clean_linker_0, # of connection points: 2
#     Edge 25, Type (0, 0), BuildingBlock: OJICUG_clean_linker_0, # of connection points: 2
#     Edge 26, Type (0, 0), BuildingBlock: OJICUG_clean_linker_0, # of connection points: 2
#     Edge 27, Type (0, 0), BuildingBlock: OJICUG_clean_linker_0, # of connection points: 2
#     Edge 28, Type (0, 0), BuildingBlock: OJICUG_clean_linker_0, # of connection points: 2
#     Edge 29, Type (0, 0), BuildingBlock: OJICUG_clean_linker_0, # of connection points: 2
#     Edge 30, Type (0, 0), BuildingBlock: OJICUG_clean_linker_0, # of connection points: 2
#     Edge 31, Type (0, 0), BuildingBlock: OJICUG_clean_linker_0, # of connection points: 2
#     Edge 32, Type (0, 0), BuildingBlock: OJICUG_clean_linker_0, # of connection points: 2
#     Edge 33, Type (0, 0), BuildingBlock: OJICUG_clean_linker_0, # of connection points: 2
#     Edge 34, Type (0, 0), BuildingBlock: OJICUG_clean_linker_0, # of connection points: 2
#     Edge 35, Type (0, 0), BuildingBlock: OJICUG_clean_linker_0, # of connection points: 2
#     Edge 36, Type (0, 0), BuildingBlock: OJICUG_clean_linker_0, # of connection points: 2
#     Edge 37, Type (0, 0), BuildingBlock: OJICUG_clean_linker_0, # of connection points: 2
#     Edge 38, Type (0, 0), BuildingBlock: OJICUG_clean_linker_0, # of connection points: 2
#     Edge 39, Type (0, 0), BuildingBlock: OJICUG_clean_linker_0, # of connection points: 2
#     Edge 40, Type (0, 0), BuildingBlock: OJICUG_clean_linker_0, # of connection points: 2
#     Edge 41, Type (0, 0), BuildingBlock: OJICUG_clean_linker_0, # of connection points: 2
# Relax obj value: 0.299
# Max RMSD: 0.208
# Mean RMSD: 0.208
data_MOF--net-fny--node1-XOMCOT_clean_sbu_1--edge1-OJICUG_clean_linker_0
_symmetry_space_group_name_H-M    P1
_symmetry_Int_Tables_number       1
_symmetry_cell_setting            triclinic
loop_
_symmetry_equiv_pos_as_xyz
'x, y, z'
_cell_length_a     46.265316
_cell_length_b     46.898736
_cell_length_c     17.750608
_cell_angle_alpha  89.836173
_cell_angle_beta   89.970831
_cell_angle_gamma 119.74398
loop_
_atom_site_label
_atom_site_type_symbol
_atom_site_fract_x
_atom_site_fract_y
_atom_site_fract_z
_atom_type_partial_charge
C0 C 0.31251 0.44872 0.23447 0.0
C1 C 0.28538 0.43739 0.18752 0.0
N2 N 0.29026 0.46209 0.1412 0.0
N3 N 0.33518 0.47991 0.21546 0.0
C4 C 0.31982 0.48775 0.16136 0.0
H5 H 0.315 0.43503 0.28057 0.0
Co6 Co 0.37689 0.50592 0.26102 0.0
C7 C 0.39196 0.54023 0.10864 0.0
O8 O 0.38122 0.51151 0.07647 0.0
N9 N 0.41673 0.53007 0.30778 0.0
C10 C 0.46399 0.56711 0.35819 0.0
C11 C 0.43951 0.56217 0.30739 0.0
C12 C 0.4282 0.51598 0.35606 0.0
N13 N 0.45638 0.53799 0.39048 0.0
O14 O 0.35615 0.52559 0.32748 0.0
H15 H 0.43737 0.58091 0.27641 0.0
H16 H 0.41419 0.49022 0.37093 0.0
O17 O 0.39097 0.5417 0.18112 0.0
C18 C 0.35125 0.51595 0.39695 0.0
O19 O 0.36063 0.49494 0.41811 0.0
N20 N 0.39702 0.48458 0.20735 0.0
C21 C 0.43926 0.45743 0.1997 0.0
C22 C 0.44907 0.48842 0.16851 0.0
C23 C 0.42774 0.50173 0.17355 0.0
C24 C 0.38635 0.45329 0.23191 0.0
C25 C 0.4068 0.43925 0.22799 0.0
H26 H 0.43798 0.52734 0.15936 0.0
H27 H 0.36401 0.44053 0.26472 0.0
H28 H 0.32991 0.51182 0.1366 0.0
H29 H 0.26371 0.41307 0.18783 0.0
H30 H 0.48342 0.59094 0.37687 0.0
H31 H 0.47418 0.50358 0.14747 0.0
H32 H 0.39827 0.41532 0.25331 0.0
C33 C 0.83933 0.29863 0.81674 0.0
C34 C 0.83186 0.27547 0.76113 0.0
N35 N 0.83886 0.29095 0.69398 0.0
N36 N 0.85056 0.32825 0.78393 0.0
C37 C 0.85132 0.3229 0.7099 0.0
H38 H 0.83326 0.29358 0.8759 0.0
Co39 Co 0.85211 0.3654 0.82247 0.0
C40 C 0.8388 0.39982 0.69259 0.0
O41 O 0.86045 0.42773 0.72343 0.0
N42 N 0.85282 0.40237 0.85937 0.0
C43 C 0.86511 0.45249 0.89149 0.0
C44 C 0.87793 0.43218 0.87856 0.0
C45 C 0.82521 0.40518 0.86192 0.0
N46 N 0.8316 0.43532 0.88232 0.0
O47 O 0.80791 0.33699 0.87342 0.0
H48 H 0.90389 0.43914 0.88214 0.0
H49 H 0.80044 0.38513 0.85047 0.0
O50 O 0.83259 0.37235 0.72403 0.0
C51 C 0.80968 0.33716 0.94623 0.0
O52 O 0.83837 0.3574 0.97756 0.0
N53 N 0.89645 0.39055 0.7872 0.0
C54 C 0.96581 0.42686 0.7684 0.0
C55 C 0.94416 0.42311 0.70868 0.0
C56 C 0.90956 0.40423 0.71866 0.0
C57 C 0.91702 0.39233 0.84411 0.0
C58 C 0.95154 0.41034 0.8362 0.0
H59 H 0.89385 0.40066 0.67085 0.0
H60 H 0.90633 0.38012 0.89704 0.0
H61 H 0.85692 0.3414 0.66722 0.0
H62 H 0.81842 0.24909 0.76894 0.0
H63 H 0.87935 0.47738 0.91219 0.0
H64 H 0.95368 0.43477 0.65464 0.0
H65 H 0.96681 0.41098 0.88307 0.0
C66 C 0.5303 0.81562 0.27627 0.0
C67 C 0.53986 0.80138 0.22127 0.0
N68 N 0.51635 0.78994 0.16739 0.0
N69 N 0.50163 0.81442 0.25564 0.0
C70 C 0.49281 0.79659 0.19198 0.0
H71 H 0.5437 0.82632 0.32778 0.0
Co72 Co 0.48003 0.83356 0.30578 0.0
C73 C 0.45058 0.83016 0.14924 0.0
O74 O 0.48095 0.84528 0.12145 0.0
N75 N 0.45969 0.85258 0.35686 0.0
C76 C 0.43085 0.87687 0.38709 0.0
C77 C 0.43028 0.85143 0.34739 0.0
C78 C 0.47731 0.87816 0.40262 0.0
N79 N 0.46083 0.89404 0.42091 0.0
O80 O 0.4528 0.79104 0.35982 0.0
H81 H 0.41016 0.83394 0.31255 0.0
H82 H 0.50237 0.88543 0.42017 0.0
O83 O 0.44637 0.8227 0.22009 0.0
C84 C 0.46219 0.79187 0.42865 0.0
O85 O 0.48509 0.82027 0.45535 0.0
N86 N 0.50982 0.87624 0.26475 0.0
C87 C 0.55152 0.94506 0.26991 0.0
C88 C 0.52045 0.93081 0.23351 0.0
C89 C 0.49976 0.89655 0.23293 0.0
C90 C 0.54076 0.88975 0.29609 0.0
C91 C 0.5618 0.9237 0.29922 0.0
H92 H 0.47442 0.88699 0.21442 0.0
H93 H 0.54769 0.87477 0.32871 0.0
H94 H 0.46968 0.78881 0.16327 0.0
H95 H 0.56256 0.80008 0.22062 0.0
H96 H 0.41027 0.88154 0.39255 0.0
H97 H 0.51114 0.9459 0.2094 0.0
H98 H 0.58473 0.93284 0.3306 0.0
C99 C 0.74555 0.57193 0.79132 0.0
C100 C 0.77106 0.58438 0.73962 0.0
N101 N 0.77042 0.55897 0.70288 0.0
N102 N 0.72875 0.53892 0.78635 0.0
C103 C 0.74446 0.53171 0.73233 0.0
H104 H 0.74047 0.58599 0.83203 0.0
Co105 Co 0.69608 0.51062 0.85099 0.0
C106 C 0.64649 0.45205 0.76181 0.0
O107 O 0.62429 0.45217 0.80778 0.0
N108 N 0.66413 0.48246 0.91881 0.0
C109 C 0.63877 0.46573 1.0287 0.0
C110 C 0.64636 0.48795 0.97125 0.0
C111 C 0.66472 0.45556 0.94305 0.0
N112 N 0.65206 0.44659 1.01236 0.0
O113 O 0.72841 0.49878 0.89694 0.0
H114 H 0.64328 0.50922 0.97431 0.0
H115 H 0.67983 0.44659 0.91698 0.0
O116 O 0.67749 0.47395 0.77103 0.0
C117 C 0.74191 0.51773 0.95408 0.0
O118 O 0.73435 0.54093 0.96544 0.0
N119 N 0.6684 0.52709 0.8174 0.0
C120 C 0.63309 0.5604 0.79331 0.0
C121 C 0.63163 0.53735 0.74072 0.0
C122 C 0.65033 0.52157 0.75276 0.0
C123 C 0.67147 0.5508 0.8662 0.0
C124 C 0.65385 0.5674 0.85591 0.0
H125 H 0.65049 0.50552 0.70961 0.0
H126 H 0.68756 0.55656 0.91465 0.0
H127 H 0.73738 0.50687 0.71625 0.0
H128 H 0.7894 0.61001 0.73195 0.0
H129 H 0.62987 0.46762 0.0839 0.0
H130 H 0.61677 0.53214 0.69017 0.0
H131 H 0.65604 0.58519 0.89759 0.0
C132 C 0.19166 0.69194 0.24727 0.0
C133 C 0.1881 0.71007 0.19072 0.0
N134 N 0.21135 0.71601 0.13831 0.0
N135 N 0.2169 0.68633 0.22972 0.0
C136 C 0.22907 0.70244 0.16444 0.0
H137 H 0.17655 0.68383 0.29734 0.0
Co138 Co 0.23561 0.66386 0.27601 0.0
C139 C 0.21657 0.63029 0.11669 0.0
O140 O 0.19607 0.64079 0.09735 0.0
N141 N 0.25627 0.64321 0.31899 0.0
C142 C 0.27165 0.60993 0.36997 0.0
C143 C 0.24668 0.61148 0.3315 0.0
C144 C 0.28757 0.66014 0.34554 0.0
N145 N 0.29716 0.64081 0.38134 0.0
O146 O 0.24764 0.69432 0.36723 0.0
H147 H 0.22255 0.59097 0.31782 0.0
H148 H 0.30165 0.68671 0.34584 0.0
O149 O 0.23014 0.63704 0.18229 0.0
C150 C 0.25157 0.69053 0.4379 0.0
O151 O 0.2426 0.66096 0.46317 0.0
N152 N 0.19122 0.63143 0.31614 0.0
C153 C 0.12211 0.59443 0.34882 0.0
C154 C 0.13654 0.58442 0.29271 0.0
C155 C 0.17099 0.60286 0.27816 0.0
C156 C 0.17764 0.63926 0.37587 0.0
C157 C 0.14374 0.62114 0.39335 0.0
H158 H 0.18059 0.59435 0.23376 0.0
H159 H 0.19131 0.66176 0.40606 0.0
H160 H 0.25013 0.70339 0.13545 0.0
H161 H 0.16955 0.71768 0.18757 0.0
H162 H 0.2692 0.58791 0.39585 0.0
H163 H 0.12124 0.56354 0.25727 0.0
H164 H 0.13433 0.62949 0.43911 0.0
C165 C 0.47881 0.18359 0.79664 0.0
C166 C 0.45832 0.19198 0.75755 0.0
N167 N 0.47756 0.22121 0.72387 0.0
N168 N 0.51078 0.20693 0.78462 0.0
C169 C 0.50899 0.23007 0.74359 0.0
H170 H 0.47111 0.16011 0.82321 0.0
Co171 Co 0.54933 0.20404 0.79076 0.0
C172 C 0.5707 0.23232 0.61813 0.0
O173 O 0.55292 0.24371 0.58582 0.0
N174 N 0.5876 0.20105 0.79176 0.0
C175 C 0.6208 0.18054 0.76699 0.0
C176 C 0.59527 0.18452 0.74039 0.0
C177 C 0.60936 0.20777 0.84749 0.0
N178 N 0.62941 0.19505 0.83458 0.0
O179 O 0.57186 0.24787 0.84162 0.0
H180 H 0.58114 0.17333 0.68988 0.0
H181 H 0.60716 0.21716 0.90157 0.0
O182 O 0.56311 0.22095 0.68573 0.0
C183 C 0.56311 0.24177 0.91175 0.0
O184 O 0.54487 0.21072 0.93107 0.0
N185 N 0.5255 0.16017 0.75913 0.0
C186 C 0.48495 0.0921 0.75266 0.0
C187 C 0.48598 0.11208 0.69201 0.0
C188 C 0.50691 0.14644 0.69602 0.0
C189 C 0.5244 0.14095 0.81804 0.0
C190 C 0.50492 0.10704 0.81542 0.0
H191 H 0.50695 0.16198 0.65081 0.0
H192 H 0.53822 0.15225 0.86883 0.0
H193 H 0.53068 0.25083 0.71912 0.0
H194 H 0.43199 0.17614 0.74727 0.0
H195 H 0.62932 0.16471 0.74346 0.0
H196 H 0.47048 0.10131 0.64291 0.0
H197 H 0.50435 0.09268 0.86392 0.0
C198 C 0.54132 0.73404 0.77189 0.0
C199 C 0.54994 0.75814 0.82518 0.0
N200 N 0.52311 0.74991 0.86873 0.0
N201 N 0.50957 0.71006 0.78379 0.0
C202 C 0.49871 0.72179 0.83944 0.0
H203 H 0.55766 0.73435 0.72826 0.0
Co204 Co 0.48409 0.66911 0.73836 0.0
C205 C 0.46291 0.65012 0.90227 0.0
O206 O 0.49414 0.66856 0.92258 0.0
N207 N 0.45893 0.62906 0.69292 0.0
C208 C 0.42489 0.57557 0.68172 0.0
C209 C 0.42828 0.60435 0.71019 0.0
C210 C 0.47289 0.61533 0.6512 0.0
N211 N 0.45354 0.58253 0.64642 0.0
O212 O 0.45658 0.68626 0.69138 0.0
H213 H 0.4104 0.60668 0.74499 0.0
H214 H 0.49779 0.6293 0.62871 0.0
O215 O 0.45499 0.65 0.83234 0.0
C216 C 0.46182 0.69157 0.61993 0.0
O217 O 0.48065 0.68163 0.58679 0.0
N218 N 0.51337 0.65382 0.77328 0.0
C219 C 0.55389 0.62496 0.78317 0.0
C220 C 0.52274 0.6105 0.8187 0.0
C221 C 0.50273 0.625 0.81231 0.0
C222 C 0.54346 0.66768 0.73737 0.0
C223 C 0.56439 0.65423 0.7431 0.0
H224 H 0.47751 0.61108 0.83265 0.0
H225 H 0.54989 0.68713 0.69715 0.0
H226 H 0.47365 0.70879 0.86134 0.0
H227 H 0.57432 0.77945 0.83263 0.0
H228 H 0.40321 0.55149 0.68809 0.0
H229 H 0.51328 0.58742 0.84867 0.0
H230 H 0.58758 0.66539 0.71183 0.0
C231 C 0.86796 0.56628 0.34036 0.0
C232 C 0.85934 0.57994 0.39826 0.0
N233 N 0.8503 0.5595 0.4582 0.0
N234 N 0.86431 0.53727 0.3632 0.0
C235 C 0.8543 0.53418 0.43543 0.0
H236 H 0.87482 0.57613 0.28399 0.0
Co237 Co 0.86649 0.50697 0.30037 0.0
C238 C 0.83709 0.44141 0.38907 0.0
O239 O 0.84366 0.42662 0.33459 0.0
N240 N 0.86874 0.47777 0.23517 0.0
C241 C 0.88263 0.46902 0.12234 0.0
C242 C 0.89468 0.48524 0.18904 0.0
C243 C 0.84175 0.45538 0.1976 0.0
N244 N 0.84916 0.45162 0.12699 0.0
O245 O 0.82386 0.49895 0.25103 0.0
H246 H 0.91961 0.5055 0.19707 0.0
H247 H 0.81647 0.44709 0.21593 0.0
O248 O 0.84377 0.4714 0.37997 0.0
C249 C 0.82992 0.51569 0.18951 0.0
O250 O 0.86124 0.5357 0.172 0.0
N251 N 0.90944 0.51875 0.33861 0.0
C252 C 0.97793 0.54178 0.35778 0.0
C253 C 0.95395 0.51015 0.38225 0.0
C254 C 0.91979 0.49907 0.37216 0.0
C255 C 0.93239 0.54968 0.31602 0.0
C256 C 0.96646 0.56165 0.32529 0.0
H257 H 0.90216 0.47424 0.38814 0.0
H258 H 0.92432 0.56463 0.28629 0.0
H259 H 0.84884 0.5131 0.46951 0.0
H260 H 0.85789 0.6022 0.39419 0.0
H261 H 0.89669 0.47465 0.07029 0.0
H262 H 0.96148 0.49387 0.4078 0.0
H263 H 0.98371 0.58586 0.3036 0.0
C264 C 0.2793 0.83849 0.81127 0.0
C265 C 0.25135 0.81817 0.85251 0.0
N266 N 0.25418 0.7924 0.87595 0.0
N267 N 0.30003 0.8259 0.81039 0.0
C268 C 0.28341 0.79735 0.84818 0.0
H269 H 0.28401 0.86132 0.78613 0.0
Co270 Co 0.34247 0.84132 0.77041 0.0
C271 C 0.35373 0.82828 0.93505 0.0
O272 O 0.33428 0.83929 0.95948 0.0
N273 N 0.38436 0.85665 0.73072 0.0
C274 C 0.43821 0.87376 0.72124 0.0
C275 C 0.4084 0.84991 0.75053 0.0
C276 C 0.39971 0.88371 0.68755 0.0
N277 N 0.43279 0.89549 0.68239 0.0
O278 O 0.32603 0.79875 0.71819 0.0
H279 H 0.40468 0.82927 0.78452 0.0
H280 H 0.38652 0.89448 0.66051 0.0
O281 O 0.35753 0.82686 0.86346 0.0
C282 C 0.31832 0.80067 0.64938 0.0
O283 O 0.32418 0.8295 0.62465 0.0
N284 N 0.35762 0.88411 0.80903 0.0
C285 C 0.39476 0.95294 0.80191 0.0
C286 C 0.40281 0.93523 0.85394 0.0
C287 C 0.38421 0.9008 0.85601 0.0
C288 C 0.34827 0.90115 0.76196 0.0
C289 C 0.36616 0.93536 0.758 0.0
H290 H 0.39383 0.88802 0.88886 0.0
H291 H 0.3299 0.88815 0.7189 0.0
H292 H 0.29377 0.78157 0.85974 0.0
H293 H 0.23124 0.82271 0.8668 0.0
H294 H 0.46169 0.87413 0.72607 0.0
H295 H 0.42459 0.94766 0.88942 0.0
H296 H 0.3594 0.9475 0.71526 0.0
C297 C 0.51695 0.28856 0.322 0.0
C298 C 0.49192 0.26679 0.36939 0.0
N299 N 0.50355 0.27353 0.44027 0.0
N300 N 0.5439 0.30887 0.36366 0.0
C301 C 0.53525 0.29799 0.43482 0.0
H302 H 0.51496 0.29048 0.26172 0.0
Co303 Co 0.58422 0.34544 0.33519 0.0
C304 C 0.58095 0.37345 0.49516 0.0
O305 O 0.55004 0.36713 0.49081 0.0
N306 N 0.62557 0.37954 0.31139 0.0
C307 C 0.67356 0.42584 0.31405 0.0
C308 C 0.64212 0.40938 0.34341 0.0
C309 C 0.64797 0.37796 0.26625 0.0
N310 N 0.67674 0.4069 0.26086 0.0
O311 O 0.57802 0.32536 0.22869 0.0
H312 H 0.63158 0.41928 0.38276 0.0
H313 H 0.64221 0.35654 0.23302 0.0
O314 O 0.59339 0.36484 0.44096 0.0
C315 C 0.58329 0.33451 0.15873 0.0
O316 O 0.59522 0.36561 0.14211 0.0
N317 N 0.56148 0.37044 0.30628 0.0
C318 C 0.52628 0.40368 0.26647 0.0
C319 C 0.51283 0.37702 0.31621 0.0
C320 C 0.5306 0.36127 0.33563 0.0
C321 C 0.57513 0.39678 0.25753 0.0
C322 C 0.55795 0.41345 0.23655 0.0
H323 H 0.51865 0.34179 0.37598 0.0
H324 H 0.59963 0.4057 0.2342 0.0
H325 H 0.55171 0.3079 0.48259 0.0
H326 H 0.46691 0.24846 0.35352 0.0
H327 H 0.691 0.45147 0.32453 0.0
H328 H 0.48831 0.36798 0.34048 0.0
H329 H 0.56975 0.4342 0.19839 0.0
C330 C 0.19007 0.45823 0.78388 0.0
C331 C 0.19711 0.44266 0.84118 0.0
N332 N 0.22775 0.46353 0.86722 0.0
N333 N 0.21615 0.48898 0.77481 0.0
C334 C 0.23913 0.49054 0.82373 0.0
H335 H 0.16639 0.44818 0.75571 0.0
Co336 Co 0.22369 0.52777 0.72642 0.0
C337 C 0.22628 0.5452 0.89225 0.0
O338 O 0.20274 0.5149 0.90573 0.0
N339 N 0.23343 0.56709 0.68272 0.0
C340 C 0.23923 0.6066 0.6062 0.0
C341 C 0.21714 0.57584 0.63363 0.0
C342 C 0.26451 0.59307 0.68646 0.0
N343 N 0.26938 0.61708 0.63815 0.0
O344 O 0.2679 0.53474 0.69033 0.0
H345 H 0.19221 0.55973 0.61324 0.0
H346 H 0.28463 0.59258 0.71647 0.0
O347 O 0.23863 0.55316 0.82515 0.0
C348 C 0.26395 0.52726 0.6195 0.0
O349 O 0.23415 0.5168 0.59108 0.0
N350 N 0.1793 0.51797 0.74332 0.0
C351 C 0.11062 0.49533 0.74386 0.0
C352 C 0.13255 0.52222 0.78857 0.0
C353 C 0.16694 0.53359 0.78639 0.0
C354 C 0.1588 0.49404 0.6947 0.0
C355 C 0.12453 0.48172 0.6955 0.0
H356 H 0.18335 0.55525 0.8179 0.0
H357 H 0.1692 0.4837 0.65605 0.0
H358 H 0.26274 0.51268 0.8327 0.0
H359 H 0.1799 0.41919 0.86632 0.0
H360 H 0.2347 0.61791 0.55803 0.0
H361 H 0.12337 0.53474 0.82407 0.0
H362 H 0.10917 0.46114 0.65939 0.0
C363 C 0.75269 0.20511 0.31744 0.0
C364 C 0.77817 0.21712 0.36883 0.0
N365 N 0.77061 0.23208 0.42336 0.0
N366 N 0.72852 0.21128 0.341 0.0
C367 C 0.74103 0.22906 0.40418 0.0
H368 H 0.75249 0.19346 0.26491 0.0
Co369 Co 0.6893 0.19905 0.28775 0.0
C370 C 0.66444 0.21027 0.43974 0.0
O371 O 0.6746 0.19211 0.47475 0.0
N372 N 0.65214 0.18692 0.2335 0.0
C373 C 0.61398 0.18796 0.16196 0.0
C374 C 0.63155 0.19932 0.22779 0.0
C375 C 0.64573 0.16726 0.17414 0.0
N376 N 0.62404 0.16881 0.12699 0.0
O377 O 0.71236 0.2419 0.23145 0.0
H378 H 0.63268 0.21872 0.26255 0.0
H379 H 0.66156 0.15727 0.15849 0.0
O380 O 0.67014 0.21584 0.36853 0.0
C381 C 0.72403 0.23861 0.16787 0.0
O382 O 0.72031 0.2096 0.15252 0.0
N383 N 0.66816 0.15574 0.3288 0.0
C384 C 0.63104 0.08647 0.32792 0.0
C385 C 0.61844 0.10519 0.36201 0.0
C386 C 0.63701 0.13972 0.36033 0.0
C387 C 0.68099 0.13778 0.29796 0.0
C388 C 0.66321 0.10358 0.29725 0.0
H389 H 0.62485 0.15316 0.37784 0.0
H390 H 0.70333 0.14967 0.26476 0.0
H391 H 0.72927 0.24027 0.43522 0.0
H392 H 0.80086 0.21585 0.36532 0.0
H393 H 0.59995 0.19805 0.13524 0.0
H394 H 0.59372 0.09347 0.38632 0.0
H395 H 0.67383 0.09101 0.26683 0.0
C396 C 0.39778 0.56711 0.98195 0.0
C397 C 0.40611 0.5702 0.05915 0.0
H398 H 0.40814 0.58968 0.8726 0.0
C399 C 0.4302 0.60127 0.08541 0.0
H400 H 0.37918 0.54364 0.95951 0.0
C401 C 0.44706 0.62779 1.03492 0.0
C402 C 0.43995 0.6242 0.95696 0.0
H403 H 0.43735 0.60467 0.14418 0.0
H404 H 0.46675 0.65086 0.05663 0.0
C405 C 0.41423 0.59371 0.9318 0.0
C406 C 0.83188 0.38634 0.55404 0.0
C407 C 0.82765 0.40264 0.61555 0.0
H408 H 0.83796 0.38562 0.43449 0.0
C409 C 0.82143 0.42868 0.60072 0.0
H410 H 0.8376 0.36686 0.56325 0.0
C411 C 0.8221 0.4399 0.52697 0.0
C412 C 0.82933 0.4256 0.46571 0.0
H413 H 0.81827 0.44194 0.64696 0.0
H414 H 0.81851 0.46074 0.51853 0.0
C415 C 0.83259 0.39761 0.48002 0.0
C416 C 0.39406 0.82482 0.12172 0.0
C417 C 0.42249 0.82391 0.09707 0.0
H418 H 0.35027 0.82697 0.09051 0.0
C419 C 0.42606 0.82094 1.01903 0.0
H420 H 0.39047 0.82731 0.18107 0.0
C421 C 0.40287 0.82038 0.96701 0.0
C422 C 0.37552 0.82341 0.99087 0.0
H423 H 0.44749 0.81995 0.99768 0.0
H424 H 0.40726 0.81887 0.90785 0.0
C425 C 0.37105 0.82479 0.06937 0.0
C426 C 0.63497 0.41379 0.56356 0.0
C427 C 0.60056 0.39048 0.56464 0.0
H428 H 0.67694 0.45199 0.62416 0.0
C429 C 0.58344 0.38554 0.63302 0.0
H430 H 0.64913 0.41828 0.51208 0.0
C431 C 0.59937 0.40414 0.69692 0.0
C432 C 0.63309 0.4291 0.69531 0.0
H433 H 0.55716 0.36762 0.63686 0.0
H434 H 0.58452 0.39961 0.7474 0.0
C435 C 0.65102 0.43311 0.62803 0.0
C436 C 0.22606 0.58307 0.08223 0.0
C437 C 0.22406 0.61091 0.06065 0.0
H438 H 0.22818 0.54041 0.04582 0.0
C439 C 0.22741 0.6192 0.98343 0.0
H440 H 0.22355 0.57593 0.14102 0.0
C441 C 0.23152 0.59963 0.92906 0.0
C442 C 0.23117 0.57051 0.95004 0.0
H443 H 0.22622 0.64061 0.96479 0.0
H444 H 0.23273 0.60618 0.87011 0.0
C445 C 0.22892 0.56282 1.02757 0.0
C446 C 0.61472 0.21919 0.44946 0.0
C447 C 0.64288 0.22028 0.48258 0.0
H448 H 0.56982 0.22138 0.4662 0.0
C449 C 0.64818 0.22746 0.56015 0.0
H450 H 0.60954 0.21342 0.39031 0.0
C451 C 0.62569 0.23269 0.60352 0.0
C452 C 0.59634 0.22933 0.57168 0.0
H453 H 0.66977 0.22889 0.58759 0.0
H454 H 0.63135 0.23939 0.66211 0.0
C455 C 0.59177 0.22353 0.49338 0.0
C456 C 0.7049 0.45325 0.17566 0.0
C457 C 0.69287 0.4197 0.18916 0.0
H458 H 0.69588 0.48719 0.1137 0.0
C459 C 0.68084 0.39872 0.126 0.0
H460 H 0.71922 0.47152 0.21766 0.0
C461 C 0.66736 0.4075 0.06584 0.0
C462 C 0.66916 0.43814 0.06682 0.0
H463 H 0.67549 0.37353 0.12973 0.0
H464 H 0.65363 0.38984 1.02221 0.0
C465 C 0.69084 0.46208 0.11758 0.0
C466 C 0.31731 0.67467 0.49444 0.0
C467 C 0.3175 0.65031 0.44828 0.0
H468 H 0.29957 0.68177 0.60049 0.0
C469 C 0.32268 0.62649 0.48409 0.0
H470 H 0.31733 0.69585 0.4702 0.0
C471 C 0.31349 0.61918 0.5596 0.0
C472 C 0.29983 0.63613 0.59725 0.0
H473 H 0.32597 0.60896 0.45093 0.0
H474 H 0.31058 0.59656 0.58252 0.0
C475 C 0.3071 0.66683 0.56927 0.0
C476 C 0.61453 0.14616 0.99956 0.0
C477 C 0.63151 0.1723 0.04898 0.0
H478 H 0.60294 0.13303 0.88403 0.0
C479 C 0.65685 0.20268 1.0225 0.0
H480 H 0.59578 0.12232 1.02023 0.0
C481 C 0.6622 0.20832 0.94599 0.0
C482 C 0.64089 0.18414 0.89599 0.0
H483 H 0.67056 0.22272 0.06119 0.0
H484 H 0.67862 0.23312 0.92621 0.0
C485 C 0.61958 0.15201 0.92242 0.0
C486 C 0.43553 0.52946 0.58464 0.0
C487 C 0.46106 0.56089 0.60415 0.0
H488 H 0.41544 0.49414 0.49784 0.0
C489 C 0.49204 0.57332 0.56731 0.0
H490 H 0.41224 0.51749 0.61521 0.0
C491 C 0.49357 0.56022 0.49815 0.0
C492 C 0.46419 0.53488 0.46732 0.0
H493 H 0.51371 0.59568 0.58544 0.0
H494 H 0.51549 0.57377 0.46328 0.0
C495 C 0.43761 0.51584 0.51685 0.0
C496 C 0.80076 0.41947 0.04571 0.0
C497 C 0.82817 0.44955 0.06628 0.0
H498 H 0.77025 0.39243 0.95322 0.0
C499 C 0.83604 0.47771 1.02269 0.0
H500 H 0.79185 0.39809 0.08173 0.0
C501 C 0.82216 0.47358 0.95103 0.0
C502 C 0.80821 0.44179 0.92178 0.0
H503 H 0.85504 0.50188 0.04051 0.0
H504 H 0.83257 0.49456 0.91338 0.0
C505 C 0.78791 0.41676 0.97315 0.0
C506 C 0.49256 0.91996 0.53562 0.0
C507 C 0.46967 0.91769 0.48032 0.0
H508 H 0.49891 0.91623 0.65328 0.0
C509 C 0.44804 0.92952 0.49854 0.0
H510 H 0.51236 0.91483 0.52303 0.0
C511 C 0.44114 0.93139 0.57412 0.0
C512 C 0.45477 0.91963 0.6287 0.0
H513 H 0.43249 0.93172 0.45603 0.0
H514 H 0.42065 0.93544 0.58734 0.0
C515 C 0.48496 0.92096 0.61103 0.0
C516 C 0.23831 0.43256 0.96613 0.0
C517 C 0.24135 0.46205 0.93894 0.0
H518 H 0.25189 0.40945 0.05273 0.0
C519 C 0.25765 0.49046 0.98331 0.0
H520 H 0.22557 0.41031 0.93318 0.0
C521 C 0.27199 0.4899 0.05161 0.0
C522 C 0.27076 0.461 0.07708 0.0
H523 H 0.25948 0.51334 0.96523 0.0
H524 H 0.28462 0.51236 0.08384 0.0
C525 C 0.25308 0.43206 1.03467 0.0
C526 C 0.8054 0.28919 0.58547 0.0
C527 C 0.82315 0.27652 0.62389 0.0
H528 H 0.77552 0.28545 0.49065 0.0
C529 C 0.82416 0.24936 0.59442 0.0
H530 H 0.80344 0.30957 0.60811 0.0
C531 C 0.8077 0.23521 0.52693 0.0
C532 C 0.78969 0.24784 0.48922 0.0
H533 H 0.83751 0.23916 0.62371 0.0
H534 H 0.80819 0.21388 0.50539 0.0
C535 C 0.78899 0.27511 0.51881 0.0
C536 C 0.48939 0.76278 0.04839 0.0
C537 C 0.5182 0.77895 0.09283 0.0
H538 H 0.46865 0.74314 0.94128 0.0
C539 C 0.54909 0.78694 0.06059 0.0
H540 H 0.46506 0.75582 0.07088 0.0
C541 C 0.551 0.7787 0.98595 0.0
C542 C 0.52209 0.76254 0.94179 0.0
H543 H 0.57191 0.7999 0.09245 0.0
H544 H 0.57502 0.78428 0.96371 0.0
C545 C 0.49139 0.75522 0.97367 0.0
C546 C 0.81065 0.58854 0.60064 0.0
C547 C 0.79318 0.56041 0.64579 0.0
H548 H 0.84327 0.61088 0.5075 0.0
C549 C 0.79764 0.53333 0.63311 0.0
H550 H 0.80793 0.60992 0.60915 0.0
C551 C 0.81752 0.53358 0.57395 0.0
C552 C 0.83362 0.561 0.52572 0.0
H553 H 0.78546 0.51164 0.6683 0.0
H554 H 0.81913 0.51165 0.56542 0.0
C555 C 0.83076 0.58891 0.5416 0.0
C556 C 0.22581 0.72106 1.00442 0.0
C557 C 0.21596 0.73218 0.06734 0.0
H558 H 0.24446 0.73122 0.89175 0.0
C559 C 0.21303 0.76043 0.06134 0.0
H560 H 0.22732 0.69877 1.00734 0.0
C561 C 0.22299 0.7791 0.99531 0.0
C562 C 0.23574 0.76949 0.93464 0.0
H563 H 0.20529 0.76924 0.1093 0.0
H564 H 0.22313 0.80224 0.9941 0.0
C565 C 0.23541 0.73946 0.9384 0.0
C566 C 0.48469 0.26655 0.64447 0.0
C567 C 0.47071 0.23264 0.65502 0.0
H568 H 0.50607 0.30633 0.56579 0.0
C569 C 0.46035 0.2119 0.59175 0.0
H570 H 0.49305 0.28287 0.69252 0.0
C571 C 0.46822 0.2253 0.51911 0.0
C572 C 0.48645 0.25944 0.50961 0.0
H573 H 0.44999 0.18567 0.59871 0.0
H574 H 0.46324 0.20919 0.47139 0.0
C575 C 0.49256 0.27988 0.57225 0.0
C576 C 0.76067 0.48517 0.03909 0.0
C577 C 0.76498 0.51515 1.01035 0.0
H578 H 0.77548 0.46123 0.12295 0.0
C579 C 0.78926 0.54426 0.04488 0.0
H580 H 0.74204 0.46217 1.01482 0.0
C581 C 0.80869 0.54374 0.1049 0.0
C582 C 0.80407 0.51407 0.13534 0.0
H583 H 0.79341 0.56789 1.02515 0.0
H584 H 0.82777 0.56695 0.12749 0.0
C585 C 0.77941 0.48461 0.10215 0.0
C586 C 0.26549 0.71338 0.57079 0.0
C587 C 0.26726 0.71893 0.49207 0.0
H588 H 0.2807 0.73402 0.68193 0.0
C589 C 0.28611 0.7515 0.46659 0.0
H590 H 0.25088 0.6887 0.59301 0.0
C591 C 0.30294 0.77749 0.51785 0.0
C592 C 0.30182 0.77191 0.59647 0.0
H593 H 0.28834 0.75692 0.40683 0.0
H594 H 0.31712 0.8022 0.4955 0.0
C595 C 0.28279 0.73936 0.62214 0.0
C596 C 0.58532 0.32189 1.019 0.0
C597 C 0.57879 0.31105 0.09514 0.0
H598 H 0.58619 0.30955 0.90186 0.0
C599 C 0.56877 0.27793 0.109 0.0
H600 H 0.59312 0.3472 1.00523 0.0
C601 C 0.56496 0.25647 0.0495 0.0
C602 C 0.57098 0.26703 0.97325 0.0
H603 H 0.56371 0.26842 0.16606 0.0
H604 H 0.55685 0.23113 0.06376 0.0
C605 C 0.58157 0.30031 0.95915 0.0
C606 C 0.30839 0.53264 0.43316 0.0
C607 C 0.33308 0.52512 0.45425 0.0
H608 H 0.26775 0.5392 0.46847 0.0
C609 C 0.33753 0.52223 0.53248 0.0
H610 H 0.30397 0.53497 0.37414 0.0
C611 C 0.31691 0.52509 0.58739 0.0
C612 C 0.2907 0.5303 0.5657 0.0
H613 H 0.35643 0.51662 0.55135 0.0
H614 H 0.32033 0.52138 0.64624 0.0
C615 C 0.28743 0.53484 0.48779 0.0
C616 C 0.75983 0.29889 0.12749 0.0
C617 C 0.74159 0.26537 0.10936 0.0
H618 H 0.79563 0.34759 0.09036 0.0
C619 C 0.74296 0.25657 1.03358 0.0
H620 H 0.7599 0.30678 0.18479 0.0
C621 C 0.76249 0.28009 0.97855 0.0
C622 C 0.78234 0.31327 0.99774 0.0
H623 H 0.72966 0.23103 1.01692 0.0
H624 H 0.76381 0.27189 0.92231 0.0
C625 C 0.78027 0.32233 0.07286 0.0
C626 C 0.44842 0.73262 0.44738 0.0
C627 C 0.45238 0.76204 0.47736 0.0
H628 H 0.44797 0.68728 0.46912 0.0
C629 C 0.45365 0.76519 0.5568 0.0
H630 H 0.44784 0.72935 0.38692 0.0
C631 C 0.4533 0.74083 0.60441 0.0
C632 C 0.45227 0.71273 0.574 0.0
H633 H 0.45689 0.78757 0.58221 0.0
H634 H 0.45655 0.74532 0.66447 0.0
C635 C 0.44866 0.70852 0.49491 0.0
C636 C 0.46654 0.43682 0.28891 0.0
C637 C 0.46378 0.44618 0.21521 0.0
H638 H 0.48906 0.41768 0.3631 0.0
C639 C 0.48417 0.44435 0.15872 0.0
H640 H 0.45196 0.43884 0.33423 0.0
C641 C 0.50546 0.43164 0.17517 0.0
C642 C 0.50696 0.42083 0.24859 0.0
H643 H 0.48283 0.45171 0.10153 0.0
H644 H 0.51978 0.42919 0.12994 0.0
C645 C 0.48788 0.4246 0.30541 0.0
C646 C 0.05793 0.47978 0.81692 0.0
C647 C 0.0736 0.48083 0.74823 0.0
H648 H 1.01223 0.4632 0.87667 0.0
C649 C 0.05334 0.46596 0.68483 0.0
H650 H 0.07242 0.49072 0.8672 0.0
C651 C 1.01859 0.44901 0.69088 0.0
C652 C 1.0029 0.44691 0.76023 0.0
H653 H 0.06425 0.46689 0.63029 0.0
H654 H 1.00416 0.43674 0.64138 0.0
C655 C 1.02316 0.46333 0.82266 0.0
C656 C 0.57542 0.03456 0.30795 0.0
C657 C 0.61021 0.04993 0.3171 0.0
H658 H 0.52978 0.9901 0.28791 0.0
C659 C 0.62528 0.0303 0.31034 0.0
H660 H 0.56262 0.04855 0.31137 0.0
C661 C 0.60656 0.99691 0.29269 0.0
C662 C 0.57177 0.98145 0.28372 0.0
H663 H 0.6518 0.04062 0.31835 0.0
H664 H 0.61968 0.98337 0.28574 0.0
C665 C 0.5565 1.00085 0.29234 0.0
C666 C 0.60874 0.62666 0.79639 0.0
C667 C 0.57432 0.6085 0.78313 0.0
H668 H 0.6543 0.62575 0.80916 0.0
C669 C 0.55967 0.57464 0.76866 0.0
H670 H 0.62073 0.65277 0.80751 0.0
C671 C 0.57896 0.55919 0.76891 0.0
C672 C 0.6132 0.57721 0.78451 0.0
H673 H 0.53329 0.56011 0.75691 0.0
H674 H 0.56692 0.53297 0.75919 0.0
C675 C 0.62791 0.61117 0.79748 0.0
C676 C 0.06273 0.54612 0.3429 0.0
C677 C 0.08499 0.57965 0.35667 0.0
H678 H 1.01174 0.50778 0.33279 0.0
C679 C 0.07138 0.59981 0.375 0.0
H680 H 0.07205 0.52967 0.32921 0.0
C681 C 0.03693 0.58718 0.37821 0.0
C682 C 1.01465 0.55396 0.36238 0.0
H683 H 0.0873 0.62584 0.38463 0.0
H684 H 1.02776 0.60375 0.39206 0.0
C685 C 1.02803 0.53344 0.3459 0.0
C686 C 0.40558 1.00976 0.76583 0.0
C687 C 0.41782 0.98869 0.78694 0.0
H688 H 0.41728 0.05888 0.73656 0.0
C689 C 0.45254 1.00173 0.78971 0.0
H690 H 0.37906 1.00076 0.76331 0.0
C691 C 0.47427 0.03497 0.77461 0.0
C692 C 0.46198 0.05605 0.75525 0.0
H693 H 0.46308 0.98626 0.80325 0.0
H694 H 0.50084 0.04443 0.77939 0.0
C695 C 0.42743 0.04303 0.74984 0.0
loop_
_geom_bond_atom_site_label_1
_geom_bond_atom_site_label_2
_geom_bond_distance
_geom_bond_site_symmetry_2
_ccdc_geom_bond_type
C0 C1 1.351 . S
C0 N3 1.368 . S
C0 H5 0.931 . S
C1 C0 1.351 . S
C1 N2 1.373 . S
C1 H29 0.930 . S
N2 C1 1.373 . S
N2 C4 1.340 . S
N3 C0 1.368 . S
N3 C4 1.321 . S
N3 Co6 2.135 . S
C4 N2 1.340 . S
C4 N3 1.321 . S
C4 H28 0.930 . S
H5 C0 0.931 . S
Co6 N3 2.135 . S
Co6 N9 2.121 . S
Co6 O14 2.055 . S
Co6 O17 2.039 . S
Co6 N20 2.140 . S
C7 O8 1.227 . S
C7 O17 1.265 . S
O8 C7 1.227 . S
N9 Co6 2.121 . S
N9 C11 1.375 . S
N9 C12 1.313 . S
C10 C11 1.338 . S
C10 N13 1.377 . S
C10 H30 0.930 . S
C11 N9 1.375 . S
C11 C10 1.338 . S
C11 H15 0.931 . S
C12 N9 1.313 . S
C12 N13 1.344 . S
C12 H16 0.930 . S
N13 C10 1.377 . S
N13 C12 1.344 . S
O14 Co6 2.055 . S
O14 C18 1.253 . S
H15 C11 0.931 . S
H16 C12 0.930 . S
O17 Co6 2.039 . S
O17 C7 1.265 . S
C18 O14 1.253 . S
C18 O19 1.227 . S
O19 C18 1.227 . S
N20 Co6 2.140 . S
N20 C23 1.346 . S
N20 C24 1.345 . S
C21 C22 1.387 . S
C21 C25 1.391 . S
C22 C21 1.387 . S
C22 C23 1.369 . S
C22 H31 0.929 . S
C23 N20 1.346 . S
C23 C22 1.369 . S
C23 H26 0.928 . S
C24 N20 1.345 . S
C24 C25 1.371 . S
C24 H27 0.931 . S
C25 C21 1.391 . S
C25 C24 1.371 . S
C25 H32 0.930 . S
H26 C23 0.928 . S
H27 C24 0.931 . S
H28 C4 0.930 . S
H29 C1 0.930 . S
H30 C10 0.930 . S
H31 C22 0.929 . S
H32 C25 0.930 . S
C33 C34 1.351 . S
C33 N36 1.368 . S
C33 H38 0.931 . S
C34 C33 1.351 . S
C34 N35 1.373 . S
C34 H62 0.930 . S
N35 C34 1.373 . S
N35 C37 1.340 . S
N36 C33 1.368 . S
N36 C37 1.321 . S
N36 Co39 2.135 . S
C37 N35 1.340 . S
C37 N36 1.321 . S
C37 H61 0.930 . S
H38 C33 0.931 . S
Co39 N36 2.135 . S
Co39 N42 2.121 . S
Co39 O47 2.055 . S
Co39 O50 2.039 . S
Co39 N53 2.140 . S
C40 O41 1.227 . S
C40 O50 1.265 . S
O41 C40 1.227 . S
N42 Co39 2.121 . S
N42 C44 1.375 . S
N42 C45 1.313 . S
C43 C44 1.338 . S
C43 N46 1.377 . S
C43 H63 0.930 . S
C44 N42 1.375 . S
C44 C43 1.338 . S
C44 H48 0.931 . S
C45 N42 1.313 . S
C45 N46 1.344 . S
C45 H49 0.930 . S
N46 C43 1.377 . S
N46 C45 1.344 . S
O47 Co39 2.055 . S
O47 C51 1.253 . S
H48 C44 0.931 . S
H49 C45 0.930 . S
O50 Co39 2.039 . S
O50 C40 1.265 . S
C51 O47 1.253 . S
C51 O52 1.227 . S
O52 C51 1.227 . S
N53 Co39 2.140 . S
N53 C56 1.346 . S
N53 C57 1.345 . S
C54 C55 1.387 . S
C54 C58 1.391 . S
C55 C54 1.387 . S
C55 C56 1.369 . S
C55 H64 0.929 . S
C56 N53 1.346 . S
C56 C55 1.369 . S
C56 H59 0.928 . S
C57 N53 1.345 . S
C57 C58 1.371 . S
C57 H60 0.931 . S
C58 C54 1.391 . S
C58 C57 1.371 . S
C58 H65 0.930 . S
H59 C56 0.928 . S
H60 C57 0.931 . S
H61 C37 0.930 . S
H62 C34 0.930 . S
H63 C43 0.930 . S
H64 C55 0.929 . S
H65 C58 0.930 . S
C66 C67 1.351 . S
C66 N69 1.368 . S
C66 H71 0.931 . S
C67 C66 1.351 . S
C67 N68 1.373 . S
C67 H95 0.930 . S
N68 C67 1.373 . S
N68 C70 1.340 . S
N69 C66 1.368 . S
N69 C70 1.321 . S
N69 Co72 2.135 . S
C70 N68 1.340 . S
C70 N69 1.321 . S
C70 H94 0.930 . S
H71 C66 0.931 . S
Co72 N69 2.135 . S
Co72 N75 2.121 . S
Co72 O80 2.055 . S
Co72 O83 2.039 . S
Co72 N86 2.140 . S
C73 O74 1.227 . S
C73 O83 1.265 . S
O74 C73 1.227 . S
N75 Co72 2.121 . S
N75 C77 1.375 . S
N75 C78 1.313 . S
C76 C77 1.338 . S
C76 N79 1.377 . S
C76 H96 0.930 . S
C77 N75 1.375 . S
C77 C76 1.338 . S
C77 H81 0.931 . S
C78 N75 1.313 . S
C78 N79 1.344 . S
C78 H82 0.930 . S
N79 C76 1.377 . S
N79 C78 1.344 . S
O80 Co72 2.055 . S
O80 C84 1.253 . S
H81 C77 0.931 . S
H82 C78 0.930 . S
O83 Co72 2.039 . S
O83 C73 1.265 . S
C84 O80 1.253 . S
C84 O85 1.227 . S
O85 C84 1.227 . S
N86 Co72 2.140 . S
N86 C89 1.346 . S
N86 C90 1.345 . S
C87 C88 1.387 . S
C87 C91 1.391 . S
C88 C87 1.387 . S
C88 C89 1.369 . S
C88 H97 0.929 . S
C89 N86 1.346 . S
C89 C88 1.369 . S
C89 H92 0.928 . S
C90 N86 1.345 . S
C90 C91 1.371 . S
C90 H93 0.931 . S
C91 C87 1.391 . S
C91 C90 1.371 . S
C91 H98 0.930 . S
H92 C89 0.928 . S
H93 C90 0.931 . S
H94 C70 0.930 . S
H95 C67 0.930 . S
H96 C76 0.930 . S
H97 C88 0.929 . S
H98 C91 0.930 . S
C99 C100 1.351 . S
C99 N102 1.368 . S
C99 H104 0.931 . S
C100 C99 1.351 . S
C100 N101 1.373 . S
C100 H128 0.930 . S
N101 C100 1.373 . S
N101 C103 1.340 . S
N102 C99 1.368 . S
N102 C103 1.321 . S
N102 Co105 2.135 . S
C103 N101 1.340 . S
C103 N102 1.321 . S
C103 H127 0.930 . S
H104 C99 0.931 . S
Co105 N102 2.135 . S
Co105 N108 2.121 . S
Co105 O113 2.055 . S
Co105 O116 2.039 . S
Co105 N119 2.140 . S
C106 O107 1.227 . S
C106 O116 1.265 . S
O107 C106 1.227 . S
N108 Co105 2.121 . S
N108 C110 1.375 . S
N108 C111 1.313 . S
C109 C110 1.338 . S
C109 N112 1.377 . S
C109 H129 0.930 . S
C110 N108 1.375 . S
C110 C109 1.338 . S
C110 H114 0.931 . S
C111 N108 1.313 . S
C111 N112 1.344 . S
C111 H115 0.930 . S
N112 C109 1.377 . S
N112 C111 1.344 . S
O113 Co105 2.055 . S
O113 C117 1.253 . S
H114 C110 0.931 . S
H115 C111 0.930 . S
O116 Co105 2.039 . S
O116 C106 1.265 . S
C117 O113 1.253 . S
C117 O118 1.227 . S
O118 C117 1.227 . S
N119 Co105 2.140 . S
N119 C122 1.346 . S
N119 C123 1.345 . S
C120 C121 1.387 . S
C120 C124 1.391 . S
C121 C120 1.387 . S
C121 C122 1.369 . S
C121 H130 0.929 . S
C122 N119 1.346 . S
C122 C121 1.369 . S
C122 H125 0.928 . S
C123 N119 1.345 . S
C123 C124 1.371 . S
C123 H126 0.931 . S
C124 C120 1.391 . S
C124 C123 1.371 . S
C124 H131 0.930 . S
H125 C122 0.928 . S
H126 C123 0.931 . S
H127 C103 0.930 . S
H128 C100 0.930 . S
H129 C109 0.930 . S
H130 C121 0.929 . S
H131 C124 0.930 . S
C132 C133 1.351 . S
C132 N135 1.368 . S
C132 H137 0.931 . S
C133 C132 1.351 . S
C133 N134 1.373 . S
C133 H161 0.930 . S
N134 C133 1.373 . S
N134 C136 1.340 . S
N135 C132 1.368 . S
N135 C136 1.321 . S
N135 Co138 2.135 . S
C136 N134 1.340 . S
C136 N135 1.321 . S
C136 H160 0.930 . S
H137 C132 0.931 . S
Co138 N135 2.135 . S
Co138 N141 2.121 . S
Co138 O146 2.055 . S
Co138 O149 2.039 . S
Co138 N152 2.140 . S
C139 O140 1.227 . S
C139 O149 1.265 . S
O140 C139 1.227 . S
N141 Co138 2.121 . S
N141 C143 1.375 . S
N141 C144 1.313 . S
C142 C143 1.338 . S
C142 N145 1.377 . S
C142 H162 0.930 . S
C143 N141 1.375 . S
C143 C142 1.338 . S
C143 H147 0.931 . S
C144 N141 1.313 . S
C144 N145 1.344 . S
C144 H148 0.930 . S
N145 C142 1.377 . S
N145 C144 1.344 . S
O146 Co138 2.055 . S
O146 C150 1.253 . S
H147 C143 0.931 . S
H148 C144 0.930 . S
O149 Co138 2.039 . S
O149 C139 1.265 . S
C150 O146 1.253 . S
C150 O151 1.227 . S
O151 C150 1.227 . S
N152 Co138 2.140 . S
N152 C155 1.346 . S
N152 C156 1.345 . S
C153 C154 1.387 . S
C153 C157 1.391 . S
C154 C153 1.387 . S
C154 C155 1.369 . S
C154 H163 0.929 . S
C155 N152 1.346 . S
C155 C154 1.369 . S
C155 H158 0.928 . S
C156 N152 1.345 . S
C156 C157 1.371 . S
C156 H159 0.931 . S
C157 C153 1.391 . S
C157 C156 1.371 . S
C157 H164 0.930 . S
H158 C155 0.928 . S
H159 C156 0.931 . S
H160 C136 0.930 . S
H161 C133 0.930 . S
H162 C142 0.930 . S
H163 C154 0.929 . S
H164 C157 0.930 . S
C165 C166 1.351 . S
C165 N168 1.368 . S
C165 H170 0.931 . S
C166 C165 1.351 . S
C166 N167 1.373 . S
C166 H194 0.930 . S
N167 C166 1.373 . S
N167 C169 1.340 . S
N168 C165 1.368 . S
N168 C169 1.321 . S
N168 Co171 2.135 . S
C169 N167 1.340 . S
C169 N168 1.321 . S
C169 H193 0.930 . S
H170 C165 0.931 . S
Co171 N168 2.135 . S
Co171 N174 2.121 . S
Co171 O179 2.055 . S
Co171 O182 2.039 . S
Co171 N185 2.140 . S
C172 O173 1.227 . S
C172 O182 1.265 . S
O173 C172 1.227 . S
N174 Co171 2.121 . S
N174 C176 1.375 . S
N174 C177 1.313 . S
C175 C176 1.338 . S
C175 N178 1.377 . S
C175 H195 0.930 . S
C176 N174 1.375 . S
C176 C175 1.338 . S
C176 H180 0.931 . S
C177 N174 1.313 . S
C177 N178 1.344 . S
C177 H181 0.930 . S
N178 C175 1.377 . S
N178 C177 1.344 . S
O179 Co171 2.055 . S
O179 C183 1.253 . S
H180 C176 0.931 . S
H181 C177 0.930 . S
O182 Co171 2.039 . S
O182 C172 1.265 . S
C183 O179 1.253 . S
C183 O184 1.227 . S
O184 C183 1.227 . S
N185 Co171 2.140 . S
N185 C188 1.346 . S
N185 C189 1.345 . S
C186 C187 1.387 . S
C186 C190 1.391 . S
C187 C186 1.387 . S
C187 C188 1.369 . S
C187 H196 0.929 . S
C188 N185 1.346 . S
C188 C187 1.369 . S
C188 H191 0.928 . S
C189 N185 1.345 . S
C189 C190 1.371 . S
C189 H192 0.931 . S
C190 C186 1.391 . S
C190 C189 1.371 . S
C190 H197 0.930 . S
H191 C188 0.928 . S
H192 C189 0.931 . S
H193 C169 0.930 . S
H194 C166 0.930 . S
H195 C175 0.930 . S
H196 C187 0.929 . S
H197 C190 0.930 . S
C198 C199 1.351 . S
C198 N201 1.368 . S
C198 H203 0.931 . S
C199 C198 1.351 . S
C199 N200 1.373 . S
C199 H227 0.930 . S
N200 C199 1.373 . S
N200 C202 1.340 . S
N201 C198 1.368 . S
N201 C202 1.321 . S
N201 Co204 2.135 . S
C202 N200 1.340 . S
C202 N201 1.321 . S
C202 H226 0.930 . S
H203 C198 0.931 . S
Co204 N201 2.135 . S
Co204 N207 2.121 . S
Co204 O212 2.055 . S
Co204 O215 2.039 . S
Co204 N218 2.140 . S
C205 O206 1.227 . S
C205 O215 1.265 . S
O206 C205 1.227 . S
N207 Co204 2.121 . S
N207 C209 1.375 . S
N207 C210 1.313 . S
C208 C209 1.338 . S
C208 N211 1.377 . S
C208 H228 0.930 . S
C209 N207 1.375 . S
C209 C208 1.338 . S
C209 H213 0.931 . S
C210 N207 1.313 . S
C210 N211 1.344 . S
C210 H214 0.930 . S
N211 C208 1.377 . S
N211 C210 1.344 . S
O212 Co204 2.055 . S
O212 C216 1.253 . S
H213 C209 0.931 . S
H214 C210 0.930 . S
O215 Co204 2.039 . S
O215 C205 1.265 . S
C216 O212 1.253 . S
C216 O217 1.227 . S
O217 C216 1.227 . S
N218 Co204 2.140 . S
N218 C221 1.346 . S
N218 C222 1.345 . S
C219 C220 1.387 . S
C219 C223 1.391 . S
C220 C219 1.387 . S
C220 C221 1.369 . S
C220 H229 0.929 . S
C221 N218 1.346 . S
C221 C220 1.369 . S
C221 H224 0.928 . S
C222 N218 1.345 . S
C222 C223 1.371 . S
C222 H225 0.931 . S
C223 C219 1.391 . S
C223 C222 1.371 . S
C223 H230 0.930 . S
H224 C221 0.928 . S
H225 C222 0.931 . S
H226 C202 0.930 . S
H227 C199 0.930 . S
H228 C208 0.930 . S
H229 C220 0.929 . S
H230 C223 0.930 . S
C231 C232 1.351 . S
C231 N234 1.368 . S
C231 H236 0.931 . S
C232 C231 1.351 . S
C232 N233 1.373 . S
C232 H260 0.930 . S
N233 C232 1.373 . S
N233 C235 1.340 . S
N234 C231 1.368 . S
N234 C235 1.321 . S
N234 Co237 2.135 . S
C235 N233 1.340 . S
C235 N234 1.321 . S
C235 H259 0.930 . S
H236 C231 0.931 . S
Co237 N234 2.135 . S
Co237 N240 2.121 . S
Co237 O245 2.055 . S
Co237 O248 2.039 . S
Co237 N251 2.140 . S
C238 O239 1.227 . S
C238 O248 1.265 . S
O239 C238 1.227 . S
N240 Co237 2.121 . S
N240 C242 1.375 . S
N240 C243 1.313 . S
C241 C242 1.338 . S
C241 N244 1.377 . S
C241 H261 0.930 . S
C242 N240 1.375 . S
C242 C241 1.338 . S
C242 H246 0.931 . S
C243 N240 1.313 . S
C243 N244 1.344 . S
C243 H247 0.930 . S
N244 C241 1.377 . S
N244 C243 1.344 . S
O245 Co237 2.055 . S
O245 C249 1.253 . S
H246 C242 0.931 . S
H247 C243 0.930 . S
O248 Co237 2.039 . S
O248 C238 1.265 . S
C249 O245 1.253 . S
C249 O250 1.227 . S
O250 C249 1.227 . S
N251 Co237 2.140 . S
N251 C254 1.346 . S
N251 C255 1.345 . S
C252 C253 1.387 . S
C252 C256 1.391 . S
C253 C252 1.387 . S
C253 C254 1.369 . S
C253 H262 0.929 . S
C254 N251 1.346 . S
C254 C253 1.369 . S
C254 H257 0.928 . S
C255 N251 1.345 . S
C255 C256 1.371 . S
C255 H258 0.931 . S
C256 C252 1.391 . S
C256 C255 1.371 . S
C256 H263 0.930 . S
H257 C254 0.928 . S
H258 C255 0.931 . S
H259 C235 0.930 . S
H260 C232 0.930 . S
H261 C241 0.930 . S
H262 C253 0.929 . S
H263 C256 0.930 . S
C264 C265 1.351 . S
C264 N267 1.368 . S
C264 H269 0.931 . S
C265 C264 1.351 . S
C265 N266 1.373 . S
C265 H293 0.930 . S
N266 C265 1.373 . S
N266 C268 1.340 . S
N267 C264 1.368 . S
N267 C268 1.321 . S
N267 Co270 2.135 . S
C268 N266 1.340 . S
C268 N267 1.321 . S
C268 H292 0.930 . S
H269 C264 0.931 . S
Co270 N267 2.135 . S
Co270 N273 2.121 . S
Co270 O278 2.055 . S
Co270 O281 2.039 . S
Co270 N284 2.140 . S
C271 O272 1.227 . S
C271 O281 1.265 . S
O272 C271 1.227 . S
N273 Co270 2.121 . S
N273 C275 1.375 . S
N273 C276 1.313 . S
C274 C275 1.338 . S
C274 N277 1.377 . S
C274 H294 0.930 . S
C275 N273 1.375 . S
C275 C274 1.338 . S
C275 H279 0.931 . S
C276 N273 1.313 . S
C276 N277 1.344 . S
C276 H280 0.930 . S
N277 C274 1.377 . S
N277 C276 1.344 . S
O278 Co270 2.055 . S
O278 C282 1.253 . S
H279 C275 0.931 . S
H280 C276 0.930 . S
O281 Co270 2.039 . S
O281 C271 1.265 . S
C282 O278 1.253 . S
C282 O283 1.227 . S
O283 C282 1.227 . S
N284 Co270 2.140 . S
N284 C287 1.346 . S
N284 C288 1.345 . S
C285 C286 1.387 . S
C285 C289 1.391 . S
C286 C285 1.387 . S
C286 C287 1.369 . S
C286 H295 0.929 . S
C287 N284 1.346 . S
C287 C286 1.369 . S
C287 H290 0.928 . S
C288 N284 1.345 . S
C288 C289 1.371 . S
C288 H291 0.931 . S
C289 C285 1.391 . S
C289 C288 1.371 . S
C289 H296 0.930 . S
H290 C287 0.928 . S
H291 C288 0.931 . S
H292 C268 0.930 . S
H293 C265 0.930 . S
H294 C274 0.930 . S
H295 C286 0.929 . S
H296 C289 0.930 . S
C297 C298 1.351 . S
C297 N300 1.368 . S
C297 H302 0.931 . S
C298 C297 1.351 . S
C298 N299 1.373 . S
C298 H326 0.930 . S
N299 C298 1.373 . S
N299 C301 1.340 . S
N300 C297 1.368 . S
N300 C301 1.321 . S
N300 Co303 2.135 . S
C301 N299 1.340 . S
C301 N300 1.321 . S
C301 H325 0.930 . S
H302 C297 0.931 . S
Co303 N300 2.135 . S
Co303 N306 2.121 . S
Co303 O311 2.055 . S
Co303 O314 2.039 . S
Co303 N317 2.140 . S
C304 O305 1.227 . S
C304 O314 1.265 . S
O305 C304 1.227 . S
N306 Co303 2.121 . S
N306 C308 1.375 . S
N306 C309 1.313 . S
C307 C308 1.338 . S
C307 N310 1.377 . S
C307 H327 0.930 . S
C308 N306 1.375 . S
C308 C307 1.338 . S
C308 H312 0.931 . S
C309 N306 1.313 . S
C309 N310 1.344 . S
C309 H313 0.930 . S
N310 C307 1.377 . S
N310 C309 1.344 . S
O311 Co303 2.055 . S
O311 C315 1.253 . S
H312 C308 0.931 . S
H313 C309 0.930 . S
O314 Co303 2.039 . S
O314 C304 1.265 . S
C315 O311 1.253 . S
C315 O316 1.227 . S
O316 C315 1.227 . S
N317 Co303 2.140 . S
N317 C320 1.346 . S
N317 C321 1.345 . S
C318 C319 1.387 . S
C318 C322 1.391 . S
C319 C318 1.387 . S
C319 C320 1.369 . S
C319 H328 0.929 . S
C320 N317 1.346 . S
C320 C319 1.369 . S
C320 H323 0.928 . S
C321 N317 1.345 . S
C321 C322 1.371 . S
C321 H324 0.931 . S
C322 C318 1.391 . S
C322 C321 1.371 . S
C322 H329 0.930 . S
H323 C320 0.928 . S
H324 C321 0.931 . S
H325 C301 0.930 . S
H326 C298 0.930 . S
H327 C307 0.930 . S
H328 C319 0.929 . S
H329 C322 0.930 . S
C330 C331 1.351 . S
C330 N333 1.368 . S
C330 H335 0.931 . S
C331 C330 1.351 . S
C331 N332 1.373 . S
C331 H359 0.930 . S
N332 C331 1.373 . S
N332 C334 1.340 . S
N333 C330 1.368 . S
N333 C334 1.321 . S
N333 Co336 2.135 . S
C334 N332 1.340 . S
C334 N333 1.321 . S
C334 H358 0.930 . S
H335 C330 0.931 . S
Co336 N333 2.135 . S
Co336 N339 2.121 . S
Co336 O344 2.055 . S
Co336 O347 2.039 . S
Co336 N350 2.140 . S
C337 O338 1.227 . S
C337 O347 1.265 . S
O338 C337 1.227 . S
N339 Co336 2.121 . S
N339 C341 1.375 . S
N339 C342 1.313 . S
C340 C341 1.338 . S
C340 N343 1.377 . S
C340 H360 0.930 . S
C341 N339 1.375 . S
C341 C340 1.338 . S
C341 H345 0.931 . S
C342 N339 1.313 . S
C342 N343 1.344 . S
C342 H346 0.930 . S
N343 C340 1.377 . S
N343 C342 1.344 . S
O344 Co336 2.055 . S
O344 C348 1.253 . S
H345 C341 0.931 . S
H346 C342 0.930 . S
O347 Co336 2.039 . S
O347 C337 1.265 . S
C348 O344 1.253 . S
C348 O349 1.227 . S
O349 C348 1.227 . S
N350 Co336 2.140 . S
N350 C353 1.346 . S
N350 C354 1.345 . S
C351 C352 1.387 . S
C351 C355 1.391 . S
C352 C351 1.387 . S
C352 C353 1.369 . S
C352 H361 0.929 . S
C353 N350 1.346 . S
C353 C352 1.369 . S
C353 H356 0.928 . S
C354 N350 1.345 . S
C354 C355 1.371 . S
C354 H357 0.931 . S
C355 C351 1.391 . S
C355 C354 1.371 . S
C355 H362 0.930 . S
H356 C353 0.928 . S
H357 C354 0.931 . S
H358 C334 0.930 . S
H359 C331 0.930 . S
H360 C340 0.930 . S
H361 C352 0.929 . S
H362 C355 0.930 . S
C363 C364 1.351 . S
C363 N366 1.368 . S
C363 H368 0.931 . S
C364 C363 1.351 . S
C364 N365 1.373 . S
C364 H392 0.930 . S
N365 C364 1.373 . S
N365 C367 1.340 . S
N366 C363 1.368 . S
N366 C367 1.321 . S
N366 Co369 2.135 . S
C367 N365 1.340 . S
C367 N366 1.321 . S
C367 H391 0.930 . S
H368 C363 0.931 . S
Co369 N366 2.135 . S
Co369 N372 2.121 . S
Co369 O377 2.055 . S
Co369 O380 2.039 . S
Co369 N383 2.140 . S
C370 O371 1.227 . S
C370 O380 1.265 . S
O371 C370 1.227 . S
N372 Co369 2.121 . S
N372 C374 1.375 . S
N372 C375 1.313 . S
C373 C374 1.338 . S
C373 N376 1.377 . S
C373 H393 0.930 . S
C374 N372 1.375 . S
C374 C373 1.338 . S
C374 H378 0.931 . S
C375 N372 1.313 . S
C375 N376 1.344 . S
C375 H379 0.930 . S
N376 C373 1.377 . S
N376 C375 1.344 . S
O377 Co369 2.055 . S
O377 C381 1.253 . S
H378 C374 0.931 . S
H379 C375 0.930 . S
O380 Co369 2.039 . S
O380 C370 1.265 . S
C381 O377 1.253 . S
C381 O382 1.227 . S
O382 C381 1.227 . S
N383 Co369 2.140 . S
N383 C386 1.346 . S
N383 C387 1.345 . S
C384 C385 1.387 . S
C384 C388 1.391 . S
C385 C384 1.387 . S
C385 C386 1.369 . S
C385 H394 0.929 . S
C386 N383 1.346 . S
C386 C385 1.369 . S
C386 H389 0.928 . S
C387 N383 1.345 . S
C387 C388 1.371 . S
C387 H390 0.931 . S
C388 C384 1.391 . S
C388 C387 1.371 . S
C388 H395 0.930 . S
H389 C386 0.928 . S
H390 C387 0.931 . S
H391 C367 0.930 . S
H392 C364 0.930 . S
H393 C373 0.930 . S
H394 C385 0.929 . S
H395 C388 0.930 . S
C396 C397 1.387 . S
C396 H400 0.950 . S
C396 C405 1.390 1_554 S
C397 C396 1.387 . S
C397 C399 1.387 . S
H398 C405 0.950 . S
C399 C397 1.387 . S
C399 C401 1.390 1_554 S
C399 H403 0.950 . S
H400 C396 0.950 . S
C401 C399 1.390 1_556 S
C401 C402 1.387 . S
C401 H404 0.950 . S
C402 C401 1.387 . S
C402 C405 1.387 . S
H403 C399 0.950 . S
H404 C401 0.950 . S
C405 C396 1.390 1_556 S
C405 H398 0.950 . S
C405 C402 1.387 . S
C406 C407 1.387 . S
C406 H410 0.950 . S
C406 C415 1.390 . S
C407 C406 1.387 . S
C407 C409 1.387 . S
H408 C415 0.950 . S
C409 C407 1.387 . S
C409 C411 1.390 . S
C409 H413 0.950 . S
H410 C406 0.950 . S
C411 C409 1.390 . S
C411 C412 1.387 . S
C411 H414 0.950 . S
C412 C411 1.387 . S
C412 C415 1.387 . S
H413 C409 0.950 . S
H414 C411 0.950 . S
C415 C406 1.390 . S
C415 H408 0.950 . S
C415 C412 1.387 . S
C416 C417 1.387 . S
C416 H420 0.950 . S
C416 C425 1.390 1_554 S
C417 C416 1.387 . S
C417 C419 1.387 . S
H418 C425 0.950 . S
C419 C417 1.387 . S
C419 C421 1.390 1_554 S
C419 H423 0.950 . S
H420 C416 0.950 . S
C421 C419 1.390 1_556 S
C421 C422 1.387 . S
C421 H424 0.950 . S
C422 C421 1.387 . S
C422 C425 1.387 . S
H423 C419 0.950 . S
H424 C421 0.950 . S
C425 C416 1.390 1_556 S
C425 H418 0.950 . S
C425 C422 1.387 . S
C426 C427 1.387 . S
C426 H430 0.950 . S
C426 C435 1.390 . S
C427 C426 1.387 . S
C427 C429 1.387 . S
H428 C435 0.950 . S
C429 C427 1.387 . S
C429 C431 1.390 . S
C429 H433 0.950 . S
H430 C426 0.950 . S
C431 C429 1.390 . S
C431 C432 1.387 . S
C431 H434 0.950 . S
C432 C431 1.387 . S
C432 C435 1.387 . S
H433 C429 0.950 . S
H434 C431 0.950 . S
C435 C426 1.390 . S
C435 H428 0.950 . S
C435 C432 1.387 . S
C436 C437 1.387 . S
C436 H440 0.950 . S
C436 C445 1.390 . S
C437 C436 1.387 . S
C437 C439 1.387 1_554 S
H438 C445 0.950 . S
C439 C437 1.387 1_556 S
C439 C441 1.390 . S
C439 H443 0.950 . S
H440 C436 0.950 . S
C441 C439 1.390 . S
C441 C442 1.387 . S
C441 H444 0.950 . S
C442 C441 1.387 . S
C442 C445 1.387 1_556 S
H443 C439 0.950 . S
H444 C441 0.950 . S
C445 C436 1.390 . S
C445 H438 0.950 . S
C445 C442 1.387 1_554 S
C446 C447 1.387 . S
C446 H450 0.950 . S
C446 C455 1.390 . S
C447 C446 1.387 . S
C447 C449 1.387 . S
H448 C455 0.950 . S
C449 C447 1.387 . S
C449 C451 1.390 . S
C449 H453 0.950 . S
H450 C446 0.950 . S
C451 C449 1.390 . S
C451 C452 1.387 . S
C451 H454 0.950 . S
C452 C451 1.387 . S
C452 C455 1.387 . S
H453 C449 0.950 . S
H454 C451 0.950 . S
C455 C446 1.390 . S
C455 H448 0.950 . S
C455 C452 1.387 . S
C456 C457 1.387 1_556 S
C456 H460 0.950 . S
C456 C465 1.390 . S
C457 C456 1.387 1_554 S
C457 C459 1.387 . S
H458 C465 0.950 . S
C459 C457 1.387 . S
C459 C461 1.390 . S
C459 H463 0.950 . S
H460 C456 0.950 . S
C461 C459 1.390 . S
C461 C462 1.387 1_554 S
C461 H464 0.950 . S
C462 C461 1.387 1_556 S
C462 C465 1.387 . S
H463 C459 0.950 . S
H464 C461 0.950 . S
C465 C456 1.390 . S
C465 H458 0.950 . S
C465 C462 1.387 . S
C466 C467 1.387 . S
C466 H470 0.950 . S
C466 C475 1.390 . S
C467 C466 1.387 . S
C467 C469 1.387 . S
H468 C475 0.950 . S
C469 C467 1.387 . S
C469 C471 1.390 . S
C469 H473 0.950 . S
H470 C466 0.950 . S
C471 C469 1.390 . S
C471 C472 1.387 . S
C471 H474 0.950 . S
C472 C471 1.387 . S
C472 C475 1.387 . S
H473 C469 0.950 . S
H474 C471 0.950 . S
C475 C466 1.390 . S
C475 H468 0.950 . S
C475 C472 1.387 . S
C476 C477 1.387 . S
C476 H480 0.950 . S
C476 C485 1.390 1_554 S
C477 C476 1.387 . S
C477 C479 1.387 . S
H478 C485 0.950 . S
C479 C477 1.387 . S
C479 C481 1.390 1_554 S
C479 H483 0.950 . S
H480 C476 0.950 . S
C481 C479 1.390 1_556 S
C481 C482 1.387 . S
C481 H484 0.950 . S
C482 C481 1.387 . S
C482 C485 1.387 . S
H483 C479 0.950 . S
H484 C481 0.950 . S
C485 C476 1.390 1_556 S
C485 H478 0.950 . S
C485 C482 1.387 . S
C486 C487 1.387 . S
C486 H490 0.950 . S
C486 C495 1.390 . S
C487 C486 1.387 . S
C487 C489 1.387 . S
H488 C495 0.950 . S
C489 C487 1.387 . S
C489 C491 1.390 . S
C489 H493 0.950 . S
H490 C486 0.950 . S
C491 C489 1.390 . S
C491 C492 1.387 . S
C491 H494 0.950 . S
C492 C491 1.387 . S
C492 C495 1.387 . S
H493 C489 0.950 . S
H494 C491 0.950 . S
C495 C486 1.390 . S
C495 H488 0.950 . S
C495 C492 1.387 . S
C496 C497 1.387 1_556 S
C496 H500 0.950 . S
C496 C505 1.390 . S
C497 C496 1.387 1_554 S
C497 C499 1.387 . S
H498 C505 0.950 . S
C499 C497 1.387 . S
C499 C501 1.390 . S
C499 H503 0.950 . S
H500 C496 0.950 . S
C501 C499 1.390 . S
C501 C502 1.387 1_554 S
C501 H504 0.950 . S
C502 C501 1.387 1_556 S
C502 C505 1.387 . S
H503 C499 0.950 . S
H504 C501 0.950 . S
C505 C496 1.390 . S
C505 H498 0.950 . S
C505 C502 1.387 . S
C506 C507 1.387 . S
C506 H510 0.950 . S
C506 C515 1.390 . S
C507 C506 1.387 . S
C507 C509 1.387 . S
H508 C515 0.950 . S
C509 C507 1.387 . S
C509 C511 1.390 . S
C509 H513 0.950 . S
H510 C506 0.950 . S
C511 C509 1.390 . S
C511 C512 1.387 . S
C511 H514 0.950 . S
C512 C511 1.387 . S
C512 C515 1.387 . S
H513 C509 0.950 . S
H514 C511 0.950 . S
C515 C506 1.390 . S
C515 H508 0.950 . S
C515 C512 1.387 . S
C516 C517 1.387 . S
C516 H520 0.950 . S
C516 C525 1.390 1_556 S
C517 C516 1.387 . S
C517 C519 1.387 . S
H518 C525 0.950 . S
C519 C517 1.387 . S
C519 C521 1.390 1_556 S
C519 H523 0.950 . S
H520 C516 0.950 . S
C521 C519 1.390 1_554 S
C521 C522 1.387 . S
C521 H524 0.950 . S
C522 C521 1.387 . S
C522 C525 1.387 . S
H523 C519 0.950 . S
H524 C521 0.950 . S
C525 C516 1.390 1_554 S
C525 H518 0.950 . S
C525 C522 1.387 . S
C526 C527 1.387 . S
C526 H530 0.950 . S
C526 C535 1.390 . S
C527 C526 1.387 . S
C527 C529 1.387 . S
H528 C535 0.950 . S
C529 C527 1.387 . S
C529 C531 1.390 . S
C529 H533 0.950 . S
H530 C526 0.950 . S
C531 C529 1.390 . S
C531 C532 1.387 . S
C531 H534 0.950 . S
C532 C531 1.387 . S
C532 C535 1.387 . S
H533 C529 0.950 . S
H534 C531 0.950 . S
C535 C526 1.390 . S
C535 H528 0.950 . S
C535 C532 1.387 . S
C536 C537 1.387 1_556 S
C536 H540 0.950 . S
C536 C545 1.390 . S
C537 C536 1.387 1_554 S
C537 C539 1.387 . S
H538 C545 0.950 . S
C539 C537 1.387 . S
C539 C541 1.390 . S
C539 H543 0.950 . S
H540 C536 0.950 . S
C541 C539 1.390 . S
C541 C542 1.387 1_554 S
C541 H544 0.950 . S
C542 C541 1.387 1_556 S
C542 C545 1.387 . S
H543 C539 0.950 . S
H544 C541 0.950 . S
C545 C536 1.390 . S
C545 H538 0.950 . S
C545 C542 1.387 . S
C546 C547 1.387 . S
C546 H550 0.950 . S
C546 C555 1.390 . S
C547 C546 1.387 . S
C547 C549 1.387 . S
H548 C555 0.950 . S
C549 C547 1.387 . S
C549 C551 1.390 . S
C549 H553 0.950 . S
H550 C546 0.950 . S
C551 C549 1.390 . S
C551 C552 1.387 . S
C551 H554 0.950 . S
C552 C551 1.387 . S
C552 C555 1.387 . S
H553 C549 0.950 . S
H554 C551 0.950 . S
C555 C546 1.390 . S
C555 H548 0.950 . S
C555 C552 1.387 . S
C556 C557 1.387 1_556 S
C556 H560 0.950 . S
C556 C565 1.390 . S
C557 C556 1.387 1_554 S
C557 C559 1.387 . S
H558 C565 0.950 . S
C559 C557 1.387 . S
C559 C561 1.390 . S
C559 H563 0.950 . S
H560 C556 0.950 . S
C561 C559 1.390 . S
C561 C562 1.387 1_554 S
C561 H564 0.950 . S
C562 C561 1.387 1_556 S
C562 C565 1.387 . S
H563 C559 0.950 . S
H564 C561 0.950 . S
C565 C556 1.390 . S
C565 H558 0.950 . S
C565 C562 1.387 . S
C566 C567 1.387 . S
C566 H570 0.950 . S
C566 C575 1.390 . S
C567 C566 1.387 . S
C567 C569 1.387 . S
H568 C575 0.950 . S
C569 C567 1.387 . S
C569 C571 1.390 . S
C569 H573 0.950 . S
H570 C566 0.950 . S
C571 C569 1.390 . S
C571 C572 1.387 . S
C571 H574 0.950 . S
C572 C571 1.387 . S
C572 C575 1.387 . S
H573 C569 0.950 . S
H574 C571 0.950 . S
C575 C566 1.390 . S
C575 H568 0.950 . S
C575 C572 1.387 . S
C576 C577 1.387 . S
C576 H580 0.950 . S
C576 C585 1.390 1_556 S
C577 C576 1.387 . S
C577 C579 1.387 . S
H578 C585 0.950 . S
C579 C577 1.387 . S
C579 C581 1.390 1_556 S
C579 H583 0.950 . S
H580 C576 0.950 . S
C581 C579 1.390 1_554 S
C581 C582 1.387 . S
C581 H584 0.950 . S
C582 C581 1.387 . S
C582 C585 1.387 . S
H583 C579 0.950 . S
H584 C581 0.950 . S
C585 C576 1.390 1_554 S
C585 H578 0.950 . S
C585 C582 1.387 . S
C586 C587 1.387 . S
C586 H590 0.950 . S
C586 C595 1.390 . S
C587 C586 1.387 . S
C587 C589 1.387 . S
H588 C595 0.950 . S
C589 C587 1.387 . S
C589 C591 1.390 . S
C589 H593 0.950 . S
H590 C586 0.950 . S
C591 C589 1.390 . S
C591 C592 1.387 . S
C591 H594 0.950 . S
C592 C591 1.387 . S
C592 C595 1.387 . S
H593 C589 0.950 . S
H594 C591 0.950 . S
C595 C586 1.390 . S
C595 H588 0.950 . S
C595 C592 1.387 . S
C596 C597 1.387 . S
C596 H600 0.950 . S
C596 C605 1.390 1_554 S
C597 C596 1.387 . S
C597 C599 1.387 . S
H598 C605 0.950 . S
C599 C597 1.387 . S
C599 C601 1.390 1_554 S
C599 H603 0.950 . S
H600 C596 0.950 . S
C601 C599 1.390 1_556 S
C601 C602 1.387 . S
C601 H604 0.950 . S
C602 C601 1.387 . S
C602 C605 1.387 . S
H603 C599 0.950 . S
H604 C601 0.950 . S
C605 C596 1.390 1_556 S
C605 H598 0.950 . S
C605 C602 1.387 . S
C606 C607 1.387 . S
C606 H610 0.950 . S
C606 C615 1.390 . S
C607 C606 1.387 . S
C607 C609 1.387 . S
H608 C615 0.950 . S
C609 C607 1.387 . S
C609 C611 1.390 . S
C609 H613 0.950 . S
H610 C606 0.950 . S
C611 C609 1.390 . S
C611 C612 1.387 . S
C611 H614 0.950 . S
C612 C611 1.387 . S
C612 C615 1.387 . S
H613 C609 0.950 . S
H614 C611 0.950 . S
C615 C606 1.390 . S
C615 H608 0.950 . S
C615 C612 1.387 . S
C616 C617 1.387 . S
C616 H620 0.950 . S
C616 C625 1.390 1_554 S
C617 C616 1.387 . S
C617 C619 1.387 . S
H618 C625 0.950 . S
C619 C617 1.387 . S
C619 C621 1.390 1_554 S
C619 H623 0.950 . S
H620 C616 0.950 . S
C621 C619 1.390 1_556 S
C621 C622 1.387 . S
C621 H624 0.950 . S
C622 C621 1.387 . S
C622 C625 1.387 . S
H623 C619 0.950 . S
H624 C621 0.950 . S
C625 C616 1.390 1_556 S
C625 H618 0.950 . S
C625 C622 1.387 . S
C626 C627 1.387 . S
C626 H630 0.950 . S
C626 C635 1.390 . S
C627 C626 1.387 . S
C627 C629 1.387 . S
H628 C635 0.950 . S
C629 C627 1.387 . S
C629 C631 1.390 . S
C629 H633 0.950 . S
H630 C626 0.950 . S
C631 C629 1.390 . S
C631 C632 1.387 . S
C631 H634 0.950 . S
C632 C631 1.387 . S
C632 C635 1.387 . S
H633 C629 0.950 . S
H634 C631 0.950 . S
C635 C626 1.390 . S
C635 H628 0.950 . S
C635 C632 1.387 . S
C636 C637 1.387 . S
C636 H640 0.950 . S
C636 C645 1.390 . S
C637 C636 1.387 . S
C637 C639 1.387 . S
H638 C645 0.950 . S
C639 C637 1.387 . S
C639 C641 1.390 . S
C639 H643 0.950 . S
H640 C636 0.950 . S
C641 C639 1.390 . S
C641 C642 1.387 . S
C641 H644 0.950 . S
C642 C641 1.387 . S
C642 C645 1.387 . S
H643 C639 0.950 . S
H644 C641 0.950 . S
C645 C636 1.390 . S
C645 H638 0.950 . S
C645 C642 1.387 . S
C646 C647 1.387 . S
C646 H650 0.950 . S
C646 C655 1.390 1_455 S
C647 C646 1.387 . S
C647 C649 1.387 . S
H648 C655 0.950 . S
C649 C647 1.387 . S
C649 C651 1.390 1_455 S
C649 H653 0.950 . S
H650 C646 0.950 . S
C651 C649 1.390 1_655 S
C651 C652 1.387 . S
C651 H654 0.950 . S
C652 C651 1.387 . S
C652 C655 1.387 . S
H653 C649 0.950 . S
H654 C651 0.950 . S
C655 C646 1.390 1_655 S
C655 H648 0.950 . S
C655 C652 1.387 . S
C656 C657 1.387 . S
C656 H660 0.950 . S
C656 C665 1.390 1_545 S
C657 C656 1.387 . S
C657 C659 1.387 . S
H658 C665 0.950 . S
C659 C657 1.387 . S
C659 C661 1.390 1_545 S
C659 H663 0.950 . S
H660 C656 0.950 . S
C661 C659 1.390 1_565 S
C661 C662 1.387 . S
C661 H664 0.950 . S
C662 C661 1.387 . S
C662 C665 1.387 . S
H663 C659 0.950 . S
H664 C661 0.950 . S
C665 C656 1.390 1_565 S
C665 H658 0.950 . S
C665 C662 1.387 . S
C666 C667 1.387 . S
C666 H670 0.950 . S
C666 C675 1.390 . S
C667 C666 1.387 . S
C667 C669 1.387 . S
H668 C675 0.950 . S
C669 C667 1.387 . S
C669 C671 1.390 . S
C669 H673 0.950 . S
H670 C666 0.950 . S
C671 C669 1.390 . S
C671 C672 1.387 . S
C671 H674 0.950 . S
C672 C671 1.387 . S
C672 C675 1.387 . S
H673 C669 0.950 . S
H674 C671 0.950 . S
C675 C666 1.390 . S
C675 H668 0.950 . S
C675 C672 1.387 . S
C676 C677 1.387 . S
C676 H680 0.950 . S
C676 C685 1.390 1_455 S
C677 C676 1.387 . S
C677 C679 1.387 . S
H678 C685 0.950 . S
C679 C677 1.387 . S
C679 C681 1.390 1_455 S
C679 H683 0.950 . S
H680 C676 0.950 . S
C681 C679 1.390 1_655 S
C681 C682 1.387 . S
C681 H684 0.950 . S
C682 C681 1.387 . S
C682 C685 1.387 . S
H683 C679 0.950 . S
H684 C681 0.950 . S
C685 C676 1.390 1_655 S
C685 H678 0.950 . S
C685 C682 1.387 . S
C686 C687 1.387 . S
C686 H690 0.950 . S
C686 C695 1.390 1_565 S
C687 C686 1.387 . S
C687 C689 1.387 . S
H688 C695 0.950 . S
C689 C687 1.387 . S
C689 C691 1.390 1_565 S
C689 H693 0.950 . S
H690 C686 0.950 . S
C691 C689 1.390 1_545 S
C691 C692 1.387 . S
C691 H694 0.950 . S
C692 C691 1.387 . S
C692 C695 1.387 . S
H693 C689 0.950 . S
H694 C691 0.950 . S
C695 C686 1.390 1_545 S
C695 H688 0.950 . S
C695 C692 1.387 . S
C397 C7 2.321 . S
C402 C205 2.321 . S
C407 C40 2.321 . S
C412 C238 2.322 . S
C417 C73 2.322 . S
C422 C271 2.322 . S
C427 C304 2.322 . S
C432 C106 2.322 . S
C437 C139 2.322 . S
C442 C337 2.321 . S
C447 C370 2.322 . S
C452 C172 2.322 . S
C457 N310 0.959 . S
C462 N112 0.959 . S
C467 N145 0.954 . S
C472 N343 0.955 . S
C477 N376 0.960 . S
C482 N178 0.960 . S
C487 N211 0.959 . S
C492 N13 0.959 . S
C497 N244 0.954 . S
C502 N46 0.954 . S
C507 N79 0.954 . S
C512 N277 0.954 . S
C517 N332 0.906 . S
C522 N2 0.906 . S
C527 N35 0.902 . S
C532 N365 0.904 . S
C537 N68 0.900 . S
C542 N200 0.902 . S
C547 N101 0.906 . S
C552 N233 0.906 . S
C557 N134 0.900 . S
C562 N266 0.902 . S
C567 N167 0.901 . S
C572 N299 0.900 . S
C577 C117 1.875 . S
C582 C249 1.875 . S
C587 C150 1.875 . S
C592 C282 1.875 . S
C597 C315 1.875 . S
C602 C183 1.875 . S
C607 C18 1.875 . S
C612 C348 1.875 . S
C617 C381 1.875 . S
C622 C51 1.875 . S
C627 C84 1.875 . S
C632 C216 1.875 . S
C637 C21 1.362 . S
C642 C318 1.364 . S
C647 C351 1.363 . S
C652 C54 1.361 . S
C657 C384 1.363 . S
C662 C87 1.363 . S
C667 C219 1.363 . S
C672 C120 1.361 . S
C677 C153 1.364 . S
C682 C252 1.362 . S
C687 C285 1.362 . S
C692 C186 1.362 . S
