# Generated by pormake.
# Topology lhb, (8)-cn, num edge types: 1
# Building blocks:
#     Node 0, Type 0, BuildingBlock: TAGTUT_clean_sbu_3, # of connection points: 8
#     Node 1, Type 0, BuildingBlock: TAGTUT_clean_sbu_3, # of connection points: 8
#     Node 2, Type 0, BuildingBlock: TAGTUT_clean_sbu_3, # of connection points: 8
#     Node 3, Type 0, BuildingBlock: TAGTUT_clean_sbu_3, # of connection points: 8
#     Node 4, Type 0, BuildingBlock: TAGTUT_clean_sbu_3, # of connection points: 8
#     Node 5, Type 0, BuildingBlock: TAGTUT_clean_sbu_3, # of connection points: 8
#     Node 6, Type 0, BuildingBlock: TAGTUT_clean_sbu_3, # of connection points: 8
#     Node 7, Type 0, BuildingBlock: TAGTUT_clean_sbu_3, # of connection points: 8
#     Edge 8, Type (0, 0), BuildingBlock: XUDNAN_clean_linker_2, # of connection points: 2
#     Edge 9, Type (0, 0), BuildingBlock: XUDNAN_clean_linker_2, # of connection points: 2
#     Edge 10, Type (0, 0), BuildingBlock: XUDNAN_clean_linker_2, # of connection points: 2
#     Edge 11, Type (0, 0), BuildingBlock: XUDNAN_clean_linker_2, # of connection points: 2
#     Edge 12, Type (0, 0), BuildingBlock: XUDNAN_clean_linker_2, # of connection points: 2
#     Edge 13, Type (0, 0), BuildingBlock: XUDNAN_clean_linker_2, # of connection points: 2
#     Edge 14, Type (0, 0), BuildingBlock: XUDNAN_clean_linker_2, # of connection points: 2
#     Edge 15, Type (0, 0), BuildingBlock: XUDNAN_clean_linker_2, # of connection points: 2
#     Edge 16, Type (0, 0), BuildingBlock: XUDNAN_clean_linker_2, # of connection points: 2
#     Edge 17, Type (0, 0), BuildingBlock: XUDNAN_clean_linker_2, # of connection points: 2
#     Edge 18, Type (0, 0), BuildingBlock: XUDNAN_clean_linker_2, # of connection points: 2
#     Edge 19, Type (0, 0), BuildingBlock: XUDNAN_clean_linker_2, # of connection points: 2
#     Edge 20, Type (0, 0), BuildingBlock: XUDNAN_clean_linker_2, # of connection points: 2
#     Edge 21, Type (0, 0), BuildingBlock: XUDNAN_clean_linker_2, # of connection points: 2
#     Edge 22, Type (0, 0), BuildingBlock: XUDNAN_clean_linker_2, # of connection points: 2
#     Edge 23, Type (0, 0), BuildingBlock: XUDNAN_clean_linker_2, # of connection points: 2
#     Edge 24, Type (0, 0), BuildingBlock: XUDNAN_clean_linker_2, # of connection points: 2
#     Edge 25, Type (0, 0), BuildingBlock: XUDNAN_clean_linker_2, # of connection points: 2
#     Edge 26, Type (0, 0), BuildingBlock: XUDNAN_clean_linker_2, # of connection points: 2
#     Edge 27, Type (0, 0), BuildingBlock: XUDNAN_clean_linker_2, # of connection points: 2
#     Edge 28, Type (0, 0), BuildingBlock: XUDNAN_clean_linker_2, # of connection points: 2
#     Edge 29, Type (0, 0), BuildingBlock: XUDNAN_clean_linker_2, # of connection points: 2
#     Edge 30, Type (0, 0), BuildingBlock: XUDNAN_clean_linker_2, # of connection points: 2
#     Edge 31, Type (0, 0), BuildingBlock: XUDNAN_clean_linker_2, # of connection points: 2
#     Edge 32, Type (0, 0), BuildingBlock: XUDNAN_clean_linker_2, # of connection points: 2
#     Edge 33, Type (0, 0), BuildingBlock: XUDNAN_clean_linker_2, # of connection points: 2
#     Edge 34, Type (0, 0), BuildingBlock: XUDNAN_clean_linker_2, # of connection points: 2
#     Edge 35, Type (0, 0), BuildingBlock: XUDNAN_clean_linker_2, # of connection points: 2
#     Edge 36, Type (0, 0), BuildingBlock: XUDNAN_clean_linker_2, # of connection points: 2
#     Edge 37, Type (0, 0), BuildingBlock: XUDNAN_clean_linker_2, # of connection points: 2
#     Edge 38, Type (0, 0), BuildingBlock: XUDNAN_clean_linker_2, # of connection points: 2
#     Edge 39, Type (0, 0), BuildingBlock: XUDNAN_clean_linker_2, # of connection points: 2
# Relax obj value: 0.102
# Max RMSD: 0.194
# Mean RMSD: 0.194
data_MOF--net-lhb--node1-TAGTUT_clean_sbu_3--edge1-XUDNAN_clean_linker_2
_symmetry_space_group_name_H-M    P1
_symmetry_Int_Tables_number       1
_symmetry_cell_setting            triclinic
loop_
_symmetry_equiv_pos_as_xyz
'x, y, z'
_cell_length_a     33.870508
_cell_length_b     14.94106
_cell_length_c     57.521714
_cell_angle_alpha  96.243788
_cell_angle_beta   89.720498
_cell_angle_gamma 90.528849
loop_
_atom_site_label
_atom_site_type_symbol
_atom_site_fract_x
_atom_site_fract_y
_atom_site_fract_z
_atom_type_partial_charge
C0 C 0.02397 0.21415 0.98659 0.0
C1 C 0.93536 0.04249 0.92999 0.0
C2 C 0.88412 0.91989 0.98853 0.0
Mg3 Mg 0.06122 0.17933 0.03526 0.0
Mg4 Mg 0.07985 0.97436 0.04928 0.0
O5 O 0.04384 0.05101 0.03767 0.0
Mg6 Mg 0.01315 0.02535 0.00818 0.0
O7 O 0.98104 0.01313 0.97922 0.0
Mg8 Mg 0.94105 0.10715 0.9879 0.0
Mg9 Mg 0.96369 0.90421 0.96309 0.0
C10 C 0.01332 0.83394 0.02976 0.0
O11 O 0.05964 0.93987 0.9868 0.0
O12 O 0.07748 0.18634 0.07479 0.0
O13 O 0.02148 0.84047 0.96393 0.0
O14 O 0.12473 0.13383 0.02528 0.0
O15 O 0.08113 0.04315 0.0837 0.0
O16 O 0.13583 -0.00777 0.03214 0.0
O17 O 0.9617 0.10306 0.02755 0.0
O18 O 0.99686 0.2209 0.04255 0.0
C19 C 0.97079 0.16053 0.04507 0.0
C20 C 0.08138 0.12829 0.08958 0.0
O21 O 0.99319 0.89219 0.02011 0.0
O22 O 0.9279 0.09891 0.94798 0.0
O23 O 0.04633 0.85249 0.04016 0.0
O24 O 0.89323 0.00317 0.99215 0.0
O25 O 0.94953 0.96424 0.93178 0.0
O26 O 0.90841 0.86251 0.97869 0.0
O27 O 0.04056 0.15549 0.99753 0.0
O28 O 0.98737 0.20846 0.98201 0.0
C29 C 0.14735 0.06543 0.02464 0.0
C30 C 0.05516 0.86894 0.97216 0.0
C31 C 0.36366 0.28724 0.30755 0.0
C32 C 0.22166 0.24838 0.33397 0.0
C33 C 0.18913 0.34578 0.26768 0.0
Mg34 Mg 0.3999 0.30424 0.254 0.0
Mg35 Mg 0.36146 0.16558 0.21068 0.0
O36 O 0.3533 0.25924 0.2348 0.0
Mg37 Mg 0.31459 0.24357 0.25995 0.0
O38 O 0.2775 0.23515 0.28669 0.0
Mg39 Mg 0.27487 0.36669 0.29853 0.0
Mg40 Mg 0.22886 0.17806 0.28184 0.0
C41 C 0.26741 0.18491 0.21182 0.0
O42 O 0.31444 0.09233 0.25345 0.0
O43 O 0.4233 0.34668 0.21821 0.0
O44 O 0.24989 0.06342 0.25994 0.0
O45 O 0.43112 0.17155 0.24754 0.0
O46 O 0.39431 0.25084 0.19017 0.0
O47 O 0.40306 0.06805 0.22209 0.0
O48 O 0.30829 0.39258 0.26548 0.0
O49 O 0.36976 0.43615 0.25982 0.0
C50 C 0.3335 0.45433 0.26324 0.0
C51 C 0.41613 0.31952 0.19655 0.0
O52 O 0.26737 0.2291 0.23221 0.0
O53 O 0.24152 0.31863 0.32981 0.0
O54 O 0.29842 0.14865 0.20187 0.0
O55 O 0.21441 0.39332 0.28026 0.0
O56 O 0.2131 0.18417 0.3181 0.0
O57 O 0.19132 0.26056 0.26443 0.0
O58 O 0.36529 0.25481 0.28599 0.0
O59 O 0.33419 0.33514 0.31537 0.0
C60 C 0.4305 0.09276 0.23666 0.0
C61 C 0.28373 0.04114 0.25119 0.0
C62 C 0.87681 0.88494 0.3016 0.0
C63 C 0.73469 0.83347 0.33028 0.0
C64 C 0.69856 0.88458 0.26101 0.0
Mg65 Mg 0.91505 0.86806 0.24826 0.0
Mg66 Mg 0.87742 0.72495 0.20579 0.0
O67 O 0.86879 0.81868 0.22959 0.0
Mg68 Mg 0.82983 0.80911 0.25506 0.0
O69 O 0.79251 0.80772 0.28214 0.0
Mg70 Mg 0.78487 0.94054 0.28994 0.0
Mg71 Mg 0.7466 0.73941 0.28051 0.0
C72 C 0.78363 0.73405 0.20708 0.0
O73 O 0.83282 0.65746 0.25216 0.0
O74 O 0.94111 0.89984 0.21158 0.0
O75 O 0.76952 0.62345 0.26057 0.0
O76 O 0.94686 0.73181 0.24515 0.0
O77 O 0.91056 0.80612 0.18389 0.0
O78 O 0.91744 0.63134 0.21916 0.0
O79 O 0.82027 0.95719 0.25632 0.0
O80 O 0.88266 -0.00228 0.25058 0.0
C81 C 0.84619 0.01699 0.25312 0.0
C82 C 0.93412 0.87213 0.18991 0.0
O83 O 0.78339 0.78238 0.22692 0.0
O84 O 0.75174 0.90401 0.32368 0.0
O85 O 0.81504 0.69811 0.19762 0.0
O86 O 0.72274 0.94389 0.27074 0.0
O87 O 0.73067 0.76017 0.31666 0.0
O88 O 0.70433 0.80108 0.26135 0.0
O89 O 0.87975 0.83494 0.28197 0.0
O90 O 0.84531 0.9297 0.3072 0.0
C91 C 0.94436 0.65265 0.2343 0.0
C92 C 0.80305 0.60347 0.25114 0.0
C93 C 1.00009 0.65928 0.51366 0.0
C94 C 0.91565 0.58214 0.43875 0.0
C95 C 0.8697 0.3618 0.47619 0.0
Mg96 Mg 0.04292 0.53758 0.54555 0.0
Mg97 Mg 0.06954 0.33527 0.52491 0.0
O98 O 0.02733 0.41435 0.53093 0.0
Mg99 Mg 0.99563 0.44825 0.50379 0.0
O100 O 0.96424 0.48815 0.47788 0.0
Mg101 Mg 0.92082 0.55227 0.49603 0.0
Mg102 Mg 0.94818 0.40108 0.45336 0.0
C103 C 0.99822 0.23809 0.49498 0.0
O104 O 0.04315 0.40813 0.47709 0.0
O105 O 0.06463 0.46581 0.57638 0.0
O106 O 0.00685 0.34265 0.44687 0.0
O107 O 0.10733 0.53325 0.53134 0.0
O108 O 0.08002 0.32427 0.56176 0.0
O109 O 0.12112 0.4008 0.51161 0.0
O110 O 0.94347 0.48289 0.52828 0.0
O111 O 0.97922 0.53858 0.55905 0.0
C112 C 0.94599 0.51189 0.55003 0.0
C113 C 0.07646 0.38604 0.57902 0.0
O114 O 0.97611 0.30709 0.49657 0.0
O115 O 0.90883 0.61041 0.46041 0.0
O116 O 0.03403 0.23885 0.50255 0.0
O117 O 0.8751 0.4401 0.48695 0.0
O118 O 0.92947 0.50356 0.43231 0.0
O119 O 0.89674 0.3234 0.46329 0.0
O120 O 0.01914 0.58688 0.51276 0.0
O121 O 0.9646 0.66224 0.50651 0.0
C122 C 0.13104 0.48133 0.51902 0.0
C123 C 0.04012 0.36041 0.45721 0.0
C124 C 0.27878 0.82266 0.7382 0.0
C125 C 0.37844 0.68654 0.68709 0.0
C126 C 0.40395 0.50852 0.74248 0.0
Mg127 Mg 0.22542 0.77397 0.78239 0.0
Mg128 Mg 0.19172 0.56934 0.78303 0.0
O129 O 0.23572 0.64127 0.77994 0.0
Mg130 Mg 0.27507 0.62531 0.75351 0.0
O131 O 0.31665 0.62312 0.72835 0.0
Mg132 Mg 0.35666 0.70612 0.74467 0.0
Mg133 Mg 0.33578 0.52708 0.70768 0.0
C134 C 0.25733 0.42604 0.76519 0.0
O135 O 0.23379 0.55381 0.7255 0.0
O136 O 0.19756 0.75928 0.81945 0.0
O137 O 0.27645 0.46779 0.70213 0.0
O138 O 0.1635 0.7558 0.76548 0.0
O139 O 0.18179 0.61242 0.81901 0.0
O140 O 0.14419 0.61224 0.76251 0.0
O141 O 0.32229 0.68689 0.77914 0.0
O142 O 0.28548 0.78989 0.79966 0.0
C143 C 0.31797 0.74756 0.79641 0.0
C144 C 0.18535 0.69168 0.82977 0.0
O145 O 0.28484 0.48299 0.76174 0.0
O146 O 0.38335 0.72222 0.70823 0.0
O147 O 0.2221 0.44828 0.77158 0.0
O148 O 0.3971 0.59034 0.75005 0.0
O149 O 0.36016 0.61124 0.68226 0.0
O150 O 0.38355 0.46639 0.72603 0.0
O151 O 0.25675 0.76365 0.74602 0.0
O152 O 0.31613 0.8156 0.73753 0.0
C153 C 0.13816 0.69391 0.75922 0.0
C154 C 0.24126 0.4902 0.70909 0.0
C155 C 0.81781 0.39038 0.73957 0.0
C156 C 0.86953 0.16453 0.67532 0.0
C157 C 0.88901 -0.00822 0.73195 0.0
Mg158 Mg 0.76936 0.37028 0.78574 0.0
Mg159 Mg 0.71909 0.18542 0.79371 0.0
O160 O 0.76693 0.23684 0.78599 0.0
Mg161 Mg 0.79199 0.19994 0.75501 0.0
O162 O 0.81978 0.17 0.72467 0.0
Mg163 Mg 0.87355 0.21687 0.73356 0.0
Mg164 Mg 0.81706 0.05633 0.70711 0.0
C165 C 0.76983 0.0162 0.77792 0.0
O166 O 0.73418 0.16076 0.73537 0.0
O167 O 0.74822 0.38211 0.82443 0.0
O168 O 0.75326 0.04255 0.70982 0.0
O169 O 0.70312 0.37737 0.77483 0.0
O170 O 0.71613 0.25229 0.8286 0.0
O171 O 0.67498 0.24062 0.77298 0.0
O172 O 0.85129 0.22992 0.77228 0.0
O173 O 0.83402 0.35015 0.7966 0.0
C174 C 0.85934 0.28967 0.78935 0.0
C175 C 0.72925 0.32985 0.83697 0.0
O176 O 0.79201 0.06192 0.7655 0.0
O177 O 0.88577 0.20431 0.69384 0.0
O178 O 0.73826 0.04661 0.78826 0.0
O179 O 0.8973 0.07544 0.7362 0.0
O180 O 0.84232 0.10462 0.67615 0.0
O181 O 0.85698 0.9652 0.72174 0.0
O182 O 0.79068 0.34289 0.74769 0.0
O183 O 0.85004 0.35566 0.73162 0.0
C184 C 0.67369 0.32393 0.77004 0.0
C185 C 0.72658 0.09338 0.72012 0.0
C186 C 0.47767 0.10572 0.495 0.0
C187 C 0.40673 0.91132 0.43366 0.0
C188 C 0.39099 0.72088 0.48703 0.0
Mg189 Mg 0.53196 0.06852 0.5385 0.0
Mg190 Mg 0.58768 0.88837 0.53402 0.0
O191 O 0.5363 0.93413 0.53361 0.0
Mg192 Mg 0.50098 0.90864 0.5057 0.0
O193 O 0.46445 0.89091 0.47858 0.0
Mg194 Mg 0.41475 0.94345 0.4926 0.0
Mg195 Mg 0.46123 0.78324 0.45843 0.0
C196 C 0.53796 0.71925 0.51118 0.0
O197 O 0.55099 0.88112 0.47931 0.0
O198 O 0.56227 0.05865 0.5744 0.0
O199 O 0.52579 0.77203 0.45301 0.0
O200 O 0.59253 0.09405 0.5215 0.0
O201 O 0.59292 0.92405 0.5711 0.0
O202 O 0.62843 0.96976 0.51577 0.0
O203 O 0.4461 0.93042 0.52928 0.0
O204 O 0.47186 0.0388 0.5546 0.0
C205 C 0.44417 -0.0179 0.54856 0.0
C206 C 0.58138 -0.00361 0.5832 0.0
O207 O 0.50627 0.76449 0.50985 0.0
O208 O 0.39478 0.94998 0.45357 0.0
O209 O 0.57136 0.75428 0.518 0.0
O210 O 0.38697 0.80433 0.49397 0.0
O211 O 0.43108 0.84581 0.43203 0.0
O212 O 0.41955 0.69226 0.47368 0.0
O213 O 0.50236 0.05324 0.50258 0.0
O214 O 0.44232 0.08078 0.4904 0.0
C215 C 0.62391 0.05338 0.514 0.0
C216 C 0.55463 0.8228 0.46129 0.0
C217 C 0.46589 0.73121 0.0053 0.0
C218 C 0.39812 0.53388 0.94183 0.0
C219 C 0.40069 0.32718 0.98998 0.0
Mg220 Mg 0.53187 0.69554 0.04159 0.0
Mg221 Mg 0.58873 0.51826 0.03494 0.0
O222 O 0.53703 0.56125 0.03702 0.0
Mg223 Mg 0.50093 0.53778 0.00967 0.0
O224 O 0.46307 0.52072 0.9834 0.0
Mg225 Mg 0.41282 0.55411 1.00021 0.0
Mg226 Mg 0.46288 0.41715 0.96171 0.0
C227 C 0.54234 0.34736 0.0139 0.0
O228 O 0.55089 0.52517 0.98264 0.0
O229 O 0.56855 0.68954 0.07532 0.0
O230 O 0.52662 0.4184 0.95542 0.0
O231 O 0.59003 0.72183 0.02161 0.0
O232 O 0.60384 0.56175 0.07036 0.0
O233 O 0.62314 0.59439 0.01296 0.0
O234 O 0.44846 0.54636 0.03552 0.0
O235 O 0.47445 0.66076 0.05937 0.0
C236 C 0.44731 0.60116 0.05444 0.0
C237 C 0.5928 0.63358 0.08282 0.0
O238 O 0.51118 0.39231 0.01084 0.0
O239 O 0.38792 0.56361 0.96285 0.0
O240 O 0.57503 0.38147 0.02188 0.0
O241 O 0.39264 0.40748 0.99843 0.0
O242 O 0.42579 0.47646 0.93739 0.0
O243 O 0.43009 0.30996 0.9763 0.0
O244 O 0.49564 0.68329 0.00854 0.0
O245 O 0.43184 0.69774 1.00082 0.0
C246 C 0.61938 0.6785 0.01198 0.0
C247 C 0.55496 0.46876 0.96432 0.0
H248 H 0.1358 0.25477 0.10371 0.0
H249 H 0.05459 0.06151 0.12884 0.0
H250 H 0.08766 0.07855 0.16719 0.0
H251 H 0.21477 0.1645 0.12246 0.0
H252 H 0.2435 0.26472 0.13102 0.0
H253 H 0.206 0.26639 0.10918 0.0
H254 H 0.17127 0.39991 0.13328 0.0
H255 H 0.20956 0.40102 0.155 0.0
H256 H 0.1585 0.39187 0.16346 0.0
H257 H 0.13779 0.0886 0.19868 0.0
H258 H 0.20014 0.095 0.22129 0.0
H259 H 0.25234 0.26836 0.17371 0.0
C260 C 0.12363 0.22062 0.11783 0.0
C261 C 0.09224 0.15876 0.11375 0.0
C262 C 0.07811 0.11085 0.13202 0.0
C263 C 0.09678 0.12007 0.1538 0.0
C264 C 0.12973 0.17662 0.15681 0.0
C265 C 0.14282 0.22704 0.13938 0.0
C266 C 0.18306 0.26833 0.14505 0.0
C267 C 0.21359 0.23915 0.12579 0.0
C268 C 0.18042 0.37141 0.14947 0.0
C269 C 0.19178 0.22785 0.16737 0.0
C270 C 0.16016 0.17783 0.17435 0.0
C271 C 0.16245 0.12891 0.19363 0.0
C272 C 0.19789 0.13198 0.20617 0.0
C273 C 0.23057 0.18105 0.1988 0.0
C274 C 0.22747 0.23001 0.17939 0.0
H275 H 0.94616 -0.00449 0.05836 0.0
H276 H 0.98914 0.26007 0.08636 0.0
H277 H 0.98967 0.21155 0.12595 0.0
H278 H 0.88147 0.96177 0.10639 0.0
H279 H 0.89152 0.8431 0.10527 0.0
H280 H 0.89538 0.89871 0.07911 0.0
H281 H 0.96674 0.84152 0.07335 0.0
H282 H 0.9642 0.78811 0.09991 0.0
H283 H 1.00275 0.86925 0.09603 0.0
H284 H 0.98531 0.13447 0.1629 0.0
H285 H 0.97054 0.03893 0.19441 0.0
H286 H 0.93053 0.82518 0.14242 0.0
C287 C 0.95546 0.04356 0.07279 0.0
C288 C 0.96776 0.13174 0.06906 0.0
C289 C 0.9797 0.19207 0.08861 0.0
C290 C 0.98024 0.1651 0.11122 0.0
C291 C 0.96869 0.07741 0.1142 0.0
C292 C 0.95622 0.01776 0.09555 0.0
C293 C 0.94435 0.92803 0.10363 0.0
C294 C 0.90058 0.90669 0.09829 0.0
C295 C 0.97113 0.85228 0.09258 0.0
C296 C 0.95151 0.94711 0.12974 0.0
C297 C 0.966 0.03328 0.13547 0.0
C298 C 0.97399 0.06674 0.1586 0.0
C299 C 0.96575 0.01168 0.17641 0.0
C300 C 0.94942 0.92421 0.17104 0.0
C301 C 0.94314 0.89141 0.14725 0.0
H302 H 0.04673 0.22988 0.42033 0.0
H303 H 0.11528 0.4181 0.46698 0.0
H304 H 0.17538 0.37482 0.44462 0.0
H305 H 0.13032 0.05957 0.40451 0.0
H306 H 0.11337 0.04244 0.37469 0.0
H307 H 0.07836 0.06534 0.39828 0.0
H308 H 0.05153 0.20009 0.37848 0.0
H309 H 0.08631 0.17798 0.35504 0.0
H310 H 0.08522 0.28765 0.37156 0.0
H311 H 0.22269 0.34404 0.41331 0.0
H312 H 0.25355 0.32935 0.37429 0.0
H313 H 0.15589 0.16063 0.34696 0.0
C314 C 0.07467 0.25958 0.42629 0.0
C315 C 0.07654 0.32626 0.44558 0.0
C316 C 0.11339 0.36504 0.45266 0.0
C317 C 0.14773 0.34071 0.44011 0.0
C318 C 0.14476 0.2771 0.42066 0.0
C319 C 0.1092 0.23635 0.41384 0.0
C320 C 0.11252 0.18295 0.39003 0.0
C321 C 0.10842 0.08154 0.39201 0.0
C322 C 0.08214 0.21415 0.37278 0.0
C323 C 0.1543 0.20743 0.38364 0.0
C324 C 0.17284 0.25907 0.40191 0.0
C325 C 0.20911 0.30135 0.3991 0.0
C326 C 0.22623 0.29339 0.37685 0.0
C327 C 0.20698 0.24367 0.3578 0.0
C328 C 0.1715 0.19723 0.36145 0.0
H329 H 0.90654 0.72203 0.30941 0.0
H330 H 0.89612 -0.0012 0.34011 0.0
H331 H 0.91027 0.95213 0.37904 0.0
H332 H 0.85505 0.63042 0.34998 0.0
H333 H 0.88347 0.52967 0.35123 0.0
H334 H 0.88365 0.58487 0.325 0.0
H335 H 0.95981 0.60022 0.32605 0.0
H336 H 0.96027 0.54153 0.35182 0.0
H337 H 0.98364 0.65057 0.35228 0.0
H338 H 0.91051 0.8719 0.41516 0.0
H339 H 0.90817 0.76633 0.44537 0.0
H340 H 0.91716 0.5414 0.39109 0.0
C341 C 0.90969 0.77353 0.32408 0.0
C342 C 0.90073 0.86424 0.32171 0.0
C343 C 0.90349 0.92919 0.34153 0.0
C344 C 0.91116 0.90313 0.36374 0.0
C345 C 0.91645 0.81198 0.36581 0.0
C346 C 0.91698 0.74837 0.34642 0.0
C347 C 0.91891 0.65387 0.35361 0.0
C348 C 0.88314 0.59642 0.34441 0.0
C349 C 0.95799 0.60891 0.34546 0.0
C350 C 0.9174 0.67412 0.37998 0.0
C351 C 0.91633 0.76563 0.3867 0.0
C352 C 0.91219 0.80011 0.41012 0.0
C353 C 0.91031 0.73953 0.42715 0.0
C354 C 0.91242 0.64542 0.42067 0.0
C355 C 0.91568 0.61287 0.3967 0.0
H356 H 0.07266 0.4994 0.61955 0.0
H357 H 0.11151 0.23331 0.5914 0.0
H358 H 0.14586 0.2173 0.62829 0.0
H359 H 0.15716 0.57122 0.64159 0.0
H360 H 0.13953 0.63558 0.66786 0.0
H361 H 0.10778 0.61576 0.64299 0.0
H362 H 0.05482 0.54351 0.66804 0.0
H363 H 0.08649 0.56559 0.69314 0.0
H364 H 0.06842 0.45299 0.68464 0.0
H365 H 0.18989 0.24587 0.66198 0.0
H366 H 0.23852 0.31534 0.69022 0.0
H367 H 0.17106 0.56175 0.69801 0.0
C368 C 0.08711 0.43629 0.62146 0.0
C369 C 0.08961 0.36788 0.60252 0.0
C370 C 0.10913 0.28672 0.60564 0.0
C371 C 0.12855 0.27677 0.62664 0.0
C372 C 0.1276 0.34787 0.64447 0.0
C373 C 0.10673 0.4256 0.64227 0.0
C374 C 0.11562 0.49776 0.66221 0.0
C375 C 0.13096 0.58509 0.6531 0.0
C376 C 0.07916 0.51596 0.67794 0.0
C377 C 0.14756 0.4516 0.67469 0.0
C378 C 0.15311 0.3641 0.66461 0.0
C379 C 0.18497 0.31296 0.67057 0.0
C380 C 0.2126 0.35312 0.68652 0.0
C381 C 0.20816 0.44339 0.69638 0.0
C382 C 0.17439 0.49177 0.69117 0.0
H383 H 0.91674 0.30852 0.66814 0.0
H384 H 0.83806 0.10894 0.63198 0.0
H385 H 0.84136 0.19046 0.59684 0.0
H386 H 0.87615 0.49922 0.64549 0.0
H387 H 0.92308 0.55537 0.64303 0.0
H388 H 0.91584 0.47978 0.66506 0.0
H389 H 0.97601 0.38472 0.6493 0.0
H390 H 0.98423 0.4621 0.6279 0.0
H391 H 0.9783 0.34361 0.61868 0.0
H392 H 0.85377 0.29499 0.56555 0.0
H393 H 0.88219 0.399 0.53933 0.0
H394 H 0.94787 0.53516 0.59774 0.0
C395 C 0.90059 0.28074 0.65278 0.0
C396 C 0.87716 0.20203 0.65289 0.0
C397 C 0.8564 0.16883 0.63234 0.0
C398 C 0.85772 0.21523 0.61238 0.0
C399 C 0.87968 0.29492 0.61333 0.0
C400 C 0.90119 0.32652 0.63291 0.0
C401 C 0.92311 0.41265 0.62949 0.0
C402 C 0.90866 0.49139 0.6468 0.0
C403 C 0.96804 0.39997 0.63144 0.0
C404 C 0.91099 0.42422 0.60475 0.0
C405 C 0.88575 0.35612 0.59571 0.0
C406 C 0.87331 0.34899 0.5725 0.0
C407 C 0.88931 0.4092 0.55777 0.0
C408 C 0.91767 0.47503 0.56635 0.0
C409 C 0.92626 0.48602 0.59053 0.0
H410 H 0.17964 0.84945 0.85949 0.0
H411 H 0.16961 0.55864 0.85747 0.0
H412 H 0.14984 0.57428 0.89872 0.0
H413 H 0.21286 0.89103 0.92304 0.0
H414 H 0.18416 -0.00758 0.92781 0.0
H415 H 0.20558 0.95921 0.89945 0.0
H416 H 0.13655 0.96359 0.88027 0.0
H417 H 0.1153 -0.00193 0.90841 0.0
H418 H 0.0965 0.89916 0.89108 0.0
H419 H 0.11828 0.619 0.93646 0.0
H420 H 0.0752 0.69232 0.9675 0.0
H421 H 0.1087 0.9536 0.9476 0.0
C422 C 0.17424 0.78912 0.86792 0.0
C423 C 0.17607 0.70301 0.85512 0.0
C424 C 0.16824 0.62563 0.86674 0.0
C425 C 0.1574 0.63359 0.89033 0.0
C426 C 0.15499 0.71929 0.90233 0.0
C427 C 0.16341 0.79586 0.89162 0.0
C428 C 0.15364 0.88006 0.90766 0.0
C429 C 0.19131 0.93385 0.91492 0.0
C430 C 0.12371 0.93855 0.89617 0.0
C431 C 0.13573 0.83854 0.92825 0.0
C432 C 0.13776 0.74557 0.92506 0.0
C433 C 0.11773 0.6917 0.9397 0.0
C434 C 0.09345 0.73363 0.95732 0.0
C435 C 0.0899 0.82823 0.96024 0.0
C436 C 0.11266 0.88135 0.94631 0.0
H437 H 0.86589 0.35638 0.83543 0.0
H438 H 0.91722 0.16205 0.78245 0.0
H439 H 0.9477 0.08436 0.81337 0.0
H440 H 0.94766 0.35241 0.88056 0.0
H441 H 0.91174 0.36174 0.90391 0.0
H442 H 0.90291 0.41466 0.87773 0.0
H443 H 0.83603 0.32946 0.87278 0.0
H444 H 0.84511 0.27363 0.89834 0.0
H445 H 0.83527 0.20819 0.87074 0.0
H446 H 0.95979 0.00962 0.84948 0.0
H447 H 0.96155 0.95555 0.88843 0.0
H448 H 0.90119 0.19729 0.91793 0.0
C449 C 0.88515 0.30027 0.83019 0.0
C450 C 0.88896 0.26525 0.80643 0.0
C451 C 0.91387 0.1904 0.80049 0.0
C452 C 0.93118 0.14545 0.81798 0.0
C453 C 0.92378 0.17705 0.84128 0.0
C454 C 0.90225 0.25422 0.84743 0.0
C455 C 0.89471 0.26831 0.87357 0.0
C456 C 0.91551 0.35438 0.88459 0.0
C457 C 0.85016 0.26995 0.87916 0.0
C458 C 0.91383 0.18495 0.88102 0.0
C459 C 0.93072 0.13362 0.86219 0.0
C460 C 0.9475 0.05031 0.86445 0.0
C461 C 0.94792 0.01972 0.88664 0.0
C462 C 0.93157 0.07218 0.90634 0.0
C463 C 0.9142 0.15577 0.90333 0.0
H464 H 0.68825 0.20969 0.69618 0.0
H465 H 0.67978 0.9454 0.71987 0.0
H466 H 0.62714 0.90362 0.69114 0.0
H467 H 0.58056 0.22695 0.67417 0.0
H468 H 0.59811 0.27777 0.64899 0.0
H469 H 0.62357 0.29981 0.6765 0.0
H470 H 0.68873 0.24703 0.65671 0.0
H471 H 0.66426 0.22313 0.62914 0.0
H472 H 0.69142 0.13578 0.64112 0.0
H473 H 0.5931 0.87491 0.65374 0.0
H474 H 0.57506 0.86523 0.61205 0.0
H475 H 0.60577 0.14679 0.61082 0.0
C476 C 0.67312 0.14554 0.69631 0.0
C477 C 0.68678 0.08146 0.71053 0.0
C478 C 0.66857 -0.00415 0.70949 0.0
C479 C 0.6388 0.97168 0.69316 0.0
C480 C 0.62805 0.03378 0.67793 0.0
C481 C 0.64418 0.11978 0.67958 0.0
C482 C 0.63427 0.16654 0.65824 0.0
C483 C 0.60747 0.24758 0.66489 0.0
C484 C 0.6719 0.19465 0.64557 0.0
C485 C 0.61223 0.0918 0.64377 0.0
C486 C 0.60837 0.01637 0.65562 0.0
C487 C 0.59463 0.93443 0.6446 0.0
C488 C 0.5849 0.92925 0.62088 0.0
C489 C 0.58879 0.00559 0.60849 0.0
C490 C 0.60163 0.08832 0.6202 0.0
H491 H 0.42481 0.80959 0.55713 0.0
H492 H 0.41396 0.08958 0.58533 0.0
H493 H 0.39395 0.0423 0.62345 0.0
H494 H 0.34228 0.7192 0.59154 0.0
H495 H 0.36838 0.61896 0.597 0.0
H496 H 0.37719 0.66855 0.57037 0.0
H497 H 0.45123 0.6828 0.57797 0.0
H498 H 0.44468 0.63001 0.60442 0.0
H499 H 0.46875 0.73848 0.60542 0.0
H500 H 0.387 0.96782 0.65968 0.0
H501 H 0.38138 0.86918 0.69102 0.0
H502 H 0.3941 0.63433 0.64007 0.0
C503 C 0.41616 0.86076 0.57096 0.0
C504 C 0.42022 0.95354 0.56813 0.0
C505 C 0.41041 0.01842 0.58701 0.0
C506 C 0.39934 -0.00788 0.60878 0.0
C507 C 0.39798 0.90053 0.61141 0.0
C508 C 0.4051 0.83548 0.59294 0.0
C509 C 0.40446 0.74192 0.60113 0.0
C510 C 0.37102 0.68385 0.58932 0.0
C511 C 0.44467 0.69562 0.59699 0.0
C512 C 0.39637 0.76491 0.62706 0.0
C513 C 0.3932 0.85693 0.63256 0.0
C514 C 0.3886 0.89554 0.65551 0.0
C515 C 0.38591 0.83867 0.67326 0.0
C516 C 0.3872 0.74367 0.66807 0.0
C517 C 0.39275 0.7065 0.64459 0.0
H518 H 0.58693 0.31749 0.94249 0.0
H519 H 0.60918 0.60298 0.95945 0.0
H520 H 0.66812 0.5921 0.93366 0.0
H521 H 0.69546 0.24961 0.93464 0.0
H522 H 0.6822 0.16502 0.91115 0.0
H523 H 0.64856 0.19185 0.93525 0.0
H524 H 0.59378 0.2243 0.90606 0.0
H525 H 0.62706 0.19837 0.88202 0.0
H526 H 0.603 0.30613 0.88577 0.0
H527 H 0.71324 0.55636 0.89894 0.0
H528 H 0.742 0.49825 0.86073 0.0
H529 H 0.69195 0.23455 0.86832 0.0
C530 C 0.60497 0.37707 0.94127 0.0
C531 C 0.59363 0.46103 0.95265 0.0
C532 C 0.61769 0.53789 0.95085 0.0
C533 C 0.6512 0.5322 0.93629 0.0
C534 C 0.66053 0.44875 0.92428 0.0
C535 C 0.63855 0.37209 0.92714 0.0
C536 C 0.65144 0.29282 0.91041 0.0
C537 C 0.67056 0.22057 0.92366 0.0
C538 C 0.61677 0.25324 0.89517 0.0
C539 C 0.68169 0.3384 0.89626 0.0
C540 C 0.68739 0.42775 0.90477 0.0
C541 C 0.70995 0.48586 0.89253 0.0
C542 C 0.72606 0.45235 0.87079 0.0
C543 C 0.71912 0.36185 0.86149 0.0
C544 C 0.69806 0.30387 0.87496 0.0
H545 H 0.39804 0.47159 0.89507 0.0
H546 H 0.36561 0.70123 0.94408 0.0
H547 H 0.35202 0.7888 0.91112 0.0
H548 H 0.4452 0.59452 0.85193 0.0
H549 H 0.42601 0.52146 0.82753 0.0
H550 H 0.43433 0.47805 0.85505 0.0
H551 H 0.36112 0.42431 0.85581 0.0
H552 H 0.35337 0.46679 0.82812 0.0
H553 H 0.32236 0.50409 0.85279 0.0
H554 H 0.34355 0.85276 0.87324 0.0
H555 H 0.32564 0.87814 0.83304 0.0
H556 H 0.3621 0.60642 0.80836 0.0
C557 C 0.38765 0.53999 0.89886 0.0
C558 C 0.38291 0.5795 0.92218 0.0
C559 C 0.36909 0.66907 0.92639 0.0
C560 C 0.36189 0.7199 0.90779 0.0
C561 C 0.36835 0.68004 0.88507 0.0
C562 C 0.37987 0.59142 0.88049 0.0
C563 C 0.38203 0.56296 0.85442 0.0
C564 C 0.42442 0.53782 0.8468 0.0
C565 C 0.35298 0.48497 0.84738 0.0
C566 C 0.36937 0.64923 0.84504 0.0
C567 C 0.36256 0.71645 0.86306 0.0
C568 C 0.34878 0.80077 0.85897 0.0
C569 C 0.33902 0.81482 0.83603 0.0
C570 C 0.34241 0.74437 0.81754 0.0
C571 C 0.35983 0.66222 0.82198 0.0
H572 H 0.64712 0.53442 0.10345 0.0
H573 H 0.57955 0.7813 0.11463 0.0
H574 H 0.616 0.82417 0.15125 0.0
H575 H 0.65829 0.49868 0.16653 0.0
H576 H 0.70785 0.45775 0.16162 0.0
H577 H 0.67156 0.43867 0.13874 0.0
H578 H 0.71812 0.51453 0.11065 0.0
H579 H 0.75432 0.53452 0.13339 0.0
H580 H 0.73608 0.62733 0.11909 0.0
H581 H 0.6661 0.85075 0.18273 0.0
H582 H 0.72502 0.85712 0.20792 0.0
H583 H 0.76021 0.59376 0.17571 0.0
C584 C 0.63917 0.59649 0.11385 0.0
C585 C 0.61052 0.65459 0.10616 0.0
C586 C 0.60137 0.73564 0.12019 0.0
C587 C 0.62179 0.7604 0.14105 0.0
C588 C 0.65086 0.70291 0.14765 0.0
C589 C 0.65925 0.62217 0.13459 0.0
C590 C 0.6945 0.57682 0.14412 0.0
C591 C 0.68231 0.4877 0.1533 0.0
C592 C 0.72769 0.56255 0.12572 0.0
C593 C 0.70585 0.64684 0.16391 0.0
C594 C 0.67989 0.71824 0.16593 0.0
C595 C 0.68605 0.79429 0.18174 0.0
C596 C 0.71954 0.79725 0.19594 0.0
C597 C 0.74669 0.72535 0.19384 0.0
C598 C 0.73956 0.64902 0.17778 0.0
H599 H 0.42977 0.26769 0.15031 0.0
H600 H 0.42093 0.50331 0.20124 0.0
H601 H 0.4181 0.60034 0.16911 0.0
H602 H 0.49149 0.37328 0.10835 0.0
H603 H 0.46768 0.31072 0.08366 0.0
H604 H 0.47086 0.26315 0.111 0.0
H605 H 0.39477 0.24134 0.1104 0.0
H606 H 0.39134 0.29286 0.08359 0.0
H607 H 0.36347 0.3375 0.10894 0.0
H608 H 0.41186 0.67 0.13146 0.0
H609 H 0.41955 0.71199 0.09136 0.0
H610 H 0.43228 0.43048 0.06509 0.0
C611 C 0.42827 0.33995 0.1547 0.0
C612 C 0.42585 0.37812 0.17825 0.0
C613 C 0.42359 0.47282 0.18334 0.0
C614 C 0.4212 0.52825 0.1652 0.0
C615 C 0.4214 0.48777 0.14217 0.0
C616 C 0.42609 0.3961 0.13687 0.0
C617 C 0.42679 0.3696 0.1107 0.0
C618 C 0.46657 0.32673 0.10297 0.0
C619 C 0.39201 0.3066 0.10297 0.0
C620 C 0.42195 0.46094 0.10202 0.0
C621 C 0.4181 0.52792 0.12047 0.0
C622 C 0.41488 0.6182 0.1169 0.0
C623 C 0.41872 0.6413 0.09403 0.0
C624 C 0.42621 0.57449 0.07512 0.0
C625 C 0.42559 0.48283 0.07906 0.0
H626 H 0.57592 0.70794 0.42285 0.0
H627 H 0.61725 0.93994 0.46853 0.0
H628 H 0.67339 0.95736 0.44209 0.0
H629 H 0.67631 0.62415 0.40284 0.0
H630 H 0.65837 0.59093 0.3737 0.0
H631 H 0.62587 0.58676 0.39848 0.0
H632 H 0.57615 0.68797 0.37964 0.0
H633 H 0.60859 0.6936 0.35503 0.0
H634 H 0.59239 0.79589 0.37171 0.0
H635 H 0.71777 0.96624 0.40722 0.0
H636 H 0.74979 0.95744 0.36827 0.0
H637 H 0.68006 0.7186 0.34589 0.0
C638 C 0.59741 0.76068 0.42771 0.0
C639 C 0.59213 0.82219 0.44789 0.0
C640 C 0.62077 0.89111 0.45337 0.0
C641 C 0.6528 0.90185 0.43838 0.0
C642 C 0.65609 0.84249 0.41807 0.0
C643 C 0.62955 0.77223 0.41294 0.0
C644 C 0.63758 0.72263 0.38907 0.0
C645 C 0.6503 0.62535 0.39116 0.0
C646 C 0.60155 0.72526 0.37292 0.0
C647 C 0.67153 0.77849 0.38114 0.0
C648 C 0.6821 0.84683 0.39815 0.0
C649 C 0.71037 0.91175 0.39394 0.0
C650 C 0.7282 0.90661 0.37174 0.0
C651 C 0.71767 0.83698 0.3541 0.0
C652 C 0.68933 0.77172 0.35911 0.0
H653 H 0.3718 0.07566 0.42863 0.0
H654 H 0.42574 0.84346 0.3891 0.0
H655 H 0.42836 0.92469 0.35429 0.0
H656 H 0.31044 0.13518 0.37996 0.0
H657 H 0.31574 0.25423 0.38867 0.0
H658 H 0.31766 0.17611 0.41032 0.0
H659 H 0.38564 0.24464 0.42366 0.0
H660 H 0.38432 0.32006 0.40128 0.0
H661 H 0.42542 0.24514 0.40275 0.0
H662 H 0.43042 0.0331 0.32454 0.0
H663 H 0.41532 0.14744 0.29832 0.0
H664 H 0.35662 0.30795 0.35574 0.0
C665 C 0.38332 0.04108 0.41254 0.0
C666 C 0.39892 0.95315 0.41184 0.0
C667 C 0.41383 0.91085 0.39031 0.0
C668 C 0.41585 0.95675 0.3704 0.0
C669 C 0.4023 0.04471 0.37203 0.0
C670 C 0.38509 0.08563 0.39225 0.0
C671 C 0.37106 0.17943 0.38872 0.0
C672 C 0.32605 0.18658 0.3921 0.0
C673 C 0.39292 0.25155 0.40508 0.0
C674 C 0.38291 0.18404 0.36335 0.0
C675 C 0.40177 0.10635 0.35432 0.0
C676 C 0.41526 0.09396 0.33129 0.0
C677 C 0.40682 0.15997 0.31656 0.0
C678 C 0.38422 0.23658 0.32474 0.0
C679 C 0.37394 0.25049 0.34882 0.0
H680 H 0.03863 0.6888 0.05061 0.0
H681 H 0.97149 0.76338 0.99164 0.0
H682 H 0.98484 0.61568 0.97009 0.0
H683 H 0.1126 0.56062 0.01954 0.0
H684 H 0.11352 0.47237 0.03855 0.0
H685 H 0.09955 0.58479 0.04998 0.0
H686 H 0.03222 0.52736 0.06481 0.0
H687 H 0.04758 0.41473 0.05495 0.0
H688 H 1.00153 0.45604 0.04493 0.0
H689 H 0.01114 0.46987 0.95342 0.0
H690 H 0.01953 0.30577 0.9491 0.0
H691 H 0.06544 0.32031 0.01957 0.0
C692 C 0.02579 0.67304 0.03342 0.0
C693 C 0.00546 0.7386 0.02238 0.0
C694 C 0.98804 0.71488 1.00021 0.0
C695 C 0.99615 0.6319 0.98762 0.0
C696 C 0.02035 0.57292 0.99793 0.0
C697 C 0.03278 0.58978 0.02081 0.0
C698 C 0.05415 0.51012 0.02868 0.0
C699 C 0.09753 0.53344 0.03453 0.0
C700 C 0.03257 0.47493 0.04955 0.0
C701 C 0.05098 0.44513 0.00668 0.0
C702 C 0.03319 0.48483 0.98883 0.0
C703 C 0.02483 0.4376 0.96725 0.0
C704 C 0.0303 0.34477 0.96482 0.0
C705 C 0.04228 0.30124 0.98423 0.0
C706 C 0.05646 0.35224 0.00451 0.0
H707 H 0.37843 0.59792 0.25472 0.0
H708 H 0.25782 0.49637 0.25245 0.0
H709 H 0.23718 0.62599 0.23295 0.0
H710 H 0.36214 0.80569 0.27218 0.0
H711 H 0.39816 0.85663 0.25434 0.0
H712 H 0.40489 0.74385 0.26093 0.0
H713 H 0.40962 0.69233 0.21654 0.0
H714 H 0.40099 0.80563 0.2098 0.0
H715 H 0.3697 0.71471 0.19747 0.0
H716 H 0.22663 0.77284 0.2224 0.0
H717 H 0.22358 0.93561 0.23258 0.0
H718 H 0.35066 0.94785 0.24069 0.0
C719 C 0.34775 0.60262 0.24983 0.0
C720 C 0.31974 0.5377 0.25514 0.0
C721 C 0.27979 0.54605 0.24877 0.0
C722 C 0.26802 0.61795 0.23701 0.0
C723 C 0.2966 0.6801 0.23155 0.0
C724 C 0.33566 0.67358 0.238 0.0
C725 C 0.35885 0.75779 0.23468 0.0
C726 C 0.38225 0.79305 0.25687 0.0
C727 C 0.38641 0.74162 0.21335 0.0
C728 C 0.32514 0.8182 0.22968 0.0
C729 C 0.29017 0.76968 0.22571 0.0
C730 C 0.25374 0.81142 0.22505 0.0
C731 C 0.25223 0.9038 0.23123 0.0
C732 C 0.28696 0.95228 0.23822 0.0
C733 C 0.32396 0.91101 0.23541 0.0
H734 H 0.89314 0.15586 0.2442 0.0
H735 H 0.77142 0.06237 0.24114 0.0
H736 H 0.75271 0.19624 0.22268 0.0
H737 H 0.88264 0.35475 0.26419 0.0
H738 H 0.9176 0.41093 0.24678 0.0
H739 H 0.92398 0.29494 0.25024 0.0
H740 H 0.92473 0.25807 0.20547 0.0
H741 H 0.91651 0.37445 0.20143 0.0
H742 H 0.88366 0.28853 0.18825 0.0
H743 H 0.74379 0.34743 0.21559 0.0
H744 H 0.74216 0.50625 0.23079 0.0
H745 H 0.86921 0.50968 0.23865 0.0
C746 C 0.86267 0.16291 0.23916 0.0
C747 C 0.83368 0.09977 0.24421 0.0
C748 C 0.79406 0.11088 0.23767 0.0
C749 C 0.78343 0.18527 0.2265 0.0
C750 C 0.8128 0.24701 0.22181 0.0
C751 C 0.85177 0.23643 0.228 0.0
C752 C 0.87591 0.32064 0.2262 0.0
C753 C 0.90138 0.34681 0.24819 0.0
C754 C 0.90172 0.30974 0.20403 0.0
C755 C 0.84272 0.38538 0.22354 0.0
C756 C 0.80731 0.33978 0.21833 0.0
C757 C 0.77124 0.38367 0.21933 0.0
C758 C 0.77052 0.47343 0.22851 0.0
C759 C 0.80565 0.51738 0.23677 0.0
C760 C 0.84227 0.47586 0.23246 0.0
H761 H 0.05579 0.75179 0.49363 0.0
H762 H 0.98014 0.75415 0.55439 0.0
H763 H 0.9626 0.91145 0.55095 0.0
H764 H 0.08394 0.00686 0.50238 0.0
H765 H 0.08387 0.00628 0.47102 0.0
H766 H 0.0992 0.90783 0.48391 0.0
H767 H 0.04734 0.81785 0.45744 0.0
H768 H 0.02854 0.9176 0.44667 0.0
H769 H 0.99576 0.84529 0.46106 0.0
H770 H 0.93668 0.04136 0.53321 0.0
H771 H 0.93255 0.18428 0.51591 0.0
H772 H 0.02441 0.0962 0.46622 0.0
C773 C 0.03844 0.78836 0.50736 0.0
C774 C 0.01778 0.74236 0.52361 0.0
C775 C 0.99546 0.79002 0.54159 0.0
C776 C 0.98446 0.87817 0.53934 0.0
C777 C 0.99851 0.91635 0.51991 0.0
C778 C 0.02715 0.87602 0.50514 0.0
C779 C 0.03531 0.92897 0.48473 0.0
C780 C 0.07809 0.96471 0.48557 0.0
C781 C 0.02618 0.87404 0.4611 0.0
C782 C 0.00584 0.00328 0.49001 0.0
C783 C 0.98404 -0.00717 0.50993 0.0
C784 C 0.95449 0.05223 0.51808 0.0
C785 C 0.95145 0.13178 0.50766 0.0
C786 C 0.97962 0.15085 0.49066 0.0
C787 C 1.00314 0.08215 0.47952 0.0
H788 H 0.21503 0.9173 0.75391 0.0
H789 H 0.30588 0.89713 0.70062 0.0
H790 H 0.29691 0.05517 0.69469 0.0
H791 H 0.16026 0.13245 0.72889 0.0
H792 H 0.15011 0.17391 0.75891 0.0
H793 H 0.14676 0.05489 0.74954 0.0
H794 H 0.19433 0.02696 0.78277 0.0
H795 H 0.20033 0.14477 0.79137 0.0
H796 H 0.24311 0.07709 0.78346 0.0
H797 H 0.30536 0.20979 0.70905 0.0
H798 H 0.3103 0.3583 0.73199 0.0
H799 H 0.21411 0.28447 0.77645 0.0
C800 C 0.23072 0.94552 0.73993 0.0
C801 C 0.2618 0.89847 0.7283 0.0
C802 C 0.28254 0.93468 0.7101 0.0
C803 C 0.27734 0.02404 0.70645 0.0
C804 C 0.25101 0.07446 0.72098 0.0
C805 C 0.22608 0.03567 0.73648 0.0
C806 C 0.20708 0.10662 0.75354 0.0
C807 C 0.16346 0.11774 0.74733 0.0
C808 C 0.21159 0.08764 0.77927 0.0
C809 C 0.2311 0.18716 0.74824 0.0
C810 C 0.25513 0.16836 0.72891 0.0
C811 C 0.28501 0.22736 0.72335 0.0
C812 C 0.28845 0.31034 0.73689 0.0
C813 C 0.26216 0.33259 0.75571 0.0
C814 C 0.23404 0.26927 0.76179 0.0
H815 H 0.75373 0.49494 0.75066 0.0
H816 H 0.88163 0.50282 0.74402 0.0
H817 H 0.88237 0.66013 0.76137 0.0
H818 H 0.73825 0.70913 0.73364 0.0
H819 H 0.69747 0.73543 0.75339 0.0
H820 H 0.70769 0.62019 0.74301 0.0
H821 H 0.71199 0.58317 0.78595 0.0
H822 H 0.70287 0.69928 0.79648 0.0
H823 H 0.7464 0.64437 0.80567 0.0
H824 H 0.87038 0.81308 0.77712 0.0
H825 H 0.84513 0.96723 0.78254 0.0
H826 H 0.72474 0.86478 0.77855 0.0
C827 C 0.78182 0.52994 0.75295 0.0
C828 C 0.81755 0.48706 0.74627 0.0
C829 C 0.85383 0.53478 0.74902 0.0
C830 C 0.85469 0.62344 0.75928 0.0
C831 C 0.81907 0.66268 0.76655 0.0
C832 C 0.78323 0.61864 0.76302 0.0
C833 C 0.74901 0.68024 0.76969 0.0
C834 C 0.72153 0.68666 0.74868 0.0
C835 C 0.72624 0.64994 0.7907 0.0
C836 C 0.77136 0.76708 0.77636 0.0
C837 C 0.81179 0.75406 0.77526 0.0
C838 C 0.83889 0.82445 0.77837 0.0
C839 C 0.82429 0.9114 0.78131 0.0
C840 C 0.78314 0.92627 0.78076 0.0
C841 C 0.75625 0.8539 0.77943 0.0
H842 H 0.472 0.61942 0.50197 0.0
H843 H 0.59995 0.60799 0.49867 0.0
H844 H 0.59563 0.44903 0.48234 0.0
H845 H 0.45596 0.43674 0.52422 0.0
H846 H 0.4123 0.3971 0.50831 0.0
H847 H 0.42402 0.51467 0.51172 0.0
H848 H 0.42226 0.51594 0.46689 0.0
H849 H 0.41132 0.3972 0.463 0.0
H850 H 0.45332 0.441 0.44839 0.0
H851 H 0.57924 0.29219 0.47562 0.0
H852 H 0.55288 0.14459 0.4832 0.0
H853 H 0.43501 0.25539 0.4908 0.0
C854 C 0.49907 0.58426 0.49704 0.0
C855 C 0.53625 0.62511 0.50158 0.0
C856 C 0.57115 0.57705 0.49553 0.0
C857 C 0.56895 0.48766 0.48572 0.0
C858 C 0.53169 0.44867 0.48183 0.0
C859 C 0.49724 0.49565 0.48717 0.0
C860 C 0.46141 0.43449 0.48604 0.0
C861 C 0.4371 0.44643 0.50894 0.0
C862 C 0.43561 0.44801 0.46481 0.0
C863 C 0.48179 0.34501 0.48251 0.0
C864 C 0.52195 0.35479 0.47866 0.0
C865 C 0.54787 0.28322 0.47823 0.0
C866 C 0.53273 0.20035 0.48297 0.0
C867 C 0.49215 0.19067 0.48818 0.0
C868 C 0.46612 0.26222 0.48685 0.0
H869 H 0.50041 0.851 0.03721 0.0
H870 H 0.44757 0.81654 0.96823 0.0
H871 H 0.47125 0.96803 0.96103 0.0
H872 H 0.47282 0.08378 0.04905 0.0
H873 H 0.51663 0.11468 0.06578 0.0
H874 H 0.49701 0.00204 0.06481 0.0
H875 H 0.56525 0.93646 0.04916 0.0
H876 H 0.58376 0.05062 0.05148 0.0
H877 H 0.58709 -0.01915 0.02406 0.0
H878 H 0.50048 0.11615 0.96107 0.0
H879 H 0.52173 0.27262 0.97127 0.0
H880 H 0.55479 0.21338 0.0406 0.0
C881 C 0.49374 0.87632 0.02074 0.0
C882 C 0.47268 0.82443 1.00314 0.0
C883 C 0.46354 0.85769 0.98183 0.0
C884 C 0.47735 0.94219 0.97749 0.0
C885 C 0.49955 -0.00911 0.99485 0.0
C886 C 0.50667 0.96082 0.01631 0.0
C887 C 0.52778 0.03044 0.03276 0.0
C888 C 0.50202 0.05947 0.05436 0.0
C889 C 0.56837 -0.00259 0.03979 0.0
C890 C 0.53182 0.10401 0.01699 0.0
C891 C 0.51592 0.07877 0.9951 0.0
C892 C 0.51345 0.13682 0.97798 0.0
C893 C 0.52573 0.22504 0.98385 0.0
C894 C 0.54014 0.25281 0.00649 0.0
C895 C 0.54481 0.19164 0.023 0.0
H896 H 0.32448 0.3493 0.98142 0.0
H897 H 0.40623 0.15418 0.00343 0.0
H898 H 0.34939 0.05352 0.01094 0.0
H899 H 0.25401 0.33204 0.02339 0.0
H900 H 0.21246 0.34562 0.00466 0.0
H901 H 0.25957 0.39359 0.99828 0.0
H902 H 0.2585 0.30665 0.95669 0.0
H903 H 0.21113 0.25865 0.96293 0.0
H904 H 0.25163 0.18614 0.95337 0.0
H905 H 0.28102 -0.01535 0.02036 0.0
H906 H 0.21102 0.95516 0.0301 0.0
H907 H 0.17712 0.19853 1.00079 0.0
C908 C 0.33051 0.28458 0.98746 0.0
C909 C 0.36942 0.25926 0.99202 0.0
C910 C 0.37643 0.17424 0.99978 0.0
C911 C 0.34435 0.11703 0.00407 0.0
C912 C 0.30595 0.14569 0.99999 0.0
C913 C 0.29926 0.22728 0.99151 0.0
C914 C 0.25581 0.24686 0.98979 0.0
C915 C 0.24485 0.33466 0.00494 0.0
C916 C 0.24356 0.2497 0.96417 0.0
C917 C 0.2386 0.16545 0.99957 0.0
C918 C 0.26764 0.10679 0.0051 0.0
C919 C 0.25819 0.02966 0.01574 0.0
C920 C 0.21832 0.0134 0.0212 0.0
C921 C 0.18853 0.07464 0.01624 0.0
C922 C 0.19904 0.15023 0.00481 0.0
H923 H 0.84721 0.75104 0.98232 0.0
H924 H 0.82581 0.03423 0.00461 0.0
H925 H 0.75519 0.00328 0.00735 0.0
H926 H 0.75651 0.70688 0.94875 0.0
H927 H 0.74778 0.59767 0.95841 0.0
H928 H 0.79755 0.64009 0.95641 0.0
H929 H 0.80963 0.6191 0.99996 0.0
H930 H 0.76028 0.57469 1.00187 0.0
H931 H 0.77602 0.66921 0.02195 0.0
H932 H 0.68725 0.94671 0.00721 0.0
H933 H 0.62639 0.86016 0.01231 0.0
H934 H 0.68936 0.61147 0.99268 0.0
C935 C 0.82766 0.80627 0.98788 0.0
C936 C 0.8424 0.89524 0.99296 0.0
C937 C 0.81567 0.96544 1.00042 0.0
C938 C 0.77521 0.94895 1.00185 0.0
C939 C 0.76154 0.86165 0.99607 0.0
C940 C 0.78678 0.79082 0.98979 0.0
C941 C 0.76395 0.70238 0.98646 0.0
C942 C 0.76663 0.65922 0.96099 0.0
C943 C 0.77832 0.63754 0.00359 0.0
C944 C 0.72237 0.73514 0.99238 0.0
C945 C 0.72173 0.8276 0.99718 0.0
C946 C 0.68726 0.87411 0.00357 0.0
C947 C 0.65273 0.82441 0.00634 0.0
C948 C 0.65303 0.72922 1.00318 0.0
C949 C 0.68807 0.68426 0.99523 0.0
H950 H 0.14929 0.499 0.28513 0.0
H951 H 0.15005 0.28373 0.2281 0.0
H952 H 0.08628 0.33501 0.2143 0.0
H953 H 0.04666 0.48734 0.2975 0.0
H954 H 0.04011 0.60708 0.30382 0.0
H955 H 0.08731 0.55782 0.30864 0.0
H956 H 0.12137 0.66402 0.28175 0.0
H957 H 0.07439 0.71486 0.27726 0.0
H958 H 0.10316 0.66816 0.25249 0.0
H959 H 0.02081 0.40365 0.2079 0.0
H960 H 0.96147 0.49734 0.2065 0.0
H961 H 1.00189 0.66671 0.26806 0.0
C962 C 0.13641 0.46414 0.26945 0.0
C963 C 0.15461 0.3874 0.25765 0.0
C964 C 0.13653 0.34247 0.23742 0.0
C965 C 0.10022 0.37088 0.22949 0.0
C966 C 0.08221 0.44438 0.24203 0.0
C967 C 0.09984 0.49131 0.26137 0.0
C968 C 0.07374 0.56744 0.27178 0.0
C969 C 0.06122 0.55407 0.29692 0.0
C970 C 0.09439 0.65905 0.27075 0.0
C971 C 0.03888 0.55579 0.25524 0.0
C972 C 0.04426 0.48398 0.23833 0.0
C973 C 0.01623 0.46016 0.22105 0.0
C974 C 0.98234 0.5131 0.22056 0.0
C975 C 0.97671 0.58883 0.23726 0.0
C976 C 0.00515 0.60907 0.25507 0.0
H977 H 0.33942 0.6028 0.46185 0.0
H978 H 0.37324 0.71045 0.53188 0.0
H979 H 0.31262 0.64703 0.54769 0.0
H980 H 0.24174 0.65515 0.46701 0.0
H981 H 0.22146 0.55546 0.45074 0.0
H982 H 0.27095 0.59171 0.4448 0.0
H983 H 0.29798 0.43636 0.45246 0.0
H984 H 0.24842 0.39888 0.45805 0.0
H985 H 0.28638 0.39192 0.47961 0.0
H986 H 0.24472 0.60191 0.55517 0.0
H987 H 0.17464 0.55677 0.55494 0.0
H988 H 0.18218 0.4703 0.48066 0.0
C989 C 0.3349 0.60843 0.48059 0.0
C990 C 0.36148 0.65929 0.49585 0.0
C991 C 0.35375 0.66953 0.52014 0.0
C992 C 0.3193 0.63429 0.52922 0.0
C993 C 0.29271 0.58834 0.51378 0.0
C994 C 0.30024 0.57325 0.49002 0.0
C995 C 0.26462 0.52843 0.47729 0.0
C996 C 0.24878 0.58618 0.45888 0.0
C997 C 0.27497 0.43323 0.4662 0.0
C998 C 0.23554 0.52507 0.49748 0.0
C999 C 0.25269 0.55994 0.51831 0.0
C1000 C 0.23121 0.57236 0.53909 0.0
C1001 C 0.19129 0.54745 0.53874 0.0
C1002 C 0.17303 0.50954 0.51783 0.0
C1003 C 0.19558 0.49756 0.49693 0.0
H1004 H 0.84654 0.18319 0.47937 0.0
H1005 H 0.8018 0.45285 0.47614 0.0
H1006 H 0.73416 0.39836 0.48152 0.0
H1007 H 0.75923 0.06085 0.45031 0.0
H1008 H 0.76045 0.97256 0.46927 0.0
H1009 H 0.80557 0.02871 0.46213 0.0
H1010 H 0.81988 0.06899 0.50625 0.0
H1011 H 0.77485 0.01323 0.51351 0.0
H1012 H 0.7834 0.12933 0.52457 0.0
H1013 H 0.67289 0.32238 0.49085 0.0
H1014 H 0.62003 0.22718 0.5043 0.0
H1015 H 0.70092 0.00239 0.50194 0.0
C1016 C 0.8223 0.22986 0.47924 0.0
C1017 C 0.82944 0.32233 0.47722 0.0
C1018 C 0.79708 0.38192 0.4777 0.0
C1019 C 0.75845 0.35155 0.48063 0.0
C1020 C 0.75229 0.26101 0.48311 0.0
C1021 C 0.78306 0.20053 0.48241 0.0
C1022 C 0.7678 0.10823 0.4874 0.0
C1023 C 0.77362 0.03846 0.466 0.0
C1024 C 0.78766 0.07821 0.50923 0.0
C1025 C 0.72413 0.12774 0.49173 0.0
C1026 C 0.71603 0.21617 0.48877 0.0
C1027 C 0.67866 0.25254 0.49288 0.0
C1028 C 0.64869 0.19761 0.50051 0.0
C1029 C 0.65591 0.10674 0.50397 0.0
C1030 C 0.6942 0.07114 0.49918 0.0
H1031 H 0.96033 0.02992 0.7524 0.0
H1032 H 0.88787 0.8061 0.72215 0.0
H1033 H 0.94409 0.70306 0.72542 0.0
H1034 H 0.04677 0.9671 0.72231 0.0
H1035 H 0.07914 0.0041 0.74626 0.0
H1036 H 0.03222 0.05758 0.74389 0.0
H1037 H 0.01285 0.0221 0.78559 0.0
H1038 H 0.06018 0.97043 0.78834 0.0
H1039 H 0.01552 0.9079 0.79279 0.0
H1040 H 0.01097 0.6268 0.73028 0.0
H1041 H 0.07954 0.58381 0.73858 0.0
H1042 H 0.10685 0.86242 0.76313 0.0
C1043 C 0.95581 0.95907 0.74672 0.0
C1044 C 0.91966 0.92628 0.73688 0.0
C1045 C 0.91531 0.83289 0.72973 0.0
C1046 C 0.94713 0.77397 0.73144 0.0
C1047 C 0.98294 0.80973 0.7403 0.0
C1048 C 0.98712 0.90011 0.74804 0.0
C1049 C 0.02869 0.92354 0.75604 0.0
C1050 C 0.0478 -0.00788 0.74122 0.0
C1051 C 0.02934 0.95798 0.78224 0.0
C1052 C 0.04773 0.8324 0.75135 0.0
C1053 C 0.02099 0.76717 0.74245 0.0
C1054 C 0.03205 0.67748 0.73726 0.0
C1055 C 0.07112 0.6538 0.74188 0.0
C1056 C 0.09874 0.71982 0.75128 0.0
C1057 C 0.08678 0.81037 0.75562 0.0
H1058 H 0.61893 0.29039 0.73448 0.0
H1059 H 0.63964 0.44177 0.80208 0.0
H1060 H 0.56989 0.48808 0.8041 0.0
H1061 H 0.55111 0.46624 0.7151 0.0
H1062 H 0.52351 0.38041 0.69746 0.0
H1063 H 0.57518 0.3651 0.70301 0.0
H1064 H 0.55434 0.2117 0.71825 0.0
H1065 H 0.50275 0.23528 0.71476 0.0
H1066 H 0.52123 0.21399 0.74296 0.0
H1067 H 0.49866 0.51252 0.80002 0.0
H1068 H 0.43218 0.54438 0.78626 0.0
H1069 H 0.45646 0.38756 0.71982 0.0
C1070 C 0.60868 0.3344 0.74946 0.0
C1071 C 0.63437 0.36301 0.76814 0.0
C1072 C 0.62032 0.42041 0.78751 0.0
C1073 C 0.58072 0.44598 0.78895 0.0
C1074 C 0.55576 0.41507 0.77061 0.0
C1075 C 0.5693 0.36347 0.75083 0.0
C1076 C 0.5367 0.34711 0.73278 0.0
C1077 C 0.54719 0.39233 0.71077 0.0
C1078 C 0.52827 0.24598 0.72685 0.0
C1079 C 0.50248 0.39464 0.7459 0.0
C1080 C 0.51432 0.43251 0.76779 0.0
C1081 C 0.48901 0.4835 0.7829 0.0
C1082 C 0.45122 0.50074 0.77498 0.0
C1083 C 0.43908 0.4679 0.75208 0.0
C1084 C 0.46458 0.41156 0.73761 0.0
H1085 H 0.65311 0.03302 0.27465 0.0
H1086 H 0.6555 0.78588 0.2276 0.0
H1087 H 0.58688 0.80967 0.21615 0.0
H1088 H 0.55766 -0.00563 0.29607 0.0
H1089 H 0.54299 0.11071 0.29912 0.0
H1090 H 0.59432 0.08247 0.30123 0.0
H1091 H 0.6122 0.18008 0.268 0.0
H1092 H 0.56108 0.21062 0.26626 0.0
H1093 H 0.58655 0.16114 0.24049 0.0
H1094 H 0.51598 0.85698 0.21114 0.0
H1095 H 0.45042 0.92995 0.21184 0.0
H1096 H 0.49286 0.13427 0.26564 0.0
C1097 C 0.63962 -0.01419 0.26133 0.0
C1098 C 0.66028 0.90952 0.25133 0.0
C1099 C 0.64084 0.84677 0.23481 0.0
C1100 C 0.60159 0.85894 0.22841 0.0
C1101 C 0.58158 0.93308 0.23917 0.0
C1102 C 0.59992 -0.00448 0.25526 0.0
C1103 C 0.57097 0.0656 0.26552 0.0
C1104 C 0.56622 0.06308 0.29206 0.0
C1105 C 0.58344 0.15993 0.25971 0.0
C1106 C 0.53378 0.03297 0.25262 0.0
C1107 C 0.54035 0.95675 0.2374 0.0
C1108 C 0.5104 0.91665 0.22308 0.0
C1109 C 0.47313 0.95786 0.22374 0.0
C1110 C 0.46621 0.03756 0.23881 0.0
C1111 C 0.49681 0.07324 0.2539 0.0
loop_
_geom_bond_atom_site_label_1
_geom_bond_atom_site_label_2
_geom_bond_distance
_geom_bond_site_symmetry_2
_ccdc_geom_bond_type
C0 O27 1.315 . S
C0 O28 1.208 1_454 S
C1 O22 1.331 . S
C1 O25 1.244 1_545 S
C2 O24 1.264 . S
C2 O26 1.273 . S
Mg3 O5 1.936 1_545 S
Mg3 O12 2.081 . S
Mg3 O14 2.023 . S
Mg3 O18 2.031 . S
Mg3 O27 2.291 . S
Mg4 O5 1.963 . S
Mg4 O15 1.942 . S
Mg4 O16 1.955 1_565 S
Mg4 O23 1.986 . S
O5 Mg3 1.936 1_565 S
O5 Mg4 1.963 . S
O5 Mg6 1.951 . S
Mg6 O5 1.951 . S
Mg6 O7 1.882 1_454 S
Mg6 O11 1.976 1_554 S
Mg6 O17 2.145 1_465 S
Mg6 O21 2.013 . S
Mg6 O27 2.118 1_565 S
O7 Mg6 1.882 1_656 S
O7 Mg8 1.931 1_565 S
O7 Mg9 1.970 . S
Mg8 O7 1.931 1_545 S
Mg8 O17 2.291 1_556 S
Mg8 O22 2.081 . S
Mg8 O24 2.023 1_545 S
Mg8 O28 2.031 . S
Mg9 O7 1.970 . S
Mg9 O13 1.986 1_655 S
Mg9 O25 1.942 . S
Mg9 O26 1.955 . S
C10 O21 1.207 . S
C10 O23 1.307 . S
O11 Mg6 1.976 1_556 S
O11 C30 1.191 . S
O12 Mg3 2.081 . S
O12 C20 1.331 1_545 S
O13 Mg9 1.986 1_455 S
O13 C30 1.307 . S
O14 Mg3 2.023 . S
O14 C29 1.264 . S
O15 Mg4 1.942 . S
O15 C20 1.244 . S
O16 Mg4 1.955 1_545 S
O16 C29 1.273 . S
O17 Mg6 2.145 1_645 S
O17 Mg8 2.291 1_554 S
O17 C19 1.312 . S
O18 Mg3 2.031 . S
O18 C19 1.208 1_455 S
C19 O17 1.312 . S
C19 O18 1.208 1_655 S
C20 O12 1.331 1_565 S
C20 O15 1.244 . S
O21 Mg6 2.013 . S
O21 C10 1.207 . S
O22 C1 1.331 . S
O22 Mg8 2.081 . S
O23 Mg4 1.986 . S
O23 C10 1.307 . S
O24 C2 1.264 . S
O24 Mg8 2.023 1_565 S
O25 C1 1.244 1_565 S
O25 Mg9 1.942 . S
O26 C2 1.273 . S
O26 Mg9 1.955 . S
O27 C0 1.315 . S
O27 Mg3 2.291 . S
O27 Mg6 2.118 1_545 S
O28 C0 1.208 1_656 S
O28 Mg8 2.031 . S
C29 O14 1.264 . S
C29 O16 1.273 . S
C30 O11 1.191 . S
C30 O13 1.307 . S
C31 O58 1.312 . S
C31 O59 1.208 . S
C32 O53 1.331 . S
C32 O56 1.244 . S
C33 O55 1.264 . S
C33 O57 1.273 . S
Mg34 O36 1.936 . S
Mg34 O43 2.081 . S
Mg34 O45 2.023 . S
Mg34 O49 2.031 . S
Mg34 O58 2.291 . S
Mg35 O36 1.963 . S
Mg35 O46 1.942 . S
Mg35 O47 1.955 . S
Mg35 O54 1.986 . S
O36 Mg34 1.936 . S
O36 Mg35 1.963 . S
O36 Mg37 1.915 . S
Mg37 O36 1.915 . S
Mg37 O38 1.915 . S
Mg37 O42 2.013 . S
Mg37 O48 2.114 . S
Mg37 O52 2.013 . S
Mg37 O58 2.114 . S
O38 Mg37 1.915 . S
O38 Mg39 1.936 . S
O38 Mg40 1.963 . S
Mg39 O38 1.936 . S
Mg39 O48 2.291 . S
Mg39 O53 2.081 . S
Mg39 O55 2.023 . S
Mg39 O59 2.031 . S
Mg40 O38 1.963 . S
Mg40 O44 1.986 . S
Mg40 O56 1.942 . S
Mg40 O57 1.955 . S
C41 O52 1.191 . S
C41 O54 1.307 . S
O42 Mg37 2.013 . S
O42 C61 1.191 . S
O43 Mg34 2.081 . S
O43 C51 1.331 . S
O44 Mg40 1.986 . S
O44 C61 1.307 . S
O45 Mg34 2.023 . S
O45 C60 1.264 . S
O46 Mg35 1.942 . S
O46 C51 1.244 . S
O47 Mg35 1.955 . S
O47 C60 1.273 . S
O48 Mg37 2.114 . S
O48 Mg39 2.291 . S
O48 C50 1.312 . S
O49 Mg34 2.031 . S
O49 C50 1.208 . S
C50 O48 1.312 . S
C50 O49 1.208 . S
C51 O43 1.331 . S
C51 O46 1.244 . S
O52 Mg37 2.013 . S
O52 C41 1.191 . S
O53 C32 1.331 . S
O53 Mg39 2.081 . S
O54 Mg35 1.986 . S
O54 C41 1.307 . S
O55 C33 1.264 . S
O55 Mg39 2.023 . S
O56 C32 1.244 . S
O56 Mg40 1.942 . S
O57 C33 1.273 . S
O57 Mg40 1.955 . S
O58 C31 1.312 . S
O58 Mg34 2.291 . S
O58 Mg37 2.114 . S
O59 C31 1.208 . S
O59 Mg39 2.031 . S
C60 O45 1.264 . S
C60 O47 1.273 . S
C61 O42 1.191 . S
C61 O44 1.307 . S
C62 O89 1.312 . S
C62 O90 1.208 . S
C63 O84 1.331 . S
C63 O87 1.244 . S
C64 O86 1.264 . S
C64 O88 1.273 . S
Mg65 O67 1.936 . S
Mg65 O74 2.081 . S
Mg65 O76 2.023 . S
Mg65 O80 2.031 . S
Mg65 O89 2.291 . S
Mg66 O67 1.963 . S
Mg66 O77 1.942 . S
Mg66 O78 1.955 . S
Mg66 O85 1.986 . S
O67 Mg65 1.936 . S
O67 Mg66 1.963 . S
O67 Mg68 1.915 . S
Mg68 O67 1.915 . S
Mg68 O69 1.915 . S
Mg68 O73 2.013 . S
Mg68 O79 2.114 . S
Mg68 O83 2.013 . S
Mg68 O89 2.114 . S
O69 Mg68 1.915 . S
O69 Mg70 1.936 . S
O69 Mg71 1.963 . S
Mg70 O69 1.936 . S
Mg70 O79 2.291 . S
Mg70 O84 2.081 . S
Mg70 O86 2.023 . S
Mg70 O90 2.031 . S
Mg71 O69 1.963 . S
Mg71 O75 1.986 . S
Mg71 O87 1.942 . S
Mg71 O88 1.955 . S
C72 O83 1.191 . S
C72 O85 1.307 . S
O73 Mg68 2.013 . S
O73 C92 1.191 . S
O74 Mg65 2.081 . S
O74 C82 1.331 . S
O75 Mg71 1.986 . S
O75 C92 1.307 . S
O76 Mg65 2.023 . S
O76 C91 1.264 . S
O77 Mg66 1.942 . S
O77 C82 1.244 . S
O78 Mg66 1.955 . S
O78 C91 1.273 . S
O79 Mg68 2.114 . S
O79 Mg70 2.291 . S
O79 C81 1.312 . S
O80 Mg65 2.031 . S
O80 C81 1.208 . S
C81 O79 1.312 . S
C81 O80 1.208 . S
C82 O74 1.331 . S
C82 O77 1.244 . S
O83 Mg68 2.013 . S
O83 C72 1.191 . S
O84 C63 1.331 . S
O84 Mg70 2.081 . S
O85 Mg66 1.986 . S
O85 C72 1.307 . S
O86 C64 1.264 . S
O86 Mg70 2.023 . S
O87 C63 1.244 . S
O87 Mg71 1.942 . S
O88 C64 1.273 . S
O88 Mg71 1.955 . S
O89 C62 1.312 . S
O89 Mg65 2.291 . S
O89 Mg68 2.114 . S
O90 C62 1.208 . S
O90 Mg70 2.031 . S
C91 O76 1.264 . S
C91 O78 1.273 . S
C92 O73 1.191 . S
C92 O75 1.307 . S
C93 O120 1.312 . S
C93 O121 1.208 1_455 S
C94 O115 1.331 . S
C94 O118 1.244 . S
C95 O117 1.264 . S
C95 O119 1.273 . S
Mg96 O98 1.936 . S
Mg96 O105 2.081 . S
Mg96 O107 2.023 . S
Mg96 O111 2.031 . S
Mg96 O120 2.291 . S
Mg97 O98 1.963 . S
Mg97 O108 1.942 . S
Mg97 O109 1.955 . S
Mg97 O116 1.986 . S
O98 Mg96 1.936 . S
O98 Mg97 1.963 . S
O98 Mg99 1.915 . S
Mg99 O98 1.915 . S
Mg99 O100 1.915 1_455 S
Mg99 O104 2.013 . S
Mg99 O110 2.114 1_455 S
Mg99 O114 2.013 . S
Mg99 O120 2.114 . S
O100 Mg99 1.915 1_655 S
O100 Mg101 1.936 . S
O100 Mg102 1.963 . S
Mg101 O100 1.936 . S
Mg101 O110 2.291 . S
Mg101 O115 2.081 . S
Mg101 O117 2.023 . S
Mg101 O121 2.031 . S
Mg102 O100 1.963 . S
Mg102 O106 1.986 1_655 S
Mg102 O118 1.942 . S
Mg102 O119 1.955 . S
C103 O114 1.191 . S
C103 O116 1.307 . S
O104 Mg99 2.013 . S
O104 C123 1.191 . S
O105 Mg96 2.081 . S
O105 C113 1.331 . S
O106 Mg102 1.986 1_455 S
O106 C123 1.307 . S
O107 Mg96 2.023 . S
O107 C122 1.264 . S
O108 Mg97 1.942 . S
O108 C113 1.244 . S
O109 Mg97 1.955 . S
O109 C122 1.273 . S
O110 Mg99 2.114 1_655 S
O110 Mg101 2.291 . S
O110 C112 1.312 . S
O111 Mg96 2.031 . S
O111 C112 1.208 1_455 S
C112 O110 1.312 . S
C112 O111 1.208 1_655 S
C113 O105 1.331 . S
C113 O108 1.244 . S
O114 Mg99 2.013 . S
O114 C103 1.191 . S
O115 C94 1.331 . S
O115 Mg101 2.081 . S
O116 Mg97 1.986 . S
O116 C103 1.307 . S
O117 C95 1.264 . S
O117 Mg101 2.023 . S
O118 C94 1.244 . S
O118 Mg102 1.942 . S
O119 C95 1.273 . S
O119 Mg102 1.955 . S
O120 C93 1.312 . S
O120 Mg96 2.291 . S
O120 Mg99 2.114 . S
O121 C93 1.208 1_655 S
O121 Mg101 2.031 . S
C122 O107 1.264 . S
C122 O109 1.273 . S
C123 O104 1.191 . S
C123 O106 1.307 . S
C124 O151 1.312 . S
C124 O152 1.208 . S
C125 O146 1.331 . S
C125 O149 1.244 . S
C126 O148 1.264 . S
C126 O150 1.273 . S
Mg127 O129 1.936 . S
Mg127 O136 2.081 . S
Mg127 O138 2.023 . S
Mg127 O142 2.031 . S
Mg127 O151 2.291 . S
Mg128 O129 1.963 . S
Mg128 O139 1.942 . S
Mg128 O140 1.955 . S
Mg128 O147 1.986 . S
O129 Mg127 1.936 . S
O129 Mg128 1.963 . S
O129 Mg130 1.915 . S
Mg130 O129 1.915 . S
Mg130 O131 1.915 . S
Mg130 O135 2.013 . S
Mg130 O141 2.114 . S
Mg130 O145 2.013 . S
Mg130 O151 2.114 . S
O131 Mg130 1.915 . S
O131 Mg132 1.936 . S
O131 Mg133 1.963 . S
Mg132 O131 1.936 . S
Mg132 O141 2.291 . S
Mg132 O146 2.081 . S
Mg132 O148 2.023 . S
Mg132 O152 2.031 . S
Mg133 O131 1.963 . S
Mg133 O137 1.986 . S
Mg133 O149 1.942 . S
Mg133 O150 1.955 . S
C134 O145 1.191 . S
C134 O147 1.307 . S
O135 Mg130 2.013 . S
O135 C154 1.191 . S
O136 Mg127 2.081 . S
O136 C144 1.331 . S
O137 Mg133 1.986 . S
O137 C154 1.307 . S
O138 Mg127 2.023 . S
O138 C153 1.264 . S
O139 Mg128 1.942 . S
O139 C144 1.244 . S
O140 Mg128 1.955 . S
O140 C153 1.273 . S
O141 Mg130 2.114 . S
O141 Mg132 2.291 . S
O141 C143 1.312 . S
O142 Mg127 2.031 . S
O142 C143 1.208 . S
C143 O141 1.312 . S
C143 O142 1.208 . S
C144 O136 1.331 . S
C144 O139 1.244 . S
O145 Mg130 2.013 . S
O145 C134 1.191 . S
O146 C125 1.331 . S
O146 Mg132 2.081 . S
O147 Mg128 1.986 . S
O147 C134 1.307 . S
O148 C126 1.264 . S
O148 Mg132 2.023 . S
O149 C125 1.244 . S
O149 Mg133 1.942 . S
O150 C126 1.273 . S
O150 Mg133 1.955 . S
O151 C124 1.312 . S
O151 Mg127 2.291 . S
O151 Mg130 2.114 . S
O152 C124 1.208 . S
O152 Mg132 2.031 . S
C153 O138 1.264 . S
C153 O140 1.273 . S
C154 O135 1.191 . S
C154 O137 1.307 . S
C155 O182 1.312 . S
C155 O183 1.208 . S
C156 O177 1.331 . S
C156 O180 1.244 . S
C157 O179 1.264 . S
C157 O181 1.273 . S
Mg158 O160 1.936 . S
Mg158 O167 2.081 . S
Mg158 O169 2.023 . S
Mg158 O173 2.031 . S
Mg158 O182 2.291 . S
Mg159 O160 1.963 . S
Mg159 O170 1.942 . S
Mg159 O171 1.955 . S
Mg159 O178 1.986 . S
O160 Mg158 1.936 . S
O160 Mg159 1.963 . S
O160 Mg161 1.915 . S
Mg161 O160 1.915 . S
Mg161 O162 1.915 . S
Mg161 O166 2.013 . S
Mg161 O172 2.114 . S
Mg161 O176 2.013 . S
Mg161 O182 2.114 . S
O162 Mg161 1.915 . S
O162 Mg163 1.936 . S
O162 Mg164 1.963 . S
Mg163 O162 1.936 . S
Mg163 O172 2.291 . S
Mg163 O177 2.081 . S
Mg163 O179 2.023 . S
Mg163 O183 2.031 . S
Mg164 O162 1.963 . S
Mg164 O168 1.986 . S
Mg164 O180 1.942 . S
Mg164 O181 1.955 . S
C165 O176 1.191 . S
C165 O178 1.307 . S
O166 Mg161 2.013 . S
O166 C185 1.191 . S
O167 Mg158 2.081 . S
O167 C175 1.331 . S
O168 Mg164 1.986 . S
O168 C185 1.307 . S
O169 Mg158 2.023 . S
O169 C184 1.264 . S
O170 Mg159 1.942 . S
O170 C175 1.244 . S
O171 Mg159 1.955 . S
O171 C184 1.273 . S
O172 Mg161 2.114 . S
O172 Mg163 2.291 . S
O172 C174 1.312 . S
O173 Mg158 2.031 . S
O173 C174 1.208 . S
C174 O172 1.312 . S
C174 O173 1.208 . S
C175 O167 1.331 . S
C175 O170 1.244 . S
O176 Mg161 2.013 . S
O176 C165 1.191 . S
O177 C156 1.331 . S
O177 Mg163 2.081 . S
O178 Mg159 1.986 . S
O178 C165 1.307 . S
O179 C157 1.264 . S
O179 Mg163 2.023 . S
O180 C156 1.244 . S
O180 Mg164 1.942 . S
O181 C157 1.273 . S
O181 Mg164 1.955 . S
O182 C155 1.312 . S
O182 Mg158 2.291 . S
O182 Mg161 2.114 . S
O183 C155 1.208 . S
O183 Mg163 2.031 . S
C184 O169 1.264 . S
C184 O171 1.273 . S
C185 O166 1.191 . S
C185 O168 1.307 . S
C186 O213 1.312 . S
C186 O214 1.208 . S
C187 O208 1.331 . S
C187 O211 1.244 1_545 S
C188 O210 1.264 . S
C188 O212 1.273 . S
Mg189 O191 1.936 1_545 S
Mg189 O198 2.081 . S
Mg189 O200 2.023 . S
Mg189 O204 2.031 . S
Mg189 O213 2.291 . S
Mg190 O191 1.963 . S
Mg190 O201 1.942 . S
Mg190 O202 1.955 1_565 S
Mg190 O209 1.986 . S
O191 Mg189 1.936 1_565 S
O191 Mg190 1.963 . S
O191 Mg192 1.915 . S
Mg192 O191 1.915 . S
Mg192 O193 1.916 . S
Mg192 O197 2.013 . S
Mg192 O203 2.114 1_565 S
Mg192 O207 2.013 . S
Mg192 O213 2.114 1_565 S
O193 Mg192 1.916 . S
O193 Mg194 1.930 1_565 S
O193 Mg195 1.972 . S
Mg194 O193 1.930 1_545 S
Mg194 O203 2.291 . S
Mg194 O208 2.081 . S
Mg194 O210 2.023 1_545 S
Mg194 O214 2.031 . S
Mg195 O193 1.972 . S
Mg195 O199 1.986 . S
Mg195 O211 1.942 . S
Mg195 O212 1.955 . S
C196 O207 1.191 . S
C196 O209 1.307 . S
O197 Mg192 2.013 . S
O197 C216 1.191 . S
O198 Mg189 2.081 . S
O198 C206 1.331 1_545 S
O199 Mg195 1.986 . S
O199 C216 1.307 . S
O200 Mg189 2.023 . S
O200 C215 1.264 . S
O201 Mg190 1.942 . S
O201 C206 1.244 . S
O202 Mg190 1.955 1_545 S
O202 C215 1.273 . S
O203 Mg192 2.114 1_545 S
O203 Mg194 2.291 . S
O203 C205 1.312 . S
O204 Mg189 2.031 . S
O204 C205 1.208 . S
C205 O203 1.312 . S
C205 O204 1.208 . S
C206 O198 1.331 1_565 S
C206 O201 1.244 . S
O207 Mg192 2.013 . S
O207 C196 1.191 . S
O208 C187 1.331 . S
O208 Mg194 2.081 . S
O209 Mg190 1.986 . S
O209 C196 1.307 . S
O210 C188 1.264 . S
O210 Mg194 2.023 1_565 S
O211 C187 1.244 1_565 S
O211 Mg195 1.942 . S
O212 C188 1.273 . S
O212 Mg195 1.955 . S
O213 C186 1.312 . S
O213 Mg189 2.291 . S
O213 Mg192 2.114 1_545 S
O214 C186 1.208 . S
O214 Mg194 2.031 . S
C215 O200 1.264 . S
C215 O202 1.273 . S
C216 O197 1.191 . S
C216 O199 1.307 . S
C217 O244 1.315 . S
C217 O245 1.208 1_554 S
C218 O239 1.331 . S
C218 O242 1.244 . S
C219 O241 1.264 . S
C219 O243 1.273 . S
Mg220 O222 1.936 . S
Mg220 O229 2.081 . S
Mg220 O231 2.023 . S
Mg220 O235 2.031 . S
Mg220 O244 2.291 . S
Mg221 O222 1.963 . S
Mg221 O232 1.942 . S
Mg221 O233 1.955 . S
Mg221 O240 1.986 . S
O222 Mg220 1.936 . S
O222 Mg221 1.963 . S
O222 Mg223 1.951 . S
Mg223 O222 1.951 . S
Mg223 O224 1.881 1_554 S
Mg223 O228 1.976 1_554 S
Mg223 O234 2.145 . S
Mg223 O238 2.013 . S
Mg223 O244 2.118 . S
O224 Mg223 1.881 1_556 S
O224 Mg225 1.936 . S
O224 Mg226 1.963 . S
Mg225 O224 1.936 . S
Mg225 O234 2.291 1_556 S
Mg225 O239 2.081 . S
Mg225 O241 2.023 . S
Mg225 O245 2.031 . S
Mg226 O224 1.963 . S
Mg226 O230 1.986 . S
Mg226 O242 1.942 . S
Mg226 O243 1.955 . S
C227 O238 1.207 . S
C227 O240 1.307 . S
O228 Mg223 1.976 1_556 S
O228 C247 1.191 . S
O229 Mg220 2.081 . S
O229 C237 1.331 . S
O230 Mg226 1.986 . S
O230 C247 1.307 . S
O231 Mg220 2.023 . S
O231 C246 1.264 . S
O232 Mg221 1.942 . S
O232 C237 1.244 . S
O233 Mg221 1.955 . S
O233 C246 1.273 . S
O234 Mg223 2.145 . S
O234 Mg225 2.291 1_554 S
O234 C236 1.312 . S
O235 Mg220 2.031 . S
O235 C236 1.208 . S
C236 O234 1.312 . S
C236 O235 1.208 . S
C237 O229 1.331 . S
C237 O232 1.244 . S
O238 Mg223 2.013 . S
O238 C227 1.207 . S
O239 C218 1.331 . S
O239 Mg225 2.081 . S
O240 Mg221 1.986 . S
O240 C227 1.307 . S
O241 C219 1.264 . S
O241 Mg225 2.023 . S
O242 C218 1.244 . S
O242 Mg226 1.942 . S
O243 C219 1.273 . S
O243 Mg226 1.955 . S
O244 C217 1.315 . S
O244 Mg220 2.291 . S
O244 Mg223 2.118 . S
O245 C217 1.208 1_556 S
O245 Mg225 2.031 . S
C246 O231 1.264 . S
C246 O233 1.273 . S
C247 O228 1.191 . S
C247 O230 1.307 . S
H248 C260 0.930 . S
H249 C262 0.930 . S
H250 C263 0.930 . S
H251 C267 0.959 . S
H252 C267 0.959 . S
H253 C267 0.961 . S
H254 C268 0.960 . S
H255 C268 0.961 . S
H256 C268 0.959 . S
H257 C271 0.927 1_565 S
H258 C272 0.931 . S
H259 C274 0.930 . S
C260 H248 0.930 . S
C260 C261 1.399 1_545 S
C260 C265 1.399 . S
C261 C260 1.399 1_565 S
C261 C262 1.376 . S
C262 H249 0.930 . S
C262 C261 1.376 . S
C262 C263 1.388 . S
C263 H250 0.930 . S
C263 C262 1.388 . S
C263 C264 1.390 1_565 S
C264 C263 1.390 1_545 S
C264 C265 1.394 . S
C264 C270 1.465 . S
C265 C260 1.399 . S
C265 C264 1.394 . S
C265 C266 1.516 . S
C266 C265 1.516 . S
C266 C267 1.502 . S
C266 C268 1.561 . S
C266 C269 1.526 . S
C267 H251 0.959 . S
C267 H252 0.959 . S
C267 H253 0.961 . S
C267 C266 1.502 . S
C268 H254 0.960 . S
C268 H255 0.961 . S
C268 H256 0.959 . S
C268 C266 1.561 . S
C269 C266 1.526 . S
C269 C270 1.396 . S
C269 C274 1.390 . S
C270 C264 1.465 . S
C270 C269 1.396 . S
C270 C271 1.399 . S
C271 H257 0.927 1_545 S
C271 C270 1.399 . S
C271 C272 1.385 . S
C272 H258 0.931 . S
C272 C271 1.385 . S
C272 C273 1.389 . S
C273 C272 1.389 . S
C273 C274 1.387 . S
C274 H259 0.930 . S
C274 C269 1.390 . S
C274 C273 1.387 . S
H275 C287 0.930 . S
H276 C289 0.930 . S
H277 C290 0.930 . S
H278 C294 0.959 . S
H279 C294 0.959 . S
H280 C294 0.961 . S
H281 C295 0.960 . S
H282 C295 0.961 . S
H283 C295 0.959 . S
H284 C298 0.929 . S
H285 C299 0.931 . S
H286 C301 0.930 . S
C287 H275 0.930 . S
C287 C288 1.399 1_565 S
C287 C292 1.399 . S
C288 C287 1.399 1_545 S
C288 C289 1.376 . S
C289 H276 0.930 . S
C289 C288 1.376 . S
C289 C290 1.388 . S
C290 H277 0.930 . S
C290 C289 1.388 . S
C290 C291 1.390 1_545 S
C291 C290 1.390 1_565 S
C291 C292 1.394 . S
C291 C297 1.465 . S
C292 C287 1.399 . S
C292 C291 1.394 . S
C292 C293 1.516 . S
C293 C292 1.516 . S
C293 C294 1.502 . S
C293 C295 1.561 . S
C293 C296 1.526 . S
C294 H278 0.959 . S
C294 H279 0.959 . S
C294 H280 0.961 . S
C294 C293 1.502 . S
C295 H281 0.960 . S
C295 H282 0.961 . S
C295 H283 0.959 . S
C295 C293 1.561 . S
C296 C293 1.526 . S
C296 C297 1.396 . S
C296 C301 1.390 . S
C297 C291 1.465 . S
C297 C296 1.396 . S
C297 C298 1.399 1_565 S
C298 H284 0.929 . S
C298 C297 1.399 1_545 S
C298 C299 1.385 1_545 S
C299 H285 0.931 . S
C299 C298 1.385 1_565 S
C299 C300 1.389 . S
C300 C299 1.389 . S
C300 C301 1.387 . S
C301 H286 0.930 . S
C301 C296 1.390 . S
C301 C300 1.387 . S
H302 C314 0.930 . S
H303 C316 0.930 . S
H304 C317 0.930 . S
H305 C321 0.959 . S
H306 C321 0.959 . S
H307 C321 0.961 . S
H308 C322 0.960 . S
H309 C322 0.961 . S
H310 C322 0.959 . S
H311 C325 0.929 . S
H312 C326 0.931 . S
H313 C328 0.930 . S
C314 H302 0.930 . S
C314 C315 1.399 . S
C314 C319 1.399 . S
C315 C314 1.399 . S
C315 C316 1.376 . S
C316 H303 0.930 . S
C316 C315 1.376 . S
C316 C317 1.388 . S
C317 H304 0.930 . S
C317 C316 1.388 . S
C317 C318 1.390 . S
C318 C317 1.390 . S
C318 C319 1.394 . S
C318 C324 1.465 . S
C319 C314 1.399 . S
C319 C318 1.394 . S
C319 C320 1.516 . S
C320 C319 1.516 . S
C320 C321 1.502 . S
C320 C322 1.561 . S
C320 C323 1.526 . S
C321 H305 0.959 . S
C321 H306 0.959 . S
C321 H307 0.961 . S
C321 C320 1.502 . S
C322 H308 0.960 . S
C322 H309 0.961 . S
C322 H310 0.959 . S
C322 C320 1.561 . S
C323 C320 1.526 . S
C323 C324 1.396 . S
C323 C328 1.390 . S
C324 C318 1.465 . S
C324 C323 1.396 . S
C324 C325 1.399 . S
C325 H311 0.929 . S
C325 C324 1.399 . S
C325 C326 1.385 . S
C326 H312 0.931 . S
C326 C325 1.385 . S
C326 C327 1.389 . S
C327 C326 1.389 . S
C327 C328 1.387 . S
C328 H313 0.930 . S
C328 C323 1.390 . S
C328 C327 1.387 . S
H329 C341 0.930 . S
H330 C343 0.930 . S
H331 C344 0.930 . S
H332 C348 0.959 . S
H333 C348 0.959 . S
H334 C348 0.961 . S
H335 C349 0.960 . S
H336 C349 0.961 . S
H337 C349 0.959 . S
H338 C352 0.929 . S
H339 C353 0.931 . S
H340 C355 0.930 . S
C341 H329 0.930 . S
C341 C342 1.399 . S
C341 C346 1.399 . S
C342 C341 1.399 . S
C342 C343 1.376 . S
C343 H330 0.930 . S
C343 C342 1.376 . S
C343 C344 1.388 . S
C344 H331 0.930 . S
C344 C343 1.388 . S
C344 C345 1.390 . S
C345 C344 1.390 . S
C345 C346 1.394 . S
C345 C351 1.465 . S
C346 C341 1.399 . S
C346 C345 1.394 . S
C346 C347 1.516 . S
C347 C346 1.516 . S
C347 C348 1.502 . S
C347 C349 1.561 . S
C347 C350 1.526 . S
C348 H332 0.959 . S
C348 H333 0.959 . S
C348 H334 0.961 . S
C348 C347 1.502 . S
C349 H335 0.960 . S
C349 H336 0.961 . S
C349 H337 0.959 . S
C349 C347 1.561 . S
C350 C347 1.526 . S
C350 C351 1.396 . S
C350 C355 1.390 . S
C351 C345 1.465 . S
C351 C350 1.396 . S
C351 C352 1.399 . S
C352 H338 0.929 . S
C352 C351 1.399 . S
C352 C353 1.385 . S
C353 H339 0.931 . S
C353 C352 1.385 . S
C353 C354 1.389 . S
C354 C353 1.389 . S
C354 C355 1.387 . S
C355 H340 0.930 . S
C355 C350 1.390 . S
C355 C354 1.387 . S
H356 C368 0.930 . S
H357 C370 0.930 . S
H358 C371 0.930 . S
H359 C375 0.959 . S
H360 C375 0.959 . S
H361 C375 0.961 . S
H362 C376 0.960 . S
H363 C376 0.961 . S
H364 C376 0.959 . S
H365 C379 0.929 . S
H366 C380 0.931 . S
H367 C382 0.930 . S
C368 H356 0.930 . S
C368 C369 1.399 . S
C368 C373 1.399 . S
C369 C368 1.399 . S
C369 C370 1.376 . S
C370 H357 0.930 . S
C370 C369 1.376 . S
C370 C371 1.388 . S
C371 H358 0.930 . S
C371 C370 1.388 . S
C371 C372 1.390 . S
C372 C371 1.390 . S
C372 C373 1.394 . S
C372 C378 1.465 . S
C373 C368 1.399 . S
C373 C372 1.394 . S
C373 C374 1.516 . S
C374 C373 1.516 . S
C374 C375 1.502 . S
C374 C376 1.561 . S
C374 C377 1.526 . S
C375 H359 0.959 . S
C375 H360 0.959 . S
C375 H361 0.961 . S
C375 C374 1.502 . S
C376 H362 0.960 . S
C376 H363 0.961 . S
C376 H364 0.959 . S
C376 C374 1.561 . S
C377 C374 1.526 . S
C377 C378 1.396 . S
C377 C382 1.390 . S
C378 C372 1.465 . S
C378 C377 1.396 . S
C378 C379 1.399 . S
C379 H365 0.929 . S
C379 C378 1.399 . S
C379 C380 1.385 . S
C380 H366 0.931 . S
C380 C379 1.385 . S
C380 C381 1.389 . S
C381 C380 1.389 . S
C381 C382 1.387 . S
C382 H367 0.930 . S
C382 C377 1.390 . S
C382 C381 1.387 . S
H383 C395 0.930 . S
H384 C397 0.930 . S
H385 C398 0.930 . S
H386 C402 0.959 . S
H387 C402 0.959 . S
H388 C402 0.961 . S
H389 C403 0.960 . S
H390 C403 0.944 1_455 S
H391 C403 0.959 . S
H392 C406 0.929 . S
H393 C407 0.931 . S
H394 C409 0.930 . S
C395 H383 0.930 . S
C395 C396 1.399 . S
C395 C400 1.399 . S
C396 C395 1.399 . S
C396 C397 1.376 . S
C397 H384 0.930 . S
C397 C396 1.376 . S
C397 C398 1.388 . S
C398 H385 0.930 . S
C398 C397 1.388 . S
C398 C399 1.390 . S
C399 C398 1.390 . S
C399 C400 1.394 . S
C399 C405 1.465 . S
C400 C395 1.399 . S
C400 C399 1.394 . S
C400 C401 1.516 . S
C401 C400 1.516 . S
C401 C402 1.502 . S
C401 C403 1.561 . S
C401 C404 1.526 . S
C402 H386 0.959 . S
C402 H387 0.959 . S
C402 H388 0.961 . S
C402 C401 1.502 . S
C403 H389 0.960 . S
C403 H390 0.944 1_655 S
C403 H391 0.959 . S
C403 C401 1.561 . S
C404 C401 1.526 . S
C404 C405 1.396 . S
C404 C409 1.390 . S
C405 C399 1.465 . S
C405 C404 1.396 . S
C405 C406 1.399 . S
C406 H392 0.929 . S
C406 C405 1.399 . S
C406 C407 1.385 . S
C407 H393 0.931 . S
C407 C406 1.385 . S
C407 C408 1.389 . S
C408 C407 1.389 . S
C408 C409 1.387 . S
C409 H394 0.930 . S
C409 C404 1.390 . S
C409 C408 1.387 . S
H410 C422 0.930 . S
H411 C424 0.930 . S
H412 C425 0.930 . S
H413 C429 0.959 . S
H414 C429 0.959 1_545 S
H415 C429 0.961 . S
H416 C430 0.960 . S
H417 C430 0.961 . S
H418 C430 0.959 . S
H419 C433 0.929 . S
H420 C434 0.931 . S
H421 C436 0.930 1_545 S
C422 H410 0.930 . S
C422 C423 1.399 . S
C422 C427 1.399 . S
C423 C422 1.399 . S
C423 C424 1.376 . S
C424 H411 0.930 . S
C424 C423 1.376 . S
C424 C425 1.388 . S
C425 H412 0.930 . S
C425 C424 1.388 . S
C425 C426 1.390 . S
C426 C425 1.390 . S
C426 C427 1.394 . S
C426 C432 1.465 . S
C427 C422 1.399 . S
C427 C426 1.394 . S
C427 C428 1.516 . S
C428 C427 1.516 . S
C428 C429 1.502 . S
C428 C430 1.561 1_565 S
C428 C431 1.526 . S
C429 H413 0.959 . S
C429 H414 0.959 1_565 S
C429 H415 0.961 . S
C429 C428 1.502 . S
C430 H416 0.960 . S
C430 H417 0.961 . S
C430 H418 0.959 . S
C430 C428 1.561 1_545 S
C431 C428 1.526 . S
C431 C432 1.396 . S
C431 C436 1.390 . S
C432 C426 1.465 . S
C432 C431 1.396 . S
C432 C433 1.399 . S
C433 H419 0.929 . S
C433 C432 1.399 . S
C433 C434 1.385 . S
C434 H420 0.931 . S
C434 C433 1.385 . S
C434 C435 1.389 . S
C435 C434 1.389 . S
C435 C436 1.387 . S
C436 H421 0.930 1_565 S
C436 C431 1.390 . S
C436 C435 1.387 . S
H437 C449 0.930 . S
H438 C451 0.930 . S
H439 C452 0.930 . S
H440 C456 0.959 . S
H441 C456 0.959 . S
H442 C456 0.961 . S
H443 C457 0.960 . S
H444 C457 0.961 . S
H445 C457 0.959 . S
H446 C460 0.929 . S
H447 C461 0.931 1_565 S
H448 C463 0.930 . S
C449 H437 0.930 . S
C449 C450 1.399 . S
C449 C454 1.399 . S
C450 C449 1.399 . S
C450 C451 1.376 . S
C451 H438 0.930 . S
C451 C450 1.376 . S
C451 C452 1.388 . S
C452 H439 0.930 . S
C452 C451 1.388 . S
C452 C453 1.390 . S
C453 C452 1.390 . S
C453 C454 1.394 . S
C453 C459 1.465 . S
C454 C449 1.399 . S
C454 C453 1.394 . S
C454 C455 1.516 . S
C455 C454 1.516 . S
C455 C456 1.502 . S
C455 C457 1.561 . S
C455 C458 1.526 . S
C456 H440 0.959 . S
C456 H441 0.959 . S
C456 H442 0.961 . S
C456 C455 1.502 . S
C457 H443 0.960 . S
C457 H444 0.961 . S
C457 H445 0.959 . S
C457 C455 1.561 . S
C458 C455 1.526 . S
C458 C459 1.396 . S
C458 C463 1.390 . S
C459 C453 1.465 . S
C459 C458 1.396 . S
C459 C460 1.399 . S
C460 H446 0.929 . S
C460 C459 1.399 . S
C460 C461 1.385 . S
C461 H447 0.931 1_545 S
C461 C460 1.385 . S
C461 C462 1.389 . S
C462 C461 1.389 . S
C462 C463 1.387 . S
C463 H448 0.930 . S
C463 C458 1.390 . S
C463 C462 1.387 . S
H464 C476 0.930 . S
H465 C478 0.930 . S
H466 C479 0.930 1_565 S
H467 C483 0.959 . S
H468 C483 0.959 . S
H469 C483 0.961 . S
H470 C484 0.960 . S
H471 C484 0.961 . S
H472 C484 0.959 . S
H473 C487 0.929 . S
H474 C488 0.931 . S
H475 C490 0.930 . S
C476 H464 0.930 . S
C476 C477 1.399 . S
C476 C481 1.399 . S
C477 C476 1.399 . S
C477 C478 1.376 . S
C478 H465 0.930 . S
C478 C477 1.376 . S
C478 C479 1.388 . S
C479 H466 0.930 1_545 S
C479 C478 1.388 . S
C479 C480 1.390 . S
C480 C479 1.390 . S
C480 C481 1.394 . S
C480 C486 1.465 . S
C481 C476 1.399 . S
C481 C480 1.394 . S
C481 C482 1.516 . S
C482 C481 1.516 . S
C482 C483 1.502 . S
C482 C484 1.561 . S
C482 C485 1.526 . S
C483 H467 0.959 . S
C483 H468 0.959 . S
C483 H469 0.961 . S
C483 C482 1.502 . S
C484 H470 0.960 . S
C484 H471 0.961 . S
C484 H472 0.959 . S
C484 C482 1.561 . S
C485 C482 1.526 . S
C485 C486 1.396 . S
C485 C490 1.390 . S
C486 C480 1.465 . S
C486 C485 1.396 . S
C486 C487 1.399 1_545 S
C487 H473 0.929 . S
C487 C486 1.399 1_565 S
C487 C488 1.385 . S
C488 H474 0.931 . S
C488 C487 1.385 . S
C488 C489 1.389 . S
C489 C488 1.389 . S
C489 C490 1.387 1_565 S
C490 H475 0.930 . S
C490 C485 1.390 . S
C490 C489 1.387 1_545 S
H491 C503 0.930 . S
H492 C505 0.930 . S
H493 C506 0.930 . S
H494 C510 0.959 . S
H495 C510 0.959 . S
H496 C510 0.961 . S
H497 C511 0.960 . S
H498 C511 0.961 . S
H499 C511 0.959 . S
H500 C514 0.929 . S
H501 C515 0.931 . S
H502 C517 0.930 . S
C503 H491 0.930 . S
C503 C504 1.399 1_565 S
C503 C508 1.399 . S
C504 C503 1.399 1_545 S
C504 C505 1.376 . S
C505 H492 0.930 . S
C505 C504 1.376 . S
C505 C506 1.388 . S
C506 H493 0.930 . S
C506 C505 1.388 . S
C506 C507 1.390 1_545 S
C507 C506 1.390 1_565 S
C507 C508 1.394 . S
C507 C513 1.465 . S
C508 C503 1.399 . S
C508 C507 1.394 . S
C508 C509 1.516 . S
C509 C508 1.516 . S
C509 C510 1.502 . S
C509 C511 1.561 . S
C509 C512 1.526 . S
C510 H494 0.959 . S
C510 H495 0.959 . S
C510 H496 0.961 . S
C510 C509 1.502 . S
C511 H497 0.960 . S
C511 H498 0.961 . S
C511 H499 0.959 . S
C511 C509 1.561 . S
C512 C509 1.526 . S
C512 C513 1.396 . S
C512 C517 1.390 . S
C513 C507 1.465 . S
C513 C512 1.396 . S
C513 C514 1.399 1_565 S
C514 H500 0.929 . S
C514 C513 1.399 1_545 S
C514 C515 1.385 1_545 S
C515 H501 0.931 . S
C515 C514 1.385 1_565 S
C515 C516 1.389 . S
C516 C515 1.389 . S
C516 C517 1.387 . S
C517 H502 0.930 . S
C517 C512 1.390 . S
C517 C516 1.387 . S
H518 C530 0.930 . S
H519 C532 0.930 . S
H520 C533 0.930 . S
H521 C537 0.959 . S
H522 C537 0.959 . S
H523 C537 0.961 . S
H524 C538 0.960 . S
H525 C538 0.961 . S
H526 C538 0.959 . S
H527 C541 0.929 . S
H528 C542 0.931 . S
H529 C544 0.930 . S
C530 H518 0.930 . S
C530 C531 1.399 . S
C530 C535 1.399 . S
C531 C530 1.399 . S
C531 C532 1.376 . S
C532 H519 0.930 . S
C532 C531 1.376 . S
C532 C533 1.388 . S
C533 H520 0.930 . S
C533 C532 1.388 . S
C533 C534 1.390 . S
C534 C533 1.390 . S
C534 C535 1.394 . S
C534 C540 1.465 . S
C535 C530 1.399 . S
C535 C534 1.394 . S
C535 C536 1.516 . S
C536 C535 1.516 . S
C536 C537 1.502 . S
C536 C538 1.561 . S
C536 C539 1.526 . S
C537 H521 0.959 . S
C537 H522 0.959 . S
C537 H523 0.961 . S
C537 C536 1.502 . S
C538 H524 0.960 . S
C538 H525 0.961 . S
C538 H526 0.959 . S
C538 C536 1.561 . S
C539 C536 1.526 . S
C539 C540 1.396 . S
C539 C544 1.390 . S
C540 C534 1.465 . S
C540 C539 1.396 . S
C540 C541 1.399 . S
C541 H527 0.929 . S
C541 C540 1.399 . S
C541 C542 1.385 . S
C542 H528 0.931 . S
C542 C541 1.385 . S
C542 C543 1.389 . S
C543 C542 1.389 . S
C543 C544 1.387 . S
C544 H529 0.930 . S
C544 C539 1.390 . S
C544 C543 1.387 . S
H545 C557 0.930 . S
H546 C559 0.930 . S
H547 C560 0.930 . S
H548 C564 0.959 . S
H549 C564 0.959 . S
H550 C564 0.961 . S
H551 C565 0.960 . S
H552 C565 0.961 . S
H553 C565 0.959 . S
H554 C568 0.929 . S
H555 C569 0.931 . S
H556 C571 0.930 . S
C557 H545 0.930 . S
C557 C558 1.399 . S
C557 C562 1.399 . S
C558 C557 1.399 . S
C558 C559 1.376 . S
C559 H546 0.930 . S
C559 C558 1.376 . S
C559 C560 1.388 . S
C560 H547 0.930 . S
C560 C559 1.388 . S
C560 C561 1.390 . S
C561 C560 1.390 . S
C561 C562 1.394 . S
C561 C567 1.465 . S
C562 C557 1.399 . S
C562 C561 1.394 . S
C562 C563 1.516 . S
C563 C562 1.516 . S
C563 C564 1.502 . S
C563 C565 1.561 . S
C563 C566 1.526 . S
C564 H548 0.959 . S
C564 H549 0.959 . S
C564 H550 0.961 . S
C564 C563 1.502 . S
C565 H551 0.960 . S
C565 H552 0.961 . S
C565 H553 0.959 . S
C565 C563 1.561 . S
C566 C563 1.526 . S
C566 C567 1.396 . S
C566 C571 1.390 . S
C567 C561 1.465 . S
C567 C566 1.396 . S
C567 C568 1.399 . S
C568 H554 0.929 . S
C568 C567 1.399 . S
C568 C569 1.385 . S
C569 H555 0.931 . S
C569 C568 1.385 . S
C569 C570 1.389 . S
C570 C569 1.389 . S
C570 C571 1.387 . S
C571 H556 0.930 . S
C571 C566 1.390 . S
C571 C570 1.387 . S
H572 C584 0.930 . S
H573 C586 0.930 . S
H574 C587 0.930 . S
H575 C591 0.959 . S
H576 C591 0.959 . S
H577 C591 0.961 . S
H578 C592 0.960 . S
H579 C592 0.961 . S
H580 C592 0.959 . S
H581 C595 0.929 . S
H582 C596 0.931 . S
H583 C598 0.930 . S
C584 H572 0.930 . S
C584 C585 1.399 . S
C584 C589 1.399 . S
C585 C584 1.399 . S
C585 C586 1.376 . S
C586 H573 0.930 . S
C586 C585 1.376 . S
C586 C587 1.388 . S
C587 H574 0.930 . S
C587 C586 1.388 . S
C587 C588 1.390 . S
C588 C587 1.390 . S
C588 C589 1.394 . S
C588 C594 1.465 . S
C589 C584 1.399 . S
C589 C588 1.394 . S
C589 C590 1.516 . S
C590 C589 1.516 . S
C590 C591 1.502 . S
C590 C592 1.561 . S
C590 C593 1.526 . S
C591 H575 0.959 . S
C591 H576 0.959 . S
C591 H577 0.961 . S
C591 C590 1.502 . S
C592 H578 0.960 . S
C592 H579 0.961 . S
C592 H580 0.959 . S
C592 C590 1.561 . S
C593 C590 1.526 . S
C593 C594 1.396 . S
C593 C598 1.390 . S
C594 C588 1.465 . S
C594 C593 1.396 . S
C594 C595 1.399 . S
C595 H581 0.929 . S
C595 C594 1.399 . S
C595 C596 1.385 . S
C596 H582 0.931 . S
C596 C595 1.385 . S
C596 C597 1.389 . S
C597 C596 1.389 . S
C597 C598 1.387 . S
C598 H583 0.930 . S
C598 C593 1.390 . S
C598 C597 1.387 . S
H599 C611 0.930 . S
H600 C613 0.930 . S
H601 C614 0.930 . S
H602 C618 0.959 . S
H603 C618 0.959 . S
H604 C618 0.961 . S
H605 C619 0.960 . S
H606 C619 0.961 . S
H607 C619 0.959 . S
H608 C622 0.929 . S
H609 C623 0.931 . S
H610 C625 0.930 . S
C611 H599 0.930 . S
C611 C612 1.399 . S
C611 C616 1.399 . S
C612 C611 1.399 . S
C612 C613 1.376 . S
C613 H600 0.930 . S
C613 C612 1.376 . S
C613 C614 1.388 . S
C614 H601 0.930 . S
C614 C613 1.388 . S
C614 C615 1.390 . S
C615 C614 1.390 . S
C615 C616 1.394 . S
C615 C621 1.465 . S
C616 C611 1.399 . S
C616 C615 1.394 . S
C616 C617 1.516 . S
C617 C616 1.516 . S
C617 C618 1.502 . S
C617 C619 1.561 . S
C617 C620 1.526 . S
C618 H602 0.959 . S
C618 H603 0.959 . S
C618 H604 0.961 . S
C618 C617 1.502 . S
C619 H605 0.960 . S
C619 H606 0.961 . S
C619 H607 0.959 . S
C619 C617 1.561 . S
C620 C617 1.526 . S
C620 C621 1.396 . S
C620 C625 1.390 . S
C621 C615 1.465 . S
C621 C620 1.396 . S
C621 C622 1.399 . S
C622 H608 0.929 . S
C622 C621 1.399 . S
C622 C623 1.385 . S
C623 H609 0.931 . S
C623 C622 1.385 . S
C623 C624 1.389 . S
C624 C623 1.389 . S
C624 C625 1.387 . S
C625 H610 0.930 . S
C625 C620 1.390 . S
C625 C624 1.387 . S
H626 C638 0.930 . S
H627 C640 0.938 . S
H628 C641 0.930 1_545 S
H629 C645 0.959 . S
H630 C645 0.959 . S
H631 C645 0.961 . S
H632 C646 0.960 . S
H633 C646 0.961 . S
H634 C646 0.959 . S
H635 C649 0.929 . S
H636 C650 0.931 . S
H637 C652 0.930 . S
C638 H626 0.930 . S
C638 C639 1.399 . S
C638 C643 1.399 . S
C639 C638 1.399 . S
C639 C640 1.371 1_565 S
C640 H627 0.938 . S
C640 C639 1.371 1_545 S
C640 C641 1.387 1_545 S
C641 H628 0.930 1_565 S
C641 C640 1.387 1_565 S
C641 C642 1.390 . S
C642 C641 1.390 . S
C642 C643 1.394 . S
C642 C648 1.465 . S
C643 C638 1.399 . S
C643 C642 1.394 . S
C643 C644 1.516 . S
C644 C643 1.516 . S
C644 C645 1.502 . S
C644 C646 1.561 . S
C644 C647 1.526 . S
C645 H629 0.959 . S
C645 H630 0.959 . S
C645 H631 0.961 . S
C645 C644 1.502 . S
C646 H632 0.960 . S
C646 H633 0.961 . S
C646 H634 0.959 . S
C646 C644 1.561 . S
C647 C644 1.526 . S
C647 C648 1.396 . S
C647 C652 1.390 . S
C648 C642 1.465 . S
C648 C647 1.396 . S
C648 C649 1.399 . S
C649 H635 0.929 . S
C649 C648 1.399 . S
C649 C650 1.385 . S
C650 H636 0.931 . S
C650 C649 1.385 . S
C650 C651 1.389 . S
C651 C650 1.389 . S
C651 C652 1.387 . S
C652 H637 0.930 . S
C652 C647 1.390 . S
C652 C651 1.387 . S
H653 C665 0.930 . S
H654 C667 0.930 1_565 S
H655 C668 0.930 . S
H656 C672 0.959 . S
H657 C672 0.959 . S
H658 C672 0.961 . S
H659 C673 0.960 . S
H660 C673 0.961 . S
H661 C673 0.959 . S
H662 C676 0.929 . S
H663 C677 0.931 . S
H664 C679 0.930 . S
C665 H653 0.930 . S
C665 C666 1.399 . S
C665 C670 1.399 . S
C666 C665 1.399 . S
C666 C667 1.376 . S
C667 H654 0.930 1_545 S
C667 C666 1.376 . S
C667 C668 1.388 . S
C668 H655 0.930 . S
C668 C667 1.388 . S
C668 C669 1.390 . S
C669 C668 1.390 . S
C669 C670 1.394 . S
C669 C675 1.465 . S
C670 C665 1.399 . S
C670 C669 1.394 . S
C670 C671 1.516 . S
C671 C670 1.516 . S
C671 C672 1.502 . S
C671 C673 1.561 . S
C671 C674 1.526 . S
C672 H656 0.959 . S
C672 H657 0.959 . S
C672 H658 0.961 . S
C672 C671 1.502 . S
C673 H659 0.960 . S
C673 H660 0.961 . S
C673 H661 0.959 . S
C673 C671 1.561 . S
C674 C671 1.526 . S
C674 C675 1.396 . S
C674 C679 1.390 . S
C675 C669 1.465 . S
C675 C674 1.396 . S
C675 C676 1.399 . S
C676 H662 0.929 . S
C676 C675 1.399 . S
C676 C677 1.385 . S
C677 H663 0.931 . S
C677 C676 1.385 . S
C677 C678 1.389 . S
C678 C677 1.389 . S
C678 C679 1.387 . S
C679 H664 0.930 . S
C679 C674 1.390 . S
C679 C678 1.387 . S
H680 C692 0.930 . S
H681 C694 0.930 1_655 S
H682 C695 0.930 . S
H683 C699 0.959 . S
H684 C699 0.959 . S
H685 C699 0.961 . S
H686 C700 0.960 . S
H687 C700 0.961 . S
H688 C700 0.959 . S
H689 C703 0.929 . S
H690 C704 0.931 . S
H691 C706 0.930 . S
C692 H680 0.930 . S
C692 C693 1.399 . S
C692 C697 1.399 . S
C693 C692 1.399 . S
C693 C694 1.376 1_554 S
C694 H681 0.930 1_455 S
C694 C693 1.376 1_556 S
C694 C695 1.388 1_455 S
C695 H682 0.930 . S
C695 C694 1.388 1_655 S
C695 C696 1.390 1_655 S
C696 C695 1.390 1_455 S
C696 C697 1.394 1_556 S
C696 C702 1.465 . S
C697 C692 1.399 . S
C697 C696 1.394 1_554 S
C697 C698 1.516 . S
C698 C697 1.516 . S
C698 C699 1.502 . S
C698 C700 1.561 . S
C698 C701 1.526 . S
C699 H683 0.959 . S
C699 H684 0.959 . S
C699 H685 0.961 . S
C699 C698 1.502 . S
C700 H686 0.960 . S
C700 H687 0.961 . S
C700 H688 0.959 . S
C700 C698 1.561 . S
C701 C698 1.526 . S
C701 C702 1.396 1_554 S
C701 C706 1.390 . S
C702 C696 1.465 . S
C702 C701 1.396 1_556 S
C702 C703 1.399 1_455 S
C703 H689 0.929 . S
C703 C702 1.399 1_655 S
C703 C704 1.385 . S
C704 H690 0.931 . S
C704 C703 1.385 . S
C704 C705 1.389 1_655 S
C705 C704 1.389 1_455 S
C705 C706 1.387 1_556 S
C706 H691 0.930 . S
C706 C701 1.390 . S
C706 C705 1.387 1_554 S
H707 C719 0.930 . S
H708 C721 0.930 . S
H709 C722 0.930 . S
H710 C726 0.959 . S
H711 C726 0.959 . S
H712 C726 0.961 . S
H713 C727 0.960 . S
H714 C727 0.961 . S
H715 C727 0.959 . S
H716 C730 0.929 . S
H717 C731 0.931 . S
H718 C733 0.930 . S
C719 H707 0.930 . S
C719 C720 1.399 . S
C719 C724 1.399 . S
C720 C719 1.399 . S
C720 C721 1.376 . S
C721 H708 0.930 . S
C721 C720 1.376 . S
C721 C722 1.388 . S
C722 H709 0.930 . S
C722 C721 1.388 . S
C722 C723 1.390 . S
C723 C722 1.390 . S
C723 C724 1.394 . S
C723 C729 1.465 . S
C724 C719 1.399 . S
C724 C723 1.394 . S
C724 C725 1.516 . S
C725 C724 1.516 . S
C725 C726 1.502 . S
C725 C727 1.561 . S
C725 C728 1.526 . S
C726 H710 0.959 . S
C726 H711 0.959 . S
C726 H712 0.961 . S
C726 C725 1.502 . S
C727 H713 0.960 . S
C727 H714 0.961 . S
C727 H715 0.959 . S
C727 C725 1.561 . S
C728 C725 1.526 . S
C728 C729 1.396 . S
C728 C733 1.390 . S
C729 C723 1.465 . S
C729 C728 1.396 . S
C729 C730 1.399 . S
C730 H716 0.929 . S
C730 C729 1.399 . S
C730 C731 1.385 . S
C731 H717 0.931 . S
C731 C730 1.385 . S
C731 C732 1.389 . S
C732 C731 1.389 . S
C732 C733 1.387 . S
C733 H718 0.930 . S
C733 C728 1.390 . S
C733 C732 1.387 . S
H734 C746 0.930 . S
H735 C748 0.930 1_565 S
H736 C749 0.930 . S
H737 C753 0.959 . S
H738 C753 0.959 . S
H739 C753 0.961 . S
H740 C754 0.960 . S
H741 C754 0.961 . S
H742 C754 0.959 . S
H743 C757 0.929 . S
H744 C758 0.931 . S
H745 C760 0.930 . S
C746 H734 0.930 . S
C746 C747 1.399 . S
C746 C751 1.399 . S
C747 C746 1.399 . S
C747 C748 1.376 . S
C748 H735 0.930 1_545 S
C748 C747 1.376 . S
C748 C749 1.388 . S
C749 H736 0.930 . S
C749 C748 1.388 . S
C749 C750 1.390 . S
C750 C749 1.390 . S
C750 C751 1.394 . S
C750 C756 1.465 . S
C751 C746 1.399 . S
C751 C750 1.394 . S
C751 C752 1.516 . S
C752 C751 1.516 . S
C752 C753 1.502 . S
C752 C754 1.561 . S
C752 C755 1.526 . S
C753 H737 0.959 . S
C753 H738 0.959 . S
C753 H739 0.961 . S
C753 C752 1.502 . S
C754 H740 0.960 . S
C754 H741 0.961 . S
C754 H742 0.959 . S
C754 C752 1.561 . S
C755 C752 1.526 . S
C755 C756 1.396 . S
C755 C760 1.390 . S
C756 C750 1.465 . S
C756 C755 1.396 . S
C756 C757 1.399 . S
C757 H743 0.929 . S
C757 C756 1.399 . S
C757 C758 1.385 . S
C758 H744 0.931 . S
C758 C757 1.385 . S
C758 C759 1.389 . S
C759 C758 1.389 . S
C759 C760 1.387 . S
C760 H745 0.930 . S
C760 C755 1.390 . S
C760 C759 1.387 . S
H761 C773 0.930 . S
H762 C775 0.930 . S
H763 C776 0.930 . S
H764 C780 0.959 . S
H765 C780 0.959 1_545 S
H766 C780 0.961 . S
H767 C781 0.960 . S
H768 C781 0.961 1_545 S
H769 C781 0.959 . S
H770 C784 0.929 . S
H771 C785 0.931 . S
H772 C787 0.930 . S
C773 H761 0.930 . S
C773 C774 1.399 . S
C773 C778 1.399 . S
C774 C773 1.399 . S
C774 C775 1.376 1_455 S
C775 H762 0.930 . S
C775 C774 1.376 1_655 S
C775 C776 1.388 . S
C776 H763 0.930 . S
C776 C775 1.388 . S
C776 C777 1.390 1_655 S
C777 C776 1.390 1_455 S
C777 C778 1.394 . S
C777 C783 1.465 1_565 S
C778 C773 1.399 . S
C778 C777 1.394 . S
C778 C779 1.516 . S
C779 C778 1.516 . S
C779 C780 1.502 . S
C779 C781 1.561 . S
C779 C782 1.526 1_565 S
C780 H764 0.959 . S
C780 H765 0.959 1_565 S
C780 H766 0.961 . S
C780 C779 1.502 . S
C781 H767 0.960 . S
C781 H768 0.961 1_565 S
C781 H769 0.959 . S
C781 C779 1.561 . S
C782 C779 1.526 1_545 S
C782 C783 1.396 . S
C782 C787 1.390 . S
C783 C777 1.465 1_545 S
C783 C782 1.396 . S
C783 C784 1.399 1_455 S
C784 H770 0.929 . S
C784 C783 1.399 1_655 S
C784 C785 1.385 . S
C785 H771 0.931 . S
C785 C784 1.385 . S
C785 C786 1.389 1_655 S
C786 C785 1.389 1_455 S
C786 C787 1.387 . S
C787 H772 0.930 . S
C787 C782 1.390 . S
C787 C786 1.387 . S
H788 C800 0.930 . S
H789 C802 0.930 1_565 S
H790 C803 0.930 . S
H791 C807 0.959 . S
H792 C807 0.959 . S
H793 C807 0.961 . S
H794 C808 0.960 . S
H795 C808 0.961 . S
H796 C808 0.959 . S
H797 C811 0.929 . S
H798 C812 0.931 . S
H799 C814 0.930 . S
C800 H788 0.930 . S
C800 C801 1.399 . S
C800 C805 1.399 . S
C801 C800 1.399 . S
C801 C802 1.376 . S
C802 H789 0.930 1_545 S
C802 C801 1.376 . S
C802 C803 1.388 . S
C803 H790 0.930 . S
C803 C802 1.388 . S
C803 C804 1.390 . S
C804 C803 1.390 . S
C804 C805 1.394 . S
C804 C810 1.465 . S
C805 C800 1.399 . S
C805 C804 1.394 . S
C805 C806 1.516 . S
C806 C805 1.516 . S
C806 C807 1.502 . S
C806 C808 1.561 . S
C806 C809 1.526 . S
C807 H791 0.959 . S
C807 H792 0.959 . S
C807 H793 0.961 . S
C807 C806 1.502 . S
C808 H794 0.960 . S
C808 H795 0.961 . S
C808 H796 0.959 . S
C808 C806 1.561 . S
C809 C806 1.526 . S
C809 C810 1.396 . S
C809 C814 1.390 . S
C810 C804 1.465 . S
C810 C809 1.396 . S
C810 C811 1.399 . S
C811 H797 0.929 . S
C811 C810 1.399 . S
C811 C812 1.385 . S
C812 H798 0.931 . S
C812 C811 1.385 . S
C812 C813 1.389 . S
C813 C812 1.389 . S
C813 C814 1.387 . S
C814 H799 0.930 . S
C814 C809 1.390 . S
C814 C813 1.387 . S
H815 C827 0.930 . S
H816 C829 0.930 . S
H817 C830 0.930 . S
H818 C834 0.959 . S
H819 C834 0.959 . S
H820 C834 0.961 . S
H821 C835 0.960 . S
H822 C835 0.961 . S
H823 C835 0.959 . S
H824 C838 0.929 . S
H825 C839 0.931 1_545 S
H826 C841 0.930 . S
C827 H815 0.930 . S
C827 C828 1.399 . S
C827 C832 1.399 . S
C828 C827 1.399 . S
C828 C829 1.376 . S
C829 H816 0.930 . S
C829 C828 1.376 . S
C829 C830 1.388 . S
C830 H817 0.930 . S
C830 C829 1.388 . S
C830 C831 1.390 . S
C831 C830 1.390 . S
C831 C832 1.394 . S
C831 C837 1.465 . S
C832 C827 1.399 . S
C832 C831 1.394 . S
C832 C833 1.516 . S
C833 C832 1.516 . S
C833 C834 1.502 . S
C833 C835 1.561 . S
C833 C836 1.526 . S
C834 H818 0.959 . S
C834 H819 0.959 . S
C834 H820 0.961 . S
C834 C833 1.502 . S
C835 H821 0.960 . S
C835 H822 0.961 . S
C835 H823 0.959 . S
C835 C833 1.561 . S
C836 C833 1.526 . S
C836 C837 1.396 . S
C836 C841 1.390 . S
C837 C831 1.465 . S
C837 C836 1.396 . S
C837 C838 1.399 . S
C838 H824 0.929 . S
C838 C837 1.399 . S
C838 C839 1.385 . S
C839 H825 0.931 1_565 S
C839 C838 1.385 . S
C839 C840 1.389 . S
C840 C839 1.389 . S
C840 C841 1.387 . S
C841 H826 0.930 . S
C841 C836 1.390 . S
C841 C840 1.387 . S
H842 C854 0.930 . S
H843 C856 0.930 . S
H844 C857 0.930 . S
H845 C861 0.959 . S
H846 C861 0.959 . S
H847 C861 0.961 . S
H848 C862 0.960 . S
H849 C862 0.961 . S
H850 C862 0.959 . S
H851 C865 0.929 . S
H852 C866 0.931 . S
H853 C868 0.930 . S
C854 H842 0.930 . S
C854 C855 1.399 . S
C854 C859 1.399 . S
C855 C854 1.399 . S
C855 C856 1.376 . S
C856 H843 0.930 . S
C856 C855 1.376 . S
C856 C857 1.388 . S
C857 H844 0.930 . S
C857 C856 1.388 . S
C857 C858 1.390 . S
C858 C857 1.390 . S
C858 C859 1.394 . S
C858 C864 1.465 . S
C859 C854 1.399 . S
C859 C858 1.394 . S
C859 C860 1.516 . S
C860 C859 1.516 . S
C860 C861 1.502 . S
C860 C862 1.561 . S
C860 C863 1.526 . S
C861 H845 0.959 . S
C861 H846 0.959 . S
C861 H847 0.961 . S
C861 C860 1.502 . S
C862 H848 0.960 . S
C862 H849 0.961 . S
C862 H850 0.959 . S
C862 C860 1.561 . S
C863 C860 1.526 . S
C863 C864 1.396 . S
C863 C868 1.390 . S
C864 C858 1.465 . S
C864 C863 1.396 . S
C864 C865 1.399 . S
C865 H851 0.929 . S
C865 C864 1.399 . S
C865 C866 1.385 . S
C866 H852 0.931 . S
C866 C865 1.385 . S
C866 C867 1.389 . S
C867 C866 1.389 . S
C867 C868 1.387 . S
C868 H853 0.930 . S
C868 C863 1.390 . S
C868 C867 1.387 . S
H869 C881 0.930 . S
H870 C883 0.930 . S
H871 C884 0.930 . S
H872 C888 0.959 . S
H873 C888 0.959 . S
H874 C888 0.961 1_565 S
H875 C889 0.960 1_565 S
H876 C889 0.961 . S
H877 C889 0.959 . S
H878 C892 0.929 . S
H879 C893 0.931 . S
H880 C895 0.930 . S
C881 H869 0.930 . S
C881 C882 1.399 1_554 S
C881 C886 1.399 . S
C882 C881 1.399 1_556 S
C882 C883 1.376 . S
C883 H870 0.930 . S
C883 C882 1.376 . S
C883 C884 1.388 . S
C884 H871 0.930 . S
C884 C883 1.388 . S
C884 C885 1.390 . S
C885 C884 1.390 . S
C885 C886 1.394 1_556 S
C885 C891 1.465 1_565 S
C886 C881 1.399 . S
C886 C885 1.394 1_554 S
C886 C887 1.516 1_565 S
C887 C886 1.516 1_545 S
C887 C888 1.502 . S
C887 C889 1.561 . S
C887 C890 1.526 . S
C888 H872 0.959 . S
C888 H873 0.959 . S
C888 H874 0.961 1_545 S
C888 C887 1.502 . S
C889 H875 0.960 1_545 S
C889 H876 0.961 . S
C889 H877 0.959 . S
C889 C887 1.561 . S
C890 C887 1.526 . S
C890 C891 1.396 1_554 S
C890 C895 1.390 . S
C891 C885 1.465 1_545 S
C891 C890 1.396 1_556 S
C891 C892 1.399 . S
C892 H878 0.929 . S
C892 C891 1.399 . S
C892 C893 1.385 . S
C893 H879 0.931 . S
C893 C892 1.385 . S
C893 C894 1.389 1_556 S
C894 C893 1.389 1_554 S
C894 C895 1.387 . S
C895 H880 0.930 . S
C895 C890 1.390 . S
C895 C894 1.387 . S
H896 C908 0.930 . S
H897 C910 0.930 . S
H898 C911 0.930 . S
H899 C915 0.959 . S
H900 C915 0.959 . S
H901 C915 0.961 . S
H902 C916 0.960 . S
H903 C916 0.961 . S
H904 C916 0.959 . S
H905 C919 0.929 . S
H906 C920 0.931 . S
H907 C922 0.930 . S
C908 H896 0.930 . S
C908 C909 1.399 . S
C908 C913 1.399 . S
C909 C908 1.399 . S
C909 C910 1.376 1_556 S
C910 H897 0.930 . S
C910 C909 1.376 1_554 S
C910 C911 1.388 . S
C911 H898 0.930 . S
C911 C910 1.388 . S
C911 C912 1.390 . S
C912 C911 1.390 . S
C912 C913 1.394 1_554 S
C912 C918 1.465 . S
C913 C908 1.399 . S
C913 C912 1.394 1_556 S
C913 C914 1.516 . S
C914 C913 1.516 . S
C914 C915 1.502 . S
C914 C916 1.561 . S
C914 C917 1.526 . S
C915 H899 0.959 . S
C915 H900 0.959 . S
C915 H901 0.961 . S
C915 C914 1.502 . S
C916 H902 0.960 . S
C916 H903 0.961 . S
C916 H904 0.959 . S
C916 C914 1.561 . S
C917 C914 1.526 . S
C917 C918 1.396 1_556 S
C917 C922 1.390 . S
C918 C912 1.465 . S
C918 C917 1.396 1_554 S
C918 C919 1.399 . S
C919 H905 0.929 . S
C919 C918 1.399 . S
C919 C920 1.385 . S
C920 H906 0.931 . S
C920 C919 1.385 . S
C920 C921 1.389 . S
C921 C920 1.389 . S
C921 C922 1.387 1_554 S
C922 H907 0.930 . S
C922 C917 1.390 . S
C922 C921 1.387 1_556 S
H923 C935 0.930 . S
H924 C937 0.930 . S
H925 C938 0.930 . S
H926 C942 0.959 . S
H927 C942 0.959 . S
H928 C942 0.961 . S
H929 C943 0.960 . S
H930 C943 0.961 . S
H931 C943 0.959 . S
H932 C946 0.929 . S
H933 C947 0.931 . S
H934 C949 0.930 . S
C935 H923 0.930 . S
C935 C936 1.399 . S
C935 C940 1.399 . S
C936 C935 1.399 . S
C936 C937 1.376 1_556 S
C937 H924 0.930 . S
C937 C936 1.376 1_554 S
C937 C938 1.388 . S
C938 H925 0.930 . S
C938 C937 1.388 . S
C938 C939 1.390 . S
C939 C938 1.390 . S
C939 C940 1.394 1_554 S
C939 C945 1.465 . S
C940 C935 1.399 . S
C940 C939 1.394 1_556 S
C940 C941 1.516 . S
C941 C940 1.516 . S
C941 C942 1.502 . S
C941 C943 1.561 . S
C941 C944 1.526 . S
C942 H926 0.959 . S
C942 H927 0.959 . S
C942 H928 0.961 . S
C942 C941 1.502 . S
C943 H929 0.960 . S
C943 H930 0.961 . S
C943 H931 0.959 . S
C943 C941 1.561 . S
C944 C941 1.526 . S
C944 C945 1.396 1_556 S
C944 C949 1.390 . S
C945 C939 1.465 . S
C945 C944 1.396 1_554 S
C945 C946 1.399 . S
C946 H932 0.929 . S
C946 C945 1.399 . S
C946 C947 1.385 . S
C947 H933 0.931 . S
C947 C946 1.385 . S
C947 C948 1.389 . S
C948 C947 1.389 . S
C948 C949 1.387 1_554 S
C949 H934 0.930 . S
C949 C944 1.390 . S
C949 C948 1.387 1_556 S
H950 C962 0.930 . S
H951 C964 0.930 . S
H952 C965 0.930 . S
H953 C969 0.962 . S
H954 C969 0.965 . S
H955 C969 0.955 1_455 S
H956 C970 0.960 . S
H957 C970 0.961 . S
H958 C970 0.959 . S
H959 C973 0.929 . S
H960 C974 0.931 . S
H961 C976 0.930 . S
C962 H950 0.930 . S
C962 C963 1.399 . S
C962 C967 1.399 . S
C963 C962 1.399 . S
C963 C964 1.376 . S
C964 H951 0.930 . S
C964 C963 1.376 . S
C964 C965 1.388 . S
C965 H952 0.930 . S
C965 C964 1.388 . S
C965 C966 1.390 . S
C966 C965 1.390 . S
C966 C967 1.394 . S
C966 C972 1.465 . S
C967 C962 1.399 . S
C967 C966 1.394 . S
C967 C968 1.516 . S
C968 C967 1.516 . S
C968 C969 1.499 1_455 S
C968 C970 1.561 . S
C968 C971 1.526 1_455 S
C969 H953 0.962 . S
C969 H954 0.965 . S
C969 H955 0.955 1_655 S
C969 C968 1.499 1_655 S
C970 H956 0.960 . S
C970 H957 0.961 . S
C970 H958 0.959 . S
C970 C968 1.561 . S
C971 C968 1.526 1_655 S
C971 C972 1.396 1_655 S
C971 C976 1.390 . S
C972 C966 1.465 . S
C972 C971 1.396 1_455 S
C972 C973 1.399 1_455 S
C973 H959 0.929 . S
C973 C972 1.399 1_655 S
C973 C974 1.385 . S
C974 H960 0.931 . S
C974 C973 1.385 . S
C974 C975 1.389 . S
C975 C974 1.389 . S
C975 C976 1.387 . S
C976 H961 0.930 . S
C976 C971 1.390 . S
C976 C975 1.387 . S
H977 C989 0.930 . S
H978 C991 0.930 . S
H979 C992 0.930 . S
H980 C996 0.959 . S
H981 C996 0.959 . S
H982 C996 0.961 . S
H983 C997 0.960 . S
H984 C997 0.961 . S
H985 C997 0.959 . S
H986 C1000 0.929 . S
H987 C1001 0.931 . S
H988 C1003 0.930 . S
C989 H977 0.930 . S
C989 C990 1.399 . S
C989 C994 1.399 . S
C990 C989 1.399 . S
C990 C991 1.376 . S
C991 H978 0.930 . S
C991 C990 1.376 . S
C991 C992 1.388 . S
C992 H979 0.930 . S
C992 C991 1.388 . S
C992 C993 1.390 . S
C993 C992 1.390 . S
C993 C994 1.394 . S
C993 C999 1.465 . S
C994 C989 1.399 . S
C994 C993 1.394 . S
C994 C995 1.516 . S
C995 C994 1.516 . S
C995 C996 1.502 . S
C995 C997 1.561 . S
C995 C998 1.526 . S
C996 H980 0.959 . S
C996 H981 0.959 . S
C996 H982 0.961 . S
C996 C995 1.502 . S
C997 H983 0.960 . S
C997 H984 0.961 . S
C997 H985 0.959 . S
C997 C995 1.561 . S
C998 C995 1.526 . S
C998 C999 1.396 . S
C998 C1003 1.390 . S
C999 C993 1.465 . S
C999 C998 1.396 . S
C999 C1000 1.399 . S
C1000 H986 0.929 . S
C1000 C999 1.399 . S
C1000 C1001 1.385 . S
C1001 H987 0.931 . S
C1001 C1000 1.385 . S
C1001 C1002 1.389 . S
C1002 C1001 1.389 . S
C1002 C1003 1.387 . S
C1003 H988 0.930 . S
C1003 C998 1.390 . S
C1003 C1002 1.387 . S
H1004 C1016 0.930 . S
H1005 C1018 0.930 . S
H1006 C1019 0.930 . S
H1007 C1023 0.959 . S
H1008 C1023 0.959 . S
H1009 C1023 0.961 . S
H1010 C1024 0.960 . S
H1011 C1024 0.961 . S
H1012 C1024 0.959 . S
H1013 C1027 0.929 . S
H1014 C1028 0.931 . S
H1015 C1030 0.930 . S
C1016 H1004 0.930 . S
C1016 C1017 1.399 . S
C1016 C1021 1.399 . S
C1017 C1016 1.399 . S
C1017 C1018 1.376 . S
C1018 H1005 0.930 . S
C1018 C1017 1.376 . S
C1018 C1019 1.388 . S
C1019 H1006 0.930 . S
C1019 C1018 1.388 . S
C1019 C1020 1.390 . S
C1020 C1019 1.390 . S
C1020 C1021 1.394 . S
C1020 C1026 1.465 . S
C1021 C1016 1.399 . S
C1021 C1020 1.394 . S
C1021 C1022 1.516 . S
C1022 C1021 1.516 . S
C1022 C1023 1.502 . S
C1022 C1024 1.561 . S
C1022 C1025 1.526 . S
C1023 H1007 0.959 . S
C1023 H1008 0.959 . S
C1023 H1009 0.961 . S
C1023 C1022 1.502 . S
C1024 H1010 0.960 . S
C1024 H1011 0.961 . S
C1024 H1012 0.959 . S
C1024 C1022 1.561 . S
C1025 C1022 1.526 . S
C1025 C1026 1.396 . S
C1025 C1030 1.390 . S
C1026 C1020 1.465 . S
C1026 C1025 1.396 . S
C1026 C1027 1.399 . S
C1027 H1013 0.929 . S
C1027 C1026 1.399 . S
C1027 C1028 1.385 . S
C1028 H1014 0.931 . S
C1028 C1027 1.385 . S
C1028 C1029 1.389 . S
C1029 C1028 1.389 . S
C1029 C1030 1.387 . S
C1030 H1015 0.930 . S
C1030 C1025 1.390 . S
C1030 C1029 1.387 . S
H1031 C1043 0.930 . S
H1032 C1045 0.930 . S
H1033 C1046 0.930 . S
H1034 C1050 0.959 . S
H1035 C1050 0.959 . S
H1036 C1050 0.961 1_655 S
H1037 C1051 0.960 . S
H1038 C1051 0.961 1_455 S
H1039 C1051 0.959 . S
H1040 C1054 0.929 . S
H1041 C1055 0.931 . S
H1042 C1057 0.930 . S
C1043 H1031 0.930 . S
C1043 C1044 1.399 . S
C1043 C1048 1.399 . S
C1044 C1043 1.399 . S
C1044 C1045 1.376 . S
C1045 H1032 0.930 . S
C1045 C1044 1.376 . S
C1045 C1046 1.388 . S
C1046 H1033 0.930 . S
C1046 C1045 1.388 . S
C1046 C1047 1.390 1_645 S
C1047 C1046 1.390 1_465 S
C1047 C1048 1.394 1_465 S
C1047 C1053 1.465 . S
C1048 C1043 1.399 . S
C1048 C1047 1.394 1_645 S
C1048 C1049 1.516 1_645 S
C1049 C1048 1.516 1_465 S
C1049 C1050 1.502 1_565 S
C1049 C1051 1.561 1_455 S
C1049 C1052 1.526 . S
C1050 H1034 0.959 . S
C1050 H1035 0.959 . S
C1050 H1036 0.961 1_455 S
C1050 C1049 1.502 1_545 S
C1051 H1037 0.960 . S
C1051 H1038 0.961 1_655 S
C1051 H1039 0.959 . S
C1051 C1049 1.561 1_655 S
C1052 C1049 1.526 . S
C1052 C1053 1.396 . S
C1052 C1057 1.390 . S
C1053 C1047 1.465 . S
C1053 C1052 1.396 . S
C1053 C1054 1.399 . S
C1054 H1040 0.929 . S
C1054 C1053 1.399 . S
C1054 C1055 1.385 . S
C1055 H1041 0.931 . S
C1055 C1054 1.385 . S
C1055 C1056 1.389 . S
C1056 C1055 1.389 . S
C1056 C1057 1.387 . S
C1057 H1042 0.930 . S
C1057 C1052 1.390 . S
C1057 C1056 1.387 . S
H1058 C1070 0.930 . S
H1059 C1072 0.930 . S
H1060 C1073 0.930 . S
H1061 C1077 0.959 . S
H1062 C1077 0.959 . S
H1063 C1077 0.961 . S
H1064 C1078 0.960 . S
H1065 C1078 0.961 . S
H1066 C1078 0.959 . S
H1067 C1081 0.929 . S
H1068 C1082 0.931 . S
H1069 C1084 0.930 . S
C1070 H1058 0.930 . S
C1070 C1071 1.399 . S
C1070 C1075 1.399 . S
C1071 C1070 1.399 . S
C1071 C1072 1.376 . S
C1072 H1059 0.930 . S
C1072 C1071 1.376 . S
C1072 C1073 1.388 . S
C1073 H1060 0.930 . S
C1073 C1072 1.388 . S
C1073 C1074 1.390 . S
C1074 C1073 1.390 . S
C1074 C1075 1.394 . S
C1074 C1080 1.465 . S
C1075 C1070 1.399 . S
C1075 C1074 1.394 . S
C1075 C1076 1.516 . S
C1076 C1075 1.516 . S
C1076 C1077 1.502 . S
C1076 C1078 1.561 . S
C1076 C1079 1.526 . S
C1077 H1061 0.959 . S
C1077 H1062 0.959 . S
C1077 H1063 0.961 . S
C1077 C1076 1.502 . S
C1078 H1064 0.960 . S
C1078 H1065 0.961 . S
C1078 H1066 0.959 . S
C1078 C1076 1.561 . S
C1079 C1076 1.526 . S
C1079 C1080 1.396 . S
C1079 C1084 1.390 . S
C1080 C1074 1.465 . S
C1080 C1079 1.396 . S
C1080 C1081 1.399 . S
C1081 H1067 0.929 . S
C1081 C1080 1.399 . S
C1081 C1082 1.385 . S
C1082 H1068 0.931 . S
C1082 C1081 1.385 . S
C1082 C1083 1.389 . S
C1083 C1082 1.389 . S
C1083 C1084 1.387 . S
C1084 H1069 0.930 . S
C1084 C1079 1.390 . S
C1084 C1083 1.387 . S
H1085 C1097 0.930 1_545 S
H1086 C1099 0.930 . S
H1087 C1100 0.930 . S
H1088 C1104 0.959 . S
H1089 C1104 0.959 . S
H1090 C1104 0.961 . S
H1091 C1105 0.960 . S
H1092 C1105 0.961 . S
H1093 C1105 0.959 1_565 S
H1094 C1108 0.929 . S
H1095 C1109 0.931 . S
H1096 C1111 0.930 . S
C1097 H1085 0.930 1_565 S
C1097 C1098 1.399 . S
C1097 C1102 1.399 . S
C1098 C1097 1.399 . S
C1098 C1099 1.376 . S
C1099 H1086 0.930 . S
C1099 C1098 1.376 . S
C1099 C1100 1.388 . S
C1100 H1087 0.930 . S
C1100 C1099 1.388 . S
C1100 C1101 1.390 . S
C1101 C1100 1.390 . S
C1101 C1102 1.394 . S
C1101 C1107 1.465 . S
C1102 C1097 1.399 . S
C1102 C1101 1.394 . S
C1102 C1103 1.516 1_565 S
C1103 C1102 1.516 1_545 S
C1103 C1104 1.502 . S
C1103 C1105 1.561 . S
C1103 C1106 1.526 . S
C1104 H1088 0.959 . S
C1104 H1089 0.959 . S
C1104 H1090 0.961 . S
C1104 C1103 1.502 . S
C1105 H1091 0.960 . S
C1105 H1092 0.961 . S
C1105 H1093 0.959 1_545 S
C1105 C1103 1.561 . S
C1106 C1103 1.526 . S
C1106 C1107 1.396 1_545 S
C1106 C1111 1.390 . S
C1107 C1101 1.465 . S
C1107 C1106 1.396 1_565 S
C1107 C1108 1.399 . S
C1108 H1094 0.929 . S
C1108 C1107 1.399 . S
C1108 C1109 1.385 . S
C1109 H1095 0.931 . S
C1109 C1108 1.385 . S
C1109 C1110 1.389 1_565 S
C1110 C1109 1.389 1_545 S
C1110 C1111 1.387 . S
C1111 H1096 0.930 . S
C1111 C1106 1.390 . S
C1111 C1110 1.387 . S
C261 C20 1.316 . S
C273 C41 1.292 . S
C288 C19 1.683 . S
C300 C82 1.728 . S
C315 C123 1.309 . S
C327 C32 1.322 . S
C342 C62 1.723 . S
C354 C94 1.734 . S
C369 C113 1.209 . S
C381 C154 1.317 . S
C396 C156 1.704 . S
C408 C112 1.711 . S
C423 C144 1.269 . S
C435 C30 1.254 . S
C450 C174 1.681 . S
C462 C1 1.703 . S
C477 C185 1.255 . S
C489 C206 1.321 . S
C504 C205 1.703 . S
C516 C125 1.735 . S
C531 C247 1.326 . S
C543 C175 1.196 . S
C558 C218 1.728 . S
C570 C143 1.696 . S
C585 C237 1.202 . S
C597 C72 1.327 . S
C612 C51 1.735 . S
C624 C236 1.711 . S
C639 C216 1.305 . S
C651 C63 1.198 . S
C666 C187 1.702 . S
C678 C31 1.688 . S
C693 C10 0.874 . S
C705 C0 0.847 1_556 S
C720 C50 0.883 . S
C732 C61 0.830 1_565 S
C747 C81 0.856 1_545 S
C759 C92 0.863 . S
C774 C93 0.810 . S
C786 C103 0.892 . S
C801 C124 0.848 1_545 S
C813 C134 0.852 . S
C828 C155 0.843 . S
C840 C165 0.871 1_565 S
C855 C196 0.834 . S
C867 C186 0.865 . S
C882 C217 0.904 1_556 S
C894 C227 0.821 . S
C909 C219 1.647 . S
C921 C29 1.606 . S
C936 C2 1.643 . S
C948 C246 1.609 . S
C963 C33 1.654 . S
C975 C91 1.602 . S
C990 C188 1.631 . S
C1002 C122 1.621 . S
C1017 C95 1.629 . S
C1029 C215 1.623 . S
C1044 C157 1.615 . S
C1056 C153 1.646 . S
C1071 C184 1.605 . S
C1083 C126 1.635 . S
C1098 C64 1.605 . S
C1110 C60 1.648 . S
