# Generated by pormake.
# Topology upa, (4)-cn, num edge types: 1
# Building blocks:
#     Node 0, Type 0, BuildingBlock: UXUYUI_clean_sbu_0, # of connection points: 4
#     Node 1, Type 0, BuildingBlock: UXUYUI_clean_sbu_0, # of connection points: 4
#     Node 2, Type 0, BuildingBlock: UXUYUI_clean_sbu_0, # of connection points: 4
#     Node 3, Type 0, BuildingBlock: UXUYUI_clean_sbu_0, # of connection points: 4
#     Node 4, Type 0, BuildingBlock: UXUYUI_clean_sbu_0, # of connection points: 4
#     Node 5, Type 0, BuildingBlock: UXUYUI_clean_sbu_0, # of connection points: 4
#     Node 6, Type 0, BuildingBlock: UXUYUI_clean_sbu_0, # of connection points: 4
#     Node 7, Type 0, BuildingBlock: UXUYUI_clean_sbu_0, # of connection points: 4
#     Edge 8, Type (0, 0), BuildingBlock: CIFDUS_clean_linker_0, # of connection points: 2
#     Edge 9, Type (0, 0), BuildingBlock: CIFDUS_clean_linker_0, # of connection points: 2
#     Edge 10, Type (0, 0), BuildingBlock: CIFDUS_clean_linker_0, # of connection points: 2
#     Edge 11, Type (0, 0), BuildingBlock: CIFDUS_clean_linker_0, # of connection points: 2
#     Edge 12, Type (0, 0), BuildingBlock: CIFDUS_clean_linker_0, # of connection points: 2
#     Edge 13, Type (0, 0), BuildingBlock: CIFDUS_clean_linker_0, # of connection points: 2
#     Edge 14, Type (0, 0), BuildingBlock: CIFDUS_clean_linker_0, # of connection points: 2
#     Edge 15, Type (0, 0), BuildingBlock: CIFDUS_clean_linker_0, # of connection points: 2
#     Edge 16, Type (0, 0), BuildingBlock: CIFDUS_clean_linker_0, # of connection points: 2
#     Edge 17, Type (0, 0), BuildingBlock: CIFDUS_clean_linker_0, # of connection points: 2
#     Edge 18, Type (0, 0), BuildingBlock: CIFDUS_clean_linker_0, # of connection points: 2
#     Edge 19, Type (0, 0), BuildingBlock: CIFDUS_clean_linker_0, # of connection points: 2
#     Edge 20, Type (0, 0), BuildingBlock: CIFDUS_clean_linker_0, # of connection points: 2
#     Edge 21, Type (0, 0), BuildingBlock: CIFDUS_clean_linker_0, # of connection points: 2
#     Edge 22, Type (0, 0), BuildingBlock: CIFDUS_clean_linker_0, # of connection points: 2
#     Edge 23, Type (0, 0), BuildingBlock: CIFDUS_clean_linker_0, # of connection points: 2
# Relax obj value: 0.344
# Max RMSD: 0.248
# Mean RMSD: 0.248
data_MOF--net-upa--node1-UXUYUI_clean_sbu_0--edge1-CIFDUS_clean_linker_0
_symmetry_space_group_name_H-M    P1
_symmetry_Int_Tables_number       1
_symmetry_cell_setting            triclinic
loop_
_symmetry_equiv_pos_as_xyz
'x, y, z'
_cell_length_a     35.350007
_cell_length_b     35.133934
_cell_length_c     57.942248
_cell_angle_alpha  89.988815
_cell_angle_beta   89.949408
_cell_angle_gamma 90.017435
loop_
_atom_site_label
_atom_site_type_symbol
_atom_site_fract_x
_atom_site_fract_y
_atom_site_fract_z
_atom_type_partial_charge
Li0 Li 0.15034 0.24074 0.32032 0.0
Li1 Li 0.18585 0.22958 0.35489 0.0
Li2 Li 0.21427 0.21819 0.31599 0.0
Li3 Li 0.16205 0.17727 0.3309 0.0
C4 C 0.18886 0.3036 0.32463 0.0
N5 N 0.16937 0.37723 0.31303 0.0
C6 C 0.16168 0.3231 0.33755 0.0
C7 C 0.20641 0.32157 0.30596 0.0
C8 C 0.15211 0.36029 0.33135 0.0
C9 C 0.19613 0.35884 0.30035 0.0
C10 C 0.11872 0.19904 0.36831 0.0
C11 C 0.12402 0.15509 0.40017 0.0
N12 N 0.08978 0.16687 0.40815 0.0
C13 C 0.08359 0.21069 0.37686 0.0
C14 C 0.13914 0.17099 0.38009 0.0
C15 C 0.06945 0.19409 0.39701 0.0
C16 C 0.0745 0.25083 0.31279 0.0
N17 N 0.10782 0.26701 0.30635 0.0
C18 C 0.07574 0.30381 0.27746 0.0
C19 C 0.10897 0.29368 0.28926 0.0
C20 C 0.04147 0.28576 0.28313 0.0
C21 C 0.04103 0.25972 0.30141 0.0
H22 H 0.07401 0.22934 0.32604 0.0
H23 H 0.13573 0.30553 0.28386 0.0
C24 C 0.22982 0.23302 0.39556 0.0
N25 N 0.19621 0.24343 0.38613 0.0
C26 C 0.236 0.23712 0.41926 0.0
C27 C 0.17324 0.26364 0.42295 0.0
C28 C 0.16854 0.25958 0.39914 0.0
C29 C 0.20707 0.25161 0.43348 0.0
H30 H 0.25143 0.22046 0.38477 0.0
H31 H 0.14208 0.26773 0.39121 0.0
C32 C 0.1566 0.21078 0.27868 0.0
N33 N 0.1301 0.23565 0.23642 0.0
C34 C 0.12289 0.19616 0.2697 0.0
C35 C 0.17697 0.23782 0.26607 0.0
C36 C 0.10989 0.20922 0.24836 0.0
C37 C 0.16312 0.25002 0.24474 0.0
C38 C 0.23577 0.15181 0.34002 0.0
C39 C 0.23306 0.13227 0.31907 0.0
C40 C 0.26074 0.13886 0.35697 0.0
C41 C 0.25569 0.10027 0.31535 0.0
C42 C 0.28284 0.10669 0.35261 0.0
N43 N 0.27991 0.08824 0.33206 0.0
C44 C 0.29046 0.23844 0.30899 0.0
C45 C 0.26652 0.19644 0.28054 0.0
C46 C 0.32637 0.23738 0.29887 0.0
N47 N 0.2615 0.21806 0.29978 0.0
C48 C 0.30203 0.19442 0.26991 0.0
C49 C 0.33264 0.21495 0.27913 0.0
H50 H 0.28577 0.25503 0.32445 0.0
H51 H 0.24306 0.18034 0.27361 0.0
C52 C 0.09974 0.13693 0.32372 0.0
N53 N 0.1357 0.13039 0.33077 0.0
C54 C 0.07321 0.10787 0.32369 0.0
C55 C 0.12121 0.06503 0.33813 0.0
C56 C 0.14701 0.09538 0.33805 0.0
C57 C 0.08368 0.07123 0.33086 0.0
H58 H 0.09141 0.16529 0.3187 0.0
H59 H 0.17556 0.09112 0.34419 0.0
O60 O 0.19857 0.26722 0.3304 0.0
O61 O 0.13291 0.21541 0.34863 0.0
O62 O 0.16934 0.19917 0.29983 0.0
O63 O 0.21398 0.18329 0.34411 0.0
H64 H 0.14794 0.30949 0.35208 0.0
H65 H 0.2277 0.30686 0.29591 0.0
H66 H 0.13094 0.37569 0.34108 0.0
H67 H 0.20935 0.3731 0.2859 0.0
H68 H 0.13953 0.1334 0.40943 0.0
H69 H 0.0675 0.23256 0.36812 0.0
H70 H 0.16637 0.16154 0.37391 0.0
H71 H 0.04233 0.20292 0.40382 0.0
H72 H 0.07717 0.32391 0.26332 0.0
H73 H 0.01512 0.24545 0.30644 0.0
H74 H 0.26291 0.22831 0.42638 0.0
H75 H 0.14986 0.27456 0.43305 0.0
H76 H 0.1068 0.1751 0.27911 0.0
H77 H 0.20292 0.2497 0.27282 0.0
H78 H 0.0837 0.19837 0.2413 0.0
H79 H 0.1785 0.2711 0.23487 0.0
H80 H 0.21354 0.14146 0.30586 0.0
H81 H 0.26299 0.15345 0.37336 0.0
H82 H 0.25391 0.08492 0.29921 0.0
H83 H 0.30231 0.09638 0.36558 0.0
H84 H 0.34919 0.25327 0.30678 0.0
H85 H 0.30543 0.17709 0.2546 0.0
H86 H 0.04445 0.11446 0.31867 0.0
H87 H 0.13043 0.03722 0.34388 0.0
Li88 Li 0.29774 0.72235 0.81754 0.0
Li89 Li 0.29495 0.69152 0.85701 0.0
Li90 Li 0.34299 0.67418 0.82887 0.0
Li91 Li 0.27898 0.65316 0.8218 0.0
C92 C 0.37083 0.7382 0.8453 0.0
N93 N 0.4446 0.76366 0.84881 0.0
C94 C 0.38964 0.73686 0.86649 0.0
C95 C 0.38938 0.75301 0.82599 0.0
C96 C 0.42697 0.74971 0.86789 0.0
C97 C 0.4267 0.7656 0.82807 0.0
C98 C 0.21758 0.68905 0.84281 0.0
C99 C 0.17987 0.64868 0.86742 0.0
N100 N 0.1481 0.66668 0.85996 0.0
C101 C 0.18458 0.70712 0.83536 0.0
C102 C 0.21526 0.65956 0.85895 0.0
C103 C 0.1497 0.69542 0.84425 0.0
C104 C 0.27876 0.76995 0.77917 0.0
N105 N 0.29081 0.76932 0.80145 0.0
C106 C 0.29958 0.83686 0.80116 0.0
C107 C 0.30065 0.80188 0.81262 0.0
C108 C 0.2885 0.83833 0.7779 0.0
C109 C 0.27759 0.80431 0.76697 0.0
H110 H 0.27109 0.74363 0.7707 0.0
H111 H 0.31024 0.80053 0.83033 0.0
C112 C 0.31565 0.68594 0.9029 0.0
N113 N 0.28718 0.69894 0.88933 0.0
C114 C 0.31453 0.69125 0.92673 0.0
C115 C 0.25383 0.72198 0.92247 0.0
C116 C 0.25659 0.71683 0.89855 0.0
C117 C 0.28324 0.70936 0.937 0.0
H118 H 0.33972 0.67198 0.89509 0.0
H119 H 0.23437 0.72721 0.88738 0.0
C120 C 0.33336 0.67297 0.77922 0.0
N121 N 0.37235 0.6643 0.73812 0.0
C122 C 0.33572 0.63723 0.76865 0.0
C123 C 0.35063 0.70432 0.7687 0.0
C124 C 0.35562 0.63343 0.74794 0.0
C125 C 0.37025 0.69935 0.74798 0.0
C126 C 0.32559 0.60461 0.85074 0.0
C127 C 0.33736 0.58411 0.83136 0.0
C128 C 0.32917 0.58843 0.87267 0.0
C129 C 0.35284 0.54785 0.83423 0.0
C130 C 0.34473 0.55205 0.87483 0.0
N131 N 0.35619 0.5327 0.85573 0.0
C132 C 0.40686 0.6441 0.84962 0.0
C133 C 0.41177 0.64401 0.80884 0.0
C134 C 0.43666 0.61826 0.85141 0.0
N135 N 0.39375 0.65482 0.82852 0.0
C136 C 0.44136 0.61781 0.80981 0.0
C137 C 0.45282 0.60336 0.83125 0.0
H138 H 0.39183 0.65276 0.86501 0.0
H139 H 0.4018 0.65338 0.79228 0.0
C140 C 0.24667 0.60595 0.78706 0.0
N141 N 0.25134 0.61013 0.81021 0.0
C142 C 0.23757 0.57032 0.77777 0.0
C143 C 0.23436 0.54505 0.81648 0.0
C144 C 0.24379 0.58102 0.82498 0.0
C145 C 0.23288 0.53883 0.79252 0.0
H146 H 0.25289 0.62953 0.77566 0.0
H147 H 0.24771 0.58489 0.84332 0.0
O148 O 0.33447 0.72512 0.84344 0.0
O149 O 0.25187 0.70002 0.83411 0.0
O150 O 0.31368 0.67738 0.79945 0.0
O151 O 0.31139 0.64065 0.84836 0.0
H152 H 0.37568 0.72598 0.8817 0.0
H153 H 0.37512 0.75481 0.80957 0.0
H154 H 0.44192 0.74863 0.88416 0.0
H155 H 0.44142 0.77696 0.81321 0.0
H156 H 0.17768 0.62593 0.87994 0.0
H157 H 0.18592 0.72995 0.82282 0.0
H158 H 0.24051 0.64531 0.86496 0.0
H159 H 0.12391 0.70916 0.83865 0.0
H160 H 0.30851 0.8623 0.81019 0.0
H161 H 0.26846 0.80423 0.74913 0.0
H162 H 0.33847 0.68183 0.93686 0.0
H163 H 0.22884 0.7356 0.92942 0.0
H164 H 0.32267 0.61252 0.77635 0.0
H165 H 0.3489 0.73225 0.77634 0.0
H166 H 0.35779 0.6059 0.73968 0.0
H167 H 0.38377 0.7234 0.73972 0.0
H168 H 0.335 0.59631 0.81434 0.0
H169 H 0.32009 0.60383 0.88786 0.0
H170 H 0.36231 0.53182 0.81937 0.0
H171 H 0.34776 0.53922 0.8917 0.0
H172 H 0.44471 0.60764 0.86826 0.0
H173 H 0.45372 0.60734 0.79392 0.0
H174 H 0.23685 0.56702 0.7592 0.0
H175 H 0.23008 0.52193 0.82856 0.0
Li176 Li 0.83896 0.76658 0.31752 0.0
Li177 Li 0.81154 0.77955 0.35706 0.0
Li178 Li 0.77498 0.78943 0.32019 0.0
Li179 Li 0.82556 0.83081 0.32945 0.0
C180 C 0.80749 0.70409 0.33043 0.0
N181 N 0.835 0.63127 0.32401 0.0
C182 C 0.82355 0.68426 0.34889 0.0
C183 C 0.80524 0.68686 0.30873 0.0
C184 C 0.83732 0.64746 0.34529 0.0
C185 C 0.81938 0.65004 0.30583 0.0
C186 C 0.8938 0.81331 0.34714 0.0
C187 C 0.93596 0.85081 0.37072 0.0
N188 N 0.95962 0.855 0.35238 0.0
C189 C 0.91857 0.81806 0.32852 0.0
C190 C 0.90253 0.82992 0.36841 0.0
C191 C 0.95167 0.83922 0.33151 0.0
C192 C 0.88498 0.74833 0.27933 0.0
N193 N 0.87827 0.73938 0.30179 0.0
C194 C 0.93856 0.70872 0.30462 0.0
C195 C 0.90386 0.71925 0.31437 0.0
C196 C 0.94713 0.71951 0.28183 0.0
C197 C 0.91923 0.73842 0.26893 0.0
H198 H 0.86504 0.76566 0.26995 0.0
H199 H 0.89854 0.71384 0.33246 0.0
C200 C 0.77485 0.76238 0.39916 0.0
N201 N 0.80925 0.7655 0.38884 0.0
C202 C 0.77221 0.75766 0.42307 0.0
C203 C 0.84046 0.75801 0.42511 0.0
C204 C 0.84174 0.76215 0.40115 0.0
C205 C 0.80532 0.75652 0.43655 0.0
H206 H 0.74943 0.765 0.3889 0.0
H207 H 0.86873 0.76395 0.39245 0.0
C208 C 0.79386 0.81445 0.28031 0.0
N209 N 0.74764 0.82807 0.24276 0.0
C210 C 0.77799 0.85047 0.27698 0.0
C211 C 0.7864 0.78543 0.26445 0.0
C212 C 0.75464 0.85677 0.25792 0.0
C213 C 0.76294 0.79287 0.24559 0.0
C214 C 0.77446 0.8585 0.35783 0.0
C215 C 0.76344 0.88968 0.34442 0.0
C216 C 0.78097 0.86348 0.38145 0.0
C217 C 0.75928 0.9253 0.35482 0.0
C218 C 0.77642 0.89955 0.39121 0.0
N219 N 0.76579 0.92946 0.37781 0.0
C220 C 0.70106 0.81691 0.31299 0.0
C221 C 0.71252 0.75834 0.29404 0.0
C222 C 0.66437 0.81829 0.30417 0.0
N223 N 0.72444 0.78745 0.30772 0.0
C224 C 0.67597 0.75867 0.28469 0.0
C225 C 0.65132 0.78896 0.28977 0.0
H226 H 0.71088 0.83949 0.32405 0.0
H227 H 0.73146 0.73504 0.29021 0.0
C228 C 0.8636 0.88783 0.30572 0.0
N229 N 0.84904 0.87962 0.32686 0.0
C230 C 0.88993 0.91702 0.30313 0.0
C231 C 0.88458 0.93009 0.34396 0.0
C232 C 0.85826 0.90064 0.34575 0.0
C233 C 0.90165 0.93772 0.32256 0.0
H234 H 0.85702 0.86986 0.29114 0.0
H235 H 0.84764 0.89272 0.36254 0.0
O236 O 0.79464 0.74044 0.33347 0.0
O237 O 0.86075 0.79343 0.34438 0.0
O238 O 0.81601 0.80749 0.29921 0.0
O239 O 0.7785 0.82328 0.34798 0.0
H240 H 0.82561 0.69722 0.36577 0.0
H241 H 0.79311 0.70192 0.29424 0.0
H242 H 0.84995 0.63182 0.35939 0.0
H243 H 0.81803 0.63643 0.28911 0.0
H244 H 0.9429 0.86402 0.38704 0.0
H245 H 0.91201 0.80625 0.31178 0.0
H246 H 0.88328 0.82759 0.38285 0.0
H247 H 0.97092 0.84329 0.3172 0.0
H248 H 0.95939 0.69459 0.3153 0.0
H249 H 0.92447 0.747 0.25126 0.0
H250 H 0.74447 0.75567 0.4309 0.0
H251 H 0.86684 0.75759 0.43457 0.0
H252 H 0.78356 0.8733 0.289 0.0
H253 H 0.79802 0.75724 0.26688 0.0
H254 H 0.74206 0.88446 0.25519 0.0
H255 H 0.7567 0.77059 0.23328 0.0
H256 H 0.75852 0.88656 0.32612 0.0
H257 H 0.78976 0.83995 0.39215 0.0
H258 H 0.75094 0.94966 0.3446 0.0
H259 H 0.78148 0.90378 0.40944 0.0
H260 H 0.64655 0.84236 0.3084 0.0
H261 H 0.66694 0.73522 0.27389 0.0
H262 H 0.90281 0.92158 0.28639 0.0
H263 H 0.89273 0.94556 0.35933 0.0
Li264 Li 0.73491 0.34916 0.82144 0.0
Li265 Li 0.66883 0.3313 0.82782 0.0
Li266 Li 0.71731 0.31323 0.85702 0.0
Li267 Li 0.71445 0.28112 0.81926 0.0
C268 C 0.69372 0.40078 0.85295 0.0
N269 N 0.67807 0.47524 0.86508 0.0
C270 C 0.67536 0.42497 0.8374 0.0
C271 C 0.70418 0.41456 0.87466 0.0
C272 C 0.66762 0.46246 0.84387 0.0
C273 C 0.69606 0.45228 0.88045 0.0
C274 C 0.68332 0.33784 0.77948 0.0
C275 C 0.65058 0.32678 0.74355 0.0
N276 N 0.64997 0.36492 0.73955 0.0
C277 C 0.6824 0.37693 0.77495 0.0
C278 C 0.66733 0.31254 0.7636 0.0
C279 C 0.6654 0.39005 0.7547 0.0
C280 C 0.77304 0.3898 0.78579 0.0
N281 N 0.76449 0.39017 0.80869 0.0
C282 C 0.78163 0.45589 0.81133 0.0
C283 C 0.77039 0.42184 0.82171 0.0
C284 C 0.78752 0.45723 0.78738 0.0
C285 C 0.78471 0.42324 0.77471 0.0
H286 H 0.76804 0.36431 0.77577 0.0
H287 H 0.76436 0.4214 0.83996 0.0
C288 C 0.60639 0.36614 0.84674 0.0
N289 N 0.61897 0.35192 0.82632 0.0
C290 C 0.57689 0.39244 0.84716 0.0
C291 C 0.57085 0.38549 0.80583 0.0
C292 C 0.6005 0.35928 0.80624 0.0
C293 C 0.56007 0.40389 0.82634 0.0
H294 H 0.62144 0.35955 0.86249 0.0
H295 H 0.61014 0.34694 0.79028 0.0
C296 C 0.79435 0.31396 0.84467 0.0
N297 N 0.86241 0.33674 0.86359 0.0
C298 C 0.82757 0.2942 0.83947 0.0
C299 C 0.79573 0.34531 0.8595 0.0
C300 C 0.86171 0.30615 0.84921 0.0
C301 C 0.83041 0.35638 0.86888 0.0
C302 C 0.64683 0.25688 0.83977 0.0
C303 C 0.63596 0.23059 0.85661 0.0
C304 C 0.62877 0.25692 0.81834 0.0
C305 C 0.60716 0.2046 0.85167 0.0
C306 C 0.6001 0.23049 0.81406 0.0
N307 N 0.58998 0.20508 0.83067 0.0
C308 C 0.69508 0.32147 0.90261 0.0
C309 C 0.75184 0.28608 0.89903 0.0
C310 C 0.69504 0.31631 0.92648 0.0
N311 N 0.72318 0.30649 0.88945 0.0
C312 C 0.75292 0.28018 0.92293 0.0
C313 C 0.72402 0.29512 0.93698 0.0
H314 H 0.67241 0.33716 0.89446 0.0
H315 H 0.77348 0.27383 0.88812 0.0
C316 C 0.72612 0.22797 0.78217 0.0
N317 N 0.72079 0.2322 0.80527 0.0
C318 C 0.72856 0.19155 0.77246 0.0
C319 C 0.72123 0.16468 0.81059 0.0
C320 C 0.71867 0.20151 0.81951 0.0
C321 C 0.72602 0.15927 0.78674 0.0
H322 H 0.72843 0.25284 0.77127 0.0
H323 H 0.71464 0.20569 0.83784 0.0
O324 O 0.70133 0.36377 0.84709 0.0
O325 O 0.69993 0.3243 0.7992 0.0
O326 O 0.76078 0.30256 0.83517 0.0
O327 O 0.67534 0.28211 0.84425 0.0
H328 H 0.66663 0.41483 0.82066 0.0
H329 H 0.71864 0.39639 0.88687 0.0
H330 H 0.65318 0.48136 0.83206 0.0
H331 H 0.70407 0.4633 0.89719 0.0
H332 H 0.63799 0.30751 0.73119 0.0
H333 H 0.69461 0.39703 0.78689 0.0
H334 H 0.66743 0.28222 0.76681 0.0
H335 H 0.66449 0.42023 0.75104 0.0
H336 H 0.78428 0.48129 0.8218 0.0
H337 H 0.78899 0.42304 0.7562 0.0
H338 H 0.5688 0.40527 0.86343 0.0
H339 H 0.55849 0.39327 0.7894 0.0
H340 H 0.82695 0.26986 0.82801 0.0
H341 H 0.77036 0.36084 0.86382 0.0
H342 H 0.88765 0.29111 0.84533 0.0
H343 H 0.83187 0.38057 0.88039 0.0
H344 H 0.64977 0.23019 0.87328 0.0
H345 H 0.63682 0.27709 0.80516 0.0
H346 H 0.59848 0.18403 0.86452 0.0
H347 H 0.58591 0.23017 0.79753 0.0
H348 H 0.6725 0.32887 0.9366 0.0
H349 H 0.77557 0.26331 0.93024 0.0
H350 H 0.73286 0.18868 0.75403 0.0
H351 H 0.71889 0.14066 0.82222 0.0
Li352 Li 0.66846 0.33764 0.18026 0.0
Li353 Li 0.71893 0.28899 0.18724 0.0
Li354 Li 0.68016 0.28429 0.15255 0.0
Li355 Li 0.65374 0.27143 0.19013 0.0
C356 C 0.73382 0.33349 0.14183 0.0
N357 N 0.76982 0.34245 0.09982 0.0
C358 C 0.76632 0.31241 0.13676 0.0
C359 C 0.71963 0.3591 0.12554 0.0
C360 C 0.78415 0.31742 0.11544 0.0
C361 C 0.73821 0.36319 0.10439 0.0
C362 C 0.70225 0.32073 0.22682 0.0
C363 C 0.73371 0.30717 0.26279 0.0
N364 N 0.74953 0.34247 0.26236 0.0
C365 C 0.71872 0.35688 0.22673 0.0
C366 C 0.70969 0.29565 0.24497 0.0
C367 C 0.74258 0.36733 0.24487 0.0
C368 C 0.62027 0.38481 0.20187 0.0
N369 N 0.64705 0.38601 0.18511 0.0
C370 C 0.6258 0.44726 0.17297 0.0
C371 C 0.65125 0.41687 0.17124 0.0
C372 C 0.59541 0.44518 0.18871 0.0
C373 C 0.59384 0.41391 0.20385 0.0
H374 H 0.61748 0.35958 0.21244 0.0
H375 H 0.67286 0.41706 0.15805 0.0
C376 C 0.77726 0.25273 0.21298 0.0
N377 N 0.76872 0.28375 0.20001 0.0
C378 C 0.81302 0.2491 0.22301 0.0
C379 C 0.83084 0.30917 0.2059 0.0
C380 C 0.7945 0.31192 0.19651 0.0
C381 C 0.84068 0.27738 0.21939 0.0
H382 H 0.75611 0.23102 0.21581 0.0
H383 H 0.78684 0.33656 0.18634 0.0
C384 C 0.59639 0.29092 0.16107 0.0
N385 N 0.52332 0.26527 0.15415 0.0
C386 C 0.58939 0.26078 0.14591 0.0
C387 C 0.56614 0.3081 0.17263 0.0
C388 C 0.55227 0.24826 0.14263 0.0
C389 C 0.52945 0.29466 0.16896 0.0
C390 C 0.68046 0.20691 0.17713 0.0
C391 C 0.66517 0.18668 0.15859 0.0
C392 C 0.68046 0.19074 0.19917 0.0
C393 C 0.64978 0.1506 0.16246 0.0
C394 C 0.66477 0.1546 0.20234 0.0
N395 N 0.64987 0.13546 0.18407 0.0
C396 C 0.70665 0.2525 0.10975 0.0
C397 C 0.65542 0.29583 0.10722 0.0
C398 C 0.70884 0.25035 0.08565 0.0
N399 N 0.6804 0.27527 0.11996 0.0
C400 C 0.65625 0.29412 0.08319 0.0
C401 C 0.68345 0.27148 0.07208 0.0
H402 H 0.72658 0.23694 0.1203 0.0
H403 H 0.63551 0.31447 0.11577 0.0
C404 C 0.60621 0.2661 0.22801 0.0
N405 N 0.61321 0.24801 0.20772 0.0
C406 C 0.57174 0.26134 0.23932 0.0
C407 C 0.55271 0.2172 0.20962 0.0
C408 C 0.58797 0.22252 0.19893 0.0
C409 C 0.54361 0.2382 0.22954 0.0
H410 H 0.62622 0.28651 0.23467 0.0
H411 H 0.59377 0.20865 0.18268 0.0
O412 O 0.71527 0.32808 0.16231 0.0
O413 O 0.67988 0.30948 0.20884 0.0
O414 O 0.63264 0.3034 0.16464 0.0
O415 O 0.69555 0.24227 0.17369 0.0
H416 H 0.7773 0.29194 0.14898 0.0
H417 H 0.69407 0.37502 0.12897 0.0
H418 H 0.80922 0.30117 0.11124 0.0
H419 H 0.72735 0.38268 0.09155 0.0
H420 H 0.73988 0.28801 0.2769 0.0
H421 H 0.71352 0.37646 0.21267 0.0
H422 H 0.69736 0.26743 0.24515 0.0
H423 H 0.75569 0.39516 0.245 0.0
H424 H 0.6289 0.47117 0.16134 0.0
H425 H 0.57089 0.41024 0.21601 0.0
H426 H 0.81867 0.22451 0.23372 0.0
H427 H 0.85107 0.33154 0.20233 0.0
H428 H 0.61236 0.2468 0.137 0.0
H429 H 0.57087 0.33131 0.18449 0.0
H430 H 0.5465 0.22484 0.13103 0.0
H431 H 0.50584 0.30752 0.17793 0.0
H432 H 0.66512 0.19872 0.14141 0.0
H433 H 0.69194 0.20616 0.21373 0.0
H434 H 0.63772 0.13466 0.14829 0.0
H435 H 0.66432 0.14184 0.21932 0.0
H436 H 0.7302 0.23255 0.07771 0.0
H437 H 0.63658 0.31134 0.07338 0.0
H438 H 0.56645 0.27733 0.25498 0.0
H439 H 0.53193 0.19906 0.20143 0.0
Li440 Li 0.20972 0.22274 0.68685 0.0
Li441 Li 0.21694 0.19368 0.64862 0.0
Li442 Li 0.16455 0.17404 0.67475 0.0
Li443 Li 0.22993 0.15506 0.68366 0.0
C444 C 0.1444 0.24864 0.66528 0.0
N445 N 0.0859 0.29812 0.67525 0.0
C446 C 0.13206 0.27468 0.64868 0.0
C447 C 0.12704 0.24779 0.68696 0.0
C448 C 0.10242 0.29945 0.65405 0.0
C449 C 0.09751 0.27303 0.69167 0.0
C450 C 0.29287 0.19667 0.66407 0.0
C451 C 0.34066 0.15581 0.64768 0.0
N452 N 0.36482 0.18589 0.6466 0.0
C453 C 0.31817 0.22717 0.66286 0.0
C454 C 0.30417 0.16069 0.65646 0.0
C455 C 0.35442 0.22115 0.65394 0.0
C456 C 0.21117 0.27343 0.72571 0.0
N457 N 0.21392 0.27055 0.70238 0.0
C458 C 0.21688 0.3383 0.6987 0.0
C459 C 0.21708 0.30201 0.68885 0.0
C460 C 0.2134 0.34237 0.72275 0.0
C461 C 0.21093 0.30924 0.73632 0.0
H462 H 0.20846 0.24798 0.73605 0.0
H463 H 0.21906 0.29886 0.67032 0.0
C464 C 0.19398 0.20961 0.6041 0.0
N465 N 0.22605 0.20322 0.61646 0.0
C466 C 0.19574 0.21558 0.5803 0.0
C467 C 0.26358 0.20797 0.58215 0.0
C468 C 0.26059 0.20283 0.60603 0.0
C469 C 0.23083 0.21435 0.56901 0.0
H470 H 0.16686 0.20952 0.61276 0.0
H471 H 0.2858 0.19785 0.61602 0.0
C472 C 0.17868 0.15197 0.72081 0.0
N473 N 0.15414 0.09875 0.75264 0.0
C474 C 0.1728 0.1142 0.71416 0.0
C475 C 0.17195 0.16268 0.74368 0.0
C476 C 0.16047 0.0877 0.73048 0.0
C477 C 0.15954 0.13537 0.75951 0.0
C478 C 0.19965 0.11002 0.64333 0.0
C479 C 0.17461 0.08012 0.64801 0.0
C480 C 0.22571 0.10628 0.6253 0.0
C481 C 0.1759 0.04723 0.6345 0.0
C482 C 0.22613 0.07291 0.61219 0.0
N483 N 0.20141 0.04433 0.61702 0.0
C484 C 0.10262 0.1398 0.65401 0.0
C485 C 0.09438 0.14914 0.69421 0.0
C486 C 0.07246 0.11422 0.65348 0.0
N487 N 0.11431 0.15472 0.67442 0.0
C488 C 0.06409 0.12365 0.6945 0.0
C489 C 0.05418 0.10427 0.67416 0.0
H490 H 0.11886 0.14509 0.63851 0.0
H491 H 0.10372 0.16202 0.71014 0.0
C492 C 0.26644 0.11641 0.72064 0.0
N493 N 0.25658 0.11304 0.69804 0.0
C494 C 0.27556 0.08406 0.73362 0.0
C495 C 0.26662 0.04571 0.69953 0.0
C496 C 0.25806 0.07873 0.68721 0.0
C497 C 0.27426 0.04778 0.7233 0.0
H498 H 0.26471 0.14389 0.729 0.0
H499 H 0.25044 0.07636 0.6693 0.0
O500 O 0.17377 0.22464 0.66035 0.0
O501 O 0.2574 0.20217 0.67288 0.0
O502 O 0.19129 0.17834 0.70516 0.0
O503 O 0.19885 0.1426 0.65635 0.0
H504 H 0.14535 0.27582 0.63186 0.0
H505 H 0.13638 0.22807 0.70009 0.0
H506 H 0.09258 0.31977 0.64138 0.0
H507 H 0.08386 0.27272 0.70838 0.0
H508 H 0.34971 0.12813 0.64164 0.0
H509 H 0.30984 0.2552 0.66873 0.0
H510 H 0.28488 0.13692 0.65703 0.0
H511 H 0.37429 0.24451 0.65286 0.0
H512 H 0.21943 0.36293 0.68756 0.0
H513 H 0.20785 0.31095 0.75489 0.0
H514 H 0.1698 0.22001 0.57073 0.0
H515 H 0.29117 0.20697 0.57403 0.0
H516 H 0.17791 0.10541 0.69661 0.0
H517 H 0.17621 0.19178 0.74917 0.0
H518 H 0.15597 0.05836 0.72553 0.0
H519 H 0.15423 0.14329 0.77726 0.0
H520 H 0.15443 0.08203 0.66198 0.0
H521 H 0.24567 0.12869 0.62155 0.0
H522 H 0.15664 0.02397 0.63795 0.0
H523 H 0.24619 0.06971 0.59822 0.0
H524 H 0.0651 0.1006 0.63733 0.0
H525 H 0.05068 0.11701 0.71082 0.0
H526 H 0.28206 0.08737 0.75176 0.0
H527 H 0.26485 0.01864 0.69067 0.0
Li528 Li 0.27567 0.71123 0.19285 0.0
Li529 Li 0.32445 0.66622 0.18656 0.0
Li530 Li 0.34038 0.73211 0.19296 0.0
Li531 Li 0.31097 0.71156 0.1551 0.0
C532 C 0.29517 0.69349 0.2341 0.0
N533 N 0.24997 0.68786 0.27287 0.0
C534 C 0.27967 0.65841 0.24042 0.0
C535 C 0.288 0.72564 0.24761 0.0
C536 C 0.25681 0.65617 0.26005 0.0
C537 C 0.265 0.72223 0.26712 0.0
C538 C 0.2711 0.63448 0.16114 0.0
C539 C 0.26994 0.58676 0.13118 0.0
N540 N 0.25854 0.56041 0.14692 0.0
C541 C 0.25935 0.60689 0.177 0.0
C542 C 0.27647 0.62432 0.13803 0.0
C543 C 0.25318 0.56962 0.16948 0.0
C544 C 0.20155 0.68857 0.20543 0.0
N545 N 0.226 0.71844 0.2058 0.0
C546 C 0.17974 0.7572 0.22474 0.0
C547 C 0.21576 0.75244 0.21511 0.0
C548 C 0.15388 0.72672 0.22467 0.0
C549 C 0.16531 0.69205 0.21482 0.0
H550 H 0.21006 0.66201 0.19771 0.0
H551 H 0.23565 0.77581 0.2152 0.0
C552 C 0.36669 0.6178 0.21357 0.0
N553 N 0.34761 0.61827 0.19321 0.0
C554 C 0.39492 0.59092 0.21749 0.0
C555 C 0.38117 0.56329 0.18026 0.0
C556 C 0.35342 0.591 0.17694 0.0
C557 C 0.40361 0.56421 0.20027 0.0
H558 H 0.36257 0.64049 0.2259 0.0
H559 H 0.33925 0.59268 0.1605 0.0
C560 C 0.31094 0.79233 0.1753 0.0
N561 N 0.34145 0.86472 0.17513 0.0
C562 C 0.32602 0.80748 0.15498 0.0
C563 C 0.3112 0.81403 0.19552 0.0
C564 C 0.34134 0.84414 0.15525 0.0
C565 C 0.32683 0.85055 0.19509 0.0
C566 C 0.39149 0.67682 0.16505 0.0
C567 C 0.42041 0.67665 0.18152 0.0
C568 C 0.39466 0.65375 0.14548 0.0
C569 C 0.45206 0.65354 0.17807 0.0
C570 C 0.42682 0.6311 0.14264 0.0
N571 N 0.45461 0.63147 0.15885 0.0
C572 C 0.38896 0.75419 0.22877 0.0
C573 C 0.40713 0.77719 0.19195 0.0
C574 C 0.42439 0.76337 0.23785 0.0
N575 N 0.38137 0.76029 0.20608 0.0
C576 C 0.44296 0.78693 0.20035 0.0
C577 C 0.4525 0.77872 0.2234 0.0
H578 H 0.36872 0.73929 0.23942 0.0
H579 H 0.40093 0.78045 0.17379 0.0
C580 C 0.27433 0.72057 0.11187 0.0
N581 N 0.30862 0.71873 0.12246 0.0
C582 C 0.27196 0.71987 0.08776 0.0
C583 C 0.34023 0.71696 0.08602 0.0
C584 C 0.3413 0.7184 0.11009 0.0
C585 C 0.3052 0.7168 0.07463 0.0
H586 H 0.24879 0.72078 0.12217 0.0
H587 H 0.3682 0.71787 0.11892 0.0
O588 O 0.31671 0.69646 0.21456 0.0
O589 O 0.27688 0.67128 0.16811 0.0
O590 O 0.29652 0.75622 0.1755 0.0
O591 O 0.36001 0.69894 0.16826 0.0
H592 H 0.28515 0.63321 0.23024 0.0
H593 H 0.29963 0.75306 0.2429 0.0
H594 H 0.24447 0.62923 0.26508 0.0
H595 H 0.25897 0.74693 0.27764 0.0
H596 H 0.27406 0.57853 0.11337 0.0
H597 H 0.25544 0.61398 0.19498 0.0
H598 H 0.28584 0.64501 0.12549 0.0
H599 H 0.24423 0.548 0.18161 0.0
H600 H 0.17239 0.78436 0.23234 0.0
H601 H 0.14622 0.66798 0.21396 0.0
H602 H 0.41174 0.59314 0.23304 0.0
H603 H 0.38658 0.5429 0.16664 0.0
H604 H 0.32611 0.79105 0.1392 0.0
H605 H 0.29991 0.80261 0.21143 0.0
H606 H 0.35322 0.85619 0.13967 0.0
H607 H 0.32743 0.86759 0.21063 0.0
H608 H 0.41825 0.69369 0.19698 0.0
H609 H 0.37217 0.65267 0.13285 0.0
H610 H 0.47452 0.653 0.19073 0.0
H611 H 0.42952 0.61297 0.12764 0.0
H612 H 0.43048 0.75583 0.25558 0.0
H613 H 0.46355 0.79906 0.18861 0.0
H614 H 0.24446 0.71968 0.07953 0.0
H615 H 0.36645 0.71507 0.0764 0.0
Li616 Li 0.77674 0.8505 0.68679 0.0
Li617 Li 0.8409 0.83043 0.67908 0.0
Li618 Li 0.79289 0.81153 0.65155 0.0
Li619 Li 0.7967 0.78149 0.69122 0.0
C620 C 0.82463 0.8978 0.65576 0.0
N621 N 0.86042 0.96652 0.64776 0.0
C622 C 0.83555 0.92085 0.67425 0.0
C623 C 0.83154 0.90993 0.63318 0.0
C624 C 0.85371 0.95541 0.66987 0.0
C625 C 0.84974 0.94473 0.62949 0.0
C626 C 0.83072 0.83459 0.72906 0.0
C627 C 0.86749 0.81364 0.76177 0.0
N628 N 0.86716 0.84969 0.77029 0.0
C629 C 0.83058 0.87142 0.73826 0.0
C630 C 0.84918 0.80543 0.741 0.0
C631 C 0.84922 0.87848 0.75907 0.0
C632 C 0.73967 0.89371 0.72167 0.0
N633 N 0.74813 0.89244 0.69879 0.0
C634 C 0.73097 0.95789 0.69436 0.0
C635 C 0.7426 0.92321 0.68495 0.0
C636 C 0.72488 0.96097 0.71827 0.0
C637 C 0.72806 0.9279 0.73184 0.0
H638 H 0.7444 0.86887 0.73231 0.0
H639 H 0.74954 0.92157 0.66681 0.0
C640 C 0.9054 0.85858 0.65759 0.0
N641 N 0.89145 0.85057 0.67894 0.0
C642 C 0.93455 0.88504 0.65494 0.0
C643 C 0.93704 0.89154 0.69642 0.0
C644 C 0.90811 0.86472 0.69827 0.0
C645 C 0.94919 0.90331 0.6745 0.0
H646 H 0.89135 0.84742 0.64247 0.0
H647 H 0.8974 0.85765 0.71508 0.0
C648 C 0.71567 0.81293 0.66643 0.0
N649 N 0.64539 0.83335 0.64971 0.0
C650 C 0.68349 0.79267 0.67317 0.0
C651 C 0.71212 0.84364 0.65124 0.0
C652 C 0.64819 0.80342 0.6645 0.0
C653 C 0.67635 0.8535 0.64297 0.0
C654 C 0.86915 0.76475 0.66437 0.0
C655 C 0.88921 0.76398 0.64358 0.0
C656 C 0.88608 0.75083 0.68444 0.0
C657 C 0.92617 0.7499 0.64331 0.0
C658 C 0.92307 0.73695 0.68348 0.0
N659 N 0.94221 0.73682 0.66311 0.0
C660 C 0.81382 0.81242 0.60542 0.0
C661 C 0.75233 0.78694 0.61067 0.0
C662 C 0.81179 0.80616 0.58168 0.0
N663 N 0.78446 0.80271 0.61939 0.0
C664 C 0.74873 0.78096 0.58687 0.0
C665 C 0.7789 0.79035 0.57215 0.0
H666 H 0.839 0.82492 0.6128 0.0
H667 H 0.72957 0.77879 0.62212 0.0
C668 C 0.77969 0.73542 0.73045 0.0
N669 N 0.78994 0.735 0.70784 0.0
C670 C 0.77662 0.70135 0.74281 0.0
C671 C 0.79364 0.66698 0.70822 0.0
C672 C 0.79673 0.70173 0.6966 0.0
C673 C 0.78368 0.66636 0.73174 0.0
H674 H 0.77446 0.76229 0.73898 0.0
H675 H 0.80473 0.70223 0.67858 0.0
O676 O 0.80791 0.86323 0.65973 0.0
O677 O 0.81237 0.82701 0.70875 0.0
O678 O 0.75035 0.80294 0.67495 0.0
O679 O 0.83312 0.77896 0.66511 0.0
H680 H 0.83055 0.91184 0.6918 0.0
H681 H 0.82303 0.89266 0.61864 0.0
H682 H 0.8626 0.97333 0.68404 0.0
H683 H 0.85542 0.95437 0.6121 0.0
H684 H 0.88192 0.79131 0.77113 0.0
H685 H 0.81655 0.89447 0.72942 0.0
H686 H 0.84933 0.7767 0.73442 0.0
H687 H 0.84945 0.90687 0.76629 0.0
H688 H 0.72913 0.98255 0.68321 0.0
H689 H 0.72303 0.92878 0.75027 0.0
H690 H 0.94314 0.8935 0.63774 0.0
H691 H 0.94826 0.90458 0.71191 0.0
H692 H 0.68579 0.7689 0.68498 0.0
H693 H 0.73672 0.85956 0.64576 0.0
H694 H 0.62303 0.78798 0.66955 0.0
H695 H 0.6732 0.87715 0.63117 0.0
H696 H 0.87649 0.77417 0.62781 0.0
H697 H 0.8708 0.75069 0.70057 0.0
H698 H 0.94208 0.74933 0.62736 0.0
H699 H 0.93654 0.72624 0.69893 0.0
H700 H 0.83549 0.81407 0.57082 0.0
H701 H 0.723 0.76852 0.58009 0.0
H702 H 0.76937 0.70255 0.76095 0.0
H703 H 0.79866 0.64089 0.69877 0.0
H704 H 0.02836 0.05791 0.29943 0.0
H705 H 0.07346 0.01601 0.36381 0.0
H706 H 0.02128 0.97055 0.36672 0.0
H707 H 0.96119 0.94504 0.35187 0.0
H708 H 0.91441 0.99035 0.2888 0.0
H709 H 0.96864 0.03289 0.28476 0.0
C710 C 0.02672 0.03903 0.31421 0.0
C711 C 0.05464 0.04067 0.33149 0.0
C712 C 0.99609 0.01397 0.31615 0.0
C713 C 0.0526 0.01518 0.35015 0.0
C714 C 0.02252 0.98948 0.35196 0.0
C715 C 0.96262 0.96461 0.33741 0.0
C716 C 0.93366 0.96479 0.32075 0.0
C717 C 0.99377 0.98913 0.33527 0.0
C718 C 0.93638 0.9896 0.3018 0.0
C719 C 0.96735 0.01392 0.29949 0.0
H720 H 0.44389 0.53713 0.80848 0.0
H721 H 0.51621 0.59376 0.85752 0.0
H722 H 0.55519 0.53631 0.86084 0.0
H723 H 0.56884 0.47053 0.84933 0.0
H724 H 0.4951 0.4132 0.80121 0.0
H725 H 0.4565 0.47066 0.79782 0.0
C726 C 0.46851 0.53696 0.81965 0.0
C727 C 0.47768 0.56964 0.83248 0.0
C728 C 0.49024 0.50377 0.82172 0.0
C729 C 0.50892 0.56891 0.8474 0.0
C730 C 0.53106 0.53612 0.84931 0.0
C731 C 0.54391 0.47033 0.83843 0.0
C732 C 0.53472 0.43752 0.82564 0.0
C733 C 0.52188 0.50337 0.8366 0.0
C734 C 0.50288 0.43811 0.81114 0.0
C735 C 0.48081 0.47093 0.80921 0.0
H736 H 0.55013 0.46962 0.22423 0.0
H737 H 0.56702 0.48212 0.15069 0.0
H738 H 0.51007 0.52052 0.1481 0.0
H739 H 0.45361 0.5476 0.16608 0.0
H740 H 0.43276 0.52918 0.23867 0.0
H741 H 0.49259 0.49492 0.242 0.0
C742 C 0.54133 0.48031 0.20754 0.0
C743 C 0.56319 0.47258 0.18771 0.0
C744 C 0.50739 0.50081 0.20588 0.0
C745 C 0.55155 0.48795 0.16642 0.0
C746 C 0.5185 0.50952 0.1648 0.0
C747 C 0.4617 0.53553 0.18257 0.0
C748 C 0.43847 0.54078 0.20206 0.0
C749 C 0.49585 0.51546 0.18432 0.0
C750 C 0.45013 0.52578 0.2234 0.0
C751 C 0.48434 0.50617 0.22532 0.0
H752 H 0.06368 0.03623 0.65281 0.0
H753 H 0.98785 0.09675 0.69827 0.0
H754 H 0.94947 0.03933 0.70283 0.0
H755 H 0.93819 0.97177 0.69443 0.0
H756 H 0.0129 0.9117 0.64822 0.0
H757 H 0.05098 0.96944 0.64318 0.0
C758 C 0.03832 0.03714 0.66334 0.0
C759 C 0.02855 0.07083 0.6751 0.0
C760 C 0.01649 0.00407 0.66591 0.0
C761 C 0.9961 0.07116 0.68914 0.0
C762 C 0.97417 0.03836 0.69175 0.0
C763 C 0.96307 0.97129 0.68345 0.0
C764 C 0.97321 0.93752 0.67198 0.0
C765 C 0.98436 0.00459 0.68043 0.0
C766 C 0.00482 0.93739 0.65732 0.0
C767 C 0.02648 0.97034 0.65443 0.0
H768 H 0.24395 0.20016 0.46086 0.0
H769 H 0.1792 0.30429 0.46424 0.0
H770 H 0.18094 0.30199 0.50627 0.0
H771 H 0.19914 0.26933 0.54225 0.0
H772 H 0.26685 0.16747 0.53875 0.0
H773 H 0.26658 0.17062 0.49657 0.0
C774 C 0.23088 0.2229 0.47066 0.0
C775 C 0.21116 0.25218 0.45916 0.0
C776 C 0.23255 0.22184 0.49489 0.0
C777 C 0.19388 0.28089 0.47245 0.0
C778 C 0.19506 0.27978 0.49656 0.0
C779 C 0.21394 0.24796 0.53219 0.0
C780 C 0.23284 0.21812 0.54353 0.0
C781 C 0.21389 0.25013 0.50796 0.0
C782 C 0.2523 0.19083 0.53038 0.0
C783 C 0.25198 0.19252 0.50628 0.0
H784 H 0.3124 0.66378 0.97094 0.0
H785 H 0.25109 0.76893 0.96108 0.0
H786 H 0.25059 0.77946 1.00265 0.0
H787 H 0.26985 0.76012 0.04204 0.0
H788 H 0.3365 0.65845 0.05091 0.0
H789 H 0.33368 0.64598 0.00946 0.0
C790 C 0.29942 0.68942 0.97767 0.0
C791 C 0.28191 0.71547 0.96257 0.0
C792 C 0.3005 0.69615 1.00155 0.0
C793 C 0.26428 0.74786 0.97207 0.0
C794 C 0.2643 0.75419 0.99592 0.0
C795 C 0.28367 0.73528 0.0348 0.0
C796 C 0.30344 0.71026 0.0494 0.0
C797 C 0.28258 0.72868 0.01083 0.0
C798 C 0.32144 0.67825 0.03991 0.0
C799 C 0.31969 0.67104 0.01626 0.0
H800 H 0.82757 0.75102 0.545 0.0
H801 H 0.72438 0.81617 0.54292 0.0
H802 H 0.72264 0.81049 0.50078 0.0
H803 H 0.7527 0.79038 0.4646 0.0
H804 H 0.85371 0.72122 0.46694 0.0
H805 H 0.85431 0.7256 0.50888 0.0
C806 C 0.80463 0.76375 0.53525 0.0
C807 C 0.77628 0.7842 0.54691 0.0
C808 C 0.80363 0.75997 0.51112 0.0
C809 C 0.74643 0.80022 0.53424 0.0
C810 C 0.74554 0.79709 0.51019 0.0
C811 C 0.77445 0.77547 0.47418 0.0
C812 C 0.8034 0.75588 0.46234 0.0
C813 C 0.77424 0.77739 0.49842 0.0
C814 C 0.83156 0.73735 0.47535 0.0
C815 C 0.83182 0.73959 0.49943 0.0
H816 H 0.66321 0.27857 0.96401 0.0
H817 H 0.78389 0.29634 0.96711 0.0
H818 H 0.78246 0.28794 0.009 0.0
H819 H 0.74622 0.27911 0.04509 0.0
H820 H 0.62532 0.26353 0.04168 0.0
H821 H 0.62748 0.26802 0.99964 0.0
C822 C 0.68921 0.28088 0.97384 0.0
C823 C 0.72356 0.2884 0.96238 0.0
C824 C 0.68811 0.27656 0.99792 0.0
C825 C 0.75708 0.29034 0.9754 0.0
C826 C 0.75626 0.28575 0.9994 0.0
C827 C 0.72047 0.27616 0.03509 0.0
C828 C 0.68564 0.27109 0.04648 0.0
C829 C 0.72187 0.27922 0.01088 0.0
C830 C 0.65241 0.26781 0.03332 0.0
C831 C 0.65364 0.27031 0.00929 0.0
H832 H 0.49314 0.17917 0.23489 0.0
H833 H 0.505 0.30042 0.24463 0.0
H834 H 0.4415 0.30383 0.26062 0.0
H835 H 0.3824 0.27288 0.272 0.0
H836 H 0.36915 0.15192 0.2622 0.0
H837 H 0.43271 0.14815 0.24563 0.0
C838 C 0.48174 0.20633 0.24041 0.0
C839 C 0.50429 0.23932 0.23892 0.0
C840 C 0.44474 0.20827 0.24948 0.0
C841 C 0.48888 0.27432 0.24615 0.0
C842 C 0.45234 0.27642 0.25514 0.0
C843 C 0.39348 0.24561 0.2664 0.0
C844 C 0.37099 0.21275 0.26846 0.0
C845 C 0.43009 0.2436 0.25702 0.0
C846 C 0.38564 0.17779 0.26065 0.0
C847 C 0.42212 0.17555 0.25129 0.0
H848 H 0.26356 0.90795 0.79217 0.0
H849 H 0.31611 0.85092 0.73455 0.0
H850 H 0.31856 0.91086 0.71321 0.0
H851 H 0.30551 0.97929 0.71079 0.0
H852 H 0.24933 0.03555 0.76757 0.0
H853 H 0.25009 0.97656 0.78961 0.0
C854 C 0.27576 0.90871 0.775 0.0
C855 C 0.2895 0.87494 0.76496 0.0
C856 C 0.27691 0.94329 0.76275 0.0
C857 C 0.30485 0.87636 0.74257 0.0
C858 C 0.3065 0.91069 0.73041 0.0
C859 C 0.29316 0.97876 0.72791 0.0
C860 C 0.27752 0.01223 0.73738 0.0
C861 C 0.29247 0.94431 0.74029 0.0
C862 C 0.26236 0.01074 0.75986 0.0
C863 C 0.26232 0.97677 0.77245 0.0
H864 H 0.62765 0.77172 0.24613 0.0
H865 H 0.5866 0.80868 0.3126 0.0
H866 H 0.52216 0.81123 0.29763 0.0
H867 H 0.4771 0.80177 0.26593 0.0
H868 H 0.5177 0.76238 0.19983 0.0
H869 H 0.58245 0.76265 0.21426 0.0
C870 C 0.60456 0.78007 0.25738 0.0
C871 C 0.61205 0.78998 0.28047 0.0
C872 C 0.56742 0.7814 0.24866 0.0
C873 C 0.58179 0.8013 0.29469 0.0
C874 C 0.54486 0.80264 0.28617 0.0
C875 C 0.50007 0.79318 0.25466 0.0
C876 C 0.49229 0.78221 0.23177 0.0
C877 C 0.5373 0.79265 0.2632 0.0
C878 C 0.52267 0.77168 0.21738 0.0
C879 C 0.55979 0.7714 0.2257 0.0
H880 H 0.69173 0.1313 0.74808 0.0
H881 H 0.7665 0.09929 0.8036 0.0
H882 H 0.77115 0.03491 0.78801 0.0
H883 H 0.75572 0.98824 0.758 0.0
H884 H 0.68058 0.01963 0.70252 0.0
H885 H 0.67469 0.08371 0.71855 0.0
C886 C 0.7092 0.11027 0.75668 0.0
C887 C 0.72876 0.12017 0.77698 0.0
C888 C 0.71171 0.07317 0.74762 0.0
C889 C 0.75086 0.09239 0.78808 0.0
C890 C 0.75364 0.05557 0.77913 0.0
C891 C 0.73747 0.00883 0.74961 0.0
C892 C 0.71857 0.99897 0.72907 0.0
C893 C 0.73424 0.04565 0.7589 0.0
C894 C 0.69573 0.02644 0.71822 0.0
C895 C 0.69229 0.06312 0.72741 0.0
H896 H 0.99802 0.23165 0.2635 0.0
H897 H 0.00659 0.3531 0.2723 0.0
H898 H 0.9453 0.36156 0.25301 0.0
H899 H 0.88769 0.33369 0.23584 0.0
H900 H 0.88172 0.21199 0.22547 0.0
H901 H 0.94315 0.20439 0.2437 0.0
C902 C 0.98647 0.25999 0.2611 0.0
C903 C 0.00647 0.29171 0.26948 0.0
C904 C 0.95147 0.26452 0.25003 0.0
C905 C 0.99164 0.32831 0.26595 0.0
C906 C 0.95655 0.33307 0.25505 0.0
C907 C 0.89996 0.30552 0.23719 0.0
C908 C 0.87941 0.27343 0.22951 0.0
C909 C 0.93595 0.30129 0.2473 0.0
C910 C 0.89603 0.23719 0.23174 0.0
C911 C 0.93147 0.23277 0.24199 0.0
H912 H 0.24731 0.36618 0.76254 0.0
H913 H 0.17593 0.40548 0.70707 0.0
H914 H 0.17468 0.46917 0.7239 0.0
H915 H 0.19442 0.51412 0.75421 0.0
H916 H 0.2667 0.4746 0.80926 0.0
H917 H 0.26596 0.41063 0.79315 0.0
C918 C 0.23111 0.38854 0.75425 0.0
C919 C 0.21193 0.38095 0.73348 0.0
C920 C 0.23039 0.42515 0.76407 0.0
C921 C 0.19151 0.41055 0.72286 0.0
C922 C 0.19056 0.44699 0.73256 0.0
C923 C 0.21006 0.49156 0.76268 0.0
C924 C 0.2303 0.49937 0.78307 0.0
C925 C 0.21009 0.45472 0.75309 0.0
C926 C 0.25013 0.46949 0.79386 0.0
C927 C 0.25008 0.43284 0.78452 0.0
H928 H 0.11295 0.67539 0.24998 0.0
H929 H 0.10696 0.7883 0.22079 0.0
H930 H 0.04292 0.79575 0.23579 0.0
H931 H 0.9885 0.77038 0.25704 0.0
H932 H 0.99339 0.65709 0.28561 0.0
H933 H 0.05788 0.64957 0.27088 0.0
C934 C 0.09754 0.70151 0.24671 0.0
C935 C 0.11495 0.73124 0.23425 0.0
C936 C 0.06046 0.70553 0.25523 0.0
C937 C 0.09465 0.76514 0.23058 0.0
C938 C 0.05784 0.76934 0.23901 0.0
C939 C 0.00341 0.74379 0.25976 0.0
C940 C 0.98591 0.71419 0.27224 0.0
C941 C 0.04044 0.73971 0.25129 0.0
C942 C 0.00616 0.68036 0.27613 0.0
C943 C 0.04302 0.67602 0.26767 0.0
H944 H 0.74746 0.52214 0.79362 0.0
H945 H 0.83966 0.47519 0.75406 0.0
H946 H 0.84709 0.53583 0.73364 0.0
H947 H 0.82715 0.60211 0.72705 0.0
H948 H 0.7324 0.64737 0.76537 0.0
H949 H 0.72687 0.58779 0.78658 0.0
C950 C 0.7695 0.52534 0.78072 0.0
C951 C 0.79323 0.49433 0.77551 0.0
C952 C 0.77321 0.56003 0.76886 0.0
C953 C 0.82105 0.49863 0.75837 0.0
C954 C 0.82531 0.5333 0.74673 0.0
C955 C 0.80499 0.59892 0.73985 0.0
C956 C 0.78037 0.62957 0.74457 0.0
C957 C 0.80141 0.56416 0.75175 0.0
C958 C 0.75228 0.62478 0.76157 0.0
C959 C 0.74886 0.59052 0.77364 0.0
loop_
_geom_bond_atom_site_label_1
_geom_bond_atom_site_label_2
_geom_bond_distance
_geom_bond_site_symmetry_2
_ccdc_geom_bond_type
Li0 N17 1.990 . S
Li0 O60 1.956 . S
Li0 O61 1.970 . S
Li0 O62 1.961 . S
Li1 N25 1.990 . S
Li1 O60 1.970 . S
Li1 O61 1.956 . S
Li1 O63 1.961 . S
Li2 N47 1.990 . S
Li2 O60 1.961 . S
Li2 O62 1.956 . S
Li2 O63 1.970 . S
Li3 N53 1.990 . S
Li3 O61 1.961 . S
Li3 O62 1.970 . S
Li3 O63 1.956 . S
C4 C6 1.348 . S
C4 C7 1.356 . S
C4 O60 1.325 . S
N5 C8 1.314 . S
N5 C9 1.279 . S
C6 C4 1.348 . S
C6 C8 1.353 . S
C6 H64 0.929 . S
C7 C4 1.356 . S
C7 C9 1.358 . S
C7 H65 0.930 . S
C8 N5 1.314 . S
C8 C6 1.353 . S
C8 H66 0.930 . S
C9 N5 1.279 . S
C9 C7 1.358 . S
C9 H67 0.930 . S
C10 C13 1.348 . S
C10 C14 1.356 . S
C10 O61 1.325 . S
C11 N12 1.279 . S
C11 C14 1.358 1_655 S
C11 H68 0.930 . S
N12 C11 1.279 . S
N12 C15 1.314 . S
C13 C10 1.348 . S
C13 C15 1.353 1_455 S
C13 H69 0.929 . S
C14 C10 1.356 . S
C14 C11 1.358 1_455 S
C14 H70 0.930 . S
C15 N12 1.314 . S
C15 C13 1.353 1_655 S
C15 H71 0.930 . S
C16 N17 1.314 . S
C16 C21 1.353 1_455 S
C16 H22 0.930 . S
N17 Li0 1.990 . S
N17 C16 1.314 . S
N17 C19 1.279 . S
C18 C19 1.355 1_655 S
C18 C20 1.360 . S
C18 H72 0.930 . S
C19 N17 1.279 . S
C19 C18 1.355 1_455 S
C19 H23 0.930 . S
C20 C18 1.360 . S
C20 C21 1.348 . S
C21 C16 1.353 1_655 S
C21 C20 1.348 . S
C21 H73 0.929 . S
H22 C16 0.930 . S
H23 C19 0.930 . S
C24 N25 1.314 . S
C24 C26 1.353 . S
C24 H30 0.930 . S
N25 Li1 1.990 . S
N25 C24 1.314 . S
N25 C28 1.279 . S
C26 C24 1.353 . S
C26 C29 1.348 . S
C26 H74 0.929 . S
C27 C28 1.358 . S
C27 C29 1.356 . S
C27 H75 0.930 . S
C28 N25 1.279 . S
C28 C27 1.358 . S
C28 H31 0.930 . S
C29 C26 1.348 . S
C29 C27 1.356 . S
H30 C24 0.930 . S
H31 C28 0.930 . S
C32 C34 1.348 . S
C32 C35 1.356 . S
C32 O62 1.325 . S
N33 C36 1.314 . S
N33 C37 1.279 . S
C34 C32 1.348 . S
C34 C36 1.353 . S
C34 H76 0.929 . S
C35 C32 1.356 . S
C35 C37 1.358 . S
C35 H77 0.930 . S
C36 N33 1.314 . S
C36 C34 1.353 . S
C36 H78 0.930 . S
C37 N33 1.279 . S
C37 C35 1.358 . S
C37 H79 0.930 . S
C38 C39 1.348 . S
C38 C40 1.356 . S
C38 O63 1.325 . S
C39 C38 1.348 . S
C39 C41 1.353 . S
C39 H80 0.929 . S
C40 C38 1.356 . S
C40 C42 1.358 . S
C40 H81 0.930 . S
C41 C39 1.353 . S
C41 N43 1.314 . S
C41 H82 0.930 . S
C42 C40 1.358 . S
C42 N43 1.279 . S
C42 H83 0.930 . S
N43 C41 1.314 . S
N43 C42 1.279 . S
C44 C46 1.353 . S
C44 N47 1.314 . S
C44 H50 0.930 . S
C45 N47 1.279 . S
C45 C48 1.358 . S
C45 H51 0.930 . S
C46 C44 1.353 . S
C46 C49 1.348 . S
C46 H84 0.929 . S
N47 Li2 1.990 . S
N47 C44 1.314 . S
N47 C45 1.279 . S
C48 C45 1.358 . S
C48 C49 1.356 . S
C48 H85 0.930 . S
C49 C46 1.348 . S
C49 C48 1.356 . S
H50 C44 0.930 . S
H51 C45 0.930 . S
C52 N53 1.314 . S
C52 C54 1.353 . S
C52 H58 0.930 . S
N53 Li3 1.990 . S
N53 C52 1.314 . S
N53 C56 1.279 . S
C54 C52 1.353 . S
C54 C57 1.348 . S
C54 H86 0.929 . S
C55 C56 1.358 . S
C55 C57 1.356 . S
C55 H87 0.930 . S
C56 N53 1.279 . S
C56 C55 1.358 . S
C56 H59 0.930 . S
C57 C54 1.348 . S
C57 C55 1.356 . S
H58 C52 0.930 . S
H59 C56 0.930 . S
O60 Li0 1.956 . S
O60 Li1 1.970 . S
O60 Li2 1.961 . S
O60 C4 1.325 . S
O61 Li0 1.970 . S
O61 Li1 1.956 . S
O61 Li3 1.961 . S
O61 C10 1.325 . S
O62 Li0 1.961 . S
O62 Li2 1.956 . S
O62 Li3 1.970 . S
O62 C32 1.325 . S
O63 Li1 1.961 . S
O63 Li2 1.970 . S
O63 Li3 1.956 . S
O63 C38 1.325 . S
H64 C6 0.929 . S
H65 C7 0.930 . S
H66 C8 0.930 . S
H67 C9 0.930 . S
H68 C11 0.930 . S
H69 C13 0.929 . S
H70 C14 0.930 . S
H71 C15 0.930 . S
H72 C18 0.930 . S
H73 C21 0.929 . S
H74 C26 0.929 . S
H75 C27 0.930 . S
H76 C34 0.929 . S
H77 C35 0.930 . S
H78 C36 0.930 . S
H79 C37 0.930 . S
H80 C39 0.929 . S
H81 C40 0.930 . S
H82 C41 0.930 . S
H83 C42 0.930 . S
H84 C46 0.929 . S
H85 C48 0.930 . S
H86 C54 0.929 . S
H87 C55 0.930 . S
Li88 N105 1.990 . S
Li88 O148 1.956 . S
Li88 O149 1.970 . S
Li88 O150 1.961 . S
Li89 N113 1.990 . S
Li89 O148 1.970 . S
Li89 O149 1.956 . S
Li89 O151 1.961 . S
Li90 N135 1.990 . S
Li90 O148 1.961 . S
Li90 O150 1.956 . S
Li90 O151 1.970 . S
Li91 N141 1.990 . S
Li91 O149 1.961 . S
Li91 O150 1.970 . S
Li91 O151 1.956 . S
C92 C94 1.348 . S
C92 C95 1.356 . S
C92 O148 1.325 . S
N93 C96 1.314 . S
N93 C97 1.279 . S
C94 C92 1.348 . S
C94 C96 1.353 . S
C94 H152 0.929 . S
C95 C92 1.356 . S
C95 C97 1.358 . S
C95 H153 0.930 . S
C96 N93 1.314 . S
C96 C94 1.353 . S
C96 H154 0.930 . S
C97 N93 1.279 . S
C97 C95 1.358 . S
C97 H155 0.930 . S
C98 C101 1.348 . S
C98 C102 1.356 . S
C98 O149 1.325 . S
C99 N100 1.279 . S
C99 C102 1.358 . S
C99 H156 0.930 . S
N100 C99 1.279 . S
N100 C103 1.314 . S
C101 C98 1.348 . S
C101 C103 1.353 . S
C101 H157 0.929 . S
C102 C98 1.356 . S
C102 C99 1.358 . S
C102 H158 0.930 . S
C103 N100 1.314 . S
C103 C101 1.353 . S
C103 H159 0.930 . S
C104 N105 1.314 . S
C104 C109 1.353 . S
C104 H110 0.930 . S
N105 Li88 1.990 . S
N105 C104 1.314 . S
N105 C107 1.279 . S
C106 C107 1.358 . S
C106 C108 1.356 . S
C106 H160 0.930 . S
C107 N105 1.279 . S
C107 C106 1.358 . S
C107 H111 0.930 . S
C108 C106 1.356 . S
C108 C109 1.348 . S
C109 C104 1.353 . S
C109 C108 1.348 . S
C109 H161 0.929 . S
H110 C104 0.930 . S
H111 C107 0.930 . S
C112 N113 1.314 . S
C112 C114 1.353 . S
C112 H118 0.930 . S
N113 Li89 1.990 . S
N113 C112 1.314 . S
N113 C116 1.279 . S
C114 C112 1.353 . S
C114 C117 1.348 . S
C114 H162 0.929 . S
C115 C116 1.358 . S
C115 C117 1.356 . S
C115 H163 0.930 . S
C116 N113 1.279 . S
C116 C115 1.358 . S
C116 H119 0.930 . S
C117 C114 1.348 . S
C117 C115 1.356 . S
H118 C112 0.930 . S
H119 C116 0.930 . S
C120 C122 1.348 . S
C120 C123 1.356 . S
C120 O150 1.325 . S
N121 C124 1.314 . S
N121 C125 1.279 . S
C122 C120 1.348 . S
C122 C124 1.353 . S
C122 H164 0.929 . S
C123 C120 1.356 . S
C123 C125 1.358 . S
C123 H165 0.930 . S
C124 N121 1.314 . S
C124 C122 1.353 . S
C124 H166 0.930 . S
C125 N121 1.279 . S
C125 C123 1.358 . S
C125 H167 0.930 . S
C126 C127 1.348 . S
C126 C128 1.356 . S
C126 O151 1.325 . S
C127 C126 1.348 . S
C127 C129 1.353 . S
C127 H168 0.929 . S
C128 C126 1.356 . S
C128 C130 1.358 . S
C128 H169 0.930 . S
C129 C127 1.353 . S
C129 N131 1.314 . S
C129 H170 0.930 . S
C130 C128 1.358 . S
C130 N131 1.279 . S
C130 H171 0.930 . S
N131 C129 1.314 . S
N131 C130 1.279 . S
C132 C134 1.353 . S
C132 N135 1.314 . S
C132 H138 0.930 . S
C133 N135 1.279 . S
C133 C136 1.358 . S
C133 H139 0.930 . S
C134 C132 1.353 . S
C134 C137 1.348 . S
C134 H172 0.929 . S
N135 Li90 1.990 . S
N135 C132 1.314 . S
N135 C133 1.279 . S
C136 C133 1.358 . S
C136 C137 1.356 . S
C136 H173 0.930 . S
C137 C134 1.348 . S
C137 C136 1.356 . S
H138 C132 0.930 . S
H139 C133 0.930 . S
C140 N141 1.314 . S
C140 C142 1.353 . S
C140 H146 0.930 . S
N141 Li91 1.990 . S
N141 C140 1.314 . S
N141 C144 1.279 . S
C142 C140 1.353 . S
C142 C145 1.348 . S
C142 H174 0.929 . S
C143 C144 1.358 . S
C143 C145 1.356 . S
C143 H175 0.930 . S
C144 N141 1.279 . S
C144 C143 1.358 . S
C144 H147 0.930 . S
C145 C142 1.348 . S
C145 C143 1.356 . S
H146 C140 0.930 . S
H147 C144 0.930 . S
O148 Li88 1.956 . S
O148 Li89 1.970 . S
O148 Li90 1.961 . S
O148 C92 1.325 . S
O149 Li88 1.970 . S
O149 Li89 1.956 . S
O149 Li91 1.961 . S
O149 C98 1.325 . S
O150 Li88 1.961 . S
O150 Li90 1.956 . S
O150 Li91 1.970 . S
O150 C120 1.325 . S
O151 Li89 1.961 . S
O151 Li90 1.970 . S
O151 Li91 1.956 . S
O151 C126 1.325 . S
H152 C94 0.929 . S
H153 C95 0.930 . S
H154 C96 0.930 . S
H155 C97 0.930 . S
H156 C99 0.930 . S
H157 C101 0.929 . S
H158 C102 0.930 . S
H159 C103 0.930 . S
H160 C106 0.930 . S
H161 C109 0.929 . S
H162 C114 0.929 . S
H163 C115 0.930 . S
H164 C122 0.929 . S
H165 C123 0.930 . S
H166 C124 0.930 . S
H167 C125 0.930 . S
H168 C127 0.929 . S
H169 C128 0.930 . S
H170 C129 0.930 . S
H171 C130 0.930 . S
H172 C134 0.929 . S
H173 C136 0.930 . S
H174 C142 0.929 . S
H175 C143 0.930 . S
Li176 N193 1.990 . S
Li176 O236 1.956 . S
Li176 O237 1.970 . S
Li176 O238 1.961 . S
Li177 N201 1.990 . S
Li177 O236 1.970 . S
Li177 O237 1.956 . S
Li177 O239 1.961 . S
Li178 N223 1.990 . S
Li178 O236 1.961 . S
Li178 O238 1.956 . S
Li178 O239 1.970 . S
Li179 N229 1.990 . S
Li179 O237 1.961 . S
Li179 O238 1.970 . S
Li179 O239 1.956 . S
C180 C182 1.348 . S
C180 C183 1.356 . S
C180 O236 1.325 . S
N181 C184 1.314 . S
N181 C185 1.279 . S
C182 C180 1.348 . S
C182 C184 1.353 . S
C182 H240 0.929 . S
C183 C180 1.356 . S
C183 C185 1.358 . S
C183 H241 0.930 . S
C184 N181 1.314 . S
C184 C182 1.353 . S
C184 H242 0.930 . S
C185 N181 1.279 . S
C185 C183 1.358 . S
C185 H243 0.930 . S
C186 C189 1.348 . S
C186 C190 1.356 . S
C186 O237 1.325 . S
C187 N188 1.279 . S
C187 C190 1.358 1_455 S
C187 H244 0.930 . S
N188 C187 1.279 . S
N188 C191 1.314 . S
C189 C186 1.348 . S
C189 C191 1.353 1_655 S
C189 H245 0.929 . S
C190 C186 1.356 . S
C190 C187 1.358 1_655 S
C190 H246 0.930 . S
C191 N188 1.314 . S
C191 C189 1.353 1_455 S
C191 H247 0.930 . S
C192 N193 1.314 . S
C192 C197 1.353 1_655 S
C192 H198 0.930 . S
N193 Li176 1.990 . S
N193 C192 1.314 . S
N193 C195 1.279 . S
C194 C195 1.355 1_455 S
C194 C196 1.360 . S
C194 H248 0.930 . S
C195 N193 1.279 . S
C195 C194 1.355 1_655 S
C195 H199 0.930 . S
C196 C194 1.360 . S
C196 C197 1.348 . S
C197 C192 1.353 1_455 S
C197 C196 1.348 . S
C197 H249 0.929 . S
H198 C192 0.930 . S
H199 C195 0.930 . S
C200 N201 1.314 . S
C200 C202 1.353 . S
C200 H206 0.930 . S
N201 Li177 1.990 . S
N201 C200 1.314 . S
N201 C204 1.279 . S
C202 C200 1.353 . S
C202 C205 1.348 . S
C202 H250 0.929 . S
C203 C204 1.358 . S
C203 C205 1.356 . S
C203 H251 0.930 . S
C204 N201 1.279 . S
C204 C203 1.358 . S
C204 H207 0.930 . S
C205 C202 1.348 . S
C205 C203 1.356 . S
H206 C200 0.930 . S
H207 C204 0.930 . S
C208 C210 1.348 . S
C208 C211 1.356 . S
C208 O238 1.325 . S
N209 C212 1.314 . S
N209 C213 1.279 . S
C210 C208 1.348 . S
C210 C212 1.353 . S
C210 H252 0.929 . S
C211 C208 1.356 . S
C211 C213 1.358 . S
C211 H253 0.930 . S
C212 N209 1.314 . S
C212 C210 1.353 . S
C212 H254 0.930 . S
C213 N209 1.279 . S
C213 C211 1.358 . S
C213 H255 0.930 . S
C214 C215 1.348 . S
C214 C216 1.356 . S
C214 O239 1.325 . S
C215 C214 1.348 . S
C215 C217 1.353 . S
C215 H256 0.929 . S
C216 C214 1.356 . S
C216 C218 1.358 . S
C216 H257 0.930 . S
C217 C215 1.353 . S
C217 N219 1.314 . S
C217 H258 0.930 . S
C218 C216 1.358 . S
C218 N219 1.279 . S
C218 H259 0.930 . S
N219 C217 1.314 . S
N219 C218 1.279 . S
C220 C222 1.353 . S
C220 N223 1.314 . S
C220 H226 0.930 . S
C221 N223 1.279 . S
C221 C224 1.358 . S
C221 H227 0.930 . S
C222 C220 1.353 . S
C222 C225 1.348 . S
C222 H260 0.929 . S
N223 Li178 1.990 . S
N223 C220 1.314 . S
N223 C221 1.279 . S
C224 C221 1.358 . S
C224 C225 1.356 . S
C224 H261 0.930 . S
C225 C222 1.348 . S
C225 C224 1.356 . S
H226 C220 0.930 . S
H227 C221 0.930 . S
C228 N229 1.314 . S
C228 C230 1.353 . S
C228 H234 0.930 . S
N229 Li179 1.990 . S
N229 C228 1.314 . S
N229 C232 1.279 . S
C230 C228 1.353 . S
C230 C233 1.348 . S
C230 H262 0.929 . S
C231 C232 1.358 . S
C231 C233 1.356 . S
C231 H263 0.930 . S
C232 N229 1.279 . S
C232 C231 1.358 . S
C232 H235 0.930 . S
C233 C230 1.348 . S
C233 C231 1.356 . S
H234 C228 0.930 . S
H235 C232 0.930 . S
O236 Li176 1.956 . S
O236 Li177 1.970 . S
O236 Li178 1.961 . S
O236 C180 1.325 . S
O237 Li176 1.970 . S
O237 Li177 1.956 . S
O237 Li179 1.961 . S
O237 C186 1.325 . S
O238 Li176 1.961 . S
O238 Li178 1.956 . S
O238 Li179 1.970 . S
O238 C208 1.325 . S
O239 Li177 1.961 . S
O239 Li178 1.970 . S
O239 Li179 1.956 . S
O239 C214 1.325 . S
H240 C182 0.929 . S
H241 C183 0.930 . S
H242 C184 0.930 . S
H243 C185 0.930 . S
H244 C187 0.930 . S
H245 C189 0.929 . S
H246 C190 0.930 . S
H247 C191 0.930 . S
H248 C194 0.930 . S
H249 C197 0.929 . S
H250 C202 0.929 . S
H251 C203 0.930 . S
H252 C210 0.929 . S
H253 C211 0.930 . S
H254 C212 0.930 . S
H255 C213 0.930 . S
H256 C215 0.929 . S
H257 C216 0.930 . S
H258 C217 0.930 . S
H259 C218 0.930 . S
H260 C222 0.929 . S
H261 C224 0.930 . S
H262 C230 0.929 . S
H263 C231 0.930 . S
Li264 N281 1.990 . S
Li264 O324 1.956 . S
Li264 O325 1.970 . S
Li264 O326 1.961 . S
Li265 N289 1.990 . S
Li265 O324 1.970 . S
Li265 O325 1.956 . S
Li265 O327 1.961 . S
Li266 N311 1.990 . S
Li266 O324 1.961 . S
Li266 O326 1.956 . S
Li266 O327 1.970 . S
Li267 N317 1.990 . S
Li267 O325 1.961 . S
Li267 O326 1.970 . S
Li267 O327 1.956 . S
C268 C270 1.348 . S
C268 C271 1.356 . S
C268 O324 1.325 . S
N269 C272 1.314 . S
N269 C273 1.279 . S
C270 C268 1.348 . S
C270 C272 1.353 . S
C270 H328 0.929 . S
C271 C268 1.356 . S
C271 C273 1.358 . S
C271 H329 0.930 . S
C272 N269 1.314 . S
C272 C270 1.353 . S
C272 H330 0.930 . S
C273 N269 1.279 . S
C273 C271 1.358 . S
C273 H331 0.930 . S
C274 C277 1.348 . S
C274 C278 1.356 . S
C274 O325 1.325 . S
C275 N276 1.279 . S
C275 C278 1.358 . S
C275 H332 0.930 . S
N276 C275 1.279 . S
N276 C279 1.314 . S
C277 C274 1.348 . S
C277 C279 1.353 . S
C277 H333 0.929 . S
C278 C274 1.356 . S
C278 C275 1.358 . S
C278 H334 0.930 . S
C279 N276 1.314 . S
C279 C277 1.353 . S
C279 H335 0.930 . S
C280 N281 1.314 . S
C280 C285 1.353 . S
C280 H286 0.930 . S
N281 Li264 1.990 . S
N281 C280 1.314 . S
N281 C283 1.279 . S
C282 C283 1.358 . S
C282 C284 1.356 . S
C282 H336 0.930 . S
C283 N281 1.279 . S
C283 C282 1.358 . S
C283 H287 0.930 . S
C284 C282 1.356 . S
C284 C285 1.348 . S
C285 C280 1.353 . S
C285 C284 1.348 . S
C285 H337 0.929 . S
H286 C280 0.930 . S
H287 C283 0.930 . S
C288 N289 1.314 . S
C288 C290 1.353 . S
C288 H294 0.930 . S
N289 Li265 1.990 . S
N289 C288 1.314 . S
N289 C292 1.279 . S
C290 C288 1.353 . S
C290 C293 1.348 . S
C290 H338 0.929 . S
C291 C292 1.358 . S
C291 C293 1.356 . S
C291 H339 0.930 . S
C292 N289 1.279 . S
C292 C291 1.358 . S
C292 H295 0.930 . S
C293 C290 1.348 . S
C293 C291 1.356 . S
H294 C288 0.930 . S
H295 C292 0.930 . S
C296 C298 1.348 . S
C296 C299 1.356 . S
C296 O326 1.325 . S
N297 C300 1.314 . S
N297 C301 1.279 . S
C298 C296 1.348 . S
C298 C300 1.353 . S
C298 H340 0.929 . S
C299 C296 1.356 . S
C299 C301 1.358 . S
C299 H341 0.930 . S
C300 N297 1.314 . S
C300 C298 1.353 . S
C300 H342 0.930 . S
C301 N297 1.279 . S
C301 C299 1.358 . S
C301 H343 0.930 . S
C302 C303 1.348 . S
C302 C304 1.356 . S
C302 O327 1.325 . S
C303 C302 1.348 . S
C303 C305 1.353 . S
C303 H344 0.929 . S
C304 C302 1.356 . S
C304 C306 1.358 . S
C304 H345 0.930 . S
C305 C303 1.353 . S
C305 N307 1.314 . S
C305 H346 0.930 . S
C306 C304 1.358 . S
C306 N307 1.279 . S
C306 H347 0.930 . S
N307 C305 1.314 . S
N307 C306 1.279 . S
C308 C310 1.353 . S
C308 N311 1.314 . S
C308 H314 0.930 . S
C309 N311 1.279 . S
C309 C312 1.358 . S
C309 H315 0.930 . S
C310 C308 1.353 . S
C310 C313 1.348 . S
C310 H348 0.929 . S
N311 Li266 1.990 . S
N311 C308 1.314 . S
N311 C309 1.279 . S
C312 C309 1.358 . S
C312 C313 1.356 . S
C312 H349 0.930 . S
C313 C310 1.348 . S
C313 C312 1.356 . S
H314 C308 0.930 . S
H315 C309 0.930 . S
C316 N317 1.314 . S
C316 C318 1.353 . S
C316 H322 0.930 . S
N317 Li267 1.990 . S
N317 C316 1.314 . S
N317 C320 1.279 . S
C318 C316 1.353 . S
C318 C321 1.348 . S
C318 H350 0.929 . S
C319 C320 1.358 . S
C319 C321 1.356 . S
C319 H351 0.930 . S
C320 N317 1.279 . S
C320 C319 1.358 . S
C320 H323 0.930 . S
C321 C318 1.348 . S
C321 C319 1.356 . S
H322 C316 0.930 . S
H323 C320 0.930 . S
O324 Li264 1.956 . S
O324 Li265 1.970 . S
O324 Li266 1.961 . S
O324 C268 1.325 . S
O325 Li264 1.970 . S
O325 Li265 1.956 . S
O325 Li267 1.961 . S
O325 C274 1.325 . S
O326 Li264 1.961 . S
O326 Li266 1.956 . S
O326 Li267 1.970 . S
O326 C296 1.325 . S
O327 Li265 1.961 . S
O327 Li266 1.970 . S
O327 Li267 1.956 . S
O327 C302 1.325 . S
H328 C270 0.929 . S
H329 C271 0.930 . S
H330 C272 0.930 . S
H331 C273 0.930 . S
H332 C275 0.930 . S
H333 C277 0.929 . S
H334 C278 0.930 . S
H335 C279 0.930 . S
H336 C282 0.930 . S
H337 C285 0.929 . S
H338 C290 0.929 . S
H339 C291 0.930 . S
H340 C298 0.929 . S
H341 C299 0.930 . S
H342 C300 0.930 . S
H343 C301 0.930 . S
H344 C303 0.929 . S
H345 C304 0.930 . S
H346 C305 0.930 . S
H347 C306 0.930 . S
H348 C310 0.929 . S
H349 C312 0.930 . S
H350 C318 0.929 . S
H351 C319 0.930 . S
Li352 N369 1.990 . S
Li352 O412 1.956 . S
Li352 O413 1.970 . S
Li352 O414 1.961 . S
Li353 N377 1.990 . S
Li353 O412 1.970 . S
Li353 O413 1.956 . S
Li353 O415 1.961 . S
Li354 N399 1.990 . S
Li354 O412 1.961 . S
Li354 O414 1.956 . S
Li354 O415 1.970 . S
Li355 N405 1.990 . S
Li355 O413 1.961 . S
Li355 O414 1.970 . S
Li355 O415 1.956 . S
C356 C358 1.348 . S
C356 C359 1.356 . S
C356 O412 1.325 . S
N357 C360 1.314 . S
N357 C361 1.279 . S
C358 C356 1.348 . S
C358 C360 1.353 . S
C358 H416 0.929 . S
C359 C356 1.356 . S
C359 C361 1.358 . S
C359 H417 0.930 . S
C360 N357 1.314 . S
C360 C358 1.353 . S
C360 H418 0.930 . S
C361 N357 1.279 . S
C361 C359 1.358 . S
C361 H419 0.930 . S
C362 C365 1.348 . S
C362 C366 1.356 . S
C362 O413 1.325 . S
C363 N364 1.279 . S
C363 C366 1.358 . S
C363 H420 0.930 . S
N364 C363 1.279 . S
N364 C367 1.314 . S
C365 C362 1.348 . S
C365 C367 1.353 . S
C365 H421 0.929 . S
C366 C362 1.356 . S
C366 C363 1.358 . S
C366 H422 0.930 . S
C367 N364 1.314 . S
C367 C365 1.353 . S
C367 H423 0.930 . S
C368 N369 1.314 . S
C368 C373 1.353 . S
C368 H374 0.930 . S
N369 Li352 1.990 . S
N369 C368 1.314 . S
N369 C371 1.279 . S
C370 C371 1.358 . S
C370 C372 1.356 . S
C370 H424 0.930 . S
C371 N369 1.279 . S
C371 C370 1.358 . S
C371 H375 0.930 . S
C372 C370 1.356 . S
C372 C373 1.348 . S
C373 C368 1.353 . S
C373 C372 1.348 . S
C373 H425 0.929 . S
H374 C368 0.930 . S
H375 C371 0.930 . S
C376 N377 1.314 . S
C376 C378 1.353 . S
C376 H382 0.930 . S
N377 Li353 1.990 . S
N377 C376 1.314 . S
N377 C380 1.279 . S
C378 C376 1.353 . S
C378 C381 1.348 . S
C378 H426 0.929 . S
C379 C380 1.358 . S
C379 C381 1.356 . S
C379 H427 0.930 . S
C380 N377 1.279 . S
C380 C379 1.358 . S
C380 H383 0.930 . S
C381 C378 1.348 . S
C381 C379 1.356 . S
H382 C376 0.930 . S
H383 C380 0.930 . S
C384 C386 1.348 . S
C384 C387 1.356 . S
C384 O414 1.325 . S
N385 C388 1.314 . S
N385 C389 1.279 . S
C386 C384 1.348 . S
C386 C388 1.353 . S
C386 H428 0.929 . S
C387 C384 1.356 . S
C387 C389 1.358 . S
C387 H429 0.930 . S
C388 N385 1.314 . S
C388 C386 1.353 . S
C388 H430 0.930 . S
C389 N385 1.279 . S
C389 C387 1.358 . S
C389 H431 0.930 . S
C390 C391 1.348 . S
C390 C392 1.356 . S
C390 O415 1.325 . S
C391 C390 1.348 . S
C391 C393 1.353 . S
C391 H432 0.929 . S
C392 C390 1.356 . S
C392 C394 1.358 . S
C392 H433 0.930 . S
C393 C391 1.353 . S
C393 N395 1.314 . S
C393 H434 0.930 . S
C394 C392 1.358 . S
C394 N395 1.279 . S
C394 H435 0.930 . S
N395 C393 1.314 . S
N395 C394 1.279 . S
C396 C398 1.353 . S
C396 N399 1.314 . S
C396 H402 0.930 . S
C397 N399 1.279 . S
C397 C400 1.358 . S
C397 H403 0.930 . S
C398 C396 1.353 . S
C398 C401 1.348 . S
C398 H436 0.929 . S
N399 Li354 1.990 . S
N399 C396 1.314 . S
N399 C397 1.279 . S
C400 C397 1.358 . S
C400 C401 1.356 . S
C400 H437 0.930 . S
C401 C398 1.348 . S
C401 C400 1.356 . S
H402 C396 0.930 . S
H403 C397 0.930 . S
C404 N405 1.314 . S
C404 C406 1.353 . S
C404 H410 0.930 . S
N405 Li355 1.990 . S
N405 C404 1.314 . S
N405 C408 1.279 . S
C406 C404 1.353 . S
C406 C409 1.348 . S
C406 H438 0.929 . S
C407 C408 1.358 . S
C407 C409 1.356 . S
C407 H439 0.930 . S
C408 N405 1.279 . S
C408 C407 1.358 . S
C408 H411 0.930 . S
C409 C406 1.348 . S
C409 C407 1.356 . S
H410 C404 0.930 . S
H411 C408 0.930 . S
O412 Li352 1.956 . S
O412 Li353 1.970 . S
O412 Li354 1.961 . S
O412 C356 1.325 . S
O413 Li352 1.970 . S
O413 Li353 1.956 . S
O413 Li355 1.961 . S
O413 C362 1.325 . S
O414 Li352 1.961 . S
O414 Li354 1.956 . S
O414 Li355 1.970 . S
O414 C384 1.325 . S
O415 Li353 1.961 . S
O415 Li354 1.970 . S
O415 Li355 1.956 . S
O415 C390 1.325 . S
H416 C358 0.929 . S
H417 C359 0.930 . S
H418 C360 0.930 . S
H419 C361 0.930 . S
H420 C363 0.930 . S
H421 C365 0.929 . S
H422 C366 0.930 . S
H423 C367 0.930 . S
H424 C370 0.930 . S
H425 C373 0.929 . S
H426 C378 0.929 . S
H427 C379 0.930 . S
H428 C386 0.929 . S
H429 C387 0.930 . S
H430 C388 0.930 . S
H431 C389 0.930 . S
H432 C391 0.929 . S
H433 C392 0.930 . S
H434 C393 0.930 . S
H435 C394 0.930 . S
H436 C398 0.929 . S
H437 C400 0.930 . S
H438 C406 0.929 . S
H439 C407 0.930 . S
Li440 N457 1.990 . S
Li440 O500 1.956 . S
Li440 O501 1.970 . S
Li440 O502 1.961 . S
Li441 N465 1.990 . S
Li441 O500 1.970 . S
Li441 O501 1.956 . S
Li441 O503 1.961 . S
Li442 N487 1.990 . S
Li442 O500 1.961 . S
Li442 O502 1.956 . S
Li442 O503 1.970 . S
Li443 N493 1.990 . S
Li443 O501 1.961 . S
Li443 O502 1.970 . S
Li443 O503 1.956 . S
C444 C446 1.348 . S
C444 C447 1.356 . S
C444 O500 1.325 . S
N445 C448 1.314 . S
N445 C449 1.279 . S
C446 C444 1.348 . S
C446 C448 1.353 . S
C446 H504 0.929 . S
C447 C444 1.356 . S
C447 C449 1.358 . S
C447 H505 0.930 . S
C448 N445 1.314 . S
C448 C446 1.353 . S
C448 H506 0.930 . S
C449 N445 1.279 . S
C449 C447 1.358 . S
C449 H507 0.930 . S
C450 C453 1.348 . S
C450 C454 1.356 . S
C450 O501 1.325 . S
C451 N452 1.279 . S
C451 C454 1.358 . S
C451 H508 0.930 . S
N452 C451 1.279 . S
N452 C455 1.314 . S
C453 C450 1.348 . S
C453 C455 1.353 . S
C453 H509 0.929 . S
C454 C450 1.356 . S
C454 C451 1.358 . S
C454 H510 0.930 . S
C455 N452 1.314 . S
C455 C453 1.353 . S
C455 H511 0.930 . S
C456 N457 1.314 . S
C456 C461 1.353 . S
C456 H462 0.930 . S
N457 Li440 1.990 . S
N457 C456 1.314 . S
N457 C459 1.279 . S
C458 C459 1.358 . S
C458 C460 1.356 . S
C458 H512 0.930 . S
C459 N457 1.279 . S
C459 C458 1.358 . S
C459 H463 0.930 . S
C460 C458 1.356 . S
C460 C461 1.348 . S
C461 C456 1.353 . S
C461 C460 1.348 . S
C461 H513 0.929 . S
H462 C456 0.930 . S
H463 C459 0.930 . S
C464 N465 1.314 . S
C464 C466 1.353 . S
C464 H470 0.930 . S
N465 Li441 1.990 . S
N465 C464 1.314 . S
N465 C468 1.279 . S
C466 C464 1.353 . S
C466 C469 1.348 . S
C466 H514 0.929 . S
C467 C468 1.358 . S
C467 C469 1.356 . S
C467 H515 0.930 . S
C468 N465 1.279 . S
C468 C467 1.358 . S
C468 H471 0.930 . S
C469 C466 1.348 . S
C469 C467 1.356 . S
H470 C464 0.930 . S
H471 C468 0.930 . S
C472 C474 1.348 . S
C472 C475 1.356 . S
C472 O502 1.325 . S
N473 C476 1.314 . S
N473 C477 1.279 . S
C474 C472 1.348 . S
C474 C476 1.353 . S
C474 H516 0.929 . S
C475 C472 1.356 . S
C475 C477 1.358 . S
C475 H517 0.930 . S
C476 N473 1.314 . S
C476 C474 1.353 . S
C476 H518 0.930 . S
C477 N473 1.279 . S
C477 C475 1.358 . S
C477 H519 0.930 . S
C478 C479 1.348 . S
C478 C480 1.356 . S
C478 O503 1.325 . S
C479 C478 1.348 . S
C479 C481 1.353 1_545 S
C479 H520 0.929 . S
C480 C478 1.356 . S
C480 C482 1.358 1_545 S
C480 H521 0.930 . S
C481 C479 1.353 1_565 S
C481 N483 1.314 . S
C481 H522 0.930 . S
C482 C480 1.358 1_565 S
C482 N483 1.279 . S
C482 H523 0.930 . S
N483 C481 1.314 . S
N483 C482 1.279 . S
C484 C486 1.353 . S
C484 N487 1.314 . S
C484 H490 0.930 . S
C485 N487 1.279 . S
C485 C488 1.358 . S
C485 H491 0.930 . S
C486 C484 1.353 . S
C486 C489 1.348 . S
C486 H524 0.929 . S
N487 Li442 1.990 . S
N487 C484 1.314 . S
N487 C485 1.279 . S
C488 C485 1.358 . S
C488 C489 1.356 . S
C488 H525 0.930 . S
C489 C486 1.348 . S
C489 C488 1.356 . S
H490 C484 0.930 . S
H491 C485 0.930 . S
C492 N493 1.314 . S
C492 C494 1.353 . S
C492 H498 0.930 . S
N493 Li443 1.990 . S
N493 C492 1.314 . S
N493 C496 1.279 1_545 S
C494 C492 1.353 . S
C494 C497 1.348 1_545 S
C494 H526 0.929 . S
C495 C496 1.358 . S
C495 C497 1.356 . S
C495 H527 0.930 . S
C496 N493 1.279 1_565 S
C496 C495 1.358 . S
C496 H499 0.930 . S
C497 C494 1.348 1_565 S
C497 C495 1.356 . S
H498 C492 0.930 . S
H499 C496 0.930 . S
O500 Li440 1.956 . S
O500 Li441 1.970 . S
O500 Li442 1.961 . S
O500 C444 1.325 . S
O501 Li440 1.970 . S
O501 Li441 1.956 . S
O501 Li443 1.961 . S
O501 C450 1.325 . S
O502 Li440 1.961 . S
O502 Li442 1.956 . S
O502 Li443 1.970 . S
O502 C472 1.325 . S
O503 Li441 1.961 . S
O503 Li442 1.970 . S
O503 Li443 1.956 . S
O503 C478 1.325 . S
H504 C446 0.929 . S
H505 C447 0.930 . S
H506 C448 0.930 . S
H507 C449 0.930 . S
H508 C451 0.930 . S
H509 C453 0.929 . S
H510 C454 0.930 . S
H511 C455 0.930 . S
H512 C458 0.930 . S
H513 C461 0.929 . S
H514 C466 0.929 . S
H515 C467 0.930 . S
H516 C474 0.929 . S
H517 C475 0.930 . S
H518 C476 0.930 . S
H519 C477 0.930 . S
H520 C479 0.929 . S
H521 C480 0.930 . S
H522 C481 0.930 . S
H523 C482 0.930 . S
H524 C486 0.929 . S
H525 C488 0.930 . S
H526 C494 0.929 . S
H527 C495 0.930 . S
Li528 N545 1.990 . S
Li528 O588 1.956 . S
Li528 O589 1.970 . S
Li528 O590 1.961 . S
Li529 N553 1.990 . S
Li529 O588 1.970 . S
Li529 O589 1.956 . S
Li529 O591 1.961 . S
Li530 N575 1.990 . S
Li530 O588 1.961 . S
Li530 O590 1.956 . S
Li530 O591 1.970 . S
Li531 N581 1.990 . S
Li531 O589 1.961 . S
Li531 O590 1.970 . S
Li531 O591 1.956 . S
C532 C534 1.348 . S
C532 C535 1.356 . S
C532 O588 1.325 . S
N533 C536 1.314 . S
N533 C537 1.279 . S
C534 C532 1.348 . S
C534 C536 1.353 . S
C534 H592 0.929 . S
C535 C532 1.356 . S
C535 C537 1.358 . S
C535 H593 0.930 . S
C536 N533 1.314 . S
C536 C534 1.353 . S
C536 H594 0.930 . S
C537 N533 1.279 . S
C537 C535 1.358 . S
C537 H595 0.930 . S
C538 C541 1.348 . S
C538 C542 1.356 . S
C538 O589 1.325 . S
C539 N540 1.279 . S
C539 C542 1.358 . S
C539 H596 0.930 . S
N540 C539 1.279 . S
N540 C543 1.314 . S
C541 C538 1.348 . S
C541 C543 1.353 . S
C541 H597 0.929 . S
C542 C538 1.356 . S
C542 C539 1.358 . S
C542 H598 0.930 . S
C543 N540 1.314 . S
C543 C541 1.353 . S
C543 H599 0.930 . S
C544 N545 1.314 . S
C544 C549 1.353 . S
C544 H550 0.930 . S
N545 Li528 1.990 . S
N545 C544 1.314 . S
N545 C547 1.279 . S
C546 C547 1.358 . S
C546 C548 1.356 . S
C546 H600 0.930 . S
C547 N545 1.279 . S
C547 C546 1.358 . S
C547 H551 0.930 . S
C548 C546 1.356 . S
C548 C549 1.348 . S
C549 C544 1.353 . S
C549 C548 1.348 . S
C549 H601 0.929 . S
H550 C544 0.930 . S
H551 C547 0.930 . S
C552 N553 1.314 . S
C552 C554 1.353 . S
C552 H558 0.930 . S
N553 Li529 1.990 . S
N553 C552 1.314 . S
N553 C556 1.279 . S
C554 C552 1.353 . S
C554 C557 1.348 . S
C554 H602 0.929 . S
C555 C556 1.358 . S
C555 C557 1.356 . S
C555 H603 0.930 . S
C556 N553 1.279 . S
C556 C555 1.358 . S
C556 H559 0.930 . S
C557 C554 1.348 . S
C557 C555 1.356 . S
H558 C552 0.930 . S
H559 C556 0.930 . S
C560 C562 1.348 . S
C560 C563 1.356 . S
C560 O590 1.325 . S
N561 C564 1.314 . S
N561 C565 1.279 . S
C562 C560 1.348 . S
C562 C564 1.353 . S
C562 H604 0.929 . S
C563 C560 1.356 . S
C563 C565 1.358 . S
C563 H605 0.930 . S
C564 N561 1.314 . S
C564 C562 1.353 . S
C564 H606 0.930 . S
C565 N561 1.279 . S
C565 C563 1.358 . S
C565 H607 0.930 . S
C566 C567 1.348 . S
C566 C568 1.356 . S
C566 O591 1.325 . S
C567 C566 1.348 . S
C567 C569 1.353 . S
C567 H608 0.929 . S
C568 C566 1.356 . S
C568 C570 1.358 . S
C568 H609 0.930 . S
C569 C567 1.353 . S
C569 N571 1.314 . S
C569 H610 0.930 . S
C570 C568 1.358 . S
C570 N571 1.279 . S
C570 H611 0.930 . S
N571 C569 1.314 . S
N571 C570 1.279 . S
C572 C574 1.353 . S
C572 N575 1.314 . S
C572 H578 0.930 . S
C573 N575 1.279 . S
C573 C576 1.358 . S
C573 H579 0.930 . S
C574 C572 1.353 . S
C574 C577 1.348 . S
C574 H612 0.929 . S
N575 Li530 1.990 . S
N575 C572 1.314 . S
N575 C573 1.279 . S
C576 C573 1.358 . S
C576 C577 1.356 . S
C576 H613 0.930 . S
C577 C574 1.348 . S
C577 C576 1.356 . S
H578 C572 0.930 . S
H579 C573 0.930 . S
C580 N581 1.314 . S
C580 C582 1.353 . S
C580 H586 0.930 . S
N581 Li531 1.990 . S
N581 C580 1.314 . S
N581 C584 1.279 . S
C582 C580 1.353 . S
C582 C585 1.348 . S
C582 H614 0.929 . S
C583 C584 1.358 . S
C583 C585 1.356 . S
C583 H615 0.930 . S
C584 N581 1.279 . S
C584 C583 1.358 . S
C584 H587 0.930 . S
C585 C582 1.348 . S
C585 C583 1.356 . S
H586 C580 0.930 . S
H587 C584 0.930 . S
O588 Li528 1.956 . S
O588 Li529 1.970 . S
O588 Li530 1.961 . S
O588 C532 1.325 . S
O589 Li528 1.970 . S
O589 Li529 1.956 . S
O589 Li531 1.961 . S
O589 C538 1.325 . S
O590 Li528 1.961 . S
O590 Li530 1.956 . S
O590 Li531 1.970 . S
O590 C560 1.325 . S
O591 Li529 1.961 . S
O591 Li530 1.970 . S
O591 Li531 1.956 . S
O591 C566 1.325 . S
H592 C534 0.929 . S
H593 C535 0.930 . S
H594 C536 0.930 . S
H595 C537 0.930 . S
H596 C539 0.930 . S
H597 C541 0.929 . S
H598 C542 0.930 . S
H599 C543 0.930 . S
H600 C546 0.930 . S
H601 C549 0.929 . S
H602 C554 0.929 . S
H603 C555 0.930 . S
H604 C562 0.929 . S
H605 C563 0.930 . S
H606 C564 0.930 . S
H607 C565 0.930 . S
H608 C567 0.929 . S
H609 C568 0.930 . S
H610 C569 0.930 . S
H611 C570 0.930 . S
H612 C574 0.929 . S
H613 C576 0.930 . S
H614 C582 0.929 . S
H615 C583 0.930 . S
Li616 N633 1.990 . S
Li616 O676 1.956 . S
Li616 O677 1.970 . S
Li616 O678 1.961 . S
Li617 N641 1.990 . S
Li617 O676 1.970 . S
Li617 O677 1.956 . S
Li617 O679 1.961 . S
Li618 N663 1.990 . S
Li618 O676 1.961 . S
Li618 O678 1.956 . S
Li618 O679 1.970 . S
Li619 N669 1.990 . S
Li619 O677 1.961 . S
Li619 O678 1.970 . S
Li619 O679 1.956 . S
C620 C622 1.348 . S
C620 C623 1.356 . S
C620 O676 1.325 . S
N621 C624 1.314 . S
N621 C625 1.279 . S
C622 C620 1.348 . S
C622 C624 1.353 1_565 S
C622 H680 0.929 . S
C623 C620 1.356 . S
C623 C625 1.358 1_565 S
C623 H681 0.930 . S
C624 N621 1.314 . S
C624 C622 1.353 1_545 S
C624 H682 0.930 . S
C625 N621 1.279 . S
C625 C623 1.358 1_545 S
C625 H683 0.930 . S
C626 C629 1.348 . S
C626 C630 1.356 . S
C626 O677 1.325 . S
C627 N628 1.279 . S
C627 C630 1.358 . S
C627 H684 0.930 . S
N628 C627 1.279 . S
N628 C631 1.314 . S
C629 C626 1.348 . S
C629 C631 1.353 . S
C629 H685 0.929 . S
C630 C626 1.356 . S
C630 C627 1.358 . S
C630 H686 0.930 . S
C631 N628 1.314 . S
C631 C629 1.353 . S
C631 H687 0.930 . S
C632 N633 1.314 . S
C632 C637 1.353 . S
C632 H638 0.930 . S
N633 Li616 1.990 . S
N633 C632 1.314 . S
N633 C635 1.279 1_565 S
C634 C635 1.358 . S
C634 C636 1.356 . S
C634 H688 0.930 . S
C635 N633 1.279 1_545 S
C635 C634 1.358 . S
C635 H639 0.930 . S
C636 C634 1.356 . S
C636 C637 1.348 1_545 S
C637 C632 1.353 . S
C637 C636 1.348 1_565 S
C637 H689 0.929 . S
H638 C632 0.930 . S
H639 C635 0.930 . S
C640 N641 1.314 . S
C640 C642 1.353 . S
C640 H646 0.930 . S
N641 Li617 1.990 . S
N641 C640 1.314 . S
N641 C644 1.279 . S
C642 C640 1.353 . S
C642 C645 1.348 . S
C642 H690 0.929 . S
C643 C644 1.358 . S
C643 C645 1.356 . S
C643 H691 0.930 . S
C644 N641 1.279 . S
C644 C643 1.358 . S
C644 H647 0.930 . S
C645 C642 1.348 . S
C645 C643 1.356 . S
H646 C640 0.930 . S
H647 C644 0.930 . S
C648 C650 1.348 . S
C648 C651 1.356 . S
C648 O678 1.325 . S
N649 C652 1.314 . S
N649 C653 1.279 . S
C650 C648 1.348 . S
C650 C652 1.353 . S
C650 H692 0.929 . S
C651 C648 1.356 . S
C651 C653 1.358 . S
C651 H693 0.930 . S
C652 N649 1.314 . S
C652 C650 1.353 . S
C652 H694 0.930 . S
C653 N649 1.279 . S
C653 C651 1.358 . S
C653 H695 0.930 . S
C654 C655 1.348 . S
C654 C656 1.356 . S
C654 O679 1.325 . S
C655 C654 1.348 . S
C655 C657 1.353 . S
C655 H696 0.929 . S
C656 C654 1.356 . S
C656 C658 1.358 . S
C656 H697 0.930 . S
C657 C655 1.353 . S
C657 N659 1.314 . S
C657 H698 0.930 . S
C658 C656 1.358 . S
C658 N659 1.279 . S
C658 H699 0.930 . S
N659 C657 1.314 . S
N659 C658 1.279 . S
C660 C662 1.353 . S
C660 N663 1.314 . S
C660 H666 0.930 . S
C661 N663 1.279 . S
C661 C664 1.358 . S
C661 H667 0.930 . S
C662 C660 1.353 . S
C662 C665 1.348 . S
C662 H700 0.929 . S
N663 Li618 1.990 . S
N663 C660 1.314 . S
N663 C661 1.279 . S
C664 C661 1.358 . S
C664 C665 1.356 . S
C664 H701 0.930 . S
C665 C662 1.348 . S
C665 C664 1.356 . S
H666 C660 0.930 . S
H667 C661 0.930 . S
C668 N669 1.314 . S
C668 C670 1.353 . S
C668 H674 0.930 . S
N669 Li619 1.990 . S
N669 C668 1.314 . S
N669 C672 1.279 . S
C670 C668 1.353 . S
C670 C673 1.348 . S
C670 H702 0.929 . S
C671 C672 1.358 . S
C671 C673 1.356 . S
C671 H703 0.930 . S
C672 N669 1.279 . S
C672 C671 1.358 . S
C672 H675 0.930 . S
C673 C670 1.348 . S
C673 C671 1.356 . S
H674 C668 0.930 . S
H675 C672 0.930 . S
O676 Li616 1.956 . S
O676 Li617 1.970 . S
O676 Li618 1.961 . S
O676 C620 1.325 . S
O677 Li616 1.970 . S
O677 Li617 1.956 . S
O677 Li619 1.961 . S
O677 C626 1.325 . S
O678 Li616 1.961 . S
O678 Li618 1.956 . S
O678 Li619 1.970 . S
O678 C648 1.325 . S
O679 Li617 1.961 . S
O679 Li618 1.970 . S
O679 Li619 1.956 . S
O679 C654 1.325 . S
H680 C622 0.929 . S
H681 C623 0.930 . S
H682 C624 0.930 . S
H683 C625 0.930 . S
H684 C627 0.930 . S
H685 C629 0.929 . S
H686 C630 0.930 . S
H687 C631 0.930 . S
H688 C634 0.930 . S
H689 C637 0.929 . S
H690 C642 0.929 . S
H691 C643 0.930 . S
H692 C650 0.929 . S
H693 C651 0.930 . S
H694 C652 0.930 . S
H695 C653 0.930 . S
H696 C655 0.929 . S
H697 C656 0.930 . S
H698 C657 0.930 . S
H699 C658 0.930 . S
H700 C662 0.929 . S
H701 C664 0.930 . S
H702 C670 0.929 . S
H703 C671 0.930 . S
H704 C710 0.930 . S
H705 C713 0.930 . S
H706 C714 0.930 . S
H707 C715 0.930 . S
H708 C718 0.930 . S
H709 C719 0.930 . S
C710 H704 0.930 . S
C710 C711 1.355 . S
C710 C712 1.415 . S
C711 C710 1.355 . S
C711 C713 1.419 1_545 S
C712 C710 1.415 . S
C712 C717 1.425 1_445 S
C712 C719 1.409 1_455 S
C713 H705 0.930 . S
C713 C711 1.419 1_565 S
C713 C714 1.362 . S
C714 H706 0.930 . S
C714 C713 1.362 . S
C714 C717 1.409 1_455 S
C715 H707 0.930 . S
C715 C716 1.355 . S
C715 C717 1.415 . S
C716 C715 1.355 . S
C716 C718 1.419 1_565 S
C717 C712 1.425 1_665 S
C717 C714 1.409 1_655 S
C717 C715 1.415 . S
C718 H708 0.930 . S
C718 C716 1.419 1_545 S
C718 C719 1.362 . S
C719 H709 0.930 . S
C719 C712 1.409 1_655 S
C719 C718 1.362 . S
H720 C726 0.930 . S
H721 C729 0.930 . S
H722 C730 0.930 . S
H723 C731 0.930 . S
H724 C734 0.930 . S
H725 C735 0.930 . S
C726 H720 0.930 . S
C726 C727 1.355 . S
C726 C728 1.415 . S
C727 C726 1.355 . S
C727 C729 1.419 . S
C728 C726 1.415 . S
C728 C733 1.425 . S
C728 C735 1.409 . S
C729 H721 0.930 . S
C729 C727 1.419 . S
C729 C730 1.362 . S
C730 H722 0.930 . S
C730 C729 1.362 . S
C730 C733 1.409 . S
C731 H723 0.930 . S
C731 C732 1.355 . S
C731 C733 1.415 . S
C732 C731 1.355 . S
C732 C734 1.419 . S
C733 C728 1.425 . S
C733 C730 1.409 . S
C733 C731 1.415 . S
C734 H724 0.930 . S
C734 C732 1.419 . S
C734 C735 1.362 . S
C735 H725 0.930 . S
C735 C728 1.409 . S
C735 C734 1.362 . S
H736 C742 0.930 . S
H737 C745 0.930 . S
H738 C746 0.930 . S
H739 C747 0.930 . S
H740 C750 0.930 . S
H741 C751 0.930 . S
C742 H736 0.930 . S
C742 C743 1.355 . S
C742 C744 1.415 . S
C743 C742 1.355 . S
C743 C745 1.419 . S
C744 C742 1.415 . S
C744 C749 1.425 . S
C744 C751 1.409 . S
C745 H737 0.930 . S
C745 C743 1.419 . S
C745 C746 1.362 . S
C746 H738 0.930 . S
C746 C745 1.362 . S
C746 C749 1.409 . S
C747 H739 0.930 . S
C747 C748 1.355 . S
C747 C749 1.415 . S
C748 C747 1.355 . S
C748 C750 1.419 . S
C749 C744 1.425 . S
C749 C746 1.409 . S
C749 C747 1.415 . S
C750 H740 0.930 . S
C750 C748 1.419 . S
C750 C751 1.362 . S
C751 H741 0.930 . S
C751 C744 1.409 . S
C751 C750 1.362 . S
H752 C758 0.930 . S
H753 C761 0.930 . S
H754 C762 0.930 . S
H755 C763 0.930 . S
H756 C766 0.930 . S
H757 C767 0.930 . S
C758 H752 0.930 . S
C758 C759 1.355 . S
C758 C760 1.415 . S
C759 C758 1.355 . S
C759 C761 1.419 . S
C760 C758 1.415 . S
C760 C765 1.425 1_445 S
C760 C767 1.409 1_545 S
C761 H753 0.930 . S
C761 C759 1.419 . S
C761 C762 1.362 1_455 S
C762 H754 0.930 . S
C762 C761 1.362 1_655 S
C762 C765 1.409 1_545 S
C763 H755 0.930 . S
C763 C764 1.355 . S
C763 C765 1.415 . S
C764 C763 1.355 . S
C764 C766 1.419 . S
C765 C760 1.425 1_665 S
C765 C762 1.409 1_565 S
C765 C763 1.415 . S
C766 H756 0.930 . S
C766 C764 1.419 . S
C766 C767 1.362 1_655 S
C767 H757 0.930 . S
C767 C760 1.409 1_565 S
C767 C766 1.362 1_455 S
H768 C774 0.930 . S
H769 C777 0.930 . S
H770 C778 0.930 . S
H771 C779 0.930 . S
H772 C782 0.930 . S
H773 C783 0.930 . S
C774 H768 0.930 . S
C774 C775 1.355 . S
C774 C776 1.415 . S
C775 C774 1.355 . S
C775 C777 1.419 . S
C776 C774 1.415 . S
C776 C781 1.425 . S
C776 C783 1.409 . S
C777 H769 0.930 . S
C777 C775 1.419 . S
C777 C778 1.362 . S
C778 H770 0.930 . S
C778 C777 1.362 . S
C778 C781 1.409 . S
C779 H771 0.930 . S
C779 C780 1.355 . S
C779 C781 1.415 . S
C780 C779 1.355 . S
C780 C782 1.419 . S
C781 C776 1.425 . S
C781 C778 1.409 . S
C781 C779 1.415 . S
C782 H772 0.930 . S
C782 C780 1.419 . S
C782 C783 1.362 . S
C783 H773 0.930 . S
C783 C776 1.409 . S
C783 C782 1.362 . S
H784 C790 0.930 . S
H785 C793 0.930 . S
H786 C794 0.930 . S
H787 C795 0.930 . S
H788 C798 0.930 . S
H789 C799 0.930 . S
C790 H784 0.930 . S
C790 C791 1.355 . S
C790 C792 1.422 . S
C791 C790 1.355 . S
C791 C793 1.419 . S
C792 C790 1.422 . S
C792 C797 1.424 1_556 S
C792 C799 1.402 1_556 S
C793 H785 0.930 . S
C793 C791 1.419 . S
C793 C794 1.362 . S
C794 H786 0.930 . S
C794 C793 1.362 . S
C794 C797 1.409 1_556 S
C795 H787 0.930 . S
C795 C796 1.355 . S
C795 C797 1.415 . S
C796 C795 1.355 . S
C796 C798 1.419 . S
C797 C792 1.424 1_554 S
C797 C794 1.409 1_554 S
C797 C795 1.415 . S
C798 H788 0.930 . S
C798 C796 1.419 . S
C798 C799 1.362 . S
C799 H789 0.930 . S
C799 C792 1.402 1_554 S
C799 C798 1.362 . S
H800 C806 0.930 . S
H801 C809 0.930 . S
H802 C810 0.930 . S
H803 C811 0.930 . S
H804 C814 0.930 . S
H805 C815 0.930 . S
C806 H800 0.930 . S
C806 C807 1.355 . S
C806 C808 1.415 . S
C807 C806 1.355 . S
C807 C809 1.419 . S
C808 C806 1.415 . S
C808 C813 1.425 . S
C808 C815 1.409 . S
C809 H801 0.930 . S
C809 C807 1.419 . S
C809 C810 1.362 . S
C810 H802 0.930 . S
C810 C809 1.362 . S
C810 C813 1.409 . S
C811 H803 0.930 . S
C811 C812 1.355 . S
C811 C813 1.415 . S
C812 C811 1.355 . S
C812 C814 1.419 . S
C813 C808 1.425 . S
C813 C810 1.409 . S
C813 C811 1.415 . S
C814 H804 0.930 . S
C814 C812 1.419 . S
C814 C815 1.362 . S
C815 H805 0.930 . S
C815 C808 1.409 . S
C815 C814 1.362 . S
H816 C822 0.930 . S
H817 C825 0.930 . S
H818 C826 0.930 . S
H819 C827 0.930 . S
H820 C830 0.930 . S
H821 C831 0.930 . S
C822 H816 0.930 . S
C822 C823 1.355 . S
C822 C824 1.415 . S
C823 C822 1.355 . S
C823 C825 1.419 . S
C824 C822 1.415 . S
C824 C829 1.425 1_556 S
C824 C831 1.409 . S
C825 H817 0.930 . S
C825 C823 1.419 . S
C825 C826 1.362 1_556 S
C826 H818 0.930 . S
C826 C825 1.362 1_554 S
C826 C829 1.409 . S
C827 H819 0.930 . S
C827 C828 1.355 . S
C827 C829 1.415 . S
C828 C827 1.355 . S
C828 C830 1.419 . S
C829 C824 1.425 1_554 S
C829 C826 1.409 . S
C829 C827 1.415 . S
C830 H820 0.930 . S
C830 C828 1.419 . S
C830 C831 1.362 1_554 S
C831 H821 0.930 . S
C831 C824 1.409 . S
C831 C830 1.362 1_556 S
H832 C838 0.930 . S
H833 C841 0.930 . S
H834 C842 0.930 . S
H835 C843 0.930 . S
H836 C846 0.930 . S
H837 C847 0.930 . S
C838 H832 0.930 . S
C838 C839 1.355 . S
C838 C840 1.415 . S
C839 C838 1.355 . S
C839 C841 1.419 . S
C840 C838 1.415 . S
C840 C845 1.425 . S
C840 C847 1.409 . S
C841 H833 0.930 . S
C841 C839 1.419 . S
C841 C842 1.362 . S
C842 H834 0.930 . S
C842 C841 1.362 . S
C842 C845 1.409 . S
C843 H835 0.930 . S
C843 C844 1.355 . S
C843 C845 1.415 . S
C844 C843 1.355 . S
C844 C846 1.419 . S
C845 C840 1.425 . S
C845 C842 1.409 . S
C845 C843 1.415 . S
C846 H836 0.930 . S
C846 C844 1.419 . S
C846 C847 1.362 . S
C847 H837 0.930 . S
C847 C840 1.409 . S
C847 C846 1.362 . S
H848 C854 0.930 . S
H849 C857 0.930 . S
H850 C858 0.930 . S
H851 C859 0.930 . S
H852 C862 0.930 . S
H853 C863 0.930 . S
C854 H848 0.930 . S
C854 C855 1.355 . S
C854 C856 1.415 . S
C855 C854 1.355 . S
C855 C857 1.419 . S
C856 C854 1.415 . S
C856 C861 1.425 . S
C856 C863 1.409 . S
C857 H849 0.930 . S
C857 C855 1.419 . S
C857 C858 1.362 . S
C858 H850 0.930 . S
C858 C857 1.362 . S
C858 C861 1.409 . S
C859 H851 0.930 . S
C859 C860 1.355 . S
C859 C861 1.415 . S
C860 C859 1.355 . S
C860 C862 1.419 . S
C861 C856 1.425 . S
C861 C858 1.409 . S
C861 C859 1.415 . S
C862 H852 0.930 . S
C862 C860 1.419 . S
C862 C863 1.362 . S
C863 H853 0.930 . S
C863 C856 1.409 . S
C863 C862 1.362 . S
H864 C870 0.930 . S
H865 C873 0.930 . S
H866 C874 0.930 . S
H867 C875 0.930 . S
H868 C878 0.930 . S
H869 C879 0.930 . S
C870 H864 0.930 . S
C870 C871 1.355 . S
C870 C872 1.415 . S
C871 C870 1.355 . S
C871 C873 1.419 . S
C872 C870 1.415 . S
C872 C877 1.425 . S
C872 C879 1.409 . S
C873 H865 0.930 . S
C873 C871 1.419 . S
C873 C874 1.362 . S
C874 H866 0.930 . S
C874 C873 1.362 . S
C874 C877 1.409 . S
C875 H867 0.930 . S
C875 C876 1.355 . S
C875 C877 1.415 . S
C876 C875 1.355 . S
C876 C878 1.419 . S
C877 C872 1.425 . S
C877 C874 1.409 . S
C877 C875 1.415 . S
C878 H868 0.930 . S
C878 C876 1.419 . S
C878 C879 1.362 . S
C879 H869 0.930 . S
C879 C872 1.409 . S
C879 C878 1.362 . S
H880 C886 0.930 . S
H881 C889 0.930 . S
H882 C890 0.930 . S
H883 C891 0.930 . S
H884 C894 0.930 . S
H885 C895 0.930 . S
C886 H880 0.930 . S
C886 C887 1.355 . S
C886 C888 1.415 . S
C887 C886 1.355 . S
C887 C889 1.419 . S
C888 C886 1.415 . S
C888 C893 1.425 . S
C888 C895 1.409 . S
C889 H881 0.930 . S
C889 C887 1.419 . S
C889 C890 1.362 . S
C890 H882 0.930 . S
C890 C889 1.362 . S
C890 C893 1.409 . S
C891 H883 0.930 . S
C891 C892 1.355 . S
C891 C893 1.415 . S
C892 C891 1.355 . S
C892 C894 1.419 . S
C893 C888 1.425 . S
C893 C890 1.409 . S
C893 C891 1.415 . S
C894 H884 0.930 . S
C894 C892 1.419 . S
C894 C895 1.362 . S
C895 H885 0.930 . S
C895 C888 1.409 . S
C895 C894 1.362 . S
H896 C902 0.930 . S
H897 C905 0.930 . S
H898 C906 0.930 . S
H899 C907 0.930 . S
H900 C910 0.930 . S
H901 C911 0.930 . S
C902 H896 0.930 . S
C902 C903 1.355 . S
C902 C904 1.415 . S
C903 C902 1.355 . S
C903 C905 1.419 . S
C904 C902 1.415 . S
C904 C909 1.425 . S
C904 C911 1.409 . S
C905 H897 0.930 . S
C905 C903 1.419 . S
C905 C906 1.362 . S
C906 H898 0.930 . S
C906 C905 1.362 . S
C906 C909 1.409 . S
C907 H899 0.930 . S
C907 C908 1.355 . S
C907 C909 1.415 . S
C908 C907 1.355 . S
C908 C910 1.419 . S
C909 C904 1.425 . S
C909 C906 1.409 . S
C909 C907 1.415 . S
C910 H900 0.930 . S
C910 C908 1.419 . S
C910 C911 1.362 . S
C911 H901 0.930 . S
C911 C904 1.409 . S
C911 C910 1.362 . S
H912 C918 0.930 . S
H913 C921 0.930 . S
H914 C922 0.930 . S
H915 C923 0.930 . S
H916 C926 0.930 . S
H917 C927 0.930 . S
C918 H912 0.930 . S
C918 C919 1.355 . S
C918 C920 1.415 . S
C919 C918 1.355 . S
C919 C921 1.419 . S
C920 C918 1.415 . S
C920 C925 1.425 . S
C920 C927 1.409 . S
C921 H913 0.930 . S
C921 C919 1.419 . S
C921 C922 1.362 . S
C922 H914 0.930 . S
C922 C921 1.362 . S
C922 C925 1.409 . S
C923 H915 0.930 . S
C923 C924 1.355 . S
C923 C925 1.415 . S
C924 C923 1.355 . S
C924 C926 1.419 . S
C925 C920 1.425 . S
C925 C922 1.409 . S
C925 C923 1.415 . S
C926 H916 0.930 . S
C926 C924 1.419 . S
C926 C927 1.362 . S
C927 H917 0.930 . S
C927 C920 1.409 . S
C927 C926 1.362 . S
H928 C934 0.930 . S
H929 C937 0.930 . S
H930 C938 0.930 . S
H931 C939 0.930 . S
H932 C942 0.930 . S
H933 C943 0.930 . S
C934 H928 0.930 . S
C934 C935 1.355 . S
C934 C936 1.415 . S
C935 C934 1.355 . S
C935 C937 1.419 . S
C936 C934 1.415 . S
C936 C941 1.425 . S
C936 C943 1.409 . S
C937 H929 0.930 . S
C937 C935 1.419 . S
C937 C938 1.362 . S
C938 H930 0.930 . S
C938 C937 1.362 . S
C938 C941 1.409 . S
C939 H931 0.930 . S
C939 C940 1.355 . S
C939 C941 1.415 . S
C940 C939 1.355 . S
C940 C942 1.419 . S
C941 C936 1.425 . S
C941 C938 1.409 . S
C941 C939 1.415 . S
C942 H932 0.930 . S
C942 C940 1.419 . S
C942 C943 1.362 . S
C943 H933 0.930 . S
C943 C936 1.409 . S
C943 C942 1.362 . S
H944 C950 0.930 . S
H945 C953 0.930 . S
H946 C954 0.930 . S
H947 C955 0.930 . S
H948 C958 0.930 . S
H949 C959 0.930 . S
C950 H944 0.930 . S
C950 C951 1.355 . S
C950 C952 1.415 . S
C951 C950 1.355 . S
C951 C953 1.419 . S
C952 C950 1.415 . S
C952 C957 1.425 . S
C952 C959 1.409 . S
C953 H945 0.930 . S
C953 C951 1.419 . S
C953 C954 1.362 . S
C954 H946 0.930 . S
C954 C953 1.362 . S
C954 C957 1.409 . S
C955 H947 0.930 . S
C955 C956 1.355 . S
C955 C957 1.415 . S
C956 C955 1.355 . S
C956 C958 1.419 . S
C957 C952 1.425 . S
C957 C954 1.409 . S
C957 C955 1.415 . S
C958 H948 0.930 . S
C958 C956 1.419 . S
C958 C959 1.362 . S
C959 H949 0.930 . S
C959 C952 1.409 . S
C959 C958 1.362 . S
C711 C57 0.791 . S
C716 C233 0.811 . S
C727 C137 0.677 . S
C732 C293 0.702 . S
C743 C372 0.787 . S
C748 C557 0.809 . S
C759 C489 0.767 . S
C764 C645 0.747 . S
C775 C29 2.001 . S
C780 C469 2.035 . S
C791 C117 2.015 . S
C796 C585 1.966 . S
C807 C665 2.036 . S
C812 C205 2.006 . S
C823 C313 2.028 . S
C828 C401 2.015 . S
C839 C409 1.810 . S
C844 C49 1.957 . S
C855 C108 1.924 . S
C860 C497 1.786 . S
C871 C225 1.993 . S
C876 C577 1.875 . S
C887 C321 1.923 . S
C892 C636 1.791 . S
C903 C20 1.884 . S
C908 C381 1.999 . S
C919 C460 1.914 . S
C924 C145 1.773 . S
C935 C548 2.003 . S
C940 C196 1.883 . S
C951 C284 1.861 . S
C956 C673 1.968 . S
