# Generated by pormake.
# Topology wjz, (5)-cn, num edge types: 1
# Building blocks:
#     Node 0, Type 0, BuildingBlock: XOMCOT_clean_sbu_1, # of connection points: 5
#     Node 1, Type 0, BuildingBlock: XOMCOT_clean_sbu_1, # of connection points: 5
#     Node 2, Type 0, BuildingBlock: XOMCOT_clean_sbu_1, # of connection points: 5
#     Node 3, Type 0, BuildingBlock: XOMCOT_clean_sbu_1, # of connection points: 5
#     Node 4, Type 0, BuildingBlock: XOMCOT_clean_sbu_1, # of connection points: 5
#     Node 5, Type 0, BuildingBlock: XOMCOT_clean_sbu_1, # of connection points: 5
#     Node 6, Type 0, BuildingBlock: XOMCOT_clean_sbu_1, # of connection points: 5
#     Node 7, Type 0, BuildingBlock: XOMCOT_clean_sbu_1, # of connection points: 5
#     Node 8, Type 0, BuildingBlock: XOMCOT_clean_sbu_1, # of connection points: 5
#     Node 9, Type 0, BuildingBlock: XOMCOT_clean_sbu_1, # of connection points: 5
#     Node 10, Type 0, BuildingBlock: XOMCOT_clean_sbu_1, # of connection points: 5
#     Node 11, Type 0, BuildingBlock: XOMCOT_clean_sbu_1, # of connection points: 5
#     Edge 12, Type (0, 0), BuildingBlock: UVAHIK_clean_linker_0, # of connection points: 2
#     Edge 13, Type (0, 0), BuildingBlock: UVAHIK_clean_linker_0, # of connection points: 2
#     Edge 14, Type (0, 0), BuildingBlock: UVAHIK_clean_linker_0, # of connection points: 2
#     Edge 15, Type (0, 0), BuildingBlock: UVAHIK_clean_linker_0, # of connection points: 2
#     Edge 16, Type (0, 0), BuildingBlock: UVAHIK_clean_linker_0, # of connection points: 2
#     Edge 17, Type (0, 0), BuildingBlock: UVAHIK_clean_linker_0, # of connection points: 2
#     Edge 18, Type (0, 0), BuildingBlock: UVAHIK_clean_linker_0, # of connection points: 2
#     Edge 19, Type (0, 0), BuildingBlock: UVAHIK_clean_linker_0, # of connection points: 2
#     Edge 20, Type (0, 0), BuildingBlock: UVAHIK_clean_linker_0, # of connection points: 2
#     Edge 21, Type (0, 0), BuildingBlock: UVAHIK_clean_linker_0, # of connection points: 2
#     Edge 22, Type (0, 0), BuildingBlock: UVAHIK_clean_linker_0, # of connection points: 2
#     Edge 23, Type (0, 0), BuildingBlock: UVAHIK_clean_linker_0, # of connection points: 2
#     Edge 24, Type (0, 0), BuildingBlock: UVAHIK_clean_linker_0, # of connection points: 2
#     Edge 25, Type (0, 0), BuildingBlock: UVAHIK_clean_linker_0, # of connection points: 2
#     Edge 26, Type (0, 0), BuildingBlock: UVAHIK_clean_linker_0, # of connection points: 2
#     Edge 27, Type (0, 0), BuildingBlock: UVAHIK_clean_linker_0, # of connection points: 2
#     Edge 28, Type (0, 0), BuildingBlock: UVAHIK_clean_linker_0, # of connection points: 2
#     Edge 29, Type (0, 0), BuildingBlock: UVAHIK_clean_linker_0, # of connection points: 2
#     Edge 30, Type (0, 0), BuildingBlock: UVAHIK_clean_linker_0, # of connection points: 2
#     Edge 31, Type (0, 0), BuildingBlock: UVAHIK_clean_linker_0, # of connection points: 2
#     Edge 32, Type (0, 0), BuildingBlock: UVAHIK_clean_linker_0, # of connection points: 2
#     Edge 33, Type (0, 0), BuildingBlock: UVAHIK_clean_linker_0, # of connection points: 2
#     Edge 34, Type (0, 0), BuildingBlock: UVAHIK_clean_linker_0, # of connection points: 2
#     Edge 35, Type (0, 0), BuildingBlock: UVAHIK_clean_linker_0, # of connection points: 2
#     Edge 36, Type (0, 0), BuildingBlock: UVAHIK_clean_linker_0, # of connection points: 2
#     Edge 37, Type (0, 0), BuildingBlock: UVAHIK_clean_linker_0, # of connection points: 2
#     Edge 38, Type (0, 0), BuildingBlock: UVAHIK_clean_linker_0, # of connection points: 2
#     Edge 39, Type (0, 0), BuildingBlock: UVAHIK_clean_linker_0, # of connection points: 2
#     Edge 40, Type (0, 0), BuildingBlock: UVAHIK_clean_linker_0, # of connection points: 2
#     Edge 41, Type (0, 0), BuildingBlock: UVAHIK_clean_linker_0, # of connection points: 2
# Relax obj value: 0.169
# Max RMSD: 0.189
# Mean RMSD: 0.189
data_MOF--net-wjz--node1-XOMCOT_clean_sbu_1--edge1-UVAHIK_clean_linker_0
_symmetry_space_group_name_H-M    P1
_symmetry_Int_Tables_number       1
_symmetry_cell_setting            triclinic
loop_
_symmetry_equiv_pos_as_xyz
'x, y, z'
_cell_length_a     92.621716
_cell_length_b     92.639498
_cell_length_c     21.820573
_cell_angle_alpha  90.018481
_cell_angle_beta   89.996482
_cell_angle_gamma 119.99979
loop_
_atom_site_label
_atom_site_type_symbol
_atom_site_fract_x
_atom_site_fract_y
_atom_site_fract_z
_atom_type_partial_charge
C0 C 0.30597 0.44949 0.02122 0.0
C1 C 0.30207 0.44685 0.95997 0.0
N2 N 0.31156 0.46129 0.92988 0.0
N3 N 0.3179 0.46549 0.02972 0.0
C4 C 0.32096 0.47243 0.97342 0.0
H5 H 0.30069 0.44029 0.05733 0.0
Co6 Co 0.32767 0.47437 0.10491 0.0
C7 C 0.36289 0.49714 0.07155 0.0
O8 O 0.36754 0.49002 0.11315 0.0
N9 N 0.33668 0.48336 0.18227 0.0
C10 C 0.34853 0.50167 0.25826 0.0
C11 C 0.34803 0.49935 0.1961 0.0
C12 C 0.32981 0.47656 0.23708 0.0
N13 N 0.337 0.48732 0.28408 0.0
O14 O 0.31788 0.4881 0.10536 0.0
H15 H 0.35463 0.50925 0.16341 0.0
H16 H 0.31876 0.46446 0.24204 0.0
O17 O 0.34742 0.49225 0.06401 0.0
C18 C 0.30224 0.48128 0.11325 0.0
O19 O 0.2932 0.46495 0.11517 0.0
N20 N 0.3369 0.46009 0.10495 0.0
C21 C 0.3505 0.43918 0.10577 0.0
C22 C 0.35268 0.44931 0.05509 0.0
C23 C 0.34547 0.45938 0.055 0.0
C24 C 0.33345 0.44919 0.15217 0.0
C25 C 0.34033 0.43879 0.15399 0.0
H26 H 0.34715 0.46693 0.01501 0.0
H27 H 0.32522 0.4483 0.18852 0.0
H28 H 0.33031 0.48523 0.96425 0.0
H29 H 0.293 0.43517 0.93928 0.0
H30 H 0.3563 0.51326 0.2822 0.0
H31 H 0.35993 0.44949 0.01584 0.0
H32 H 0.33798 0.43078 0.19333 0.0
C33 C 0.86322 0.31297 0.19727 0.0
C34 C 0.86361 0.3104 0.13541 0.0
N35 N 0.85595 0.31755 0.10648 0.0
N36 N 0.85558 0.32192 0.20691 0.0
C37 C 0.85108 0.32434 0.15081 0.0
H38 H 0.86839 0.30881 0.23297 0.0
Co39 Co 0.85285 0.32931 0.28228 0.0
C40 C 0.86029 0.36393 0.26081 0.0
O41 O 0.86905 0.36879 0.31171 0.0
N42 N 0.84943 0.33611 0.35942 0.0
C43 C 0.83808 0.34414 0.43246 0.0
C44 C 0.8396 0.3428 0.37045 0.0
C45 C 0.85293 0.33267 0.41583 0.0
N46 N 0.84642 0.33766 0.46072 0.0
O47 O 0.82936 0.31747 0.27215 0.0
H48 H 0.83324 0.34584 0.3356 0.0
H49 H 0.85939 0.32592 0.42456 0.0
O50 O 0.85352 0.34871 0.24373 0.0
C51 C 0.82117 0.30165 0.27214 0.0
O52 O 0.82926 0.29337 0.27362 0.0
N53 N 0.87626 0.34053 0.29224 0.0
C54 C 0.91066 0.35344 0.30091 0.0
C55 C 0.90403 0.35972 0.25775 0.0
C56 C 0.88683 0.35282 0.25308 0.0
C57 C 0.88247 0.3336 0.33187 0.0
C58 C 0.89964 0.34011 0.33808 0.0
H59 H 0.88212 0.35696 0.21591 0.0
H60 H 0.87411 0.32234 0.35617 0.0
H61 H 0.84474 0.33128 0.14245 0.0
H62 H 0.8691 0.30382 0.11337 0.0
H63 H 0.83064 0.3486 0.45502 0.0
H64 H 0.91203 0.36974 0.22702 0.0
H65 H 0.9042 0.33432 0.36981 0.0
C66 C 0.54719 0.86154 0.35692 0.0
C67 C 0.55011 0.86236 0.29489 0.0
N68 N 0.53534 0.856 0.26583 0.0
N69 N 0.5307 0.85487 0.36664 0.0
C70 C 0.52378 0.85148 0.31039 0.0
H71 H 0.55649 0.86555 0.3927 0.0
Co72 Co 0.52048 0.85137 0.44213 0.0
C73 C 0.49361 0.85961 0.42471 0.0
O74 O 0.4972 0.86746 0.47761 0.0
N75 N 0.51011 0.84724 0.51911 0.0
C76 C 0.49055 0.83518 0.59093 0.0
C77 C 0.49368 0.83673 0.52913 0.0
C78 C 0.51673 0.85145 0.5759 0.0
N79 N 0.50511 0.84446 0.62035 0.0
O80 O 0.50823 0.82808 0.42735 0.0
H81 H 0.48454 0.83025 0.49362 0.0
H82 H 0.52989 0.85868 0.58514 0.0
O83 O 0.50221 0.8532 0.40558 0.0
C84 C 0.51544 0.81948 0.427 0.0
O85 O 0.53179 0.82715 0.43001 0.0
N86 N 0.53332 0.87445 0.45704 0.0
C87 C 0.55497 0.90812 0.48066 0.0
C88 C 0.54198 0.90317 0.43832 0.0
C89 C 0.53161 0.88629 0.42571 0.0
C90 C 0.54674 0.87916 0.49444 0.0
C91 C 0.5576 0.89593 0.50777 0.0
H92 H 0.5226 0.88292 0.3894 0.0
H93 H 0.54927 0.86983 0.513 0.0
H94 H 0.51055 0.846 0.3022 0.0
H95 H 0.56212 0.86708 0.27294 0.0
H96 H 0.47852 0.82762 0.61234 0.0
H97 H 0.54014 0.91231 0.41392 0.0
H98 H 0.56788 0.89931 0.53908 0.0
C99 C 0.6835 0.55125 0.52949 0.0
C100 C 0.68591 0.55423 0.46759 0.0
N101 N 0.67757 0.53951 0.43818 0.0
N102 N 0.67355 0.53475 0.5388 0.0
C103 C 0.67028 0.52791 0.48243 0.0
H104 H 0.68856 0.5605 0.56549 0.0
Co105 Co 0.66622 0.52467 0.61421 0.0
C106 C 0.63136 0.49773 0.59477 0.0
O107 O 0.62687 0.50154 0.64671 0.0
N108 N 0.65942 0.51444 0.69133 0.0
C109 C 0.65178 0.49498 0.76357 0.0
C110 C 0.65342 0.49802 0.70177 0.0
C111 C 0.66186 0.52116 0.748 0.0
N112 N 0.65716 0.50959 0.7927 0.0
O113 O 0.67756 0.51259 0.60302 0.0
H114 H 0.65086 0.48883 0.66657 0.0
H115 H 0.66798 0.53434 0.75698 0.0
O116 O 0.64646 0.5062 0.57633 0.0
C117 C 0.69337 0.51997 0.60434 0.0
O118 O 0.7019 0.53633 0.60617 0.0
N119 N 0.65565 0.53734 0.62544 0.0
C120 C 0.64387 0.55966 0.63794 0.0
C121 C 0.63649 0.54642 0.59615 0.0
C122 C 0.64285 0.53571 0.58937 0.0
C123 C 0.66362 0.55075 0.66345 0.0
C124 C 0.65774 0.56187 0.67147 0.0
H125 H 0.63782 0.52657 0.55321 0.0
H126 H 0.6751 0.55332 0.68551 0.0
H127 H 0.66246 0.5147 0.4739 0.0
H128 H 0.69329 0.56627 0.44597 0.0
H129 H 0.64731 0.48298 0.78518 0.0
H130 H 0.62598 0.54442 0.56821 0.0
H131 H 0.66435 0.5724 0.70198 0.0
C132 C 0.14188 0.68637 0.74352 0.0
C133 C 0.1426 0.69005 0.68208 0.0
N134 N 0.14554 0.67926 0.65069 0.0
N135 N 0.14422 0.67324 0.75069 0.0
C136 C 0.14659 0.66929 0.69344 0.0
H137 H 0.13936 0.69255 0.78062 0.0
Co138 Co 0.14274 0.66289 0.82496 0.0
C139 C 0.1324 0.62812 0.78989 0.0
O140 O 0.12081 0.62249 0.83251 0.0
N141 N 0.14193 0.65304 0.90187 0.0
C142 C 0.1488 0.64129 0.97696 0.0
C143 C 0.14848 0.6432 0.9148 0.0
C144 C 0.13918 0.65758 0.95776 0.0
N145 N 0.14307 0.65046 0.00419 0.0
O146 O 0.16625 0.67326 0.82818 0.0
H147 H 0.15395 0.63868 0.8817 0.0
H148 H 0.13607 0.66722 0.96477 0.0
O149 O 0.14184 0.64383 0.78255 0.0
C150 C 0.17272 0.68609 0.86225 0.0
O151 O 0.16294 0.69096 0.88716 0.0
N152 N 0.11941 0.65349 0.82187 0.0
C153 C 0.08525 0.64204 0.819 0.0
C154 C 0.09275 0.63744 0.7731 0.0
C155 C 0.10991 0.64365 0.77451 0.0
C156 C 0.11254 0.65926 0.86353 0.0
C157 C 0.09544 0.65344 0.86381 0.0
H158 H 0.11551 0.64061 0.73699 0.0
H159 H 0.12037 0.66889 0.89538 0.0
H160 H 0.14835 0.65887 0.68287 0.0
H161 H 0.14091 0.6998 0.66209 0.0
H162 H 0.15368 0.6343 9e-05 0.0
H163 H 0.08546 0.62899 0.73665 0.0
H164 H 0.09031 0.65806 0.89812 0.0
C165 C 0.45354 0.14477 0.85749 0.0
C166 C 0.45057 0.14514 0.796 0.0
N167 N 0.46496 0.1501 0.76562 0.0
N168 N 0.46971 0.14942 0.86574 0.0
C169 C 0.4764 0.15272 0.80907 0.0
H170 H 0.44447 0.14109 0.89398 0.0
Co171 Co 0.47906 0.14972 0.9409 0.0
C172 C 0.50281 0.13811 0.91281 0.0
O173 O 0.49665 0.12746 0.95849 0.0
N174 N 0.48854 0.15074 0.01808 0.0
C175 C 0.50746 0.15883 0.09268 0.0
C176 C 0.50498 0.15749 0.03051 0.0
C177 C 0.48148 0.14902 0.0738 0.0
N178 N 0.49263 0.1535 0.11991 0.0
O179 O 0.49251 0.17324 0.93753 0.0
H180 H 0.51483 0.16222 -0.00327 0.0
H181 H 0.46877 0.14606 0.08066 0.0
O182 O 0.49697 0.14773 0.90082 0.0
C183 C 0.48562 0.18207 0.94285 0.0
O184 O 0.46928 0.17475 0.94353 0.0
N185 N 0.46503 0.12629 0.94473 0.0
C186 C 0.44375 0.09197 0.9523 0.0
C187 C 0.45501 0.09887 0.90366 0.0
C188 C 0.46517 0.11609 0.89966 0.0
C189 C 0.45291 0.11986 0.98852 0.0
C190 C 0.44231 0.10268 0.99393 0.0
H191 H 0.4732 0.12118 0.86022 0.0
H192 H 0.45104 0.12801 0.01845 0.0
H193 H 0.48926 0.15642 0.79966 0.0
H194 H 0.43871 0.14193 0.77532 0.0
H195 H 0.51936 0.1639 0.11577 0.0
H196 H 0.45587 0.09101 0.86872 0.0
H197 H 0.43323 0.09783 0.03067 0.0
C198 C 0.54437 0.69132 0.80679 0.0
C199 C 0.54728 0.69488 0.86817 0.0
N200 N 0.53301 0.68511 0.89876 0.0
N201 N 0.52837 0.67933 0.79876 0.0
C202 C 0.5217 0.67588 0.85548 0.0
H203 H 0.5534 0.69686 0.77022 0.0
Co204 Co 0.51926 0.66988 0.72368 0.0
C205 C 0.49633 0.63447 0.75407 0.0
O206 O 0.50297 0.62998 0.71006 0.0
N207 N 0.51004 0.66107 0.64647 0.0
C208 C 0.49146 0.64947 0.57112 0.0
C209 C 0.4938 0.65045 0.63336 0.0
C210 C 0.51703 0.6671 0.59113 0.0
N211 N 0.50612 0.65999 0.54455 0.0
O212 O 0.50534 0.67947 0.7256 0.0
H213 H 0.48389 0.6446 0.66664 0.0
H214 H 0.52941 0.6776 0.58506 0.0
O215 O 0.50161 0.64993 0.76417 0.0
C216 C 0.51199 0.69513 0.71891 0.0
O217 O 0.52832 0.70433 0.71715 0.0
N218 N 0.53375 0.66098 0.72129 0.0
C219 C 0.55588 0.64886 0.71633 0.0
C220 C 0.54477 0.64473 0.76539 0.0
C221 C 0.53415 0.6513 0.76792 0.0
C222 C 0.54561 0.66637 0.67654 0.0
C223 C 0.55661 0.66024 0.67248 0.0
H224 H 0.52617 0.6485 0.80745 0.0
H225 H 0.54694 0.67578 0.6446 0.0
H226 H 0.50897 0.66637 0.86508 0.0
H227 H 0.55902 0.7039 0.88863 0.0
H228 H 0.47973 0.64204 0.54756 0.0
H229 H 0.54438 0.63658 0.80175 0.0
H230 H 0.56543 0.6642 0.63497 0.0
C231 C 0.86056 0.54359 0.95163 0.0
C232 C 0.86144 0.54658 0.0136 0.0
N233 N 0.85401 0.53179 0.04276 0.0
N234 N 0.85277 0.527 0.94201 0.0
C235 C 0.84876 0.52013 -0.00171 0.0
H236 H 0.86539 0.55289 0.91581 0.0
Co237 Co 0.8491 0.5167 0.86651 0.0
C238 C 0.85481 0.48826 0.88515 0.0
O239 O 0.86252 0.49126 0.83211 0.0
N240 N 0.84478 0.5063 0.78944 0.0
C241 C 0.83174 0.48699 0.71748 0.0
C242 C 0.83337 0.49012 0.77925 0.0
C243 C 0.84947 0.51283 0.73268 0.0
N244 N 0.84187 0.50133 0.68815 0.0
O245 O 0.82573 0.50591 0.87896 0.0
H246 H 0.82629 0.48117 0.81463 0.0
H247 H 0.85744 0.5259 0.72345 0.0
O248 O 0.84923 0.49761 0.90413 0.0
C249 C 0.8182 0.5142 0.87932 0.0
O250 O 0.82696 0.53056 0.87813 0.0
N251 N 0.87234 0.52813 0.85414 0.0
C252 C 0.90668 0.54932 0.84322 0.0
C253 C 0.90022 0.53587 0.88412 0.0
C254 C 0.88304 0.5257 0.89 0.0
C255 C 0.87843 0.54164 0.81635 0.0
C256 C 0.89557 0.55218 0.809 0.0
H257 H 0.87852 0.51649 0.92593 0.0
H258 H 0.86996 0.54485 0.79441 0.0
H259 H 0.84238 0.50684 0.00656 0.0
H260 H 0.86703 0.55869 0.03545 0.0
H261 H 0.82349 0.47513 0.69602 0.0
H262 H 0.90836 0.53345 0.91256 0.0
H263 H 0.90005 0.5629 0.77905 0.0
C264 C 0.31291 0.85711 0.08667 0.0
C265 C 0.30914 0.85644 0.148 0.0
N266 N 0.32013 0.8539 0.1799 0.0
N267 N 0.32627 0.85512 0.08004 0.0
C268 C 0.3303 0.85303 0.13754 0.0
H269 H 0.30659 0.85931 0.04925 0.0
Co270 Co 0.33659 0.85659 0.00572 0.0
C271 C 0.37138 0.86681 0.0402 0.0
O272 O 0.37699 0.8783 -0.00274 0.0
N273 N 0.34636 0.85742 0.92866 0.0
C274 C 0.35791 0.85051 0.85292 0.0
C275 C 0.35614 0.85083 0.91519 0.0
C276 C 0.34174 0.86021 0.87305 0.0
N277 N 0.34871 0.85629 0.8262 0.0
O278 O 0.32619 0.83309 0.00238 0.0
H279 H 0.36069 0.84532 0.94799 0.0
H280 H 0.3321 0.86336 0.86657 0.0
O281 O 0.35566 0.85745 0.04793 0.0
C282 C 0.31335 0.82664 0.96837 0.0
O283 O 0.30847 0.83644 0.94371 0.0
N284 N 0.34599 0.87991 0.00888 0.0
C285 C 0.35781 0.91407 0.01075 0.0
C286 C 0.3626 0.90666 0.05622 0.0
C287 C 0.35614 0.88947 0.05553 0.0
C288 C 0.34003 0.88675 0.96786 0.0
C289 C 0.34598 0.90387 0.96722 0.0
H290 H 0.35924 0.88391 0.09298 0.0
H291 H 0.33025 0.87889 0.93654 0.0
H292 H 0.34088 0.85157 0.14853 0.0
H293 H 0.29917 0.85784 0.16755 0.0
H294 H 0.36479 0.84557 0.82941 0.0
H295 H 0.3711 0.91407 0.0924 0.0
H296 H 0.34153 0.90908 0.9326 0.0
C297 C 0.45071 0.31715 0.29905 0.0
C298 C 0.44787 0.31535 0.36116 0.0
N299 N 0.46274 0.32274 0.3898 0.0
N300 N 0.46728 0.32581 0.28888 0.0
C301 C 0.47429 0.32889 0.34494 0.0
H302 H 0.44131 0.31238 0.26355 0.0
Co303 Co 0.47758 0.33149 0.21336 0.0
C304 C 0.50601 0.36597 0.22712 0.0
O305 O 0.50335 0.36992 0.17209 0.0
N306 N 0.48802 0.33662 0.13635 0.0
C307 C 0.5073 0.34226 0.06485 0.0
C308 C 0.50414 0.34107 0.12661 0.0
C309 C 0.48155 0.33468 0.07946 0.0
N310 N 0.49303 0.33821 0.03521 0.0
O311 O 0.48879 0.31954 0.23091 0.0
H312 H 0.51307 0.34314 0.16234 0.0
H313 H 0.46854 0.32993 0.07002 0.0
O314 O 0.49645 0.35137 0.24862 0.0
C315 C 0.48104 0.30373 0.23256 0.0
O316 O 0.46469 0.29557 0.2291 0.0
N317 N 0.46582 0.34274 0.19596 0.0
C318 C 0.44539 0.35616 0.1715 0.0
C319 C 0.45875 0.36407 0.21241 0.0
C320 C 0.46852 0.3569 0.2254 0.0
C321 C 0.45215 0.33429 0.15944 0.0
C322 C 0.44188 0.3409 0.14576 0.0
H323 H 0.47775 0.3625 0.261 0.0
H324 H 0.44893 0.32212 0.14207 0.0
H325 H 0.48761 0.33561 0.35271 0.0
H326 H 0.43582 0.30889 0.38344 0.0
H327 H 0.51914 0.3457 0.04363 0.0
H328 H 0.46129 0.37541 0.23583 0.0
H329 H 0.4313 0.33412 0.11557 0.0
C330 C 0.13618 0.45121 0.47295 0.0
C331 C 0.13548 0.4482 0.53487 0.0
N332 N 0.14206 0.46294 0.56428 0.0
N333 N 0.14301 0.46774 0.46364 0.0
C334 C 0.14661 0.47458 0.52002 0.0
H335 H 0.13189 0.44196 0.43693 0.0
Co336 Co 0.14611 0.47788 0.38822 0.0
C337 C 0.13873 0.50519 0.40782 0.0
O338 O 0.13023 0.50129 0.35631 0.0
N339 N 0.14986 0.48818 0.31113 0.0
C340 C 0.16194 0.50763 0.23899 0.0
C341 C 0.16045 0.50457 0.3008 0.0
C342 C 0.14559 0.48149 0.25444 0.0
N343 N 0.15259 0.49306 0.20979 0.0
O344 O 0.16956 0.48949 0.3999 0.0
H345 H 0.16714 0.51372 0.33608 0.0
H346 H 0.13841 0.46832 0.24537 0.0
O347 O 0.14531 0.49664 0.42585 0.0
C348 C 0.17763 0.48174 0.39892 0.0
O349 O 0.16941 0.46538 0.39615 0.0
N350 N 0.12282 0.46567 0.37659 0.0
C351 C 0.0886 0.44477 0.3605 0.0
C352 C 0.09467 0.45761 0.40396 0.0
C353 C 0.1118 0.4676 0.41255 0.0
C354 C 0.11708 0.45237 0.33789 0.0
C355 C 0.10002 0.44194 0.32813 0.0
H356 H 0.11607 0.47646 0.44969 0.0
H357 H 0.12577 0.44945 0.31606 0.0
H358 H 0.15217 0.4878 0.52855 0.0
H359 H 0.13062 0.43614 0.55651 0.0
H360 H 0.1696 0.51962 0.21742 0.0
H361 H 0.08624 0.45959 0.43246 0.0
H362 H 0.09583 0.43176 0.29575 0.0
C363 C 0.69015 0.1405 0.63015 0.0
C364 C 0.69412 0.14161 0.69125 0.0
N365 N 0.68431 0.14598 0.72231 0.0
N366 N 0.67788 0.14413 0.62261 0.0
C367 C 0.67467 0.14757 0.67942 0.0
H368 H 0.69559 0.13694 0.59345 0.0
Co369 Co 0.66792 0.14303 0.54765 0.0
C370 C 0.63281 0.13087 0.58256 0.0
O371 O 0.62786 0.11883 0.54192 0.0
N372 N 0.65874 0.14274 0.47047 0.0
C373 C 0.64659 0.14851 0.39363 0.0
C374 C 0.64719 0.14705 0.45599 0.0
C375 C 0.6656 0.14263 0.41589 0.0
N376 N 0.65823 0.14575 0.36837 0.0
O377 O 0.67776 0.16656 0.54634 0.0
H378 H 0.64047 0.15033 0.48824 0.0
H379 H 0.67675 0.14174 0.41137 0.0
O380 O 0.64834 0.1414 0.58892 0.0
C381 C 0.69337 0.17519 0.53737 0.0
O382 O 0.70218 0.16767 0.53391 0.0
N383 N 0.65873 0.11955 0.54853 0.0
C384 C 0.64629 0.08519 0.55035 0.0
C385 C 0.64353 0.09313 0.59979 0.0
C386 C 0.65017 0.11034 0.59861 0.0
C387 C 0.66258 0.11214 0.50225 0.0
C388 C 0.65629 0.09494 0.50175 0.0
H389 H 0.64825 0.11623 0.63804 0.0
H390 H 0.67082 0.11948 0.46595 0.0
H391 H 0.66499 0.15052 0.68942 0.0
H392 H 0.70343 0.13923 0.71118 0.0
H393 H 0.63862 0.15198 0.36915 0.0
H394 H 0.63641 0.08612 0.63934 0.0
H395 H 0.65907 0.08932 0.46336 0.0
C396 C 0.33523 0.49785 0.38624 0.0
C397 C 0.33251 0.48451 0.34796 0.0
C398 C 0.33165 0.49532 0.44873 0.0
C399 C 0.30812 0.46291 0.56482 0.0
H400 H 0.34106 0.49512 0.67652 0.0
C401 C 0.30814 0.45058 0.82396 0.0
C402 C 0.3124 0.46391 0.86456 0.0
C403 C 0.30954 0.45319 0.76072 0.0
C404 C 0.33161 0.48614 0.646 0.0
H405 H 0.32364 0.458 0.34519 0.0
H406 H 0.31742 0.45354 0.45462 0.0
H407 H 0.34531 0.49935 0.56643 0.0
H408 H 0.32101 0.49036 0.87025 0.0
H409 H 0.32345 0.49493 0.75974 0.0
H410 H 0.29449 0.44963 0.64458 0.0
C411 C 0.32217 0.46594 0.43603 0.0
C412 C 0.33405 0.48855 0.58287 0.0
C413 C 0.32574 0.46849 0.37339 0.0
C414 C 0.31787 0.47988 0.84033 0.0
C415 C 0.31926 0.48249 0.777 0.0
C416 C 0.30566 0.4605 0.62804 0.0
C417 C 0.32528 0.47938 0.4745 0.0
C418 C 0.32238 0.47694 0.54155 0.0
C419 C 0.31523 0.46919 0.7365 0.0
C420 C 0.31743 0.47205 0.66934 0.0
H421 H 0.34007 0.51028 0.36795 0.0
H422 H 0.33387 0.50586 0.4769 0.0
H423 H 0.29878 0.45385 0.53416 0.0
H424 H 0.30414 0.43818 0.84098 0.0
H425 H 0.30659 0.44273 0.73085 0.0
C426 C 0.83986 0.31791 0.01721 0.0
C427 C 0.85422 0.31862 0.04158 0.0
C428 C 0.83831 0.31917 0.95407 0.0
C429 C 0.84202 0.33184 0.82427 0.0
H430 H 0.86171 0.31415 0.71173 0.0
C431 C 0.84854 0.34743 0.56687 0.0
C432 C 0.84689 0.33515 0.52536 0.0
C433 C 0.84904 0.34503 0.6298 0.0
C434 C 0.85592 0.31897 0.74234 0.0
H435 H 0.87833 0.32155 0.01984 0.0
H436 H 0.876 0.32438 0.90995 0.0
H437 H 0.86252 0.30983 0.82096 0.0
H438 H 0.84393 0.31055 0.51643 0.0
H439 H 0.84417 0.30599 0.62631 0.0
H440 H 0.83473 0.3403 0.74545 0.0
C441 C 0.86563 0.32225 0.93896 0.0
C442 C 0.85664 0.31673 0.80524 0.0
C443 C 0.86703 0.3207 0.00192 0.0
C444 C 0.84551 0.32032 0.54767 0.0
C445 C 0.8457 0.31776 0.61061 0.0
C446 C 0.84107 0.33385 0.76129 0.0
C447 C 0.85123 0.32147 0.91415 0.0
C448 C 0.84986 0.32328 0.84707 0.0
C449 C 0.84757 0.33014 0.65251 0.0
C450 C 0.84814 0.32758 0.71952 0.0
H451 H 0.82976 0.31614 0.04699 0.0
H452 H 0.82692 0.3182 0.9366 0.0
H453 H 0.83684 0.33725 0.85503 0.0
H454 H 0.84976 0.35902 0.55044 0.0
H455 H 0.85083 0.35498 0.66049 0.0
C456 C 0.54454 0.86632 0.16077 0.0
C457 C 0.53248 0.85465 0.20082 0.0
C458 C 0.54159 0.86524 0.09777 0.0
C459 C 0.51687 0.83598 0.97636 0.0
H460 H 0.5261 0.87579 0.88635 0.0
C461 C 0.49668 0.83328 0.72526 0.0
C462 C 0.50793 0.84582 0.68555 0.0
C463 C 0.49961 0.83445 0.78827 0.0
C464 C 0.52365 0.8646 0.91065 0.0
H465 H 0.50805 0.83251 0.20632 0.0
H466 H 0.50288 0.83064 0.09612 0.0
H467 H 0.53163 0.87757 0.99617 0.0
H468 H 0.53091 0.86963 0.68141 0.0
H469 H 0.53629 0.87142 0.79098 0.0
H470 H 0.50909 0.82301 0.89095 0.0
C471 C 0.5146 0.84061 0.11355 0.0
C472 C 0.5268 0.86563 0.9735 0.0
C473 C 0.51749 0.84177 0.17659 0.0
C474 C 0.52211 0.85963 0.71047 0.0
C475 C 0.52508 0.86076 0.77345 0.0
C476 C 0.51383 0.83496 0.91344 0.0
C477 C 0.52659 0.85239 0.07361 0.0
C478 C 0.5234 0.85132 0.00692 0.0
C479 C 0.51389 0.84816 0.81305 0.0
C480 C 0.51715 0.84926 0.8799 0.0
H481 H 0.55613 0.87646 0.17824 0.0
H482 H 0.5511 0.8744 0.06789 0.0
H483 H 0.51434 0.8248 0.00096 0.0
H484 H 0.48572 0.82239 0.70775 0.0
H485 H 0.49062 0.82464 0.81761 0.0
C486 C 0.65957 0.52681 0.88291 0.0
C487 C 0.65889 0.5125 0.85785 0.0
C488 C 0.66168 0.52985 0.94584 0.0
C489 C 0.67644 0.51837 0.08488 0.0
H490 H 0.65224 0.53657 0.16944 0.0
C491 C 0.67381 0.52178 0.3484 0.0
C492 C 0.6761 0.53679 0.37309 0.0
C493 C 0.672 0.51899 0.2853 0.0
C494 C 0.65919 0.53162 0.14626 0.0
H495 H 0.6599 0.49016 0.87975 0.0
H496 H 0.663 0.49517 0.98942 0.0
H497 H 0.64819 0.53115 0.05961 0.0
H498 H 0.6782 0.56059 0.35122 0.0
H499 H 0.67511 0.55574 0.24084 0.0
H500 H 0.68724 0.51864 0.17192 0.0
C501 C 0.66221 0.5042 0.96027 0.0
C502 C 0.6569 0.52855 0.0834 0.0
C503 C 0.66018 0.50121 0.89735 0.0
C504 C 0.67662 0.54898 0.33343 0.0
C505 C 0.67468 0.54614 0.27039 0.0
C506 C 0.67863 0.52134 0.14781 0.0
C507 C 0.66307 0.5186 0.9852 0.0
C508 C 0.6655 0.52189 0.052 0.0
C509 C 0.67232 0.5311 0.24577 0.0
C510 C 0.67004 0.52801 0.17905 0.0
H511 H 0.6584 0.53566 0.854 0.0
H512 H 0.66245 0.54114 0.96351 0.0
H513 H 0.68348 0.51351 0.06188 0.0
H514 H 0.67351 0.51223 0.37784 0.0
H515 H 0.67009 0.50724 0.2675 0.0
C516 C 0.13283 0.65945 0.09316 0.0
C517 C 0.14312 0.65369 0.06899 0.0
C518 C 0.133 0.66266 0.15592 0.0
C519 C 0.14351 0.65181 0.30512 0.0
H520 H 0.14532 0.69229 0.3627 0.0
C521 C 0.15527 0.67096 0.55893 0.0
C522 C 0.14604 0.67766 0.58512 0.0
C523 C 0.15508 0.66858 0.49566 0.0
C524 C 0.14462 0.68083 0.34743 0.0
H525 H 0.16198 0.64721 0.09243 0.0
H526 H 0.16205 0.65254 0.20129 0.0
H527 H 0.14415 0.68679 0.25278 0.0
H528 H 0.1294 0.68718 0.56523 0.0
H529 H 0.12891 0.68289 0.45488 0.0
H530 H 0.1438 0.64569 0.39935 0.0
C531 C 0.1537 0.65437 0.17179 0.0
C532 C 0.14395 0.6777 0.28446 0.0
C533 C 0.1536 0.65127 0.10919 0.0
C534 C 0.13683 0.6822 0.54644 0.0
C535 C 0.13655 0.67974 0.48312 0.0
C536 C 0.14408 0.65488 0.36796 0.0
C537 C 0.14339 0.66007 0.19591 0.0
C538 C 0.14352 0.66321 0.26267 0.0
C539 C 0.14555 0.67275 0.457 0.0
C540 C 0.14476 0.66948 0.38995 0.0
H541 H 0.12447 0.66128 0.06378 0.0
H542 H 0.1248 0.6669 0.17332 0.0
H543 H 0.14291 0.6404 0.28974 0.0
H544 H 0.1627 0.66759 0.58738 0.0
H545 H 0.16245 0.66351 0.47702 0.0
C546 C 0.48304 0.16222 0.67492 0.0
C547 C 0.46736 0.15123 0.70027 0.0
C548 C 0.48545 0.16294 0.61157 0.0
C549 C 0.4683 0.138 0.47198 0.0
H550 H 0.49373 0.18037 0.38842 0.0
C551 C 0.47366 0.14266 0.20883 0.0
C552 C 0.48946 0.1537 0.18442 0.0
C553 C 0.47062 0.14267 0.27148 0.0
C554 C 0.48674 0.16844 0.41121 0.0
H555 H 0.44193 0.13232 0.67897 0.0
H556 H 0.44608 0.13373 0.56847 0.0
H557 H 0.48916 0.17989 0.49872 0.0
H558 H 0.51436 0.17365 0.20672 0.0
H559 H 0.50919 0.17338 0.31608 0.0
H560 H 0.46603 0.12652 0.38479 0.0
C561 C 0.45653 0.14172 0.59763 0.0
C562 C 0.48412 0.16817 0.47431 0.0
C563 C 0.45411 0.14106 0.66089 0.0
C564 C 0.50212 0.16483 0.22403 0.0
C565 C 0.49909 0.16483 0.28667 0.0
C566 C 0.47096 0.13826 0.40896 0.0
C567 C 0.47224 0.15261 0.57234 0.0
C568 C 0.47489 0.15295 0.50532 0.0
C569 C 0.48332 0.15371 0.31112 0.0
C570 C 0.48024 0.15348 0.37789 0.0
H571 H 0.49344 0.17032 0.70403 0.0
H572 H 0.49773 0.17136 0.59337 0.0
H573 H 0.46135 0.12607 0.49483 0.0
H574 H 0.46369 0.13383 0.17965 0.0
H575 H 0.45829 0.13406 0.28883 0.0
C576 C 0.4963 0.66138 0.44054 0.0
C577 C 0.50925 0.66375 0.48025 0.0
C578 C 0.49927 0.66465 0.37799 0.0
C579 C 0.52831 0.66825 0.25598 0.0
H580 H 0.50774 0.68935 0.16577 0.0
C581 C 0.54414 0.68776 0.00352 0.0
C582 C 0.53067 0.6839 0.96418 0.0
C583 C 0.54181 0.68606 0.06683 0.0
C584 C 0.51345 0.68332 0.1903 0.0
H585 H 0.53551 0.67148 0.48534 0.0
H586 H 0.5408 0.6775 0.37625 0.0
H587 H 0.50333 0.68519 0.27614 0.0
H588 H 0.50425 0.67556 0.96062 0.0
H589 H 0.50012 0.67237 0.07132 0.0
H590 H 0.53839 0.66634 0.17018 0.0
C591 C 0.52828 0.67293 0.39347 0.0
C592 C 0.51093 0.68094 0.25344 0.0
C593 C 0.5253 0.66966 0.45606 0.0
C594 C 0.51484 0.67848 0.98965 0.0
C595 C 0.51251 0.67682 0.05306 0.0
C596 C 0.53086 0.67066 0.19291 0.0
C597 C 0.51528 0.67037 0.3537 0.0
C598 C 0.51829 0.67332 0.28693 0.0
C599 C 0.52595 0.68048 0.09226 0.0
C600 C 0.52342 0.67818 0.15938 0.0
H601 H 0.48384 0.65707 0.4577 0.0
H602 H 0.48895 0.66241 0.34848 0.0
H603 H 0.53392 0.6621 0.28028 0.0
H604 H 0.55645 0.69179 0.98542 0.0
H605 H 0.55244 0.68913 0.09592 0.0
C606 C 0.83032 0.49354 0.58342 0.0
C607 C 0.84331 0.50417 0.62296 0.0
C608 C 0.83156 0.49652 0.52046 0.0
C609 C 0.86209 0.51906 0.39742 0.0
H610 H 0.82302 0.51267 0.30871 0.0
C611 C 0.86483 0.54054 0.14759 0.0
C612 C 0.85257 0.52898 0.1078 0.0
C613 C 0.8637 0.53759 0.21059 0.0
C614 C 0.83398 0.51438 0.33285 0.0
H615 H 0.86798 0.52607 0.62683 0.0
H616 H 0.86993 0.53156 0.51728 0.0
H617 H 0.82117 0.50739 0.41869 0.0
H618 H 0.82936 0.50546 0.10278 0.0
H619 H 0.82738 0.50028 0.21302 0.0
H620 H 0.87492 0.52626 0.31148 0.0
C621 C 0.85885 0.5208 0.53493 0.0
C622 C 0.83293 0.51131 0.39576 0.0
C623 C 0.85764 0.51777 0.59789 0.0
C624 C 0.83906 0.5145 0.13231 0.0
C625 C 0.83786 0.51162 0.19537 0.0
C626 C 0.86316 0.52223 0.33458 0.0
C627 C 0.8458 0.51024 0.49553 0.0
C628 C 0.84696 0.51358 0.42872 0.0
C629 C 0.85022 0.52309 0.23503 0.0
C630 C 0.84911 0.51988 0.30172 0.0
H631 H 0.81903 0.48305 0.60103 0.0
H632 H 0.82138 0.48802 0.49127 0.0
H633 H 0.87305 0.52068 0.42127 0.0
H634 H 0.87547 0.55171 0.12993 0.0
H635 H 0.87333 0.5467 0.24024 0.0
C636 C 0.31659 0.8624 0.28372 0.0
C637 C 0.32155 0.85343 0.24556 0.0
C638 C 0.3186 0.86249 0.34724 0.0
C639 C 0.32389 0.83918 0.47339 0.0
H640 H 0.34363 0.88139 0.55992 0.0
C641 C 0.34755 0.84566 0.72104 0.0
C642 C 0.34522 0.85613 0.76158 0.0
C643 C 0.34396 0.84529 0.65877 0.0
C644 C 0.33787 0.86946 0.53669 0.0
H645 H 0.33215 0.83721 0.24432 0.0
H646 H 0.33569 0.83739 0.35522 0.0
H647 H 0.33831 0.88057 0.4501 0.0
H648 H 0.33739 0.87459 0.76758 0.0
H649 H 0.33068 0.87361 0.6591 0.0
H650 H 0.32333 0.82801 0.55972 0.0
C651 C 0.33022 0.84433 0.33595 0.0
C652 C 0.33486 0.869 0.47373 0.0
C653 C 0.32834 0.84435 0.27242 0.0
C654 C 0.33919 0.86625 0.73796 0.0
C655 C 0.33552 0.86582 0.67556 0.0
C656 C 0.32679 0.83961 0.53636 0.0
C657 C 0.32548 0.8535 0.37402 0.0
C658 C 0.328 0.85388 0.44131 0.0
C659 C 0.33783 0.8553 0.6352 0.0
C660 C 0.334 0.85478 0.56871 0.0
H661 H 0.31148 0.86966 0.26444 0.0
H662 H 0.31471 0.86957 0.37546 0.0
H663 H 0.31835 0.8273 0.4498 0.0
H664 H 0.35195 0.83751 0.73725 0.0
H665 H 0.34615 0.83723 0.62897 0.0
C666 C 0.5008 0.33444 0.93044 0.0
C667 C 0.49029 0.33699 0.96998 0.0
C668 C 0.49794 0.33298 0.86737 0.0
C669 C 0.46503 0.32178 0.75362 0.0
H670 H 0.50162 0.34598 0.64021 0.0
C671 C 0.45436 0.32477 0.4952 0.0
C672 C 0.46572 0.32397 0.45471 0.0
C673 C 0.45739 0.32628 0.55815 0.0
C674 C 0.49131 0.33896 0.67124 0.0
H675 H 0.46878 0.34043 0.97375 0.0
H676 H 0.46366 0.3376 0.86377 0.0
H677 H 0.50696 0.34882 0.75024 0.0
H678 H 0.48894 0.32374 0.44828 0.0
H679 H 0.49416 0.32613 0.5583 0.0
H680 H 0.44938 0.31173 0.6749 0.0
C681 C 0.474 0.33657 0.88187 0.0
C682 C 0.49437 0.34063 0.73418 0.0
C683 C 0.47692 0.33815 0.94487 0.0
C684 C 0.48011 0.32458 0.47838 0.0
C685 C 0.48309 0.32598 0.54136 0.0
C686 C 0.46198 0.32001 0.6907 0.0
C687 C 0.48446 0.33393 0.84258 0.0
C688 C 0.48125 0.33209 0.77591 0.0
C689 C 0.4718 0.32691 0.58194 0.0
C690 C 0.47507 0.32863 0.6488 0.0
H691 H 0.51106 0.33324 0.94817 0.0
H692 H 0.50608 0.33076 0.83808 0.0
H693 H 0.45474 0.31488 0.78488 0.0
H694 H 0.44329 0.32457 0.4781 0.0
H695 H 0.44858 0.32725 0.58806 0.0
C696 C 0.16397 0.50133 0.10504 0.0
C697 C 0.15134 0.49015 0.14464 0.0
C698 C 0.1629 0.49833 0.0421 0.0
C699 C 0.13296 0.47427 0.91928 0.0
H700 H 0.17292 0.4835 0.83015 0.0
C701 C 0.13162 0.45361 0.66913 0.0
C702 C 0.14339 0.46568 0.62937 0.0
C703 C 0.13262 0.45647 0.73217 0.0
C704 C 0.1617 0.48099 0.85442 0.0
H705 H 0.1275 0.4672 0.14864 0.0
H706 H 0.12589 0.4617 0.03915 0.0
H707 H 0.17449 0.4887 0.94017 0.0
H708 H 0.16563 0.49004 0.62445 0.0
H709 H 0.16736 0.49507 0.73476 0.0
H710 H 0.12017 0.46637 0.83343 0.0
C711 C 0.13653 0.47291 0.05673 0.0
C712 C 0.16259 0.48401 0.91735 0.0
C713 C 0.13756 0.47596 0.11966 0.0
C714 C 0.1563 0.48059 0.65396 0.0
C715 C 0.15738 0.4834 0.71706 0.0
C716 C 0.13206 0.47116 0.85643 0.0
C717 C 0.14922 0.48404 0.01726 0.0
C718 C 0.14824 0.48073 0.95046 0.0
C719 C 0.14549 0.4714 0.75669 0.0
C720 C 0.14643 0.47453 0.82342 0.0
H721 H 0.17484 0.51229 0.12258 0.0
H722 H 0.17278 0.50727 0.01286 0.0
H723 H 0.12173 0.47186 0.94325 0.0
H724 H 0.12145 0.44208 0.6514 0.0
H725 H 0.12337 0.44696 0.7618 0.0
C726 C 0.67721 0.15702 0.81372 0.0
C727 C 0.68334 0.14724 0.78787 0.0
C728 C 0.67572 0.15771 0.87727 0.0
C729 C 0.67166 0.13386 0.01747 0.0
H730 H 0.68319 0.17528 0.10035 0.0
C731 C 0.6699 0.13803 0.28075 0.0
C732 C 0.66263 0.14702 0.30446 0.0
C733 C 0.67357 0.13875 0.21833 0.0
C734 C 0.67979 0.16359 0.07777 0.0
H735 H 0.69273 0.13052 0.80892 0.0
H736 H 0.69044 0.13199 0.91939 0.0
H737 H 0.68736 0.1753 0.98987 0.0
H738 H 0.65406 0.16427 0.28132 0.0
H739 H 0.66013 0.16525 0.17251 0.0
H740 H 0.66394 0.12211 0.10506 0.0
C741 C 0.68664 0.13901 0.89052 0.0
C742 C 0.68217 0.16361 0.01452 0.0
C743 C 0.68814 0.13833 0.82711 0.0
C744 C 0.65942 0.15699 0.26453 0.0
C745 C 0.6631 0.15773 0.20219 0.0
C746 C 0.66928 0.13385 0.08063 0.0
C747 C 0.68029 0.14859 0.91633 0.0
C748 C 0.67808 0.14872 0.98366 0.0
C749 C 0.67009 0.14851 0.17827 0.0
C750 C 0.67325 0.14869 0.11148 0.0
H751 H 0.67356 0.16416 0.78489 0.0
H752 H 0.67067 0.16512 0.89574 0.0
H753 H 0.66813 0.12214 0.9949 0.0
H754 H 0.67243 0.13016 0.31021 0.0
H755 H 0.67913 0.13164 0.20142 0.0
C756 C 0.47076 0.62466 0.81864 0.0
C757 C 0.48265 0.62156 0.79089 0.0
C758 C 0.45737 0.61201 0.85101 0.0
C759 C 0.44494 0.57498 0.94022 0.0
H760 H 0.39973 0.55852 0.88285 0.0
C761 C 0.39152 0.5131 0.02861 0.0
C762 C 0.37573 0.51141 0.03672 0.0
C763 C 0.40415 0.52703 -0.00104 0.0
C764 C 0.41222 0.56313 0.90033 0.0
H765 H 0.49019 0.60311 0.77653 0.0
H766 H 0.4671 0.58123 0.8349 0.0
H767 H 0.42284 0.58276 0.83351 0.0
H768 H 0.3606 0.5228 0.01977 0.0
H769 H 0.38287 0.54756 0.97002 0.0
H770 H 0.4346 0.55585 0.00793 0.0
C771 C 0.46802 0.59331 0.8307 0.0
C772 C 0.42542 0.57696 0.87186 0.0
C773 C 0.48115 0.60579 0.79722 0.0
C774 C 0.37268 0.52378 0.01376 0.0
C775 C 0.38544 0.53794 0.98508 0.0
C776 C 0.43177 0.5614 0.96946 0.0
C777 C 0.45596 0.59627 0.85732 0.0
C778 C 0.44188 0.58277 0.89095 0.0
C779 C 0.40141 0.53982 0.97787 0.0
C780 C 0.41525 0.55503 0.94908 0.0
H781 H 0.47162 0.63671 0.81417 0.0
H782 H 0.44818 0.61451 0.87143 0.0
H783 H 0.45757 0.57939 0.95594 0.0
H784 H 0.39414 0.50362 0.04515 0.0
H785 H 0.41607 0.52772 0.99263 0.0
C786 C 0.85475 0.37323 0.16041 0.0
C787 C 0.85856 0.37616 0.22304 0.0
C788 C 0.8535 0.38506 0.12457 0.0
C789 C 0.86527 0.42979 0.12439 0.0
H790 H 0.83383 0.41594 0.98956 0.0
C791 C 0.85185 0.47529 0.98822 0.0
C792 C 0.85365 0.47479 0.92445 0.0
C793 C 0.8516 0.46292 0.02556 0.0
C794 C 0.84268 0.41993 0.02705 0.0
H795 H 0.8636 0.39345 0.2978 0.0
H796 H 0.86078 0.41376 0.23611 0.0
H797 H 0.8348 0.39489 0.05393 0.0
H798 H 0.85611 0.46079 0.8495 0.0
H799 H 0.8553 0.43896 0.91486 0.0
H800 H 0.8728 0.45485 0.09802 0.0
C801 C 0.85931 0.40265 0.21389 0.0
C802 C 0.84333 0.40792 0.06371 0.0
C803 C 0.86083 0.39096 0.24943 0.0
C804 C 0.85478 0.46151 0.89856 0.0
C805 C 0.85423 0.44899 0.9358 0.0
C806 C 0.86441 0.44178 0.08835 0.0
C807 C 0.85578 0.39994 0.15085 0.0
C808 C 0.85473 0.41269 0.11262 0.0
C809 C 0.85283 0.4497 -0.00037 0.0
C810 C 0.8532 0.43695 0.03915 0.0
H811 H 0.85307 0.36197 0.13878 0.0
H812 H 0.85107 0.38264 0.07603 0.0
H813 H 0.87445 0.43398 0.16072 0.0
H814 H 0.85106 0.48543 0.00944 0.0
H815 H 0.85045 0.46368 0.07471 0.0
C816 C 0.4005 0.87551 0.07224 0.0
C817 C 0.38326 0.86491 0.0798 0.0
C818 C 0.41181 0.87385 0.10956 0.0
C819 C 0.41546 0.85727 0.25837 0.0
H820 H 0.45609 0.86229 0.18712 0.0
C821 C 0.47602 0.85036 0.32988 0.0
C822 C 0.48018 0.85893 0.38607 0.0
C823 C 0.46353 0.84999 0.29292 0.0
C824 C 0.44473 0.86068 0.20766 0.0
H825 H 0.36435 0.84418 0.13242 0.0
H826 H 0.38416 0.84121 0.1974 0.0
H827 H 0.4354 0.86333 0.12128 0.0
H828 H 0.47436 0.87369 0.4478 0.0
H829 H 0.45273 0.87321 0.38297 0.0
H830 H 0.42475 0.85445 0.3447 0.0
C831 C 0.3889 0.85093 0.16295 0.0
C832 C 0.43297 0.86148 0.17003 0.0
C833 C 0.37756 0.85258 0.12554 0.0
C834 C 0.47145 0.86696 0.40481 0.0
C835 C 0.45897 0.86659 0.36784 0.0
C836 C 0.42725 0.85648 0.29604 0.0
C837 C 0.40615 0.86153 0.15528 0.0
C838 C 0.41827 0.85993 0.19502 0.0
C839 C 0.45493 0.85817 0.31134 0.0
C840 C 0.44207 0.85831 0.27115 0.0
H841 H 0.40531 0.88519 0.03763 0.0
H842 H 0.42501 0.88239 0.10314 0.0
H843 H 0.40432 0.85616 0.27908 0.0
H844 H 0.48241 0.84393 0.3143 0.0
H845 H 0.46056 0.84321 0.25002 0.0
C846 C 0.53266 0.39294 0.23836 0.0
C847 C 0.5194 0.37876 0.26551 0.0
C848 C 0.54517 0.40526 0.27462 0.0
C849 C 0.55267 0.42381 0.42582 0.0
H850 H 0.59947 0.44085 0.39027 0.0
C851 C 0.60409 0.47141 0.58448 0.0
C852 C 0.61886 0.48382 0.55743 0.0
C853 C 0.59221 0.45817 0.54949 0.0
C854 C 0.58647 0.43642 0.40034 0.0
H855 H 0.50878 0.36632 0.35179 0.0
H856 H 0.53055 0.38807 0.41526 0.0
H857 H 0.57824 0.41851 0.32746 0.0
H858 H 0.63273 0.49226 0.47246 0.0
H859 H 0.61176 0.46953 0.41075 0.0
H860 H 0.56069 0.44199 0.49711 0.0
C861 C 0.53127 0.38954 0.3659 0.0
C862 C 0.57434 0.42357 0.36455 0.0
C863 C 0.5189 0.37708 0.32959 0.0
C864 C 0.62152 0.48279 0.49464 0.0
C865 C 0.60952 0.46969 0.45937 0.0
C866 C 0.56477 0.43682 0.46103 0.0
C867 C 0.5445 0.40374 0.3387 0.0
C868 C 0.55735 0.41715 0.37709 0.0
C869 C 0.5947 0.45719 0.48636 0.0
C870 C 0.58183 0.44329 0.44885 0.0
H871 H 0.53338 0.39452 0.18906 0.0
H872 H 0.5552 0.41616 0.25266 0.0
H873 H 0.53962 0.41919 0.43584 0.0
H874 H 0.60179 0.47179 0.63297 0.0
H875 H 0.58114 0.44862 0.57219 0.0
C876 C 0.13203 0.52776 0.42785 0.0
C877 C 0.13993 0.51888 0.44621 0.0
C878 C 0.13276 0.54043 0.46467 0.0
C879 C 0.1434 0.57232 0.53579 0.0
H880 H 0.13657 0.56431 0.71062 0.0
C881 C 0.14689 0.622 0.70535 0.0
C882 C 0.13445 0.61626 0.75068 0.0
C883 C 0.14873 0.6107 0.66839 0.0
C884 C 0.13843 0.56671 0.66185 0.0
H885 H 0.15508 0.51657 0.5171 0.0
H886 H 0.15643 0.53877 0.58122 0.0
H887 H 0.13761 0.54356 0.645 0.0
H888 H 0.11417 0.59418 0.79264 0.0
H889 H 0.11728 0.57453 0.7279 0.0
H890 H 0.1437 0.59524 0.55247 0.0
C891 C 0.14949 0.53578 0.53868 0.0
C892 C 0.13923 0.55491 0.62436 0.0
C893 C 0.14877 0.5231 0.50182 0.0
C894 C 0.12392 0.59902 0.75831 0.0
C895 C 0.12577 0.58774 0.72146 0.0
C896 C 0.14262 0.58413 0.57332 0.0
C897 C 0.14141 0.54452 0.52065 0.0
C898 C 0.14154 0.5575 0.56083 0.0
C899 C 0.13819 0.59344 0.67613 0.0
C900 C 0.13993 0.58136 0.63666 0.0
H901 H 0.1251 0.52482 0.3853 0.0
H902 H 0.12621 0.54677 0.44987 0.0
H903 H 0.14539 0.57477 0.48708 0.0
H904 H 0.15525 0.63521 0.69844 0.0
H905 H 0.15852 0.61546 0.63421 0.0
C906 C 0.60442 0.11875 0.62746 0.0
C907 C 0.62024 0.13267 0.61788 0.0
C908 C 0.59211 0.1204 0.65813 0.0
C909 C 0.58534 0.14926 0.75729 0.0
H910 H 0.53942 0.12023 0.70773 0.0
C911 C 0.5276 0.15321 0.84403 0.0
C912 C 0.51622 0.1386 0.87506 0.0
C913 C 0.54065 0.15366 0.8102 0.0
C914 C 0.55221 0.12844 0.72171 0.0
H915 H 0.63576 0.15923 0.63303 0.0
H916 H 0.61405 0.16232 0.68445 0.0
H917 H 0.56174 0.11907 0.65297 0.0
H918 H 0.50923 0.11293 0.89386 0.0
H919 H 0.5317 0.11359 0.83296 0.0
H920 H 0.57554 0.15885 0.82514 0.0
C921 C 0.61121 0.15001 0.66986 0.0
C922 C 0.56501 0.12769 0.69091 0.0
C923 C 0.62365 0.14827 0.64018 0.0
C924 C 0.51789 0.12438 0.87068 0.0
C925 C 0.53066 0.12472 0.83577 0.0
C926 C 0.57251 0.15023 0.78727 0.0
C927 C 0.59522 0.1361 0.67878 0.0
C928 C 0.58174 0.13782 0.70912 0.0
C929 C 0.5422 0.13938 0.80574 0.0
C930 C 0.55586 0.13962 0.77035 0.0
H931 H 0.60153 0.10652 0.61143 0.0
H932 H 0.58017 0.1093 0.66572 0.0
H933 H 0.59801 0.15712 0.77317 0.0
H934 H 0.52659 0.16435 0.8469 0.0
H935 H 0.54945 0.16508 0.78715 0.0
C936 C 0.3036 0.50548 0.16875 0.0
C937 C 0.29468 0.49129 0.13175 0.0
C938 C 0.29531 0.51271 0.19791 0.0
C939 C 0.25576 0.51331 0.20488 0.0
H940 H 0.2578 0.50756 0.38018 0.0
C941 C 0.2051 0.48295 0.39709 0.0
C942 C 0.19578 0.49091 0.38814 0.0
C943 C 0.22139 0.49013 0.37504 0.0
C944 C 0.25733 0.50961 0.33151 0.0
H945 H 0.27064 0.4744 0.09177 0.0
H946 H 0.25626 0.48726 0.14113 0.0
H947 H 0.27917 0.50796 0.31341 0.0
H948 H 0.19654 0.51324 0.35336 0.0
H949 H 0.22493 0.52559 0.3134 0.0
H950 H 0.23326 0.51374 0.2224 0.0
C951 C 0.26957 0.49276 0.1481 0.0
C952 C 0.26961 0.50995 0.29334 0.0
C953 C 0.27775 0.48532 0.12014 0.0
C954 C 0.20344 0.5068 0.36088 0.0
C955 C 0.21966 0.51386 0.33788 0.0
C956 C 0.24361 0.51318 0.2431 0.0
C957 C 0.27812 0.50608 0.18917 0.0
C958 C 0.2684 0.51091 0.22944 0.0
C959 C 0.22855 0.5053 0.34289 0.0
C960 C 0.24381 0.51043 0.30636 0.0
H961 H 0.31667 0.51021 0.17878 0.0
H962 H 0.30214 0.52294 0.2295 0.0
H963 H 0.25462 0.51412 0.15575 0.0
H964 H 0.19952 0.47075 0.41825 0.0
H965 H 0.22788 0.48317 0.37906 0.0
C966 C 0.79354 0.27558 0.27108 0.0
C967 C 0.80299 0.29278 0.28189 0.0
C968 C 0.77705 0.26653 0.29114 0.0
C969 C 0.75371 0.26667 0.42068 0.0
H970 H 0.71852 0.22682 0.34373 0.0
C971 C 0.69265 0.19864 0.48409 0.0
C972 C 0.7012 0.19289 0.52086 0.0
C973 C 0.70128 0.21443 0.45707 0.0
C974 C 0.72797 0.23812 0.36562 0.0
H975 H 0.80233 0.31427 0.31818 0.0
H976 H 0.77356 0.29829 0.35467 0.0
H977 H 0.74072 0.2482 0.28077 0.0
H978 H 0.72488 0.19941 0.56265 0.0
H979 H 0.73983 0.22711 0.51713 0.0
H980 H 0.74174 0.2559 0.50607 0.0
C981 C 0.77889 0.29188 0.33023 0.0
C982 C 0.74072 0.25028 0.32964 0.0
C983 C 0.79532 0.30099 0.30923 0.0
C984 C 0.71806 0.2036 0.53441 0.0
C985 C 0.72657 0.21948 0.50867 0.0
C986 C 0.74107 0.25442 0.45671 0.0
C987 C 0.76981 0.27449 0.32312 0.0
C988 C 0.75412 0.26426 0.35724 0.0
C989 C 0.71842 0.22478 0.46784 0.0
C990 C 0.72856 0.23968 0.42975 0.0
H991 H 0.79912 0.26897 0.2498 0.0
H992 H 0.77041 0.25311 0.28559 0.0
H993 H 0.76393 0.27728 0.44324 0.0
H994 H 0.67964 0.1905 0.47262 0.0
H995 H 0.69478 0.21824 0.42555 0.0
C996 C 0.48956 0.79407 0.46248 0.0
C997 C 0.50564 0.80132 0.43692 0.0
C998 C 0.48187 0.77783 0.4855 0.0
C999 C 0.48112 0.7537 0.58234 0.0
H1000 H 0.48595 0.71745 0.51658 0.0
C1001 C 0.50769 0.71944 0.71173 0.0
C1002 C 0.50185 0.70252 0.70031 0.0
C1003 C 0.50035 0.72756 0.68273 0.0
C1004 C 0.48405 0.72721 0.53536 0.0
H1005 H 0.52548 0.79676 0.4094 0.0
H1006 H 0.51199 0.76837 0.4487 0.0
H1007 H 0.48721 0.73881 0.44764 0.0
H1008 H 0.48314 0.68047 0.65294 0.0
H1009 H 0.47056 0.69489 0.60054 0.0
H1010 H 0.47941 0.74286 0.67068 0.0
C1011 C 0.50536 0.77522 0.45141 0.0
C1012 C 0.48489 0.73948 0.49594 0.0
C1013 C 0.51315 0.79152 0.4293 0.0
C1014 C 0.48778 0.69353 0.6628 0.0
C1015 C 0.48064 0.70176 0.63267 0.0
C1016 C 0.48047 0.74153 0.62182 0.0
C1017 C 0.49 0.76849 0.48222 0.0
C1018 C 0.48425 0.75325 0.51952 0.0
C1019 C 0.48724 0.71897 0.64087 0.0
C1020 C 0.48275 0.72865 0.59898 0.0
H1021 H 0.48343 0.80131 0.46884 0.0
H1022 H 0.47001 0.77289 0.50883 0.0
H1023 H 0.48069 0.76423 0.60187 0.0
H1024 H 0.51852 0.7266 0.74049 0.0
H1025 H 0.50581 0.74088 0.68937 0.0
C1026 C 0.79229 0.4904 0.83585 0.0
C1027 C 0.80016 0.50574 0.86707 0.0
C1028 C 0.77639 0.48432 0.81103 0.0
C1029 C 0.73941 0.48939 0.80684 0.0
H1030 H 0.74407 0.48988 0.62995 0.0
C1031 C 0.719 0.51765 0.60767 0.0
C1032 C 0.70181 0.51043 0.61774 0.0
C1033 C 0.72772 0.51031 0.63201 0.0
C1034 C 0.74241 0.48931 0.67922 0.0
H1035 H 0.797 0.52585 0.90233 0.0
H1036 H 0.76906 0.51503 0.86028 0.0
H1037 H 0.76488 0.48869 0.69535 0.0
H1038 H 0.67999 0.48926 0.65739 0.0
H1039 H 0.69541 0.47673 0.70165 0.0
H1040 H 0.71749 0.49104 0.79068 0.0
C1041 C 0.77523 0.5078 0.85443 0.0
C1042 C 0.75423 0.48854 0.71662 0.0
C1043 C 0.79125 0.51405 0.87817 0.0
C1044 C 0.69326 0.4951 0.64883 0.0
C1045 C 0.70204 0.48794 0.67429 0.0
C1046 C 0.72743 0.48987 0.76942 0.0
C1047 C 0.76799 0.49329 0.81836 0.0
C1048 C 0.75324 0.48938 0.78068 0.0
C1049 C 0.71941 0.49578 0.66768 0.0
C1050 C 0.72929 0.49063 0.70539 0.0
H1051 H 0.79888 0.48372 0.82657 0.0
H1052 H 0.77102 0.4731 0.78342 0.0
H1053 H 0.73841 0.49005 0.85611 0.0
H1054 H 0.72586 0.52942 0.5837 0.0
H1055 H 0.74114 0.51668 0.62676 0.0
C1056 C 0.30687 0.79731 0.98843 0.0
C1057 C 0.30439 0.8087 0.95396 0.0
C1058 C 0.29739 0.7802 0.9763 0.0
C1059 C 0.26765 0.74953 0.86311 0.0
H1060 H 0.24302 0.72526 0.00714 0.0
C1061 C 0.20205 0.6926 0.84155 0.0
C1062 C 0.19068 0.69504 0.87637 0.0
C1063 C 0.21917 0.70209 0.85342 0.0
C1064 C 0.24995 0.73174 0.96649 0.0
H1065 H 0.29086 0.81129 0.8776 0.0
H1066 H 0.27433 0.78173 0.85703 0.0
H1067 H 0.26896 0.75155 0.01928 0.0
H1068 H 0.18816 0.70853 0.95307 0.0
H1069 H 0.21775 0.72507 0.9732 0.0
H1070 H 0.24778 0.73057 0.81035 0.0
C1071 C 0.28362 0.78584 0.893 0.0
C1072 C 0.2649 0.74673 0.97344 0.0
C1073 C 0.29293 0.80281 0.90543 0.0
C1074 C 0.19662 0.70649 0.92497 0.0
C1075 C 0.21361 0.7158 0.93714 0.0
C1076 C 0.25264 0.73459 0.85617 0.0
C1077 C 0.28547 0.77429 0.92899 0.0
C1078 C 0.2733 0.7563 0.92178 0.0
C1079 C 0.22512 0.71397 0.90082 0.0
C1080 C 0.24312 0.72615 0.90786 0.0
H1081 H 0.31573 0.80155 0.02588 0.0
H1082 H 0.29906 0.77157 0.00476 0.0
H1083 H 0.27409 0.7565 0.82248 0.0
H1084 H 0.19777 0.68376 0.80403 0.0
H1085 H 0.22778 0.70044 0.82469 0.0
C1086 C 0.50676 0.30322 0.20167 0.0
C1087 C 0.49033 0.29477 0.22421 0.0
C1088 C 0.51417 0.29429 0.17974 0.0
C1089 C 0.50986 0.25248 0.16826 0.0
H1090 H 0.51755 0.26223 0.99448 0.0
C1091 C 0.48952 0.21054 0.9501 0.0
C1092 C 0.49546 0.19957 0.96223 0.0
C1093 C 0.49645 0.22588 0.97996 0.0
C1094 C 0.51586 0.25959 0.04315 0.0
H1095 H 0.46949 0.27054 0.24776 0.0
H1096 H 0.48251 0.25497 0.21039 0.0
H1097 H 0.51585 0.28218 0.0629 0.0
H1098 H 0.51392 0.19632 0.01184 0.0
H1099 H 0.52571 0.22304 0.06577 0.0
H1100 H 0.50872 0.22935 0.14767 0.0
C1101 C 0.48962 0.26846 0.20914 0.0
C1102 C 0.51497 0.27101 0.08239 0.0
C1103 C 0.48211 0.27736 0.23015 0.0
C1104 C 0.50922 0.20464 0.00138 0.0
C1105 C 0.51592 0.21986 0.03239 0.0
C1106 C 0.51099 0.24116 0.12914 0.0
C1107 C 0.50539 0.27681 0.18116 0.0
C1108 C 0.51111 0.26716 0.14469 0.0
C1109 C 0.50919 0.23033 0.02339 0.0
C1110 C 0.51314 0.24425 0.0658 0.0
H1111 H 0.51348 0.31665 0.19681 0.0
H1112 H 0.52637 0.30099 0.15863 0.0
H1113 H 0.50694 0.24928 0.21617 0.0
H1114 H 0.47892 0.20687 0.9201 0.0
H1115 H 0.49091 0.23364 0.97269 0.0
C1116 C 0.37626 0.43726 0.09354 0.0
C1117 C 0.35929 0.42955 0.10896 0.0
C1118 C 0.38489 0.42857 0.0985 0.0
C1119 C 0.37997 0.38694 0.10212 0.0
H1120 H 0.42265 0.40919 0.18558 0.0
C1121 C 0.41742 0.35401 0.16204 0.0
C1122 C 0.43486 0.36361 0.1582 0.0
C1123 C 0.40763 0.36147 0.15402 0.0
C1124 C 0.41088 0.40287 0.16133 0.0
H1125 H 0.33791 0.40661 0.14035 0.0
H1126 H 0.35308 0.3913 0.1488 0.0
H1127 H 0.40652 0.42323 0.17532 0.0
H1128 H 0.45575 0.38823 0.14012 0.0
H1129 H 0.43873 0.40118 0.1245 0.0
H1130 H 0.38446 0.36667 0.08716 0.0
C1131 C 0.35964 0.40409 0.13294 0.0
C1132 C 0.40162 0.4109 0.15573 0.0
C1133 C 0.35102 0.41287 0.12858 0.0
C1134 C 0.44232 0.38063 0.1442 0.0
C1135 C 0.43257 0.38803 0.13558 0.0
C1136 C 0.38932 0.37893 0.10723 0.0
C1137 C 0.3767 0.41195 0.11857 0.0
C1138 C 0.38614 0.40307 0.12577 0.0
C1139 C 0.41513 0.37862 0.14153 0.0
C1140 C 0.40495 0.38687 0.13654 0.0
H1141 H 0.38298 0.45015 0.07882 0.0
H1142 H 0.398 0.43486 0.08662 0.0
H1143 H 0.3681 0.38068 0.07846 0.0
H1144 H 0.41138 0.34088 0.17332 0.0
H1145 H 0.39425 0.35389 0.1595 0.0
C1146 C 0.93871 0.3647 0.25175 0.0
C1147 C 0.92894 0.36039 0.30517 0.0
C1148 C 0.95602 0.37227 0.25558 0.0
C1149 C 0.9908 0.38016 0.35845 0.0
H1150 H 0.0158 0.41922 0.25628 0.0
C1151 C 0.06299 0.41673 0.34678 0.0
C1152 C 0.07042 0.43415 0.35071 0.0
C1153 C 0.04575 0.40679 0.33921 0.0
C1154 C 0.00899 0.40835 0.28513 0.0
H1155 H 0.92962 0.36014 0.40447 0.0
H1156 H 0.95995 0.37338 0.41117 0.0
H1157 H 0.98553 0.40315 0.24782 0.0
H1158 H 0.06575 0.45486 0.34869 0.0
H1159 H 0.03568 0.43753 0.33566 0.0
H1160 H 0.01432 0.38563 0.39664 0.0
C1161 C 0.95416 0.3708 0.36634 0.0
C1162 C 0.99168 0.39905 0.27987 0.0
C1163 C 0.93682 0.36324 0.36251 0.0
C1164 C 0.06033 0.44145 0.34625 0.0
C1165 C 0.04316 0.43155 0.33825 0.0
C1166 C 0.00816 0.38942 0.36345 0.0
C1167 C 0.96395 0.37564 0.31289 0.0
C1168 C 0.98238 0.38495 0.31682 0.0
C1169 C 0.03568 0.41412 0.33484 0.0
C1170 C 0.01739 0.40371 0.3273 0.0
H1171 H 0.93298 0.3623 0.20684 0.0
H1172 H 0.96322 0.37559 0.2136 0.0
H1173 H 0.98395 0.36926 0.38716 0.0
H1174 H 0.07046 0.41076 0.35063 0.0
H1175 H 0.04031 0.39339 0.33634 0.0
C1176 C 0.64778 0.05922 0.5319 0.0
C1177 C 0.63857 0.06683 0.54942 0.0
C1178 C 0.64026 0.04185 0.53049 0.0
C1179 C 0.60287 0.00331 0.5858 0.0
H1180 H 0.61221 0.98257 0.44872 0.0
C1181 C 0.55881 0.93589 0.50927 0.0
C1182 C 0.56588 0.92597 0.49516 0.0
C1183 C 0.56898 0.95283 0.52162 0.0
C1184 C 0.60966 0.9882 0.4877 0.0
H1185 H 0.61426 0.06231 0.57823 0.0
H1186 H 0.60106 0.03211 0.57456 0.0
H1187 H 0.62769 0.01285 0.45933 0.0
H1188 H 0.58904 0.92585 0.48282 0.0
H1189 H 0.60692 0.9557 0.50368 0.0
H1190 H 0.58436 0.97865 0.61257 0.0
C1191 C 0.61419 0.03946 0.5636 0.0
C1192 C 0.61854 0.00553 0.49391 0.0
C1193 C 0.62173 0.05677 0.56548 0.0
C1194 C 0.58331 0.93325 0.49396 0.0
C1195 C 0.59351 0.95028 0.5055 0.0
C1196 C 0.59389 0.98602 0.57919 0.0
C1197 C 0.62335 0.03176 0.54611 0.0
C1198 C 0.61504 0.01331 0.54245 0.0
C1199 C 0.58641 0.96021 0.51939 0.0
C1200 C 0.59702 0.97834 0.52955 0.0
H1201 H 0.66084 0.0667 0.51992 0.0
H1202 H 0.64773 0.03633 0.51753 0.0
H1203 H 0.60013 0.00885 0.62452 0.0
H1204 H 0.5454 0.93053 0.51083 0.0
H1205 H 0.5632 0.96025 0.53161 0.0
C1206 C 0.63628 0.57719 0.70325 0.0
C1207 C 0.63738 0.57131 0.645 0.0
C1208 C 0.62912 0.58727 0.71017 0.0
C1209 C 0.59834 0.59508 0.63786 0.0
H1210 H 0.61639 0.63426 0.74194 0.0
C1211 C 0.55923 0.62378 0.718 0.0
C1212 C 0.56638 0.64107 0.71049 0.0
C1213 C 0.56882 0.61617 0.71002 0.0
C1214 C 0.61129 0.62339 0.71252 0.0
H1215 H 0.63276 0.57226 0.54794 0.0
H1216 H 0.61996 0.58954 0.56033 0.0
H1217 H 0.63218 0.61976 0.72668 0.0
H1218 H 0.58923 0.66406 0.69033 0.0
H1219 H 0.60612 0.65068 0.67676 0.0
H1220 H 0.57739 0.59853 0.62418 0.0
C1221 C 0.62445 0.58616 0.60062 0.0
C1222 C 0.62023 0.61506 0.70413 0.0
C1223 C 0.6317 0.57621 0.59364 0.0
C1224 C 0.5834 0.65068 0.69593 0.0
C1225 C 0.59306 0.64307 0.68863 0.0
C1226 C 0.58933 0.60327 0.64679 0.0
C1227 C 0.62286 0.59156 0.65902 0.0
C1228 C 0.6138 0.60082 0.66678 0.0
C1229 C 0.58579 0.62572 0.69492 0.0
C1230 C 0.59568 0.61744 0.68441 0.0
H1231 H 0.64043 0.57355 0.74376 0.0
H1232 H 0.62791 0.59117 0.75577 0.0
H1233 H 0.59302 0.58403 0.60931 0.0
H1234 H 0.54611 0.61608 0.72876 0.0
H1235 H 0.56296 0.60279 0.71565 0.0
C1236 C 0.05836 0.63003 0.87671 0.0
C1237 C 0.06691 0.63485 0.82058 0.0
C1238 C 0.04102 0.6222 0.87832 0.0
C1239 C 0.00385 0.61396 0.7884 0.0
H1240 H 0.98179 0.57558 0.89575 0.0
C1241 C 0.93279 0.56652 0.78231 0.0
C1242 C 0.9249 0.5608 0.83931 0.0
C1243 C 0.95011 0.57666 0.77899 0.0
C1244 C 0.98776 0.58638 0.86608 0.0
H1245 H 0.06399 0.6359 0.72229 0.0
H1246 H 0.03361 0.62183 0.72502 0.0
H1247 H 0.01206 0.59143 0.89214 0.0
H1248 H 0.92881 0.56201 0.93764 0.0
H1249 H 0.95896 0.57962 0.93183 0.0
H1250 H 0.97939 0.60869 0.76198 0.0
C1251 C 0.04036 0.62422 0.7678 0.0
C1252 C 0.00511 0.59548 0.86407 0.0
C1253 C 0.05775 0.6321 0.76619 0.0
C1254 C 0.93458 0.56587 0.89295 0.0
C1255 C 0.95184 0.57597 0.88964 0.0
C1256 C 0.98643 0.6048 0.79034 0.0
C1257 C 0.03181 0.61895 0.82383 0.0
C1258 C 0.01335 0.60942 0.82551 0.0
C1259 C 0.95981 0.58125 0.83263 0.0
C1260 C 0.97824 0.59098 0.82951 0.0
H1261 H 0.06503 0.63185 0.91939 0.0
H1262 H 0.03479 0.61851 0.9223 0.0
H1263 H 0.00987 0.62471 0.75855 0.0
H1264 H 0.92562 0.56275 0.74023 0.0
H1265 H 0.95595 0.58047 0.73439 0.0
C1266 C 0.44162 0.06414 0.95578 0.0
C1267 C 0.43377 0.0737 0.95943 0.0
C1268 C 0.4324 0.04687 0.96171 0.0
C1269 C 0.39208 0.01233 0.01712 0.0
H1270 H 0.40501 0.98602 0.91706 0.0
C1271 C 0.35549 0.93979 3e-05 0.0
C1272 C 0.36539 0.93237 0.00812 0.0
C1273 C 0.36291 0.9571 0.99507 0.0
C1274 C 0.40131 0.99324 0.94537 0.0
H1275 H 0.41017 0.07286 0.97229 0.0
H1276 H 0.39384 0.04248 0.98114 0.0
H1277 H 0.41943 0.01615 0.90472 0.0
H1278 H 0.39068 0.93709 0.01759 0.0
H1279 H 0.40364 0.96731 0.00814 0.0
H1280 H 0.37371 0.98913 0.05681 0.0
C1281 C 0.4072 0.04836 0.97489 0.0
C1282 C 0.40961 0.01049 0.9386 0.0
C1283 C 0.4165 0.06572 0.96965 0.0
C1284 C 0.38277 0.94252 0.01177 0.0
C1285 C 0.39018 0.95975 0.00593 0.0
C1286 C 0.38362 0.99498 0.0233 0.0
C1287 C 0.41505 0.03874 0.97062 0.0
C1288 C 0.40533 0.02029 0.9752 0.0
C1289 C 0.38033 0.96717 -0.00293 0.0
C1290 C 0.38839 0.98536 0.98821 0.0
H1291 H 0.45498 0.07005 0.949 0.0
H1292 H 0.43893 0.03992 0.95983 0.0
H1293 H 0.38856 0.0195 0.04639 0.0
H1294 H 0.34204 0.9322 -0.00249 0.0
H1295 H 0.35509 0.96259 0.98813 0.0
loop_
_geom_bond_atom_site_label_1
_geom_bond_atom_site_label_2
_geom_bond_distance
_geom_bond_site_symmetry_2
_ccdc_geom_bond_type
C0 C1 1.351 . S
C0 N3 1.368 . S
C0 H5 0.931 1_556 S
C1 C0 1.351 . S
C1 N2 1.373 . S
C1 H29 0.930 . S
N2 C1 1.373 . S
N2 C4 1.340 . S
N3 C0 1.368 . S
N3 C4 1.321 . S
N3 Co6 2.135 1_556 S
C4 N2 1.340 . S
C4 N3 1.321 . S
C4 H28 0.930 . S
H5 C0 0.931 1_554 S
Co6 N3 2.135 1_554 S
Co6 N9 2.121 . S
Co6 O14 2.055 . S
Co6 O17 2.039 . S
Co6 N20 2.140 . S
C7 O8 1.227 . S
C7 O17 1.265 . S
O8 C7 1.227 . S
N9 Co6 2.121 . S
N9 C11 1.375 . S
N9 C12 1.313 . S
C10 C11 1.338 . S
C10 N13 1.377 . S
C10 H30 0.930 . S
C11 N9 1.375 . S
C11 C10 1.338 . S
C11 H15 0.931 . S
C12 N9 1.313 . S
C12 N13 1.344 . S
C12 H16 0.930 . S
N13 C10 1.377 . S
N13 C12 1.344 . S
O14 Co6 2.055 . S
O14 C18 1.253 . S
H15 C11 0.931 . S
H16 C12 0.930 . S
O17 Co6 2.039 . S
O17 C7 1.265 . S
C18 O14 1.253 . S
C18 O19 1.227 . S
O19 C18 1.227 . S
N20 Co6 2.140 . S
N20 C23 1.346 . S
N20 C24 1.345 . S
C21 C22 1.387 . S
C21 C25 1.391 . S
C22 C21 1.387 . S
C22 C23 1.369 . S
C22 H31 0.929 . S
C23 N20 1.346 . S
C23 C22 1.369 . S
C23 H26 0.928 . S
C24 N20 1.345 . S
C24 C25 1.371 . S
C24 H27 0.931 . S
C25 C21 1.391 . S
C25 C24 1.371 . S
C25 H32 0.930 . S
H26 C23 0.928 . S
H27 C24 0.931 . S
H28 C4 0.930 . S
H29 C1 0.930 . S
H30 C10 0.930 . S
H31 C22 0.929 . S
H32 C25 0.930 . S
C33 C34 1.351 . S
C33 N36 1.368 . S
C33 H38 0.931 . S
C34 C33 1.351 . S
C34 N35 1.373 . S
C34 H62 0.930 . S
N35 C34 1.373 . S
N35 C37 1.340 . S
N36 C33 1.368 . S
N36 C37 1.321 . S
N36 Co39 2.135 . S
C37 N35 1.340 . S
C37 N36 1.321 . S
C37 H61 0.930 . S
H38 C33 0.931 . S
Co39 N36 2.135 . S
Co39 N42 2.121 . S
Co39 O47 2.055 . S
Co39 O50 2.039 . S
Co39 N53 2.140 . S
C40 O41 1.227 . S
C40 O50 1.265 . S
O41 C40 1.227 . S
N42 Co39 2.121 . S
N42 C44 1.375 . S
N42 C45 1.313 . S
C43 C44 1.338 . S
C43 N46 1.377 . S
C43 H63 0.930 . S
C44 N42 1.375 . S
C44 C43 1.338 . S
C44 H48 0.931 . S
C45 N42 1.313 . S
C45 N46 1.344 . S
C45 H49 0.930 . S
N46 C43 1.377 . S
N46 C45 1.344 . S
O47 Co39 2.055 . S
O47 C51 1.253 . S
H48 C44 0.931 . S
H49 C45 0.930 . S
O50 Co39 2.039 . S
O50 C40 1.265 . S
C51 O47 1.253 . S
C51 O52 1.227 . S
O52 C51 1.227 . S
N53 Co39 2.140 . S
N53 C56 1.346 . S
N53 C57 1.345 . S
C54 C55 1.387 . S
C54 C58 1.391 . S
C55 C54 1.387 . S
C55 C56 1.369 . S
C55 H64 0.929 . S
C56 N53 1.346 . S
C56 C55 1.369 . S
C56 H59 0.928 . S
C57 N53 1.345 . S
C57 C58 1.371 . S
C57 H60 0.931 . S
C58 C54 1.391 . S
C58 C57 1.371 . S
C58 H65 0.930 . S
H59 C56 0.928 . S
H60 C57 0.931 . S
H61 C37 0.930 . S
H62 C34 0.930 . S
H63 C43 0.930 . S
H64 C55 0.929 . S
H65 C58 0.930 . S
C66 C67 1.351 . S
C66 N69 1.368 . S
C66 H71 0.931 . S
C67 C66 1.351 . S
C67 N68 1.373 . S
C67 H95 0.930 . S
N68 C67 1.373 . S
N68 C70 1.340 . S
N69 C66 1.368 . S
N69 C70 1.321 . S
N69 Co72 2.135 . S
C70 N68 1.340 . S
C70 N69 1.321 . S
C70 H94 0.930 . S
H71 C66 0.931 . S
Co72 N69 2.135 . S
Co72 N75 2.121 . S
Co72 O80 2.055 . S
Co72 O83 2.039 . S
Co72 N86 2.140 . S
C73 O74 1.227 . S
C73 O83 1.265 . S
O74 C73 1.227 . S
N75 Co72 2.121 . S
N75 C77 1.375 . S
N75 C78 1.313 . S
C76 C77 1.338 . S
C76 N79 1.377 . S
C76 H96 0.930 . S
C77 N75 1.375 . S
C77 C76 1.338 . S
C77 H81 0.931 . S
C78 N75 1.313 . S
C78 N79 1.344 . S
C78 H82 0.930 . S
N79 C76 1.377 . S
N79 C78 1.344 . S
O80 Co72 2.055 . S
O80 C84 1.253 . S
H81 C77 0.931 . S
H82 C78 0.930 . S
O83 Co72 2.039 . S
O83 C73 1.265 . S
C84 O80 1.253 . S
C84 O85 1.227 . S
O85 C84 1.227 . S
N86 Co72 2.140 . S
N86 C89 1.346 . S
N86 C90 1.345 . S
C87 C88 1.387 . S
C87 C91 1.391 . S
C88 C87 1.387 . S
C88 C89 1.369 . S
C88 H97 0.929 . S
C89 N86 1.346 . S
C89 C88 1.369 . S
C89 H92 0.928 . S
C90 N86 1.345 . S
C90 C91 1.371 . S
C90 H93 0.931 . S
C91 C87 1.391 . S
C91 C90 1.371 . S
C91 H98 0.930 . S
H92 C89 0.928 . S
H93 C90 0.931 . S
H94 C70 0.930 . S
H95 C67 0.930 . S
H96 C76 0.930 . S
H97 C88 0.929 . S
H98 C91 0.930 . S
C99 C100 1.351 . S
C99 N102 1.368 . S
C99 H104 0.931 . S
C100 C99 1.351 . S
C100 N101 1.373 . S
C100 H128 0.930 . S
N101 C100 1.373 . S
N101 C103 1.340 . S
N102 C99 1.368 . S
N102 C103 1.321 . S
N102 Co105 2.135 . S
C103 N101 1.340 . S
C103 N102 1.321 . S
C103 H127 0.930 . S
H104 C99 0.931 . S
Co105 N102 2.135 . S
Co105 N108 2.121 . S
Co105 O113 2.055 . S
Co105 O116 2.039 . S
Co105 N119 2.140 . S
C106 O107 1.227 . S
C106 O116 1.265 . S
O107 C106 1.227 . S
N108 Co105 2.121 . S
N108 C110 1.375 . S
N108 C111 1.313 . S
C109 C110 1.338 . S
C109 N112 1.377 . S
C109 H129 0.930 . S
C110 N108 1.375 . S
C110 C109 1.338 . S
C110 H114 0.931 . S
C111 N108 1.313 . S
C111 N112 1.344 . S
C111 H115 0.930 . S
N112 C109 1.377 . S
N112 C111 1.344 . S
O113 Co105 2.055 . S
O113 C117 1.253 . S
H114 C110 0.931 . S
H115 C111 0.930 . S
O116 Co105 2.039 . S
O116 C106 1.265 . S
C117 O113 1.253 . S
C117 O118 1.227 . S
O118 C117 1.227 . S
N119 Co105 2.140 . S
N119 C122 1.346 . S
N119 C123 1.345 . S
C120 C121 1.387 . S
C120 C124 1.391 . S
C121 C120 1.387 . S
C121 C122 1.369 . S
C121 H130 0.929 . S
C122 N119 1.346 . S
C122 C121 1.369 . S
C122 H125 0.928 . S
C123 N119 1.345 . S
C123 C124 1.371 . S
C123 H126 0.931 . S
C124 C120 1.391 . S
C124 C123 1.371 . S
C124 H131 0.930 . S
H125 C122 0.928 . S
H126 C123 0.931 . S
H127 C103 0.930 . S
H128 C100 0.930 . S
H129 C109 0.930 . S
H130 C121 0.929 . S
H131 C124 0.930 . S
C132 C133 1.351 . S
C132 N135 1.368 . S
C132 H137 0.931 . S
C133 C132 1.351 . S
C133 N134 1.373 . S
C133 H161 0.930 . S
N134 C133 1.373 . S
N134 C136 1.340 . S
N135 C132 1.368 . S
N135 C136 1.321 . S
N135 Co138 2.135 . S
C136 N134 1.340 . S
C136 N135 1.321 . S
C136 H160 0.930 . S
H137 C132 0.931 . S
Co138 N135 2.135 . S
Co138 N141 2.121 . S
Co138 O146 2.055 . S
Co138 O149 2.039 . S
Co138 N152 2.140 . S
C139 O140 1.227 . S
C139 O149 1.265 . S
O140 C139 1.227 . S
N141 Co138 2.121 . S
N141 C143 1.375 . S
N141 C144 1.313 . S
C142 C143 1.338 . S
C142 N145 1.377 . S
C142 H162 0.930 . S
C143 N141 1.375 . S
C143 C142 1.338 . S
C143 H147 0.931 . S
C144 N141 1.313 . S
C144 N145 1.344 . S
C144 H148 0.930 . S
N145 C142 1.377 . S
N145 C144 1.344 . S
O146 Co138 2.055 . S
O146 C150 1.253 . S
H147 C143 0.931 . S
H148 C144 0.930 . S
O149 Co138 2.039 . S
O149 C139 1.265 . S
C150 O146 1.253 . S
C150 O151 1.227 . S
O151 C150 1.227 . S
N152 Co138 2.140 . S
N152 C155 1.346 . S
N152 C156 1.345 . S
C153 C154 1.387 . S
C153 C157 1.391 . S
C154 C153 1.387 . S
C154 C155 1.369 . S
C154 H163 0.929 . S
C155 N152 1.346 . S
C155 C154 1.369 . S
C155 H158 0.928 . S
C156 N152 1.345 . S
C156 C157 1.371 . S
C156 H159 0.931 . S
C157 C153 1.391 . S
C157 C156 1.371 . S
C157 H164 0.930 . S
H158 C155 0.928 . S
H159 C156 0.931 . S
H160 C136 0.930 . S
H161 C133 0.930 . S
H162 C142 0.930 . S
H163 C154 0.929 . S
H164 C157 0.930 . S
C165 C166 1.351 . S
C165 N168 1.368 . S
C165 H170 0.931 . S
C166 C165 1.351 . S
C166 N167 1.373 . S
C166 H194 0.930 . S
N167 C166 1.373 . S
N167 C169 1.340 . S
N168 C165 1.368 . S
N168 C169 1.321 . S
N168 Co171 2.135 . S
C169 N167 1.340 . S
C169 N168 1.321 . S
C169 H193 0.930 . S
H170 C165 0.931 . S
Co171 N168 2.135 . S
Co171 N174 2.121 1_556 S
Co171 O179 2.055 . S
Co171 O182 2.039 . S
Co171 N185 2.140 . S
C172 O173 1.227 . S
C172 O182 1.265 . S
O173 C172 1.227 . S
N174 Co171 2.121 1_554 S
N174 C176 1.375 . S
N174 C177 1.313 . S
C175 C176 1.338 . S
C175 N178 1.377 . S
C175 H195 0.930 . S
C176 N174 1.375 . S
C176 C175 1.338 . S
C176 H180 0.931 . S
C177 N174 1.313 . S
C177 N178 1.344 . S
C177 H181 0.930 . S
N178 C175 1.377 . S
N178 C177 1.344 . S
O179 Co171 2.055 . S
O179 C183 1.253 . S
H180 C176 0.931 . S
H181 C177 0.930 . S
O182 Co171 2.039 . S
O182 C172 1.265 . S
C183 O179 1.253 . S
C183 O184 1.227 . S
O184 C183 1.227 . S
N185 Co171 2.140 . S
N185 C188 1.346 . S
N185 C189 1.345 . S
C186 C187 1.387 . S
C186 C190 1.391 . S
C187 C186 1.387 . S
C187 C188 1.369 . S
C187 H196 0.929 . S
C188 N185 1.346 . S
C188 C187 1.369 . S
C188 H191 0.928 . S
C189 N185 1.345 . S
C189 C190 1.371 . S
C189 H192 0.931 1_556 S
C190 C186 1.391 . S
C190 C189 1.371 . S
C190 H197 0.930 1_556 S
H191 C188 0.928 . S
H192 C189 0.931 1_554 S
H193 C169 0.930 . S
H194 C166 0.930 . S
H195 C175 0.930 . S
H196 C187 0.929 . S
H197 C190 0.930 1_554 S
C198 C199 1.351 . S
C198 N201 1.368 . S
C198 H203 0.931 . S
C199 C198 1.351 . S
C199 N200 1.373 . S
C199 H227 0.930 . S
N200 C199 1.373 . S
N200 C202 1.340 . S
N201 C198 1.368 . S
N201 C202 1.321 . S
N201 Co204 2.135 . S
C202 N200 1.340 . S
C202 N201 1.321 . S
C202 H226 0.930 . S
H203 C198 0.931 . S
Co204 N201 2.135 . S
Co204 N207 2.121 . S
Co204 O212 2.055 . S
Co204 O215 2.039 . S
Co204 N218 2.140 . S
C205 O206 1.227 . S
C205 O215 1.265 . S
O206 C205 1.227 . S
N207 Co204 2.121 . S
N207 C209 1.375 . S
N207 C210 1.313 . S
C208 C209 1.338 . S
C208 N211 1.377 . S
C208 H228 0.930 . S
C209 N207 1.375 . S
C209 C208 1.338 . S
C209 H213 0.931 . S
C210 N207 1.313 . S
C210 N211 1.344 . S
C210 H214 0.930 . S
N211 C208 1.377 . S
N211 C210 1.344 . S
O212 Co204 2.055 . S
O212 C216 1.253 . S
H213 C209 0.931 . S
H214 C210 0.930 . S
O215 Co204 2.039 . S
O215 C205 1.265 . S
C216 O212 1.253 . S
C216 O217 1.227 . S
O217 C216 1.227 . S
N218 Co204 2.140 . S
N218 C221 1.346 . S
N218 C222 1.345 . S
C219 C220 1.387 . S
C219 C223 1.391 . S
C220 C219 1.387 . S
C220 C221 1.369 . S
C220 H229 0.929 . S
C221 N218 1.346 . S
C221 C220 1.369 . S
C221 H224 0.928 . S
C222 N218 1.345 . S
C222 C223 1.371 . S
C222 H225 0.931 . S
C223 C219 1.391 . S
C223 C222 1.371 . S
C223 H230 0.930 . S
H224 C221 0.928 . S
H225 C222 0.931 . S
H226 C202 0.930 . S
H227 C199 0.930 . S
H228 C208 0.930 . S
H229 C220 0.929 . S
H230 C223 0.930 . S
C231 C232 1.351 . S
C231 N234 1.368 . S
C231 H236 0.931 1_554 S
C232 C231 1.351 . S
C232 N233 1.373 . S
C232 H260 0.930 . S
N233 C232 1.373 . S
N233 C235 1.340 . S
N234 C231 1.368 . S
N234 C235 1.321 . S
N234 Co237 2.135 1_554 S
C235 N233 1.340 . S
C235 N234 1.321 . S
C235 H259 0.930 . S
H236 C231 0.931 1_556 S
Co237 N234 2.135 1_556 S
Co237 N240 2.121 . S
Co237 O245 2.055 . S
Co237 O248 2.039 . S
Co237 N251 2.140 . S
C238 O239 1.227 . S
C238 O248 1.265 . S
O239 C238 1.227 . S
N240 Co237 2.121 . S
N240 C242 1.375 . S
N240 C243 1.313 . S
C241 C242 1.338 . S
C241 N244 1.377 . S
C241 H261 0.930 . S
C242 N240 1.375 . S
C242 C241 1.338 . S
C242 H246 0.931 . S
C243 N240 1.313 . S
C243 N244 1.344 . S
C243 H247 0.930 . S
N244 C241 1.377 . S
N244 C243 1.344 . S
O245 Co237 2.055 . S
O245 C249 1.253 . S
H246 C242 0.931 . S
H247 C243 0.930 . S
O248 Co237 2.039 . S
O248 C238 1.265 . S
C249 O245 1.253 . S
C249 O250 1.227 . S
O250 C249 1.227 . S
N251 Co237 2.140 . S
N251 C254 1.346 . S
N251 C255 1.345 . S
C252 C253 1.387 . S
C252 C256 1.391 . S
C253 C252 1.387 . S
C253 C254 1.369 . S
C253 H262 0.929 . S
C254 N251 1.346 . S
C254 C253 1.369 . S
C254 H257 0.928 . S
C255 N251 1.345 . S
C255 C256 1.371 . S
C255 H258 0.931 . S
C256 C252 1.391 . S
C256 C255 1.371 . S
C256 H263 0.930 . S
H257 C254 0.928 . S
H258 C255 0.931 . S
H259 C235 0.930 . S
H260 C232 0.930 . S
H261 C241 0.930 . S
H262 C253 0.929 . S
H263 C256 0.930 . S
C264 C265 1.351 . S
C264 N267 1.368 . S
C264 H269 0.931 . S
C265 C264 1.351 . S
C265 N266 1.373 . S
C265 H293 0.930 . S
N266 C265 1.373 . S
N266 C268 1.340 . S
N267 C264 1.368 . S
N267 C268 1.321 . S
N267 Co270 2.135 . S
C268 N266 1.340 . S
C268 N267 1.321 . S
C268 H292 0.930 . S
H269 C264 0.931 . S
Co270 N267 2.135 . S
Co270 N273 2.121 1_554 S
Co270 O278 2.055 . S
Co270 O281 2.039 . S
Co270 N284 2.140 . S
C271 O272 1.227 . S
C271 O281 1.265 . S
O272 C271 1.227 . S
N273 Co270 2.121 1_556 S
N273 C275 1.375 . S
N273 C276 1.313 . S
C274 C275 1.338 . S
C274 N277 1.377 . S
C274 H294 0.930 . S
C275 N273 1.375 . S
C275 C274 1.338 . S
C275 H279 0.931 . S
C276 N273 1.313 . S
C276 N277 1.344 . S
C276 H280 0.930 . S
N277 C274 1.377 . S
N277 C276 1.344 . S
O278 Co270 2.055 . S
O278 C282 1.253 . S
H279 C275 0.931 . S
H280 C276 0.930 . S
O281 Co270 2.039 . S
O281 C271 1.265 . S
C282 O278 1.253 . S
C282 O283 1.227 . S
O283 C282 1.227 . S
N284 Co270 2.140 . S
N284 C287 1.346 . S
N284 C288 1.345 . S
C285 C286 1.387 . S
C285 C289 1.391 . S
C286 C285 1.387 . S
C286 C287 1.369 . S
C286 H295 0.929 . S
C287 N284 1.346 . S
C287 C286 1.369 . S
C287 H290 0.928 . S
C288 N284 1.345 . S
C288 C289 1.371 . S
C288 H291 0.931 1_554 S
C289 C285 1.391 . S
C289 C288 1.371 . S
C289 H296 0.930 1_554 S
H290 C287 0.928 . S
H291 C288 0.931 1_556 S
H292 C268 0.930 . S
H293 C265 0.930 . S
H294 C274 0.930 . S
H295 C286 0.929 . S
H296 C289 0.930 1_556 S
C297 C298 1.351 . S
C297 N300 1.368 . S
C297 H302 0.931 . S
C298 C297 1.351 . S
C298 N299 1.373 . S
C298 H326 0.930 . S
N299 C298 1.373 . S
N299 C301 1.340 . S
N300 C297 1.368 . S
N300 C301 1.321 . S
N300 Co303 2.135 . S
C301 N299 1.340 . S
C301 N300 1.321 . S
C301 H325 0.930 . S
H302 C297 0.931 . S
Co303 N300 2.135 . S
Co303 N306 2.121 . S
Co303 O311 2.055 . S
Co303 O314 2.039 . S
Co303 N317 2.140 . S
C304 O305 1.227 . S
C304 O314 1.265 . S
O305 C304 1.227 . S
N306 Co303 2.121 . S
N306 C308 1.375 . S
N306 C309 1.313 . S
C307 C308 1.338 . S
C307 N310 1.377 . S
C307 H327 0.930 . S
C308 N306 1.375 . S
C308 C307 1.338 . S
C308 H312 0.931 . S
C309 N306 1.313 . S
C309 N310 1.344 . S
C309 H313 0.930 . S
N310 C307 1.377 . S
N310 C309 1.344 . S
O311 Co303 2.055 . S
O311 C315 1.253 . S
H312 C308 0.931 . S
H313 C309 0.930 . S
O314 Co303 2.039 . S
O314 C304 1.265 . S
C315 O311 1.253 . S
C315 O316 1.227 . S
O316 C315 1.227 . S
N317 Co303 2.140 . S
N317 C320 1.346 . S
N317 C321 1.345 . S
C318 C319 1.387 . S
C318 C322 1.391 . S
C319 C318 1.387 . S
C319 C320 1.369 . S
C319 H328 0.929 . S
C320 N317 1.346 . S
C320 C319 1.369 . S
C320 H323 0.928 . S
C321 N317 1.345 . S
C321 C322 1.371 . S
C321 H324 0.931 . S
C322 C318 1.391 . S
C322 C321 1.371 . S
C322 H329 0.930 . S
H323 C320 0.928 . S
H324 C321 0.931 . S
H325 C301 0.930 . S
H326 C298 0.930 . S
H327 C307 0.930 . S
H328 C319 0.929 . S
H329 C322 0.930 . S
C330 C331 1.351 . S
C330 N333 1.368 . S
C330 H335 0.931 . S
C331 C330 1.351 . S
C331 N332 1.373 . S
C331 H359 0.930 . S
N332 C331 1.373 . S
N332 C334 1.340 . S
N333 C330 1.368 . S
N333 C334 1.321 . S
N333 Co336 2.135 . S
C334 N332 1.340 . S
C334 N333 1.321 . S
C334 H358 0.930 . S
H335 C330 0.931 . S
Co336 N333 2.135 . S
Co336 N339 2.121 . S
Co336 O344 2.055 . S
Co336 O347 2.039 . S
Co336 N350 2.140 . S
C337 O338 1.227 . S
C337 O347 1.265 . S
O338 C337 1.227 . S
N339 Co336 2.121 . S
N339 C341 1.375 . S
N339 C342 1.313 . S
C340 C341 1.338 . S
C340 N343 1.377 . S
C340 H360 0.930 . S
C341 N339 1.375 . S
C341 C340 1.338 . S
C341 H345 0.931 . S
C342 N339 1.313 . S
C342 N343 1.344 . S
C342 H346 0.930 . S
N343 C340 1.377 . S
N343 C342 1.344 . S
O344 Co336 2.055 . S
O344 C348 1.253 . S
H345 C341 0.931 . S
H346 C342 0.930 . S
O347 Co336 2.039 . S
O347 C337 1.265 . S
C348 O344 1.253 . S
C348 O349 1.227 . S
O349 C348 1.227 . S
N350 Co336 2.140 . S
N350 C353 1.346 . S
N350 C354 1.345 . S
C351 C352 1.387 . S
C351 C355 1.391 . S
C352 C351 1.387 . S
C352 C353 1.369 . S
C352 H361 0.929 . S
C353 N350 1.346 . S
C353 C352 1.369 . S
C353 H356 0.928 . S
C354 N350 1.345 . S
C354 C355 1.371 . S
C354 H357 0.931 . S
C355 C351 1.391 . S
C355 C354 1.371 . S
C355 H362 0.930 . S
H356 C353 0.928 . S
H357 C354 0.931 . S
H358 C334 0.930 . S
H359 C331 0.930 . S
H360 C340 0.930 . S
H361 C352 0.929 . S
H362 C355 0.930 . S
C363 C364 1.351 . S
C363 N366 1.368 . S
C363 H368 0.931 . S
C364 C363 1.351 . S
C364 N365 1.373 . S
C364 H392 0.930 . S
N365 C364 1.373 . S
N365 C367 1.340 . S
N366 C363 1.368 . S
N366 C367 1.321 . S
N366 Co369 2.135 . S
C367 N365 1.340 . S
C367 N366 1.321 . S
C367 H391 0.930 . S
H368 C363 0.931 . S
Co369 N366 2.135 . S
Co369 N372 2.121 . S
Co369 O377 2.055 . S
Co369 O380 2.039 . S
Co369 N383 2.140 . S
C370 O371 1.227 . S
C370 O380 1.265 . S
O371 C370 1.227 . S
N372 Co369 2.121 . S
N372 C374 1.375 . S
N372 C375 1.313 . S
C373 C374 1.338 . S
C373 N376 1.377 . S
C373 H393 0.930 . S
C374 N372 1.375 . S
C374 C373 1.338 . S
C374 H378 0.931 . S
C375 N372 1.313 . S
C375 N376 1.344 . S
C375 H379 0.930 . S
N376 C373 1.377 . S
N376 C375 1.344 . S
O377 Co369 2.055 . S
O377 C381 1.253 . S
H378 C374 0.931 . S
H379 C375 0.930 . S
O380 Co369 2.039 . S
O380 C370 1.265 . S
C381 O377 1.253 . S
C381 O382 1.227 . S
O382 C381 1.227 . S
N383 Co369 2.140 . S
N383 C386 1.346 . S
N383 C387 1.345 . S
C384 C385 1.387 . S
C384 C388 1.391 . S
C385 C384 1.387 . S
C385 C386 1.369 . S
C385 H394 0.929 . S
C386 N383 1.346 . S
C386 C385 1.369 . S
C386 H389 0.928 . S
C387 N383 1.345 . S
C387 C388 1.371 . S
C387 H390 0.931 . S
C388 C384 1.391 . S
C388 C387 1.371 . S
C388 H395 0.930 . S
H389 C386 0.928 . S
H390 C387 0.931 . S
H391 C367 0.930 . S
H392 C364 0.930 . S
H393 C373 0.930 . S
H394 C385 0.929 . S
H395 C388 0.930 . S
C396 C397 1.349 . S
C396 C398 1.327 . S
C396 H421 0.950 . S
C397 C396 1.349 . S
C397 C413 1.349 . S
C398 C396 1.327 . S
C398 C417 1.429 . S
C398 H422 0.950 . S
C399 C416 1.574 . S
C399 C418 1.368 . S
C399 H423 0.949 . S
H400 C404 0.949 . S
C401 C402 1.349 . S
C401 C403 1.327 . S
C401 H424 0.950 . S
C402 C401 1.349 . S
C402 C414 1.349 . S
C403 C401 1.327 . S
C403 C419 1.429 . S
C403 H425 0.950 . S
C404 H400 0.949 . S
C404 C412 1.574 . S
C404 C420 1.368 . S
H405 C413 0.950 . S
H406 C411 0.950 . S
H407 C412 0.949 . S
H408 C414 0.950 . S
H409 C415 0.950 . S
H410 C416 0.949 . S
C411 H406 0.950 . S
C411 C413 1.327 . S
C411 C417 1.429 . S
C412 C404 1.574 . S
C412 H407 0.949 . S
C412 C418 1.368 . S
C413 C397 1.349 . S
C413 H405 0.950 . S
C413 C411 1.327 . S
C414 C402 1.349 . S
C414 H408 0.950 . S
C414 C415 1.327 . S
C415 H409 0.950 . S
C415 C414 1.327 . S
C415 C419 1.429 . S
C416 C399 1.574 . S
C416 H410 0.949 . S
C416 C420 1.368 . S
C417 C398 1.429 . S
C417 C411 1.429 . S
C417 C418 1.523 . S
C418 C399 1.368 . S
C418 C412 1.368 . S
C418 C417 1.523 . S
C419 C403 1.429 . S
C419 C415 1.429 . S
C419 C420 1.523 . S
C420 C404 1.368 . S
C420 C416 1.368 . S
C420 C419 1.523 . S
H421 C396 0.950 . S
H422 C398 0.950 . S
H423 C399 0.949 . S
H424 C401 0.950 . S
H425 C403 0.950 . S
C426 C427 1.349 1_556 S
C426 C428 1.327 . S
C426 H451 0.950 1_556 S
C427 C426 1.349 1_554 S
C427 C443 1.349 1_554 S
C428 C426 1.327 . S
C428 C447 1.429 . S
C428 H452 0.950 . S
C429 C446 1.574 . S
C429 C448 1.368 . S
C429 H453 0.949 . S
H430 C434 0.949 . S
C431 C432 1.349 . S
C431 C433 1.327 . S
C431 H454 0.950 . S
C432 C431 1.349 . S
C432 C444 1.349 . S
C433 C431 1.327 . S
C433 C449 1.429 . S
C433 H455 0.950 . S
C434 H430 0.949 . S
C434 C442 1.574 . S
C434 C450 1.368 . S
H435 C443 0.950 1_554 S
H436 C441 0.950 . S
H437 C442 0.949 . S
H438 C444 0.950 . S
H439 C445 0.950 . S
H440 C446 0.949 . S
C441 H436 0.950 . S
C441 C443 1.327 . S
C441 C447 1.429 . S
C442 C434 1.574 . S
C442 H437 0.949 . S
C442 C448 1.368 . S
C443 C427 1.349 1_556 S
C443 H435 0.950 1_556 S
C443 C441 1.327 . S
C444 C432 1.349 . S
C444 H438 0.950 . S
C444 C445 1.327 . S
C445 H439 0.950 . S
C445 C444 1.327 . S
C445 C449 1.429 . S
C446 C429 1.574 . S
C446 H440 0.949 . S
C446 C450 1.368 . S
C447 C428 1.429 . S
C447 C441 1.429 . S
C447 C448 1.523 . S
C448 C429 1.368 . S
C448 C442 1.368 . S
C448 C447 1.523 . S
C449 C433 1.429 . S
C449 C445 1.429 . S
C449 C450 1.523 . S
C450 C434 1.368 . S
C450 C446 1.368 . S
C450 C449 1.523 . S
H451 C426 0.950 1_554 S
H452 C428 0.950 . S
H453 C429 0.949 . S
H454 C431 0.950 . S
H455 C433 0.950 . S
C456 C457 1.349 . S
C456 C458 1.327 . S
C456 H481 0.950 . S
C457 C456 1.349 . S
C457 C473 1.349 . S
C458 C456 1.327 . S
C458 C477 1.429 . S
C458 H482 0.950 . S
C459 C476 1.574 . S
C459 C478 1.368 . S
C459 H483 0.949 . S
H460 C464 0.949 . S
C461 C462 1.349 . S
C461 C463 1.327 . S
C461 H484 0.950 . S
C462 C461 1.349 . S
C462 C474 1.349 . S
C463 C461 1.327 . S
C463 C479 1.429 . S
C463 H485 0.950 . S
C464 H460 0.949 . S
C464 C472 1.574 . S
C464 C480 1.368 . S
H465 C473 0.950 . S
H466 C471 0.950 . S
H467 C472 0.949 . S
H468 C474 0.950 . S
H469 C475 0.950 . S
H470 C476 0.949 . S
C471 H466 0.950 . S
C471 C473 1.327 . S
C471 C477 1.429 . S
C472 C464 1.574 . S
C472 H467 0.949 . S
C472 C478 1.368 . S
C473 C457 1.349 . S
C473 H465 0.950 . S
C473 C471 1.327 . S
C474 C462 1.349 . S
C474 H468 0.950 . S
C474 C475 1.327 . S
C475 H469 0.950 . S
C475 C474 1.327 . S
C475 C479 1.429 . S
C476 C459 1.574 . S
C476 H470 0.949 . S
C476 C480 1.368 . S
C477 C458 1.429 . S
C477 C471 1.429 . S
C477 C478 1.523 1_554 S
C478 C459 1.368 . S
C478 C472 1.368 . S
C478 C477 1.523 1_556 S
C479 C463 1.429 . S
C479 C475 1.429 . S
C479 C480 1.523 . S
C480 C464 1.368 . S
C480 C476 1.368 . S
C480 C479 1.523 . S
H481 C456 0.950 . S
H482 C458 0.950 . S
H483 C459 0.949 . S
H484 C461 0.950 . S
H485 C463 0.950 . S
C486 C487 1.349 . S
C486 C488 1.327 . S
C486 H511 0.950 . S
C487 C486 1.349 . S
C487 C503 1.349 . S
C488 C486 1.327 . S
C488 C507 1.429 . S
C488 H512 0.950 . S
C489 C506 1.574 . S
C489 C508 1.368 . S
C489 H513 0.949 . S
H490 C494 0.949 . S
C491 C492 1.349 . S
C491 C493 1.327 . S
C491 H514 0.950 . S
C492 C491 1.349 . S
C492 C504 1.349 . S
C493 C491 1.327 . S
C493 C509 1.429 . S
C493 H515 0.950 . S
C494 H490 0.949 . S
C494 C502 1.574 . S
C494 C510 1.368 . S
H495 C503 0.950 . S
H496 C501 0.950 . S
H497 C502 0.949 . S
H498 C504 0.950 . S
H499 C505 0.950 . S
H500 C506 0.949 . S
C501 H496 0.950 . S
C501 C503 1.327 . S
C501 C507 1.429 . S
C502 C494 1.574 . S
C502 H497 0.949 . S
C502 C508 1.368 . S
C503 C487 1.349 . S
C503 H495 0.950 . S
C503 C501 1.327 . S
C504 C492 1.349 . S
C504 H498 0.950 . S
C504 C505 1.327 . S
C505 H499 0.950 . S
C505 C504 1.327 . S
C505 C509 1.429 . S
C506 C489 1.574 . S
C506 H500 0.949 . S
C506 C510 1.368 . S
C507 C488 1.429 . S
C507 C501 1.429 . S
C507 C508 1.523 1_556 S
C508 C489 1.368 . S
C508 C502 1.368 . S
C508 C507 1.523 1_554 S
C509 C493 1.429 . S
C509 C505 1.429 . S
C509 C510 1.523 . S
C510 C494 1.368 . S
C510 C506 1.368 . S
C510 C509 1.523 . S
H511 C486 0.950 . S
H512 C488 0.950 . S
H513 C489 0.949 . S
H514 C491 0.950 . S
H515 C493 0.950 . S
C516 C517 1.354 . S
C516 C518 1.327 . S
C516 H541 0.952 . S
C517 C516 1.354 . S
C517 C533 1.355 . S
C518 C516 1.327 . S
C518 C537 1.429 . S
C518 H542 0.950 . S
C519 C536 1.574 . S
C519 C538 1.368 . S
C519 H543 0.949 . S
H520 C524 0.949 . S
C521 C522 1.349 . S
C521 C523 1.327 . S
C521 H544 0.950 . S
C522 C521 1.349 . S
C522 C534 1.349 . S
C523 C521 1.327 . S
C523 C539 1.429 . S
C523 H545 0.950 . S
C524 H520 0.949 . S
C524 C532 1.574 . S
C524 C540 1.368 . S
H525 C533 0.950 . S
H526 C531 0.950 . S
H527 C532 0.949 . S
H528 C534 0.950 . S
H529 C535 0.950 . S
H530 C536 0.949 . S
C531 H526 0.950 . S
C531 C533 1.327 . S
C531 C537 1.429 . S
C532 C524 1.574 . S
C532 H527 0.949 . S
C532 C538 1.368 . S
C533 C517 1.355 . S
C533 H525 0.950 . S
C533 C531 1.327 . S
C534 C522 1.349 . S
C534 H528 0.950 . S
C534 C535 1.327 . S
C535 H529 0.950 . S
C535 C534 1.327 . S
C535 C539 1.429 . S
C536 C519 1.574 . S
C536 H530 0.949 . S
C536 C540 1.368 . S
C537 C518 1.429 . S
C537 C531 1.429 . S
C537 C538 1.523 . S
C538 C519 1.368 . S
C538 C532 1.368 . S
C538 C537 1.523 . S
C539 C523 1.429 . S
C539 C535 1.429 . S
C539 C540 1.523 . S
C540 C524 1.368 . S
C540 C536 1.368 . S
C540 C539 1.523 . S
H541 C516 0.952 . S
H542 C518 0.950 . S
H543 C519 0.949 . S
H544 C521 0.950 . S
H545 C523 0.950 . S
C546 C547 1.349 . S
C546 C548 1.327 . S
C546 H571 0.950 . S
C547 C546 1.349 . S
C547 C563 1.349 . S
C548 C546 1.327 . S
C548 C567 1.429 . S
C548 H572 0.950 . S
C549 C566 1.574 . S
C549 C568 1.368 . S
C549 H573 0.949 . S
H550 C554 0.949 . S
C551 C552 1.349 . S
C551 C553 1.327 . S
C551 H574 0.950 . S
C552 C551 1.349 . S
C552 C564 1.349 . S
C553 C551 1.327 . S
C553 C569 1.429 . S
C553 H575 0.950 . S
C554 H550 0.949 . S
C554 C562 1.574 . S
C554 C570 1.368 . S
H555 C563 0.950 . S
H556 C561 0.950 . S
H557 C562 0.949 . S
H558 C564 0.950 . S
H559 C565 0.950 . S
H560 C566 0.949 . S
C561 H556 0.950 . S
C561 C563 1.327 . S
C561 C567 1.429 . S
C562 C554 1.574 . S
C562 H557 0.949 . S
C562 C568 1.368 . S
C563 C547 1.349 . S
C563 H555 0.950 . S
C563 C561 1.327 . S
C564 C552 1.349 . S
C564 H558 0.950 . S
C564 C565 1.327 . S
C565 H559 0.950 . S
C565 C564 1.327 . S
C565 C569 1.429 . S
C566 C549 1.574 . S
C566 H560 0.949 . S
C566 C570 1.368 . S
C567 C548 1.429 . S
C567 C561 1.429 . S
C567 C568 1.523 . S
C568 C549 1.368 . S
C568 C562 1.368 . S
C568 C567 1.523 . S
C569 C553 1.429 . S
C569 C565 1.429 . S
C569 C570 1.523 . S
C570 C554 1.368 . S
C570 C566 1.368 . S
C570 C569 1.523 . S
H571 C546 0.950 . S
H572 C548 0.950 . S
H573 C549 0.949 . S
H574 C551 0.950 . S
H575 C553 0.950 . S
C576 C577 1.349 . S
C576 C578 1.327 . S
C576 H601 0.950 . S
C577 C576 1.349 . S
C577 C593 1.349 . S
C578 C576 1.327 . S
C578 C597 1.429 . S
C578 H602 0.950 . S
C579 C596 1.574 . S
C579 C598 1.368 . S
C579 H603 0.949 . S
H580 C584 0.949 . S
C581 C582 1.349 1_554 S
C581 C583 1.327 . S
C581 H604 0.950 . S
C582 C581 1.349 1_556 S
C582 C594 1.349 1_556 S
C583 C581 1.327 . S
C583 C599 1.429 . S
C583 H605 0.950 . S
C584 H580 0.949 . S
C584 C592 1.574 . S
C584 C600 1.368 . S
H585 C593 0.950 . S
H586 C591 0.950 . S
H587 C592 0.949 . S
H588 C594 0.950 1_556 S
H589 C595 0.950 . S
H590 C596 0.949 . S
C591 H586 0.950 . S
C591 C593 1.327 . S
C591 C597 1.429 . S
C592 C584 1.574 . S
C592 H587 0.949 . S
C592 C598 1.368 . S
C593 C577 1.349 . S
C593 H585 0.950 . S
C593 C591 1.327 . S
C594 C582 1.349 1_554 S
C594 H588 0.950 1_554 S
C594 C595 1.327 . S
C595 H589 0.950 . S
C595 C594 1.327 . S
C595 C599 1.429 . S
C596 C579 1.574 . S
C596 H590 0.949 . S
C596 C600 1.368 . S
C597 C578 1.429 . S
C597 C591 1.429 . S
C597 C598 1.523 . S
C598 C579 1.368 . S
C598 C592 1.368 . S
C598 C597 1.523 . S
C599 C583 1.429 . S
C599 C595 1.429 . S
C599 C600 1.523 . S
C600 C584 1.368 . S
C600 C596 1.368 . S
C600 C599 1.523 . S
H601 C576 0.950 . S
H602 C578 0.950 . S
H603 C579 0.949 . S
H604 C581 0.950 . S
H605 C583 0.950 . S
C606 C607 1.349 . S
C606 C608 1.327 . S
C606 H631 0.950 . S
C607 C606 1.349 . S
C607 C623 1.349 . S
C608 C606 1.327 . S
C608 C627 1.429 . S
C608 H632 0.950 . S
C609 C626 1.574 . S
C609 C628 1.368 . S
C609 H633 0.949 . S
H610 C614 0.949 . S
C611 C612 1.349 . S
C611 C613 1.327 . S
C611 H634 0.950 . S
C612 C611 1.349 . S
C612 C624 1.349 . S
C613 C611 1.327 . S
C613 C629 1.429 . S
C613 H635 0.950 . S
C614 H610 0.949 . S
C614 C622 1.574 . S
C614 C630 1.368 . S
H615 C623 0.950 . S
H616 C621 0.950 . S
H617 C622 0.949 . S
H618 C624 0.950 . S
H619 C625 0.950 . S
H620 C626 0.949 . S
C621 H616 0.950 . S
C621 C623 1.327 . S
C621 C627 1.429 . S
C622 C614 1.574 . S
C622 H617 0.949 . S
C622 C628 1.368 . S
C623 C607 1.349 . S
C623 H615 0.950 . S
C623 C621 1.327 . S
C624 C612 1.349 . S
C624 H618 0.950 . S
C624 C625 1.327 . S
C625 H619 0.950 . S
C625 C624 1.327 . S
C625 C629 1.429 . S
C626 C609 1.574 . S
C626 H620 0.949 . S
C626 C630 1.368 . S
C627 C608 1.429 . S
C627 C621 1.429 . S
C627 C628 1.523 . S
C628 C609 1.368 . S
C628 C622 1.368 . S
C628 C627 1.523 . S
C629 C613 1.429 . S
C629 C625 1.429 . S
C629 C630 1.523 . S
C630 C614 1.368 . S
C630 C626 1.368 . S
C630 C629 1.523 . S
H631 C606 0.950 . S
H632 C608 0.950 . S
H633 C609 0.949 . S
H634 C611 0.950 . S
H635 C613 0.950 . S
C636 C637 1.349 . S
C636 C638 1.327 . S
C636 H661 0.950 . S
C637 C636 1.349 . S
C637 C653 1.349 . S
C638 C636 1.327 . S
C638 C657 1.429 . S
C638 H662 0.950 . S
C639 C656 1.574 . S
C639 C658 1.368 . S
C639 H663 0.949 . S
H640 C644 0.949 . S
C641 C642 1.349 . S
C641 C643 1.327 . S
C641 H664 0.950 . S
C642 C641 1.349 . S
C642 C654 1.349 . S
C643 C641 1.327 . S
C643 C659 1.429 . S
C643 H665 0.950 . S
C644 H640 0.949 . S
C644 C652 1.574 . S
C644 C660 1.368 . S
H645 C653 0.950 . S
H646 C651 0.950 . S
H647 C652 0.949 . S
H648 C654 0.950 . S
H649 C655 0.950 . S
H650 C656 0.949 . S
C651 H646 0.950 . S
C651 C653 1.327 . S
C651 C657 1.429 . S
C652 C644 1.574 . S
C652 H647 0.949 . S
C652 C658 1.368 . S
C653 C637 1.349 . S
C653 H645 0.950 . S
C653 C651 1.327 . S
C654 C642 1.349 . S
C654 H648 0.950 . S
C654 C655 1.327 . S
C655 H649 0.950 . S
C655 C654 1.327 . S
C655 C659 1.429 . S
C656 C639 1.574 . S
C656 H650 0.949 . S
C656 C660 1.368 . S
C657 C638 1.429 . S
C657 C651 1.429 . S
C657 C658 1.523 . S
C658 C639 1.368 . S
C658 C652 1.368 . S
C658 C657 1.523 . S
C659 C643 1.429 . S
C659 C655 1.429 . S
C659 C660 1.523 . S
C660 C644 1.368 . S
C660 C656 1.368 . S
C660 C659 1.523 . S
H661 C636 0.950 . S
H662 C638 0.950 . S
H663 C639 0.949 . S
H664 C641 0.950 . S
H665 C643 0.950 . S
C666 C667 1.356 . S
C666 C668 1.327 . S
C666 H691 0.950 . S
C667 C666 1.356 . S
C667 C683 1.354 . S
C668 C666 1.327 . S
C668 C687 1.429 . S
C668 H692 0.950 . S
C669 C686 1.574 . S
C669 C688 1.368 . S
C669 H693 0.949 . S
H670 C674 0.949 . S
C671 C672 1.349 . S
C671 C673 1.327 . S
C671 H694 0.950 . S
C672 C671 1.349 . S
C672 C684 1.349 . S
C673 C671 1.327 . S
C673 C689 1.429 . S
C673 H695 0.950 . S
C674 H670 0.949 . S
C674 C682 1.574 . S
C674 C690 1.368 . S
H675 C683 0.950 1_554 S
H676 C681 0.950 . S
H677 C682 0.949 . S
H678 C684 0.950 . S
H679 C685 0.950 . S
H680 C686 0.949 . S
C681 H676 0.950 . S
C681 C683 1.327 . S
C681 C687 1.429 . S
C682 C674 1.574 . S
C682 H677 0.949 . S
C682 C688 1.368 . S
C683 C667 1.354 . S
C683 H675 0.950 1_556 S
C683 C681 1.327 . S
C684 C672 1.349 . S
C684 H678 0.950 . S
C684 C685 1.327 . S
C685 H679 0.950 . S
C685 C684 1.327 . S
C685 C689 1.429 . S
C686 C669 1.574 . S
C686 H680 0.949 . S
C686 C690 1.368 . S
C687 C668 1.429 . S
C687 C681 1.429 . S
C687 C688 1.523 . S
C688 C669 1.368 . S
C688 C682 1.368 . S
C688 C687 1.523 . S
C689 C673 1.429 . S
C689 C685 1.429 . S
C689 C690 1.523 . S
C690 C674 1.368 . S
C690 C686 1.368 . S
C690 C689 1.523 . S
H691 C666 0.950 . S
H692 C668 0.950 . S
H693 C669 0.949 . S
H694 C671 0.950 . S
H695 C673 0.950 . S
C696 C697 1.349 . S
C696 C698 1.327 . S
C696 H721 0.950 . S
C697 C696 1.349 . S
C697 C713 1.349 . S
C698 C696 1.327 . S
C698 C717 1.429 . S
C698 H722 0.950 . S
C699 C716 1.574 . S
C699 C718 1.368 . S
C699 H723 0.949 . S
H700 C704 0.949 . S
C701 C702 1.349 . S
C701 C703 1.327 . S
C701 H724 0.950 . S
C702 C701 1.349 . S
C702 C714 1.349 . S
C703 C701 1.327 . S
C703 C719 1.429 . S
C703 H725 0.950 . S
C704 H700 0.949 . S
C704 C712 1.574 . S
C704 C720 1.368 . S
H705 C713 0.950 . S
H706 C711 0.950 . S
H707 C712 0.949 . S
H708 C714 0.950 . S
H709 C715 0.950 . S
H710 C716 0.949 . S
C711 H706 0.950 . S
C711 C713 1.327 . S
C711 C717 1.429 . S
C712 C704 1.574 . S
C712 H707 0.949 . S
C712 C718 1.368 . S
C713 C697 1.349 . S
C713 H705 0.950 . S
C713 C711 1.327 . S
C714 C702 1.349 . S
C714 H708 0.950 . S
C714 C715 1.327 . S
C715 H709 0.950 . S
C715 C714 1.327 . S
C715 C719 1.429 . S
C716 C699 1.574 . S
C716 H710 0.949 . S
C716 C720 1.368 . S
C717 C698 1.429 . S
C717 C711 1.429 . S
C717 C718 1.523 1_554 S
C718 C699 1.368 . S
C718 C712 1.368 . S
C718 C717 1.523 1_556 S
C719 C703 1.429 . S
C719 C715 1.429 . S
C719 C720 1.523 . S
C720 C704 1.368 . S
C720 C716 1.368 . S
C720 C719 1.523 . S
H721 C696 0.950 . S
H722 C698 0.950 . S
H723 C699 0.949 . S
H724 C701 0.950 . S
H725 C703 0.950 . S
C726 C727 1.349 . S
C726 C728 1.327 . S
C726 H751 0.950 . S
C727 C726 1.349 . S
C727 C743 1.349 . S
C728 C726 1.327 . S
C728 C747 1.429 . S
C728 H752 0.950 . S
C729 C746 1.574 . S
C729 C748 1.368 . S
C729 H753 0.949 . S
H730 C734 0.949 . S
C731 C732 1.349 . S
C731 C733 1.327 . S
C731 H754 0.950 . S
C732 C731 1.349 . S
C732 C744 1.349 . S
C733 C731 1.327 . S
C733 C749 1.429 . S
C733 H755 0.950 . S
C734 H730 0.949 . S
C734 C742 1.574 . S
C734 C750 1.368 . S
H735 C743 0.950 . S
H736 C741 0.950 . S
H737 C742 0.949 . S
H738 C744 0.950 . S
H739 C745 0.950 . S
H740 C746 0.949 . S
C741 H736 0.950 . S
C741 C743 1.327 . S
C741 C747 1.429 . S
C742 C734 1.574 . S
C742 H737 0.949 . S
C742 C748 1.368 . S
C743 C727 1.349 . S
C743 H735 0.950 . S
C743 C741 1.327 . S
C744 C732 1.349 . S
C744 H738 0.950 . S
C744 C745 1.327 . S
C745 H739 0.950 . S
C745 C744 1.327 . S
C745 C749 1.429 . S
C746 C729 1.574 . S
C746 H740 0.949 . S
C746 C750 1.368 . S
C747 C728 1.429 . S
C747 C741 1.429 . S
C747 C748 1.523 1_556 S
C748 C729 1.368 . S
C748 C742 1.368 . S
C748 C747 1.523 1_554 S
C749 C733 1.429 . S
C749 C745 1.429 . S
C749 C750 1.523 . S
C750 C734 1.368 . S
C750 C746 1.368 . S
C750 C749 1.523 . S
H751 C726 0.950 . S
H752 C728 0.950 . S
H753 C729 0.949 . S
H754 C731 0.950 . S
H755 C733 0.950 . S
C756 C757 1.349 . S
C756 C758 1.327 . S
C756 H781 0.950 . S
C757 C756 1.349 . S
C757 C773 1.349 . S
C758 C756 1.327 . S
C758 C777 1.429 . S
C758 H782 0.950 . S
C759 C776 1.574 . S
C759 C778 1.368 . S
C759 H783 0.949 . S
H760 C764 0.949 1_554 S
C761 C762 1.349 1_556 S
C761 C763 1.327 . S
C761 H784 0.950 . S
C762 C761 1.349 1_554 S
C762 C774 1.349 . S
C763 C761 1.327 . S
C763 C779 1.429 . S
C763 H785 0.950 . S
C764 H760 0.949 1_556 S
C764 C772 1.574 . S
C764 C780 1.368 . S
H765 C773 0.950 . S
H766 C771 0.950 . S
H767 C772 0.949 . S
H768 C774 0.950 . S
H769 C775 0.950 . S
H770 C776 0.949 . S
C771 H766 0.950 . S
C771 C773 1.327 . S
C771 C777 1.429 . S
C772 C764 1.574 . S
C772 H767 0.949 . S
C772 C778 1.368 . S
C773 C757 1.349 . S
C773 H765 0.950 . S
C773 C771 1.327 . S
C774 C762 1.349 . S
C774 H768 0.950 . S
C774 C775 1.327 . S
C775 H769 0.950 . S
C775 C774 1.327 . S
C775 C779 1.429 1_554 S
C776 C759 1.574 . S
C776 H770 0.949 . S
C776 C780 1.368 . S
C777 C758 1.429 . S
C777 C771 1.429 . S
C777 C778 1.523 . S
C778 C759 1.368 . S
C778 C772 1.368 . S
C778 C777 1.523 . S
C779 C763 1.429 . S
C779 C775 1.429 1_556 S
C779 C780 1.523 . S
C780 C764 1.368 . S
C780 C776 1.368 . S
C780 C779 1.523 . S
H781 C756 0.950 . S
H782 C758 0.950 . S
H783 C759 0.949 . S
H784 C761 0.950 . S
H785 C763 0.950 . S
C786 C787 1.349 . S
C786 C788 1.327 . S
C786 H811 0.950 . S
C787 C786 1.349 . S
C787 C803 1.349 . S
C788 C786 1.327 . S
C788 C807 1.429 . S
C788 H812 0.950 . S
C789 C806 1.574 . S
C789 C808 1.368 . S
C789 H813 0.949 . S
H790 C794 0.949 1_556 S
C791 C792 1.349 1_554 S
C791 C793 1.327 . S
C791 H814 0.950 . S
C792 C791 1.349 1_556 S
C792 C804 1.349 . S
C793 C791 1.327 . S
C793 C809 1.429 . S
C793 H815 0.950 . S
C794 H790 0.949 1_554 S
C794 C802 1.574 . S
C794 C810 1.368 . S
H795 C803 0.950 . S
H796 C801 0.950 . S
H797 C802 0.949 . S
H798 C804 0.950 . S
H799 C805 0.950 . S
H800 C806 0.949 . S
C801 H796 0.950 . S
C801 C803 1.327 . S
C801 C807 1.429 . S
C802 C794 1.574 . S
C802 H797 0.949 . S
C802 C808 1.368 . S
C803 C787 1.349 . S
C803 H795 0.950 . S
C803 C801 1.327 . S
C804 C792 1.349 . S
C804 H798 0.950 . S
C804 C805 1.327 . S
C805 H799 0.950 . S
C805 C804 1.327 . S
C805 C809 1.429 1_556 S
C806 C789 1.574 . S
C806 H800 0.949 . S
C806 C810 1.368 . S
C807 C788 1.429 . S
C807 C801 1.429 . S
C807 C808 1.523 . S
C808 C789 1.368 . S
C808 C802 1.368 . S
C808 C807 1.523 . S
C809 C793 1.429 . S
C809 C805 1.429 1_554 S
C809 C810 1.523 . S
C810 C794 1.368 . S
C810 C806 1.368 . S
C810 C809 1.523 . S
H811 C786 0.950 . S
H812 C788 0.950 . S
H813 C789 0.949 . S
H814 C791 0.950 . S
H815 C793 0.950 . S
C816 C817 1.349 . S
C816 C818 1.327 . S
C816 H841 0.950 . S
C817 C816 1.349 . S
C817 C833 1.349 . S
C818 C816 1.327 . S
C818 C837 1.429 . S
C818 H842 0.950 . S
C819 C836 1.574 . S
C819 C838 1.368 . S
C819 H843 0.949 . S
H820 C824 0.949 . S
C821 C822 1.349 . S
C821 C823 1.327 . S
C821 H844 0.950 . S
C822 C821 1.349 . S
C822 C834 1.349 . S
C823 C821 1.327 . S
C823 C839 1.429 . S
C823 H845 0.950 . S
C824 H820 0.949 . S
C824 C832 1.574 . S
C824 C840 1.368 . S
H825 C833 0.950 . S
H826 C831 0.950 . S
H827 C832 0.949 . S
H828 C834 0.950 . S
H829 C835 0.950 . S
H830 C836 0.949 . S
C831 H826 0.950 . S
C831 C833 1.327 . S
C831 C837 1.429 . S
C832 C824 1.574 . S
C832 H827 0.949 . S
C832 C838 1.368 . S
C833 C817 1.349 . S
C833 H825 0.950 . S
C833 C831 1.327 . S
C834 C822 1.349 . S
C834 H828 0.950 . S
C834 C835 1.327 . S
C835 H829 0.950 . S
C835 C834 1.327 . S
C835 C839 1.429 . S
C836 C819 1.574 . S
C836 H830 0.949 . S
C836 C840 1.368 . S
C837 C818 1.429 . S
C837 C831 1.429 . S
C837 C838 1.523 . S
C838 C819 1.368 . S
C838 C832 1.368 . S
C838 C837 1.523 . S
C839 C823 1.429 . S
C839 C835 1.429 . S
C839 C840 1.523 . S
C840 C824 1.368 . S
C840 C836 1.368 . S
C840 C839 1.523 . S
H841 C816 0.950 . S
H842 C818 0.950 . S
H843 C819 0.949 . S
H844 C821 0.950 . S
H845 C823 0.950 . S
C846 C847 1.349 . S
C846 C848 1.327 . S
C846 H871 0.950 . S
C847 C846 1.349 . S
C847 C863 1.349 . S
C848 C846 1.327 . S
C848 C867 1.429 . S
C848 H872 0.950 . S
C849 C866 1.574 . S
C849 C868 1.368 . S
C849 H873 0.949 . S
H850 C854 0.949 . S
C851 C852 1.349 . S
C851 C853 1.327 . S
C851 H874 0.950 . S
C852 C851 1.349 . S
C852 C864 1.349 . S
C853 C851 1.327 . S
C853 C869 1.429 . S
C853 H875 0.950 . S
C854 H850 0.949 . S
C854 C862 1.574 . S
C854 C870 1.368 . S
H855 C863 0.950 . S
H856 C861 0.950 . S
H857 C862 0.949 . S
H858 C864 0.950 . S
H859 C865 0.950 . S
H860 C866 0.949 . S
C861 H856 0.950 . S
C861 C863 1.327 . S
C861 C867 1.429 . S
C862 C854 1.574 . S
C862 H857 0.949 . S
C862 C868 1.368 . S
C863 C847 1.349 . S
C863 H855 0.950 . S
C863 C861 1.327 . S
C864 C852 1.349 . S
C864 H858 0.950 . S
C864 C865 1.327 . S
C865 H859 0.950 . S
C865 C864 1.327 . S
C865 C869 1.429 . S
C866 C849 1.574 . S
C866 H860 0.949 . S
C866 C870 1.368 . S
C867 C848 1.429 . S
C867 C861 1.429 . S
C867 C868 1.523 . S
C868 C849 1.368 . S
C868 C862 1.368 . S
C868 C867 1.523 . S
C869 C853 1.429 . S
C869 C865 1.429 . S
C869 C870 1.523 . S
C870 C854 1.368 . S
C870 C866 1.368 . S
C870 C869 1.523 . S
H871 C846 0.950 . S
H872 C848 0.950 . S
H873 C849 0.949 . S
H874 C851 0.950 . S
H875 C853 0.950 . S
C876 C877 1.349 . S
C876 C878 1.327 . S
C876 H901 0.950 . S
C877 C876 1.349 . S
C877 C893 1.349 . S
C878 C876 1.327 . S
C878 C897 1.429 . S
C878 H902 0.950 . S
C879 C896 1.574 . S
C879 C898 1.368 . S
C879 H903 0.949 . S
H880 C884 0.949 . S
C881 C882 1.349 . S
C881 C883 1.327 . S
C881 H904 0.950 . S
C882 C881 1.349 . S
C882 C894 1.349 . S
C883 C881 1.327 . S
C883 C899 1.429 . S
C883 H905 0.950 . S
C884 H880 0.949 . S
C884 C892 1.574 . S
C884 C900 1.368 . S
H885 C893 0.950 . S
H886 C891 0.950 . S
H887 C892 0.949 . S
H888 C894 0.950 . S
H889 C895 0.950 . S
H890 C896 0.949 . S
C891 H886 0.950 . S
C891 C893 1.327 . S
C891 C897 1.429 . S
C892 C884 1.574 . S
C892 H887 0.949 . S
C892 C898 1.368 . S
C893 C877 1.349 . S
C893 H885 0.950 . S
C893 C891 1.327 . S
C894 C882 1.349 . S
C894 H888 0.950 . S
C894 C895 1.327 . S
C895 H889 0.950 . S
C895 C894 1.327 . S
C895 C899 1.429 . S
C896 C879 1.574 . S
C896 H890 0.949 . S
C896 C900 1.368 . S
C897 C878 1.429 . S
C897 C891 1.429 . S
C897 C898 1.523 . S
C898 C879 1.368 . S
C898 C892 1.368 . S
C898 C897 1.523 . S
C899 C883 1.429 . S
C899 C895 1.429 . S
C899 C900 1.523 . S
C900 C884 1.368 . S
C900 C896 1.368 . S
C900 C899 1.523 . S
H901 C876 0.950 . S
H902 C878 0.950 . S
H903 C879 0.949 . S
H904 C881 0.950 . S
H905 C883 0.950 . S
C906 C907 1.349 . S
C906 C908 1.327 . S
C906 H931 0.950 . S
C907 C906 1.349 . S
C907 C923 1.349 . S
C908 C906 1.327 . S
C908 C927 1.429 . S
C908 H932 0.950 . S
C909 C926 1.574 . S
C909 C928 1.368 . S
C909 H933 0.949 . S
H910 C914 0.949 . S
C911 C912 1.349 . S
C911 C913 1.327 . S
C911 H934 0.950 . S
C912 C911 1.349 . S
C912 C924 1.349 . S
C913 C911 1.327 . S
C913 C929 1.429 . S
C913 H935 0.950 . S
C914 H910 0.949 . S
C914 C922 1.574 . S
C914 C930 1.368 . S
H915 C923 0.950 . S
H916 C921 0.950 . S
H917 C922 0.949 . S
H918 C924 0.950 . S
H919 C925 0.950 . S
H920 C926 0.949 . S
C921 H916 0.950 . S
C921 C923 1.327 . S
C921 C927 1.429 . S
C922 C914 1.574 . S
C922 H917 0.949 . S
C922 C928 1.368 . S
C923 C907 1.349 . S
C923 H915 0.950 . S
C923 C921 1.327 . S
C924 C912 1.349 . S
C924 H918 0.950 . S
C924 C925 1.327 . S
C925 H919 0.950 . S
C925 C924 1.327 . S
C925 C929 1.429 . S
C926 C909 1.574 . S
C926 H920 0.949 . S
C926 C930 1.368 . S
C927 C908 1.429 . S
C927 C921 1.429 . S
C927 C928 1.523 . S
C928 C909 1.368 . S
C928 C922 1.368 . S
C928 C927 1.523 . S
C929 C913 1.429 . S
C929 C925 1.429 . S
C929 C930 1.523 . S
C930 C914 1.368 . S
C930 C926 1.368 . S
C930 C929 1.523 . S
H931 C906 0.950 . S
H932 C908 0.950 . S
H933 C909 0.949 . S
H934 C911 0.950 . S
H935 C913 0.950 . S
C936 C937 1.349 . S
C936 C938 1.327 . S
C936 H961 0.950 . S
C937 C936 1.349 . S
C937 C953 1.349 . S
C938 C936 1.327 . S
C938 C957 1.429 . S
C938 H962 0.950 . S
C939 C956 1.574 . S
C939 C958 1.368 . S
C939 H963 0.949 . S
H940 C944 0.949 . S
C941 C942 1.349 . S
C941 C943 1.327 . S
C941 H964 0.950 . S
C942 C941 1.349 . S
C942 C954 1.349 . S
C943 C941 1.327 . S
C943 C959 1.429 . S
C943 H965 0.950 . S
C944 H940 0.949 . S
C944 C952 1.574 . S
C944 C960 1.368 . S
H945 C953 0.950 . S
H946 C951 0.950 . S
H947 C952 0.949 . S
H948 C954 0.950 . S
H949 C955 0.950 . S
H950 C956 0.949 . S
C951 H946 0.950 . S
C951 C953 1.327 . S
C951 C957 1.429 . S
C952 C944 1.574 . S
C952 H947 0.949 . S
C952 C958 1.368 . S
C953 C937 1.349 . S
C953 H945 0.950 . S
C953 C951 1.327 . S
C954 C942 1.349 . S
C954 H948 0.950 . S
C954 C955 1.327 . S
C955 H949 0.950 . S
C955 C954 1.327 . S
C955 C959 1.429 . S
C956 C939 1.574 . S
C956 H950 0.949 . S
C956 C960 1.368 . S
C957 C938 1.429 . S
C957 C951 1.429 . S
C957 C958 1.523 . S
C958 C939 1.368 . S
C958 C952 1.368 . S
C958 C957 1.523 . S
C959 C943 1.429 . S
C959 C955 1.429 . S
C959 C960 1.523 . S
C960 C944 1.368 . S
C960 C956 1.368 . S
C960 C959 1.523 . S
H961 C936 0.950 . S
H962 C938 0.950 . S
H963 C939 0.949 . S
H964 C941 0.950 . S
H965 C943 0.950 . S
C966 C967 1.349 . S
C966 C968 1.327 . S
C966 H991 0.950 . S
C967 C966 1.349 . S
C967 C983 1.349 . S
C968 C966 1.327 . S
C968 C987 1.429 . S
C968 H992 0.950 . S
C969 C986 1.574 . S
C969 C988 1.368 . S
C969 H993 0.949 . S
H970 C974 0.949 . S
C971 C972 1.349 . S
C971 C973 1.327 . S
C971 H994 0.950 . S
C972 C971 1.349 . S
C972 C984 1.349 . S
C973 C971 1.327 . S
C973 C989 1.429 . S
C973 H995 0.950 . S
C974 H970 0.949 . S
C974 C982 1.574 . S
C974 C990 1.368 . S
H975 C983 0.950 . S
H976 C981 0.950 . S
H977 C982 0.949 . S
H978 C984 0.950 . S
H979 C985 0.950 . S
H980 C986 0.949 . S
C981 H976 0.950 . S
C981 C983 1.327 . S
C981 C987 1.429 . S
C982 C974 1.574 . S
C982 H977 0.949 . S
C982 C988 1.368 . S
C983 C967 1.349 . S
C983 H975 0.950 . S
C983 C981 1.327 . S
C984 C972 1.349 . S
C984 H978 0.950 . S
C984 C985 1.327 . S
C985 H979 0.950 . S
C985 C984 1.327 . S
C985 C989 1.429 . S
C986 C969 1.574 . S
C986 H980 0.949 . S
C986 C990 1.368 . S
C987 C968 1.429 . S
C987 C981 1.429 . S
C987 C988 1.523 . S
C988 C969 1.368 . S
C988 C982 1.368 . S
C988 C987 1.523 . S
C989 C973 1.429 . S
C989 C985 1.429 . S
C989 C990 1.523 . S
C990 C974 1.368 . S
C990 C986 1.368 . S
C990 C989 1.523 . S
H991 C966 0.950 . S
H992 C968 0.950 . S
H993 C969 0.949 . S
H994 C971 0.950 . S
H995 C973 0.950 . S
C996 C997 1.349 . S
C996 C998 1.327 . S
C996 H1021 0.950 . S
C997 C996 1.349 . S
C997 C1013 1.349 . S
C998 C996 1.327 . S
C998 C1017 1.429 . S
C998 H1022 0.950 . S
C999 C1016 1.574 . S
C999 C1018 1.368 . S
C999 H1023 0.949 . S
H1000 C1004 0.949 . S
C1001 C1002 1.349 . S
C1001 C1003 1.327 . S
C1001 H1024 0.950 . S
C1002 C1001 1.349 . S
C1002 C1014 1.349 . S
C1003 C1001 1.327 . S
C1003 C1019 1.429 . S
C1003 H1025 0.950 . S
C1004 H1000 0.949 . S
C1004 C1012 1.574 . S
C1004 C1020 1.368 . S
H1005 C1013 0.950 . S
H1006 C1011 0.950 . S
H1007 C1012 0.949 . S
H1008 C1014 0.950 . S
H1009 C1015 0.950 . S
H1010 C1016 0.949 . S
C1011 H1006 0.950 . S
C1011 C1013 1.327 . S
C1011 C1017 1.429 . S
C1012 C1004 1.574 . S
C1012 H1007 0.949 . S
C1012 C1018 1.368 . S
C1013 C997 1.349 . S
C1013 H1005 0.950 . S
C1013 C1011 1.327 . S
C1014 C1002 1.349 . S
C1014 H1008 0.950 . S
C1014 C1015 1.327 . S
C1015 H1009 0.950 . S
C1015 C1014 1.327 . S
C1015 C1019 1.429 . S
C1016 C999 1.574 . S
C1016 H1010 0.949 . S
C1016 C1020 1.368 . S
C1017 C998 1.429 . S
C1017 C1011 1.429 . S
C1017 C1018 1.523 . S
C1018 C999 1.368 . S
C1018 C1012 1.368 . S
C1018 C1017 1.523 . S
C1019 C1003 1.429 . S
C1019 C1015 1.429 . S
C1019 C1020 1.523 . S
C1020 C1004 1.368 . S
C1020 C1016 1.368 . S
C1020 C1019 1.523 . S
H1021 C996 0.950 . S
H1022 C998 0.950 . S
H1023 C999 0.949 . S
H1024 C1001 0.950 . S
H1025 C1003 0.950 . S
C1026 C1027 1.349 . S
C1026 C1028 1.327 . S
C1026 H1051 0.950 . S
C1027 C1026 1.349 . S
C1027 C1043 1.349 . S
C1028 C1026 1.327 . S
C1028 C1047 1.429 . S
C1028 H1052 0.950 . S
C1029 C1046 1.574 . S
C1029 C1048 1.368 . S
C1029 H1053 0.949 . S
H1030 C1034 0.949 . S
C1031 C1032 1.349 . S
C1031 C1033 1.327 . S
C1031 H1054 0.950 . S
C1032 C1031 1.349 . S
C1032 C1044 1.349 . S
C1033 C1031 1.327 . S
C1033 C1049 1.429 . S
C1033 H1055 0.950 . S
C1034 H1030 0.949 . S
C1034 C1042 1.574 . S
C1034 C1050 1.368 . S
H1035 C1043 0.950 . S
H1036 C1041 0.950 . S
H1037 C1042 0.949 . S
H1038 C1044 0.950 . S
H1039 C1045 0.950 . S
H1040 C1046 0.949 . S
C1041 H1036 0.950 . S
C1041 C1043 1.327 . S
C1041 C1047 1.429 . S
C1042 C1034 1.574 . S
C1042 H1037 0.949 . S
C1042 C1048 1.368 . S
C1043 C1027 1.349 . S
C1043 H1035 0.950 . S
C1043 C1041 1.327 . S
C1044 C1032 1.349 . S
C1044 H1038 0.950 . S
C1044 C1045 1.327 . S
C1045 H1039 0.950 . S
C1045 C1044 1.327 . S
C1045 C1049 1.429 . S
C1046 C1029 1.574 . S
C1046 H1040 0.949 . S
C1046 C1050 1.368 . S
C1047 C1028 1.429 . S
C1047 C1041 1.429 . S
C1047 C1048 1.523 . S
C1048 C1029 1.368 . S
C1048 C1042 1.368 . S
C1048 C1047 1.523 . S
C1049 C1033 1.429 . S
C1049 C1045 1.429 . S
C1049 C1050 1.523 . S
C1050 C1034 1.368 . S
C1050 C1046 1.368 . S
C1050 C1049 1.523 . S
H1051 C1026 0.950 . S
H1052 C1028 0.950 . S
H1053 C1029 0.949 . S
H1054 C1031 0.950 . S
H1055 C1033 0.950 . S
C1056 C1057 1.349 . S
C1056 C1058 1.327 . S
C1056 H1081 0.950 . S
C1057 C1056 1.349 . S
C1057 C1073 1.349 1_554 S
C1058 C1056 1.327 . S
C1058 C1077 1.429 1_554 S
C1058 H1082 0.950 . S
C1059 C1076 1.574 . S
C1059 C1078 1.368 . S
C1059 H1083 0.949 . S
H1060 C1064 0.949 . S
C1061 C1062 1.349 . S
C1061 C1063 1.327 . S
C1061 H1084 0.950 . S
C1062 C1061 1.349 . S
C1062 C1074 1.349 . S
C1063 C1061 1.327 . S
C1063 C1079 1.429 . S
C1063 H1085 0.950 . S
C1064 H1060 0.949 . S
C1064 C1072 1.574 . S
C1064 C1080 1.368 . S
H1065 C1073 0.950 . S
H1066 C1071 0.950 . S
H1067 C1072 0.949 1_554 S
H1068 C1074 0.950 . S
H1069 C1075 0.950 . S
H1070 C1076 0.949 . S
C1071 H1066 0.950 . S
C1071 C1073 1.327 . S
C1071 C1077 1.429 . S
C1072 C1064 1.574 . S
C1072 H1067 0.949 1_556 S
C1072 C1078 1.368 . S
C1073 C1057 1.349 1_556 S
C1073 H1065 0.950 . S
C1073 C1071 1.327 . S
C1074 C1062 1.349 . S
C1074 H1068 0.950 . S
C1074 C1075 1.327 . S
C1075 H1069 0.950 . S
C1075 C1074 1.327 . S
C1075 C1079 1.429 . S
C1076 C1059 1.574 . S
C1076 H1070 0.949 . S
C1076 C1080 1.368 . S
C1077 C1058 1.429 1_556 S
C1077 C1071 1.429 . S
C1077 C1078 1.523 . S
C1078 C1059 1.368 . S
C1078 C1072 1.368 . S
C1078 C1077 1.523 . S
C1079 C1063 1.429 . S
C1079 C1075 1.429 . S
C1079 C1080 1.523 . S
C1080 C1064 1.368 . S
C1080 C1076 1.368 . S
C1080 C1079 1.523 . S
H1081 C1056 0.950 . S
H1082 C1058 0.950 . S
H1083 C1059 0.949 . S
H1084 C1061 0.950 . S
H1085 C1063 0.950 . S
C1086 C1087 1.349 . S
C1086 C1088 1.327 . S
C1086 H1111 0.950 . S
C1087 C1086 1.349 . S
C1087 C1103 1.349 . S
C1088 C1086 1.327 . S
C1088 C1107 1.429 . S
C1088 H1112 0.950 . S
C1089 C1106 1.574 . S
C1089 C1108 1.368 . S
C1089 H1113 0.949 . S
H1090 C1094 0.949 1_556 S
C1091 C1092 1.349 1_554 S
C1091 C1093 1.327 . S
C1091 H1114 0.950 . S
C1092 C1091 1.349 1_556 S
C1092 C1104 1.349 . S
C1093 C1091 1.327 . S
C1093 C1109 1.429 . S
C1093 H1115 0.950 . S
C1094 H1090 0.949 1_554 S
C1094 C1102 1.574 . S
C1094 C1110 1.368 . S
H1095 C1103 0.950 . S
H1096 C1101 0.950 . S
H1097 C1102 0.949 . S
H1098 C1104 0.950 . S
H1099 C1105 0.950 . S
H1100 C1106 0.949 . S
C1101 H1096 0.950 . S
C1101 C1103 1.327 . S
C1101 C1107 1.429 . S
C1102 C1094 1.574 . S
C1102 H1097 0.949 . S
C1102 C1108 1.368 . S
C1103 C1087 1.349 . S
C1103 H1095 0.950 . S
C1103 C1101 1.327 . S
C1104 C1092 1.349 . S
C1104 H1098 0.950 . S
C1104 C1105 1.327 . S
C1105 H1099 0.950 . S
C1105 C1104 1.327 . S
C1105 C1109 1.429 1_556 S
C1106 C1089 1.574 . S
C1106 H1100 0.949 . S
C1106 C1110 1.368 . S
C1107 C1088 1.429 . S
C1107 C1101 1.429 . S
C1107 C1108 1.523 . S
C1108 C1089 1.368 . S
C1108 C1102 1.368 . S
C1108 C1107 1.523 . S
C1109 C1093 1.429 . S
C1109 C1105 1.429 1_554 S
C1109 C1110 1.523 . S
C1110 C1094 1.368 . S
C1110 C1106 1.368 . S
C1110 C1109 1.523 . S
H1111 C1086 0.950 . S
H1112 C1088 0.950 . S
H1113 C1089 0.949 . S
H1114 C1091 0.950 . S
H1115 C1093 0.950 . S
C1116 C1117 1.349 . S
C1116 C1118 1.327 . S
C1116 H1141 0.950 . S
C1117 C1116 1.349 . S
C1117 C1133 1.349 . S
C1118 C1116 1.327 . S
C1118 C1137 1.429 . S
C1118 H1142 0.950 . S
C1119 C1136 1.574 . S
C1119 C1138 1.368 . S
C1119 H1143 0.949 . S
H1120 C1124 0.949 . S
C1121 C1122 1.349 . S
C1121 C1123 1.327 . S
C1121 H1144 0.950 . S
C1122 C1121 1.349 . S
C1122 C1134 1.349 . S
C1123 C1121 1.327 . S
C1123 C1139 1.429 . S
C1123 H1145 0.950 . S
C1124 H1120 0.949 . S
C1124 C1132 1.574 . S
C1124 C1140 1.368 . S
H1125 C1133 0.950 . S
H1126 C1131 0.950 . S
H1127 C1132 0.949 . S
H1128 C1134 0.950 . S
H1129 C1135 0.950 . S
H1130 C1136 0.949 . S
C1131 H1126 0.950 . S
C1131 C1133 1.327 . S
C1131 C1137 1.429 . S
C1132 C1124 1.574 . S
C1132 H1127 0.949 . S
C1132 C1138 1.368 . S
C1133 C1117 1.349 . S
C1133 H1125 0.950 . S
C1133 C1131 1.327 . S
C1134 C1122 1.349 . S
C1134 H1128 0.950 . S
C1134 C1135 1.327 . S
C1135 H1129 0.950 . S
C1135 C1134 1.327 . S
C1135 C1139 1.429 . S
C1136 C1119 1.574 . S
C1136 H1130 0.949 . S
C1136 C1140 1.368 . S
C1137 C1118 1.429 . S
C1137 C1131 1.429 . S
C1137 C1138 1.523 . S
C1138 C1119 1.368 . S
C1138 C1132 1.368 . S
C1138 C1137 1.523 . S
C1139 C1123 1.429 . S
C1139 C1135 1.429 . S
C1139 C1140 1.523 . S
C1140 C1124 1.368 . S
C1140 C1136 1.368 . S
C1140 C1139 1.523 . S
H1141 C1116 0.950 . S
H1142 C1118 0.950 . S
H1143 C1119 0.949 . S
H1144 C1121 0.950 . S
H1145 C1123 0.950 . S
C1146 C1147 1.349 . S
C1146 C1148 1.327 . S
C1146 H1171 0.950 . S
C1147 C1146 1.349 . S
C1147 C1163 1.349 . S
C1148 C1146 1.327 . S
C1148 C1167 1.429 . S
C1148 H1172 0.950 . S
C1149 C1166 1.574 1_655 S
C1149 C1168 1.368 . S
C1149 H1173 0.949 . S
H1150 C1154 0.949 . S
C1151 C1152 1.349 . S
C1151 C1153 1.327 . S
C1151 H1174 0.950 . S
C1152 C1151 1.349 . S
C1152 C1164 1.349 . S
C1153 C1151 1.327 . S
C1153 C1169 1.429 . S
C1153 H1175 0.950 . S
C1154 H1150 0.949 . S
C1154 C1162 1.574 1_455 S
C1154 C1170 1.368 . S
H1155 C1163 0.950 . S
H1156 C1161 0.950 . S
H1157 C1162 0.949 . S
H1158 C1164 0.950 . S
H1159 C1165 0.950 . S
H1160 C1166 0.949 . S
C1161 H1156 0.950 . S
C1161 C1163 1.327 . S
C1161 C1167 1.429 . S
C1162 C1154 1.574 1_655 S
C1162 H1157 0.949 . S
C1162 C1168 1.368 . S
C1163 C1147 1.349 . S
C1163 H1155 0.950 . S
C1163 C1161 1.327 . S
C1164 C1152 1.349 . S
C1164 H1158 0.950 . S
C1164 C1165 1.327 . S
C1165 H1159 0.950 . S
C1165 C1164 1.327 . S
C1165 C1169 1.429 . S
C1166 C1149 1.574 1_455 S
C1166 H1160 0.949 . S
C1166 C1170 1.368 . S
C1167 C1148 1.429 . S
C1167 C1161 1.429 . S
C1167 C1168 1.523 . S
C1168 C1149 1.368 . S
C1168 C1162 1.368 . S
C1168 C1167 1.523 . S
C1169 C1153 1.429 . S
C1169 C1165 1.429 . S
C1169 C1170 1.523 . S
C1170 C1154 1.368 . S
C1170 C1166 1.368 . S
C1170 C1169 1.523 . S
H1171 C1146 0.950 . S
H1172 C1148 0.950 . S
H1173 C1149 0.949 . S
H1174 C1151 0.950 . S
H1175 C1153 0.950 . S
C1176 C1177 1.349 . S
C1176 C1178 1.327 . S
C1176 H1201 0.950 . S
C1177 C1176 1.349 . S
C1177 C1193 1.349 . S
C1178 C1176 1.327 . S
C1178 C1197 1.429 . S
C1178 H1202 0.950 . S
C1179 C1196 1.574 1_545 S
C1179 C1198 1.368 . S
C1179 H1203 0.949 . S
H1180 C1184 0.949 . S
C1181 C1182 1.349 . S
C1181 C1183 1.327 . S
C1181 H1204 0.950 . S
C1182 C1181 1.349 . S
C1182 C1194 1.349 . S
C1183 C1181 1.327 . S
C1183 C1199 1.429 . S
C1183 H1205 0.950 . S
C1184 H1180 0.949 . S
C1184 C1192 1.574 1_565 S
C1184 C1200 1.368 . S
H1185 C1193 0.950 . S
H1186 C1191 0.950 . S
H1187 C1192 0.949 . S
H1188 C1194 0.950 . S
H1189 C1195 0.950 . S
H1190 C1196 0.949 . S
C1191 H1186 0.950 . S
C1191 C1193 1.327 . S
C1191 C1197 1.429 . S
C1192 C1184 1.574 1_545 S
C1192 H1187 0.949 . S
C1192 C1198 1.368 . S
C1193 C1177 1.349 . S
C1193 H1185 0.950 . S
C1193 C1191 1.327 . S
C1194 C1182 1.349 . S
C1194 H1188 0.950 . S
C1194 C1195 1.327 . S
C1195 H1189 0.950 . S
C1195 C1194 1.327 . S
C1195 C1199 1.429 . S
C1196 C1179 1.574 1_565 S
C1196 H1190 0.949 . S
C1196 C1200 1.368 . S
C1197 C1178 1.429 . S
C1197 C1191 1.429 . S
C1197 C1198 1.523 . S
C1198 C1179 1.368 . S
C1198 C1192 1.368 . S
C1198 C1197 1.523 . S
C1199 C1183 1.429 . S
C1199 C1195 1.429 . S
C1199 C1200 1.523 . S
C1200 C1184 1.368 . S
C1200 C1196 1.368 . S
C1200 C1199 1.523 . S
H1201 C1176 0.950 . S
H1202 C1178 0.950 . S
H1203 C1179 0.949 . S
H1204 C1181 0.950 . S
H1205 C1183 0.950 . S
C1206 C1207 1.349 . S
C1206 C1208 1.327 . S
C1206 H1231 0.950 . S
C1207 C1206 1.349 . S
C1207 C1223 1.349 . S
C1208 C1206 1.327 . S
C1208 C1227 1.429 . S
C1208 H1232 0.950 . S
C1209 C1226 1.574 . S
C1209 C1228 1.368 . S
C1209 H1233 0.949 . S
H1210 C1214 0.949 . S
C1211 C1212 1.349 . S
C1211 C1213 1.327 . S
C1211 H1234 0.950 . S
C1212 C1211 1.349 . S
C1212 C1224 1.349 . S
C1213 C1211 1.327 . S
C1213 C1229 1.429 . S
C1213 H1235 0.950 . S
C1214 H1210 0.949 . S
C1214 C1222 1.574 . S
C1214 C1230 1.368 . S
H1215 C1223 0.950 . S
H1216 C1221 0.950 . S
H1217 C1222 0.949 . S
H1218 C1224 0.950 . S
H1219 C1225 0.950 . S
H1220 C1226 0.949 . S
C1221 H1216 0.950 . S
C1221 C1223 1.327 . S
C1221 C1227 1.429 . S
C1222 C1214 1.574 . S
C1222 H1217 0.949 . S
C1222 C1228 1.368 . S
C1223 C1207 1.349 . S
C1223 H1215 0.950 . S
C1223 C1221 1.327 . S
C1224 C1212 1.349 . S
C1224 H1218 0.950 . S
C1224 C1225 1.327 . S
C1225 H1219 0.950 . S
C1225 C1224 1.327 . S
C1225 C1229 1.429 . S
C1226 C1209 1.574 . S
C1226 H1220 0.949 . S
C1226 C1230 1.368 . S
C1227 C1208 1.429 . S
C1227 C1221 1.429 . S
C1227 C1228 1.523 . S
C1228 C1209 1.368 . S
C1228 C1222 1.368 . S
C1228 C1227 1.523 . S
C1229 C1213 1.429 . S
C1229 C1225 1.429 . S
C1229 C1230 1.523 . S
C1230 C1214 1.368 . S
C1230 C1226 1.368 . S
C1230 C1229 1.523 . S
H1231 C1206 0.950 . S
H1232 C1208 0.950 . S
H1233 C1209 0.949 . S
H1234 C1211 0.950 . S
H1235 C1213 0.950 . S
C1236 C1237 1.349 . S
C1236 C1238 1.327 . S
C1236 H1261 0.950 . S
C1237 C1236 1.349 . S
C1237 C1253 1.349 . S
C1238 C1236 1.327 . S
C1238 C1257 1.429 . S
C1238 H1262 0.950 . S
C1239 C1256 1.574 1_455 S
C1239 C1258 1.368 . S
C1239 H1263 0.949 . S
H1240 C1244 0.949 . S
C1241 C1242 1.349 . S
C1241 C1243 1.327 . S
C1241 H1264 0.950 . S
C1242 C1241 1.349 . S
C1242 C1254 1.349 . S
C1243 C1241 1.327 . S
C1243 C1259 1.429 . S
C1243 H1265 0.950 . S
C1244 H1240 0.949 . S
C1244 C1252 1.574 1_655 S
C1244 C1260 1.368 . S
H1245 C1253 0.950 . S
H1246 C1251 0.950 . S
H1247 C1252 0.949 . S
H1248 C1254 0.950 . S
H1249 C1255 0.950 . S
H1250 C1256 0.949 . S
C1251 H1246 0.950 . S
C1251 C1253 1.327 . S
C1251 C1257 1.429 . S
C1252 C1244 1.574 1_455 S
C1252 H1247 0.949 . S
C1252 C1258 1.368 . S
C1253 C1237 1.349 . S
C1253 H1245 0.950 . S
C1253 C1251 1.327 . S
C1254 C1242 1.349 . S
C1254 H1248 0.950 . S
C1254 C1255 1.327 . S
C1255 H1249 0.950 . S
C1255 C1254 1.327 . S
C1255 C1259 1.429 . S
C1256 C1239 1.574 1_655 S
C1256 H1250 0.949 . S
C1256 C1260 1.368 . S
C1257 C1238 1.429 . S
C1257 C1251 1.429 . S
C1257 C1258 1.523 . S
C1258 C1239 1.368 . S
C1258 C1252 1.368 . S
C1258 C1257 1.523 . S
C1259 C1243 1.429 . S
C1259 C1255 1.429 . S
C1259 C1260 1.523 . S
C1260 C1244 1.368 . S
C1260 C1256 1.368 . S
C1260 C1259 1.523 . S
H1261 C1236 0.950 . S
H1262 C1238 0.950 . S
H1263 C1239 0.949 . S
H1264 C1241 0.950 . S
H1265 C1243 0.950 . S
C1266 C1267 1.349 . S
C1266 C1268 1.327 . S
C1266 H1291 0.950 . S
C1267 C1266 1.349 . S
C1267 C1283 1.349 . S
C1268 C1266 1.327 . S
C1268 C1287 1.429 . S
C1268 H1292 0.950 . S
C1269 C1286 1.574 1_545 S
C1269 C1288 1.368 1_554 S
C1269 H1293 0.949 . S
H1270 C1274 0.949 . S
C1271 C1272 1.349 . S
C1271 C1273 1.327 . S
C1271 H1294 0.950 . S
C1272 C1271 1.349 . S
C1272 C1284 1.349 . S
C1273 C1271 1.327 . S
C1273 C1289 1.429 . S
C1273 H1295 0.950 . S
C1274 H1270 0.949 . S
C1274 C1282 1.574 1_565 S
C1274 C1290 1.368 1_556 S
H1275 C1283 0.950 1_554 S
H1276 C1281 0.950 . S
H1277 C1282 0.949 . S
H1278 C1284 0.950 1_556 S
H1279 C1285 0.950 . S
H1280 C1286 0.949 . S
C1281 H1276 0.950 . S
C1281 C1283 1.327 1_554 S
C1281 C1287 1.429 1_554 S
C1282 C1274 1.574 1_545 S
C1282 H1277 0.949 . S
C1282 C1288 1.368 . S
C1283 C1267 1.349 . S
C1283 H1275 0.950 1_556 S
C1283 C1281 1.327 1_556 S
C1284 C1272 1.349 . S
C1284 H1278 0.950 1_554 S
C1284 C1285 1.327 1_554 S
C1285 H1279 0.950 . S
C1285 C1284 1.327 1_556 S
C1285 C1289 1.429 1_556 S
C1286 C1269 1.574 1_565 S
C1286 H1280 0.949 . S
C1286 C1290 1.368 . S
C1287 C1268 1.429 . S
C1287 C1281 1.429 1_556 S
C1287 C1288 1.523 . S
C1288 C1269 1.368 1_556 S
C1288 C1282 1.368 . S
C1288 C1287 1.523 . S
C1289 C1273 1.429 . S
C1289 C1285 1.429 1_554 S
C1289 C1290 1.523 . S
C1290 C1274 1.368 1_554 S
C1290 C1286 1.368 . S
C1290 C1289 1.523 . S
H1291 C1266 0.950 . S
H1292 C1268 0.950 . S
H1293 C1269 0.949 . S
H1294 C1271 0.950 . S
H1295 C1273 0.950 . S
C397 N13 1.090 . S
C402 N2 1.089 . S
C427 N35 1.089 . S
C432 N46 1.090 . S
C457 N68 1.089 . S
C462 N79 1.090 . S
C487 N112 1.090 . S
C492 N101 1.089 . S
C517 N145 1.079 1_554 S
C522 N134 1.089 . S
C547 N167 1.089 . S
C552 N178 1.090 . S
C577 N211 1.090 . S
C582 N200 1.089 . S
C607 N244 1.090 . S
C612 N233 1.089 . S
C637 N266 1.089 . S
C642 N277 1.090 . S
C667 N310 1.078 1_556 S
C672 N299 1.089 . S
C697 N343 1.090 . S
C702 N332 1.089 . S
C727 N365 1.089 . S
C732 N376 1.090 . S
C757 C205 1.550 . S
C762 C7 1.550 . S
C787 C40 1.551 . S
C792 C238 1.551 . S
C817 C271 1.551 . S
C822 C73 1.551 . S
C847 C304 1.550 . S
C852 C106 1.550 . S
C877 C337 1.551 . S
C882 C139 1.551 . S
C907 C370 1.551 . S
C912 C172 1.551 . S
C937 C18 1.095 . S
C942 C348 1.095 . S
C967 C51 1.095 . S
C972 C381 1.095 . S
C997 C84 1.095 . S
C1002 C216 1.095 . S
C1027 C249 1.095 . S
C1032 C117 1.095 . S
C1057 C282 1.095 . S
C1062 C150 1.095 . S
C1087 C315 1.095 . S
C1092 C183 1.095 . S
C1117 C21 1.400 . S
C1122 C318 1.400 . S
C1147 C54 1.400 . S
C1152 C351 1.400 . S
C1177 C384 1.400 . S
C1182 C87 1.400 . S
C1207 C120 1.400 . S
C1212 C219 1.400 . S
C1237 C153 1.400 . S
C1242 C252 1.400 . S
C1267 C186 1.400 . S
C1272 C285 1.400 . S
