# Generated by pormake.
# Topology whk, (6)-cn, num edge types: 1
# Building blocks:
#     Node 0, Type 0, BuildingBlock: MIDCAF_clean_sbu_0, # of connection points: 6
#     Node 1, Type 0, BuildingBlock: MIDCAF_clean_sbu_0, # of connection points: 6
#     Node 2, Type 0, BuildingBlock: MIDCAF_clean_sbu_0, # of connection points: 6
#     Node 3, Type 0, BuildingBlock: MIDCAF_clean_sbu_0, # of connection points: 6
#     Node 4, Type 0, BuildingBlock: MIDCAF_clean_sbu_0, # of connection points: 6
#     Node 5, Type 0, BuildingBlock: MIDCAF_clean_sbu_0, # of connection points: 6
#     Node 6, Type 0, BuildingBlock: MIDCAF_clean_sbu_0, # of connection points: 6
#     Node 7, Type 0, BuildingBlock: MIDCAF_clean_sbu_0, # of connection points: 6
#     Node 8, Type 0, BuildingBlock: MIDCAF_clean_sbu_0, # of connection points: 6
#     Node 9, Type 0, BuildingBlock: MIDCAF_clean_sbu_0, # of connection points: 6
#     Node 10, Type 0, BuildingBlock: MIDCAF_clean_sbu_0, # of connection points: 6
#     Node 11, Type 0, BuildingBlock: MIDCAF_clean_sbu_0, # of connection points: 6
#     Node 12, Type 0, BuildingBlock: MIDCAF_clean_sbu_0, # of connection points: 6
#     Node 13, Type 0, BuildingBlock: MIDCAF_clean_sbu_0, # of connection points: 6
#     Node 14, Type 0, BuildingBlock: MIDCAF_clean_sbu_0, # of connection points: 6
#     Node 15, Type 0, BuildingBlock: MIDCAF_clean_sbu_0, # of connection points: 6
#     Edge 16, Type (0, 0), BuildingBlock: AJUNOK_clean_linker_0, # of connection points: 2
#     Edge 17, Type (0, 0), BuildingBlock: AJUNOK_clean_linker_0, # of connection points: 2
#     Edge 18, Type (0, 0), BuildingBlock: AJUNOK_clean_linker_0, # of connection points: 2
#     Edge 19, Type (0, 0), BuildingBlock: AJUNOK_clean_linker_0, # of connection points: 2
#     Edge 20, Type (0, 0), BuildingBlock: AJUNOK_clean_linker_0, # of connection points: 2
#     Edge 21, Type (0, 0), BuildingBlock: AJUNOK_clean_linker_0, # of connection points: 2
#     Edge 22, Type (0, 0), BuildingBlock: AJUNOK_clean_linker_0, # of connection points: 2
#     Edge 23, Type (0, 0), BuildingBlock: AJUNOK_clean_linker_0, # of connection points: 2
#     Edge 24, Type (0, 0), BuildingBlock: AJUNOK_clean_linker_0, # of connection points: 2
#     Edge 25, Type (0, 0), BuildingBlock: AJUNOK_clean_linker_0, # of connection points: 2
#     Edge 26, Type (0, 0), BuildingBlock: AJUNOK_clean_linker_0, # of connection points: 2
#     Edge 27, Type (0, 0), BuildingBlock: AJUNOK_clean_linker_0, # of connection points: 2
#     Edge 28, Type (0, 0), BuildingBlock: AJUNOK_clean_linker_0, # of connection points: 2
#     Edge 29, Type (0, 0), BuildingBlock: AJUNOK_clean_linker_0, # of connection points: 2
#     Edge 30, Type (0, 0), BuildingBlock: AJUNOK_clean_linker_0, # of connection points: 2
#     Edge 31, Type (0, 0), BuildingBlock: AJUNOK_clean_linker_0, # of connection points: 2
#     Edge 32, Type (0, 0), BuildingBlock: AJUNOK_clean_linker_0, # of connection points: 2
#     Edge 33, Type (0, 0), BuildingBlock: AJUNOK_clean_linker_0, # of connection points: 2
#     Edge 34, Type (0, 0), BuildingBlock: AJUNOK_clean_linker_0, # of connection points: 2
#     Edge 35, Type (0, 0), BuildingBlock: AJUNOK_clean_linker_0, # of connection points: 2
#     Edge 36, Type (0, 0), BuildingBlock: AJUNOK_clean_linker_0, # of connection points: 2
#     Edge 37, Type (0, 0), BuildingBlock: AJUNOK_clean_linker_0, # of connection points: 2
#     Edge 38, Type (0, 0), BuildingBlock: AJUNOK_clean_linker_0, # of connection points: 2
#     Edge 39, Type (0, 0), BuildingBlock: AJUNOK_clean_linker_0, # of connection points: 2
#     Edge 40, Type (0, 0), BuildingBlock: AJUNOK_clean_linker_0, # of connection points: 2
#     Edge 41, Type (0, 0), BuildingBlock: AJUNOK_clean_linker_0, # of connection points: 2
#     Edge 42, Type (0, 0), BuildingBlock: AJUNOK_clean_linker_0, # of connection points: 2
#     Edge 43, Type (0, 0), BuildingBlock: AJUNOK_clean_linker_0, # of connection points: 2
#     Edge 44, Type (0, 0), BuildingBlock: AJUNOK_clean_linker_0, # of connection points: 2
#     Edge 45, Type (0, 0), BuildingBlock: AJUNOK_clean_linker_0, # of connection points: 2
#     Edge 46, Type (0, 0), BuildingBlock: AJUNOK_clean_linker_0, # of connection points: 2
#     Edge 47, Type (0, 0), BuildingBlock: AJUNOK_clean_linker_0, # of connection points: 2
#     Edge 48, Type (0, 0), BuildingBlock: AJUNOK_clean_linker_0, # of connection points: 2
#     Edge 49, Type (0, 0), BuildingBlock: AJUNOK_clean_linker_0, # of connection points: 2
#     Edge 50, Type (0, 0), BuildingBlock: AJUNOK_clean_linker_0, # of connection points: 2
#     Edge 51, Type (0, 0), BuildingBlock: AJUNOK_clean_linker_0, # of connection points: 2
#     Edge 52, Type (0, 0), BuildingBlock: AJUNOK_clean_linker_0, # of connection points: 2
#     Edge 53, Type (0, 0), BuildingBlock: AJUNOK_clean_linker_0, # of connection points: 2
#     Edge 54, Type (0, 0), BuildingBlock: AJUNOK_clean_linker_0, # of connection points: 2
#     Edge 55, Type (0, 0), BuildingBlock: AJUNOK_clean_linker_0, # of connection points: 2
#     Edge 56, Type (0, 0), BuildingBlock: AJUNOK_clean_linker_0, # of connection points: 2
#     Edge 57, Type (0, 0), BuildingBlock: AJUNOK_clean_linker_0, # of connection points: 2
#     Edge 58, Type (0, 0), BuildingBlock: AJUNOK_clean_linker_0, # of connection points: 2
#     Edge 59, Type (0, 0), BuildingBlock: AJUNOK_clean_linker_0, # of connection points: 2
#     Edge 60, Type (0, 0), BuildingBlock: AJUNOK_clean_linker_0, # of connection points: 2
#     Edge 61, Type (0, 0), BuildingBlock: AJUNOK_clean_linker_0, # of connection points: 2
#     Edge 62, Type (0, 0), BuildingBlock: AJUNOK_clean_linker_0, # of connection points: 2
#     Edge 63, Type (0, 0), BuildingBlock: AJUNOK_clean_linker_0, # of connection points: 2
# Relax obj value: 0.434
# Max RMSD: 0.250
# Mean RMSD: 0.248
data_MOF--net-whk--node1-MIDCAF_clean_sbu_0--edge1-AJUNOK_clean_linker_0
_symmetry_space_group_name_H-M    P1
_symmetry_Int_Tables_number       1
_symmetry_cell_setting            triclinic
loop_
_symmetry_equiv_pos_as_xyz
'x, y, z'
_cell_length_a     26.312276
_cell_length_b     26.571701
_cell_length_c     36.844632
_cell_angle_alpha  90.105823
_cell_angle_beta   90.299375
_cell_angle_gamma 90.849176
loop_
_atom_site_label
_atom_site_type_symbol
_atom_site_fract_x
_atom_site_fract_y
_atom_site_fract_z
_atom_type_partial_charge
Zn0 Zn 0.59931 0.19022 0.44361 0.0
Zn1 Zn 0.48597 0.19179 0.33515 0.0
Zn2 Zn 0.54428 0.1844 0.39465 0.0
C3 C 0.46825 0.09837 0.37599 0.0
C4 C 0.46299 0.27133 0.38167 0.0
O5 O 0.62103 0.19443 0.37475 0.0
O6 O 0.65865 0.15699 0.42017 0.0
C7 C 0.54952 0.11067 0.46185 0.0
O8 O 0.50238 0.11428 0.39832 0.0
O9 O 0.45558 0.12453 0.34879 0.0
O10 O 0.45362 0.25602 0.34983 0.0
O11 O 0.49433 0.24798 0.4022 0.0
O12 O 0.55713 0.15111 0.47908 0.0
O13 O 0.54297 0.11374 0.42725 0.0
O14 O 0.53036 0.25287 0.42994 0.0
O15 O 0.6069 0.26379 0.45295 0.0
C16 C 0.56282 0.28027 0.44776 0.0
O17 O 0.58905 0.1845 0.34318 0.0
O18 O 0.53768 0.19323 0.2962 0.0
C19 C 0.6618 0.17826 0.38967 0.0
C20 C 0.58196 0.1873 0.30861 0.0
Zn21 Zn 0.2945 0.60299 0.43881 0.0
Zn22 Zn 0.27804 0.48366 0.34596 0.0
Zn23 Zn 0.29337 0.54346 0.3973 0.0
C24 C 0.35526 0.44806 0.39478 0.0
C25 C 0.18642 0.48783 0.37828 0.0
O26 O 0.30105 0.61781 0.37203 0.0
O27 O 0.25066 0.65088 0.41257 0.0
C28 C 0.38533 0.57243 0.44562 0.0
O29 O 0.35202 0.49108 0.41008 0.0
O30 O 0.32616 0.43587 0.3687 0.0
O31 O 0.20446 0.47157 0.34901 0.0
O32 O 0.21484 0.51254 0.40081 0.0
O33 O 0.36992 0.61488 0.43556 0.0
O34 O 0.35814 0.53367 0.43638 0.0
O35 O 0.2246 0.53775 0.43226 0.0
O36 O 0.26451 0.56551 0.48092 0.0
C37 C 0.22625 0.54362 0.46697 0.0
O38 O 0.31007 0.58182 0.34441 0.0
O39 O 0.30095 0.52172 0.30344 0.0
C40 C 0.2741 0.65471 0.38294 0.0
C41 C 0.3122 0.56676 0.31115 0.0
Zn42 Zn 0.88719 0.27367 0.50864 0.0
Zn43 Zn -0.00391 0.28042 0.34147 0.0
Zn44 Zn 0.93718 0.28589 0.39754 0.0
C45 C 0.0103 0.37385 0.37953 0.0
C46 C 0.0277 0.20818 0.3864 0.0
O47 O 0.87932 0.27428 0.43404 0.0
O48 O 0.8224 0.26136 0.47566 0.0
C49 C 0.9355 0.3509 0.46596 0.0
O50 O 0.98267 0.35275 0.40369 0.0
O51 O 0.01752 0.35247 0.34932 0.0
O52 O 0.04501 0.22912 0.3583 0.0
O53 O 0.98684 0.22339 0.40085 0.0
O54 O 0.94681 0.30888 0.48006 0.0
O55 O 0.94073 0.35464 0.43144 0.0
O56 O 0.94672 0.21443 0.42977 0.0
O57 O 0.95436 0.2535 0.48206 0.0
C58 C 0.95288 0.2121 0.46453 0.0
O59 O 0.89381 0.29464 0.34814 0.0
O60 O 0.94139 0.26378 0.30521 0.0
C61 C 0.83401 0.26339 0.44213 0.0
C62 C 0.89998 0.28304 0.31483 0.0
Zn63 Zn 0.17346 0.9033 0.45366 0.0
Zn64 Zn 0.195 -0.00584 0.35051 0.0
Zn65 Zn 0.18444 0.93929 0.39834 0.0
C66 C 0.13852 0.0399 0.40542 0.0
C67 C 0.29291 0.98094 0.37278 0.0
O68 O 0.25123 0.89453 0.39806 0.0
O69 O 0.20014 0.84017 0.42472 0.0
C70 C 0.09033 0.88752 0.4263 0.0
O71 O 0.15401 0.00299 0.42397 0.0
O72 O 0.14767 0.04264 0.37188 0.0
O73 O 0.26849 0.01001 0.35234 0.0
O74 O 0.26891 0.94701 0.39154 0.0
O75 O 0.09962 0.92341 0.44802 0.0
O76 O 0.12174 0.88227 0.39995 0.0
O77 O 0.25928 0.93328 0.43014 0.0
O78 O 0.22536 0.94146 0.48404 0.0
C79 C 0.2649 0.94034 0.46466 0.0
O80 O 0.14222 0.89691 0.35588 0.0
O81 O 0.16994 0.94788 0.31325 0.0
C82 C 0.23611 0.8487 0.40264 0.0
C83 C 0.14672 0.90795 0.32208 0.0
Zn84 Zn 0.98038 0.76486 0.15579 0.0
Zn85 Zn 0.1111 0.80053 0.07457 0.0
Zn86 Zn 0.04244 0.78965 0.10959 0.0
C87 C 0.0654 0.72761 0.03906 0.0
C88 C 0.07476 0.88797 0.06783 0.0
O89 O 0.06974 0.80497 0.16716 0.0
O90 O 0.00314 0.79455 0.20264 0.0
C91 C -0.00437 0.67819 0.11978 0.0
O92 O 0.05015 0.72528 0.07213 0.0
O93 O 0.08488 0.76857 0.02811 0.0
O94 O 0.1172 0.87449 0.07994 0.0
O95 O 0.03631 0.858 0.0726 0.0
O96 O 0.98188 0.69063 0.15122 0.0
O97 O 0.01454 0.71161 0.09826 0.0
O98 O -0.01206 0.84656 0.09662 0.0
O99 O 0.92963 0.80338 0.12671 0.0
C100 C 0.94148 0.83922 0.10562 0.0
O101 O 0.10894 0.78789 0.14601 0.0
O102 O 0.16038 0.76227 0.10313 0.0
C103 C 0.04883 0.80835 0.19885 0.0
C104 C 0.15153 0.76911 0.13633 0.0
Zn105 Zn 0.68811 0.9776 0.17412 0.0
Zn106 Zn 0.6885 0.1014 0.00895 0.0
Zn107 Zn 0.68432 0.04184 0.1176 0.0
C108 C 0.75196 0.03019 0.04806 0.0
C109 C 0.61283 0.05018 0.05129 0.0
O110 O 0.68236 0.0867 0.16672 0.0
O111 O 0.69167 0.03283 0.21134 0.0
C112 C 0.77102 0.95884 0.12969 0.0
O113 O 0.75356 0.03255 0.08301 0.0
O114 O 0.7085 0.0322 0.03277 0.0
O115 O 0.65424 0.04006 0.03549 0.0
O116 O 0.61185 0.04336 0.0858 0.0
O117 O 0.75091 0.94163 0.15823 0.0
O118 O 0.7509 -0.00453 0.11275 0.0
O119 O 0.61699 -0.00528 0.10985 0.0
O120 O 0.61993 0.94805 0.15935 0.0
C121 C 0.59808 0.96012 0.12998 0.0
O122 O 0.69273 0.10299 0.08367 0.0
O123 O 0.70169 0.16314 0.04429 0.0
C124 C 0.68597 0.07767 0.2007 0.0
C125 C 0.7021 0.14885 0.07732 0.0
Zn126 Zn 0.30729 0.63359 0.05678 0.0
Zn127 Zn 0.49651 0.69615 0.15576 0.0
Zn128 Zn 0.43626 0.67543 0.10744 0.0
C129 C 0.53653 0.61847 0.11331 0.0
C130 C 0.48528 0.78511 0.11829 0.0
O131 O 0.355 0.67198 0.13051 0.0
O132 O 0.28024 0.64389 0.10669 0.0
C133 C 0.41251 0.60115 0.05685 0.0
O134 O 0.49188 0.61789 0.09946 0.0
O135 O 0.54957 0.65126 0.13652 0.0
O136 O 0.50177 0.76886 0.14816 0.0
O137 O 0.46259 0.75477 0.09599 0.0
O138 O 0.37738 0.62605 0.07012 0.0
O139 O 0.45591 0.61092 0.07052 0.0
O140 O 0.43049 0.73245 0.06839 0.0
O141 O 0.3617 0.69146 0.04973 0.0
C142 C 0.39447 0.72657 0.04529 0.0
O143 O 0.39718 0.66467 0.15905 0.0
O144 O 0.45881 0.67495 0.19915 0.0
C145 C 0.30623 0.66311 0.13281 0.0
C146 C 0.41288 0.66466 0.19215 0.0
Zn147 Zn 0.78363 0.36295 0.07594 0.0
Zn148 Zn 0.79811 0.49603 0.16452 0.0
Zn149 Zn 0.79855 0.42573 0.1178 0.0
C150 C 0.88021 0.50957 0.11515 0.0
C151 C 0.71138 0.5077 0.12949 0.0
O152 O 0.78529 0.35307 0.14532 0.0
O153 O 0.81922 0.30764 0.10274 0.0
C154 C 0.86219 0.4095 0.04758 0.0
O155 O 0.87045 0.46372 0.10647 0.0
O156 O 0.85176 0.53283 0.13681 0.0
O157 O 0.72732 0.51871 0.16084 0.0
O158 O 0.73571 0.47705 0.10922 0.0
O159 O 0.81944 0.39638 0.03492 0.0
O160 O 0.86553 0.41989 0.08164 0.0
O161 O 0.72856 0.43755 0.08423 0.0
O162 O 0.708 0.35934 0.07059 0.0
C163 C 0.69637 0.40519 0.07122 0.0
O164 O 0.80151 0.39042 0.17182 0.0
O165 O 0.81905 0.45589 0.20675 0.0
C166 C 0.79802 0.30957 0.13332 0.0
C167 C 0.81462 0.40886 0.20276 0.0
Zn168 Zn 0.49524 0.77182 0.66947 0.0
Zn169 Zn 0.35476 0.7601 0.57249 0.0
Zn170 Zn 0.42731 0.77914 0.61331 0.0
C171 C 0.40464 0.67598 0.56413 0.0
C172 C 0.40304 0.84589 0.54497 0.0
O173 O 0.39978 0.79311 0.67068 0.0
O174 O 0.45443 0.77942 0.71516 0.0
C175 C 0.51039 0.69052 0.62351 0.0
O176 O 0.43509 0.70657 0.58113 0.0
O177 O 0.35876 0.68768 0.55994 0.0
O178 O 0.37535 0.80923 0.53483 0.0
O179 O 0.42591 0.84426 0.57587 0.0
O180 O 0.52586 0.70668 0.65395 0.0
O181 O 0.4752 0.71327 0.60595 0.0
O182 O 0.47002 0.84525 0.60017 0.0
O183 O 0.52198 0.83638 0.64735 0.0
C184 C 0.50746 0.86073 0.6197 0.0
O185 O 0.35999 0.78031 0.64637 0.0
O186 O 0.29956 0.78155 0.60482 0.0
C187 C 0.4111 0.79373 0.70493 0.0
C188 C 0.31317 0.78492 0.63761 0.0
Zn189 Zn 0.6813 0.35353 0.57394 0.0
Zn190 Zn 0.7024 0.48778 0.65799 0.0
Zn191 Zn 0.68411 0.42256 0.61061 0.0
C192 C 0.62797 0.52098 0.60543 0.0
C193 C 0.79174 0.47939 0.62355 0.0
O194 O 0.68146 0.35614 0.64588 0.0
O195 O 0.72102 0.30927 0.60626 0.0
C196 C 0.59137 0.38993 0.56352 0.0
O197 O 0.62604 0.47496 0.59505 0.0
O198 O 0.6598 0.53527 0.62929 0.0
O199 O 0.77701 0.49426 0.65419 0.0
O200 O 0.76106 0.45485 0.60248 0.0
O201 O 0.60527 0.34749 0.57477 0.0
O202 O 0.61946 0.42841 0.57175 0.0
O203 O 0.75304 0.41702 0.57619 0.0
O204 O 0.7186 0.37734 0.52953 0.0
C205 C 0.75623 0.4006 0.54332 0.0
O206 O 0.66497 0.39513 0.66677 0.0
O207 O 0.67358 0.46037 0.70349 0.0
C208 C 0.70712 0.3168 0.63844 0.0
C209 C 0.66063 0.41498 0.69866 0.0
Zn210 Zn 0.1185 0.6815 0.57326 0.0
Zn211 Zn 0.97794 0.69229 0.65434 0.0
Zn212 Zn 0.04446 0.67816 0.60306 0.0
C213 C 0.95959 0.60204 0.60812 0.0
C214 C 0.97624 0.7751 0.60521 0.0
O215 O 0.10582 0.6955 0.64058 0.0
O216 O 0.14721 0.74046 0.60061 0.0
C217 C 0.0963 0.5864 0.5737 0.0
O218 O 0.00225 0.61076 0.5929 0.0
O219 O 0.94233 0.63179 0.63184 0.0
O220 O 0.96211 0.76208 0.63665 0.0
O221 O 0.00519 0.7466 0.58644 0.0
O222 O 0.1326 0.61031 0.5887 0.0
O223 O 0.05292 0.60795 0.57235 0.0
O224 O 0.0408 0.73628 0.55862 0.0
O225 O 0.09262 0.69501 0.5234 0.0
C226 C 0.06024 0.72923 0.52687 0.0
O227 O 0.07236 0.6677 0.66132 0.0
O228 O 0.01264 0.67871 0.70244 0.0
C229 C 0.13859 0.72996 0.63334 0.0
C230 C 0.0572 0.66545 0.69476 0.0
Zn231 Zn 0.77898 0.96466 0.65309 0.0
Zn232 Zn 0.77349 0.09969 0.56958 0.0
Zn233 Zn 0.78643 0.03294 0.60511 0.0
C234 C 0.70945 0.04176 0.53779 0.0
C235 C 0.87056 0.07979 0.56034 0.0
O236 O 0.80691 0.06295 0.6603 0.0
O237 O 0.80965 -0.00284 0.69679 0.0
C238 C 0.68436 0.97103 0.62261 0.0
O239 O 0.71494 0.02783 0.57109 0.0
O240 O 0.74284 0.07043 0.52413 0.0
O241 O 0.8469 0.11837 0.57021 0.0
O242 O 0.85041 0.0362 0.56629 0.0
O243 O 0.70377 0.95518 0.65171 0.0
O244 O 0.7113 -0.00334 0.60003 0.0
O245 O 0.84904 -0.01334 0.58744 0.0
O246 O 0.82369 0.92255 0.62142 0.0
C247 C 0.85244 0.94045 0.59702 0.0
O248 O 0.78355 0.10002 0.63995 0.0
O249 O 0.72672 0.13378 0.60417 0.0
C250 C 0.81669 0.04365 0.69168 0.0
C251 C 0.74837 0.13231 0.63475 0.0
Zn252 Zn -0.00778 0.19719 0.84655 0.0
Zn253 Zn 0.85493 0.19958 0.93035 0.0
Zn254 Zn 0.92244 0.18662 0.89441 0.0
C255 C 0.91647 0.26202 0.96134 0.0
C256 C 0.87441 0.10443 0.94142 0.0
O257 O 0.89373 0.1657 0.8391 0.0
O258 O 0.95882 0.17149 0.8016 0.0
C259 C -0.0072 0.28694 0.88035 0.0
O260 O 0.92996 0.25621 0.92805 0.0
O261 O 0.88605 0.23044 0.97517 0.0
O262 O 0.83504 0.12709 0.93125 0.0
O263 O 0.91811 0.12414 0.93415 0.0
O264 O 0.01022 0.26982 0.85109 0.0
O265 O 0.96284 0.25986 0.90002 0.0
O266 O 0.96473 0.12277 0.91014 0.0
O267 O 0.02952 0.14535 0.87535 0.0
C268 C 0.00984 0.11615 0.89868 0.0
O269 O 0.85599 0.18991 0.85914 0.0
O270 O 0.82101 0.24528 0.89492 0.0
C271 C 0.91318 0.15885 0.80739 0.0
C272 C 0.82328 0.22444 0.8642 0.0
Zn273 Zn 0.27829 0.92758 0.95235 0.0
Zn274 Zn 0.26433 0.00102 0.84121 0.0
Zn275 Zn 0.27585 0.94102 0.89497 0.0
C276 C 0.34288 0.03513 0.89082 0.0
C277 C 0.17044 -0.00749 0.87493 0.0
O278 O 0.27603 0.86639 0.87767 0.0
O279 O 0.23357 0.86423 0.92861 0.0
C280 C 0.35781 0.885 0.94285 0.0
O281 O 0.33466 -0.00688 0.9061 0.0
O282 O 0.31629 0.04864 0.8639 0.0
O283 O 0.18923 0.01214 0.84674 0.0
O284 O 0.19833 0.96652 0.89646 0.0
O285 O 0.35434 0.9251 0.96081 0.0
O286 O 0.32888 0.88021 0.91506 0.0
O287 O 0.20229 0.95278 0.93235 0.0
O288 O 0.23789 0.97023 0.9852 0.0
C289 C 0.1979 0.96531 0.96634 0.0
O290 O 0.29237 0.89505 0.84531 0.0
O291 O 0.28912 0.95366 0.80336 0.0
C292 C 0.24144 0.84579 0.89721 0.0
C293 C 0.29821 0.90869 0.81207 0.0
Zn294 Zn 0.61733 0.29932 0.93942 0.0
Zn295 Zn 0.44949 0.28343 0.83848 0.0
Zn296 Zn 0.54396 0.29907 0.90661 0.0
C297 C 0.5474 0.3156 0.81293 0.0
C298 C 0.46082 0.35394 0.90496 0.0
O299 O 0.54357 0.2279 0.93814 0.0
O300 O 0.59161 0.25918 0.98189 0.0
C301 C 0.64562 0.27521 0.87232 0.0
O302 O 0.56095 0.3149 0.84694 0.0
O303 O 0.50356 0.30063 0.80255 0.0
O304 O 0.46823 0.32255 0.88045 0.0
O305 O 0.4972 0.36037 0.9272 0.0
O306 O 0.65839 0.26226 0.90392 0.0
O307 O 0.60482 0.29991 0.86753 0.0
O308 O 0.54492 0.3622 0.9465 0.0
O309 O 0.62708 0.37401 0.9431 0.0
C310 C 0.58483 0.38833 0.95501 0.0
O311 O 0.50192 0.22697 0.91075 0.0
O312 O 0.45118 0.21555 0.86156 0.0
C313 C 0.56291 0.22409 0.97024 0.0
C314 C 0.47088 0.2002 0.8911 0.0
Zn315 Zn 0.18695 0.47638 0.84483 0.0
Zn316 Zn 0.2046 0.5927 0.93889 0.0
Zn317 Zn 0.18807 0.53906 0.89444 0.0
C318 C 0.29469 0.56811 0.93653 0.0
C319 C 0.14012 0.54698 0.96914 0.0
O320 O 0.17507 0.57813 0.84071 0.0
O321 O 0.18013 0.51715 0.80059 0.0
C322 C 0.27256 0.45393 0.88219 0.0
O323 O 0.26547 0.5323 0.92406 0.0
O324 O 0.27796 0.6123 0.93681 0.0
O325 O 0.18584 0.53684 0.97543 0.0
O326 O 0.12639 0.54235 0.9358 0.0
O327 O 0.24897 0.43784 0.85452 0.0
O328 O 0.25601 0.49211 0.89988 0.0
O329 O 0.11916 0.49804 0.90914 0.0
O330 O 0.12265 0.4464 0.86229 0.0
C331 C 0.10045 0.46161 0.89045 0.0
O332 O 0.18554 0.61344 0.8705 0.0
O333 O 0.15476 0.64346 0.92108 0.0
C334 C 0.1719 0.56281 0.80752 0.0
C335 C 0.16579 0.65001 0.88813 0.0
C336 C 0.65414 0.13224 0.2924 0.0
C337 C 0.62241 0.17234 0.28308 0.0
C338 C 0.6794 0.10488 0.26556 0.0
C339 C 0.67405 0.11669 0.2284 0.0
H340 H 0.65551 0.11857 0.32007 0.0
H341 H 0.69983 0.07169 0.27387 0.0
S342 S 0.60707 0.22755 0.19144 0.0
N343 N 0.59548 0.22915 0.23544 0.0
N344 N 0.64338 0.17821 0.1849 0.0
C345 C 0.64818 0.16102 0.21943 0.0
C346 C 0.62211 0.18864 0.24681 0.0
C347 C 0.34238 0.61088 0.21621 0.0
C348 C 0.37951 0.64846 0.22216 0.0
C349 C 0.31807 0.58724 0.24538 0.0
C350 C 0.3302 0.60005 0.28159 0.0
H351 H 0.33454 0.59705 0.18907 0.0
H352 H 0.29146 0.55677 0.23947 0.0
S353 S 0.41976 0.70125 0.31131 0.0
N354 N 0.42295 0.70183 0.26657 0.0
N355 N 0.37815 0.65644 0.32149 0.0
C356 C 0.3644 0.64026 0.2878 0.0
C357 C 0.389 0.66454 0.25803 0.0
C358 C 0.82951 0.30048 0.2697 0.0
C359 C 0.87509 0.31444 0.28738 0.0
C360 C 0.80943 0.33092 0.24187 0.0
C361 C 0.83417 0.37615 0.23174 0.0
H362 H 0.8099 0.26588 0.27703 0.0
H363 H 0.77444 0.31932 0.22844 0.0
S364 S 0.95669 0.42612 0.26804 0.0
N365 N 0.94543 0.37437 0.29149 0.0
N366 N 0.90802 0.43117 0.23997 0.0
C367 C 0.87995 0.38969 0.24912 0.0
C368 C 0.90029 0.35891 0.27681 0.0
C369 C 0.08266 0.84535 0.29642 0.0
C370 C 0.12568 0.87656 0.29193 0.0
C371 C 0.05893 0.82205 0.26627 0.0
C372 C 0.07738 0.82913 0.23062 0.0
H373 H 0.06619 0.84037 0.32308 0.0
H374 H 0.02513 0.79925 0.27089 0.0
S375 S 0.19048 0.9058 0.20473 0.0
N376 N 0.18778 0.91057 0.24925 0.0
N377 N 0.14199 0.86913 0.19312 0.0
C378 C 0.12138 0.85888 0.2261 0.0
C379 C 0.14578 0.88195 0.25661 0.0
C380 C 0.34701 0.83114 0.79384 0.0
C381 C 0.31991 0.87447 0.78396 0.0
C382 C 0.37491 0.80376 0.768 0.0
C383 C 0.37637 0.81832 0.73124 0.0
H384 H 0.34878 0.81965 0.82199 0.0
H385 H 0.3966 0.77176 0.77705 0.0
S386 S 0.3121 0.92887 0.69116 0.0
N387 N 0.29529 0.92936 0.73419 0.0
N388 N 0.34883 0.87955 0.6866 0.0
C389 C 0.34834 0.86071 0.7209 0.0
C390 C 0.31982 0.88825 0.74696 0.0
C391 C 0.57936 0.31958 0.74923 0.0
C392 C 0.58262 0.33648 0.7854 0.0
C393 C 0.60691 0.34351 0.72158 0.0
C394 C 0.63836 0.3856 0.72899 0.0
H395 H 0.55413 0.28852 0.74203 0.0
H396 H 0.60146 0.33038 0.69397 0.0
S397 S 0.66313 0.44236 0.81966 0.0
N398 N 0.6219 0.39627 0.82744 0.0
N399 N 0.6743 0.44067 0.77564 0.0
C400 C 0.64397 0.40126 0.76534 0.0
C401 C 0.61598 0.37683 0.79351 0.0
C402 C 0.09081 0.66046 0.75914 0.0
C403 C 0.09103 0.64347 0.72291 0.0
C404 C 0.12016 0.63673 0.78616 0.0
C405 C 0.15045 0.59483 0.778 0.0
H406 H 0.06704 0.69163 0.7668 0.0
H407 H 0.11692 0.64975 0.81389 0.0
S408 S 0.16463 0.53639 0.68686 0.0
N409 N 0.12408 0.5823 0.68037 0.0
N410 N 0.18015 0.53915 0.73027 0.0
C411 C 0.15205 0.57876 0.74151 0.0
C412 C 0.12195 0.60247 0.71429 0.0
C413 C 0.87186 0.11453 0.71383 0.0
C414 C 0.83702 0.07547 0.72149 0.0
C415 C 0.89476 0.14285 0.74176 0.0
C416 C 0.88371 0.13298 0.77841 0.0
H417 H 0.88318 0.12185 0.68611 0.0
H418 H 0.92227 0.17187 0.73462 0.0
S419 S 0.79708 0.03268 0.81289 0.0
N420 N 0.79305 0.02774 0.76829 0.0
N421 N 0.83722 0.07981 0.82088 0.0
C422 C 0.84879 0.09404 0.78645 0.0
C423 C 0.82537 0.06538 0.75797 0.0
C424 C 0.42772 0.01895 0.35531 0.0
C425 C 0.43682 0.05359 0.38363 0.0
C426 C 0.3828 -0.01005 0.35402 0.0
C427 C 0.34583 -0.00504 0.38099 0.0
H428 H 0.45297 0.01807 0.33219 0.0
H429 H 0.37488 0.96718 0.33018 0.0
S430 S 0.35347 0.07758 0.46208 0.0
N431 N 0.40784 0.08757 0.4409 0.0
N432 N 0.32226 0.03505 0.43761 0.0
C433 C 0.3565 0.02623 0.41096 0.0
C434 C 0.40264 0.0549 0.41263 0.0
C435 C 0.43356 0.4084 0.37656 0.0
C436 C 0.396 0.41341 0.40315 0.0
C437 C 0.45736 0.36246 0.3712 0.0
C438 C 0.4449 0.32071 0.39277 0.0
H439 H 0.44037 0.43835 0.35716 0.0
H440 H 0.48329 0.35869 0.34863 0.0
S441 S 0.357 0.31779 0.47074 0.0
N442 N 0.35262 0.37554 0.45449 0.0
N443 N 0.39933 0.28905 0.44533 0.0
C444 C 0.41227 0.32692 0.42231 0.0
C445 C 0.3873 0.37362 0.42737 0.0
C446 C 0.05117 0.45336 0.36087 0.0
C447 C 0.04224 0.41777 0.38829 0.0
C448 C 0.09646 0.48133 0.36022 0.0
C449 C 0.13382 0.47439 0.38698 0.0
H450 H 0.02563 0.45559 0.33778 0.0
H451 H 0.10439 0.50479 0.33683 0.0
S452 S 0.1245 0.39234 0.46779 0.0
N453 N 0.07037 0.38279 0.44576 0.0
N454 N 0.15647 0.43472 0.444 0.0
C455 C 0.12264 0.44371 0.41688 0.0
C456 C 0.07619 0.41557 0.41775 0.0
C457 C 0.05764 0.07838 0.41907 0.0
C458 C 0.11089 0.0812 0.42123 0.0
C459 C 0.02977 0.12118 0.41036 0.0
C460 C 0.05499 0.16706 0.40337 0.0
H461 H 0.03824 0.04211 0.41928 0.0
H462 H -0.01078 0.11726 0.40563 0.0
S463 S 0.19197 0.19563 0.4158 0.0
N464 N 0.18619 0.13471 0.42394 0.0
N465 N 0.13399 0.21529 0.40677 0.0
C466 C 0.10711 0.17156 0.41055 0.0
C467 C 0.13507 0.1284 0.4202 0.0
C468 C 0.85117 0.85482 0.09376 0.0
C469 C 0.9008 0.87487 0.09719 0.0
C470 C 0.80892 0.88349 0.1025 0.0
C471 C 0.81486 0.93346 0.11401 0.0
H472 H 0.84525 0.81516 0.08791 0.0
H473 H 0.77163 0.86559 0.10228 0.0
S474 S 0.93522 0.00705 0.11961 0.0
N475 N 0.95281 0.95004 0.10731 0.0
N476 N 0.87258 0.00465 0.12278 0.0
C477 C 0.86342 0.95601 0.11311 0.0
C478 C 0.90677 0.92651 0.10461 0.0
C479 C 0.487 0.87282 0.13946 0.0
C480 C 0.49516 0.83888 0.11075 0.0
C481 C 0.51654 0.91676 0.14317 0.0
C482 C 0.55446 0.92878 0.11786 0.0
H483 H 0.46202 0.8623 0.16158 0.0
H484 H 0.51322 0.93869 0.16786 0.0
S485 S 0.58232 0.85875 0.03345 0.0
N486 N 0.53753 0.8246 0.05341 0.0
N487 N 0.59225 0.90842 0.05976 0.0
C488 C 0.55768 0.89924 0.08627 0.0
C489 C 0.52799 0.85387 0.08277 0.0
C490 C 0.57375 0.53903 0.13099 0.0
C491 C 0.57201 0.57863 0.10596 0.0
C492 C 0.61887 0.51336 0.13684 0.0
C493 C 0.66264 0.52635 0.11729 0.0
H494 H 0.54188 0.5316 0.14883 0.0
H495 H 0.6205 0.48566 0.15835 0.0
S496 S 0.67428 0.62064 0.04408 0.0
N497 N 0.61504 0.62528 0.0583 0.0
N498 N 0.69999 0.57533 0.06841 0.0
C499 C 0.65967 0.56159 0.08923 0.0
C500 C 0.61396 0.58829 0.0837 0.0
C501 C 0.94886 0.61934 0.07914 0.0
C502 C 0.98414 0.62667 0.10746 0.0
C503 C 0.91974 0.57473 0.07709 0.0
C504 C 0.92591 0.53645 0.10299 0.0
H505 H 0.93897 0.65042 0.06159 0.0
H506 H 0.88789 0.57311 0.05834 0.0
S507 S 0.02215 0.53302 0.17632 0.0
N508 N 0.03038 0.58884 0.15736 0.0
N509 N 0.97632 0.50464 0.15287 0.0
C510 C 0.96656 0.54037 0.12753 0.0
C511 C -0.00448 0.58589 0.13006 0.0
C512 C 0.61966 0.92775 0.584 0.0
C513 C 0.63132 0.95816 0.61423 0.0
C514 C 0.57314 0.90133 0.58209 0.0
C515 C 0.53764 0.90534 0.61026 0.0
H516 H 0.64849 0.92014 0.5639 0.0
H517 H 0.56785 0.87307 0.56111 0.0
S518 S 0.54522 -0.00885 0.68935 0.0
N519 N 0.60026 -0.00102 0.66856 0.0
N520 N 0.5125 0.94994 0.66464 0.0
C521 C 0.54599 0.94162 0.63739 0.0
C522 C 0.59331 0.96779 0.63962 0.0
C523 C 0.54132 0.55413 0.6094 0.0
C524 C 0.59021 0.55794 0.59436 0.0
C525 C 0.51313 0.59754 0.61631 0.0
C526 C 0.53314 0.6454 0.60799 0.0
H527 H 0.52742 0.51837 0.61974 0.0
H528 H 0.4775 0.59397 0.63076 0.0
S529 S 0.65423 0.67401 0.56137 0.0
N530 N 0.6536 0.61219 0.56619 0.0
N531 N 0.60026 0.69365 0.57878 0.0
C532 C 0.57897 0.64903 0.58904 0.0
C533 C 0.60757 0.60509 0.58211 0.0
C534 C 0.92704 0.52193 0.63095 0.0
C535 C 0.93068 0.55554 0.6017 0.0
C536 C 0.88327 0.49245 0.63591 0.0
C537 C 0.84247 0.49517 0.61136 0.0
H538 H 0.95536 0.523 0.65243 0.0
H539 H 0.87947 0.47088 0.66071 0.0
S540 S 0.8384 0.56931 0.52646 0.0
N541 N 0.8939 0.5843 0.54507 0.0
N542 N 0.81176 0.52733 0.55371 0.0
C543 C 0.84868 0.52323 0.5794 0.0
C544 C 0.89305 0.55391 0.57467 0.0
C545 C 0.876 0.85979 0.56949 0.0
C546 C 0.89194 0.90687 0.58329 0.0
C547 C 0.90692 0.8175 0.57257 0.0
C548 C 0.95456 0.82104 0.58971 0.0
H549 H 0.83725 0.85442 0.55996 0.0
H550 H 0.8913 0.781 0.56493 0.0
S551 S 0.01749 0.9372 0.62423 0.0
N552 N 0.96138 0.956 0.60963 0.0
N553 N 0.01943 0.87612 0.61584 0.0
C554 C 0.97329 0.86878 0.59982 0.0
C555 C 0.94198 0.912 0.59632 0.0
C556 C 0.08262 0.07534 0.92628 0.0
C557 C 0.03749 0.07031 0.90619 0.0
C558 C 0.12471 0.04634 0.91768 0.0
C559 C 0.12255 0.01159 0.88888 0.0
H560 H 0.08746 0.10602 0.94547 0.0
H561 H 0.16046 0.05467 0.93129 0.0
S562 S 0.00996 0.97775 0.83321 0.0
N563 N -0.00976 0.02275 0.86054 0.0
N564 N 0.0701 0.96827 0.84408 0.0
C565 C 0.07609 0.00212 0.87149 0.0
C566 C 0.033 0.0312 0.88061 0.0
C567 C 0.37829 0.10683 0.92609 0.0
C568 C 0.38595 0.06704 0.90172 0.0
C569 C 0.41198 0.14819 0.92698 0.0
C570 C 0.45337 0.15071 0.90311 0.0
H571 H 0.34371 0.10825 0.94188 0.0
H572 H 0.4022 0.18072 0.94315 0.0
S573 S 0.49359 0.05234 0.83861 0.0
N574 N 0.44125 0.02916 0.85718 0.0
N575 N 0.5037 0.10774 0.85799 0.0
C576 C 0.46404 0.10883 0.88146 0.0
C577 C 0.43034 0.06661 0.88095 0.0
C578 C 0.40924 0.43159 0.90967 0.0
C579 C 0.41186 0.37901 0.90713 0.0
C580 C 0.36322 0.456 0.90285 0.0
C581 C 0.31889 0.42832 0.89388 0.0
H582 H 0.4434 0.45398 0.91438 0.0
H583 H 0.3632 0.49667 0.90222 0.0
S584 S 0.30543 0.28945 0.88881 0.0
N585 N 0.36601 0.29981 0.89849 0.0
N586 N 0.27958 0.3456 0.88627 0.0
C587 C 0.3207 0.37563 0.89354 0.0
C588 C 0.36725 0.35096 0.90019 0.0
C589 C 0.0633 0.39331 0.92635 0.0
C590 C 0.05559 0.43252 0.90144 0.0
C591 C 0.03878 0.34648 0.92148 0.0
C592 C 0.00635 0.33828 0.8916 0.0
H593 H 0.09345 0.39642 0.94642 0.0
H594 H 0.04912 0.31538 0.93887 0.0
S595 S 0.96267 0.43335 0.82576 0.0
N596 N 0.00456 0.46372 0.85157 0.0
N597 N 0.95931 0.37542 0.84188 0.0
C598 C -0.0072 0.37921 0.86999 0.0
C599 C 0.01681 0.42685 0.87544 0.0
C600 C 0.71042 0.25619 0.39261 0.0
C601 C 0.70944 0.20502 0.38259 0.0
C602 C 0.75344 0.27736 0.40937 0.0
C603 C 0.79717 0.24874 0.41416 0.0
H604 H 0.6756 0.27749 0.39298 0.0
H605 H 0.75097 0.31448 0.42144 0.0
S606 S 0.81893 0.11972 0.38034 0.0
N607 N 0.75849 0.13024 0.37109 0.0
N608 N 0.84157 0.17214 0.39893 0.0
C609 C 0.7996 0.20115 0.3978 0.0
C610 C 0.75503 0.17871 0.38249 0.0
C611 C 0.31574 0.73618 0.38782 0.0
C612 C 0.28099 0.7053 0.36862 0.0
C613 C 0.30403 0.78621 0.39568 0.0
C614 C 0.25854 0.80665 0.38311 0.0
H615 H 0.34765 0.71955 0.40187 0.0
H616 H 0.32724 0.80653 0.41521 0.0
S617 S 0.16471 0.74573 0.32121 0.0
N618 N 0.20624 0.70134 0.33012 0.0
N619 N 0.18517 0.79634 0.34331 0.0
C620 C 0.22842 0.77865 0.35857 0.0
C621 C 0.23985 0.72758 0.35124 0.0
C622 C 0.22909 0.66961 0.17009 0.0
C623 C 0.27646 0.69047 0.16009 0.0
C624 C 0.18585 0.69982 0.17134 0.0
C625 C 0.18942 0.75107 0.16227 0.0
H626 H 0.22377 0.62909 0.17051 0.0
H627 H 0.14889 0.68134 0.1726 0.0
S628 S 0.30749 0.82578 0.14906 0.0
N629 N 0.3268 0.7673 0.15368 0.0
N630 N 0.24517 0.82337 0.15397 0.0
C631 C 0.23786 0.77358 0.16085 0.0
C632 C 0.28194 0.74314 0.16048 0.0
C633 C 0.71502 0.26961 0.1291 0.0
C634 C 0.7654 0.26601 0.14178 0.0
C635 C 0.6922 0.22966 0.10997 0.0
C636 C 0.71715 0.1837 0.10651 0.0
H637 H 0.6966 0.30578 0.12841 0.0
H638 H 0.65676 0.2359 0.09566 0.0
S639 S 0.83827 0.14876 0.15067 0.0
N640 N 0.83294 0.20961 0.15897 0.0
N641 N 0.78661 0.13187 0.1277 0.0
C642 C 0.762 0.17637 0.1265 0.0
C643 C 0.78681 0.21815 0.14368 0.0
C644 C 0.18418 0.80255 0.65802 0.0
C645 C 0.17288 0.75095 0.66093 0.0
C646 C 0.23461 0.81935 0.66001 0.0
C647 C 0.27354 0.78451 0.6651 0.0
H648 H 0.15605 0.82793 0.64717 0.0
H649 H 0.24349 0.85669 0.64991 0.0
S650 S 0.25964 0.65191 0.6928 0.0
N651 N 0.20151 0.6698 0.68241 0.0
N652 N 0.29615 0.70256 0.68827 0.0
C653 C 0.26078 0.73708 0.67897 0.0
C654 C 0.20971 0.71946 0.67594 0.0
C655 C 0.68863 0.18899 0.66451 0.0
C656 C 0.73922 0.17392 0.65996 0.0
C657 C 0.67701 0.24011 0.66724 0.0
C658 C 0.71584 0.27664 0.66468 0.0
H659 H 0.65773 0.1622 0.66013 0.0
H660 H 0.63764 0.25085 0.6642 0.0
S661 S 0.85416 0.25526 0.66685 0.0
N662 N 0.82829 0.19839 0.66378 0.0
N663 N 0.80616 0.29444 0.66949 0.0
C664 C 0.76626 0.26135 0.66895 0.0
C665 C 0.77821 0.20947 0.66602 0.0
C666 C 0.76836 0.28328 0.83265 0.0
C667 C 0.78123 0.23289 0.83896 0.0
C668 C 0.71757 0.29799 0.83446 0.0
C669 C 0.67953 0.26232 0.84259 0.0
H670 H 0.79769 0.31235 0.8332 0.0
H671 H 0.70989 0.33776 0.83675 0.0
S672 S 0.69242 0.12431 0.84574 0.0
N673 N 0.75117 0.14627 0.84173 0.0
N674 N 0.65556 0.17403 0.84417 0.0
C675 C 0.69089 0.21119 0.83917 0.0
C676 C 0.74247 0.19621 0.83774 0.0
C677 C 0.23912 0.76423 0.86358 0.0
C678 C 0.21466 0.79972 0.88546 0.0
C679 C 0.2181 0.7159 0.85883 0.0
C680 C 0.17231 0.7022 0.87601 0.0
H681 H 0.27659 0.77222 0.85281 0.0
H682 H 0.24082 0.68773 0.84549 0.0
S683 S 0.0866 0.78676 0.92604 0.0
N684 N 0.13717 0.82192 0.9169 0.0
N685 N 0.09763 0.73112 0.90792 0.0
C686 C 0.14403 0.73985 0.89291 0.0
C687 C 0.16553 0.78865 0.89801 0.0
C688 C 0.57213 0.06084 0.51609 0.0
C689 C 0.57402 0.06602 0.47801 0.0
C690 C 0.61495 0.04544 0.53591 0.0
C691 C 0.6607 0.03471 0.51812 0.0
H692 H 0.54032 0.07591 0.53094 0.0
H693 H 0.61412 0.04848 0.56522 0.0
S694 S 0.67947 0.02545 0.41885 0.0
N695 N 0.62062 0.04529 0.42325 0.0
N696 N 0.70136 0.01797 0.46054 0.0
C697 C 0.65995 0.03106 0.48013 0.0
C698 C 0.61612 0.04572 0.45999 0.0
C699 C 0.45598 0.64289 0.51357 0.0
C700 C 0.42359 0.63285 0.54297 0.0
C701 C 0.45308 0.61322 0.48195 0.0
C702 C 0.41713 0.57342 0.47892 0.0
H703 H 0.47774 0.67782 0.51273 0.0
H704 H 0.47207 0.62709 0.45784 0.0
S705 S 0.34175 0.51961 0.55434 0.0
N706 N 0.3677 0.5715 0.57147 0.0
N707 N 0.36325 0.51514 0.51242 0.0
C708 C 0.39434 0.55636 0.51111 0.0
C709 C 0.39659 0.58692 0.54304 0.0
C710 C 0.85018 0.39162 0.46608 0.0
C711 C 0.89546 0.37968 0.48444 0.0
C712 C 0.80567 0.40212 0.48544 0.0
C713 C 0.8052 0.40157 0.52367 0.0
H714 H 0.84777 0.38837 0.43681 0.0
H715 H 0.77072 0.40769 0.4704 0.0
S716 S 0.91564 0.37742 0.58392 0.0
N717 N 0.93863 0.37319 0.54247 0.0
N718 N 0.85501 0.39096 0.57884 0.0
C719 C 0.85131 0.39366 0.54211 0.0
C720 C 0.8965 0.38342 0.52243 0.0
C721 C 0.03138 0.81216 0.50155 0.0
C722 C 0.05226 0.76448 0.49586 0.0
C723 C 0.03659 0.85042 0.47547 0.0
C724 C 0.06404 0.84298 0.44299 0.0
H725 H 0.01479 0.82149 0.52742 0.0
H726 H 0.02385 0.8877 0.4827 0.0
S727 S 0.11207 0.72041 0.41054 0.0
N728 N 0.09033 0.70849 0.45158 0.0
N729 N 0.10121 0.7806 0.40324 0.0
C730 C 0.07826 0.79348 0.43478 0.0
C731 C 0.07248 0.75433 0.46118 0.0
C732 C 0.11142 0.92669 0.97636 0.0
C733 C 0.14809 0.96377 0.98558 0.0
C734 C 0.07691 0.90801 1.0025 0.0
C735 C 0.07804 0.92606 0.03853 0.0
H736 H 0.11354 0.90763 0.95048 0.0
H737 H 0.0551 0.87426 0.99595 0.0
S738 S 0.154 0.03521 0.07201 0.0
N739 N 0.17359 0.02706 0.02992 0.0
N740 N 0.10905 -0.00781 0.07864 0.0
C741 C 0.10749 0.96963 0.04552 0.0
C742 C 0.14279 -0.01175 0.01919 0.0
C743 C 0.5759 0.13658 0.05083 0.0
C744 C 0.58161 0.0895 0.03397 0.0
C745 C 0.56516 0.17968 0.03017 0.0
C746 C 0.55913 0.17712 0.99209 0.0
H747 H 0.58474 0.14118 0.0794 0.0
H748 H 0.5652 0.21582 0.04382 0.0
S749 S 0.56392 0.06102 0.93631 0.0
N750 N 0.57454 0.04161 0.97814 0.0
N751 N 0.55535 0.12232 0.9393 0.0
C752 C 0.55995 0.12939 0.97567 0.0
C753 C 0.57083 0.08566 0.99668 0.0
C754 C 0.33201 0.52935 0.9916 0.0
C755 C 0.3394 0.55816 0.96003 0.0
C756 C 0.36265 0.53735 0.02255 0.0
C757 C 0.40245 0.57343 0.02268 0.0
H758 H 0.29846 0.50548 0.99409 0.0
H759 H 0.35123 0.51967 0.04777 0.0
S760 S 0.44441 0.64981 0.9442 0.0
N761 N 0.39438 0.61785 0.92885 0.0
N762 N 0.45288 0.63143 0.98659 0.0
C763 C 0.4147 0.59675 0.98967 0.0
C764 C 0.38282 0.58956 0.95842 0.0
C765 C 0.92909 0.34821 0.04117 0.0
C766 C 0.90608 0.39151 0.02707 0.0
C767 C 0.93852 0.30688 0.01858 0.0
C768 C 0.92774 0.30903 0.98123 0.0
H769 H 0.93101 0.34252 0.07027 0.0
H770 H 0.94894 0.27149 0.03094 0.0
S771 S 0.88463 0.42066 0.9302 0.0
N772 N 0.88613 0.43918 0.97302 0.0
N773 N 0.90443 0.36198 0.93028 0.0
C774 C 0.91465 0.35558 0.96614 0.0
C775 C 0.90465 0.39733 0.98923 0.0
C776 C 0.35846 0.92532 0.54148 0.0
C777 C 0.3942 0.89336 0.52561 0.0
C778 C 0.31932 0.94604 0.52047 0.0
C779 C 0.31544 0.93618 0.48292 0.0
H780 H 0.3555 0.92746 0.57077 0.0
H781 H 0.28905 0.96519 0.53444 0.0
S782 S 0.41374 0.87348 0.42743 0.0
N783 N 0.43347 0.86681 0.46972 0.0
N784 N 0.36036 0.90522 0.42981 0.0
C785 C 0.35712 0.91307 0.46612 0.0
C786 C 0.39691 0.89231 0.48766 0.0
C787 C 0.52109 0.35159 0.52815 0.0
C788 C 0.5603 0.38834 0.52995 0.0
C789 C 0.51523 0.32059 0.49739 0.0
C790 C 0.5482 0.32599 0.46774 0.0
H791 H 0.50096 0.341 0.55262 0.0
H792 H 0.49029 0.28788 0.49919 0.0
S793 S 0.6424 0.42885 0.45383 0.0
N794 N 0.62077 0.43831 0.49525 0.0
N795 N 0.61081 0.37925 0.43796 0.0
C796 C 0.57984 0.36892 0.46647 0.0
C797 C 0.58507 0.40097 0.49745 0.0
C798 C 0.19179 0.51482 0.52591 0.0
C799 C 0.18244 0.53174 0.49045 0.0
C800 C 0.15627 0.52234 0.55346 0.0
C801 C 0.11118 0.54858 0.54645 0.0
H802 H 0.22884 0.50066 0.53322 0.0
H803 H 0.16788 0.51508 0.58121 0.0
S804 S 0.06152 0.58319 0.45574 0.0
N805 N 0.11937 0.56261 0.44787 0.0
N806 N 0.05255 0.57701 0.49986 0.0
C807 C 0.09726 0.55613 0.50998 0.0
C808 C 0.13342 0.54831 0.4818 0.0
C809 C 0.89573 0.08871 0.49683 0.0
C810 C 0.91082 0.08907 0.53357 0.0
C811 C 0.91379 0.12578 0.47269 0.0
C812 C 0.94714 0.16417 0.48479 0.0
H813 H 0.86453 0.06447 0.48802 0.0
H814 H 0.89771 0.12714 0.44574 0.0
S815 S 0.01139 0.17011 0.57444 0.0
N816 N 0.97088 0.12227 0.57787 0.0
N817 N 0.00502 0.19166 0.53267 0.0
C818 C 0.96893 0.15931 0.51947 0.0
C819 C 0.95094 0.12146 0.54379 0.0
C820 C 0.83027 0.02886 0.96333 0.0
C821 C 0.86653 0.06703 0.97025 0.0
C822 C 0.79638 0.01316 0.99034 0.0
C823 C 0.79794 0.03474 0.02523 0.0
H824 H 0.82343 0.01619 0.93573 0.0
H825 H 0.76573 -0.01257 0.98285 0.0
S826 S 0.89435 0.12655 0.0592 0.0
N827 N 0.9088 0.11853 0.01603 0.0
N828 N 0.8452 0.08877 0.06706 0.0
C829 C 0.83902 0.06697 0.03398 0.0
C830 C 0.87369 0.0829 0.00635 0.0
C831 C 0.4148 0.8178 0.96743 0.0
C832 C 0.36684 0.84017 0.96509 0.0
C833 C 0.42413 0.78036 0.99355 0.0
C834 C 0.38555 0.76457 0.0175 0.0
H835 H 0.44535 0.83025 0.94986 0.0
H836 H 0.4615 0.76391 0.99518 0.0
S837 S 0.25625 0.81591 0.02537 0.0
N838 N 0.28251 0.84681 0.99138 0.0
N839 N 0.29973 0.77607 0.03909 0.0
C840 C 0.33798 0.78686 0.01549 0.0
C841 C 0.32872 0.82489 0.98958 0.0
C842 C 0.65742 0.45642 0.02281 0.0
C843 C 0.65111 0.42127 0.05093 0.0
C844 C 0.62556 0.45447 0.99216 0.0
C845 C 0.58713 0.41718 0.98917 0.0
H846 H 0.69123 0.48016 0.02186 0.0
H847 H 0.6367 0.47593 0.96844 0.0
S848 S 0.5431 0.33212 0.06234 0.0
N849 N 0.595 0.35954 0.07891 0.0
N850 N 0.53398 0.35728 0.02192 0.0
C851 C 0.57342 0.39085 0.02076 0.0
C852 C 0.60649 0.39183 0.05149 0.0
C853 C 0.04799 0.64373 0.00786 0.0
C854 C 0.0818 0.68096 0.02128 0.0
C855 C 0.06656 0.5994 0.99158 0.0
C856 C 0.11921 0.59018 0.99003 0.0
H857 H 0.00739 0.64947 0.00912 0.0
H858 H 0.03976 0.57241 0.98005 0.0
S859 S 0.22214 0.67725 0.02265 0.0
N860 N 0.16915 0.70672 0.03155 0.0
N861 N 0.20424 0.62297 0.00483 0.0
C862 C 0.15275 0.62694 0.00502 0.0
C863 C 0.13396 0.67242 0.01959 0.0
loop_
_geom_bond_atom_site_label_1
_geom_bond_atom_site_label_2
_geom_bond_distance
_geom_bond_site_symmetry_2
_ccdc_geom_bond_type
Zn0 O6 1.920 . S
Zn0 O12 1.898 . S
Zn0 O15 1.905 . S
Zn1 O9 1.905 . S
Zn1 O10 1.898 . S
Zn1 O18 1.920 . S
Zn2 O5 2.080 . S
Zn2 O8 2.114 . S
Zn2 O11 2.120 . S
Zn2 O13 2.120 . S
Zn2 O14 2.114 . S
Zn2 O17 2.080 . S
C3 O8 1.166 . S
C3 O9 1.182 . S
C4 O10 1.167 . S
C4 O11 1.299 . S
O5 Zn2 2.080 . S
O5 C19 1.305 . S
O6 Zn0 1.920 . S
O6 C19 1.234 . S
C7 O12 1.167 . S
C7 O13 1.299 . S
O8 Zn2 2.114 . S
O8 C3 1.166 . S
O9 Zn1 1.905 . S
O9 C3 1.182 . S
O10 Zn1 1.898 . S
O10 C4 1.167 . S
O11 Zn2 2.120 . S
O11 C4 1.299 . S
O12 Zn0 1.898 . S
O12 C7 1.167 . S
O13 Zn2 2.120 . S
O13 C7 1.299 . S
O14 Zn2 2.114 . S
O14 C16 1.166 . S
O15 Zn0 1.905 . S
O15 C16 1.182 . S
C16 O14 1.166 . S
C16 O15 1.182 . S
O17 Zn2 2.080 . S
O17 C20 1.305 . S
O18 Zn1 1.920 . S
O18 C20 1.234 . S
C19 O5 1.305 . S
C19 O6 1.234 . S
C20 O17 1.305 . S
C20 O18 1.234 . S
Zn21 O27 1.920 . S
Zn21 O33 1.898 . S
Zn21 O36 1.905 . S
Zn22 O30 1.905 . S
Zn22 O31 1.898 . S
Zn22 O39 1.920 . S
Zn23 O26 2.080 . S
Zn23 O29 2.114 . S
Zn23 O32 2.120 . S
Zn23 O34 2.120 . S
Zn23 O35 2.114 . S
Zn23 O38 2.080 . S
C24 O29 1.166 . S
C24 O30 1.182 . S
C25 O31 1.167 . S
C25 O32 1.299 . S
O26 Zn23 2.080 . S
O26 C40 1.305 . S
O27 Zn21 1.920 . S
O27 C40 1.234 . S
C28 O33 1.167 . S
C28 O34 1.299 . S
O29 Zn23 2.114 . S
O29 C24 1.166 . S
O30 Zn22 1.905 . S
O30 C24 1.182 . S
O31 Zn22 1.898 . S
O31 C25 1.167 . S
O32 Zn23 2.120 . S
O32 C25 1.299 . S
O33 Zn21 1.898 . S
O33 C28 1.167 . S
O34 Zn23 2.120 . S
O34 C28 1.299 . S
O35 Zn23 2.114 . S
O35 C37 1.166 . S
O36 Zn21 1.905 . S
O36 C37 1.182 . S
C37 O35 1.166 . S
C37 O36 1.182 . S
O38 Zn23 2.080 . S
O38 C41 1.305 . S
O39 Zn22 1.920 . S
O39 C41 1.234 . S
C40 O26 1.305 . S
C40 O27 1.234 . S
C41 O38 1.305 . S
C41 O39 1.234 . S
Zn42 O48 1.920 . S
Zn42 O54 1.898 . S
Zn42 O57 1.905 . S
Zn43 O51 1.905 . S
Zn43 O52 1.898 . S
Zn43 O60 1.920 1_455 S
Zn44 O47 2.080 . S
Zn44 O50 2.114 1_655 S
Zn44 O53 2.120 . S
Zn44 O55 2.120 . S
Zn44 O56 2.114 . S
Zn44 O59 2.080 . S
C45 O50 1.166 . S
C45 O51 1.182 . S
C46 O52 1.167 . S
C46 O53 1.299 1_455 S
O47 Zn44 2.080 . S
O47 C61 1.305 . S
O48 Zn42 1.920 . S
O48 C61 1.234 . S
C49 O54 1.167 . S
C49 O55 1.299 . S
O50 Zn44 2.114 1_455 S
O50 C45 1.166 . S
O51 Zn43 1.905 . S
O51 C45 1.182 . S
O52 Zn43 1.898 . S
O52 C46 1.167 . S
O53 Zn44 2.120 . S
O53 C46 1.299 1_655 S
O54 Zn42 1.898 . S
O54 C49 1.167 . S
O55 Zn44 2.120 . S
O55 C49 1.299 . S
O56 Zn44 2.114 . S
O56 C58 1.166 . S
O57 Zn42 1.905 . S
O57 C58 1.182 . S
C58 O56 1.166 . S
C58 O57 1.182 . S
O59 Zn44 2.080 . S
O59 C62 1.305 . S
O60 Zn43 1.920 1_655 S
O60 C62 1.234 . S
C61 O47 1.305 . S
C61 O48 1.234 . S
C62 O59 1.305 . S
C62 O60 1.234 . S
Zn63 O69 1.920 . S
Zn63 O75 1.898 . S
Zn63 O78 1.905 . S
Zn64 O72 1.905 . S
Zn64 O73 1.898 . S
Zn64 O81 1.920 1_545 S
Zn65 O68 2.080 . S
Zn65 O71 2.114 1_565 S
Zn65 O74 2.120 . S
Zn65 O76 2.120 . S
Zn65 O77 2.114 . S
Zn65 O80 2.080 . S
C66 O71 1.166 . S
C66 O72 1.182 . S
C67 O73 1.167 . S
C67 O74 1.299 1_545 S
O68 Zn65 2.080 . S
O68 C82 1.305 . S
O69 Zn63 1.920 . S
O69 C82 1.234 . S
C70 O75 1.167 . S
C70 O76 1.299 . S
O71 Zn65 2.114 1_545 S
O71 C66 1.166 . S
O72 Zn64 1.905 . S
O72 C66 1.182 . S
O73 Zn64 1.898 . S
O73 C67 1.167 . S
O74 Zn65 2.120 . S
O74 C67 1.299 1_565 S
O75 Zn63 1.898 . S
O75 C70 1.167 . S
O76 Zn65 2.120 . S
O76 C70 1.299 . S
O77 Zn65 2.114 . S
O77 C79 1.166 . S
O78 Zn63 1.905 . S
O78 C79 1.182 . S
C79 O77 1.166 . S
C79 O78 1.182 . S
O80 Zn65 2.080 . S
O80 C83 1.305 . S
O81 Zn64 1.920 1_565 S
O81 C83 1.234 . S
C82 O68 1.305 . S
C82 O69 1.234 . S
C83 O80 1.305 . S
C83 O81 1.234 . S
Zn84 O90 1.920 1_655 S
Zn84 O96 1.898 . S
Zn84 O99 1.905 . S
Zn85 O93 1.905 . S
Zn85 O94 1.898 . S
Zn85 O102 1.920 . S
Zn86 O89 2.080 . S
Zn86 O92 2.114 . S
Zn86 O95 2.120 . S
Zn86 O97 2.120 . S
Zn86 O98 2.114 1_455 S
Zn86 O101 2.080 . S
C87 O92 1.166 . S
C87 O93 1.182 . S
C88 O94 1.167 . S
C88 O95 1.299 . S
O89 Zn86 2.080 . S
O89 C103 1.305 . S
O90 Zn84 1.920 1_455 S
O90 C103 1.234 . S
C91 O96 1.167 . S
C91 O97 1.299 1_655 S
O92 Zn86 2.114 . S
O92 C87 1.166 . S
O93 Zn85 1.905 . S
O93 C87 1.182 . S
O94 Zn85 1.898 . S
O94 C88 1.167 . S
O95 Zn86 2.120 . S
O95 C88 1.299 . S
O96 Zn84 1.898 . S
O96 C91 1.167 . S
O97 Zn86 2.120 . S
O97 C91 1.299 1_455 S
O98 Zn86 2.114 1_655 S
O98 C100 1.166 . S
O99 Zn84 1.905 . S
O99 C100 1.182 . S
C100 O98 1.166 . S
C100 O99 1.182 . S
O101 Zn86 2.080 . S
O101 C104 1.305 . S
O102 Zn85 1.920 . S
O102 C104 1.234 . S
C103 O89 1.305 . S
C103 O90 1.234 . S
C104 O101 1.305 . S
C104 O102 1.234 . S
Zn105 O111 1.920 1_565 S
Zn105 O117 1.898 . S
Zn105 O120 1.905 . S
Zn106 O114 1.905 . S
Zn106 O115 1.898 . S
Zn106 O123 1.920 . S
Zn107 O110 2.080 . S
Zn107 O113 2.114 . S
Zn107 O116 2.120 . S
Zn107 O118 2.120 . S
Zn107 O119 2.114 1_545 S
Zn107 O122 2.080 . S
C108 O113 1.166 . S
C108 O114 1.182 . S
C109 O115 1.167 . S
C109 O116 1.299 . S
O110 Zn107 2.080 . S
O110 C124 1.305 . S
O111 Zn105 1.920 1_545 S
O111 C124 1.234 . S
C112 O117 1.167 . S
C112 O118 1.299 1_565 S
O113 Zn107 2.114 . S
O113 C108 1.166 . S
O114 Zn106 1.905 . S
O114 C108 1.182 . S
O115 Zn106 1.898 . S
O115 C109 1.167 . S
O116 Zn107 2.120 . S
O116 C109 1.299 . S
O117 Zn105 1.898 . S
O117 C112 1.167 . S
O118 Zn107 2.120 . S
O118 C112 1.299 1_545 S
O119 Zn107 2.114 1_565 S
O119 C121 1.166 . S
O120 Zn105 1.905 . S
O120 C121 1.182 . S
C121 O119 1.166 . S
C121 O120 1.182 . S
O122 Zn107 2.080 . S
O122 C125 1.305 . S
O123 Zn106 1.920 . S
O123 C125 1.234 . S
C124 O110 1.305 . S
C124 O111 1.234 . S
C125 O122 1.305 . S
C125 O123 1.234 . S
Zn126 O132 1.920 . S
Zn126 O138 1.898 . S
Zn126 O141 1.905 . S
Zn127 O135 1.905 . S
Zn127 O136 1.898 . S
Zn127 O144 1.920 . S
Zn128 O131 2.080 . S
Zn128 O134 2.114 . S
Zn128 O137 2.120 . S
Zn128 O139 2.120 . S
Zn128 O140 2.114 . S
Zn128 O143 2.080 . S
C129 O134 1.166 . S
C129 O135 1.182 . S
C130 O136 1.167 . S
C130 O137 1.299 . S
O131 Zn128 2.080 . S
O131 C145 1.305 . S
O132 Zn126 1.920 . S
O132 C145 1.234 . S
C133 O138 1.167 . S
C133 O139 1.299 . S
O134 Zn128 2.114 . S
O134 C129 1.166 . S
O135 Zn127 1.905 . S
O135 C129 1.182 . S
O136 Zn127 1.898 . S
O136 C130 1.167 . S
O137 Zn128 2.120 . S
O137 C130 1.299 . S
O138 Zn126 1.898 . S
O138 C133 1.167 . S
O139 Zn128 2.120 . S
O139 C133 1.299 . S
O140 Zn128 2.114 . S
O140 C142 1.166 . S
O141 Zn126 1.905 . S
O141 C142 1.182 . S
C142 O140 1.166 . S
C142 O141 1.182 . S
O143 Zn128 2.080 . S
O143 C146 1.305 . S
O144 Zn127 1.920 . S
O144 C146 1.234 . S
C145 O131 1.305 . S
C145 O132 1.234 . S
C146 O143 1.305 . S
C146 O144 1.234 . S
Zn147 O153 1.920 . S
Zn147 O159 1.898 . S
Zn147 O162 1.905 . S
Zn148 O156 1.905 . S
Zn148 O157 1.898 . S
Zn148 O165 1.920 . S
Zn149 O152 2.080 . S
Zn149 O155 2.114 . S
Zn149 O158 2.120 . S
Zn149 O160 2.120 . S
Zn149 O161 2.114 . S
Zn149 O164 2.080 . S
C150 O155 1.166 . S
C150 O156 1.182 . S
C151 O157 1.167 . S
C151 O158 1.299 . S
O152 Zn149 2.080 . S
O152 C166 1.305 . S
O153 Zn147 1.920 . S
O153 C166 1.234 . S
C154 O159 1.167 . S
C154 O160 1.299 . S
O155 Zn149 2.114 . S
O155 C150 1.166 . S
O156 Zn148 1.905 . S
O156 C150 1.182 . S
O157 Zn148 1.898 . S
O157 C151 1.167 . S
O158 Zn149 2.120 . S
O158 C151 1.299 . S
O159 Zn147 1.898 . S
O159 C154 1.167 . S
O160 Zn149 2.120 . S
O160 C154 1.299 . S
O161 Zn149 2.114 . S
O161 C163 1.166 . S
O162 Zn147 1.905 . S
O162 C163 1.182 . S
C163 O161 1.166 . S
C163 O162 1.182 . S
O164 Zn149 2.080 . S
O164 C167 1.305 . S
O165 Zn148 1.920 . S
O165 C167 1.234 . S
C166 O152 1.305 . S
C166 O153 1.234 . S
C167 O164 1.305 . S
C167 O165 1.234 . S
Zn168 O174 1.920 . S
Zn168 O180 1.898 . S
Zn168 O183 1.905 . S
Zn169 O177 1.905 . S
Zn169 O178 1.898 . S
Zn169 O186 1.920 . S
Zn170 O173 2.080 . S
Zn170 O176 2.114 . S
Zn170 O179 2.120 . S
Zn170 O181 2.120 . S
Zn170 O182 2.114 . S
Zn170 O185 2.080 . S
C171 O176 1.166 . S
C171 O177 1.182 . S
C172 O178 1.167 . S
C172 O179 1.299 . S
O173 Zn170 2.080 . S
O173 C187 1.305 . S
O174 Zn168 1.920 . S
O174 C187 1.234 . S
C175 O180 1.167 . S
C175 O181 1.299 . S
O176 Zn170 2.114 . S
O176 C171 1.166 . S
O177 Zn169 1.905 . S
O177 C171 1.182 . S
O178 Zn169 1.898 . S
O178 C172 1.167 . S
O179 Zn170 2.120 . S
O179 C172 1.299 . S
O180 Zn168 1.898 . S
O180 C175 1.167 . S
O181 Zn170 2.120 . S
O181 C175 1.299 . S
O182 Zn170 2.114 . S
O182 C184 1.166 . S
O183 Zn168 1.905 . S
O183 C184 1.182 . S
C184 O182 1.166 . S
C184 O183 1.182 . S
O185 Zn170 2.080 . S
O185 C188 1.305 . S
O186 Zn169 1.920 . S
O186 C188 1.234 . S
C187 O173 1.305 . S
C187 O174 1.234 . S
C188 O185 1.305 . S
C188 O186 1.234 . S
Zn189 O195 1.920 . S
Zn189 O201 1.898 . S
Zn189 O204 1.905 . S
Zn190 O198 1.905 . S
Zn190 O199 1.898 . S
Zn190 O207 1.920 . S
Zn191 O194 2.080 . S
Zn191 O197 2.114 . S
Zn191 O200 2.120 . S
Zn191 O202 2.120 . S
Zn191 O203 2.114 . S
Zn191 O206 2.080 . S
C192 O197 1.166 . S
C192 O198 1.182 . S
C193 O199 1.167 . S
C193 O200 1.299 . S
O194 Zn191 2.080 . S
O194 C208 1.305 . S
O195 Zn189 1.920 . S
O195 C208 1.234 . S
C196 O201 1.167 . S
C196 O202 1.299 . S
O197 Zn191 2.114 . S
O197 C192 1.166 . S
O198 Zn190 1.905 . S
O198 C192 1.182 . S
O199 Zn190 1.898 . S
O199 C193 1.167 . S
O200 Zn191 2.120 . S
O200 C193 1.299 . S
O201 Zn189 1.898 . S
O201 C196 1.167 . S
O202 Zn191 2.120 . S
O202 C196 1.299 . S
O203 Zn191 2.114 . S
O203 C205 1.166 . S
O204 Zn189 1.905 . S
O204 C205 1.182 . S
C205 O203 1.166 . S
C205 O204 1.182 . S
O206 Zn191 2.080 . S
O206 C209 1.305 . S
O207 Zn190 1.920 . S
O207 C209 1.234 . S
C208 O194 1.305 . S
C208 O195 1.234 . S
C209 O206 1.305 . S
C209 O207 1.234 . S
Zn210 O216 1.920 . S
Zn210 O222 1.898 . S
Zn210 O225 1.905 . S
Zn211 O219 1.905 . S
Zn211 O220 1.898 . S
Zn211 O228 1.920 1_655 S
Zn212 O215 2.080 . S
Zn212 O218 2.114 1_455 S
Zn212 O221 2.120 . S
Zn212 O223 2.120 . S
Zn212 O224 2.114 . S
Zn212 O227 2.080 . S
C213 O218 1.166 . S
C213 O219 1.182 . S
C214 O220 1.167 . S
C214 O221 1.299 1_655 S
O215 Zn212 2.080 . S
O215 C229 1.305 . S
O216 Zn210 1.920 . S
O216 C229 1.234 . S
C217 O222 1.167 . S
C217 O223 1.299 . S
O218 Zn212 2.114 1_655 S
O218 C213 1.166 . S
O219 Zn211 1.905 . S
O219 C213 1.182 . S
O220 Zn211 1.898 . S
O220 C214 1.167 . S
O221 Zn212 2.120 . S
O221 C214 1.299 1_455 S
O222 Zn210 1.898 . S
O222 C217 1.167 . S
O223 Zn212 2.120 . S
O223 C217 1.299 . S
O224 Zn212 2.114 . S
O224 C226 1.166 . S
O225 Zn210 1.905 . S
O225 C226 1.182 . S
C226 O224 1.166 . S
C226 O225 1.182 . S
O227 Zn212 2.080 . S
O227 C230 1.305 . S
O228 Zn211 1.920 1_455 S
O228 C230 1.234 . S
C229 O215 1.305 . S
C229 O216 1.234 . S
C230 O227 1.305 . S
C230 O228 1.234 . S
Zn231 O237 1.920 1_565 S
Zn231 O243 1.898 . S
Zn231 O246 1.905 . S
Zn232 O240 1.905 . S
Zn232 O241 1.898 . S
Zn232 O249 1.920 . S
Zn233 O236 2.080 . S
Zn233 O239 2.114 . S
Zn233 O242 2.120 . S
Zn233 O244 2.120 . S
Zn233 O245 2.114 1_545 S
Zn233 O248 2.080 . S
C234 O239 1.166 . S
C234 O240 1.182 . S
C235 O241 1.167 . S
C235 O242 1.299 . S
O236 Zn233 2.080 . S
O236 C250 1.305 . S
O237 Zn231 1.920 1_545 S
O237 C250 1.234 . S
C238 O243 1.167 . S
C238 O244 1.299 1_565 S
O239 Zn233 2.114 . S
O239 C234 1.166 . S
O240 Zn232 1.905 . S
O240 C234 1.182 . S
O241 Zn232 1.898 . S
O241 C235 1.167 . S
O242 Zn233 2.120 . S
O242 C235 1.299 . S
O243 Zn231 1.898 . S
O243 C238 1.167 . S
O244 Zn233 2.120 . S
O244 C238 1.299 1_545 S
O245 Zn233 2.114 1_565 S
O245 C247 1.166 . S
O246 Zn231 1.905 . S
O246 C247 1.182 . S
C247 O245 1.166 . S
C247 O246 1.182 . S
O248 Zn233 2.080 . S
O248 C251 1.305 . S
O249 Zn232 1.920 . S
O249 C251 1.234 . S
C250 O236 1.305 . S
C250 O237 1.234 . S
C251 O248 1.305 . S
C251 O249 1.234 . S
Zn252 O258 1.920 1_455 S
Zn252 O264 1.898 . S
Zn252 O267 1.905 . S
Zn253 O261 1.905 . S
Zn253 O262 1.898 . S
Zn253 O270 1.920 . S
Zn254 O257 2.080 . S
Zn254 O260 2.114 . S
Zn254 O263 2.120 . S
Zn254 O265 2.120 . S
Zn254 O266 2.114 1_655 S
Zn254 O269 2.080 . S
C255 O260 1.166 . S
C255 O261 1.182 . S
C256 O262 1.167 . S
C256 O263 1.299 . S
O257 Zn254 2.080 . S
O257 C271 1.305 . S
O258 Zn252 1.920 1_655 S
O258 C271 1.234 . S
C259 O264 1.167 . S
C259 O265 1.299 1_455 S
O260 Zn254 2.114 . S
O260 C255 1.166 . S
O261 Zn253 1.905 . S
O261 C255 1.182 . S
O262 Zn253 1.898 . S
O262 C256 1.167 . S
O263 Zn254 2.120 . S
O263 C256 1.299 . S
O264 Zn252 1.898 . S
O264 C259 1.167 . S
O265 Zn254 2.120 . S
O265 C259 1.299 1_655 S
O266 Zn254 2.114 1_455 S
O266 C268 1.166 . S
O267 Zn252 1.905 . S
O267 C268 1.182 . S
C268 O266 1.166 . S
C268 O267 1.182 . S
O269 Zn254 2.080 . S
O269 C272 1.305 . S
O270 Zn253 1.920 . S
O270 C272 1.234 . S
C271 O257 1.305 . S
C271 O258 1.234 . S
C272 O269 1.305 . S
C272 O270 1.234 . S
Zn273 O279 1.920 . S
Zn273 O285 1.898 . S
Zn273 O288 1.905 . S
Zn274 O282 1.905 . S
Zn274 O283 1.898 . S
Zn274 O291 1.920 1_545 S
Zn275 O278 2.080 . S
Zn275 O281 2.114 1_565 S
Zn275 O284 2.120 . S
Zn275 O286 2.120 . S
Zn275 O287 2.114 . S
Zn275 O290 2.080 . S
C276 O281 1.166 . S
C276 O282 1.182 . S
C277 O283 1.167 . S
C277 O284 1.299 1_545 S
O278 Zn275 2.080 . S
O278 C292 1.305 . S
O279 Zn273 1.920 . S
O279 C292 1.234 . S
C280 O285 1.167 . S
C280 O286 1.299 . S
O281 Zn275 2.114 1_545 S
O281 C276 1.166 . S
O282 Zn274 1.905 . S
O282 C276 1.182 . S
O283 Zn274 1.898 . S
O283 C277 1.167 . S
O284 Zn275 2.120 . S
O284 C277 1.299 1_565 S
O285 Zn273 1.898 . S
O285 C280 1.167 . S
O286 Zn275 2.120 . S
O286 C280 1.299 . S
O287 Zn275 2.114 . S
O287 C289 1.166 . S
O288 Zn273 1.905 . S
O288 C289 1.182 . S
C289 O287 1.166 . S
C289 O288 1.182 . S
O290 Zn275 2.080 . S
O290 C293 1.305 . S
O291 Zn274 1.920 1_565 S
O291 C293 1.234 . S
C292 O278 1.305 . S
C292 O279 1.234 . S
C293 O290 1.305 . S
C293 O291 1.234 . S
Zn294 O300 1.920 . S
Zn294 O306 1.898 . S
Zn294 O309 1.905 . S
Zn295 O303 1.905 . S
Zn295 O304 1.898 . S
Zn295 O312 1.920 . S
Zn296 O299 2.080 . S
Zn296 O302 2.114 . S
Zn296 O305 2.120 . S
Zn296 O307 2.120 . S
Zn296 O308 2.114 . S
Zn296 O311 2.080 . S
C297 O302 1.166 . S
C297 O303 1.182 . S
C298 O304 1.167 . S
C298 O305 1.299 . S
O299 Zn296 2.080 . S
O299 C313 1.305 . S
O300 Zn294 1.920 . S
O300 C313 1.234 . S
C301 O306 1.167 . S
C301 O307 1.299 . S
O302 Zn296 2.114 . S
O302 C297 1.166 . S
O303 Zn295 1.905 . S
O303 C297 1.182 . S
O304 Zn295 1.898 . S
O304 C298 1.167 . S
O305 Zn296 2.120 . S
O305 C298 1.299 . S
O306 Zn294 1.898 . S
O306 C301 1.167 . S
O307 Zn296 2.120 . S
O307 C301 1.299 . S
O308 Zn296 2.114 . S
O308 C310 1.166 . S
O309 Zn294 1.905 . S
O309 C310 1.182 . S
C310 O308 1.166 . S
C310 O309 1.182 . S
O311 Zn296 2.080 . S
O311 C314 1.305 . S
O312 Zn295 1.920 . S
O312 C314 1.234 . S
C313 O299 1.305 . S
C313 O300 1.234 . S
C314 O311 1.305 . S
C314 O312 1.234 . S
Zn315 O321 1.920 . S
Zn315 O327 1.898 . S
Zn315 O330 1.905 . S
Zn316 O324 1.905 . S
Zn316 O325 1.898 . S
Zn316 O333 1.920 . S
Zn317 O320 2.080 . S
Zn317 O323 2.114 . S
Zn317 O326 2.120 . S
Zn317 O328 2.120 . S
Zn317 O329 2.114 . S
Zn317 O332 2.080 . S
C318 O323 1.166 . S
C318 O324 1.182 . S
C319 O325 1.167 . S
C319 O326 1.299 . S
O320 Zn317 2.080 . S
O320 C334 1.305 . S
O321 Zn315 1.920 . S
O321 C334 1.234 . S
C322 O327 1.167 . S
C322 O328 1.299 . S
O323 Zn317 2.114 . S
O323 C318 1.166 . S
O324 Zn316 1.905 . S
O324 C318 1.182 . S
O325 Zn316 1.898 . S
O325 C319 1.167 . S
O326 Zn317 2.120 . S
O326 C319 1.299 . S
O327 Zn315 1.898 . S
O327 C322 1.167 . S
O328 Zn317 2.120 . S
O328 C322 1.299 . S
O329 Zn317 2.114 . S
O329 C331 1.166 . S
O330 Zn315 1.905 . S
O330 C331 1.182 . S
C331 O329 1.166 . S
C331 O330 1.182 . S
O332 Zn317 2.080 . S
O332 C335 1.305 . S
O333 Zn316 1.920 . S
O333 C335 1.234 . S
C334 O320 1.305 . S
C334 O321 1.234 . S
C335 O332 1.305 . S
C335 O333 1.234 . S
C336 C337 1.369 . S
C336 C338 1.419 . S
C336 H340 0.930 . S
C337 C336 1.369 . S
C337 C346 1.429 . S
C338 C336 1.419 . S
C338 C339 1.363 . S
C338 H341 0.929 . S
C339 C338 1.363 . S
C339 C345 1.428 . S
H340 C336 0.930 . S
H341 C338 0.929 . S
S342 N343 1.613 . S
S342 N344 1.610 . S
N343 S342 1.613 . S
N343 C346 1.350 . S
N344 S342 1.610 . S
N344 C345 1.351 . S
C345 C339 1.428 . S
C345 N344 1.351 . S
C345 C346 1.434 . S
C346 C337 1.429 . S
C346 N343 1.350 . S
C346 C345 1.434 . S
C347 C348 1.369 . S
C347 C349 1.419 . S
C347 H351 0.930 . S
C348 C347 1.369 . S
C348 C357 1.429 . S
C349 C347 1.419 . S
C349 C350 1.363 . S
C349 H352 0.929 . S
C350 C349 1.363 . S
C350 C356 1.428 . S
H351 C347 0.930 . S
H352 C349 0.929 . S
S353 N354 1.613 . S
S353 N355 1.610 . S
N354 S353 1.613 . S
N354 C357 1.350 . S
N355 S353 1.610 . S
N355 C356 1.351 . S
C356 C350 1.428 . S
C356 N355 1.351 . S
C356 C357 1.434 . S
C357 C348 1.429 . S
C357 N354 1.350 . S
C357 C356 1.434 . S
C358 C359 1.369 . S
C358 C360 1.419 . S
C358 H362 0.930 . S
C359 C358 1.369 . S
C359 C368 1.429 . S
C360 C358 1.419 . S
C360 C361 1.363 . S
C360 H363 0.929 . S
C361 C360 1.363 . S
C361 C367 1.428 . S
H362 C358 0.930 . S
H363 C360 0.929 . S
S364 N365 1.613 . S
S364 N366 1.610 . S
N365 S364 1.613 . S
N365 C368 1.350 . S
N366 S364 1.610 . S
N366 C367 1.351 . S
C367 C361 1.428 . S
C367 N366 1.351 . S
C367 C368 1.434 . S
C368 C359 1.429 . S
C368 N365 1.350 . S
C368 C367 1.434 . S
C369 C370 1.369 . S
C369 C371 1.419 . S
C369 H373 0.930 . S
C370 C369 1.369 . S
C370 C379 1.429 . S
C371 C369 1.419 . S
C371 C372 1.363 . S
C371 H374 0.929 . S
C372 C371 1.363 . S
C372 C378 1.428 . S
H373 C369 0.930 . S
H374 C371 0.929 . S
S375 N376 1.613 . S
S375 N377 1.610 . S
N376 S375 1.613 . S
N376 C379 1.350 . S
N377 S375 1.610 . S
N377 C378 1.351 . S
C378 C372 1.428 . S
C378 N377 1.351 . S
C378 C379 1.434 . S
C379 C370 1.429 . S
C379 N376 1.350 . S
C379 C378 1.434 . S
C380 C381 1.369 . S
C380 C382 1.419 . S
C380 H384 0.930 . S
C381 C380 1.369 . S
C381 C390 1.429 . S
C382 C380 1.419 . S
C382 C383 1.363 . S
C382 H385 0.929 . S
C383 C382 1.363 . S
C383 C389 1.428 . S
H384 C380 0.930 . S
H385 C382 0.929 . S
S386 N387 1.613 . S
S386 N388 1.610 . S
N387 S386 1.613 . S
N387 C390 1.350 . S
N388 S386 1.610 . S
N388 C389 1.351 . S
C389 C383 1.428 . S
C389 N388 1.351 . S
C389 C390 1.434 . S
C390 C381 1.429 . S
C390 N387 1.350 . S
C390 C389 1.434 . S
C391 C392 1.369 . S
C391 C393 1.419 . S
C391 H395 0.930 . S
C392 C391 1.369 . S
C392 C401 1.429 . S
C393 C391 1.419 . S
C393 C394 1.363 . S
C393 H396 0.929 . S
C394 C393 1.363 . S
C394 C400 1.428 . S
H395 C391 0.930 . S
H396 C393 0.929 . S
S397 N398 1.613 . S
S397 N399 1.610 . S
N398 S397 1.613 . S
N398 C401 1.350 . S
N399 S397 1.610 . S
N399 C400 1.351 . S
C400 C394 1.428 . S
C400 N399 1.351 . S
C400 C401 1.434 . S
C401 C392 1.429 . S
C401 N398 1.350 . S
C401 C400 1.434 . S
C402 C403 1.369 . S
C402 C404 1.419 . S
C402 H406 0.930 . S
C403 C402 1.369 . S
C403 C412 1.429 . S
C404 C402 1.419 . S
C404 C405 1.363 . S
C404 H407 0.929 . S
C405 C404 1.363 . S
C405 C411 1.428 . S
H406 C402 0.930 . S
H407 C404 0.929 . S
S408 N409 1.613 . S
S408 N410 1.610 . S
N409 S408 1.613 . S
N409 C412 1.350 . S
N410 S408 1.610 . S
N410 C411 1.351 . S
C411 C405 1.428 . S
C411 N410 1.351 . S
C411 C412 1.434 . S
C412 C403 1.429 . S
C412 N409 1.350 . S
C412 C411 1.434 . S
C413 C414 1.369 . S
C413 C415 1.419 . S
C413 H417 0.930 . S
C414 C413 1.369 . S
C414 C423 1.429 . S
C415 C413 1.419 . S
C415 C416 1.363 . S
C415 H418 0.929 . S
C416 C415 1.363 . S
C416 C422 1.428 . S
H417 C413 0.930 . S
H418 C415 0.929 . S
S419 N420 1.613 . S
S419 N421 1.610 . S
N420 S419 1.613 . S
N420 C423 1.350 . S
N421 S419 1.610 . S
N421 C422 1.351 . S
C422 C416 1.428 . S
C422 N421 1.351 . S
C422 C423 1.434 . S
C423 C414 1.429 . S
C423 N420 1.350 . S
C423 C422 1.434 . S
C424 C425 1.369 . S
C424 C426 1.419 . S
C424 H428 0.930 . S
C425 C424 1.369 . S
C425 C434 1.429 . S
C426 C424 1.419 . S
C426 C427 1.363 . S
C426 H429 0.929 . S
C427 C426 1.363 . S
C427 C433 1.428 . S
H428 C424 0.930 . S
H429 C426 0.929 . S
S430 N431 1.613 . S
S430 N432 1.610 . S
N431 S430 1.613 . S
N431 C434 1.350 . S
N432 S430 1.610 . S
N432 C433 1.351 . S
C433 C427 1.428 . S
C433 N432 1.351 . S
C433 C434 1.434 . S
C434 C425 1.429 . S
C434 N431 1.350 . S
C434 C433 1.434 . S
C435 C436 1.369 . S
C435 C437 1.419 . S
C435 H439 0.930 . S
C436 C435 1.369 . S
C436 C445 1.429 . S
C437 C435 1.419 . S
C437 C438 1.363 . S
C437 H440 0.929 . S
C438 C437 1.363 . S
C438 C444 1.428 . S
H439 C435 0.930 . S
H440 C437 0.929 . S
S441 N442 1.613 . S
S441 N443 1.610 . S
N442 S441 1.613 . S
N442 C445 1.350 . S
N443 S441 1.610 . S
N443 C444 1.351 . S
C444 C438 1.428 . S
C444 N443 1.351 . S
C444 C445 1.434 . S
C445 C436 1.429 . S
C445 N442 1.350 . S
C445 C444 1.434 . S
C446 C447 1.369 . S
C446 C448 1.419 . S
C446 H450 0.930 . S
C447 C446 1.369 . S
C447 C456 1.429 . S
C448 C446 1.419 . S
C448 C449 1.363 . S
C448 H451 0.929 . S
C449 C448 1.363 . S
C449 C455 1.428 . S
H450 C446 0.930 . S
H451 C448 0.929 . S
S452 N453 1.613 . S
S452 N454 1.610 . S
N453 S452 1.613 . S
N453 C456 1.350 . S
N454 S452 1.610 . S
N454 C455 1.351 . S
C455 C449 1.428 . S
C455 N454 1.351 . S
C455 C456 1.434 . S
C456 C447 1.429 . S
C456 N453 1.350 . S
C456 C455 1.434 . S
C457 C458 1.369 . S
C457 C459 1.419 . S
C457 H461 0.930 . S
C458 C457 1.369 . S
C458 C467 1.429 . S
C459 C457 1.419 . S
C459 C460 1.363 . S
C459 H462 0.929 1_455 S
C460 C459 1.363 . S
C460 C466 1.428 . S
H461 C457 0.930 . S
H462 C459 0.929 1_655 S
S463 N464 1.613 . S
S463 N465 1.610 . S
N464 S463 1.613 . S
N464 C467 1.350 . S
N465 S463 1.610 . S
N465 C466 1.351 . S
C466 C460 1.428 . S
C466 N465 1.351 . S
C466 C467 1.434 . S
C467 C458 1.429 . S
C467 N464 1.350 . S
C467 C466 1.434 . S
C468 C469 1.369 . S
C468 C470 1.419 . S
C468 H472 0.930 . S
C469 C468 1.369 . S
C469 C478 1.429 . S
C470 C468 1.419 . S
C470 C471 1.363 . S
C470 H473 0.929 . S
C471 C470 1.363 . S
C471 C477 1.428 . S
H472 C468 0.930 . S
H473 C470 0.929 . S
S474 N475 1.613 1_545 S
S474 N476 1.610 . S
N475 S474 1.613 1_565 S
N475 C478 1.350 . S
N476 S474 1.610 . S
N476 C477 1.351 1_545 S
C477 C471 1.428 . S
C477 N476 1.351 1_565 S
C477 C478 1.434 . S
C478 C469 1.429 . S
C478 N475 1.350 . S
C478 C477 1.434 . S
C479 C480 1.369 . S
C479 C481 1.419 . S
C479 H483 0.930 . S
C480 C479 1.369 . S
C480 C489 1.429 . S
C481 C479 1.419 . S
C481 C482 1.363 . S
C481 H484 0.929 . S
C482 C481 1.363 . S
C482 C488 1.428 . S
H483 C479 0.930 . S
H484 C481 0.929 . S
S485 N486 1.613 . S
S485 N487 1.610 . S
N486 S485 1.613 . S
N486 C489 1.350 . S
N487 S485 1.610 . S
N487 C488 1.351 . S
C488 C482 1.428 . S
C488 N487 1.351 . S
C488 C489 1.434 . S
C489 C480 1.429 . S
C489 N486 1.350 . S
C489 C488 1.434 . S
C490 C491 1.369 . S
C490 C492 1.419 . S
C490 H494 0.930 . S
C491 C490 1.369 . S
C491 C500 1.429 . S
C492 C490 1.419 . S
C492 C493 1.363 . S
C492 H495 0.929 . S
C493 C492 1.363 . S
C493 C499 1.428 . S
H494 C490 0.930 . S
H495 C492 0.929 . S
S496 N497 1.613 . S
S496 N498 1.610 . S
N497 S496 1.613 . S
N497 C500 1.350 . S
N498 S496 1.610 . S
N498 C499 1.351 . S
C499 C493 1.428 . S
C499 N498 1.351 . S
C499 C500 1.434 . S
C500 C491 1.429 . S
C500 N497 1.350 . S
C500 C499 1.434 . S
C501 C502 1.369 . S
C501 C503 1.419 . S
C501 H505 0.930 . S
C502 C501 1.369 . S
C502 C511 1.429 . S
C503 C501 1.419 . S
C503 C504 1.363 . S
C503 H506 0.929 . S
C504 C503 1.363 . S
C504 C510 1.428 . S
H505 C501 0.930 . S
H506 C503 0.929 . S
S507 N508 1.613 . S
S507 N509 1.610 . S
N508 S507 1.613 . S
N508 C511 1.350 . S
N509 S507 1.610 . S
N509 C510 1.351 . S
C510 C504 1.428 . S
C510 N509 1.351 . S
C510 C511 1.434 . S
C511 C502 1.429 . S
C511 N508 1.350 . S
C511 C510 1.434 . S
C512 C513 1.369 . S
C512 C514 1.419 . S
C512 H516 0.930 . S
C513 C512 1.369 . S
C513 C522 1.429 . S
C514 C512 1.419 . S
C514 C515 1.363 . S
C514 H517 0.929 . S
C515 C514 1.363 . S
C515 C521 1.428 . S
H516 C512 0.930 . S
H517 C514 0.929 . S
S518 N519 1.613 . S
S518 N520 1.610 . S
N519 S518 1.613 . S
N519 C522 1.350 . S
N520 S518 1.610 . S
N520 C521 1.351 . S
C521 C515 1.428 . S
C521 N520 1.351 . S
C521 C522 1.434 . S
C522 C513 1.429 . S
C522 N519 1.350 . S
C522 C521 1.434 . S
C523 C524 1.369 . S
C523 C525 1.419 . S
C523 H527 0.930 . S
C524 C523 1.369 . S
C524 C533 1.429 . S
C525 C523 1.419 . S
C525 C526 1.363 . S
C525 H528 0.929 . S
C526 C525 1.363 . S
C526 C532 1.428 . S
H527 C523 0.930 . S
H528 C525 0.929 . S
S529 N530 1.613 . S
S529 N531 1.610 . S
N530 S529 1.613 . S
N530 C533 1.350 . S
N531 S529 1.610 . S
N531 C532 1.351 . S
C532 C526 1.428 . S
C532 N531 1.351 . S
C532 C533 1.434 . S
C533 C524 1.429 . S
C533 N530 1.350 . S
C533 C532 1.434 . S
C534 C535 1.369 . S
C534 C536 1.419 . S
C534 H538 0.930 . S
C535 C534 1.369 . S
C535 C544 1.429 . S
C536 C534 1.419 . S
C536 C537 1.363 . S
C536 H539 0.929 . S
C537 C536 1.363 . S
C537 C543 1.428 . S
H538 C534 0.930 . S
H539 C536 0.929 . S
S540 N541 1.613 . S
S540 N542 1.610 . S
N541 S540 1.613 . S
N541 C544 1.350 . S
N542 S540 1.610 . S
N542 C543 1.351 . S
C543 C537 1.428 . S
C543 N542 1.351 . S
C543 C544 1.434 . S
C544 C535 1.429 . S
C544 N541 1.350 . S
C544 C543 1.434 . S
C545 C546 1.369 . S
C545 C547 1.419 . S
C545 H549 0.930 . S
C546 C545 1.369 . S
C546 C555 1.429 . S
C547 C545 1.419 . S
C547 C548 1.363 . S
C547 H550 0.929 . S
C548 C547 1.363 . S
C548 C554 1.428 . S
H549 C545 0.930 . S
H550 C547 0.929 . S
S551 N552 1.613 1_455 S
S551 N553 1.610 . S
N552 S551 1.613 1_655 S
N552 C555 1.350 . S
N553 S551 1.610 . S
N553 C554 1.351 1_455 S
C554 C548 1.428 . S
C554 N553 1.351 1_655 S
C554 C555 1.434 . S
C555 C546 1.429 . S
C555 N552 1.350 . S
C555 C554 1.434 . S
C556 C557 1.369 . S
C556 C558 1.419 . S
C556 H560 0.930 . S
C557 C556 1.369 . S
C557 C566 1.429 . S
C558 C556 1.419 . S
C558 C559 1.363 . S
C558 H561 0.929 . S
C559 C558 1.363 . S
C559 C565 1.428 . S
H560 C556 0.930 . S
H561 C558 0.929 . S
S562 N563 1.613 . S
S562 N564 1.610 . S
N563 S562 1.613 . S
N563 C566 1.350 . S
N564 S562 1.610 . S
N564 C565 1.351 . S
C565 C559 1.428 . S
C565 N564 1.351 . S
C565 C566 1.434 . S
C566 C557 1.429 . S
C566 N563 1.350 . S
C566 C565 1.434 . S
C567 C568 1.369 . S
C567 C569 1.419 . S
C567 H571 0.930 . S
C568 C567 1.369 . S
C568 C577 1.429 . S
C569 C567 1.419 . S
C569 C570 1.363 . S
C569 H572 0.929 . S
C570 C569 1.363 . S
C570 C576 1.428 . S
H571 C567 0.930 . S
H572 C569 0.929 . S
S573 N574 1.613 . S
S573 N575 1.610 . S
N574 S573 1.613 . S
N574 C577 1.350 . S
N575 S573 1.610 . S
N575 C576 1.351 . S
C576 C570 1.428 . S
C576 N575 1.351 . S
C576 C577 1.434 . S
C577 C568 1.429 . S
C577 N574 1.350 . S
C577 C576 1.434 . S
C578 C579 1.369 . S
C578 C580 1.419 . S
C578 H582 0.930 . S
C579 C578 1.369 . S
C579 C588 1.429 . S
C580 C578 1.419 . S
C580 C581 1.363 . S
C580 H583 0.929 . S
C581 C580 1.363 . S
C581 C587 1.428 . S
H582 C578 0.930 . S
H583 C580 0.929 . S
S584 N585 1.613 . S
S584 N586 1.610 . S
N585 S584 1.613 . S
N585 C588 1.350 . S
N586 S584 1.610 . S
N586 C587 1.351 . S
C587 C581 1.428 . S
C587 N586 1.351 . S
C587 C588 1.434 . S
C588 C579 1.429 . S
C588 N585 1.350 . S
C588 C587 1.434 . S
C589 C590 1.369 . S
C589 C591 1.419 . S
C589 H593 0.930 . S
C590 C589 1.369 . S
C590 C599 1.429 . S
C591 C589 1.419 . S
C591 C592 1.363 . S
C591 H594 0.929 . S
C592 C591 1.363 . S
C592 C598 1.428 . S
H593 C589 0.930 . S
H594 C591 0.929 . S
S595 N596 1.613 1_655 S
S595 N597 1.610 . S
N596 S595 1.613 1_455 S
N596 C599 1.350 . S
N597 S595 1.610 . S
N597 C598 1.351 1_655 S
C598 C592 1.428 . S
C598 N597 1.351 1_455 S
C598 C599 1.434 . S
C599 C590 1.429 . S
C599 N596 1.350 . S
C599 C598 1.434 . S
C600 C601 1.369 . S
C600 C602 1.419 . S
C600 H604 0.930 . S
C601 C600 1.369 . S
C601 C610 1.429 . S
C602 C600 1.419 . S
C602 C603 1.363 . S
C602 H605 0.929 . S
C603 C602 1.363 . S
C603 C609 1.428 . S
H604 C600 0.930 . S
H605 C602 0.929 . S
S606 N607 1.613 . S
S606 N608 1.610 . S
N607 S606 1.613 . S
N607 C610 1.350 . S
N608 S606 1.610 . S
N608 C609 1.351 . S
C609 C603 1.428 . S
C609 N608 1.351 . S
C609 C610 1.434 . S
C610 C601 1.429 . S
C610 N607 1.350 . S
C610 C609 1.434 . S
C611 C612 1.369 . S
C611 C613 1.419 . S
C611 H615 0.930 . S
C612 C611 1.369 . S
C612 C621 1.429 . S
C613 C611 1.419 . S
C613 C614 1.363 . S
C613 H616 0.929 . S
C614 C613 1.363 . S
C614 C620 1.428 . S
H615 C611 0.930 . S
H616 C613 0.929 . S
S617 N618 1.613 . S
S617 N619 1.610 . S
N618 S617 1.613 . S
N618 C621 1.350 . S
N619 S617 1.610 . S
N619 C620 1.351 . S
C620 C614 1.428 . S
C620 N619 1.351 . S
C620 C621 1.434 . S
C621 C612 1.429 . S
C621 N618 1.350 . S
C621 C620 1.434 . S
C622 C623 1.369 . S
C622 C624 1.419 . S
C622 H626 0.930 . S
C623 C622 1.369 . S
C623 C632 1.429 . S
C624 C622 1.419 . S
C624 C625 1.363 . S
C624 H627 0.929 . S
C625 C624 1.363 . S
C625 C631 1.428 . S
H626 C622 0.930 . S
H627 C624 0.929 . S
S628 N629 1.613 . S
S628 N630 1.610 . S
N629 S628 1.613 . S
N629 C632 1.350 . S
N630 S628 1.610 . S
N630 C631 1.351 . S
C631 C625 1.428 . S
C631 N630 1.351 . S
C631 C632 1.434 . S
C632 C623 1.429 . S
C632 N629 1.350 . S
C632 C631 1.434 . S
C633 C634 1.369 . S
C633 C635 1.419 . S
C633 H637 0.930 . S
C634 C633 1.369 . S
C634 C643 1.429 . S
C635 C633 1.419 . S
C635 C636 1.363 . S
C635 H638 0.929 . S
C636 C635 1.363 . S
C636 C642 1.428 . S
H637 C633 0.930 . S
H638 C635 0.929 . S
S639 N640 1.613 . S
S639 N641 1.610 . S
N640 S639 1.613 . S
N640 C643 1.350 . S
N641 S639 1.610 . S
N641 C642 1.351 . S
C642 C636 1.428 . S
C642 N641 1.351 . S
C642 C643 1.434 . S
C643 C634 1.429 . S
C643 N640 1.350 . S
C643 C642 1.434 . S
C644 C645 1.369 . S
C644 C646 1.419 . S
C644 H648 0.930 . S
C645 C644 1.369 . S
C645 C654 1.429 . S
C646 C644 1.419 . S
C646 C647 1.363 . S
C646 H649 0.929 . S
C647 C646 1.363 . S
C647 C653 1.428 . S
H648 C644 0.930 . S
H649 C646 0.929 . S
S650 N651 1.613 . S
S650 N652 1.610 . S
N651 S650 1.613 . S
N651 C654 1.350 . S
N652 S650 1.610 . S
N652 C653 1.351 . S
C653 C647 1.428 . S
C653 N652 1.351 . S
C653 C654 1.434 . S
C654 C645 1.429 . S
C654 N651 1.350 . S
C654 C653 1.434 . S
C655 C656 1.369 . S
C655 C657 1.419 . S
C655 H659 0.930 . S
C656 C655 1.369 . S
C656 C665 1.429 . S
C657 C655 1.419 . S
C657 C658 1.363 . S
C657 H660 0.929 . S
C658 C657 1.363 . S
C658 C664 1.428 . S
H659 C655 0.930 . S
H660 C657 0.929 . S
S661 N662 1.613 . S
S661 N663 1.610 . S
N662 S661 1.613 . S
N662 C665 1.350 . S
N663 S661 1.610 . S
N663 C664 1.351 . S
C664 C658 1.428 . S
C664 N663 1.351 . S
C664 C665 1.434 . S
C665 C656 1.429 . S
C665 N662 1.350 . S
C665 C664 1.434 . S
C666 C667 1.369 . S
C666 C668 1.419 . S
C666 H670 0.930 . S
C667 C666 1.369 . S
C667 C676 1.429 . S
C668 C666 1.419 . S
C668 C669 1.363 . S
C668 H671 0.929 . S
C669 C668 1.363 . S
C669 C675 1.428 . S
H670 C666 0.930 . S
H671 C668 0.929 . S
S672 N673 1.613 . S
S672 N674 1.610 . S
N673 S672 1.613 . S
N673 C676 1.350 . S
N674 S672 1.610 . S
N674 C675 1.351 . S
C675 C669 1.428 . S
C675 N674 1.351 . S
C675 C676 1.434 . S
C676 C667 1.429 . S
C676 N673 1.350 . S
C676 C675 1.434 . S
C677 C678 1.369 . S
C677 C679 1.419 . S
C677 H681 0.930 . S
C678 C677 1.369 . S
C678 C687 1.429 . S
C679 C677 1.419 . S
C679 C680 1.363 . S
C679 H682 0.929 . S
C680 C679 1.363 . S
C680 C686 1.428 . S
H681 C677 0.930 . S
H682 C679 0.929 . S
S683 N684 1.613 . S
S683 N685 1.610 . S
N684 S683 1.613 . S
N684 C687 1.350 . S
N685 S683 1.610 . S
N685 C686 1.351 . S
C686 C680 1.428 . S
C686 N685 1.351 . S
C686 C687 1.434 . S
C687 C678 1.429 . S
C687 N684 1.350 . S
C687 C686 1.434 . S
C688 C689 1.369 . S
C688 C690 1.419 . S
C688 H692 0.930 . S
C689 C688 1.369 . S
C689 C698 1.429 . S
C690 C688 1.419 . S
C690 C691 1.363 . S
C690 H693 0.929 . S
C691 C690 1.363 . S
C691 C697 1.428 . S
H692 C688 0.930 . S
H693 C690 0.929 . S
S694 N695 1.613 . S
S694 N696 1.610 . S
N695 S694 1.613 . S
N695 C698 1.350 . S
N696 S694 1.610 . S
N696 C697 1.351 . S
C697 C691 1.428 . S
C697 N696 1.351 . S
C697 C698 1.434 . S
C698 C689 1.429 . S
C698 N695 1.350 . S
C698 C697 1.434 . S
C699 C700 1.369 . S
C699 C701 1.419 . S
C699 H703 0.930 . S
C700 C699 1.369 . S
C700 C709 1.429 . S
C701 C699 1.419 . S
C701 C702 1.363 . S
C701 H704 0.929 . S
C702 C701 1.363 . S
C702 C708 1.428 . S
H703 C699 0.930 . S
H704 C701 0.929 . S
S705 N706 1.613 . S
S705 N707 1.610 . S
N706 S705 1.613 . S
N706 C709 1.350 . S
N707 S705 1.610 . S
N707 C708 1.351 . S
C708 C702 1.428 . S
C708 N707 1.351 . S
C708 C709 1.434 . S
C709 C700 1.429 . S
C709 N706 1.350 . S
C709 C708 1.434 . S
C710 C711 1.369 . S
C710 C712 1.419 . S
C710 H714 0.930 . S
C711 C710 1.369 . S
C711 C720 1.429 . S
C712 C710 1.419 . S
C712 C713 1.363 . S
C712 H715 0.929 . S
C713 C712 1.363 . S
C713 C719 1.428 . S
H714 C710 0.930 . S
H715 C712 0.929 . S
S716 N717 1.613 . S
S716 N718 1.610 . S
N717 S716 1.613 . S
N717 C720 1.350 . S
N718 S716 1.610 . S
N718 C719 1.351 . S
C719 C713 1.428 . S
C719 N718 1.351 . S
C719 C720 1.434 . S
C720 C711 1.429 . S
C720 N717 1.350 . S
C720 C719 1.434 . S
C721 C722 1.369 . S
C721 C723 1.419 . S
C721 H725 0.930 . S
C722 C721 1.369 . S
C722 C731 1.429 . S
C723 C721 1.419 . S
C723 C724 1.363 . S
C723 H726 0.929 . S
C724 C723 1.363 . S
C724 C730 1.428 . S
H725 C721 0.930 . S
H726 C723 0.929 . S
S727 N728 1.613 . S
S727 N729 1.610 . S
N728 S727 1.613 . S
N728 C731 1.350 . S
N729 S727 1.610 . S
N729 C730 1.351 . S
C730 C724 1.428 . S
C730 N729 1.351 . S
C730 C731 1.434 . S
C731 C722 1.429 . S
C731 N728 1.350 . S
C731 C730 1.434 . S
C732 C733 1.369 . S
C732 C734 1.419 1_556 S
C732 H736 0.930 . S
C733 C732 1.369 . S
C733 C742 1.429 1_556 S
C734 C732 1.419 1_554 S
C734 C735 1.363 . S
C734 H737 0.929 1_554 S
C735 C734 1.363 . S
C735 C741 1.428 . S
H736 C732 0.930 . S
H737 C734 0.929 1_556 S
S738 N739 1.613 . S
S738 N740 1.610 . S
N739 S738 1.613 . S
N739 C742 1.350 . S
N740 S738 1.610 . S
N740 C741 1.351 . S
C741 C735 1.428 . S
C741 N740 1.351 . S
C741 C742 1.434 . S
C742 C733 1.429 1_554 S
C742 N739 1.350 . S
C742 C741 1.434 . S
C743 C744 1.369 . S
C743 C745 1.419 1_554 S
C743 H747 0.930 . S
C744 C743 1.369 . S
C744 C753 1.429 . S
C745 C743 1.419 1_556 S
C745 C746 1.363 . S
C745 H748 0.929 . S
C746 C745 1.363 . S
C746 C752 1.428 . S
H747 C743 0.930 . S
H748 C745 0.929 . S
S749 N750 1.613 . S
S749 N751 1.610 1_554 S
N750 S749 1.613 . S
N750 C753 1.350 . S
N751 S749 1.610 1_556 S
N751 C752 1.351 . S
C752 C746 1.428 . S
C752 N751 1.351 . S
C752 C753 1.434 1_556 S
C753 C744 1.429 . S
C753 N750 1.350 . S
C753 C752 1.434 1_554 S
C754 C755 1.369 1_554 S
C754 C756 1.419 . S
C754 H758 0.930 . S
C755 C754 1.369 1_556 S
C755 C764 1.429 . S
C756 C754 1.419 . S
C756 C757 1.363 . S
C756 H759 0.929 . S
C757 C756 1.363 . S
C757 C763 1.427 1_554 S
H758 C754 0.930 . S
H759 C756 0.929 . S
S760 N761 1.613 . S
S760 N762 1.610 . S
N761 S760 1.613 . S
N761 C764 1.350 . S
N762 S760 1.610 . S
N762 C763 1.351 . S
C763 C757 1.427 1_556 S
C763 N762 1.351 . S
C763 C764 1.435 . S
C764 C755 1.429 . S
C764 N761 1.350 . S
C764 C763 1.435 . S
C765 C766 1.369 . S
C765 C767 1.419 . S
C765 H769 0.930 . S
C766 C765 1.369 . S
C766 C775 1.429 . S
C767 C765 1.419 . S
C767 C768 1.363 1_554 S
C767 H770 0.929 . S
C768 C767 1.363 1_556 S
C768 C774 1.428 . S
H769 C765 0.930 . S
H770 C767 0.929 . S
S771 N772 1.613 . S
S771 N773 1.610 . S
N772 S771 1.613 . S
N772 C775 1.350 1_556 S
N773 S771 1.610 . S
N773 C774 1.351 . S
C774 C768 1.428 . S
C774 N773 1.351 . S
C774 C775 1.434 1_556 S
C775 C766 1.429 . S
C775 N772 1.350 1_554 S
C775 C774 1.434 1_554 S
C776 C777 1.369 . S
C776 C778 1.419 . S
C776 H780 0.930 . S
C777 C776 1.369 . S
C777 C786 1.429 . S
C778 C776 1.419 . S
C778 C779 1.363 . S
C778 H781 0.929 . S
C779 C778 1.363 . S
C779 C785 1.428 . S
H780 C776 0.930 . S
H781 C778 0.929 . S
S782 N783 1.613 . S
S782 N784 1.610 . S
N783 S782 1.613 . S
N783 C786 1.350 . S
N784 S782 1.610 . S
N784 C785 1.351 . S
C785 C779 1.428 . S
C785 N784 1.351 . S
C785 C786 1.434 . S
C786 C777 1.429 . S
C786 N783 1.350 . S
C786 C785 1.434 . S
C787 C788 1.369 . S
C787 C789 1.419 . S
C787 H791 0.930 . S
C788 C787 1.369 . S
C788 C797 1.429 . S
C789 C787 1.419 . S
C789 C790 1.363 . S
C789 H792 0.929 . S
C790 C789 1.363 . S
C790 C796 1.428 . S
H791 C787 0.930 . S
H792 C789 0.929 . S
S793 N794 1.613 . S
S793 N795 1.610 . S
N794 S793 1.613 . S
N794 C797 1.350 . S
N795 S793 1.610 . S
N795 C796 1.351 . S
C796 C790 1.428 . S
C796 N795 1.351 . S
C796 C797 1.434 . S
C797 C788 1.429 . S
C797 N794 1.350 . S
C797 C796 1.434 . S
C798 C799 1.369 . S
C798 C800 1.419 . S
C798 H802 0.930 . S
C799 C798 1.369 . S
C799 C808 1.429 . S
C800 C798 1.419 . S
C800 C801 1.363 . S
C800 H803 0.929 . S
C801 C800 1.363 . S
C801 C807 1.428 . S
H802 C798 0.930 . S
H803 C800 0.929 . S
S804 N805 1.613 . S
S804 N806 1.610 . S
N805 S804 1.613 . S
N805 C808 1.350 . S
N806 S804 1.610 . S
N806 C807 1.351 . S
C807 C801 1.428 . S
C807 N806 1.351 . S
C807 C808 1.434 . S
C808 C799 1.429 . S
C808 N805 1.350 . S
C808 C807 1.434 . S
C809 C810 1.369 . S
C809 C811 1.419 . S
C809 H813 0.930 . S
C810 C809 1.369 . S
C810 C819 1.429 . S
C811 C809 1.419 . S
C811 C812 1.363 . S
C811 H814 0.929 . S
C812 C811 1.363 . S
C812 C818 1.428 . S
H813 C809 0.930 . S
H814 C811 0.929 . S
S815 N816 1.624 . S
S815 N817 1.610 . S
N816 S815 1.624 . S
N816 C819 1.339 1_455 S
N817 S815 1.610 . S
N817 C818 1.351 1_455 S
C818 C812 1.428 . S
C818 N817 1.351 1_655 S
C818 C819 1.434 . S
C819 C810 1.429 . S
C819 N816 1.339 1_655 S
C819 C818 1.434 . S
C820 C821 1.369 . S
C820 C822 1.419 . S
C820 H824 0.930 . S
C821 C820 1.369 . S
C821 C830 1.429 . S
C822 C820 1.419 . S
C822 C823 1.363 1_556 S
C822 H825 0.929 1_545 S
C823 C822 1.363 1_554 S
C823 C829 1.428 . S
H824 C820 0.930 . S
H825 C822 0.929 1_565 S
S826 N827 1.613 1_554 S
S826 N828 1.610 . S
N827 S826 1.613 1_556 S
N827 C830 1.350 . S
N828 S826 1.610 . S
N828 C829 1.351 . S
C829 C823 1.428 . S
C829 N828 1.351 . S
C829 C830 1.434 1_554 S
C830 C821 1.429 . S
C830 N827 1.350 . S
C830 C829 1.434 1_556 S
C831 C832 1.369 . S
C831 C833 1.419 1_556 S
C831 H835 0.930 . S
C832 C831 1.369 . S
C832 C841 1.429 . S
C833 C831 1.419 1_554 S
C833 C834 1.363 . S
C833 H836 0.929 . S
C834 C833 1.363 . S
C834 C840 1.428 . S
H835 C831 0.930 . S
H836 C833 0.929 . S
S837 N838 1.613 . S
S837 N839 1.610 1_556 S
N838 S837 1.613 . S
N838 C841 1.350 . S
N839 S837 1.610 1_554 S
N839 C840 1.351 . S
C840 C834 1.428 . S
C840 N839 1.351 . S
C840 C841 1.434 1_554 S
C841 C832 1.429 . S
C841 N838 1.350 . S
C841 C840 1.434 1_556 S
C842 C843 1.369 1_556 S
C842 C844 1.419 . S
C842 H846 0.930 . S
C843 C842 1.369 1_554 S
C843 C852 1.429 . S
C844 C842 1.419 . S
C844 C845 1.363 . S
C844 H847 0.929 . S
C845 C844 1.363 . S
C845 C851 1.428 . S
H846 C842 0.930 . S
H847 C844 0.929 . S
S848 N849 1.613 . S
S848 N850 1.610 . S
N849 S848 1.613 . S
N849 C852 1.350 . S
N850 S848 1.610 . S
N850 C851 1.351 1_554 S
C851 C845 1.428 . S
C851 N850 1.351 1_556 S
C851 C852 1.434 1_556 S
C852 C843 1.429 . S
C852 N849 1.350 . S
C852 C851 1.434 1_554 S
C853 C854 1.369 . S
C853 C855 1.419 1_554 S
C853 H857 0.930 1_455 S
C854 C853 1.369 . S
C854 C863 1.429 . S
C855 C853 1.419 1_556 S
C855 C856 1.363 . S
C855 H858 0.929 . S
C856 C855 1.363 . S
C856 C862 1.428 . S
H857 C853 0.930 1_655 S
H858 C855 0.929 . S
S859 N860 1.613 1_556 S
S859 N861 1.610 . S
N860 S859 1.613 1_554 S
N860 C863 1.350 . S
N861 S859 1.610 . S
N861 C862 1.351 . S
C862 C856 1.428 . S
C862 N861 1.351 . S
C862 C863 1.434 1_556 S
C863 C854 1.429 . S
C863 N860 1.350 . S
C863 C862 1.434 1_554 S
C337 C20 1.715 . S
C339 C124 1.718 . S
C348 C146 1.709 . S
C350 C41 1.714 . S
C359 C62 1.719 . S
C361 C167 1.720 . S
C370 C83 1.706 . S
C372 C103 1.710 . S
C381 C293 1.704 . S
C383 C187 1.705 . S
C392 C297 1.738 . S
C394 C209 1.735 . S
C403 C230 1.707 . S
C405 C334 1.703 . S
C414 C250 1.716 . S
C416 C271 1.717 . S
C425 C3 1.322 . S
C427 C67 1.576 . S
C436 C24 1.326 . S
C438 C4 1.579 . S
C447 C45 1.322 . S
C449 C25 1.575 . S
C458 C66 1.314 . S
C460 C46 1.581 . S
C469 C100 1.316 . S
C471 C112 1.575 . S
C480 C130 1.571 . S
C482 C121 1.318 . S
C491 C129 1.316 . S
C493 C151 1.573 . S
C502 C91 1.582 . S
C504 C150 1.312 . S
C513 C238 1.576 . S
C515 C184 1.308 . S
C524 C192 1.307 . S
C526 C175 1.571 . S
C535 C213 1.325 . S
C537 C193 1.582 . S
C546 C247 1.324 . S
C548 C214 1.581 . S
C557 C268 1.319 . S
C559 C277 1.583 . S
C568 C276 1.320 . S
C570 C314 1.574 . S
C579 C298 1.270 . S
C581 C322 1.557 . S
C590 C331 1.320 . S
C592 C259 1.584 . S
C601 C19 0.751 . S
C603 C61 0.758 . S
C612 C40 0.779 . S
C614 C82 0.772 . S
C623 C145 0.764 . S
C625 C104 0.760 . S
C634 C166 0.771 . S
C636 C125 0.774 . S
C645 C229 0.778 . S
C647 C188 0.776 . S
C656 C251 0.779 . S
C658 C208 0.777 . S
C667 C272 0.756 . S
C669 C301 0.760 . S
C678 C292 0.753 . S
C680 C335 0.752 . S
C689 C7 0.983 . S
C691 C234 1.118 . S
C700 C171 1.117 . S
C702 C28 0.980 . S
C711 C49 0.989 . S
C713 C205 1.128 . S
C722 C226 1.108 . S
C724 C70 0.973 . S
C733 C289 1.120 . S
C735 C88 0.984 . S
C744 C109 0.983 . S
C746 C313 1.094 . S
C755 C318 1.128 . S
C757 C133 0.987 . S
C766 C154 0.977 . S
C768 C255 1.112 . S
C777 C172 0.986 . S
C779 C79 1.122 . S
C788 C196 0.988 . S
C790 C16 1.125 . S
C799 C37 1.112 . S
C801 C217 0.977 . S
C810 C235 0.992 . S
C812 C58 1.125 . S
C821 C256 0.980 . S
C823 C108 1.115 . S
C832 C280 0.972 . S
C834 C142 1.113 . S
C843 C163 1.134 . S
C845 C310 1.018 . S
C854 C87 1.106 . S
C856 C319 0.972 . S
