# Generated by pormake.
# Topology zni, (4)-cn, num edge types: 1
# Building blocks:
#     Node 0, Type 0, BuildingBlock: KUFVIS_clean_sbu_0, # of connection points: 4
#     Node 1, Type 0, BuildingBlock: KUFVIS_clean_sbu_0, # of connection points: 4
#     Node 2, Type 0, BuildingBlock: KUFVIS_clean_sbu_0, # of connection points: 4
#     Node 3, Type 0, BuildingBlock: KUFVIS_clean_sbu_0, # of connection points: 4
#     Node 4, Type 0, BuildingBlock: KUFVIS_clean_sbu_0, # of connection points: 4
#     Node 5, Type 0, BuildingBlock: KUFVIS_clean_sbu_0, # of connection points: 4
#     Node 6, Type 0, BuildingBlock: KUFVIS_clean_sbu_0, # of connection points: 4
#     Node 7, Type 0, BuildingBlock: KUFVIS_clean_sbu_0, # of connection points: 4
#     Node 8, Type 0, BuildingBlock: KUFVIS_clean_sbu_0, # of connection points: 4
#     Node 9, Type 0, BuildingBlock: KUFVIS_clean_sbu_0, # of connection points: 4
#     Node 10, Type 0, BuildingBlock: KUFVIS_clean_sbu_0, # of connection points: 4
#     Node 11, Type 0, BuildingBlock: KUFVIS_clean_sbu_0, # of connection points: 4
#     Node 12, Type 0, BuildingBlock: KUFVIS_clean_sbu_0, # of connection points: 4
#     Node 13, Type 0, BuildingBlock: KUFVIS_clean_sbu_0, # of connection points: 4
#     Node 14, Type 0, BuildingBlock: KUFVIS_clean_sbu_0, # of connection points: 4
#     Node 15, Type 0, BuildingBlock: KUFVIS_clean_sbu_0, # of connection points: 4
#     Node 16, Type 0, BuildingBlock: KUFVIS_clean_sbu_0, # of connection points: 4
#     Node 17, Type 0, BuildingBlock: KUFVIS_clean_sbu_0, # of connection points: 4
#     Node 18, Type 0, BuildingBlock: KUFVIS_clean_sbu_0, # of connection points: 4
#     Node 19, Type 0, BuildingBlock: KUFVIS_clean_sbu_0, # of connection points: 4
#     Node 20, Type 0, BuildingBlock: KUFVIS_clean_sbu_0, # of connection points: 4
#     Node 21, Type 0, BuildingBlock: KUFVIS_clean_sbu_0, # of connection points: 4
#     Node 22, Type 0, BuildingBlock: KUFVIS_clean_sbu_0, # of connection points: 4
#     Node 23, Type 0, BuildingBlock: KUFVIS_clean_sbu_0, # of connection points: 4
#     Node 24, Type 0, BuildingBlock: KUFVIS_clean_sbu_0, # of connection points: 4
#     Node 25, Type 0, BuildingBlock: KUFVIS_clean_sbu_0, # of connection points: 4
#     Node 26, Type 0, BuildingBlock: KUFVIS_clean_sbu_0, # of connection points: 4
#     Node 27, Type 0, BuildingBlock: KUFVIS_clean_sbu_0, # of connection points: 4
#     Node 28, Type 0, BuildingBlock: KUFVIS_clean_sbu_0, # of connection points: 4
#     Node 29, Type 0, BuildingBlock: KUFVIS_clean_sbu_0, # of connection points: 4
#     Node 30, Type 0, BuildingBlock: KUFVIS_clean_sbu_0, # of connection points: 4
#     Node 31, Type 0, BuildingBlock: KUFVIS_clean_sbu_0, # of connection points: 4
#     Edge 32, Type (0, 0), BuildingBlock: AJUNOK_clean_linker_0, # of connection points: 2
#     Edge 33, Type (0, 0), BuildingBlock: AJUNOK_clean_linker_0, # of connection points: 2
#     Edge 34, Type (0, 0), BuildingBlock: AJUNOK_clean_linker_0, # of connection points: 2
#     Edge 35, Type (0, 0), BuildingBlock: AJUNOK_clean_linker_0, # of connection points: 2
#     Edge 36, Type (0, 0), BuildingBlock: AJUNOK_clean_linker_0, # of connection points: 2
#     Edge 37, Type (0, 0), BuildingBlock: AJUNOK_clean_linker_0, # of connection points: 2
#     Edge 38, Type (0, 0), BuildingBlock: AJUNOK_clean_linker_0, # of connection points: 2
#     Edge 39, Type (0, 0), BuildingBlock: AJUNOK_clean_linker_0, # of connection points: 2
#     Edge 40, Type (0, 0), BuildingBlock: AJUNOK_clean_linker_0, # of connection points: 2
#     Edge 41, Type (0, 0), BuildingBlock: AJUNOK_clean_linker_0, # of connection points: 2
#     Edge 42, Type (0, 0), BuildingBlock: AJUNOK_clean_linker_0, # of connection points: 2
#     Edge 43, Type (0, 0), BuildingBlock: AJUNOK_clean_linker_0, # of connection points: 2
#     Edge 44, Type (0, 0), BuildingBlock: AJUNOK_clean_linker_0, # of connection points: 2
#     Edge 45, Type (0, 0), BuildingBlock: AJUNOK_clean_linker_0, # of connection points: 2
#     Edge 46, Type (0, 0), BuildingBlock: AJUNOK_clean_linker_0, # of connection points: 2
#     Edge 47, Type (0, 0), BuildingBlock: AJUNOK_clean_linker_0, # of connection points: 2
#     Edge 48, Type (0, 0), BuildingBlock: AJUNOK_clean_linker_0, # of connection points: 2
#     Edge 49, Type (0, 0), BuildingBlock: AJUNOK_clean_linker_0, # of connection points: 2
#     Edge 50, Type (0, 0), BuildingBlock: AJUNOK_clean_linker_0, # of connection points: 2
#     Edge 51, Type (0, 0), BuildingBlock: AJUNOK_clean_linker_0, # of connection points: 2
#     Edge 52, Type (0, 0), BuildingBlock: AJUNOK_clean_linker_0, # of connection points: 2
#     Edge 53, Type (0, 0), BuildingBlock: AJUNOK_clean_linker_0, # of connection points: 2
#     Edge 54, Type (0, 0), BuildingBlock: AJUNOK_clean_linker_0, # of connection points: 2
#     Edge 55, Type (0, 0), BuildingBlock: AJUNOK_clean_linker_0, # of connection points: 2
#     Edge 56, Type (0, 0), BuildingBlock: AJUNOK_clean_linker_0, # of connection points: 2
#     Edge 57, Type (0, 0), BuildingBlock: AJUNOK_clean_linker_0, # of connection points: 2
#     Edge 58, Type (0, 0), BuildingBlock: AJUNOK_clean_linker_0, # of connection points: 2
#     Edge 59, Type (0, 0), BuildingBlock: AJUNOK_clean_linker_0, # of connection points: 2
#     Edge 60, Type (0, 0), BuildingBlock: AJUNOK_clean_linker_0, # of connection points: 2
#     Edge 61, Type (0, 0), BuildingBlock: AJUNOK_clean_linker_0, # of connection points: 2
#     Edge 62, Type (0, 0), BuildingBlock: AJUNOK_clean_linker_0, # of connection points: 2
#     Edge 63, Type (0, 0), BuildingBlock: AJUNOK_clean_linker_0, # of connection points: 2
#     Edge 64, Type (0, 0), BuildingBlock: AJUNOK_clean_linker_0, # of connection points: 2
#     Edge 65, Type (0, 0), BuildingBlock: AJUNOK_clean_linker_0, # of connection points: 2
#     Edge 66, Type (0, 0), BuildingBlock: AJUNOK_clean_linker_0, # of connection points: 2
#     Edge 67, Type (0, 0), BuildingBlock: AJUNOK_clean_linker_0, # of connection points: 2
#     Edge 68, Type (0, 0), BuildingBlock: AJUNOK_clean_linker_0, # of connection points: 2
#     Edge 69, Type (0, 0), BuildingBlock: AJUNOK_clean_linker_0, # of connection points: 2
#     Edge 70, Type (0, 0), BuildingBlock: AJUNOK_clean_linker_0, # of connection points: 2
#     Edge 71, Type (0, 0), BuildingBlock: AJUNOK_clean_linker_0, # of connection points: 2
#     Edge 72, Type (0, 0), BuildingBlock: AJUNOK_clean_linker_0, # of connection points: 2
#     Edge 73, Type (0, 0), BuildingBlock: AJUNOK_clean_linker_0, # of connection points: 2
#     Edge 74, Type (0, 0), BuildingBlock: AJUNOK_clean_linker_0, # of connection points: 2
#     Edge 75, Type (0, 0), BuildingBlock: AJUNOK_clean_linker_0, # of connection points: 2
#     Edge 76, Type (0, 0), BuildingBlock: AJUNOK_clean_linker_0, # of connection points: 2
#     Edge 77, Type (0, 0), BuildingBlock: AJUNOK_clean_linker_0, # of connection points: 2
#     Edge 78, Type (0, 0), BuildingBlock: AJUNOK_clean_linker_0, # of connection points: 2
#     Edge 79, Type (0, 0), BuildingBlock: AJUNOK_clean_linker_0, # of connection points: 2
#     Edge 80, Type (0, 0), BuildingBlock: AJUNOK_clean_linker_0, # of connection points: 2
#     Edge 81, Type (0, 0), BuildingBlock: AJUNOK_clean_linker_0, # of connection points: 2
#     Edge 82, Type (0, 0), BuildingBlock: AJUNOK_clean_linker_0, # of connection points: 2
#     Edge 83, Type (0, 0), BuildingBlock: AJUNOK_clean_linker_0, # of connection points: 2
#     Edge 84, Type (0, 0), BuildingBlock: AJUNOK_clean_linker_0, # of connection points: 2
#     Edge 85, Type (0, 0), BuildingBlock: AJUNOK_clean_linker_0, # of connection points: 2
#     Edge 86, Type (0, 0), BuildingBlock: AJUNOK_clean_linker_0, # of connection points: 2
#     Edge 87, Type (0, 0), BuildingBlock: AJUNOK_clean_linker_0, # of connection points: 2
#     Edge 88, Type (0, 0), BuildingBlock: AJUNOK_clean_linker_0, # of connection points: 2
#     Edge 89, Type (0, 0), BuildingBlock: AJUNOK_clean_linker_0, # of connection points: 2
#     Edge 90, Type (0, 0), BuildingBlock: AJUNOK_clean_linker_0, # of connection points: 2
#     Edge 91, Type (0, 0), BuildingBlock: AJUNOK_clean_linker_0, # of connection points: 2
#     Edge 92, Type (0, 0), BuildingBlock: AJUNOK_clean_linker_0, # of connection points: 2
#     Edge 93, Type (0, 0), BuildingBlock: AJUNOK_clean_linker_0, # of connection points: 2
#     Edge 94, Type (0, 0), BuildingBlock: AJUNOK_clean_linker_0, # of connection points: 2
#     Edge 95, Type (0, 0), BuildingBlock: AJUNOK_clean_linker_0, # of connection points: 2
# Relax obj value: 0.212
# Max RMSD: 0.098
# Mean RMSD: 0.098
data_MOF--net-zni--node1-KUFVIS_clean_sbu_0--edge1-AJUNOK_clean_linker_0
_symmetry_space_group_name_H-M    P1
_symmetry_Int_Tables_number       1
_symmetry_cell_setting            triclinic
loop_
_symmetry_equiv_pos_as_xyz
'x, y, z'
_cell_length_a     43.007624
_cell_length_b     43.024625
_cell_length_c     21.328993
_cell_angle_alpha  89.9543
_cell_angle_beta   89.970969
_cell_angle_gamma 89.983245
loop_
_atom_site_label
_atom_site_type_symbol
_atom_site_fract_x
_atom_site_fract_y
_atom_site_fract_z
_atom_type_partial_charge
Mn0 Mn 0.10766 0.10931 0.40823 0.0
Mn1 Mn 0.0753 0.05091 0.49011 0.0
C2 C 0.13172 0.09045 0.49862 0.0
C3 C 0.11529 0.16197 0.38777 0.0
C4 C 0.10414 0.04228 0.36096 0.0
O5 O 0.0621 0.111 0.38126 0.0
O6 O 0.04235 0.07329 0.44326 0.0
C7 C 0.03726 0.08753 0.57928 0.0
N8 N 0.06076 0.06695 0.56848 0.0
C9 C 0.07388 0.06567 0.678 0.0
C10 C 0.04964 0.08655 0.69035 0.0
C11 C 0.03114 0.09741 0.64077 0.0
C12 C 0.07827 0.05586 0.616 0.0
H13 H 0.02345 0.09663 0.54127 0.0
C14 C 0.03921 0.09544 0.40343 0.0
O15 O 0.12011 0.14088 0.34543 0.0
O16 O 0.10507 0.15253 0.44171 0.0
N17 N 0.10561 0.029 0.53876 0.0
C18 C 0.12892 0.01003 0.5187 0.0
C19 C 0.14982 0.99753 0.56259 0.0
C20 C 0.14685 0.00513 0.62638 0.0
C21 C 0.12266 0.02476 0.64586 0.0
C22 C 0.10196 0.03569 0.60032 0.0
H23 H 0.13173 0.00478 0.46952 0.0
O24 O 0.14814 0.10378 0.4551 0.0
O25 O 0.10264 0.08688 0.48459 0.0
O26 O 0.11403 0.07006 0.35629 0.0
O27 O 0.08981 0.03216 0.40952 0.0
C28 C 0.11931 0.03532 0.70802 0.0
C29 C 0.09462 0.05522 0.72438 0.0
H30 H 0.0453 0.09467 0.73755 0.0
H31 H 0.01254 0.11374 0.64977 0.0
H32 H 0.16853 0.98255 0.54716 0.0
H33 H 0.16355 0.99615 0.65982 0.0
H34 H 0.13627 0.02924 0.7432 0.0
H35 H 0.09239 0.06313 0.7724 0.0
Mn36 Mn 0.13983 0.8596 0.65796 0.0
Mn37 Mn 0.19834 0.82638 0.7377 0.0
C38 C 0.16149 0.88467 0.74476 0.0
C39 C 0.08693 0.86857 0.64345 0.0
C40 C 0.20558 0.85225 0.60534 0.0
O41 O 0.13596 0.81366 0.63439 0.0
O42 O 0.17313 0.79351 0.69716 0.0
C43 C 0.16087 0.79437 0.83481 0.0
N44 N 0.18334 0.81533 0.81922 0.0
C45 C 0.18808 0.83186 0.9265 0.0
C46 C 0.16539 0.81013 0.94378 0.0
C47 C 0.15175 0.79126 0.89773 0.0
C48 C 0.19675 0.83345 0.86324 0.0
H49 H 0.14964 0.78042 0.79945 0.0
C50 C 0.15052 0.79057 0.65841 0.0
O51 O 0.1068 0.87226 0.59821 0.0
O52 O 0.09763 0.85878 0.69673 0.0
N53 N 0.2234 0.85644 0.78018 0.0
C54 C 0.24443 0.87677 0.75567 0.0
C55 C 0.26063 0.8969 0.79586 0.0
C56 C 0.2545 0.89638 0.86055 0.0
C57 C 0.23244 0.8755 0.88448 0.0
C58 C 0.2182 0.85497 0.84264 0.0
H59 H 0.24879 0.87762 0.70587 0.0
O60 O 0.1478 0.90069 0.70117 0.0
O61 O 0.16378 0.85532 0.73245 0.0
O62 O 0.17826 0.86363 0.60191 0.0
O63 O 0.21566 0.83781 0.65385 0.0
C64 C 0.22308 0.87512 0.9477 0.0
C65 C 0.20139 0.85298 0.96906 0.0
H66 H 0.15794 0.80809 0.99205 0.0
H67 H 0.13392 0.77469 0.91059 0.0
H68 H 0.27741 0.91314 0.77694 0.0
H69 H 0.26643 0.91249 0.89125 0.0
H70 H 0.23165 0.89247 0.9798 0.0
H71 H 0.1945 0.85295 0.01793 0.0
Mn72 Mn 0.39274 0.89134 0.90242 0.0
Mn73 Mn 0.42365 0.94921 0.98664 0.0
C74 C 0.36707 0.90933 0.99196 0.0
C75 C 0.38654 0.83837 0.88354 0.0
C76 C 0.39893 0.95709 0.85347 0.0
O77 O 0.43903 0.89073 0.87878 0.0
O78 O 0.45816 0.92449 0.95033 0.0
C79 C 0.45499 0.91502 0.08927 0.0
N80 N 0.43276 0.93546 0.06996 0.0
C81 C 0.41271 0.94028 0.17482 0.0
C82 C 0.43543 0.91935 0.19585 0.0
C83 C 0.45679 0.90685 0.15293 0.0
C84 C 0.41259 0.94825 0.11112 0.0
H85 H 0.47101 0.90477 0.05624 0.0
C86 C 0.46177 0.90372 0.90765 0.0
O87 O 0.38164 0.85886 0.83992 0.0
O88 O 0.39621 0.8486 0.9371 0.0
N89 N 0.39111 0.97316 0.02434 0.0
C90 C 0.36969 0.99182 0.99609 0.0
C91 C 0.3464 0.00589 0.03246 0.0
C92 C 0.34508 1.00025 0.09728 0.0
C93 C 0.36736 0.9809 0.12525 0.0
C94 C 0.39057 0.96826 0.08697 0.0
H95 H 0.37021 0.99573 0.94611 0.0
O96 O 0.35151 0.89583 0.94747 0.0
O97 O 0.39614 0.91364 0.97889 0.0
O98 O 0.38586 0.93062 0.84993 0.0
O99 O 0.41483 0.96583 0.90098 0.0
C100 C 0.36647 0.97236 0.18896 0.0
C101 C 0.38946 0.95259 0.21407 0.0
H102 H 0.43643 0.91246 0.24466 0.0
H103 H 0.4743 0.89058 0.16866 0.0
H104 H 0.3292 0.02067 0.01044 0.0
H105 H 0.32665 0.01055 0.12496 0.0
H106 H 0.3477 0.98031 0.21872 0.0
H107 H 0.38853 0.94634 0.26324 0.0
Mn108 Mn 0.35381 0.14416 0.15944 0.0
Mn109 Mn 0.29792 0.17496 0.24807 0.0
C110 C 0.33617 0.11692 0.24736 0.0
C111 C 0.40671 0.1382 0.13843 0.0
C112 C 0.28837 0.15404 0.11358 0.0
O113 O 0.35457 0.19084 0.13868 0.0
O114 O 0.32446 0.20921 0.21725 0.0
C115 C 0.33333 0.19983 0.35567 0.0
N116 N 0.31159 0.17991 0.33258 0.0
C117 C 0.30473 0.15598 0.43354 0.0
C118 C 0.32701 0.17628 0.45857 0.0
C119 C 0.3412 0.19845 0.41948 0.0
C120 C 0.29729 0.15897 0.36995 0.0
H121 H 0.34475 0.21645 0.32547 0.0
C122 C 0.34338 0.21326 0.17143 0.0
O123 O 0.38583 0.13406 0.09523 0.0
O124 O 0.39692 0.14677 0.19317 0.0
N125 N 0.27182 0.14261 0.27956 0.0
C126 C 0.25121 0.12439 0.24788 0.0
C127 C 0.23454 0.10143 0.28034 0.0
C128 C 0.23952 0.0972 0.34477 0.0
C129 C 0.2609 0.11625 0.37616 0.0
C130 C 0.27604 0.1394 0.3419 0.0
H131 H 0.24744 0.12732 0.19824 0.0
O132 O 0.34929 0.10214 0.20135 0.0
O133 O 0.33223 0.14626 0.23663 0.0
O134 O 0.31359 0.13863 0.10884 0.0
O135 O 0.28148 0.17023 0.16176 0.0
C136 C 0.2688 0.11216 0.43942 0.0
C137 C 0.29043 0.13217 0.46851 0.0
H138 H 0.33358 0.17483 0.5075 0.0
H139 H 0.35841 0.21423 0.43817 0.0
H140 H 0.21816 0.08679 0.25564 0.0
H141 H 0.22715 0.07901 0.36952 0.0
H142 H 0.25889 0.09295 0.46504 0.0
H143 H 0.29641 0.12863 0.5173 0.0
Mn144 Mn 0.11 0.89367 0.09417 0.0
Mn145 Mn 0.07497 0.95032 0.01191 0.0
C146 C 0.13344 0.91424 0.00432 0.0
C147 C 0.12139 0.84158 0.11238 0.0
C148 C 0.10337 0.96077 0.14093 0.0
O149 O 0.06433 0.88914 0.12063 0.0
O150 O 0.04341 0.92638 0.05911 0.0
C151 C 0.03989 0.91054 0.92353 0.0
N152 N 0.06148 0.93315 0.93384 0.0
C153 C 0.07419 0.93534 0.82416 0.0
C154 C 0.05177 0.91251 0.81232 0.0
C155 C 0.03451 0.90005 0.86219 0.0
C156 C 0.07804 0.94543 0.88606 0.0
H157 H 0.02707 0.90031 0.96181 0.0
C158 C 0.04092 0.904 0.09854 0.0
O159 O 0.12458 0.86241 0.15587 0.0
O160 O 0.11009 0.85067 0.05908 0.0
N161 N 0.10368 0.97408 0.96283 0.0
C162 C 0.12496 0.9954 0.98232 0.0
C163 C 0.14387 0.01034 0.9379 0.0
C164 C 0.14125 0.00258 0.87416 0.0
C165 C 0.11935 0.98033 0.85525 0.0
C166 C 0.10019 0.96729 0.90132 0.0
H167 H 0.12765 1.00078 0.0314 0.0
O168 O 0.15034 0.90184 0.04811 0.0
O169 O 0.10416 0.916 0.01777 0.0
O170 O 0.11387 0.93322 0.14697 0.0
O171 O 0.0887 0.9699 0.09199 0.0
C172 C 0.11657 0.96962 0.79306 0.0
C173 C 0.09371 0.94754 0.77731 0.0
H174 H 0.0479 0.90418 0.76523 0.0
H175 H 0.01738 0.88216 0.85349 0.0
H176 H 0.16095 0.02724 0.95287 0.0
H177 H 0.15673 0.01333 0.84051 0.0
H178 H 0.13256 0.97728 0.75724 0.0
H179 H 0.09189 0.93951 0.72931 0.0
Mn180 Mn 0.35552 0.8548 0.34191 0.0
Mn181 Mn 0.29909 0.81996 0.25885 0.0
C182 C 0.33652 0.87767 0.25028 0.0
C183 C 0.40792 0.86463 0.36171 0.0
C184 C 0.28774 0.85002 0.38601 0.0
O185 O 0.3588 0.80952 0.37041 0.0
O186 O 0.32166 0.7884 0.30901 0.0
C187 C 0.33832 0.78188 0.17446 0.0
N188 N 0.31679 0.8048 0.18247 0.0
C189 C 0.31706 0.81643 0.07226 0.0
C190 C 0.33885 0.7927 0.06275 0.0
C191 C 0.34944 0.77525 0.11406 0.0
C192 C 0.30599 0.8213 0.13323 0.0
H193 H 0.34722 0.76892 0.21384 0.0
C194 C 0.34373 0.78611 0.34924 0.0
O195 O 0.38677 0.86912 0.40423 0.0
O196 O 0.39873 0.85341 0.30857 0.0
N197 N 0.27705 0.84882 0.20701 0.0
C198 C 0.25718 0.87187 0.22454 0.0
C199 C 0.2449 0.89186 0.17878 0.0
C200 C 0.25373 0.88835 0.11577 0.0
C201 C 0.2742 0.86438 0.09875 0.0
C202 C 0.28485 0.84454 0.14614 0.0
H203 H 0.25113 0.87525 0.27318 0.0
O204 O 0.34875 0.89474 0.29394 0.0
O205 O 0.33398 0.84853 0.26476 0.0
O206 O 0.31546 0.85998 0.39281 0.0
O207 O 0.2788 0.83519 0.33715 0.0
C208 C 0.28598 0.86053 0.03751 0.0
C209 C 0.30692 0.83627 0.02403 0.0
H210 H 0.34784 0.78795 0.01639 0.0
H211 H 0.36651 0.75708 0.10724 0.0
H212 H 0.22928 0.91041 0.19224 0.0
H213 H 0.2452 0.90472 0.08133 0.0
H214 H 0.28032 0.87681 1.0008 0.0
H215 H 0.31586 0.83372 0.9768 0.0
Mn216 Mn 0.39944 0.10471 0.5905 0.0
Mn217 Mn 0.43183 0.04859 0.50288 0.0
C218 C 0.37371 0.08635 0.50153 0.0
C219 C 0.39277 0.15717 0.61439 0.0
C220 C 0.40401 0.03675 0.63219 0.0
O221 O 0.44546 0.1066 0.61546 0.0
O222 O 0.46475 0.07106 0.54873 0.0
C223 C 0.46645 0.08878 0.41439 0.0
N224 N 0.44436 0.06667 0.42497 0.0
C225 C 0.4298 0.06645 0.31622 0.0
C226 C 0.45256 0.08893 0.30407 0.0
C227 C 0.47103 0.10011 0.35335 0.0
C228 C 0.42668 0.05558 0.37779 0.0
H229 H 0.48039 0.09787 0.45224 0.0
C230 C 0.46829 0.09212 0.59037 0.0
O231 O 0.3882 0.13547 0.65569 0.0
O232 O 0.40141 0.14838 0.55887 0.0
N233 N 0.402 0.02597 0.45457 0.0
C234 C 0.38154 0.0038 0.47392 0.0
C235 C 0.36216 0.98934 0.42968 0.0
C236 C 0.36365 0.99828 0.36634 0.0
C237 C 0.3849 0.0212 0.34761 0.0
C238 C 0.40453 0.03374 0.3933 0.0
H239 H 0.38009 0.99717 0.52269 0.0
O240 O 0.35819 0.09942 0.54662 0.0
O241 O 0.40322 0.08344 0.5124 0.0
O242 O 0.39371 0.06427 0.63987 0.0
O243 O 0.4191 0.02825 0.58323 0.0
C244 C 0.38688 0.03275 0.28586 0.0
C245 C 0.40949 0.05508 0.26999 0.0
H246 H 0.45594 0.09782 0.25715 0.0
H247 H 0.48857 0.11759 0.34443 0.0
H248 H 0.34577 0.97173 0.44448 0.0
H249 H 0.34808 0.98765 0.33276 0.0
H250 H 0.37058 0.0255 0.25051 0.0
H251 H 0.41071 0.06373 0.22232 0.0
Mn252 Mn 0.14053 0.14357 0.84827 0.0
Mn253 Mn 0.19709 0.17763 0.76726 0.0
C254 C 0.16042 0.11876 0.75906 0.0
C255 C 0.08754 0.1359 0.86722 0.0
C256 C 0.20316 0.15598 0.90173 0.0
O257 O 0.13854 0.19018 0.87111 0.0
O258 O 0.16682 0.21053 0.79097 0.0
C259 C 0.16706 0.19935 0.65006 0.0
N260 N 0.18803 0.18075 0.67959 0.0
C261 C 0.20129 0.15562 0.58243 0.0
C262 C 0.17989 0.17464 0.55103 0.0
C263 C 0.16288 0.19677 0.58501 0.0
C264 C 0.2051 0.15987 0.64707 0.0
H265 H 0.15322 0.21552 0.67614 0.0
C266 C 0.14735 0.21313 0.83662 0.0
O267 O 0.10821 0.13157 0.91066 0.0
O268 O 0.09755 0.14571 0.8135 0.0
N269 N 0.22619 0.14599 0.74356 0.0
C270 C 0.24573 0.12902 0.78058 0.0
C271 C 0.26416 0.10563 0.75381 0.0
C272 C 0.26232 0.09983 0.68928 0.0
C273 C 0.24252 0.11796 0.65203 0.0
C274 C 0.22522 0.14144 0.681 0.0
H275 H 0.24746 0.1332 0.83018 0.0
O276 O 0.14664 0.10262 0.80247 0.0
O277 O 0.16347 0.14777 0.7731 0.0
O278 O 0.18001 0.13763 0.90034 0.0
O279 O 0.20938 0.1748 0.85711 0.0
C280 C 0.23846 0.1128 0.58765 0.0
C281 C 0.21803 0.13174 0.55261 0.0
H282 H 0.17601 0.17215 0.50109 0.0
H283 H 0.14616 0.21139 0.56138 0.0
H284 H 0.27956 0.09194 0.78294 0.0
H285 H 0.27616 0.08139 0.66884 0.0
H286 H 0.25043 0.09365 0.56567 0.0
H287 H 0.21453 0.1272 0.50322 0.0
Mn288 Mn 0.89017 0.89492 0.60061 0.0
Mn289 Mn 0.92328 0.95154 0.51494 0.0
C290 C 0.8666 0.91258 0.50851 0.0
C291 C 0.88079 0.84274 0.62289 0.0
C292 C 0.8942 0.96295 0.64325 0.0
O293 O 0.9358 0.89269 0.62759 0.0
O294 O 0.95575 0.92965 0.56396 0.0
C295 C 0.96135 0.913 0.4292 0.0
N296 N 0.93802 0.93401 0.43804 0.0
C297 C 0.92586 0.93399 0.32803 0.0
C298 C 0.94989 0.91262 0.31773 0.0
C299 C 0.9678 0.90215 0.36851 0.0
C300 C 0.92102 0.94463 0.38932 0.0
H301 H 0.97479 0.90433 0.46815 0.0
C302 C 0.95881 0.90786 0.60465 0.0
O303 O 0.8766 0.86427 0.66461 0.0
O304 O 0.89196 0.85129 0.56918 0.0
N305 N 0.89341 0.97286 0.46408 0.0
C306 C 0.87003 0.9922 0.48233 0.0
C307 C 0.84958 0.00426 0.4371 0.0
C308 C 0.85308 0.9959 0.37382 0.0
C309 C 0.87732 0.97591 0.35612 0.0
C310 C 0.89747 0.9653 0.40303 0.0
H311 H 0.86676 0.998 0.53111 0.0
O312 O 0.84986 0.9005 0.55296 0.0
O313 O 0.89566 0.91599 0.52267 0.0
O314 O 0.88454 0.93518 0.65061 0.0
O315 O 0.90856 0.97188 0.59376 0.0
C316 C 0.88129 0.96476 0.29447 0.0
C317 C 0.90582 0.94426 0.28023 0.0
H318 H 0.95456 0.90387 0.27114 0.0
H319 H 0.98624 0.88545 0.36104 0.0
H320 H 0.8308 0.01948 0.45115 0.0
H321 H 0.83664 0.00449 0.33951 0.0
H322 H 0.86498 0.97081 0.25795 0.0
H323 H 0.90851 0.93582 0.23269 0.0
Mn324 Mn 0.85898 0.14562 0.34836 0.0
Mn325 Mn 0.80323 0.18144 0.26862 0.0
C326 C 0.83658 0.12052 0.26216 0.0
C327 C 0.9116 0.13566 0.36327 0.0
C328 C 0.7968 0.16061 0.40365 0.0
O329 O 0.86388 0.1922 0.36962 0.0
O330 O 0.83432 0.21308 0.29262 0.0
C331 C 0.83715 0.19991 0.15368 0.0
N332 N 0.81337 0.18421 0.18154 0.0
C333 C 0.7992 0.16036 0.08377 0.0
C334 C 0.82282 0.17714 0.05363 0.0
C335 C 0.84188 0.19701 0.08883 0.0
C336 C 0.79494 0.16494 0.14817 0.0
H337 H 0.85298 0.21369 0.181 0.0
C338 C 0.8548 0.21536 0.33616 0.0
O339 O 0.89166 0.13272 0.40865 0.0
O340 O 0.90112 0.14533 0.30976 0.0
N341 N 0.77267 0.15165 0.24401 0.0
C342 C 0.75194 0.13583 0.28044 0.0
C343 C 0.73156 0.11449 0.2526 0.0
C344 C 0.73287 0.10944 0.18776 0.0
C345 C 0.75425 0.12618 0.15138 0.0
C346 C 0.77329 0.14786 0.18128 0.0
H347 H 0.75071 0.13948 0.33033 0.0
O348 O 0.8501 0.10438 0.30582 0.0
O349 O 0.83521 0.14989 0.27451 0.0
O350 O 0.82009 0.14234 0.4032 0.0
O351 O 0.79038 0.17883 0.35812 0.0
C352 C 0.75847 0.12093 0.08716 0.0
C353 C 0.78088 0.13801 0.05313 0.0
H354 H 0.82709 0.17428 0.0039 0.0
H355 H 0.86068 0.20945 0.0664 0.0
H356 H 0.71508 0.10176 0.28113 0.0
H357 H 0.71761 0.09243 0.16647 0.0
H358 H 0.74531 0.10271 0.06491 0.0
H359 H 0.78473 0.1331 0.00401 0.0
Mn360 Mn 0.60429 0.11064 0.09303 0.0
Mn361 Mn 0.56998 0.05434 0.00892 0.0
C362 C 0.62908 0.08965 0.00525 0.0
C363 C 0.61605 0.16265 0.11118 0.0
C364 C 0.59659 0.04338 0.13943 0.0
O365 O 0.55835 0.11584 0.11639 0.0
O366 O 0.53798 0.07815 0.05546 0.0
C367 C 0.53578 0.09491 0.92043 0.0
N368 N 0.55727 0.07219 0.93084 0.0
C369 C 0.57186 0.07184 0.82202 0.0
C370 C 0.54963 0.09488 0.81009 0.0
C371 C 0.53143 0.1064 0.85946 0.0
C372 C 0.5746 0.06065 0.88346 0.0
H373 H 0.52228 0.10451 0.95838 0.0
C374 C 0.53514 0.10084 0.09401 0.0
O375 O 0.61829 0.14193 0.15523 0.0
O376 O 0.60546 0.15352 0.05738 0.0
N377 N 0.59902 0.03082 0.9602 0.0
C378 C 0.61996 0.00915 0.97977 0.0
C379 C 0.63967 0.99498 0.93573 0.0
C380 C 0.63824 0.00392 0.87242 0.0
C381 C 0.61662 0.02646 0.85346 0.0
C382 C 0.59653 0.03857 0.8989 0.0
H383 H 0.62179 0.00295 0.02865 0.0
O384 O 0.64531 0.10184 0.05023 0.0
O385 O 0.59949 0.08836 0.01635 0.0
O386 O 0.6067 0.07103 0.14636 0.0
O387 O 0.58298 0.0342 0.08925 0.0
C388 C 0.61507 0.0384 0.79197 0.0
C389 C 0.59238 0.06062 0.77594 0.0
H390 H 0.54667 0.10417 0.76341 0.0
H391 H 0.51443 0.12444 0.85071 0.0
H392 H 0.65648 0.97781 0.95078 0.0
H393 H 0.65435 0.99381 0.83917 0.0
H394 H 0.63191 0.03161 0.75707 0.0
H395 H 0.5915 0.06957 0.72846 0.0
Mn396 Mn 0.64339 0.85942 0.84507 0.0
Mn397 Mn 0.70104 0.82888 0.75859 0.0
C398 C 0.66154 0.88549 0.75595 0.0
C399 C 0.59049 0.86638 0.8651 0.0
C400 C 0.71136 0.85607 0.88887 0.0
O401 O 0.64213 0.81341 0.86977 0.0
O402 O 0.67982 0.7955 0.80593 0.0
C403 C 0.66197 0.79239 0.67127 0.0
N404 N 0.68336 0.81524 0.68107 0.0
C405 C 0.68279 0.82932 0.57194 0.0
C406 C 0.66093 0.80583 0.56064 0.0
C407 C 0.65054 0.78722 0.61051 0.0
C408 C 0.69371 0.83307 0.63333 0.0
H409 H 0.65347 0.77834 0.70957 0.0
C410 C 0.65844 0.79124 0.84683 0.0
O411 O 0.61129 0.87083 0.90829 0.0
O412 O 0.60036 0.85694 0.81097 0.0
N413 N 0.72254 0.85919 0.70922 0.0
C414 C 0.74393 0.88059 0.72787 0.0
C415 C 0.7577 0.90016 0.68304 0.0
C416 C 0.74882 0.89796 0.61979 0.0
C417 C 0.7266 0.87584 0.6018 0.0
C418 C 0.71479 0.85604 0.64808 0.0
H419 H 0.75041 0.88267 0.77655 0.0
O420 O 0.64846 0.90081 0.80123 0.0
O421 O 0.66527 0.85616 0.76746 0.0
O422 O 0.68328 0.86492 0.89663 0.0
O423 O 0.72087 0.84292 0.83841 0.0
C424 C 0.71507 0.87316 0.54018 0.0
C425 C 0.69346 0.84973 0.52508 0.0
H426 H 0.65182 0.80202 0.514 0.0
H427 H 0.63355 0.76914 0.60222 0.0
H428 H 0.77472 0.91727 0.69731 0.0
H429 H 0.75885 0.91369 0.58569 0.0
H430 H 0.72209 0.88942 0.50426 0.0
H431 H 0.68487 0.84791 0.47751 0.0
Mn432 Mn 0.89021 0.11163 0.91449 0.0
Mn433 Mn 0.92237 0.05233 0.99368 0.0
C434 C 0.86526 0.09093 1.00258 0.0
C435 C 0.88246 0.16473 0.89899 0.0
C436 C 0.89489 0.04537 0.86257 0.0
O437 O 0.93609 0.11415 0.88914 0.0
O438 O 0.95567 0.07616 0.95063 0.0
C439 C 0.95729 0.08881 0.08798 0.0
N440 N 0.93509 0.06728 0.07416 0.0
C441 C 0.92006 0.06358 0.18254 0.0
C442 C 0.94306 0.08531 0.19798 0.0
C443 C 0.96181 0.09793 0.1505 0.0
C444 C 0.91711 0.0548 0.11959 0.0
H445 H 0.97124 0.09923 0.05157 0.0
C446 C 0.95897 0.09872 0.91178 0.0
O447 O 0.87801 0.14467 0.85446 0.0
O448 O 0.89235 0.15405 0.95224 0.0
N449 N 0.89196 0.02865 0.03861 0.0
C450 C 0.87037 0.00844 0.01582 0.0
C451 C 0.85003 0.99344 0.05757 0.0
C452 C 0.85169 0.99989 0.12207 0.0
C453 C 0.87393 0.02099 0.14429 0.0
C454 C 0.89445 0.03415 0.10083 0.0
H455 H 0.86867 0.00387 0.96618 0.0
O456 O 0.84925 0.10492 0.95934 0.0
O457 O 0.89448 0.08784 0.98934 0.0
O458 O 0.88462 0.07313 0.85911 0.0
O459 O 0.90926 0.03494 0.91087 0.0
C460 C 0.87583 0.03038 0.20743 0.0
C461 C 0.89913 0.05127 0.22677 0.0
H462 H 0.94623 0.09271 0.246 0.0
H463 H 0.97943 0.11495 0.16191 0.0
H464 H 0.83278 0.97736 0.04 0.0
H465 H 0.83544 0.98889 0.15393 0.0
H466 H 0.85888 0.02247 0.2412 0.0
H467 H 0.90027 0.05828 0.27549 0.0
Mn468 Mn 0.64666 0.14492 0.66077 0.0
Mn469 Mn 0.70015 0.17996 0.74876 0.0
C470 C 0.66555 0.11969 0.74994 0.0
C471 C 0.59479 0.13454 0.63784 0.0
C472 C 0.71129 0.15885 0.61509 0.0
O473 O 0.64283 0.19145 0.63919 0.0
O474 O 0.67131 0.21217 0.71799 0.0
C475 C 0.66341 0.20274 0.85676 0.0
N476 N 0.68637 0.18423 0.83342 0.0
C477 C 0.69442 0.16033 0.93397 0.0
C478 C 0.67108 0.17929 0.95932 0.0
C479 C 0.6556 0.2007 0.9206 0.0
C480 C 0.70186 0.16405 0.87055 0.0
H481 H 0.65096 0.21865 0.82669 0.0
C482 C 0.65204 0.21466 0.67229 0.0
O483 O 0.61639 0.13205 0.59561 0.0
O484 O 0.60303 0.14453 0.69269 0.0
N485 N 0.72831 0.14935 0.78005 0.0
C486 C 0.74987 0.13231 0.74818 0.0
C487 C 0.76749 0.10994 0.78025 0.0
C488 C 0.76244 0.10505 0.84446 0.0
C489 C 0.74017 0.12298 0.87605 0.0
C490 C 0.72413 0.14569 0.84228 0.0
H491 H 0.75364 0.13564 0.69866 0.0
O492 O 0.65379 0.10362 0.7042 0.0
O493 O 0.66759 0.14913 0.73821 0.0
O494 O 0.68736 0.14155 0.61138 0.0
O495 O 0.71684 0.17622 0.66227 0.0
C496 C 0.73212 0.11799 0.93892 0.0
C497 C 0.70955 0.13688 0.96832 0.0
H498 H 0.66459 0.17727 0.00818 0.0
H499 H 0.63735 0.21521 0.9397 0.0
H500 H 0.7846 0.09621 0.75539 0.0
H501 H 0.7755 0.08723 0.86888 0.0
H502 H 0.74264 0.09887 0.96384 0.0
H503 H 0.70325 0.13261 0.01669 0.0
Mn504 Mn 0.60392 0.89544 0.41133 0.0
Mn505 Mn 0.56951 0.95313 0.49097 0.0
C506 C 0.62811 0.91668 0.49936 0.0
C507 C 0.6142 0.84307 0.39598 0.0
C508 C 0.59691 0.9617 0.36032 0.0
O509 O 0.5583 0.89106 0.38582 0.0
O510 O 0.53734 0.92864 0.44632 0.0
C511 C 0.53511 0.91467 0.58291 0.0
N512 N 0.55679 0.93694 0.57048 0.0
C513 C 0.57172 0.93919 0.67899 0.0
C514 C 0.54929 0.91662 0.69304 0.0
C515 C 0.5308 0.90441 0.64479 0.0
C516 C 0.57437 0.94918 0.61669 0.0
H517 H 0.52142 0.90451 0.54586 0.0
C518 C 0.5349 0.90595 0.40764 0.0
O519 O 0.61783 0.8632 0.3512 0.0
O520 O 0.60341 0.85304 0.44901 0.0
N521 N 0.59879 0.97736 0.53744 0.0
C522 C 0.61971 0.99861 0.51595 0.0
C523 C 0.63933 0.01378 0.55873 0.0
C524 C 0.63787 0.0062 0.62276 0.0
C525 C 0.61643 0.9839 0.64357 0.0
C526 C 0.59637 0.97083 0.59929 0.0
H527 H 0.62131 0.00399 0.4666 0.0
O528 O 0.64458 0.90373 0.45557 0.0
O529 O 0.5987 0.91862 0.48664 0.0
O530 O 0.60786 0.93424 0.35639 0.0
O531 O 0.58252 0.97166 0.40899 0.0
C532 C 0.61504 0.97309 0.70589 0.0
C533 C 0.59242 0.95117 0.72388 0.0
H534 H 0.54633 0.9083 0.74055 0.0
H535 H 0.51359 0.8868 0.65506 0.0
H536 H 0.65598 0.03078 0.54225 0.0
H537 H 0.65379 0.01718 0.65522 0.0
H538 H 0.632 0.98051 0.73993 0.0
H539 H 0.59167 0.94311 0.772 0.0
Mn540 Mn 0.85995 0.85705 0.1593 0.0
Mn541 Mn 0.80107 0.82382 0.2383 0.0
C542 C 0.83963 0.88079 0.24888 0.0
C543 C 0.91289 0.8653 0.14238 0.0
C544 C 0.79337 0.85301 0.10884 0.0
O545 O 0.86257 0.81157 0.13209 0.0
O546 O 0.82454 0.79122 0.19251 0.0
C547 C 0.83781 0.78686 0.32919 0.0
N548 N 0.81652 0.80962 0.31747 0.0
C549 C 0.81394 0.82289 0.42687 0.0
C550 C 0.83557 0.79944 0.44012 0.0
C551 C 0.84745 0.78124 0.39105 0.0
C552 C 0.80455 0.82691 0.36447 0.0
H553 H 0.84773 0.77335 0.29159 0.0
C554 C 0.84717 0.78843 0.15362 0.0
O555 O 0.89245 0.87012 0.0987 0.0
O556 O 0.90269 0.85473 0.19543 0.0
N557 N 0.77801 0.85365 0.28596 0.0
C558 C 0.75858 0.87639 0.26502 0.0
C559 C 0.74496 0.89688 0.3083 0.0
C560 C 0.75187 0.89407 0.37244 0.0
C561 C 0.7719 0.87041 0.3929 0.0
C562 C 0.78399 0.85009 0.34784 0.0
H563 H 0.75378 0.87907 0.21562 0.0
O564 O 0.85329 0.89736 0.20604 0.0
O565 O 0.83664 0.8517 0.23462 0.0
O566 O 0.82115 0.8631 0.10527 0.0
O567 O 0.78304 0.83828 0.15681 0.0
C568 C 0.78168 0.86722 0.45564 0.0
C569 C 0.80232 0.84327 0.4728 0.0
H570 H 0.84358 0.79551 0.48762 0.0
H571 H 0.86442 0.7633 0.40076 0.0
H572 H 0.72963 0.91515 0.29216 0.0
H573 H 0.74208 0.91055 0.40533 0.0
H574 H 0.77451 0.88378 0.49075 0.0
H575 H 0.80979 0.84128 0.52115 0.0
Mn576 Mn 0.61311 0.61073 0.91307 0.0
Mn577 Mn 0.57943 0.55291 0.99422 0.0
C578 C 0.6373 0.59014 1.00211 0.0
C579 C 0.62293 0.66309 0.89547 0.0
C580 C 0.60668 0.5444 0.86343 0.0
O581 O 0.56729 0.61431 0.88732 0.0
O582 O 0.54711 0.57723 0.9503 0.0
C583 C 0.54609 0.59191 0.08686 0.0
N584 N 0.56712 0.56907 0.07406 0.0
C585 C 0.58158 0.56553 0.18276 0.0
C586 C 0.55969 0.58857 0.19717 0.0
C587 C 0.54186 0.60182 0.14899 0.0
C588 C 0.58439 0.55618 0.1201 0.0
H589 H 0.53294 0.60285 0.04988 0.0
C590 C 0.54419 0.59948 0.91073 0.0
O591 O 0.62662 0.64251 0.85167 0.0
O592 O 0.61219 0.65356 0.94895 0.0
N593 N 0.60887 0.52856 0.04017 0.0
C594 C 0.62931 0.50695 0.01834 0.0
C595 C 0.64843 0.49097 0.06091 0.0
C596 C 0.64671 0.4978 0.12523 0.0
C597 C 0.6256 0.5203 0.14648 0.0
C598 C 0.6062 0.53443 0.10224 0.0
H599 H 0.63094 0.50191 0.96887 0.0
O600 O 0.65376 0.60325 0.95843 0.0
O601 O 0.6081 0.58766 0.98865 0.0
O602 O 0.61774 0.57177 0.85943 0.0
O603 O 0.59209 0.5345 0.91197 0.0
C604 C 0.62375 0.53007 0.20941 0.0
C605 C 0.60154 0.55235 0.22774 0.0
H606 H 0.55672 0.59657 0.24489 0.0
H607 H 0.5252 0.61993 0.15961 0.0
H608 H 0.66478 0.47374 0.04412 0.0
H609 H 0.66207 0.486 0.15769 0.0
H610 H 0.63998 0.52143 0.24378 0.0
H611 H 0.60047 0.55967 0.27629 0.0
Mn612 Mn 0.64413 0.35747 0.16175 0.0
Mn613 Mn 0.70253 0.32532 0.24394 0.0
C614 C 0.66295 0.38129 0.25249 0.0
C615 C 0.59154 0.36654 0.14364 0.0
C616 C 0.71168 0.35513 0.11569 0.0
O617 O 0.64229 0.31185 0.13434 0.0
O618 O 0.68077 0.29269 0.19512 0.0
C619 C 0.666 0.28586 0.33076 0.0
N620 N 0.68622 0.30981 0.32136 0.0
C621 C 0.68722 0.32139 0.43164 0.0
C622 C 0.66662 0.29675 0.4425 0.0
C623 C 0.65607 0.27882 0.39184 0.0
C624 C 0.697 0.32681 0.36993 0.0
H625 H 0.65734 0.27231 0.29196 0.0
C626 C 0.6586 0.28917 0.15552 0.0
O627 O 0.61221 0.37107 0.10024 0.0
O628 O 0.60108 0.35499 0.19628 0.0
N629 N 0.72383 0.35532 0.29443 0.0
C630 C 0.74254 0.37913 0.27576 0.0
C631 C 0.75482 0.39948 0.32083 0.0
C632 C 0.7473 0.39548 0.38443 0.0
C633 C 0.72792 0.37083 0.40257 0.0
C634 C 0.71703 0.35081 0.35573 0.0
H635 H 0.74764 0.38282 0.22679 0.0
O636 O 0.64992 0.3978 0.20885 0.0
O637 O 0.66641 0.35224 0.23845 0.0
O638 O 0.68354 0.36385 0.10937 0.0
O639 O 0.72156 0.34099 0.16467 0.0
C640 C 0.71771 0.36625 0.46473 0.0
C641 C 0.69771 0.34135 0.47939 0.0
H642 H 0.65862 0.29155 0.48948 0.0
H643 H 0.64006 0.25982 0.39973 0.0
H644 H 0.76954 0.4186 0.30645 0.0
H645 H 0.75604 0.41185 0.41867 0.0
H646 H 0.72426 0.38226 0.50142 0.0
H647 H 0.68997 0.33819 0.52732 0.0
Mn648 Mn 0.90387 0.39377 0.41036 0.0
Mn649 Mn 0.93336 0.45263 0.49489 0.0
C650 C 0.87758 0.4119 0.49878 0.0
C651 C 0.89737 0.34133 0.38647 0.0
C652 C 0.90638 0.46111 0.36421 0.0
O653 O 0.94998 0.39314 0.3866 0.0
O654 O 0.96749 0.43144 0.44942 0.0
C655 C 0.97073 0.41595 0.58511 0.0
N656 N 0.94717 0.43638 0.57363 0.0
C657 C 0.93272 0.43691 0.68253 0.0
C658 C 0.95693 0.41609 0.69556 0.0
C659 C 0.97611 0.40566 0.64664 0.0
C660 C 0.92891 0.44695 0.6205 0.0
H661 H 0.98516 0.4073 0.54758 0.0
C662 C 0.97203 0.40952 0.4098 0.0
O663 O 0.89334 0.36308 0.34525 0.0
O664 O 0.90625 0.34998 0.44197 0.0
N665 N 0.90206 0.4737 0.54242 0.0
C666 C 0.87898 0.49278 0.52169 0.0
C667 C 0.8577 0.50519 0.56494 0.0
C668 C 0.86008 0.49742 0.62876 0.0
C669 C 0.88409 0.47775 0.64897 0.0
C670 C 0.90519 0.46691 0.60407 0.0
H671 H 0.87673 0.49828 0.47249 0.0
O672 O 0.8624 0.39831 0.45386 0.0
O673 O 0.90694 0.41591 0.4876 0.0
O674 O 0.8976 0.43306 0.35899 0.0
O675 O 0.91951 0.47162 0.41378 0.0
C676 C 0.88698 0.46715 0.71125 0.0
C677 C 0.91151 0.44717 0.72827 0.0
H678 H 0.96077 0.40769 0.74278 0.0
H679 H 0.99471 0.3894 0.65621 0.0
H680 H 0.83918 0.52027 0.54897 0.0
H681 H 0.84306 0.5063 0.66162 0.0
H682 H 0.86981 0.47325 0.74602 0.0
H683 H 0.91336 0.43917 0.77631 0.0
Mn684 Mn 0.85614 0.64592 0.66522 0.0
Mn685 Mn 0.79829 0.67636 0.75118 0.0
C686 C 0.83701 0.61936 0.75273 0.0
C687 C 0.90854 0.63689 0.64611 0.0
C688 C 0.78889 0.65113 0.61927 0.0
O689 O 0.8585 0.69236 0.6433 0.0
O690 O 0.82102 0.71011 0.70805 0.0
C691 C 0.83638 0.71031 0.84428 0.0
N692 N 0.81491 0.68799 0.83091 0.0
C693 C 0.81388 0.67106 0.93835 0.0
C694 C 0.83571 0.69402 0.95335 0.0
C695 C 0.84693 0.71382 0.90615 0.0
C696 C 0.80366 0.66912 0.87615 0.0
H697 H 0.8456 0.72517 0.80797 0.0
C698 C 0.84286 0.71457 0.6682 0.0
O699 O 0.88788 0.634 0.60217 0.0
O700 O 0.89913 0.64682 0.70024 0.0
N701 N 0.77556 0.64533 0.79618 0.0
C702 C 0.75446 0.62445 0.77407 0.0
C703 C 0.73999 0.60383 0.81599 0.0
C704 C 0.74802 0.60435 0.87981 0.0
C705 C 0.77018 0.62577 0.90118 0.0
C706 C 0.78254 0.64681 0.85789 0.0
H707 H 0.74873 0.62353 0.72488 0.0
O708 O 0.84988 0.60418 0.70701 0.0
O709 O 0.8338 0.64881 0.74218 0.0
O710 O 0.81672 0.64154 0.61239 0.0
O711 O 0.77935 0.66441 0.66944 0.0
C712 C 0.78133 0.62637 0.96319 0.0
C713 C 0.8027 0.6493 0.98217 0.0
H714 H 0.84415 0.69646 1.00083 0.0
H715 H 0.86392 0.73151 0.91728 0.0
H716 H 0.72311 0.58719 0.79899 0.0
H717 H 0.73745 0.58786 0.91175 0.0
H718 H 0.77419 0.60875 0.9962 0.0
H719 H 0.81086 0.6496 0.03022 0.0
Mn720 Mn 0.60752 0.3948 0.60153 0.0
Mn721 Mn 0.57604 0.45202 0.51515 0.0
C722 C 0.63231 0.41205 0.51062 0.0
C723 C 0.61384 0.3422 0.62399 0.0
C724 C 0.60511 0.46275 0.64366 0.0
O725 O 0.56201 0.39413 0.62839 0.0
O726 O 0.54288 0.43101 0.5639 0.0
C727 C 0.53785 0.41359 0.42958 0.0
N728 N 0.5613 0.43445 0.43831 0.0
C729 C 0.57412 0.43349 0.32858 0.0
C730 C 0.55005 0.41214 0.3184 0.0
C731 C 0.53174 0.40225 0.36912 0.0
C732 C 0.5787 0.44453 0.38968 0.0
H733 H 0.52404 0.4054 0.46851 0.0
C734 C 0.53939 0.40974 0.60541 0.0
O735 O 0.61921 0.36347 0.66576 0.0
O736 O 0.60405 0.35152 0.56977 0.0
N737 N 0.60633 0.47276 0.46436 0.0
C738 C 0.62958 0.49224 0.4825 0.0
C739 C 0.65017 0.50408 0.43729 0.0
C740 C 0.64695 0.49535 0.37416 0.0
C741 C 0.62275 0.47532 0.35654 0.0
C742 C 0.60239 0.46501 0.40337 0.0
H743 H 0.6326 0.49836 0.53118 0.0
O744 O 0.64826 0.39905 0.5552 0.0
O745 O 0.60317 0.41609 0.52362 0.0
O746 O 0.61424 0.43482 0.65115 0.0
O747 O 0.59097 0.47204 0.59413 0.0
C748 C 0.619 0.46382 0.29509 0.0
C749 C 0.59447 0.44332 0.28091 0.0
H750 H 0.54566 0.40292 0.272 0.0
H751 H 0.51325 0.38561 0.36176 0.0
H752 H 0.66887 0.51941 0.45125 0.0
H753 H 0.66355 0.50372 0.33992 0.0
H754 H 0.63551 0.46959 0.25873 0.0
H755 H 0.592 0.4346 0.23354 0.0
Mn756 Mn 0.8606 0.36241 0.84974 0.0
Mn757 Mn 0.80289 0.32972 0.76665 0.0
C758 C 0.84273 0.38564 0.75725 0.0
C759 C 0.91282 0.37165 0.87162 0.0
C760 C 0.79351 0.35831 0.89594 0.0
O761 O 0.86213 0.31669 0.87765 0.0
O762 O 0.82563 0.29683 0.81269 0.0
C763 C 0.83983 0.29295 0.67586 0.0
N764 N 0.81887 0.31599 0.68761 0.0
C765 C 0.81664 0.32962 0.57831 0.0
C766 C 0.83797 0.30589 0.56501 0.0
C767 C 0.84954 0.28741 0.61399 0.0
C768 C 0.80725 0.33361 0.64069 0.0
H769 H 0.84936 0.27912 0.71344 0.0
C770 C 0.84716 0.2937 0.85394 0.0
O771 O 0.89133 0.37603 0.91331 0.0
O772 O 0.90426 0.36011 0.81822 0.0
N773 N 0.78064 0.36026 0.71916 0.0
C774 C 0.76148 0.3832 0.74016 0.0
C775 C 0.74821 0.40399 0.69696 0.0
C776 C 0.75513 0.40123 0.63282 0.0
C777 C 0.77501 0.37746 0.61236 0.0
C778 C 0.78687 0.35693 0.65734 0.0
H779 H 0.75656 0.38576 0.78954 0.0
O780 O 0.85536 0.40247 0.80089 0.0
O781 O 0.83892 0.35682 0.77256 0.0
O782 O 0.82094 0.36909 0.90027 0.0
O783 O 0.78397 0.34336 0.84776 0.0
C784 C 0.7847 0.37424 0.54959 0.0
C785 C 0.80517 0.35013 0.5324 0.0
H786 H 0.84585 0.30192 0.51749 0.0
H787 H 0.86623 0.26922 0.60417 0.0
H788 H 0.73303 0.42238 0.71316 0.0
H789 H 0.7454 0.41771 0.59981 0.0
H790 H 0.7773 0.39073 0.51444 0.0
H791 H 0.81252 0.34805 0.48399 0.0
Mn792 Mn 0.89804 0.60862 0.09464 0.0
Mn793 Mn 0.93069 0.5512 0.01081 0.0
C794 C 0.87241 0.58796 0.00757 0.0
C795 C 0.88863 0.66123 0.11188 0.0
C796 C 0.90431 0.54157 0.142 0.0
O797 O 0.94404 0.61232 0.11801 0.0
O798 O 0.96331 0.57444 0.0563 0.0
C799 C 0.96526 0.59056 0.92066 0.0
N800 N 0.94332 0.56841 0.93208 0.0
C801 C 0.92852 0.56734 0.82339 0.0
C802 C 0.95108 0.58994 0.81042 0.0
C803 C 0.96961 0.60153 0.85926 0.0
C804 C 0.92564 0.55685 0.88531 0.0
H805 H 0.9792 0.60001 0.95816 0.0
C806 C 0.96679 0.59663 0.09565 0.0
O807 O 0.8854 0.64083 0.15631 0.0
O808 O 0.89835 0.65123 0.05805 0.0
N809 N 0.90109 0.52788 0.96322 0.0
C810 C 0.88048 0.50606 0.98352 0.0
C811 C 0.86105 0.49122 0.93996 0.0
C812 C 0.86247 0.49956 0.87631 0.0
C813 C 0.88378 0.52224 0.85658 0.0
C814 C 0.90357 0.53508 0.90166 0.0
H815 H 0.87885 0.50012 0.03255 0.0
O816 O 0.85671 0.60096 0.05242 0.0
O817 O 0.90195 0.58583 0.01837 0.0
O818 O 0.89452 0.56936 0.14853 0.0
O819 O 0.91769 0.53193 0.09186 0.0
C820 C 0.88552 0.53336 0.79448 0.0
C821 C 0.9081 0.55558 0.77769 0.0
H822 H 0.9542 0.59872 0.76329 0.0
H823 H 0.98695 0.61913 0.84969 0.0
H824 H 0.84455 0.47387 0.95556 0.0
H825 H 0.84666 0.48881 0.84334 0.0
H826 H 0.86908 0.5257 0.75953 0.0
H827 H 0.90918 0.56387 0.72975 0.0
Mn828 Mn 0.64141 0.64742 0.34804 0.0
Mn829 Mn 0.70009 0.68086 0.26901 0.0
C830 C 0.66297 0.62298 0.26076 0.0
C831 C 0.58914 0.63663 0.36358 0.0
C832 C 0.70808 0.65243 0.39826 0.0
O833 O 0.63739 0.69313 0.37381 0.0
O834 O 0.67701 0.71271 0.31693 0.0
C835 C 0.66196 0.71823 0.18129 0.0
N836 N 0.68356 0.69556 0.19118 0.0
C837 C 0.68461 0.68283 0.08146 0.0
C838 C 0.66254 0.70613 0.07006 0.0
C839 C 0.65127 0.724 0.12019 0.0
C840 C 0.69493 0.67858 0.14316 0.0
H841 H 0.65271 0.73165 0.21976 0.0
C842 C 0.65413 0.71592 0.35481 0.0
O843 O 0.60931 0.63354 0.40838 0.0
O844 O 0.59893 0.64772 0.31057 0.0
N845 N 0.72318 0.65198 0.21936 0.0
C846 C 0.7443 0.63039 0.23843 0.0
C847 C 0.75837 0.61102 0.19373 0.0
C848 C 0.75002 0.61361 0.13027 0.0
C849 C 0.72829 0.63616 0.11172 0.0
C850 C 0.71614 0.6557 0.158 0.0
H851 H 0.75018 0.62786 0.28739 0.0
O852 O 0.64962 0.60668 0.3043 0.0
O853 O 0.66491 0.65244 0.27283 0.0
O854 O 0.68004 0.64324 0.40283 0.0
O855 O 0.71884 0.66587 0.34919 0.0
C856 C 0.71724 0.63927 0.04978 0.0
C857 C 0.69583 0.66286 0.03444 0.0
H858 H 0.65388 0.71027 0.02316 0.0
H859 H 0.63409 0.74192 0.11185 0.0
H860 H 0.77501 0.59359 0.20832 0.0
H861 H 0.75996 0.59765 0.09668 0.0
H862 H 0.72407 0.62303 0.01386 0.0
H863 H 0.68757 0.66493 0.98663 0.0
Mn864 Mn 0.39554 0.39133 0.09925 0.0
Mn865 Mn 0.42723 0.44847 0.01259 0.0
C866 C 0.37105 0.40895 0.00844 0.0
C867 C 0.38611 0.33948 0.12313 0.0
C868 C 0.39829 0.45938 0.14069 0.0
O869 O 0.4414 0.38977 0.12526 0.0
O870 O 0.46014 0.4276 0.06224 0.0
C871 C 0.46627 0.41049 0.92762 0.0
N872 N 0.44238 0.43089 0.93605 0.0
C873 C 0.43042 0.43028 0.8259 0.0
C874 C 0.45493 0.40938 0.81607 0.0
C875 C 0.47302 0.39954 0.86712 0.0
C876 C 0.42522 0.44096 0.88706 0.0
H877 H 0.47999 0.40244 0.96678 0.0
C878 C 0.46388 0.40602 0.10308 0.0
O879 O 0.38261 0.36129 0.16444 0.0
O880 O 0.39708 0.34749 0.0688 0.0
N881 N 0.39699 0.46897 0.9612 0.0
C882 C 0.37339 0.48815 0.97894 0.0
C883 C 0.35294 0.49986 0.93334 0.0
C884 C 0.3567 0.49134 0.8702 0.0
C885 C 0.38117 0.47153 0.85304 0.0
C886 C 0.40128 0.46124 0.9003 0.0
H887 H 0.36998 0.49413 0.0276 0.0
O888 O 0.35481 0.39656 0.05328 0.0
O889 O 0.40027 0.41243 0.02114 0.0
O890 O 0.38976 0.43136 0.14857 0.0
O891 O 0.412 0.46882 0.09087 0.0
C892 C 0.38557 0.46046 0.79146 0.0
C893 C 0.41039 0.4402 0.77773 0.0
H894 H 0.45988 0.40053 0.76964 0.0
H895 H 0.49189 0.38328 0.85996 0.0
H896 H 0.33399 0.51497 0.94697 0.0
H897 H 0.34034 0.49975 0.83551 0.0
H898 H 0.36952 0.46666 0.75453 0.0
H899 H 0.41343 0.43183 0.73023 0.0
Mn900 Mn 0.36238 0.64129 0.84919 0.0
Mn901 Mn 0.30305 0.67159 0.76714 0.0
C902 C 0.34316 0.61556 0.76087 0.0
C903 C 0.41547 0.63517 0.86707 0.0
C904 C 0.29616 0.64544 0.89946 0.0
O905 O 0.36336 0.68729 0.87302 0.0
O906 O 0.32649 0.70588 0.80749 0.0
C907 C 0.33822 0.70583 0.66962 0.0
N908 N 0.31745 0.68325 0.68551 0.0
C909 C 0.31286 0.66699 0.57801 0.0
C910 C 0.33397 0.69024 0.5605 0.0
C911 C 0.34663 0.7098 0.6065 0.0
C912 C 0.30484 0.66453 0.6415 0.0
H913 H 0.34859 0.7205 0.70488 0.0
C914 C 0.34846 0.70977 0.84748 0.0
O915 O 0.3951 0.63038 0.91095 0.0
O916 O 0.40504 0.64451 0.81336 0.0
N917 N 0.28003 0.63982 0.72486 0.0
C918 C 0.26139 0.6174 0.74983 0.0
C919 C 0.2472 0.59564 0.70999 0.0
C920 C 0.25265 0.59691 0.64509 0.0
C921 C 0.27202 0.62013 0.62053 0.0
C922 C 0.28487 0.64167 0.66229 0.0
H923 H 0.25756 0.61602 0.79978 0.0
O924 O 0.3573 0.60006 0.80471 0.0
O925 O 0.33911 0.64465 0.77363 0.0
O926 O 0.32372 0.6348 0.90316 0.0
O927 O 0.28596 0.65977 0.85096 0.0
C928 C 0.28023 0.62187 0.55669 0.0
C929 C 0.30028 0.6455 0.53526 0.0
H930 H 0.34086 0.69301 0.512 0.0
H931 H 0.36314 0.72764 0.59347 0.0
H932 H 0.23242 0.57768 0.72935 0.0
H933 H 0.24218 0.5797 0.61465 0.0
H934 H 0.27201 0.60457 0.52399 0.0
H935 H 0.30648 0.64647 0.48605 0.0
Mn936 Mn 0.10359 0.60999 0.59794 0.0
Mn937 Mn 0.07189 0.55234 0.51331 0.0
C938 C 0.12854 0.59144 0.5082 0.0
C939 C 0.11098 0.66275 0.61758 0.0
C940 C 0.10088 0.54225 0.64207 0.0
O941 O 0.05792 0.61146 0.62438 0.0
O942 O 0.03887 0.57393 0.56146 0.0
C943 C 0.03435 0.59077 0.42639 0.0
N944 N 0.05742 0.56955 0.43586 0.0
C945 C 0.0702 0.56932 0.32605 0.0
C946 C 0.04652 0.59105 0.31511 0.0
C947 C 0.02845 0.60173 0.36551 0.0
C948 C 0.07466 0.5588 0.38758 0.0
H949 H 0.02073 0.59954 0.46504 0.0
C950 C 0.0353 0.59557 0.60214 0.0
O951 O 0.11581 0.64193 0.66063 0.0
O952 O 0.10081 0.65295 0.56404 0.0
N953 N 0.10199 0.53089 0.46329 0.0
C954 C 0.12493 0.51118 0.48213 0.0
C955 C 0.14511 0.49836 0.4373 0.0
C956 C 0.14181 0.50637 0.37378 0.0
C957 C 0.11802 0.52675 0.35546 0.0
C958 C 0.09806 0.53808 0.40201 0.0
H959 H 0.12797 0.50551 0.53104 0.0
O960 O 0.14444 0.6047 0.55243 0.0
O961 O 0.09929 0.588 0.52081 0.0
O962 O 0.10981 0.57029 0.64915 0.0
O963 O 0.08675 0.53275 0.59275 0.0
C964 C 0.11418 0.53742 0.2934 0.0
C965 C 0.09017 0.55847 0.27861 0.0
H966 H 0.04224 0.59992 0.26835 0.0
H967 H 0.01026 0.61866 0.35755 0.0
H968 H 0.16351 0.48277 0.45178 0.0
H969 H 0.15803 0.49713 0.3398 0.0
H970 H 0.13014 0.5305 0.25695 0.0
H971 H 0.08769 0.56667 0.23082 0.0
Mn972 Mn 0.15148 0.35832 0.3455 0.0
Mn973 Mn 0.20606 0.322 0.26213 0.0
C974 C 0.17075 0.38172 0.25451 0.0
C975 C 0.0995 0.36924 0.3666 0.0
C976 C 0.2155 0.34539 0.39449 0.0
O977 O 0.14771 0.3121 0.37018 0.0
O978 O 0.17695 0.29014 0.29361 0.0
C979 C 0.17237 0.29603 0.15323 0.0
N980 N 0.19376 0.31614 0.17699 0.0
C981 C 0.20232 0.33908 0.07569 0.0
C982 C 0.18031 0.3187 0.05 0.0
C983 C 0.16556 0.29682 0.08886 0.0
C984 C 0.20904 0.33639 0.13963 0.0
H985 H 0.16036 0.2798 0.18333 0.0
C986 C 0.15719 0.28839 0.33874 0.0
O987 O 0.12083 0.37253 0.40907 0.0
O988 O 0.10806 0.35801 0.31301 0.0
N989 N 0.23411 0.35268 0.23055 0.0
C990 C 0.25452 0.37093 0.2627 0.0
C991 C 0.27134 0.39392 0.23065 0.0
C992 C 0.26658 0.39824 0.16619 0.0
C993 C 0.2456 0.37901 0.13425 0.0
C994 C 0.23035 0.35576 0.16807 0.0
H995 H 0.25795 0.36813 0.31243 0.0
O996 O 0.15872 0.39868 0.29867 0.0
O997 O 0.17296 0.35258 0.26885 0.0
O998 O 0.19169 0.3629 0.39566 0.0
O999 O 0.22147 0.32708 0.3491 0.0
C1000 C 0.23805 0.3831 0.07086 0.0
C1001 C 0.21686 0.36285 0.04107 0.0
H1002 H 0.17437 0.31988 1.00071 0.0
H1003 H 0.14854 0.28098 0.06958 0.0
H1004 H 0.28753 0.40859 0.25575 0.0
H1005 H 0.27898 0.41653 0.14179 0.0
H1006 H 0.24793 0.40248 0.0457 0.0
H1007 H 0.21113 0.36634 0.99215 0.0
Mn1008 Mn 0.39455 0.60666 0.41074 0.0
Mn1009 Mn 0.42737 0.54744 0.48955 0.0
C1010 C 0.37105 0.58656 0.50081 0.0
C1011 C 0.38572 0.65937 0.39351 0.0
C1012 C 0.39791 0.5402 0.36078 0.0
O1013 O 0.44009 0.60887 0.38279 0.0
O1014 O 0.45985 0.57037 0.44273 0.0
C1015 C 0.46564 0.58333 0.57931 0.0
N1016 N 0.44222 0.56272 0.56823 0.0
C1017 C 0.42979 0.56007 0.67804 0.0
C1018 C 0.45379 0.58118 0.69063 0.0
C1019 C 0.47191 0.59272 0.64104 0.0
C1020 C 0.42506 0.55099 0.61571 0.0
H1021 H 0.4793 0.59275 0.54131 0.0
C1022 C 0.46299 0.59276 0.40353 0.0
O1023 O 0.38112 0.63885 0.34997 0.0
O1024 O 0.39687 0.64946 0.44628 0.0
N1025 N 0.39749 0.52482 0.538 0.0
C1026 C 0.3745 0.50553 0.51775 0.0
C1027 C 0.3543 0.49193 0.56168 0.0
C1028 C 0.35769 0.49867 0.62577 0.0
C1029 C 0.38157 0.51858 0.64548 0.0
C1030 C 0.40153 0.53073 0.59977 0.0
H1031 H 0.37147 0.50077 0.46843 0.0
O1032 O 0.35437 0.60022 0.45819 0.0
O1033 O 0.40004 0.58335 0.48603 0.0
O1034 O 0.38813 0.56804 0.3572 0.0
O1035 O 0.41241 0.5296 0.40869 0.0
C1036 C 0.38549 0.52802 0.70825 0.0
C1037 C 0.40975 0.54844 0.72466 0.0
H1038 H 0.45834 0.58887 0.73808 0.0
H1039 H 0.49043 0.60911 0.65026 0.0
H1040 H 0.33586 0.47667 0.54611 0.0
H1041 H 0.34156 0.48876 0.65929 0.0
H1042 H 0.36939 0.52052 0.74405 0.0
H1043 H 0.41237 0.55559 0.77306 0.0
Mn1044 Mn 0.14587 0.64608 0.16049 0.0
Mn1045 Mn 0.20344 0.67677 0.24691 0.0
C1046 C 0.16287 0.62132 0.25163 0.0
C1047 C 0.09362 0.6379 0.13863 0.0
C1048 C 0.21402 0.64777 0.11851 0.0
O1049 O 0.14516 0.69188 0.13409 0.0
O1050 O 0.18286 0.71008 0.19785 0.0
C1051 C 0.16591 0.71584 0.3326 0.0
N1052 N 0.18612 0.69183 0.32375 0.0
C1053 C 0.18522 0.67923 0.43361 0.0
C1054 C 0.16457 0.70391 0.44391 0.0
C1055 C 0.15498 0.72238 0.3932 0.0
C1056 C 0.19593 0.67427 0.3724 0.0
H1057 H 0.15798 0.7298 0.29371 0.0
C1058 C 0.16138 0.71417 0.15694 0.0
O1059 O 0.11491 0.63345 0.09647 0.0
O1060 O 0.10238 0.64899 0.19218 0.0
N1061 N 0.22362 0.64609 0.29771 0.0
C1062 C 0.24249 0.62233 0.27949 0.0
C1063 C 0.25393 0.60151 0.32468 0.0
C1064 C 0.24546 0.60505 0.3879 0.0
C1065 C 0.22598 0.62969 0.40558 0.0
C1066 C 0.21594 0.65017 0.3587 0.0
H1067 H 0.24842 0.61908 0.23076 0.0
O1068 O 0.15026 0.60532 0.20678 0.0
O1069 O 0.16704 0.6504 0.23854 0.0
O1070 O 0.18589 0.63938 0.1107 0.0
O1071 O 0.22346 0.66152 0.16824 0.0
C1072 C 0.2149 0.6339 0.46724 0.0
C1073 C 0.19484 0.65883 0.48138 0.0
H1074 H 0.15579 0.70872 0.49045 0.0
H1075 H 0.13893 0.74139 0.40069 0.0
H1076 H 0.26878 0.58243 0.31066 0.0
H1077 H 0.25361 0.58837 0.42218 0.0
H1078 H 0.22079 0.61758 0.50388 0.0
H1079 H 0.18639 0.66167 0.5289 0.0
Mn1080 Mn 0.10901 0.39394 0.90982 0.0
Mn1081 Mn 0.08155 0.45347 0.99521 0.0
C1082 C 0.13662 0.41167 0.99727 0.0
C1083 C 0.11277 0.34094 0.88802 0.0
C1084 C 0.10565 0.46044 0.86148 0.0
O1085 O 0.06263 0.39481 0.88837 0.0
O1086 O 0.04594 0.43115 0.95693 0.0
C1087 C 0.04815 0.41911 0.09506 0.0
N1088 N 0.07111 0.43915 0.07754 0.0
C1089 C 0.08972 0.44287 0.18365 0.0
C1090 C 0.06622 0.42239 0.20284 0.0
C1091 C 0.04528 0.41055 0.15837 0.0
C1092 C 0.09108 0.45104 0.12011 0.0
H1093 H 0.03234 0.40949 0.0609 0.0
C1094 C 0.04088 0.41007 0.91563 0.0
O1095 O 0.11761 0.36191 0.84544 0.0
O1096 O 0.10517 0.35074 0.94343 0.0
N1097 N 0.11467 0.47558 0.03514 0.0
C1098 C 0.13683 0.49401 0.00864 0.0
C1099 C 0.15964 0.50765 0.04683 0.0
C1100 C 0.15965 0.50188 0.11166 0.0
C1101 C 0.13663 0.48277 0.1378 0.0
C1102 C 0.114 0.47052 0.09771 0.0
H1103 H 0.1372 0.49812 0.95872 0.0
O1104 O 0.151 0.39731 0.95219 0.0
O1105 O 0.10745 0.41664 0.98642 0.0
O1106 O 0.11601 0.43284 0.85701 0.0
O1107 O 0.09208 0.47065 0.9108 0.0
C1108 C 0.13606 0.47433 0.20158 0.0
C1109 C 0.11242 0.45473 0.22472 0.0
H1110 H 0.06425 0.41536 0.25144 0.0
H1111 H 0.0272 0.39457 0.17276 0.0
H1112 H 0.17739 0.52227 0.02624 0.0
H1113 H 0.17765 0.51193 0.1408 0.0
H1114 H 0.1541 0.48233 0.23294 0.0
H1115 H 0.11228 0.44844 0.27392 0.0
Mn1116 Mn 0.36162 0.35415 0.6615 0.0
Mn1117 Mn 0.30598 0.31815 0.74151 0.0
C1118 C 0.34094 0.37802 0.75043 0.0
C1119 C 0.41366 0.36501 0.64342 0.0
C1120 C 0.29904 0.34105 0.60825 0.0
O1121 O 0.36531 0.30768 0.63773 0.0
O1122 O 0.3368 0.28608 0.71623 0.0
C1123 C 0.33722 0.29633 0.85753 0.0
N1124 N 0.3156 0.31457 0.82896 0.0
C1125 C 0.30334 0.33973 0.92659 0.0
C1126 C 0.32526 0.32094 0.95708 0.0
C1127 C 0.34211 0.29895 0.92241 0.0
C1128 C 0.29866 0.33526 0.86225 0.0
H1129 H 0.35117 0.28059 0.83078 0.0
C1130 C 0.35663 0.28423 0.67107 0.0
O1131 O 0.39304 0.36819 0.59953 0.0
O1132 O 0.40449 0.3536 0.69647 0.0
N1133 N 0.27636 0.34895 0.76674 0.0
C1134 C 0.25615 0.36562 0.73063 0.0
C1135 C 0.23781 0.38884 0.75821 0.0
C1136 C 0.24053 0.39485 0.82254 0.0
C1137 C 0.26099 0.37698 0.85883 0.0
C1138 C 0.27799 0.35351 0.82922 0.0
H1139 H 0.25384 0.36135 0.68115 0.0
O1140 O 0.35397 0.39474 0.70705 0.0
O1141 O 0.33892 0.34885 0.73651 0.0
O1142 O 0.32225 0.35923 0.60981 0.0
O1143 O 0.29316 0.32156 0.6519 0.0
C1144 C 0.26613 0.38254 0.92272 0.0
C1145 C 0.28708 0.36377 0.95689 0.0
H1146 H 0.32976 0.32361 0.00677 0.0
H1147 H 0.35943 0.28466 0.94531 0.0
H1148 H 0.22189 0.40231 0.72981 0.0
H1149 H 0.22686 0.41325 0.84356 0.0
H1150 H 0.25461 0.4019 0.94487 0.0
H1151 H 0.29144 0.36863 0.00587 0.0
C1152 C 0.10888 0.98948 0.31024 0.0
C1153 C 0.10667 0.02197 0.30443 0.0
C1154 C 0.10906 0.97009 0.25706 0.0
C1155 C 0.10623 0.98227 0.19575 0.0
H1156 H 0.11028 0.97891 0.35627 0.0
H1157 H 0.11037 0.94521 0.26435 0.0
S1158 S 0.09956 0.0659 0.15483 0.0
N1159 N 0.10196 0.06552 0.23205 0.0
N1160 N 0.10144 0.02917 0.13293 0.0
C1161 C 0.10422 0.01476 0.18937 0.0
C1162 C 0.10468 0.03453 0.24336 0.0
C1163 C 0.25837 0.85609 0.55463 0.0
C1164 C 0.22587 0.85411 0.5486 0.0
C1165 C 0.27792 0.85608 0.50171 0.0
C1166 C 0.26592 0.8533 0.44031 0.0
H1167 H 0.26887 0.85748 0.60069 0.0
H1168 H 0.30279 0.8572 0.50933 0.0
S1169 S 0.18233 0.84705 0.39874 0.0
N1170 N 0.18247 0.84958 0.47599 0.0
N1171 N 0.21915 0.8487 0.37706 0.0
C1172 C 0.23341 0.85146 0.43362 0.0
C1173 C 0.21345 0.85212 0.48749 0.0
C1174 C 0.42629 0.9959 0.70321 0.0
C1175 C 0.40089 0.01468 0.68574 0.0
C1176 C 0.42542 0.97764 0.75795 0.0
C1177 C 0.39894 0.97697 0.79669 0.0
H1178 H 0.44742 0.99611 0.67555 0.0
H1179 H 0.44568 0.96392 0.77017 0.0
S1180 S 0.32554 0.02004 0.77014 0.0
N1181 N 0.34808 0.03061 0.71106 0.0
N1182 N 0.34621 0.99536 0.81249 0.0
C1183 C 0.37306 0.99478 0.77895 0.0
C1184 C 0.37412 0.0139 0.72391 0.0
C1185 C 0.23698 0.12741 0.97843 0.0
C1186 C 0.22412 0.15552 0.95671 0.0
C1187 C 0.2582 0.12699 0.02867 0.0
C1188 C 0.26645 0.15456 0.06001 0.0
H1189 H 0.23112 0.10572 0.95551 0.0
H1190 H 0.26789 0.10495 0.04363 0.0
S1191 S 0.23856 0.23403 0.02201 0.0
N1192 N 0.22113 0.21147 0.97018 0.0
N1193 N 0.25988 0.21062 0.06588 0.0
C1194 C 0.25329 0.18269 0.03927 0.0
C1195 C 0.23243 0.18319 0.98725 0.0
C1196 C 0.88993 0.97284 0.75941 0.0
C1197 C 0.89134 0.98478 0.69773 0.0
C1198 C 0.89059 0.99245 0.81225 0.0
C1199 C 0.89192 0.02498 0.80599 0.0
H1200 H 0.88945 0.94796 0.76723 0.0
H1201 H 0.89031 0.98195 0.85843 0.0
S1202 S 0.89479 0.06839 0.65521 0.0
N1203 N 0.89355 0.03153 0.63393 0.0
N1204 N 0.89393 0.06832 0.73261 0.0
C1205 C 0.89236 0.03732 0.74459 0.0
C1206 C 0.89232 0.0173 0.69078 0.0
C1207 C 0.76469 0.13222 0.48334 0.0
C1208 C 0.77575 0.16046 0.45856 0.0
C1209 C 0.74348 0.13179 0.53357 0.0
C1210 C 0.73343 0.15956 0.56191 0.0
H1211 H 0.77194 0.11035 0.46283 0.0
H1212 H 0.7352 0.1096 0.55085 0.0
S1213 S 0.75611 0.23952 0.51535 0.0
N1214 N 0.77508 0.2168 0.466 0.0
N1215 N 0.73631 0.21599 0.56179 0.0
C1216 C 0.74477 0.18788 0.5382 0.0
C1217 C 0.76563 0.18834 0.48612 0.0
C1218 C 0.6004 0.01458 0.3092 0.0
C1219 C 0.59891 0.98204 0.30351 0.0
C1220 C 0.60073 0.03398 0.25594 0.0
C1221 C 0.59877 0.0218 0.19452 0.0
H1222 H 0.60126 0.0252 0.3552 0.0
H1223 H 0.6016 0.05887 0.26324 0.0
S1224 S 0.59377 0.93805 0.15383 0.0
N1225 N 0.59549 0.93845 0.23114 0.0
N1226 N 0.59523 0.9748 0.1318 0.0
C1227 C 0.59725 0.98926 0.18826 0.0
C1228 C 0.59757 0.96948 0.24241 0.0
C1229 C 0.72094 0.85921 0.0054 0.0
C1230 C 0.73302 0.8584 0.94377 0.0
C1231 C 0.74043 0.85793 0.05842 0.0
C1232 C 0.77298 0.85651 0.05236 0.0
H1233 H 0.69604 0.85972 0.01301 0.0
H1234 H 0.72987 0.85781 0.10453 0.0
S1235 S 0.81675 0.8548 0.90189 0.0
N1236 N 0.77994 0.85652 0.88037 0.0
N1237 N 0.81648 0.85491 0.97929 0.0
C1238 C 0.78546 0.85659 0.99105 0.0
C1239 C 0.76557 0.85731 0.9371 0.0
C1240 C 0.60972 0.47215 0.75971 0.0
C1241 C 0.60834 0.48434 0.69821 0.0
C1242 C 0.60959 0.49156 0.81277 0.0
C1243 C 0.60882 0.52409 0.8068 0.0
H1244 H 0.60983 0.44725 0.76724 0.0
H1245 H 0.60989 0.48095 0.85884 0.0
S1246 S 0.60594 0.56808 0.65663 0.0
N1247 N 0.60656 0.53127 0.6349 0.0
N1248 N 0.60711 0.56773 0.73401 0.0
C1249 C 0.60828 0.53667 0.74557 0.0
C1250 C 0.60781 0.51686 0.69157 0.0
C1251 C 0.74039 0.36041 0.94633 0.0
C1252 C 0.77296 0.36064 0.95234 0.0
C1253 C 0.72089 0.36004 0.9994 0.0
C1254 C 0.73307 0.35911 0.0609 0.0
H1255 H 0.72984 0.36019 0.90022 0.0
H1256 H 0.69599 0.35932 0.99195 0.0
S1257 S 0.81684 0.35973 0.10269 0.0
N1258 N 0.81654 0.36065 0.02532 0.0
N1259 N 0.77999 0.35914 0.12426 0.0
C1260 C 0.7656 0.35974 0.06756 0.0
C1261 C 0.78546 0.36074 0.01362 0.0
C1262 C 0.90156 0.5138 0.31245 0.0
C1263 C 0.90364 0.48128 0.30732 0.0
C1264 C 0.90058 0.53289 0.25878 0.0
C1265 C 0.90234 0.52039 0.19758 0.0
H1266 H 0.90082 0.52462 0.35827 0.0
H1267 H 0.89941 0.55781 0.26555 0.0
S1268 S 0.90827 0.43657 0.15816 0.0
N1269 N 0.9072 0.43736 0.23548 0.0
N1270 N 0.90604 0.47319 0.1356 0.0
C1271 C 0.90426 0.48789 0.19187 0.0
C1272 C 0.90472 0.46841 0.24634 0.0
C1273 C 0.76063 0.64711 0.44959 0.0
C1274 C 0.72815 0.64968 0.45507 0.0
C1275 C 0.77985 0.64638 0.50297 0.0
C1276 C 0.7675 0.64891 0.56418 0.0
H1277 H 0.77134 0.64582 0.40369 0.0
H1278 H 0.80474 0.6448 0.49589 0.0
S1279 S 0.6838 0.65636 0.6043 0.0
N1280 N 0.6844 0.65449 0.52702 0.0
N1281 N 0.72045 0.65385 0.62659 0.0
C1282 C 0.73501 0.65129 0.57025 0.0
C1283 C 0.7154 0.65146 0.51601 0.0
C1284 C 0.39444 0.46838 0.25666 0.0
C1285 C 0.39499 0.48078 0.1953 0.0
C1286 C 0.39465 0.48762 0.30982 0.0
C1287 C 0.39472 0.52016 0.30411 0.0
H1288 H 0.39504 0.44346 0.26396 0.0
H1289 H 0.39516 0.47687 0.35577 0.0
S1290 S 0.39444 0.56456 0.15426 0.0
N1291 N 0.39462 0.52778 0.13224 0.0
N1292 N 0.39428 0.56403 0.23166 0.0
C1293 C 0.39413 0.53293 0.24301 0.0
C1294 C 0.39449 0.51327 0.18885 0.0
C1295 C 0.22368 0.64298 1.00265 0.0
C1296 C 0.23573 0.64409 0.06422 0.0
C1297 C 0.24325 0.64282 0.94981 0.0
C1298 C 0.2758 0.64306 0.95604 0.0
H1299 H 0.1988 0.64336 0.99487 0.0
H1300 H 0.23274 0.64283 0.90367 0.0
S1301 S 0.31942 0.64454 0.10659 0.0
N1302 N 0.28252 0.64466 0.12798 0.0
N1303 N 0.31928 0.64361 0.0292 0.0
C1304 C 0.28823 0.64315 0.01735 0.0
C1305 C 0.26825 0.64389 0.07117 0.0
C1306 C 0.10839 0.51324 0.81068 0.0
C1307 C 0.10719 0.48072 0.80474 0.0
C1308 C 0.1076 0.53272 0.75771 0.0
C1309 C 0.10483 0.52061 0.6964 0.0
H1310 H 0.1097 0.52379 0.8567 0.0
H1311 H 0.10811 0.55761 0.76525 0.0
S1312 S 0.10081 0.43691 0.65501 0.0
N1313 N 0.10359 0.43717 0.73221 0.0
N1314 N 0.10135 0.47373 0.63328 0.0
C1315 C 0.1039 0.48808 0.68978 0.0
C1316 C 0.1053 0.46821 0.74365 0.0
C1317 C 0.2477 0.31662 0.47254 0.0
C1318 C 0.23675 0.34515 0.44894 0.0
C1319 C 0.26744 0.31546 0.52484 0.0
C1320 C 0.2777 0.34284 0.5541 0.0
H1321 H 0.24053 0.29497 0.451 0.0
H1322 H 0.27515 0.293 0.54184 0.0
S1323 S 0.25614 0.42341 0.50997 0.0
N1324 N 0.23737 0.40138 0.45909 0.0
N1325 N 0.27553 0.39929 0.55589 0.0
C1326 C 0.26723 0.37154 0.53057 0.0
C1327 C 0.24644 0.37267 0.4784 0.0
C1328 C 0.14144 0.20206 0.32285 0.0
C1329 C 0.12357 0.19484 0.37595 0.0
C1330 C 0.15182 0.23226 0.31168 0.0
C1331 C 0.14472 0.25689 0.3529 0.0
H1332 H 0.14812 0.18411 0.28989 0.0
H1333 H 0.16575 0.2361 0.27008 0.0
S1334 S 0.09666 0.25065 0.49713 0.0
N1335 N 0.09782 0.21487 0.46917 0.0
N1336 N 0.11733 0.27203 0.44809 0.0
C1337 C 0.12613 0.25019 0.40564 0.0
C1338 C 0.1156 0.21913 0.4172 0.0
C1339 C 0.01604 0.91164 0.58586 0.0
C1340 C 0.99124 0.89824 0.61985 0.0
C1341 C 0.04663 0.90141 0.59329 0.0
C1342 C 0.05404 0.87766 0.63573 0.0
H1343 H 0.01194 0.92995 0.55198 0.0
H1344 H 0.0647 0.91255 0.56588 0.0
S1345 S 0.99872 0.83531 0.73827 0.0
N1346 N 0.97671 0.86004 0.699 0.0
N1347 N 0.03463 0.84119 0.71348 0.0
C1348 C 0.02987 0.86428 0.67107 0.0
C1349 C 0.99844 0.87452 0.66313 0.0
C1350 C 0.35721 0.79704 0.82776 0.0
C1351 C 0.37855 0.80527 0.87458 0.0
C1352 C 0.34721 0.76634 0.82077 0.0
C1353 C 0.35842 0.74232 0.8598 0.0
H1354 H 0.34759 0.81455 0.7968 0.0
H1355 H 0.33069 0.76152 0.78374 0.0
S1356 S 0.41511 0.75186 0.98974 0.0
N1357 N 0.41085 0.78722 0.96082 0.0
N1358 N 0.39231 0.72924 0.94741 0.0
C1359 C 0.38 0.75026 0.90682 0.0
C1360 C 0.39002 0.78174 0.9142 0.0
C1361 C 0.44742 0.10887 0.08086 0.0
C1362 C 0.43981 0.1306 0.12733 0.0
C1363 C 0.47809 0.09918 0.07181 0.0
C1364 C 0.50278 0.1111 0.10821 0.0
H1365 H 0.42943 0.09865 0.05192 0.0
H1366 H 0.48232 0.08222 0.03529 0.0
S1367 S 0.49503 0.16929 0.23575 0.0
N1368 N 0.45914 0.16418 0.21024 0.0
N1369 N 0.51716 0.1463 0.19267 0.0
C1370 C 0.4955 0.13321 0.15462 0.0
C1371 C 0.46398 0.14289 0.16424 0.0
C1372 C 0.12733 0.75357 0.10252 0.0
C1373 C 0.15331 0.74694 0.14063 0.0
C1374 C 0.11725 0.78428 0.09283 0.0
C1375 C 0.13242 0.80941 0.12172 0.0
H1376 H 0.11422 0.73493 0.08104 0.0
H1377 H 0.09701 0.78832 0.06372 0.0
S1378 S 0.20363 0.80565 0.21932 0.0
N1379 N 0.19574 0.7691 0.20232 0.0
N1380 N 0.17611 0.82627 0.18509 0.0
C1381 C 0.15896 0.80338 0.15791 0.0
C1382 C 0.1696 0.77232 0.16701 0.0
C1383 C 0.47779 0.90599 0.42933 0.0
C1384 C 0.50283 0.89537 0.39233 0.0
C1385 C 0.44747 0.89541 0.41967 0.0
C1386 C 0.44061 0.87407 0.37195 0.0
H1387 H 0.48151 0.92243 0.467 0.0
H1388 H 0.42918 0.90442 0.44953 0.0
S1389 S 0.49708 0.83938 0.26041 0.0
N1390 N 0.51839 0.86232 0.30516 0.0
N1391 N 0.46105 0.84285 0.28625 0.0
C1392 C 0.46514 0.86347 0.33376 0.0
C1393 C 0.49628 0.874 0.34412 0.0
C1394 C 0.38364 0.21256 0.58151 0.0
C1395 C 0.3871 0.19031 0.62952 0.0
C1396 C 0.37493 0.24337 0.59505 0.0
C1397 C 0.36958 0.25297 0.65719 0.0
H1398 H 0.38678 0.2059 0.53303 0.0
H1399 H 0.37123 0.25939 0.55656 0.0
S1400 S 0.38162 0.20523 0.80041 0.0
N1401 N 0.3885 0.18116 0.74191 0.0
N1402 N 0.37279 0.23872 0.76724 0.0
C1403 C 0.37508 0.23139 0.70558 0.0
C1404 C 0.38372 0.20017 0.69185 0.0
C1405 C 0.04658 0.10738 0.92626 0.0
C1406 C 0.05445 0.12771 0.87729 0.0
C1407 C 0.01588 0.09778 0.93568 0.0
C1408 C 0.99143 0.10843 0.89713 0.0
H1409 H 0.06437 0.09833 0.95728 0.0
H1410 H 0.01141 0.08204 0.97427 0.0
S1411 S 0.99983 0.16204 0.76163 0.0
N1412 N 0.03553 0.15813 0.789 0.0
N1413 N 0.97753 0.14044 0.80724 0.0
C1414 C 0.99898 0.12889 0.84781 0.0
C1415 C 0.03049 0.13843 0.83779 0.0
C1416 C 0.87598 0.75462 0.61319 0.0
C1417 C 0.85125 0.74752 0.65419 0.0
C1418 C 0.88542 0.78549 0.60299 0.0
C1419 C 0.87089 0.81034 0.63424 0.0
H1420 H 0.88837 0.73623 0.58915 0.0
H1421 H 0.90455 0.78989 0.57111 0.0
S1422 S 0.8032 0.80528 0.74157 0.0
N1423 N 0.81092 0.76893 0.72263 0.0
N1424 N 0.82932 0.82634 0.70414 0.0
C1425 C 0.84579 0.80381 0.67411 0.0
C1426 C 0.83579 0.77259 0.68385 0.0
C1427 C 0.95162 0.10348 0.4162 0.0
C1428 C 0.94433 0.1261 0.37121 0.0
C1429 C 0.98209 0.09299 0.42411 0.0
C1430 C 0.00685 0.10508 0.38814 0.0
H1431 H 0.93356 0.09345 0.44532 0.0
H1432 H 0.98616 0.07561 0.45992 0.0
S1433 S 0.99969 0.16454 0.26259 0.0
N1434 N 0.96384 0.15989 0.2887 0.0
N1435 N 0.02153 0.14066 0.30429 0.0
C1436 C 0.99978 0.12759 0.34225 0.0
C1437 C 0.96847 0.138 0.33369 0.0
C1438 C 0.62335 0.25058 0.10189 0.0
C1439 C 0.64984 0.25662 0.13894 0.0
C1440 C 0.61268 0.22006 0.09219 0.0
C1441 C 0.62767 0.19459 0.12031 0.0
H1442 H 0.61031 0.26953 0.08126 0.0
H1443 H 0.59208 0.21646 0.06391 0.0
S1444 S 0.70021 0.19668 0.2139 0.0
N1445 N 0.69272 0.23344 0.1979 0.0
N1446 N 0.67186 0.1767 0.18103 0.0
C1447 C 0.65474 0.2 0.15518 0.0
C1448 C 0.66604 0.23084 0.16407 0.0
C1449 C 0.54934 0.89463 0.92426 0.0
C1450 C 0.55734 0.87415 0.87567 0.0
C1451 C 0.51859 0.90419 0.93328 0.0
C1452 C 0.49426 0.8935 0.89446 0.0
H1453 H 0.56707 0.90389 0.95509 0.0
H1454 H 0.514 0.92011 0.9715 0.0
S1455 S 0.50294 0.83838 0.76158 0.0
N1456 N 0.53859 0.84273 0.78885 0.0
N1457 N 0.48057 0.8605 0.80594 0.0
C1458 C 0.50193 0.8726 0.846 0.0
C1459 C 0.53346 0.86298 0.83662 0.0
C1460 C 0.84408 0.23665 0.83329 0.0
C1461 C 0.85614 0.26117 0.86992 0.0
C1462 C 0.85313 0.20586 0.84289 0.0
C1463 C 0.87435 0.19788 0.89013 0.0
H1464 H 0.82771 0.24111 0.7958 0.0
H1465 H 0.84306 0.18811 0.81315 0.0
S1466 S 0.91254 0.25245 1.00058 0.0
N1467 N 0.89039 0.27494 0.95642 0.0
N1468 N 0.90714 0.21664 0.97487 0.0
C1469 C 0.88636 0.2218 0.92806 0.0
C1470 C 0.87735 0.25349 0.91785 0.0
C1471 C 0.53719 0.13805 0.65479 0.0
C1472 C 0.56279 0.12369 0.62571 0.0
C1473 C 0.50674 0.12729 0.64464 0.0
C1474 C 0.50082 0.10156 0.60549 0.0
H1475 H 0.54071 0.15789 0.68522 0.0
H1476 H 0.48774 0.13953 0.66702 0.0
S1477 S 0.56079 0.05439 0.52268 0.0
N1478 N 0.58072 0.0817 0.55902 0.0
N1479 N 0.52406 0.06102 0.54035 0.0
C1480 C 0.52662 0.08654 0.57761 0.0
C1481 C 0.55742 0.09777 0.58746 0.0
C1482 C 0.61647 0.75493 0.39966 0.0
C1483 C 0.64555 0.74833 0.37214 0.0
C1484 C 0.60647 0.78574 0.40842 0.0
C1485 C 0.62495 0.81085 0.38877 0.0
H1486 H 0.60091 0.73625 0.4129 0.0
H1487 H 0.5838 0.78993 0.4289 0.0
S1488 S 0.70475 0.80696 0.32406 0.0
N1489 N 0.69429 0.77033 0.33314 0.0
N1490 N 0.67466 0.82772 0.34745 0.0
C1491 C 0.65447 0.8048 0.36401 0.0
C1492 C 0.66501 0.77367 0.35634 0.0
C1493 C 0.95339 0.89532 0.08599 0.0
C1494 C 0.94589 0.87388 0.13315 0.0
C1495 C 0.98393 0.90522 0.07682 0.0
C1496 C 0.00867 0.89384 0.11376 0.0
H1497 H 0.93543 0.90498 0.05615 0.0
H1498 H 0.98801 0.92181 0.0395 0.0
S1499 S 1.0012 0.8373 0.24452 0.0
N1500 N 0.96533 0.84164 0.21828 0.0
N1501 N 0.02321 0.85996 0.20041 0.0
C1502 C 0.0015 0.87231 0.16142 0.0
C1503 C 0.97006 0.86241 0.17122 0.0
C1504 C 0.62451 0.75131 0.89991 0.0
C1505 C 0.65118 0.75846 0.86417 0.0
C1506 C 0.61565 0.72034 0.911 0.0
C1507 C 0.63286 0.69552 0.88595 0.0
H1508 H 0.60993 0.7697 0.91831 0.0
H1509 H 0.59477 0.71582 0.93794 0.0
S1510 S 0.70663 0.70085 0.7967 0.0
N1511 N 0.69645 0.73728 0.80949 0.0
N1512 N 0.67911 0.67959 0.82933 0.0
C1513 C 0.66009 0.70212 0.8524 0.0
C1514 C 0.66944 0.73345 0.84184 0.0
C1515 C 0.50334 0.36962 0.15057 0.0
C1516 C 0.49652 0.39788 0.11991 0.0
C1517 C 0.53419 0.35964 0.15896 0.0
C1518 C 0.55922 0.37726 0.1359 0.0
H1519 H 0.48475 0.35462 0.16667 0.0
H1520 H 0.53846 0.33762 0.18206 0.0
S1521 S 0.55488 0.4551 0.06195 0.0
N1522 N 0.51829 0.44512 0.07385 0.0
N1523 N 0.57579 0.42566 0.08807 0.0
C1524 C 0.55299 0.40608 0.10797 0.0
C1525 C 0.52178 0.41658 0.10044 0.0
C1526 C 0.8807 0.25487 0.40608 0.0
C1527 C 0.86829 0.24671 0.34726 0.0
C1528 C 0.89112 0.28529 0.4181 0.0
C1529 C 0.88972 0.30854 0.3716 0.0
H1530 H 0.88144 0.23797 0.44372 0.0
H1531 H 0.89955 0.29078 0.46464 0.0
S1532 S 0.86244 0.29833 0.20762 0.0
N1533 N 0.85736 0.26412 0.24081 0.0
N1534 N 0.8773 0.32054 0.26292 0.0
C1535 C 0.87875 0.30025 0.31182 0.0
C1536 C 0.86791 0.26957 0.29983 0.0
C1537 C 0.96602 0.64278 0.66019 0.0
C1538 C 0.94062 0.62583 0.63698 0.0
C1539 C 0.99664 0.63233 0.65089 0.0
C1540 C 0.00283 0.60426 0.61902 0.0
H1541 H 0.96223 0.6646 0.68434 0.0
H1542 H 0.01554 0.64678 0.66744 0.0
S1543 S 0.9433 0.54891 0.55916 0.0
N1544 N 0.923 0.57837 0.58705 0.0
N1545 N 0.98009 0.55805 0.57094 0.0
C1546 C 0.9772 0.58629 0.59897 0.0
C1547 C 0.94622 0.59727 0.60751 0.0
C1548 C 0.64742 0.27068 0.70106 0.0
C1549 C 0.64014 0.24645 0.65899 0.0
C1550 C 0.63798 0.30122 0.69005 0.0
C1551 C 0.62087 0.3091 0.63639 0.0
H1552 H 0.66089 0.26627 0.74303 0.0
H1553 H 0.64484 0.3189 0.72344 0.0
S1554 S 0.59353 0.25453 0.51336 0.0
N1555 N 0.61321 0.23242 0.56269 0.0
N1556 N 0.59534 0.29012 0.54204 0.0
C1557 C 0.61252 0.28518 0.59458 0.0
C1558 C 0.62215 0.25383 0.60587 0.0
C1559 C 1.00084 0.37683 0.86163 0.0
C1560 C 0.00789 0.40176 0.90213 0.0
C1561 C 0.97003 0.36718 0.85181 0.0
C1562 C 0.94516 0.38181 0.88269 0.0
H1563 H 0.01923 0.36434 0.83777 0.0
H1564 H 0.96572 0.34787 0.82043 0.0
S1565 S 0.95011 0.45007 0.98841 0.0
N1566 N 0.98652 0.44233 0.96967 0.0
N1567 N 0.92905 0.42376 0.95162 0.0
C1568 C 0.95162 0.40717 0.92197 0.0
C1569 C 0.98285 0.41728 0.9315 0.0
C1570 C 0.84566 0.73126 0.17436 0.0
C1571 C 0.85743 0.75622 0.13855 0.0
C1572 C 0.85645 0.7009 0.16609 0.0
C1573 C 0.87912 0.69394 0.12095 0.0
H1574 H 0.82821 0.73506 0.21016 0.0
H1575 H 0.84655 0.68266 0.1949 0.0
S1576 S 0.91702 0.75001 0.01303 0.0
N1577 N 0.89292 0.77148 0.05498 0.0
N1578 N 0.91275 0.71406 0.03877 0.0
C1579 C 0.89083 0.71833 0.08385 0.0
C1580 C 0.88009 0.7495 0.09274 0.0
C1581 C 0.5317 0.64107 0.34627 0.0
C1582 C 0.55725 0.62473 0.37071 0.0
C1583 C 0.50122 0.63005 0.3548 0.0
C1584 C 0.49537 0.60198 0.38696 0.0
H1585 H 0.53523 0.66294 0.32207 0.0
H1586 H 0.48215 0.64409 0.33752 0.0
S1587 S 0.55563 0.54796 0.44955 0.0
N1588 N 0.57547 0.57776 0.42182 0.0
N1589 N 0.51876 0.55631 0.43634 0.0
C1590 C 0.52123 0.58452 0.4079 0.0
C1591 C 0.55202 0.5961 0.40024 0.0
C1592 C 0.38818 0.28207 0.10367 0.0
C1593 C 0.37521 0.30753 0.13562 0.0
C1594 C 0.37762 0.25167 0.11488 0.0
C1595 C 0.35338 0.24571 0.15777 0.0
H1596 H 0.40689 0.2856 0.07039 0.0
H1597 H 0.38879 0.23274 0.09013 0.0
S1598 S 0.30897 0.3054 0.24712 0.0
N1599 N 0.33533 0.32534 0.20791 0.0
N1600 N 0.31502 0.26873 0.22833 0.0
C1601 C 0.33949 0.27135 0.18821 0.0
C1602 C 0.35052 0.30211 0.17732 0.0
C1603 C 0.45702 0.60887 0.92764 0.0
C1604 C 0.44869 0.62777 0.87679 0.0
C1605 C 0.48775 0.59969 0.937 0.0
C1606 C 0.51183 0.60937 0.89651 0.0
H1607 H 0.43957 0.60052 0.96022 0.0
H1608 H 0.4925 0.58493 0.977 0.0
S1609 S 0.50226 0.65937 0.75597 0.0
N1610 N 0.46675 0.65597 0.78474 0.0
N1611 N 0.52503 0.63911 0.80312 0.0
C1612 C 0.50392 0.62855 0.84547 0.0
C1613 C 0.47227 0.63764 0.83543 0.0
C1614 C 0.13927 0.70359 0.6769 0.0
C1615 C 0.11927 0.69575 0.62746 0.0
C1616 C 0.14946 0.73411 0.68541 0.0
C1617 C 0.13979 0.75836 0.64536 0.0
H1618 H 0.14769 0.6859 0.70885 0.0
H1619 H 0.16498 0.73858 0.72432 0.0
S1620 S 0.08711 0.75002 0.50855 0.0
N1621 N 0.08994 0.71453 0.53751 0.0
N1622 N 0.10884 0.77222 0.55398 0.0
C1623 C 0.11951 0.7509 0.59582 0.0
C1624 C 0.10931 0.71957 0.58679 0.0
C1625 C 0.04233 0.36573 0.34605 0.0
C1626 C 0.06735 0.38011 0.37691 0.0
C1627 C 0.01165 0.37589 0.35538 0.0
C1628 C 0.0049 0.40121 0.39506 0.0
H1629 H 0.04643 0.34608 0.31537 0.0
H1630 H 0.9931 0.36343 0.33202 0.0
S1631 S 0.06333 0.44948 0.47963 0.0
N1632 N 0.08403 0.42242 0.44416 0.0
N1633 N 0.02685 0.44221 0.46084 0.0
C1634 C 0.03017 0.41671 0.42374 0.0
C1635 C 0.06124 0.40597 0.41498 0.0
C1636 C 0.35314 0.69865 0.33957 0.0
C1637 C 0.37583 0.69198 0.38481 0.0
C1638 C 0.34221 0.72887 0.33071 0.0
C1639 C 0.35387 0.75406 0.36589 0.0
H1640 H 0.34339 0.68031 0.31088 0.0
H1641 H 0.32481 0.73238 0.29472 0.0
S1642 S 0.41297 0.7486 0.49238 0.0
N1643 N 0.40896 0.71251 0.4673 0.0
N1644 N 0.38896 0.76982 0.44965 0.0
C1645 C 0.37636 0.74763 0.41218 0.0
C1646 C 0.38721 0.71652 0.42183 0.0
C1647 C 0.00549 0.63386 0.14272 0.0
C1648 C 0.99928 0.60567 0.11142 0.0
C1649 C 0.03613 0.64423 0.15189 0.0
C1650 C 0.06151 0.62711 0.12895 0.0
H1651 H 0.9866 0.64838 0.15916 0.0
H1652 H 0.03996 0.6661 0.17583 0.0
S1653 S 0.05875 0.5498 0.05266 0.0
N1654 N 0.02198 0.55915 0.06419 0.0
N1655 N 0.07906 0.57936 0.07994 0.0
C1656 C 0.05587 0.59846 0.09992 0.0
C1657 C 0.02489 0.58755 0.09159 0.0
C1658 C 0.1309 0.25516 0.91145 0.0
C1659 C 0.1348 0.24458 0.84954 0.0
C1660 C 0.1224 0.28614 0.92376 0.0
C1661 C 0.11767 0.30753 0.87461 0.0
H1662 H 0.13562 0.2398 0.95057 0.0
H1663 H 0.12058 0.29365 0.97204 0.0
S1664 S 0.11929 0.28979 0.70447 0.0
N1665 N 0.12898 0.25687 0.73899 0.0
N1666 N 0.11366 0.31483 0.76189 0.0
C1667 C 0.11963 0.29666 0.8127 0.0
C1668 C 0.12807 0.26526 0.80027 0.0
C1669 C 0.47095 0.36081 0.66022 0.0
C1670 C 0.4454 0.37711 0.63581 0.0
C1671 C 0.5013 0.37219 0.65278 0.0
C1672 C 0.50704 0.40053 0.62154 0.0
H1673 H 0.46752 0.33878 0.68388 0.0
H1674 H 0.52039 0.35816 0.67002 0.0
S1675 S 0.44677 0.45451 0.55953 0.0
N1676 N 0.42699 0.42434 0.58585 0.0
N1677 N 0.48366 0.44635 0.57308 0.0
C1678 C 0.48121 0.4179 0.60049 0.0
C1679 C 0.45048 0.406 0.6072 0.0
C1680 C 0.16436 0.08129 0.59617 0.0
C1681 C 0.13994 0.09665 0.56487 0.0
C1682 C 0.17085 0.08762 0.65998 0.0
C1683 C 0.15419 0.11067 0.6927 0.0
H1684 H 0.178 0.06395 0.57174 0.0
H1685 H 0.18921 0.0749 0.68337 0.0
S1686 S 0.08956 0.15872 0.63004 0.0
N1687 N 0.09966 0.13604 0.57122 0.0
N1688 N 0.11297 0.1492 0.68812 0.0
C1689 C 0.13037 0.12653 0.66094 0.0
C1690 C 0.12315 0.1194 0.59762 0.0
C1691 C 0.13291 0.8778 0.84394 0.0
C1692 C 0.15606 0.89388 0.81066 0.0
C1693 C 0.126 0.88507 0.90611 0.0
C1694 C 0.14223 0.90845 0.9383 0.0
H1695 H 0.11978 0.85942 0.82152 0.0
H1696 H 0.10781 0.87201 0.92944 0.0
S1697 S 0.20529 0.95737 0.87295 0.0
N1698 N 0.19455 0.93516 0.81348 0.0
N1699 N 0.18342 0.94698 0.93327 0.0
C1700 C 0.16592 0.92444 0.9063 0.0
C1701 C 0.17216 0.91782 0.84152 0.0
C1702 C 0.33382 0.91709 0.08916 0.0
C1703 C 0.35843 0.90213 0.05772 0.0
C1704 C 0.32688 0.9099 0.15241 0.0
C1705 C 0.34293 0.88608 0.18413 0.0
H1706 H 0.32049 0.93489 0.06539 0.0
H1707 H 0.30859 0.92257 0.17612 0.0
S1708 S 0.40818 0.83906 0.12134 0.0
N1709 N 0.39874 0.8627 0.06356 0.0
N1710 N 0.38406 0.84753 0.17892 0.0
C1711 C 0.36691 0.87058 0.1523 0.0
C1712 C 0.37485 0.8788 0.08977 0.0
C1713 C 0.37789 0.11567 0.40262 0.0
C1714 C 0.36319 0.09185 0.43647 0.0
C1715 C 0.36848 0.12339 0.34195 0.0
C1716 C 0.34432 0.10725 0.31187 0.0
H1717 H 0.39664 0.12887 0.42366 0.0
H1718 H 0.38037 0.14222 0.31822 0.0
S1719 S 0.29881 0.04222 0.37918 0.0
N1720 N 0.32263 0.05256 0.43639 0.0
N1721 N 0.30691 0.06514 0.31903 0.0
C1722 C 0.32993 0.0827 0.34421 0.0
C1723 C 0.33868 0.07567 0.4076 0.0
C1724 C 0.82867 0.9132 0.34592 0.0
C1725 C 0.84498 0.88917 0.31539 0.0
C1726 C 0.83467 0.92037 0.40954 0.0
C1727 C 0.85853 0.90508 0.44267 0.0
H1728 H 0.81095 0.92608 0.32094 0.0
H1729 H 0.82126 0.93843 0.43226 0.0
S1730 S 0.90841 0.84125 0.38285 0.0
N1731 N 0.88547 0.85007 0.32356 0.0
N1732 N 0.89824 0.86497 0.43995 0.0
C1733 C 0.87509 0.88143 0.41196 0.0
C1734 C 0.86816 0.87334 0.34892 0.0
C1735 C 0.87377 0.11855 0.10231 0.0
C1736 C 0.85648 0.09642 0.06882 0.0
C1737 C 0.86665 0.1259 0.16438 0.0
C1738 C 0.84214 0.11121 0.19628 0.0
H1739 H 0.89291 0.13067 0.08005 0.0
H1740 H 0.88065 0.14332 0.18774 0.0
S1741 S 0.79027 0.05066 0.1309 0.0
N1742 N 0.81328 0.06006 0.07164 0.0
N1743 N 0.80144 0.07218 0.19105 0.0
C1744 C 0.82501 0.0884 0.16423 0.0
C1745 C 0.83161 0.08163 0.0996 0.0
C1746 C 0.63323 0.12582 0.84463 0.0
C1747 C 0.65773 0.11012 0.81472 0.0
C1748 C 0.62419 0.11834 0.90563 0.0
C1749 C 0.6395 0.09507 0.93999 0.0
H1750 H 0.62075 0.14415 0.82049 0.0
H1751 H 0.60518 0.13127 0.92644 0.0
S1752 S 0.70493 0.04658 0.88317 0.0
N1753 N 0.69622 0.06899 0.82259 0.0
N1754 N 0.68095 0.05668 0.94035 0.0
C1755 C 0.66432 0.07926 0.91122 0.0
C1756 C 0.6728 0.08614 0.84755 0.0
C1757 C 0.62221 0.88715 0.59801 0.0
C1758 C 0.63756 0.91094 0.56513 0.0
C1759 C 0.6307 0.87922 0.65917 0.0
C1760 C 0.65448 0.89514 0.69083 0.0
H1761 H 0.60364 0.87416 0.57586 0.0
H1762 H 0.61831 0.86045 0.68212 0.0
S1763 S 0.70144 0.95994 0.62664 0.0
N1764 N 0.6785 0.94978 0.56788 0.0
N1765 N 0.69226 0.93701 0.68614 0.0
C1766 C 0.66953 0.91962 0.65946 0.0
C1767 C 0.66182 0.92678 0.59555 0.0
C1768 C 0.62941 0.62099 0.09797 0.0
C1769 C 0.64559 0.59684 0.06796 0.0
C1770 C 0.63584 0.62918 0.15986 0.0
C1771 C 0.65835 0.61323 0.19501 0.0
H1772 H 0.61163 0.63392 0.07316 0.0
H1773 H 0.62276 0.64809 0.18064 0.0
S1774 S 0.7069 0.54773 0.13911 0.0
N1775 N 0.68594 0.5576 0.07717 0.0
N1776 N 0.69595 0.5711 0.19661 0.0
C1777 C 0.67427 0.58846 0.16645 0.0
C1778 C 0.66862 0.58093 0.10191 0.0
C1779 C 0.66514 0.4207 0.41332 0.0
C1780 C 0.6411 0.40501 0.44507 0.0
C1781 C 0.672 0.41379 0.34997 0.0
C1782 C 0.65651 0.38953 0.3186 0.0
H1783 H 0.67802 0.43887 0.43687 0.0
H1784 H 0.68978 0.42703 0.32591 0.0
S1785 S 0.59332 0.34024 0.38295 0.0
N1786 N 0.60218 0.36424 0.44042 0.0
N1787 N 0.61683 0.34952 0.32481 0.0
C1788 C 0.63325 0.37319 0.35094 0.0
C1789 C 0.62533 0.38114 0.41354 0.0
C1790 C 0.8351 0.41628 0.65652 0.0
C1791 C 0.85036 0.3929 0.69102 0.0
C1792 C 0.84296 0.42204 0.5931 0.0
C1793 C 0.86764 0.40597 0.5642 0.0
H1794 H 0.81673 0.42972 0.6782 0.0
H1795 H 0.83032 0.43962 0.56724 0.0
S1796 S 0.91491 0.34291 0.63463 0.0
N1797 N 0.89049 0.35317 0.69052 0.0
N1798 N 0.90669 0.3656 0.57457 0.0
C1799 C 0.88306 0.38288 0.59867 0.0
C1800 C 0.87428 0.37616 0.66146 0.0
C1801 C 0.87716 0.61777 0.90945 0.0
C1802 C 0.86218 0.59382 0.94249 0.0
C1803 C 0.86833 0.62562 0.84856 0.0
C1804 C 0.84454 0.60949 0.81738 0.0
H1805 H 0.89573 0.63091 0.93122 0.0
H1806 H 0.88042 0.64454 0.82551 0.0
S1807 S 0.79832 0.54439 0.88245 0.0
N1808 N 0.82159 0.55461 0.94064 0.0
N1809 N 0.80702 0.56739 0.82276 0.0
C1810 C 0.82982 0.58487 0.84893 0.0
C1811 C 0.83794 0.57772 0.91261 0.0
C1812 C 0.33089 0.40996 0.84834 0.0
C1813 C 0.34725 0.38642 0.81646 0.0
C1814 C 0.33775 0.41701 0.91162 0.0
C1815 C 0.36229 0.4019 0.94299 0.0
H1816 H 0.31246 0.4225 0.82474 0.0
H1817 H 0.32435 0.43469 0.93553 0.0
S1818 S 0.41257 0.33939 0.87929 0.0
N1819 N 0.38871 0.34815 0.82149 0.0
N1820 N 0.40267 0.36257 0.93744 0.0
C1821 C 0.3789 0.37878 0.91095 0.0
C1822 C 0.37131 0.37095 0.84822 0.0
C1823 C 0.33351 0.58304 0.66352 0.0
C1824 C 0.34947 0.60699 0.69492 0.0
C1825 C 0.33969 0.57658 0.59968 0.0
C1826 C 0.36335 0.59255 0.5673 0.0
H1827 H 0.31573 0.5699 0.6878 0.0
H1828 H 0.32641 0.55873 0.57602 0.0
S1829 S 0.41267 0.65608 0.62985 0.0
N1830 N 0.38955 0.64659 0.68843 0.0
N1831 N 0.40295 0.63268 0.57199 0.0
C1832 C 0.37984 0.61581 0.59914 0.0
C1833 C 0.37265 0.62327 0.66226 0.0
C1834 C 0.16183 0.58147 0.41212 0.0
C1835 C 0.13773 0.59769 0.44259 0.0
C1836 C 0.16965 0.58824 0.34915 0.0
C1837 C 0.15505 0.61283 0.31698 0.0
H1838 H 0.17418 0.56318 0.43652 0.0
H1839 H 0.18762 0.5748 0.32619 0.0
S1840 S 0.09154 0.66294 0.37741 0.0
N1841 N 0.09931 0.63886 0.43546 0.0
N1842 N 0.11575 0.65333 0.32071 0.0
C1843 C 0.13148 0.62943 0.34783 0.0
C1844 C 0.1226 0.62163 0.40998 0.0
C1845 C 0.17895 0.41357 0.15541 0.0
C1846 C 0.16329 0.38999 0.18868 0.0
C1847 C 0.17113 0.42038 0.09239 0.0
C1848 C 0.14623 0.40508 0.06265 0.0
H1849 H 0.19765 0.42628 0.17766 0.0
H1850 H 0.18411 0.43802 0.06739 0.0
S1851 S 0.09699 0.34286 0.13079 0.0
N1852 N 0.12189 0.35164 0.18675 0.0
N1853 N 0.10585 0.36597 0.07177 0.0
C1854 C 0.13011 0.38214 0.09629 0.0
C1855 C 0.13879 0.37441 0.15862 0.0
loop_
_geom_bond_atom_site_label_1
_geom_bond_atom_site_label_2
_geom_bond_distance
_geom_bond_site_symmetry_2
_ccdc_geom_bond_type
Mn0 O5 2.095 . S
Mn0 O15 2.162 . S
Mn0 O16 2.297 . S
Mn0 O24 2.385 . S
Mn0 O25 2.209 . S
Mn0 O26 2.094 . S
Mn1 O6 2.121 . S
Mn1 N8 2.257 . S
Mn1 N17 2.282 . S
Mn1 O25 2.215 . S
Mn1 O27 2.117 . S
C2 O24 1.234 . S
C2 O25 1.283 . S
C3 O15 1.281 . S
C3 O16 1.236 . S
C4 O26 1.240 . S
C4 O27 1.264 . S
O5 Mn0 2.095 . S
O5 C14 1.250 . S
O6 Mn1 2.121 . S
O6 C14 1.258 . S
C7 N8 1.326 . S
C7 C11 1.460 . S
C7 H13 0.929 . S
N8 Mn1 2.257 . S
N8 C7 1.326 . S
N8 C12 1.362 . S
C9 C10 1.258 . S
C9 C12 1.431 . S
C9 C29 1.449 . S
C10 C9 1.258 . S
C10 C11 1.477 . S
C10 H30 0.931 . S
C11 C7 1.460 . S
C11 C10 1.477 . S
C11 H31 0.930 . S
C12 N8 1.362 . S
C12 C9 1.431 . S
C12 C22 1.476 . S
H13 C7 0.929 . S
C14 O5 1.250 . S
C14 O6 1.258 . S
O15 Mn0 2.162 . S
O15 C3 1.281 . S
O16 Mn0 2.297 . S
O16 C3 1.236 . S
N17 Mn1 2.282 . S
N17 C18 1.328 . S
N17 C22 1.318 . S
C18 N17 1.328 . S
C18 C19 1.458 . S
C18 H23 0.929 . S
C19 C18 1.458 . S
C19 C20 1.291 1_545 S
C19 H32 0.929 1_545 S
C20 C19 1.291 1_565 S
C20 C21 1.373 1_565 S
C20 H33 0.929 . S
C21 C20 1.373 1_545 S
C21 C22 1.396 . S
C21 C28 1.403 . S
C22 C12 1.476 . S
C22 N17 1.318 . S
C22 C21 1.396 . S
H23 C18 0.929 . S
O24 Mn0 2.385 . S
O24 C2 1.234 . S
O25 Mn0 2.209 . S
O25 Mn1 2.215 . S
O25 C2 1.283 . S
O26 Mn0 2.094 . S
O26 C4 1.240 . S
O27 Mn1 2.117 . S
O27 C4 1.264 . S
C28 C21 1.403 . S
C28 C29 1.399 . S
C28 H34 0.929 1_545 S
C29 C9 1.449 . S
C29 C28 1.399 . S
C29 H35 0.930 . S
H30 C10 0.931 . S
H31 C11 0.930 . S
H32 C19 0.929 1_565 S
H33 C20 0.929 . S
H34 C28 0.929 1_565 S
H35 C29 0.930 . S
Mn36 O41 2.095 . S
Mn36 O51 2.162 . S
Mn36 O52 2.297 . S
Mn36 O60 2.385 . S
Mn36 O61 2.209 . S
Mn36 O62 2.094 . S
Mn37 O42 2.121 . S
Mn37 N44 2.257 . S
Mn37 N53 2.282 . S
Mn37 O61 2.215 . S
Mn37 O63 2.117 . S
C38 O60 1.234 . S
C38 O61 1.283 . S
C39 O51 1.281 . S
C39 O52 1.236 . S
C40 O62 1.240 . S
C40 O63 1.264 . S
O41 Mn36 2.095 . S
O41 C50 1.250 . S
O42 Mn37 2.121 . S
O42 C50 1.258 . S
C43 N44 1.326 . S
C43 C47 1.460 . S
C43 H49 0.929 . S
N44 Mn37 2.257 . S
N44 C43 1.326 . S
N44 C48 1.362 . S
C45 C46 1.258 . S
C45 C48 1.431 . S
C45 C65 1.449 . S
C46 C45 1.258 . S
C46 C47 1.477 . S
C46 H66 0.931 . S
C47 C43 1.460 . S
C47 C46 1.477 . S
C47 H67 0.930 . S
C48 N44 1.362 . S
C48 C45 1.431 . S
C48 C58 1.476 . S
H49 C43 0.929 . S
C50 O41 1.250 . S
C50 O42 1.258 . S
O51 Mn36 2.162 . S
O51 C39 1.281 . S
O52 Mn36 2.297 . S
O52 C39 1.236 . S
N53 Mn37 2.282 . S
N53 C54 1.328 . S
N53 C58 1.318 . S
C54 N53 1.328 . S
C54 C55 1.457 . S
C54 H59 0.929 . S
C55 C54 1.457 . S
C55 C56 1.291 . S
C55 H68 0.931 . S
C56 C55 1.291 . S
C56 C57 1.373 . S
C56 H69 0.929 . S
C57 C56 1.373 . S
C57 C58 1.396 . S
C57 C64 1.403 . S
C58 C48 1.476 . S
C58 N53 1.318 . S
C58 C57 1.396 . S
H59 C54 0.929 . S
O60 Mn36 2.385 . S
O60 C38 1.234 . S
O61 Mn36 2.209 . S
O61 Mn37 2.215 . S
O61 C38 1.283 . S
O62 Mn36 2.094 . S
O62 C40 1.240 . S
O63 Mn37 2.117 . S
O63 C40 1.264 . S
C64 C57 1.403 . S
C64 C65 1.399 . S
C64 H70 0.929 . S
C65 C45 1.449 . S
C65 C64 1.399 . S
C65 H71 0.930 1_556 S
H66 C46 0.931 . S
H67 C47 0.930 . S
H68 C55 0.931 . S
H69 C56 0.929 . S
H70 C64 0.929 . S
H71 C65 0.930 1_554 S
Mn72 O77 2.095 . S
Mn72 O87 2.162 . S
Mn72 O88 2.297 . S
Mn72 O96 2.385 . S
Mn72 O97 2.209 . S
Mn72 O98 2.094 . S
Mn73 O78 2.121 . S
Mn73 N80 2.257 1_556 S
Mn73 N89 2.282 1_556 S
Mn73 O97 2.215 . S
Mn73 O99 2.117 . S
C74 O96 1.234 1_554 S
C74 O97 1.283 1_554 S
C75 O87 1.281 . S
C75 O88 1.236 . S
C76 O98 1.240 . S
C76 O99 1.264 . S
O77 Mn72 2.095 . S
O77 C86 1.250 . S
O78 Mn73 2.121 . S
O78 C86 1.258 . S
C79 N80 1.326 . S
C79 C83 1.460 . S
C79 H85 0.929 . S
N80 Mn73 2.257 1_554 S
N80 C79 1.326 . S
N80 C84 1.362 . S
C81 C82 1.258 . S
C81 C84 1.431 . S
C81 C101 1.449 . S
C82 C81 1.258 . S
C82 C83 1.477 . S
C82 H102 0.931 . S
C83 C79 1.460 . S
C83 C82 1.477 . S
C83 H103 0.930 . S
C84 N80 1.362 . S
C84 C81 1.431 . S
C84 C94 1.476 . S
H85 C79 0.929 . S
C86 O77 1.250 . S
C86 O78 1.258 . S
O87 Mn72 2.162 . S
O87 C75 1.281 . S
O88 Mn72 2.297 . S
O88 C75 1.236 . S
N89 Mn73 2.282 1_554 S
N89 C90 1.328 . S
N89 C94 1.318 . S
C90 N89 1.328 . S
C90 C91 1.458 . S
C90 H95 0.929 1_554 S
C91 C90 1.458 . S
C91 C92 1.291 1_565 S
C91 H104 0.929 1_565 S
C92 C91 1.291 1_545 S
C92 C93 1.373 1_545 S
C92 H105 0.929 . S
C93 C92 1.373 1_565 S
C93 C94 1.396 . S
C93 C100 1.403 . S
C94 C84 1.476 . S
C94 N89 1.318 . S
C94 C93 1.396 . S
H95 C90 0.929 1_556 S
O96 Mn72 2.385 . S
O96 C74 1.234 1_556 S
O97 Mn72 2.209 . S
O97 Mn73 2.215 . S
O97 C74 1.283 1_556 S
O98 Mn72 2.094 . S
O98 C76 1.240 . S
O99 Mn73 2.117 . S
O99 C76 1.264 . S
C100 C93 1.403 . S
C100 C101 1.399 . S
C100 H106 0.929 1_565 S
C101 C81 1.449 . S
C101 C100 1.399 . S
C101 H107 0.930 . S
H102 C82 0.931 . S
H103 C83 0.930 . S
H104 C91 0.929 1_545 S
H105 C92 0.929 . S
H106 C100 0.929 1_545 S
H107 C101 0.930 . S
Mn108 O113 2.095 . S
Mn108 O123 2.162 . S
Mn108 O124 2.297 . S
Mn108 O132 2.385 . S
Mn108 O133 2.209 . S
Mn108 O134 2.094 . S
Mn109 O114 2.121 . S
Mn109 N116 2.257 . S
Mn109 N125 2.282 . S
Mn109 O133 2.215 . S
Mn109 O135 2.117 . S
C110 O132 1.234 . S
C110 O133 1.283 . S
C111 O123 1.281 . S
C111 O124 1.236 . S
C112 O134 1.240 . S
C112 O135 1.264 . S
O113 Mn108 2.095 . S
O113 C122 1.250 . S
O114 Mn109 2.121 . S
O114 C122 1.258 . S
C115 N116 1.326 . S
C115 C119 1.460 . S
C115 H121 0.929 . S
N116 Mn109 2.257 . S
N116 C115 1.326 . S
N116 C120 1.362 . S
C117 C118 1.258 . S
C117 C120 1.431 . S
C117 C137 1.449 . S
C118 C117 1.258 . S
C118 C119 1.477 . S
C118 H138 0.931 . S
C119 C115 1.460 . S
C119 C118 1.477 . S
C119 H139 0.930 . S
C120 N116 1.362 . S
C120 C117 1.431 . S
C120 C130 1.476 . S
H121 C115 0.929 . S
C122 O113 1.250 . S
C122 O114 1.258 . S
O123 Mn108 2.162 . S
O123 C111 1.281 . S
O124 Mn108 2.297 . S
O124 C111 1.236 . S
N125 Mn109 2.282 . S
N125 C126 1.328 . S
N125 C130 1.318 . S
C126 N125 1.328 . S
C126 C127 1.457 . S
C126 H131 0.929 . S
C127 C126 1.457 . S
C127 C128 1.291 . S
C127 H140 0.931 . S
C128 C127 1.291 . S
C128 C129 1.373 . S
C128 H141 0.929 . S
C129 C128 1.373 . S
C129 C130 1.396 . S
C129 C136 1.403 . S
C130 C120 1.476 . S
C130 N125 1.318 . S
C130 C129 1.396 . S
H131 C126 0.929 . S
O132 Mn108 2.385 . S
O132 C110 1.234 . S
O133 Mn108 2.209 . S
O133 Mn109 2.215 . S
O133 C110 1.283 . S
O134 Mn108 2.094 . S
O134 C112 1.240 . S
O135 Mn109 2.117 . S
O135 C112 1.264 . S
C136 C129 1.403 . S
C136 C137 1.399 . S
C136 H142 0.929 . S
C137 C117 1.449 . S
C137 C136 1.399 . S
C137 H143 0.930 . S
H138 C118 0.931 . S
H139 C119 0.930 . S
H140 C127 0.931 . S
H141 C128 0.929 . S
H142 C136 0.929 . S
H143 C137 0.930 . S
Mn144 O149 2.095 . S
Mn144 O159 2.162 . S
Mn144 O160 2.297 . S
Mn144 O168 2.385 . S
Mn144 O169 2.209 . S
Mn144 O170 2.094 . S
Mn145 O150 2.121 . S
Mn145 N152 2.257 1_554 S
Mn145 N161 2.282 1_554 S
Mn145 O169 2.215 . S
Mn145 O171 2.117 . S
C146 O168 1.234 1_556 S
C146 O169 1.283 1_556 S
C147 O159 1.281 . S
C147 O160 1.236 . S
C148 O170 1.240 . S
C148 O171 1.264 . S
O149 Mn144 2.095 . S
O149 C158 1.250 . S
O150 Mn145 2.121 . S
O150 C158 1.258 . S
C151 N152 1.326 . S
C151 C155 1.460 . S
C151 H157 0.929 . S
N152 Mn145 2.257 1_556 S
N152 C151 1.326 . S
N152 C156 1.362 . S
C153 C154 1.258 . S
C153 C156 1.431 . S
C153 C173 1.449 . S
C154 C153 1.258 . S
C154 C155 1.477 . S
C154 H174 0.931 . S
C155 C151 1.460 . S
C155 C154 1.477 . S
C155 H175 0.930 . S
C156 N152 1.362 . S
C156 C153 1.431 . S
C156 C166 1.476 . S
H157 C151 0.929 . S
C158 O149 1.250 . S
C158 O150 1.258 . S
O159 Mn144 2.162 . S
O159 C147 1.281 . S
O160 Mn144 2.297 . S
O160 C147 1.236 . S
N161 Mn145 2.282 1_556 S
N161 C162 1.328 . S
N161 C166 1.318 . S
C162 N161 1.328 . S
C162 C163 1.458 . S
C162 H167 0.929 1_556 S
C163 C162 1.458 . S
C163 C164 1.291 1_565 S
C163 H176 0.929 1_565 S
C164 C163 1.291 1_545 S
C164 C165 1.373 1_545 S
C164 H177 0.929 . S
C165 C164 1.373 1_565 S
C165 C166 1.396 . S
C165 C172 1.403 . S
C166 C156 1.476 . S
C166 N161 1.318 . S
C166 C165 1.396 . S
H167 C162 0.929 1_554 S
O168 Mn144 2.385 . S
O168 C146 1.234 1_554 S
O169 Mn144 2.209 . S
O169 Mn145 2.215 . S
O169 C146 1.283 1_554 S
O170 Mn144 2.094 . S
O170 C148 1.240 . S
O171 Mn145 2.117 . S
O171 C148 1.264 . S
C172 C165 1.403 . S
C172 C173 1.399 . S
C172 H178 0.929 1_565 S
C173 C153 1.449 . S
C173 C172 1.399 . S
C173 H179 0.930 . S
H174 C154 0.931 . S
H175 C155 0.930 . S
H176 C163 0.929 1_545 S
H177 C164 0.929 . S
H178 C172 0.929 1_545 S
H179 C173 0.930 . S
Mn180 O185 2.095 . S
Mn180 O195 2.162 . S
Mn180 O196 2.297 . S
Mn180 O204 2.385 . S
Mn180 O205 2.209 . S
Mn180 O206 2.094 . S
Mn181 O186 2.121 . S
Mn181 N188 2.257 . S
Mn181 N197 2.282 . S
Mn181 O205 2.215 . S
Mn181 O207 2.117 . S
C182 O204 1.234 . S
C182 O205 1.283 . S
C183 O195 1.281 . S
C183 O196 1.236 . S
C184 O206 1.240 . S
C184 O207 1.264 . S
O185 Mn180 2.095 . S
O185 C194 1.250 . S
O186 Mn181 2.121 . S
O186 C194 1.258 . S
C187 N188 1.326 . S
C187 C191 1.460 . S
C187 H193 0.929 . S
N188 Mn181 2.257 . S
N188 C187 1.326 . S
N188 C192 1.362 . S
C189 C190 1.258 . S
C189 C192 1.431 . S
C189 C209 1.449 . S
C190 C189 1.258 . S
C190 C191 1.477 . S
C190 H210 0.931 . S
C191 C187 1.460 . S
C191 C190 1.477 . S
C191 H211 0.930 . S
C192 N188 1.362 . S
C192 C189 1.431 . S
C192 C202 1.476 . S
H193 C187 0.929 . S
C194 O185 1.250 . S
C194 O186 1.258 . S
O195 Mn180 2.162 . S
O195 C183 1.281 . S
O196 Mn180 2.297 . S
O196 C183 1.236 . S
N197 Mn181 2.282 . S
N197 C198 1.328 . S
N197 C202 1.318 . S
C198 N197 1.328 . S
C198 C199 1.457 . S
C198 H203 0.929 . S
C199 C198 1.457 . S
C199 C200 1.291 . S
C199 H212 0.931 . S
C200 C199 1.291 . S
C200 C201 1.373 . S
C200 H213 0.929 . S
C201 C200 1.373 . S
C201 C202 1.396 . S
C201 C208 1.403 . S
C202 C192 1.476 . S
C202 N197 1.318 . S
C202 C201 1.396 . S
H203 C198 0.929 . S
O204 Mn180 2.385 . S
O204 C182 1.234 . S
O205 Mn180 2.209 . S
O205 Mn181 2.215 . S
O205 C182 1.283 . S
O206 Mn180 2.094 . S
O206 C184 1.240 . S
O207 Mn181 2.117 . S
O207 C184 1.264 . S
C208 C201 1.403 . S
C208 C209 1.399 . S
C208 H214 0.929 . S
C209 C189 1.449 . S
C209 C208 1.399 . S
C209 H215 0.930 1_554 S
H210 C190 0.931 . S
H211 C191 0.930 . S
H212 C199 0.931 . S
H213 C200 0.929 . S
H214 C208 0.929 . S
H215 C209 0.930 1_556 S
Mn216 O221 2.095 . S
Mn216 O231 2.162 . S
Mn216 O232 2.297 . S
Mn216 O240 2.385 . S
Mn216 O241 2.209 . S
Mn216 O242 2.094 . S
Mn217 O222 2.121 . S
Mn217 N224 2.257 . S
Mn217 N233 2.282 . S
Mn217 O241 2.215 . S
Mn217 O243 2.117 . S
C218 O240 1.234 . S
C218 O241 1.283 . S
C219 O231 1.281 . S
C219 O232 1.236 . S
C220 O242 1.240 . S
C220 O243 1.264 . S
O221 Mn216 2.095 . S
O221 C230 1.250 . S
O222 Mn217 2.121 . S
O222 C230 1.258 . S
C223 N224 1.326 . S
C223 C227 1.460 . S
C223 H229 0.929 . S
N224 Mn217 2.257 . S
N224 C223 1.326 . S
N224 C228 1.362 . S
C225 C226 1.258 . S
C225 C228 1.431 . S
C225 C245 1.449 . S
C226 C225 1.258 . S
C226 C227 1.477 . S
C226 H246 0.931 . S
C227 C223 1.460 . S
C227 C226 1.477 . S
C227 H247 0.930 . S
C228 N224 1.362 . S
C228 C225 1.431 . S
C228 C238 1.476 . S
H229 C223 0.929 . S
C230 O221 1.250 . S
C230 O222 1.258 . S
O231 Mn216 2.162 . S
O231 C219 1.281 . S
O232 Mn216 2.297 . S
O232 C219 1.236 . S
N233 Mn217 2.282 . S
N233 C234 1.328 . S
N233 C238 1.318 . S
C234 N233 1.328 . S
C234 C235 1.458 . S
C234 H239 0.929 . S
C235 C234 1.458 . S
C235 C236 1.291 1_545 S
C235 H248 0.929 1_545 S
C236 C235 1.291 1_565 S
C236 C237 1.373 1_565 S
C236 H249 0.929 . S
C237 C236 1.373 1_545 S
C237 C238 1.396 . S
C237 C244 1.403 . S
C238 C228 1.476 . S
C238 N233 1.318 . S
C238 C237 1.396 . S
H239 C234 0.929 . S
O240 Mn216 2.385 . S
O240 C218 1.234 . S
O241 Mn216 2.209 . S
O241 Mn217 2.215 . S
O241 C218 1.283 . S
O242 Mn216 2.094 . S
O242 C220 1.240 . S
O243 Mn217 2.117 . S
O243 C220 1.264 . S
C244 C237 1.403 . S
C244 C245 1.399 . S
C244 H250 0.929 1_545 S
C245 C225 1.449 . S
C245 C244 1.399 . S
C245 H251 0.930 . S
H246 C226 0.931 . S
H247 C227 0.930 . S
H248 C235 0.929 1_565 S
H249 C236 0.929 . S
H250 C244 0.929 1_565 S
H251 C245 0.930 . S
Mn252 O257 2.095 . S
Mn252 O267 2.162 . S
Mn252 O268 2.297 . S
Mn252 O276 2.385 . S
Mn252 O277 2.209 . S
Mn252 O278 2.094 . S
Mn253 O258 2.121 . S
Mn253 N260 2.257 . S
Mn253 N269 2.282 . S
Mn253 O277 2.215 . S
Mn253 O279 2.117 . S
C254 O276 1.234 . S
C254 O277 1.283 . S
C255 O267 1.281 . S
C255 O268 1.236 . S
C256 O278 1.240 . S
C256 O279 1.264 . S
O257 Mn252 2.095 . S
O257 C266 1.250 . S
O258 Mn253 2.121 . S
O258 C266 1.258 . S
C259 N260 1.326 . S
C259 C263 1.460 . S
C259 H265 0.929 . S
N260 Mn253 2.257 . S
N260 C259 1.326 . S
N260 C264 1.362 . S
C261 C262 1.258 . S
C261 C264 1.431 . S
C261 C281 1.449 . S
C262 C261 1.258 . S
C262 C263 1.477 . S
C262 H282 0.931 . S
C263 C259 1.460 . S
C263 C262 1.477 . S
C263 H283 0.930 . S
C264 N260 1.362 . S
C264 C261 1.431 . S
C264 C274 1.476 . S
H265 C259 0.929 . S
C266 O257 1.250 . S
C266 O258 1.258 . S
O267 Mn252 2.162 . S
O267 C255 1.281 . S
O268 Mn252 2.297 . S
O268 C255 1.236 . S
N269 Mn253 2.282 . S
N269 C270 1.328 . S
N269 C274 1.318 . S
C270 N269 1.328 . S
C270 C271 1.457 . S
C270 H275 0.929 . S
C271 C270 1.457 . S
C271 C272 1.291 . S
C271 H284 0.931 . S
C272 C271 1.291 . S
C272 C273 1.373 . S
C272 H285 0.929 . S
C273 C272 1.373 . S
C273 C274 1.396 . S
C273 C280 1.403 . S
C274 C264 1.476 . S
C274 N269 1.318 . S
C274 C273 1.396 . S
H275 C270 0.929 . S
O276 Mn252 2.385 . S
O276 C254 1.234 . S
O277 Mn252 2.209 . S
O277 Mn253 2.215 . S
O277 C254 1.283 . S
O278 Mn252 2.094 . S
O278 C256 1.240 . S
O279 Mn253 2.117 . S
O279 C256 1.264 . S
C280 C273 1.403 . S
C280 C281 1.399 . S
C280 H286 0.929 . S
C281 C261 1.449 . S
C281 C280 1.399 . S
C281 H287 0.930 . S
H282 C262 0.931 . S
H283 C263 0.930 . S
H284 C271 0.931 . S
H285 C272 0.929 . S
H286 C280 0.929 . S
H287 C281 0.930 . S
Mn288 O293 2.095 . S
Mn288 O303 2.162 . S
Mn288 O304 2.297 . S
Mn288 O312 2.385 . S
Mn288 O313 2.209 . S
Mn288 O314 2.094 . S
Mn289 O294 2.121 . S
Mn289 N296 2.257 . S
Mn289 N305 2.282 . S
Mn289 O313 2.215 . S
Mn289 O315 2.117 . S
C290 O312 1.234 . S
C290 O313 1.283 . S
C291 O303 1.281 . S
C291 O304 1.236 . S
C292 O314 1.240 . S
C292 O315 1.264 . S
O293 Mn288 2.095 . S
O293 C302 1.250 . S
O294 Mn289 2.121 . S
O294 C302 1.258 . S
C295 N296 1.326 . S
C295 C299 1.460 . S
C295 H301 0.929 . S
N296 Mn289 2.257 . S
N296 C295 1.326 . S
N296 C300 1.362 . S
C297 C298 1.258 . S
C297 C300 1.431 . S
C297 C317 1.449 . S
C298 C297 1.258 . S
C298 C299 1.477 . S
C298 H318 0.931 . S
C299 C295 1.460 . S
C299 C298 1.477 . S
C299 H319 0.930 . S
C300 N296 1.362 . S
C300 C297 1.431 . S
C300 C310 1.476 . S
H301 C295 0.929 . S
C302 O293 1.250 . S
C302 O294 1.258 . S
O303 Mn288 2.162 . S
O303 C291 1.281 . S
O304 Mn288 2.297 . S
O304 C291 1.236 . S
N305 Mn289 2.282 . S
N305 C306 1.328 . S
N305 C310 1.318 . S
C306 N305 1.328 . S
C306 C307 1.458 . S
C306 H311 0.929 . S
C307 C306 1.458 . S
C307 C308 1.291 1_565 S
C307 H320 0.929 1_565 S
C308 C307 1.291 1_545 S
C308 C309 1.373 1_545 S
C308 H321 0.929 . S
C309 C308 1.373 1_565 S
C309 C310 1.396 . S
C309 C316 1.403 . S
C310 C300 1.476 . S
C310 N305 1.318 . S
C310 C309 1.396 . S
H311 C306 0.929 . S
O312 Mn288 2.385 . S
O312 C290 1.234 . S
O313 Mn288 2.209 . S
O313 Mn289 2.215 . S
O313 C290 1.283 . S
O314 Mn288 2.094 . S
O314 C292 1.240 . S
O315 Mn289 2.117 . S
O315 C292 1.264 . S
C316 C309 1.403 . S
C316 C317 1.399 . S
C316 H322 0.929 1_565 S
C317 C297 1.449 . S
C317 C316 1.399 . S
C317 H323 0.930 . S
H318 C298 0.931 . S
H319 C299 0.930 . S
H320 C307 0.929 1_545 S
H321 C308 0.929 . S
H322 C316 0.929 1_545 S
H323 C317 0.930 . S
Mn324 O329 2.095 . S
Mn324 O339 2.162 . S
Mn324 O340 2.297 . S
Mn324 O348 2.385 . S
Mn324 O349 2.209 . S
Mn324 O350 2.094 . S
Mn325 O330 2.121 . S
Mn325 N332 2.257 . S
Mn325 N341 2.282 . S
Mn325 O349 2.215 . S
Mn325 O351 2.117 . S
C326 O348 1.234 . S
C326 O349 1.283 . S
C327 O339 1.281 . S
C327 O340 1.236 . S
C328 O350 1.240 . S
C328 O351 1.264 . S
O329 Mn324 2.095 . S
O329 C338 1.250 . S
O330 Mn325 2.121 . S
O330 C338 1.258 . S
C331 N332 1.326 . S
C331 C335 1.460 . S
C331 H337 0.929 . S
N332 Mn325 2.257 . S
N332 C331 1.326 . S
N332 C336 1.362 . S
C333 C334 1.258 . S
C333 C336 1.431 . S
C333 C353 1.449 . S
C334 C333 1.258 . S
C334 C335 1.477 . S
C334 H354 0.931 . S
C335 C331 1.460 . S
C335 C334 1.477 . S
C335 H355 0.930 . S
C336 N332 1.362 . S
C336 C333 1.431 . S
C336 C346 1.476 . S
H337 C331 0.929 . S
C338 O329 1.250 . S
C338 O330 1.258 . S
O339 Mn324 2.162 . S
O339 C327 1.281 . S
O340 Mn324 2.297 . S
O340 C327 1.236 . S
N341 Mn325 2.282 . S
N341 C342 1.328 . S
N341 C346 1.318 . S
C342 N341 1.328 . S
C342 C343 1.457 . S
C342 H347 0.929 . S
C343 C342 1.457 . S
C343 C344 1.291 . S
C343 H356 0.931 . S
C344 C343 1.291 . S
C344 C345 1.373 . S
C344 H357 0.929 . S
C345 C344 1.373 . S
C345 C346 1.396 . S
C345 C352 1.403 . S
C346 C336 1.476 . S
C346 N341 1.318 . S
C346 C345 1.396 . S
H347 C342 0.929 . S
O348 Mn324 2.385 . S
O348 C326 1.234 . S
O349 Mn324 2.209 . S
O349 Mn325 2.215 . S
O349 C326 1.283 . S
O350 Mn324 2.094 . S
O350 C328 1.240 . S
O351 Mn325 2.117 . S
O351 C328 1.264 . S
C352 C345 1.403 . S
C352 C353 1.399 . S
C352 H358 0.929 . S
C353 C333 1.449 . S
C353 C352 1.399 . S
C353 H359 0.930 1_554 S
H354 C334 0.931 . S
H355 C335 0.930 . S
H356 C343 0.931 . S
H357 C344 0.929 . S
H358 C352 0.929 . S
H359 C353 0.930 1_556 S
Mn360 O365 2.095 . S
Mn360 O375 2.162 . S
Mn360 O376 2.297 . S
Mn360 O384 2.385 . S
Mn360 O385 2.209 . S
Mn360 O386 2.094 . S
Mn361 O366 2.121 . S
Mn361 N368 2.257 1_554 S
Mn361 N377 2.282 1_554 S
Mn361 O385 2.215 . S
Mn361 O387 2.117 . S
C362 O384 1.234 1_556 S
C362 O385 1.283 1_556 S
C363 O375 1.281 . S
C363 O376 1.236 . S
C364 O386 1.240 . S
C364 O387 1.264 . S
O365 Mn360 2.095 . S
O365 C374 1.250 . S
O366 Mn361 2.121 . S
O366 C374 1.258 . S
C367 N368 1.326 . S
C367 C371 1.460 . S
C367 H373 0.929 . S
N368 Mn361 2.257 1_556 S
N368 C367 1.326 . S
N368 C372 1.362 . S
C369 C370 1.258 . S
C369 C372 1.431 . S
C369 C389 1.449 . S
C370 C369 1.258 . S
C370 C371 1.477 . S
C370 H390 0.931 . S
C371 C367 1.460 . S
C371 C370 1.477 . S
C371 H391 0.930 . S
C372 N368 1.362 . S
C372 C369 1.431 . S
C372 C382 1.476 . S
H373 C367 0.929 . S
C374 O365 1.250 . S
C374 O366 1.258 . S
O375 Mn360 2.162 . S
O375 C363 1.281 . S
O376 Mn360 2.297 . S
O376 C363 1.236 . S
N377 Mn361 2.282 1_556 S
N377 C378 1.328 . S
N377 C382 1.318 . S
C378 N377 1.328 . S
C378 C379 1.458 . S
C378 H383 0.929 1_556 S
C379 C378 1.458 . S
C379 C380 1.291 1_545 S
C379 H392 0.929 1_545 S
C380 C379 1.291 1_565 S
C380 C381 1.373 1_565 S
C380 H393 0.929 . S
C381 C380 1.373 1_545 S
C381 C382 1.396 . S
C381 C388 1.403 . S
C382 C372 1.476 . S
C382 N377 1.318 . S
C382 C381 1.396 . S
H383 C378 0.929 1_554 S
O384 Mn360 2.385 . S
O384 C362 1.234 1_554 S
O385 Mn360 2.209 . S
O385 Mn361 2.215 . S
O385 C362 1.283 1_554 S
O386 Mn360 2.094 . S
O386 C364 1.240 . S
O387 Mn361 2.117 . S
O387 C364 1.264 . S
C388 C381 1.403 . S
C388 C389 1.399 . S
C388 H394 0.929 1_545 S
C389 C369 1.449 . S
C389 C388 1.399 . S
C389 H395 0.930 . S
H390 C370 0.931 . S
H391 C371 0.930 . S
H392 C379 0.929 1_565 S
H393 C380 0.929 . S
H394 C388 0.929 1_565 S
H395 C389 0.930 . S
Mn396 O401 2.095 . S
Mn396 O411 2.162 . S
Mn396 O412 2.297 . S
Mn396 O420 2.385 . S
Mn396 O421 2.209 . S
Mn396 O422 2.094 . S
Mn397 O402 2.121 . S
Mn397 N404 2.257 . S
Mn397 N413 2.282 . S
Mn397 O421 2.215 . S
Mn397 O423 2.117 . S
C398 O420 1.234 . S
C398 O421 1.283 . S
C399 O411 1.281 . S
C399 O412 1.236 . S
C400 O422 1.240 . S
C400 O423 1.264 . S
O401 Mn396 2.095 . S
O401 C410 1.250 . S
O402 Mn397 2.121 . S
O402 C410 1.258 . S
C403 N404 1.326 . S
C403 C407 1.460 . S
C403 H409 0.929 . S
N404 Mn397 2.257 . S
N404 C403 1.326 . S
N404 C408 1.362 . S
C405 C406 1.258 . S
C405 C408 1.431 . S
C405 C425 1.449 . S
C406 C405 1.258 . S
C406 C407 1.477 . S
C406 H426 0.931 . S
C407 C403 1.460 . S
C407 C406 1.477 . S
C407 H427 0.930 . S
C408 N404 1.362 . S
C408 C405 1.431 . S
C408 C418 1.476 . S
H409 C403 0.929 . S
C410 O401 1.250 . S
C410 O402 1.258 . S
O411 Mn396 2.162 . S
O411 C399 1.281 . S
O412 Mn396 2.297 . S
O412 C399 1.236 . S
N413 Mn397 2.282 . S
N413 C414 1.328 . S
N413 C418 1.318 . S
C414 N413 1.328 . S
C414 C415 1.457 . S
C414 H419 0.929 . S
C415 C414 1.457 . S
C415 C416 1.291 . S
C415 H428 0.931 . S
C416 C415 1.291 . S
C416 C417 1.373 . S
C416 H429 0.929 . S
C417 C416 1.373 . S
C417 C418 1.396 . S
C417 C424 1.403 . S
C418 C408 1.476 . S
C418 N413 1.318 . S
C418 C417 1.396 . S
H419 C414 0.929 . S
O420 Mn396 2.385 . S
O420 C398 1.234 . S
O421 Mn396 2.209 . S
O421 Mn397 2.215 . S
O421 C398 1.283 . S
O422 Mn396 2.094 . S
O422 C400 1.240 . S
O423 Mn397 2.117 . S
O423 C400 1.264 . S
C424 C417 1.403 . S
C424 C425 1.399 . S
C424 H430 0.929 . S
C425 C405 1.449 . S
C425 C424 1.399 . S
C425 H431 0.930 . S
H426 C406 0.931 . S
H427 C407 0.930 . S
H428 C415 0.931 . S
H429 C416 0.929 . S
H430 C424 0.929 . S
H431 C425 0.930 . S
Mn432 O437 2.095 . S
Mn432 O447 2.162 . S
Mn432 O448 2.297 . S
Mn432 O456 2.385 . S
Mn432 O457 2.209 . S
Mn432 O458 2.094 . S
Mn433 O438 2.121 . S
Mn433 N440 2.257 1_556 S
Mn433 N449 2.282 1_556 S
Mn433 O457 2.215 . S
Mn433 O459 2.117 . S
C434 O456 1.234 1_554 S
C434 O457 1.283 1_554 S
C435 O447 1.281 . S
C435 O448 1.236 . S
C436 O458 1.240 . S
C436 O459 1.264 . S
O437 Mn432 2.095 . S
O437 C446 1.250 . S
O438 Mn433 2.121 . S
O438 C446 1.258 . S
C439 N440 1.326 . S
C439 C443 1.460 . S
C439 H445 0.929 . S
N440 Mn433 2.257 1_554 S
N440 C439 1.326 . S
N440 C444 1.362 . S
C441 C442 1.258 . S
C441 C444 1.431 . S
C441 C461 1.449 . S
C442 C441 1.258 . S
C442 C443 1.477 . S
C442 H462 0.931 . S
C443 C439 1.460 . S
C443 C442 1.477 . S
C443 H463 0.930 . S
C444 N440 1.362 . S
C444 C441 1.431 . S
C444 C454 1.476 . S
H445 C439 0.929 . S
C446 O437 1.250 . S
C446 O438 1.258 . S
O447 Mn432 2.162 . S
O447 C435 1.281 . S
O448 Mn432 2.297 . S
O448 C435 1.236 . S
N449 Mn433 2.282 1_554 S
N449 C450 1.328 . S
N449 C454 1.318 . S
C450 N449 1.328 . S
C450 C451 1.458 . S
C450 H455 0.929 1_554 S
C451 C450 1.458 . S
C451 C452 1.291 1_545 S
C451 H464 0.929 1_545 S
C452 C451 1.291 1_565 S
C452 C453 1.373 1_565 S
C452 H465 0.929 . S
C453 C452 1.373 1_545 S
C453 C454 1.396 . S
C453 C460 1.403 . S
C454 C444 1.476 . S
C454 N449 1.318 . S
C454 C453 1.396 . S
H455 C450 0.929 1_556 S
O456 Mn432 2.385 . S
O456 C434 1.234 1_556 S
O457 Mn432 2.209 . S
O457 Mn433 2.215 . S
O457 C434 1.283 1_556 S
O458 Mn432 2.094 . S
O458 C436 1.240 . S
O459 Mn433 2.117 . S
O459 C436 1.264 . S
C460 C453 1.403 . S
C460 C461 1.399 . S
C460 H466 0.929 1_545 S
C461 C441 1.449 . S
C461 C460 1.399 . S
C461 H467 0.930 . S
H462 C442 0.931 . S
H463 C443 0.930 . S
H464 C451 0.929 1_565 S
H465 C452 0.929 . S
H466 C460 0.929 1_565 S
H467 C461 0.930 . S
Mn468 O473 2.095 . S
Mn468 O483 2.162 . S
Mn468 O484 2.297 . S
Mn468 O492 2.385 . S
Mn468 O493 2.209 . S
Mn468 O494 2.094 . S
Mn469 O474 2.121 . S
Mn469 N476 2.257 . S
Mn469 N485 2.282 . S
Mn469 O493 2.215 . S
Mn469 O495 2.117 . S
C470 O492 1.234 . S
C470 O493 1.283 . S
C471 O483 1.281 . S
C471 O484 1.236 . S
C472 O494 1.240 . S
C472 O495 1.264 . S
O473 Mn468 2.095 . S
O473 C482 1.250 . S
O474 Mn469 2.121 . S
O474 C482 1.258 . S
C475 N476 1.326 . S
C475 C479 1.460 . S
C475 H481 0.929 . S
N476 Mn469 2.257 . S
N476 C475 1.326 . S
N476 C480 1.362 . S
C477 C478 1.258 . S
C477 C480 1.431 . S
C477 C497 1.449 . S
C478 C477 1.258 . S
C478 C479 1.477 . S
C478 H498 0.931 . S
C479 C475 1.460 . S
C479 C478 1.477 . S
C479 H499 0.930 . S
C480 N476 1.362 . S
C480 C477 1.431 . S
C480 C490 1.476 . S
H481 C475 0.929 . S
C482 O473 1.250 . S
C482 O474 1.258 . S
O483 Mn468 2.162 . S
O483 C471 1.281 . S
O484 Mn468 2.297 . S
O484 C471 1.236 . S
N485 Mn469 2.282 . S
N485 C486 1.328 . S
N485 C490 1.318 . S
C486 N485 1.328 . S
C486 C487 1.457 . S
C486 H491 0.929 . S
C487 C486 1.457 . S
C487 C488 1.291 . S
C487 H500 0.931 . S
C488 C487 1.291 . S
C488 C489 1.373 . S
C488 H501 0.929 . S
C489 C488 1.373 . S
C489 C490 1.396 . S
C489 C496 1.403 . S
C490 C480 1.476 . S
C490 N485 1.318 . S
C490 C489 1.396 . S
H491 C486 0.929 . S
O492 Mn468 2.385 . S
O492 C470 1.234 . S
O493 Mn468 2.209 . S
O493 Mn469 2.215 . S
O493 C470 1.283 . S
O494 Mn468 2.094 . S
O494 C472 1.240 . S
O495 Mn469 2.117 . S
O495 C472 1.264 . S
C496 C489 1.403 . S
C496 C497 1.399 . S
C496 H502 0.929 . S
C497 C477 1.449 . S
C497 C496 1.399 . S
C497 H503 0.930 1_556 S
H498 C478 0.931 . S
H499 C479 0.930 . S
H500 C487 0.931 . S
H501 C488 0.929 . S
H502 C496 0.929 . S
H503 C497 0.930 1_554 S
Mn504 O509 2.095 . S
Mn504 O519 2.162 . S
Mn504 O520 2.297 . S
Mn504 O528 2.385 . S
Mn504 O529 2.209 . S
Mn504 O530 2.094 . S
Mn505 O510 2.121 . S
Mn505 N512 2.257 . S
Mn505 N521 2.282 . S
Mn505 O529 2.215 . S
Mn505 O531 2.117 . S
C506 O528 1.234 . S
C506 O529 1.283 . S
C507 O519 1.281 . S
C507 O520 1.236 . S
C508 O530 1.240 . S
C508 O531 1.264 . S
O509 Mn504 2.095 . S
O509 C518 1.250 . S
O510 Mn505 2.121 . S
O510 C518 1.258 . S
C511 N512 1.326 . S
C511 C515 1.460 . S
C511 H517 0.929 . S
N512 Mn505 2.257 . S
N512 C511 1.326 . S
N512 C516 1.362 . S
C513 C514 1.258 . S
C513 C516 1.431 . S
C513 C533 1.449 . S
C514 C513 1.258 . S
C514 C515 1.477 . S
C514 H534 0.931 . S
C515 C511 1.460 . S
C515 C514 1.477 . S
C515 H535 0.930 . S
C516 N512 1.362 . S
C516 C513 1.431 . S
C516 C526 1.476 . S
H517 C511 0.929 . S
C518 O509 1.250 . S
C518 O510 1.258 . S
O519 Mn504 2.162 . S
O519 C507 1.281 . S
O520 Mn504 2.297 . S
O520 C507 1.236 . S
N521 Mn505 2.282 . S
N521 C522 1.328 . S
N521 C526 1.318 . S
C522 N521 1.328 . S
C522 C523 1.458 . S
C522 H527 0.929 . S
C523 C522 1.458 . S
C523 C524 1.291 1_565 S
C523 H536 0.929 1_565 S
C524 C523 1.291 1_545 S
C524 C525 1.373 1_545 S
C524 H537 0.929 . S
C525 C524 1.373 1_565 S
C525 C526 1.396 . S
C525 C532 1.403 . S
C526 C516 1.476 . S
C526 N521 1.318 . S
C526 C525 1.396 . S
H527 C522 0.929 . S
O528 Mn504 2.385 . S
O528 C506 1.234 . S
O529 Mn504 2.209 . S
O529 Mn505 2.215 . S
O529 C506 1.283 . S
O530 Mn504 2.094 . S
O530 C508 1.240 . S
O531 Mn505 2.117 . S
O531 C508 1.264 . S
C532 C525 1.403 . S
C532 C533 1.399 . S
C532 H538 0.929 1_565 S
C533 C513 1.449 . S
C533 C532 1.399 . S
C533 H539 0.930 . S
H534 C514 0.931 . S
H535 C515 0.930 . S
H536 C523 0.929 1_545 S
H537 C524 0.929 . S
H538 C532 0.929 1_545 S
H539 C533 0.930 . S
Mn540 O545 2.095 . S
Mn540 O555 2.162 . S
Mn540 O556 2.297 . S
Mn540 O564 2.385 . S
Mn540 O565 2.209 . S
Mn540 O566 2.094 . S
Mn541 O546 2.121 . S
Mn541 N548 2.257 . S
Mn541 N557 2.282 . S
Mn541 O565 2.215 . S
Mn541 O567 2.117 . S
C542 O564 1.234 . S
C542 O565 1.283 . S
C543 O555 1.281 . S
C543 O556 1.236 . S
C544 O566 1.240 . S
C544 O567 1.264 . S
O545 Mn540 2.095 . S
O545 C554 1.250 . S
O546 Mn541 2.121 . S
O546 C554 1.258 . S
C547 N548 1.326 . S
C547 C551 1.460 . S
C547 H553 0.929 . S
N548 Mn541 2.257 . S
N548 C547 1.326 . S
N548 C552 1.362 . S
C549 C550 1.258 . S
C549 C552 1.431 . S
C549 C569 1.449 . S
C550 C549 1.258 . S
C550 C551 1.477 . S
C550 H570 0.931 . S
C551 C547 1.460 . S
C551 C550 1.477 . S
C551 H571 0.930 . S
C552 N548 1.362 . S
C552 C549 1.431 . S
C552 C562 1.476 . S
H553 C547 0.929 . S
C554 O545 1.250 . S
C554 O546 1.258 . S
O555 Mn540 2.162 . S
O555 C543 1.281 . S
O556 Mn540 2.297 . S
O556 C543 1.236 . S
N557 Mn541 2.282 . S
N557 C558 1.328 . S
N557 C562 1.318 . S
C558 N557 1.328 . S
C558 C559 1.457 . S
C558 H563 0.929 . S
C559 C558 1.457 . S
C559 C560 1.291 . S
C559 H572 0.931 . S
C560 C559 1.291 . S
C560 C561 1.373 . S
C560 H573 0.929 . S
C561 C560 1.373 . S
C561 C562 1.396 . S
C561 C568 1.403 . S
C562 C552 1.476 . S
C562 N557 1.318 . S
C562 C561 1.396 . S
H563 C558 0.929 . S
O564 Mn540 2.385 . S
O564 C542 1.234 . S
O565 Mn540 2.209 . S
O565 Mn541 2.215 . S
O565 C542 1.283 . S
O566 Mn540 2.094 . S
O566 C544 1.240 . S
O567 Mn541 2.117 . S
O567 C544 1.264 . S
C568 C561 1.403 . S
C568 C569 1.399 . S
C568 H574 0.929 . S
C569 C549 1.449 . S
C569 C568 1.399 . S
C569 H575 0.930 . S
H570 C550 0.931 . S
H571 C551 0.930 . S
H572 C559 0.931 . S
H573 C560 0.929 . S
H574 C568 0.929 . S
H575 C569 0.930 . S
Mn576 O581 2.095 . S
Mn576 O591 2.162 . S
Mn576 O592 2.297 . S
Mn576 O600 2.385 . S
Mn576 O601 2.209 . S
Mn576 O602 2.094 . S
Mn577 O582 2.121 . S
Mn577 N584 2.257 1_556 S
Mn577 N593 2.282 1_556 S
Mn577 O601 2.215 . S
Mn577 O603 2.117 . S
C578 O600 1.234 1_554 S
C578 O601 1.283 1_554 S
C579 O591 1.281 . S
C579 O592 1.236 . S
C580 O602 1.240 . S
C580 O603 1.264 . S
O581 Mn576 2.095 . S
O581 C590 1.250 . S
O582 Mn577 2.121 . S
O582 C590 1.258 . S
C583 N584 1.326 . S
C583 C587 1.460 . S
C583 H589 0.929 . S
N584 Mn577 2.257 1_554 S
N584 C583 1.326 . S
N584 C588 1.362 . S
C585 C586 1.258 . S
C585 C588 1.431 . S
C585 C605 1.449 . S
C586 C585 1.258 . S
C586 C587 1.477 . S
C586 H606 0.931 . S
C587 C583 1.460 . S
C587 C586 1.477 . S
C587 H607 0.930 . S
C588 N584 1.362 . S
C588 C585 1.431 . S
C588 C598 1.476 . S
H589 C583 0.929 . S
C590 O581 1.250 . S
C590 O582 1.258 . S
O591 Mn576 2.162 . S
O591 C579 1.281 . S
O592 Mn576 2.297 . S
O592 C579 1.236 . S
N593 Mn577 2.282 1_554 S
N593 C594 1.328 . S
N593 C598 1.318 . S
C594 N593 1.328 . S
C594 C595 1.457 . S
C594 H599 0.929 1_554 S
C595 C594 1.457 . S
C595 C596 1.291 . S
C595 H608 0.931 . S
C596 C595 1.291 . S
C596 C597 1.373 . S
C596 H609 0.929 . S
C597 C596 1.373 . S
C597 C598 1.396 . S
C597 C604 1.403 . S
C598 C588 1.476 . S
C598 N593 1.318 . S
C598 C597 1.396 . S
H599 C594 0.929 1_556 S
O600 Mn576 2.385 . S
O600 C578 1.234 1_556 S
O601 Mn576 2.209 . S
O601 Mn577 2.215 . S
O601 C578 1.283 1_556 S
O602 Mn576 2.094 . S
O602 C580 1.240 . S
O603 Mn577 2.117 . S
O603 C580 1.264 . S
C604 C597 1.403 . S
C604 C605 1.399 . S
C604 H610 0.929 . S
C605 C585 1.449 . S
C605 C604 1.399 . S
C605 H611 0.930 . S
H606 C586 0.931 . S
H607 C587 0.930 . S
H608 C595 0.931 . S
H609 C596 0.929 . S
H610 C604 0.929 . S
H611 C605 0.930 . S
Mn612 O617 2.095 . S
Mn612 O627 2.162 . S
Mn612 O628 2.297 . S
Mn612 O636 2.385 . S
Mn612 O637 2.209 . S
Mn612 O638 2.094 . S
Mn613 O618 2.121 . S
Mn613 N620 2.257 . S
Mn613 N629 2.282 . S
Mn613 O637 2.215 . S
Mn613 O639 2.117 . S
C614 O636 1.234 . S
C614 O637 1.283 . S
C615 O627 1.281 . S
C615 O628 1.236 . S
C616 O638 1.240 . S
C616 O639 1.264 . S
O617 Mn612 2.095 . S
O617 C626 1.250 . S
O618 Mn613 2.121 . S
O618 C626 1.258 . S
C619 N620 1.326 . S
C619 C623 1.460 . S
C619 H625 0.929 . S
N620 Mn613 2.257 . S
N620 C619 1.326 . S
N620 C624 1.362 . S
C621 C622 1.258 . S
C621 C624 1.431 . S
C621 C641 1.449 . S
C622 C621 1.258 . S
C622 C623 1.477 . S
C622 H642 0.931 . S
C623 C619 1.460 . S
C623 C622 1.477 . S
C623 H643 0.930 . S
C624 N620 1.362 . S
C624 C621 1.431 . S
C624 C634 1.476 . S
H625 C619 0.929 . S
C626 O617 1.250 . S
C626 O618 1.258 . S
O627 Mn612 2.162 . S
O627 C615 1.281 . S
O628 Mn612 2.297 . S
O628 C615 1.236 . S
N629 Mn613 2.282 . S
N629 C630 1.328 . S
N629 C634 1.318 . S
C630 N629 1.328 . S
C630 C631 1.457 . S
C630 H635 0.929 . S
C631 C630 1.457 . S
C631 C632 1.291 . S
C631 H644 0.931 . S
C632 C631 1.291 . S
C632 C633 1.373 . S
C632 H645 0.929 . S
C633 C632 1.373 . S
C633 C634 1.396 . S
C633 C640 1.403 . S
C634 C624 1.476 . S
C634 N629 1.318 . S
C634 C633 1.396 . S
H635 C630 0.929 . S
O636 Mn612 2.385 . S
O636 C614 1.234 . S
O637 Mn612 2.209 . S
O637 Mn613 2.215 . S
O637 C614 1.283 . S
O638 Mn612 2.094 . S
O638 C616 1.240 . S
O639 Mn613 2.117 . S
O639 C616 1.264 . S
C640 C633 1.403 . S
C640 C641 1.399 . S
C640 H646 0.929 . S
C641 C621 1.449 . S
C641 C640 1.399 . S
C641 H647 0.930 . S
H642 C622 0.931 . S
H643 C623 0.930 . S
H644 C631 0.931 . S
H645 C632 0.929 . S
H646 C640 0.929 . S
H647 C641 0.930 . S
Mn648 O653 2.095 . S
Mn648 O663 2.162 . S
Mn648 O664 2.297 . S
Mn648 O672 2.385 . S
Mn648 O673 2.209 . S
Mn648 O674 2.094 . S
Mn649 O654 2.121 . S
Mn649 N656 2.257 . S
Mn649 N665 2.282 . S
Mn649 O673 2.215 . S
Mn649 O675 2.117 . S
C650 O672 1.234 . S
C650 O673 1.283 . S
C651 O663 1.281 . S
C651 O664 1.236 . S
C652 O674 1.240 . S
C652 O675 1.264 . S
O653 Mn648 2.095 . S
O653 C662 1.250 . S
O654 Mn649 2.121 . S
O654 C662 1.258 . S
C655 N656 1.326 . S
C655 C659 1.460 . S
C655 H661 0.929 . S
N656 Mn649 2.257 . S
N656 C655 1.326 . S
N656 C660 1.362 . S
C657 C658 1.258 . S
C657 C660 1.431 . S
C657 C677 1.449 . S
C658 C657 1.258 . S
C658 C659 1.477 . S
C658 H678 0.931 . S
C659 C655 1.460 . S
C659 C658 1.477 . S
C659 H679 0.930 . S
C660 N656 1.362 . S
C660 C657 1.431 . S
C660 C670 1.476 . S
H661 C655 0.929 . S
C662 O653 1.250 . S
C662 O654 1.258 . S
O663 Mn648 2.162 . S
O663 C651 1.281 . S
O664 Mn648 2.297 . S
O664 C651 1.236 . S
N665 Mn649 2.282 . S
N665 C666 1.328 . S
N665 C670 1.318 . S
C666 N665 1.328 . S
C666 C667 1.457 . S
C666 H671 0.929 . S
C667 C666 1.457 . S
C667 C668 1.291 . S
C667 H680 0.931 . S
C668 C667 1.291 . S
C668 C669 1.373 . S
C668 H681 0.929 . S
C669 C668 1.373 . S
C669 C670 1.396 . S
C669 C676 1.403 . S
C670 C660 1.476 . S
C670 N665 1.318 . S
C670 C669 1.396 . S
H671 C666 0.929 . S
O672 Mn648 2.385 . S
O672 C650 1.234 . S
O673 Mn648 2.209 . S
O673 Mn649 2.215 . S
O673 C650 1.283 . S
O674 Mn648 2.094 . S
O674 C652 1.240 . S
O675 Mn649 2.117 . S
O675 C652 1.264 . S
C676 C669 1.403 . S
C676 C677 1.399 . S
C676 H682 0.929 . S
C677 C657 1.449 . S
C677 C676 1.399 . S
C677 H683 0.930 . S
H678 C658 0.931 . S
H679 C659 0.930 . S
H680 C667 0.931 . S
H681 C668 0.929 . S
H682 C676 0.929 . S
H683 C677 0.930 . S
Mn684 O689 2.095 . S
Mn684 O699 2.162 . S
Mn684 O700 2.297 . S
Mn684 O708 2.385 . S
Mn684 O709 2.209 . S
Mn684 O710 2.094 . S
Mn685 O690 2.121 . S
Mn685 N692 2.257 . S
Mn685 N701 2.282 . S
Mn685 O709 2.215 . S
Mn685 O711 2.117 . S
C686 O708 1.234 . S
C686 O709 1.283 . S
C687 O699 1.281 . S
C687 O700 1.236 . S
C688 O710 1.240 . S
C688 O711 1.264 . S
O689 Mn684 2.095 . S
O689 C698 1.250 . S
O690 Mn685 2.121 . S
O690 C698 1.258 . S
C691 N692 1.326 . S
C691 C695 1.460 . S
C691 H697 0.929 . S
N692 Mn685 2.257 . S
N692 C691 1.326 . S
N692 C696 1.362 . S
C693 C694 1.258 . S
C693 C696 1.431 . S
C693 C713 1.449 . S
C694 C693 1.258 . S
C694 C695 1.477 . S
C694 H714 0.931 . S
C695 C691 1.460 . S
C695 C694 1.477 . S
C695 H715 0.930 . S
C696 N692 1.362 . S
C696 C693 1.431 . S
C696 C706 1.476 . S
H697 C691 0.929 . S
C698 O689 1.250 . S
C698 O690 1.258 . S
O699 Mn684 2.162 . S
O699 C687 1.281 . S
O700 Mn684 2.297 . S
O700 C687 1.236 . S
N701 Mn685 2.282 . S
N701 C702 1.328 . S
N701 C706 1.318 . S
C702 N701 1.328 . S
C702 C703 1.457 . S
C702 H707 0.929 . S
C703 C702 1.457 . S
C703 C704 1.291 . S
C703 H716 0.931 . S
C704 C703 1.291 . S
C704 C705 1.373 . S
C704 H717 0.929 . S
C705 C704 1.373 . S
C705 C706 1.396 . S
C705 C712 1.403 . S
C706 C696 1.476 . S
C706 N701 1.318 . S
C706 C705 1.396 . S
H707 C702 0.929 . S
O708 Mn684 2.385 . S
O708 C686 1.234 . S
O709 Mn684 2.209 . S
O709 Mn685 2.215 . S
O709 C686 1.283 . S
O710 Mn684 2.094 . S
O710 C688 1.240 . S
O711 Mn685 2.117 . S
O711 C688 1.264 . S
C712 C705 1.403 . S
C712 C713 1.399 . S
C712 H718 0.929 . S
C713 C693 1.449 . S
C713 C712 1.399 . S
C713 H719 0.930 1_556 S
H714 C694 0.931 . S
H715 C695 0.930 . S
H716 C703 0.931 . S
H717 C704 0.929 . S
H718 C712 0.929 . S
H719 C713 0.930 1_554 S
Mn720 O725 2.095 . S
Mn720 O735 2.162 . S
Mn720 O736 2.297 . S
Mn720 O744 2.385 . S
Mn720 O745 2.209 . S
Mn720 O746 2.094 . S
Mn721 O726 2.121 . S
Mn721 N728 2.257 . S
Mn721 N737 2.282 . S
Mn721 O745 2.215 . S
Mn721 O747 2.117 . S
C722 O744 1.234 . S
C722 O745 1.283 . S
C723 O735 1.281 . S
C723 O736 1.236 . S
C724 O746 1.240 . S
C724 O747 1.264 . S
O725 Mn720 2.095 . S
O725 C734 1.250 . S
O726 Mn721 2.121 . S
O726 C734 1.258 . S
C727 N728 1.326 . S
C727 C731 1.460 . S
C727 H733 0.929 . S
N728 Mn721 2.257 . S
N728 C727 1.326 . S
N728 C732 1.362 . S
C729 C730 1.258 . S
C729 C732 1.431 . S
C729 C749 1.449 . S
C730 C729 1.258 . S
C730 C731 1.477 . S
C730 H750 0.931 . S
C731 C727 1.460 . S
C731 C730 1.477 . S
C731 H751 0.930 . S
C732 N728 1.362 . S
C732 C729 1.431 . S
C732 C742 1.476 . S
H733 C727 0.929 . S
C734 O725 1.250 . S
C734 O726 1.258 . S
O735 Mn720 2.162 . S
O735 C723 1.281 . S
O736 Mn720 2.297 . S
O736 C723 1.236 . S
N737 Mn721 2.282 . S
N737 C738 1.328 . S
N737 C742 1.318 . S
C738 N737 1.328 . S
C738 C739 1.457 . S
C738 H743 0.929 . S
C739 C738 1.457 . S
C739 C740 1.291 . S
C739 H752 0.931 . S
C740 C739 1.291 . S
C740 C741 1.373 . S
C740 H753 0.929 . S
C741 C740 1.373 . S
C741 C742 1.396 . S
C741 C748 1.403 . S
C742 C732 1.476 . S
C742 N737 1.318 . S
C742 C741 1.396 . S
H743 C738 0.929 . S
O744 Mn720 2.385 . S
O744 C722 1.234 . S
O745 Mn720 2.209 . S
O745 Mn721 2.215 . S
O745 C722 1.283 . S
O746 Mn720 2.094 . S
O746 C724 1.240 . S
O747 Mn721 2.117 . S
O747 C724 1.264 . S
C748 C741 1.403 . S
C748 C749 1.399 . S
C748 H754 0.929 . S
C749 C729 1.449 . S
C749 C748 1.399 . S
C749 H755 0.930 . S
H750 C730 0.931 . S
H751 C731 0.930 . S
H752 C739 0.931 . S
H753 C740 0.929 . S
H754 C748 0.929 . S
H755 C749 0.930 . S
Mn756 O761 2.095 . S
Mn756 O771 2.162 . S
Mn756 O772 2.297 . S
Mn756 O780 2.385 . S
Mn756 O781 2.209 . S
Mn756 O782 2.094 . S
Mn757 O762 2.121 . S
Mn757 N764 2.257 . S
Mn757 N773 2.282 . S
Mn757 O781 2.215 . S
Mn757 O783 2.117 . S
C758 O780 1.234 . S
C758 O781 1.283 . S
C759 O771 1.281 . S
C759 O772 1.236 . S
C760 O782 1.240 . S
C760 O783 1.264 . S
O761 Mn756 2.095 . S
O761 C770 1.250 . S
O762 Mn757 2.121 . S
O762 C770 1.258 . S
C763 N764 1.326 . S
C763 C767 1.460 . S
C763 H769 0.929 . S
N764 Mn757 2.257 . S
N764 C763 1.326 . S
N764 C768 1.362 . S
C765 C766 1.258 . S
C765 C768 1.431 . S
C765 C785 1.449 . S
C766 C765 1.258 . S
C766 C767 1.477 . S
C766 H786 0.931 . S
C767 C763 1.460 . S
C767 C766 1.477 . S
C767 H787 0.930 . S
C768 N764 1.362 . S
C768 C765 1.431 . S
C768 C778 1.476 . S
H769 C763 0.929 . S
C770 O761 1.250 . S
C770 O762 1.258 . S
O771 Mn756 2.162 . S
O771 C759 1.281 . S
O772 Mn756 2.297 . S
O772 C759 1.236 . S
N773 Mn757 2.282 . S
N773 C774 1.328 . S
N773 C778 1.318 . S
C774 N773 1.328 . S
C774 C775 1.457 . S
C774 H779 0.929 . S
C775 C774 1.457 . S
C775 C776 1.291 . S
C775 H788 0.931 . S
C776 C775 1.291 . S
C776 C777 1.373 . S
C776 H789 0.929 . S
C777 C776 1.373 . S
C777 C778 1.396 . S
C777 C784 1.403 . S
C778 C768 1.476 . S
C778 N773 1.318 . S
C778 C777 1.396 . S
H779 C774 0.929 . S
O780 Mn756 2.385 . S
O780 C758 1.234 . S
O781 Mn756 2.209 . S
O781 Mn757 2.215 . S
O781 C758 1.283 . S
O782 Mn756 2.094 . S
O782 C760 1.240 . S
O783 Mn757 2.117 . S
O783 C760 1.264 . S
C784 C777 1.403 . S
C784 C785 1.399 . S
C784 H790 0.929 . S
C785 C765 1.449 . S
C785 C784 1.399 . S
C785 H791 0.930 . S
H786 C766 0.931 . S
H787 C767 0.930 . S
H788 C775 0.931 . S
H789 C776 0.929 . S
H790 C784 0.929 . S
H791 C785 0.930 . S
Mn792 O797 2.095 . S
Mn792 O807 2.162 . S
Mn792 O808 2.297 . S
Mn792 O816 2.385 . S
Mn792 O817 2.209 . S
Mn792 O818 2.094 . S
Mn793 O798 2.121 . S
Mn793 N800 2.257 1_554 S
Mn793 N809 2.282 1_554 S
Mn793 O817 2.215 . S
Mn793 O819 2.117 . S
C794 O816 1.234 1_556 S
C794 O817 1.283 1_556 S
C795 O807 1.281 . S
C795 O808 1.236 . S
C796 O818 1.240 . S
C796 O819 1.264 . S
O797 Mn792 2.095 . S
O797 C806 1.250 . S
O798 Mn793 2.121 . S
O798 C806 1.258 . S
C799 N800 1.326 . S
C799 C803 1.460 . S
C799 H805 0.929 . S
N800 Mn793 2.257 1_556 S
N800 C799 1.326 . S
N800 C804 1.362 . S
C801 C802 1.258 . S
C801 C804 1.431 . S
C801 C821 1.449 . S
C802 C801 1.258 . S
C802 C803 1.477 . S
C802 H822 0.931 . S
C803 C799 1.460 . S
C803 C802 1.477 . S
C803 H823 0.930 . S
C804 N800 1.362 . S
C804 C801 1.431 . S
C804 C814 1.476 . S
H805 C799 0.929 . S
C806 O797 1.250 . S
C806 O798 1.258 . S
O807 Mn792 2.162 . S
O807 C795 1.281 . S
O808 Mn792 2.297 . S
O808 C795 1.236 . S
N809 Mn793 2.282 1_556 S
N809 C810 1.328 . S
N809 C814 1.318 . S
C810 N809 1.328 . S
C810 C811 1.457 . S
C810 H815 0.929 1_556 S
C811 C810 1.457 . S
C811 C812 1.291 . S
C811 H824 0.931 . S
C812 C811 1.291 . S
C812 C813 1.373 . S
C812 H825 0.929 . S
C813 C812 1.373 . S
C813 C814 1.396 . S
C813 C820 1.403 . S
C814 C804 1.476 . S
C814 N809 1.318 . S
C814 C813 1.396 . S
H815 C810 0.929 1_554 S
O816 Mn792 2.385 . S
O816 C794 1.234 1_554 S
O817 Mn792 2.209 . S
O817 Mn793 2.215 . S
O817 C794 1.283 1_554 S
O818 Mn792 2.094 . S
O818 C796 1.240 . S
O819 Mn793 2.117 . S
O819 C796 1.264 . S
C820 C813 1.403 . S
C820 C821 1.399 . S
C820 H826 0.929 . S
C821 C801 1.449 . S
C821 C820 1.399 . S
C821 H827 0.930 . S
H822 C802 0.931 . S
H823 C803 0.930 . S
H824 C811 0.931 . S
H825 C812 0.929 . S
H826 C820 0.929 . S
H827 C821 0.930 . S
Mn828 O833 2.095 . S
Mn828 O843 2.162 . S
Mn828 O844 2.297 . S
Mn828 O852 2.385 . S
Mn828 O853 2.209 . S
Mn828 O854 2.094 . S
Mn829 O834 2.121 . S
Mn829 N836 2.257 . S
Mn829 N845 2.282 . S
Mn829 O853 2.215 . S
Mn829 O855 2.117 . S
C830 O852 1.234 . S
C830 O853 1.283 . S
C831 O843 1.281 . S
C831 O844 1.236 . S
C832 O854 1.240 . S
C832 O855 1.264 . S
O833 Mn828 2.095 . S
O833 C842 1.250 . S
O834 Mn829 2.121 . S
O834 C842 1.258 . S
C835 N836 1.326 . S
C835 C839 1.460 . S
C835 H841 0.929 . S
N836 Mn829 2.257 . S
N836 C835 1.326 . S
N836 C840 1.362 . S
C837 C838 1.258 . S
C837 C840 1.431 . S
C837 C857 1.449 . S
C838 C837 1.258 . S
C838 C839 1.477 . S
C838 H858 0.931 . S
C839 C835 1.460 . S
C839 C838 1.477 . S
C839 H859 0.930 . S
C840 N836 1.362 . S
C840 C837 1.431 . S
C840 C850 1.476 . S
H841 C835 0.929 . S
C842 O833 1.250 . S
C842 O834 1.258 . S
O843 Mn828 2.162 . S
O843 C831 1.281 . S
O844 Mn828 2.297 . S
O844 C831 1.236 . S
N845 Mn829 2.282 . S
N845 C846 1.328 . S
N845 C850 1.318 . S
C846 N845 1.328 . S
C846 C847 1.457 . S
C846 H851 0.929 . S
C847 C846 1.457 . S
C847 C848 1.291 . S
C847 H860 0.931 . S
C848 C847 1.291 . S
C848 C849 1.373 . S
C848 H861 0.929 . S
C849 C848 1.373 . S
C849 C850 1.396 . S
C849 C856 1.403 . S
C850 C840 1.476 . S
C850 N845 1.318 . S
C850 C849 1.396 . S
H851 C846 0.929 . S
O852 Mn828 2.385 . S
O852 C830 1.234 . S
O853 Mn828 2.209 . S
O853 Mn829 2.215 . S
O853 C830 1.283 . S
O854 Mn828 2.094 . S
O854 C832 1.240 . S
O855 Mn829 2.117 . S
O855 C832 1.264 . S
C856 C849 1.403 . S
C856 C857 1.399 . S
C856 H862 0.929 . S
C857 C837 1.449 . S
C857 C856 1.399 . S
C857 H863 0.930 1_554 S
H858 C838 0.931 . S
H859 C839 0.930 . S
H860 C847 0.931 . S
H861 C848 0.929 . S
H862 C856 0.929 . S
H863 C857 0.930 1_556 S
Mn864 O869 2.095 . S
Mn864 O879 2.162 . S
Mn864 O880 2.297 . S
Mn864 O888 2.385 . S
Mn864 O889 2.209 . S
Mn864 O890 2.094 . S
Mn865 O870 2.121 . S
Mn865 N872 2.257 1_554 S
Mn865 N881 2.282 1_554 S
Mn865 O889 2.215 . S
Mn865 O891 2.117 . S
C866 O888 1.234 1_556 S
C866 O889 1.283 1_556 S
C867 O879 1.281 . S
C867 O880 1.236 . S
C868 O890 1.240 . S
C868 O891 1.264 . S
O869 Mn864 2.095 . S
O869 C878 1.250 . S
O870 Mn865 2.121 . S
O870 C878 1.258 . S
C871 N872 1.326 . S
C871 C875 1.460 . S
C871 H877 0.929 . S
N872 Mn865 2.257 1_556 S
N872 C871 1.326 . S
N872 C876 1.362 . S
C873 C874 1.258 . S
C873 C876 1.431 . S
C873 C893 1.449 . S
C874 C873 1.258 . S
C874 C875 1.477 . S
C874 H894 0.931 . S
C875 C871 1.460 . S
C875 C874 1.477 . S
C875 H895 0.930 . S
C876 N872 1.362 . S
C876 C873 1.431 . S
C876 C886 1.476 . S
H877 C871 0.929 . S
C878 O869 1.250 . S
C878 O870 1.258 . S
O879 Mn864 2.162 . S
O879 C867 1.281 . S
O880 Mn864 2.297 . S
O880 C867 1.236 . S
N881 Mn865 2.282 1_556 S
N881 C882 1.328 . S
N881 C886 1.318 . S
C882 N881 1.328 . S
C882 C883 1.457 . S
C882 H887 0.929 1_556 S
C883 C882 1.457 . S
C883 C884 1.291 . S
C883 H896 0.931 . S
C884 C883 1.291 . S
C884 C885 1.373 . S
C884 H897 0.929 . S
C885 C884 1.373 . S
C885 C886 1.396 . S
C885 C892 1.403 . S
C886 C876 1.476 . S
C886 N881 1.318 . S
C886 C885 1.396 . S
H887 C882 0.929 1_554 S
O888 Mn864 2.385 . S
O888 C866 1.234 1_554 S
O889 Mn864 2.209 . S
O889 Mn865 2.215 . S
O889 C866 1.283 1_554 S
O890 Mn864 2.094 . S
O890 C868 1.240 . S
O891 Mn865 2.117 . S
O891 C868 1.264 . S
C892 C885 1.403 . S
C892 C893 1.399 . S
C892 H898 0.929 . S
C893 C873 1.449 . S
C893 C892 1.399 . S
C893 H899 0.930 . S
H894 C874 0.931 . S
H895 C875 0.930 . S
H896 C883 0.931 . S
H897 C884 0.929 . S
H898 C892 0.929 . S
H899 C893 0.930 . S
Mn900 O905 2.095 . S
Mn900 O915 2.162 . S
Mn900 O916 2.297 . S
Mn900 O924 2.385 . S
Mn900 O925 2.209 . S
Mn900 O926 2.094 . S
Mn901 O906 2.121 . S
Mn901 N908 2.257 . S
Mn901 N917 2.282 . S
Mn901 O925 2.215 . S
Mn901 O927 2.117 . S
C902 O924 1.234 . S
C902 O925 1.283 . S
C903 O915 1.281 . S
C903 O916 1.236 . S
C904 O926 1.240 . S
C904 O927 1.264 . S
O905 Mn900 2.095 . S
O905 C914 1.250 . S
O906 Mn901 2.121 . S
O906 C914 1.258 . S
C907 N908 1.326 . S
C907 C911 1.460 . S
C907 H913 0.929 . S
N908 Mn901 2.257 . S
N908 C907 1.326 . S
N908 C912 1.362 . S
C909 C910 1.258 . S
C909 C912 1.431 . S
C909 C929 1.449 . S
C910 C909 1.258 . S
C910 C911 1.477 . S
C910 H930 0.931 . S
C911 C907 1.460 . S
C911 C910 1.477 . S
C911 H931 0.930 . S
C912 N908 1.362 . S
C912 C909 1.431 . S
C912 C922 1.476 . S
H913 C907 0.929 . S
C914 O905 1.250 . S
C914 O906 1.258 . S
O915 Mn900 2.162 . S
O915 C903 1.281 . S
O916 Mn900 2.297 . S
O916 C903 1.236 . S
N917 Mn901 2.282 . S
N917 C918 1.328 . S
N917 C922 1.318 . S
C918 N917 1.328 . S
C918 C919 1.457 . S
C918 H923 0.929 . S
C919 C918 1.457 . S
C919 C920 1.291 . S
C919 H932 0.931 . S
C920 C919 1.291 . S
C920 C921 1.373 . S
C920 H933 0.929 . S
C921 C920 1.373 . S
C921 C922 1.396 . S
C921 C928 1.403 . S
C922 C912 1.476 . S
C922 N917 1.318 . S
C922 C921 1.396 . S
H923 C918 0.929 . S
O924 Mn900 2.385 . S
O924 C902 1.234 . S
O925 Mn900 2.209 . S
O925 Mn901 2.215 . S
O925 C902 1.283 . S
O926 Mn900 2.094 . S
O926 C904 1.240 . S
O927 Mn901 2.117 . S
O927 C904 1.264 . S
C928 C921 1.403 . S
C928 C929 1.399 . S
C928 H934 0.929 . S
C929 C909 1.449 . S
C929 C928 1.399 . S
C929 H935 0.930 . S
H930 C910 0.931 . S
H931 C911 0.930 . S
H932 C919 0.931 . S
H933 C920 0.929 . S
H934 C928 0.929 . S
H935 C929 0.930 . S
Mn936 O941 2.095 . S
Mn936 O951 2.162 . S
Mn936 O952 2.297 . S
Mn936 O960 2.385 . S
Mn936 O961 2.209 . S
Mn936 O962 2.094 . S
Mn937 O942 2.121 . S
Mn937 N944 2.257 . S
Mn937 N953 2.282 . S
Mn937 O961 2.215 . S
Mn937 O963 2.117 . S
C938 O960 1.234 . S
C938 O961 1.283 . S
C939 O951 1.281 . S
C939 O952 1.236 . S
C940 O962 1.240 . S
C940 O963 1.264 . S
O941 Mn936 2.095 . S
O941 C950 1.250 . S
O942 Mn937 2.121 . S
O942 C950 1.258 . S
C943 N944 1.326 . S
C943 C947 1.460 . S
C943 H949 0.929 . S
N944 Mn937 2.257 . S
N944 C943 1.326 . S
N944 C948 1.362 . S
C945 C946 1.258 . S
C945 C948 1.431 . S
C945 C965 1.449 . S
C946 C945 1.258 . S
C946 C947 1.477 . S
C946 H966 0.931 . S
C947 C943 1.460 . S
C947 C946 1.477 . S
C947 H967 0.930 . S
C948 N944 1.362 . S
C948 C945 1.431 . S
C948 C958 1.476 . S
H949 C943 0.929 . S
C950 O941 1.250 . S
C950 O942 1.258 . S
O951 Mn936 2.162 . S
O951 C939 1.281 . S
O952 Mn936 2.297 . S
O952 C939 1.236 . S
N953 Mn937 2.282 . S
N953 C954 1.328 . S
N953 C958 1.318 . S
C954 N953 1.328 . S
C954 C955 1.457 . S
C954 H959 0.929 . S
C955 C954 1.457 . S
C955 C956 1.291 . S
C955 H968 0.931 . S
C956 C955 1.291 . S
C956 C957 1.373 . S
C956 H969 0.929 . S
C957 C956 1.373 . S
C957 C958 1.396 . S
C957 C964 1.403 . S
C958 C948 1.476 . S
C958 N953 1.318 . S
C958 C957 1.396 . S
H959 C954 0.929 . S
O960 Mn936 2.385 . S
O960 C938 1.234 . S
O961 Mn936 2.209 . S
O961 Mn937 2.215 . S
O961 C938 1.283 . S
O962 Mn936 2.094 . S
O962 C940 1.240 . S
O963 Mn937 2.117 . S
O963 C940 1.264 . S
C964 C957 1.403 . S
C964 C965 1.399 . S
C964 H970 0.929 . S
C965 C945 1.449 . S
C965 C964 1.399 . S
C965 H971 0.930 . S
H966 C946 0.931 . S
H967 C947 0.930 . S
H968 C955 0.931 . S
H969 C956 0.929 . S
H970 C964 0.929 . S
H971 C965 0.930 . S
Mn972 O977 2.095 . S
Mn972 O987 2.162 . S
Mn972 O988 2.297 . S
Mn972 O996 2.385 . S
Mn972 O997 2.209 . S
Mn972 O998 2.094 . S
Mn973 O978 2.121 . S
Mn973 N980 2.257 . S
Mn973 N989 2.282 . S
Mn973 O997 2.215 . S
Mn973 O999 2.117 . S
C974 O996 1.234 . S
C974 O997 1.283 . S
C975 O987 1.281 . S
C975 O988 1.236 . S
C976 O998 1.240 . S
C976 O999 1.264 . S
O977 Mn972 2.095 . S
O977 C986 1.250 . S
O978 Mn973 2.121 . S
O978 C986 1.258 . S
C979 N980 1.326 . S
C979 C983 1.460 . S
C979 H985 0.929 . S
N980 Mn973 2.257 . S
N980 C979 1.326 . S
N980 C984 1.362 . S
C981 C982 1.258 . S
C981 C984 1.431 . S
C981 C1001 1.449 . S
C982 C981 1.258 . S
C982 C983 1.477 . S
C982 H1002 0.931 . S
C983 C979 1.460 . S
C983 C982 1.477 . S
C983 H1003 0.930 . S
C984 N980 1.362 . S
C984 C981 1.431 . S
C984 C994 1.476 . S
H985 C979 0.929 . S
C986 O977 1.250 . S
C986 O978 1.258 . S
O987 Mn972 2.162 . S
O987 C975 1.281 . S
O988 Mn972 2.297 . S
O988 C975 1.236 . S
N989 Mn973 2.282 . S
N989 C990 1.328 . S
N989 C994 1.318 . S
C990 N989 1.328 . S
C990 C991 1.457 . S
C990 H995 0.929 . S
C991 C990 1.457 . S
C991 C992 1.291 . S
C991 H1004 0.931 . S
C992 C991 1.291 . S
C992 C993 1.373 . S
C992 H1005 0.929 . S
C993 C992 1.373 . S
C993 C994 1.396 . S
C993 C1000 1.403 . S
C994 C984 1.476 . S
C994 N989 1.318 . S
C994 C993 1.396 . S
H995 C990 0.929 . S
O996 Mn972 2.385 . S
O996 C974 1.234 . S
O997 Mn972 2.209 . S
O997 Mn973 2.215 . S
O997 C974 1.283 . S
O998 Mn972 2.094 . S
O998 C976 1.240 . S
O999 Mn973 2.117 . S
O999 C976 1.264 . S
C1000 C993 1.403 . S
C1000 C1001 1.399 . S
C1000 H1006 0.929 . S
C1001 C981 1.449 . S
C1001 C1000 1.399 . S
C1001 H1007 0.930 1_554 S
H1002 C982 0.931 . S
H1003 C983 0.930 . S
H1004 C991 0.931 . S
H1005 C992 0.929 . S
H1006 C1000 0.929 . S
H1007 C1001 0.930 1_556 S
Mn1008 O1013 2.095 . S
Mn1008 O1023 2.162 . S
Mn1008 O1024 2.297 . S
Mn1008 O1032 2.385 . S
Mn1008 O1033 2.209 . S
Mn1008 O1034 2.094 . S
Mn1009 O1014 2.121 . S
Mn1009 N1016 2.257 . S
Mn1009 N1025 2.282 . S
Mn1009 O1033 2.215 . S
Mn1009 O1035 2.117 . S
C1010 O1032 1.234 . S
C1010 O1033 1.283 . S
C1011 O1023 1.281 . S
C1011 O1024 1.236 . S
C1012 O1034 1.240 . S
C1012 O1035 1.264 . S
O1013 Mn1008 2.095 . S
O1013 C1022 1.250 . S
O1014 Mn1009 2.121 . S
O1014 C1022 1.258 . S
C1015 N1016 1.326 . S
C1015 C1019 1.460 . S
C1015 H1021 0.929 . S
N1016 Mn1009 2.257 . S
N1016 C1015 1.326 . S
N1016 C1020 1.362 . S
C1017 C1018 1.258 . S
C1017 C1020 1.431 . S
C1017 C1037 1.449 . S
C1018 C1017 1.258 . S
C1018 C1019 1.477 . S
C1018 H1038 0.931 . S
C1019 C1015 1.460 . S
C1019 C1018 1.477 . S
C1019 H1039 0.930 . S
C1020 N1016 1.362 . S
C1020 C1017 1.431 . S
C1020 C1030 1.476 . S
H1021 C1015 0.929 . S
C1022 O1013 1.250 . S
C1022 O1014 1.258 . S
O1023 Mn1008 2.162 . S
O1023 C1011 1.281 . S
O1024 Mn1008 2.297 . S
O1024 C1011 1.236 . S
N1025 Mn1009 2.282 . S
N1025 C1026 1.328 . S
N1025 C1030 1.318 . S
C1026 N1025 1.328 . S
C1026 C1027 1.457 . S
C1026 H1031 0.929 . S
C1027 C1026 1.457 . S
C1027 C1028 1.291 . S
C1027 H1040 0.931 . S
C1028 C1027 1.291 . S
C1028 C1029 1.373 . S
C1028 H1041 0.929 . S
C1029 C1028 1.373 . S
C1029 C1030 1.396 . S
C1029 C1036 1.403 . S
C1030 C1020 1.476 . S
C1030 N1025 1.318 . S
C1030 C1029 1.396 . S
H1031 C1026 0.929 . S
O1032 Mn1008 2.385 . S
O1032 C1010 1.234 . S
O1033 Mn1008 2.209 . S
O1033 Mn1009 2.215 . S
O1033 C1010 1.283 . S
O1034 Mn1008 2.094 . S
O1034 C1012 1.240 . S
O1035 Mn1009 2.117 . S
O1035 C1012 1.264 . S
C1036 C1029 1.403 . S
C1036 C1037 1.399 . S
C1036 H1042 0.929 . S
C1037 C1017 1.449 . S
C1037 C1036 1.399 . S
C1037 H1043 0.930 . S
H1038 C1018 0.931 . S
H1039 C1019 0.930 . S
H1040 C1027 0.931 . S
H1041 C1028 0.929 . S
H1042 C1036 0.929 . S
H1043 C1037 0.930 . S
Mn1044 O1049 2.095 . S
Mn1044 O1059 2.162 . S
Mn1044 O1060 2.297 . S
Mn1044 O1068 2.385 . S
Mn1044 O1069 2.209 . S
Mn1044 O1070 2.094 . S
Mn1045 O1050 2.121 . S
Mn1045 N1052 2.257 . S
Mn1045 N1061 2.282 . S
Mn1045 O1069 2.215 . S
Mn1045 O1071 2.117 . S
C1046 O1068 1.234 . S
C1046 O1069 1.283 . S
C1047 O1059 1.281 . S
C1047 O1060 1.236 . S
C1048 O1070 1.240 . S
C1048 O1071 1.264 . S
O1049 Mn1044 2.095 . S
O1049 C1058 1.250 . S
O1050 Mn1045 2.121 . S
O1050 C1058 1.258 . S
C1051 N1052 1.326 . S
C1051 C1055 1.460 . S
C1051 H1057 0.929 . S
N1052 Mn1045 2.257 . S
N1052 C1051 1.326 . S
N1052 C1056 1.362 . S
C1053 C1054 1.258 . S
C1053 C1056 1.431 . S
C1053 C1073 1.449 . S
C1054 C1053 1.258 . S
C1054 C1055 1.477 . S
C1054 H1074 0.931 . S
C1055 C1051 1.460 . S
C1055 C1054 1.477 . S
C1055 H1075 0.930 . S
C1056 N1052 1.362 . S
C1056 C1053 1.431 . S
C1056 C1066 1.476 . S
H1057 C1051 0.929 . S
C1058 O1049 1.250 . S
C1058 O1050 1.258 . S
O1059 Mn1044 2.162 . S
O1059 C1047 1.281 . S
O1060 Mn1044 2.297 . S
O1060 C1047 1.236 . S
N1061 Mn1045 2.282 . S
N1061 C1062 1.328 . S
N1061 C1066 1.318 . S
C1062 N1061 1.328 . S
C1062 C1063 1.457 . S
C1062 H1067 0.929 . S
C1063 C1062 1.457 . S
C1063 C1064 1.291 . S
C1063 H1076 0.931 . S
C1064 C1063 1.291 . S
C1064 C1065 1.373 . S
C1064 H1077 0.929 . S
C1065 C1064 1.373 . S
C1065 C1066 1.396 . S
C1065 C1072 1.403 . S
C1066 C1056 1.476 . S
C1066 N1061 1.318 . S
C1066 C1065 1.396 . S
H1067 C1062 0.929 . S
O1068 Mn1044 2.385 . S
O1068 C1046 1.234 . S
O1069 Mn1044 2.209 . S
O1069 Mn1045 2.215 . S
O1069 C1046 1.283 . S
O1070 Mn1044 2.094 . S
O1070 C1048 1.240 . S
O1071 Mn1045 2.117 . S
O1071 C1048 1.264 . S
C1072 C1065 1.403 . S
C1072 C1073 1.399 . S
C1072 H1078 0.929 . S
C1073 C1053 1.449 . S
C1073 C1072 1.399 . S
C1073 H1079 0.930 . S
H1074 C1054 0.931 . S
H1075 C1055 0.930 . S
H1076 C1063 0.931 . S
H1077 C1064 0.929 . S
H1078 C1072 0.929 . S
H1079 C1073 0.930 . S
Mn1080 O1085 2.095 . S
Mn1080 O1095 2.162 . S
Mn1080 O1096 2.297 . S
Mn1080 O1104 2.385 . S
Mn1080 O1105 2.209 . S
Mn1080 O1106 2.094 . S
Mn1081 O1086 2.121 . S
Mn1081 N1088 2.257 1_556 S
Mn1081 N1097 2.282 1_556 S
Mn1081 O1105 2.215 . S
Mn1081 O1107 2.117 . S
C1082 O1104 1.234 1_554 S
C1082 O1105 1.283 1_554 S
C1083 O1095 1.281 . S
C1083 O1096 1.236 . S
C1084 O1106 1.240 . S
C1084 O1107 1.264 . S
O1085 Mn1080 2.095 . S
O1085 C1094 1.250 . S
O1086 Mn1081 2.121 . S
O1086 C1094 1.258 . S
C1087 N1088 1.326 . S
C1087 C1091 1.460 . S
C1087 H1093 0.929 . S
N1088 Mn1081 2.257 1_554 S
N1088 C1087 1.326 . S
N1088 C1092 1.362 . S
C1089 C1090 1.258 . S
C1089 C1092 1.431 . S
C1089 C1109 1.449 . S
C1090 C1089 1.258 . S
C1090 C1091 1.477 . S
C1090 H1110 0.931 . S
C1091 C1087 1.460 . S
C1091 C1090 1.477 . S
C1091 H1111 0.930 . S
C1092 N1088 1.362 . S
C1092 C1089 1.431 . S
C1092 C1102 1.476 . S
H1093 C1087 0.929 . S
C1094 O1085 1.250 . S
C1094 O1086 1.258 . S
O1095 Mn1080 2.162 . S
O1095 C1083 1.281 . S
O1096 Mn1080 2.297 . S
O1096 C1083 1.236 . S
N1097 Mn1081 2.282 1_554 S
N1097 C1098 1.328 . S
N1097 C1102 1.318 . S
C1098 N1097 1.328 . S
C1098 C1099 1.457 . S
C1098 H1103 0.929 1_554 S
C1099 C1098 1.457 . S
C1099 C1100 1.291 . S
C1099 H1112 0.931 . S
C1100 C1099 1.291 . S
C1100 C1101 1.373 . S
C1100 H1113 0.929 . S
C1101 C1100 1.373 . S
C1101 C1102 1.396 . S
C1101 C1108 1.403 . S
C1102 C1092 1.476 . S
C1102 N1097 1.318 . S
C1102 C1101 1.396 . S
H1103 C1098 0.929 1_556 S
O1104 Mn1080 2.385 . S
O1104 C1082 1.234 1_556 S
O1105 Mn1080 2.209 . S
O1105 Mn1081 2.215 . S
O1105 C1082 1.283 1_556 S
O1106 Mn1080 2.094 . S
O1106 C1084 1.240 . S
O1107 Mn1081 2.117 . S
O1107 C1084 1.264 . S
C1108 C1101 1.403 . S
C1108 C1109 1.399 . S
C1108 H1114 0.929 . S
C1109 C1089 1.449 . S
C1109 C1108 1.399 . S
C1109 H1115 0.930 . S
H1110 C1090 0.931 . S
H1111 C1091 0.930 . S
H1112 C1099 0.931 . S
H1113 C1100 0.929 . S
H1114 C1108 0.929 . S
H1115 C1109 0.930 . S
Mn1116 O1121 2.095 . S
Mn1116 O1131 2.162 . S
Mn1116 O1132 2.297 . S
Mn1116 O1140 2.385 . S
Mn1116 O1141 2.209 . S
Mn1116 O1142 2.094 . S
Mn1117 O1122 2.121 . S
Mn1117 N1124 2.257 . S
Mn1117 N1133 2.282 . S
Mn1117 O1141 2.215 . S
Mn1117 O1143 2.117 . S
C1118 O1140 1.234 . S
C1118 O1141 1.283 . S
C1119 O1131 1.281 . S
C1119 O1132 1.236 . S
C1120 O1142 1.240 . S
C1120 O1143 1.264 . S
O1121 Mn1116 2.095 . S
O1121 C1130 1.250 . S
O1122 Mn1117 2.121 . S
O1122 C1130 1.258 . S
C1123 N1124 1.326 . S
C1123 C1127 1.460 . S
C1123 H1129 0.929 . S
N1124 Mn1117 2.257 . S
N1124 C1123 1.326 . S
N1124 C1128 1.362 . S
C1125 C1126 1.258 . S
C1125 C1128 1.431 . S
C1125 C1145 1.449 . S
C1126 C1125 1.258 . S
C1126 C1127 1.477 . S
C1126 H1146 0.931 . S
C1127 C1123 1.460 . S
C1127 C1126 1.477 . S
C1127 H1147 0.930 . S
C1128 N1124 1.362 . S
C1128 C1125 1.431 . S
C1128 C1138 1.476 . S
H1129 C1123 0.929 . S
C1130 O1121 1.250 . S
C1130 O1122 1.258 . S
O1131 Mn1116 2.162 . S
O1131 C1119 1.281 . S
O1132 Mn1116 2.297 . S
O1132 C1119 1.236 . S
N1133 Mn1117 2.282 . S
N1133 C1134 1.328 . S
N1133 C1138 1.318 . S
C1134 N1133 1.328 . S
C1134 C1135 1.457 . S
C1134 H1139 0.929 . S
C1135 C1134 1.457 . S
C1135 C1136 1.291 . S
C1135 H1148 0.931 . S
C1136 C1135 1.291 . S
C1136 C1137 1.373 . S
C1136 H1149 0.929 . S
C1137 C1136 1.373 . S
C1137 C1138 1.396 . S
C1137 C1144 1.403 . S
C1138 C1128 1.476 . S
C1138 N1133 1.318 . S
C1138 C1137 1.396 . S
H1139 C1134 0.929 . S
O1140 Mn1116 2.385 . S
O1140 C1118 1.234 . S
O1141 Mn1116 2.209 . S
O1141 Mn1117 2.215 . S
O1141 C1118 1.283 . S
O1142 Mn1116 2.094 . S
O1142 C1120 1.240 . S
O1143 Mn1117 2.117 . S
O1143 C1120 1.264 . S
C1144 C1137 1.403 . S
C1144 C1145 1.399 . S
C1144 H1150 0.929 . S
C1145 C1125 1.449 . S
C1145 C1144 1.399 . S
C1145 H1151 0.930 1_556 S
H1146 C1126 0.931 . S
H1147 C1127 0.930 . S
H1148 C1135 0.931 . S
H1149 C1136 0.929 . S
H1150 C1144 0.929 . S
H1151 C1145 0.930 1_554 S
C1152 C1153 1.369 1_565 S
C1152 C1154 1.419 . S
C1152 H1156 0.930 . S
C1153 C1152 1.369 1_545 S
C1153 C1162 1.429 . S
C1154 C1152 1.419 . S
C1154 C1155 1.363 . S
C1154 H1157 0.929 . S
C1155 C1154 1.363 . S
C1155 C1161 1.428 1_565 S
H1156 C1152 0.930 . S
H1157 C1154 0.929 . S
S1158 N1159 1.613 . S
S1158 N1160 1.610 . S
N1159 S1158 1.613 . S
N1159 C1162 1.350 . S
N1160 S1158 1.610 . S
N1160 C1161 1.351 . S
C1161 C1155 1.428 1_545 S
C1161 N1160 1.351 . S
C1161 C1162 1.434 . S
C1162 C1153 1.429 . S
C1162 N1159 1.350 . S
C1162 C1161 1.434 . S
C1163 C1164 1.369 . S
C1163 C1165 1.419 . S
C1163 H1167 0.930 . S
C1164 C1163 1.369 . S
C1164 C1173 1.429 . S
C1165 C1163 1.419 . S
C1165 C1166 1.363 . S
C1165 H1168 0.929 . S
C1166 C1165 1.363 . S
C1166 C1172 1.428 . S
H1167 C1163 0.930 . S
H1168 C1165 0.929 . S
S1169 N1170 1.613 . S
S1169 N1171 1.610 . S
N1170 S1169 1.613 . S
N1170 C1173 1.350 . S
N1171 S1169 1.610 . S
N1171 C1172 1.351 . S
C1172 C1166 1.428 . S
C1172 N1171 1.351 . S
C1172 C1173 1.434 . S
C1173 C1164 1.429 . S
C1173 N1170 1.350 . S
C1173 C1172 1.434 . S
C1174 C1175 1.369 . S
C1174 C1176 1.419 . S
C1174 H1178 0.930 . S
C1175 C1174 1.369 . S
C1175 C1184 1.429 1_545 S
C1176 C1174 1.419 . S
C1176 C1177 1.363 1_545 S
C1176 H1179 0.929 . S
C1177 C1176 1.363 1_565 S
C1177 C1183 1.428 . S
H1178 C1174 0.930 . S
H1179 C1176 0.929 . S
S1180 N1181 1.613 . S
S1180 N1182 1.610 . S
N1181 S1180 1.613 . S
N1181 C1184 1.350 . S
N1182 S1180 1.610 . S
N1182 C1183 1.351 . S
C1183 C1177 1.428 . S
C1183 N1182 1.351 . S
C1183 C1184 1.434 . S
C1184 C1175 1.429 1_565 S
C1184 N1181 1.350 . S
C1184 C1183 1.434 . S
C1185 C1186 1.369 . S
C1185 C1187 1.419 1_556 S
C1185 H1189 0.930 . S
C1186 C1185 1.369 . S
C1186 C1195 1.429 . S
C1187 C1185 1.419 1_554 S
C1187 C1188 1.363 . S
C1187 H1190 0.929 . S
C1188 C1187 1.363 . S
C1188 C1194 1.428 . S
H1189 C1185 0.930 . S
H1190 C1187 0.929 . S
S1191 N1192 1.613 1_554 S
S1191 N1193 1.610 . S
N1192 S1191 1.613 1_556 S
N1192 C1195 1.350 . S
N1193 S1191 1.610 . S
N1193 C1194 1.351 . S
C1194 C1188 1.428 . S
C1194 N1193 1.351 . S
C1194 C1195 1.434 1_554 S
C1195 C1186 1.429 . S
C1195 N1192 1.350 . S
C1195 C1194 1.434 1_556 S
C1196 C1197 1.369 . S
C1196 C1198 1.419 . S
C1196 H1200 0.930 . S
C1197 C1196 1.369 . S
C1197 C1206 1.429 1_565 S
C1198 C1196 1.419 . S
C1198 C1199 1.363 1_565 S
C1198 H1201 0.929 . S
C1199 C1198 1.363 1_545 S
C1199 C1205 1.428 . S
H1200 C1196 0.930 . S
H1201 C1198 0.929 . S
S1202 N1203 1.613 . S
S1202 N1204 1.610 . S
N1203 S1202 1.613 . S
N1203 C1206 1.350 . S
N1204 S1202 1.610 . S
N1204 C1205 1.351 . S
C1205 C1199 1.428 . S
C1205 N1204 1.351 . S
C1205 C1206 1.434 . S
C1206 C1197 1.429 1_545 S
C1206 N1203 1.350 . S
C1206 C1205 1.434 . S
C1207 C1208 1.369 . S
C1207 C1209 1.419 . S
C1207 H1211 0.930 . S
C1208 C1207 1.369 . S
C1208 C1217 1.429 . S
C1209 C1207 1.419 . S
C1209 C1210 1.363 . S
C1209 H1212 0.929 . S
C1210 C1209 1.363 . S
C1210 C1216 1.428 . S
H1211 C1207 0.930 . S
H1212 C1209 0.929 . S
S1213 N1214 1.613 . S
S1213 N1215 1.610 . S
N1214 S1213 1.613 . S
N1214 C1217 1.350 . S
N1215 S1213 1.610 . S
N1215 C1216 1.351 . S
C1216 C1210 1.428 . S
C1216 N1215 1.351 . S
C1216 C1217 1.434 . S
C1217 C1208 1.429 . S
C1217 N1214 1.350 . S
C1217 C1216 1.434 . S
C1218 C1219 1.369 1_545 S
C1218 C1220 1.419 . S
C1218 H1222 0.930 . S
C1219 C1218 1.369 1_565 S
C1219 C1228 1.429 . S
C1220 C1218 1.419 . S
C1220 C1221 1.363 . S
C1220 H1223 0.929 . S
C1221 C1220 1.363 . S
C1221 C1227 1.428 1_545 S
H1222 C1218 0.930 . S
H1223 C1220 0.929 . S
S1224 N1225 1.613 . S
S1224 N1226 1.610 . S
N1225 S1224 1.613 . S
N1225 C1228 1.350 . S
N1226 S1224 1.610 . S
N1226 C1227 1.351 . S
C1227 C1221 1.428 1_565 S
C1227 N1226 1.351 . S
C1227 C1228 1.434 . S
C1228 C1219 1.429 . S
C1228 N1225 1.350 . S
C1228 C1227 1.434 . S
C1229 C1230 1.369 1_554 S
C1229 C1231 1.419 . S
C1229 H1233 0.930 . S
C1230 C1229 1.369 1_556 S
C1230 C1239 1.429 . S
C1231 C1229 1.419 . S
C1231 C1232 1.363 . S
C1231 H1234 0.929 . S
C1232 C1231 1.363 . S
C1232 C1238 1.428 1_554 S
H1233 C1229 0.930 . S
H1234 C1231 0.929 . S
S1235 N1236 1.613 . S
S1235 N1237 1.610 . S
N1236 S1235 1.613 . S
N1236 C1239 1.350 . S
N1237 S1235 1.610 . S
N1237 C1238 1.351 . S
C1238 C1232 1.428 1_556 S
C1238 N1237 1.351 . S
C1238 C1239 1.434 . S
C1239 C1230 1.429 . S
C1239 N1236 1.350 . S
C1239 C1238 1.434 . S
C1240 C1241 1.369 . S
C1240 C1242 1.419 . S
C1240 H1244 0.930 . S
C1241 C1240 1.369 . S
C1241 C1250 1.429 . S
C1242 C1240 1.419 . S
C1242 C1243 1.363 . S
C1242 H1245 0.929 . S
C1243 C1242 1.363 . S
C1243 C1249 1.428 . S
H1244 C1240 0.930 . S
H1245 C1242 0.929 . S
S1246 N1247 1.613 . S
S1246 N1248 1.610 . S
N1247 S1246 1.613 . S
N1247 C1250 1.350 . S
N1248 S1246 1.610 . S
N1248 C1249 1.351 . S
C1249 C1243 1.428 . S
C1249 N1248 1.351 . S
C1249 C1250 1.434 . S
C1250 C1241 1.429 . S
C1250 N1247 1.350 . S
C1250 C1249 1.434 . S
C1251 C1252 1.369 . S
C1251 C1253 1.419 . S
C1251 H1255 0.930 . S
C1252 C1251 1.369 . S
C1252 C1261 1.429 1_556 S
C1253 C1251 1.419 . S
C1253 C1254 1.363 1_556 S
C1253 H1256 0.929 . S
C1254 C1253 1.363 1_554 S
C1254 C1260 1.428 . S
H1255 C1251 0.930 . S
H1256 C1253 0.929 . S
S1257 N1258 1.613 . S
S1257 N1259 1.610 . S
N1258 S1257 1.613 . S
N1258 C1261 1.350 . S
N1259 S1257 1.610 . S
N1259 C1260 1.351 . S
C1260 C1254 1.428 . S
C1260 N1259 1.351 . S
C1260 C1261 1.434 . S
C1261 C1252 1.429 1_554 S
C1261 N1258 1.350 . S
C1261 C1260 1.434 . S
C1262 C1263 1.369 . S
C1262 C1264 1.419 . S
C1262 H1266 0.930 . S
C1263 C1262 1.369 . S
C1263 C1272 1.429 . S
C1264 C1262 1.419 . S
C1264 C1265 1.363 . S
C1264 H1267 0.929 . S
C1265 C1264 1.363 . S
C1265 C1271 1.428 . S
H1266 C1262 0.930 . S
H1267 C1264 0.929 . S
S1268 N1269 1.613 . S
S1268 N1270 1.610 . S
N1269 S1268 1.613 . S
N1269 C1272 1.350 . S
N1270 S1268 1.610 . S
N1270 C1271 1.351 . S
C1271 C1265 1.428 . S
C1271 N1270 1.351 . S
C1271 C1272 1.434 . S
C1272 C1263 1.429 . S
C1272 N1269 1.350 . S
C1272 C1271 1.434 . S
C1273 C1274 1.369 . S
C1273 C1275 1.419 . S
C1273 H1277 0.930 . S
C1274 C1273 1.369 . S
C1274 C1283 1.429 . S
C1275 C1273 1.419 . S
C1275 C1276 1.363 . S
C1275 H1278 0.929 . S
C1276 C1275 1.363 . S
C1276 C1282 1.428 . S
H1277 C1273 0.930 . S
H1278 C1275 0.929 . S
S1279 N1280 1.613 . S
S1279 N1281 1.610 . S
N1280 S1279 1.613 . S
N1280 C1283 1.350 . S
N1281 S1279 1.610 . S
N1281 C1282 1.351 . S
C1282 C1276 1.428 . S
C1282 N1281 1.351 . S
C1282 C1283 1.434 . S
C1283 C1274 1.429 . S
C1283 N1280 1.350 . S
C1283 C1282 1.434 . S
C1284 C1285 1.369 . S
C1284 C1286 1.419 . S
C1284 H1288 0.930 . S
C1285 C1284 1.369 . S
C1285 C1294 1.429 . S
C1286 C1284 1.419 . S
C1286 C1287 1.363 . S
C1286 H1289 0.929 . S
C1287 C1286 1.363 . S
C1287 C1293 1.428 . S
H1288 C1284 0.930 . S
H1289 C1286 0.929 . S
S1290 N1291 1.613 . S
S1290 N1292 1.610 . S
N1291 S1290 1.613 . S
N1291 C1294 1.350 . S
N1292 S1290 1.610 . S
N1292 C1293 1.351 . S
C1293 C1287 1.428 . S
C1293 N1292 1.351 . S
C1293 C1294 1.434 . S
C1294 C1285 1.429 . S
C1294 N1291 1.350 . S
C1294 C1293 1.434 . S
C1295 C1296 1.369 . S
C1295 C1297 1.419 1_554 S
C1295 H1299 0.930 . S
C1296 C1295 1.369 . S
C1296 C1305 1.429 . S
C1297 C1295 1.419 1_556 S
C1297 C1298 1.363 . S
C1297 H1300 0.929 . S
C1298 C1297 1.363 . S
C1298 C1304 1.428 . S
H1299 C1295 0.930 . S
H1300 C1297 0.929 . S
S1301 N1302 1.621 . S
S1301 N1303 1.602 1_554 S
N1302 S1301 1.621 . S
N1302 C1305 1.350 . S
N1303 S1301 1.602 1_556 S
N1303 C1304 1.351 . S
C1304 C1298 1.428 . S
C1304 N1303 1.351 . S
C1304 C1305 1.434 1_556 S
C1305 C1296 1.429 . S
C1305 N1302 1.350 . S
C1305 C1304 1.434 1_554 S
C1306 C1307 1.369 . S
C1306 C1308 1.419 . S
C1306 H1310 0.930 . S
C1307 C1306 1.369 . S
C1307 C1316 1.429 . S
C1308 C1306 1.419 . S
C1308 C1309 1.363 . S
C1308 H1311 0.929 . S
C1309 C1308 1.363 . S
C1309 C1315 1.428 . S
H1310 C1306 0.930 . S
H1311 C1308 0.929 . S
S1312 N1313 1.613 . S
S1312 N1314 1.610 . S
N1313 S1312 1.613 . S
N1313 C1316 1.350 . S
N1314 S1312 1.610 . S
N1314 C1315 1.351 . S
C1315 C1309 1.428 . S
C1315 N1314 1.351 . S
C1315 C1316 1.434 . S
C1316 C1307 1.429 . S
C1316 N1313 1.350 . S
C1316 C1315 1.434 . S
C1317 C1318 1.369 . S
C1317 C1319 1.419 . S
C1317 H1321 0.930 . S
C1318 C1317 1.369 . S
C1318 C1327 1.429 . S
C1319 C1317 1.419 . S
C1319 C1320 1.363 . S
C1319 H1322 0.929 . S
C1320 C1319 1.363 . S
C1320 C1326 1.428 . S
H1321 C1317 0.930 . S
H1322 C1319 0.929 . S
S1323 N1324 1.613 . S
S1323 N1325 1.610 . S
N1324 S1323 1.613 . S
N1324 C1327 1.350 . S
N1325 S1323 1.610 . S
N1325 C1326 1.351 . S
C1326 C1320 1.428 . S
C1326 N1325 1.351 . S
C1326 C1327 1.434 . S
C1327 C1318 1.429 . S
C1327 N1324 1.350 . S
C1327 C1326 1.434 . S
C1328 C1329 1.369 . S
C1328 C1330 1.419 . S
C1328 H1332 0.930 . S
C1329 C1328 1.369 . S
C1329 C1338 1.429 . S
C1330 C1328 1.419 . S
C1330 C1331 1.363 . S
C1330 H1333 0.929 . S
C1331 C1330 1.363 . S
C1331 C1337 1.428 . S
H1332 C1328 0.930 . S
H1333 C1330 0.929 . S
S1334 N1335 1.613 . S
S1334 N1336 1.610 . S
N1335 S1334 1.613 . S
N1335 C1338 1.350 . S
N1336 S1334 1.610 . S
N1336 C1337 1.351 . S
C1337 C1331 1.428 . S
C1337 N1336 1.351 . S
C1337 C1338 1.434 . S
C1338 C1329 1.429 . S
C1338 N1335 1.350 . S
C1338 C1337 1.434 . S
C1339 C1340 1.369 . S
C1339 C1341 1.419 1_655 S
C1339 H1343 0.930 . S
C1340 C1339 1.369 . S
C1340 C1349 1.429 . S
C1341 C1339 1.419 1_455 S
C1341 C1342 1.363 . S
C1341 H1344 0.929 . S
C1342 C1341 1.363 . S
C1342 C1348 1.428 . S
H1343 C1339 0.930 . S
H1344 C1341 0.929 . S
S1345 N1346 1.613 1_455 S
S1345 N1347 1.610 . S
N1346 S1345 1.613 1_655 S
N1346 C1349 1.350 . S
N1347 S1345 1.610 . S
N1347 C1348 1.351 . S
C1348 C1342 1.428 . S
C1348 N1347 1.351 . S
C1348 C1349 1.434 1_455 S
C1349 C1340 1.429 . S
C1349 N1346 1.350 . S
C1349 C1348 1.434 1_655 S
C1350 C1351 1.369 . S
C1350 C1352 1.419 . S
C1350 H1354 0.930 . S
C1351 C1350 1.369 . S
C1351 C1360 1.429 . S
C1352 C1350 1.419 . S
C1352 C1353 1.363 . S
C1352 H1355 0.929 . S
C1353 C1352 1.363 . S
C1353 C1359 1.428 . S
H1354 C1350 0.930 . S
H1355 C1352 0.929 . S
S1356 N1357 1.613 . S
S1356 N1358 1.610 . S
N1357 S1356 1.613 . S
N1357 C1360 1.350 . S
N1358 S1356 1.610 . S
N1358 C1359 1.351 . S
C1359 C1353 1.428 . S
C1359 N1358 1.351 . S
C1359 C1360 1.434 . S
C1360 C1351 1.429 . S
C1360 N1357 1.350 . S
C1360 C1359 1.434 . S
C1361 C1362 1.369 . S
C1361 C1363 1.419 . S
C1361 H1365 0.930 . S
C1362 C1361 1.369 . S
C1362 C1371 1.429 . S
C1363 C1361 1.419 . S
C1363 C1364 1.363 . S
C1363 H1366 0.929 . S
C1364 C1363 1.363 . S
C1364 C1370 1.428 . S
H1365 C1361 0.930 . S
H1366 C1363 0.929 . S
S1367 N1368 1.613 . S
S1367 N1369 1.610 . S
N1368 S1367 1.613 . S
N1368 C1371 1.350 . S
N1369 S1367 1.610 . S
N1369 C1370 1.351 . S
C1370 C1364 1.428 . S
C1370 N1369 1.351 . S
C1370 C1371 1.434 . S
C1371 C1362 1.429 . S
C1371 N1368 1.350 . S
C1371 C1370 1.434 . S
C1372 C1373 1.369 . S
C1372 C1374 1.419 . S
C1372 H1376 0.930 . S
C1373 C1372 1.369 . S
C1373 C1382 1.429 . S
C1374 C1372 1.419 . S
C1374 C1375 1.363 . S
C1374 H1377 0.929 . S
C1375 C1374 1.363 . S
C1375 C1381 1.428 . S
H1376 C1372 0.930 . S
H1377 C1374 0.929 . S
S1378 N1379 1.613 . S
S1378 N1380 1.610 . S
N1379 S1378 1.613 . S
N1379 C1382 1.350 . S
N1380 S1378 1.610 . S
N1380 C1381 1.351 . S
C1381 C1375 1.428 . S
C1381 N1380 1.351 . S
C1381 C1382 1.434 . S
C1382 C1373 1.429 . S
C1382 N1379 1.350 . S
C1382 C1381 1.434 . S
C1383 C1384 1.369 . S
C1383 C1385 1.419 . S
C1383 H1387 0.930 . S
C1384 C1383 1.369 . S
C1384 C1393 1.429 . S
C1385 C1383 1.419 . S
C1385 C1386 1.363 . S
C1385 H1388 0.929 . S
C1386 C1385 1.363 . S
C1386 C1392 1.428 . S
H1387 C1383 0.930 . S
H1388 C1385 0.929 . S
S1389 N1390 1.613 . S
S1389 N1391 1.610 . S
N1390 S1389 1.613 . S
N1390 C1393 1.350 . S
N1391 S1389 1.610 . S
N1391 C1392 1.351 . S
C1392 C1386 1.428 . S
C1392 N1391 1.351 . S
C1392 C1393 1.434 . S
C1393 C1384 1.429 . S
C1393 N1390 1.350 . S
C1393 C1392 1.434 . S
C1394 C1395 1.369 . S
C1394 C1396 1.419 . S
C1394 H1398 0.930 . S
C1395 C1394 1.369 . S
C1395 C1404 1.429 . S
C1396 C1394 1.419 . S
C1396 C1397 1.363 . S
C1396 H1399 0.929 . S
C1397 C1396 1.363 . S
C1397 C1403 1.428 . S
H1398 C1394 0.930 . S
H1399 C1396 0.929 . S
S1400 N1401 1.613 . S
S1400 N1402 1.610 . S
N1401 S1400 1.613 . S
N1401 C1404 1.350 . S
N1402 S1400 1.610 . S
N1402 C1403 1.351 . S
C1403 C1397 1.428 . S
C1403 N1402 1.351 . S
C1403 C1404 1.434 . S
C1404 C1395 1.429 . S
C1404 N1401 1.350 . S
C1404 C1403 1.434 . S
C1405 C1406 1.369 . S
C1405 C1407 1.419 1_455 S
C1405 H1409 0.930 . S
C1406 C1405 1.369 . S
C1406 C1415 1.429 . S
C1407 C1405 1.419 1_655 S
C1407 C1408 1.363 . S
C1407 H1410 0.929 . S
C1408 C1407 1.363 . S
C1408 C1414 1.428 . S
H1409 C1405 0.930 . S
H1410 C1407 0.929 . S
S1411 N1412 1.613 . S
S1411 N1413 1.610 1_455 S
N1412 S1411 1.613 . S
N1412 C1415 1.350 . S
N1413 S1411 1.610 1_655 S
N1413 C1414 1.351 . S
C1414 C1408 1.428 . S
C1414 N1413 1.351 . S
C1414 C1415 1.434 1_655 S
C1415 C1406 1.429 . S
C1415 N1412 1.350 . S
C1415 C1414 1.434 1_455 S
C1416 C1417 1.369 . S
C1416 C1418 1.419 . S
C1416 H1420 0.930 . S
C1417 C1416 1.369 . S
C1417 C1426 1.429 . S
C1418 C1416 1.419 . S
C1418 C1419 1.363 . S
C1418 H1421 0.929 . S
C1419 C1418 1.363 . S
C1419 C1425 1.428 . S
H1420 C1416 0.930 . S
H1421 C1418 0.929 . S
S1422 N1423 1.613 . S
S1422 N1424 1.610 . S
N1423 S1422 1.613 . S
N1423 C1426 1.350 . S
N1424 S1422 1.610 . S
N1424 C1425 1.351 . S
C1425 C1419 1.428 . S
C1425 N1424 1.351 . S
C1425 C1426 1.434 . S
C1426 C1417 1.429 . S
C1426 N1423 1.350 . S
C1426 C1425 1.434 . S
C1427 C1428 1.369 . S
C1427 C1429 1.419 1_655 S
C1427 H1431 0.930 . S
C1428 C1427 1.369 . S
C1428 C1437 1.429 . S
C1429 C1427 1.419 1_455 S
C1429 C1430 1.363 . S
C1429 H1432 0.929 . S
C1430 C1429 1.363 . S
C1430 C1436 1.428 . S
H1431 C1427 0.930 . S
H1432 C1429 0.929 . S
S1433 N1434 1.613 . S
S1433 N1435 1.610 1_655 S
N1434 S1433 1.613 . S
N1434 C1437 1.350 . S
N1435 S1433 1.610 1_455 S
N1435 C1436 1.351 . S
C1436 C1430 1.428 . S
C1436 N1435 1.351 . S
C1436 C1437 1.434 1_455 S
C1437 C1428 1.429 . S
C1437 N1434 1.350 . S
C1437 C1436 1.434 1_655 S
C1438 C1439 1.369 . S
C1438 C1440 1.419 . S
C1438 H1442 0.930 . S
C1439 C1438 1.369 . S
C1439 C1448 1.429 . S
C1440 C1438 1.419 . S
C1440 C1441 1.363 . S
C1440 H1443 0.929 . S
C1441 C1440 1.363 . S
C1441 C1447 1.428 . S
H1442 C1438 0.930 . S
H1443 C1440 0.929 . S
S1444 N1445 1.613 . S
S1444 N1446 1.610 . S
N1445 S1444 1.613 . S
N1445 C1448 1.350 . S
N1446 S1444 1.610 . S
N1446 C1447 1.351 . S
C1447 C1441 1.428 . S
C1447 N1446 1.351 . S
C1447 C1448 1.434 . S
C1448 C1439 1.429 . S
C1448 N1445 1.350 . S
C1448 C1447 1.434 . S
C1449 C1450 1.369 . S
C1449 C1451 1.419 . S
C1449 H1453 0.930 . S
C1450 C1449 1.369 . S
C1450 C1459 1.429 . S
C1451 C1449 1.419 . S
C1451 C1452 1.363 . S
C1451 H1454 0.929 . S
C1452 C1451 1.363 . S
C1452 C1458 1.428 . S
H1453 C1449 0.930 . S
H1454 C1451 0.929 . S
S1455 N1456 1.613 . S
S1455 N1457 1.610 . S
N1456 S1455 1.613 . S
N1456 C1459 1.350 . S
N1457 S1455 1.610 . S
N1457 C1458 1.351 . S
C1458 C1452 1.428 . S
C1458 N1457 1.351 . S
C1458 C1459 1.434 . S
C1459 C1450 1.429 . S
C1459 N1456 1.350 . S
C1459 C1458 1.434 . S
C1460 C1461 1.369 . S
C1460 C1462 1.419 . S
C1460 H1464 0.930 . S
C1461 C1460 1.369 . S
C1461 C1470 1.429 . S
C1462 C1460 1.419 . S
C1462 C1463 1.363 . S
C1462 H1465 0.929 . S
C1463 C1462 1.363 . S
C1463 C1469 1.428 . S
H1464 C1460 0.930 . S
H1465 C1462 0.929 . S
S1466 N1467 1.613 1_554 S
S1466 N1468 1.610 1_554 S
N1467 S1466 1.613 1_556 S
N1467 C1470 1.350 . S
N1468 S1466 1.610 1_556 S
N1468 C1469 1.351 . S
C1469 C1463 1.428 . S
C1469 N1468 1.351 . S
C1469 C1470 1.434 . S
C1470 C1461 1.429 . S
C1470 N1467 1.350 . S
C1470 C1469 1.434 . S
C1471 C1472 1.369 . S
C1471 C1473 1.419 . S
C1471 H1475 0.930 . S
C1472 C1471 1.369 . S
C1472 C1481 1.429 . S
C1473 C1471 1.419 . S
C1473 C1474 1.363 . S
C1473 H1476 0.929 . S
C1474 C1473 1.363 . S
C1474 C1480 1.428 . S
H1475 C1471 0.930 . S
H1476 C1473 0.929 . S
S1477 N1478 1.613 . S
S1477 N1479 1.610 . S
N1478 S1477 1.613 . S
N1478 C1481 1.350 . S
N1479 S1477 1.610 . S
N1479 C1480 1.351 . S
C1480 C1474 1.428 . S
C1480 N1479 1.351 . S
C1480 C1481 1.434 . S
C1481 C1472 1.429 . S
C1481 N1478 1.350 . S
C1481 C1480 1.434 . S
C1482 C1483 1.369 . S
C1482 C1484 1.419 . S
C1482 H1486 0.930 . S
C1483 C1482 1.369 . S
C1483 C1492 1.429 . S
C1484 C1482 1.419 . S
C1484 C1485 1.363 . S
C1484 H1487 0.929 . S
C1485 C1484 1.363 . S
C1485 C1491 1.428 . S
H1486 C1482 0.930 . S
H1487 C1484 0.929 . S
S1488 N1489 1.613 . S
S1488 N1490 1.610 . S
N1489 S1488 1.613 . S
N1489 C1492 1.350 . S
N1490 S1488 1.610 . S
N1490 C1491 1.351 . S
C1491 C1485 1.428 . S
C1491 N1490 1.351 . S
C1491 C1492 1.434 . S
C1492 C1483 1.429 . S
C1492 N1489 1.350 . S
C1492 C1491 1.434 . S
C1493 C1494 1.369 . S
C1493 C1495 1.419 1_655 S
C1493 H1497 0.930 . S
C1494 C1493 1.369 . S
C1494 C1503 1.429 . S
C1495 C1493 1.419 1_455 S
C1495 C1496 1.363 . S
C1495 H1498 0.929 . S
C1496 C1495 1.363 . S
C1496 C1502 1.428 . S
H1497 C1493 0.930 . S
H1498 C1495 0.929 . S
S1499 N1500 1.613 . S
S1499 N1501 1.610 1_655 S
N1500 S1499 1.613 . S
N1500 C1503 1.350 . S
N1501 S1499 1.610 1_455 S
N1501 C1502 1.351 . S
C1502 C1496 1.428 . S
C1502 N1501 1.351 . S
C1502 C1503 1.434 1_455 S
C1503 C1494 1.429 . S
C1503 N1500 1.350 . S
C1503 C1502 1.434 1_655 S
C1504 C1505 1.369 . S
C1504 C1506 1.419 . S
C1504 H1508 0.930 . S
C1505 C1504 1.369 . S
C1505 C1514 1.429 . S
C1506 C1504 1.419 . S
C1506 C1507 1.363 . S
C1506 H1509 0.929 . S
C1507 C1506 1.363 . S
C1507 C1513 1.428 . S
H1508 C1504 0.930 . S
H1509 C1506 0.929 . S
S1510 N1511 1.613 . S
S1510 N1512 1.610 . S
N1511 S1510 1.613 . S
N1511 C1514 1.350 . S
N1512 S1510 1.610 . S
N1512 C1513 1.351 . S
C1513 C1507 1.428 . S
C1513 N1512 1.351 . S
C1513 C1514 1.434 . S
C1514 C1505 1.429 . S
C1514 N1511 1.350 . S
C1514 C1513 1.434 . S
C1515 C1516 1.369 . S
C1515 C1517 1.419 . S
C1515 H1519 0.930 . S
C1516 C1515 1.369 . S
C1516 C1525 1.429 . S
C1517 C1515 1.419 . S
C1517 C1518 1.363 . S
C1517 H1520 0.929 . S
C1518 C1517 1.363 . S
C1518 C1524 1.428 . S
H1519 C1515 0.930 . S
H1520 C1517 0.929 . S
S1521 N1522 1.613 . S
S1521 N1523 1.610 . S
N1522 S1521 1.613 . S
N1522 C1525 1.350 . S
N1523 S1521 1.610 . S
N1523 C1524 1.351 . S
C1524 C1518 1.428 . S
C1524 N1523 1.351 . S
C1524 C1525 1.434 . S
C1525 C1516 1.429 . S
C1525 N1522 1.350 . S
C1525 C1524 1.434 . S
C1526 C1527 1.369 . S
C1526 C1528 1.419 . S
C1526 H1530 0.930 . S
C1527 C1526 1.369 . S
C1527 C1536 1.429 . S
C1528 C1526 1.419 . S
C1528 C1529 1.363 . S
C1528 H1531 0.929 . S
C1529 C1528 1.363 . S
C1529 C1535 1.428 . S
H1530 C1526 0.930 . S
H1531 C1528 0.929 . S
S1532 N1533 1.613 . S
S1532 N1534 1.610 . S
N1533 S1532 1.613 . S
N1533 C1536 1.350 . S
N1534 S1532 1.610 . S
N1534 C1535 1.351 . S
C1535 C1529 1.428 . S
C1535 N1534 1.351 . S
C1535 C1536 1.434 . S
C1536 C1527 1.429 . S
C1536 N1533 1.350 . S
C1536 C1535 1.434 . S
C1537 C1538 1.369 . S
C1537 C1539 1.419 1_655 S
C1537 H1541 0.930 . S
C1538 C1537 1.369 . S
C1538 C1547 1.429 . S
C1539 C1537 1.419 1_455 S
C1539 C1540 1.363 . S
C1539 H1542 0.929 . S
C1540 C1539 1.363 . S
C1540 C1546 1.428 . S
H1541 C1537 0.930 . S
H1542 C1539 0.929 . S
S1543 N1544 1.613 . S
S1543 N1545 1.610 1_655 S
N1544 S1543 1.613 . S
N1544 C1547 1.350 . S
N1545 S1543 1.610 1_455 S
N1545 C1546 1.351 . S
C1546 C1540 1.428 . S
C1546 N1545 1.351 . S
C1546 C1547 1.434 1_455 S
C1547 C1538 1.429 . S
C1547 N1544 1.350 . S
C1547 C1546 1.434 1_655 S
C1548 C1549 1.369 . S
C1548 C1550 1.419 . S
C1548 H1552 0.930 . S
C1549 C1548 1.369 . S
C1549 C1558 1.429 . S
C1550 C1548 1.419 . S
C1550 C1551 1.363 . S
C1550 H1553 0.929 . S
C1551 C1550 1.363 . S
C1551 C1557 1.428 . S
H1552 C1548 0.930 . S
H1553 C1550 0.929 . S
S1554 N1555 1.613 . S
S1554 N1556 1.610 . S
N1555 S1554 1.613 . S
N1555 C1558 1.350 . S
N1556 S1554 1.610 . S
N1556 C1557 1.351 . S
C1557 C1551 1.428 . S
C1557 N1556 1.351 . S
C1557 C1558 1.434 . S
C1558 C1549 1.429 . S
C1558 N1555 1.350 . S
C1558 C1557 1.434 . S
C1559 C1560 1.369 . S
C1559 C1561 1.419 1_455 S
C1559 H1563 0.930 . S
C1560 C1559 1.369 . S
C1560 C1569 1.429 . S
C1561 C1559 1.419 1_655 S
C1561 C1562 1.363 . S
C1561 H1564 0.929 . S
C1562 C1561 1.363 . S
C1562 C1568 1.428 . S
H1563 C1559 0.930 . S
H1564 C1561 0.929 . S
S1565 N1566 1.613 1_654 S
S1565 N1567 1.610 1_554 S
N1566 S1565 1.613 1_456 S
N1566 C1569 1.350 . S
N1567 S1565 1.610 1_556 S
N1567 C1568 1.351 . S
C1568 C1562 1.428 . S
C1568 N1567 1.351 . S
C1568 C1569 1.434 1_655 S
C1569 C1560 1.429 . S
C1569 N1566 1.350 . S
C1569 C1568 1.434 1_455 S
C1570 C1571 1.369 . S
C1570 C1572 1.419 . S
C1570 H1574 0.930 . S
C1571 C1570 1.369 . S
C1571 C1580 1.429 . S
C1572 C1570 1.419 . S
C1572 C1573 1.363 . S
C1572 H1575 0.929 . S
C1573 C1572 1.363 . S
C1573 C1579 1.428 . S
H1574 C1570 0.930 . S
H1575 C1572 0.929 . S
S1576 N1577 1.613 . S
S1576 N1578 1.610 . S
N1577 S1576 1.613 . S
N1577 C1580 1.350 . S
N1578 S1576 1.610 . S
N1578 C1579 1.351 . S
C1579 C1573 1.428 . S
C1579 N1578 1.351 . S
C1579 C1580 1.434 . S
C1580 C1571 1.429 . S
C1580 N1577 1.350 . S
C1580 C1579 1.434 . S
C1581 C1582 1.369 . S
C1581 C1583 1.419 . S
C1581 H1585 0.930 . S
C1582 C1581 1.369 . S
C1582 C1591 1.429 . S
C1583 C1581 1.419 . S
C1583 C1584 1.363 . S
C1583 H1586 0.929 . S
C1584 C1583 1.363 . S
C1584 C1590 1.428 . S
H1585 C1581 0.930 . S
H1586 C1583 0.929 . S
S1587 N1588 1.613 . S
S1587 N1589 1.610 . S
N1588 S1587 1.613 . S
N1588 C1591 1.350 . S
N1589 S1587 1.610 . S
N1589 C1590 1.351 . S
C1590 C1584 1.428 . S
C1590 N1589 1.351 . S
C1590 C1591 1.434 . S
C1591 C1582 1.429 . S
C1591 N1588 1.350 . S
C1591 C1590 1.434 . S
C1592 C1593 1.369 . S
C1592 C1594 1.419 . S
C1592 H1596 0.930 . S
C1593 C1592 1.369 . S
C1593 C1602 1.429 . S
C1594 C1592 1.419 . S
C1594 C1595 1.363 . S
C1594 H1597 0.929 . S
C1595 C1594 1.363 . S
C1595 C1601 1.428 . S
H1596 C1592 0.930 . S
H1597 C1594 0.929 . S
S1598 N1599 1.613 . S
S1598 N1600 1.610 . S
N1599 S1598 1.613 . S
N1599 C1602 1.350 . S
N1600 S1598 1.610 . S
N1600 C1601 1.351 . S
C1601 C1595 1.428 . S
C1601 N1600 1.351 . S
C1601 C1602 1.434 . S
C1602 C1593 1.429 . S
C1602 N1599 1.350 . S
C1602 C1601 1.434 . S
C1603 C1604 1.369 . S
C1603 C1605 1.419 . S
C1603 H1607 0.930 . S
C1604 C1603 1.369 . S
C1604 C1613 1.429 . S
C1605 C1603 1.419 . S
C1605 C1606 1.363 . S
C1605 H1608 0.929 . S
C1606 C1605 1.363 . S
C1606 C1612 1.428 . S
H1607 C1603 0.930 . S
H1608 C1605 0.929 . S
S1609 N1610 1.613 . S
S1609 N1611 1.610 . S
N1610 S1609 1.613 . S
N1610 C1613 1.350 . S
N1611 S1609 1.610 . S
N1611 C1612 1.351 . S
C1612 C1606 1.428 . S
C1612 N1611 1.351 . S
C1612 C1613 1.434 . S
C1613 C1604 1.429 . S
C1613 N1610 1.350 . S
C1613 C1612 1.434 . S
C1614 C1615 1.369 . S
C1614 C1616 1.419 . S
C1614 H1618 0.930 . S
C1615 C1614 1.369 . S
C1615 C1624 1.429 . S
C1616 C1614 1.419 . S
C1616 C1617 1.363 . S
C1616 H1619 0.929 . S
C1617 C1616 1.363 . S
C1617 C1623 1.428 . S
H1618 C1614 0.930 . S
H1619 C1616 0.929 . S
S1620 N1621 1.613 . S
S1620 N1622 1.610 . S
N1621 S1620 1.613 . S
N1621 C1624 1.350 . S
N1622 S1620 1.610 . S
N1622 C1623 1.351 . S
C1623 C1617 1.428 . S
C1623 N1622 1.351 . S
C1623 C1624 1.434 . S
C1624 C1615 1.429 . S
C1624 N1621 1.350 . S
C1624 C1623 1.434 . S
C1625 C1626 1.369 . S
C1625 C1627 1.419 1_455 S
C1625 H1629 0.930 . S
C1626 C1625 1.369 . S
C1626 C1635 1.429 . S
C1627 C1625 1.419 1_655 S
C1627 C1628 1.363 . S
C1627 H1630 0.929 . S
C1628 C1627 1.363 . S
C1628 C1634 1.428 . S
H1629 C1625 0.930 . S
H1630 C1627 0.929 . S
S1631 N1632 1.613 . S
S1631 N1633 1.610 1_455 S
N1632 S1631 1.613 . S
N1632 C1635 1.350 . S
N1633 S1631 1.610 1_655 S
N1633 C1634 1.351 . S
C1634 C1628 1.428 . S
C1634 N1633 1.351 . S
C1634 C1635 1.434 1_655 S
C1635 C1626 1.429 . S
C1635 N1632 1.350 . S
C1635 C1634 1.434 1_455 S
C1636 C1637 1.369 . S
C1636 C1638 1.419 . S
C1636 H1640 0.930 . S
C1637 C1636 1.369 . S
C1637 C1646 1.429 . S
C1638 C1636 1.419 . S
C1638 C1639 1.363 . S
C1638 H1641 0.929 . S
C1639 C1638 1.363 . S
C1639 C1645 1.428 . S
H1640 C1636 0.930 . S
H1641 C1638 0.929 . S
S1642 N1643 1.613 . S
S1642 N1644 1.610 . S
N1643 S1642 1.613 . S
N1643 C1646 1.350 . S
N1644 S1642 1.610 . S
N1644 C1645 1.351 . S
C1645 C1639 1.428 . S
C1645 N1644 1.351 . S
C1645 C1646 1.434 . S
C1646 C1637 1.429 . S
C1646 N1643 1.350 . S
C1646 C1645 1.434 . S
C1647 C1648 1.369 . S
C1647 C1649 1.419 1_655 S
C1647 H1651 0.930 . S
C1648 C1647 1.369 . S
C1648 C1657 1.429 . S
C1649 C1647 1.419 1_455 S
C1649 C1650 1.363 . S
C1649 H1652 0.929 . S
C1650 C1649 1.363 . S
C1650 C1656 1.428 . S
H1651 C1647 0.930 . S
H1652 C1649 0.929 . S
S1653 N1654 1.613 1_456 S
S1653 N1655 1.610 1_556 S
N1654 S1653 1.613 1_654 S
N1654 C1657 1.350 . S
N1655 S1653 1.610 1_554 S
N1655 C1656 1.351 . S
C1656 C1650 1.428 . S
C1656 N1655 1.351 . S
C1656 C1657 1.434 1_455 S
C1657 C1648 1.429 . S
C1657 N1654 1.350 . S
C1657 C1656 1.434 1_655 S
C1658 C1659 1.369 . S
C1658 C1660 1.419 . S
C1658 H1662 0.930 . S
C1659 C1658 1.369 . S
C1659 C1668 1.429 . S
C1660 C1658 1.419 . S
C1660 C1661 1.363 . S
C1660 H1663 0.929 . S
C1661 C1660 1.363 . S
C1661 C1667 1.428 . S
H1662 C1658 0.930 . S
H1663 C1660 0.929 . S
S1664 N1665 1.613 . S
S1664 N1666 1.610 . S
N1665 S1664 1.613 . S
N1665 C1668 1.350 . S
N1666 S1664 1.610 . S
N1666 C1667 1.351 . S
C1667 C1661 1.428 . S
C1667 N1666 1.351 . S
C1667 C1668 1.434 . S
C1668 C1659 1.429 . S
C1668 N1665 1.350 . S
C1668 C1667 1.434 . S
C1669 C1670 1.369 . S
C1669 C1671 1.419 . S
C1669 H1673 0.930 . S
C1670 C1669 1.369 . S
C1670 C1679 1.429 . S
C1671 C1669 1.419 . S
C1671 C1672 1.363 . S
C1671 H1674 0.929 . S
C1672 C1671 1.363 . S
C1672 C1678 1.428 . S
H1673 C1669 0.930 . S
H1674 C1671 0.929 . S
S1675 N1676 1.613 . S
S1675 N1677 1.610 . S
N1676 S1675 1.613 . S
N1676 C1679 1.350 . S
N1677 S1675 1.610 . S
N1677 C1678 1.351 . S
C1678 C1672 1.428 . S
C1678 N1677 1.351 . S
C1678 C1679 1.434 . S
C1679 C1670 1.429 . S
C1679 N1676 1.350 . S
C1679 C1678 1.434 . S
C1680 C1681 1.369 . S
C1680 C1682 1.419 . S
C1680 H1684 0.930 . S
C1681 C1680 1.369 . S
C1681 C1690 1.429 . S
C1682 C1680 1.419 . S
C1682 C1683 1.363 . S
C1682 H1685 0.929 . S
C1683 C1682 1.363 . S
C1683 C1689 1.428 . S
H1684 C1680 0.930 . S
H1685 C1682 0.929 . S
S1686 N1687 1.613 . S
S1686 N1688 1.610 . S
N1687 S1686 1.613 . S
N1687 C1690 1.350 . S
N1688 S1686 1.610 . S
N1688 C1689 1.351 . S
C1689 C1683 1.428 . S
C1689 N1688 1.351 . S
C1689 C1690 1.434 . S
C1690 C1681 1.429 . S
C1690 N1687 1.350 . S
C1690 C1689 1.434 . S
C1691 C1692 1.369 . S
C1691 C1693 1.419 . S
C1691 H1695 0.930 . S
C1692 C1691 1.369 . S
C1692 C1701 1.429 . S
C1693 C1691 1.419 . S
C1693 C1694 1.363 . S
C1693 H1696 0.929 . S
C1694 C1693 1.363 . S
C1694 C1700 1.428 . S
H1695 C1691 0.930 . S
H1696 C1693 0.929 . S
S1697 N1698 1.613 . S
S1697 N1699 1.610 . S
N1698 S1697 1.613 . S
N1698 C1701 1.350 . S
N1699 S1697 1.610 . S
N1699 C1700 1.351 . S
C1700 C1694 1.428 . S
C1700 N1699 1.351 . S
C1700 C1701 1.434 . S
C1701 C1692 1.429 . S
C1701 N1698 1.350 . S
C1701 C1700 1.434 . S
C1702 C1703 1.369 . S
C1702 C1704 1.419 . S
C1702 H1706 0.930 . S
C1703 C1702 1.369 . S
C1703 C1712 1.429 . S
C1704 C1702 1.419 . S
C1704 C1705 1.363 . S
C1704 H1707 0.929 . S
C1705 C1704 1.363 . S
C1705 C1711 1.428 . S
H1706 C1702 0.930 . S
H1707 C1704 0.929 . S
S1708 N1709 1.613 . S
S1708 N1710 1.610 . S
N1709 S1708 1.613 . S
N1709 C1712 1.350 . S
N1710 S1708 1.610 . S
N1710 C1711 1.351 . S
C1711 C1705 1.428 . S
C1711 N1710 1.351 . S
C1711 C1712 1.434 . S
C1712 C1703 1.429 . S
C1712 N1709 1.350 . S
C1712 C1711 1.434 . S
C1713 C1714 1.369 . S
C1713 C1715 1.419 . S
C1713 H1717 0.930 . S
C1714 C1713 1.369 . S
C1714 C1723 1.429 . S
C1715 C1713 1.419 . S
C1715 C1716 1.363 . S
C1715 H1718 0.929 . S
C1716 C1715 1.363 . S
C1716 C1722 1.428 . S
H1717 C1713 0.930 . S
H1718 C1715 0.929 . S
S1719 N1720 1.613 . S
S1719 N1721 1.610 . S
N1720 S1719 1.613 . S
N1720 C1723 1.350 . S
N1721 S1719 1.610 . S
N1721 C1722 1.351 . S
C1722 C1716 1.428 . S
C1722 N1721 1.351 . S
C1722 C1723 1.434 . S
C1723 C1714 1.429 . S
C1723 N1720 1.350 . S
C1723 C1722 1.434 . S
C1724 C1725 1.369 . S
C1724 C1726 1.419 . S
C1724 H1728 0.930 . S
C1725 C1724 1.369 . S
C1725 C1734 1.429 . S
C1726 C1724 1.419 . S
C1726 C1727 1.363 . S
C1726 H1729 0.929 . S
C1727 C1726 1.363 . S
C1727 C1733 1.428 . S
H1728 C1724 0.930 . S
H1729 C1726 0.929 . S
S1730 N1731 1.613 . S
S1730 N1732 1.610 . S
N1731 S1730 1.613 . S
N1731 C1734 1.350 . S
N1732 S1730 1.610 . S
N1732 C1733 1.351 . S
C1733 C1727 1.428 . S
C1733 N1732 1.351 . S
C1733 C1734 1.434 . S
C1734 C1725 1.429 . S
C1734 N1731 1.350 . S
C1734 C1733 1.434 . S
C1735 C1736 1.369 . S
C1735 C1737 1.419 . S
C1735 H1739 0.930 . S
C1736 C1735 1.369 . S
C1736 C1745 1.429 . S
C1737 C1735 1.419 . S
C1737 C1738 1.363 . S
C1737 H1740 0.929 . S
C1738 C1737 1.363 . S
C1738 C1744 1.428 . S
H1739 C1735 0.930 . S
H1740 C1737 0.929 . S
S1741 N1742 1.613 . S
S1741 N1743 1.610 . S
N1742 S1741 1.613 . S
N1742 C1745 1.350 . S
N1743 S1741 1.610 . S
N1743 C1744 1.351 . S
C1744 C1738 1.428 . S
C1744 N1743 1.351 . S
C1744 C1745 1.434 . S
C1745 C1736 1.429 . S
C1745 N1742 1.350 . S
C1745 C1744 1.434 . S
C1746 C1747 1.369 . S
C1746 C1748 1.419 . S
C1746 H1750 0.930 . S
C1747 C1746 1.369 . S
C1747 C1756 1.429 . S
C1748 C1746 1.419 . S
C1748 C1749 1.363 . S
C1748 H1751 0.929 . S
C1749 C1748 1.363 . S
C1749 C1755 1.428 . S
H1750 C1746 0.930 . S
H1751 C1748 0.929 . S
S1752 N1753 1.613 . S
S1752 N1754 1.610 . S
N1753 S1752 1.613 . S
N1753 C1756 1.350 . S
N1754 S1752 1.610 . S
N1754 C1755 1.351 . S
C1755 C1749 1.428 . S
C1755 N1754 1.351 . S
C1755 C1756 1.434 . S
C1756 C1747 1.429 . S
C1756 N1753 1.350 . S
C1756 C1755 1.434 . S
C1757 C1758 1.369 . S
C1757 C1759 1.419 . S
C1757 H1761 0.930 . S
C1758 C1757 1.369 . S
C1758 C1767 1.429 . S
C1759 C1757 1.419 . S
C1759 C1760 1.363 . S
C1759 H1762 0.929 . S
C1760 C1759 1.363 . S
C1760 C1766 1.428 . S
H1761 C1757 0.930 . S
H1762 C1759 0.929 . S
S1763 N1764 1.613 . S
S1763 N1765 1.610 . S
N1764 S1763 1.613 . S
N1764 C1767 1.350 . S
N1765 S1763 1.610 . S
N1765 C1766 1.351 . S
C1766 C1760 1.428 . S
C1766 N1765 1.351 . S
C1766 C1767 1.434 . S
C1767 C1758 1.429 . S
C1767 N1764 1.350 . S
C1767 C1766 1.434 . S
C1768 C1769 1.369 . S
C1768 C1770 1.419 . S
C1768 H1772 0.930 . S
C1769 C1768 1.369 . S
C1769 C1778 1.429 . S
C1770 C1768 1.419 . S
C1770 C1771 1.363 . S
C1770 H1773 0.929 . S
C1771 C1770 1.363 . S
C1771 C1777 1.428 . S
H1772 C1768 0.930 . S
H1773 C1770 0.929 . S
S1774 N1775 1.613 . S
S1774 N1776 1.610 . S
N1775 S1774 1.613 . S
N1775 C1778 1.350 . S
N1776 S1774 1.610 . S
N1776 C1777 1.351 . S
C1777 C1771 1.428 . S
C1777 N1776 1.351 . S
C1777 C1778 1.434 . S
C1778 C1769 1.429 . S
C1778 N1775 1.350 . S
C1778 C1777 1.434 . S
C1779 C1780 1.369 . S
C1779 C1781 1.419 . S
C1779 H1783 0.930 . S
C1780 C1779 1.369 . S
C1780 C1789 1.429 . S
C1781 C1779 1.419 . S
C1781 C1782 1.363 . S
C1781 H1784 0.929 . S
C1782 C1781 1.363 . S
C1782 C1788 1.428 . S
H1783 C1779 0.930 . S
H1784 C1781 0.929 . S
S1785 N1786 1.613 . S
S1785 N1787 1.610 . S
N1786 S1785 1.613 . S
N1786 C1789 1.350 . S
N1787 S1785 1.610 . S
N1787 C1788 1.351 . S
C1788 C1782 1.428 . S
C1788 N1787 1.351 . S
C1788 C1789 1.434 . S
C1789 C1780 1.429 . S
C1789 N1786 1.350 . S
C1789 C1788 1.434 . S
C1790 C1791 1.369 . S
C1790 C1792 1.419 . S
C1790 H1794 0.930 . S
C1791 C1790 1.369 . S
C1791 C1800 1.429 . S
C1792 C1790 1.419 . S
C1792 C1793 1.363 . S
C1792 H1795 0.929 . S
C1793 C1792 1.363 . S
C1793 C1799 1.428 . S
H1794 C1790 0.930 . S
H1795 C1792 0.929 . S
S1796 N1797 1.613 . S
S1796 N1798 1.610 . S
N1797 S1796 1.613 . S
N1797 C1800 1.350 . S
N1798 S1796 1.610 . S
N1798 C1799 1.351 . S
C1799 C1793 1.428 . S
C1799 N1798 1.351 . S
C1799 C1800 1.434 . S
C1800 C1791 1.429 . S
C1800 N1797 1.350 . S
C1800 C1799 1.434 . S
C1801 C1802 1.369 . S
C1801 C1803 1.419 . S
C1801 H1805 0.930 . S
C1802 C1801 1.369 . S
C1802 C1811 1.429 . S
C1803 C1801 1.419 . S
C1803 C1804 1.363 . S
C1803 H1806 0.929 . S
C1804 C1803 1.363 . S
C1804 C1810 1.428 . S
H1805 C1801 0.930 . S
H1806 C1803 0.929 . S
S1807 N1808 1.613 . S
S1807 N1809 1.610 . S
N1808 S1807 1.613 . S
N1808 C1811 1.350 . S
N1809 S1807 1.610 . S
N1809 C1810 1.351 . S
C1810 C1804 1.428 . S
C1810 N1809 1.351 . S
C1810 C1811 1.434 . S
C1811 C1802 1.429 . S
C1811 N1808 1.350 . S
C1811 C1810 1.434 . S
C1812 C1813 1.369 . S
C1812 C1814 1.419 . S
C1812 H1816 0.930 . S
C1813 C1812 1.369 . S
C1813 C1822 1.429 . S
C1814 C1812 1.419 . S
C1814 C1815 1.363 . S
C1814 H1817 0.929 . S
C1815 C1814 1.363 . S
C1815 C1821 1.428 . S
H1816 C1812 0.930 . S
H1817 C1814 0.929 . S
S1818 N1819 1.613 . S
S1818 N1820 1.610 . S
N1819 S1818 1.613 . S
N1819 C1822 1.350 . S
N1820 S1818 1.610 . S
N1820 C1821 1.351 . S
C1821 C1815 1.428 . S
C1821 N1820 1.351 . S
C1821 C1822 1.434 . S
C1822 C1813 1.429 . S
C1822 N1819 1.350 . S
C1822 C1821 1.434 . S
C1823 C1824 1.369 . S
C1823 C1825 1.419 . S
C1823 H1827 0.930 . S
C1824 C1823 1.369 . S
C1824 C1833 1.429 . S
C1825 C1823 1.419 . S
C1825 C1826 1.363 . S
C1825 H1828 0.929 . S
C1826 C1825 1.363 . S
C1826 C1832 1.428 . S
H1827 C1823 0.930 . S
H1828 C1825 0.929 . S
S1829 N1830 1.613 . S
S1829 N1831 1.610 . S
N1830 S1829 1.613 . S
N1830 C1833 1.350 . S
N1831 S1829 1.610 . S
N1831 C1832 1.351 . S
C1832 C1826 1.428 . S
C1832 N1831 1.351 . S
C1832 C1833 1.434 . S
C1833 C1824 1.429 . S
C1833 N1830 1.350 . S
C1833 C1832 1.434 . S
C1834 C1835 1.369 . S
C1834 C1836 1.419 . S
C1834 H1838 0.930 . S
C1835 C1834 1.369 . S
C1835 C1844 1.429 . S
C1836 C1834 1.419 . S
C1836 C1837 1.363 . S
C1836 H1839 0.929 . S
C1837 C1836 1.363 . S
C1837 C1843 1.428 . S
H1838 C1834 0.930 . S
H1839 C1836 0.929 . S
S1840 N1841 1.613 . S
S1840 N1842 1.610 . S
N1841 S1840 1.613 . S
N1841 C1844 1.350 . S
N1842 S1840 1.610 . S
N1842 C1843 1.351 . S
C1843 C1837 1.428 . S
C1843 N1842 1.351 . S
C1843 C1844 1.434 . S
C1844 C1835 1.429 . S
C1844 N1841 1.350 . S
C1844 C1843 1.434 . S
C1845 C1846 1.369 . S
C1845 C1847 1.419 . S
C1845 H1849 0.930 . S
C1846 C1845 1.369 . S
C1846 C1855 1.429 . S
C1847 C1845 1.419 . S
C1847 C1848 1.363 . S
C1847 H1850 0.929 . S
C1848 C1847 1.363 . S
C1848 C1854 1.428 . S
H1849 C1845 0.930 . S
H1850 C1847 0.929 . S
S1851 N1852 1.613 . S
S1851 N1853 1.610 . S
N1852 S1851 1.613 . S
N1852 C1855 1.350 . S
N1853 S1851 1.610 . S
N1853 C1854 1.351 . S
C1854 C1848 1.428 . S
C1854 N1853 1.351 . S
C1854 C1855 1.434 . S
C1855 C1846 1.429 . S
C1855 N1852 1.350 . S
C1855 C1854 1.434 . S
C1153 C4 1.476 . S
C1155 C148 1.478 . S
C1164 C40 1.475 . S
C1166 C184 1.476 . S
C1175 C220 1.481 . S
C1177 C76 1.479 . S
C1186 C256 1.476 . S
C1188 C112 1.476 . S
C1197 C292 1.478 . S
C1199 C436 1.477 . S
C1208 C328 1.476 . S
C1210 C472 1.477 . S
C1219 C508 1.480 . S
C1221 C364 1.480 . S
C1230 C400 1.476 . S
C1232 C544 1.476 . S
C1241 C724 1.481 . S
C1243 C580 1.479 . S
C1252 C760 1.476 . S
C1254 C616 1.478 . S
C1263 C652 1.477 . S
C1265 C796 1.479 . S
C1274 C832 1.477 . S
C1276 C688 1.478 . S
C1285 C868 1.477 . S
C1287 C1012 1.476 . S
C1296 C1048 1.481 . S
C1298 C904 1.480 . S
C1307 C1084 1.477 . S
C1309 C940 1.478 . S
C1318 C976 1.481 . S
C1320 C1120 1.480 . S
C1329 C3 1.517 . S
C1331 C986 1.471 . S
C1340 C302 1.473 . S
C1342 C39 1.518 . S
C1351 C75 1.517 . S
C1353 C914 1.471 . S
C1362 C111 1.518 . S
C1364 C374 1.471 . S
C1373 C1058 1.462 . S
C1375 C147 1.523 . S
C1384 C518 1.471 . S
C1386 C183 1.518 . S
C1395 C219 1.522 . S
C1397 C1130 1.465 . S
C1406 C255 1.517 . S
C1408 C446 1.471 . S
C1417 C698 1.462 . S
C1419 C291 1.522 . S
C1428 C327 1.518 . S
C1430 C14 1.471 . S
C1439 C626 1.468 . S
C1441 C363 1.521 . S
C1450 C399 1.517 . S
C1452 C86 1.471 . S
C1461 C770 1.471 . S
C1463 C435 1.519 . S
C1472 C471 1.520 . S
C1474 C230 1.466 . S
C1483 C842 1.467 . S
C1485 C507 1.521 . S
C1494 C543 1.519 . S
C1496 C158 1.470 . S
C1505 C410 1.464 . S
C1507 C579 1.522 . S
C1516 C878 1.462 . S
C1518 C615 1.523 . S
C1527 C338 1.465 . S
C1529 C651 1.521 . S
C1538 C687 1.521 . S
C1540 C950 1.466 . S
C1549 C482 1.473 . S
C1551 C723 1.518 . S
C1560 C1094 1.467 . S
C1562 C759 1.520 . S
C1571 C554 1.472 . S
C1573 C795 1.518 . S
C1582 C831 1.523 . S
C1584 C1022 1.463 . S
C1593 C867 1.523 . S
C1595 C122 1.463 . S
C1604 C903 1.519 . S
C1606 C590 1.470 . S
C1615 C939 1.520 . S
C1617 C50 1.469 . S
C1626 C975 1.523 . S
C1628 C662 1.464 . S
C1637 C1011 1.517 . S
C1639 C194 1.471 . S
C1648 C806 1.462 . S
C1650 C1047 1.522 . S
C1659 C266 1.463 . S
C1661 C1083 1.522 . S
C1670 C1119 1.522 . S
C1672 C734 1.466 . S
C1681 C2 1.220 . S
C1683 C254 1.220 . S
C1692 C38 1.224 . S
C1694 C146 1.224 . S
C1703 C74 1.220 . S
C1705 C182 1.221 . S
C1714 C218 1.224 . S
C1716 C110 1.223 . S
C1725 C542 1.220 . S
C1727 C290 1.220 . S
C1736 C434 1.224 . S
C1738 C326 1.223 . S
C1747 C470 1.224 . S
C1749 C362 1.224 . S
C1758 C506 1.224 . S
C1760 C398 1.223 . S
C1769 C578 1.223 . S
C1771 C830 1.223 . S
C1780 C722 1.220 . S
C1782 C614 1.221 . S
C1791 C758 1.222 . S
C1793 C650 1.223 . S
C1802 C794 1.224 . S
C1804 C686 1.224 . S
C1813 C1118 1.222 . S
C1815 C866 1.221 . S
C1824 C902 1.220 . S
C1826 C1010 1.220 . S
C1835 C938 1.220 . S
C1837 C1046 1.221 . S
C1846 C974 1.220 . S
C1848 C1082 1.220 . S
